# Generated by pormake.
# Topology ske, (6)-cn, num edge types: 1
# Building blocks:
#     Node 0, Type 0, BuildingBlock: BETFAJ_clean_sbu_0, # of connection points: 6
#     Node 1, Type 0, BuildingBlock: BETFAJ_clean_sbu_0, # of connection points: 6
#     Node 2, Type 0, BuildingBlock: BETFAJ_clean_sbu_0, # of connection points: 6
#     Node 3, Type 0, BuildingBlock: BETFAJ_clean_sbu_0, # of connection points: 6
#     Node 4, Type 0, BuildingBlock: BETFAJ_clean_sbu_0, # of connection points: 6
#     Node 5, Type 0, BuildingBlock: BETFAJ_clean_sbu_0, # of connection points: 6
#     Node 6, Type 0, BuildingBlock: BETFAJ_clean_sbu_0, # of connection points: 6
#     Node 7, Type 0, BuildingBlock: BETFAJ_clean_sbu_0, # of connection points: 6
#     Edge 8, Type (0, 0), BuildingBlock: MIFKUJ_clean_linker_0, # of connection points: 2
#     Edge 9, Type (0, 0), BuildingBlock: MIFKUJ_clean_linker_0, # of connection points: 2
#     Edge 10, Type (0, 0), BuildingBlock: MIFKUJ_clean_linker_0, # of connection points: 2
#     Edge 11, Type (0, 0), BuildingBlock: MIFKUJ_clean_linker_0, # of connection points: 2
#     Edge 12, Type (0, 0), BuildingBlock: MIFKUJ_clean_linker_0, # of connection points: 2
#     Edge 13, Type (0, 0), BuildingBlock: MIFKUJ_clean_linker_0, # of connection points: 2
#     Edge 14, Type (0, 0), BuildingBlock: MIFKUJ_clean_linker_0, # of connection points: 2
#     Edge 15, Type (0, 0), BuildingBlock: MIFKUJ_clean_linker_0, # of connection points: 2
#     Edge 16, Type (0, 0), BuildingBlock: MIFKUJ_clean_linker_0, # of connection points: 2
#     Edge 17, Type (0, 0), BuildingBlock: MIFKUJ_clean_linker_0, # of connection points: 2
#     Edge 18, Type (0, 0), BuildingBlock: MIFKUJ_clean_linker_0, # of connection points: 2
#     Edge 19, Type (0, 0), BuildingBlock: MIFKUJ_clean_linker_0, # of connection points: 2
#     Edge 20, Type (0, 0), BuildingBlock: MIFKUJ_clean_linker_0, # of connection points: 2
#     Edge 21, Type (0, 0), BuildingBlock: MIFKUJ_clean_linker_0, # of connection points: 2
#     Edge 22, Type (0, 0), BuildingBlock: MIFKUJ_clean_linker_0, # of connection points: 2
#     Edge 23, Type (0, 0), BuildingBlock: MIFKUJ_clean_linker_0, # of connection points: 2
#     Edge 24, Type (0, 0), BuildingBlock: MIFKUJ_clean_linker_0, # of connection points: 2
#     Edge 25, Type (0, 0), BuildingBlock: MIFKUJ_clean_linker_0, # of connection points: 2
#     Edge 26, Type (0, 0), BuildingBlock: MIFKUJ_clean_linker_0, # of connection points: 2
#     Edge 27, Type (0, 0), BuildingBlock: MIFKUJ_clean_linker_0, # of connection points: 2
#     Edge 28, Type (0, 0), BuildingBlock: MIFKUJ_clean_linker_0, # of connection points: 2
#     Edge 29, Type (0, 0), BuildingBlock: MIFKUJ_clean_linker_0, # of connection points: 2
#     Edge 30, Type (0, 0), BuildingBlock: MIFKUJ_clean_linker_0, # of connection points: 2
#     Edge 31, Type (0, 0), BuildingBlock: MIFKUJ_clean_linker_0, # of connection points: 2
# Relax obj value: 0.203
# Max RMSD: 0.204
# Mean RMSD: 0.197
data_MOF--net-ske--node1-BETFAJ_clean_sbu_0--edge1-MIFKUJ_clean_linker_0
_symmetry_space_group_name_H-M    P1
_symmetry_Int_Tables_number       1
_symmetry_cell_setting            triclinic
loop_
_symmetry_equiv_pos_as_xyz
'x, y, z'
_cell_length_a     121.70666
_cell_length_b     38.408948
_cell_length_c     20.273989
_cell_angle_alpha  89.829502
_cell_angle_beta   89.897188
_cell_angle_gamma 84.496912
loop_
_atom_site_label
_atom_site_type_symbol
_atom_site_fract_x
_atom_site_fract_y
_atom_site_fract_z
_atom_type_partial_charge
Sm0 Sm 0.14875 0.25544 0.55784 0.0
Sm1 Sm 0.12447 0.24896 0.56352 0.0
C2 C 0.16939 0.27287 0.56754 0.0
C3 C 0.18033 0.26619 0.60063 0.0
C4 C 0.18335 0.28812 0.65166 0.0
C5 C 0.19415 0.28497 0.67677 0.0
C6 C 0.20226 0.26001 0.65111 0.0
C7 C 0.19915 0.23749 0.60126 0.0
C8 C 0.18836 0.24059 0.57629 0.0
C9 C 0.14367 0.18666 0.5496 0.0
C10 C 0.13714 0.24795 0.70291 0.0
C11 C 0.10389 0.23089 0.55937 0.0
C12 C 0.09224 0.23611 0.53725 0.0
C13 C 0.08646 0.20664 0.52772 0.0
C14 C 0.07503 0.21021 0.51753 0.0
C15 C 0.06904 0.24349 0.51636 0.0
C16 C 0.07496 0.27312 0.52327 0.0
C17 C 0.08642 0.26948 0.53385 0.0
C18 C 0.12964 0.31818 0.5666 0.0
C19 C 0.13617 0.255 0.41822 0.0
O20 O 0.16108 0.28864 0.60037 0.0
O21 O 0.16635 0.24925 0.52692 0.0
O22 O 0.13895 0.20958 0.58749 0.0
O23 O 0.1518 0.19904 0.51906 0.0
O24 O 0.14513 0.26124 0.66996 0.0
O25 O 0.12901 0.23509 0.67109 0.0
O26 O 0.11161 0.21803 0.51883 0.0
O27 O 0.10731 0.2533 0.60111 0.0
O28 O 0.13426 0.29428 0.53071 0.0
O29 O 0.12164 0.3063 0.59925 0.0
O30 O 0.12812 0.24214 0.45154 0.0
O31 O 0.14433 0.26815 0.4496 0.0
H32 H 0.17746 0.30853 0.67086 0.0
H33 H 0.19624 0.30304 0.71461 0.0
H34 H 0.2051 0.2176 0.58088 0.0
H35 H 0.18641 0.22344 0.53655 0.0
H36 H 0.09074 0.1806 0.53099 0.0
H37 H 0.07084 0.18669 0.51344 0.0
H38 H 0.07072 0.29921 0.52147 0.0
H39 H 0.09066 0.29268 0.54127 0.0
Sm40 Sm 0.86915 0.25079 0.5465 0.0
Sm41 Sm 0.8936 0.25733 0.55226 0.0
C42 C 0.8486 0.23271 0.55532 0.0
C43 C 0.83794 0.23602 0.59148 0.0
C44 C 0.83221 0.20626 0.59924 0.0
C45 C 0.82151 0.20897 0.62554 0.0
C46 C 0.81623 0.2416 0.6448 0.0
C47 C 0.82215 0.27128 0.63917 0.0
C48 C 0.83288 0.26855 0.61261 0.0
C49 C 0.87441 0.31908 0.53514 0.0
C50 C 0.88066 0.25911 0.69148 0.0
C51 C 0.91421 0.27509 0.54856 0.0
C52 C 0.92597 0.26989 0.52803 0.0
C53 C 0.93146 0.29935 0.51251 0.0
C54 C 0.94295 0.2965 0.50447 0.0
C55 C 0.94925 0.26402 0.5117 0.0
C56 C 0.94367 0.23418 0.52417 0.0
C57 C 0.93215 0.2371 0.53257 0.0
C58 C 0.88822 0.18848 0.55607 0.0
C59 C 0.88186 0.25137 0.40676 0.0
O60 O 0.85708 0.21432 0.5818 0.0
O61 O 0.85133 0.25988 0.52239 0.0
O62 O 0.879 0.29661 0.57463 0.0
O63 O 0.86642 0.30639 0.50399 0.0
O64 O 0.87258 0.24622 0.65891 0.0
O65 O 0.88892 0.27132 0.65951 0.0
O66 O 0.90661 0.28774 0.50705 0.0
O67 O 0.91065 0.25311 0.591 0.0
O68 O 0.88373 0.21254 0.52008 0.0
O69 O 0.89632 0.19984 0.58838 0.0
O70 O 0.89002 0.26364 0.4399 0.0
O71 O 0.87357 0.23876 0.43817 0.0
H72 H 0.8359 0.1809 0.58317 0.0
H73 H 0.81732 0.18544 0.63016 0.0
H74 H 0.81836 0.29686 0.65305 0.0
H75 H 0.83708 0.292 0.60697 0.0
H76 H 0.92691 0.32497 0.50924 0.0
H77 H 0.94692 0.31993 0.4938 0.0
H78 H 0.94824 0.20878 0.53041 0.0
H79 H 0.92815 0.21394 0.54504 0.0
Sm80 Sm 0.12245 0.74889 0.47499 0.0
Sm81 Sm 0.14835 0.75613 0.47734 0.0
C82 C 0.10282 0.72412 0.473 0.0
C83 C 0.09093 0.73086 0.48986 0.0
C84 C 0.08559 0.70462 0.52157 0.0
C85 C 0.07411 0.70816 0.53003 0.0
C86 C 0.06764 0.73801 0.50664 0.0
C87 C 0.07306 0.76485 0.47694 0.0
C88 C 0.08456 0.76132 0.46862 0.0
C89 C 0.12611 0.81932 0.48786 0.0
C90 C 0.13508 0.75727 0.61623 0.0
C91 C 0.1687 0.77544 0.46654 0.0
C92 C 0.17943 0.77016 0.43121 0.0
C93 C 0.18407 0.79931 0.40504 0.0
C94 C 0.19474 0.79595 0.3782 0.0
C95 C 0.20107 0.76329 0.3771 0.0
C96 C 0.19628 0.7339 0.40178 0.0
C97 C 0.18559 0.73728 0.42852 0.0
C98 C 0.1424 0.6887 0.4931 0.0
C99 C 0.13599 0.74998 0.33277 0.0
O100 O 0.10997 0.71697 0.52066 0.0
O101 O 0.10661 0.74274 0.42533 0.0
O102 O 0.13315 0.79323 0.48333 0.0
O103 O 0.11636 0.8083 0.48578 0.0
O104 O 0.12723 0.74211 0.58521 0.0
O105 O 0.14304 0.77112 0.58348 0.0
O106 O 0.16021 0.79133 0.43549 0.0
O107 O 0.16601 0.75059 0.50598 0.0
O108 O 0.13775 0.71163 0.45466 0.0
O109 O 0.15098 0.70034 0.52013 0.0
O110 O 0.14522 0.75446 0.3649 0.0
O111 O 0.12662 0.74573 0.36377 0.0
H112 H 0.09029 0.68082 0.53816 0.0
H113 H 0.07029 0.68722 0.55426 0.0
H114 H 0.06839 0.78809 0.45777 0.0
H115 H 0.08841 0.78199 0.44369 0.0
H116 H 0.17956 0.82502 0.40716 0.0
H117 H 0.19816 0.81925 0.36048 0.0
H118 H 0.20084 0.70826 0.40091 0.0
H119 H 0.18226 0.71427 0.4483 0.0
Sm120 Sm 0.89224 0.75889 0.47542 0.0
Sm121 Sm 0.86807 0.751 0.48126 0.0
C122 C 0.91282 0.77711 0.48187 0.0
C123 C 0.92466 0.76743 0.49743 0.0
C124 C 0.92987 0.78629 0.54556 0.0
C125 C 0.94137 0.78177 0.5535 0.0
C126 C 0.94798 0.75842 0.51312 0.0
C127 C 0.94269 0.73857 0.46663 0.0
C128 C 0.93119 0.74303 0.45884 0.0
C129 C 0.88751 0.68938 0.47208 0.0
C130 C 0.8804 0.75326 0.6202 0.0
C131 C 0.84752 0.73293 0.47105 0.0
C132 C 0.83676 0.73908 0.43584 0.0
C133 C 0.83352 0.71413 0.391 0.0
C134 C 0.82286 0.71724 0.36407 0.0
C135 C 0.8151 0.74525 0.38173 0.0
C136 C 0.81845 0.77069 0.42526 0.0
C137 C 0.82911 0.76763 0.45202 0.0
C138 C 0.8729 0.81992 0.49195 0.0
C139 C 0.87955 0.75982 0.33628 0.0
O140 O 0.90568 0.78283 0.52985 0.0
O141 O 0.90867 0.76286 0.43039 0.0
O142 O 0.88274 0.71302 0.50772 0.0
O143 O 0.89553 0.70152 0.44011 0.0
O144 O 0.88802 0.76817 0.58642 0.0
O145 O 0.8727 0.7378 0.58892 0.0
O146 O 0.85595 0.71665 0.44012 0.0
O147 O 0.85039 0.75729 0.51055 0.0
O148 O 0.87756 0.79769 0.45259 0.0
O149 O 0.86498 0.80678 0.52309 0.0
O150 O 0.87174 0.74557 0.36916 0.0
O151 O 0.88752 0.77348 0.36828 0.0
H152 H 0.92509 0.8055 0.57562 0.0
H153 H 0.94508 0.79708 0.59064 0.0
H154 H 0.94746 0.72062 0.43409 0.0
H155 H 0.92749 0.72828 0.42077 0.0
H156 H 0.83913 0.69153 0.37826 0.0
H157 H 0.82057 0.69692 0.33133 0.0
H158 H 0.81277 0.7929 0.43928 0.0
H159 H 0.83125 0.78725 0.48675 0.0
Sm160 Sm 0.64875 0.75344 0.04758 0.0
Sm161 Sm 0.62426 0.7541 0.05225 0.0
C162 C 0.66975 0.76692 0.05924 0.0
C163 C 0.68037 0.76084 0.09593 0.0
C164 C 0.68359 0.7862 0.13997 0.0
C165 C 0.69421 0.78317 0.16748 0.0
C166 C 0.70195 0.75485 0.15114 0.0
C167 C 0.69861 0.72901 0.10848 0.0
C168 C 0.68798 0.73198 0.08118 0.0
C169 C 0.64182 0.68718 0.03867 0.0
C170 C 0.63646 0.74919 0.19261 0.0
C171 C 0.6028 0.74781 0.04383 0.0
C172 C 0.59067 0.74577 0.04059 0.0
C173 C 0.58618 0.71758 1.00989 0.0
C174 C 0.57469 0.71644 1.00641 0.0
C175 C 0.56743 0.7435 0.03346 0.0
C176 C 0.57199 0.77143 0.06475 0.0
C177 C 0.58343 0.77255 0.06821 0.0
C178 C 0.63177 0.82011 0.05645 0.0
C179 C 0.63641 0.75525 0.90709 0.0
O180 O 0.6615 0.78621 0.08625 0.0
O181 O 0.66654 0.74149 0.02355 0.0
O182 O 0.63761 0.71091 0.07677 0.0
O183 O 0.65049 0.69693 1.0096 0.0
O184 O 0.64508 0.75889 0.15988 0.0
O185 O 0.62774 0.74012 0.1608 0.0
O186 O 0.61018 0.7239 0.02052 0.0
O187 O 0.6069 0.77445 0.07102 0.0
O188 O 0.63538 0.79559 0.01865 0.0
O189 O 0.62405 0.81005 0.09386 0.0
O190 O 0.62782 0.74587 0.9405 0.0
O191 O 0.64506 0.76537 0.93827 0.0
H192 H 0.67802 0.8091 0.1515 0.0
H193 H 0.6965 0.80379 0.1995 0.0
H194 H 0.70427 0.70659 0.09544 0.0
H195 H 0.68587 0.7121 0.04695 0.0
H196 H 0.59154 0.69654 0.98813 0.0
H197 H 0.5715 0.69465 0.98148 0.0
H198 H 0.56671 0.7924 0.08731 0.0
H199 H 0.58658 0.79457 0.09261 0.0
Sm200 Sm 0.36788 0.75232 0.05761 0.0
Sm201 Sm 0.39206 0.7576 0.06359 0.0
C202 C 0.34724 0.7352 0.06735 0.0
C203 C 0.33662 0.74023 0.10403 0.0
C204 C 0.33204 0.71093 0.13012 0.0
C205 C 0.32142 0.71411 0.15763 0.0
C206 C 0.31506 0.74671 0.15943 0.0
C207 C 0.31979 0.77624 0.13495 0.0
C208 C 0.33044 0.77306 0.10758 0.0
C209 C 0.37321 0.82062 0.04714 0.0
C210 C 0.37936 0.75996 0.2027 0.0
C211 C 0.41297 0.77277 0.05869 0.0
C212 C 0.42473 0.76286 0.04135 0.0
C213 C 0.43 0.78286 0.99495 0.0
C214 C 0.44148 0.77812 0.98644 0.0
C215 C 0.44803 0.75342 0.02456 0.0
C216 C 0.44268 0.7324 0.06904 0.0
C217 C 0.43119 0.73707 0.07738 0.0
C218 C 0.38642 0.68889 0.06498 0.0
C219 C 0.38033 0.75425 0.91827 0.0
O220 O 0.35564 0.71714 0.0953 0.0
O221 O 0.35014 0.76112 0.03144 0.0
O222 O 0.37779 0.79802 0.08637 0.0
O223 O 0.36519 0.80814 0.01596 0.0
O224 O 0.37139 0.74662 0.17003 0.0
O225 O 0.38748 0.77274 0.17039 0.0
O226 O 0.4058 0.78197 1.01232 0.0
O227 O 0.40871 0.75644 0.10763 0.0
O228 O 0.38217 0.71331 0.02915 0.0
O229 O 0.39428 0.6999 0.09979 0.0
O230 O 0.38827 0.76726 0.95213 0.0
O231 O 0.37228 0.74023 0.94935 0.0
H232 H 0.33655 0.68524 0.12733 0.0
H233 H 0.31804 0.69071 0.17521 0.0
H234 H 0.31522 0.80185 0.13637 0.0
H235 H 0.3337 0.79619 0.08783 0.0
H236 H 0.42527 0.80317 0.96692 0.0
H237 H 0.44524 0.79438 0.95082 0.0
H238 H 0.4474 0.71336 0.09984 0.0
H239 H 0.42746 0.7214 0.11414 0.0
Sm240 Sm 0.62525 0.24885 0.96125 0.0
Sm241 Sm 0.64955 0.25778 0.96655 0.0
C242 C 0.60484 0.22922 0.96648 0.0
C243 C 0.59303 0.23606 0.98561 0.0
C244 C 0.58789 0.21005 0.01933 0.0
C245 C 0.5764 0.21305 0.02816 0.0
C246 C 0.56973 0.2421 1.00309 0.0
C247 C 0.57497 0.26881 0.9716 0.0
C248 C 0.58647 0.26582 0.96291 0.0
C249 C 0.62987 0.31847 0.95958 0.0
C250 C 0.6371 0.2547 0.10631 0.0
C251 C 0.66989 0.27754 0.95737 0.0
C252 C 0.68049 0.27461 0.92059 0.0
C253 C 0.68615 0.30453 0.91274 0.0
C254 C 0.69681 0.30208 0.88584 0.0
C255 C 0.70211 0.26957 0.86604 0.0
C256 C 0.69625 0.23976 0.87169 0.0
C257 C 0.68557 0.24223 0.89883 0.0
C258 C 0.64488 0.18889 0.97746 0.0
C259 C 0.63804 0.24878 0.82172 0.0
O260 O 0.61231 0.22008 1.01127 0.0
O261 O 0.60852 0.2481 0.91914 0.0
O262 O 0.63468 0.29444 0.99422 0.0
O263 O 0.62182 0.30665 0.92757 0.0
O264 O 0.62923 0.24094 0.07295 0.0
O265 O 0.64502 0.26928 0.07494 0.0
O266 O 0.66128 0.29525 0.93087 0.0
O267 O 0.66738 0.25026 0.99079 0.0
O268 O 0.64018 0.21105 0.93791 0.0
O269 O 0.6527 0.20221 1.00912 0.0
O270 O 0.64593 0.26267 0.85425 0.0
O271 O 0.63001 0.23536 0.85388 0.0
H272 H 0.59272 0.18669 0.03685 0.0
H273 H 0.57274 0.19223 0.05375 0.0
H274 H 0.57016 0.29141 0.95101 0.0
H275 H 0.59014 0.28624 0.93618 0.0
H276 H 0.68243 0.32979 0.9292 0.0
H277 H 0.70095 0.3257 0.88121 0.0
H278 H 0.70006 0.21427 0.8574 0.0
H279 H 0.68142 0.21868 0.90447 0.0
Sm280 Sm 0.39404 0.25589 0.95936 0.0
Sm281 Sm 0.36971 0.25235 0.96704 0.0
C282 C 0.41497 0.27099 0.96354 0.0
C283 C 0.42675 0.26241 0.98228 0.0
C284 C 0.4317 0.28349 0.02794 0.0
C285 C 0.44318 0.2799 0.03741 0.0
C286 C 0.45004 0.25528 1.00104 0.0
C287 C 0.44501 0.23327 0.9572 0.0
C288 C 0.43354 0.2368 0.9479 0.0
C289 C 0.38815 0.18759 0.95621 0.0
C290 C 0.3824 0.2503 0.10554 0.0
C291 C 0.34862 0.23913 0.95944 0.0
C292 C 0.33782 0.24538 0.92454 0.0
C293 C 0.33501 0.22333 0.87318 0.0
C294 C 0.32428 0.22623 0.847 0.0
C295 C 0.31604 0.25104 0.87193 0.0
C296 C 0.31898 0.27372 0.92197 0.0
C297 C 0.32969 0.27086 0.94799 0.0
C298 C 0.37602 0.31936 0.97902 0.0
C299 C 0.38111 0.259 0.82093 0.0
O300 O 0.40765 0.28189 1.00811 0.0
O301 O 0.41088 0.25274 0.91694 0.0
O302 O 0.38381 0.21179 0.99233 0.0
O303 O 0.39625 0.19857 0.92323 0.0
O304 O 0.39049 0.26293 0.07194 0.0
O305 O 0.37415 0.23775 0.0742 0.0
O306 O 0.35672 0.21953 0.93166 0.0
O307 O 0.35205 0.26469 0.9938 0.0
O308 O 0.37994 0.29711 0.93733 0.0
O309 O 0.36834 0.30715 0.01381 0.0
O310 O 0.37297 0.24679 0.85435 0.0
O311 O 0.38946 0.27075 0.85235 0.0
H312 H 0.42674 0.30372 0.05466 0.0
H313 H 0.44668 0.29693 0.07248 0.0
H314 H 0.44997 0.21427 0.92765 0.0
H315 H 0.43007 0.22037 0.91163 0.0
H316 H 0.34099 0.20302 0.85455 0.0
H317 H 0.32233 0.20807 0.80898 0.0
H318 H 0.31294 0.29351 0.94178 0.0
H319 H 0.33149 0.28805 0.988 0.0
H320 H 0.22121 0.24976 0.57697 0.0
H321 H 0.24034 0.24788 0.61394 0.0
H322 H 0.22923 0.26509 0.81432 0.0
H323 H 0.21002 0.26705 0.77758 0.0
H324 H 0.24537 0.3047 0.78784 0.0
H325 H 0.24043 0.18329 0.75846 0.0
H326 H 0.23542 0.13138 0.69835 0.0
H327 H 0.26001 0.14645 0.55156 0.0
H328 H 0.26507 0.19874 0.61035 0.0
H329 H 0.29697 0.26081 0.94488 0.0
H330 H 0.27792 0.26253 0.90678 0.0
H331 H 0.28937 0.24545 0.70702 0.0
H332 H 0.30852 0.24366 0.74493 0.0
H333 H 0.27311 0.20594 0.73239 0.0
H334 H 0.27811 0.32716 0.76184 0.0
H335 H 0.28312 0.3791 0.82179 0.0
H336 H 0.25843 0.36449 0.96816 0.0
H337 H 0.25336 0.31216 0.90954 0.0
C338 C 0.2228 0.25269 0.62909 0.0
C339 C 0.214 0.25831 0.67426 0.0
C340 C 0.23379 0.25166 0.65022 0.0
C341 C 0.23631 0.25587 0.7172 0.0
C342 C 0.22755 0.26176 0.76238 0.0
C343 C 0.21654 0.26293 0.74124 0.0
C344 C 0.24805 0.25466 0.73989 0.0
C345 C 0.25138 0.28283 0.77647 0.0
C346 C 0.25605 0.22663 0.7238 0.0
C347 C 0.25305 0.19512 0.68848 0.0
C348 C 0.24471 0.17568 0.7131 0.0
C349 C 0.24187 0.14617 0.67931 0.0
C350 C 0.24737 0.13568 0.62108 0.0
C351 C 0.25575 0.15463 0.59662 0.0
C352 C 0.25861 0.18419 0.63019 0.0
C353 C 0.29547 0.25787 0.89265 0.0
C354 C 0.30435 0.2524 0.848 0.0
C355 C 0.28453 0.2588 0.87088 0.0
C356 C 0.28212 0.25464 0.80373 0.0
C357 C 0.29096 0.24878 0.75906 0.0
C358 C 0.30193 0.2477 0.78087 0.0
C359 C 0.27041 0.25595 0.78044 0.0
C360 C 0.26709 0.22781 0.74373 0.0
C361 C 0.26242 0.28402 0.79639 0.0
C362 C 0.26542 0.31555 0.83161 0.0
C363 C 0.2738 0.33487 0.80708 0.0
C364 C 0.27664 0.36441 0.84077 0.0
C365 C 0.27112 0.37504 0.89884 0.0
C366 C 0.26271 0.3562 0.92323 0.0
C367 C 0.25984 0.32662 0.88975 0.0
H368 H 0.27333 0.39791 0.92485 0.0
H369 H 0.24516 0.11282 0.59499 0.0
H370 H 0.71149 0.22961 0.76415 0.0
H371 H 0.73071 0.22479 0.72664 0.0
H372 H 0.73853 0.29792 0.87647 0.0
H373 H 0.71937 0.30296 0.91393 0.0
H374 H 0.74813 0.31318 0.7653 0.0
H375 H 0.74574 0.20757 0.88999 0.0
H376 H 0.73822 0.15232 0.92027 0.0
H377 H 0.74568 0.11163 0.72659 0.0
H378 H 0.75312 0.16685 0.69486 0.0
H379 H 0.80678 0.28184 0.74611 0.0
H380 H 0.78754 0.28673 0.78323 0.0
H381 H 0.77979 0.21347 0.63346 0.0
H382 H 0.79898 0.20836 0.59641 0.0
H383 H 0.77015 0.19824 0.74442 0.0
H384 H 0.77254 0.30373 0.61963 0.0
H385 H 0.78006 0.35895 0.58914 0.0
H386 H 0.77257 0.39986 0.78264 0.0
H387 H 0.76514 0.34467 0.81459 0.0
C388 C 0.71731 0.2445 0.78943 0.0
C389 C 0.71382 0.2667 0.84214 0.0
C390 C 0.72833 0.24171 0.76792 0.0
C391 C 0.73618 0.26068 0.79909 0.0
C392 C 0.73268 0.28305 0.85133 0.0
C393 C 0.72167 0.28599 0.87261 0.0
C394 C 0.748 0.25749 0.77729 0.0
C395 C 0.75297 0.28804 0.76161 0.0
C396 C 0.75433 0.22471 0.77085 0.0
C397 C 0.74988 0.19148 0.78986 0.0
C398 C 0.7457 0.18694 0.85371 0.0
C399 C 0.74146 0.15561 0.87115 0.0
C400 C 0.74144 0.12852 0.82533 0.0
C401 C 0.74569 0.13266 0.762 0.0
C402 C 0.74992 0.16396 0.74428 0.0
C403 C 0.80097 0.26694 0.72075 0.0
C404 C 0.80449 0.24467 0.66822 0.0
C405 C 0.78994 0.26977 0.74204 0.0
C406 C 0.78211 0.25077 0.7108 0.0
C407 C 0.78563 0.22836 0.65867 0.0
C408 C 0.79665 0.22538 0.63761 0.0
C409 C 0.77028 0.25394 0.73246 0.0
C410 C 0.76531 0.22339 0.7481 0.0
C411 C 0.76394 0.28671 0.73884 0.0
C412 C 0.76839 0.31994 0.71969 0.0
C413 C 0.77257 0.3244 0.65584 0.0
C414 C 0.77681 0.35571 0.63826 0.0
C415 C 0.77682 0.38286 0.68398 0.0
C416 C 0.77257 0.37879 0.74732 0.0
C417 C 0.76834 0.34751 0.76517 0.0
H418 H 0.7801 0.40709 0.67027 0.0
H419 H 0.73816 0.10428 0.83893 0.0
H420 H 0.29698 0.78583 0.10818 0.0
H421 H 0.27784 0.78876 0.14577 0.0
H422 H 0.28742 0.71659 0.30339 0.0
H423 H 0.30662 0.71353 0.26603 0.0
H424 H 0.26924 0.69865 0.24572 0.0
H425 H 0.28086 0.80535 0.33143 0.0
H426 H 0.28889 0.86187 0.32669 0.0
H427 H 0.26392 0.90109 0.18885 0.0
H428 H 0.25583 0.84462 0.19208 0.0
H429 H 0.21909 0.7241 0.42902 0.0
H430 H 0.23827 0.72098 0.39189 0.0
H431 H 0.22884 0.79289 0.2336 0.0
H432 H 0.20962 0.7961 0.27042 0.0
H433 H 0.24697 0.81094 0.29205 0.0
H434 H 0.23537 0.70414 0.20622 0.0
H435 H 0.22735 0.64762 0.21103 0.0
H436 H 0.25227 0.60857 0.3493 0.0
H437 H 0.26036 0.66505 0.34599 0.0
C438 C 0.29507 0.77096 0.15147 0.0
C439 C 0.30341 0.74955 0.18416 0.0
C440 C 0.28408 0.77261 0.17289 0.0
C441 C 0.28114 0.75318 0.22796 0.0
C442 C 0.28944 0.7318 0.26073 0.0
C443 C 0.30043 0.73004 0.23921 0.0
C444 C 0.26939 0.7546 0.25051 0.0
C445 C 0.26443 0.7232 0.25677 0.0
C446 C 0.26297 0.78662 0.26346 0.0
C447 C 0.26781 0.82063 0.26153 0.0
C448 C 0.27713 0.82594 0.29972 0.0
C449 C 0.28169 0.85798 0.29737 0.0
C450 C 0.27694 0.88502 0.25736 0.0
C451 C 0.2676 0.8801 0.21975 0.0
C452 C 0.26302 0.84809 0.22186 0.0
C453 C 0.22105 0.73887 0.38568 0.0
C454 C 0.21274 0.76027 0.35266 0.0
C455 C 0.23206 0.73712 0.36454 0.0
C456 C 0.23505 0.75644 0.30944 0.0
C457 C 0.22679 0.77777 0.27631 0.0
C458 C 0.21578 0.77962 0.29753 0.0
C459 C 0.24681 0.75499 0.28721 0.0
C460 C 0.25178 0.78639 0.28102 0.0
C461 C 0.25324 0.72296 0.27435 0.0
C462 C 0.2484 0.68895 0.27634 0.0
C463 C 0.23909 0.6836 0.23804 0.0
C464 C 0.23454 0.65155 0.24043 0.0
C465 C 0.23928 0.62455 0.28058 0.0
C466 C 0.2486 0.62952 0.31829 0.0
C467 C 0.25317 0.66153 0.31614 0.0
H468 H 0.23575 0.59975 0.28235 0.0
H469 H 0.28047 0.90981 0.25562 0.0
H470 H 0.72109 0.73546 0.08338 0.0
H471 H 0.74008 0.73368 0.12278 0.0
H472 H 0.7283 0.7688 0.31434 0.0
H473 H 0.70924 0.77081 0.27501 0.0
H474 H 0.74524 0.80293 0.27933 0.0
H475 H 0.73849 0.682 0.28388 0.0
H476 H 0.73288 0.62685 0.2388 0.0
H477 H 0.75837 0.62606 0.09195 0.0
H478 H 0.76404 0.68149 0.13563 0.0
H479 H 0.79598 0.76417 0.45024 0.0
H480 H 0.77697 0.7661 0.41117 0.0
H481 H 0.78864 0.73209 0.21877 0.0
H482 H 0.80773 0.73006 0.25763 0.0
H483 H 0.77175 0.69735 0.25456 0.0
H484 H 0.77848 0.81841 0.25036 0.0
H485 H 0.78408 0.87348 0.2959 0.0
H486 H 0.75861 0.87383 0.4428 0.0
H487 H 0.75295 0.81849 0.39866 0.0
C488 C 0.72251 0.74237 0.1342 0.0
C489 C 0.71357 0.75304 0.17607 0.0
C490 C 0.73341 0.74138 0.15671 0.0
C491 C 0.7357 0.75063 0.22197 0.0
C492 C 0.7268 0.76151 0.26381 0.0
C493 C 0.71588 0.76269 0.24119 0.0
C494 C 0.74735 0.7495 0.24611 0.0
C495 C 0.75098 0.77964 0.27475 0.0
C496 C 0.75499 0.71947 0.23886 0.0
C497 C 0.75162 0.68607 0.21265 0.0
C498 C 0.74285 0.6702 0.24167 0.0
C499 C 0.73967 0.63887 0.21642 0.0
C500 C 0.74525 0.62301 0.16244 0.0
C501 C 0.75405 0.6384 0.13371 0.0
C502 C 0.75725 0.66976 0.15873 0.0
C503 C 0.79454 0.75755 0.39931 0.0
C504 C 0.80345 0.74717 0.35706 0.0
C505 C 0.78362 0.75861 0.377 0.0
C506 C 0.7813 0.74967 0.31164 0.0
C507 C 0.79017 0.73911 0.26941 0.0
C508 C 0.80111 0.73791 0.29177 0.0
C509 C 0.76964 0.75077 0.28774 0.0
C510 C 0.76601 0.72063 0.25915 0.0
C511 C 0.762 0.78078 0.29511 0.0
C512 C 0.76536 0.81413 0.32158 0.0
C513 C 0.77412 0.83009 0.29267 0.0
C514 C 0.7773 0.86138 0.31819 0.0
C515 C 0.77172 0.8771 0.37231 0.0
C516 C 0.76293 0.8616 0.40093 0.0
C517 C 0.75973 0.8303 0.37565 0.0
H518 H 0.77419 0.90132 0.39199 0.0
H519 H 0.74277 0.59875 0.14296 0.0
H520 H 0.14585 0.84885 0.47776 0.0
H521 H 0.14889 0.91086 0.48892 0.0
H522 H 0.1142 0.93599 0.52868 0.0
H523 H 0.11112 0.87453 0.51483 0.0
H524 H 0.1203 0.9843 0.45433 0.0
H525 H 0.13534 0.9291 0.64956 0.0
H526 H 0.14718 0.8855 0.71285 0.0
H527 H 0.1761 0.92622 0.63376 0.0
H528 H 0.16442 0.96914 0.56752 0.0
H529 H 0.12548 0.15512 0.59212 0.0
H530 H 0.12247 0.09269 0.58471 0.0
H531 H 0.15478 0.07048 0.49863 0.0
H532 H 0.1577 0.13252 0.50444 0.0
H533 H 0.14978 0.02155 0.59921 0.0
H534 H 0.13409 0.07505 0.40056 0.0
H535 H 0.12186 0.11875 0.33955 0.0
H536 H 0.09355 0.08201 0.43416 0.0
H537 H 0.10564 0.03853 0.49683 0.0
C538 C 0.13889 0.86765 0.48881 0.0
C539 C 0.12825 0.85668 0.49559 0.0
C540 C 0.14063 0.90319 0.49553 0.0
C541 C 0.1318 0.9285 0.51067 0.0
C542 C 0.12118 0.91736 0.51695 0.0
C543 C 0.11943 0.88204 0.50934 0.0
C544 C 0.13356 0.96645 0.52034 0.0
C545 C 0.12667 0.99226 0.48679 0.0
C546 C 0.14193 0.97741 0.56207 0.0
C547 C 0.14899 0.95214 0.60298 0.0
C548 C 0.14422 0.92862 0.64522 0.0
C549 C 0.15091 0.90401 0.68165 0.0
C550 C 0.16239 0.90317 0.67762 0.0
C551 C 0.16721 0.92689 0.63686 0.0
C552 C 0.16055 0.95129 0.59963 0.0
C553 C 0.13195 0.13685 0.57198 0.0
C554 C 0.14182 0.14883 0.54884 0.0
C555 C 0.13022 0.10119 0.56765 0.0
C556 C 0.13841 0.07673 0.54107 0.0
C557 C 0.14836 0.08865 0.51953 0.0
C558 C 0.14999 0.12424 0.52268 0.0
C559 C 0.13654 0.03896 0.53333 0.0
C560 C 0.1434 0.01333 0.5671 0.0
C561 C 0.12808 0.02815 0.49253 0.0
C562 C 0.12078 0.05378 0.4539 0.0
C563 C 0.12526 0.07645 0.40873 0.0
C564 C 0.11835 0.10115 0.37377 0.0
C565 C 0.10693 0.10317 0.38301 0.0
C566 C 0.1024 0.08043 0.42711 0.0
C567 C 0.10928 0.05575 0.46236 0.0
H568 H 0.1016 0.12233 0.35593 0.0
H569 H 0.16755 0.88415 0.70607 0.0
H570 H 0.8903 0.35359 0.59842 0.0
H571 H 0.89311 0.41609 0.59016 0.0
H572 H 0.86552 0.43185 0.45653 0.0
H573 H 0.86291 0.36988 0.46333 0.0
H574 H 0.88093 0.46591 0.41136 0.0
H575 H 0.86418 0.45679 0.6246 0.0
H576 H 0.86245 0.43423 0.7378 0.0
H577 H 0.89366 0.47026 0.78879 0.0
H578 H 0.89564 0.49264 0.67558 0.0
H579 H 0.87214 0.65822 0.54519 0.0
H580 H 0.8703 0.59545 0.55785 0.0
H581 H 0.89846 0.57194 0.43054 0.0
H582 H 0.90013 0.63447 0.41657 0.0
H583 H 0.88279 0.54196 0.60747 0.0
H584 H 0.89592 0.49809 0.34332 0.0
H585 H 0.89538 0.5217 0.22992 0.0
H586 H 0.86743 0.59353 0.28051 0.0
H587 H 0.86771 0.57001 0.39387 0.0
C588 C 0.88485 0.37048 0.56739 0.0
C589 C 0.87635 0.35675 0.53177 0.0
C590 C 0.88642 0.40627 0.56286 0.0
C591 C 0.87946 0.42908 0.52309 0.0
C592 C 0.87104 0.41509 0.4874 0.0
C593 C 0.86952 0.37952 0.49158 0.0
C594 C 0.88087 0.46739 0.51758 0.0
C595 C 0.88139 0.4824 0.45442 0.0
C596 C 0.88129 0.48941 0.57338 0.0
C597 C 0.88011 0.47604 0.64145 0.0
C598 C 0.87071 0.45966 0.65982 0.0
C599 C 0.86968 0.44695 0.724 0.0
C600 C 0.87796 0.45071 0.7704 0.0
C601 C 0.88726 0.4673 0.75276 0.0
C602 C 0.88834 0.48002 0.68861 0.0
C603 C 0.87791 0.63963 0.51972 0.0
C604 C 0.88625 0.65138 0.47959 0.0
C605 C 0.87689 0.60369 0.52726 0.0
C606 C 0.88417 0.57867 0.49473 0.0
C607 C 0.8926 0.59049 0.45534 0.0
C608 C 0.89357 0.62636 0.4475 0.0
C609 C 0.88289 0.54033 0.50127 0.0
C610 C 0.88241 0.52536 0.56451 0.0
C611 C 0.88224 0.51842 0.44552 0.0
C612 C 0.88193 0.53255 0.37728 0.0
C613 C 0.88964 0.51885 0.33016 0.0
C614 C 0.88938 0.53222 0.2659 0.0
C615 C 0.8814 0.55918 0.2481 0.0
C616 C 0.87363 0.57274 0.29444 0.0
C617 C 0.87385 0.55942 0.35872 0.0
H618 H 0.88122 0.56952 0.19834 0.0
H619 H 0.87714 0.44086 0.82007 0.0
H620 H 0.86172 0.87013 0.56657 0.0
H621 H 0.86448 0.93204 0.57424 0.0
H622 H 0.89143 0.91717 0.43553 0.0
H623 H 0.88851 0.85484 0.42674 0.0
H624 H 0.88054 0.96529 0.61703 0.0
H625 H 0.89336 0.99403 0.34952 0.0
H626 H 0.89052 0.97259 0.23677 0.0
H627 H 0.85957 0.93712 0.29574 0.0
H628 H 0.86215 0.95875 0.40854 0.0
H629 H 0.90078 0.13239 0.60825 0.0
H630 H 0.89854 0.07027 0.59436 0.0
H631 H 0.86965 0.09675 0.47474 0.0
H632 H 0.87211 0.15912 0.48686 0.0
H633 H 0.88125 0.04305 0.42166 0.0
H634 H 0.86841 0.07015 0.64171 0.0
H635 H 0.86973 0.09259 0.75506 0.0
H636 H 0.89759 0.01792 0.79257 0.0
H637 H 0.89655 0.9954 0.67916 0.0
C638 C 0.86822 0.87998 0.53741 0.0
C639 C 0.87485 0.85754 0.49571 0.0
C640 C 0.86983 0.91549 0.54209 0.0
C641 C 0.87811 0.92968 0.5052 0.0
C642 C 0.88486 0.90718 0.46383 0.0
C643 C 0.88322 0.87149 0.45896 0.0
C644 C 0.87964 0.96786 0.51101 0.0
C645 C 0.88073 0.98219 0.57415 0.0
C646 C 0.87973 0.99036 0.45546 0.0
C647 C 0.87802 0.97766 0.38762 0.0
C648 C 0.88594 0.98175 0.33833 0.0
C649 C 0.88437 0.96956 0.27444 0.0
C650 C 0.87489 0.95339 0.25917 0.0
C651 C 0.86693 0.94952 0.3077 0.0
C652 C 0.86845 0.9617 0.37163 0.0
C653 C 0.89394 0.12501 0.57905 0.0
C654 C 0.8866 0.15074 0.54886 0.0
C655 C 0.89263 0.08938 0.5713 0.0
C656 C 0.88383 0.07849 0.5342 0.0
C657 C 0.87652 0.10425 0.50362 0.0
C658 C 0.87789 0.13995 0.51084 0.0
C659 C 0.88222 0.04039 0.52769 0.0
C660 C 0.88111 0.0261 0.46448 0.0
C661 C 0.8819 0.01799 0.58329 0.0
C662 C 0.88246 0.0313 0.65174 0.0
C663 C 0.87486 0.05866 0.67401 0.0
C664 C 0.87555 0.07138 0.73828 0.0
C665 C 0.88375 0.05673 0.78091 0.0
C666 C 0.89125 0.02927 0.75946 0.0
C667 C 0.89061 0.0165 0.69522 0.0
H668 H 0.8843 0.06658 0.83062 0.0
H669 H 0.8737 0.94393 0.2097 0.0
H670 H 0.12664 0.65436 0.42748 0.0
H671 H 0.12347 0.59206 0.43677 0.0
H672 H 0.14988 0.57657 0.57848 0.0
H673 H 0.15295 0.63819 0.57001 0.0
H674 H 0.13615 0.53112 0.41238 0.0
H675 H 0.14414 0.51834 0.69437 0.0
H676 H 0.14171 0.55496 0.79409 0.0
H677 H 0.1156 0.61971 0.6995 0.0
H678 H 0.11775 0.58318 0.59966 0.0
H679 H 0.1454 0.34973 0.49661 0.0
H680 H 0.14685 0.4126 0.48171 0.0
H681 H 0.11757 0.4356 0.60014 0.0
H682 H 0.11639 0.3731 0.61706 0.0
H683 H 0.13087 0.47884 0.63285 0.0
H684 H 0.11833 0.44271 0.42276 0.0
H685 H 0.11877 0.40723 0.32142 0.0
H686 H 0.15013 0.44207 0.26905 0.0
H687 H 0.14994 0.4774 0.37057 0.0
C688 C 0.13172 0.63762 0.46074 0.0
C689 C 0.14002 0.65136 0.49815 0.0
C690 C 0.12995 0.60195 0.46582 0.0
C691 C 0.13636 0.5794 0.50886 0.0
C692 C 0.14468 0.59325 0.54567 0.0
C693 C 0.14645 0.62864 0.5406 0.0
C694 C 0.13443 0.54152 0.51632 0.0
C695 C 0.13497 0.51972 0.46058 0.0
C696 C 0.13267 0.52643 0.57894 0.0
C697 C 0.13119 0.54818 0.6393 0.0
C698 C 0.13784 0.54028 0.69498 0.0
C699 C 0.13652 0.56104 0.75151 0.0
C700 C 0.12853 0.5897 0.75305 0.0
C701 C 0.12181 0.59757 0.69817 0.0
C702 C 0.12309 0.57687 0.64158 0.0
C703 C 0.1393 0.36825 0.51954 0.0
C704 C 0.13076 0.3563 0.55786 0.0
C705 C 0.14007 0.40431 0.5106 0.0
C706 C 0.13221 0.42933 0.53879 0.0
C707 C 0.12377 0.41721 0.57765 0.0
C708 C 0.12307 0.38129 0.58721 0.0
C709 C 0.13281 0.46802 0.52902 0.0
C710 C 0.13203 0.49008 0.58449 0.0
C711 C 0.13407 0.4834 0.46595 0.0
C712 C 0.13416 0.46245 0.40457 0.0
C713 C 0.12535 0.44264 0.38983 0.0
C714 C 0.12555 0.42257 0.33234 0.0
C715 C 0.13448 0.42233 0.28891 0.0
C716 C 0.14322 0.44225 0.30278 0.0
C717 C 0.14306 0.46233 0.36025 0.0
H718 H 0.13463 0.40676 0.24445 0.0
H719 H 0.12753 0.60578 0.79682 0.0
H720 H 0.6235 0.65822 0.99626 0.0
H721 H 0.62115 0.59581 0.98541 0.0
H722 H 0.65287 0.57004 0.07751 0.0
H723 H 0.65547 0.63238 0.08384 0.0
H724 H 0.65217 0.52922 0.98393 0.0
H725 H 0.62564 0.56035 0.15364 0.0
H726 H 0.60971 0.59411 0.20594 0.0
H727 H 0.58863 0.56524 0.04974 0.0
H728 H 0.60447 0.53163 0.99608 0.0
H729 H 0.64523 0.34811 0.034 0.0
H730 H 0.64689 0.41051 0.05192 0.0
H731 H 0.61898 0.43678 0.92442 0.0
H732 H 0.61726 0.37442 0.90665 0.0
H733 H 0.61765 0.47627 0.03753 0.0
H734 H 0.64522 0.44392 0.87082 0.0
H735 H 0.66142 0.40789 0.82656 0.0
H736 H 0.681 0.43745 0.98937 0.0
H737 H 0.66487 0.47329 0.03511 0.0
C738 C 0.62985 0.63912 0.01522 0.0
C739 C 0.63958 0.65001 0.04178 0.0
C740 C 0.62851 0.60334 1.00923 0.0
C741 C 0.63675 0.57766 0.03154 0.0
C742 C 0.64637 0.58892 0.05965 0.0
C743 C 0.64782 0.6246 0.06392 0.0
C744 C 0.63565 0.53925 0.02283 0.0
C745 C 0.64465 0.51775 0.99685 0.0
C746 C 0.62582 0.52377 0.03815 0.0
C747 C 0.61626 0.54375 0.07054 0.0
C748 C 0.61762 0.56138 0.13025 0.0
C749 C 0.60861 0.58046 0.16016 0.0
C750 C 0.59817 0.5819 0.13109 0.0
C751 C 0.59672 0.56414 0.07216 0.0
C752 C 0.60571 0.54504 0.04201 0.0
C753 C 0.63947 0.3672 1.00963 0.0
C754 C 0.63113 0.35629 0.96881 0.0
C755 C 0.64044 0.4029 0.01982 0.0
C756 C 0.6331 0.42853 0.98924 0.0
C757 C 0.62473 0.41762 0.94867 0.0
C758 C 0.62379 0.38193 0.93828 0.0
C759 C 0.63416 0.46666 0.99926 0.0
C760 C 0.62515 0.48798 0.02515 0.0
C761 C 0.64405 0.48187 0.98507 0.0
C762 C 0.65381 0.46105 0.95666 0.0
C763 C 0.65297 0.44261 0.89734 0.0
C764 C 0.66214 0.42222 0.87199 0.0
C765 C 0.67222 0.4203 0.90523 0.0
C766 C 0.67318 0.43892 0.96372 0.0
C767 C 0.66403 0.45931 0.98934 0.0
H768 H 0.67931 0.40444 0.88561 0.0
H769 H 0.59121 0.59671 0.1543 0.0
H770 H 0.36159 0.87204 0.97732 0.0
H771 H 0.3649 0.93336 0.96691 0.0
H772 H 0.39301 0.91612 0.09623 0.0
H773 H 0.38954 0.85421 0.108 0.0
H774 H 0.38163 0.97834 0.12308 0.0
H775 H 0.39655 0.92208 0.92977 0.0
H776 H 0.39668 0.88425 0.83168 0.0
H777 H 0.37003 0.95124 0.7477 0.0
H778 H 0.36961 0.98919 0.84582 0.0
H779 H 0.40037 0.13139 0.90237 0.0
H780 H 0.39878 0.06928 0.92245 0.0
H781 H 0.37097 0.09594 0.05093 0.0
H782 H 0.37276 0.15829 0.03239 0.0
H783 H 0.38431 0.02735 0.89753 0.0
H784 H 0.36935 0.03403 0.16981 0.0
H785 H 0.37123 0.07058 0.2683 0.0
H786 H 0.40207 0.10069 0.19494 0.0
H787 H 0.40045 0.06395 0.09655 0.0
C788 C 0.36847 0.8812 1.00385 0.0
C789 C 0.37533 0.85812 0.0433 0.0
C790 C 0.37038 0.91638 0.99763 0.0
C791 C 0.37932 0.92952 0.02987 0.0
C792 C 0.38607 0.90672 0.07065 0.0
C793 C 0.38412 0.87131 0.0772 0.0
C794 C 0.38162 0.96677 0.01924 0.0
C795 C 0.38223 0.98903 0.07378 0.0
C796 C 0.38268 0.98082 0.95501 0.0
C797 C 0.383 0.95834 0.89542 0.0
C798 C 0.39067 0.92864 0.89057 0.0
C799 C 0.3908 0.90717 0.83495 0.0
C800 C 0.38335 0.9153 0.78354 0.0
C801 C 0.37578 0.94496 0.78758 0.0
C802 C 0.3756 0.96648 0.84317 0.0
C803 C 0.39391 0.12405 0.93496 0.0
C804 C 0.38673 0.14984 0.96608 0.0
C805 C 0.39299 0.08842 0.94635 0.0
C806 C 0.38485 0.07756 0.98903 0.0
C807 C 0.37749 0.10337 0.01896 0.0
C808 C 0.37846 0.13909 1.00796 0.0
C809 C 0.38403 0.03932 1.0013 0.0
C810 C 0.38372 0.01678 0.94695 0.0
C811 C 0.38355 0.02492 0.06573 0.0
C812 C 0.38472 0.04649 0.12548 0.0
C813 C 0.37656 0.04831 0.17487 0.0
C814 C 0.37757 0.06909 0.23065 0.0
C815 C 0.38674 0.08805 0.23777 0.0
C816 C 0.39495 0.08611 0.18928 0.0
C817 C 0.39398 0.06533 0.13347 0.0
H818 H 0.3875 0.10418 0.28091 0.0
H819 H 0.38346 0.89864 0.74053 0.0
H820 H 0.38074 0.35474 0.08874 0.0
H821 H 0.38316 0.41687 0.09935 0.0
H822 H 0.37813 0.43043 0.88966 0.0
H823 H 0.37673 0.36727 0.87867 0.0
H824 H 0.39118 0.47311 0.91977 0.0
H825 H 0.35704 0.45265 0.01874 0.0
H826 H 0.34417 0.4247 0.09141 0.0
H827 H 0.36149 0.45675 0.2618 0.0
H828 H 0.37455 0.48453 0.1901 0.0
H829 H 0.3761 0.65894 0.96241 0.0
H830 H 0.37454 0.59645 0.9435 0.0
H831 H 0.39171 0.57135 0.1258 0.0
H832 H 0.39352 0.63369 0.14419 0.0
H833 H 0.37154 0.53669 0.10454 0.0
H834 H 0.40558 0.55879 0.99119 0.0
H835 H 0.41609 0.59027 0.91 0.0
H836 H 0.3953 0.55893 0.75441 0.0
H837 H 0.38455 0.52772 0.83487 0.0
C838 C 0.38033 0.37097 0.04483 0.0
C839 C 0.37853 0.3563 0.98297 0.0
C840 C 0.38155 0.4067 0.05094 0.0
C841 C 0.3804 0.42917 0.99578 0.0
C842 C 0.37898 0.41411 0.93334 0.0
C843 C 0.37817 0.37796 0.92693 0.0
C844 C 0.38052 0.46812 1.00377 0.0
C845 C 0.38673 0.48687 0.95975 0.0
C846 C 0.37471 0.48685 0.0556 0.0
C847 C 0.36684 0.4704 0.099 0.0
C848 C 0.35814 0.45357 0.0717 0.0
C849 C 0.35081 0.43777 0.11271 0.0
C850 C 0.35203 0.43887 0.18117 0.0
C851 C 0.36056 0.45588 0.20876 0.0
C852 C 0.36793 0.47169 0.16796 0.0
C853 C 0.37952 0.64011 0.99856 0.0
C854 C 0.38496 0.65125 0.05479 0.0
C855 C 0.37865 0.60439 0.98757 0.0
C856 C 0.38305 0.57912 0.03306 0.0
C857 C 0.38826 0.59031 0.08997 0.0
C858 C 0.3893 0.62594 0.10039 0.0
C859 C 0.38231 0.54101 0.02145 0.0
C860 C 0.37593 0.52263 0.06465 0.0
C861 C 0.38761 0.52299 0.96758 0.0
C862 C 0.39421 0.54118 0.91914 0.0
C863 C 0.4032 0.55882 0.93973 0.0
C864 C 0.4092 0.5766 0.89384 0.0
C865 C 0.40634 0.5767 0.82712 0.0
C866 C 0.39749 0.55889 0.80612 0.0
C867 C 0.39145 0.54113 0.85184 0.0
H868 H 0.41099 0.5905 0.79167 0.0
H869 H 0.34635 0.42661 0.21284 0.0
H870 H 0.63145 0.15157 0.90059 0.0
H871 H 0.62914 0.08874 0.90802 0.0
H872 H 0.65174 0.0789 0.07222 0.0
H873 H 0.65426 0.14094 0.06377 0.0
H874 H 0.65637 0.02614 0.99534 0.0
H875 H 0.6229 0.08186 0.08962 0.0
H876 H 0.60588 0.12228 0.08995 0.0
H877 H 0.59341 0.06767 0.9259 0.0
H878 H 0.61044 0.02726 0.92389 0.0
H879 H 0.62347 0.87581 0.13006 0.0
H880 H 0.62554 0.93782 0.11183 0.0
H881 H 0.6457 0.9115 0.94055 0.0
H882 H 0.64384 0.84922 0.95965 0.0
H883 H 0.61953 0.98211 0.01704 0.0
H884 H 0.66443 0.97099 0.92034 0.0
H885 H 0.6816 0.93164 0.93086 0.0
H886 H 0.67132 0.89857 0.12192 0.0
H887 H 0.65418 0.9381 0.11295 0.0
C888 C 0.63591 0.13591 0.93818 0.0
C889 C 0.64305 0.15122 0.9815 0.0
C890 C 0.63456 0.1 0.94259 0.0
C891 C 0.64022 0.07884 0.99101 0.0
C892 C 0.64733 0.09435 0.03416 0.0
C893 C 0.64873 0.12998 0.02945 0.0
C894 C 0.63882 0.04064 0.9976 0.0
C895 C 0.64829 0.01659 0.99969 0.0
C896 C 0.62832 0.02787 1.00432 0.0
C897 C 0.61799 0.05176 1.00617 0.0
C898 C 0.61655 0.07861 0.05336 0.0
C899 C 0.6069 0.10151 0.05386 0.0
C900 C 0.59858 0.09761 1.00786 0.0
C901 C 0.59987 0.0707 0.96142 0.0
C902 C 0.60952 0.04778 0.96059 0.0
C903 C 0.62841 0.8832 0.08873 0.0
C904 C 0.63353 0.85755 0.04649 0.0
C905 C 0.62953 0.91875 0.07807 0.0
C906 C 0.63581 0.92962 0.02493 0.0
C907 C 0.64092 0.90396 0.98246 0.0
C908 C 0.63986 0.86831 0.99337 0.0
C909 C 0.63709 0.96769 0.01481 0.0
C910 C 0.6276 0.99167 1.01202 0.0
C911 C 0.64758 0.98054 1.00906 0.0
C912 C 0.65797 0.95722 0.01558 0.0
C913 C 0.66586 0.95543 0.96469 0.0
C914 C 0.67558 0.93309 0.97038 0.0
C915 C 0.67753 0.91253 0.02692 0.0
C916 C 0.66979 0.91442 0.07806 0.0
C917 C 0.66006 0.93677 0.07267 0.0
H918 H 0.68505 0.8952 0.03116 0.0
H919 H 0.59112 0.11539 1.00829 0.0
H920 H 0.12028 0.23336 0.33576 0.0
H921 H 0.12035 0.23224 0.21515 0.0
H922 H 0.1519 0.27462 0.21312 0.0
H923 H 0.15178 0.27658 0.33357 0.0
H924 H 0.13915 0.30549 0.12123 0.0
H925 H 0.14903 0.18594 0.18521 0.0
H926 H 0.14662 0.13079 0.24376 0.0
H927 H 0.11602 0.123 0.14233 0.0
H928 H 0.11817 0.17838 0.08384 0.0
H929 H 0.15302 0.26898 0.78618 0.0
H930 H 0.15288 0.26963 0.90683 0.0
H931 H 0.12132 0.22725 0.90742 0.0
H932 H 0.12151 0.22584 0.7869 0.0
H933 H 0.13397 0.19626 1.00009 0.0
H934 H 0.12397 0.31554 0.93652 0.0
H935 H 0.12613 0.3711 0.87885 0.0
H936 H 0.1567 0.37971 0.98018 0.0
H937 H 0.1548 0.32392 0.0378 0.0
C938 C 0.12723 0.24254 0.30974 0.0
C939 C 0.13604 0.25496 0.34468 0.0
C940 C 0.12729 0.24169 0.24058 0.0
C941 C 0.13622 0.25283 0.20461 0.0
C942 C 0.14493 0.26579 0.23943 0.0
C943 C 0.14485 0.26681 0.30853 0.0
C944 C 0.13651 0.25107 0.13088 0.0
C945 C 0.13817 0.28145 0.09486 0.0
C946 C 0.13496 0.21997 0.09595 0.0
C947 C 0.13372 0.18647 0.13056 0.0
C948 C 0.14176 0.17258 0.17569 0.0
C949 C 0.14044 0.14127 0.20883 0.0
C950 C 0.13117 0.12343 0.19682 0.0
C951 C 0.1232 0.13685 0.15159 0.0
C952 C 0.12446 0.16819 0.11839 0.0
C953 C 0.14605 0.25969 0.81188 0.0
C954 C 0.13726 0.24747 0.7765 0.0
C955 C 0.14595 0.26025 0.88108 0.0
C956 C 0.137 0.24898 0.91667 0.0
C957 C 0.12832 0.23615 0.88142 0.0
C958 C 0.12843 0.23545 0.81228 0.0
C959 C 0.13665 0.25067 0.99043 0.0
C960 C 0.13497 0.22029 0.02646 0.0
C961 C 0.13816 0.28177 0.02541 0.0
C962 C 0.1393 0.31537 0.99096 0.0
C963 C 0.1312 0.32914 0.94613 0.0
C964 C 0.13237 0.3607 0.91351 0.0
C965 C 0.14156 0.37888 0.92571 0.0
C966 C 0.14959 0.36558 0.9707 0.0
C967 C 0.14847 0.334 1.00338 0.0
H968 H 0.14245 0.4033 0.90041 0.0
H969 H 0.13017 0.09917 0.22247 0.0
H970 H 0.8982 0.26988 0.32339 0.0
H971 H 0.89807 0.27104 0.20271 0.0
H972 H 0.86556 0.23515 0.20262 0.0
H973 H 0.86574 0.2331 0.32298 0.0
H974 H 0.87739 0.20233 0.11036 0.0
H975 H 0.87018 0.32262 0.17311 0.0
H976 H 0.87367 0.37699 0.23051 0.0
H977 H 0.90453 0.37859 0.12806 0.0
H978 H 0.90129 0.32393 0.07069 0.0
H979 H 0.86418 0.2421 0.77514 0.0
H980 H 0.86429 0.24142 0.89579 0.0
H981 H 0.89699 0.27586 0.8954 0.0
H982 H 0.89682 0.27749 0.77493 0.0
H983 H 0.88507 0.30933 0.98786 0.0
H984 H 0.89177 0.1882 0.9238 0.0
H985 H 0.8876 0.13459 0.86597 0.0
H986 H 0.85692 0.13546 0.97115 0.0
H987 H 0.86083 0.18935 0.02887 0.0
C988 C 0.89103 0.26215 0.29775 0.0
C989 C 0.88197 0.25149 0.33321 0.0
C990 C 0.89094 0.26301 0.22855 0.0
C991 C 0.88173 0.25368 0.1931 0.0
C992 C 0.87276 0.24252 0.22847 0.0
C993 C 0.87287 0.24144 0.29756 0.0
C994 C 0.8814 0.25553 0.11934 0.0
C995 C 0.87895 0.2259 0.08371 0.0
C996 C 0.88361 0.28601 0.08399 0.0
C997 C 0.88554 0.31899 0.1181 0.0
C998 C 0.87775 0.33443 0.16317 0.0
C999 C 0.87968 0.36532 0.19565 0.0
C1000 C 0.88933 0.38118 0.18307 0.0
C1001 C 0.89706 0.36624 0.13783 0.0
C1002 C 0.89518 0.33532 0.10528 0.0
C1003 C 0.87139 0.24965 0.80065 0.0
C1004 C 0.88051 0.25973 0.76502 0.0
C1005 C 0.87147 0.24905 0.86984 0.0
C1006 C 0.88073 0.258 0.90515 0.0
C1007 C 0.88975 0.26873 0.86963 0.0
C1008 C 0.88964 0.26959 0.80051 0.0
C1009 C 0.88108 0.25613 0.97889 0.0
C1010 C 0.88354 0.28575 0.01452 0.0
C1011 C 0.87881 0.2257 0.01426 0.0
C1012 C 0.87655 0.193 0.98021 0.0
C1013 C 0.88411 0.17707 0.93431 0.0
C1014 C 0.88179 0.14662 0.90157 0.0
C1015 C 0.87199 0.13169 0.91477 0.0
C1016 C 0.8645 0.14708 0.96092 0.0
C1017 C 0.86677 0.17756 0.99368 0.0
H1018 H 0.87019 0.10818 0.88936 0.0
H1019 H 0.89081 0.4051 0.20827 0.0
H1020 H 0.1188 0.74147 0.24841 0.0
H1021 H 0.11885 0.74267 0.12798 0.0
H1022 H 0.1534 0.75901 0.12843 0.0
H1023 H 0.1534 0.75836 0.24915 0.0
H1024 H 0.1425 0.80175 0.04135 0.0
H1025 H 0.14423 0.67869 0.08903 0.0
H1026 H 0.1382 0.62541 0.14038 0.0
H1027 H 0.10689 0.64304 0.04257 0.0
H1028 H 0.11268 0.6967 0.99133 0.0
H1029 H 0.15189 0.77207 0.6986 0.0
H1030 H 0.15223 0.77073 0.819 0.0
H1031 H 0.11864 0.74365 0.82174 0.0
H1032 H 0.11843 0.74352 0.70116 0.0
H1033 H 0.12929 0.70611 0.90809 0.0
H1034 H 0.12692 0.82953 0.86316 0.0
H1035 H 0.13228 0.88448 0.81489 0.0
H1036 H 0.164 0.86769 0.90816 0.0
H1037 H 0.15886 0.8125 0.95658 0.0
C1038 C 0.12644 0.74518 0.22312 0.0
C1039 C 0.13611 0.74969 0.25901 0.0
C1040 C 0.12646 0.74571 0.15394 0.0
C1041 C 0.13616 0.75053 0.11862 0.0
C1042 C 0.14581 0.75519 0.15426 0.0
C1043 C 0.1458 0.75468 0.22351 0.0
C1044 C 0.13618 0.75133 0.04471 0.0
C1045 C 0.13976 0.78059 1.0122 0.0
C1046 C 0.13232 0.72425 1.00629 0.0
C1047 C 0.12885 0.6919 0.03684 0.0
C1048 C 0.13603 0.67135 0.07886 0.0
C1049 C 0.13266 0.64106 0.10788 0.0
C1050 C 0.12216 0.6309 0.09488 0.0
C1051 C 0.11502 0.65096 0.05267 0.0
C1052 C 0.11834 0.6813 0.02358 0.0
C1053 C 0.14454 0.76602 0.72474 0.0
C1054 C 0.13512 0.75801 0.68986 0.0
C1055 C 0.14472 0.76547 0.79394 0.0
C1056 C 0.13539 0.75767 0.83029 0.0
C1057 C 0.12596 0.74978 0.79539 0.0
C1058 C 0.12584 0.74981 0.72618 0.0
C1059 C 0.13555 0.7567 0.90436 0.0
C1060 C 0.13203 0.72735 0.93703 0.0
C1061 C 0.13938 0.78385 0.94295 0.0
C1062 C 0.14254 0.81674 0.91302 0.0
C1063 C 0.13507 0.83742 0.87295 0.0
C1064 C 0.13806 0.86866 0.84574 0.0
C1065 C 0.14848 0.87956 0.85847 0.0
C1066 C 0.15593 0.85922 0.89837 0.0
C1067 C 0.15298 0.828 0.92579 0.0
H1068 H 0.15077 0.90378 0.83747 0.0
H1069 H 0.11957 0.60744 0.1174 0.0
H1070 H 0.89417 0.7858 0.70225 0.0
H1071 H 0.894 0.78749 0.82286 0.0
H1072 H 0.86677 0.72341 0.82603 0.0
H1073 H 0.86676 0.72218 0.70548 0.0
H1074 H 0.86313 0.77446 0.91237 0.0
H1075 H 0.89382 0.69032 0.86396 0.0
H1076 H 0.91145 0.66865 0.81151 0.0
H1077 H 0.9276 0.74946 0.90664 0.0
H1078 H 0.91003 0.7719 0.95901 0.0
H1079 H 0.86562 0.72888 0.25302 0.0
H1080 H 0.86582 0.72809 0.13247 0.0
H1081 H 0.89327 0.79128 0.1315 0.0
H1082 H 0.89328 0.79147 0.25215 0.0
H1083 H 0.89684 0.74117 0.04394 0.0
H1084 H 0.86612 0.82513 0.09287 0.0
H1085 H 0.84848 0.84665 0.14534 0.0
H1086 H 0.83235 0.76609 0.04922 0.0
H1087 H 0.84994 0.74381 0.99681 0.0
C1088 C 0.88816 0.77195 0.72851 0.0
C1089 C 0.8805 0.75374 0.69382 0.0
C1090 C 0.8881 0.77282 0.79772 0.0
C1091 C 0.88045 0.75523 0.83409 0.0
C1092 C 0.87277 0.73721 0.79946 0.0
C1093 C 0.8728 0.73643 0.7303 0.0
C1094 C 0.88037 0.75584 0.90801 0.0
C1095 C 0.87048 0.76673 0.94106 0.0
C1096 C 0.88999 0.74657 0.94596 0.0
C1097 C 0.90058 0.73299 0.91489 0.0
C1098 C 0.90111 0.70361 0.87333 0.0
C1099 C 0.9111 0.69117 0.84367 0.0
C1100 C 0.92063 0.70772 0.85559 0.0
C1101 C 0.92021 0.73669 0.89738 0.0
C1102 C 0.91024 0.74927 0.92711 0.0
C1103 C 0.87167 0.74278 0.22728 0.0
C1104 C 0.8794 0.76037 0.26264 0.0
C1105 C 0.87176 0.74242 0.15807 0.0
C1106 C 0.87947 0.76001 0.1223 0.0
C1107 C 0.88722 0.7775 0.15758 0.0
C1108 C 0.88718 0.7777 0.22679 0.0
C1109 C 0.87959 0.75977 0.04835 0.0
C1110 C 0.88949 0.74895 0.01528 0.0
C1111 C 0.86997 0.76909 1.01036 0.0
C1112 C 0.85937 0.78261 0.0414 0.0
C1113 C 0.85883 0.81187 0.08326 0.0
C1114 C 0.84884 0.82422 0.11294 0.0
C1115 C 0.83931 0.80769 0.10076 0.0
C1116 C 0.83974 0.77884 0.05868 0.0
C1117 C 0.84972 0.76636 0.02892 0.0
H1118 H 0.83158 0.81728 0.12381 0.0
H1119 H 0.92835 0.69806 0.83257 0.0
H1120 H 0.61987 0.73407 0.27676 0.0
H1121 H 0.61988 0.73481 0.39731 0.0
H1122 H 0.65321 0.76412 0.39629 0.0
H1123 H 0.6533 0.76315 0.27558 0.0
H1124 H 0.6508 0.71455 0.48838 0.0
H1125 H 0.63136 0.82434 0.42738 0.0
H1126 H 0.61713 0.86344 0.37062 0.0
H1127 H 0.59168 0.81394 0.47106 0.0
H1128 H 0.60577 0.77419 0.52774 0.0
H1129 H 0.65292 0.76982 0.82209 0.0
H1130 H 0.65284 0.7682 0.7016 0.0
H1131 H 0.61961 0.73807 0.70441 0.0
H1132 H 0.61959 0.73985 0.82512 0.0
H1133 H 0.6219 0.78773 0.61157 0.0
H1134 H 0.64133 0.67814 0.67303 0.0
H1135 H 0.65558 0.63929 0.73029 0.0
H1136 H 0.68102 0.68854 0.62932 0.0
H1137 H 0.66692 0.72805 0.57211 0.0
C1138 C 0.62723 0.7406 0.30202 0.0
C1139 C 0.63658 0.74866 0.26615 0.0
C1140 C 0.6272 0.74117 0.37114 0.0
C1141 C 0.6365 0.74994 0.40618 0.0
C1142 C 0.64592 0.75734 0.37055 0.0
C1143 C 0.64595 0.75686 0.30138 0.0
C1144 C 0.63639 0.75146 0.47984 0.0
C1145 C 0.64456 0.73092 0.51522 0.0
C1146 C 0.62812 0.77217 0.51527 0.0
C1147 C 0.61962 0.79604 0.48127 0.0
C1148 C 0.62273 0.82159 0.43694 0.0
C1149 C 0.61469 0.84391 0.40487 0.0
C1150 C 0.6035 0.84111 0.4171 0.0
C1151 C 0.60034 0.81604 0.46156 0.0
C1152 C 0.60835 0.79362 0.49371 0.0
C1153 C 0.64558 0.76288 0.79724 0.0
C1154 C 0.63627 0.75487 0.8336 0.0
C1155 C 0.64556 0.76181 0.72816 0.0
C1156 C 0.63626 0.75263 0.69367 0.0
C1157 C 0.6269 0.74517 0.72976 0.0
C1158 C 0.62691 0.74612 0.79891 0.0
C1159 C 0.63631 0.75085 0.62006 0.0
C1160 C 0.62813 0.77133 0.5847 0.0
C1161 C 0.64457 0.73009 0.58466 0.0
C1162 C 0.65307 0.70629 0.61878 0.0
C1163 C 0.64997 0.68088 0.66342 0.0
C1164 C 0.65801 0.65871 0.69581 0.0
C1165 C 0.6692 0.66151 0.68358 0.0
C1166 C 0.67236 0.68644 0.63881 0.0
C1167 C 0.66434 0.70871 0.60635 0.0
H1168 H 0.67541 0.64431 0.7087 0.0
H1169 H 0.59729 0.85842 0.39223 0.0
H1170 H 0.36514 0.7309 0.83363 0.0
H1171 H 0.36519 0.73226 0.71331 0.0
H1172 H 0.39588 0.77984 0.71491 0.0
H1173 H 0.39577 0.77922 0.83577 0.0
H1174 H 0.38236 0.81115 0.62583 0.0
H1175 H 0.39471 0.69212 0.67664 0.0
H1176 H 0.39387 0.63488 0.73086 0.0
H1177 H 0.36311 0.62272 0.63423 0.0
H1178 H 0.36368 0.68015 0.58015 0.0
H1179 H 0.39477 0.78375 0.28556 0.0
H1180 H 0.39504 0.78281 0.40597 0.0
H1181 H 0.36415 0.73642 0.40808 0.0
H1182 H 0.36391 0.73673 0.28725 0.0
H1183 H 0.37807 0.70423 0.4954 0.0
H1184 H 0.36585 0.82412 0.4454 0.0
H1185 H 0.36682 0.88171 0.39277 0.0
H1186 H 0.39776 0.89206 0.48868 0.0
H1187 H 0.39705 0.83428 0.54119 0.0
C1188 C 0.37194 0.7416 0.80859 0.0
C1189 C 0.38049 0.75478 0.84472 0.0
C1190 C 0.37198 0.74221 0.7395 0.0
C1191 C 0.38062 0.75566 0.70455 0.0
C1192 C 0.38912 0.76921 0.74048 0.0
C1193 C 0.38907 0.76872 0.80973 0.0
C1194 C 0.38071 0.7559 0.6307 0.0
C1195 C 0.38159 0.78764 0.59737 0.0
C1196 C 0.37947 0.72542 0.59315 0.0
C1197 C 0.37919 0.6906 0.62479 0.0
C1198 C 0.38773 0.67734 0.66725 0.0
C1199 C 0.38731 0.64484 0.69794 0.0
C1200 C 0.37843 0.62521 0.68613 0.0
C1201 C 0.36998 0.63797 0.64339 0.0
C1202 C 0.37035 0.67049 0.61266 0.0
C1203 C 0.38799 0.77348 0.31145 0.0
C1204 C 0.37929 0.76047 0.27633 0.0
C1205 C 0.38814 0.77307 0.38059 0.0
C1206 C 0.37955 0.75992 0.41661 0.0
C1207 C 0.37087 0.74675 0.38169 0.0
C1208 C 0.37073 0.74709 0.31244 0.0
C1209 C 0.37969 0.75953 0.49049 0.0
C1210 C 0.37886 0.72774 0.52385 0.0
C1211 C 0.38103 0.78993 0.52809 0.0
C1212 C 0.38145 0.82471 0.49669 0.0
C1213 C 0.3729 0.83855 0.45486 0.0
C1214 C 0.3734 0.87125 0.42512 0.0
C1215 C 0.38236 0.89049 0.43723 0.0
C1216 C 0.39083 0.87711 0.47926 0.0
C1217 C 0.39038 0.8444 0.50907 0.0
H1218 H 0.38273 0.9158 0.41416 0.0
H1219 H 0.3781 0.60009 0.71001 0.0
H1220 H 0.62178 0.22953 0.18944 0.0
H1221 H 0.62194 0.22813 0.31018 0.0
H1222 H 0.65235 0.27722 0.31096 0.0
H1223 H 0.65231 0.27844 0.19045 0.0
H1224 H 0.65339 0.22431 0.39782 0.0
H1225 H 0.62765 0.32337 0.34877 0.0
H1226 H 0.61128 0.35475 0.29656 0.0
H1227 H 0.59034 0.28682 0.39411 0.0
H1228 H 0.60661 0.2547 0.44622 0.0
H1229 H 0.65345 0.2724 0.73747 0.0
H1230 H 0.65326 0.27282 0.61677 0.0
H1231 H 0.62274 0.22434 0.61804 0.0
H1232 H 0.6228 0.22418 0.73862 0.0
H1233 H 0.62169 0.27652 0.53007 0.0
H1234 H 0.64749 0.17766 0.57967 0.0
H1235 H 0.66388 0.1464 0.63178 0.0
H1236 H 0.68477 0.2141 0.53313 0.0
H1237 H 0.66847 0.24609 0.4811 0.0
C1238 C 0.6285 0.24013 0.21521 0.0
C1239 C 0.63701 0.25422 0.1799 0.0
C1240 C 0.62856 0.23941 0.28443 0.0
C1241 C 0.63711 0.25286 0.32006 0.0
C1242 C 0.64566 0.26667 0.28486 0.0
C1243 C 0.64559 0.26747 0.21574 0.0
C1244 C 0.63721 0.25236 0.39386 0.0
C1245 C 0.64651 0.23614 0.42668 0.0
C1246 C 0.62816 0.26708 0.43192 0.0
C1247 C 0.61836 0.2864 0.40085 0.0
C1248 C 0.61956 0.31494 0.35868 0.0
C1249 C 0.6103 0.33289 0.32917 0.0
C1250 C 0.59978 0.32272 0.34186 0.0
C1251 C 0.5985 0.29463 0.38424 0.0
C1252 C 0.60773 0.27656 0.41382 0.0
C1253 C 0.64671 0.26168 0.71218 0.0
C1254 C 0.63816 0.24814 0.74811 0.0
C1255 C 0.64663 0.26183 0.64296 0.0
C1256 C 0.63803 0.24832 0.60789 0.0
C1257 C 0.62947 0.23493 0.64368 0.0
C1258 C 0.62955 0.23472 0.71284 0.0
C1259 C 0.63788 0.24848 0.53406 0.0
C1260 C 0.62857 0.26465 0.50123 0.0
C1261 C 0.64693 0.23374 0.49599 0.0
C1262 C 0.65674 0.21449 0.52701 0.0
C1263 C 0.65557 0.18606 0.56949 0.0
C1264 C 0.66484 0.16818 0.59894 0.0
C1265 C 0.67536 0.17832 0.58591 0.0
C1266 C 0.67661 0.2063 0.54325 0.0
C1267 C 0.66736 0.2243 0.51372 0.0
H1268 H 0.68253 0.16444 0.60876 0.0
H1269 H 0.59262 0.33665 0.31898 0.0
H1270 H 0.39843 0.27058 0.18894 0.0
H1271 H 0.39818 0.27167 0.30977 0.0
H1272 H 0.36633 0.23127 0.30992 0.0
H1273 H 0.36649 0.23023 0.18945 0.0
H1274 H 0.36662 0.28449 0.39602 0.0
H1275 H 0.38938 0.17884 0.34994 0.0
H1276 H 0.40484 0.14244 0.29851 0.0
H1277 H 0.42801 0.20291 0.39447 0.0
H1278 H 0.41267 0.24002 0.44582 0.0
H1279 H 0.36499 0.23912 0.73788 0.0
H1280 H 0.3652 0.23755 0.61715 0.0
H1281 H 0.39715 0.27733 0.61598 0.0
H1282 H 0.39704 0.27871 0.73652 0.0
H1283 H 0.39676 0.2241 0.53023 0.0
H1284 H 0.37364 0.3298 0.57636 0.0
H1285 H 0.35799 0.36551 0.62737 0.0
H1286 H 0.33522 0.30373 0.53091 0.0
H1287 H 0.35076 0.26733 0.47999 0.0
C1288 C 0.39139 0.26179 0.21461 0.0
C1289 C 0.3825 0.25021 0.17914 0.0
C1290 C 0.39127 0.26234 0.28386 0.0
C1291 C 0.38226 0.25134 0.31931 0.0
C1292 C 0.37337 0.23993 0.28396 0.0
C1293 C 0.3735 0.23921 0.21485 0.0
C1294 C 0.38204 0.25198 0.39311 0.0
C1295 C 0.37315 0.2709 0.42532 0.0
C1296 C 0.39063 0.23481 0.4317 0.0
C1297 C 0.39987 0.21244 0.4012 0.0
C1298 C 0.39777 0.18456 0.35968 0.0
C1299 C 0.40651 0.16376 0.33061 0.0
C1300 C 0.4174 0.17042 0.34306 0.0
C1301 C 0.41957 0.19783 0.38479 0.0
C1302 C 0.41086 0.21873 0.41394 0.0
C1303 C 0.37204 0.24771 0.71203 0.0
C1304 C 0.38098 0.25919 0.74727 0.0
C1305 C 0.37215 0.24688 0.6428 0.0
C1306 C 0.38116 0.25758 0.60704 0.0
C1307 C 0.3901 0.26892 0.64215 0.0
C1308 C 0.38999 0.26985 0.71129 0.0
C1309 C 0.38135 0.25671 0.5332 0.0
C1310 C 0.39023 0.23772 0.50096 0.0
C1311 C 0.37272 0.27369 0.49456 0.0
C1312 C 0.36337 0.29562 0.5249 0.0
C1313 C 0.3653 0.32366 0.56643 0.0
C1314 C 0.35645 0.34405 0.59525 0.0
C1315 C 0.34562 0.33683 0.58253 0.0
C1316 C 0.34362 0.30926 0.5408 0.0
C1317 C 0.35244 0.28876 0.5119 0.0
H1318 H 0.33878 0.35266 0.6049 0.0
H1319 H 0.42415 0.15429 0.32051 0.0
H1320 H 0.05406 0.29141 0.57734 0.0
H1321 H 0.03396 0.29528 0.57313 0.0
H1322 H 0.03565 0.20622 0.44325 0.0
H1323 H 0.05578 0.20339 0.44411 0.0
H1324 H 0.01977 0.25136 0.4037 0.0
H1325 H 0.02981 0.20074 0.61367 0.0
H1326 H 0.03888 0.19659 0.72246 0.0
H1327 H 0.02069 0.29277 0.78163 0.0
H1328 H 0.01162 0.29775 0.67281 0.0
H1329 H 0.96374 0.21382 0.45287 0.0
H1330 H 0.98397 0.2102 0.45166 0.0
H1331 H 0.98298 0.30535 0.5647 0.0
H1332 H 0.96282 0.30882 0.567 0.0
H1333 H 0.99841 0.25593 0.61262 0.0
H1334 H 0.98841 0.3056 0.40037 0.0
H1335 H 0.97923 0.3079 0.29192 0.0
H1336 H 0.99728 0.21058 0.23797 0.0
H1337 H 1.00647 0.20746 0.34652 0.0
C1338 C 0.05021 0.27296 0.54683 0.0
C1339 C 0.05667 0.24695 0.51131 0.0
C1340 C 0.03865 0.2749 0.54527 0.0
C1341 C 0.0332 0.25058 0.509 0.0
C1342 C 0.0396 0.22518 0.47209 0.0
C1343 C 0.05116 0.22339 0.47317 0.0
C1344 C 0.02086 0.25148 0.50977 0.0
C1345 C 0.01514 0.25186 0.44951 0.0
C1346 C 0.01469 0.25272 0.56932 0.0
C1347 C 0.02012 0.24978 0.63484 0.0
C1348 C 0.02781 0.22114 0.6497 0.0
C1349 C 0.03294 0.21862 0.7114 0.0
C1350 C 0.03038 0.24445 0.75886 0.0
C1351 C 0.02267 0.27281 0.74478 0.0
C1352 C 0.01752 0.27548 0.68312 0.0
C1353 C 0.96782 0.23391 0.47765 0.0
C1354 C 0.9616 0.26175 0.50961 0.0
C1355 C 0.9794 0.23195 0.47655 0.0
C1356 C 0.98504 0.25769 0.5076 0.0
C1357 C 0.97885 0.28523 0.54019 0.0
C1358 C 0.9673 0.28734 0.54092 0.0
C1359 C 0.99737 0.25592 0.50667 0.0
C1360 C 1.00307 0.25536 0.5669 0.0
C1361 C 1.00352 0.25422 0.44717 0.0
C1362 C 0.99804 0.25613 0.38182 0.0
C1363 C 0.99036 0.28455 0.36558 0.0
C1364 C 0.98516 0.28603 0.30406 0.0
C1365 C 0.98765 0.25936 0.25815 0.0
C1366 C 0.99535 0.2312 0.27362 0.0
C1367 C 1.00056 0.22957 0.33511 0.0
H1368 H 0.98362 0.26055 0.21054 0.0
H1369 H 0.03436 0.24244 0.80661 0.0
H1370 H 0.96119 0.81156 0.53373 0.0
H1371 H 0.9813 0.80818 0.53643 0.0
H1372 H 0.98305 0.69717 0.50081 0.0
H1373 H 0.96289 0.70004 0.50091 0.0
H1374 H 0.9979 0.71033 0.59015 0.0
H1375 H 0.98778 0.7568 0.37676 0.0
H1376 H 0.97797 0.79746 0.29748 0.0
H1377 H 0.99306 0.88328 0.38284 0.0
H1378 H 1.00285 0.84318 0.46325 0.0
H1379 H 0.05405 0.68572 0.48845 0.0
H1380 H 0.03394 0.68965 0.49331 0.0
H1381 H 0.03292 0.79969 0.537 0.0
H1382 H 0.05311 0.79593 0.53297 0.0
H1383 H 0.01775 0.78761 0.44494 0.0
H1384 H 0.02815 0.74011 0.65737 0.0
H1385 H 0.03809 0.69869 0.73477 0.0
H1386 H 0.02257 0.61389 0.64886 0.0
H1387 H 0.01264 0.65476 0.5703 0.0
C1388 C 0.96581 0.78626 0.52749 0.0
C1389 C 0.96032 0.75607 0.51702 0.0
C1390 C 0.97736 0.78446 0.52818 0.0
C1391 C 0.98376 0.75251 0.51771 0.0
C1392 C 0.97833 0.72219 0.50864 0.0
C1393 C 0.96677 0.72394 0.50816 0.0
C1394 C 0.99609 0.75073 0.516 0.0
C1395 C 1.00223 0.72694 0.55773 0.0
C1396 C 1.00181 0.77287 0.47483 0.0
C1397 C 0.99596 0.79704 0.42646 0.0
C1398 C 0.98894 0.78438 0.37896 0.0
C1399 C 0.98339 0.80732 0.33376 0.0
C1400 C 0.98487 0.84294 0.33524 0.0
C1401 C 0.99191 0.85569 0.38182 0.0
C1402 C 0.99747 0.83286 0.42718 0.0
C1403 C 0.0496 0.71071 0.50013 0.0
C1404 C 0.05529 0.74045 0.51081 0.0
C1405 C 0.03805 0.71293 0.50265 0.0
C1406 C 0.03186 0.74489 0.51625 0.0
C1407 C 0.03749 0.77471 0.52638 0.0
C1408 C 0.04905 0.77252 0.5239 0.0
C1409 C 0.01954 0.74721 0.51903 0.0
C1410 C 0.01341 0.77108 0.47745 0.0
C1411 C 0.01383 0.72504 0.56012 0.0
C1412 C 0.01973 0.70045 0.60757 0.0
C1413 C 0.02692 0.71259 0.65467 0.0
C1414 C 0.03254 0.68922 0.6988 0.0
C1415 C 0.03098 0.65367 0.69663 0.0
C1416 C 0.02378 0.64143 0.65043 0.0
C1417 C 0.01814 0.66469 0.60614 0.0
H1418 H 0.03535 0.63561 0.73084 0.0
H1419 H 0.98057 0.86066 0.3002 0.0
H1420 H 0.55184 0.79857 1.00963 0.0
H1421 H 0.5318 0.79843 1.0072 0.0
H1422 H 0.535 0.68731 0.04391 0.0
H1423 H 0.55513 0.68725 0.04703 0.0
H1424 H 0.51958 0.70478 0.95017 0.0
H1425 H 0.52739 0.74501 0.16715 0.0
H1426 H 0.53546 0.78232 0.2493 0.0
H1427 H 0.51696 0.87313 0.1678 0.0
H1428 H 0.5089 0.83642 0.08452 0.0
H1429 H 0.46287 0.69456 0.03231 0.0
H1430 H 0.48303 0.69145 0.03282 0.0
H1431 H 0.48144 0.80332 1.00733 0.0
H1432 H 0.46132 0.80685 1.00977 0.0
H1433 H 0.49617 0.78377 0.09749 0.0
H1434 H 0.48865 0.74437 0.87919 0.0
H1435 H 0.48064 0.70761 0.79591 0.0
H1436 H 0.49853 0.61598 0.87846 0.0
H1437 H 0.50654 0.65217 0.96283 0.0
C1438 C 0.54832 0.77408 0.0178 0.0
C1439 C 0.55516 0.74296 0.0292 0.0
C1440 C 0.53682 0.77405 0.01624 0.0
C1441 C 0.53183 0.74296 0.02636 0.0
C1442 C 0.53863 0.71166 0.03607 0.0
C1443 C 0.55016 0.71166 0.03763 0.0
C1444 C 0.51955 0.74327 0.02714 0.0
C1445 C 0.51447 0.72168 0.98307 0.0
C1446 C 0.51282 0.76586 0.06899 0.0
C1447 C 0.51762 0.78799 0.1192 0.0
C1448 C 0.52511 0.77297 0.16642 0.0
C1449 C 0.52967 0.79401 0.21324 0.0
C1450 C 0.52674 0.83008 0.21367 0.0
C1451 C 0.51923 0.84519 0.16736 0.0
C1452 C 0.51466 0.82427 0.12037 0.0
C1453 C 0.46679 0.71857 0.02709 0.0
C1454 C 0.46038 0.75096 0.02077 0.0
C1455 C 0.47835 0.7167 0.0267 0.0
C1456 C 0.48383 0.74711 0.01937 0.0
C1457 C 0.47746 0.77943 1.01286 0.0
C1458 C 0.46591 0.78135 1.01349 0.0
C1459 C 0.49616 0.74549 0.02006 0.0
C1460 C 0.50126 0.76681 0.06458 0.0
C1461 C 0.50289 0.72274 0.97848 0.0
C1462 C 0.49811 0.70094 0.92774 0.0
C1463 C 0.49081 0.71635 0.8799 0.0
C1464 C 0.48628 0.69562 0.83245 0.0
C1465 C 0.48905 0.65947 0.83201 0.0
C1466 C 0.49638 0.64398 0.87893 0.0
C1467 C 0.50092 0.66459 0.92654 0.0
H1468 H 0.48554 0.64346 0.79522 0.0
H1469 H 0.53028 0.84632 0.24996 0.0
H1470 H 0.46292 0.30986 0.01583 0.0
H1471 H 0.48301 0.3077 0.02007 0.0
H1472 H 0.48544 0.19558 0.99844 0.0
H1473 H 0.4653 0.19733 0.99719 0.0
H1474 H 0.50001 0.21221 0.08578 0.0
H1475 H 0.49024 0.25159 0.86753 0.0
H1476 H 0.48048 0.28913 0.78317 0.0
H1477 H 0.49481 0.37855 0.85967 0.0
H1478 H 0.50456 0.34161 0.9451 0.0
H1479 H 0.55654 0.18829 0.98953 0.0
H1480 H 0.53643 0.19096 0.99306 0.0
H1481 H 0.53459 0.30214 0.02655 0.0
H1482 H 0.55475 0.29967 0.02408 0.0
H1483 H 0.51979 0.28643 0.93416 0.0
H1484 H 0.52985 0.24547 0.15182 0.0
H1485 H 0.5398 0.20667 0.23357 0.0
H1486 H 0.52502 0.11863 0.15466 0.0
H1487 H 0.51509 0.15684 0.07181 0.0
C1488 C 0.46768 0.2846 1.01303 0.0
C1489 C 0.46239 0.25376 1.00606 0.0
C1490 C 0.47923 0.28348 0.01456 0.0
C1491 C 0.48583 0.25154 1.00841 0.0
C1492 C 0.48058 0.22062 1.00289 0.0
C1493 C 0.46903 0.2217 1.00161 0.0
C1494 C 0.49816 0.25038 1.00757 0.0
C1495 C 0.50431 0.22814 0.05198 0.0
C1496 C 0.50388 0.27161 0.96448 0.0
C1497 C 0.49804 0.29389 0.91314 0.0
C1498 C 0.49125 0.27931 0.86669 0.0
C1499 C 0.48573 0.30047 0.81862 0.0
C1500 C 0.487 0.33622 0.81618 0.0
C1501 C 0.49382 0.35087 0.86169 0.0
C1502 C 0.49935 0.32983 0.90992 0.0
C1503 C 0.55191 0.21329 0.99878 0.0
C1504 C 0.55737 0.24373 1.00699 0.0
C1505 C 0.54036 0.21479 1.0005 0.0
C1506 C 0.53393 0.24671 1.01072 0.0
C1507 C 0.53933 0.27718 0.01851 0.0
C1508 C 0.55089 0.27572 0.01692 0.0
C1509 C 0.5216 0.2483 1.01236 0.0
C1510 C 0.51546 0.27059 0.96804 0.0
C1511 C 0.51591 0.22695 0.05519 0.0
C1512 C 0.52181 0.20397 0.10524 0.0
C1513 C 0.52878 0.21779 0.15159 0.0
C1514 C 0.53441 0.19591 0.19817 0.0
C1515 C 0.53307 0.16019 0.1992 0.0
C1516 C 0.52607 0.14629 0.15375 0.0
C1517 C 0.52043 0.16806 0.10701 0.0
H1518 H 0.53743 0.1433 0.2353 0.0
H1519 H 0.48272 0.35256 0.77892 0.0
loop_
_geom_bond_atom_site_label_1
_geom_bond_atom_site_label_2
_geom_bond_distance
_geom_bond_site_symmetry_2
_ccdc_geom_bond_type
Sm0 C2 2.846 . S
Sm0 O20 2.543 . S
Sm0 O21 2.450 . S
Sm0 O22 2.681 . S
Sm0 O23 2.464 . S
Sm0 O24 2.396 . S
Sm0 O28 2.386 . S
Sm0 O31 2.408 . S
Sm1 C11 2.846 . S
Sm1 O22 2.386 . S
Sm1 O25 2.408 . S
Sm1 O26 2.543 . S
Sm1 O27 2.450 . S
Sm1 O28 2.681 . S
Sm1 O29 2.464 . S
Sm1 O30 2.396 . S
C2 Sm0 2.846 . S
C2 C3 1.506 . S
C2 O20 1.261 . S
C2 O21 1.242 . S
C3 C2 1.506 . S
C3 C4 1.358 . S
C3 C8 1.382 . S
C4 C3 1.358 . S
C4 C5 1.385 . S
C4 H32 0.930 . S
C5 C4 1.385 . S
C5 C6 1.395 . S
C5 H33 0.929 . S
C6 C5 1.395 . S
C6 C7 1.335 . S
C7 C6 1.335 . S
C7 C8 1.398 . S
C7 H34 0.930 . S
C8 C3 1.382 . S
C8 C7 1.398 . S
C8 H35 0.929 . S
C9 O22 1.271 . S
C9 O23 1.251 . S
C10 O24 1.252 . S
C10 O25 1.272 . S
C11 Sm1 2.846 . S
C11 C12 1.506 . S
C11 O26 1.261 . S
C11 O27 1.242 . S
C12 C11 1.506 . S
C12 C13 1.358 . S
C12 C17 1.382 . S
C13 C12 1.358 . S
C13 C14 1.385 . S
C13 H36 0.930 . S
C14 C13 1.385 . S
C14 C15 1.395 . S
C14 H37 0.929 . S
C15 C14 1.395 . S
C15 C16 1.335 . S
C16 C15 1.335 . S
C16 C17 1.398 . S
C16 H38 0.930 . S
C17 C12 1.382 . S
C17 C16 1.398 . S
C17 H39 0.929 . S
C18 O28 1.271 . S
C18 O29 1.251 . S
C19 O30 1.252 . S
C19 O31 1.272 . S
O20 Sm0 2.543 . S
O20 C2 1.261 . S
O21 Sm0 2.450 . S
O21 C2 1.242 . S
O22 Sm0 2.681 . S
O22 Sm1 2.386 . S
O22 C9 1.271 . S
O23 Sm0 2.464 . S
O23 C9 1.251 . S
O24 Sm0 2.396 . S
O24 C10 1.252 . S
O25 Sm1 2.408 . S
O25 C10 1.272 . S
O26 Sm1 2.543 . S
O26 C11 1.261 . S
O27 Sm1 2.450 . S
O27 C11 1.242 . S
O28 Sm0 2.386 . S
O28 Sm1 2.681 . S
O28 C18 1.271 . S
O29 Sm1 2.464 . S
O29 C18 1.251 . S
O30 Sm1 2.396 . S
O30 C19 1.252 . S
O31 Sm0 2.408 . S
O31 C19 1.272 . S
H32 C4 0.930 . S
H33 C5 0.929 . S
H34 C7 0.930 . S
H35 C8 0.929 . S
H36 C13 0.930 . S
H37 C14 0.929 . S
H38 C16 0.930 . S
H39 C17 0.929 . S
Sm40 C42 2.846 . S
Sm40 O60 2.543 . S
Sm40 O61 2.450 . S
Sm40 O62 2.681 . S
Sm40 O63 2.464 . S
Sm40 O64 2.396 . S
Sm40 O68 2.386 . S
Sm40 O71 2.408 . S
Sm41 C51 2.846 . S
Sm41 O62 2.386 . S
Sm41 O65 2.408 . S
Sm41 O66 2.543 . S
Sm41 O67 2.450 . S
Sm41 O68 2.681 . S
Sm41 O69 2.464 . S
Sm41 O70 2.396 . S
C42 Sm40 2.846 . S
C42 C43 1.506 . S
C42 O60 1.261 . S
C42 O61 1.242 . S
C43 C42 1.506 . S
C43 C44 1.358 . S
C43 C48 1.382 . S
C44 C43 1.358 . S
C44 C45 1.385 . S
C44 H72 0.930 . S
C45 C44 1.385 . S
C45 C46 1.395 . S
C45 H73 0.929 . S
C46 C45 1.395 . S
C46 C47 1.335 . S
C47 C46 1.335 . S
C47 C48 1.398 . S
C47 H74 0.930 . S
C48 C43 1.382 . S
C48 C47 1.398 . S
C48 H75 0.929 . S
C49 O62 1.271 . S
C49 O63 1.251 . S
C50 O64 1.252 . S
C50 O65 1.272 . S
C51 Sm41 2.846 . S
C51 C52 1.506 . S
C51 O66 1.261 . S
C51 O67 1.242 . S
C52 C51 1.506 . S
C52 C53 1.358 . S
C52 C57 1.382 . S
C53 C52 1.358 . S
C53 C54 1.385 . S
C53 H76 0.930 . S
C54 C53 1.385 . S
C54 C55 1.395 . S
C54 H77 0.929 . S
C55 C54 1.395 . S
C55 C56 1.335 . S
C56 C55 1.335 . S
C56 C57 1.398 . S
C56 H78 0.930 . S
C57 C52 1.382 . S
C57 C56 1.398 . S
C57 H79 0.929 . S
C58 O68 1.271 . S
C58 O69 1.251 . S
C59 O70 1.252 . S
C59 O71 1.272 . S
O60 Sm40 2.543 . S
O60 C42 1.261 . S
O61 Sm40 2.450 . S
O61 C42 1.242 . S
O62 Sm40 2.681 . S
O62 Sm41 2.386 . S
O62 C49 1.271 . S
O63 Sm40 2.464 . S
O63 C49 1.251 . S
O64 Sm40 2.396 . S
O64 C50 1.252 . S
O65 Sm41 2.408 . S
O65 C50 1.272 . S
O66 Sm41 2.543 . S
O66 C51 1.261 . S
O67 Sm41 2.450 . S
O67 C51 1.242 . S
O68 Sm40 2.386 . S
O68 Sm41 2.681 . S
O68 C58 1.271 . S
O69 Sm41 2.464 . S
O69 C58 1.251 . S
O70 Sm41 2.396 . S
O70 C59 1.252 . S
O71 Sm40 2.408 . S
O71 C59 1.272 . S
H72 C44 0.930 . S
H73 C45 0.929 . S
H74 C47 0.930 . S
H75 C48 0.929 . S
H76 C53 0.930 . S
H77 C54 0.929 . S
H78 C56 0.930 . S
H79 C57 0.929 . S
Sm80 C82 2.846 . S
Sm80 O100 2.543 . S
Sm80 O101 2.450 . S
Sm80 O102 2.681 . S
Sm80 O103 2.464 . S
Sm80 O104 2.396 . S
Sm80 O108 2.386 . S
Sm80 O111 2.408 . S
Sm81 C91 2.846 . S
Sm81 O102 2.386 . S
Sm81 O105 2.408 . S
Sm81 O106 2.543 . S
Sm81 O107 2.450 . S
Sm81 O108 2.681 . S
Sm81 O109 2.464 . S
Sm81 O110 2.396 . S
C82 Sm80 2.846 . S
C82 C83 1.506 . S
C82 O100 1.261 . S
C82 O101 1.242 . S
C83 C82 1.506 . S
C83 C84 1.358 . S
C83 C88 1.382 . S
C84 C83 1.358 . S
C84 C85 1.385 . S
C84 H112 0.930 . S
C85 C84 1.385 . S
C85 C86 1.395 . S
C85 H113 0.929 . S
C86 C85 1.395 . S
C86 C87 1.335 . S
C87 C86 1.335 . S
C87 C88 1.398 . S
C87 H114 0.930 . S
C88 C83 1.382 . S
C88 C87 1.398 . S
C88 H115 0.929 . S
C89 O102 1.271 . S
C89 O103 1.251 . S
C90 O104 1.252 . S
C90 O105 1.272 . S
C91 Sm81 2.846 . S
C91 C92 1.506 . S
C91 O106 1.261 . S
C91 O107 1.242 . S
C92 C91 1.506 . S
C92 C93 1.358 . S
C92 C97 1.382 . S
C93 C92 1.358 . S
C93 C94 1.385 . S
C93 H116 0.930 . S
C94 C93 1.385 . S
C94 C95 1.395 . S
C94 H117 0.929 . S
C95 C94 1.395 . S
C95 C96 1.335 . S
C96 C95 1.335 . S
C96 C97 1.398 . S
C96 H118 0.930 . S
C97 C92 1.382 . S
C97 C96 1.398 . S
C97 H119 0.929 . S
C98 O108 1.271 . S
C98 O109 1.251 . S
C99 O110 1.252 . S
C99 O111 1.272 . S
O100 Sm80 2.543 . S
O100 C82 1.261 . S
O101 Sm80 2.450 . S
O101 C82 1.242 . S
O102 Sm80 2.681 . S
O102 Sm81 2.386 . S
O102 C89 1.271 . S
O103 Sm80 2.464 . S
O103 C89 1.251 . S
O104 Sm80 2.396 . S
O104 C90 1.252 . S
O105 Sm81 2.408 . S
O105 C90 1.272 . S
O106 Sm81 2.543 . S
O106 C91 1.261 . S
O107 Sm81 2.450 . S
O107 C91 1.242 . S
O108 Sm80 2.386 . S
O108 Sm81 2.681 . S
O108 C98 1.271 . S
O109 Sm81 2.464 . S
O109 C98 1.251 . S
O110 Sm81 2.396 . S
O110 C99 1.252 . S
O111 Sm80 2.408 . S
O111 C99 1.272 . S
H112 C84 0.930 . S
H113 C85 0.929 . S
H114 C87 0.930 . S
H115 C88 0.929 . S
H116 C93 0.930 . S
H117 C94 0.929 . S
H118 C96 0.930 . S
H119 C97 0.929 . S
Sm120 C122 2.846 . S
Sm120 O140 2.543 . S
Sm120 O141 2.450 . S
Sm120 O142 2.681 . S
Sm120 O143 2.464 . S
Sm120 O144 2.396 . S
Sm120 O148 2.386 . S
Sm120 O151 2.408 . S
Sm121 C131 2.846 . S
Sm121 O142 2.386 . S
Sm121 O145 2.408 . S
Sm121 O146 2.543 . S
Sm121 O147 2.450 . S
Sm121 O148 2.681 . S
Sm121 O149 2.464 . S
Sm121 O150 2.396 . S
C122 Sm120 2.846 . S
C122 C123 1.506 . S
C122 O140 1.261 . S
C122 O141 1.242 . S
C123 C122 1.506 . S
C123 C124 1.358 . S
C123 C128 1.382 . S
C124 C123 1.358 . S
C124 C125 1.385 . S
C124 H152 0.930 . S
C125 C124 1.385 . S
C125 C126 1.395 . S
C125 H153 0.929 . S
C126 C125 1.395 . S
C126 C127 1.335 . S
C127 C126 1.335 . S
C127 C128 1.398 . S
C127 H154 0.930 . S
C128 C123 1.382 . S
C128 C127 1.398 . S
C128 H155 0.929 . S
C129 O142 1.271 . S
C129 O143 1.251 . S
C130 O144 1.252 . S
C130 O145 1.272 . S
C131 Sm121 2.846 . S
C131 C132 1.506 . S
C131 O146 1.261 . S
C131 O147 1.242 . S
C132 C131 1.506 . S
C132 C133 1.358 . S
C132 C137 1.382 . S
C133 C132 1.358 . S
C133 C134 1.385 . S
C133 H156 0.930 . S
C134 C133 1.385 . S
C134 C135 1.395 . S
C134 H157 0.929 . S
C135 C134 1.395 . S
C135 C136 1.335 . S
C136 C135 1.335 . S
C136 C137 1.398 . S
C136 H158 0.930 . S
C137 C132 1.382 . S
C137 C136 1.398 . S
C137 H159 0.929 . S
C138 O148 1.271 . S
C138 O149 1.251 . S
C139 O150 1.252 . S
C139 O151 1.272 . S
O140 Sm120 2.543 . S
O140 C122 1.261 . S
O141 Sm120 2.450 . S
O141 C122 1.242 . S
O142 Sm120 2.681 . S
O142 Sm121 2.386 . S
O142 C129 1.271 . S
O143 Sm120 2.464 . S
O143 C129 1.251 . S
O144 Sm120 2.396 . S
O144 C130 1.252 . S
O145 Sm121 2.408 . S
O145 C130 1.272 . S
O146 Sm121 2.543 . S
O146 C131 1.261 . S
O147 Sm121 2.450 . S
O147 C131 1.242 . S
O148 Sm120 2.386 . S
O148 Sm121 2.681 . S
O148 C138 1.271 . S
O149 Sm121 2.464 . S
O149 C138 1.251 . S
O150 Sm121 2.396 . S
O150 C139 1.252 . S
O151 Sm120 2.408 . S
O151 C139 1.272 . S
H152 C124 0.930 . S
H153 C125 0.929 . S
H154 C127 0.930 . S
H155 C128 0.929 . S
H156 C133 0.930 . S
H157 C134 0.929 . S
H158 C136 0.930 . S
H159 C137 0.929 . S
Sm160 C162 2.846 1_556 S
Sm160 O180 2.543 1_556 S
Sm160 O181 2.450 1_556 S
Sm160 O182 2.681 . S
Sm160 O183 2.464 . S
Sm160 O184 2.396 1_556 S
Sm160 O188 2.386 1_556 S
Sm160 O191 2.408 . S
Sm161 C171 2.846 1_554 S
Sm161 O182 2.386 1_554 S
Sm161 O185 2.408 . S
Sm161 O186 2.543 1_554 S
Sm161 O187 2.450 1_554 S
Sm161 O188 2.681 . S
Sm161 O189 2.464 . S
Sm161 O190 2.396 1_554 S
C162 Sm160 2.846 1_554 S
C162 C163 1.506 . S
C162 O180 1.261 . S
C162 O181 1.242 . S
C163 C162 1.506 . S
C163 C164 1.358 . S
C163 C168 1.382 . S
C164 C163 1.358 . S
C164 C165 1.385 . S
C164 H192 0.930 . S
C165 C164 1.385 . S
C165 C166 1.395 . S
C165 H193 0.929 . S
C166 C165 1.395 . S
C166 C167 1.335 . S
C167 C166 1.335 . S
C167 C168 1.398 . S
C167 H194 0.930 . S
C168 C163 1.382 . S
C168 C167 1.398 . S
C168 H195 0.929 . S
C169 O182 1.271 . S
C169 O183 1.251 . S
C170 O184 1.252 . S
C170 O185 1.272 . S
C171 Sm161 2.846 1_556 S
C171 C172 1.506 . S
C171 O186 1.261 . S
C171 O187 1.242 . S
C172 C171 1.506 . S
C172 C173 1.358 . S
C172 C177 1.382 . S
C173 C172 1.358 . S
C173 C174 1.385 . S
C173 H196 0.930 . S
C174 C173 1.385 . S
C174 C175 1.395 . S
C174 H197 0.929 . S
C175 C174 1.395 . S
C175 C176 1.335 . S
C176 C175 1.335 . S
C176 C177 1.398 . S
C176 H198 0.930 . S
C177 C172 1.382 . S
C177 C176 1.398 . S
C177 H199 0.929 . S
C178 O188 1.271 . S
C178 O189 1.251 . S
C179 O190 1.252 . S
C179 O191 1.272 . S
O180 Sm160 2.543 1_554 S
O180 C162 1.261 . S
O181 Sm160 2.450 1_554 S
O181 C162 1.242 . S
O182 Sm160 2.681 . S
O182 Sm161 2.386 1_556 S
O182 C169 1.271 . S
O183 Sm160 2.464 . S
O183 C169 1.251 . S
O184 Sm160 2.396 1_554 S
O184 C170 1.252 . S
O185 Sm161 2.408 . S
O185 C170 1.272 . S
O186 Sm161 2.543 1_556 S
O186 C171 1.261 . S
O187 Sm161 2.450 1_556 S
O187 C171 1.242 . S
O188 Sm160 2.386 1_554 S
O188 Sm161 2.681 . S
O188 C178 1.271 . S
O189 Sm161 2.464 . S
O189 C178 1.251 . S
O190 Sm161 2.396 1_556 S
O190 C179 1.252 . S
O191 Sm160 2.408 . S
O191 C179 1.272 . S
H192 C164 0.930 . S
H193 C165 0.929 . S
H194 C167 0.930 . S
H195 C168 0.929 . S
H196 C173 0.930 . S
H197 C174 0.929 . S
H198 C176 0.930 . S
H199 C177 0.929 . S
Sm200 C202 2.846 1_556 S
Sm200 O220 2.543 1_556 S
Sm200 O221 2.450 1_556 S
Sm200 O222 2.681 . S
Sm200 O223 2.464 . S
Sm200 O224 2.396 1_556 S
Sm200 O228 2.386 1_556 S
Sm200 O231 2.408 . S
Sm201 C211 2.846 1_554 S
Sm201 O222 2.386 1_554 S
Sm201 O225 2.408 . S
Sm201 O226 2.543 1_554 S
Sm201 O227 2.450 1_554 S
Sm201 O228 2.681 . S
Sm201 O229 2.464 . S
Sm201 O230 2.396 1_554 S
C202 Sm200 2.846 1_554 S
C202 C203 1.506 . S
C202 O220 1.261 . S
C202 O221 1.242 . S
C203 C202 1.506 . S
C203 C204 1.358 . S
C203 C208 1.382 . S
C204 C203 1.358 . S
C204 C205 1.385 . S
C204 H232 0.930 . S
C205 C204 1.385 . S
C205 C206 1.395 . S
C205 H233 0.929 . S
C206 C205 1.395 . S
C206 C207 1.335 . S
C207 C206 1.335 . S
C207 C208 1.398 . S
C207 H234 0.930 . S
C208 C203 1.382 . S
C208 C207 1.398 . S
C208 H235 0.929 . S
C209 O222 1.271 . S
C209 O223 1.251 . S
C210 O224 1.252 . S
C210 O225 1.272 . S
C211 Sm201 2.846 1_556 S
C211 C212 1.506 . S
C211 O226 1.261 . S
C211 O227 1.242 . S
C212 C211 1.506 . S
C212 C213 1.358 . S
C212 C217 1.382 . S
C213 C212 1.358 . S
C213 C214 1.385 . S
C213 H236 0.930 . S
C214 C213 1.385 . S
C214 C215 1.395 . S
C214 H237 0.929 . S
C215 C214 1.395 . S
C215 C216 1.335 . S
C216 C215 1.335 . S
C216 C217 1.398 . S
C216 H238 0.930 . S
C217 C212 1.382 . S
C217 C216 1.398 . S
C217 H239 0.929 . S
C218 O228 1.271 . S
C218 O229 1.251 . S
C219 O230 1.252 . S
C219 O231 1.272 . S
O220 Sm200 2.543 1_554 S
O220 C202 1.261 . S
O221 Sm200 2.450 1_554 S
O221 C202 1.242 . S
O222 Sm200 2.681 . S
O222 Sm201 2.386 1_556 S
O222 C209 1.271 . S
O223 Sm200 2.464 . S
O223 C209 1.251 . S
O224 Sm200 2.396 1_554 S
O224 C210 1.252 . S
O225 Sm201 2.408 . S
O225 C210 1.272 . S
O226 Sm201 2.543 1_556 S
O226 C211 1.261 . S
O227 Sm201 2.450 1_556 S
O227 C211 1.242 . S
O228 Sm200 2.386 1_554 S
O228 Sm201 2.681 . S
O228 C218 1.271 . S
O229 Sm201 2.464 . S
O229 C218 1.251 . S
O230 Sm201 2.396 1_556 S
O230 C219 1.252 . S
O231 Sm200 2.408 . S
O231 C219 1.272 . S
H232 C204 0.930 . S
H233 C205 0.929 . S
H234 C207 0.930 . S
H235 C208 0.929 . S
H236 C213 0.930 . S
H237 C214 0.929 . S
H238 C216 0.930 . S
H239 C217 0.929 . S
Sm240 C242 2.846 1_556 S
Sm240 O260 2.543 1_556 S
Sm240 O261 2.450 1_556 S
Sm240 O262 2.681 . S
Sm240 O263 2.464 . S
Sm240 O264 2.396 1_556 S
Sm240 O268 2.386 1_556 S
Sm240 O271 2.408 . S
Sm241 C251 2.846 1_554 S
Sm241 O262 2.386 1_554 S
Sm241 O265 2.408 . S
Sm241 O266 2.543 1_554 S
Sm241 O267 2.450 1_554 S
Sm241 O268 2.681 . S
Sm241 O269 2.464 . S
Sm241 O270 2.396 1_554 S
C242 Sm240 2.846 1_554 S
C242 C243 1.506 . S
C242 O260 1.261 . S
C242 O261 1.242 . S
C243 C242 1.506 . S
C243 C244 1.358 . S
C243 C248 1.382 . S
C244 C243 1.358 . S
C244 C245 1.385 . S
C244 H272 0.930 . S
C245 C244 1.385 . S
C245 C246 1.395 . S
C245 H273 0.929 . S
C246 C245 1.395 . S
C246 C247 1.335 . S
C247 C246 1.335 . S
C247 C248 1.398 . S
C247 H274 0.930 . S
C248 C243 1.382 . S
C248 C247 1.398 . S
C248 H275 0.929 . S
C249 O262 1.271 . S
C249 O263 1.251 . S
C250 O264 1.252 . S
C250 O265 1.272 . S
C251 Sm241 2.846 1_556 S
C251 C252 1.506 . S
C251 O266 1.261 . S
C251 O267 1.242 . S
C252 C251 1.506 . S
C252 C253 1.358 . S
C252 C257 1.382 . S
C253 C252 1.358 . S
C253 C254 1.385 . S
C253 H276 0.930 . S
C254 C253 1.385 . S
C254 C255 1.395 . S
C254 H277 0.929 . S
C255 C254 1.395 . S
C255 C256 1.335 . S
C256 C255 1.335 . S
C256 C257 1.398 . S
C256 H278 0.930 . S
C257 C252 1.382 . S
C257 C256 1.398 . S
C257 H279 0.929 . S
C258 O268 1.271 . S
C258 O269 1.251 . S
C259 O270 1.252 . S
C259 O271 1.272 . S
O260 Sm240 2.543 1_554 S
O260 C242 1.261 . S
O261 Sm240 2.450 1_554 S
O261 C242 1.242 . S
O262 Sm240 2.681 . S
O262 Sm241 2.386 1_556 S
O262 C249 1.271 . S
O263 Sm240 2.464 . S
O263 C249 1.251 . S
O264 Sm240 2.396 1_554 S
O264 C250 1.252 . S
O265 Sm241 2.408 . S
O265 C250 1.272 . S
O266 Sm241 2.543 1_556 S
O266 C251 1.261 . S
O267 Sm241 2.450 1_556 S
O267 C251 1.242 . S
O268 Sm240 2.386 1_554 S
O268 Sm241 2.681 . S
O268 C258 1.271 . S
O269 Sm241 2.464 . S
O269 C258 1.251 . S
O270 Sm241 2.396 1_556 S
O270 C259 1.252 . S
O271 Sm240 2.408 . S
O271 C259 1.272 . S
H272 C244 0.930 . S
H273 C245 0.929 . S
H274 C247 0.930 . S
H275 C248 0.929 . S
H276 C253 0.930 . S
H277 C254 0.929 . S
H278 C256 0.930 . S
H279 C257 0.929 . S
Sm280 C282 2.846 1_556 S
Sm280 O300 2.543 1_556 S
Sm280 O301 2.450 1_556 S
Sm280 O302 2.681 . S
Sm280 O303 2.464 . S
Sm280 O304 2.396 1_556 S
Sm280 O308 2.386 1_556 S
Sm280 O311 2.408 . S
Sm281 C291 2.846 1_554 S
Sm281 O302 2.386 1_554 S
Sm281 O305 2.408 . S
Sm281 O306 2.543 1_554 S
Sm281 O307 2.450 1_554 S
Sm281 O308 2.681 . S
Sm281 O309 2.464 . S
Sm281 O310 2.396 1_554 S
C282 Sm280 2.846 1_554 S
C282 C283 1.506 . S
C282 O300 1.261 . S
C282 O301 1.242 . S
C283 C282 1.506 . S
C283 C284 1.358 . S
C283 C288 1.382 . S
C284 C283 1.358 . S
C284 C285 1.385 . S
C284 H312 0.930 . S
C285 C284 1.385 . S
C285 C286 1.395 . S
C285 H313 0.929 . S
C286 C285 1.395 . S
C286 C287 1.335 . S
C287 C286 1.335 . S
C287 C288 1.398 . S
C287 H314 0.930 . S
C288 C283 1.382 . S
C288 C287 1.398 . S
C288 H315 0.929 . S
C289 O302 1.271 . S
C289 O303 1.251 . S
C290 O304 1.252 . S
C290 O305 1.272 . S
C291 Sm281 2.846 1_556 S
C291 C292 1.506 . S
C291 O306 1.261 . S
C291 O307 1.242 . S
C292 C291 1.506 . S
C292 C293 1.358 . S
C292 C297 1.382 . S
C293 C292 1.358 . S
C293 C294 1.385 . S
C293 H316 0.930 . S
C294 C293 1.385 . S
C294 C295 1.395 . S
C294 H317 0.929 . S
C295 C294 1.395 . S
C295 C296 1.335 . S
C296 C295 1.335 . S
C296 C297 1.398 . S
C296 H318 0.930 . S
C297 C292 1.382 . S
C297 C296 1.398 . S
C297 H319 0.929 . S
C298 O308 1.271 . S
C298 O309 1.251 . S
C299 O310 1.252 . S
C299 O311 1.272 . S
O300 Sm280 2.543 1_554 S
O300 C282 1.261 . S
O301 Sm280 2.450 1_554 S
O301 C282 1.242 . S
O302 Sm280 2.681 . S
O302 Sm281 2.386 1_556 S
O302 C289 1.271 . S
O303 Sm280 2.464 . S
O303 C289 1.251 . S
O304 Sm280 2.396 1_554 S
O304 C290 1.252 . S
O305 Sm281 2.408 . S
O305 C290 1.272 . S
O306 Sm281 2.543 1_556 S
O306 C291 1.261 . S
O307 Sm281 2.450 1_556 S
O307 C291 1.242 . S
O308 Sm280 2.386 1_554 S
O308 Sm281 2.681 . S
O308 C298 1.271 . S
O309 Sm281 2.464 . S
O309 C298 1.251 . S
O310 Sm281 2.396 1_556 S
O310 C299 1.252 . S
O311 Sm280 2.408 . S
O311 C299 1.272 . S
H312 C284 0.930 . S
H313 C285 0.929 . S
H314 C287 0.930 . S
H315 C288 0.929 . S
H316 C293 0.930 . S
H317 C294 0.929 . S
H318 C296 0.930 . S
H319 C297 0.929 . S
H320 C338 0.951 . S
H321 C340 0.951 . S
H322 C342 0.950 . S
H323 C343 0.950 . S
H324 C345 0.950 . S
H325 C348 0.950 . S
H326 C349 0.950 . S
H327 C351 0.950 . S
H328 C352 0.950 . S
H329 C353 0.951 . S
H330 C355 0.951 . S
H331 C357 0.950 . S
H332 C358 0.950 . S
H333 C360 0.950 . S
H334 C363 0.950 . S
H335 C364 0.950 . S
H336 C366 0.950 . S
H337 C367 0.950 . S
C338 H320 0.951 . S
C338 C339 1.366 . S
C338 C340 1.388 . S
C339 C338 1.366 . S
C339 C343 1.385 . S
C340 H321 0.951 . S
C340 C338 1.388 . S
C340 C341 1.366 . S
C341 C340 1.366 . S
C341 C342 1.414 . S
C341 C344 1.499 . S
C342 H322 0.950 . S
C342 C341 1.414 . S
C342 C343 1.374 . S
C343 H323 0.950 . S
C343 C339 1.385 . S
C343 C342 1.374 . S
C344 C341 1.499 . S
C344 C345 1.373 . S
C344 C346 1.389 . S
C345 H324 0.950 . S
C345 C344 1.373 . S
C345 C361 1.377 . S
C346 C344 1.389 . S
C346 C347 1.524 . S
C346 C360 1.377 . S
C347 C346 1.524 . S
C347 C348 1.397 . S
C347 C352 1.363 . S
C348 H325 0.950 . S
C348 C347 1.397 . S
C348 C349 1.334 . S
C349 H326 0.950 . S
C349 C348 1.334 . S
C349 C350 1.287 . S
C350 C349 1.287 . S
C350 C351 1.524 . S
C350 H369 0.913 . S
C351 H327 0.950 . S
C351 C350 1.524 . S
C351 C352 1.415 . S
C352 H328 0.950 . S
C352 C347 1.363 . S
C352 C351 1.415 . S
C353 H329 0.951 . S
C353 C354 1.366 . S
C353 C355 1.388 . S
C354 C353 1.366 . S
C354 C358 1.385 . S
C355 H330 0.951 . S
C355 C353 1.388 . S
C355 C356 1.366 . S
C356 C355 1.366 . S
C356 C357 1.414 . S
C356 C359 1.499 . S
C357 H331 0.950 . S
C357 C356 1.414 . S
C357 C358 1.374 . S
C358 H332 0.950 . S
C358 C354 1.385 . S
C358 C357 1.374 . S
C359 C356 1.499 . S
C359 C360 1.373 . S
C359 C361 1.389 . S
C360 H333 0.950 . S
C360 C346 1.377 . S
C360 C359 1.373 . S
C361 C345 1.377 . S
C361 C359 1.389 . S
C361 C362 1.524 . S
C362 C361 1.524 . S
C362 C363 1.397 . S
C362 C367 1.363 . S
C363 H334 0.950 . S
C363 C362 1.397 . S
C363 C364 1.334 . S
C364 H335 0.950 . S
C364 C363 1.334 . S
C364 C365 1.287 . S
C365 C364 1.287 . S
C365 C366 1.524 . S
C365 H368 0.999 . S
C366 H336 0.950 . S
C366 C365 1.524 . S
C366 C367 1.415 . S
C367 H337 0.950 . S
C367 C362 1.363 . S
C367 C366 1.415 . S
H368 C365 0.999 . S
H369 C350 0.913 . S
H370 C388 0.951 . S
H371 C390 0.951 . S
H372 C392 0.950 . S
H373 C393 0.950 . S
H374 C395 0.950 . S
H375 C398 0.950 . S
H376 C399 0.950 . S
H377 C401 0.950 . S
H378 C402 0.950 . S
H379 C403 0.951 . S
H380 C405 0.951 . S
H381 C407 0.950 . S
H382 C408 0.950 . S
H383 C410 0.950 . S
H384 C413 0.950 . S
H385 C414 0.950 . S
H386 C416 0.950 . S
H387 C417 0.950 . S
C388 H370 0.951 . S
C388 C389 1.366 . S
C388 C390 1.388 . S
C389 C388 1.366 . S
C389 C393 1.385 . S
C390 H371 0.951 . S
C390 C388 1.388 . S
C390 C391 1.366 . S
C391 C390 1.366 . S
C391 C392 1.414 . S
C391 C394 1.499 . S
C392 H372 0.950 . S
C392 C391 1.414 . S
C392 C393 1.374 . S
C393 H373 0.950 . S
C393 C389 1.385 . S
C393 C392 1.374 . S
C394 C391 1.499 . S
C394 C395 1.373 . S
C394 C396 1.389 . S
C395 H374 0.950 . S
C395 C394 1.373 . S
C395 C411 1.377 . S
C396 C394 1.389 . S
C396 C397 1.524 . S
C396 C410 1.377 . S
C397 C396 1.524 . S
C397 C398 1.397 . S
C397 C402 1.363 . S
C398 H375 0.950 . S
C398 C397 1.397 . S
C398 C399 1.334 . S
C399 H376 0.950 . S
C399 C398 1.334 . S
C399 C400 1.287 . S
C400 C399 1.287 . S
C400 C401 1.524 . S
C400 H419 0.913 . S
C401 H377 0.950 . S
C401 C400 1.524 . S
C401 C402 1.415 . S
C402 H378 0.950 . S
C402 C397 1.363 . S
C402 C401 1.415 . S
C403 H379 0.951 . S
C403 C404 1.366 . S
C403 C405 1.388 . S
C404 C403 1.366 . S
C404 C408 1.385 . S
C405 H380 0.951 . S
C405 C403 1.388 . S
C405 C406 1.366 . S
C406 C405 1.366 . S
C406 C407 1.414 . S
C406 C409 1.499 . S
C407 H381 0.950 . S
C407 C406 1.414 . S
C407 C408 1.374 . S
C408 H382 0.950 . S
C408 C404 1.385 . S
C408 C407 1.374 . S
C409 C406 1.499 . S
C409 C410 1.373 . S
C409 C411 1.389 . S
C410 H383 0.950 . S
C410 C396 1.377 . S
C410 C409 1.373 . S
C411 C395 1.377 . S
C411 C409 1.389 . S
C411 C412 1.524 . S
C412 C411 1.524 . S
C412 C413 1.397 . S
C412 C417 1.363 . S
C413 H384 0.950 . S
C413 C412 1.397 . S
C413 C414 1.334 . S
C414 H385 0.950 . S
C414 C413 1.334 . S
C414 C415 1.287 . S
C415 C414 1.287 . S
C415 C416 1.524 . S
C415 H418 0.999 . S
C416 H386 0.950 . S
C416 C415 1.524 . S
C416 C417 1.415 . S
C417 H387 0.950 . S
C417 C412 1.363 . S
C417 C416 1.415 . S
H418 C415 0.999 . S
H419 C400 0.913 . S
H420 C438 0.951 . S
H421 C440 0.951 . S
H422 C442 0.950 . S
H423 C443 0.950 . S
H424 C445 0.950 . S
H425 C448 0.950 . S
H426 C449 0.950 . S
H427 C451 0.950 . S
H428 C452 0.950 . S
H429 C453 0.951 . S
H430 C455 0.951 . S
H431 C457 0.950 . S
H432 C458 0.950 . S
H433 C460 0.950 . S
H434 C463 0.950 . S
H435 C464 0.950 . S
H436 C466 0.950 . S
H437 C467 0.950 . S
C438 H420 0.951 . S
C438 C439 1.366 . S
C438 C440 1.388 . S
C439 C438 1.366 . S
C439 C443 1.385 . S
C440 H421 0.951 . S
C440 C438 1.388 . S
C440 C441 1.366 . S
C441 C440 1.366 . S
C441 C442 1.414 . S
C441 C444 1.499 . S
C442 H422 0.950 . S
C442 C441 1.414 . S
C442 C443 1.374 . S
C443 H423 0.950 . S
C443 C439 1.385 . S
C443 C442 1.374 . S
C444 C441 1.499 . S
C444 C445 1.373 . S
C444 C446 1.389 . S
C445 H424 0.950 . S
C445 C444 1.373 . S
C445 C461 1.377 . S
C446 C444 1.389 . S
C446 C447 1.524 . S
C446 C460 1.377 . S
C447 C446 1.524 . S
C447 C448 1.397 . S
C447 C452 1.363 . S
C448 H425 0.950 . S
C448 C447 1.397 . S
C448 C449 1.334 . S
C449 H426 0.950 . S
C449 C448 1.334 . S
C449 C450 1.287 . S
C450 C449 1.287 . S
C450 C451 1.524 . S
C450 H469 0.913 . S
C451 H427 0.950 . S
C451 C450 1.524 . S
C451 C452 1.415 . S
C452 H428 0.950 . S
C452 C447 1.363 . S
C452 C451 1.415 . S
C453 H429 0.951 . S
C453 C454 1.366 . S
C453 C455 1.388 . S
C454 C453 1.366 . S
C454 C458 1.385 . S
C455 H430 0.951 . S
C455 C453 1.388 . S
C455 C456 1.366 . S
C456 C455 1.366 . S
C456 C457 1.414 . S
C456 C459 1.499 . S
C457 H431 0.950 . S
C457 C456 1.414 . S
C457 C458 1.374 . S
C458 H432 0.950 . S
C458 C454 1.385 . S
C458 C457 1.374 . S
C459 C456 1.499 . S
C459 C460 1.373 . S
C459 C461 1.389 . S
C460 H433 0.950 . S
C460 C446 1.377 . S
C460 C459 1.373 . S
C461 C445 1.377 . S
C461 C459 1.389 . S
C461 C462 1.524 . S
C462 C461 1.524 . S
C462 C463 1.397 . S
C462 C467 1.363 . S
C463 H434 0.950 . S
C463 C462 1.397 . S
C463 C464 1.334 . S
C464 H435 0.950 . S
C464 C463 1.334 . S
C464 C465 1.287 . S
C465 C464 1.287 . S
C465 C466 1.524 . S
C465 H468 0.999 . S
C466 H436 0.950 . S
C466 C465 1.524 . S
C466 C467 1.415 . S
C467 H437 0.950 . S
C467 C462 1.363 . S
C467 C466 1.415 . S
H468 C465 0.999 . S
H469 C450 0.913 . S
H470 C488 0.951 . S
H471 C490 0.951 . S
H472 C492 0.950 . S
H473 C493 0.950 . S
H474 C495 0.950 . S
H475 C498 0.950 . S
H476 C499 0.950 . S
H477 C501 0.950 . S
H478 C502 0.950 . S
H479 C503 0.951 . S
H480 C505 0.951 . S
H481 C507 0.950 . S
H482 C508 0.950 . S
H483 C510 0.950 . S
H484 C513 0.950 . S
H485 C514 0.950 . S
H486 C516 0.950 . S
H487 C517 0.950 . S
C488 H470 0.951 . S
C488 C489 1.366 . S
C488 C490 1.388 . S
C489 C488 1.366 . S
C489 C493 1.385 . S
C490 H471 0.951 . S
C490 C488 1.388 . S
C490 C491 1.366 . S
C491 C490 1.366 . S
C491 C492 1.414 . S
C491 C494 1.499 . S
C492 H472 0.950 . S
C492 C491 1.414 . S
C492 C493 1.374 . S
C493 H473 0.950 . S
C493 C489 1.385 . S
C493 C492 1.374 . S
C494 C491 1.499 . S
C494 C495 1.373 . S
C494 C496 1.389 . S
C495 H474 0.950 . S
C495 C494 1.373 . S
C495 C511 1.377 . S
C496 C494 1.389 . S
C496 C497 1.524 . S
C496 C510 1.377 . S
C497 C496 1.524 . S
C497 C498 1.397 . S
C497 C502 1.363 . S
C498 H475 0.950 . S
C498 C497 1.397 . S
C498 C499 1.334 . S
C499 H476 0.950 . S
C499 C498 1.334 . S
C499 C500 1.287 . S
C500 C499 1.287 . S
C500 C501 1.524 . S
C500 H519 0.913 . S
C501 H477 0.950 . S
C501 C500 1.524 . S
C501 C502 1.415 . S
C502 H478 0.950 . S
C502 C497 1.363 . S
C502 C501 1.415 . S
C503 H479 0.951 . S
C503 C504 1.366 . S
C503 C505 1.388 . S
C504 C503 1.366 . S
C504 C508 1.385 . S
C505 H480 0.951 . S
C505 C503 1.388 . S
C505 C506 1.366 . S
C506 C505 1.366 . S
C506 C507 1.414 . S
C506 C509 1.499 . S
C507 H481 0.950 . S
C507 C506 1.414 . S
C507 C508 1.374 . S
C508 H482 0.950 . S
C508 C504 1.385 . S
C508 C507 1.374 . S
C509 C506 1.499 . S
C509 C510 1.373 . S
C509 C511 1.389 . S
C510 H483 0.950 . S
C510 C496 1.377 . S
C510 C509 1.373 . S
C511 C495 1.377 . S
C511 C509 1.389 . S
C511 C512 1.524 . S
C512 C511 1.524 . S
C512 C513 1.397 . S
C512 C517 1.363 . S
C513 H484 0.950 . S
C513 C512 1.397 . S
C513 C514 1.334 . S
C514 H485 0.950 . S
C514 C513 1.334 . S
C514 C515 1.287 . S
C515 C514 1.287 . S
C515 C516 1.524 . S
C515 H518 0.999 . S
C516 H486 0.950 . S
C516 C515 1.524 . S
C516 C517 1.415 . S
C517 H487 0.950 . S
C517 C512 1.363 . S
C517 C516 1.415 . S
H518 C515 0.999 . S
H519 C500 0.913 . S
H520 C538 0.951 . S
H521 C540 0.951 . S
H522 C542 0.950 . S
H523 C543 0.950 . S
H524 C545 0.950 . S
H525 C548 0.950 . S
H526 C549 0.950 . S
H527 C551 0.950 . S
H528 C552 0.950 . S
H529 C553 0.951 . S
H530 C555 0.951 . S
H531 C557 0.950 . S
H532 C558 0.950 . S
H533 C560 0.950 . S
H534 C563 0.950 . S
H535 C564 0.950 . S
H536 C566 0.950 . S
H537 C567 0.950 . S
C538 H520 0.951 . S
C538 C539 1.366 . S
C538 C540 1.388 . S
C539 C538 1.366 . S
C539 C543 1.385 . S
C540 H521 0.951 . S
C540 C538 1.388 . S
C540 C541 1.366 . S
C541 C540 1.366 . S
C541 C542 1.414 . S
C541 C544 1.499 . S
C542 H522 0.950 . S
C542 C541 1.414 . S
C542 C543 1.374 . S
C543 H523 0.950 . S
C543 C539 1.385 . S
C543 C542 1.374 . S
C544 C541 1.499 . S
C544 C545 1.373 . S
C544 C546 1.389 . S
C545 H524 0.950 . S
C545 C544 1.373 . S
C545 C561 1.377 1_565 S
C546 C544 1.389 . S
C546 C547 1.524 . S
C546 C560 1.377 1_565 S
C547 C546 1.524 . S
C547 C548 1.397 . S
C547 C552 1.363 . S
C548 H525 0.950 . S
C548 C547 1.397 . S
C548 C549 1.334 . S
C549 H526 0.950 . S
C549 C548 1.334 . S
C549 C550 1.287 . S
C550 C549 1.287 . S
C550 C551 1.524 . S
C550 H569 0.913 . S
C551 H527 0.950 . S
C551 C550 1.524 . S
C551 C552 1.415 . S
C552 H528 0.950 . S
C552 C547 1.363 . S
C552 C551 1.415 . S
C553 H529 0.951 . S
C553 C554 1.366 . S
C553 C555 1.388 . S
C554 C553 1.366 . S
C554 C558 1.385 . S
C555 H530 0.951 . S
C555 C553 1.388 . S
C555 C556 1.366 . S
C556 C555 1.366 . S
C556 C557 1.414 . S
C556 C559 1.499 . S
C557 H531 0.950 . S
C557 C556 1.414 . S
C557 C558 1.374 . S
C558 H532 0.950 . S
C558 C554 1.385 . S
C558 C557 1.374 . S
C559 C556 1.499 . S
C559 C560 1.373 . S
C559 C561 1.389 . S
C560 H533 0.950 . S
C560 C546 1.377 1_545 S
C560 C559 1.373 . S
C561 C545 1.377 1_545 S
C561 C559 1.389 . S
C561 C562 1.524 . S
C562 C561 1.524 . S
C562 C563 1.397 . S
C562 C567 1.363 . S
C563 H534 0.950 . S
C563 C562 1.397 . S
C563 C564 1.334 . S
C564 H535 0.950 . S
C564 C563 1.334 . S
C564 C565 1.287 . S
C565 C564 1.287 . S
C565 C566 1.524 . S
C565 H568 0.999 . S
C566 H536 0.950 . S
C566 C565 1.524 . S
C566 C567 1.415 . S
C567 H537 0.950 . S
C567 C562 1.363 . S
C567 C566 1.415 . S
H568 C565 0.999 . S
H569 C550 0.913 . S
H570 C588 0.951 . S
H571 C590 0.951 . S
H572 C592 0.950 . S
H573 C593 0.950 . S
H574 C595 0.950 . S
H575 C598 0.950 . S
H576 C599 0.950 . S
H577 C601 0.950 . S
H578 C602 0.950 . S
H579 C603 0.951 . S
H580 C605 0.951 . S
H581 C607 0.950 . S
H582 C608 0.950 . S
H583 C610 0.950 . S
H584 C613 0.950 . S
H585 C614 0.950 . S
H586 C616 0.950 . S
H587 C617 0.950 . S
C588 H570 0.951 . S
C588 C589 1.366 . S
C588 C590 1.388 . S
C589 C588 1.366 . S
C589 C593 1.385 . S
C590 H571 0.951 . S
C590 C588 1.388 . S
C590 C591 1.366 . S
C591 C590 1.366 . S
C591 C592 1.414 . S
C591 C594 1.499 . S
C592 H572 0.950 . S
C592 C591 1.414 . S
C592 C593 1.374 . S
C593 H573 0.950 . S
C593 C589 1.385 . S
C593 C592 1.374 . S
C594 C591 1.499 . S
C594 C595 1.373 . S
C594 C596 1.389 . S
C595 H574 0.950 . S
C595 C594 1.373 . S
C595 C611 1.377 . S
C596 C594 1.389 . S
C596 C597 1.524 . S
C596 C610 1.377 . S
C597 C596 1.524 . S
C597 C598 1.397 . S
C597 C602 1.363 . S
C598 H575 0.950 . S
C598 C597 1.397 . S
C598 C599 1.334 . S
C599 H576 0.950 . S
C599 C598 1.334 . S
C599 C600 1.287 . S
C600 C599 1.287 . S
C600 C601 1.524 . S
C600 H619 0.913 . S
C601 H577 0.950 . S
C601 C600 1.524 . S
C601 C602 1.415 . S
C602 H578 0.950 . S
C602 C597 1.363 . S
C602 C601 1.415 . S
C603 H579 0.951 . S
C603 C604 1.366 . S
C603 C605 1.388 . S
C604 C603 1.366 . S
C604 C608 1.385 . S
C605 H580 0.951 . S
C605 C603 1.388 . S
C605 C606 1.366 . S
C606 C605 1.366 . S
C606 C607 1.414 . S
C606 C609 1.499 . S
C607 H581 0.950 . S
C607 C606 1.414 . S
C607 C608 1.374 . S
C608 H582 0.950 . S
C608 C604 1.385 . S
C608 C607 1.374 . S
C609 C606 1.499 . S
C609 C610 1.373 . S
C609 C611 1.389 . S
C610 H583 0.950 . S
C610 C596 1.377 . S
C610 C609 1.373 . S
C611 C595 1.377 . S
C611 C609 1.389 . S
C611 C612 1.524 . S
C612 C611 1.524 . S
C612 C613 1.397 . S
C612 C617 1.363 . S
C613 H584 0.950 . S
C613 C612 1.397 . S
C613 C614 1.334 . S
C614 H585 0.950 . S
C614 C613 1.334 . S
C614 C615 1.287 . S
C615 C614 1.287 . S
C615 C616 1.524 . S
C615 H618 0.999 . S
C616 H586 0.950 . S
C616 C615 1.524 . S
C616 C617 1.415 . S
C617 H587 0.950 . S
C617 C612 1.363 . S
C617 C616 1.415 . S
H618 C615 0.999 . S
H619 C600 0.913 . S
H620 C638 0.951 . S
H621 C640 0.951 . S
H622 C642 0.950 . S
H623 C643 0.950 . S
H624 C645 0.950 . S
H625 C648 0.950 . S
H626 C649 0.950 . S
H627 C651 0.950 . S
H628 C652 0.950 . S
H629 C653 0.951 . S
H630 C655 0.951 . S
H631 C657 0.950 . S
H632 C658 0.950 . S
H633 C660 0.950 . S
H634 C663 0.950 . S
H635 C664 0.950 . S
H636 C666 0.950 . S
H637 C667 0.950 . S
C638 H620 0.951 . S
C638 C639 1.366 . S
C638 C640 1.388 . S
C639 C638 1.366 . S
C639 C643 1.385 . S
C640 H621 0.951 . S
C640 C638 1.388 . S
C640 C641 1.366 . S
C641 C640 1.366 . S
C641 C642 1.414 . S
C641 C644 1.499 . S
C642 H622 0.950 . S
C642 C641 1.414 . S
C642 C643 1.374 . S
C643 H623 0.950 . S
C643 C639 1.385 . S
C643 C642 1.374 . S
C644 C641 1.499 . S
C644 C645 1.373 . S
C644 C646 1.389 . S
C645 H624 0.950 . S
C645 C644 1.373 . S
C645 C661 1.377 1_565 S
C646 C644 1.389 . S
C646 C647 1.524 . S
C646 C660 1.377 1_565 S
C647 C646 1.524 . S
C647 C648 1.397 . S
C647 C652 1.363 . S
C648 H625 0.950 . S
C648 C647 1.397 . S
C648 C649 1.334 . S
C649 H626 0.950 . S
C649 C648 1.334 . S
C649 C650 1.287 . S
C650 C649 1.287 . S
C650 C651 1.524 . S
C650 H669 0.913 . S
C651 H627 0.950 . S
C651 C650 1.524 . S
C651 C652 1.415 . S
C652 H628 0.950 . S
C652 C647 1.363 . S
C652 C651 1.415 . S
C653 H629 0.951 . S
C653 C654 1.366 . S
C653 C655 1.388 . S
C654 C653 1.366 . S
C654 C658 1.385 . S
C655 H630 0.951 . S
C655 C653 1.388 . S
C655 C656 1.366 . S
C656 C655 1.366 . S
C656 C657 1.414 . S
C656 C659 1.499 . S
C657 H631 0.950 . S
C657 C656 1.414 . S
C657 C658 1.374 . S
C658 H632 0.950 . S
C658 C654 1.385 . S
C658 C657 1.374 . S
C659 C656 1.499 . S
C659 C660 1.373 . S
C659 C661 1.389 . S
C660 H633 0.950 . S
C660 C646 1.377 1_545 S
C660 C659 1.373 . S
C661 C645 1.377 1_545 S
C661 C659 1.389 . S
C661 C662 1.524 . S
C662 C661 1.524 . S
C662 C663 1.397 . S
C662 C667 1.363 . S
C663 H634 0.950 . S
C663 C662 1.397 . S
C663 C664 1.334 . S
C664 H635 0.950 . S
C664 C663 1.334 . S
C664 C665 1.287 . S
C665 C664 1.287 . S
C665 C666 1.524 . S
C665 H668 0.999 . S
C666 H636 0.950 . S
C666 C665 1.524 . S
C666 C667 1.415 . S
C667 H637 0.950 . S
C667 C662 1.363 . S
C667 C666 1.415 . S
H668 C665 0.999 . S
H669 C650 0.913 . S
H670 C688 0.951 . S
H671 C690 0.951 . S
H672 C692 0.950 . S
H673 C693 0.950 . S
H674 C695 0.950 . S
H675 C698 0.950 . S
H676 C699 0.950 . S
H677 C701 0.950 . S
H678 C702 0.950 . S
H679 C703 0.951 . S
H680 C705 0.951 . S
H681 C707 0.950 . S
H682 C708 0.950 . S
H683 C710 0.950 . S
H684 C713 0.950 . S
H685 C714 0.950 . S
H686 C716 0.950 . S
H687 C717 0.950 . S
C688 H670 0.951 . S
C688 C689 1.366 . S
C688 C690 1.388 . S
C689 C688 1.366 . S
C689 C693 1.385 . S
C690 H671 0.951 . S
C690 C688 1.388 . S
C690 C691 1.366 . S
C691 C690 1.366 . S
C691 C692 1.414 . S
C691 C694 1.499 . S
C692 H672 0.950 . S
C692 C691 1.414 . S
C692 C693 1.374 . S
C693 H673 0.950 . S
C693 C689 1.385 . S
C693 C692 1.374 . S
C694 C691 1.499 . S
C694 C695 1.373 . S
C694 C696 1.389 . S
C695 H674 0.950 . S
C695 C694 1.373 . S
C695 C711 1.377 . S
C696 C694 1.389 . S
C696 C697 1.524 . S
C696 C710 1.377 . S
C697 C696 1.524 . S
C697 C698 1.397 . S
C697 C702 1.363 . S
C698 H675 0.950 . S
C698 C697 1.397 . S
C698 C699 1.334 . S
C699 H676 0.950 . S
C699 C698 1.334 . S
C699 C700 1.287 . S
C700 C699 1.287 . S
C700 C701 1.524 . S
C700 H719 0.913 . S
C701 H677 0.950 . S
C701 C700 1.524 . S
C701 C702 1.415 . S
C702 H678 0.950 . S
C702 C697 1.363 . S
C702 C701 1.415 . S
C703 H679 0.951 . S
C703 C704 1.366 . S
C703 C705 1.388 . S
C704 C703 1.366 . S
C704 C708 1.385 . S
C705 H680 0.951 . S
C705 C703 1.388 . S
C705 C706 1.366 . S
C706 C705 1.366 . S
C706 C707 1.414 . S
C706 C709 1.499 . S
C707 H681 0.950 . S
C707 C706 1.414 . S
C707 C708 1.374 . S
C708 H682 0.950 . S
C708 C704 1.385 . S
C708 C707 1.374 . S
C709 C706 1.499 . S
C709 C710 1.373 . S
C709 C711 1.389 . S
C710 H683 0.950 . S
C710 C696 1.377 . S
C710 C709 1.373 . S
C711 C695 1.377 . S
C711 C709 1.389 . S
C711 C712 1.524 . S
C712 C711 1.524 . S
C712 C713 1.397 . S
C712 C717 1.363 . S
C713 H684 0.950 . S
C713 C712 1.397 . S
C713 C714 1.334 . S
C714 H685 0.950 . S
C714 C713 1.334 . S
C714 C715 1.287 . S
C715 C714 1.287 . S
C715 C716 1.524 . S
C715 H718 0.999 . S
C716 H686 0.950 . S
C716 C715 1.524 . S
C716 C717 1.415 . S
C717 H687 0.950 . S
C717 C712 1.363 . S
C717 C716 1.415 . S
H718 C715 0.999 . S
H719 C700 0.913 . S
H720 C738 0.951 . S
H721 C740 0.951 . S
H722 C742 0.950 . S
H723 C743 0.950 . S
H724 C745 0.950 . S
H725 C748 0.950 . S
H726 C749 0.950 . S
H727 C751 0.950 1_556 S
H728 C752 0.950 . S
H729 C753 0.951 . S
H730 C755 0.951 . S
H731 C757 0.950 . S
H732 C758 0.950 . S
H733 C760 0.950 . S
H734 C763 0.950 . S
H735 C764 0.950 . S
H736 C766 0.950 1_554 S
H737 C767 0.956 . S
C738 H720 0.951 . S
C738 C739 1.366 . S
C738 C740 1.388 . S
C739 C738 1.366 . S
C739 C743 1.385 1_556 S
C740 H721 0.951 . S
C740 C738 1.388 . S
C740 C741 1.370 . S
C741 C740 1.370 . S
C741 C742 1.410 1_556 S
C741 C744 1.498 1_556 S
C742 H722 0.950 . S
C742 C741 1.410 1_554 S
C742 C743 1.374 . S
C743 H723 0.950 . S
C743 C739 1.385 1_554 S
C743 C742 1.374 . S
C744 C741 1.498 1_554 S
C744 C745 1.373 1_554 S
C744 C746 1.389 . S
C745 H724 0.950 . S
C745 C744 1.373 1_556 S
C745 C761 1.377 . S
C746 C744 1.389 . S
C746 C747 1.524 . S
C746 C760 1.377 . S
C747 C746 1.524 . S
C747 C748 1.397 . S
C747 C752 1.363 1_554 S
C748 H725 0.950 . S
C748 C747 1.397 . S
C748 C749 1.334 . S
C749 H726 0.950 . S
C749 C748 1.334 . S
C749 C750 1.287 . S
C750 C749 1.287 . S
C750 C751 1.524 . S
C750 H769 0.913 . S
C751 H727 0.950 1_554 S
C751 C750 1.524 . S
C751 C752 1.415 1_554 S
C752 H728 0.950 . S
C752 C747 1.363 1_556 S
C752 C751 1.415 1_556 S
C753 H729 0.951 . S
C753 C754 1.366 1_554 S
C753 C755 1.388 . S
C754 C753 1.366 1_556 S
C754 C758 1.385 . S
C755 H730 0.951 . S
C755 C753 1.388 . S
C755 C756 1.366 1_554 S
C756 C755 1.366 1_556 S
C756 C757 1.414 . S
C756 C759 1.499 . S
C757 H731 0.950 . S
C757 C756 1.414 . S
C757 C758 1.374 . S
C758 H732 0.950 . S
C758 C754 1.385 . S
C758 C757 1.374 . S
C759 C756 1.499 . S
C759 C760 1.373 1_556 S
C759 C761 1.389 . S
C760 H733 0.950 . S
C760 C746 1.377 . S
C760 C759 1.373 1_554 S
C761 C745 1.377 . S
C761 C759 1.389 . S
C761 C762 1.524 . S
C762 C761 1.524 . S
C762 C763 1.397 . S
C762 C767 1.359 1_556 S
C763 H734 0.950 . S
C763 C762 1.397 . S
C763 C764 1.334 . S
C764 H735 0.950 . S
C764 C763 1.334 . S
C764 C765 1.287 . S
C765 C764 1.287 . S
C765 C766 1.524 . S
C765 H768 0.999 . S
C766 H736 0.950 1_556 S
C766 C765 1.524 . S
C766 C767 1.413 1_556 S
C767 H737 0.956 . S
C767 C762 1.359 1_554 S
C767 C766 1.413 1_554 S
H768 C765 0.999 . S
H769 C750 0.913 . S
H770 C788 0.951 . S
H771 C790 0.951 . S
H772 C792 0.950 . S
H773 C793 0.950 . S
H774 C795 0.950 . S
H775 C798 0.950 . S
H776 C799 0.950 . S
H777 C801 0.950 . S
H778 C802 0.950 . S
H779 C803 0.951 . S
H780 C805 0.951 . S
H781 C807 0.950 . S
H782 C808 0.950 . S
H783 C810 0.950 . S
H784 C813 0.950 . S
H785 C814 0.950 . S
H786 C816 0.950 . S
H787 C817 0.950 . S
C788 H770 0.951 . S
C788 C789 1.366 . S
C788 C790 1.388 . S
C789 C788 1.366 . S
C789 C793 1.385 1_556 S
C790 H771 0.951 . S
C790 C788 1.388 . S
C790 C791 1.366 . S
C791 C790 1.366 . S
C791 C792 1.414 1_556 S
C791 C794 1.499 . S
C792 H772 0.950 . S
C792 C791 1.414 1_554 S
C792 C793 1.374 . S
C793 H773 0.950 . S
C793 C789 1.385 1_554 S
C793 C792 1.374 . S
C794 C791 1.499 . S
C794 C795 1.373 1_556 S
C794 C796 1.389 . S
C795 H774 0.950 . S
C795 C794 1.373 1_554 S
C795 C811 1.377 1_565 S
C796 C794 1.389 . S
C796 C797 1.524 . S
C796 C810 1.377 1_565 S
C797 C796 1.524 . S
C797 C798 1.397 . S
C797 C802 1.363 . S
C798 H775 0.950 . S
C798 C797 1.397 . S
C798 C799 1.334 . S
C799 H776 0.950 . S
C799 C798 1.334 . S
C799 C800 1.287 . S
C800 C799 1.287 . S
C800 C801 1.524 . S
C800 H819 0.913 . S
C801 H777 0.950 . S
C801 C800 1.524 . S
C801 C802 1.415 . S
C802 H778 0.950 . S
C802 C797 1.363 . S
C802 C801 1.415 . S
C803 H779 0.951 . S
C803 C804 1.366 1_554 S
C803 C805 1.388 . S
C804 C803 1.366 1_556 S
C804 C808 1.385 . S
C805 H780 0.951 . S
C805 C803 1.388 . S
C805 C806 1.365 1_554 S
C806 C805 1.365 1_556 S
C806 C807 1.415 . S
C806 C809 1.499 . S
C807 H781 0.950 . S
C807 C806 1.415 . S
C807 C808 1.374 . S
C808 H782 0.950 . S
C808 C804 1.385 . S
C808 C807 1.374 . S
C809 C806 1.499 . S
C809 C810 1.385 . S
C809 C811 1.378 1_556 S
C810 H783 0.950 . S
C810 C796 1.377 1_545 S
C810 C809 1.385 . S
C811 C795 1.377 1_545 S
C811 C809 1.378 1_554 S
C811 C812 1.524 . S
C812 C811 1.524 . S
C812 C813 1.397 . S
C812 C817 1.363 . S
C813 H784 0.950 . S
C813 C812 1.397 . S
C813 C814 1.334 . S
C814 H785 0.950 . S
C814 C813 1.334 . S
C814 C815 1.287 . S
C815 C814 1.287 . S
C815 C816 1.524 . S
C815 H818 0.999 . S
C816 H786 0.950 . S
C816 C815 1.524 . S
C816 C817 1.415 . S
C817 H787 0.950 . S
C817 C812 1.363 . S
C817 C816 1.415 . S
H818 C815 0.999 . S
H819 C800 0.913 . S
H820 C838 0.951 . S
H821 C840 0.951 . S
H822 C842 0.950 . S
H823 C843 0.950 . S
H824 C845 0.950 . S
H825 C848 0.950 . S
H826 C849 0.950 . S
H827 C851 0.950 . S
H828 C852 0.950 . S
H829 C853 0.951 . S
H830 C855 0.951 . S
H831 C857 0.950 . S
H832 C858 0.950 . S
H833 C860 0.950 . S
H834 C863 0.950 . S
H835 C864 0.950 . S
H836 C866 0.950 . S
H837 C867 0.950 . S
C838 H820 0.951 . S
C838 C839 1.366 . S
C838 C840 1.388 . S
C839 C838 1.366 . S
C839 C843 1.385 1_554 S
C840 H821 0.951 . S
C840 C838 1.388 . S
C840 C841 1.366 . S
C841 C840 1.366 . S
C841 C842 1.414 1_554 S
C841 C844 1.499 . S
C842 H822 0.950 . S
C842 C841 1.414 1_556 S
C842 C843 1.374 . S
C843 H823 0.950 . S
C843 C839 1.385 1_556 S
C843 C842 1.374 . S
C844 C841 1.499 . S
C844 C845 1.373 1_554 S
C844 C846 1.389 . S
C845 H824 0.950 . S
C845 C844 1.373 1_556 S
C845 C861 1.377 . S
C846 C844 1.389 . S
C846 C847 1.524 . S
C846 C860 1.377 . S
C847 C846 1.524 . S
C847 C848 1.397 . S
C847 C852 1.363 . S
C848 H825 0.950 . S
C848 C847 1.397 . S
C848 C849 1.334 . S
C849 H826 0.950 . S
C849 C848 1.334 . S
C849 C850 1.287 . S
C850 C849 1.287 . S
C850 C851 1.524 . S
C850 H869 0.913 . S
C851 H827 0.950 . S
C851 C850 1.524 . S
C851 C852 1.415 . S
C852 H828 0.950 . S
C852 C847 1.363 . S
C852 C851 1.415 . S
C853 H829 0.951 . S
C853 C854 1.366 1_556 S
C853 C855 1.388 . S
C854 C853 1.366 1_554 S
C854 C858 1.385 . S
C855 H830 0.951 . S
C855 C853 1.388 . S
C855 C856 1.366 1_556 S
C856 C855 1.366 1_554 S
C856 C857 1.414 . S
C856 C859 1.499 . S
C857 H831 0.950 . S
C857 C856 1.414 . S
C857 C858 1.374 . S
C858 H832 0.950 . S
C858 C854 1.385 . S
C858 C857 1.374 . S
C859 C856 1.499 . S
C859 C860 1.373 . S
C859 C861 1.389 1_554 S
C860 H833 0.950 . S
C860 C846 1.377 . S
C860 C859 1.373 . S
C861 C845 1.377 . S
C861 C859 1.389 1_556 S
C861 C862 1.524 . S
C862 C861 1.524 . S
C862 C863 1.397 . S
C862 C867 1.363 . S
C863 H834 0.950 . S
C863 C862 1.397 . S
C863 C864 1.334 . S
C864 H835 0.950 . S
C864 C863 1.334 . S
C864 C865 1.287 . S
C865 C864 1.287 . S
C865 C866 1.524 . S
C865 H868 0.999 . S
C866 H836 0.950 . S
C866 C865 1.524 . S
C866 C867 1.415 . S
C867 H837 0.950 . S
C867 C862 1.363 . S
C867 C866 1.415 . S
H868 C865 0.999 . S
H869 C850 0.913 . S
H870 C888 0.951 . S
H871 C890 0.951 . S
H872 C892 0.950 . S
H873 C893 0.950 . S
H874 C895 0.950 . S
H875 C898 0.950 . S
H876 C899 0.950 . S
H877 C901 0.950 . S
H878 C902 0.950 . S
H879 C903 0.951 . S
H880 C905 0.951 . S
H881 C907 0.950 . S
H882 C908 0.950 . S
H883 C910 0.950 . S
H884 C913 0.950 . S
H885 C914 0.950 . S
H886 C916 0.950 . S
H887 C917 0.950 . S
C888 H870 0.951 . S
C888 C889 1.366 1_556 S
C888 C890 1.388 . S
C889 C888 1.366 1_554 S
C889 C893 1.385 . S
C890 H871 0.951 . S
C890 C888 1.388 . S
C890 C891 1.366 1_556 S
C891 C890 1.366 1_554 S
C891 C892 1.414 . S
C891 C894 1.499 . S
C892 H872 0.950 . S
C892 C891 1.414 . S
C892 C893 1.374 . S
C893 H873 0.950 . S
C893 C889 1.385 . S
C893 C892 1.374 . S
C894 C891 1.499 . S
C894 C895 1.373 . S
C894 C896 1.389 . S
C895 H874 0.950 . S
C895 C894 1.373 . S
C895 C911 1.377 1_545 S
C896 C894 1.389 . S
C896 C897 1.524 . S
C896 C910 1.377 1_544 S
C897 C896 1.524 . S
C897 C898 1.397 . S
C897 C902 1.363 1_554 S
C898 H875 0.950 . S
C898 C897 1.397 . S
C898 C899 1.334 . S
C899 H876 0.950 . S
C899 C898 1.334 . S
C899 C900 1.287 . S
C900 C899 1.287 . S
C900 C901 1.524 1_554 S
C900 H919 0.913 . S
C901 H877 0.950 . S
C901 C900 1.524 1_556 S
C901 C902 1.415 . S
C902 H878 0.950 . S
C902 C897 1.363 1_556 S
C902 C901 1.415 . S
C903 H879 0.951 . S
C903 C904 1.366 . S
C903 C905 1.388 . S
C904 C903 1.366 . S
C904 C908 1.385 1_554 S
C905 H880 0.951 . S
C905 C903 1.388 . S
C905 C906 1.378 . S
C906 C905 1.378 . S
C906 C907 1.402 1_554 S
C906 C909 1.498 1_554 S
C907 H881 0.950 . S
C907 C906 1.402 1_556 S
C907 C908 1.374 . S
C908 H882 0.950 . S
C908 C904 1.385 1_556 S
C908 C907 1.374 . S
C909 C906 1.498 1_556 S
C909 C910 1.374 . S
C909 C911 1.388 1_556 S
C910 H883 0.950 . S
C910 C896 1.377 1_566 S
C910 C909 1.374 . S
C911 C895 1.377 1_565 S
C911 C909 1.388 1_554 S
C911 C912 1.525 . S
C912 C911 1.525 . S
C912 C913 1.395 1_554 S
C912 C917 1.364 . S
C913 H884 0.950 . S
C913 C912 1.395 1_556 S
C913 C914 1.334 . S
C914 H885 0.950 . S
C914 C913 1.334 . S
C914 C915 1.287 . S
C915 C914 1.287 . S
C915 C916 1.524 1_556 S
C915 H918 0.999 . S
C916 H886 0.950 . S
C916 C915 1.524 1_554 S
C916 C917 1.415 . S
C917 H887 0.950 . S
C917 C912 1.364 . S
C917 C916 1.415 . S
H918 C915 0.999 . S
H919 C900 0.913 . S
H920 C938 0.951 . S
H921 C940 0.951 . S
H922 C942 0.950 . S
H923 C943 0.950 . S
H924 C945 0.959 . S
H925 C948 0.950 . S
H926 C949 0.950 . S
H927 C951 0.950 . S
H928 C952 0.950 . S
H929 C953 0.951 . S
H930 C955 0.951 . S
H931 C957 0.950 . S
H932 C958 0.950 . S
H933 C960 0.950 . S
H934 C963 0.950 . S
H935 C964 0.950 . S
H936 C966 0.950 . S
H937 C967 0.950 . S
C938 H920 0.951 . S
C938 C939 1.366 . S
C938 C940 1.388 . S
C939 C938 1.366 . S
C939 C943 1.385 . S
C940 H921 0.951 . S
C940 C938 1.388 . S
C940 C941 1.366 . S
C941 C940 1.366 . S
C941 C942 1.414 . S
C941 C944 1.499 . S
C942 H922 0.950 . S
C942 C941 1.414 . S
C942 C943 1.374 . S
C943 H923 0.950 . S
C943 C939 1.385 . S
C943 C942 1.374 . S
C944 C941 1.499 . S
C944 C945 1.373 1_554 S
C944 C946 1.389 1_554 S
C945 H924 0.959 . S
C945 C944 1.373 1_556 S
C945 C961 1.377 . S
C946 C944 1.389 1_556 S
C946 C947 1.524 1_556 S
C946 C960 1.377 . S
C947 C946 1.524 1_554 S
C947 C948 1.397 . S
C947 C952 1.363 1_554 S
C948 H925 0.950 . S
C948 C947 1.397 . S
C948 C949 1.334 . S
C949 H926 0.950 . S
C949 C948 1.334 . S
C949 C950 1.287 . S
C950 C949 1.287 . S
C950 C951 1.524 . S
C950 H969 0.913 . S
C951 H927 0.950 . S
C951 C950 1.524 . S
C951 C952 1.415 1_554 S
C952 H928 0.950 . S
C952 C947 1.363 1_556 S
C952 C951 1.415 1_556 S
C953 H929 0.951 . S
C953 C954 1.366 . S
C953 C955 1.388 . S
C954 C953 1.366 . S
C954 C958 1.385 . S
C955 H930 0.951 . S
C955 C953 1.388 . S
C955 C956 1.366 . S
C956 C955 1.366 . S
C956 C957 1.414 . S
C956 C959 1.499 . S
C957 H931 0.950 . S
C957 C956 1.414 . S
C957 C958 1.374 . S
C958 H932 0.950 . S
C958 C954 1.385 . S
C958 C957 1.374 . S
C959 C956 1.499 . S
C959 C960 1.373 . S
C959 C961 1.389 . S
C960 H933 0.950 . S
C960 C946 1.377 . S
C960 C959 1.373 . S
C961 C945 1.377 . S
C961 C959 1.389 . S
C961 C962 1.524 . S
C962 C961 1.524 . S
C962 C963 1.397 . S
C962 C967 1.363 . S
C963 H934 0.950 . S
C963 C962 1.397 . S
C963 C964 1.334 . S
C964 H935 0.950 . S
C964 C963 1.334 . S
C964 C965 1.287 . S
C965 C964 1.287 . S
C965 C966 1.524 . S
C965 H968 0.999 . S
C966 H936 0.950 . S
C966 C965 1.524 . S
C966 C967 1.415 . S
C967 H937 0.950 . S
C967 C962 1.363 . S
C967 C966 1.415 . S
H968 C965 0.999 . S
H969 C950 0.913 . S
H970 C988 0.951 . S
H971 C990 0.951 . S
H972 C992 0.950 . S
H973 C993 0.950 . S
H974 C995 0.950 1_554 S
H975 C998 0.950 . S
H976 C999 0.950 . S
H977 C1001 0.948 1_556 S
H978 C1002 0.950 . S
H979 C1003 0.951 . S
H980 C1005 0.951 . S
H981 C1007 0.950 . S
H982 C1008 0.950 . S
H983 C1010 0.950 . S
H984 C1013 0.950 . S
H985 C1014 0.950 . S
H986 C1016 0.950 . S
H987 C1017 0.950 . S
C988 H970 0.951 . S
C988 C989 1.366 . S
C988 C990 1.388 . S
C989 C988 1.366 . S
C989 C993 1.385 . S
C990 H971 0.951 . S
C990 C988 1.388 . S
C990 C991 1.366 . S
C991 C990 1.366 . S
C991 C992 1.414 . S
C991 C994 1.499 . S
C992 H972 0.950 . S
C992 C991 1.414 . S
C992 C993 1.374 . S
C993 H973 0.950 . S
C993 C989 1.385 . S
C993 C992 1.374 . S
C994 C991 1.499 . S
C994 C995 1.373 1_554 S
C994 C996 1.389 1_554 S
C995 H974 0.950 1_556 S
C995 C994 1.373 1_556 S
C995 C1011 1.377 . S
C996 C994 1.389 1_556 S
C996 C997 1.528 . S
C996 C1010 1.377 . S
C997 C996 1.528 . S
C997 C998 1.391 1_556 S
C997 C1002 1.366 . S
C998 H975 0.950 . S
C998 C997 1.391 1_554 S
C998 C999 1.334 . S
C999 H976 0.950 . S
C999 C998 1.334 . S
C999 C1000 1.287 . S
C1000 C999 1.287 . S
C1000 C1001 1.529 . S
C1000 H1019 0.913 . S
C1001 H977 0.948 1_554 S
C1001 C1000 1.529 . S
C1001 C1002 1.412 1_554 S
C1002 H978 0.950 . S
C1002 C997 1.366 . S
C1002 C1001 1.412 1_556 S
C1003 H979 0.951 . S
C1003 C1004 1.366 . S
C1003 C1005 1.388 . S
C1004 C1003 1.366 . S
C1004 C1008 1.385 . S
C1005 H980 0.951 . S
C1005 C1003 1.388 . S
C1005 C1006 1.366 . S
C1006 C1005 1.366 . S
C1006 C1007 1.414 . S
C1006 C1009 1.499 . S
C1007 H981 0.950 . S
C1007 C1006 1.414 . S
C1007 C1008 1.374 . S
C1008 H982 0.950 . S
C1008 C1004 1.385 . S
C1008 C1007 1.374 . S
C1009 C1006 1.499 . S
C1009 C1010 1.373 . S
C1009 C1011 1.389 . S
C1010 H983 0.950 . S
C1010 C996 1.377 . S
C1010 C1009 1.373 . S
C1011 C995 1.377 . S
C1011 C1009 1.389 . S
C1011 C1012 1.524 . S
C1012 C1011 1.524 . S
C1012 C1013 1.397 . S
C1012 C1017 1.363 . S
C1013 H984 0.950 . S
C1013 C1012 1.397 . S
C1013 C1014 1.334 . S
C1014 H985 0.950 . S
C1014 C1013 1.334 . S
C1014 C1015 1.287 . S
C1015 C1014 1.287 . S
C1015 C1016 1.524 . S
C1015 H1018 0.999 . S
C1016 H986 0.950 . S
C1016 C1015 1.524 . S
C1016 C1017 1.415 . S
C1017 H987 0.950 . S
C1017 C1012 1.363 . S
C1017 C1016 1.415 . S
H1018 C1015 0.999 . S
H1019 C1000 0.913 . S
H1020 C1038 0.951 . S
H1021 C1040 0.951 . S
H1022 C1042 0.950 . S
H1023 C1043 0.950 . S
H1024 C1045 0.950 . S
H1025 C1048 0.950 . S
H1026 C1049 0.950 . S
H1027 C1051 0.950 . S
H1028 C1052 0.950 . S
H1029 C1053 0.951 . S
H1030 C1055 0.951 . S
H1031 C1057 0.950 . S
H1032 C1058 0.950 . S
H1033 C1060 0.950 . S
H1034 C1063 0.950 . S
H1035 C1064 0.950 . S
H1036 C1066 0.950 . S
H1037 C1067 0.950 1_554 S
C1038 H1020 0.951 . S
C1038 C1039 1.366 . S
C1038 C1040 1.388 . S
C1039 C1038 1.366 . S
C1039 C1043 1.385 . S
C1040 H1021 0.951 . S
C1040 C1038 1.388 . S
C1040 C1041 1.366 . S
C1041 C1040 1.366 . S
C1041 C1042 1.414 . S
C1041 C1044 1.499 . S
C1042 H1022 0.950 . S
C1042 C1041 1.414 . S
C1042 C1043 1.374 . S
C1043 H1023 0.950 . S
C1043 C1039 1.385 . S
C1043 C1042 1.374 . S
C1044 C1041 1.499 . S
C1044 C1045 1.373 . S
C1044 C1046 1.389 . S
C1045 H1024 0.950 . S
C1045 C1044 1.373 . S
C1045 C1061 1.377 . S
C1046 C1044 1.389 . S
C1046 C1047 1.524 . S
C1046 C1060 1.377 . S
C1047 C1046 1.524 . S
C1047 C1048 1.397 . S
C1047 C1052 1.363 . S
C1048 H1025 0.950 . S
C1048 C1047 1.397 . S
C1048 C1049 1.334 . S
C1049 H1026 0.950 . S
C1049 C1048 1.334 . S
C1049 C1050 1.287 . S
C1050 C1049 1.287 . S
C1050 C1051 1.524 . S
C1050 H1069 0.913 . S
C1051 H1027 0.950 . S
C1051 C1050 1.524 . S
C1051 C1052 1.415 . S
C1052 H1028 0.950 . S
C1052 C1047 1.363 . S
C1052 C1051 1.415 . S
C1053 H1029 0.951 . S
C1053 C1054 1.366 . S
C1053 C1055 1.388 . S
C1054 C1053 1.366 . S
C1054 C1058 1.385 . S
C1055 H1030 0.951 . S
C1055 C1053 1.388 . S
C1055 C1056 1.366 . S
C1056 C1055 1.366 . S
C1056 C1057 1.414 . S
C1056 C1059 1.499 . S
C1057 H1031 0.950 . S
C1057 C1056 1.414 . S
C1057 C1058 1.374 . S
C1058 H1032 0.950 . S
C1058 C1054 1.385 . S
C1058 C1057 1.374 . S
C1059 C1056 1.499 . S
C1059 C1060 1.373 1_556 S
C1059 C1061 1.389 1_556 S
C1060 H1033 0.950 . S
C1060 C1046 1.377 . S
C1060 C1059 1.373 1_554 S
C1061 C1045 1.377 . S
C1061 C1059 1.389 1_554 S
C1061 C1062 1.524 1_554 S
C1062 C1061 1.524 1_556 S
C1062 C1063 1.397 . S
C1062 C1067 1.363 . S
C1063 H1034 0.950 . S
C1063 C1062 1.397 . S
C1063 C1064 1.334 . S
C1064 H1035 0.950 . S
C1064 C1063 1.334 . S
C1064 C1065 1.287 . S
C1065 C1064 1.287 . S
C1065 C1066 1.524 . S
C1065 H1068 0.999 . S
C1066 H1036 0.950 . S
C1066 C1065 1.524 . S
C1066 C1067 1.415 . S
C1067 H1037 0.950 1_556 S
C1067 C1062 1.363 . S
C1067 C1066 1.415 . S
H1068 C1065 0.999 . S
H1069 C1050 0.913 . S
H1070 C1088 0.951 . S
H1071 C1090 0.951 . S
H1072 C1092 0.950 . S
H1073 C1093 0.950 . S
H1074 C1095 0.950 1_556 S
H1075 C1098 0.950 . S
H1076 C1099 0.950 . S
H1077 C1101 0.950 . S
H1078 C1102 0.950 . S
H1079 C1103 0.951 . S
H1080 C1105 0.951 . S
H1081 C1107 0.950 . S
H1082 C1108 0.950 . S
H1083 C1110 0.950 . S
H1084 C1113 0.950 . S
H1085 C1114 0.950 . S
H1086 C1116 0.950 . S
H1087 C1117 0.950 . S
C1088 H1070 0.951 . S
C1088 C1089 1.366 . S
C1088 C1090 1.388 . S
C1089 C1088 1.366 . S
C1089 C1093 1.385 . S
C1090 H1071 0.951 . S
C1090 C1088 1.388 . S
C1090 C1091 1.366 . S
C1091 C1090 1.366 . S
C1091 C1092 1.414 . S
C1091 C1094 1.499 . S
C1092 H1072 0.950 . S
C1092 C1091 1.414 . S
C1092 C1093 1.374 . S
C1093 H1073 0.950 . S
C1093 C1089 1.385 . S
C1093 C1092 1.374 . S
C1094 C1091 1.499 . S
C1094 C1095 1.373 1_556 S
C1094 C1096 1.389 1_556 S
C1095 H1074 0.950 1_554 S
C1095 C1094 1.373 1_554 S
C1095 C1111 1.377 . S
C1096 C1094 1.389 1_554 S
C1096 C1097 1.524 . S
C1096 C1110 1.377 . S
C1097 C1096 1.524 . S
C1097 C1098 1.397 1_554 S
C1097 C1102 1.363 . S
C1098 H1075 0.950 . S
C1098 C1097 1.397 1_556 S
C1098 C1099 1.334 . S
C1099 H1076 0.950 . S
C1099 C1098 1.334 . S
C1099 C1100 1.287 . S
C1100 C1099 1.287 . S
C1100 C1101 1.524 1_556 S
C1100 H1119 0.913 . S
C1101 H1077 0.950 . S
C1101 C1100 1.524 1_554 S
C1101 C1102 1.415 . S
C1102 H1078 0.950 . S
C1102 C1097 1.363 . S
C1102 C1101 1.415 . S
C1103 H1079 0.951 . S
C1103 C1104 1.366 . S
C1103 C1105 1.388 . S
C1104 C1103 1.366 . S
C1104 C1108 1.385 . S
C1105 H1080 0.951 . S
C1105 C1103 1.388 . S
C1105 C1106 1.366 . S
C1106 C1105 1.366 . S
C1106 C1107 1.414 . S
C1106 C1109 1.499 . S
C1107 H1081 0.950 . S
C1107 C1106 1.414 . S
C1107 C1108 1.374 . S
C1108 H1082 0.950 . S
C1108 C1104 1.385 . S
C1108 C1107 1.374 . S
C1109 C1106 1.499 . S
C1109 C1110 1.373 . S
C1109 C1111 1.389 . S
C1110 H1083 0.950 . S
C1110 C1096 1.377 . S
C1110 C1109 1.373 . S
C1111 C1095 1.377 . S
C1111 C1109 1.389 . S
C1111 C1112 1.524 . S
C1112 C1111 1.524 . S
C1112 C1113 1.397 . S
C1112 C1117 1.363 . S
C1113 H1084 0.950 . S
C1113 C1112 1.397 . S
C1113 C1114 1.334 . S
C1114 H1085 0.950 . S
C1114 C1113 1.334 . S
C1114 C1115 1.287 . S
C1115 C1114 1.287 . S
C1115 C1116 1.524 . S
C1115 H1118 0.999 . S
C1116 H1086 0.950 . S
C1116 C1115 1.524 . S
C1116 C1117 1.415 . S
C1117 H1087 0.950 . S
C1117 C1112 1.363 . S
C1117 C1116 1.415 . S
H1118 C1115 0.999 . S
H1119 C1100 0.913 . S
H1120 C1138 0.951 . S
H1121 C1140 0.951 . S
H1122 C1142 0.950 . S
H1123 C1143 0.950 . S
H1124 C1145 0.950 . S
H1125 C1148 0.950 . S
H1126 C1149 0.950 . S
H1127 C1151 0.950 . S
H1128 C1152 0.950 . S
H1129 C1153 0.951 . S
H1130 C1155 0.951 . S
H1131 C1157 0.950 . S
H1132 C1158 0.950 . S
H1133 C1160 0.950 . S
H1134 C1163 0.950 . S
H1135 C1164 0.950 . S
H1136 C1166 0.950 . S
H1137 C1167 0.950 . S
C1138 H1120 0.951 . S
C1138 C1139 1.366 . S
C1138 C1140 1.388 . S
C1139 C1138 1.366 . S
C1139 C1143 1.385 . S
C1140 H1121 0.951 . S
C1140 C1138 1.388 . S
C1140 C1141 1.366 . S
C1141 C1140 1.366 . S
C1141 C1142 1.414 . S
C1141 C1144 1.499 . S
C1142 H1122 0.950 . S
C1142 C1141 1.414 . S
C1142 C1143 1.374 . S
C1143 H1123 0.950 . S
C1143 C1139 1.385 . S
C1143 C1142 1.374 . S
C1144 C1141 1.499 . S
C1144 C1145 1.373 . S
C1144 C1146 1.389 . S
C1145 H1124 0.950 . S
C1145 C1144 1.373 . S
C1145 C1161 1.377 . S
C1146 C1144 1.389 . S
C1146 C1147 1.524 . S
C1146 C1160 1.377 . S
C1147 C1146 1.524 . S
C1147 C1148 1.397 . S
C1147 C1152 1.363 . S
C1148 H1125 0.950 . S
C1148 C1147 1.397 . S
C1148 C1149 1.334 . S
C1149 H1126 0.950 . S
C1149 C1148 1.334 . S
C1149 C1150 1.287 . S
C1150 C1149 1.287 . S
C1150 C1151 1.524 . S
C1150 H1169 0.913 . S
C1151 H1127 0.950 . S
C1151 C1150 1.524 . S
C1151 C1152 1.415 . S
C1152 H1128 0.950 . S
C1152 C1147 1.363 . S
C1152 C1151 1.415 . S
C1153 H1129 0.951 . S
C1153 C1154 1.366 . S
C1153 C1155 1.388 . S
C1154 C1153 1.366 . S
C1154 C1158 1.385 . S
C1155 H1130 0.951 . S
C1155 C1153 1.388 . S
C1155 C1156 1.366 . S
C1156 C1155 1.366 . S
C1156 C1157 1.414 . S
C1156 C1159 1.499 . S
C1157 H1131 0.950 . S
C1157 C1156 1.414 . S
C1157 C1158 1.374 . S
C1158 H1132 0.950 . S
C1158 C1154 1.385 . S
C1158 C1157 1.374 . S
C1159 C1156 1.499 . S
C1159 C1160 1.373 . S
C1159 C1161 1.389 . S
C1160 H1133 0.950 . S
C1160 C1146 1.377 . S
C1160 C1159 1.373 . S
C1161 C1145 1.377 . S
C1161 C1159 1.389 . S
C1161 C1162 1.524 . S
C1162 C1161 1.524 . S
C1162 C1163 1.397 . S
C1162 C1167 1.363 . S
C1163 H1134 0.950 . S
C1163 C1162 1.397 . S
C1163 C1164 1.334 . S
C1164 H1135 0.950 . S
C1164 C1163 1.334 . S
C1164 C1165 1.287 . S
C1165 C1164 1.287 . S
C1165 C1166 1.524 . S
C1165 H1168 0.999 . S
C1166 H1136 0.950 . S
C1166 C1165 1.524 . S
C1166 C1167 1.415 . S
C1167 H1137 0.950 . S
C1167 C1162 1.363 . S
C1167 C1166 1.415 . S
H1168 C1165 0.999 . S
H1169 C1150 0.913 . S
H1170 C1188 0.951 . S
H1171 C1190 0.951 . S
H1172 C1192 0.950 . S
H1173 C1193 0.950 . S
H1174 C1195 0.950 . S
H1175 C1198 0.950 . S
H1176 C1199 0.950 . S
H1177 C1201 0.950 . S
H1178 C1202 0.950 . S
H1179 C1203 0.951 . S
H1180 C1205 0.951 . S
H1181 C1207 0.950 . S
H1182 C1208 0.950 . S
H1183 C1210 0.950 . S
H1184 C1213 0.950 . S
H1185 C1214 0.950 . S
H1186 C1216 0.950 . S
H1187 C1217 0.950 . S
C1188 H1170 0.951 . S
C1188 C1189 1.366 . S
C1188 C1190 1.388 . S
C1189 C1188 1.366 . S
C1189 C1193 1.385 . S
C1190 H1171 0.951 . S
C1190 C1188 1.388 . S
C1190 C1191 1.366 . S
C1191 C1190 1.366 . S
C1191 C1192 1.414 . S
C1191 C1194 1.499 . S
C1192 H1172 0.950 . S
C1192 C1191 1.414 . S
C1192 C1193 1.374 . S
C1193 H1173 0.950 . S
C1193 C1189 1.385 . S
C1193 C1192 1.374 . S
C1194 C1191 1.499 . S
C1194 C1195 1.373 . S
C1194 C1196 1.389 . S
C1195 H1174 0.950 . S
C1195 C1194 1.373 . S
C1195 C1211 1.377 . S
C1196 C1194 1.389 . S
C1196 C1197 1.524 . S
C1196 C1210 1.377 . S
C1197 C1196 1.524 . S
C1197 C1198 1.397 . S
C1197 C1202 1.363 . S
C1198 H1175 0.950 . S
C1198 C1197 1.397 . S
C1198 C1199 1.334 . S
C1199 H1176 0.950 . S
C1199 C1198 1.334 . S
C1199 C1200 1.287 . S
C1200 C1199 1.287 . S
C1200 C1201 1.524 . S
C1200 H1219 0.913 . S
C1201 H1177 0.950 . S
C1201 C1200 1.524 . S
C1201 C1202 1.415 . S
C1202 H1178 0.950 . S
C1202 C1197 1.363 . S
C1202 C1201 1.415 . S
C1203 H1179 0.951 . S
C1203 C1204 1.366 . S
C1203 C1205 1.388 . S
C1204 C1203 1.366 . S
C1204 C1208 1.385 . S
C1205 H1180 0.951 . S
C1205 C1203 1.388 . S
C1205 C1206 1.366 . S
C1206 C1205 1.366 . S
C1206 C1207 1.414 . S
C1206 C1209 1.499 . S
C1207 H1181 0.950 . S
C1207 C1206 1.414 . S
C1207 C1208 1.374 . S
C1208 H1182 0.950 . S
C1208 C1204 1.385 . S
C1208 C1207 1.374 . S
C1209 C1206 1.499 . S
C1209 C1210 1.373 . S
C1209 C1211 1.389 . S
C1210 H1183 0.950 . S
C1210 C1196 1.377 . S
C1210 C1209 1.373 . S
C1211 C1195 1.377 . S
C1211 C1209 1.389 . S
C1211 C1212 1.524 . S
C1212 C1211 1.524 . S
C1212 C1213 1.397 . S
C1212 C1217 1.363 . S
C1213 H1184 0.950 . S
C1213 C1212 1.397 . S
C1213 C1214 1.334 . S
C1214 H1185 0.950 . S
C1214 C1213 1.334 . S
C1214 C1215 1.287 . S
C1215 C1214 1.287 . S
C1215 C1216 1.524 . S
C1215 H1218 0.999 . S
C1216 H1186 0.950 . S
C1216 C1215 1.524 . S
C1216 C1217 1.415 . S
C1217 H1187 0.950 . S
C1217 C1212 1.363 . S
C1217 C1216 1.415 . S
H1218 C1215 0.999 . S
H1219 C1200 0.913 . S
H1220 C1238 0.951 . S
H1221 C1240 0.951 . S
H1222 C1242 0.950 . S
H1223 C1243 0.950 . S
H1224 C1245 0.950 . S
H1225 C1248 0.950 . S
H1226 C1249 0.950 . S
H1227 C1251 0.950 . S
H1228 C1252 0.950 . S
H1229 C1253 0.951 . S
H1230 C1255 0.951 . S
H1231 C1257 0.950 . S
H1232 C1258 0.950 . S
H1233 C1260 0.950 . S
H1234 C1263 0.950 . S
H1235 C1264 0.950 . S
H1236 C1266 0.950 . S
H1237 C1267 0.950 . S
C1238 H1220 0.951 . S
C1238 C1239 1.366 . S
C1238 C1240 1.388 . S
C1239 C1238 1.366 . S
C1239 C1243 1.385 . S
C1240 H1221 0.951 . S
C1240 C1238 1.388 . S
C1240 C1241 1.366 . S
C1241 C1240 1.366 . S
C1241 C1242 1.414 . S
C1241 C1244 1.499 . S
C1242 H1222 0.950 . S
C1242 C1241 1.414 . S
C1242 C1243 1.374 . S
C1243 H1223 0.950 . S
C1243 C1239 1.385 . S
C1243 C1242 1.374 . S
C1244 C1241 1.499 . S
C1244 C1245 1.373 . S
C1244 C1246 1.389 . S
C1245 H1224 0.950 . S
C1245 C1244 1.373 . S
C1245 C1261 1.377 . S
C1246 C1244 1.389 . S
C1246 C1247 1.524 . S
C1246 C1260 1.377 . S
C1247 C1246 1.524 . S
C1247 C1248 1.397 . S
C1247 C1252 1.363 . S
C1248 H1225 0.950 . S
C1248 C1247 1.397 . S
C1248 C1249 1.334 . S
C1249 H1226 0.950 . S
C1249 C1248 1.334 . S
C1249 C1250 1.287 . S
C1250 C1249 1.287 . S
C1250 C1251 1.524 . S
C1250 H1269 0.913 . S
C1251 H1227 0.950 . S
C1251 C1250 1.524 . S
C1251 C1252 1.415 . S
C1252 H1228 0.950 . S
C1252 C1247 1.363 . S
C1252 C1251 1.415 . S
C1253 H1229 0.951 . S
C1253 C1254 1.366 . S
C1253 C1255 1.388 . S
C1254 C1253 1.366 . S
C1254 C1258 1.385 . S
C1255 H1230 0.951 . S
C1255 C1253 1.388 . S
C1255 C1256 1.366 . S
C1256 C1255 1.366 . S
C1256 C1257 1.414 . S
C1256 C1259 1.499 . S
C1257 H1231 0.950 . S
C1257 C1256 1.414 . S
C1257 C1258 1.374 . S
C1258 H1232 0.950 . S
C1258 C1254 1.385 . S
C1258 C1257 1.374 . S
C1259 C1256 1.499 . S
C1259 C1260 1.373 . S
C1259 C1261 1.389 . S
C1260 H1233 0.950 . S
C1260 C1246 1.377 . S
C1260 C1259 1.373 . S
C1261 C1245 1.377 . S
C1261 C1259 1.389 . S
C1261 C1262 1.524 . S
C1262 C1261 1.524 . S
C1262 C1263 1.397 . S
C1262 C1267 1.363 . S
C1263 H1234 0.950 . S
C1263 C1262 1.397 . S
C1263 C1264 1.334 . S
C1264 H1235 0.950 . S
C1264 C1263 1.334 . S
C1264 C1265 1.287 . S
C1265 C1264 1.287 . S
C1265 C1266 1.524 . S
C1265 H1268 0.999 . S
C1266 H1236 0.950 . S
C1266 C1265 1.524 . S
C1266 C1267 1.415 . S
C1267 H1237 0.950 . S
C1267 C1262 1.363 . S
C1267 C1266 1.415 . S
H1268 C1265 0.999 . S
H1269 C1250 0.913 . S
H1270 C1288 0.951 . S
H1271 C1290 0.951 . S
H1272 C1292 0.950 . S
H1273 C1293 0.950 . S
H1274 C1295 0.950 . S
H1275 C1298 0.950 . S
H1276 C1299 0.950 . S
H1277 C1301 0.950 . S
H1278 C1302 0.950 . S
H1279 C1303 0.951 . S
H1280 C1305 0.951 . S
H1281 C1307 0.950 . S
H1282 C1308 0.950 . S
H1283 C1310 0.950 . S
H1284 C1313 0.950 . S
H1285 C1314 0.950 . S
H1286 C1316 0.950 . S
H1287 C1317 0.950 . S
C1288 H1270 0.951 . S
C1288 C1289 1.366 . S
C1288 C1290 1.388 . S
C1289 C1288 1.366 . S
C1289 C1293 1.385 . S
C1290 H1271 0.951 . S
C1290 C1288 1.388 . S
C1290 C1291 1.366 . S
C1291 C1290 1.366 . S
C1291 C1292 1.414 . S
C1291 C1294 1.499 . S
C1292 H1272 0.950 . S
C1292 C1291 1.414 . S
C1292 C1293 1.374 . S
C1293 H1273 0.950 . S
C1293 C1289 1.385 . S
C1293 C1292 1.374 . S
C1294 C1291 1.499 . S
C1294 C1295 1.373 . S
C1294 C1296 1.389 . S
C1295 H1274 0.950 . S
C1295 C1294 1.373 . S
C1295 C1311 1.377 . S
C1296 C1294 1.389 . S
C1296 C1297 1.524 . S
C1296 C1310 1.377 . S
C1297 C1296 1.524 . S
C1297 C1298 1.397 . S
C1297 C1302 1.363 . S
C1298 H1275 0.950 . S
C1298 C1297 1.397 . S
C1298 C1299 1.334 . S
C1299 H1276 0.950 . S
C1299 C1298 1.334 . S
C1299 C1300 1.287 . S
C1300 C1299 1.287 . S
C1300 C1301 1.524 . S
C1300 H1319 0.913 . S
C1301 H1277 0.950 . S
C1301 C1300 1.524 . S
C1301 C1302 1.415 . S
C1302 H1278 0.950 . S
C1302 C1297 1.363 . S
C1302 C1301 1.415 . S
C1303 H1279 0.951 . S
C1303 C1304 1.366 . S
C1303 C1305 1.388 . S
C1304 C1303 1.366 . S
C1304 C1308 1.385 . S
C1305 H1280 0.951 . S
C1305 C1303 1.388 . S
C1305 C1306 1.366 . S
C1306 C1305 1.366 . S
C1306 C1307 1.414 . S
C1306 C1309 1.499 . S
C1307 H1281 0.950 . S
C1307 C1306 1.414 . S
C1307 C1308 1.374 . S
C1308 H1282 0.950 . S
C1308 C1304 1.385 . S
C1308 C1307 1.374 . S
C1309 C1306 1.499 . S
C1309 C1310 1.373 . S
C1309 C1311 1.389 . S
C1310 H1283 0.950 . S
C1310 C1296 1.377 . S
C1310 C1309 1.373 . S
C1311 C1295 1.377 . S
C1311 C1309 1.389 . S
C1311 C1312 1.524 . S
C1312 C1311 1.524 . S
C1312 C1313 1.397 . S
C1312 C1317 1.363 . S
C1313 H1284 0.950 . S
C1313 C1312 1.397 . S
C1313 C1314 1.334 . S
C1314 H1285 0.950 . S
C1314 C1313 1.334 . S
C1314 C1315 1.287 . S
C1315 C1314 1.287 . S
C1315 C1316 1.524 . S
C1315 H1318 0.999 . S
C1316 H1286 0.950 . S
C1316 C1315 1.524 . S
C1316 C1317 1.415 . S
C1317 H1287 0.950 . S
C1317 C1312 1.363 . S
C1317 C1316 1.415 . S
H1318 C1315 0.999 . S
H1319 C1300 0.913 . S
H1320 C1338 0.951 . S
H1321 C1340 0.951 . S
H1322 C1342 0.950 . S
H1323 C1343 0.950 . S
H1324 C1345 0.950 . S
H1325 C1348 0.950 . S
H1326 C1349 0.950 . S
H1327 C1351 0.950 . S
H1328 C1352 0.950 . S
H1329 C1353 0.951 . S
H1330 C1355 0.951 . S
H1331 C1357 0.950 . S
H1332 C1358 0.950 . S
H1333 C1360 0.950 . S
H1334 C1363 0.950 . S
H1335 C1364 0.950 . S
H1336 C1366 0.950 1_556 S
H1337 C1367 0.950 . S
C1338 H1320 0.951 . S
C1338 C1339 1.366 . S
C1338 C1340 1.388 . S
C1339 C1338 1.366 . S
C1339 C1343 1.385 . S
C1340 H1321 0.951 . S
C1340 C1338 1.388 . S
C1340 C1341 1.366 . S
C1341 C1340 1.366 . S
C1341 C1342 1.414 . S
C1341 C1344 1.499 . S
C1342 H1322 0.950 . S
C1342 C1341 1.414 . S
C1342 C1343 1.374 . S
C1343 H1323 0.950 . S
C1343 C1339 1.385 . S
C1343 C1342 1.374 . S
C1344 C1341 1.499 . S
C1344 C1345 1.373 . S
C1344 C1346 1.389 . S
C1345 H1324 0.950 . S
C1345 C1344 1.373 . S
C1345 C1361 1.377 1_455 S
C1346 C1344 1.389 . S
C1346 C1347 1.524 . S
C1346 C1360 1.377 1_455 S
C1347 C1346 1.524 . S
C1347 C1348 1.397 . S
C1347 C1352 1.363 . S
C1348 H1325 0.950 . S
C1348 C1347 1.397 . S
C1348 C1349 1.334 . S
C1349 H1326 0.950 . S
C1349 C1348 1.334 . S
C1349 C1350 1.287 . S
C1350 C1349 1.287 . S
C1350 C1351 1.524 . S
C1350 H1369 0.913 . S
C1351 H1327 0.950 . S
C1351 C1350 1.524 . S
C1351 C1352 1.415 . S
C1352 H1328 0.950 . S
C1352 C1347 1.363 . S
C1352 C1351 1.415 . S
C1353 H1329 0.951 . S
C1353 C1354 1.366 . S
C1353 C1355 1.388 . S
C1354 C1353 1.366 . S
C1354 C1358 1.385 . S
C1355 H1330 0.951 . S
C1355 C1353 1.388 . S
C1355 C1356 1.366 . S
C1356 C1355 1.366 . S
C1356 C1357 1.414 . S
C1356 C1359 1.499 . S
C1357 H1331 0.950 . S
C1357 C1356 1.414 . S
C1357 C1358 1.374 . S
C1358 H1332 0.950 . S
C1358 C1354 1.385 . S
C1358 C1357 1.374 . S
C1359 C1356 1.499 . S
C1359 C1360 1.373 . S
C1359 C1361 1.389 . S
C1360 H1333 0.950 . S
C1360 C1346 1.377 1_655 S
C1360 C1359 1.373 . S
C1361 C1345 1.377 1_655 S
C1361 C1359 1.389 . S
C1361 C1362 1.524 . S
C1362 C1361 1.524 . S
C1362 C1363 1.397 . S
C1362 C1367 1.363 . S
C1363 H1334 0.950 . S
C1363 C1362 1.397 . S
C1363 C1364 1.334 . S
C1364 H1335 0.950 . S
C1364 C1363 1.334 . S
C1364 C1365 1.287 . S
C1365 C1364 1.287 . S
C1365 C1366 1.524 . S
C1365 H1368 0.999 1_554 S
C1366 H1336 0.950 1_554 S
C1366 C1365 1.524 . S
C1366 C1367 1.415 . S
C1367 H1337 0.950 . S
C1367 C1362 1.363 . S
C1367 C1366 1.415 . S
H1368 C1365 0.999 1_556 S
H1369 C1350 0.913 . S
H1370 C1388 0.951 . S
H1371 C1390 0.951 . S
H1372 C1392 0.950 . S
H1373 C1393 0.950 . S
H1374 C1395 0.950 . S
H1375 C1398 0.950 . S
H1376 C1399 0.950 . S
H1377 C1401 0.950 . S
H1378 C1402 0.950 . S
H1379 C1403 0.951 . S
H1380 C1405 0.951 . S
H1381 C1407 0.950 . S
H1382 C1408 0.950 . S
H1383 C1410 0.950 . S
H1384 C1413 0.950 . S
H1385 C1414 0.950 . S
H1386 C1416 0.950 . S
H1387 C1417 0.950 . S
C1388 H1370 0.951 . S
C1388 C1389 1.366 . S
C1388 C1390 1.388 . S
C1389 C1388 1.366 . S
C1389 C1393 1.385 . S
C1390 H1371 0.951 . S
C1390 C1388 1.388 . S
C1390 C1391 1.366 . S
C1391 C1390 1.366 . S
C1391 C1392 1.414 . S
C1391 C1394 1.499 . S
C1392 H1372 0.950 . S
C1392 C1391 1.414 . S
C1392 C1393 1.374 . S
C1393 H1373 0.950 . S
C1393 C1389 1.385 . S
C1393 C1392 1.374 . S
C1394 C1391 1.499 . S
C1394 C1395 1.373 . S
C1394 C1396 1.389 . S
C1395 H1374 0.950 . S
C1395 C1394 1.373 . S
C1395 C1411 1.377 1_655 S
C1396 C1394 1.389 . S
C1396 C1397 1.524 . S
C1396 C1410 1.377 1_655 S
C1397 C1396 1.524 . S
C1397 C1398 1.397 . S
C1397 C1402 1.363 . S
C1398 H1375 0.950 . S
C1398 C1397 1.397 . S
C1398 C1399 1.334 . S
C1399 H1376 0.950 . S
C1399 C1398 1.334 . S
C1399 C1400 1.287 . S
C1400 C1399 1.287 . S
C1400 C1401 1.524 . S
C1400 H1419 0.913 . S
C1401 H1377 0.950 . S
C1401 C1400 1.524 . S
C1401 C1402 1.415 . S
C1402 H1378 0.950 . S
C1402 C1397 1.363 . S
C1402 C1401 1.415 . S
C1403 H1379 0.951 . S
C1403 C1404 1.366 . S
C1403 C1405 1.388 . S
C1404 C1403 1.366 . S
C1404 C1408 1.385 . S
C1405 H1380 0.951 . S
C1405 C1403 1.388 . S
C1405 C1406 1.366 . S
C1406 C1405 1.366 . S
C1406 C1407 1.414 . S
C1406 C1409 1.499 . S
C1407 H1381 0.950 . S
C1407 C1406 1.414 . S
C1407 C1408 1.374 . S
C1408 H1382 0.950 . S
C1408 C1404 1.385 . S
C1408 C1407 1.374 . S
C1409 C1406 1.499 . S
C1409 C1410 1.373 . S
C1409 C1411 1.389 . S
C1410 H1383 0.950 . S
C1410 C1396 1.377 1_455 S
C1410 C1409 1.373 . S
C1411 C1395 1.377 1_455 S
C1411 C1409 1.389 . S
C1411 C1412 1.524 . S
C1412 C1411 1.524 . S
C1412 C1413 1.397 . S
C1412 C1417 1.363 . S
C1413 H1384 0.950 . S
C1413 C1412 1.397 . S
C1413 C1414 1.334 . S
C1414 H1385 0.950 . S
C1414 C1413 1.334 . S
C1414 C1415 1.287 . S
C1415 C1414 1.287 . S
C1415 C1416 1.524 . S
C1415 H1418 0.999 . S
C1416 H1386 0.950 . S
C1416 C1415 1.524 . S
C1416 C1417 1.415 . S
C1417 H1387 0.950 . S
C1417 C1412 1.363 . S
C1417 C1416 1.415 . S
H1418 C1415 0.999 . S
H1419 C1400 0.913 . S
H1420 C1438 0.951 . S
H1421 C1440 0.951 . S
H1422 C1442 0.950 . S
H1423 C1443 0.950 . S
H1424 C1445 0.950 . S
H1425 C1448 0.950 . S
H1426 C1449 0.950 . S
H1427 C1451 0.950 . S
H1428 C1452 0.950 . S
H1429 C1453 0.951 . S
H1430 C1455 0.951 . S
H1431 C1457 0.950 . S
H1432 C1458 0.950 . S
H1433 C1460 0.950 . S
H1434 C1463 0.950 . S
H1435 C1464 0.950 . S
H1436 C1466 0.950 . S
H1437 C1467 0.950 . S
C1438 H1420 0.951 . S
C1438 C1439 1.366 . S
C1438 C1440 1.388 . S
C1439 C1438 1.366 . S
C1439 C1443 1.385 . S
C1440 H1421 0.951 . S
C1440 C1438 1.388 . S
C1440 C1441 1.366 . S
C1441 C1440 1.366 . S
C1441 C1442 1.414 . S
C1441 C1444 1.499 . S
C1442 H1422 0.950 . S
C1442 C1441 1.414 . S
C1442 C1443 1.374 . S
C1443 H1423 0.950 . S
C1443 C1439 1.385 . S
C1443 C1442 1.374 . S
C1444 C1441 1.499 . S
C1444 C1445 1.373 . S
C1444 C1446 1.389 . S
C1445 H1424 0.950 . S
C1445 C1444 1.373 . S
C1445 C1461 1.377 . S
C1446 C1444 1.389 . S
C1446 C1447 1.524 . S
C1446 C1460 1.377 . S
C1447 C1446 1.524 . S
C1447 C1448 1.397 . S
C1447 C1452 1.363 . S
C1448 H1425 0.950 . S
C1448 C1447 1.397 . S
C1448 C1449 1.334 1_556 S
C1449 H1426 0.950 . S
C1449 C1448 1.334 1_554 S
C1449 C1450 1.287 . S
C1450 C1449 1.287 . S
C1450 C1451 1.524 1_554 S
C1450 H1469 0.913 . S
C1451 H1427 0.950 . S
C1451 C1450 1.524 1_556 S
C1451 C1452 1.415 . S
C1452 H1428 0.950 . S
C1452 C1447 1.363 . S
C1452 C1451 1.415 . S
C1453 H1429 0.951 . S
C1453 C1454 1.366 . S
C1453 C1455 1.388 . S
C1454 C1453 1.366 . S
C1454 C1458 1.385 . S
C1455 H1430 0.951 . S
C1455 C1453 1.388 . S
C1455 C1456 1.366 . S
C1456 C1455 1.366 . S
C1456 C1457 1.414 . S
C1456 C1459 1.499 . S
C1457 H1431 0.950 . S
C1457 C1456 1.414 . S
C1457 C1458 1.374 . S
C1458 H1432 0.950 . S
C1458 C1454 1.385 . S
C1458 C1457 1.374 . S
C1459 C1456 1.499 . S
C1459 C1460 1.373 . S
C1459 C1461 1.389 . S
C1460 H1433 0.950 . S
C1460 C1446 1.377 . S
C1460 C1459 1.373 . S
C1461 C1445 1.377 . S
C1461 C1459 1.389 . S
C1461 C1462 1.524 . S
C1462 C1461 1.524 . S
C1462 C1463 1.397 . S
C1462 C1467 1.363 . S
C1463 H1434 0.950 . S
C1463 C1462 1.397 . S
C1463 C1464 1.334 . S
C1464 H1435 0.950 . S
C1464 C1463 1.334 . S
C1464 C1465 1.287 . S
C1465 C1464 1.287 . S
C1465 C1466 1.524 . S
C1465 H1468 0.999 . S
C1466 H1436 0.950 . S
C1466 C1465 1.524 . S
C1466 C1467 1.415 . S
C1467 H1437 0.950 . S
C1467 C1462 1.363 . S
C1467 C1466 1.415 . S
H1468 C1465 0.999 . S
H1469 C1450 0.913 . S
H1470 C1488 0.951 . S
H1471 C1490 0.951 . S
H1472 C1492 0.950 . S
H1473 C1493 0.950 . S
H1474 C1495 0.950 . S
H1475 C1498 0.950 . S
H1476 C1499 0.950 . S
H1477 C1501 0.950 . S
H1478 C1502 0.950 . S
H1479 C1503 0.951 . S
H1480 C1505 0.951 . S
H1481 C1507 0.950 . S
H1482 C1508 0.950 . S
H1483 C1510 0.950 . S
H1484 C1513 0.950 . S
H1485 C1514 0.950 . S
H1486 C1516 0.950 . S
H1487 C1517 0.950 . S
C1488 H1470 0.951 . S
C1488 C1489 1.366 . S
C1488 C1490 1.388 . S
C1489 C1488 1.366 . S
C1489 C1493 1.385 . S
C1490 H1471 0.951 . S
C1490 C1488 1.388 . S
C1490 C1491 1.366 . S
C1491 C1490 1.366 . S
C1491 C1492 1.414 . S
C1491 C1494 1.499 . S
C1492 H1472 0.950 . S
C1492 C1491 1.414 . S
C1492 C1493 1.374 . S
C1493 H1473 0.950 . S
C1493 C1489 1.385 . S
C1493 C1492 1.374 . S
C1494 C1491 1.499 . S
C1494 C1495 1.373 . S
C1494 C1496 1.389 . S
C1495 H1474 0.950 . S
C1495 C1494 1.373 . S
C1495 C1511 1.377 . S
C1496 C1494 1.389 . S
C1496 C1497 1.524 . S
C1496 C1510 1.377 . S
C1497 C1496 1.524 . S
C1497 C1498 1.397 . S
C1497 C1502 1.363 . S
C1498 H1475 0.950 . S
C1498 C1497 1.397 . S
C1498 C1499 1.334 1_554 S
C1499 H1476 0.950 . S
C1499 C1498 1.334 1_556 S
C1499 C1500 1.287 . S
C1500 C1499 1.287 . S
C1500 C1501 1.524 1_556 S
C1500 H1519 0.913 . S
C1501 H1477 0.950 . S
C1501 C1500 1.524 1_554 S
C1501 C1502 1.415 . S
C1502 H1478 0.950 . S
C1502 C1497 1.363 . S
C1502 C1501 1.415 . S
C1503 H1479 0.951 . S
C1503 C1504 1.366 . S
C1503 C1505 1.388 . S
C1504 C1503 1.366 . S
C1504 C1508 1.385 . S
C1505 H1480 0.951 . S
C1505 C1503 1.388 . S
C1505 C1506 1.366 . S
C1506 C1505 1.366 . S
C1506 C1507 1.414 . S
C1506 C1509 1.499 . S
C1507 H1481 0.950 . S
C1507 C1506 1.414 . S
C1507 C1508 1.374 . S
C1508 H1482 0.950 . S
C1508 C1504 1.385 . S
C1508 C1507 1.374 . S
C1509 C1506 1.499 . S
C1509 C1510 1.373 . S
C1509 C1511 1.389 . S
C1510 H1483 0.950 . S
C1510 C1496 1.377 . S
C1510 C1509 1.373 . S
C1511 C1495 1.377 . S
C1511 C1509 1.389 . S
C1511 C1512 1.524 . S
C1512 C1511 1.524 . S
C1512 C1513 1.397 . S
C1512 C1517 1.363 . S
C1513 H1484 0.950 . S
C1513 C1512 1.397 . S
C1513 C1514 1.334 . S
C1514 H1485 0.950 . S
C1514 C1513 1.334 . S
C1514 C1515 1.287 . S
C1515 C1514 1.287 . S
C1515 C1516 1.524 . S
C1515 H1518 0.999 . S
C1516 H1486 0.950 . S
C1516 C1515 1.524 . S
C1516 C1517 1.415 . S
C1517 H1487 0.950 . S
C1517 C1512 1.363 . S
C1517 C1516 1.415 . S
H1518 C1515 0.999 . S
H1519 C1500 0.913 . S
C339 C6 1.705 . S
C354 C295 1.704 . S
C389 C255 1.705 . S
C404 C46 1.704 . S
C439 C206 1.705 . S
C454 C95 1.704 . S
C489 C166 1.705 . S
C504 C135 1.704 . S
C539 C89 1.534 . S
C554 C9 1.545 . S
C589 C49 1.546 . S
C604 C129 1.535 . S
C639 C138 1.545 . S
C654 C58 1.534 . S
C689 C98 1.545 . S
C704 C18 1.534 . S
C739 C169 1.443 . S
C754 C249 1.443 . S
C789 C209 1.444 . S
C804 C289 1.444 . S
C839 C298 1.444 . S
C854 C218 1.444 . S
C889 C258 1.443 . S
C904 C178 1.444 . S
C939 C19 2.075 . S
C954 C10 2.075 . S
C989 C59 2.075 . S
C1004 C50 2.075 . S
C1039 C99 2.076 . S
C1054 C90 2.076 . S
C1089 C130 2.075 . S
C1104 C139 2.075 . S
C1139 C170 2.075 . S
C1154 C179 2.075 . S
C1189 C219 2.075 . S
C1204 C210 2.075 . S
C1239 C250 2.075 . S
C1254 C259 2.075 . S
C1289 C290 2.075 . S
C1304 C299 2.075 . S
C1339 C15 2.379 . S
C1354 C55 2.378 . S
C1389 C126 2.379 . S
C1404 C86 2.378 . S
C1439 C175 2.380 . S
C1454 C215 2.380 . S
C1489 C286 2.380 . S
C1504 C246 2.379 . S
