# Generated by pormake.
# Topology wjd, (6)-cn, num edge types: 1
# Building blocks:
#     Node 0, Type 0, BuildingBlock: KUMBUR_clean_sbu_1, # of connection points: 6
#     Node 1, Type 0, BuildingBlock: KUMBUR_clean_sbu_1, # of connection points: 6
#     Node 2, Type 0, BuildingBlock: KUMBUR_clean_sbu_1, # of connection points: 6
#     Node 3, Type 0, BuildingBlock: KUMBUR_clean_sbu_1, # of connection points: 6
#     Node 4, Type 0, BuildingBlock: KUMBUR_clean_sbu_1, # of connection points: 6
#     Node 5, Type 0, BuildingBlock: KUMBUR_clean_sbu_1, # of connection points: 6
#     Node 6, Type 0, BuildingBlock: KUMBUR_clean_sbu_1, # of connection points: 6
#     Node 7, Type 0, BuildingBlock: KUMBUR_clean_sbu_1, # of connection points: 6
#     Node 8, Type 0, BuildingBlock: KUMBUR_clean_sbu_1, # of connection points: 6
#     Node 9, Type 0, BuildingBlock: KUMBUR_clean_sbu_1, # of connection points: 6
#     Node 10, Type 0, BuildingBlock: KUMBUR_clean_sbu_1, # of connection points: 6
#     Node 11, Type 0, BuildingBlock: KUMBUR_clean_sbu_1, # of connection points: 6
#     Edge 12, Type (0, 0), BuildingBlock: ZUJKAS_clean_linker_0, # of connection points: 2
#     Edge 13, Type (0, 0), BuildingBlock: ZUJKAS_clean_linker_0, # of connection points: 2
#     Edge 14, Type (0, 0), BuildingBlock: ZUJKAS_clean_linker_0, # of connection points: 2
#     Edge 15, Type (0, 0), BuildingBlock: ZUJKAS_clean_linker_0, # of connection points: 2
#     Edge 16, Type (0, 0), BuildingBlock: ZUJKAS_clean_linker_0, # of connection points: 2
#     Edge 17, Type (0, 0), BuildingBlock: ZUJKAS_clean_linker_0, # of connection points: 2
#     Edge 18, Type (0, 0), BuildingBlock: ZUJKAS_clean_linker_0, # of connection points: 2
#     Edge 19, Type (0, 0), BuildingBlock: ZUJKAS_clean_linker_0, # of connection points: 2
#     Edge 20, Type (0, 0), BuildingBlock: ZUJKAS_clean_linker_0, # of connection points: 2
#     Edge 21, Type (0, 0), BuildingBlock: ZUJKAS_clean_linker_0, # of connection points: 2
#     Edge 22, Type (0, 0), BuildingBlock: ZUJKAS_clean_linker_0, # of connection points: 2
#     Edge 23, Type (0, 0), BuildingBlock: ZUJKAS_clean_linker_0, # of connection points: 2
#     Edge 24, Type (0, 0), BuildingBlock: ZUJKAS_clean_linker_0, # of connection points: 2
#     Edge 25, Type (0, 0), BuildingBlock: ZUJKAS_clean_linker_0, # of connection points: 2
#     Edge 26, Type (0, 0), BuildingBlock: ZUJKAS_clean_linker_0, # of connection points: 2
#     Edge 27, Type (0, 0), BuildingBlock: ZUJKAS_clean_linker_0, # of connection points: 2
#     Edge 28, Type (0, 0), BuildingBlock: ZUJKAS_clean_linker_0, # of connection points: 2
#     Edge 29, Type (0, 0), BuildingBlock: ZUJKAS_clean_linker_0, # of connection points: 2
#     Edge 30, Type (0, 0), BuildingBlock: ZUJKAS_clean_linker_0, # of connection points: 2
#     Edge 31, Type (0, 0), BuildingBlock: ZUJKAS_clean_linker_0, # of connection points: 2
#     Edge 32, Type (0, 0), BuildingBlock: ZUJKAS_clean_linker_0, # of connection points: 2
#     Edge 33, Type (0, 0), BuildingBlock: ZUJKAS_clean_linker_0, # of connection points: 2
#     Edge 34, Type (0, 0), BuildingBlock: ZUJKAS_clean_linker_0, # of connection points: 2
#     Edge 35, Type (0, 0), BuildingBlock: ZUJKAS_clean_linker_0, # of connection points: 2
#     Edge 36, Type (0, 0), BuildingBlock: ZUJKAS_clean_linker_0, # of connection points: 2
#     Edge 37, Type (0, 0), BuildingBlock: ZUJKAS_clean_linker_0, # of connection points: 2
#     Edge 38, Type (0, 0), BuildingBlock: ZUJKAS_clean_linker_0, # of connection points: 2
#     Edge 39, Type (0, 0), BuildingBlock: ZUJKAS_clean_linker_0, # of connection points: 2
#     Edge 40, Type (0, 0), BuildingBlock: ZUJKAS_clean_linker_0, # of connection points: 2
#     Edge 41, Type (0, 0), BuildingBlock: ZUJKAS_clean_linker_0, # of connection points: 2
#     Edge 42, Type (0, 0), BuildingBlock: ZUJKAS_clean_linker_0, # of connection points: 2
#     Edge 43, Type (0, 0), BuildingBlock: ZUJKAS_clean_linker_0, # of connection points: 2
#     Edge 44, Type (0, 0), BuildingBlock: ZUJKAS_clean_linker_0, # of connection points: 2
#     Edge 45, Type (0, 0), BuildingBlock: ZUJKAS_clean_linker_0, # of connection points: 2
#     Edge 46, Type (0, 0), BuildingBlock: ZUJKAS_clean_linker_0, # of connection points: 2
#     Edge 47, Type (0, 0), BuildingBlock: ZUJKAS_clean_linker_0, # of connection points: 2
# Relax obj value: 0.072
# Max RMSD: 0.178
# Mean RMSD: 0.178
data_MOF--net-wjd--node1-KUMBUR_clean_sbu_1--edge1-ZUJKAS_clean_linker_0
_symmetry_space_group_name_H-M    P1
_symmetry_Int_Tables_number       1
_symmetry_cell_setting            triclinic
loop_
_symmetry_equiv_pos_as_xyz
'x, y, z'
_cell_length_a     48.029456
_cell_length_b     47.939473
_cell_length_c     70.76773
_cell_angle_alpha  90.049218
_cell_angle_beta   89.903441
_cell_angle_gamma 120.05494
loop_
_atom_site_label
_atom_site_type_symbol
_atom_site_fract_x
_atom_site_fract_y
_atom_site_fract_z
_atom_type_partial_charge
Tb0 Tb 0.32171 0.08924 0.13808 0.0
C1 C 0.32425 0.20372 0.10126 0.0
N2 N 0.33796 0.18779 0.09324 0.0
C3 C 0.31319 0.1863 0.06357 0.0
C4 C 0.30381 0.21107 0.09077 0.0
C5 C 0.33312 0.17935 0.07458 0.0
C6 C 0.29838 0.20213 0.07171 0.0
C7 C 0.31611 0.22825 0.12907 0.0
C8 C 0.33014 0.21187 0.12021 0.0
C9 C 0.29519 0.23505 0.11881 0.0
C10 C 0.28912 0.22656 0.09969 0.0
Tb11 Tb 0.37039 0.17809 0.11222 0.0
N12 N 0.3502 0.20446 0.12977 0.0
C13 C 0.32419 0.23806 0.14783 0.0
C14 C 0.36077 0.21728 0.14735 0.0
C15 C 0.34719 0.2332 0.15685 0.0
H16 H 0.34472 0.16737 0.06819 0.0
H17 H 0.35511 0.24244 0.17098 0.0
H18 H 0.29137 0.10282 0.17654 0.0
H19 H 0.37247 0.01223 0.12733 0.0
H20 H 0.38053 0.21662 0.15403 0.0
H21 H 0.31395 0.25069 0.15515 0.0
H22 H 0.34524 0.0423 0.1177 0.0
H23 H 0.30927 0.17944 0.04882 0.0
H24 H 0.28394 0.2473 0.12546 0.0
H25 H 0.27309 0.23213 0.09193 0.0
H26 H 0.29569 0.09847 0.21112 0.0
H27 H 0.28279 0.20729 0.06318 0.0
H28 H 0.38664 0.01177 0.16093 0.0
N29 N 0.32242 0.08449 0.17007 0.0
C30 C 0.33936 0.07103 0.17681 0.0
C31 C 0.30836 0.09091 0.20163 0.0
C32 C 0.34249 0.06794 0.19636 0.0
C33 C 0.30593 0.09333 0.18207 0.0
C34 C 0.32723 0.07871 0.20883 0.0
N35 N 0.34532 0.05946 0.14539 0.0
C36 C 0.35131 0.04204 0.13235 0.0
C37 C 0.36637 0.04093 0.1702 0.0
C38 C 0.35113 0.05784 0.16397 0.0
C39 C 0.37485 0.02504 0.15674 0.0
C40 C 0.36679 0.02515 0.13777 0.0
H41 H 0.32895 0.07671 0.22398 0.0
H42 H 0.36251 0.05062 0.2177 0.0
H43 H 0.38341 0.02686 0.19475 0.0
O44 O 0.28096 0.06391 0.12059 0.0
O45 O 0.37298 0.10524 0.13201 0.0
O46 O 0.39864 0.15432 0.11529 0.0
O47 O 0.28256 0.04583 0.14798 0.0
O48 O 0.33104 0.08927 0.10785 0.0
O49 O 0.36143 0.13902 0.09203 0.0
O50 O 0.41017 0.22423 0.11724 0.0
O51 O 0.31809 0.14414 0.1093 0.0
O52 O 0.30465 0.12373 0.1389 0.0
O53 O 0.39979 0.20531 0.08924 0.0
O54 O 0.38449 0.17301 0.14131 0.0
O55 O 0.33525 0.13503 0.15121 0.0
C56 C 0.39803 0.12905 0.12317 0.0
C57 C 0.23213 0.03683 0.13773 0.0
C58 C 0.17332 1.00308 0.137 0.0
C59 C 0.17105 0.028 0.14607 0.0
C60 C 0.22897 0.06081 0.14718 0.0
C61 C 0.19867 0.0565 0.1512 0.0
C62 C 0.20417 1.00766 0.13286 0.0
C63 C 0.34471 0.10688 0.09259 0.0
C64 C 0.26464 0.04228 0.13341 0.0
C65 C 0.35948 0.05292 0.20272 0.0
C66 C 0.37138 0.03939 0.18965 0.0
C67 C 0.29764 0.13392 0.12344 0.0
C68 C 0.42468 0.26258 0.09296 0.0
C69 C 0.45932 0.32158 0.09329 0.0
C70 C 0.43613 0.32401 0.08244 0.0
C71 C 0.40225 0.26593 0.08196 0.0
C72 C 0.45347 0.29058 0.09843 0.0
C73 C 0.40799 0.29642 0.07676 0.0
C74 C 0.36532 0.15515 0.15498 0.0
C75 C 0.4179 0.23038 0.09958 0.0
H76 H 0.14781 0.02515 0.14963 0.0
H77 H 0.24995 0.08282 0.15163 0.0
H78 H 0.19661 0.07523 0.1585 0.0
H79 H 0.2064 0.9888 0.12581 0.0
H80 H 0.43998 0.34736 0.07811 0.0
H81 H 0.38022 0.24509 0.07739 0.0
H82 H 0.4709 0.28829 0.10699 0.0
H83 H 0.39046 0.29869 0.06831 0.0
Tb84 Tb 0.82502 0.64963 0.40328 0.0
C85 C 0.73261 0.67836 0.35178 0.0
N86 N 0.7652 0.693 0.3519 0.0
C87 C 0.76608 0.69458 0.31802 0.0
C88 C 0.71531 0.67077 0.3347 0.0
C89 C 0.78216 0.70178 0.33536 0.0
C90 C 0.73248 0.67878 0.31767 0.0
C91 C 0.68293 0.65717 0.36958 0.0
C92 C 0.71664 0.67156 0.36892 0.0
C93 C 0.66542 0.64909 0.35261 0.0
C94 C 0.68157 0.65582 0.33521 0.0
Tb95 Tb 0.78866 0.70229 0.38096 0.0
N96 N 0.7344 0.67913 0.38501 0.0
C97 C 0.66796 0.65171 0.38727 0.0
C98 C 0.72015 0.67531 0.40225 0.0
C99 C 0.68671 0.66115 0.40366 0.0
H100 H 0.80814 0.71479 0.33557 0.0
H101 H 0.67543 0.65768 0.41738 0.0
H102 H 0.83593 0.67177 0.44815 0.0
H103 H 0.9087 0.66685 0.3467 0.0
H104 H 0.73446 0.68311 0.41489 0.0
H105 H 0.64208 0.64074 0.38841 0.0
H106 H 0.85561 0.64407 0.36127 0.0
H107 H 0.7796 0.70151 0.30496 0.0
H108 H 0.63944 0.63787 0.3528 0.0
H109 H 0.6678 0.64969 0.32223 0.0
H110 H 0.88197 0.70189 0.4697 0.0
H111 H 0.72011 0.67336 0.30422 0.0
H112 H 0.95752 0.70065 0.36556 0.0
N113 N 0.86538 0.67823 0.4242 0.0
C114 C 0.89575 0.69005 0.41741 0.0
C115 C 0.88615 0.69883 0.45501 0.0
C116 C 0.92267 0.70712 0.42924 0.0
C117 C 0.86014 0.68198 0.44276 0.0
C118 C 0.91754 0.71147 0.44823 0.0
N119 N 0.87296 0.66922 0.38738 0.0
C120 C 0.87611 0.66102 0.36932 0.0
C121 C 0.93081 0.6977 0.39087 0.0
C122 C 0.89965 0.68569 0.39838 0.0
C123 C 0.934 0.6918 0.37187 0.0
C124 C 0.90651 0.67298 0.36114 0.0
H125 H 0.93762 0.72449 0.45777 0.0
H126 H 0.97473 0.73249 0.43059 0.0
H127 H 0.98183 0.72374 0.39709 0.0
O128 O 0.82634 0.60768 0.39557 0.0
O129 O 0.84976 0.70265 0.4063 0.0
O130 O 0.83983 0.7185 0.37802 0.0
O131 O 0.82339 0.61809 0.42459 0.0
O132 O 0.80734 0.63984 0.37358 0.0
O133 O 0.81931 0.69032 0.36437 0.0
O134 O 0.79613 0.74269 0.39685 0.0
O135 O 0.75463 0.64958 0.38258 0.0
O136 O 0.77284 0.62617 0.40469 0.0
O137 O 0.79566 0.74366 0.36652 0.0
O138 O 0.79635 0.70382 0.41161 0.0
O139 O 0.7932 0.65672 0.42302 0.0
C140 C 0.85883 0.72364 0.39248 0.0
C141 C 0.85341 0.5921 0.41737 0.0
C142 C 0.87788 0.55804 0.41343 0.0
C143 C 0.90383 0.57979 0.42468 0.0
C144 C 0.87929 0.61273 0.42903 0.0
C145 C 0.90437 0.60675 0.43249 0.0
C146 C 0.85257 0.56434 0.4098 0.0
C147 C 0.8111 0.66059 0.36019 0.0
C148 C 0.82759 0.59958 0.41291 0.0
C149 C 0.9537 0.71934 0.42173 0.0
C150 C 0.95774 0.71451 0.40263 0.0
C151 C 0.75057 0.62554 0.39358 0.0
C152 C 0.77985 0.77679 0.3824 0.0
C153 C 0.77986 0.82785 0.385 0.0
C154 C 0.74644 0.81082 0.38161 0.0
C155 C 0.74661 0.76052 0.37924 0.0
C156 C 0.79636 0.81035 0.3854 0.0
C157 C 0.73004 0.77748 0.37889 0.0
C158 C 0.78879 0.68182 0.42485 0.0
C159 C 0.79792 0.75941 0.38193 0.0
H160 H 0.92344 0.57549 0.42782 0.0
H161 H 0.8802 0.63347 0.43563 0.0
H162 H 0.92426 0.623 0.44139 0.0
H163 H 0.83255 0.54794 0.401 0.0
H164 H 0.73291 0.82326 0.38069 0.0
H165 H 0.73351 0.73484 0.37683 0.0
H166 H 0.82201 0.82269 0.38806 0.0
H167 H 0.7044 0.76479 0.37626 0.0
Tb168 Tb 0.93864 0.24163 0.1348 0.0
C169 C 0.81765 0.12823 0.10341 0.0
N170 N 0.83507 0.15853 0.09627 0.0
C171 C 0.83427 0.13703 0.06556 0.0
C172 C 0.80902 0.10101 0.09199 0.0
C173 C 0.8425 0.16332 0.07749 0.0
C174 C 0.81773 0.10575 0.07287 0.0
C175 C 0.79184 0.09372 0.13039 0.0
C176 C 0.80929 0.12476 0.12237 0.0
C177 C 0.7838 0.06648 0.11921 0.0
C178 C 0.79229 0.07011 0.10004 0.0
Tb179 Tb 0.8467 0.19964 0.11672 0.0
N180 N 0.81758 0.15174 0.13277 0.0
C181 C 0.7824 0.09094 0.14931 0.0
C182 C 0.80585 0.14879 0.15074 0.0
C183 C 0.78893 0.11856 0.15941 0.0
H184 H 0.85484 0.18739 0.0717 0.0
H185 H 0.78036 0.11655 0.17378 0.0
H186 H 0.93749 0.23299 0.18169 0.0
H187 H 1.00726 0.34838 0.09266 0.0
H188 H 0.80839 0.16933 0.15843 0.0
H189 H 0.76904 0.06755 0.15602 0.0
H190 H 0.97812 0.28972 0.09919 0.0
H191 H 0.84063 0.1409 0.05073 0.0
H192 H 0.77057 0.04248 0.12517 0.0
H193 H 0.78571 0.04888 0.09156 0.0
H194 H 0.94552 0.26673 0.20976 0.0
H195 H 0.81157 0.08546 0.06362 0.0
H196 H 0.01395 0.38682 0.1181 0.0
N197 N 0.94887 0.27086 0.16211 0.0
C198 C 0.9626 0.30324 0.15989 0.0
C199 C 0.94981 0.27726 0.19579 0.0
C200 C 0.96891 0.32382 0.17551 0.0
C201 C 0.94454 0.25801 0.17982 0.0
C202 C 0.96136 0.31023 0.19361 0.0
N203 N 0.96734 0.29519 0.12761 0.0
C204 C 0.98078 0.3064 0.11025 0.0
C205 C 0.98921 0.34948 0.13909 0.0
C206 C 0.97275 0.31595 0.14205 0.0
C207 C 1.0011 0.36118 0.12097 0.0
C208 C 0.99737 0.33955 0.10657 0.0
H209 H 0.9658 0.32516 0.206 0.0
H210 H 0.98854 0.37349 0.18437 0.0
H211 H 1.00626 0.39598 0.15243 0.0
O212 O 0.97031 0.23064 0.12022 0.0
O213 O 0.91922 0.27183 0.12344 0.0
O214 O 0.86629 0.24469 0.13246 0.0
O215 O 0.98012 0.24759 0.14867 0.0
O216 O 0.92907 0.22856 0.10497 0.0
O217 O 0.88406 0.23131 0.09568 0.0
O218 O 0.79689 0.18302 0.11731 0.0
O219 O 0.87691 0.17762 0.11229 0.0
O220 O 0.90639 0.18979 0.13931 0.0
O221 O 0.82736 0.21832 0.09704 0.0
O222 O 0.85546 0.21405 0.14705 0.0
O223 O 0.90063 0.21088 0.15502 0.0
C224 C 0.89252 0.27159 0.12813 0.0
C225 C 0.99352 0.20827 0.13989 0.0
C226 C 0.0251 0.181 0.13794 0.0
C227 C 1.0007 0.1549 0.14804 0.0
C228 C 0.96992 0.18209 0.15025 0.0
C229 C 0.97344 0.15556 0.15418 0.0
C230 C 0.02137 0.20783 0.13391 0.0
C231 C 0.91309 0.23518 0.09234 0.0
C232 C 0.98833 0.23528 0.13489 0.0
C233 C 0.98381 0.35728 0.17259 0.0
C234 C 0.99397 0.3701 0.1544 0.0
C235 C 0.88962 0.16921 0.12594 0.0
C236 C 0.78112 0.22023 0.10772 0.0
C237 C 0.73026 0.22017 0.11198 0.0
C238 C 0.74797 0.25395 0.11368 0.0
C239 C 0.79801 0.25393 0.10942 0.0
C240 C 0.74717 0.2034 0.10917 0.0
C241 C 0.7815 0.27059 0.11248 0.0
C242 C 0.87433 0.21143 0.15975 0.0
C243 C 0.79842 0.20238 0.10407 0.0
H244 H 1.00298 0.13413 0.15151 0.0
H245 H 0.94872 0.18212 0.15536 0.0
H246 H 0.95499 0.13544 0.16209 0.0
H247 H 0.03973 0.22797 0.12593 0.0
H248 H 0.73584 0.26756 0.11608 0.0
H249 H 0.82396 0.26745 0.10825 0.0
H250 H 0.73394 0.1774 0.10768 0.0
H251 H 0.79477 0.29659 0.11381 0.0
Tb252 Tb 0.37065 0.17415 0.40001 0.0
C253 C 0.35125 0.05339 0.35278 0.0
N254 N 0.33673 0.07128 0.35044 0.0
C255 C 0.34339 0.07086 0.31686 0.0
C256 C 0.36306 0.04409 0.3372 0.0
C257 C 0.33205 0.07954 0.33275 0.0
C258 C 0.35918 0.0533 0.31909 0.0
C259 C 0.36905 0.02574 0.37401 0.0
C260 C 0.35427 0.04437 0.37092 0.0
C261 C 0.3812 0.01672 0.35856 0.0
C262 C 0.37823 0.02589 0.3402 0.0
Tb263 Tb 0.32089 0.08524 0.37759 0.0
N264 N 0.34327 0.05457 0.38559 0.0
C265 C 0.37097 0.01663 0.39253 0.0
C266 C 0.34329 0.04407 0.40348 0.0
C267 C 0.3576 0.02544 0.40729 0.0
H268 H 0.31918 0.09245 0.33083 0.0
H269 H 0.35797 0.01761 0.42158 0.0
H270 H 0.36302 0.16496 0.44684 0.0
H271 H 0.33206 0.23305 0.34997 0.0
H272 H 0.33173 0.04928 0.41478 0.0
H273 H 0.38208 1.00225 0.39552 0.0
H274 H 0.35732 0.20171 0.35962 0.0
H275 H 0.33986 0.07752 0.30287 0.0
H276 H 0.39279 1.00253 0.36065 0.0
H277 H 0.38759 0.01863 0.32841 0.0
H278 H 0.33964 0.1813 0.47256 0.0
H279 H 0.36792 0.04665 0.30674 0.0
H280 H 0.30883 0.25286 0.37407 0.0
N281 N 0.34897 0.18622 0.42516 0.0
C282 C 0.33533 0.20443 0.42103 0.0
C283 C 0.33809 0.18778 0.45811 0.0
C284 C 0.32237 0.21495 0.43538 0.0
C285 C 0.35092 0.17815 0.44342 0.0
C286 C 0.32374 0.20624 0.45409 0.0
N287 N 0.34559 0.20046 0.38868 0.0
C288 C 0.34577 0.20849 0.37017 0.0
C289 C 0.32 0.23094 0.39742 0.0
C290 C 0.33385 0.21203 0.40223 0.0
C291 C 0.31908 0.23822 0.37836 0.0
C292 C 0.33205 0.22697 0.3647 0.0
H293 H 0.31402 0.21383 0.46552 0.0
H294 H 0.29879 0.24243 0.4415 0.0
H295 H 0.29748 0.25712 0.40838 0.0
O296 O 0.40657 0.21832 0.38899 0.0
O297 O 0.31738 0.14727 0.40106 0.0
O298 O 0.30359 0.11922 0.37331 0.0
O299 O 0.40671 0.20745 0.41834 0.0
O300 O 0.38098 0.16739 0.37023 0.0
O301 O 0.33217 0.12653 0.35977 0.0
O302 O 0.27811 0.05092 0.39108 0.0
O303 O 0.37366 0.10608 0.37938 0.0
O304 O 0.39526 0.14646 0.40223 0.0
O305 O 0.28417 0.04891 0.36116 0.0
O306 O 0.3162 0.09244 0.40791 0.0
O307 O 0.36373 0.1351 0.41939 0.0
C308 C 0.29735 0.13399 0.38687 0.0
C309 C 0.45683 0.24357 0.40391 0.0
C310 C 0.50933 0.29203 0.3991 0.0
C311 C 0.52363 0.27259 0.39917 0.0
C312 C 0.47162 0.22477 0.40384 0.0
C313 C 0.50488 0.23924 0.40158 0.0
C314 C 0.47575 0.27722 0.40163 0.0
C315 C 0.36155 0.14995 0.35645 0.0
C316 C 0.42156 0.2284 0.40498 0.0
C317 C 0.30864 0.23388 0.43064 0.0
C318 C 0.30774 0.24211 0.41175 0.0
C319 C 0.39712 0.12592 0.39068 0.0
C320 C 0.23218 0.03394 0.37202 0.0
C321 C 0.17364 1.00326 0.37535 0.0
C322 C 0.17189 0.02885 0.36684 0.0
C323 C 0.22965 0.05871 0.36309 0.0
C324 C 0.20405 1.00603 0.37797 0.0
C325 C 0.19972 0.05629 0.36071 0.0
C326 C 0.33758 0.10653 0.42146 0.0
C327 C 0.26411 0.03738 0.37522 0.0
H328 H 0.5494 0.2832 0.3975 0.0
H329 H 0.45736 0.19895 0.40532 0.0
H330 H 0.51615 0.22453 0.40156 0.0
H331 H 0.4642 0.29169 0.40131 0.0
H332 H 0.14886 0.02727 0.36447 0.0
H333 H 0.25079 0.07983 0.35781 0.0
H334 H 0.20583 0.98668 0.38469 0.0
H335 H 0.19805 0.07561 0.35389 0.0
Tb336 Tb 0.78262 0.70374 0.13277 0.0
C337 C 0.89497 0.69142 0.10525 0.0
N338 N 0.86575 0.67975 0.0969 0.0
C339 C 0.89117 0.70152 0.06711 0.0
C340 C 0.9236 0.71004 0.09497 0.0
C341 C 0.8634 0.68349 0.07795 0.0
C342 C 0.92139 0.71514 0.07568 0.0
C343 C 0.92575 0.69758 0.13358 0.0
C344 C 0.8959 0.68532 0.12432 0.0
C345 C 0.95439 0.717 0.12357 0.0
C346 C 0.95332 0.72313 0.1043 0.0
Tb347 Tb 0.82207 0.6505 0.11568 0.0
N348 N 0.86762 0.66659 0.13358 0.0
C349 C 0.92595 0.68932 0.1525 0.0
C350 C 0.86805 0.65607 0.15149 0.0
C351 C 0.89702 0.66796 0.16136 0.0
H352 H 0.84012 0.67274 0.07123 0.0
H353 H 0.89704 0.66011 0.1757 0.0
H354 H 0.78393 0.70202 0.18014 0.0
H355 H 0.6838 0.67489 0.08561 0.0
H356 H 0.84641 0.63779 0.1582 0.0
H357 H 0.94836 0.69826 0.16014 0.0
H358 H 0.74096 0.70198 0.09535 0.0
H359 H 0.88925 0.70491 0.05215 0.0
H360 H 0.97751 0.72691 0.13052 0.0
H361 H 0.97561 0.73787 0.09671 0.0
H362 H 0.74526 0.67274 0.20572 0.0
H363 H 0.94283 0.72932 0.06728 0.0
H364 H 0.64111 0.64079 0.10848 0.0
N365 N 0.74902 0.68113 0.15824 0.0
C366 C 0.71707 0.66423 0.15425 0.0
C367 C 0.73711 0.6697 0.19124 0.0
C368 C 0.69395 0.64798 0.16848 0.0
C369 C 0.75905 0.68573 0.17662 0.0
C370 C 0.70447 0.6502 0.18712 0.0
N371 N 0.73056 0.68172 0.1229 0.0
C372 C 0.72247 0.68665 0.10522 0.0
C373 C 0.67459 0.64934 0.13122 0.0
C374 C 0.70743 0.66499 0.13599 0.0
C375 C 0.66611 0.65241 0.11273 0.0
C376 C 0.69016 0.6716 0.09976 0.0
H377 H 0.68752 0.63808 0.1985 0.0
H378 H 0.643 0.61816 0.17445 0.0
H379 H 0.62604 0.61926 0.14174 0.0
O380 O 0.79564 0.74833 0.11978 0.0
O381 O 0.75282 0.65559 0.11971 0.0
O382 O 0.77479 0.62511 0.12936 0.0
O383 O 0.77898 0.7392 0.14837 0.0
O384 O 0.79875 0.70851 0.10335 0.0
O385 O 0.7942 0.65982 0.09378 0.0
O386 O 0.83708 0.61602 0.1166 0.0
O387 O 0.84671 0.70322 0.112 0.0
O388 O 0.8338 0.72163 0.13844 0.0
O389 O 0.80426 0.61335 0.09532 0.0
O390 O 0.8046 0.6439 0.14534 0.0
O391 O 0.81054 0.69348 0.15341 0.0
C392 C 0.74975 0.62791 0.12502 0.0
C393 C 0.77017 0.77645 0.13129 0.0
C394 C 0.76936 0.82704 0.12778 0.0
C395 C 0.73557 0.80885 0.12644 0.0
C396 C 0.73654 0.7591 0.13003 0.0
C397 C 0.71942 0.77525 0.12751 0.0
C398 C 0.78651 0.81041 0.13017 0.0
C399 C 0.79222 0.68614 0.09044 0.0
C400 C 0.78849 0.75968 0.13452 0.0
C401 C 0.66112 0.63108 0.16374 0.0
C402 C 0.65145 0.63177 0.14513 0.0
C403 C 0.85496 0.72433 0.12572 0.0
C404 C 0.80019 0.56385 0.10555 0.0
C405 C 0.79885 0.5123 0.11046 0.0
C406 C 0.76501 0.49669 0.11066 0.0
C407 C 0.76644 0.54747 0.10605 0.0
C408 C 0.8163 0.54609 0.1077 0.0
C409 C 0.74908 0.51412 0.10843 0.0
C410 C 0.80762 0.66552 0.15805 0.0
C411 C 0.81889 0.59926 0.10269 0.0
H412 H 0.72142 0.82058 0.12499 0.0
H413 H 0.72343 0.73315 0.13126 0.0
H414 H 0.69344 0.76166 0.12663 0.0
H415 H 0.81252 0.82378 0.13115 0.0
H416 H 0.75071 0.47078 0.11229 0.0
H417 H 0.75341 0.56037 0.10449 0.0
H418 H 0.84236 0.55867 0.10747 0.0
H419 H 0.72309 0.50162 0.10842 0.0
Tb420 Tb 0.85164 0.20001 0.40394 0.0
C421 C 0.98976 0.3119 0.38231 0.0
N422 N 0.96874 0.28518 0.37258 0.0
C423 C 0.97874 0.31673 0.34446 0.0
C424 C 1.0053 0.34248 0.37368 0.0
C425 C 0.96382 0.28692 0.35371 0.0
C426 C 0.9993 0.34471 0.35454 0.0
C427 C 0.01935 0.33487 0.41119 0.0
C428 C 0.99652 0.30811 0.40075 0.0
C429 C 0.03374 0.36576 0.40306 0.0
C430 C 0.02677 0.36955 0.38431 0.0
Tb431 Tb 0.94556 0.23774 0.38885 0.0
N432 N 0.98271 0.27778 0.40785 0.0
C433 C 0.02808 0.32953 0.42911 0.0
C434 C 0.99367 0.27223 0.42442 0.0
C435 C 0.01571 0.29797 0.43556 0.0
H436 H 0.94815 0.26535 0.34586 0.0
H437 H 0.02357 0.29341 0.44895 0.0
H438 H 0.86126 0.1987 0.4513 0.0
H439 H 0.77702 0.10313 0.35676 0.0
H440 H 0.98577 0.24789 0.42895 0.0
H441 H 0.04549 0.34942 0.43763 0.0
H442 H 0.81043 0.1601 0.36674 0.0
H443 H 0.97441 0.31811 0.32958 0.0
H444 H 0.05109 0.3867 0.41093 0.0
H445 H 0.03872 0.39336 0.37802 0.0
H446 H 0.85557 0.15918 0.47508 0.0
H447 H 1.01082 0.36776 0.34734 0.0
H448 H 0.76921 0.05923 0.37843 0.0
N449 N 0.84537 0.16529 0.42828 0.0
C450 C 0.82947 0.13339 0.42376 0.0
C451 C 0.84873 0.15165 0.46059 0.0
C452 C 0.82388 0.10953 0.43728 0.0
C453 C 0.85288 0.17429 0.44679 0.0
C454 C 0.83474 0.11917 0.45574 0.0
N455 N 0.8218 0.14823 0.39346 0.0
C456 C 0.80713 0.14098 0.3762 0.0
C457 C 0.79785 0.09178 0.40082 0.0
C458 C 0.81658 0.12449 0.40585 0.0
C459 C 0.78382 0.0841 0.38285 0.0
C460 C 0.7882 0.10883 0.37056 0.0
H461 H 0.83101 0.10162 0.46654 0.0
H462 H 0.80208 0.05818 0.44232 0.0
H463 H 0.77946 0.04264 0.41031 0.0
O464 O 0.81442 0.20621 0.39227 0.0
O465 O 0.8699 0.17205 0.38913 0.0
O466 O 0.9185 0.19106 0.40301 0.0
O467 O 0.8149 0.19669 0.42163 0.0
O468 O 0.86286 0.21743 0.37433 0.0
O469 O 0.90984 0.21665 0.36607 0.0
O470 O 0.9901 0.23913 0.38925 0.0
O471 O 0.92373 0.26892 0.38496 0.0
O472 O 0.88435 0.25149 0.40787 0.0
O473 O 0.95539 0.21297 0.36763 0.0
O474 O 0.92945 0.22032 0.41775 0.0
O475 O 0.88889 0.23063 0.42511 0.0
C476 C 0.89301 0.16736 0.39511 0.0
C477 C 0.7639 0.1726 0.40707 0.0
C478 C 0.70727 0.15284 0.39941 0.0
C479 C 0.69989 0.12175 0.40496 0.0
C480 C 0.75528 0.14149 0.41337 0.0
C481 C 0.72372 0.11623 0.41201 0.0
C482 C 0.73951 0.17837 0.40039 0.0
C483 C 0.88311 0.21684 0.3617 0.0
C484 C 0.7981 0.19873 0.40793 0.0
C485 C 0.80642 0.07683 0.43216 0.0
C486 C 0.79341 0.06796 0.41396 0.0
C487 C 0.90297 0.27287 0.3953 0.0
C488 C 1.0103 0.23003 0.36088 0.0
C489 C 0.05809 0.22686 0.35217 0.0
C490 C 0.06049 0.24389 0.33547 0.0
C491 C 0.0132 0.24694 0.34418 0.0
C492 C 0.03281 0.22021 0.36484 0.0
C493 C 0.03827 0.25388 0.33158 0.0
C494 C 0.91598 0.23123 0.4295 0.0
C495 C 0.98373 0.22131 0.37431 0.0
H496 H 0.67535 0.10185 0.40443 0.0
H497 H 0.77283 0.13665 0.41966 0.0
H498 H 0.71761 0.09236 0.41674 0.0
H499 H 0.74549 0.20241 0.39603 0.0
H500 H 0.07922 0.24906 0.32521 0.0
H501 H 0.99602 0.2545 0.34079 0.0
H502 H 0.03062 0.20749 0.37791 0.0
H503 H 0.04033 0.26681 0.31864 0.0
Tb504 Tb 0.18452 0.36606 0.61727 0.0
C505 C 0.07156 0.32035 0.68072 0.0
N506 N 0.08679 0.30617 0.67254 0.0
C507 C 0.09262 0.28719 0.70279 0.0
C508 C 0.06713 0.31956 0.70042 0.0
C509 C 0.09608 0.28844 0.68311 0.0
C510 C 0.07862 0.30335 0.71154 0.0
C511 C 0.03878 0.34505 0.67653 0.0
C512 C 0.05778 0.33291 0.66902 0.0
C513 C 0.03591 0.34637 0.69625 0.0
C514 C 0.05012 0.33366 0.7082 0.0
Tb515 Tb 0.09416 0.31207 0.64062 0.0
N516 N 0.06065 0.33044 0.65015 0.0
C517 C 0.02212 0.354 0.66398 0.0
C518 C 0.04268 0.33693 0.6379 0.0
C519 C 0.0236 0.34933 0.64458 0.0
H520 H 0.10686 0.27588 0.67637 0.0
H521 H 1.01013 0.35534 0.63477 0.0
H522 H 0.17784 0.34262 0.57294 0.0
H523 H 0.24862 0.35332 0.67698 0.0
H524 H 0.04399 0.33356 0.62295 0.0
H525 H 1.00721 0.36343 0.66915 0.0
H526 H 0.21926 0.37503 0.66039 0.0
H527 H 0.10082 0.27385 0.71119 0.0
H528 H 0.02179 0.35602 0.70235 0.0
H529 H 0.04679 0.33373 0.72334 0.0
H530 H 0.19573 0.31212 0.55312 0.0
H531 H 0.07582 0.30223 0.72676 0.0
H532 H 0.26518 0.31888 0.66006 0.0
N533 N 0.19858 0.33704 0.59808 0.0
C534 C 0.21694 0.32603 0.606 0.0
C535 C 0.20168 0.31566 0.568 0.0
C536 C 0.22832 0.3091 0.59515 0.0
C537 C 0.19113 0.3325 0.57931 0.0
C538 C 0.22036 0.30389 0.57595 0.0
N539 N 0.21263 0.34812 0.63504 0.0
C540 C 0.22307 0.35754 0.65316 0.0
C541 C 0.24288 0.32019 0.63379 0.0
C542 C 0.22376 0.33128 0.62513 0.0
C543 C 0.25068 0.32709 0.65287 0.0
C544 C 0.24114 0.34627 0.66251 0.0
H545 H 0.22859 0.29093 0.56716 0.0
H546 H 0.25598 0.28469 0.59571 0.0
H547 H 0.26937 0.29504 0.62942 0.0
O548 O 0.23087 0.40565 0.6221 0.0
O549 O 0.15379 0.31336 0.61349 0.0
O550 O 0.13079 0.29791 0.64241 0.0
O551 O 0.20906 0.39867 0.59495 0.0
O552 O 0.17673 0.37845 0.64625 0.0
O553 O 0.13956 0.3281 0.65491 0.0
O554 O 0.07616 0.27403 0.62096 0.0
O555 O 0.10698 0.36278 0.63523 0.0
O556 O 0.15894 0.39229 0.6221 0.0
O557 O 0.05139 0.269 0.64713 0.0
O558 O 0.09507 0.32633 0.61115 0.0
O559 O 0.14602 0.35448 0.59625 0.0
C560 C 0.14347 0.2925 0.62743 0.0
C561 C 0.26661 0.42428 0.59618 0.0
C562 C 0.32553 0.4587 0.59552 0.0
C563 C 0.32668 0.43953 0.58083 0.0
C564 C 0.26869 0.4061 0.58125 0.0
C565 C 0.2985 0.4136 0.57374 0.0
C566 C 0.29523 0.45091 0.60313 0.0
C567 C 0.15819 0.35826 0.65936 0.0
C568 C 0.23507 0.41571 0.60478 0.0
C569 C 0.24701 0.29775 0.60379 0.0
C570 C 0.25442 0.30344 0.62303 0.0
C571 C 0.13179 0.3896 0.62845 0.0
C572 C 0.01981 0.23917 0.62109 0.0
C573 C 0.96988 0.18951 0.61309 0.0
C574 C 0.96118 0.20786 0.60155 0.0
C575 C 1.01058 0.25673 0.60942 0.0
C576 C 0.99938 0.20558 0.62295 0.0
C577 C 0.9814 0.24113 0.59974 0.0
C578 C 0.11398 0.33964 0.59628 0.0
C579 C 0.05088 0.25548 0.63111 0.0
H580 H 0.34943 0.445 0.57452 0.0
H581 H 0.24739 0.38619 0.57527 0.0
H582 H 0.29975 0.3993 0.56227 0.0
H583 H 0.29392 0.46525 0.61458 0.0
H584 H 0.93851 0.19657 0.59403 0.0
H585 H 0.026 0.28245 0.60773 0.0
H586 H 1.00678 0.19199 0.63178 0.0
H587 H 0.97442 0.25488 0.59079 0.0
Tb588 Tb 0.24846 0.93562 0.88165 0.0
C589 C 0.13211 0.81433 0.90963 0.0
N590 N 0.16133 0.83111 0.91807 0.0
C591 C 0.13604 0.82997 0.94752 0.0
C592 C 0.10361 0.80605 0.91963 0.0
C593 C 0.16369 0.83797 0.93693 0.0
C594 C 0.1059 0.81427 0.93878 0.0
C595 C 0.10128 0.78913 0.8814 0.0
C596 C 0.1311 0.80615 0.89078 0.0
C597 C 0.07281 0.78176 0.89108 0.0
C598 C 0.07396 0.79011 0.91017 0.0
Tb599 Tb 0.20497 0.84309 0.89974 0.0
N600 N 0.15922 0.81384 0.8819 0.0
C601 C 0.1009 0.77928 0.86276 0.0
C602 C 0.15846 0.8015 0.86433 0.0
C603 C 0.12955 0.78493 0.85434 0.0
H604 H 0.18692 0.84993 0.94374 0.0
H605 H 0.12932 0.77597 0.84026 0.0
H606 H 0.24582 0.93145 0.83428 0.0
H607 H 0.34932 1.00292 0.92802 0.0
H608 H 0.1798 0.80349 0.85798 0.0
H609 H 0.07852 0.76618 0.85504 0.0
H610 H 0.29192 0.9749 0.91876 0.0
H611 H 0.138 0.83596 0.96238 0.0
H612 H 0.04973 0.76903 0.88403 0.0
H613 H 0.0518 0.78393 0.91751 0.0
H614 H 0.28332 0.93834 0.80847 0.0
H615 H 0.08456 0.80834 0.94698 0.0
H616 H 0.39072 1.00899 0.90484 0.0
N617 N 0.28104 0.94464 0.85591 0.0
C618 C 0.31299 0.95846 0.85967 0.0
C619 C 0.29184 0.94357 0.82286 0.0
C620 C 0.33547 0.96385 0.84529 0.0
C621 C 0.27054 0.93908 0.83762 0.0
C622 C 0.32434 0.95539 0.82675 0.0
N623 N 0.30087 0.96405 0.89107 0.0
C624 C 0.30985 0.97723 0.90869 0.0
C625 C 0.3563 0.98492 0.88236 0.0
C626 C 0.32336 0.96906 0.87783 0.0
C627 C 0.36561 0.99663 0.90077 0.0
C628 C 0.34231 0.99322 0.9139 0.0
H629 H 0.3408 0.9591 0.81527 0.0
H630 H 0.38595 0.98249 0.83898 0.0
H631 H 0.40419 1.00084 0.87151 0.0
O632 O 0.23744 0.96852 0.89465 0.0
O633 O 0.27643 0.91533 0.89469 0.0
O634 O 0.25136 0.86237 0.88543 0.0
O635 O 0.25562 0.97652 0.86643 0.0
O636 O 0.23324 0.9263 0.91123 0.0
O637 O 0.23467 0.88062 0.92114 0.0
O638 O 0.18934 0.79328 0.89972 0.0
O639 O 0.18307 0.87356 0.90326 0.0
O640 O 0.19706 0.90349 0.8763 0.0
O641 O 0.22118 0.82425 0.92117 0.0
O642 O 0.22174 0.85227 0.86984 0.0
O643 O 0.21878 0.89745 0.86128 0.0
C644 C 0.27756 0.8898 0.88904 0.0
C645 C 0.21652 0.99113 0.87348 0.0
C646 C 0.18967 0.02321 0.87383 0.0
C647 C 0.16389 0.99848 0.86373 0.0
C648 C 0.19071 0.96722 0.86306 0.0
C649 C 0.16453 0.97083 0.85834 0.0
C650 C 0.21611 0.01937 0.87867 0.0
C651 C 0.23806 0.90957 0.92431 0.0
C652 C 0.24296 0.98577 0.87949 0.0
C653 C 0.36833 0.97846 0.84979 0.0
C654 C 0.37874 0.98899 0.86831 0.0
C655 C 0.17584 0.88691 0.88942 0.0
C656 C 0.22486 0.77776 0.9131 0.0
C657 C 0.22551 0.72695 0.90971 0.0
C658 C 0.25892 0.74416 0.91286 0.0
C659 C 0.25827 0.79414 0.91601 0.0
C660 C 0.20852 0.74401 0.91006 0.0
C661 C 0.27499 0.77731 0.91613 0.0
C662 C 0.21962 0.87113 0.85692 0.0
C663 C 0.20657 0.79516 0.91426 0.0
H664 H 0.14338 1.00078 0.85969 0.0
H665 H 0.19074 0.94569 0.85857 0.0
H666 H 0.14466 0.95211 0.85044 0.0
H667 H 0.23594 0.03794 0.88671 0.0
H668 H 0.27265 0.73185 0.91316 0.0
H669 H 0.2715 0.8199 0.9185 0.0
H670 H 0.18272 0.73115 0.90789 0.0
H671 H 0.30057 0.79001 0.91893 0.0
Tb672 Tb 0.65166 0.81463 0.6131 0.0
C673 C 0.67724 0.7244 0.66097 0.0
N674 N 0.69392 0.75709 0.6616 0.0
C675 C 0.6907 0.75532 0.69548 0.0
C676 C 0.6651 0.70582 0.67752 0.0
C677 C 0.70267 0.77257 0.67863 0.0
C678 C 0.67121 0.72181 0.69489 0.0
C679 C 0.65974 0.67581 0.64251 0.0
C680 C 0.67472 0.70958 0.64381 0.0
C681 C 0.64588 0.65701 0.65876 0.0
C682 C 0.64854 0.672 0.67624 0.0
Tb683 Tb 0.70949 0.78268 0.63297 0.0
N684 N 0.68814 0.72859 0.62843 0.0
C685 C 0.66003 0.66214 0.62506 0.0
C686 C 0.69074 0.71566 0.61174 0.0
C687 C 0.67612 0.6822 0.60969 0.0
H688 H 0.71899 0.79827 0.67928 0.0
H689 H 0.6773 0.67191 0.5963 0.0
H690 H 0.66671 0.81965 0.56715 0.0
H691 H 0.66913 0.9049 0.66558 0.0
H692 H 0.70326 0.73121 0.59992 0.0
H693 H 0.64879 0.63625 0.62345 0.0
H694 H 0.64853 0.85003 0.65406 0.0
H695 H 0.69688 0.76783 0.7089 0.0
H696 H 0.6339 0.63096 0.65806 0.0
H697 H 0.63868 0.65727 0.68877 0.0
H698 H 0.69154 0.86259 0.5432 0.0
H699 H 0.66229 0.70846 0.70797 0.0
H700 H 0.69713 0.95109 0.64381 0.0
N701 N 0.67553 0.85208 0.58993 0.0
C702 C 0.68574 0.88304 0.59514 0.0
C703 C 0.69033 0.86868 0.55779 0.0
C704 C 0.6995 0.90826 0.58182 0.0
C705 C 0.67665 0.84442 0.57147 0.0
C706 C 0.70198 0.90076 0.563 0.0
N707 N 0.6689 0.86432 0.62644 0.0
C708 C 0.66283 0.86961 0.64459 0.0
C709 C 0.69335 0.92131 0.61985 0.0
C710 C 0.68283 0.88942 0.61401 0.0
C711 C 0.68925 0.92692 0.63876 0.0
C712 C 0.67364 0.90092 0.65112 0.0
H713 H 0.71245 0.91947 0.55234 0.0
H714 H 0.7207 0.95972 0.57763 0.0
H715 H 0.71465 0.97102 0.6108 0.0
O716 O 0.61694 0.82908 0.61375 0.0
O717 O 0.70424 0.84166 0.60849 0.0
O718 O 0.72453 0.8339 0.63584 0.0
O719 O 0.61121 0.79133 0.59514 0.0
O720 O 0.64751 0.80287 0.6437 0.0
O721 O 0.69843 0.81269 0.65149 0.0
O722 O 0.75248 0.79581 0.61819 0.0
O723 O 0.66108 0.74805 0.62199 0.0
O724 O 0.62931 0.76978 0.62931 0.0
O725 O 0.74753 0.78168 0.64715 0.0
O726 O 0.71076 0.79271 0.6027 0.0
O727 O 0.6605 0.78369 0.59327 0.0
C728 C 0.72612 0.85266 0.62185 0.0
C729 C 0.56379 0.78909 0.60763 0.0
C730 C 0.51291 0.78801 0.61399 0.0
C731 C 0.49964 0.75587 0.62012 0.0
C732 C 0.54989 0.75716 0.61396 0.0
C733 C 0.51798 0.74066 0.62005 0.0
C734 C 0.54522 0.80445 0.60772 0.0
C735 C 0.6699 0.80798 0.65632 0.0
C736 C 0.598 0.80732 0.60186 0.0
C737 C 0.71014 0.94001 0.58766 0.0
C738 C 0.70688 0.94646 0.60659 0.0
C739 C 0.63299 0.74484 0.6263 0.0
C740 C 0.79881 0.822 0.6371 0.0
C741 C 0.8576 0.84993 0.63581 0.0
C742 C 0.85859 0.87728 0.64382 0.0
C743 C 0.80053 0.84932 0.64551 0.0
C744 C 0.82744 0.82223 0.63243 0.0
C745 C 0.83023 0.87686 0.64869 0.0
C746 C 0.68732 0.78266 0.5902 0.0
C747 C 0.76721 0.79357 0.63298 0.0
H748 H 0.47519 0.74257 0.62537 0.0
H749 H 0.56378 0.7451 0.6144 0.0
H750 H 0.50751 0.71604 0.62497 0.0
H751 H 0.55599 0.82916 0.60287 0.0
H752 H 0.88137 0.89879 0.64674 0.0
H753 H 0.77889 0.8493 0.6497 0.0
H754 H 0.82623 0.80108 0.62605 0.0
H755 H 0.83128 0.89789 0.65509 0.0
Tb756 Tb 0.09033 0.3175 0.88479 0.0
C757 C 0.21103 0.32487 0.91576 0.0
N758 N 0.19359 0.33737 0.9233 0.0
C759 C 0.19385 0.31499 0.95351 0.0
C760 C 0.21936 0.30559 0.92668 0.0
C761 C 0.18582 0.33367 0.94204 0.0
C762 C 0.21043 0.30064 0.94577 0.0
C763 C 0.23665 0.31716 0.88832 0.0
C764 C 0.21946 0.3306 0.89682 0.0
C765 C 0.24439 0.29727 0.89901 0.0
C766 C 0.23587 0.2916 0.91816 0.0
Tb767 Tb 0.18226 0.36785 0.90359 0.0
N768 N 0.2112 0.34968 0.88686 0.0
C769 C 0.24601 0.32453 0.86943 0.0
C770 C 0.22272 0.35902 0.8689 0.0
C771 C 0.2395 0.34599 0.8598 0.0
H772 H 0.17333 0.345 0.94814 0.0
H773 H 0.24794 0.35301 0.84544 0.0
H774 H 0.09406 0.31456 0.83766 0.0
H775 H 0.01919 0.34997 0.92875 0.0
H776 H 0.2201 0.37723 0.86155 0.0
H777 H 0.25921 0.31466 0.86237 0.0
H778 H 0.05042 0.3231 0.92121 0.0
H779 H 0.18726 0.31167 0.96831 0.0
H780 H 0.2573 0.28648 0.89266 0.0
H781 H 0.24217 0.27637 0.92625 0.0
H782 H 0.08489 0.341 0.81045 0.0
H783 H 0.21638 0.28596 0.95465 0.0
H784 H 1.01007 0.38104 0.904 0.0
N785 N 0.07954 0.3374 0.85809 0.0
C786 C 0.06428 0.35445 0.86091 0.0
C787 C 0.0794 0.3454 0.8246 0.0
C788 C 0.0572 0.36888 0.84573 0.0
C789 C 0.08528 0.33103 0.84012 0.0
C790 C 0.06582 0.36491 0.82744 0.0
N791 N 0.0603 0.34041 0.89298 0.0
C792 C 0.04708 0.33716 0.91053 0.0
C793 C 0.03594 0.37101 0.88245 0.0
C794 C 0.05375 0.35551 0.87893 0.0
C795 C 0.02397 0.36952 0.90071 0.0
C796 C 0.02913 0.35206 0.91474 0.0
H797 H 0.06089 0.37567 0.81538 0.0
H798 H 0.03533 0.39725 0.83778 0.0
H799 H 0.0167 0.3991 0.86997 0.0
O800 O 0.05977 0.27312 0.89824 0.0
O801 O 0.10869 0.36683 0.89668 0.0
O802 O 0.16245 0.39402 0.88898 0.0
O803 O 0.0504 0.28153 0.86992 0.0
O804 O 0.1 0.31328 0.91455 0.0
O805 O 0.14447 0.36115 0.92448 0.0
O806 O 0.23197 0.40179 0.90271 0.0
O807 O 0.15218 0.3152 0.90675 0.0
O808 O 0.1233 0.29917 0.87944 0.0
O809 O 0.20208 0.40431 0.92431 0.0
O810 O 0.17377 0.37568 0.87366 0.0
O811 O 0.12929 0.32734 0.86472 0.0
C812 C 0.13569 0.39384 0.89298 0.0
C813 C 1.00568 0.24337 0.88783 0.0
C814 C 0.95554 0.1919 0.89223 0.0
C815 C 0.93952 0.20915 0.89589 0.0
C816 C 0.9889 0.25984 0.89114 0.0
C817 C 0.95608 0.2428 0.89525 0.0
C818 C 0.98883 0.20933 0.88818 0.0
C819 C 0.1154 0.33574 0.92741 0.0
C820 C 0.04059 0.26117 0.88384 0.0
C821 C 0.04074 0.38573 0.84923 0.0
C822 C 0.03008 0.38674 0.86755 0.0
C823 C 0.14008 0.29494 0.8926 0.0
C824 C 0.24755 0.45391 0.91428 0.0
C825 C 0.29785 0.5057 0.90972 0.0
C826 C 0.27961 0.52134 0.91062 0.0
C827 C 0.2303 0.4704 0.91477 0.0
C828 C 0.28135 0.47168 0.91168 0.0
C829 C 0.24627 0.50383 0.91296 0.0
C830 C 0.15496 0.35513 0.86054 0.0
C831 C 0.23074 0.41837 0.91683 0.0
H832 H 0.91395 0.19657 0.89886 0.0
H833 H 1.00104 0.28581 0.8904 0.0
H834 H 0.94333 0.25573 0.89784 0.0
H835 H 1.00165 0.19648 0.88549 0.0
H836 H 0.29108 0.54732 0.90979 0.0
H837 H 0.20445 0.45751 0.91672 0.0
H838 H 0.29459 0.45889 0.91103 0.0
H839 H 0.23273 0.51632 0.91355 0.0
Tb840 Tb 0.20422 0.84045 0.61142 0.0
C841 C 0.29999 0.95925 0.66285 0.0
N842 N 0.26734 0.94225 0.66314 0.0
C843 C 0.26774 0.94243 0.69703 0.0
C844 C 0.31793 0.96824 0.67972 0.0
C845 C 0.25101 0.93427 0.67989 0.0
C846 C 0.30136 0.95932 0.69696 0.0
C847 C 0.34921 0.98608 0.64448 0.0
C848 C 0.31542 0.96796 0.64552 0.0
C849 C 0.36731 0.99489 0.66123 0.0
C850 C 0.35171 0.98594 0.67882 0.0
Tb851 Tb 0.24281 0.9291 0.63434 0.0
N852 N 0.29708 0.95827 0.62962 0.0
C853 C 0.36368 0.99493 0.62664 0.0
C854 C 0.31094 0.96802 0.61223 0.0
C855 C 0.34444 0.98612 0.61046 0.0
H856 H 0.22504 0.92204 0.68004 0.0
H857 H 0.35538 0.9934 0.59663 0.0
H858 H 0.19461 0.85204 0.56637 0.0
H859 H 0.11864 0.77377 0.66716 0.0
H860 H 0.29632 0.9619 0.59973 0.0
H861 H 0.38961 1.00891 0.62521 0.0
H862 H 0.17212 0.80357 0.65299 0.0
H863 H 0.25471 0.93593 0.71027 0.0
H864 H 0.39334 1.00873 0.66075 0.0
H865 H 0.36596 0.99302 0.69162 0.0
H866 H 0.14928 0.83723 0.54451 0.0
H867 H 0.31425 0.96571 0.71025 0.0
H868 H 0.07048 0.75993 0.64799 0.0
N869 N 0.16447 0.82936 0.59015 0.0
C870 C 0.13387 0.81126 0.5967 0.0
C871 C 0.14464 0.8299 0.55917 0.0
C872 C 0.10731 0.80195 0.58466 0.0
C873 C 0.17026 0.83847 0.57162 0.0
C874 C 0.11303 0.81159 0.56571 0.0
N875 N 0.15575 0.81243 0.62686 0.0
C876 C 0.15197 0.80062 0.64484 0.0
C877 C 0.09798 0.78387 0.62293 0.0
C878 C 0.12939 0.80278 0.61568 0.0
C879 C 0.0942 0.77443 0.64187 0.0
C880 C 0.12133 0.78244 0.65278 0.0
H881 H 0.09325 0.80496 0.55602 0.0
H882 H 0.05528 0.77601 0.5829 0.0
H883 H 0.04713 0.7596 0.6163 0.0
O884 O 0.20274 0.79717 0.61929 0.0
O885 O 0.18019 0.86935 0.60873 0.0
O886 O 0.19107 0.89561 0.63697 0.0
O887 O 0.20498 0.80989 0.59021 0.0
O888 O 0.22126 0.84754 0.64126 0.0
O889 O 0.21061 0.88686 0.65079 0.0
O890 O 0.23691 0.96368 0.61924 0.0
O891 O 0.27473 0.90792 0.6329 0.0
O892 O 0.25637 0.86914 0.60914 0.0
O893 O 0.23824 0.96436 0.64956 0.0
O894 O 0.23508 0.92441 0.60367 0.0
O895 O 0.23604 0.87951 0.59171 0.0
C896 C 0.17185 0.88194 0.62253 0.0
C897 C 0.17433 0.75403 0.59785 0.0
C898 C 0.14854 0.6954 0.60239 0.0
C899 C 0.12285 0.69145 0.59101 0.0
C900 C 0.14865 0.74897 0.58609 0.0
C901 C 0.12305 0.718 0.58288 0.0
C902 C 0.17439 0.72694 0.60577 0.0
C903 C 0.21731 0.86423 0.6548 0.0
C904 C 0.20074 0.78732 0.60199 0.0
C905 C 0.07604 0.78346 0.59192 0.0
C906 C 0.0714 0.77429 0.61097 0.0
C907 C 0.27849 0.88862 0.62113 0.0
C908 C 0.25584 0.01417 0.63423 0.0
C909 C 0.25869 0.06666 0.63247 0.0
C910 C 0.29231 0.08169 0.63465 0.0
C911 C 0.28932 0.02982 0.63625 0.0
C912 C 0.2406 0.03263 0.63229 0.0
C913 C 0.30741 0.06339 0.63645 0.0
C914 C 0.24018 0.90893 0.5899 0.0
C915 C 0.23636 0.97871 0.63446 0.0
H916 H 0.10285 0.66761 0.58802 0.0
H917 H 0.14829 0.76888 0.57923 0.0
H918 H 0.10335 0.71454 0.57389 0.0
H919 H 0.19423 0.73039 0.61466 0.0
H920 H 0.30703 0.10769 0.6353 0.0
H921 H 0.30149 0.01618 0.63781 0.0
H922 H 0.21472 0.02042 0.63053 0.0
H923 H 0.33325 0.07529 0.63816 0.0
Tb924 Tb 0.70956 0.77833 0.88436 0.0
C925 C 0.69383 0.88781 0.91586 0.0
N926 N 0.68086 0.85725 0.92267 0.0
C927 C 0.6962 0.87759 0.95415 0.0
C928 C 0.70966 0.91461 0.92797 0.0
C929 C 0.68089 0.85173 0.94157 0.0
C930 C 0.71086 0.90916 0.94731 0.0
C931 C 0.70601 0.92347 0.88898 0.0
C932 C 0.69206 0.89208 0.89654 0.0
C933 C 0.72222 0.95027 0.90097 0.0
C934 C 0.72399 0.94585 0.92041 0.0
Tb935 Tb 0.65551 0.81726 0.90104 0.0
N936 N 0.67627 0.86554 0.88529 0.0
C937 C 0.70274 0.92703 0.86964 0.0
C938 C 0.6708 0.86913 0.86672 0.0
C939 C 0.68465 0.89975 0.85854 0.0
H940 H 0.66896 0.82746 0.94705 0.0
H941 H 0.68067 0.90232 0.84375 0.0
H942 H 0.71092 0.78247 0.83699 0.0
H943 H 0.68264 0.67824 0.9302 0.0
H944 H 0.65477 0.84883 0.85818 0.0
H945 H 0.71311 0.95072 0.86328 0.0
H946 H 0.70688 0.73584 0.92161 0.0
H947 H 0.69655 0.87317 0.96912 0.0
H948 H 0.73318 0.97454 0.89538 0.0
H949 H 0.73647 0.96677 0.92947 0.0
H950 H 0.6858 0.74462 0.8105 0.0
H951 H 0.72282 0.92913 0.95709 0.0
H952 H 0.65306 0.63611 0.90611 0.0
N953 N 0.6902 0.74605 0.85815 0.0
C954 C 0.67507 0.7138 0.86152 0.0
C955 C 0.68207 0.73571 0.82483 0.0
C956 C 0.6614 0.69121 0.84674 0.0
C957 C 0.69563 0.75715 0.83997 0.0
C958 C 0.66432 0.70261 0.82825 0.0
N959 N 0.68933 0.72608 0.89346 0.0
C960 C 0.69348 0.71755 0.91119 0.0
C961 C 0.66124 0.67039 0.88386 0.0
C962 C 0.67512 0.70345 0.87975 0.0
C963 C 0.6634 0.66129 0.90236 0.0
C964 C 0.68003 0.68501 0.91601 0.0
H965 H 0.65417 0.68608 0.81647 0.0
H966 H 0.63541 0.64036 0.83966 0.0
H967 H 0.63516 0.62213 0.87222 0.0
O968 O 0.75369 0.79279 0.89812 0.0
O969 O 0.66062 0.74574 0.8958 0.0
O970 O 0.63178 0.77015 0.88726 0.0
O971 O 0.74563 0.77385 0.87007 0.0
O972 O 0.7116 0.79244 0.91398 0.0
O973 O 0.66265 0.7878 0.92289 0.0
O974 O 0.62361 0.83499 0.8983 0.0
O975 O 0.70788 0.8418 0.90582 0.0
O976 O 0.72653 0.82962 0.87928 0.0
O977 O 0.61421 0.79823 0.91853 0.0
O978 O 0.65036 0.80131 0.87111 0.0
O979 O 0.69991 0.80673 0.86378 0.0
C980 C 0.63309 0.74468 0.89265 0.0
C981 C 0.79804 0.81513 0.87736 0.0
C982 C 0.85691 0.84304 0.87673 0.0
C983 C 0.85709 0.8685 0.86675 0.0
C984 C 0.79898 0.84051 0.86697 0.0
C985 C 0.82831 0.86711 0.86185 0.0
C986 C 0.82712 0.81626 0.88203 0.0
C987 C 0.68847 0.78514 0.92644 0.0
C988 C 0.76675 0.78781 0.88336 0.0
C989 C 0.64633 0.65809 0.85081 0.0
C990 C 0.64626 0.6477 0.86935 0.0
C991 C 0.72969 0.85025 0.8925 0.0
C992 C 0.56945 0.798 0.90367 0.0
C993 C 0.51967 0.79839 0.89643 0.0
C994 C 0.50761 0.76806 0.88776 0.0
C995 C 0.5572 0.76846 0.89422 0.0
C996 C 0.55054 0.81297 0.90476 0.0
C997 C 0.52626 0.75328 0.8867 0.0
C998 C 0.67212 0.80362 0.85872 0.0
C999 C 0.6031 0.81508 0.91041 0.0
H1000 H 0.87955 0.88923 0.86236 0.0
H1001 H 0.77701 0.8397 0.8627 0.0
H1002 H 0.82874 0.88664 0.85394 0.0
H1003 H 0.82657 0.7966 0.8899 0.0
H1004 H 0.48379 0.75587 0.88158 0.0
H1005 H 0.57185 0.7575 0.8922 0.0
H1006 H 0.56041 0.83648 0.91131 0.0
H1007 H 0.51695 0.73029 0.87962 0.0
H1008 H 0.08856 0.22687 0.14294 0.0
H1009 H 0.13576 0.22075 0.1377 0.0
H1010 H 0.07452 0.12582 0.1147 0.0
H1011 H 0.02743 0.13162 0.12028 0.0
H1012 H 0.11255 0.12402 0.14105 0.0
H1013 H 0.18731 0.22401 0.09196 0.0
H1014 H 0.17655 0.23729 0.11302 0.0
H1015 H 0.14568 0.2113 0.09669 0.0
C1016 C 0.08532 0.20504 0.13636 0.0
C1017 C 0.05427 0.1797 0.13208 0.0
C1018 C 0.11234 0.20156 0.13332 0.0
C1019 C 0.10887 0.17288 0.12565 0.0
C1020 C 0.07794 0.14815 0.12066 0.0
H1021 H 0.26208 0.13317 0.09302 0.0
H1022 H 0.21634 0.14274 0.09298 0.0
C1023 C 0.05101 0.15149 0.12385 0.0
C1024 C 0.13676 0.16729 0.1243 0.0
H1025 H 0.21286 0.19768 0.1065 0.0
C1026 C 0.13437 0.14009 0.13338 0.0
C1027 C 0.16524 0.18799 0.11416 0.0
C1028 C 0.16881 0.2166 0.10324 0.0
C1029 C 0.15964 0.13331 0.13287 0.0
C1030 C 0.18853 0.15463 0.12335 0.0
C1031 C 0.19083 0.18152 0.11395 0.0
C1032 C 0.21661 0.14944 0.12324 0.0
C1033 C 0.15504 0.10307 0.1423 0.0
C1034 C 0.23216 0.15033 0.1402 0.0
C1035 C 0.25823 0.14496 0.14023 0.0
C1036 C 0.26947 0.13878 0.12327 0.0
C1037 C 0.25396 0.13795 0.10628 0.0
C1038 C 0.22789 0.14345 0.10625 0.0
H1039 H 0.12923 0.08551 0.14494 0.0
H1040 H 0.16533 0.09123 0.13349 0.0
H1041 H 0.16765 0.10941 0.1561 0.0
H1042 H 0.22424 0.1554 0.15344 0.0
H1043 H 0.26991 0.14612 0.15353 0.0
H1044 H 0.1565 0.94074 0.3676 0.0
H1045 H 0.10382 0.89247 0.37262 0.0
H1046 H 0.07012 0.9503 0.40026 0.0
H1047 H 0.12244 0.99861 0.39494 0.0
H1048 H 0.06657 0.86185 0.40339 0.0
H1049 H 1.00528 0.90904 0.35815 0.0
H1050 H 0.04849 0.928 0.35943 0.0
H1051 H 0.02646 0.93497 0.37764 0.0
C1052 C 0.13798 0.94304 0.37499 0.0
C1053 C 0.14344 0.97348 0.38068 0.0
C1054 C 0.10786 0.91548 0.37779 0.0
C1055 C 0.08274 0.91787 0.38639 0.0
C1056 C 0.0888 0.94798 0.39309 0.0
H1057 H 0.89779 0.75501 0.42256 0.0
H1058 H 0.95258 0.80136 0.42176 0.0
C1059 C 0.11875 0.97554 0.39013 0.0
C1060 C 0.04994 0.88915 0.38773 0.0
H1061 H 0.97179 0.86063 0.37473 0.0
C1062 C 0.04582 0.86156 0.39714 0.0
C1063 C 0.02294 0.88857 0.37926 0.0
C1064 C 0.02597 0.91659 0.36789 0.0
C1065 C 0.01543 0.83354 0.39847 0.0
C1066 C 0.98829 0.83331 0.3905 0.0
C1067 C 0.9925 0.86086 0.381 0.0
C1068 C 0.95543 0.8045 0.39121 0.0
C1069 C 1.01287 0.80405 0.40774 0.0
C1070 C 0.93841 0.79123 0.37438 0.0
C1071 C 0.90702 0.76505 0.37483 0.0
C1072 C 0.892 0.75148 0.39215 0.0
C1073 C 0.90896 0.76472 0.40901 0.0
C1074 C 0.94035 0.79109 0.40855 0.0
H1075 H 0.03668 0.80565 0.40903 0.0
H1076 H 1.00271 0.80137 0.42216 0.0
H1077 H 0.99667 0.78219 0.3995 0.0
H1078 H 0.94947 0.80117 0.36083 0.0
H1079 H 0.89462 0.75525 0.3616 0.0
H1080 H 0.87992 0.13259 0.15745 0.0
H1081 H 0.86395 0.07525 0.15879 0.0
H1082 H 0.86778 0.07259 0.09798 0.0
H1083 H 0.88376 0.1298 0.09661 0.0
H1084 H 0.80748 0.02377 0.14085 0.0
H1085 H 0.91998 0.02948 0.11609 0.0
H1086 H 0.91907 0.06412 0.12543 0.0
H1087 H 0.906 0.05086 0.10168 0.0
C1088 C 0.87787 0.11985 0.14441 0.0
C1089 C 0.88297 0.13555 0.12692 0.0
C1090 C 0.8686 0.08709 0.14518 0.0
C1091 C 0.86494 0.06966 0.12849 0.0
C1092 C 0.87091 0.08561 0.11105 0.0
H1093 H 0.75502 0.86521 0.10561 0.0
H1094 H 0.77898 0.92372 0.10656 0.0
C1095 C 0.87986 0.11823 0.11027 0.0
C1096 C 0.85317 0.03442 0.1292 0.0
H1097 H 0.87334 0.97736 0.11786 0.0
C1098 C 0.82192 0.01364 0.1359 0.0
C1099 C 0.87215 0.02122 0.12293 0.0
C1100 C 0.90628 0.04251 0.11626 0.0
C1101 C 0.80883 0.98001 0.13598 0.0
C1102 C 0.8274 0.9667 0.12914 0.0
C1103 C 0.85901 0.98753 0.12296 0.0
C1104 C 0.81403 0.93119 0.12802 0.0
C1105 C 0.77516 0.9589 0.14344 0.0
C1106 C 0.82635 0.91587 0.13938 0.0
C1107 C 0.81247 0.8822 0.13901 0.0
C1108 C 0.78609 0.86313 0.12715 0.0
C1109 C 0.77473 0.87885 0.11527 0.0
C1110 C 0.78848 0.9124 0.11573 0.0
H1111 H 0.7669 0.97282 0.15202 0.0
H1112 H 0.7584 0.94798 0.13137 0.0
H1113 H 0.77375 0.93904 0.15222 0.0
H1114 H 0.84616 0.9299 0.14892 0.0
H1115 H 0.82177 0.87107 0.14847 0.0
H1116 H 0.27171 0.13934 0.3536 0.0
H1117 H 0.22996 0.15359 0.34897 0.0
H1118 H 0.22209 0.16026 0.40933 0.0
H1119 H 0.26441 0.14656 0.41401 0.0
H1120 H 0.16796 0.12477 0.35958 0.0
H1121 H 0.23396 0.24575 0.39278 0.0
H1122 H 0.25296 0.22288 0.38631 0.0
H1123 H 0.22975 0.21359 0.40772 0.0
C1124 C 0.26092 0.14359 0.36591 0.0
C1125 C 0.27123 0.14162 0.38419 0.0
C1126 C 0.2371 0.15187 0.36324 0.0
C1127 C 0.22304 0.15845 0.37876 0.0
C1128 C 0.23299 0.15604 0.39708 0.0
H1129 H 0.04682 0.17021 0.36885 0.0
H1130 H 0.08564 0.15289 0.37586 0.0
C1131 C 0.25702 0.14796 0.39976 0.0
C1132 C 0.19799 0.16771 0.37564 0.0
H1133 H 0.18026 0.22743 0.38385 0.0
C1134 C 0.17064 0.14722 0.36491 0.0
C1135 C 0.20156 0.19718 0.38235 0.0
C1136 C 0.23124 0.22132 0.39281 0.0
C1137 C 0.14695 0.15537 0.3607 0.0
C1138 C 0.15025 0.18453 0.36779 0.0
C1139 C 0.17753 0.20496 0.37855 0.0
C1140 C 0.12639 0.19499 0.36371 0.0
C1141 C 0.11917 0.13312 0.34821 0.0
C1142 C 0.13639 0.22494 0.3551 0.0
C1143 C 0.11435 0.23528 0.35142 0.0
C1144 C 0.08167 0.2159 0.35627 0.0
C1145 C 0.07177 0.18598 0.36505 0.0
C1146 C 0.0939 0.17576 0.36882 0.0
H1147 H 0.12476 0.11695 0.3398 0.0
H1148 H 0.09791 0.11777 0.35717 0.0
H1149 H 0.11266 0.14695 0.33836 0.0
H1150 H 0.16136 0.24038 0.35115 0.0
H1151 H 0.12308 0.25869 0.34498 0.0
H1152 H 0.15835 0.94104 0.14507 0.0
H1153 H 0.10569 0.89187 0.14207 0.0
H1154 H 0.0674 0.94691 0.1161 0.0
H1155 H 0.11961 0.996 0.11948 0.0
H1156 H 0.02931 0.9111 0.1437 0.0
H1157 H 0.05716 0.83354 0.09871 0.0
H1158 H 0.08158 0.8477 0.11955 0.0
H1159 H 0.08498 0.87605 0.10176 0.0
C1160 C 0.13886 0.94245 0.13833 0.0
C1161 C 0.14314 0.97242 0.13253 0.0
C1162 C 0.10872 0.91429 0.13659 0.0
C1163 C 0.08241 0.91545 0.12871 0.0
C1164 C 0.08714 0.94524 0.12227 0.0
H1165 H 0.8951 0.75572 0.09612 0.0
H1166 H 0.95039 0.8011 0.09732 0.0
C1167 C 0.11705 0.97333 0.12417 0.0
C1168 C 0.0494 0.88643 0.12841 0.0
H1169 H 1.00535 0.80836 0.11311 0.0
C1170 C 0.02414 0.88869 0.13695 0.0
C1171 C 0.04237 0.85713 0.11949 0.0
C1172 C 0.06787 0.85346 0.10919 0.0
C1173 C 0.99232 0.86275 0.13684 0.0
C1174 C 0.98543 0.83318 0.12839 0.0
C1175 C 1.0106 0.83087 0.11977 0.0
C1176 C 0.9521 0.80481 0.12783 0.0
C1177 C 0.96624 0.86766 0.14534 0.0
C1178 C 0.9346 0.79134 0.14456 0.0
C1179 C 0.9029 0.76548 0.14388 0.0
C1180 C 0.88823 0.75218 0.12646 0.0
C1181 C 0.90587 0.76534 0.10976 0.0
C1182 C 0.93748 0.79128 0.11043 0.0
H1183 H 0.97381 0.89364 0.14639 0.0
H1184 H 0.94382 0.85534 0.13686 0.0
H1185 H 0.96079 0.85746 0.15983 0.0
H1186 H 0.9455 0.80077 0.15819 0.0
H1187 H 0.89004 0.75555 0.15699 0.0
H1188 H 0.75807 0.86448 0.40262 0.0
H1189 H 0.78399 0.92293 0.40431 0.0
H1190 H 0.86804 0.93156 0.37668 0.0
H1191 H 0.84129 0.87302 0.37358 0.0
H1192 H 0.83549 0.96801 0.4208 0.0
H1193 H 0.85169 0.98873 0.34348 0.0
H1194 H 0.82835 0.949 0.35347 0.0
H1195 H 0.87159 0.96853 0.35278 0.0
C1196 C 0.78186 0.87867 0.39658 0.0
C1197 C 0.79718 0.8637 0.38761 0.0
C1198 C 0.79687 0.91226 0.39777 0.0
C1199 C 0.82777 0.93191 0.39024 0.0
C1200 C 0.84384 0.9171 0.38211 0.0
H1201 H 0.92226 0.14086 0.41598 0.0
H1202 H 0.91126 0.08504 0.4148 0.0
C1203 C 0.82863 0.88343 0.38064 0.0
C1204 C 0.84263 0.96773 0.39078 0.0
H1205 H 0.8737 0.03492 0.36287 0.0
C1206 C 0.84389 0.98265 0.40813 0.0
C1207 C 0.85339 0.98694 0.37424 0.0
C1208 C 0.85094 0.9725 0.35492 0.0
C1209 C 0.85479 0.01585 0.40935 0.0
C1210 C 0.86589 0.03514 0.39283 0.0
C1211 C 0.86541 0.02033 0.37557 0.0
C1212 C 0.87534 0.06997 0.39271 0.0
C1213 C 0.85284 0.02946 0.42823 0.0
C1214 C 0.86051 0.08085 0.37993 0.0
C1215 C 0.8676 0.11287 0.38017 0.0
C1216 C 0.88911 0.13474 0.3935 0.0
C1217 C 0.90522 0.12444 0.40571 0.0
C1218 C 0.89858 0.09239 0.40522 0.0
H1219 H 0.83528 0.01039 0.43782 0.0
H1220 H 0.87677 0.04072 0.43514 0.0
H1221 H 0.84578 0.04807 0.42657 0.0
H1222 H 0.84275 0.06434 0.36999 0.0
H1223 H 0.85553 0.1203 0.37019 0.0
H1224 H 0.20072 0.055 0.64741 0.0
H1225 H 0.17688 0.08978 0.64594 0.0
H1226 H 0.2573 0.15889 0.61282 0.0
H1227 H 0.28079 0.12399 0.61359 0.0
H1228 H 0.23836 0.18114 0.64914 0.0
H1229 H 0.14036 0.11528 0.59676 0.0
H1230 H 0.14631 0.09257 0.61503 0.0
H1231 H 0.17622 0.11195 0.59702 0.0
C1232 C 0.21308 0.07727 0.63948 0.0
C1233 C 0.24288 0.08666 0.63072 0.0
C1234 C 0.19945 0.09719 0.63874 0.0
C1235 C 0.21534 0.12688 0.62926 0.0
C1236 C 0.2447 0.13609 0.62024 0.0
H1237 H 0.15532 0.26356 0.59748 0.0
H1238 H 0.17229 0.22315 0.59862 0.0
C1239 C 0.2582 0.11615 0.62084 0.0
C1240 C 0.20234 0.14923 0.6295 0.0
H1241 H 0.14488 0.16242 0.61009 0.0
C1242 C 0.21787 0.17708 0.64065 0.0
C1243 C 0.17571 0.14384 0.61838 0.0
C1244 C 0.15858 0.1144 0.606 0.0
C1245 C 0.20762 0.19988 0.64094 0.0
C1246 C 0.18088 0.19463 0.62977 0.0
C1247 C 0.16533 0.16659 0.61863 0.0
C1248 C 0.16919 0.21821 0.62909 0.0
C1249 C 0.22606 0.22948 0.65308 0.0
C1250 C 0.1609 0.2284 0.64573 0.0
C1251 C 0.15206 0.25211 0.64511 0.0
C1252 C 0.15073 0.2658 0.6278 0.0
C1253 C 0.15704 0.25416 0.61106 0.0
C1254 C 0.16645 0.23083 0.61171 0.0
H1255 H 0.25158 0.23582 0.65468 0.0
H1256 H 0.22551 0.25059 0.64726 0.0
H1257 H 0.21512 0.22446 0.66739 0.0
H1258 H 0.16179 0.21839 0.65927 0.0
H1259 H 0.14693 0.26019 0.65828 0.0
H1260 H 0.14118 0.88288 0.85801 0.0
H1261 H 0.08633 0.87405 0.85672 0.0
H1262 H 0.08259 0.87363 0.91764 0.0
H1263 H 0.13728 0.88217 0.91894 0.0
H1264 H 0.02792 0.82457 0.9027 0.0
H1265 H 0.05792 0.93905 0.86683 0.0
H1266 H 0.07119 0.91546 0.85405 0.0
H1267 H 0.08825 0.93177 0.8768 0.0
C1268 C 0.12872 0.88124 0.8711 0.0
C1269 C 0.14339 0.88316 0.88858 0.0
C1270 C 0.09741 0.87623 0.87036 0.0
C1271 C 0.08041 0.87359 0.88709 0.0
C1272 C 0.09518 0.87563 0.90455 0.0
H1273 H 0.91032 0.89301 0.89262 0.0
H1274 H 0.96351 0.89866 0.89637 0.0
C1275 C 0.1264 0.8805 0.90528 0.0
C1276 C 0.04713 0.86832 0.88645 0.0
H1277 H 1.00239 0.90024 0.86974 0.0
C1278 C 0.02232 0.84116 0.89555 0.0
C1279 C 0.0399 0.89022 0.87736 0.0
C1280 C 0.06574 0.92092 0.86837 0.0
C1281 C 0.99047 0.83513 0.89567 0.0
C1282 C 0.98299 0.85642 0.886 0.0
C1283 C 1.00793 0.88373 0.87703 0.0
C1284 C 0.94973 0.85142 0.88522 0.0
C1285 C 0.96538 0.80646 0.90657 0.0
C1286 C 0.92393 0.82277 0.87798 0.0
C1287 C 0.89329 0.81933 0.87608 0.0
C1288 C 0.88803 0.84472 0.88104 0.0
C1289 C 0.91369 0.87309 0.88861 0.0
C1290 C 0.94413 0.87635 0.89072 0.0
H1291 H 0.97648 0.79873 0.91764 0.0
H1292 H 0.94779 0.81186 0.91341 0.0
H1293 H 0.95217 0.78593 0.89673 0.0
H1294 H 0.92769 0.80345 0.87318 0.0
H1295 H 0.8741 0.79741 0.86995 0.0
H1296 H 0.76111 0.89015 0.65168 0.0
H1297 H 0.80437 0.94662 0.65109 0.0
H1298 H 0.79391 0.94904 0.59073 0.0
H1299 H 0.75127 0.89238 0.59117 0.0
H1300 H 0.86442 0.97686 0.63009 0.0
H1301 H 0.78516 0.02577 0.61053 0.0
H1302 H 0.77034 0.98677 0.62138 0.0
H1303 H 0.78034 0.9922 0.59664 0.0
C1304 C 0.76822 0.90262 0.63825 0.0
C1305 C 0.75258 0.88681 0.62147 0.0
C1306 C 0.79289 0.93495 0.63795 0.0
C1307 C 0.80218 0.95225 0.62091 0.0
C1308 C 0.78684 0.93639 0.6041 0.0
H1309 H 0.93521 0.14689 0.58492 0.0
H1310 H 0.89637 0.08942 0.58768 0.0
C1311 C 0.76237 0.90401 0.60438 0.0
C1312 C 0.82776 0.98691 0.62065 0.0
H1313 H 0.84104 0.06218 0.61008 0.0
C1314 C 0.85933 0.99557 0.62581 0.0
C1315 C 0.8211 0.01135 0.6152 0.0
C1316 C 0.78737 1.00379 0.61074 0.0
C1317 C 0.88453 0.02789 0.62506 0.0
C1318 C 0.87789 0.05223 0.61924 0.0
C1319 C 0.84623 0.04354 0.61438 0.0
C1320 C 0.90334 0.08683 0.61767 0.0
C1321 C 0.91818 0.03562 0.63 0.0
C1322 C 0.92042 0.10468 0.63361 0.0
C1323 C 0.94262 0.1378 0.63211 0.0
C1324 C 0.94804 0.15382 0.61465 0.0
C1325 C 0.93132 0.13561 0.59867 0.0
C1326 C 0.90919 0.10263 0.60019 0.0
H1327 H 0.92057 0.01373 0.62995 0.0
H1328 H 0.93594 0.05345 0.61995 0.0
H1329 H 0.92423 0.04628 0.64437 0.0
H1330 H 0.91592 0.09323 0.64733 0.0
H1331 H 0.95472 0.15105 0.64475 0.0
H1332 H 0.14847 0.26821 0.8606 0.0
H1333 H 0.16012 0.22402 0.85829 0.0
H1334 H 0.15711 0.2159 0.91905 0.0
H1335 H 0.1459 0.26037 0.92138 0.0
H1336 H 0.20763 0.2121 0.90423 0.0
H1337 H 0.09581 0.12948 0.86557 0.0
H1338 H 0.11977 0.16741 0.85389 0.0
H1339 H 0.10199 0.16614 0.8765 0.0
C1340 C 0.14999 0.25675 0.87344 0.0
C1341 C 0.14613 0.26758 0.89117 0.0
C1342 C 0.15666 0.2315 0.87212 0.0
C1343 C 0.15898 0.21617 0.88848 0.0
C1344 C 0.15534 0.22719 0.90621 0.0
H1345 H 0.13992 0.02655 0.89014 0.0
H1346 H 0.13474 0.07424 0.89492 0.0
C1347 C 0.14889 0.25257 0.90754 0.0
C1348 C 0.16487 0.18846 0.88716 0.0
H1349 H 0.13455 0.11297 0.86852 0.0
C1350 C 0.19162 0.19037 0.89646 0.0
C1351 C 0.14378 0.1599 0.87724 0.0
C1352 C 0.11356 0.15537 0.86789 0.0
C1353 C 0.19795 0.16466 0.89599 0.0
C1354 C 0.17733 0.13644 0.88561 0.0
C1355 C 0.15053 0.13458 0.8764 0.0
C1356 C 0.18229 0.10808 0.88441 0.0
C1357 C 0.22617 0.1677 0.90703 0.0
C1358 C 0.21099 0.11103 0.87722 0.0
C1359 C 0.21413 0.08366 0.87467 0.0
C1360 C 0.18842 0.05276 0.87894 0.0
C1361 C 0.16009 0.05 0.88659 0.0
C1362 C 0.1571 0.07728 0.88931 0.0
H1363 H 0.23364 0.18614 0.91836 0.0
H1364 H 0.22044 0.14436 0.91355 0.0
H1365 H 0.24692 0.17525 0.89734 0.0
H1366 H 0.23056 0.13433 0.87291 0.0
H1367 H 0.23608 0.08652 0.86852 0.0
H1368 H 0.13688 0.88019 0.65337 0.0
H1369 H 0.08245 0.87227 0.65407 0.0
H1370 H 0.0785 0.8666 0.59321 0.0
H1371 H 0.13283 0.8741 0.59247 0.0
H1372 H 0.06007 0.90889 0.63956 0.0
H1373 H 0.9943 0.78748 0.60688 0.0
H1374 H 0.03437 0.80438 0.61635 0.0
H1375 H 0.02825 0.81645 0.5934 0.0
C1376 C 0.1244 0.87724 0.64013 0.0
C1377 C 0.13904 0.87756 0.62286 0.0
C1378 C 0.09323 0.8726 0.64055 0.0
C1379 C 0.07605 0.86828 0.62372 0.0
C1380 C 0.09082 0.86898 0.60642 0.0
H1381 H 0.91038 0.89677 0.61738 0.0
H1382 H 0.9628 0.90061 0.61337 0.0
C1383 C 0.12195 0.87344 0.60601 0.0
C1384 C 0.04327 0.86441 0.62435 0.0
H1385 H 0.96492 0.81453 0.61148 0.0
C1386 C 0.03928 0.88823 0.63344 0.0
C1387 C 0.01597 0.83723 0.6166 0.0
C1388 C 0.01821 0.80972 0.60788 0.0
C1389 C 1.00894 0.88577 0.6349 0.0
C1390 C 0.98183 0.85915 0.62656 0.0
C1391 C 0.98573 0.83515 0.61763 0.0
C1392 C 0.94915 0.85545 0.62743 0.0
C1393 C 1.00618 0.91133 0.64583 0.0
C1394 C 0.92341 0.82795 0.63572 0.0
C1395 C 0.89321 0.82546 0.63774 0.0
C1396 C 0.88825 0.85051 0.63158 0.0
C1397 C 0.91365 0.87734 0.62255 0.0
C1398 C 0.94367 0.87964 0.62035 0.0
H1399 H 0.02664 0.92441 0.65574 0.0
H1400 H 1.00643 0.92924 0.6358 0.0
H1401 H 0.98342 0.90073 0.65404 0.0
H1402 H 0.92695 0.80884 0.64117 0.0
H1403 H 0.87414 0.80457 0.64482 0.0
H1404 H 0.91228 0.15226 0.91874 0.0
H1405 H 0.8783 0.09346 0.91779 0.0
H1406 H 0.922 0.09101 0.86506 0.0
H1407 H 0.95635 0.15003 0.86597 0.0
H1408 H 0.84646 0.05689 0.86883 0.0
H1409 H 0.90893 0.02248 0.92213 0.0
H1410 H 0.90349 0.0562 0.92751 0.0
H1411 H 0.92968 0.0593 0.90854 0.0
C1412 C 0.91486 0.13921 0.907 0.0
C1413 C 0.93704 0.15588 0.89242 0.0
C1414 C 0.89548 0.10559 0.90651 0.0
C1415 C 0.89764 0.08783 0.89138 0.0
C1416 C 0.92003 0.10424 0.87691 0.0
H1417 H 0.76411 0.88466 0.8615 0.0
H1418 H 0.80667 0.94133 0.86028 0.0
C1419 C 0.93976 0.13793 0.8775 0.0
C1420 C 0.87541 0.05234 0.89039 0.0
H1421 H 0.85874 0.98117 0.91101 0.0
C1422 C 0.84924 0.04022 0.87791 0.0
C1423 C 0.87891 0.03074 0.90237 0.0
C1424 C 0.90682 0.0426 0.91588 0.0
C1425 C 0.82592 1.00719 0.87748 0.0
C1426 C 0.82935 0.98539 0.8895 0.0
C1427 C 0.85595 0.99763 0.90177 0.0
C1428 C 0.80502 0.95014 0.89018 0.0
C1429 C 0.7972 0.99635 0.86469 0.0
C1430 C 0.791 0.93542 0.9075 0.0
C1431 C 0.76737 0.90277 0.90829 0.0
C1432 C 0.75682 0.88407 0.89175 0.0
C1433 C 0.7716 0.89841 0.8745 0.0
C1434 C 0.79564 0.93101 0.87375 0.0
H1435 H 0.79301 0.01654 0.86118 0.0
H1436 H 0.8016 0.98723 0.85126 0.0
H1437 H 0.77504 0.97675 0.87126 0.0
H1438 H 0.79787 0.94937 0.92044 0.0
H1439 H 0.75698 0.89226 0.92186 0.0
H1440 H 0.32884 0.16546 0.33158 0.0
H1441 H 0.33715 0.17296 0.29748 0.0
H1442 H 0.41977 0.16033 0.30184 0.0
H1443 H 0.41259 0.15493 0.33639 0.0
H1444 H 0.42966 0.20368 0.27489 0.0
H1445 H 0.3096 0.09732 0.26409 0.0
H1446 H 0.30556 0.12882 0.275 0.0
H1447 H 0.32533 0.11089 0.28745 0.0
C1448 C 0.34932 0.1652 0.3253 0.0
C1449 C 0.37027 0.15993 0.33657 0.0
C1450 C 0.35381 0.16904 0.30577 0.0
C1451 C 0.37845 0.16615 0.2969 0.0
C1452 C 0.40041 0.16241 0.30828 0.0
H1453 H 0.41386 0.1546 0.17499 0.0
H1454 H 0.42107 0.1592 0.20955 0.0
C1455 C 0.39645 0.1595 0.328 0.0
C1456 C 0.38016 0.16562 0.27582 0.0
H1457 H 0.33423 0.1303 0.23673 0.0
C1458 C 0.40891 0.18736 0.26653 0.0
C1459 C 0.35318 0.1442 0.26477 0.0
C1460 C 0.32186 0.11882 0.2734 0.0
C1461 C 0.41092 0.18919 0.24661 0.0
C1462 C 0.38358 0.16845 0.23569 0.0
C1463 C 0.35522 0.14626 0.24501 0.0
C1464 C 0.38284 0.16984 0.21463 0.0
C1465 C 0.44184 0.2141 0.23746 0.0
C1466 C 0.35909 0.17427 0.20592 0.0
C1467 C 0.35468 0.1711 0.18638 0.0
C1468 C 0.37425 0.16396 0.17499 0.0
C1469 C 0.399 0.16089 0.18346 0.0
C1470 C 0.40311 0.16355 0.20319 0.0
H1471 H 0.45785 0.23299 0.24764 0.0
H1472 H 0.45486 0.20214 0.23193 0.0
H1473 H 0.43693 0.22584 0.22541 0.0
H1474 H 0.343 0.17893 0.21436 0.0
H1475 H 0.33505 0.17299 0.18024 0.0
H1476 H 0.76837 0.60688 0.34011 0.0
H1477 H 0.76643 0.6004 0.30545 0.0
H1478 H 0.85437 0.69165 0.30036 0.0
H1479 H 0.85618 0.69818 0.33464 0.0
H1480 H 0.80293 0.68694 0.27897 0.0
H1481 H 0.81996 0.58198 0.26614 0.0
H1482 H 0.79016 0.57688 0.28338 0.0
H1483 H 0.83185 0.60455 0.28798 0.0
C1484 C 0.7877 0.62499 0.33155 0.0
C1485 C 0.81239 0.65302 0.34 0.0
C1486 C 0.78658 0.62134 0.31178 0.0
C1487 C 0.81035 0.64551 0.30026 0.0
C1488 C 0.83578 0.67268 0.30889 0.0
H1489 H 0.84913 0.70762 0.18383 0.0
H1490 H 0.84932 0.70039 0.21801 0.0
C1491 C 0.83681 0.67636 0.32849 0.0
C1492 C 0.80757 0.6446 0.27924 0.0
H1493 H 0.81128 0.60607 0.2394 0.0
C1494 C 0.80455 0.66911 0.27035 0.0
C1495 C 0.8095 0.62127 0.26794 0.0
C1496 C 0.81326 0.59472 0.27674 0.0
C1497 C 0.80372 0.67123 0.2506 0.0
C1498 C 0.80694 0.64867 0.23917 0.0
C1499 C 0.80905 0.62352 0.24805 0.0
C1500 C 0.80902 0.65153 0.21808 0.0
C1501 C 0.79915 0.69766 0.24231 0.0
C1502 C 0.78779 0.62579 0.20643 0.0
C1503 C 0.7883 0.62965 0.18672 0.0
C1504 C 0.80982 0.65942 0.17838 0.0
C1505 C 0.83199 0.68457 0.18993 0.0
C1506 C 0.83191 0.68052 0.2095 0.0
H1507 H 0.78561 0.70465 0.25214 0.0
H1508 H 0.82305 0.71932 0.23988 0.0
H1509 H 0.7861 0.69032 0.22869 0.0
H1510 H 0.77009 0.60307 0.21262 0.0
H1511 H 0.7709 0.60993 0.1781 0.0
H1512 H 0.84271 0.23722 0.17905 0.0
H1513 H 0.83465 0.23677 0.21341 0.0
H1514 H 0.87964 0.17901 0.22076 0.0
H1515 H 0.88655 0.17842 0.18661 0.0
H1516 H 0.82894 0.15857 0.24369 0.0
H1517 H 0.90472 0.2916 0.25037 0.0
H1518 H 0.87027 0.27818 0.23533 0.0
H1519 H 0.90206 0.2707 0.22867 0.0
C1520 C 0.85041 0.22405 0.18802 0.0
C1521 C 0.86575 0.2083 0.18015 0.0
C1522 C 0.84618 0.22415 0.20769 0.0
C1523 C 0.85732 0.20858 0.21984 0.0
C1524 C 0.8711 0.19149 0.21182 0.0
H1525 H 0.908 0.19793 0.33301 0.0
H1526 H 0.89704 0.1956 0.2993 0.0
C1527 C 0.87514 0.19125 0.19225 0.0
C1528 C 0.85541 0.21026 0.2409 0.0
H1529 H 0.88305 0.26229 0.2785 0.0
C1530 C 0.84052 0.18131 0.25124 0.0
C1531 C 0.87051 0.2399 0.25092 0.0
C1532 C 0.88805 0.27188 0.24081 0.0
C1533 C 0.84107 0.18116 0.27113 0.0
C1534 C 0.85694 0.21068 0.28107 0.0
C1535 C 0.87072 0.23967 0.27085 0.0
C1536 C 0.86249 0.21173 0.30184 0.0
C1537 C 0.82531 0.14936 0.28144 0.0
C1538 C 0.84675 0.22172 0.31461 0.0
C1539 C 0.85278 0.22287 0.33414 0.0
C1540 C 0.8751 0.21458 0.34118 0.0
C1541 C 0.89075 0.20464 0.32823 0.0
C1542 C 0.88445 0.20317 0.30887 0.0
H1543 H 0.80828 0.12923 0.27224 0.0
H1544 H 0.84413 0.14404 0.28629 0.0
H1545 H 0.81217 0.15042 0.29411 0.0
H1546 H 0.82977 0.22855 0.30947 0.0
H1547 H 0.84041 0.23075 0.34366 0.0
H1548 H 0.16684 0.32289 0.68599 0.0
H1549 H 0.17266 0.3319 0.72001 0.0
H1550 H 0.17398 0.42191 0.71271 0.0
H1551 H 0.16682 0.41211 0.67837 0.0
H1552 H 0.21751 0.37692 0.74176 0.0
H1553 H 0.10342 0.37842 0.75133 0.0
H1554 H 0.11458 0.36849 0.72908 0.0
H1555 H 0.13232 0.40982 0.73632 0.0
C1556 C 0.16825 0.34457 0.69164 0.0
C1557 C 0.16568 0.36647 0.67962 0.0
C1558 C 0.1718 0.34983 0.71111 0.0
C1559 C 0.17311 0.37727 0.71911 0.0
C1560 C 0.1722 0.40013 0.707 0.0
H1561 H 0.17749 0.41297 0.84245 0.0
H1562 H 0.18546 0.42314 0.80818 0.0
C1563 C 0.1685 0.39475 0.68737 0.0
C1564 C 0.17492 0.38104 0.74013 0.0
H1565 H 0.13364 0.38416 0.77884 0.0
C1566 C 0.1993 0.37882 0.74981 0.0
C1567 C 0.1512 0.38354 0.75078 0.0
C1568 C 0.12372 0.38493 0.74141 0.0
C1569 C 0.20007 0.37806 0.76966 0.0
C1570 C 0.17584 0.37952 0.78023 0.0
C1571 C 0.15224 0.38313 0.77068 0.0
C1572 C 0.17296 0.37434 0.80104 0.0
C1573 C 0.22644 0.37501 0.77926 0.0
C1574 C 0.16351 0.34366 0.80836 0.0
C1575 C 0.15877 0.33782 0.82779 0.0
C1576 C 0.16353 0.36257 0.84032 0.0
C1577 C 0.17395 0.39357 0.83309 0.0
C1578 C 0.17828 0.39932 0.81355 0.0
H1579 H 0.24704 0.38138 0.76961 0.0
H1580 H 0.23527 0.39073 0.79195 0.0
H1581 H 0.21675 0.34972 0.78396 0.0
H1582 H 0.15903 0.32399 0.79897 0.0
H1583 H 0.15076 0.31371 0.833 0.0
H1584 H 0.25396 0.84953 0.83677 0.0
H1585 H 0.25428 0.84335 0.80224 0.0
H1586 H 0.17779 0.8653 0.79716 0.0
H1587 H 0.17864 0.87302 0.83135 0.0
H1588 H 0.21287 0.80655 0.77537 0.0
H1589 H 0.24264 0.93226 0.76318 0.0
H1590 H 0.24104 0.91691 0.7866 0.0
H1591 H 0.20477 0.91017 0.7751 0.0
C1592 C 0.23703 0.85265 0.82823 0.0
C1593 C 0.21655 0.86212 0.83666 0.0
C1594 C 0.23727 0.84923 0.8085 0.0
C1595 C 0.21675 0.85484 0.79692 0.0
C1596 C 0.19471 0.862 0.8056 0.0
H1597 H 0.17238 0.85793 0.68008 0.0
H1598 H 0.1732 0.8524 0.71434 0.0
C1599 C 0.19496 0.8661 0.82518 0.0
C1600 C 0.21878 0.85416 0.77581 0.0
H1601 H 0.2247 0.89752 0.73615 0.0
C1602 C 0.21584 0.8266 0.7668 0.0
C1603 C 0.22294 0.88039 0.76448 0.0
C1604 C 0.22837 0.91169 0.77286 0.0
C1605 C 0.21552 0.82409 0.7469 0.0
C1606 C 0.21848 0.84987 0.7357 0.0
C1607 C 0.22228 0.87766 0.7447 0.0
C1608 C 0.21607 0.84836 0.71465 0.0
C1609 C 0.21084 0.79346 0.73799 0.0
C1610 C 0.23948 0.84711 0.70324 0.0
C1611 C 0.23891 0.85008 0.68347 0.0
C1612 C 0.21515 0.85471 0.67492 0.0
C1613 C 0.19102 0.85445 0.68631 0.0
C1614 C 0.1915 0.85135 0.7059 0.0
H1615 H 0.20317 0.77371 0.74848 0.0
H1616 H 0.19259 0.7854 0.72657 0.0
H1617 H 0.23385 0.79806 0.73157 0.0
H1618 H 0.259 0.84536 0.70966 0.0
H1619 H 0.25802 0.85066 0.67502 0.0
H1620 H 0.61577 0.77019 0.67718 0.0
H1621 H 0.61052 0.77002 0.71177 0.0
H1622 H 0.70623 0.85234 0.71553 0.0
H1623 H 0.71166 0.85211 0.68117 0.0
H1624 H 0.69835 0.80294 0.73792 0.0
H1625 H 0.59748 0.82615 0.75003 0.0
H1626 H 0.58872 0.79342 0.73422 0.0
H1627 H 0.6181 0.83387 0.72762 0.0
C1628 C 0.63526 0.78873 0.68541 0.0
C1629 C 0.66413 0.81112 0.67657 0.0
C1630 C 0.63227 0.78866 0.70517 0.0
C1631 C 0.65791 0.81132 0.71633 0.0
C1632 C 0.68611 0.83462 0.70729 0.0
H1633 H 0.71583 0.84609 0.83389 0.0
H1634 H 0.71052 0.84812 0.79964 0.0
C1635 C 0.68918 0.83453 0.68766 0.0
C1636 C 0.65701 0.80918 0.73738 0.0
H1637 H 0.61801 0.81305 0.77695 0.0
C1638 C 0.68077 0.80521 0.74643 0.0
C1639 C 0.63389 0.81176 0.74853 0.0
C1640 C 0.60822 0.8168 0.73967 0.0
C1641 C 0.68229 0.80392 0.7662 0.0
C1642 C 0.65971 0.80734 0.77746 0.0
C1643 C 0.63542 0.81058 0.76841 0.0
C1644 C 0.66153 0.80825 0.79857 0.0
C1645 C 0.70803 0.79854 0.77467 0.0
C1646 C 0.6351 0.7866 0.80967 0.0
C1647 C 0.63788 0.78601 0.82942 0.0
C1648 C 0.66722 0.80683 0.83833 0.0
C1649 C 0.69308 0.82944 0.82733 0.0
C1650 C 0.69012 0.83043 0.80772 0.0
H1651 H 0.71515 0.78513 0.76482 0.0
H1652 H 0.72974 0.82223 0.77751 0.0
H1653 H 0.69998 0.78498 0.78812 0.0
H1654 H 0.61267 0.76945 0.80301 0.0
H1655 H 0.61762 0.76834 0.8376 0.0
H1656 H 0.27712 0.90457 0.95121 0.0
H1657 H 0.29813 0.93707 0.98026 0.0
H1658 H 0.24305 0.98352 0.96835 0.0
H1659 H 0.222 0.95133 0.9398 0.0
H1660 H 0.33393 1.00705 0.98341 0.0
H1661 H 0.21932 0.95398 0.02337 0.0
H1662 H 0.22488 0.93434 1.00312 0.0
H1663 H 0.21649 0.96663 0.99994 0.0
C1664 C 0.26898 0.92119 0.95507 0.0
C1665 C 0.24766 0.9251 0.94325 0.0
C1666 C 0.28127 0.94002 0.97154 0.0
C1667 C 0.27204 0.96269 0.9766 0.0
C1668 C 0.25028 0.96601 0.96497 0.0
H1669 H 0.35861 0.12791 0.05521 0.0
H1670 H 0.34361 0.09424 0.02661 0.0
C1671 C 0.23826 0.94751 0.94858 0.0
C1672 C 0.28524 0.98349 0.99377 0.0
H1673 H 0.26214 1.00355 0.03492 0.0
C1674 C 0.31831 1.00612 0.99477 0.0
C1675 C 0.26494 0.98237 0.00863 0.0
C1676 C 0.22948 0.95784 0.00886 0.0
C1677 C 0.33144 0.0279 0.01005 0.0
C1678 C 0.31093 0.02736 0.02464 0.0
C1679 C 0.27795 1.00437 0.0237 0.0
C1680 C 0.32299 0.04884 0.04166 0.0
C1681 C 0.36722 0.05093 0.0106 0.0
C1682 C 0.31653 0.03484 0.05967 0.0
C1683 C 0.32466 0.05388 0.07591 0.0
C1684 C 0.33969 0.08779 0.07482 0.0
C1685 C 0.34719 0.10202 0.05674 0.0
C1686 C 0.33875 0.08273 0.04032 0.0
H1687 H 0.38041 0.0433 1.00092 0.0
H1688 H 0.3722 0.07518 1.00612 0.0
H1689 H 0.37671 0.05295 0.02514 0.0
H1690 H 0.30449 1.00888 0.06121 0.0
H1691 H 0.31823 0.04158 0.08938 0.0
H1692 H 0.75297 0.63827 0.453 0.0
H1693 H 0.72857 0.64843 0.48095 0.0
H1694 H 0.77303 0.74873 0.46559 0.0
H1695 H 0.79689 0.73888 0.43793 0.0
H1696 H 0.75354 0.68818 0.51184 0.0
H1697 H 0.68021 0.72586 0.47093 0.0
H1698 H 0.69973 0.70601 0.46011 0.0
H1699 H 0.72182 0.74881 0.46438 0.0
C1700 C 0.75774 0.66251 0.45572 0.0
C1701 C 0.77669 0.68763 0.44306 0.0
C1702 C 0.74362 0.66828 0.47163 0.0
C1703 C 0.7481 0.69922 0.47513 0.0
C1704 C 0.76818 0.72445 0.46294 0.0
H1705 H 0.74463 0.79536 0.5752 0.0
H1706 H 0.75468 0.7713 0.54771 0.0
C1707 C 0.78209 0.71874 0.44713 0.0
C1708 C 0.73265 0.70586 0.49162 0.0
H1709 H 0.68981 0.74288 0.50357 0.0
C1710 C 0.73921 0.69968 0.50999 0.0
C1711 C 0.71324 0.72026 0.48938 0.0
C1712 C 0.70303 0.72529 0.47013 0.0
C1713 C 0.72868 0.70929 0.52605 0.0
C1714 C 0.71163 0.72616 0.52376 0.0
C1715 C 0.70331 0.73049 0.50543 0.0
C1716 C 0.70461 0.74157 0.5401 0.0
C1717 C 0.73628 0.70156 0.54536 0.0
C1718 C 0.67306 0.73428 0.54462 0.0
C1719 C 0.66712 0.74843 0.56047 0.0
C1720 C 0.69266 0.77022 0.57201 0.0
C1721 C 0.72421 0.77836 0.56687 0.0
C1722 C 0.73007 0.76439 0.55116 0.0
H1723 H 0.73924 0.68002 0.54491 0.0
H1724 H 0.75926 0.72219 0.55041 0.0
H1725 H 0.71711 0.69715 0.55573 0.0
H1726 H 0.65298 0.71705 0.53617 0.0
H1727 H 0.64255 0.74153 0.56402 0.0
H1728 H 0.07156 0.27845 0.94279 0.0
H1729 H 0.03716 0.26858 0.97016 0.0
H1730 H 0.0851 0.37052 0.98163 0.0
H1731 H 0.12012 0.38074 0.95384 0.0
H1732 H 0.07251 0.33176 0.01458 0.0
H1733 H 0.96225 0.28652 0.97154 0.0
H1734 H 0.98429 0.2664 0.96611 0.0
H1735 H 1.00211 0.30886 0.96146 0.0
C1736 C 0.07513 0.29892 0.95115 0.0
C1737 C 0.09861 0.33049 0.94597 0.0
C1738 C 0.05513 0.29318 0.96678 0.0
C1739 C 0.05776 0.31878 0.97773 0.0
C1740 C 0.08227 0.35033 0.97327 0.0
H1741 H 0.90791 0.27531 0.06598 0.0
H1742 H 0.94225 0.29959 0.03783 0.0
C1743 C 0.10249 0.35616 0.95748 0.0
C1744 C 0.03481 0.31191 0.99379 0.0
H1745 H 0.95434 0.27184 1.00451 0.0
C1746 C 0.04671 0.31915 0.01233 0.0
C1747 C 1.00102 0.2959 0.991 0.0
C1748 C 0.98663 0.28926 0.97144 0.0
C1749 C 0.02583 0.30906 0.02807 0.0
C1750 C 0.99206 0.29084 0.02529 0.0
C1751 C 0.98014 0.28539 1.00674 0.0
C1752 C 0.96926 0.2749 0.04143 0.0
C1753 C 0.04018 0.3175 0.04762 0.0
C1754 C 0.97195 0.25197 0.05234 0.0
C1755 C 0.95237 0.23802 0.06815 0.0
C1756 C 0.92926 0.24641 0.07359 0.0
C1757 C 0.92527 0.26814 0.06213 0.0
C1758 C 0.94508 0.28222 0.04614 0.0
H1759 H 0.0646 0.33917 0.0474 0.0
H1760 H 0.02472 0.32198 0.05739 0.0
H1761 H 0.04239 0.29711 0.05329 0.0
H1762 H 0.98971 0.24519 0.04879 0.0
H1763 H 0.95598 0.22111 0.07644 0.0
H1764 H 0.37985 0.11232 0.44971 0.0
H1765 H 0.36774 0.07822 0.47799 0.0
H1766 H 0.26717 0.02786 0.46324 0.0
H1767 H 0.27907 0.06109 0.43506 0.0
H1768 H 0.33057 0.06697 0.50899 0.0
H1769 H 0.28247 0.95318 0.469 0.0
H1770 H 0.30395 0.99211 0.45771 0.0
H1771 H 0.26175 0.97437 0.46306 0.0
C1772 C 0.35514 0.09419 0.45264 0.0
C1773 C 0.33052 0.08934 0.43999 0.0
C1774 C 0.34824 0.07454 0.46876 0.0
C1775 C 0.3166 0.04965 0.47254 0.0
C1776 C 0.2919 0.046 0.46039 0.0
H1777 H 0.22971 0.95653 0.57735 0.0
H1778 H 0.25051 0.98941 0.54907 0.0
C1779 C 0.29876 0.06535 0.44432 0.0
C1780 C 0.30899 0.02765 0.48921 0.0
H1781 H 0.26878 0.94799 0.50204 0.0
C1782 C 0.31738 0.04097 0.50742 0.0
C1783 C 0.29241 0.99359 0.48731 0.0
C1784 C 0.28495 0.97748 0.4682 0.0
C1785 C 0.30828 0.02136 0.52368 0.0
C1786 C 0.28953 0.98734 0.52184 0.0
C1787 C 0.2826 0.97398 0.5036 0.0
C1788 C 0.27559 0.96556 0.53864 0.0
C1789 C 0.31901 0.03742 0.54273 0.0
C1790 C 0.28105 0.93966 0.54188 0.0
C1791 C 0.2686 0.92019 0.55812 0.0
C1792 C 0.25045 0.92627 0.57142 0.0
C1793 C 0.24401 0.95135 0.56765 0.0
C1794 C 0.25616 0.97048 0.55148 0.0
H1795 H 0.34144 0.06116 0.54152 0.0
H1796 H 0.30008 0.04172 0.54866 0.0
H1797 H 0.32325 0.02218 0.55279 0.0
H1798 H 0.29561 0.935 0.5321 0.0
H1799 H 0.27409 0.90117 0.56058 0.0
H1800 H 0.80737 0.7436 0.07464 0.0
H1801 H 0.78288 0.7537 0.04735 0.0
H1802 H 0.7269 0.65166 0.03657 0.0
H1803 H 0.75152 0.6412 0.06427 0.0
H1804 H 0.75446 0.69153 1.00318 0.0
H1805 H 0.68906 0.73539 0.04736 0.0
H1806 H 0.73129 0.75506 0.05255 0.0
H1807 H 0.7064 0.71259 0.05694 0.0
C1808 C 0.7901 0.72318 0.0664 0.0
C1809 C 0.7813 0.69151 0.07177 0.0
C1810 C 0.77589 0.72905 0.05084 0.0
C1811 C 0.75238 0.70347 0.04014 0.0
C1812 C 0.74472 0.67181 0.04474 0.0
H1813 H 0.64336 0.74263 0.95202 0.0
H1814 H 0.65426 0.71904 0.98013 0.0
C1815 C 0.75901 0.66585 0.06046 0.0
C1816 C 0.73612 0.71043 0.02431 0.0
H1817 H 0.69454 0.74954 0.01441 0.0
C1818 C 0.7409 0.70371 1.00566 0.0
C1819 C 0.71802 0.72602 0.02746 0.0
C1820 C 0.71057 0.73243 0.04717 0.0
C1821 C 0.72977 0.71382 0.99015 0.0
C1822 C 0.71359 0.73134 0.99329 0.0
C1823 C 0.70714 0.73639 0.01194 0.0
C1824 C 0.70609 0.74706 0.9774 0.0
C1825 C 0.73609 0.70632 0.97043 0.0
C1826 C 0.73142 0.77156 0.96705 0.0
C1827 C 0.72529 0.78517 0.95129 0.0
C1828 C 0.69358 0.77473 0.94535 0.0
C1829 C 0.66802 0.75141 0.9563 0.0
C1830 C 0.67425 0.73772 0.97225 0.0
H1831 H 0.74033 0.68557 0.97032 0.0
H1832 H 0.71562 0.70088 0.96091 0.0
H1833 H 0.75789 0.72761 0.96469 0.0
H1834 H 0.75615 0.77972 0.97093 0.0
H1835 H 0.74562 0.80327 0.94333 0.0
H1836 H 0.13077 0.33317 0.55971 0.0
H1837 H 0.09674 0.3182 0.53149 0.0
H1838 H 0.02277 0.32249 0.56371 0.0
H1839 H 0.05669 0.33775 0.5917 0.0
H1840 H 0.99939 0.26545 0.54459 0.0
H1841 H 0.06993 0.3678 0.49588 0.0
H1842 H 0.09195 0.34989 0.50544 0.0
H1843 H 0.07806 0.37013 0.52091 0.0
C1844 C 0.1077 0.33181 0.56071 0.0
C1845 C 0.09654 0.33646 0.57818 0.0
C1846 C 0.08811 0.32313 0.5445 0.0
C1847 C 0.05702 0.31917 0.54536 0.0
C1848 C 0.04649 0.32517 0.56259 0.0
H1849 H 0.92759 0.28533 0.44911 0.0
H1850 H 0.96009 0.30683 0.478 0.0
C1851 C 0.06599 0.33385 0.57868 0.0
C1852 C 0.03447 0.30663 0.52888 0.0
H1853 H 0.02462 0.32172 0.4828 0.0
C1854 C 1.00493 0.27787 0.53111 0.0
C1855 C 0.04133 0.32289 0.51129 0.0
C1856 C 0.07189 0.35455 0.5082 0.0
C1857 C 0.98249 0.2647 0.51626 0.0
C1858 C 0.98975 0.28043 0.4985 0.0
C1859 C 0.019 0.30953 0.49635 0.0
C1860 C 0.96787 0.26645 0.48184 0.0
C1861 C 0.951 0.23414 0.5198 0.0
C1862 C 0.96094 0.23641 0.47448 0.0
C1863 C 0.94237 0.22415 0.4581 0.0
C1864 C 0.93036 0.24167 0.44859 0.0
C1865 C 0.93617 0.27114 0.45629 0.0
C1866 C 0.95503 0.28357 0.47267 0.0
H1867 H 0.94525 0.23024 0.53513 0.0
H1868 H 0.9309 0.23462 0.51238 0.0
H1869 H 0.95268 0.21329 0.51442 0.0
H1870 H 0.97086 0.2229 0.48104 0.0
H1871 H 0.93842 0.20147 0.4524 0.0
H1872 H 0.68902 0.1658 0.13226 0.0
H1873 H 0.63014 0.1405 0.13505 0.0
H1874 H 0.63164 0.21094 0.09664 0.0
H1875 H 0.69009 0.23621 0.09382 0.0
H1876 H 0.59464 0.17435 0.14701 0.0
H1877 H 0.56148 0.12088 0.07532 0.0
H1878 H 0.59946 0.13143 0.0863 0.0
H1879 H 0.59342 0.16218 0.07593 0.0
C1880 C 0.6767 0.17561 0.12424 0.0
C1881 C 0.69431 0.20308 0.11284 0.0
C1882 C 0.64309 0.16125 0.12593 0.0
C1883 C 0.62639 0.17368 0.11596 0.0
C1884 C 0.64389 0.20071 0.10434 0.0
H1885 H 0.44683 0.16135 0.09802 0.0
H1886 H 0.49988 0.16685 0.09774 0.0
C1887 C 0.67737 0.21526 0.10283 0.0
C1888 C 0.59088 0.15945 0.11802 0.0
H1889 H 0.52118 0.1254 0.09246 0.0
C1890 C 0.57839 0.16311 0.13521 0.0
C1891 C 0.56972 0.14482 0.10262 0.0
C1892 C 0.58154 0.13927 0.08402 0.0
C1893 C 0.54573 0.15432 0.13707 0.0
C1894 C 0.52474 0.14075 0.12141 0.0
C1895 C 0.53707 0.13576 0.1045 0.0
C1896 C 0.49109 0.13508 0.12147 0.0
C1897 C 0.5345 0.16143 0.15543 0.0
C1898 C 0.46772 0.11467 0.13468 0.0
C1899 C 0.43695 0.11159 0.13498 0.0
C1900 C 0.42893 0.12871 0.12202 0.0
C1901 C 0.45204 0.148 0.1084 0.0
C1902 C 0.48255 0.15111 0.10814 0.0
H1903 H 0.55495 0.17786 0.16462 0.0
H1904 H 0.51938 0.17252 0.15278 0.0
H1905 H 0.51975 0.13858 0.16325 0.0
H1906 H 0.47334 0.10142 0.14488 0.0
H1907 H 0.41993 0.0967 0.14573 0.0
H1908 H 0.72441 0.58253 0.42232 0.0
H1909 H 0.67858 0.5279 0.42096 0.0
H1910 H 0.66002 0.54372 0.36353 0.0
H1911 H 0.70606 0.59912 0.36486 0.0
H1912 H 0.60255 0.50506 0.38658 0.0
H1913 H 0.68939 0.46101 0.38968 0.0
H1914 H 0.69401 0.48795 0.40861 0.0
H1915 H 0.70154 0.50248 0.38466 0.0
C1916 C 0.71036 0.57464 0.40945 0.0
C1917 C 0.71924 0.59498 0.39357 0.0
C1918 C 0.68417 0.54333 0.4087 0.0
C1919 C 0.66638 0.53142 0.392 0.0
C1920 C 0.67362 0.55235 0.37651 0.0
H1921 H 0.5574 0.32378 0.37319 0.0
H1922 H 0.59294 0.38188 0.36959 0.0
C1923 C 0.69986 0.584 0.3773 0.0
C1924 C 0.64207 0.49652 0.39054 0.0
H1925 H 0.63436 0.42195 0.39443 0.0
C1926 C 0.60945 0.48682 0.38813 0.0
C1927 C 0.65113 0.47271 0.39224 0.0
C1928 C 0.68595 0.48147 0.39375 0.0
C1929 C 0.58557 0.45393 0.38803 0.0
C1930 C 0.59454 0.43017 0.39073 0.0
C1931 C 0.6273 0.44001 0.39253 0.0
C1932 C 0.57067 0.39497 0.39186 0.0
C1933 C 0.55104 0.44501 0.38483 0.0
C1934 C 0.54604 0.38272 0.40551 0.0
C1935 C 0.52552 0.34938 0.40753 0.0
C1936 C 0.52954 0.32754 0.39617 0.0
C1937 C 0.55389 0.33989 0.38234 0.0
C1938 C 0.57416 0.37315 0.38021 0.0
H1939 H 0.54938 0.46443 0.37727 0.0
H1940 H 0.53792 0.42237 0.37655 0.0
H1941 H 0.53887 0.44134 0.3987 0.0
H1942 H 0.5433 0.39887 0.41503 0.0
H1943 H 0.50725 0.34066 0.41846 0.0
H1944 H 0.92834 0.32652 0.10687 0.0
H1945 H 0.92051 0.37334 0.10417 0.0
H1946 H 0.84332 0.33037 0.1448 0.0
H1947 H 0.85126 0.28412 0.14772 0.0
H1948 H 0.86294 0.37216 0.09267 0.0
H1949 H 0.89802 0.42263 0.16476 0.0
H1950 H 0.909 0.39462 0.155 0.0
H1951 H 0.86937 0.38023 0.16456 0.0
C1952 C 0.9102 0.32744 0.11552 0.0
C1953 C 0.89054 0.30162 0.12757 0.0
C1954 C 0.90556 0.35409 0.11386 0.0
C1955 C 0.88152 0.35566 0.12444 0.0
C1956 C 0.86241 0.33016 0.13674 0.0
H1957 H 0.78316 0.46274 0.13531 0.0
H1958 H 0.80629 0.42768 0.1378 0.0
C1959 C 0.86689 0.30357 0.13832 0.0
C1960 C 0.87496 0.38285 0.12205 0.0
H1961 H 0.86735 0.44007 0.14679 0.0
C1962 C 0.86442 0.38739 0.10441 0.0
C1963 C 0.87671 0.40269 0.13737 0.0
C1964 C 0.88918 0.40007 0.15645 0.0
C1965 C 0.85421 0.41011 0.10192 0.0
C1966 C 0.8551 0.42934 0.1174 0.0
C1967 C 0.86656 0.42541 0.13489 0.0
C1968 C 0.84227 0.45205 0.11612 0.0
C1969 C 0.84111 0.41221 0.08294 0.0
C1970 C 0.85515 0.47813 0.10339 0.0
C1971 C 0.8418 0.49831 0.10186 0.0
C1972 C 0.81522 0.49286 0.11303 0.0
C1973 C 0.80318 0.46739 0.1262 0.0
C1974 C 0.81654 0.44736 0.12774 0.0
H1975 H 0.83543 0.39109 0.07387 0.0
H1976 H 0.81899 0.41386 0.08465 0.0
H1977 H 0.85932 0.43421 0.0755 0.0
H1978 H 0.87541 0.48277 0.09451 0.0
H1979 H 0.85171 0.5176 0.09156 0.0
H1980 H 0.42173 0.10542 0.36227 0.0
H1981 H 0.47532 0.11083 0.36088 0.0
H1982 H 0.49598 0.15205 0.41678 0.0
H1983 H 0.44234 0.14583 0.41854 0.0
H1984 H 0.54391 0.1889 0.38557 0.0
H1985 H 0.5111 0.06034 0.39307 0.0
H1986 H 0.48845 0.06989 0.37666 0.0
H1987 H 0.48527 0.07505 0.40151 0.0
C1988 C 0.43745 0.11507 0.3744 0.0
C1989 C 0.42789 0.1256 0.39042 0.0
C1990 C 0.46812 0.1183 0.37354 0.0
C1991 C 0.4897 0.13208 0.38868 0.0
C1992 C 0.47981 0.14161 0.40489 0.0
H1993 H 0.68737 0.19082 0.41654 0.0
H1994 H 0.63554 0.18829 0.41218 0.0
C1995 C 0.44914 0.13808 0.40584 0.0
C1996 C 0.52293 0.13745 0.38758 0.0
H1997 H 0.56594 0.09848 0.38951 0.0
C1998 C 0.54882 0.16917 0.38633 0.0
C1999 C 0.52919 0.11168 0.38847 0.0
C2000 C 0.50217 0.07725 0.3901 0.0
C2001 C 0.58088 0.17581 0.38591 0.0
C2002 C 0.5873 0.15007 0.38737 0.0
C2003 C 0.56122 0.11829 0.38837 0.0
C2004 C 0.62065 0.15528 0.38846 0.0
C2005 C 0.60743 0.21031 0.38358 0.0
C2006 C 0.62989 0.13777 0.3766 0.0
C2007 C 0.6593 0.13889 0.37929 0.0
C2008 C 0.6803 0.15779 0.39377 0.0
C2009 C 0.67195 0.17666 0.405 0.0
C2010 C 0.64227 0.17519 0.40249 0.0
H2011 H 0.59865 0.22495 0.37628 0.0
H2012 H 0.61621 0.22111 0.39774 0.0
H2013 H 0.62796 0.21192 0.37544 0.0
H2014 H 0.61377 0.12222 0.3657 0.0
H2015 H 0.66503 0.12383 0.37059 0.0
H2016 H 0.46413 0.37539 0.10973 0.0
H2017 H 0.51277 0.42667 0.11643 0.0
H2018 H 0.57104 0.38792 0.09582 0.0
H2019 H 0.52219 0.33599 0.08973 0.0
H2020 H 0.59881 0.42426 0.12552 0.0
H2021 H 0.56437 0.49347 0.07813 0.0
H2022 H 0.53501 0.47341 0.09633 0.0
H2023 H 0.54216 0.45008 0.07903 0.0
C2024 C 0.48733 0.37775 0.1067 0.0
C2025 C 0.48925 0.35167 0.09902 0.0
C2026 C 0.51519 0.40724 0.11038 0.0
C2027 C 0.54578 0.41178 0.10608 0.0
C2028 C 0.54783 0.38532 0.09911 0.0
H2029 H 0.71481 0.60374 0.09287 0.0
H2030 H 0.66615 0.55109 0.0886 0.0
C2031 C 0.51988 0.35556 0.09568 0.0
C2032 C 0.57546 0.44404 0.10879 0.0
H2033 H 0.6087 0.52426 0.09857 0.0
C2034 C 0.60104 0.4461 0.1195 0.0
C2035 C 0.57888 0.47269 0.10074 0.0
C2036 C 0.55379 0.47231 0.08775 0.0
C2037 C 0.62952 0.47573 0.12257 0.0
C2038 C 0.63233 0.50466 0.11527 0.0
C2039 C 0.60679 0.50246 0.1044 0.0
C2040 C 0.66172 0.53724 0.11811 0.0
C2041 C 0.65644 0.4752 0.13324 0.0
C2042 C 0.67545 0.54784 0.13614 0.0
C2043 C 0.7039 0.57752 0.13842 0.0
C2044 C 0.71844 0.59792 0.12288 0.0
C2045 C 0.70393 0.58839 0.10507 0.0
C2046 C 0.67609 0.55825 0.10266 0.0
H2047 H 0.65553 0.45172 0.13151 0.0
H2048 H 0.68037 0.49459 0.12849 0.0
H2049 H 0.6538 0.47847 0.14853 0.0
H2050 H 0.66438 0.53307 0.14849 0.0
H2051 H 0.71453 0.5846 0.15234 0.0
H2052 H 0.92516 0.55502 0.39373 0.0
H2053 H 0.92872 0.50713 0.38604 0.0
H2054 H 0.83487 0.44691 0.41058 0.0
H2055 H 0.83085 0.49486 0.41763 0.0
H2056 H 0.93168 0.46703 0.4093 0.0
H2057 H 0.82498 0.39569 0.36441 0.0
H2058 H 0.83891 0.43727 0.37024 0.0
H2059 H 0.81403 0.40561 0.38658 0.0
C2060 C 0.90497 0.53148 0.39707 0.0
C2061 C 0.87762 0.52869 0.40617 0.0
C2062 C 0.90706 0.50407 0.39274 0.0
C2063 C 0.88198 0.47311 0.39752 0.0
C2064 C 0.85425 0.47026 0.40622 0.0
H2065 H 0.8627 0.28749 0.41467 0.0
H2066 H 0.85919 0.33634 0.41323 0.0
C2067 C 0.85195 0.49773 0.41031 0.0
C2068 C 0.88609 0.44436 0.39481 0.0
H2069 H 0.8492 0.36696 0.37802 0.0
C2070 C 0.91382 0.44538 0.40217 0.0
C2071 C 0.86295 0.41592 0.38549 0.0
C2072 C 0.83374 0.41364 0.37606 0.0
C2073 C 0.91844 0.41864 0.40106 0.0
C2074 C 0.89476 0.38995 0.39238 0.0
C2075 C 0.86735 0.38899 0.38469 0.0
C2076 C 0.89693 0.36001 0.39248 0.0
C2077 C 0.94808 0.42075 0.40976 0.0
C2078 C 0.91922 0.35681 0.38111 0.0
C2079 C 0.9212 0.32852 0.38177 0.0
C2080 C 0.90125 0.30309 0.39398 0.0
C2081 C 0.87878 0.30649 0.40517 0.0
C2082 C 0.87659 0.33447 0.40435 0.0
H2083 H 0.96272 0.44366 0.41759 0.0
H2084 H 0.94118 0.40026 0.4196 0.0
H2085 H 0.96325 0.41906 0.39848 0.0
H2086 H 0.935 0.37613 0.37169 0.0
H2087 H 0.93826 0.32661 0.37271 0.0
H2088 H 0.19533 0.67867 0.59972 0.0
H2089 H 0.19014 0.62627 0.60735 0.0
H2090 H 0.09525 0.5936 0.62988 0.0
H2091 H 0.10001 0.64544 0.62177 0.0
H2092 H 0.18009 0.59063 0.63879 0.0
H2093 H 0.07516 0.52487 0.59129 0.0
H2094 H 0.09894 0.56824 0.59165 0.0
H2095 H 0.06871 0.54715 0.60944 0.0
C2096 C 0.1736 0.66045 0.60657 0.0
C2097 C 0.14797 0.66607 0.60997 0.0
C2098 C 0.17055 0.63042 0.61085 0.0
C2099 C 0.14188 0.60547 0.6187 0.0
C2100 C 0.11716 0.61191 0.62324 0.0
H2101 H 0.08934 0.40432 0.64652 0.0
H2102 H 0.08958 0.45579 0.64565 0.0
C2103 C 0.12003 0.64169 0.61876 0.0
C2104 C 0.13754 0.57259 0.62163 0.0
H2105 H 0.08978 0.49304 0.6097 0.0
C2106 C 0.16027 0.56935 0.63246 0.0
C2107 C 0.1117 0.54457 0.61335 0.0
C2108 C 0.08741 0.54631 0.60064 0.0
C2109 C 0.15795 0.53914 0.63516 0.0
C2110 C 0.13229 0.51131 0.6268 0.0
C2111 C 0.1092 0.51433 0.61629 0.0
C2112 C 0.131 0.4796 0.62721 0.0
C2113 C 0.18316 0.53715 0.6468 0.0
C2114 C 0.15363 0.47564 0.61684 0.0
C2115 C 0.15322 0.44631 0.61706 0.0
C2116 C 0.13015 0.41992 0.62772 0.0
C2117 C 0.1071 0.42377 0.63794 0.0
C2118 C 0.10739 0.4533 0.63758 0.0
H2119 H 0.19712 0.55901 0.65563 0.0
H2120 H 0.17194 0.51563 0.65614 0.0
H2121 H 0.20017 0.53475 0.63722 0.0
H2122 H 0.17177 0.49539 0.60853 0.0
H2123 H 0.17128 0.4445 0.60883 0.0
H2124 H 0.30069 0.86927 0.86074 0.0
H2125 H 0.34703 0.86108 0.86166 0.0
H2126 H 0.36862 0.89972 0.91825 0.0
H2127 H 0.32325 0.90987 0.91677 0.0
H2128 H 0.4229 0.91601 0.90003 0.0
H2129 H 0.34027 0.78603 0.88896 0.0
H2130 H 0.34184 0.8079 0.86809 0.0
H2131 H 0.32581 0.81414 0.88965 0.0
C2132 C 0.31574 0.87654 0.87322 0.0
C2133 C 0.30831 0.88983 0.88876 0.0
C2134 C 0.34206 0.87161 0.87382 0.0
C2135 C 0.36069 0.87854 0.89031 0.0
C2136 C 0.35441 0.8937 0.90545 0.0
H2137 H 0.50801 0.83023 0.92514 0.0
H2138 H 0.47163 0.85239 0.92442 0.0
C2139 C 0.32855 0.89955 0.90462 0.0
C2140 C 0.38549 0.8685 0.89201 0.0
H2141 H 0.39671 0.80385 0.88681 0.0
C2142 C 0.41711 0.89143 0.89726 0.0
C2143 C 0.37809 0.83633 0.88851 0.0
C2144 C 0.34457 0.8097 0.88369 0.0
C2145 C 0.44156 0.88336 0.89848 0.0
C2146 C 0.43416 0.85138 0.89462 0.0
C2147 C 0.40251 0.82842 0.88969 0.0
C2148 C 0.45874 0.84101 0.89496 0.0
C2149 C 0.4753 0.90934 0.90331 0.0
C2150 C 0.46367 0.82718 0.87873 0.0
C2151 C 0.48414 0.81433 0.87916 0.0
C2152 C 0.50022 0.81483 0.89588 0.0
C2153 C 0.49617 0.82964 0.91201 0.0
C2154 C 0.47544 0.84242 0.91159 0.0
H2155 H 0.47865 0.93384 0.90138 0.0
H2156 H 0.48024 0.90678 0.91833 0.0
H2157 H 0.49322 0.90714 0.89446 0.0
H2158 H 0.45118 0.82582 0.86572 0.0
H2159 H 0.48711 0.80363 0.86639 0.0
H2160 H 0.60145 0.69881 0.65313 0.0
H2161 H 0.55 0.6481 0.64965 0.0
H2162 H 0.54622 0.6706 0.59101 0.0
H2163 H 0.59809 0.72043 0.59438 0.0
H2164 H 0.49168 0.63816 0.64118 0.0
H2165 H 0.52637 0.57948 0.58607 0.0
H2166 H 0.55567 0.6148 0.59863 0.0
H2167 H 0.53431 0.6186 0.57881 0.0
C2168 C 0.58978 0.69245 0.63945 0.0
C2169 C 0.60366 0.71315 0.62396 0.0
C2170 C 0.56033 0.66363 0.63748 0.0
C2171 C 0.54423 0.65509 0.61998 0.0
C2172 C 0.55839 0.67597 0.60451 0.0
H2173 H 0.33911 0.52095 0.60143 0.0
H2174 H 0.39152 0.56817 0.60867 0.0
C2175 C 0.58797 0.70453 0.60644 0.0
C2176 C 0.51211 0.62512 0.61805 0.0
H2177 H 0.46998 0.5573 0.59118 0.0
C2178 C 0.48703 0.62035 0.63033 0.0
C2179 C 0.50592 0.60149 0.6041 0.0
C2180 C 0.53209 0.60364 0.59129 0.0
C2181 C 0.45598 0.59314 0.6288 0.0
C2182 C 0.4494 0.57034 0.61423 0.0
C2183 C 0.47469 0.57481 0.60222 0.0
C2184 C 0.41675 0.54147 0.61122 0.0
C2185 C 0.43078 0.58887 0.64307 0.0
C2186 C 0.41317 0.51057 0.61004 0.0
C2187 C 0.38335 0.48367 0.60566 0.0
C2188 C 0.35617 0.48686 0.60238 0.0
C2189 C 0.35943 0.51759 0.60414 0.0
C2190 C 0.38945 0.54464 0.60833 0.0
H2191 H 0.44188 0.60209 0.65637 0.0
H2192 H 0.41605 0.59869 0.63717 0.0
H2193 H 0.41458 0.56304 0.64651 0.0
H2194 H 0.43367 0.50729 0.61222 0.0
H2195 H 0.38164 0.46033 0.60455 0.0
H2196 H 0.24527 0.69393 0.88702 0.0
H2197 H 0.22184 0.6357 0.88387 0.0
H2198 H 0.14514 0.62042 0.9218 0.0
H2199 H 0.16889 0.67907 0.92525 0.0
H2200 H 0.17438 0.58338 0.93082 0.0
H2201 H 0.1418 0.57022 0.85505 0.0
H2202 H 0.18276 0.60071 0.85935 0.0
H2203 H 0.15057 0.60574 0.8685 0.0
C2204 C 0.22329 0.67825 0.89463 0.0
C2205 C 0.20903 0.69131 0.90642 0.0
C2206 C 0.20974 0.64486 0.89268 0.0
C2207 C 0.18146 0.62349 0.90241 0.0
C2208 C 0.16685 0.63635 0.91404 0.0
H2209 H 0.09556 0.41077 0.91154 0.0
H2210 H 0.10196 0.46491 0.91405 0.0
C2211 C 0.18033 0.66991 0.9159 0.0
C2212 C 0.16839 0.58791 0.90106 0.0
H2213 H 0.1446 0.52632 0.86924 0.0
C2214 C 0.16731 0.57075 0.91741 0.0
C2215 C 0.1592 0.57132 0.88358 0.0
C2216 C 0.15831 0.58785 0.86564 0.0
C2217 C 0.1589 0.53803 0.91658 0.0
C2218 C 0.15075 0.52177 0.89898 0.0
C2219 C 0.15079 0.53867 0.88275 0.0
C2220 C 0.145 0.48826 0.89681 0.0
C2221 C 0.16044 0.52156 0.93438 0.0
C2222 C 0.16631 0.48304 0.88583 0.0
C2223 C 0.16252 0.45225 0.88426 0.0
C2224 C 0.13718 0.42565 0.89356 0.0
C2225 C 0.11515 0.43061 0.90409 0.0
C2226 C 0.11904 0.46164 0.90571 0.0
H2227 H 0.17246 0.5389 0.94612 0.0
H2228 H 0.13566 0.50378 0.93896 0.0
H2229 H 0.17357 0.50834 0.93175 0.0
H2230 H 0.18647 0.50304 0.87879 0.0
H2231 H 0.17989 0.44942 0.87593 0.0
H2232 H 0.32264 0.90478 0.64988 0.0
H2233 H 0.36935 0.89666 0.65044 0.0
H2234 H 0.3501 0.86307 0.59282 0.0
H2235 H 0.30376 0.87093 0.59217 0.0
H2236 H 0.36483 0.83513 0.64387 0.0
H2237 H 0.44821 0.92694 0.59302 0.0
H2238 H 0.4159 0.92949 0.60449 0.0
H2239 H 0.40774 0.90354 0.5844 0.0
C2240 C 0.32879 0.89628 0.63723 0.0
C2241 C 0.30933 0.88833 0.62102 0.0
C2242 C 0.35541 0.89153 0.63759 0.0
C2243 C 0.36342 0.87945 0.62161 0.0
C2244 C 0.34476 0.87281 0.60523 0.0
H2245 H 0.44901 0.76197 0.60516 0.0
H2246 H 0.41534 0.78653 0.6084 0.0
C2247 C 0.31806 0.87714 0.60493 0.0
C2248 C 0.38932 0.87094 0.62232 0.0
H2249 H 0.45745 0.88309 0.59956 0.0
C2250 C 0.38535 0.84598 0.63439 0.0
C2251 C 0.41624 0.88515 0.61004 0.0
C2252 C 0.42254 0.91299 0.59737 0.0
C2253 C 0.40665 0.83384 0.63387 0.0
C2254 C 0.43251 0.84679 0.62081 0.0
C2255 C 0.43744 0.87287 0.60941 0.0
C2256 C 0.45368 0.83254 0.61826 0.0
C2257 C 0.40103 0.80692 0.64716 0.0
C2258 C 0.48679 0.85052 0.62212 0.0
C2259 C 0.50624 0.83643 0.62037 0.0
C2260 C 0.493 0.80409 0.61458 0.0
C2261 C 0.46 0.78663 0.61009 0.0
C2262 C 0.44064 0.80067 0.61192 0.0
H2263 H 0.38611 0.8057 0.65949 0.0
H2264 H 0.3881 0.7836 0.63953 0.0
H2265 H 0.42417 0.80991 0.65237 0.0
H2266 H 0.49746 0.87523 0.62693 0.0
H2267 H 0.53144 0.8506 0.62408 0.0
H2268 H 0.58842 0.73479 0.91928 0.0
H2269 H 0.53381 0.68918 0.9221 0.0
H2270 H 0.55357 0.63989 0.87759 0.0
H2271 H 0.6076 0.68699 0.87383 0.0
H2272 H 0.49862 0.63369 0.87113 0.0
H2273 H 0.49614 0.60453 0.94652 0.0
H2274 H 0.50676 0.64586 0.94412 0.0
H2275 H 0.53299 0.63242 0.93467 0.0
C2276 C 0.58117 0.71409 0.91021 0.0
C2277 C 0.60223 0.71453 0.89629 0.0
C2278 C 0.54996 0.6877 0.912 0.0
C2279 C 0.53929 0.66043 0.90034 0.0
C2280 C 0.56096 0.66039 0.88687 0.0
H2281 H 0.34547 0.49512 0.9242 0.0
H2282 H 0.40384 0.52884 0.92062 0.0
C2283 C 0.59206 0.68718 0.88485 0.0
C2284 C 0.50496 0.63337 0.90125 0.0
H2285 H 0.44423 0.58606 0.93196 0.0
C2286 C 0.48696 0.62301 0.88445 0.0
C2287 C 0.48941 0.61854 0.91848 0.0
C2288 C 0.50749 0.62568 0.9369 0.0
C2289 C 0.45398 0.59958 0.88447 0.0
C2290 C 0.43782 0.58683 0.90188 0.0
C2291 C 0.45612 0.59608 0.91859 0.0
C2292 C 0.40197 0.56492 0.90314 0.0
C2293 C 0.43706 0.58853 0.8657 0.0
C2294 C 0.381 0.57355 0.89455 0.0
C2295 C 0.34757 0.55387 0.89616 0.0
C2296 C 0.33379 0.52526 0.90694 0.0
C2297 C 0.35483 0.51659 0.91557 0.0
C2298 C 0.38841 0.53614 0.91369 0.0
H2299 H 0.45406 0.59052 0.8544 0.0
H2300 H 0.41705 0.56318 0.8663 0.0
H2301 H 0.42721 0.60424 0.86163 0.0
H2302 H 0.39043 0.59592 0.88678 0.0
H2303 H 0.33255 0.56137 0.88895 0.0
loop_
_geom_bond_atom_site_label_1
_geom_bond_atom_site_label_2
_geom_bond_distance
_geom_bond_site_symmetry_2
_ccdc_geom_bond_type
Tb0 N29 2.617 . S
Tb0 N35 2.572 . S
Tb0 O44 2.465 . S
Tb0 O45 2.387 . S
Tb0 O47 2.428 . S
Tb0 O48 2.308 . S
Tb0 O52 2.349 . S
Tb0 O55 2.393 . S
Tb0 C64 2.802 . S
C1 N2 1.379 . S
C1 C4 1.416 . S
C1 C8 1.424 . S
N2 C1 1.379 . S
N2 C5 1.334 . S
N2 Tb11 2.617 . S
C3 C5 1.390 . S
C3 C6 1.339 . S
C3 H23 0.930 . S
C4 C1 1.416 . S
C4 C6 1.416 . S
C4 C10 1.448 . S
C5 N2 1.334 . S
C5 C3 1.390 . S
C5 H16 0.930 . S
C6 C3 1.339 . S
C6 C4 1.416 . S
C6 H27 0.930 . S
C7 C8 1.413 . S
C7 C9 1.427 . S
C7 C13 1.416 . S
C8 C1 1.424 . S
C8 C7 1.413 . S
C8 N12 1.361 . S
C9 C7 1.427 . S
C9 C10 1.328 . S
C9 H24 0.929 . S
C10 C4 1.448 . S
C10 C9 1.328 . S
C10 H25 0.930 . S
Tb11 N2 2.617 . S
Tb11 N12 2.572 . S
Tb11 O46 2.349 . S
Tb11 O49 2.393 . S
Tb11 O50 2.465 . S
Tb11 O51 2.387 . S
Tb11 O53 2.428 . S
Tb11 O54 2.308 . S
Tb11 C75 2.802 . S
N12 C8 1.361 . S
N12 Tb11 2.572 . S
N12 C14 1.340 . S
C13 C7 1.416 . S
C13 C15 1.332 . S
C13 H21 0.931 . S
C14 N12 1.340 . S
C14 C15 1.407 . S
C14 H20 0.930 . S
C15 C13 1.332 . S
C15 C14 1.407 . S
C15 H17 0.929 . S
H16 C5 0.930 . S
H17 C15 0.929 . S
H18 C33 0.930 . S
H19 C40 0.929 . S
H20 C14 0.930 . S
H21 C13 0.931 . S
H22 C36 0.930 . S
H23 C3 0.930 . S
H24 C9 0.929 . S
H25 C10 0.930 . S
H26 C31 0.930 . S
H27 C6 0.930 . S
H28 C39 0.931 . S
N29 Tb0 2.617 . S
N29 C30 1.379 . S
N29 C33 1.334 . S
C30 N29 1.379 . S
C30 C32 1.416 . S
C30 C38 1.424 . S
C31 H26 0.930 . S
C31 C33 1.390 . S
C31 C34 1.339 . S
C32 C30 1.416 . S
C32 C34 1.416 . S
C32 C65 1.448 . S
C33 H18 0.930 . S
C33 N29 1.334 . S
C33 C31 1.390 . S
C34 C31 1.339 . S
C34 C32 1.416 . S
C34 H41 0.930 . S
N35 Tb0 2.572 . S
N35 C36 1.340 . S
N35 C38 1.361 . S
C36 H22 0.930 . S
C36 N35 1.340 . S
C36 C40 1.407 . S
C37 C38 1.413 . S
C37 C39 1.416 . S
C37 C66 1.427 . S
C38 C30 1.424 . S
C38 N35 1.361 . S
C38 C37 1.413 . S
C39 H28 0.931 . S
C39 C37 1.416 . S
C39 C40 1.332 . S
C40 H19 0.929 . S
C40 C36 1.407 . S
C40 C39 1.332 . S
H41 C34 0.930 . S
H42 C65 0.930 . S
H43 C66 0.929 . S
O44 Tb0 2.465 . S
O44 C64 1.264 . S
O45 Tb0 2.387 . S
O45 C56 1.264 . S
O46 Tb11 2.349 . S
O46 C56 1.243 . S
O47 Tb0 2.428 . S
O47 C64 1.256 . S
O48 Tb0 2.308 . S
O48 C63 1.266 . S
O49 Tb11 2.393 . S
O49 C63 1.248 . S
O50 Tb11 2.465 . S
O50 C75 1.264 . S
O51 Tb11 2.387 . S
O51 C67 1.264 . S
O52 Tb0 2.349 . S
O52 C67 1.243 . S
O53 Tb11 2.428 . S
O53 C75 1.256 . S
O54 Tb11 2.308 . S
O54 C74 1.266 . S
O55 Tb0 2.393 . S
O55 C74 1.248 . S
C56 O45 1.264 . S
C56 O46 1.243 . S
C57 C60 1.399 . S
C57 C62 1.383 . S
C57 C64 1.496 . S
C58 C59 1.399 . S
C58 C62 1.389 1_565 S
C59 C58 1.399 . S
C59 C61 1.380 . S
C59 H76 0.929 . S
C60 C57 1.399 . S
C60 C61 1.392 1_545 S
C60 H77 0.929 . S
C61 C59 1.380 . S
C61 C60 1.392 1_565 S
C61 H78 0.929 . S
C62 C57 1.383 . S
C62 C58 1.389 1_545 S
C62 H79 0.931 . S
C63 O48 1.266 . S
C63 O49 1.248 . S
C64 Tb0 2.802 . S
C64 O44 1.264 . S
C64 O47 1.256 . S
C64 C57 1.496 . S
C65 C32 1.448 . S
C65 H42 0.930 . S
C65 C66 1.328 . S
C66 C37 1.427 . S
C66 H43 0.929 . S
C66 C65 1.328 . S
C67 O51 1.264 . S
C67 O52 1.243 . S
C68 C71 1.399 . S
C68 C72 1.383 . S
C68 C75 1.496 . S
C69 C70 1.399 . S
C69 C72 1.389 . S
C70 C69 1.399 . S
C70 C73 1.380 . S
C70 H80 0.929 . S
C71 C68 1.399 . S
C71 C73 1.392 . S
C71 H81 0.929 . S
C72 C68 1.383 . S
C72 C69 1.389 . S
C72 H82 0.931 . S
C73 C70 1.380 . S
C73 C71 1.392 . S
C73 H83 0.929 . S
C74 O54 1.266 . S
C74 O55 1.248 . S
C75 Tb11 2.802 . S
C75 O50 1.264 . S
C75 O53 1.256 . S
C75 C68 1.496 . S
H76 C59 0.929 . S
H77 C60 0.929 . S
H78 C61 0.929 . S
H79 C62 0.931 . S
H80 C70 0.929 . S
H81 C71 0.929 . S
H82 C72 0.931 . S
H83 C73 0.929 . S
Tb84 N113 2.617 . S
Tb84 N119 2.572 . S
Tb84 O128 2.465 . S
Tb84 O129 2.387 . S
Tb84 O131 2.428 . S
Tb84 O132 2.308 . S
Tb84 O136 2.349 . S
Tb84 O139 2.393 . S
Tb84 C148 2.802 . S
C85 N86 1.379 . S
C85 C88 1.416 . S
C85 C92 1.424 . S
N86 C85 1.379 . S
N86 C89 1.334 . S
N86 Tb95 2.617 . S
C87 C89 1.390 . S
C87 C90 1.339 . S
C87 H107 0.930 . S
C88 C85 1.416 . S
C88 C90 1.416 . S
C88 C94 1.448 . S
C89 N86 1.334 . S
C89 C87 1.390 . S
C89 H100 0.930 . S
C90 C87 1.339 . S
C90 C88 1.416 . S
C90 H111 0.930 . S
C91 C92 1.413 . S
C91 C93 1.427 . S
C91 C97 1.416 . S
C92 C85 1.424 . S
C92 C91 1.413 . S
C92 N96 1.361 . S
C93 C91 1.427 . S
C93 C94 1.328 . S
C93 H108 0.929 . S
C94 C88 1.448 . S
C94 C93 1.328 . S
C94 H109 0.930 . S
Tb95 N86 2.617 . S
Tb95 N96 2.572 . S
Tb95 O130 2.349 . S
Tb95 O133 2.393 . S
Tb95 O134 2.465 . S
Tb95 O135 2.387 . S
Tb95 O137 2.428 . S
Tb95 O138 2.308 . S
Tb95 C159 2.802 . S
N96 C92 1.361 . S
N96 Tb95 2.572 . S
N96 C98 1.340 . S
C97 C91 1.416 . S
C97 C99 1.332 . S
C97 H105 0.931 . S
C98 N96 1.340 . S
C98 C99 1.407 . S
C98 H104 0.930 . S
C99 C97 1.332 . S
C99 C98 1.407 . S
C99 H101 0.929 . S
H100 C89 0.930 . S
H101 C99 0.929 . S
H102 C117 0.930 . S
H103 C124 0.929 . S
H104 C98 0.930 . S
H105 C97 0.931 . S
H106 C120 0.930 . S
H107 C87 0.930 . S
H108 C93 0.929 . S
H109 C94 0.930 . S
H110 C115 0.930 . S
H111 C90 0.930 . S
H112 C123 0.931 . S
N113 Tb84 2.617 . S
N113 C114 1.379 . S
N113 C117 1.334 . S
C114 N113 1.379 . S
C114 C116 1.416 . S
C114 C122 1.424 . S
C115 H110 0.930 . S
C115 C117 1.390 . S
C115 C118 1.339 . S
C116 C114 1.416 . S
C116 C118 1.416 . S
C116 C149 1.448 . S
C117 H102 0.930 . S
C117 N113 1.334 . S
C117 C115 1.390 . S
C118 C115 1.339 . S
C118 C116 1.416 . S
C118 H125 0.930 . S
N119 Tb84 2.572 . S
N119 C120 1.340 . S
N119 C122 1.361 . S
C120 H106 0.930 . S
C120 N119 1.340 . S
C120 C124 1.407 . S
C121 C122 1.413 . S
C121 C123 1.416 . S
C121 C150 1.427 . S
C122 C114 1.424 . S
C122 N119 1.361 . S
C122 C121 1.413 . S
C123 H112 0.931 . S
C123 C121 1.416 . S
C123 C124 1.332 . S
C124 H103 0.929 . S
C124 C120 1.407 . S
C124 C123 1.332 . S
H125 C118 0.930 . S
H126 C149 0.930 . S
H127 C150 0.910 1_455 S
O128 Tb84 2.465 . S
O128 C148 1.264 . S
O129 Tb84 2.387 . S
O129 C140 1.264 . S
O130 Tb95 2.349 . S
O130 C140 1.243 . S
O131 Tb84 2.428 . S
O131 C148 1.256 . S
O132 Tb84 2.308 . S
O132 C147 1.266 . S
O133 Tb95 2.393 . S
O133 C147 1.248 . S
O134 Tb95 2.465 . S
O134 C159 1.264 . S
O135 Tb95 2.387 . S
O135 C151 1.264 . S
O136 Tb84 2.349 . S
O136 C151 1.243 . S
O137 Tb95 2.428 . S
O137 C159 1.256 . S
O138 Tb95 2.308 . S
O138 C158 1.266 . S
O139 Tb84 2.393 . S
O139 C158 1.248 . S
C140 O129 1.264 . S
C140 O130 1.243 . S
C141 C144 1.399 . S
C141 C146 1.383 . S
C141 C148 1.496 . S
C142 C143 1.399 . S
C142 C146 1.389 . S
C143 C142 1.399 . S
C143 C145 1.380 . S
C143 H160 0.929 . S
C144 C141 1.399 . S
C144 C145 1.392 . S
C144 H161 0.929 . S
C145 C143 1.380 . S
C145 C144 1.392 . S
C145 H162 0.929 . S
C146 C141 1.383 . S
C146 C142 1.389 . S
C146 H163 0.931 . S
C147 O132 1.266 . S
C147 O133 1.248 . S
C148 Tb84 2.802 . S
C148 O128 1.264 . S
C148 O131 1.256 . S
C148 C141 1.496 . S
C149 C116 1.448 . S
C149 H126 0.930 . S
C149 C150 1.328 . S
C150 C121 1.427 . S
C150 H127 0.910 1_655 S
C150 C149 1.328 . S
C151 O135 1.264 . S
C151 O136 1.243 . S
C152 C155 1.399 . S
C152 C156 1.383 . S
C152 C159 1.496 . S
C153 C154 1.399 . S
C153 C156 1.389 . S
C154 C153 1.399 . S
C154 C157 1.380 . S
C154 H164 0.929 . S
C155 C152 1.399 . S
C155 C157 1.392 . S
C155 H165 0.929 . S
C156 C152 1.383 . S
C156 C153 1.389 . S
C156 H166 0.931 . S
C157 C154 1.380 . S
C157 C155 1.392 . S
C157 H167 0.929 . S
C158 O138 1.266 . S
C158 O139 1.248 . S
C159 Tb95 2.802 . S
C159 O134 1.264 . S
C159 O137 1.256 . S
C159 C152 1.496 . S
H160 C143 0.929 . S
H161 C144 0.929 . S
H162 C145 0.929 . S
H163 C146 0.931 . S
H164 C154 0.929 . S
H165 C155 0.929 . S
H166 C156 0.931 . S
H167 C157 0.929 . S
Tb168 N197 2.617 . S
Tb168 N203 2.572 . S
Tb168 O212 2.465 . S
Tb168 O213 2.387 . S
Tb168 O215 2.428 . S
Tb168 O216 2.308 . S
Tb168 O220 2.349 . S
Tb168 O223 2.393 . S
Tb168 C232 2.802 . S
C169 N170 1.379 . S
C169 C172 1.416 . S
C169 C176 1.424 . S
N170 C169 1.379 . S
N170 C173 1.334 . S
N170 Tb179 2.617 . S
C171 C173 1.390 . S
C171 C174 1.339 . S
C171 H191 0.930 . S
C172 C169 1.416 . S
C172 C174 1.416 . S
C172 C178 1.448 . S
C173 N170 1.334 . S
C173 C171 1.390 . S
C173 H184 0.930 . S
C174 C171 1.339 . S
C174 C172 1.416 . S
C174 H195 0.930 . S
C175 C176 1.413 . S
C175 C177 1.427 . S
C175 C181 1.416 . S
C176 C169 1.424 . S
C176 C175 1.413 . S
C176 N180 1.361 . S
C177 C175 1.427 . S
C177 C178 1.328 . S
C177 H192 0.913 1_545 S
C178 C172 1.448 . S
C178 C177 1.328 . S
C178 H193 0.930 . S
Tb179 N170 2.617 . S
Tb179 N180 2.572 . S
Tb179 O214 2.349 . S
Tb179 O217 2.393 . S
Tb179 O218 2.465 . S
Tb179 O219 2.387 . S
Tb179 O221 2.428 . S
Tb179 O222 2.308 . S
Tb179 C243 2.802 . S
N180 C176 1.361 . S
N180 Tb179 2.572 . S
N180 C182 1.340 . S
C181 C175 1.416 . S
C181 C183 1.332 . S
C181 H189 0.931 . S
C182 N180 1.340 . S
C182 C183 1.407 . S
C182 H188 0.930 . S
C183 C181 1.332 . S
C183 C182 1.407 . S
C183 H185 0.929 . S
H184 C173 0.930 . S
H185 C183 0.929 . S
H186 C201 0.930 . S
H187 C208 0.929 . S
H188 C182 0.930 . S
H189 C181 0.931 . S
H190 C204 0.930 . S
H191 C171 0.930 . S
H192 C177 0.913 1_565 S
H193 C178 0.930 . S
H194 C199 0.930 . S
H195 C174 0.930 . S
H196 C207 0.931 . S
N197 Tb168 2.617 . S
N197 C198 1.379 . S
N197 C201 1.334 . S
C198 N197 1.379 . S
C198 C200 1.416 . S
C198 C206 1.424 . S
C199 H194 0.930 . S
C199 C201 1.390 . S
C199 C202 1.339 . S
C200 C198 1.416 . S
C200 C202 1.416 . S
C200 C233 1.448 . S
C201 H186 0.930 . S
C201 N197 1.334 . S
C201 C199 1.390 . S
C202 C199 1.339 . S
C202 C200 1.416 . S
C202 H209 0.930 . S
N203 Tb168 2.572 . S
N203 C204 1.340 . S
N203 C206 1.361 . S
C204 H190 0.930 . S
C204 N203 1.340 . S
C204 C208 1.407 . S
C205 C206 1.413 . S
C205 C207 1.416 . S
C205 C234 1.427 . S
C206 C198 1.424 . S
C206 N203 1.361 . S
C206 C205 1.413 . S
C207 H196 0.931 . S
C207 C205 1.416 . S
C207 C208 1.332 . S
C208 H187 0.929 . S
C208 C204 1.407 . S
C208 C207 1.332 . S
H209 C202 0.930 . S
H210 C233 0.930 . S
H211 C234 0.929 . S
O212 Tb168 2.465 . S
O212 C232 1.264 . S
O213 Tb168 2.387 . S
O213 C224 1.264 . S
O214 Tb179 2.349 . S
O214 C224 1.243 . S
O215 Tb168 2.428 . S
O215 C232 1.256 . S
O216 Tb168 2.308 . S
O216 C231 1.266 . S
O217 Tb179 2.393 . S
O217 C231 1.248 . S
O218 Tb179 2.465 . S
O218 C243 1.264 . S
O219 Tb179 2.387 . S
O219 C235 1.264 . S
O220 Tb168 2.349 . S
O220 C235 1.243 . S
O221 Tb179 2.428 . S
O221 C243 1.256 . S
O222 Tb179 2.308 . S
O222 C242 1.266 . S
O223 Tb168 2.393 . S
O223 C242 1.248 . S
C224 O213 1.264 . S
C224 O214 1.243 . S
C225 C228 1.399 . S
C225 C230 1.383 . S
C225 C232 1.496 . S
C226 C227 1.399 . S
C226 C230 1.389 1_455 S
C227 C226 1.399 . S
C227 C229 1.380 . S
C227 H244 0.929 . S
C228 C225 1.399 . S
C228 C229 1.392 1_655 S
C228 H245 0.929 . S
C229 C227 1.380 . S
C229 C228 1.392 1_455 S
C229 H246 0.929 . S
C230 C225 1.383 . S
C230 C226 1.389 1_655 S
C230 H247 0.931 . S
C231 O216 1.266 . S
C231 O217 1.248 . S
C232 Tb168 2.802 . S
C232 O212 1.264 . S
C232 O215 1.256 . S
C232 C225 1.496 . S
C233 C200 1.448 . S
C233 H210 0.930 . S
C233 C234 1.328 . S
C234 C205 1.427 . S
C234 H211 0.929 . S
C234 C233 1.328 . S
C235 O219 1.264 . S
C235 O220 1.243 . S
C236 C239 1.399 . S
C236 C240 1.383 . S
C236 C243 1.496 . S
C237 C238 1.399 . S
C237 C240 1.389 . S
C238 C237 1.399 . S
C238 C241 1.380 . S
C238 H248 0.929 . S
C239 C236 1.399 . S
C239 C241 1.392 . S
C239 H249 0.929 . S
C240 C236 1.383 . S
C240 C237 1.389 . S
C240 H250 0.931 . S
C241 C238 1.380 . S
C241 C239 1.392 . S
C241 H251 0.929 . S
C242 O222 1.266 . S
C242 O223 1.248 . S
C243 Tb179 2.802 . S
C243 O218 1.264 . S
C243 O221 1.256 . S
C243 C236 1.496 . S
H244 C227 0.929 . S
H245 C228 0.929 . S
H246 C229 0.929 . S
H247 C230 0.931 . S
H248 C238 0.929 . S
H249 C239 0.929 . S
H250 C240 0.931 . S
H251 C241 0.929 . S
Tb252 N281 2.617 . S
Tb252 N287 2.572 . S
Tb252 O296 2.465 . S
Tb252 O297 2.387 . S
Tb252 O299 2.428 . S
Tb252 O300 2.308 . S
Tb252 O304 2.349 . S
Tb252 O307 2.393 . S
Tb252 C316 2.802 . S
C253 N254 1.379 . S
C253 C256 1.416 . S
C253 C260 1.424 . S
N254 C253 1.379 . S
N254 C257 1.334 . S
N254 Tb263 2.617 . S
C255 C257 1.390 . S
C255 C258 1.339 . S
C255 H275 0.930 . S
C256 C253 1.416 . S
C256 C258 1.416 . S
C256 C262 1.448 . S
C257 N254 1.334 . S
C257 C255 1.390 . S
C257 H268 0.930 . S
C258 C255 1.339 . S
C258 C256 1.416 . S
C258 H279 0.930 . S
C259 C260 1.413 . S
C259 C261 1.427 . S
C259 C265 1.416 . S
C260 C253 1.424 . S
C260 C259 1.413 . S
C260 N264 1.361 . S
C261 C259 1.427 . S
C261 C262 1.328 . S
C261 H276 0.929 . S
C262 C256 1.448 . S
C262 C261 1.328 . S
C262 H277 0.930 . S
Tb263 N254 2.617 . S
Tb263 N264 2.572 . S
Tb263 O298 2.349 . S
Tb263 O301 2.393 . S
Tb263 O302 2.465 . S
Tb263 O303 2.387 . S
Tb263 O305 2.428 . S
Tb263 O306 2.308 . S
Tb263 C327 2.802 . S
N264 C260 1.361 . S
N264 Tb263 2.572 . S
N264 C266 1.340 . S
C265 C259 1.416 . S
C265 C267 1.332 . S
C265 H273 0.931 . S
C266 N264 1.340 . S
C266 C267 1.407 . S
C266 H272 0.930 . S
C267 C265 1.332 . S
C267 C266 1.407 . S
C267 H269 0.929 . S
H268 C257 0.930 . S
H269 C267 0.929 . S
H270 C285 0.930 . S
H271 C292 0.929 . S
H272 C266 0.930 . S
H273 C265 0.931 . S
H274 C288 0.930 . S
H275 C255 0.930 . S
H276 C261 0.929 . S
H277 C262 0.930 . S
H278 C283 0.930 . S
H279 C258 0.930 . S
H280 C291 0.931 . S
N281 Tb252 2.617 . S
N281 C282 1.379 . S
N281 C285 1.334 . S
C282 N281 1.379 . S
C282 C284 1.416 . S
C282 C290 1.424 . S
C283 H278 0.930 . S
C283 C285 1.390 . S
C283 C286 1.339 . S
C284 C282 1.416 . S
C284 C286 1.416 . S
C284 C317 1.448 . S
C285 H270 0.930 . S
C285 N281 1.334 . S
C285 C283 1.390 . S
C286 C283 1.339 . S
C286 C284 1.416 . S
C286 H293 0.930 . S
N287 Tb252 2.572 . S
N287 C288 1.340 . S
N287 C290 1.361 . S
C288 H274 0.930 . S
C288 N287 1.340 . S
C288 C292 1.407 . S
C289 C290 1.413 . S
C289 C291 1.416 . S
C289 C318 1.427 . S
C290 C282 1.424 . S
C290 N287 1.361 . S
C290 C289 1.413 . S
C291 H280 0.931 . S
C291 C289 1.416 . S
C291 C292 1.332 . S
C292 H271 0.929 . S
C292 C288 1.407 . S
C292 C291 1.332 . S
H293 C286 0.930 . S
H294 C317 0.930 . S
H295 C318 0.929 . S
O296 Tb252 2.465 . S
O296 C316 1.264 . S
O297 Tb252 2.387 . S
O297 C308 1.264 . S
O298 Tb263 2.349 . S
O298 C308 1.243 . S
O299 Tb252 2.428 . S
O299 C316 1.256 . S
O300 Tb252 2.308 . S
O300 C315 1.266 . S
O301 Tb263 2.393 . S
O301 C315 1.248 . S
O302 Tb263 2.465 . S
O302 C327 1.264 . S
O303 Tb263 2.387 . S
O303 C319 1.264 . S
O304 Tb252 2.349 . S
O304 C319 1.243 . S
O305 Tb263 2.428 . S
O305 C327 1.256 . S
O306 Tb263 2.308 . S
O306 C326 1.266 . S
O307 Tb252 2.393 . S
O307 C326 1.248 . S
C308 O297 1.264 . S
C308 O298 1.243 . S
C309 C312 1.399 . S
C309 C314 1.383 . S
C309 C316 1.496 . S
C310 C311 1.399 . S
C310 C314 1.389 . S
C311 C310 1.399 . S
C311 C313 1.380 . S
C311 H328 0.929 . S
C312 C309 1.399 . S
C312 C313 1.392 . S
C312 H329 0.929 . S
C313 C311 1.380 . S
C313 C312 1.392 . S
C313 H330 0.929 . S
C314 C309 1.383 . S
C314 C310 1.389 . S
C314 H331 0.931 . S
C315 O300 1.266 . S
C315 O301 1.248 . S
C316 Tb252 2.802 . S
C316 O296 1.264 . S
C316 O299 1.256 . S
C316 C309 1.496 . S
C317 C284 1.448 . S
C317 H294 0.930 . S
C317 C318 1.328 . S
C318 C289 1.427 . S
C318 H295 0.929 . S
C318 C317 1.328 . S
C319 O303 1.264 . S
C319 O304 1.243 . S
C320 C323 1.399 . S
C320 C324 1.383 . S
C320 C327 1.496 . S
C321 C322 1.399 . S
C321 C324 1.389 1_565 S
C322 C321 1.399 . S
C322 C325 1.380 . S
C322 H332 0.929 . S
C323 C320 1.399 . S
C323 C325 1.392 1_545 S
C323 H333 0.929 . S
C324 C320 1.383 . S
C324 C321 1.389 1_545 S
C324 H334 0.931 . S
C325 C322 1.380 . S
C325 C323 1.392 1_565 S
C325 H335 0.929 . S
C326 O306 1.266 . S
C326 O307 1.248 . S
C327 Tb263 2.802 . S
C327 O302 1.264 . S
C327 O305 1.256 . S
C327 C320 1.496 . S
H328 C311 0.929 . S
H329 C312 0.929 . S
H330 C313 0.929 . S
H331 C314 0.931 . S
H332 C322 0.929 . S
H333 C323 0.929 . S
H334 C324 0.931 . S
H335 C325 0.929 . S
Tb336 N365 2.617 . S
Tb336 N371 2.572 . S
Tb336 O380 2.465 . S
Tb336 O381 2.387 . S
Tb336 O383 2.428 . S
Tb336 O384 2.308 . S
Tb336 O388 2.349 . S
Tb336 O391 2.393 . S
Tb336 C400 2.802 . S
C337 N338 1.379 . S
C337 C340 1.416 . S
C337 C344 1.424 . S
N338 C337 1.379 . S
N338 C341 1.334 . S
N338 Tb347 2.617 . S
C339 C341 1.390 . S
C339 C342 1.339 . S
C339 H359 0.930 . S
C340 C337 1.416 . S
C340 C342 1.416 . S
C340 C346 1.448 . S
C341 N338 1.334 . S
C341 C339 1.390 . S
C341 H352 0.930 . S
C342 C339 1.339 . S
C342 C340 1.416 . S
C342 H363 0.930 . S
C343 C344 1.413 . S
C343 C345 1.427 . S
C343 C349 1.416 . S
C344 C337 1.424 . S
C344 C343 1.413 . S
C344 N348 1.361 . S
C345 C343 1.427 . S
C345 C346 1.328 . S
C345 H360 0.910 1_655 S
C346 C340 1.448 . S
C346 C345 1.328 . S
C346 H361 0.930 . S
Tb347 N338 2.617 . S
Tb347 N348 2.572 . S
Tb347 O382 2.349 . S
Tb347 O385 2.393 . S
Tb347 O386 2.465 . S
Tb347 O387 2.387 . S
Tb347 O389 2.428 . S
Tb347 O390 2.308 . S
Tb347 C411 2.802 . S
N348 C344 1.361 . S
N348 Tb347 2.572 . S
N348 C350 1.340 . S
C349 C343 1.416 . S
C349 C351 1.332 . S
C349 H357 0.931 . S
C350 N348 1.340 . S
C350 C351 1.407 . S
C350 H356 0.930 . S
C351 C349 1.332 . S
C351 C350 1.407 . S
C351 H353 0.929 . S
H352 C341 0.930 . S
H353 C351 0.929 . S
H354 C369 0.930 . S
H355 C376 0.929 . S
H356 C350 0.930 . S
H357 C349 0.931 . S
H358 C372 0.930 . S
H359 C339 0.930 . S
H360 C345 0.910 1_455 S
H361 C346 0.930 . S
H362 C367 0.930 . S
H363 C342 0.930 . S
H364 C375 0.931 . S
N365 Tb336 2.617 . S
N365 C366 1.379 . S
N365 C369 1.334 . S
C366 N365 1.379 . S
C366 C368 1.416 . S
C366 C374 1.424 . S
C367 H362 0.930 . S
C367 C369 1.390 . S
C367 C370 1.339 . S
C368 C366 1.416 . S
C368 C370 1.416 . S
C368 C401 1.448 . S
C369 H354 0.930 . S
C369 N365 1.334 . S
C369 C367 1.390 . S
C370 C367 1.339 . S
C370 C368 1.416 . S
C370 H377 0.930 . S
N371 Tb336 2.572 . S
N371 C372 1.340 . S
N371 C374 1.361 . S
C372 H358 0.930 . S
C372 N371 1.340 . S
C372 C376 1.407 . S
C373 C374 1.413 . S
C373 C375 1.416 . S
C373 C402 1.427 . S
C374 C366 1.424 . S
C374 N371 1.361 . S
C374 C373 1.413 . S
C375 H364 0.931 . S
C375 C373 1.416 . S
C375 C376 1.332 . S
C376 H355 0.929 . S
C376 C372 1.407 . S
C376 C375 1.332 . S
H377 C370 0.930 . S
H378 C401 0.930 . S
H379 C402 0.929 . S
O380 Tb336 2.465 . S
O380 C400 1.264 . S
O381 Tb336 2.387 . S
O381 C392 1.264 . S
O382 Tb347 2.349 . S
O382 C392 1.243 . S
O383 Tb336 2.428 . S
O383 C400 1.256 . S
O384 Tb336 2.308 . S
O384 C399 1.266 . S
O385 Tb347 2.393 . S
O385 C399 1.248 . S
O386 Tb347 2.465 . S
O386 C411 1.264 . S
O387 Tb347 2.387 . S
O387 C403 1.264 . S
O388 Tb336 2.349 . S
O388 C403 1.243 . S
O389 Tb347 2.428 . S
O389 C411 1.256 . S
O390 Tb347 2.308 . S
O390 C410 1.266 . S
O391 Tb336 2.393 . S
O391 C410 1.248 . S
C392 O381 1.264 . S
C392 O382 1.243 . S
C393 C396 1.399 . S
C393 C398 1.383 . S
C393 C400 1.496 . S
C394 C395 1.399 . S
C394 C398 1.389 . S
C395 C394 1.399 . S
C395 C397 1.380 . S
C395 H412 0.929 . S
C396 C393 1.399 . S
C396 C397 1.392 . S
C396 H413 0.929 . S
C397 C395 1.380 . S
C397 C396 1.392 . S
C397 H414 0.929 . S
C398 C393 1.383 . S
C398 C394 1.389 . S
C398 H415 0.931 . S
C399 O384 1.266 . S
C399 O385 1.248 . S
C400 Tb336 2.802 . S
C400 O380 1.264 . S
C400 O383 1.256 . S
C400 C393 1.496 . S
C401 C368 1.448 . S
C401 H378 0.930 . S
C401 C402 1.328 . S
C402 C373 1.427 . S
C402 H379 0.929 . S
C402 C401 1.328 . S
C403 O387 1.264 . S
C403 O388 1.243 . S
C404 C407 1.399 . S
C404 C408 1.383 . S
C404 C411 1.496 . S
C405 C406 1.399 . S
C405 C408 1.389 . S
C406 C405 1.399 . S
C406 C409 1.380 . S
C406 H416 0.929 . S
C407 C404 1.399 . S
C407 C409 1.392 . S
C407 H417 0.929 . S
C408 C404 1.383 . S
C408 C405 1.389 . S
C408 H418 0.931 . S
C409 C406 1.380 . S
C409 C407 1.392 . S
C409 H419 0.929 . S
C410 O390 1.266 . S
C410 O391 1.248 . S
C411 Tb347 2.802 . S
C411 O386 1.264 . S
C411 O389 1.256 . S
C411 C404 1.496 . S
H412 C395 0.929 . S
H413 C396 0.929 . S
H414 C397 0.929 . S
H415 C398 0.931 . S
H416 C406 0.929 . S
H417 C407 0.929 . S
H418 C408 0.931 . S
H419 C409 0.929 . S
Tb420 N449 2.617 . S
Tb420 N455 2.572 . S
Tb420 O464 2.465 . S
Tb420 O465 2.387 . S
Tb420 O467 2.428 . S
Tb420 O468 2.308 . S
Tb420 O472 2.349 . S
Tb420 O475 2.393 . S
Tb420 C484 2.802 . S
C421 N422 1.379 . S
C421 C424 1.416 . S
C421 C428 1.424 . S
N422 C421 1.379 . S
N422 C425 1.334 . S
N422 Tb431 2.617 . S
C423 C425 1.390 . S
C423 C426 1.339 . S
C423 H443 0.930 . S
C424 C421 1.416 . S
C424 C426 1.416 . S
C424 C430 1.448 . S
C425 N422 1.334 . S
C425 C423 1.390 . S
C425 H436 0.930 . S
C426 C423 1.339 . S
C426 C424 1.416 . S
C426 H447 0.930 . S
C427 C428 1.413 . S
C427 C429 1.427 . S
C427 C433 1.416 . S
C428 C421 1.424 . S
C428 C427 1.413 . S
C428 N432 1.361 . S
C429 C427 1.427 . S
C429 C430 1.328 . S
C429 H444 0.929 . S
C430 C424 1.448 . S
C430 C429 1.328 . S
C430 H445 0.930 . S
Tb431 N422 2.617 . S
Tb431 N432 2.572 . S
Tb431 O466 2.349 . S
Tb431 O469 2.393 . S
Tb431 O470 2.465 . S
Tb431 O471 2.387 . S
Tb431 O473 2.428 . S
Tb431 O474 2.308 . S
Tb431 C495 2.802 . S
N432 C428 1.361 . S
N432 Tb431 2.572 . S
N432 C434 1.340 . S
C433 C427 1.416 . S
C433 C435 1.332 . S
C433 H441 0.931 . S
C434 N432 1.340 . S
C434 C435 1.407 . S
C434 H440 0.930 . S
C435 C433 1.332 . S
C435 C434 1.407 . S
C435 H437 0.929 . S
H436 C425 0.930 . S
H437 C435 0.929 . S
H438 C453 0.930 . S
H439 C460 0.929 . S
H440 C434 0.930 . S
H441 C433 0.931 . S
H442 C456 0.930 . S
H443 C423 0.930 . S
H444 C429 0.929 . S
H445 C430 0.930 . S
H446 C451 0.930 . S
H447 C426 0.930 . S
H448 C459 0.931 . S
N449 Tb420 2.617 . S
N449 C450 1.379 . S
N449 C453 1.334 . S
C450 N449 1.379 . S
C450 C452 1.416 . S
C450 C458 1.424 . S
C451 H446 0.930 . S
C451 C453 1.390 . S
C451 C454 1.339 . S
C452 C450 1.416 . S
C452 C454 1.416 . S
C452 C485 1.448 . S
C453 H438 0.930 . S
C453 N449 1.334 . S
C453 C451 1.390 . S
C454 C451 1.339 . S
C454 C452 1.416 . S
C454 H461 0.930 . S
N455 Tb420 2.572 . S
N455 C456 1.340 . S
N455 C458 1.361 . S
C456 H442 0.930 . S
C456 N455 1.340 . S
C456 C460 1.407 . S
C457 C458 1.413 . S
C457 C459 1.416 . S
C457 C486 1.427 . S
C458 C450 1.424 . S
C458 N455 1.361 . S
C458 C457 1.413 . S
C459 H448 0.931 . S
C459 C457 1.416 . S
C459 C460 1.332 . S
C460 H439 0.929 . S
C460 C456 1.407 . S
C460 C459 1.332 . S
H461 C454 0.930 . S
H462 C485 0.930 . S
H463 C486 0.913 1_565 S
O464 Tb420 2.465 . S
O464 C484 1.264 . S
O465 Tb420 2.387 . S
O465 C476 1.264 . S
O466 Tb431 2.349 . S
O466 C476 1.243 . S
O467 Tb420 2.428 . S
O467 C484 1.256 . S
O468 Tb420 2.308 . S
O468 C483 1.266 . S
O469 Tb431 2.393 . S
O469 C483 1.248 . S
O470 Tb431 2.465 . S
O470 C495 1.264 . S
O471 Tb431 2.387 . S
O471 C487 1.264 . S
O472 Tb420 2.349 . S
O472 C487 1.243 . S
O473 Tb431 2.428 . S
O473 C495 1.256 . S
O474 Tb431 2.308 . S
O474 C494 1.266 . S
O475 Tb420 2.393 . S
O475 C494 1.248 . S
C476 O465 1.264 . S
C476 O466 1.243 . S
C477 C480 1.399 . S
C477 C482 1.383 . S
C477 C484 1.496 . S
C478 C479 1.399 . S
C478 C482 1.389 . S
C479 C478 1.399 . S
C479 C481 1.380 . S
C479 H496 0.929 . S
C480 C477 1.399 . S
C480 C481 1.392 . S
C480 H497 0.929 . S
C481 C479 1.380 . S
C481 C480 1.392 . S
C481 H498 0.929 . S
C482 C477 1.383 . S
C482 C478 1.389 . S
C482 H499 0.931 . S
C483 O468 1.266 . S
C483 O469 1.248 . S
C484 Tb420 2.802 . S
C484 O464 1.264 . S
C484 O467 1.256 . S
C484 C477 1.496 . S
C485 C452 1.448 . S
C485 H462 0.930 . S
C485 C486 1.328 . S
C486 C457 1.427 . S
C486 H463 0.913 1_545 S
C486 C485 1.328 . S
C487 O471 1.264 . S
C487 O472 1.243 . S
C488 C491 1.399 . S
C488 C492 1.383 . S
C488 C495 1.496 . S
C489 C490 1.399 . S
C489 C492 1.389 1_455 S
C490 C489 1.399 . S
C490 C493 1.380 . S
C490 H500 0.929 . S
C491 C488 1.399 . S
C491 C493 1.392 1_655 S
C491 H501 0.929 . S
C492 C488 1.383 . S
C492 C489 1.389 1_655 S
C492 H502 0.931 . S
C493 C490 1.380 . S
C493 C491 1.392 1_455 S
C493 H503 0.929 . S
C494 O474 1.266 . S
C494 O475 1.248 . S
C495 Tb431 2.802 . S
C495 O470 1.264 . S
C495 O473 1.256 . S
C495 C488 1.496 . S
H496 C479 0.929 . S
H497 C480 0.929 . S
H498 C481 0.929 . S
H499 C482 0.931 . S
H500 C490 0.929 . S
H501 C491 0.929 . S
H502 C492 0.931 . S
H503 C493 0.929 . S
Tb504 N533 2.617 . S
Tb504 N539 2.572 . S
Tb504 O548 2.465 . S
Tb504 O549 2.387 . S
Tb504 O551 2.428 . S
Tb504 O552 2.308 . S
Tb504 O556 2.349 . S
Tb504 O559 2.393 . S
Tb504 C568 2.802 . S
C505 N506 1.379 . S
C505 C508 1.416 . S
C505 C512 1.424 . S
N506 C505 1.379 . S
N506 C509 1.334 . S
N506 Tb515 2.617 . S
C507 C509 1.390 . S
C507 C510 1.339 . S
C507 H527 0.930 . S
C508 C505 1.416 . S
C508 C510 1.416 . S
C508 C514 1.448 . S
C509 N506 1.334 . S
C509 C507 1.390 . S
C509 H520 0.930 . S
C510 C507 1.339 . S
C510 C508 1.416 . S
C510 H531 0.930 . S
C511 C512 1.413 . S
C511 C513 1.427 . S
C511 C517 1.416 . S
C512 C505 1.424 . S
C512 C511 1.413 . S
C512 N516 1.361 . S
C513 C511 1.427 . S
C513 C514 1.328 . S
C513 H528 0.929 . S
C514 C508 1.448 . S
C514 C513 1.328 . S
C514 H529 0.930 . S
Tb515 N506 2.617 . S
Tb515 N516 2.572 . S
Tb515 O550 2.349 . S
Tb515 O553 2.393 . S
Tb515 O554 2.465 . S
Tb515 O555 2.387 . S
Tb515 O557 2.428 . S
Tb515 O558 2.308 . S
Tb515 C579 2.802 . S
N516 C512 1.361 . S
N516 Tb515 2.572 . S
N516 C518 1.340 . S
C517 C511 1.416 . S
C517 C519 1.332 . S
C517 H525 0.931 . S
C518 N516 1.340 . S
C518 C519 1.407 . S
C518 H524 0.930 . S
C519 C517 1.332 . S
C519 C518 1.407 . S
C519 H521 0.929 . S
H520 C509 0.930 . S
H521 C519 0.929 . S
H522 C537 0.930 . S
H523 C544 0.929 . S
H524 C518 0.930 . S
H525 C517 0.931 . S
H526 C540 0.930 . S
H527 C507 0.930 . S
H528 C513 0.929 . S
H529 C514 0.930 . S
H530 C535 0.930 . S
H531 C510 0.930 . S
H532 C543 0.931 . S
N533 Tb504 2.617 . S
N533 C534 1.379 . S
N533 C537 1.334 . S
C534 N533 1.379 . S
C534 C536 1.416 . S
C534 C542 1.424 . S
C535 H530 0.930 . S
C535 C537 1.390 . S
C535 C538 1.339 . S
C536 C534 1.416 . S
C536 C538 1.416 . S
C536 C569 1.448 . S
C537 H522 0.930 . S
C537 N533 1.334 . S
C537 C535 1.390 . S
C538 C535 1.339 . S
C538 C536 1.416 . S
C538 H545 0.930 . S
N539 Tb504 2.572 . S
N539 C540 1.340 . S
N539 C542 1.361 . S
C540 H526 0.930 . S
C540 N539 1.340 . S
C540 C544 1.407 . S
C541 C542 1.413 . S
C541 C543 1.416 . S
C541 C570 1.427 . S
C542 C534 1.424 . S
C542 N539 1.361 . S
C542 C541 1.413 . S
C543 H532 0.931 . S
C543 C541 1.416 . S
C543 C544 1.332 . S
C544 H523 0.929 . S
C544 C540 1.407 . S
C544 C543 1.332 . S
H545 C538 0.930 . S
H546 C569 0.930 . S
H547 C570 0.929 . S
O548 Tb504 2.465 . S
O548 C568 1.264 . S
O549 Tb504 2.387 . S
O549 C560 1.264 . S
O550 Tb515 2.349 . S
O550 C560 1.243 . S
O551 Tb504 2.428 . S
O551 C568 1.256 . S
O552 Tb504 2.308 . S
O552 C567 1.266 . S
O553 Tb515 2.393 . S
O553 C567 1.248 . S
O554 Tb515 2.465 . S
O554 C579 1.264 . S
O555 Tb515 2.387 . S
O555 C571 1.264 . S
O556 Tb504 2.349 . S
O556 C571 1.243 . S
O557 Tb515 2.428 . S
O557 C579 1.256 . S
O558 Tb515 2.308 . S
O558 C578 1.266 . S
O559 Tb504 2.393 . S
O559 C578 1.248 . S
C560 O549 1.264 . S
C560 O550 1.243 . S
C561 C564 1.399 . S
C561 C566 1.383 . S
C561 C568 1.496 . S
C562 C563 1.399 . S
C562 C566 1.389 . S
C563 C562 1.399 . S
C563 C565 1.380 . S
C563 H580 0.929 . S
C564 C561 1.399 . S
C564 C565 1.392 . S
C564 H581 0.929 . S
C565 C563 1.380 . S
C565 C564 1.392 . S
C565 H582 0.929 . S
C566 C561 1.383 . S
C566 C562 1.389 . S
C566 H583 0.931 . S
C567 O552 1.266 . S
C567 O553 1.248 . S
C568 Tb504 2.802 . S
C568 O548 1.264 . S
C568 O551 1.256 . S
C568 C561 1.496 . S
C569 C536 1.448 . S
C569 H546 0.930 . S
C569 C570 1.328 . S
C570 C541 1.427 . S
C570 H547 0.929 . S
C570 C569 1.328 . S
C571 O555 1.264 . S
C571 O556 1.243 . S
C572 C575 1.399 . S
C572 C576 1.383 . S
C572 C579 1.496 . S
C573 C574 1.399 . S
C573 C576 1.389 1_655 S
C574 C573 1.399 . S
C574 C577 1.380 . S
C574 H584 0.929 . S
C575 C572 1.399 . S
C575 C577 1.392 1_455 S
C575 H585 0.929 . S
C576 C572 1.383 . S
C576 C573 1.389 1_455 S
C576 H586 0.931 . S
C577 C574 1.380 . S
C577 C575 1.392 1_655 S
C577 H587 0.929 . S
C578 O558 1.266 . S
C578 O559 1.248 . S
C579 Tb515 2.802 . S
C579 O554 1.264 . S
C579 O557 1.256 . S
C579 C572 1.496 . S
H580 C563 0.929 . S
H581 C564 0.929 . S
H582 C565 0.929 . S
H583 C566 0.931 . S
H584 C574 0.929 . S
H585 C575 0.929 . S
H586 C576 0.931 . S
H587 C577 0.929 . S
Tb588 N617 2.617 . S
Tb588 N623 2.572 . S
Tb588 O632 2.465 . S
Tb588 O633 2.387 . S
Tb588 O635 2.428 . S
Tb588 O636 2.308 . S
Tb588 O640 2.349 . S
Tb588 O643 2.393 . S
Tb588 C652 2.802 . S
C589 N590 1.379 . S
C589 C592 1.416 . S
C589 C596 1.424 . S
N590 C589 1.379 . S
N590 C593 1.334 . S
N590 Tb599 2.617 . S
C591 C593 1.390 . S
C591 C594 1.339 . S
C591 H611 0.930 . S
C592 C589 1.416 . S
C592 C594 1.416 . S
C592 C598 1.448 . S
C593 N590 1.334 . S
C593 C591 1.390 . S
C593 H604 0.930 . S
C594 C591 1.339 . S
C594 C592 1.416 . S
C594 H615 0.930 . S
C595 C596 1.413 . S
C595 C597 1.427 . S
C595 C601 1.416 . S
C596 C589 1.424 . S
C596 C595 1.413 . S
C596 N600 1.361 . S
C597 C595 1.427 . S
C597 C598 1.328 . S
C597 H612 0.913 1_455 S
C598 C592 1.448 . S
C598 C597 1.328 . S
C598 H613 0.930 . S
Tb599 N590 2.617 . S
Tb599 N600 2.572 . S
Tb599 O634 2.349 . S
Tb599 O637 2.393 . S
Tb599 O638 2.465 . S
Tb599 O639 2.387 . S
Tb599 O641 2.428 . S
Tb599 O642 2.308 . S
Tb599 C663 2.802 . S
N600 C596 1.361 . S
N600 Tb599 2.572 . S
N600 C602 1.340 . S
C601 C595 1.416 . S
C601 C603 1.332 . S
C601 H609 0.931 . S
C602 N600 1.340 . S
C602 C603 1.407 . S
C602 H608 0.930 . S
C603 C601 1.332 . S
C603 C602 1.407 . S
C603 H605 0.929 . S
H604 C593 0.930 . S
H605 C603 0.929 . S
H606 C621 0.930 . S
H607 C628 0.929 . S
H608 C602 0.930 . S
H609 C601 0.931 . S
H610 C624 0.930 . S
H611 C591 0.930 . S
H612 C597 0.913 1_655 S
H613 C598 0.930 . S
H614 C619 0.930 . S
H615 C594 0.930 . S
H616 C627 0.931 . S
N617 Tb588 2.617 . S
N617 C618 1.379 . S
N617 C621 1.334 . S
C618 N617 1.379 . S
C618 C620 1.416 . S
C618 C626 1.424 . S
C619 H614 0.930 . S
C619 C621 1.390 . S
C619 C622 1.339 . S
C620 C618 1.416 . S
C620 C622 1.416 . S
C620 C653 1.448 . S
C621 H606 0.930 . S
C621 N617 1.334 . S
C621 C619 1.390 . S
C622 C619 1.339 . S
C622 C620 1.416 . S
C622 H629 0.930 . S
N623 Tb588 2.572 . S
N623 C624 1.340 . S
N623 C626 1.361 . S
C624 H610 0.930 . S
C624 N623 1.340 . S
C624 C628 1.407 . S
C625 C626 1.413 . S
C625 C627 1.416 . S
C625 C654 1.427 . S
C626 C618 1.424 . S
C626 N623 1.361 . S
C626 C625 1.413 . S
C627 H616 0.931 . S
C627 C625 1.416 . S
C627 C628 1.332 . S
C628 H607 0.929 . S
C628 C624 1.407 . S
C628 C627 1.332 . S
H629 C622 0.930 . S
H630 C653 0.930 . S
H631 C654 0.929 . S
O632 Tb588 2.465 . S
O632 C652 1.264 . S
O633 Tb588 2.387 . S
O633 C644 1.264 . S
O634 Tb599 2.349 . S
O634 C644 1.243 . S
O635 Tb588 2.428 . S
O635 C652 1.256 . S
O636 Tb588 2.308 . S
O636 C651 1.266 . S
O637 Tb599 2.393 . S
O637 C651 1.248 . S
O638 Tb599 2.465 . S
O638 C663 1.264 . S
O639 Tb599 2.387 . S
O639 C655 1.264 . S
O640 Tb588 2.349 . S
O640 C655 1.243 . S
O641 Tb599 2.428 . S
O641 C663 1.256 . S
O642 Tb599 2.308 . S
O642 C662 1.266 . S
O643 Tb588 2.393 . S
O643 C662 1.248 . S
C644 O633 1.264 . S
C644 O634 1.243 . S
C645 C648 1.399 . S
C645 C650 1.383 . S
C645 C652 1.496 . S
C646 C647 1.399 . S
C646 C650 1.389 1_545 S
C647 C646 1.399 . S
C647 C649 1.380 . S
C647 H664 0.929 . S
C648 C645 1.399 . S
C648 C649 1.392 1_565 S
C648 H665 0.929 . S
C649 C647 1.380 . S
C649 C648 1.392 1_545 S
C649 H666 0.929 . S
C650 C645 1.383 . S
C650 C646 1.389 1_565 S
C650 H667 0.931 . S
C651 O636 1.266 . S
C651 O637 1.248 . S
C652 Tb588 2.802 . S
C652 O632 1.264 . S
C652 O635 1.256 . S
C652 C645 1.496 . S
C653 C620 1.448 . S
C653 H630 0.930 . S
C653 C654 1.328 . S
C654 C625 1.427 . S
C654 H631 0.929 . S
C654 C653 1.328 . S
C655 O639 1.264 . S
C655 O640 1.243 . S
C656 C659 1.399 . S
C656 C660 1.383 . S
C656 C663 1.496 . S
C657 C658 1.399 . S
C657 C660 1.389 . S
C658 C657 1.399 . S
C658 C661 1.380 . S
C658 H668 0.929 . S
C659 C656 1.399 . S
C659 C661 1.392 . S
C659 H669 0.929 . S
C660 C656 1.383 . S
C660 C657 1.389 . S
C660 H670 0.931 . S
C661 C658 1.380 . S
C661 C659 1.392 . S
C661 H671 0.929 . S
C662 O642 1.266 . S
C662 O643 1.248 . S
C663 Tb599 2.802 . S
C663 O638 1.264 . S
C663 O641 1.256 . S
C663 C656 1.496 . S
H664 C647 0.929 . S
H665 C648 0.929 . S
H666 C649 0.929 . S
H667 C650 0.931 . S
H668 C658 0.929 . S
H669 C659 0.929 . S
H670 C660 0.931 . S
H671 C661 0.929 . S
Tb672 N701 2.617 . S
Tb672 N707 2.572 . S
Tb672 O716 2.465 . S
Tb672 O717 2.387 . S
Tb672 O719 2.428 . S
Tb672 O720 2.308 . S
Tb672 O724 2.349 . S
Tb672 O727 2.393 . S
Tb672 C736 2.802 . S
C673 N674 1.379 . S
C673 C676 1.416 . S
C673 C680 1.424 . S
N674 C673 1.379 . S
N674 C677 1.334 . S
N674 Tb683 2.617 . S
C675 C677 1.390 . S
C675 C678 1.339 . S
C675 H695 0.930 . S
C676 C673 1.416 . S
C676 C678 1.416 . S
C676 C682 1.448 . S
C677 N674 1.334 . S
C677 C675 1.390 . S
C677 H688 0.930 . S
C678 C675 1.339 . S
C678 C676 1.416 . S
C678 H699 0.930 . S
C679 C680 1.413 . S
C679 C681 1.427 . S
C679 C685 1.416 . S
C680 C673 1.424 . S
C680 C679 1.413 . S
C680 N684 1.361 . S
C681 C679 1.427 . S
C681 C682 1.328 . S
C681 H696 0.929 . S
C682 C676 1.448 . S
C682 C681 1.328 . S
C682 H697 0.930 . S
Tb683 N674 2.617 . S
Tb683 N684 2.572 . S
Tb683 O718 2.349 . S
Tb683 O721 2.393 . S
Tb683 O722 2.465 . S
Tb683 O723 2.387 . S
Tb683 O725 2.428 . S
Tb683 O726 2.308 . S
Tb683 C747 2.802 . S
N684 C680 1.361 . S
N684 Tb683 2.572 . S
N684 C686 1.340 . S
C685 C679 1.416 . S
C685 C687 1.332 . S
C685 H693 0.931 . S
C686 N684 1.340 . S
C686 C687 1.407 . S
C686 H692 0.930 . S
C687 C685 1.332 . S
C687 C686 1.407 . S
C687 H689 0.929 . S
H688 C677 0.930 . S
H689 C687 0.929 . S
H690 C705 0.930 . S
H691 C712 0.929 . S
H692 C686 0.930 . S
H693 C685 0.931 . S
H694 C708 0.930 . S
H695 C675 0.930 . S
H696 C681 0.929 . S
H697 C682 0.930 . S
H698 C703 0.930 . S
H699 C678 0.930 . S
H700 C711 0.931 . S
N701 Tb672 2.617 . S
N701 C702 1.379 . S
N701 C705 1.334 . S
C702 N701 1.379 . S
C702 C704 1.416 . S
C702 C710 1.424 . S
C703 H698 0.930 . S
C703 C705 1.390 . S
C703 C706 1.339 . S
C704 C702 1.416 . S
C704 C706 1.416 . S
C704 C737 1.448 . S
C705 H690 0.930 . S
C705 N701 1.334 . S
C705 C703 1.390 . S
C706 C703 1.339 . S
C706 C704 1.416 . S
C706 H713 0.930 . S
N707 Tb672 2.572 . S
N707 C708 1.340 . S
N707 C710 1.361 . S
C708 H694 0.930 . S
C708 N707 1.340 . S
C708 C712 1.407 . S
C709 C710 1.413 . S
C709 C711 1.416 . S
C709 C738 1.427 . S
C710 C702 1.424 . S
C710 N707 1.361 . S
C710 C709 1.413 . S
C711 H700 0.931 . S
C711 C709 1.416 . S
C711 C712 1.332 . S
C712 H691 0.929 . S
C712 C708 1.407 . S
C712 C711 1.332 . S
H713 C706 0.930 . S
H714 C737 0.930 . S
H715 C738 0.910 1_545 S
O716 Tb672 2.465 . S
O716 C736 1.264 . S
O717 Tb672 2.387 . S
O717 C728 1.264 . S
O718 Tb683 2.349 . S
O718 C728 1.243 . S
O719 Tb672 2.428 . S
O719 C736 1.256 . S
O720 Tb672 2.308 . S
O720 C735 1.266 . S
O721 Tb683 2.393 . S
O721 C735 1.248 . S
O722 Tb683 2.465 . S
O722 C747 1.264 . S
O723 Tb683 2.387 . S
O723 C739 1.264 . S
O724 Tb672 2.349 . S
O724 C739 1.243 . S
O725 Tb683 2.428 . S
O725 C747 1.256 . S
O726 Tb683 2.308 . S
O726 C746 1.266 . S
O727 Tb672 2.393 . S
O727 C746 1.248 . S
C728 O717 1.264 . S
C728 O718 1.243 . S
C729 C732 1.399 . S
C729 C734 1.383 . S
C729 C736 1.496 . S
C730 C731 1.399 . S
C730 C734 1.389 . S
C731 C730 1.399 . S
C731 C733 1.380 . S
C731 H748 0.929 . S
C732 C729 1.399 . S
C732 C733 1.392 . S
C732 H749 0.929 . S
C733 C731 1.380 . S
C733 C732 1.392 . S
C733 H750 0.929 . S
C734 C729 1.383 . S
C734 C730 1.389 . S
C734 H751 0.931 . S
C735 O720 1.266 . S
C735 O721 1.248 . S
C736 Tb672 2.802 . S
C736 O716 1.264 . S
C736 O719 1.256 . S
C736 C729 1.496 . S
C737 C704 1.448 . S
C737 H714 0.930 . S
C737 C738 1.328 . S
C738 C709 1.427 . S
C738 H715 0.910 1_565 S
C738 C737 1.328 . S
C739 O723 1.264 . S
C739 O724 1.243 . S
C740 C743 1.399 . S
C740 C744 1.383 . S
C740 C747 1.496 . S
C741 C742 1.399 . S
C741 C744 1.389 . S
C742 C741 1.399 . S
C742 C745 1.380 . S
C742 H752 0.929 . S
C743 C740 1.399 . S
C743 C745 1.392 . S
C743 H753 0.929 . S
C744 C740 1.383 . S
C744 C741 1.389 . S
C744 H754 0.931 . S
C745 C742 1.380 . S
C745 C743 1.392 . S
C745 H755 0.929 . S
C746 O726 1.266 . S
C746 O727 1.248 . S
C747 Tb683 2.802 . S
C747 O722 1.264 . S
C747 O725 1.256 . S
C747 C740 1.496 . S
H748 C731 0.929 . S
H749 C732 0.929 . S
H750 C733 0.929 . S
H751 C734 0.931 . S
H752 C742 0.929 . S
H753 C743 0.929 . S
H754 C744 0.931 . S
H755 C745 0.929 . S
Tb756 N785 2.617 . S
Tb756 N791 2.572 . S
Tb756 O800 2.465 . S
Tb756 O801 2.387 . S
Tb756 O803 2.428 . S
Tb756 O804 2.308 . S
Tb756 O808 2.349 . S
Tb756 O811 2.393 . S
Tb756 C820 2.802 . S
C757 N758 1.379 . S
C757 C760 1.416 . S
C757 C764 1.424 . S
N758 C757 1.379 . S
N758 C761 1.334 . S
N758 Tb767 2.617 . S
C759 C761 1.390 . S
C759 C762 1.339 . S
C759 H779 0.930 . S
C760 C757 1.416 . S
C760 C762 1.416 . S
C760 C766 1.448 . S
C761 N758 1.334 . S
C761 C759 1.390 . S
C761 H772 0.930 . S
C762 C759 1.339 . S
C762 C760 1.416 . S
C762 H783 0.930 . S
C763 C764 1.413 . S
C763 C765 1.427 . S
C763 C769 1.416 . S
C764 C757 1.424 . S
C764 C763 1.413 . S
C764 N768 1.361 . S
C765 C763 1.427 . S
C765 C766 1.328 . S
C765 H780 0.929 . S
C766 C760 1.448 . S
C766 C765 1.328 . S
C766 H781 0.930 . S
Tb767 N758 2.617 . S
Tb767 N768 2.572 . S
Tb767 O802 2.349 . S
Tb767 O805 2.393 . S
Tb767 O806 2.465 . S
Tb767 O807 2.387 . S
Tb767 O809 2.428 . S
Tb767 O810 2.308 . S
Tb767 C831 2.802 . S
N768 C764 1.361 . S
N768 Tb767 2.572 . S
N768 C770 1.340 . S
C769 C763 1.416 . S
C769 C771 1.332 . S
C769 H777 0.931 . S
C770 N768 1.340 . S
C770 C771 1.407 . S
C770 H776 0.930 . S
C771 C769 1.332 . S
C771 C770 1.407 . S
C771 H773 0.929 . S
H772 C761 0.930 . S
H773 C771 0.929 . S
H774 C789 0.930 . S
H775 C796 0.929 . S
H776 C770 0.930 . S
H777 C769 0.931 . S
H778 C792 0.930 . S
H779 C759 0.930 . S
H780 C765 0.929 . S
H781 C766 0.930 . S
H782 C787 0.930 . S
H783 C762 0.930 . S
H784 C795 0.931 . S
N785 Tb756 2.617 . S
N785 C786 1.379 . S
N785 C789 1.334 . S
C786 N785 1.379 . S
C786 C788 1.416 . S
C786 C794 1.424 . S
C787 H782 0.930 . S
C787 C789 1.390 . S
C787 C790 1.339 . S
C788 C786 1.416 . S
C788 C790 1.416 . S
C788 C821 1.448 . S
C789 H774 0.930 . S
C789 N785 1.334 . S
C789 C787 1.390 . S
C790 C787 1.339 . S
C790 C788 1.416 . S
C790 H797 0.930 . S
N791 Tb756 2.572 . S
N791 C792 1.340 . S
N791 C794 1.361 . S
C792 H778 0.930 . S
C792 N791 1.340 . S
C792 C796 1.407 . S
C793 C794 1.413 . S
C793 C795 1.416 . S
C793 C822 1.427 . S
C794 C786 1.424 . S
C794 N791 1.361 . S
C794 C793 1.413 . S
C795 H784 0.931 . S
C795 C793 1.416 . S
C795 C796 1.332 . S
C796 H775 0.929 . S
C796 C792 1.407 . S
C796 C795 1.332 . S
H797 C790 0.930 . S
H798 C821 0.930 . S
H799 C822 0.929 . S
O800 Tb756 2.465 . S
O800 C820 1.264 . S
O801 Tb756 2.387 . S
O801 C812 1.264 . S
O802 Tb767 2.349 . S
O802 C812 1.243 . S
O803 Tb756 2.428 . S
O803 C820 1.256 . S
O804 Tb756 2.308 . S
O804 C819 1.266 . S
O805 Tb767 2.393 . S
O805 C819 1.248 . S
O806 Tb767 2.465 . S
O806 C831 1.264 . S
O807 Tb767 2.387 . S
O807 C823 1.264 . S
O808 Tb756 2.349 . S
O808 C823 1.243 . S
O809 Tb767 2.428 . S
O809 C831 1.256 . S
O810 Tb767 2.308 . S
O810 C830 1.266 . S
O811 Tb756 2.393 . S
O811 C830 1.248 . S
C812 O801 1.264 . S
C812 O802 1.243 . S
C813 C816 1.399 . S
C813 C818 1.383 . S
C813 C820 1.496 . S
C814 C815 1.399 . S
C814 C818 1.389 1_655 S
C815 C814 1.399 . S
C815 C817 1.380 . S
C815 H832 0.929 . S
C816 C813 1.399 . S
C816 C817 1.392 1_455 S
C816 H833 0.929 . S
C817 C815 1.380 . S
C817 C816 1.392 1_655 S
C817 H834 0.929 . S
C818 C813 1.383 . S
C818 C814 1.389 1_455 S
C818 H835 0.931 . S
C819 O804 1.266 . S
C819 O805 1.248 . S
C820 Tb756 2.802 . S
C820 O800 1.264 . S
C820 O803 1.256 . S
C820 C813 1.496 . S
C821 C788 1.448 . S
C821 H798 0.930 . S
C821 C822 1.328 . S
C822 C793 1.427 . S
C822 H799 0.929 . S
C822 C821 1.328 . S
C823 O807 1.264 . S
C823 O808 1.243 . S
C824 C827 1.399 . S
C824 C828 1.383 . S
C824 C831 1.496 . S
C825 C826 1.399 . S
C825 C828 1.389 . S
C826 C825 1.399 . S
C826 C829 1.380 . S
C826 H836 0.929 . S
C827 C824 1.399 . S
C827 C829 1.392 . S
C827 H837 0.929 . S
C828 C824 1.383 . S
C828 C825 1.389 . S
C828 H838 0.931 . S
C829 C826 1.380 . S
C829 C827 1.392 . S
C829 H839 0.929 . S
C830 O810 1.266 . S
C830 O811 1.248 . S
C831 Tb767 2.802 . S
C831 O806 1.264 . S
C831 O809 1.256 . S
C831 C824 1.496 . S
H832 C815 0.929 . S
H833 C816 0.929 . S
H834 C817 0.929 . S
H835 C818 0.931 . S
H836 C826 0.929 . S
H837 C827 0.929 . S
H838 C828 0.931 . S
H839 C829 0.929 . S
Tb840 N869 2.617 . S
Tb840 N875 2.572 . S
Tb840 O884 2.465 . S
Tb840 O885 2.387 . S
Tb840 O887 2.428 . S
Tb840 O888 2.308 . S
Tb840 O892 2.349 . S
Tb840 O895 2.393 . S
Tb840 C904 2.802 . S
C841 N842 1.379 . S
C841 C844 1.416 . S
C841 C848 1.424 . S
N842 C841 1.379 . S
N842 C845 1.334 . S
N842 Tb851 2.617 . S
C843 C845 1.390 . S
C843 C846 1.339 . S
C843 H863 0.930 . S
C844 C841 1.416 . S
C844 C846 1.416 . S
C844 C850 1.448 . S
C845 N842 1.334 . S
C845 C843 1.390 . S
C845 H856 0.930 . S
C846 C843 1.339 . S
C846 C844 1.416 . S
C846 H867 0.930 . S
C847 C848 1.413 . S
C847 C849 1.427 . S
C847 C853 1.416 . S
C848 C841 1.424 . S
C848 C847 1.413 . S
C848 N852 1.361 . S
C849 C847 1.427 . S
C849 C850 1.328 . S
C849 H864 0.929 . S
C850 C844 1.448 . S
C850 C849 1.328 . S
C850 H865 0.930 . S
Tb851 N842 2.617 . S
Tb851 N852 2.572 . S
Tb851 O886 2.349 . S
Tb851 O889 2.393 . S
Tb851 O890 2.465 . S
Tb851 O891 2.387 . S
Tb851 O893 2.428 . S
Tb851 O894 2.308 . S
Tb851 C915 2.802 . S
N852 C848 1.361 . S
N852 Tb851 2.572 . S
N852 C854 1.340 . S
C853 C847 1.416 . S
C853 C855 1.332 . S
C853 H861 0.931 . S
C854 N852 1.340 . S
C854 C855 1.407 . S
C854 H860 0.930 . S
C855 C853 1.332 . S
C855 C854 1.407 . S
C855 H857 0.929 . S
H856 C845 0.930 . S
H857 C855 0.929 . S
H858 C873 0.930 . S
H859 C880 0.929 . S
H860 C854 0.930 . S
H861 C853 0.931 . S
H862 C876 0.930 . S
H863 C843 0.930 . S
H864 C849 0.929 . S
H865 C850 0.930 . S
H866 C871 0.930 . S
H867 C846 0.930 . S
H868 C879 0.931 . S
N869 Tb840 2.617 . S
N869 C870 1.379 . S
N869 C873 1.334 . S
C870 N869 1.379 . S
C870 C872 1.416 . S
C870 C878 1.424 . S
C871 H866 0.930 . S
C871 C873 1.390 . S
C871 C874 1.339 . S
C872 C870 1.416 . S
C872 C874 1.416 . S
C872 C905 1.448 . S
C873 H858 0.930 . S
C873 N869 1.334 . S
C873 C871 1.390 . S
C874 C871 1.339 . S
C874 C872 1.416 . S
C874 H881 0.930 . S
N875 Tb840 2.572 . S
N875 C876 1.340 . S
N875 C878 1.361 . S
C876 H862 0.930 . S
C876 N875 1.340 . S
C876 C880 1.407 . S
C877 C878 1.413 . S
C877 C879 1.416 . S
C877 C906 1.427 . S
C878 C870 1.424 . S
C878 N875 1.361 . S
C878 C877 1.413 . S
C879 H868 0.931 . S
C879 C877 1.416 . S
C879 C880 1.332 . S
C880 H859 0.929 . S
C880 C876 1.407 . S
C880 C879 1.332 . S
H881 C874 0.930 . S
H882 C905 0.930 . S
H883 C906 0.913 1_655 S
O884 Tb840 2.465 . S
O884 C904 1.264 . S
O885 Tb840 2.387 . S
O885 C896 1.264 . S
O886 Tb851 2.349 . S
O886 C896 1.243 . S
O887 Tb840 2.428 . S
O887 C904 1.256 . S
O888 Tb840 2.308 . S
O888 C903 1.266 . S
O889 Tb851 2.393 . S
O889 C903 1.248 . S
O890 Tb851 2.465 . S
O890 C915 1.264 . S
O891 Tb851 2.387 . S
O891 C907 1.264 . S
O892 Tb840 2.349 . S
O892 C907 1.243 . S
O893 Tb851 2.428 . S
O893 C915 1.256 . S
O894 Tb851 2.308 . S
O894 C914 1.266 . S
O895 Tb840 2.393 . S
O895 C914 1.248 . S
C896 O885 1.264 . S
C896 O886 1.243 . S
C897 C900 1.399 . S
C897 C902 1.383 . S
C897 C904 1.496 . S
C898 C899 1.399 . S
C898 C902 1.389 . S
C899 C898 1.399 . S
C899 C901 1.380 . S
C899 H916 0.929 . S
C900 C897 1.399 . S
C900 C901 1.392 . S
C900 H917 0.929 . S
C901 C899 1.380 . S
C901 C900 1.392 . S
C901 H918 0.929 . S
C902 C897 1.383 . S
C902 C898 1.389 . S
C902 H919 0.931 . S
C903 O888 1.266 . S
C903 O889 1.248 . S
C904 Tb840 2.802 . S
C904 O884 1.264 . S
C904 O887 1.256 . S
C904 C897 1.496 . S
C905 C872 1.448 . S
C905 H882 0.930 . S
C905 C906 1.328 . S
C906 C877 1.427 . S
C906 H883 0.913 1_455 S
C906 C905 1.328 . S
C907 O891 1.264 . S
C907 O892 1.243 . S
C908 C911 1.399 . S
C908 C912 1.383 . S
C908 C915 1.496 . S
C909 C910 1.399 . S
C909 C912 1.389 1_545 S
C910 C909 1.399 . S
C910 C913 1.380 . S
C910 H920 0.929 . S
C911 C908 1.399 . S
C911 C913 1.392 1_565 S
C911 H921 0.929 . S
C912 C908 1.383 . S
C912 C909 1.389 1_565 S
C912 H922 0.931 . S
C913 C910 1.380 . S
C913 C911 1.392 1_545 S
C913 H923 0.929 . S
C914 O894 1.266 . S
C914 O895 1.248 . S
C915 Tb851 2.802 . S
C915 O890 1.264 . S
C915 O893 1.256 . S
C915 C908 1.496 . S
H916 C899 0.929 . S
H917 C900 0.929 . S
H918 C901 0.929 . S
H919 C902 0.931 . S
H920 C910 0.929 . S
H921 C911 0.929 . S
H922 C912 0.931 . S
H923 C913 0.929 . S
Tb924 N953 2.617 . S
Tb924 N959 2.572 . S
Tb924 O968 2.465 . S
Tb924 O969 2.387 . S
Tb924 O971 2.428 . S
Tb924 O972 2.308 . S
Tb924 O976 2.349 . S
Tb924 O979 2.393 . S
Tb924 C988 2.802 . S
C925 N926 1.379 . S
C925 C928 1.416 . S
C925 C932 1.424 . S
N926 C925 1.379 . S
N926 C929 1.334 . S
N926 Tb935 2.617 . S
C927 C929 1.390 . S
C927 C930 1.339 . S
C927 H947 0.930 . S
C928 C925 1.416 . S
C928 C930 1.416 . S
C928 C934 1.448 . S
C929 N926 1.334 . S
C929 C927 1.390 . S
C929 H940 0.930 . S
C930 C927 1.339 . S
C930 C928 1.416 . S
C930 H951 0.930 . S
C931 C932 1.413 . S
C931 C933 1.427 . S
C931 C937 1.416 . S
C932 C925 1.424 . S
C932 C931 1.413 . S
C932 N936 1.361 . S
C933 C931 1.427 . S
C933 C934 1.328 . S
C933 H948 0.910 1_565 S
C934 C928 1.448 . S
C934 C933 1.328 . S
C934 H949 0.930 . S
Tb935 N926 2.617 . S
Tb935 N936 2.572 . S
Tb935 O970 2.349 . S
Tb935 O973 2.393 . S
Tb935 O974 2.465 . S
Tb935 O975 2.387 . S
Tb935 O977 2.428 . S
Tb935 O978 2.308 . S
Tb935 C999 2.802 . S
N936 C932 1.361 . S
N936 Tb935 2.572 . S
N936 C938 1.340 . S
C937 C931 1.416 . S
C937 C939 1.332 . S
C937 H945 0.931 . S
C938 N936 1.340 . S
C938 C939 1.407 . S
C938 H944 0.930 . S
C939 C937 1.332 . S
C939 C938 1.407 . S
C939 H941 0.929 . S
H940 C929 0.930 . S
H941 C939 0.929 . S
H942 C957 0.930 . S
H943 C964 0.929 . S
H944 C938 0.930 . S
H945 C937 0.931 . S
H946 C960 0.930 . S
H947 C927 0.930 . S
H948 C933 0.910 1_545 S
H949 C934 0.930 . S
H950 C955 0.930 . S
H951 C930 0.930 . S
H952 C963 0.931 . S
N953 Tb924 2.617 . S
N953 C954 1.379 . S
N953 C957 1.334 . S
C954 N953 1.379 . S
C954 C956 1.416 . S
C954 C962 1.424 . S
C955 H950 0.930 . S
C955 C957 1.390 . S
C955 C958 1.339 . S
C956 C954 1.416 . S
C956 C958 1.416 . S
C956 C989 1.448 . S
C957 H942 0.930 . S
C957 N953 1.334 . S
C957 C955 1.390 . S
C958 C955 1.339 . S
C958 C956 1.416 . S
C958 H965 0.930 . S
N959 Tb924 2.572 . S
N959 C960 1.340 . S
N959 C962 1.361 . S
C960 H946 0.930 . S
C960 N959 1.340 . S
C960 C964 1.407 . S
C961 C962 1.413 . S
C961 C963 1.416 . S
C961 C990 1.427 . S
C962 C954 1.424 . S
C962 N959 1.361 . S
C962 C961 1.413 . S
C963 H952 0.931 . S
C963 C961 1.416 . S
C963 C964 1.332 . S
C964 H943 0.929 . S
C964 C960 1.407 . S
C964 C963 1.332 . S
H965 C958 0.930 . S
H966 C989 0.930 . S
H967 C990 0.929 . S
O968 Tb924 2.465 . S
O968 C988 1.264 . S
O969 Tb924 2.387 . S
O969 C980 1.264 . S
O970 Tb935 2.349 . S
O970 C980 1.243 . S
O971 Tb924 2.428 . S
O971 C988 1.256 . S
O972 Tb924 2.308 . S
O972 C987 1.266 . S
O973 Tb935 2.393 . S
O973 C987 1.248 . S
O974 Tb935 2.465 . S
O974 C999 1.264 . S
O975 Tb935 2.387 . S
O975 C991 1.264 . S
O976 Tb924 2.349 . S
O976 C991 1.243 . S
O977 Tb935 2.428 . S
O977 C999 1.256 . S
O978 Tb935 2.308 . S
O978 C998 1.266 . S
O979 Tb924 2.393 . S
O979 C998 1.248 . S
C980 O969 1.264 . S
C980 O970 1.243 . S
C981 C984 1.399 . S
C981 C986 1.383 . S
C981 C988 1.496 . S
C982 C983 1.399 . S
C982 C986 1.389 . S
C983 C982 1.399 . S
C983 C985 1.380 . S
C983 H1000 0.929 . S
C984 C981 1.399 . S
C984 C985 1.392 . S
C984 H1001 0.929 . S
C985 C983 1.380 . S
C985 C984 1.392 . S
C985 H1002 0.929 . S
C986 C981 1.383 . S
C986 C982 1.389 . S
C986 H1003 0.931 . S
C987 O972 1.266 . S
C987 O973 1.248 . S
C988 Tb924 2.802 . S
C988 O968 1.264 . S
C988 O971 1.256 . S
C988 C981 1.496 . S
C989 C956 1.448 . S
C989 H966 0.930 . S
C989 C990 1.328 . S
C990 C961 1.427 . S
C990 H967 0.929 . S
C990 C989 1.328 . S
C991 O975 1.264 . S
C991 O976 1.243 . S
C992 C995 1.399 . S
C992 C996 1.383 . S
C992 C999 1.496 . S
C993 C994 1.399 . S
C993 C996 1.389 . S
C994 C993 1.399 . S
C994 C997 1.380 . S
C994 H1004 0.929 . S
C995 C992 1.399 . S
C995 C997 1.392 . S
C995 H1005 0.929 . S
C996 C992 1.383 . S
C996 C993 1.389 . S
C996 H1006 0.931 . S
C997 C994 1.380 . S
C997 C995 1.392 . S
C997 H1007 0.929 . S
C998 O978 1.266 . S
C998 O979 1.248 . S
C999 Tb935 2.802 . S
C999 O974 1.264 . S
C999 O977 1.256 . S
C999 C992 1.496 . S
H1000 C983 0.929 . S
H1001 C984 0.929 . S
H1002 C985 0.929 . S
H1003 C986 0.931 . S
H1004 C994 0.929 . S
H1005 C995 0.929 . S
H1006 C996 0.931 . S
H1007 C997 0.929 . S
H1008 C1016 0.929 . S
H1009 C1018 0.930 . S
H1010 C1020 0.930 . S
H1011 C1023 0.929 . S
H1012 C1026 0.930 . S
H1013 C1028 0.960 . S
H1014 C1028 0.960 . S
H1015 C1028 0.960 . S
C1016 H1008 0.929 . S
C1016 C1017 1.377 . S
C1016 C1018 1.384 . S
C1017 C1016 1.377 . S
C1017 C1023 1.390 . S
C1018 H1009 0.930 . S
C1018 C1016 1.384 . S
C1018 C1019 1.372 . S
C1019 C1018 1.372 . S
C1019 C1020 1.400 . S
C1019 C1024 1.490 . S
C1020 H1010 0.930 . S
C1020 C1019 1.400 . S
C1020 C1023 1.386 . S
H1021 C1037 0.930 . S
H1022 C1038 0.931 . S
C1023 H1011 0.929 . S
C1023 C1017 1.390 . S
C1023 C1020 1.386 . S
C1024 C1019 1.490 . S
C1024 C1026 1.395 . S
C1024 C1027 1.403 . S
H1025 C1031 0.930 . S
C1026 H1012 0.930 . S
C1026 C1024 1.395 . S
C1026 C1029 1.403 . S
C1027 C1024 1.403 . S
C1027 C1028 1.524 . S
C1027 C1031 1.400 . S
C1028 H1013 0.960 . S
C1028 H1014 0.960 . S
C1028 H1015 0.960 . S
C1028 C1027 1.524 . S
C1029 C1026 1.403 . S
C1029 C1030 1.392 . S
C1029 C1033 1.495 . S
C1030 C1029 1.392 . S
C1030 C1031 1.385 . S
C1030 C1032 1.478 . S
C1031 H1025 0.930 . S
C1031 C1027 1.400 . S
C1031 C1030 1.385 . S
C1032 C1030 1.478 . S
C1032 C1034 1.381 . S
C1032 C1038 1.383 . S
C1033 C1029 1.495 . S
C1033 H1039 0.959 . S
C1033 H1040 0.961 . S
C1033 H1041 0.960 . S
C1034 C1032 1.381 . S
C1034 C1035 1.394 . S
C1034 H1042 0.930 . S
C1035 C1034 1.394 . S
C1035 C1036 1.383 . S
C1035 H1043 0.929 . S
C1036 C1035 1.383 . S
C1036 C1037 1.377 . S
C1037 H1021 0.930 . S
C1037 C1036 1.377 . S
C1037 C1038 1.379 . S
C1038 H1022 0.931 . S
C1038 C1032 1.383 . S
C1038 C1037 1.379 . S
H1039 C1033 0.959 . S
H1040 C1033 0.961 . S
H1041 C1033 0.960 . S
H1042 C1034 0.930 . S
H1043 C1035 0.929 . S
H1044 C1052 0.929 . S
H1045 C1054 0.930 . S
H1046 C1056 0.930 . S
H1047 C1059 0.929 . S
H1048 C1062 0.930 . S
H1049 C1064 0.960 . S
H1050 C1064 0.960 . S
H1051 C1064 0.960 . S
C1052 H1044 0.929 . S
C1052 C1053 1.377 . S
C1052 C1054 1.384 . S
C1053 C1052 1.377 . S
C1053 C1059 1.390 . S
C1054 H1045 0.930 . S
C1054 C1052 1.384 . S
C1054 C1055 1.372 . S
C1055 C1054 1.372 . S
C1055 C1056 1.400 . S
C1055 C1060 1.490 . S
C1056 H1046 0.930 . S
C1056 C1055 1.400 . S
C1056 C1059 1.386 . S
H1057 C1073 0.930 . S
H1058 C1074 0.931 . S
C1059 H1047 0.929 . S
C1059 C1053 1.390 . S
C1059 C1056 1.386 . S
C1060 C1055 1.490 . S
C1060 C1062 1.395 . S
C1060 C1063 1.403 . S
H1061 C1067 0.934 . S
C1062 H1048 0.930 . S
C1062 C1060 1.395 . S
C1062 C1065 1.403 . S
C1063 C1060 1.403 . S
C1063 C1064 1.524 . S
C1063 C1067 1.398 1_455 S
C1064 H1049 0.960 . S
C1064 H1050 0.960 . S
C1064 H1051 0.960 . S
C1064 C1063 1.524 . S
C1065 C1062 1.403 . S
C1065 C1066 1.392 1_455 S
C1065 C1069 1.495 . S
C1066 C1065 1.392 1_655 S
C1066 C1067 1.383 . S
C1066 C1068 1.478 . S
C1067 H1061 0.934 . S
C1067 C1063 1.398 1_655 S
C1067 C1066 1.383 . S
C1068 C1066 1.478 . S
C1068 C1070 1.381 . S
C1068 C1074 1.383 . S
C1069 C1065 1.495 . S
C1069 H1075 0.959 . S
C1069 H1076 0.961 . S
C1069 H1077 0.960 . S
C1070 C1068 1.381 . S
C1070 C1071 1.394 . S
C1070 H1078 0.930 . S
C1071 C1070 1.394 . S
C1071 C1072 1.383 . S
C1071 H1079 0.929 . S
C1072 C1071 1.383 . S
C1072 C1073 1.377 . S
C1073 H1057 0.930 . S
C1073 C1072 1.377 . S
C1073 C1074 1.379 . S
C1074 H1058 0.931 . S
C1074 C1068 1.383 . S
C1074 C1073 1.379 . S
H1075 C1069 0.959 . S
H1076 C1069 0.961 . S
H1077 C1069 0.960 . S
H1078 C1070 0.930 . S
H1079 C1071 0.929 . S
H1080 C1088 0.929 . S
H1081 C1090 0.930 . S
H1082 C1092 0.930 . S
H1083 C1095 0.929 . S
H1084 C1098 0.930 1_545 S
H1085 C1100 0.967 . S
H1086 C1100 0.955 1_545 S
H1087 C1100 0.953 1_545 S
C1088 H1080 0.929 . S
C1088 C1089 1.377 . S
C1088 C1090 1.384 . S
C1089 C1088 1.377 . S
C1089 C1095 1.390 . S
C1090 H1081 0.930 . S
C1090 C1088 1.384 . S
C1090 C1091 1.372 . S
C1091 C1090 1.372 . S
C1091 C1092 1.400 . S
C1091 C1096 1.490 . S
C1092 H1082 0.930 . S
C1092 C1091 1.400 . S
C1092 C1095 1.386 . S
H1093 C1109 0.930 . S
H1094 C1110 0.931 . S
C1095 H1083 0.929 . S
C1095 C1089 1.390 . S
C1095 C1092 1.386 . S
C1096 C1091 1.490 . S
C1096 C1098 1.395 1_545 S
C1096 C1099 1.403 1_545 S
H1097 C1103 0.930 . S
C1098 H1084 0.930 1_565 S
C1098 C1096 1.395 1_565 S
C1098 C1101 1.403 . S
C1099 C1096 1.403 1_565 S
C1099 C1100 1.528 . S
C1099 C1103 1.400 . S
C1100 H1085 0.967 . S
C1100 H1086 0.955 1_565 S
C1100 H1087 0.953 1_565 S
C1100 C1099 1.528 . S
C1101 C1098 1.403 . S
C1101 C1102 1.392 . S
C1101 C1105 1.495 . S
C1102 C1101 1.392 . S
C1102 C1103 1.385 . S
C1102 C1104 1.478 . S
C1103 H1097 0.930 . S
C1103 C1099 1.400 . S
C1103 C1102 1.385 . S
C1104 C1102 1.478 . S
C1104 C1106 1.381 . S
C1104 C1110 1.383 . S
C1105 C1101 1.495 . S
C1105 H1111 0.959 . S
C1105 H1112 0.961 . S
C1105 H1113 0.960 . S
C1106 C1104 1.381 . S
C1106 C1107 1.394 . S
C1106 H1114 0.930 . S
C1107 C1106 1.394 . S
C1107 C1108 1.383 . S
C1107 H1115 0.929 . S
C1108 C1107 1.383 . S
C1108 C1109 1.377 . S
C1109 H1093 0.930 . S
C1109 C1108 1.377 . S
C1109 C1110 1.379 . S
C1110 H1094 0.931 . S
C1110 C1104 1.383 . S
C1110 C1109 1.379 . S
H1111 C1105 0.959 . S
H1112 C1105 0.961 . S
H1113 C1105 0.960 . S
H1114 C1106 0.930 . S
H1115 C1107 0.929 . S
H1116 C1124 0.929 . S
H1117 C1126 0.930 . S
H1118 C1128 0.930 . S
H1119 C1131 0.929 . S
H1120 C1134 0.930 . S
H1121 C1136 0.960 . S
H1122 C1136 0.960 . S
H1123 C1136 0.960 . S
C1124 H1116 0.929 . S
C1124 C1125 1.377 . S
C1124 C1126 1.384 . S
C1125 C1124 1.377 . S
C1125 C1131 1.390 . S
C1126 H1117 0.930 . S
C1126 C1124 1.384 . S
C1126 C1127 1.372 . S
C1127 C1126 1.372 . S
C1127 C1128 1.400 . S
C1127 C1132 1.490 . S
C1128 H1118 0.930 . S
C1128 C1127 1.400 . S
C1128 C1131 1.386 . S
H1129 C1145 0.930 . S
H1130 C1146 0.931 . S
C1131 H1119 0.929 . S
C1131 C1125 1.390 . S
C1131 C1128 1.386 . S
C1132 C1127 1.490 . S
C1132 C1134 1.395 . S
C1132 C1135 1.403 . S
H1133 C1139 0.930 . S
C1134 H1120 0.930 . S
C1134 C1132 1.395 . S
C1134 C1137 1.403 . S
C1135 C1132 1.403 . S
C1135 C1136 1.524 . S
C1135 C1139 1.400 . S
C1136 H1121 0.960 . S
C1136 H1122 0.960 . S
C1136 H1123 0.960 . S
C1136 C1135 1.524 . S
C1137 C1134 1.403 . S
C1137 C1138 1.392 . S
C1137 C1141 1.495 . S
C1138 C1137 1.392 . S
C1138 C1139 1.385 . S
C1138 C1140 1.478 . S
C1139 H1133 0.930 . S
C1139 C1135 1.400 . S
C1139 C1138 1.385 . S
C1140 C1138 1.478 . S
C1140 C1142 1.381 . S
C1140 C1146 1.383 . S
C1141 C1137 1.495 . S
C1141 H1147 0.959 . S
C1141 H1148 0.961 . S
C1141 H1149 0.960 . S
C1142 C1140 1.381 . S
C1142 C1143 1.394 . S
C1142 H1150 0.930 . S
C1143 C1142 1.394 . S
C1143 C1144 1.383 . S
C1143 H1151 0.929 . S
C1144 C1143 1.383 . S
C1144 C1145 1.377 . S
C1145 H1129 0.930 . S
C1145 C1144 1.377 . S
C1145 C1146 1.379 . S
C1146 H1130 0.931 . S
C1146 C1140 1.383 . S
C1146 C1145 1.379 . S
H1147 C1141 0.959 . S
H1148 C1141 0.961 . S
H1149 C1141 0.960 . S
H1150 C1142 0.930 . S
H1151 C1143 0.929 . S
H1152 C1160 0.929 . S
H1153 C1162 0.930 . S
H1154 C1164 0.930 . S
H1155 C1167 0.929 . S
H1156 C1170 0.930 . S
H1157 C1172 0.960 . S
H1158 C1172 0.960 . S
H1159 C1172 0.960 . S
C1160 H1152 0.929 . S
C1160 C1161 1.377 . S
C1160 C1162 1.384 . S
C1161 C1160 1.377 . S
C1161 C1167 1.390 . S
C1162 H1153 0.930 . S
C1162 C1160 1.384 . S
C1162 C1163 1.372 . S
C1163 C1162 1.372 . S
C1163 C1164 1.400 . S
C1163 C1168 1.490 . S
C1164 H1154 0.930 . S
C1164 C1163 1.400 . S
C1164 C1167 1.386 . S
H1165 C1181 0.930 . S
H1166 C1182 0.931 . S
C1167 H1155 0.929 . S
C1167 C1161 1.390 . S
C1167 C1164 1.386 . S
C1168 C1163 1.490 . S
C1168 C1170 1.395 . S
C1168 C1171 1.403 . S
H1169 C1175 0.935 . S
C1170 H1156 0.930 . S
C1170 C1168 1.395 . S
C1170 C1173 1.403 . S
C1171 C1168 1.403 . S
C1171 C1172 1.524 . S
C1171 C1175 1.400 . S
C1172 H1157 0.960 . S
C1172 H1158 0.960 . S
C1172 H1159 0.960 . S
C1172 C1171 1.524 . S
C1173 C1170 1.403 . S
C1173 C1174 1.392 1_455 S
C1173 C1177 1.495 1_455 S
C1174 C1173 1.392 1_655 S
C1174 C1175 1.385 1_655 S
C1174 C1176 1.478 . S
C1175 H1169 0.935 . S
C1175 C1171 1.400 . S
C1175 C1174 1.385 1_455 S
C1176 C1174 1.478 . S
C1176 C1178 1.381 . S
C1176 C1182 1.383 . S
C1177 C1173 1.495 1_655 S
C1177 H1183 0.959 1_655 S
C1177 H1184 0.961 . S
C1177 H1185 0.960 . S
C1178 C1176 1.381 . S
C1178 C1179 1.394 . S
C1178 H1186 0.930 . S
C1179 C1178 1.394 . S
C1179 C1180 1.383 . S
C1179 H1187 0.929 . S
C1180 C1179 1.383 . S
C1180 C1181 1.377 . S
C1181 H1165 0.930 . S
C1181 C1180 1.377 . S
C1181 C1182 1.379 . S
C1182 H1166 0.931 . S
C1182 C1176 1.383 . S
C1182 C1181 1.379 . S
H1183 C1177 0.959 1_455 S
H1184 C1177 0.961 . S
H1185 C1177 0.960 . S
H1186 C1178 0.930 . S
H1187 C1179 0.929 . S
H1188 C1196 0.929 . S
H1189 C1198 0.930 . S
H1190 C1200 0.930 . S
H1191 C1203 0.929 . S
H1192 C1206 0.930 . S
H1193 C1208 0.960 . S
H1194 C1208 0.960 . S
H1195 C1208 0.960 . S
C1196 H1188 0.929 . S
C1196 C1197 1.377 . S
C1196 C1198 1.384 . S
C1197 C1196 1.377 . S
C1197 C1203 1.390 . S
C1198 H1189 0.930 . S
C1198 C1196 1.384 . S
C1198 C1199 1.372 . S
C1199 C1198 1.372 . S
C1199 C1200 1.400 . S
C1199 C1204 1.490 . S
C1200 H1190 0.930 . S
C1200 C1199 1.400 . S
C1200 C1203 1.386 . S
H1201 C1217 0.930 . S
H1202 C1218 0.931 . S
C1203 H1191 0.929 . S
C1203 C1197 1.390 . S
C1203 C1200 1.386 . S
C1204 C1199 1.490 . S
C1204 C1206 1.395 . S
C1204 C1207 1.403 . S
H1205 C1211 0.930 1_545 S
C1206 H1192 0.930 . S
C1206 C1204 1.395 . S
C1206 C1209 1.403 . S
C1207 C1204 1.403 . S
C1207 C1208 1.524 . S
C1207 C1211 1.400 . S
C1208 H1193 0.960 . S
C1208 H1194 0.960 . S
C1208 H1195 0.960 . S
C1208 C1207 1.524 . S
C1209 C1206 1.403 . S
C1209 C1210 1.392 1_565 S
C1209 C1213 1.495 . S
C1210 C1209 1.392 1_545 S
C1210 C1211 1.385 1_545 S
C1210 C1212 1.478 . S
C1211 H1205 0.930 1_565 S
C1211 C1207 1.400 . S
C1211 C1210 1.385 1_565 S
C1212 C1210 1.478 . S
C1212 C1214 1.381 . S
C1212 C1218 1.383 . S
C1213 C1209 1.495 . S
C1213 H1219 0.959 . S
C1213 H1220 0.961 . S
C1213 H1221 0.960 . S
C1214 C1212 1.381 . S
C1214 C1215 1.394 . S
C1214 H1222 0.930 . S
C1215 C1214 1.394 . S
C1215 C1216 1.383 . S
C1215 H1223 0.929 . S
C1216 C1215 1.383 . S
C1216 C1217 1.377 . S
C1217 H1201 0.930 . S
C1217 C1216 1.377 . S
C1217 C1218 1.379 . S
C1218 H1202 0.931 . S
C1218 C1212 1.383 . S
C1218 C1217 1.379 . S
H1219 C1213 0.959 . S
H1220 C1213 0.961 . S
H1221 C1213 0.960 . S
H1222 C1214 0.930 . S
H1223 C1215 0.929 . S
H1224 C1232 0.929 . S
H1225 C1234 0.930 . S
H1226 C1236 0.930 . S
H1227 C1239 0.929 . S
H1228 C1242 0.930 . S
H1229 C1244 0.960 . S
H1230 C1244 0.960 . S
H1231 C1244 0.960 . S
C1232 H1224 0.929 . S
C1232 C1233 1.377 . S
C1232 C1234 1.384 . S
C1233 C1232 1.377 . S
C1233 C1239 1.390 . S
C1234 H1225 0.930 . S
C1234 C1232 1.384 . S
C1234 C1235 1.372 . S
C1235 C1234 1.372 . S
C1235 C1236 1.400 . S
C1235 C1240 1.490 . S
C1236 H1226 0.930 . S
C1236 C1235 1.400 . S
C1236 C1239 1.386 . S
H1237 C1253 0.930 . S
H1238 C1254 0.931 . S
C1239 H1227 0.929 . S
C1239 C1233 1.390 . S
C1239 C1236 1.386 . S
C1240 C1235 1.490 . S
C1240 C1242 1.395 . S
C1240 C1243 1.403 . S
H1241 C1247 0.930 . S
C1242 H1228 0.930 . S
C1242 C1240 1.395 . S
C1242 C1245 1.403 . S
C1243 C1240 1.403 . S
C1243 C1244 1.524 . S
C1243 C1247 1.400 . S
C1244 H1229 0.960 . S
C1244 H1230 0.960 . S
C1244 H1231 0.960 . S
C1244 C1243 1.524 . S
C1245 C1242 1.403 . S
C1245 C1246 1.392 . S
C1245 C1249 1.495 . S
C1246 C1245 1.392 . S
C1246 C1247 1.385 . S
C1246 C1248 1.478 . S
C1247 H1241 0.930 . S
C1247 C1243 1.400 . S
C1247 C1246 1.385 . S
C1248 C1246 1.478 . S
C1248 C1250 1.381 . S
C1248 C1254 1.383 . S
C1249 C1245 1.495 . S
C1249 H1255 0.959 . S
C1249 H1256 0.961 . S
C1249 H1257 0.960 . S
C1250 C1248 1.381 . S
C1250 C1251 1.394 . S
C1250 H1258 0.930 . S
C1251 C1250 1.394 . S
C1251 C1252 1.383 . S
C1251 H1259 0.929 . S
C1252 C1251 1.383 . S
C1252 C1253 1.377 . S
C1253 H1237 0.930 . S
C1253 C1252 1.377 . S
C1253 C1254 1.379 . S
C1254 H1238 0.931 . S
C1254 C1248 1.383 . S
C1254 C1253 1.379 . S
H1255 C1249 0.959 . S
H1256 C1249 0.961 . S
H1257 C1249 0.960 . S
H1258 C1250 0.930 . S
H1259 C1251 0.929 . S
H1260 C1268 0.929 . S
H1261 C1270 0.930 . S
H1262 C1272 0.930 . S
H1263 C1275 0.929 . S
H1264 C1278 0.930 . S
H1265 C1280 0.960 . S
H1266 C1280 0.960 . S
H1267 C1280 0.960 . S
C1268 H1260 0.929 . S
C1268 C1269 1.377 . S
C1268 C1270 1.384 . S
C1269 C1268 1.377 . S
C1269 C1275 1.390 . S
C1270 H1261 0.930 . S
C1270 C1268 1.384 . S
C1270 C1271 1.372 . S
C1271 C1270 1.372 . S
C1271 C1272 1.400 . S
C1271 C1276 1.490 . S
C1272 H1262 0.930 . S
C1272 C1271 1.400 . S
C1272 C1275 1.386 . S
H1273 C1289 0.930 . S
H1274 C1290 0.931 . S
C1275 H1263 0.929 . S
C1275 C1269 1.390 . S
C1275 C1272 1.386 . S
C1276 C1271 1.490 . S
C1276 C1278 1.395 1_455 S
C1276 C1279 1.403 1_455 S
H1277 C1283 0.930 . S
C1278 H1264 0.930 . S
C1278 C1276 1.395 1_655 S
C1278 C1281 1.403 . S
C1279 C1276 1.403 1_655 S
C1279 C1280 1.524 1_655 S
C1279 C1283 1.400 . S
C1280 H1265 0.960 . S
C1280 H1266 0.960 . S
C1280 H1267 0.960 . S
C1280 C1279 1.524 1_455 S
C1281 C1278 1.403 . S
C1281 C1282 1.392 . S
C1281 C1285 1.495 . S
C1282 C1281 1.392 . S
C1282 C1283 1.385 . S
C1282 C1284 1.478 . S
C1283 H1277 0.930 . S
C1283 C1279 1.400 . S
C1283 C1282 1.385 . S
C1284 C1282 1.478 . S
C1284 C1286 1.381 . S
C1284 C1290 1.383 . S
C1285 C1281 1.495 . S
C1285 H1291 0.959 . S
C1285 H1292 0.961 . S
C1285 H1293 0.960 . S
C1286 C1284 1.381 . S
C1286 C1287 1.394 . S
C1286 H1294 0.930 . S
C1287 C1286 1.394 . S
C1287 C1288 1.383 . S
C1287 H1295 0.929 . S
C1288 C1287 1.383 . S
C1288 C1289 1.377 . S
C1289 H1273 0.930 . S
C1289 C1288 1.377 . S
C1289 C1290 1.379 . S
C1290 H1274 0.931 . S
C1290 C1284 1.383 . S
C1290 C1289 1.379 . S
H1291 C1285 0.959 . S
H1292 C1285 0.961 . S
H1293 C1285 0.960 . S
H1294 C1286 0.930 . S
H1295 C1287 0.929 . S
H1296 C1304 0.929 . S
H1297 C1306 0.930 . S
H1298 C1308 0.930 . S
H1299 C1311 0.929 . S
H1300 C1314 0.930 . S
H1301 C1316 0.960 . S
H1302 C1316 0.960 . S
H1303 C1316 0.960 . S
C1304 H1296 0.929 . S
C1304 C1305 1.377 . S
C1304 C1306 1.384 . S
C1305 C1304 1.377 . S
C1305 C1311 1.390 . S
C1306 H1297 0.930 . S
C1306 C1304 1.384 . S
C1306 C1307 1.372 . S
C1307 C1306 1.372 . S
C1307 C1308 1.400 . S
C1307 C1312 1.490 . S
C1308 H1298 0.930 . S
C1308 C1307 1.400 . S
C1308 C1311 1.386 . S
H1309 C1325 0.930 . S
H1310 C1326 0.931 . S
C1311 H1299 0.929 . S
C1311 C1305 1.390 . S
C1311 C1308 1.386 . S
C1312 C1307 1.490 . S
C1312 C1314 1.395 . S
C1312 C1315 1.403 1_565 S
H1313 C1319 0.930 . S
C1314 H1300 0.930 . S
C1314 C1312 1.395 . S
C1314 C1317 1.403 1_565 S
C1315 C1312 1.403 1_545 S
C1315 C1316 1.524 . S
C1315 C1319 1.400 . S
C1316 H1301 0.960 . S
C1316 H1302 0.960 . S
C1316 H1303 0.960 . S
C1316 C1315 1.524 . S
C1317 C1314 1.403 1_545 S
C1317 C1318 1.392 . S
C1317 C1321 1.495 . S
C1318 C1317 1.392 . S
C1318 C1319 1.385 . S
C1318 C1320 1.478 . S
C1319 H1313 0.930 . S
C1319 C1315 1.400 . S
C1319 C1318 1.385 . S
C1320 C1318 1.478 . S
C1320 C1322 1.381 . S
C1320 C1326 1.383 . S
C1321 C1317 1.495 . S
C1321 H1327 0.959 . S
C1321 H1328 0.961 . S
C1321 H1329 0.960 . S
C1322 C1320 1.381 . S
C1322 C1323 1.394 . S
C1322 H1330 0.930 . S
C1323 C1322 1.394 . S
C1323 C1324 1.383 . S
C1323 H1331 0.929 . S
C1324 C1323 1.383 . S
C1324 C1325 1.377 . S
C1325 H1309 0.930 . S
C1325 C1324 1.377 . S
C1325 C1326 1.379 . S
C1326 H1310 0.931 . S
C1326 C1320 1.383 . S
C1326 C1325 1.379 . S
H1327 C1321 0.959 . S
H1328 C1321 0.961 . S
H1329 C1321 0.960 . S
H1330 C1322 0.930 . S
H1331 C1323 0.929 . S
H1332 C1340 0.929 . S
H1333 C1342 0.930 . S
H1334 C1344 0.930 . S
H1335 C1347 0.929 . S
H1336 C1350 0.930 . S
H1337 C1352 0.960 . S
H1338 C1352 0.960 . S
H1339 C1352 0.960 . S
C1340 H1332 0.929 . S
C1340 C1341 1.377 . S
C1340 C1342 1.384 . S
C1341 C1340 1.377 . S
C1341 C1347 1.390 . S
C1342 H1333 0.930 . S
C1342 C1340 1.384 . S
C1342 C1343 1.372 . S
C1343 C1342 1.372 . S
C1343 C1344 1.400 . S
C1343 C1348 1.490 . S
C1344 H1334 0.930 . S
C1344 C1343 1.400 . S
C1344 C1347 1.386 . S
H1345 C1361 0.930 . S
H1346 C1362 0.931 . S
C1347 H1335 0.929 . S
C1347 C1341 1.390 . S
C1347 C1344 1.386 . S
C1348 C1343 1.490 . S
C1348 C1350 1.395 . S
C1348 C1351 1.403 . S
H1349 C1355 0.930 . S
C1350 H1336 0.930 . S
C1350 C1348 1.395 . S
C1350 C1353 1.403 . S
C1351 C1348 1.403 . S
C1351 C1352 1.524 . S
C1351 C1355 1.400 . S
C1352 H1337 0.960 . S
C1352 H1338 0.960 . S
C1352 H1339 0.960 . S
C1352 C1351 1.524 . S
C1353 C1350 1.403 . S
C1353 C1354 1.392 . S
C1353 C1357 1.495 . S
C1354 C1353 1.392 . S
C1354 C1355 1.385 . S
C1354 C1356 1.478 . S
C1355 H1349 0.930 . S
C1355 C1351 1.400 . S
C1355 C1354 1.385 . S
C1356 C1354 1.478 . S
C1356 C1358 1.381 . S
C1356 C1362 1.383 . S
C1357 C1353 1.495 . S
C1357 H1363 0.959 . S
C1357 H1364 0.961 . S
C1357 H1365 0.960 . S
C1358 C1356 1.381 . S
C1358 C1359 1.394 . S
C1358 H1366 0.930 . S
C1359 C1358 1.394 . S
C1359 C1360 1.383 . S
C1359 H1367 0.929 . S
C1360 C1359 1.383 . S
C1360 C1361 1.377 . S
C1361 H1345 0.930 . S
C1361 C1360 1.377 . S
C1361 C1362 1.379 . S
C1362 H1346 0.931 . S
C1362 C1356 1.383 . S
C1362 C1361 1.379 . S
H1363 C1357 0.959 . S
H1364 C1357 0.961 . S
H1365 C1357 0.960 . S
H1366 C1358 0.930 . S
H1367 C1359 0.929 . S
H1368 C1376 0.929 . S
H1369 C1378 0.930 . S
H1370 C1380 0.930 . S
H1371 C1383 0.929 . S
H1372 C1386 0.930 1_455 S
H1373 C1388 0.960 . S
H1374 C1388 0.959 . S
H1375 C1388 0.960 1_455 S
C1376 H1368 0.929 . S
C1376 C1377 1.377 . S
C1376 C1378 1.384 . S
C1377 C1376 1.377 . S
C1377 C1383 1.390 . S
C1378 H1369 0.930 . S
C1378 C1376 1.384 . S
C1378 C1379 1.372 . S
C1379 C1378 1.372 . S
C1379 C1380 1.400 . S
C1379 C1384 1.490 . S
C1380 H1370 0.930 . S
C1380 C1379 1.400 . S
C1380 C1383 1.386 . S
H1381 C1397 0.930 . S
H1382 C1398 0.931 . S
C1383 H1371 0.929 . S
C1383 C1377 1.390 . S
C1383 C1380 1.386 . S
C1384 C1379 1.490 . S
C1384 C1386 1.395 1_455 S
C1384 C1387 1.403 1_455 S
H1385 C1391 0.930 . S
C1386 H1372 0.930 1_655 S
C1386 C1384 1.395 1_655 S
C1386 C1389 1.403 . S
C1387 C1384 1.403 1_655 S
C1387 C1388 1.524 . S
C1387 C1391 1.400 . S
C1388 H1373 0.960 . S
C1388 H1374 0.959 . S
C1388 H1375 0.960 1_655 S
C1388 C1387 1.524 . S
C1389 C1386 1.403 . S
C1389 C1390 1.392 . S
C1389 C1393 1.495 . S
C1390 C1389 1.392 . S
C1390 C1391 1.385 . S
C1390 C1392 1.478 . S
C1391 H1385 0.930 . S
C1391 C1387 1.400 . S
C1391 C1390 1.385 . S
C1392 C1390 1.478 . S
C1392 C1394 1.381 . S
C1392 C1398 1.383 . S
C1393 C1389 1.495 . S
C1393 H1399 0.959 . S
C1393 H1400 0.961 . S
C1393 H1401 0.960 . S
C1394 C1392 1.381 . S
C1394 C1395 1.394 . S
C1394 H1402 0.930 . S
C1395 C1394 1.394 . S
C1395 C1396 1.383 . S
C1395 H1403 0.929 . S
C1396 C1395 1.383 . S
C1396 C1397 1.377 . S
C1397 H1381 0.930 . S
C1397 C1396 1.377 . S
C1397 C1398 1.379 . S
C1398 H1382 0.931 . S
C1398 C1392 1.383 . S
C1398 C1397 1.379 . S
H1399 C1393 0.959 . S
H1400 C1393 0.961 . S
H1401 C1393 0.960 . S
H1402 C1394 0.930 . S
H1403 C1395 0.929 . S
H1404 C1412 0.929 . S
H1405 C1414 0.930 . S
H1406 C1416 0.930 . S
H1407 C1419 0.929 . S
H1408 C1422 0.930 . S
H1409 C1424 0.960 . S
H1410 C1424 0.960 . S
H1411 C1424 0.960 . S
C1412 H1404 0.929 . S
C1412 C1413 1.377 . S
C1412 C1414 1.384 . S
C1413 C1412 1.377 . S
C1413 C1419 1.390 . S
C1414 H1405 0.930 . S
C1414 C1412 1.384 . S
C1414 C1415 1.372 . S
C1415 C1414 1.372 . S
C1415 C1416 1.400 . S
C1415 C1420 1.490 . S
C1416 H1406 0.930 . S
C1416 C1415 1.400 . S
C1416 C1419 1.386 . S
H1417 C1433 0.930 . S
H1418 C1434 0.931 . S
C1419 H1407 0.929 . S
C1419 C1413 1.390 . S
C1419 C1416 1.386 . S
C1420 C1415 1.490 . S
C1420 C1422 1.395 . S
C1420 C1423 1.403 . S
H1421 C1427 0.936 . S
C1422 H1408 0.930 . S
C1422 C1420 1.395 . S
C1422 C1425 1.403 . S
C1423 C1420 1.403 . S
C1423 C1424 1.524 . S
C1423 C1427 1.397 1_545 S
C1424 H1409 0.960 . S
C1424 H1410 0.960 . S
C1424 H1411 0.960 . S
C1424 C1423 1.524 . S
C1425 C1422 1.403 . S
C1425 C1426 1.392 1_545 S
C1425 C1429 1.495 . S
C1426 C1425 1.392 1_565 S
C1426 C1427 1.383 . S
C1426 C1428 1.478 . S
C1427 H1421 0.936 . S
C1427 C1423 1.397 1_565 S
C1427 C1426 1.383 . S
C1428 C1426 1.478 . S
C1428 C1430 1.381 . S
C1428 C1434 1.383 . S
C1429 C1425 1.495 . S
C1429 H1435 0.959 . S
C1429 H1436 0.961 . S
C1429 H1437 0.960 . S
C1430 C1428 1.381 . S
C1430 C1431 1.394 . S
C1430 H1438 0.930 . S
C1431 C1430 1.394 . S
C1431 C1432 1.383 . S
C1431 H1439 0.929 . S
C1432 C1431 1.383 . S
C1432 C1433 1.377 . S
C1433 H1417 0.930 . S
C1433 C1432 1.377 . S
C1433 C1434 1.379 . S
C1434 H1418 0.931 . S
C1434 C1428 1.383 . S
C1434 C1433 1.379 . S
H1435 C1429 0.959 . S
H1436 C1429 0.961 . S
H1437 C1429 0.960 . S
H1438 C1430 0.930 . S
H1439 C1431 0.929 . S
H1440 C1448 0.929 . S
H1441 C1450 0.930 . S
H1442 C1452 0.930 . S
H1443 C1455 0.929 . S
H1444 C1458 0.930 . S
H1445 C1460 0.960 . S
H1446 C1460 0.960 . S
H1447 C1460 0.960 . S
C1448 H1440 0.929 . S
C1448 C1449 1.377 . S
C1448 C1450 1.384 . S
C1449 C1448 1.377 . S
C1449 C1455 1.390 . S
C1450 H1441 0.930 . S
C1450 C1448 1.384 . S
C1450 C1451 1.372 . S
C1451 C1450 1.372 . S
C1451 C1452 1.400 . S
C1451 C1456 1.490 . S
C1452 H1442 0.930 . S
C1452 C1451 1.400 . S
C1452 C1455 1.386 . S
H1453 C1469 0.930 . S
H1454 C1470 0.931 . S
C1455 H1443 0.929 . S
C1455 C1449 1.390 . S
C1455 C1452 1.386 . S
C1456 C1451 1.490 . S
C1456 C1458 1.395 . S
C1456 C1459 1.403 . S
H1457 C1463 0.930 . S
C1458 H1444 0.930 . S
C1458 C1456 1.395 . S
C1458 C1461 1.403 . S
C1459 C1456 1.403 . S
C1459 C1460 1.524 . S
C1459 C1463 1.400 . S
C1460 H1445 0.960 . S
C1460 H1446 0.960 . S
C1460 H1447 0.960 . S
C1460 C1459 1.524 . S
C1461 C1458 1.403 . S
C1461 C1462 1.392 . S
C1461 C1465 1.495 . S
C1462 C1461 1.392 . S
C1462 C1463 1.385 . S
C1462 C1464 1.478 . S
C1463 H1457 0.930 . S
C1463 C1459 1.400 . S
C1463 C1462 1.385 . S
C1464 C1462 1.478 . S
C1464 C1466 1.381 . S
C1464 C1470 1.383 . S
C1465 C1461 1.495 . S
C1465 H1471 0.959 . S
C1465 H1472 0.961 . S
C1465 H1473 0.960 . S
C1466 C1464 1.381 . S
C1466 C1467 1.394 . S
C1466 H1474 0.930 . S
C1467 C1466 1.394 . S
C1467 C1468 1.383 . S
C1467 H1475 0.929 . S
C1468 C1467 1.383 . S
C1468 C1469 1.377 . S
C1469 H1453 0.930 . S
C1469 C1468 1.377 . S
C1469 C1470 1.379 . S
C1470 H1454 0.931 . S
C1470 C1464 1.383 . S
C1470 C1469 1.379 . S
H1471 C1465 0.959 . S
H1472 C1465 0.961 . S
H1473 C1465 0.960 . S
H1474 C1466 0.930 . S
H1475 C1467 0.929 . S
H1476 C1484 0.929 . S
H1477 C1486 0.930 . S
H1478 C1488 0.930 . S
H1479 C1491 0.929 . S
H1480 C1494 0.930 . S
H1481 C1496 0.960 . S
H1482 C1496 0.960 . S
H1483 C1496 0.960 . S
C1484 H1476 0.929 . S
C1484 C1485 1.377 . S
C1484 C1486 1.384 . S
C1485 C1484 1.377 . S
C1485 C1491 1.390 . S
C1486 H1477 0.930 . S
C1486 C1484 1.384 . S
C1486 C1487 1.372 . S
C1487 C1486 1.372 . S
C1487 C1488 1.400 . S
C1487 C1492 1.490 . S
C1488 H1478 0.930 . S
C1488 C1487 1.400 . S
C1488 C1491 1.386 . S
H1489 C1505 0.930 . S
H1490 C1506 0.931 . S
C1491 H1479 0.929 . S
C1491 C1485 1.390 . S
C1491 C1488 1.386 . S
C1492 C1487 1.490 . S
C1492 C1494 1.395 . S
C1492 C1495 1.403 . S
H1493 C1499 0.930 . S
C1494 H1480 0.930 . S
C1494 C1492 1.395 . S
C1494 C1497 1.403 . S
C1495 C1492 1.403 . S
C1495 C1496 1.524 . S
C1495 C1499 1.400 . S
C1496 H1481 0.960 . S
C1496 H1482 0.960 . S
C1496 H1483 0.960 . S
C1496 C1495 1.524 . S
C1497 C1494 1.403 . S
C1497 C1498 1.392 . S
C1497 C1501 1.495 . S
C1498 C1497 1.392 . S
C1498 C1499 1.385 . S
C1498 C1500 1.478 . S
C1499 H1493 0.930 . S
C1499 C1495 1.400 . S
C1499 C1498 1.385 . S
C1500 C1498 1.478 . S
C1500 C1502 1.381 . S
C1500 C1506 1.383 . S
C1501 C1497 1.495 . S
C1501 H1507 0.959 . S
C1501 H1508 0.961 . S
C1501 H1509 0.960 . S
C1502 C1500 1.381 . S
C1502 C1503 1.394 . S
C1502 H1510 0.930 . S
C1503 C1502 1.394 . S
C1503 C1504 1.383 . S
C1503 H1511 0.929 . S
C1504 C1503 1.383 . S
C1504 C1505 1.377 . S
C1505 H1489 0.930 . S
C1505 C1504 1.377 . S
C1505 C1506 1.379 . S
C1506 H1490 0.931 . S
C1506 C1500 1.383 . S
C1506 C1505 1.379 . S
H1507 C1501 0.959 . S
H1508 C1501 0.961 . S
H1509 C1501 0.960 . S
H1510 C1502 0.930 . S
H1511 C1503 0.929 . S
H1512 C1520 0.929 . S
H1513 C1522 0.930 . S
H1514 C1524 0.930 . S
H1515 C1527 0.929 . S
H1516 C1530 0.930 . S
H1517 C1532 0.960 . S
H1518 C1532 0.960 . S
H1519 C1532 0.960 . S
C1520 H1512 0.929 . S
C1520 C1521 1.377 . S
C1520 C1522 1.384 . S
C1521 C1520 1.377 . S
C1521 C1527 1.390 . S
C1522 H1513 0.930 . S
C1522 C1520 1.384 . S
C1522 C1523 1.372 . S
C1523 C1522 1.372 . S
C1523 C1524 1.400 . S
C1523 C1528 1.490 . S
C1524 H1514 0.930 . S
C1524 C1523 1.400 . S
C1524 C1527 1.386 . S
H1525 C1541 0.930 . S
H1526 C1542 0.931 . S
C1527 H1515 0.929 . S
C1527 C1521 1.390 . S
C1527 C1524 1.386 . S
C1528 C1523 1.490 . S
C1528 C1530 1.395 . S
C1528 C1531 1.403 . S
H1529 C1535 0.930 . S
C1530 H1516 0.930 . S
C1530 C1528 1.395 . S
C1530 C1533 1.403 . S
C1531 C1528 1.403 . S
C1531 C1532 1.524 . S
C1531 C1535 1.400 . S
C1532 H1517 0.960 . S
C1532 H1518 0.960 . S
C1532 H1519 0.960 . S
C1532 C1531 1.524 . S
C1533 C1530 1.403 . S
C1533 C1534 1.392 . S
C1533 C1537 1.495 . S
C1534 C1533 1.392 . S
C1534 C1535 1.385 . S
C1534 C1536 1.478 . S
C1535 H1529 0.930 . S
C1535 C1531 1.400 . S
C1535 C1534 1.385 . S
C1536 C1534 1.478 . S
C1536 C1538 1.381 . S
C1536 C1542 1.383 . S
C1537 C1533 1.495 . S
C1537 H1543 0.959 . S
C1537 H1544 0.961 . S
C1537 H1545 0.960 . S
C1538 C1536 1.381 . S
C1538 C1539 1.394 . S
C1538 H1546 0.930 . S
C1539 C1538 1.394 . S
C1539 C1540 1.383 . S
C1539 H1547 0.929 . S
C1540 C1539 1.383 . S
C1540 C1541 1.377 . S
C1541 H1525 0.930 . S
C1541 C1540 1.377 . S
C1541 C1542 1.379 . S
C1542 H1526 0.931 . S
C1542 C1536 1.383 . S
C1542 C1541 1.379 . S
H1543 C1537 0.959 . S
H1544 C1537 0.961 . S
H1545 C1537 0.960 . S
H1546 C1538 0.930 . S
H1547 C1539 0.929 . S
H1548 C1556 0.929 . S
H1549 C1558 0.930 . S
H1550 C1560 0.930 . S
H1551 C1563 0.929 . S
H1552 C1566 0.930 . S
H1553 C1568 0.960 . S
H1554 C1568 0.960 . S
H1555 C1568 0.960 . S
C1556 H1548 0.929 . S
C1556 C1557 1.377 . S
C1556 C1558 1.384 . S
C1557 C1556 1.377 . S
C1557 C1563 1.390 . S
C1558 H1549 0.930 . S
C1558 C1556 1.384 . S
C1558 C1559 1.372 . S
C1559 C1558 1.372 . S
C1559 C1560 1.400 . S
C1559 C1564 1.490 . S
C1560 H1550 0.930 . S
C1560 C1559 1.400 . S
C1560 C1563 1.386 . S
H1561 C1577 0.930 . S
H1562 C1578 0.931 . S
C1563 H1551 0.929 . S
C1563 C1557 1.390 . S
C1563 C1560 1.386 . S
C1564 C1559 1.490 . S
C1564 C1566 1.395 . S
C1564 C1567 1.403 . S
H1565 C1571 0.930 . S
C1566 H1552 0.930 . S
C1566 C1564 1.395 . S
C1566 C1569 1.403 . S
C1567 C1564 1.403 . S
C1567 C1568 1.524 . S
C1567 C1571 1.400 . S
C1568 H1553 0.960 . S
C1568 H1554 0.960 . S
C1568 H1555 0.960 . S
C1568 C1567 1.524 . S
C1569 C1566 1.403 . S
C1569 C1570 1.392 . S
C1569 C1573 1.495 . S
C1570 C1569 1.392 . S
C1570 C1571 1.385 . S
C1570 C1572 1.478 . S
C1571 H1565 0.930 . S
C1571 C1567 1.400 . S
C1571 C1570 1.385 . S
C1572 C1570 1.478 . S
C1572 C1574 1.381 . S
C1572 C1578 1.383 . S
C1573 C1569 1.495 . S
C1573 H1579 0.959 . S
C1573 H1580 0.961 . S
C1573 H1581 0.960 . S
C1574 C1572 1.381 . S
C1574 C1575 1.394 . S
C1574 H1582 0.930 . S
C1575 C1574 1.394 . S
C1575 C1576 1.383 . S
C1575 H1583 0.929 . S
C1576 C1575 1.383 . S
C1576 C1577 1.377 . S
C1577 H1561 0.930 . S
C1577 C1576 1.377 . S
C1577 C1578 1.379 . S
C1578 H1562 0.931 . S
C1578 C1572 1.383 . S
C1578 C1577 1.379 . S
H1579 C1573 0.959 . S
H1580 C1573 0.961 . S
H1581 C1573 0.960 . S
H1582 C1574 0.930 . S
H1583 C1575 0.929 . S
H1584 C1592 0.929 . S
H1585 C1594 0.930 . S
H1586 C1596 0.930 . S
H1587 C1599 0.929 . S
H1588 C1602 0.930 . S
H1589 C1604 0.960 . S
H1590 C1604 0.960 . S
H1591 C1604 0.960 . S
C1592 H1584 0.929 . S
C1592 C1593 1.377 . S
C1592 C1594 1.384 . S
C1593 C1592 1.377 . S
C1593 C1599 1.390 . S
C1594 H1585 0.930 . S
C1594 C1592 1.384 . S
C1594 C1595 1.372 . S
C1595 C1594 1.372 . S
C1595 C1596 1.400 . S
C1595 C1600 1.490 . S
C1596 H1586 0.930 . S
C1596 C1595 1.400 . S
C1596 C1599 1.386 . S
H1597 C1613 0.930 . S
H1598 C1614 0.931 . S
C1599 H1587 0.929 . S
C1599 C1593 1.390 . S
C1599 C1596 1.386 . S
C1600 C1595 1.490 . S
C1600 C1602 1.395 . S
C1600 C1603 1.403 . S
H1601 C1607 0.930 . S
C1602 H1588 0.930 . S
C1602 C1600 1.395 . S
C1602 C1605 1.403 . S
C1603 C1600 1.403 . S
C1603 C1604 1.524 . S
C1603 C1607 1.400 . S
C1604 H1589 0.960 . S
C1604 H1590 0.960 . S
C1604 H1591 0.960 . S
C1604 C1603 1.524 . S
C1605 C1602 1.403 . S
C1605 C1606 1.392 . S
C1605 C1609 1.495 . S
C1606 C1605 1.392 . S
C1606 C1607 1.385 . S
C1606 C1608 1.478 . S
C1607 H1601 0.930 . S
C1607 C1603 1.400 . S
C1607 C1606 1.385 . S
C1608 C1606 1.478 . S
C1608 C1610 1.381 . S
C1608 C1614 1.383 . S
C1609 C1605 1.495 . S
C1609 H1615 0.959 . S
C1609 H1616 0.961 . S
C1609 H1617 0.960 . S
C1610 C1608 1.381 . S
C1610 C1611 1.394 . S
C1610 H1618 0.930 . S
C1611 C1610 1.394 . S
C1611 C1612 1.383 . S
C1611 H1619 0.929 . S
C1612 C1611 1.383 . S
C1612 C1613 1.377 . S
C1613 H1597 0.930 . S
C1613 C1612 1.377 . S
C1613 C1614 1.379 . S
C1614 H1598 0.931 . S
C1614 C1608 1.383 . S
C1614 C1613 1.379 . S
H1615 C1609 0.959 . S
H1616 C1609 0.961 . S
H1617 C1609 0.960 . S
H1618 C1610 0.930 . S
H1619 C1611 0.929 . S
H1620 C1628 0.929 . S
H1621 C1630 0.930 . S
H1622 C1632 0.930 . S
H1623 C1635 0.929 . S
H1624 C1638 0.930 . S
H1625 C1640 0.960 . S
H1626 C1640 0.960 . S
H1627 C1640 0.960 . S
C1628 H1620 0.929 . S
C1628 C1629 1.377 . S
C1628 C1630 1.384 . S
C1629 C1628 1.377 . S
C1629 C1635 1.390 . S
C1630 H1621 0.930 . S
C1630 C1628 1.384 . S
C1630 C1631 1.372 . S
C1631 C1630 1.372 . S
C1631 C1632 1.400 . S
C1631 C1636 1.490 . S
C1632 H1622 0.930 . S
C1632 C1631 1.400 . S
C1632 C1635 1.386 . S
H1633 C1649 0.930 . S
H1634 C1650 0.931 . S
C1635 H1623 0.929 . S
C1635 C1629 1.390 . S
C1635 C1632 1.386 . S
C1636 C1631 1.490 . S
C1636 C1638 1.395 . S
C1636 C1639 1.403 . S
H1637 C1643 0.930 . S
C1638 H1624 0.930 . S
C1638 C1636 1.395 . S
C1638 C1641 1.403 . S
C1639 C1636 1.403 . S
C1639 C1640 1.524 . S
C1639 C1643 1.400 . S
C1640 H1625 0.960 . S
C1640 H1626 0.960 . S
C1640 H1627 0.960 . S
C1640 C1639 1.524 . S
C1641 C1638 1.403 . S
C1641 C1642 1.392 . S
C1641 C1645 1.495 . S
C1642 C1641 1.392 . S
C1642 C1643 1.385 . S
C1642 C1644 1.478 . S
C1643 H1637 0.930 . S
C1643 C1639 1.400 . S
C1643 C1642 1.385 . S
C1644 C1642 1.478 . S
C1644 C1646 1.381 . S
C1644 C1650 1.383 . S
C1645 C1641 1.495 . S
C1645 H1651 0.959 . S
C1645 H1652 0.961 . S
C1645 H1653 0.960 . S
C1646 C1644 1.381 . S
C1646 C1647 1.394 . S
C1646 H1654 0.930 . S
C1647 C1646 1.394 . S
C1647 C1648 1.383 . S
C1647 H1655 0.929 . S
C1648 C1647 1.383 . S
C1648 C1649 1.377 . S
C1649 H1633 0.930 . S
C1649 C1648 1.377 . S
C1649 C1650 1.379 . S
C1650 H1634 0.931 . S
C1650 C1644 1.383 . S
C1650 C1649 1.379 . S
H1651 C1645 0.959 . S
H1652 C1645 0.961 . S
H1653 C1645 0.960 . S
H1654 C1646 0.930 . S
H1655 C1647 0.929 . S
H1656 C1664 0.929 . S
H1657 C1666 0.930 . S
H1658 C1668 0.930 . S
H1659 C1671 0.929 . S
H1660 C1674 0.930 . S
H1661 C1676 0.960 . S
H1662 C1676 0.960 1_565 S
H1663 C1676 0.960 . S
C1664 H1656 0.929 . S
C1664 C1665 1.377 . S
C1664 C1666 1.384 . S
C1665 C1664 1.377 . S
C1665 C1671 1.390 . S
C1666 H1657 0.930 . S
C1666 C1664 1.384 . S
C1666 C1667 1.372 . S
C1667 C1666 1.372 . S
C1667 C1668 1.400 . S
C1667 C1672 1.490 . S
C1668 H1658 0.930 . S
C1668 C1667 1.400 . S
C1668 C1671 1.386 . S
H1669 C1685 0.930 . S
H1670 C1686 0.931 . S
C1671 H1659 0.929 . S
C1671 C1665 1.390 . S
C1671 C1668 1.386 . S
C1672 C1667 1.490 . S
C1672 C1674 1.395 1_556 S
C1672 C1675 1.373 1_565 S
H1673 C1679 0.932 . S
C1674 H1660 0.930 . S
C1674 C1672 1.395 1_554 S
C1674 C1677 1.403 . S
C1675 C1672 1.373 1_545 S
C1675 C1676 1.537 . S
C1675 C1679 1.417 1_556 S
C1676 H1661 0.960 . S
C1676 H1662 0.960 1_545 S
C1676 H1663 0.960 . S
C1676 C1675 1.537 . S
C1677 C1674 1.403 . S
C1677 C1678 1.392 1_565 S
C1677 C1681 1.495 . S
C1678 C1677 1.392 1_545 S
C1678 C1679 1.385 . S
C1678 C1680 1.478 . S
C1679 H1673 0.932 . S
C1679 C1675 1.417 1_554 S
C1679 C1678 1.385 . S
C1680 C1678 1.478 . S
C1680 C1682 1.381 . S
C1680 C1686 1.383 . S
C1681 C1677 1.495 . S
C1681 H1687 0.959 . S
C1681 H1688 0.961 1_565 S
C1681 H1689 0.960 . S
C1682 C1680 1.381 . S
C1682 C1683 1.394 . S
C1682 H1690 0.930 . S
C1683 C1682 1.394 . S
C1683 C1684 1.383 . S
C1683 H1691 0.929 . S
C1684 C1683 1.383 . S
C1684 C1685 1.377 . S
C1685 H1669 0.930 . S
C1685 C1684 1.377 . S
C1685 C1686 1.379 . S
C1686 H1670 0.931 . S
C1686 C1680 1.383 . S
C1686 C1685 1.379 . S
H1687 C1681 0.959 . S
H1688 C1681 0.961 1_545 S
H1689 C1681 0.960 . S
H1690 C1682 0.930 . S
H1691 C1683 0.929 . S
H1692 C1700 0.929 . S
H1693 C1702 0.930 . S
H1694 C1704 0.930 . S
H1695 C1707 0.929 . S
H1696 C1710 0.930 . S
H1697 C1712 0.960 . S
H1698 C1712 0.960 . S
H1699 C1712 0.960 . S
C1700 H1692 0.929 . S
C1700 C1701 1.377 . S
C1700 C1702 1.384 . S
C1701 C1700 1.377 . S
C1701 C1707 1.390 . S
C1702 H1693 0.930 . S
C1702 C1700 1.384 . S
C1702 C1703 1.372 . S
C1703 C1702 1.372 . S
C1703 C1704 1.400 . S
C1703 C1708 1.490 . S
C1704 H1694 0.930 . S
C1704 C1703 1.400 . S
C1704 C1707 1.386 . S
H1705 C1721 0.930 . S
H1706 C1722 0.931 . S
C1707 H1695 0.929 . S
C1707 C1701 1.390 . S
C1707 C1704 1.386 . S
C1708 C1703 1.490 . S
C1708 C1710 1.395 . S
C1708 C1711 1.403 . S
H1709 C1715 0.930 . S
C1710 H1696 0.930 . S
C1710 C1708 1.395 . S
C1710 C1713 1.403 . S
C1711 C1708 1.403 . S
C1711 C1712 1.524 . S
C1711 C1715 1.400 . S
C1712 H1697 0.960 . S
C1712 H1698 0.960 . S
C1712 H1699 0.960 . S
C1712 C1711 1.524 . S
C1713 C1710 1.403 . S
C1713 C1714 1.392 . S
C1713 C1717 1.495 . S
C1714 C1713 1.392 . S
C1714 C1715 1.385 . S
C1714 C1716 1.478 . S
C1715 H1709 0.930 . S
C1715 C1711 1.400 . S
C1715 C1714 1.385 . S
C1716 C1714 1.478 . S
C1716 C1718 1.381 . S
C1716 C1722 1.383 . S
C1717 C1713 1.495 . S
C1717 H1723 0.959 . S
C1717 H1724 0.961 . S
C1717 H1725 0.960 . S
C1718 C1716 1.381 . S
C1718 C1719 1.394 . S
C1718 H1726 0.930 . S
C1719 C1718 1.394 . S
C1719 C1720 1.383 . S
C1719 H1727 0.929 . S
C1720 C1719 1.383 . S
C1720 C1721 1.377 . S
C1721 H1705 0.930 . S
C1721 C1720 1.377 . S
C1721 C1722 1.379 . S
C1722 H1706 0.931 . S
C1722 C1716 1.383 . S
C1722 C1721 1.379 . S
H1723 C1717 0.959 . S
H1724 C1717 0.961 . S
H1725 C1717 0.960 . S
H1726 C1718 0.930 . S
H1727 C1719 0.929 . S
H1728 C1736 0.929 . S
H1729 C1738 0.930 . S
H1730 C1740 0.930 . S
H1731 C1743 0.929 . S
H1732 C1746 0.930 . S
H1733 C1748 0.960 . S
H1734 C1748 0.960 . S
H1735 C1748 0.960 . S
C1736 H1728 0.929 . S
C1736 C1737 1.377 . S
C1736 C1738 1.384 . S
C1737 C1736 1.377 . S
C1737 C1743 1.390 . S
C1738 H1729 0.930 . S
C1738 C1736 1.384 . S
C1738 C1739 1.372 . S
C1739 C1738 1.372 . S
C1739 C1740 1.400 . S
C1739 C1744 1.490 . S
C1740 H1730 0.930 . S
C1740 C1739 1.400 . S
C1740 C1743 1.386 . S
H1741 C1757 0.930 . S
H1742 C1758 0.931 . S
C1743 H1731 0.929 . S
C1743 C1737 1.390 . S
C1743 C1740 1.386 . S
C1744 C1739 1.490 . S
C1744 C1746 1.395 1_556 S
C1744 C1747 1.403 1_455 S
H1745 C1751 0.930 . S
C1746 H1732 0.930 . S
C1746 C1744 1.395 1_554 S
C1746 C1749 1.403 . S
C1747 C1744 1.403 1_655 S
C1747 C1748 1.524 . S
C1747 C1751 1.400 . S
C1748 H1733 0.960 . S
C1748 H1734 0.960 . S
C1748 H1735 0.960 . S
C1748 C1747 1.524 . S
C1749 C1746 1.403 . S
C1749 C1750 1.392 1_455 S
C1749 C1753 1.495 . S
C1750 C1749 1.392 1_655 S
C1750 C1751 1.385 1_554 S
C1750 C1752 1.478 . S
C1751 H1745 0.930 . S
C1751 C1747 1.400 . S
C1751 C1750 1.385 1_556 S
C1752 C1750 1.478 . S
C1752 C1754 1.381 . S
C1752 C1758 1.383 . S
C1753 C1749 1.495 . S
C1753 H1759 0.959 . S
C1753 H1760 0.961 . S
C1753 H1761 0.960 . S
C1754 C1752 1.381 . S
C1754 C1755 1.394 . S
C1754 H1762 0.930 . S
C1755 C1754 1.394 . S
C1755 C1756 1.383 . S
C1755 H1763 0.929 . S
C1756 C1755 1.383 . S
C1756 C1757 1.377 . S
C1757 H1741 0.930 . S
C1757 C1756 1.377 . S
C1757 C1758 1.379 . S
C1758 H1742 0.931 . S
C1758 C1752 1.383 . S
C1758 C1757 1.379 . S
H1759 C1753 0.959 . S
H1760 C1753 0.961 . S
H1761 C1753 0.960 . S
H1762 C1754 0.930 . S
H1763 C1755 0.929 . S
H1764 C1772 0.929 . S
H1765 C1774 0.930 . S
H1766 C1776 0.930 . S
H1767 C1779 0.929 . S
H1768 C1782 0.930 . S
H1769 C1784 0.960 . S
H1770 C1784 0.960 . S
H1771 C1784 0.960 . S
C1772 H1764 0.929 . S
C1772 C1773 1.377 . S
C1772 C1774 1.384 . S
C1773 C1772 1.377 . S
C1773 C1779 1.390 . S
C1774 H1765 0.930 . S
C1774 C1772 1.384 . S
C1774 C1775 1.372 . S
C1775 C1774 1.372 . S
C1775 C1776 1.400 . S
C1775 C1780 1.490 . S
C1776 H1766 0.930 . S
C1776 C1775 1.400 . S
C1776 C1779 1.386 . S
H1777 C1793 0.930 . S
H1778 C1794 0.931 . S
C1779 H1767 0.929 . S
C1779 C1773 1.390 . S
C1779 C1776 1.386 . S
C1780 C1775 1.490 . S
C1780 C1782 1.395 . S
C1780 C1783 1.403 1_545 S
H1781 C1787 0.930 . S
C1782 H1768 0.930 . S
C1782 C1780 1.395 . S
C1782 C1785 1.403 . S
C1783 C1780 1.403 1_565 S
C1783 C1784 1.524 . S
C1783 C1787 1.400 . S
C1784 H1769 0.960 . S
C1784 H1770 0.960 . S
C1784 H1771 0.960 . S
C1784 C1783 1.524 . S
C1785 C1782 1.403 . S
C1785 C1786 1.392 1_545 S
C1785 C1789 1.495 . S
C1786 C1785 1.392 1_565 S
C1786 C1787 1.385 . S
C1786 C1788 1.478 . S
C1787 H1781 0.930 . S
C1787 C1783 1.400 . S
C1787 C1786 1.385 . S
C1788 C1786 1.478 . S
C1788 C1790 1.381 . S
C1788 C1794 1.383 . S
C1789 C1785 1.495 . S
C1789 H1795 0.959 . S
C1789 H1796 0.961 . S
C1789 H1797 0.960 . S
C1790 C1788 1.381 . S
C1790 C1791 1.394 . S
C1790 H1798 0.930 . S
C1791 C1790 1.394 . S
C1791 C1792 1.383 . S
C1791 H1799 0.929 . S
C1792 C1791 1.383 . S
C1792 C1793 1.377 . S
C1793 H1777 0.930 . S
C1793 C1792 1.377 . S
C1793 C1794 1.379 . S
C1794 H1778 0.931 . S
C1794 C1788 1.383 . S
C1794 C1793 1.379 . S
H1795 C1789 0.959 . S
H1796 C1789 0.961 . S
H1797 C1789 0.960 . S
H1798 C1790 0.930 . S
H1799 C1791 0.929 . S
H1800 C1808 0.929 . S
H1801 C1810 0.930 . S
H1802 C1812 0.930 . S
H1803 C1815 0.929 . S
H1804 C1818 0.930 . S
H1805 C1820 0.960 . S
H1806 C1820 0.960 . S
H1807 C1820 0.960 . S
C1808 H1800 0.929 . S
C1808 C1809 1.377 . S
C1808 C1810 1.384 . S
C1809 C1808 1.377 . S
C1809 C1815 1.390 . S
C1810 H1801 0.930 . S
C1810 C1808 1.384 . S
C1810 C1811 1.372 . S
C1811 C1810 1.372 . S
C1811 C1812 1.400 . S
C1811 C1816 1.490 . S
C1812 H1802 0.930 . S
C1812 C1811 1.400 . S
C1812 C1815 1.386 . S
H1813 C1829 0.930 . S
H1814 C1830 0.931 . S
C1815 H1803 0.929 . S
C1815 C1809 1.390 . S
C1815 C1812 1.386 . S
C1816 C1811 1.490 . S
C1816 C1818 1.395 1_554 S
C1816 C1819 1.403 . S
H1817 C1823 0.930 . S
C1818 H1804 0.930 . S
C1818 C1816 1.395 1_556 S
C1818 C1821 1.403 . S
C1819 C1816 1.403 . S
C1819 C1820 1.524 . S
C1819 C1823 1.400 . S
C1820 H1805 0.960 . S
C1820 H1806 0.960 . S
C1820 H1807 0.960 . S
C1820 C1819 1.524 . S
C1821 C1818 1.403 . S
C1821 C1822 1.392 . S
C1821 C1825 1.495 . S
C1822 C1821 1.392 . S
C1822 C1823 1.385 1_556 S
C1822 C1824 1.478 . S
C1823 H1817 0.930 . S
C1823 C1819 1.400 . S
C1823 C1822 1.385 1_554 S
C1824 C1822 1.478 . S
C1824 C1826 1.381 . S
C1824 C1830 1.383 . S
C1825 C1821 1.495 . S
C1825 H1831 0.959 . S
C1825 H1832 0.961 . S
C1825 H1833 0.960 . S
C1826 C1824 1.381 . S
C1826 C1827 1.394 . S
C1826 H1834 0.930 . S
C1827 C1826 1.394 . S
C1827 C1828 1.383 . S
C1827 H1835 0.929 . S
C1828 C1827 1.383 . S
C1828 C1829 1.377 . S
C1829 H1813 0.930 . S
C1829 C1828 1.377 . S
C1829 C1830 1.379 . S
C1830 H1814 0.931 . S
C1830 C1824 1.383 . S
C1830 C1829 1.379 . S
H1831 C1825 0.959 . S
H1832 C1825 0.961 . S
H1833 C1825 0.960 . S
H1834 C1826 0.930 . S
H1835 C1827 0.929 . S
H1836 C1844 0.929 . S
H1837 C1846 0.930 . S
H1838 C1848 0.930 . S
H1839 C1851 0.929 . S
H1840 C1854 0.930 . S
H1841 C1856 0.960 1_655 S
H1842 C1856 0.960 . S
H1843 C1856 0.960 . S
C1844 H1836 0.929 . S
C1844 C1845 1.377 . S
C1844 C1846 1.384 . S
C1845 C1844 1.377 . S
C1845 C1851 1.390 . S
C1846 H1837 0.930 . S
C1846 C1844 1.384 . S
C1846 C1847 1.372 . S
C1847 C1846 1.372 . S
C1847 C1848 1.400 . S
C1847 C1852 1.490 . S
C1848 H1838 0.930 . S
C1848 C1847 1.400 . S
C1848 C1851 1.386 . S
H1849 C1865 0.930 . S
H1850 C1866 0.931 . S
C1851 H1839 0.929 . S
C1851 C1845 1.390 . S
C1851 C1848 1.386 . S
C1852 C1847 1.490 . S
C1852 C1854 1.395 . S
C1852 C1855 1.403 . S
H1853 C1859 0.930 . S
C1854 H1840 0.930 . S
C1854 C1852 1.395 . S
C1854 C1857 1.403 1_455 S
C1855 C1852 1.403 . S
C1855 C1856 1.524 . S
C1855 C1859 1.400 1_455 S
C1856 H1841 0.960 1_455 S
C1856 H1842 0.960 . S
C1856 H1843 0.960 . S
C1856 C1855 1.524 . S
C1857 C1854 1.403 1_655 S
C1857 C1858 1.392 . S
C1857 C1861 1.495 . S
C1858 C1857 1.392 . S
C1858 C1859 1.385 . S
C1858 C1860 1.478 . S
C1859 H1853 0.930 . S
C1859 C1855 1.400 1_655 S
C1859 C1858 1.385 . S
C1860 C1858 1.478 . S
C1860 C1862 1.381 . S
C1860 C1866 1.383 . S
C1861 C1857 1.495 . S
C1861 H1867 0.959 1_655 S
C1861 H1868 0.961 . S
C1861 H1869 0.960 . S
C1862 C1860 1.381 . S
C1862 C1863 1.394 . S
C1862 H1870 0.930 . S
C1863 C1862 1.394 . S
C1863 C1864 1.383 . S
C1863 H1871 0.929 . S
C1864 C1863 1.383 . S
C1864 C1865 1.377 . S
C1865 H1849 0.930 . S
C1865 C1864 1.377 . S
C1865 C1866 1.379 . S
C1866 H1850 0.931 . S
C1866 C1860 1.383 . S
C1866 C1865 1.379 . S
H1867 C1861 0.959 1_455 S
H1868 C1861 0.961 . S
H1869 C1861 0.960 . S
H1870 C1862 0.930 . S
H1871 C1863 0.929 . S
H1872 C1880 0.929 . S
H1873 C1882 0.930 . S
H1874 C1884 0.930 . S
H1875 C1887 0.929 . S
H1876 C1890 0.930 . S
H1877 C1892 0.960 . S
H1878 C1892 0.960 . S
H1879 C1892 0.960 . S
C1880 H1872 0.929 . S
C1880 C1881 1.377 . S
C1880 C1882 1.384 . S
C1881 C1880 1.377 . S
C1881 C1887 1.390 . S
C1882 H1873 0.930 . S
C1882 C1880 1.384 . S
C1882 C1883 1.372 . S
C1883 C1882 1.372 . S
C1883 C1884 1.400 . S
C1883 C1888 1.490 . S
C1884 H1874 0.930 . S
C1884 C1883 1.400 . S
C1884 C1887 1.386 . S
H1885 C1901 0.930 . S
H1886 C1902 0.931 . S
C1887 H1875 0.929 . S
C1887 C1881 1.390 . S
C1887 C1884 1.386 . S
C1888 C1883 1.490 . S
C1888 C1890 1.395 . S
C1888 C1891 1.403 . S
H1889 C1895 0.930 . S
C1890 H1876 0.930 . S
C1890 C1888 1.395 . S
C1890 C1893 1.403 . S
C1891 C1888 1.403 . S
C1891 C1892 1.524 . S
C1891 C1895 1.400 . S
C1892 H1877 0.960 . S
C1892 H1878 0.960 . S
C1892 H1879 0.960 . S
C1892 C1891 1.524 . S
C1893 C1890 1.403 . S
C1893 C1894 1.392 . S
C1893 C1897 1.495 . S
C1894 C1893 1.392 . S
C1894 C1895 1.385 . S
C1894 C1896 1.478 . S
C1895 H1889 0.930 . S
C1895 C1891 1.400 . S
C1895 C1894 1.385 . S
C1896 C1894 1.478 . S
C1896 C1898 1.381 . S
C1896 C1902 1.383 . S
C1897 C1893 1.495 . S
C1897 H1903 0.959 . S
C1897 H1904 0.961 . S
C1897 H1905 0.960 . S
C1898 C1896 1.381 . S
C1898 C1899 1.394 . S
C1898 H1906 0.930 . S
C1899 C1898 1.394 . S
C1899 C1900 1.383 . S
C1899 H1907 0.929 . S
C1900 C1899 1.383 . S
C1900 C1901 1.377 . S
C1901 H1885 0.930 . S
C1901 C1900 1.377 . S
C1901 C1902 1.379 . S
C1902 H1886 0.931 . S
C1902 C1896 1.383 . S
C1902 C1901 1.379 . S
H1903 C1897 0.959 . S
H1904 C1897 0.961 . S
H1905 C1897 0.960 . S
H1906 C1898 0.930 . S
H1907 C1899 0.929 . S
H1908 C1916 0.929 . S
H1909 C1918 0.930 . S
H1910 C1920 0.930 . S
H1911 C1923 0.929 . S
H1912 C1926 0.930 . S
H1913 C1928 0.960 . S
H1914 C1928 0.960 . S
H1915 C1928 0.960 . S
C1916 H1908 0.929 . S
C1916 C1917 1.377 . S
C1916 C1918 1.384 . S
C1917 C1916 1.377 . S
C1917 C1923 1.390 . S
C1918 H1909 0.930 . S
C1918 C1916 1.384 . S
C1918 C1919 1.372 . S
C1919 C1918 1.372 . S
C1919 C1920 1.400 . S
C1919 C1924 1.490 . S
C1920 H1910 0.930 . S
C1920 C1919 1.400 . S
C1920 C1923 1.386 . S
H1921 C1937 0.930 . S
H1922 C1938 0.931 . S
C1923 H1911 0.929 . S
C1923 C1917 1.390 . S
C1923 C1920 1.386 . S
C1924 C1919 1.490 . S
C1924 C1926 1.395 . S
C1924 C1927 1.403 . S
H1925 C1931 0.930 . S
C1926 H1912 0.930 . S
C1926 C1924 1.395 . S
C1926 C1929 1.403 . S
C1927 C1924 1.403 . S
C1927 C1928 1.524 . S
C1927 C1931 1.400 . S
C1928 H1913 0.960 . S
C1928 H1914 0.960 . S
C1928 H1915 0.960 . S
C1928 C1927 1.524 . S
C1929 C1926 1.403 . S
C1929 C1930 1.392 . S
C1929 C1933 1.495 . S
C1930 C1929 1.392 . S
C1930 C1931 1.385 . S
C1930 C1932 1.478 . S
C1931 H1925 0.930 . S
C1931 C1927 1.400 . S
C1931 C1930 1.385 . S
C1932 C1930 1.478 . S
C1932 C1934 1.381 . S
C1932 C1938 1.383 . S
C1933 C1929 1.495 . S
C1933 H1939 0.959 . S
C1933 H1940 0.961 . S
C1933 H1941 0.960 . S
C1934 C1932 1.381 . S
C1934 C1935 1.394 . S
C1934 H1942 0.930 . S
C1935 C1934 1.394 . S
C1935 C1936 1.383 . S
C1935 H1943 0.929 . S
C1936 C1935 1.383 . S
C1936 C1937 1.377 . S
C1937 H1921 0.930 . S
C1937 C1936 1.377 . S
C1937 C1938 1.379 . S
C1938 H1922 0.931 . S
C1938 C1932 1.383 . S
C1938 C1937 1.379 . S
H1939 C1933 0.959 . S
H1940 C1933 0.961 . S
H1941 C1933 0.960 . S
H1942 C1934 0.930 . S
H1943 C1935 0.929 . S
H1944 C1952 0.929 . S
H1945 C1954 0.930 . S
H1946 C1956 0.930 . S
H1947 C1959 0.929 . S
H1948 C1962 0.930 . S
H1949 C1964 0.960 . S
H1950 C1964 0.960 . S
H1951 C1964 0.960 . S
C1952 H1944 0.929 . S
C1952 C1953 1.377 . S
C1952 C1954 1.384 . S
C1953 C1952 1.377 . S
C1953 C1959 1.390 . S
C1954 H1945 0.930 . S
C1954 C1952 1.384 . S
C1954 C1955 1.372 . S
C1955 C1954 1.372 . S
C1955 C1956 1.400 . S
C1955 C1960 1.490 . S
C1956 H1946 0.930 . S
C1956 C1955 1.400 . S
C1956 C1959 1.386 . S
H1957 C1973 0.930 . S
H1958 C1974 0.931 . S
C1959 H1947 0.929 . S
C1959 C1953 1.390 . S
C1959 C1956 1.386 . S
C1960 C1955 1.490 . S
C1960 C1962 1.395 . S
C1960 C1963 1.403 . S
H1961 C1967 0.930 . S
C1962 H1948 0.930 . S
C1962 C1960 1.395 . S
C1962 C1965 1.403 . S
C1963 C1960 1.403 . S
C1963 C1964 1.524 . S
C1963 C1967 1.400 . S
C1964 H1949 0.960 . S
C1964 H1950 0.960 . S
C1964 H1951 0.960 . S
C1964 C1963 1.524 . S
C1965 C1962 1.403 . S
C1965 C1966 1.392 . S
C1965 C1969 1.495 . S
C1966 C1965 1.392 . S
C1966 C1967 1.385 . S
C1966 C1968 1.478 . S
C1967 H1961 0.930 . S
C1967 C1963 1.400 . S
C1967 C1966 1.385 . S
C1968 C1966 1.478 . S
C1968 C1970 1.381 . S
C1968 C1974 1.383 . S
C1969 C1965 1.495 . S
C1969 H1975 0.959 . S
C1969 H1976 0.961 . S
C1969 H1977 0.960 . S
C1970 C1968 1.381 . S
C1970 C1971 1.394 . S
C1970 H1978 0.930 . S
C1971 C1970 1.394 . S
C1971 C1972 1.383 . S
C1971 H1979 0.929 . S
C1972 C1971 1.383 . S
C1972 C1973 1.377 . S
C1973 H1957 0.930 . S
C1973 C1972 1.377 . S
C1973 C1974 1.379 . S
C1974 H1958 0.931 . S
C1974 C1968 1.383 . S
C1974 C1973 1.379 . S
H1975 C1969 0.959 . S
H1976 C1969 0.961 . S
H1977 C1969 0.960 . S
H1978 C1970 0.930 . S
H1979 C1971 0.929 . S
H1980 C1988 0.929 . S
H1981 C1990 0.930 . S
H1982 C1992 0.930 . S
H1983 C1995 0.929 . S
H1984 C1998 0.930 . S
H1985 C2000 0.960 . S
H1986 C2000 0.960 . S
H1987 C2000 0.960 . S
C1988 H1980 0.929 . S
C1988 C1989 1.377 . S
C1988 C1990 1.384 . S
C1989 C1988 1.377 . S
C1989 C1995 1.390 . S
C1990 H1981 0.930 . S
C1990 C1988 1.384 . S
C1990 C1991 1.372 . S
C1991 C1990 1.372 . S
C1991 C1992 1.400 . S
C1991 C1996 1.490 . S
C1992 H1982 0.930 . S
C1992 C1991 1.400 . S
C1992 C1995 1.386 . S
H1993 C2009 0.930 . S
H1994 C2010 0.931 . S
C1995 H1983 0.929 . S
C1995 C1989 1.390 . S
C1995 C1992 1.386 . S
C1996 C1991 1.490 . S
C1996 C1998 1.395 . S
C1996 C1999 1.403 . S
H1997 C2003 0.930 . S
C1998 H1984 0.930 . S
C1998 C1996 1.395 . S
C1998 C2001 1.403 . S
C1999 C1996 1.403 . S
C1999 C2000 1.524 . S
C1999 C2003 1.400 . S
C2000 H1985 0.960 . S
C2000 H1986 0.960 . S
C2000 H1987 0.960 . S
C2000 C1999 1.524 . S
C2001 C1998 1.403 . S
C2001 C2002 1.392 . S
C2001 C2005 1.495 . S
C2002 C2001 1.392 . S
C2002 C2003 1.385 . S
C2002 C2004 1.478 . S
C2003 H1997 0.930 . S
C2003 C1999 1.400 . S
C2003 C2002 1.385 . S
C2004 C2002 1.478 . S
C2004 C2006 1.381 . S
C2004 C2010 1.383 . S
C2005 C2001 1.495 . S
C2005 H2011 0.959 . S
C2005 H2012 0.961 . S
C2005 H2013 0.960 . S
C2006 C2004 1.381 . S
C2006 C2007 1.394 . S
C2006 H2014 0.930 . S
C2007 C2006 1.394 . S
C2007 C2008 1.383 . S
C2007 H2015 0.929 . S
C2008 C2007 1.383 . S
C2008 C2009 1.377 . S
C2009 H1993 0.930 . S
C2009 C2008 1.377 . S
C2009 C2010 1.379 . S
C2010 H1994 0.931 . S
C2010 C2004 1.383 . S
C2010 C2009 1.379 . S
H2011 C2005 0.959 . S
H2012 C2005 0.961 . S
H2013 C2005 0.960 . S
H2014 C2006 0.930 . S
H2015 C2007 0.929 . S
H2016 C2024 0.929 . S
H2017 C2026 0.930 . S
H2018 C2028 0.930 . S
H2019 C2031 0.929 . S
H2020 C2034 0.930 . S
H2021 C2036 0.960 . S
H2022 C2036 0.960 . S
H2023 C2036 0.960 . S
C2024 H2016 0.929 . S
C2024 C2025 1.377 . S
C2024 C2026 1.384 . S
C2025 C2024 1.377 . S
C2025 C2031 1.390 . S
C2026 H2017 0.930 . S
C2026 C2024 1.384 . S
C2026 C2027 1.372 . S
C2027 C2026 1.372 . S
C2027 C2028 1.400 . S
C2027 C2032 1.490 . S
C2028 H2018 0.930 . S
C2028 C2027 1.400 . S
C2028 C2031 1.386 . S
H2029 C2045 0.930 . S
H2030 C2046 0.931 . S
C2031 H2019 0.929 . S
C2031 C2025 1.390 . S
C2031 C2028 1.386 . S
C2032 C2027 1.490 . S
C2032 C2034 1.395 . S
C2032 C2035 1.403 . S
H2033 C2039 0.930 . S
C2034 H2020 0.930 . S
C2034 C2032 1.395 . S
C2034 C2037 1.403 . S
C2035 C2032 1.403 . S
C2035 C2036 1.524 . S
C2035 C2039 1.400 . S
C2036 H2021 0.960 . S
C2036 H2022 0.960 . S
C2036 H2023 0.960 . S
C2036 C2035 1.524 . S
C2037 C2034 1.403 . S
C2037 C2038 1.392 . S
C2037 C2041 1.495 . S
C2038 C2037 1.392 . S
C2038 C2039 1.385 . S
C2038 C2040 1.478 . S
C2039 H2033 0.930 . S
C2039 C2035 1.400 . S
C2039 C2038 1.385 . S
C2040 C2038 1.478 . S
C2040 C2042 1.381 . S
C2040 C2046 1.383 . S
C2041 C2037 1.495 . S
C2041 H2047 0.959 . S
C2041 H2048 0.961 . S
C2041 H2049 0.960 . S
C2042 C2040 1.381 . S
C2042 C2043 1.394 . S
C2042 H2050 0.930 . S
C2043 C2042 1.394 . S
C2043 C2044 1.383 . S
C2043 H2051 0.929 . S
C2044 C2043 1.383 . S
C2044 C2045 1.377 . S
C2045 H2029 0.930 . S
C2045 C2044 1.377 . S
C2045 C2046 1.379 . S
C2046 H2030 0.931 . S
C2046 C2040 1.383 . S
C2046 C2045 1.379 . S
H2047 C2041 0.959 . S
H2048 C2041 0.961 . S
H2049 C2041 0.960 . S
H2050 C2042 0.930 . S
H2051 C2043 0.929 . S
H2052 C2060 0.929 . S
H2053 C2062 0.930 . S
H2054 C2064 0.930 . S
H2055 C2067 0.929 . S
H2056 C2070 0.930 . S
H2057 C2072 0.960 . S
H2058 C2072 0.960 . S
H2059 C2072 0.960 . S
C2060 H2052 0.929 . S
C2060 C2061 1.377 . S
C2060 C2062 1.384 . S
C2061 C2060 1.377 . S
C2061 C2067 1.390 . S
C2062 H2053 0.930 . S
C2062 C2060 1.384 . S
C2062 C2063 1.372 . S
C2063 C2062 1.372 . S
C2063 C2064 1.400 . S
C2063 C2068 1.490 . S
C2064 H2054 0.930 . S
C2064 C2063 1.400 . S
C2064 C2067 1.386 . S
H2065 C2081 0.930 . S
H2066 C2082 0.931 . S
C2067 H2055 0.929 . S
C2067 C2061 1.390 . S
C2067 C2064 1.386 . S
C2068 C2063 1.490 . S
C2068 C2070 1.395 . S
C2068 C2071 1.403 . S
H2069 C2075 0.930 . S
C2070 H2056 0.930 . S
C2070 C2068 1.395 . S
C2070 C2073 1.403 . S
C2071 C2068 1.403 . S
C2071 C2072 1.524 . S
C2071 C2075 1.400 . S
C2072 H2057 0.960 . S
C2072 H2058 0.960 . S
C2072 H2059 0.960 . S
C2072 C2071 1.524 . S
C2073 C2070 1.403 . S
C2073 C2074 1.392 . S
C2073 C2077 1.495 . S
C2074 C2073 1.392 . S
C2074 C2075 1.385 . S
C2074 C2076 1.478 . S
C2075 H2069 0.930 . S
C2075 C2071 1.400 . S
C2075 C2074 1.385 . S
C2076 C2074 1.478 . S
C2076 C2078 1.381 . S
C2076 C2082 1.383 . S
C2077 C2073 1.495 . S
C2077 H2083 0.959 . S
C2077 H2084 0.961 . S
C2077 H2085 0.960 . S
C2078 C2076 1.381 . S
C2078 C2079 1.394 . S
C2078 H2086 0.930 . S
C2079 C2078 1.394 . S
C2079 C2080 1.383 . S
C2079 H2087 0.929 . S
C2080 C2079 1.383 . S
C2080 C2081 1.377 . S
C2081 H2065 0.930 . S
C2081 C2080 1.377 . S
C2081 C2082 1.379 . S
C2082 H2066 0.931 . S
C2082 C2076 1.383 . S
C2082 C2081 1.379 . S
H2083 C2077 0.959 . S
H2084 C2077 0.961 . S
H2085 C2077 0.960 . S
H2086 C2078 0.930 . S
H2087 C2079 0.929 . S
H2088 C2096 0.929 . S
H2089 C2098 0.930 . S
H2090 C2100 0.930 . S
H2091 C2103 0.929 . S
H2092 C2106 0.930 . S
H2093 C2108 0.960 . S
H2094 C2108 0.960 . S
H2095 C2108 0.960 . S
C2096 H2088 0.929 . S
C2096 C2097 1.377 . S
C2096 C2098 1.384 . S
C2097 C2096 1.377 . S
C2097 C2103 1.390 . S
C2098 H2089 0.930 . S
C2098 C2096 1.384 . S
C2098 C2099 1.372 . S
C2099 C2098 1.372 . S
C2099 C2100 1.400 . S
C2099 C2104 1.490 . S
C2100 H2090 0.930 . S
C2100 C2099 1.400 . S
C2100 C2103 1.386 . S
H2101 C2117 0.930 . S
H2102 C2118 0.931 . S
C2103 H2091 0.929 . S
C2103 C2097 1.390 . S
C2103 C2100 1.386 . S
C2104 C2099 1.490 . S
C2104 C2106 1.395 . S
C2104 C2107 1.403 . S
H2105 C2111 0.930 . S
C2106 H2092 0.930 . S
C2106 C2104 1.395 . S
C2106 C2109 1.403 . S
C2107 C2104 1.403 . S
C2107 C2108 1.524 . S
C2107 C2111 1.400 . S
C2108 H2093 0.960 . S
C2108 H2094 0.960 . S
C2108 H2095 0.960 . S
C2108 C2107 1.524 . S
C2109 C2106 1.403 . S
C2109 C2110 1.392 . S
C2109 C2113 1.495 . S
C2110 C2109 1.392 . S
C2110 C2111 1.385 . S
C2110 C2112 1.478 . S
C2111 H2105 0.930 . S
C2111 C2107 1.400 . S
C2111 C2110 1.385 . S
C2112 C2110 1.478 . S
C2112 C2114 1.381 . S
C2112 C2118 1.383 . S
C2113 C2109 1.495 . S
C2113 H2119 0.959 . S
C2113 H2120 0.961 . S
C2113 H2121 0.960 . S
C2114 C2112 1.381 . S
C2114 C2115 1.394 . S
C2114 H2122 0.930 . S
C2115 C2114 1.394 . S
C2115 C2116 1.383 . S
C2115 H2123 0.929 . S
C2116 C2115 1.383 . S
C2116 C2117 1.377 . S
C2117 H2101 0.930 . S
C2117 C2116 1.377 . S
C2117 C2118 1.379 . S
C2118 H2102 0.931 . S
C2118 C2112 1.383 . S
C2118 C2117 1.379 . S
H2119 C2113 0.959 . S
H2120 C2113 0.961 . S
H2121 C2113 0.960 . S
H2122 C2114 0.930 . S
H2123 C2115 0.929 . S
H2124 C2132 0.929 . S
H2125 C2134 0.930 . S
H2126 C2136 0.930 . S
H2127 C2139 0.929 . S
H2128 C2142 0.930 . S
H2129 C2144 0.960 . S
H2130 C2144 0.960 . S
H2131 C2144 0.960 . S
C2132 H2124 0.929 . S
C2132 C2133 1.377 . S
C2132 C2134 1.384 . S
C2133 C2132 1.377 . S
C2133 C2139 1.390 . S
C2134 H2125 0.930 . S
C2134 C2132 1.384 . S
C2134 C2135 1.372 . S
C2135 C2134 1.372 . S
C2135 C2136 1.400 . S
C2135 C2140 1.490 . S
C2136 H2126 0.930 . S
C2136 C2135 1.400 . S
C2136 C2139 1.386 . S
H2137 C2153 0.930 . S
H2138 C2154 0.931 . S
C2139 H2127 0.929 . S
C2139 C2133 1.390 . S
C2139 C2136 1.386 . S
C2140 C2135 1.490 . S
C2140 C2142 1.395 . S
C2140 C2143 1.403 . S
H2141 C2147 0.930 . S
C2142 H2128 0.930 . S
C2142 C2140 1.395 . S
C2142 C2145 1.403 . S
C2143 C2140 1.403 . S
C2143 C2144 1.524 . S
C2143 C2147 1.400 . S
C2144 H2129 0.960 . S
C2144 H2130 0.960 . S
C2144 H2131 0.960 . S
C2144 C2143 1.524 . S
C2145 C2142 1.403 . S
C2145 C2146 1.392 . S
C2145 C2149 1.495 . S
C2146 C2145 1.392 . S
C2146 C2147 1.385 . S
C2146 C2148 1.478 . S
C2147 H2141 0.930 . S
C2147 C2143 1.400 . S
C2147 C2146 1.385 . S
C2148 C2146 1.478 . S
C2148 C2150 1.381 . S
C2148 C2154 1.383 . S
C2149 C2145 1.495 . S
C2149 H2155 0.959 . S
C2149 H2156 0.961 . S
C2149 H2157 0.960 . S
C2150 C2148 1.381 . S
C2150 C2151 1.394 . S
C2150 H2158 0.930 . S
C2151 C2150 1.394 . S
C2151 C2152 1.383 . S
C2151 H2159 0.929 . S
C2152 C2151 1.383 . S
C2152 C2153 1.377 . S
C2153 H2137 0.930 . S
C2153 C2152 1.377 . S
C2153 C2154 1.379 . S
C2154 H2138 0.931 . S
C2154 C2148 1.383 . S
C2154 C2153 1.379 . S
H2155 C2149 0.959 . S
H2156 C2149 0.961 . S
H2157 C2149 0.960 . S
H2158 C2150 0.930 . S
H2159 C2151 0.929 . S
H2160 C2168 0.929 . S
H2161 C2170 0.930 . S
H2162 C2172 0.930 . S
H2163 C2175 0.929 . S
H2164 C2178 0.930 . S
H2165 C2180 0.960 . S
H2166 C2180 0.960 . S
H2167 C2180 0.960 . S
C2168 H2160 0.929 . S
C2168 C2169 1.377 . S
C2168 C2170 1.384 . S
C2169 C2168 1.377 . S
C2169 C2175 1.390 . S
C2170 H2161 0.930 . S
C2170 C2168 1.384 . S
C2170 C2171 1.372 . S
C2171 C2170 1.372 . S
C2171 C2172 1.400 . S
C2171 C2176 1.490 . S
C2172 H2162 0.930 . S
C2172 C2171 1.400 . S
C2172 C2175 1.386 . S
H2173 C2189 0.930 . S
H2174 C2190 0.931 . S
C2175 H2163 0.929 . S
C2175 C2169 1.390 . S
C2175 C2172 1.386 . S
C2176 C2171 1.490 . S
C2176 C2178 1.395 . S
C2176 C2179 1.403 . S
H2177 C2183 0.930 . S
C2178 H2164 0.930 . S
C2178 C2176 1.395 . S
C2178 C2181 1.403 . S
C2179 C2176 1.403 . S
C2179 C2180 1.524 . S
C2179 C2183 1.400 . S
C2180 H2165 0.960 . S
C2180 H2166 0.960 . S
C2180 H2167 0.960 . S
C2180 C2179 1.524 . S
C2181 C2178 1.403 . S
C2181 C2182 1.392 . S
C2181 C2185 1.495 . S
C2182 C2181 1.392 . S
C2182 C2183 1.385 . S
C2182 C2184 1.478 . S
C2183 H2177 0.930 . S
C2183 C2179 1.400 . S
C2183 C2182 1.385 . S
C2184 C2182 1.478 . S
C2184 C2186 1.381 . S
C2184 C2190 1.383 . S
C2185 C2181 1.495 . S
C2185 H2191 0.959 . S
C2185 H2192 0.961 . S
C2185 H2193 0.960 . S
C2186 C2184 1.381 . S
C2186 C2187 1.394 . S
C2186 H2194 0.930 . S
C2187 C2186 1.394 . S
C2187 C2188 1.383 . S
C2187 H2195 0.929 . S
C2188 C2187 1.383 . S
C2188 C2189 1.377 . S
C2189 H2173 0.930 . S
C2189 C2188 1.377 . S
C2189 C2190 1.379 . S
C2190 H2174 0.931 . S
C2190 C2184 1.383 . S
C2190 C2189 1.379 . S
H2191 C2185 0.959 . S
H2192 C2185 0.961 . S
H2193 C2185 0.960 . S
H2194 C2186 0.930 . S
H2195 C2187 0.929 . S
H2196 C2204 0.929 . S
H2197 C2206 0.930 . S
H2198 C2208 0.930 . S
H2199 C2211 0.929 . S
H2200 C2214 0.930 . S
H2201 C2216 0.960 . S
H2202 C2216 0.960 . S
H2203 C2216 0.960 . S
C2204 H2196 0.929 . S
C2204 C2205 1.377 . S
C2204 C2206 1.384 . S
C2205 C2204 1.377 . S
C2205 C2211 1.390 . S
C2206 H2197 0.930 . S
C2206 C2204 1.384 . S
C2206 C2207 1.372 . S
C2207 C2206 1.372 . S
C2207 C2208 1.400 . S
C2207 C2212 1.490 . S
C2208 H2198 0.930 . S
C2208 C2207 1.400 . S
C2208 C2211 1.386 . S
H2209 C2225 0.930 . S
H2210 C2226 0.931 . S
C2211 H2199 0.929 . S
C2211 C2205 1.390 . S
C2211 C2208 1.386 . S
C2212 C2207 1.490 . S
C2212 C2214 1.395 . S
C2212 C2215 1.403 . S
H2213 C2219 0.930 . S
C2214 H2200 0.930 . S
C2214 C2212 1.395 . S
C2214 C2217 1.403 . S
C2215 C2212 1.403 . S
C2215 C2216 1.524 . S
C2215 C2219 1.400 . S
C2216 H2201 0.960 . S
C2216 H2202 0.960 . S
C2216 H2203 0.960 . S
C2216 C2215 1.524 . S
C2217 C2214 1.403 . S
C2217 C2218 1.392 . S
C2217 C2221 1.495 . S
C2218 C2217 1.392 . S
C2218 C2219 1.385 . S
C2218 C2220 1.478 . S
C2219 H2213 0.930 . S
C2219 C2215 1.400 . S
C2219 C2218 1.385 . S
C2220 C2218 1.478 . S
C2220 C2222 1.381 . S
C2220 C2226 1.383 . S
C2221 C2217 1.495 . S
C2221 H2227 0.959 . S
C2221 H2228 0.961 . S
C2221 H2229 0.960 . S
C2222 C2220 1.381 . S
C2222 C2223 1.394 . S
C2222 H2230 0.930 . S
C2223 C2222 1.394 . S
C2223 C2224 1.383 . S
C2223 H2231 0.929 . S
C2224 C2223 1.383 . S
C2224 C2225 1.377 . S
C2225 H2209 0.930 . S
C2225 C2224 1.377 . S
C2225 C2226 1.379 . S
C2226 H2210 0.931 . S
C2226 C2220 1.383 . S
C2226 C2225 1.379 . S
H2227 C2221 0.959 . S
H2228 C2221 0.961 . S
H2229 C2221 0.960 . S
H2230 C2222 0.930 . S
H2231 C2223 0.929 . S
H2232 C2240 0.929 . S
H2233 C2242 0.930 . S
H2234 C2244 0.930 . S
H2235 C2247 0.929 . S
H2236 C2250 0.930 . S
H2237 C2252 0.960 . S
H2238 C2252 0.960 . S
H2239 C2252 0.960 . S
C2240 H2232 0.929 . S
C2240 C2241 1.377 . S
C2240 C2242 1.384 . S
C2241 C2240 1.377 . S
C2241 C2247 1.390 . S
C2242 H2233 0.930 . S
C2242 C2240 1.384 . S
C2242 C2243 1.372 . S
C2243 C2242 1.372 . S
C2243 C2244 1.400 . S
C2243 C2248 1.490 . S
C2244 H2234 0.930 . S
C2244 C2243 1.400 . S
C2244 C2247 1.386 . S
H2245 C2261 0.930 . S
H2246 C2262 0.931 . S
C2247 H2235 0.929 . S
C2247 C2241 1.390 . S
C2247 C2244 1.386 . S
C2248 C2243 1.490 . S
C2248 C2250 1.395 . S
C2248 C2251 1.403 . S
H2249 C2255 0.930 . S
C2250 H2236 0.930 . S
C2250 C2248 1.395 . S
C2250 C2253 1.403 . S
C2251 C2248 1.403 . S
C2251 C2252 1.524 . S
C2251 C2255 1.400 . S
C2252 H2237 0.960 . S
C2252 H2238 0.960 . S
C2252 H2239 0.960 . S
C2252 C2251 1.524 . S
C2253 C2250 1.403 . S
C2253 C2254 1.392 . S
C2253 C2257 1.495 . S
C2254 C2253 1.392 . S
C2254 C2255 1.385 . S
C2254 C2256 1.478 . S
C2255 H2249 0.930 . S
C2255 C2251 1.400 . S
C2255 C2254 1.385 . S
C2256 C2254 1.478 . S
C2256 C2258 1.381 . S
C2256 C2262 1.383 . S
C2257 C2253 1.495 . S
C2257 H2263 0.959 . S
C2257 H2264 0.961 . S
C2257 H2265 0.960 . S
C2258 C2256 1.381 . S
C2258 C2259 1.394 . S
C2258 H2266 0.930 . S
C2259 C2258 1.394 . S
C2259 C2260 1.383 . S
C2259 H2267 0.929 . S
C2260 C2259 1.383 . S
C2260 C2261 1.377 . S
C2261 H2245 0.930 . S
C2261 C2260 1.377 . S
C2261 C2262 1.379 . S
C2262 H2246 0.931 . S
C2262 C2256 1.383 . S
C2262 C2261 1.379 . S
H2263 C2257 0.959 . S
H2264 C2257 0.961 . S
H2265 C2257 0.960 . S
H2266 C2258 0.930 . S
H2267 C2259 0.929 . S
H2268 C2276 0.929 . S
H2269 C2278 0.930 . S
H2270 C2280 0.930 . S
H2271 C2283 0.929 . S
H2272 C2286 0.930 . S
H2273 C2288 0.960 . S
H2274 C2288 0.960 . S
H2275 C2288 0.960 . S
C2276 H2268 0.929 . S
C2276 C2277 1.377 . S
C2276 C2278 1.384 . S
C2277 C2276 1.377 . S
C2277 C2283 1.390 . S
C2278 H2269 0.930 . S
C2278 C2276 1.384 . S
C2278 C2279 1.372 . S
C2279 C2278 1.372 . S
C2279 C2280 1.400 . S
C2279 C2284 1.490 . S
C2280 H2270 0.930 . S
C2280 C2279 1.400 . S
C2280 C2283 1.386 . S
H2281 C2297 0.930 . S
H2282 C2298 0.931 . S
C2283 H2271 0.929 . S
C2283 C2277 1.390 . S
C2283 C2280 1.386 . S
C2284 C2279 1.490 . S
C2284 C2286 1.395 . S
C2284 C2287 1.403 . S
H2285 C2291 0.930 . S
C2286 H2272 0.930 . S
C2286 C2284 1.395 . S
C2286 C2289 1.403 . S
C2287 C2284 1.403 . S
C2287 C2288 1.524 . S
C2287 C2291 1.400 . S
C2288 H2273 0.960 . S
C2288 H2274 0.960 . S
C2288 H2275 0.960 . S
C2288 C2287 1.524 . S
C2289 C2286 1.403 . S
C2289 C2290 1.392 . S
C2289 C2293 1.495 . S
C2290 C2289 1.392 . S
C2290 C2291 1.385 . S
C2290 C2292 1.478 . S
C2291 H2285 0.930 . S
C2291 C2287 1.400 . S
C2291 C2290 1.385 . S
C2292 C2290 1.478 . S
C2292 C2294 1.381 . S
C2292 C2298 1.383 . S
C2293 C2289 1.495 . S
C2293 H2299 0.959 . S
C2293 H2300 0.961 . S
C2293 H2301 0.960 . S
C2294 C2292 1.381 . S
C2294 C2295 1.394 . S
C2294 H2302 0.930 . S
C2295 C2294 1.394 . S
C2295 C2296 1.383 . S
C2295 H2303 0.929 . S
C2296 C2295 1.383 . S
C2296 C2297 1.377 . S
C2297 H2281 0.930 . S
C2297 C2296 1.377 . S
C2297 C2298 1.379 . S
C2298 H2282 0.931 . S
C2298 C2292 1.383 . S
C2298 C2297 1.379 . S
H2299 C2293 0.959 . S
H2300 C2293 0.961 . S
H2301 C2293 0.960 . S
H2302 C2294 0.930 . S
H2303 C2295 0.929 . S
C1017 C226 1.081 . S
C1036 C67 1.226 . S
C1053 C321 1.075 . S
C1072 C140 1.220 . S
C1089 C235 1.220 . S
C1108 C394 1.024 . S
C1125 C308 1.220 . S
C1144 C489 1.024 . S
C1161 C58 1.088 . S
C1180 C403 1.230 . S
C1197 C153 1.073 . S
C1216 C476 1.211 . S
C1233 C909 1.079 . S
C1252 C560 1.226 . S
C1269 C655 1.223 . S
C1288 C982 1.085 . S
C1305 C728 1.223 . S
C1324 C573 1.070 . S
C1341 C823 1.224 . S
C1360 C646 1.101 . S
C1377 C896 1.221 . S
C1396 C741 1.025 . S
C1413 C814 1.096 . S
C1432 C991 1.221 . S
C1449 C315 1.959 . S
C1468 C74 1.978 . S
C1485 C147 1.960 . S
C1504 C410 1.933 . S
C1521 C242 1.964 . S
C1540 C483 1.956 . S
C1557 C567 1.955 . S
C1576 C830 1.954 . S
C1593 C662 1.955 . S
C1612 C903 1.978 . S
C1629 C735 1.961 . S
C1648 C998 1.932 . S
C1665 C651 2.163 . S
C1684 C63 2.145 . S
C1701 C158 2.158 . S
C1720 C746 2.155 . S
C1737 C819 2.162 . S
C1756 C231 2.148 . S
C1773 C326 2.158 . S
C1792 C914 2.154 . S
C1809 C399 2.161 . S
C1828 C987 2.152 . S
C1845 C578 2.160 . S
C1864 C494 2.164 . S
C1881 C237 1.248 . S
C1900 C56 1.385 . S
C1917 C151 1.401 . S
C1936 C310 1.242 . S
C1953 C224 1.400 . S
C1972 C405 1.190 . S
C1989 C319 1.402 . S
C2008 C478 1.279 . S
C2025 C69 1.245 . S
C2044 C392 1.384 . S
C2061 C142 1.253 . S
C2080 C487 1.410 . S
C2097 C898 1.234 . S
C2116 C571 1.389 . S
C2133 C644 1.399 . S
C2152 C993 1.289 . S
C2169 C739 1.401 . S
C2188 C562 1.274 . S
C2205 C657 1.252 . S
C2224 C812 1.401 . S
C2241 C907 1.400 . S
C2260 C730 1.255 . S
C2277 C980 1.402 . S
C2296 C825 1.277 . S
