# Generated by pormake.
# Topology sst, (4)-cn, num edge types: 1
# Building blocks:
#     Node 0, Type 0, BuildingBlock: MUDLON_clean_sbu_0, # of connection points: 4
#     Node 1, Type 0, BuildingBlock: MUDLON_clean_sbu_0, # of connection points: 4
#     Node 2, Type 0, BuildingBlock: MUDLON_clean_sbu_0, # of connection points: 4
#     Node 3, Type 0, BuildingBlock: MUDLON_clean_sbu_0, # of connection points: 4
#     Node 4, Type 0, BuildingBlock: MUDLON_clean_sbu_0, # of connection points: 4
#     Node 5, Type 0, BuildingBlock: MUDLON_clean_sbu_0, # of connection points: 4
#     Node 6, Type 0, BuildingBlock: MUDLON_clean_sbu_0, # of connection points: 4
#     Node 7, Type 0, BuildingBlock: MUDLON_clean_sbu_0, # of connection points: 4
#     Node 8, Type 0, BuildingBlock: MUDLON_clean_sbu_0, # of connection points: 4
#     Node 9, Type 0, BuildingBlock: MUDLON_clean_sbu_0, # of connection points: 4
#     Node 10, Type 0, BuildingBlock: MUDLON_clean_sbu_0, # of connection points: 4
#     Node 11, Type 0, BuildingBlock: MUDLON_clean_sbu_0, # of connection points: 4
#     Node 12, Type 0, BuildingBlock: MUDLON_clean_sbu_0, # of connection points: 4
#     Node 13, Type 0, BuildingBlock: MUDLON_clean_sbu_0, # of connection points: 4
#     Node 14, Type 0, BuildingBlock: MUDLON_clean_sbu_0, # of connection points: 4
#     Node 15, Type 0, BuildingBlock: MUDLON_clean_sbu_0, # of connection points: 4
#     Node 16, Type 0, BuildingBlock: MUDLON_clean_sbu_0, # of connection points: 4
#     Node 17, Type 0, BuildingBlock: MUDLON_clean_sbu_0, # of connection points: 4
#     Node 18, Type 0, BuildingBlock: MUDLON_clean_sbu_0, # of connection points: 4
#     Node 19, Type 0, BuildingBlock: MUDLON_clean_sbu_0, # of connection points: 4
#     Node 20, Type 0, BuildingBlock: MUDLON_clean_sbu_0, # of connection points: 4
#     Node 21, Type 0, BuildingBlock: MUDLON_clean_sbu_0, # of connection points: 4
#     Node 22, Type 0, BuildingBlock: MUDLON_clean_sbu_0, # of connection points: 4
#     Node 23, Type 0, BuildingBlock: MUDLON_clean_sbu_0, # of connection points: 4
#     Node 24, Type 0, BuildingBlock: MUDLON_clean_sbu_0, # of connection points: 4
#     Node 25, Type 0, BuildingBlock: MUDLON_clean_sbu_0, # of connection points: 4
#     Node 26, Type 0, BuildingBlock: MUDLON_clean_sbu_0, # of connection points: 4
#     Node 27, Type 0, BuildingBlock: MUDLON_clean_sbu_0, # of connection points: 4
#     Node 28, Type 0, BuildingBlock: MUDLON_clean_sbu_0, # of connection points: 4
#     Node 29, Type 0, BuildingBlock: MUDLON_clean_sbu_0, # of connection points: 4
#     Node 30, Type 0, BuildingBlock: MUDLON_clean_sbu_0, # of connection points: 4
#     Node 31, Type 0, BuildingBlock: MUDLON_clean_sbu_0, # of connection points: 4
#     Node 32, Type 0, BuildingBlock: MUDLON_clean_sbu_0, # of connection points: 4
#     Node 33, Type 0, BuildingBlock: MUDLON_clean_sbu_0, # of connection points: 4
#     Node 34, Type 0, BuildingBlock: MUDLON_clean_sbu_0, # of connection points: 4
#     Node 35, Type 0, BuildingBlock: MUDLON_clean_sbu_0, # of connection points: 4
#     Node 36, Type 0, BuildingBlock: MUDLON_clean_sbu_0, # of connection points: 4
#     Node 37, Type 0, BuildingBlock: MUDLON_clean_sbu_0, # of connection points: 4
#     Node 38, Type 0, BuildingBlock: MUDLON_clean_sbu_0, # of connection points: 4
#     Node 39, Type 0, BuildingBlock: MUDLON_clean_sbu_0, # of connection points: 4
#     Node 40, Type 0, BuildingBlock: MUDLON_clean_sbu_0, # of connection points: 4
#     Node 41, Type 0, BuildingBlock: MUDLON_clean_sbu_0, # of connection points: 4
#     Node 42, Type 0, BuildingBlock: MUDLON_clean_sbu_0, # of connection points: 4
#     Node 43, Type 0, BuildingBlock: MUDLON_clean_sbu_0, # of connection points: 4
#     Node 44, Type 0, BuildingBlock: MUDLON_clean_sbu_0, # of connection points: 4
#     Node 45, Type 0, BuildingBlock: MUDLON_clean_sbu_0, # of connection points: 4
#     Node 46, Type 0, BuildingBlock: MUDLON_clean_sbu_0, # of connection points: 4
#     Node 47, Type 0, BuildingBlock: MUDLON_clean_sbu_0, # of connection points: 4
#     Edge 48, Type (0, 0), BuildingBlock: AJUNOK_clean_linker_0, # of connection points: 2
#     Edge 49, Type (0, 0), BuildingBlock: AJUNOK_clean_linker_0, # of connection points: 2
#     Edge 50, Type (0, 0), BuildingBlock: AJUNOK_clean_linker_0, # of connection points: 2
#     Edge 51, Type (0, 0), BuildingBlock: AJUNOK_clean_linker_0, # of connection points: 2
#     Edge 52, Type (0, 0), BuildingBlock: AJUNOK_clean_linker_0, # of connection points: 2
#     Edge 53, Type (0, 0), BuildingBlock: AJUNOK_clean_linker_0, # of connection points: 2
#     Edge 54, Type (0, 0), BuildingBlock: AJUNOK_clean_linker_0, # of connection points: 2
#     Edge 55, Type (0, 0), BuildingBlock: AJUNOK_clean_linker_0, # of connection points: 2
#     Edge 56, Type (0, 0), BuildingBlock: AJUNOK_clean_linker_0, # of connection points: 2
#     Edge 57, Type (0, 0), BuildingBlock: AJUNOK_clean_linker_0, # of connection points: 2
#     Edge 58, Type (0, 0), BuildingBlock: AJUNOK_clean_linker_0, # of connection points: 2
#     Edge 59, Type (0, 0), BuildingBlock: AJUNOK_clean_linker_0, # of connection points: 2
#     Edge 60, Type (0, 0), BuildingBlock: AJUNOK_clean_linker_0, # of connection points: 2
#     Edge 61, Type (0, 0), BuildingBlock: AJUNOK_clean_linker_0, # of connection points: 2
#     Edge 62, Type (0, 0), BuildingBlock: AJUNOK_clean_linker_0, # of connection points: 2
#     Edge 63, Type (0, 0), BuildingBlock: AJUNOK_clean_linker_0, # of connection points: 2
#     Edge 64, Type (0, 0), BuildingBlock: AJUNOK_clean_linker_0, # of connection points: 2
#     Edge 65, Type (0, 0), BuildingBlock: AJUNOK_clean_linker_0, # of connection points: 2
#     Edge 66, Type (0, 0), BuildingBlock: AJUNOK_clean_linker_0, # of connection points: 2
#     Edge 67, Type (0, 0), BuildingBlock: AJUNOK_clean_linker_0, # of connection points: 2
#     Edge 68, Type (0, 0), BuildingBlock: AJUNOK_clean_linker_0, # of connection points: 2
#     Edge 69, Type (0, 0), BuildingBlock: AJUNOK_clean_linker_0, # of connection points: 2
#     Edge 70, Type (0, 0), BuildingBlock: AJUNOK_clean_linker_0, # of connection points: 2
#     Edge 71, Type (0, 0), BuildingBlock: AJUNOK_clean_linker_0, # of connection points: 2
#     Edge 72, Type (0, 0), BuildingBlock: AJUNOK_clean_linker_0, # of connection points: 2
#     Edge 73, Type (0, 0), BuildingBlock: AJUNOK_clean_linker_0, # of connection points: 2
#     Edge 74, Type (0, 0), BuildingBlock: AJUNOK_clean_linker_0, # of connection points: 2
#     Edge 75, Type (0, 0), BuildingBlock: AJUNOK_clean_linker_0, # of connection points: 2
#     Edge 76, Type (0, 0), BuildingBlock: AJUNOK_clean_linker_0, # of connection points: 2
#     Edge 77, Type (0, 0), BuildingBlock: AJUNOK_clean_linker_0, # of connection points: 2
#     Edge 78, Type (0, 0), BuildingBlock: AJUNOK_clean_linker_0, # of connection points: 2
#     Edge 79, Type (0, 0), BuildingBlock: AJUNOK_clean_linker_0, # of connection points: 2
#     Edge 80, Type (0, 0), BuildingBlock: AJUNOK_clean_linker_0, # of connection points: 2
#     Edge 81, Type (0, 0), BuildingBlock: AJUNOK_clean_linker_0, # of connection points: 2
#     Edge 82, Type (0, 0), BuildingBlock: AJUNOK_clean_linker_0, # of connection points: 2
#     Edge 83, Type (0, 0), BuildingBlock: AJUNOK_clean_linker_0, # of connection points: 2
#     Edge 84, Type (0, 0), BuildingBlock: AJUNOK_clean_linker_0, # of connection points: 2
#     Edge 85, Type (0, 0), BuildingBlock: AJUNOK_clean_linker_0, # of connection points: 2
#     Edge 86, Type (0, 0), BuildingBlock: AJUNOK_clean_linker_0, # of connection points: 2
#     Edge 87, Type (0, 0), BuildingBlock: AJUNOK_clean_linker_0, # of connection points: 2
#     Edge 88, Type (0, 0), BuildingBlock: AJUNOK_clean_linker_0, # of connection points: 2
#     Edge 89, Type (0, 0), BuildingBlock: AJUNOK_clean_linker_0, # of connection points: 2
#     Edge 90, Type (0, 0), BuildingBlock: AJUNOK_clean_linker_0, # of connection points: 2
#     Edge 91, Type (0, 0), BuildingBlock: AJUNOK_clean_linker_0, # of connection points: 2
#     Edge 92, Type (0, 0), BuildingBlock: AJUNOK_clean_linker_0, # of connection points: 2
#     Edge 93, Type (0, 0), BuildingBlock: AJUNOK_clean_linker_0, # of connection points: 2
#     Edge 94, Type (0, 0), BuildingBlock: AJUNOK_clean_linker_0, # of connection points: 2
#     Edge 95, Type (0, 0), BuildingBlock: AJUNOK_clean_linker_0, # of connection points: 2
#     Edge 96, Type (0, 0), BuildingBlock: AJUNOK_clean_linker_0, # of connection points: 2
#     Edge 97, Type (0, 0), BuildingBlock: AJUNOK_clean_linker_0, # of connection points: 2
#     Edge 98, Type (0, 0), BuildingBlock: AJUNOK_clean_linker_0, # of connection points: 2
#     Edge 99, Type (0, 0), BuildingBlock: AJUNOK_clean_linker_0, # of connection points: 2
#     Edge 100, Type (0, 0), BuildingBlock: AJUNOK_clean_linker_0, # of connection points: 2
#     Edge 101, Type (0, 0), BuildingBlock: AJUNOK_clean_linker_0, # of connection points: 2
#     Edge 102, Type (0, 0), BuildingBlock: AJUNOK_clean_linker_0, # of connection points: 2
#     Edge 103, Type (0, 0), BuildingBlock: AJUNOK_clean_linker_0, # of connection points: 2
#     Edge 104, Type (0, 0), BuildingBlock: AJUNOK_clean_linker_0, # of connection points: 2
#     Edge 105, Type (0, 0), BuildingBlock: AJUNOK_clean_linker_0, # of connection points: 2
#     Edge 106, Type (0, 0), BuildingBlock: AJUNOK_clean_linker_0, # of connection points: 2
#     Edge 107, Type (0, 0), BuildingBlock: AJUNOK_clean_linker_0, # of connection points: 2
#     Edge 108, Type (0, 0), BuildingBlock: AJUNOK_clean_linker_0, # of connection points: 2
#     Edge 109, Type (0, 0), BuildingBlock: AJUNOK_clean_linker_0, # of connection points: 2
#     Edge 110, Type (0, 0), BuildingBlock: AJUNOK_clean_linker_0, # of connection points: 2
#     Edge 111, Type (0, 0), BuildingBlock: AJUNOK_clean_linker_0, # of connection points: 2
#     Edge 112, Type (0, 0), BuildingBlock: AJUNOK_clean_linker_0, # of connection points: 2
#     Edge 113, Type (0, 0), BuildingBlock: AJUNOK_clean_linker_0, # of connection points: 2
#     Edge 114, Type (0, 0), BuildingBlock: AJUNOK_clean_linker_0, # of connection points: 2
#     Edge 115, Type (0, 0), BuildingBlock: AJUNOK_clean_linker_0, # of connection points: 2
#     Edge 116, Type (0, 0), BuildingBlock: AJUNOK_clean_linker_0, # of connection points: 2
#     Edge 117, Type (0, 0), BuildingBlock: AJUNOK_clean_linker_0, # of connection points: 2
#     Edge 118, Type (0, 0), BuildingBlock: AJUNOK_clean_linker_0, # of connection points: 2
#     Edge 119, Type (0, 0), BuildingBlock: AJUNOK_clean_linker_0, # of connection points: 2
#     Edge 120, Type (0, 0), BuildingBlock: AJUNOK_clean_linker_0, # of connection points: 2
#     Edge 121, Type (0, 0), BuildingBlock: AJUNOK_clean_linker_0, # of connection points: 2
#     Edge 122, Type (0, 0), BuildingBlock: AJUNOK_clean_linker_0, # of connection points: 2
#     Edge 123, Type (0, 0), BuildingBlock: AJUNOK_clean_linker_0, # of connection points: 2
#     Edge 124, Type (0, 0), BuildingBlock: AJUNOK_clean_linker_0, # of connection points: 2
#     Edge 125, Type (0, 0), BuildingBlock: AJUNOK_clean_linker_0, # of connection points: 2
#     Edge 126, Type (0, 0), BuildingBlock: AJUNOK_clean_linker_0, # of connection points: 2
#     Edge 127, Type (0, 0), BuildingBlock: AJUNOK_clean_linker_0, # of connection points: 2
#     Edge 128, Type (0, 0), BuildingBlock: AJUNOK_clean_linker_0, # of connection points: 2
#     Edge 129, Type (0, 0), BuildingBlock: AJUNOK_clean_linker_0, # of connection points: 2
#     Edge 130, Type (0, 0), BuildingBlock: AJUNOK_clean_linker_0, # of connection points: 2
#     Edge 131, Type (0, 0), BuildingBlock: AJUNOK_clean_linker_0, # of connection points: 2
#     Edge 132, Type (0, 0), BuildingBlock: AJUNOK_clean_linker_0, # of connection points: 2
#     Edge 133, Type (0, 0), BuildingBlock: AJUNOK_clean_linker_0, # of connection points: 2
#     Edge 134, Type (0, 0), BuildingBlock: AJUNOK_clean_linker_0, # of connection points: 2
#     Edge 135, Type (0, 0), BuildingBlock: AJUNOK_clean_linker_0, # of connection points: 2
#     Edge 136, Type (0, 0), BuildingBlock: AJUNOK_clean_linker_0, # of connection points: 2
#     Edge 137, Type (0, 0), BuildingBlock: AJUNOK_clean_linker_0, # of connection points: 2
#     Edge 138, Type (0, 0), BuildingBlock: AJUNOK_clean_linker_0, # of connection points: 2
#     Edge 139, Type (0, 0), BuildingBlock: AJUNOK_clean_linker_0, # of connection points: 2
#     Edge 140, Type (0, 0), BuildingBlock: AJUNOK_clean_linker_0, # of connection points: 2
#     Edge 141, Type (0, 0), BuildingBlock: AJUNOK_clean_linker_0, # of connection points: 2
#     Edge 142, Type (0, 0), BuildingBlock: AJUNOK_clean_linker_0, # of connection points: 2
#     Edge 143, Type (0, 0), BuildingBlock: AJUNOK_clean_linker_0, # of connection points: 2
# Relax obj value: 0.001
# Max RMSD: 0.021
# Mean RMSD: 0.015
data_MOF--net-sst--node1-MUDLON_clean_sbu_0--edge1-AJUNOK_clean_linker_0
_symmetry_space_group_name_H-M    P1
_symmetry_Int_Tables_number       1
_symmetry_cell_setting            triclinic
loop_
_symmetry_equiv_pos_as_xyz
'x, y, z'
_cell_length_a     44.402886
_cell_length_b     44.359885
_cell_length_c     44.355524
_cell_angle_alpha  91.266558
_cell_angle_beta   91.459799
_cell_angle_gamma 91.550714
loop_
_atom_site_label
_atom_site_type_symbol
_atom_site_fract_x
_atom_site_fract_y
_atom_site_fract_z
_atom_type_partial_charge
Mg0 Mg 0.13102 0.13339 0.38297 0.0
C1 C 0.14533 0.19686 0.40279 0.0
O2 O 0.16408 0.19301 0.38072 0.0
C3 C 0.13085 0.06782 0.38894 0.0
O4 O 0.13344 0.0723 0.35993 0.0
C5 C 0.07485 0.15742 0.35187 0.0
O6 O 0.08807 0.1831 0.36053 0.0
O7 O 0.08962 0.1333 0.35457 0.0
O8 O 0.12891 0.17455 0.41068 0.0
O9 O 0.1766 0.13353 0.36511 0.0
C10 C 0.19628 0.13528 0.38662 0.0
O11 O 0.18678 0.13644 0.41444 0.0
O12 O 0.1287 0.09081 0.40643 0.0
Mg13 Mg 0.89192 0.17126 0.39602 0.0
C14 C 0.89708 0.2381 0.40142 0.0
O15 O 0.88089 0.23287 0.37656 0.0
C16 C 0.88414 0.10522 0.40771 0.0
O17 O 0.87055 0.10858 0.38137 0.0
C18 C 0.82777 0.18916 0.40223 0.0
O19 O 0.84126 0.2006 0.42675 0.0
O20 O 0.84368 0.17503 0.3832 0.0
O21 O 0.90479 0.21554 0.41706 0.0
O22 O 0.92776 0.16931 0.36239 0.0
C23 C 0.94519 0.14694 0.36069 0.0
O24 O 0.93748 0.12196 0.37412 0.0
O25 O 0.89526 0.12881 0.42142 0.0
Mg26 Mg 0.89771 0.91255 0.44684 0.0
C27 C 0.89845 0.98091 0.44795 0.0
O28 O 0.89789 0.97487 0.4768 0.0
C29 C 0.92158 0.8589 0.40982 0.0
O30 O 0.94787 0.87037 0.41908 0.0
C31 C 0.83192 0.89758 0.4509 0.0
O32 O 0.83807 0.88783 0.42362 0.0
O33 O 0.85348 0.90857 0.46765 0.0
O34 O 0.8992 0.95882 0.42896 0.0
O35 O 0.93752 0.90454 0.47566 0.0
C36 C 0.96109 0.92147 0.47458 0.0
O37 O 0.95965 0.94659 0.45955 0.0
O38 O 0.89786 0.87339 0.4154 0.0
Mg39 Mg 0.14174 0.88248 0.44936 0.0
C40 C 0.13823 0.94717 0.43865 0.0
O41 O 0.14028 0.94512 0.46814 0.0
C42 C 0.146 0.81636 0.43548 0.0
O43 O 0.16028 0.81913 0.46175 0.0
C44 C 0.08034 0.87329 0.47612 0.0
O45 O 0.08097 0.84896 0.45874 0.0
O46 O 0.10448 0.88923 0.47998 0.0
O47 O 0.1386 0.92294 0.42268 0.0
O48 O 0.18848 0.88378 0.4663 0.0
C49 C 0.20685 0.87743 0.4456 0.0
O50 O 0.1957 0.87064 0.41851 0.0
O51 O 0.13506 0.83986 0.42392 0.0
Mg52 Mg 0.13742 0.89543 0.61738 0.0
C53 C 0.15016 0.95571 0.58726 0.0
O54 O 0.17796 0.94911 0.5948 0.0
C55 C 0.14627 0.83074 0.61441 0.0
O56 O 0.15253 0.83967 0.64238 0.0
C57 C 0.08211 0.91352 0.65241 0.0
O58 O 0.09156 0.94079 0.64558 0.0
O59 O 0.09864 0.89135 0.64621 0.0
O60 O 0.12929 0.93597 0.59108 0.0
O61 O 0.18102 0.90106 0.64062 0.0
C62 C 0.20324 0.89195 0.62561 0.0
O63 O 0.19793 0.88063 0.59832 0.0
O64 O 0.13854 0.85063 0.59557 0.0
Mg65 Mg 0.14706 0.14116 0.62715 0.0
C66 C 0.16259 0.20705 0.626 0.0
O67 O 0.17827 0.19805 0.64946 0.0
C68 C 0.12432 0.0825 0.59648 0.0
O69 O 0.10105 0.08783 0.61329 0.0
C70 C 0.09588 0.15916 0.66827 0.0
O71 O 0.11017 0.18541 0.66724 0.0
O72 O 0.1078 0.1363 0.65604 0.0
O73 O 0.14685 0.18746 0.61055 0.0
O74 O 0.1922 0.13532 0.64636 0.0
C75 C 0.21273 0.14284 0.62816 0.0
O76 O 0.2046 0.15388 0.60203 0.0
O77 O 0.14483 0.103 0.59478 0.0
Mg78 Mg 0.90653 0.15048 0.64987 0.0
C79 C 0.89972 0.21783 0.64421 0.0
O80 O 0.88009 0.21205 0.66511 0.0
C81 C 0.89294 0.08823 0.62936 0.0
O82 O 0.8821 0.09012 0.65658 0.0
C83 C 0.84031 0.14284 0.65719 0.0
O84 O 0.84365 0.1396 0.62796 0.0
O85 O 0.86376 0.1483 0.67388 0.0
O86 O 0.91286 0.19581 0.63168 0.0
O87 O 0.94887 0.14282 0.6746 0.0
C88 C 0.96666 0.16483 0.68217 0.0
O89 O 0.95644 0.1923 0.68093 0.0
O90 O 0.90498 0.11173 0.61822 0.0
Mg91 Mg 0.88844 0.90416 0.63981 0.0
C92 C 0.90471 0.96189 0.60674 0.0
O93 O 0.93218 0.95218 0.61066 0.0
C94 C 0.89474 0.83896 0.63351 0.0
O95 O 0.90193 0.8454 0.66189 0.0
C96 C 0.82488 0.89249 0.65514 0.0
O97 O 0.82658 0.88249 0.62714 0.0
O98 O 0.84891 0.90294 0.66837 0.0
O99 O 0.8826 0.94461 0.61339 0.0
O100 O 0.93299 0.9092 0.66227 0.0
C101 C 0.95394 0.89537 0.64914 0.0
O102 O 0.94747 0.87974 0.62425 0.0
O103 O 0.88716 0.86035 0.61644 0.0
Mg104 Mg 0.41808 0.16295 0.12997 0.0
C105 C 0.41328 0.22903 0.11813 0.0
O106 O 0.38659 0.21797 0.10958 0.0
C107 C 0.44803 0.10308 0.12014 0.0
O108 O 0.43019 0.1028 0.09606 0.0
C109 C 0.40626 0.16537 0.06449 0.0
O110 O 0.43064 0.18234 0.06952 0.0
O111 O 0.39378 0.15294 0.0868 0.0
O112 O 0.43277 0.21088 0.12832 0.0
O113 O 0.39524 0.15772 0.17309 0.0
C114 C 0.41417 0.15644 0.19518 0.0
O115 O 0.44296 0.15989 0.18958 0.0
O116 O 0.45135 0.12758 0.13556 0.0
Mg117 Mg 0.92658 0.45632 0.1461 0.0
C118 C 0.97855 0.42245 0.11634 0.0
O119 O 0.97017 0.43512 0.09114 0.0
C120 C 0.85911 0.45404 0.13983 0.0
O121 O 0.86526 0.48282 0.13602 0.0
C122 C 0.91728 0.4793 0.08368 0.0
O123 O 0.89858 0.4559 0.08433 0.0
O124 O 0.93177 0.4872 0.10797 0.0
O125 O 0.96288 0.42534 0.13971 0.0
O126 O 0.9362 0.46961 0.19398 0.0
C127 C 0.94557 0.44783 0.20987 0.0
O128 O 0.94753 0.42114 0.19683 0.0
O129 O 0.8809 0.43641 0.14433 0.0
Mg130 Mg 0.65971 0.93003 0.20243 0.0
C131 C 0.69194 0.98332 0.17362 0.0
O132 O 0.68316 0.96832 0.14892 0.0
C133 C 0.66857 0.86581 0.22213 0.0
O134 O 0.64787 0.87428 0.24093 0.0
C135 C 0.62823 0.90189 0.14667 0.0
O136 O 0.63163 0.87761 0.16268 0.0
O137 O 0.6341 0.9275 0.15933 0.0
O138 O 0.68841 0.9708 0.19889 0.0
O139 O 0.63592 0.93675 0.24463 0.0
C140 C 0.65038 0.95139 0.26571 0.0
O141 O 0.67681 0.96352 0.25978 0.0
O142 O 0.68029 0.88556 0.20514 0.0
Mg143 Mg 0.14691 0.66878 0.12976 0.0
C144 C 0.21319 0.66954 0.14075 0.0
O145 O 0.2044 0.64232 0.14842 0.0
C146 C 0.08934 0.70101 0.11149 0.0
O147 O 0.09441 0.68721 0.08572 0.0
C148 C 0.15114 0.66122 0.06332 0.0
O149 O 0.16077 0.68911 0.06885 0.0
O150 O 0.14358 0.64519 0.0856 0.0
O151 O 0.19311 0.68784 0.13232 0.0
O152 O 0.14336 0.6419 0.17065 0.0
C153 C 0.12002 0.64267 0.1868 0.0
O154 O 0.09604 0.65593 0.17616 0.0
O155 O 0.10907 0.69971 0.13278 0.0
Mg156 Mg 0.40215 0.8941 0.92942 0.0
C157 C 0.44741 0.94359 0.91357 0.0
O158 O 0.44371 0.93065 0.88676 0.0
C159 C 0.40181 0.82606 0.93612 0.0
O160 O 0.37713 0.83277 0.95024 0.0
C161 C 0.39013 0.88807 0.86301 0.0
O162 O 0.40725 0.86511 0.86874 0.0
O163 O 0.38162 0.90439 0.88507 0.0
O164 O 0.4359 0.93065 0.93605 0.0
O165 O 0.37473 0.89609 0.97006 0.0
C166 C 0.37545 0.91948 0.98731 0.0
O167 O 0.389 0.94411 0.97793 0.0
O168 O 0.4183 0.8476 0.92641 0.0
Mg169 Mg 0.18204 0.37401 0.90702 0.0
C170 C 0.24901 0.36837 0.91091 0.0
O171 O 0.23942 0.3401 0.91138 0.0
C172 C 0.12258 0.39563 0.91804 0.0
O173 O 0.12051 0.36602 0.91805 0.0
C174 C 0.16186 0.38081 0.84281 0.0
O175 O 0.16161 0.40827 0.85448 0.0
O176 O 0.16994 0.35944 0.85993 0.0
O177 O 0.22957 0.38892 0.90872 0.0
O178 O 0.17465 0.34519 0.94638 0.0
C179 C 0.19221 0.34909 0.9695 0.0
O180 O 0.21636 0.36651 0.9673 0.0
O181 O 0.14849 0.40805 0.91493 0.0
Mg182 Mg 0.66732 0.15514 0.94511 0.0
C183 C 0.69353 0.21374 0.97367 0.0
O184 O 0.67737 0.20466 0.99631 0.0
C185 C 0.68994 0.09031 0.93849 0.0
O186 O 0.68294 0.09462 0.90998 0.0
C187 C 0.65856 0.17356 0.87947 0.0
O188 O 0.67462 0.19695 0.88999 0.0
O189 O 0.65109 0.15295 0.89771 0.0
O190 O 0.69584 0.19612 0.95077 0.0
O191 O 0.63277 0.16221 0.97855 0.0
C192 C 0.6259 0.14154 0.9968 0.0
O193 O 0.63466 0.11403 0.99094 0.0
O194 O 0.68803 0.11234 0.95722 0.0
Mg195 Mg 0.89282 0.59561 0.86785 0.0
C196 C 0.95359 0.5681 0.85241 0.0
O197 O 0.94892 0.58305 0.82759 0.0
C198 C 0.82514 0.57552 0.85834 0.0
O199 O 0.83137 0.57301 0.82968 0.0
C200 C 0.88598 0.60101 0.80047 0.0
O201 O 0.88687 0.57166 0.80353 0.0
O202 O 0.88982 0.6179 0.82399 0.0
O203 O 0.93255 0.56661 0.87146 0.0
O204 O 0.90071 0.6246 0.90798 0.0
C205 C 0.90117 0.6091 0.93189 0.0
O206 O 0.89802 0.57964 0.92889 0.0
O207 O 0.84649 0.5805 0.87773 0.0
Mg208 Mg 0.16348 0.37781 0.15685 0.0
C209 C 0.22861 0.39477 0.16881 0.0
O210 O 0.22617 0.36844 0.18168 0.0
C211 C 0.10027 0.38172 0.13477 0.0
O212 O 0.10553 0.3529 0.13104 0.0
C213 C 0.16334 0.36049 0.0929 0.0
O214 O 0.15446 0.38846 0.09421 0.0
O215 O 0.16982 0.3474 0.11751 0.0
O216 O 0.20483 0.40608 0.15759 0.0
O217 O 0.15507 0.36268 0.20314 0.0
C218 C 0.14071 0.38168 0.21901 0.0
O219 O 0.13328 0.40711 0.20657 0.0
O220 O 0.12129 0.39939 0.14526 0.0
Mg221 Mg 0.14029 0.60495 0.87216 0.0
C222 C 0.12288 0.61545 0.809 0.0
O223 O 0.1216 0.58602 0.81175 0.0
C224 C 0.14441 0.61257 0.93939 0.0
O225 O 0.14886 0.58361 0.9353 0.0
C226 C 0.20615 0.61202 0.85846 0.0
O227 O 0.19495 0.63768 0.84993 0.0
O228 O 0.18791 0.59172 0.86796 0.0
O229 O 0.13072 0.63166 0.83215 0.0
O230 O 0.10144 0.57227 0.86945 0.0
C231 C 0.07941 0.57564 0.88707 0.0
O232 O 0.08296 0.59461 0.91011 0.0
O233 O 0.13957 0.62849 0.91622 0.0
Mg234 Mg 0.4249 0.12379 0.88208 0.0
C235 C 0.43312 0.18825 0.86175 0.0
O236 O 0.40933 0.17925 0.84543 0.0
C237 C 0.45617 0.07356 0.91511 0.0
O238 O 0.44512 0.0878 0.93843 0.0
C239 C 0.40732 0.08839 0.82415 0.0
O240 O 0.42407 0.06835 0.8373 0.0
O241 O 0.40171 0.11268 0.83871 0.0
O242 O 0.44601 0.16906 0.87843 0.0
O243 O 0.39824 0.12554 0.92311 0.0
C244 C 0.39256 0.15085 0.93547 0.0
O245 O 0.3972 0.17538 0.92001 0.0
O246 O 0.45476 0.08601 0.88953 0.0
Mg247 Mg 0.94165 0.46266 0.9017 0.0
C248 C 1.00774 0.45508 0.90654 0.0
O249 O 1.00551 0.48155 0.89407 0.0
C250 C 0.87681 0.44577 0.89327 0.0
O251 O 0.87912 0.47185 0.87994 0.0
C252 C 0.956 0.45162 0.83843 0.0
O253 O 0.96183 0.42673 0.85272 0.0
O254 O 0.94628 0.47389 0.8538 0.0
O255 O 0.9836 0.44071 0.91303 0.0
O256 O 0.93341 0.49443 0.93929 0.0
C257 C 0.95253 0.49848 0.96109 0.0
O258 O 0.9805 0.49087 0.95697 0.0
O259 O 0.90082 0.43423 0.90369 0.0
Mg260 Mg 0.65981 0.90252 0.95437 0.0
C261 C 0.68394 0.96517 0.97366 0.0
O262 O 0.66465 0.96036 0.99507 0.0
C263 C 0.65929 0.83529 0.9543 0.0
O264 O 0.63142 0.84224 0.96011 0.0
C265 C 0.65032 0.9199 0.89059 0.0
O266 O 0.67732 0.93097 0.8977 0.0
O267 O 0.63549 0.90629 0.91077 0.0
O268 O 0.68946 0.94343 0.9555 0.0
O269 O 0.63418 0.90474 0.99631 0.0
C270 C 0.64472 0.88966 1.01813 0.0
O271 O 0.6681 0.87283 1.01346 0.0
O272 O 0.67856 0.85684 0.95107 0.0
Mg273 Mg 0.90117 0.68169 0.11687 0.0
C274 C 0.96281 0.7079 0.13597 0.0
O275 O 0.95572 0.69466 0.16112 0.0
C276 C 0.83579 0.68404 0.10683 0.0
O277 O 0.84264 0.65726 0.09628 0.0
C278 C 0.90467 0.66759 0.05166 0.0
O279 O 0.9055 0.69722 0.05327 0.0
O280 O 0.90291 0.65317 0.07616 0.0
O281 O 0.94275 0.70919 0.11503 0.0
O282 O 0.89964 0.66016 0.16099 0.0
C283 C 0.8877 0.67638 0.18135 0.0
O284 O 0.87827 0.70312 0.17399 0.0
O285 O 0.85727 0.70243 0.1147 0.0
Mg286 Mg 0.41194 0.92544 0.16991 0.0
C287 C 0.36686 0.90988 0.11724 0.0
O288 O 0.366 0.883 0.12906 0.0
C289 C 0.41689 0.93246 0.23849 0.0
O290 O 0.44534 0.93148 0.23119 0.0
C291 C 0.44373 0.98684 0.17422 0.0
O292 O 0.42778 0.98826 0.1987 0.0
O293 O 0.44398 0.96197 0.15931 0.0
O294 O 0.37946 0.93164 0.1325 0.0
O295 O 0.42738 0.87922 0.163 0.0
C296 C 0.43161 0.86716 0.13711 0.0
O297 O 0.43087 0.88419 0.11326 0.0
O298 O 0.39685 0.93053 0.21725 0.0
Mg299 Mg 0.64795 0.16343 0.18481 0.0
C300 C 0.67431 0.22685 0.1695 0.0
O301 O 0.68219 0.21292 0.14459 0.0
C302 C 0.68822 0.113 0.16492 0.0
O303 O 0.67939 0.12253 0.13837 0.0
C304 C 0.61605 0.17407 0.12305 0.0
O305 O 0.61613 0.20239 0.13233 0.0
O306 O 0.62528 0.15423 0.14112 0.0
O307 O 0.6618 0.21146 0.18982 0.0
O308 O 0.62018 0.15554 0.22374 0.0
C309 C 0.62346 0.13249 0.24004 0.0
O310 O 0.63999 0.11047 0.23014 0.0
O311 O 0.68217 0.12882 0.18819 0.0
Mg312 Mg 0.65488 0.64149 0.91978 0.0
C313 C 0.67724 0.70702 0.92933 0.0
O314 O 0.69319 0.6993 0.906 0.0
C315 C 0.6742 0.59223 0.96197 0.0
O316 O 0.70006 0.60675 0.95884 0.0
C317 C 0.59389 0.62268 0.88647 0.0
O318 O 0.60145 0.59512 0.89307 0.0
O319 O 0.61247 0.64443 0.89301 0.0
O320 O 0.66042 0.68689 0.94112 0.0
O321 O 0.69625 0.63123 0.89605 0.0
C322 C 0.70151 0.60477 0.8861 0.0
O323 O 0.68002 0.58385 0.88642 0.0
O324 O 0.65053 0.60338 0.95033 0.0
Mg325 Mg 0.40165 0.63508 0.88326 0.0
C326 C 0.41094 0.70084 0.895 0.0
O327 O 0.41878 0.6966 0.8669 0.0
C328 C 0.41194 0.57176 0.88323 0.0
O329 O 0.40857 0.58003 0.85509 0.0
C330 C 0.33735 0.61189 0.87606 0.0
O331 O 0.34712 0.59902 0.90068 0.0
O332 O 0.35583 0.6288 0.86195 0.0
O333 O 0.40166 0.67801 0.90955 0.0
O334 O 0.44504 0.63642 0.85986 0.0
C335 C 0.4667 0.64502 0.87786 0.0
O336 O 0.46029 0.65429 0.9052 0.0
O337 O 0.40931 0.59178 0.90406 0.0
Mg338 Mg 0.44234 0.38071 0.89845 0.0
C339 C 0.43817 0.44518 0.90307 0.0
O340 O 0.44084 0.43478 0.93048 0.0
C341 C 0.45437 0.31694 0.88669 0.0
O342 O 0.46607 0.32342 0.91364 0.0
C343 C 0.3781 0.38775 0.9049 0.0
O344 O 0.38487 0.39856 0.87854 0.0
O345 O 0.39913 0.37704 0.92133 0.0
O346 O 0.4389 0.4263 0.88094 0.0
O347 O 0.4873 0.3848 0.91984 0.0
C348 C 0.50602 0.39373 0.90034 0.0
O349 O 0.4958 0.39841 0.87282 0.0
O350 O 0.44293 0.33834 0.87179 0.0
Mg351 Mg 0.6966 0.40563 0.95544 0.0
C352 C 0.67215 0.46343 0.984 0.0
O353 O 0.64629 0.44851 0.98062 0.0
C354 C 0.7105 0.34235 0.95742 0.0
O355 O 0.71155 0.35025 0.92909 0.0
C356 C 0.6353 0.41486 0.92137 0.0
O357 O 0.64782 0.43991 0.91174 0.0
O358 O 0.65101 0.39715 0.93699 0.0
O359 O 0.6964 0.44938 0.97968 0.0
O360 O 0.73421 0.41206 0.92483 0.0
C361 C 0.75989 0.4063 0.93657 0.0
O362 O 0.7609 0.39582 0.96404 0.0
O363 O 0.70499 0.36265 0.97721 0.0
Mg364 Mg 0.67074 0.42412 0.1774 0.0
C365 C 0.693 0.48231 0.20995 0.0
O366 O 0.71888 0.47231 0.20084 0.0
C367 C 0.67443 0.359 0.16971 0.0
O368 O 0.67611 0.37086 0.14289 0.0
C369 C 0.60509 0.42919 0.16894 0.0
O370 O 0.60968 0.43137 0.1983 0.0
O371 O 0.62788 0.42616 0.15232 0.0
O372 O 0.66976 0.46483 0.20707 0.0
O373 O 0.71198 0.43019 0.15178 0.0
C374 C 0.73518 0.4171 0.16207 0.0
O375 O 0.73207 0.39942 0.18522 0.0
O376 O 0.67153 0.37691 0.19235 0.0
Mg377 Mg 0.6604 0.67151 0.18879 0.0
C378 C 0.66639 0.73706 0.19329 0.0
O379 O 0.66412 0.72986 0.16442 0.0
C380 C 0.68796 0.6133 0.21152 0.0
O381 O 0.7122 0.6263 0.20074 0.0
C382 C 0.59313 0.6664 0.18542 0.0
O383 O 0.59878 0.66413 0.21448 0.0
O384 O 0.6153 0.66973 0.16797 0.0
O385 O 0.66438 0.71586 0.21223 0.0
O386 O 0.69678 0.67347 0.15631 0.0
C387 C 0.72097 0.68735 0.16539 0.0
O388 O 0.72239 0.69869 0.19302 0.0
O389 O 0.66386 0.62826 0.21232 0.0
Mg390 Mg 0.40723 0.67217 0.11975 0.0
C391 C 0.42014 0.73561 0.13083 0.0
O392 O 0.41826 0.72246 0.15701 0.0
C393 C 0.39226 0.61079 0.09137 0.0
O394 O 0.3683 0.6149 0.10758 0.0
C395 C 0.34266 0.68878 0.1262 0.0
O396 O 0.35188 0.70689 0.10509 0.0
O397 O 0.3617 0.67133 0.13822 0.0
O398 O 0.41613 0.71915 0.10701 0.0
O399 O 0.44635 0.66551 0.14951 0.0
C400 C 0.47035 0.66667 0.13431 0.0
O401 O 0.46761 0.67042 0.10506 0.0
O402 O 0.41093 0.63292 0.08884 0.0
Mg403 Mg 0.4136 0.42501 0.11961 0.0
C404 C 0.42631 0.48596 0.08942 0.0
O405 O 0.45309 0.48234 0.10178 0.0
C406 C 0.42664 0.36027 0.12139 0.0
O407 O 0.43734 0.37189 0.14709 0.0
C408 C 0.34929 0.43378 0.13548 0.0
O409 O 0.35102 0.44573 0.10874 0.0
O410 O 0.37332 0.42388 0.14771 0.0
O411 O 0.4068 0.46434 0.09042 0.0
O412 O 0.45847 0.43155 0.14112 0.0
C413 C 0.47999 0.42508 0.12378 0.0
O414 O 0.47312 0.41593 0.09602 0.0
O415 O 0.41442 0.3779 0.10252 0.0
Mg416 Mg 0.86912 0.64662 0.61323 0.0
C417 C 0.87735 0.71238 0.60072 0.0
O418 O 0.85265 0.70552 0.58487 0.0
C419 C 0.88489 0.58379 0.6144 0.0
O420 O 0.85625 0.58447 0.62108 0.0
C421 C 0.84324 0.62834 0.5511 0.0
O422 O 0.86313 0.60726 0.55455 0.0
O423 O 0.83828 0.64588 0.57349 0.0
O424 O 0.8909 0.69137 0.61415 0.0
O425 O 0.85362 0.63894 0.6591 0.0
C426 C 0.87018 0.65062 0.68048 0.0
O427 O 0.89149 0.67027 0.67379 0.0
O428 O 0.89845 0.60855 0.60849 0.0
Mg429 Mg 0.39232 0.92537 0.67258 0.0
C430 C 0.45092 0.89609 0.6536 0.0
O431 O 0.44644 0.91159 0.62908 0.0
C432 C 0.3261 0.91557 0.67071 0.0
O433 O 0.33006 0.93772 0.6907 0.0
C434 C 0.38209 0.96483 0.61787 0.0
O435 O 0.35406 0.95691 0.62316 0.0
O436 O 0.40242 0.95844 0.6374 0.0
O437 O 0.43049 0.89542 0.6732 0.0
O438 O 0.38863 0.93522 0.72137 0.0
C439 C 0.38242 0.91028 0.734 0.0
O440 O 0.37858 0.88612 0.71648 0.0
O441 O 0.34922 0.90412 0.65909 0.0
Mg442 Mg 0.1344 0.3976 0.64836 0.0
C443 C 0.09453 0.41935 0.59637 0.0
O444 O 0.1098 0.44464 0.60222 0.0
C445 C 0.14205 0.37282 0.71178 0.0
O446 O 0.15922 0.35481 0.69638 0.0
C447 C 0.16103 0.46018 0.66319 0.0
O448 O 0.15251 0.4522 0.69007 0.0
O449 O 0.15872 0.44074 0.64162 0.0
O450 O 0.09643 0.3982 0.6153 0.0
O451 O 0.15633 0.35607 0.63414 0.0
C452 C 0.13812 0.33459 0.62568 0.0
O453 O 0.10915 0.33978 0.62458 0.0
O454 O 0.12719 0.39255 0.69747 0.0
Mg455 Mg 0.65065 0.14907 0.68402 0.0
C456 C 0.71629 0.14323 0.69661 0.0
O457 O 0.70929 0.16608 0.71417 0.0
C458 C 0.5869 0.14056 0.67163 0.0
O459 O 0.5928 0.16974 0.67344 0.0
C460 C 0.65062 0.1557 0.62003 0.0
O461 O 0.65246 0.1269 0.62598 0.0
O462 O 0.6501 0.17445 0.64228 0.0
O463 O 0.69507 0.12883 0.68208 0.0
O464 O 0.64804 0.16998 0.72922 0.0
C465 C 0.64107 0.1513 0.74955 0.0
O466 O 0.63433 0.1233 0.74109 0.0
O467 O 0.60855 0.12284 0.67664 0.0
Mg468 Mg 0.95925 0.42709 0.40476 0.0
C469 C 0.95477 0.49372 0.41129 0.0
O470 O 0.98361 0.49024 0.40686 0.0
C471 C 0.94654 0.3613 0.41392 0.0
O472 O 0.9757 0.36447 0.41913 0.0
C473 C 0.95216 0.44392 0.34083 0.0
O474 O 0.92714 0.45197 0.35352 0.0
O475 O 0.97222 0.43147 0.35722 0.0
O476 O 0.93747 0.47038 0.41293 0.0
O477 O 0.99241 0.42059 0.44198 0.0
C478 C 0.99449 0.43796 0.46531 0.0
O479 O 0.98136 0.46407 0.46462 0.0
O480 O 0.93191 0.38463 0.40662 0.0
Mg481 Mg 0.6403 0.92566 0.45728 0.0
C482 C 0.70526 0.91698 0.4725 0.0
O483 O 0.69949 0.94255 0.48632 0.0
C484 C 0.57977 0.89128 0.47381 0.0
O485 O 0.58694 0.89708 0.50229 0.0
C486 C 0.62838 0.9329 0.3922 0.0
O487 O 0.61829 0.90556 0.39779 0.0
O488 O 0.63984 0.94897 0.41404 0.0
O489 O 0.68375 0.90287 0.45807 0.0
O490 O 0.64173 0.95251 0.49947 0.0
C491 C 0.62067 0.96234 0.5156 0.0
O492 O 0.5927 0.96016 0.50526 0.0
O493 O 0.59857 0.89797 0.45368 0.0
Mg494 Mg 0.12546 0.62752 0.38308 0.0
C495 C 0.1298 0.69505 0.38225 0.0
O496 O 0.10806 0.68903 0.3622 0.0
C497 C 0.15331 0.56682 0.37666 0.0
O498 O 0.13552 0.5667 0.35255 0.0
C499 C 0.13376 0.62602 0.31658 0.0
O500 O 0.1615 0.62672 0.32769 0.0
O501 O 0.11217 0.62569 0.335 0.0
O502 O 0.1431 0.67303 0.39428 0.0
O503 O 0.09148 0.61782 0.41673 0.0
C504 C 0.0834 0.63818 0.43531 0.0
O505 O 0.08964 0.66648 0.42938 0.0
O506 O 0.15606 0.59093 0.39274 0.0
Mg507 Mg 0.39247 0.13697 0.3891 0.0
C508 C 0.44795 0.17983 0.38873 0.0
O509 O 0.44608 0.17302 0.35977 0.0
C510 C 0.32649 0.13201 0.375 0.0
O511 O 0.33731 0.11006 0.35851 0.0
C512 C 0.3861 0.14557 0.32226 0.0
O513 O 0.36814 0.16591 0.33317 0.0
O514 O 0.40028 0.12886 0.34063 0.0
O515 O 0.42688 0.17056 0.40555 0.0
O516 O 0.39973 0.10084 0.42203 0.0
C517 C 0.37979 0.09552 0.44165 0.0
O518 O 0.35361 0.10832 0.43858 0.0
O519 O 0.34476 0.14847 0.39131 0.0
Mg520 Mg 0.63695 0.91452 0.69445 0.0
C521 C 0.65074 0.95529 0.64216 0.0
O522 O 0.67784 0.94511 0.64727 0.0
C523 C 0.63022 0.9071 0.76119 0.0
O524 O 0.62492 0.87942 0.75085 0.0
C525 C 0.70383 0.90664 0.70101 0.0
O526 O 0.69923 0.9273 0.72194 0.0
O527 O 0.68109 0.89537 0.68618 0.0
O528 O 0.63035 0.94946 0.661 0.0
O529 O 0.59725 0.8862 0.68246 0.0
C530 C 0.57342 0.89246 0.69639 0.0
O531 O 0.57539 0.9118 0.71923 0.0
O532 O 0.63561 0.92776 0.74236 0.0
Mg533 Mg 0.63361 0.18067 0.42598 0.0
C534 C 0.61584 0.16343 0.36565 0.0
O535 O 0.61461 0.1929 0.3685 0.0
C536 C 0.63973 0.18629 0.49253 0.0
O537 O 0.63991 0.21436 0.48372 0.0
C538 C 0.69646 0.17993 0.40317 0.0
O539 O 0.68539 0.15297 0.39572 0.0
O540 O 0.67909 0.19873 0.41575 0.0
O541 O 0.6238 0.1486 0.38868 0.0
O542 O 0.59202 0.20664 0.42277 0.0
C543 C 0.56971 0.19519 0.43652 0.0
O544 O 0.57501 0.17385 0.45586 0.0
O545 O 0.6372 0.16528 0.47242 0.0
Mg546 Mg 0.88198 0.66724 0.37619 0.0
C547 C 0.91297 0.73123 0.374 0.0
O548 O 0.92548 0.72073 0.34954 0.0
C549 C 0.91704 0.61798 0.4082 0.0
O550 O 0.90747 0.63111 0.43285 0.0
C551 C 0.8862 0.65033 0.30977 0.0
O552 O 0.90687 0.63313 0.32141 0.0
O553 O 0.87069 0.66632 0.32759 0.0
O554 O 0.89625 0.71373 0.38915 0.0
O555 O 0.84722 0.65349 0.40754 0.0
C556 C 0.84095 0.67068 0.42975 0.0
O557 O 0.84952 0.69923 0.42909 0.0
O558 O 0.91294 0.63042 0.38289 0.0
Mg559 Mg 0.39595 0.92593 0.43546 0.0
C560 C 0.45556 0.89332 0.43158 0.0
O561 O 0.45108 0.89826 0.40275 0.0
C562 C 0.33612 0.90233 0.45936 0.0
O563 O 0.34656 0.91664 0.48383 0.0
C564 C 0.38592 0.92981 0.36651 0.0
O565 O 0.36218 0.9131 0.37297 0.0
O566 O 0.40304 0.94005 0.38823 0.0
O567 O 0.43507 0.90029 0.44982 0.0
O568 O 0.39198 0.96011 0.47198 0.0
C569 C 0.41289 0.96409 0.49207 0.0
O570 O 0.4395 0.95325 0.48666 0.0
O571 O 0.35284 0.90078 0.43645 0.0
Mg572 Mg 0.12401 0.38826 0.41323 0.0
C573 C 0.12829 0.37127 0.34918 0.0
O574 O 0.15193 0.35988 0.36267 0.0
C575 C 0.08601 0.38409 0.47068 0.0
O576 O 0.08933 0.35512 0.46584 0.0
C577 C 0.15706 0.44831 0.42552 0.0
O578 O 0.14222 0.44719 0.45073 0.0
O579 O 0.15734 0.42475 0.40866 0.0
O580 O 0.10901 0.3844 0.36553 0.0
O581 O 0.14026 0.34355 0.42286 0.0
C582 C 0.12035 0.32279 0.41748 0.0
O583 O 0.09363 0.33037 0.40725 0.0
O584 O 0.09512 0.40239 0.45081 0.0
Mg585 Mg 0.39896 0.08865 0.62971 0.0
C586 C 0.41306 0.06995 0.56527 0.0
O587 O 0.43873 0.08359 0.57334 0.0
C588 C 0.39326 0.09015 0.6937 0.0
O589 O 0.39234 0.11783 0.68384 0.0
C590 C 0.46452 0.09475 0.64237 0.0
O591 O 0.45827 0.06614 0.64709 0.0
O592 O 0.44321 0.11137 0.63343 0.0
O593 O 0.39387 0.06483 0.58561 0.0
O594 O 0.35907 0.1165 0.62933 0.0
C595 C 0.33565 0.10237 0.63823 0.0
O596 O 0.33821 0.07422 0.64633 0.0
O597 O 0.39615 0.06867 0.67441 0.0
Mg598 Mg 0.95824 0.40887 0.6455 0.0
C599 C 0.94495 0.4694 0.62505 0.0
O600 O 0.97448 0.46919 0.62742 0.0
C601 C 0.95007 0.34064 0.64049 0.0
O602 O 0.97946 0.34353 0.63827 0.0
C603 C 0.98401 0.39638 0.58525 0.0
O604 O 0.95967 0.37889 0.58505 0.0
O605 O 0.99185 0.41034 0.60978 0.0
O606 O 0.93005 0.44543 0.63111 0.0
O607 O 0.97107 0.42084 0.69311 0.0
C608 C 0.95734 0.4419 0.70685 0.0
O609 O 0.93708 0.4569 0.69177 0.0
O610 O 0.93486 0.36441 0.64383 0.0
Mg611 Mg 0.12088 0.6391 0.61961 0.0
C612 C 0.08945 0.614 0.5621 0.0
O613 O 0.10533 0.59044 0.569 0.0
C614 C 0.11386 0.65603 0.6854 0.0
O615 O 0.13337 0.67699 0.67752 0.0
C616 C 0.13701 0.7005 0.59367 0.0
O617 O 0.12013 0.68931 0.57121 0.0
O618 O 0.1436 0.68345 0.61556 0.0
O619 O 0.08892 0.6359 0.58111 0.0
O620 O 0.1477 0.59812 0.619 0.0
C621 C 0.1593 0.58913 0.64368 0.0
O622 O 0.15959 0.60756 0.66726 0.0
O623 O 0.10215 0.63844 0.66489 0.0
C624 C 0.13378 1.00322 0.44393 0.0
C625 C 0.1356 0.97739 0.42501 0.0
C626 C 0.13186 0.03219 0.43212 0.0
C627 C 0.13171 0.0367 0.40084 0.0
H628 H 0.13397 1.00118 0.46822 0.0
H629 H 0.13079 0.05122 0.44775 0.0
S630 S 0.13505 0.97654 0.34131 0.0
N631 N 0.13644 0.95823 0.37327 0.0
N632 N 0.13281 1.01253 0.35099 0.0
C633 C 0.13311 1.01102 0.38158 0.0
C634 C 0.13504 0.98146 0.39365 0.0
C635 C 1.02611 0.12754 0.34492 0.0
C636 C 0.04141 0.15578 0.34663 0.0
C637 C 0.99462 0.12511 0.347 0.0
C638 C 0.97692 0.15077 0.35072 0.0
H639 H 0.03863 0.10694 0.34381 0.0
H640 H 0.98426 0.10273 0.34736 0.0
S641 S 1.00526 0.23034 0.35171 0.0
N642 N 0.03584 0.21028 0.3485 0.0
N643 N 0.97685 0.20561 0.35245 0.0
C644 C 0.9916 0.17927 0.34978 0.0
C645 C 1.02375 0.18178 0.34775 0.0
C646 C 0.88731 1.01919 0.40832 0.0
C647 C 0.89643 1.01288 0.43805 0.0
C648 C 0.88337 0.04897 0.39904 0.0
C649 C 0.88873 0.074 0.4189 0.0
H650 H 0.88257 1.00093 0.39212 0.0
H651 H 0.87609 0.05231 0.37589 0.0
S652 S 0.91428 0.07005 0.49901 0.0
N653 N 0.91151 0.03446 0.48731 0.0
N654 N 0.90448 0.09025 0.46967 0.0
C655 C 0.89846 0.06809 0.44857 0.0
C656 C 0.90218 0.03767 0.45816 0.0
C657 C 0.99557 0.87827 0.48215 0.0
C658 C 0.99116 0.90959 0.48291 0.0
C659 C 1.02467 0.86659 0.48235 0.0
C660 C 0.05056 0.88569 0.48386 0.0
H661 H 0.97652 0.86262 0.47913 0.0
H662 H 1.02684 0.84242 0.47963 0.0
S663 S 0.05116 0.96925 0.49202 0.0
N664 N 1.01505 0.95935 0.48927 0.0
N665 N 0.06963 0.93748 0.49031 0.0
C666 C 0.0464 0.91693 0.48765 0.0
C667 C 1.01675 0.92884 0.48697 0.0
C668 C 0.1132 0.99759 0.58706 0.0
C669 C 0.14256 0.98775 0.58191 0.0
C670 C 0.10702 1.02843 0.58938 0.0
C671 C 0.12985 0.05081 0.58641 0.0
H672 H 0.09517 0.98144 0.59136 0.0
H673 H 0.08446 0.03468 0.59524 0.0
S674 S 0.20922 0.03697 0.56671 0.0
N675 N 0.19372 1.00292 0.56945 0.0
N676 N 0.18213 0.06075 0.5736 0.0
C677 C 0.15864 0.04129 0.5783 0.0
C678 C 0.16497 1.00983 0.57614 0.0
C679 C 1.0191 0.18576 0.69154 0.0
C680 C 0.99985 0.16057 0.68507 0.0
C681 C 0.05035 0.18441 0.68806 0.0
C682 C 0.06388 0.15781 0.6779 0.0
H683 H 1.00987 0.20728 0.69789 0.0
H684 H 0.06376 0.20496 0.69193 0.0
S685 S 1.02424 0.08398 0.66257 0.0
N686 N 0.99715 0.10704 0.67157 0.0
N687 N 0.05582 0.1045 0.6651 0.0
C688 C 0.04523 0.13172 0.67379 0.0
C689 C 1.01329 0.13309 0.67736 0.0
C690 C 0.86953 0.03771 0.61829 0.0
C691 C 0.89389 0.05807 0.61462 0.0
C692 C 0.8723 1.00675 0.61257 0.0
C693 C 0.89985 0.99479 0.60365 0.0
H694 H 0.84868 0.04556 0.62747 0.0
H695 H 0.85335 0.99197 0.61757 0.0
S696 S 0.96897 0.03939 0.58605 0.0
N697 N 0.9451 0.06487 0.59758 0.0
N698 N 0.9507 1.0065 0.58726 0.0
C699 C 0.92354 1.0153 0.59719 0.0
C700 C 0.92048 0.047 0.60259 0.0
C701 C 0.03055 0.9326 0.66287 0.0
C702 C 0.04989 0.90803 0.6598 0.0
C703 C 0.99905 0.92827 0.66245 0.0
C704 C 0.98589 0.89926 0.6587 0.0
H705 H 0.03965 0.95551 0.6637 0.0
H706 H 0.98501 0.94787 0.6626 0.0
S707 S 1.02583 0.82707 0.65544 0.0
N708 N 0.05303 0.85321 0.65763 0.0
N709 N 0.99401 0.84546 0.65599 0.0
C710 C 1.00478 0.87443 0.65831 0.0
C711 C 0.03676 0.8787 0.65917 0.0
C712 C 0.39438 0.18587 1.01417 0.0
C713 C 0.39508 0.16082 0.03297 0.0
C714 C 0.39085 0.18235 0.98281 0.0
C715 C 0.38866 0.15353 0.96876 0.0
H716 H 0.39801 0.20843 1.0237 0.0
H717 H 0.39182 0.20248 0.96945 0.0
S718 S 0.38627 0.08061 1.00847 0.0
N719 N 0.39053 0.10634 0.03587 0.0
N720 N 0.38454 0.09941 0.97675 0.0
C721 C 0.3873 0.12827 0.98756 0.0
C722 C 0.39039 0.13199 1.0197 0.0
C723 C 0.91243 0.49194 0.99941 0.0
C724 C 0.94189 0.50167 0.99263 0.0
C725 C 0.90412 0.48694 0.02927 0.0
C726 C 0.92471 0.49182 0.05373 0.0
H727 H 0.89619 0.48606 0.98146 0.0
H728 H 0.88173 0.4777 0.03305 0.0
S729 S 1.00303 0.5222 0.04862 0.0
N730 N 0.99057 0.51959 1.01323 0.0
N731 N 0.97479 0.51053 0.06931 0.0
C732 C 0.95335 0.50416 0.04753 0.0
C733 C 0.96196 0.50896 1.01702 0.0
C734 C 0.63496 0.86765 0.06814 0.0
C735 C 0.63357 0.89266 0.0493 0.0
C736 C 0.63076 0.87057 0.09926 0.0
C737 C 0.62568 0.89883 0.11311 0.0
H738 H 0.6406 0.84575 0.05893 0.0
H739 H 0.63341 0.85069 0.11272 0.0
S740 S 0.61703 0.97099 0.07325 0.0
N741 N 0.6239 0.94615 0.04616 0.0
N742 N 0.61685 0.95198 0.10487 0.0
C743 C 0.62242 0.92377 0.09423 0.0
C744 C 0.62614 0.92061 0.06229 0.0
C745 C 0.14487 0.60664 0.99562 0.0
C746 C 0.14503 0.62581 0.97064 0.0
C747 C 0.14633 0.61817 1.02542 0.0
C748 C 0.14842 0.6494 0.03158 0.0
H749 H 0.14364 0.58238 0.99222 0.0
H750 H 0.14634 0.60243 0.04374 0.0
S751 S 0.14859 0.70951 0.97442 0.0
N752 N 0.14653 0.67775 0.95428 0.0
N753 N 0.14954 0.69944 1.01002 0.0
C754 C 0.14823 0.66888 1.00683 0.0
C755 C 0.14645 0.65712 0.97648 0.0
C756 C 0.36937 0.94073 0.07046 0.0
C757 C 0.36201 0.91311 0.08395 0.0
C758 C 0.3717 0.94292 0.03907 0.0
C759 C 0.36677 0.91763 1.0196 0.0
H760 H 0.37503 0.9606 0.0843 0.0
H761 H 0.37893 0.96442 0.03021 0.0
S762 S 0.34174 0.84118 0.04282 0.0
N763 N 0.34594 0.86071 0.07483 0.0
N764 N 0.35034 0.86486 1.01597 0.0
C765 C 0.35697 0.89044 0.03253 0.0
C766 C 0.35457 0.88819 0.0646 0.0
C767 C 0.20434 0.33733 1.02329 0.0
C768 C 0.1824 0.34158 1.00029 0.0
C769 C 0.19723 0.33967 0.05399 0.0
C770 C 0.16805 0.34688 0.06268 0.0
H771 H 0.22765 0.33438 1.01753 0.0
H772 H 0.21528 0.33874 0.07083 0.0
S773 S 0.10172 0.35667 1.01169 0.0
N774 N 0.12953 0.34988 0.9887 0.0
N775 N 0.11652 0.35528 0.04616 0.0
C776 C 0.14547 0.34871 0.04003 0.0
C777 C 0.15252 0.34571 1.00887 0.0
C778 C 0.61411 0.13556 0.08079 0.0
C779 C 0.61152 0.16583 0.09043 0.0
C780 C 0.61625 0.12764 0.05016 0.0
C781 C 0.61599 0.14965 1.02774 0.0
H782 H 0.61613 0.11786 0.0971 0.0
H783 H 0.61996 0.10422 0.0443 0.0
S784 S 0.60402 0.23147 0.04041 0.0
N785 N 0.60459 0.21745 0.07458 0.0
N786 N 0.60856 0.20256 1.01707 0.0
C787 C 0.61065 0.17965 0.0368 0.0
C788 C 0.60844 0.18774 0.06809 0.0
C789 C 0.90425 0.65505 0.96628 0.0
C790 C 0.90348 0.62346 0.96266 0.0
C791 C 0.90497 0.66895 0.99507 0.0
C792 C 0.9049 0.65192 1.02157 0.0
H793 H 0.90394 0.66925 0.94673 0.0
H794 H 0.90525 0.69337 0.99644 0.0
S795 S 0.90421 0.56844 1.02482 0.0
N796 N 0.90367 0.57545 0.98843 0.0
N797 N 0.90485 0.60168 0.04224 0.0
C798 C 0.90464 0.62033 1.01834 0.0
C799 C 0.90398 0.60611 0.98902 0.0
C800 C 0.05761 0.41437 0.14808 0.0
C801 C 0.06971 0.39269 0.12864 0.0
C802 C 1.02781 0.42338 0.14411 0.0
C803 C 1.00944 0.4117 0.12005 0.0
H804 H 0.07097 0.4238 0.16697 0.0
H805 H 1.01918 0.43989 0.15981 0.0
S806 S 0.03066 0.35517 0.06241 0.0
N807 N 0.06101 0.35968 0.08456 0.0
N808 N 1.00545 0.37808 0.0762 0.0
C809 C 1.02142 0.39064 0.10004 0.0
C810 C 0.05146 0.38071 0.10462 0.0
C811 C 1.02549 0.56537 0.9002 0.0
C812 C 0.04813 0.56468 0.87844 0.0
C813 C 0.99469 0.56331 0.89188 0.0
C814 C 0.9852 0.5609 0.86137 0.0
H815 H 0.03153 0.56943 0.92378 0.0
H816 H 0.97832 0.5661 0.90936 0.0
S817 S 0.0351 0.55181 0.79608 0.0
N818 N 0.05861 0.55638 0.82539 0.0
N819 N 1.00091 0.55304 0.80977 0.0
C820 C 1.00753 0.55712 0.83969 0.0
C821 C 0.03892 0.55883 0.8482 0.0
C822 C 0.46331 0.99194 0.88962 0.0
C823 C 0.45741 0.97596 0.91604 0.0
C824 C 0.46556 1.02356 0.88996 0.0
C825 C 0.46191 0.04063 0.91671 0.0
H826 H 0.46434 0.98014 0.86805 0.0
H827 H 0.46825 0.03465 0.86865 0.0
S828 S 0.4527 1.00959 0.99319 0.0
N829 N 0.45297 0.97954 0.97058 0.0
N830 N 0.45705 0.03885 0.97121 0.0
C831 C 0.45911 1.02485 0.9438 0.0
C832 C 0.45688 0.99258 0.94346 0.0
C833 C 0.06733 0.39839 0.92601 0.0
C834 C 0.09449 0.41306 0.91827 0.0
C835 C 0.0396 0.41245 0.92294 0.0
C836 C 0.03776 0.44182 0.9119 0.0
H837 H 0.0673 0.37546 0.93393 0.0
H838 H 1.0194 0.3998 0.92859 0.0
S839 S 0.10252 0.49117 0.89068 0.0
N840 N 0.11802 0.45939 0.90077 0.0
N841 N 0.06594 0.48599 0.89503 0.0
C842 C 0.06489 0.45732 0.90525 0.0
C843 C 0.09323 0.44294 0.90847 0.0
C844 C 0.69819 0.03527 0.92785 0.0
C845 C 0.69471 0.05898 0.94909 0.0
C846 C 0.69728 1.0049 0.93635 0.0
C847 C 0.69245 0.9969 0.96642 0.0
H848 H 0.70032 0.04006 0.90415 0.0
H849 H 0.69842 0.98762 0.91883 0.0
S850 S 0.6864 0.05016 0.03164 0.0
N851 N 0.68987 0.07215 1.00231 0.0
N852 N 0.68758 1.01527 1.01806 0.0
C853 C 0.69109 1.02037 0.98823 0.0
C854 C 0.69239 0.05132 0.97965 0.0
C855 C 0.04785 0.71101 0.14748 0.0
C856 C 0.05825 0.71082 0.11776 0.0
C857 C 1.01697 0.71245 0.15333 0.0
C858 C 0.99523 0.71413 0.12974 0.0
H859 H 0.06337 0.70791 0.16632 0.0
H860 H 1.01003 0.71051 0.17646 0.0
S861 S 1.01138 0.72074 0.04834 0.0
N862 N 0.04479 0.71708 0.06483 0.0
N863 N 0.98693 0.72014 0.07576 0.0
C864 C 1.00563 0.7171 0.10018 0.0
C865 C 0.03707 0.71533 0.09421 0.0
C866 C 0.45239 0.04696 0.11565 0.0
C867 C 0.45608 0.07364 0.13342 0.0
C868 C 0.45141 1.01843 0.12878 0.0
C869 C 0.45376 1.01545 0.16027 0.0
H870 H 0.44822 0.04817 0.09154 0.0
H871 H 0.44631 0.99886 0.11432 0.0
S872 S 0.46998 0.0773 0.2164 0.0
N873 N 0.46711 0.09453 0.18387 0.0
N874 N 0.46463 0.041 0.20842 0.0
C875 C 0.46042 0.04157 0.17799 0.0
C876 C 0.46182 0.07063 0.16461 0.0
C877 C 0.69703 0.06199 0.14195 0.0
C878 C 0.69703 0.08091 0.1679 0.0
C879 C 0.6978 0.03052 0.14406 0.0
C880 C 0.69865 1.01644 0.17222 0.0
H881 H 0.69455 0.07134 0.1197 0.0
H882 H 0.69593 1.01713 0.12334 0.0
S883 S 0.70551 0.05586 0.24698 0.0
N884 N 0.70288 0.08334 0.22263 0.0
N885 N 0.70419 1.02423 0.2266 0.0
C886 C 0.70169 0.03516 0.19829 0.0
C887 C 0.70093 0.06734 0.19614 0.0
C888 C 0.64592 0.51249 0.97805 0.0
C889 C 0.6726 0.49713 0.98472 0.0
C890 C 0.64638 0.54355 0.97245 0.0
C891 C 0.67352 0.56077 0.97344 0.0
H892 H 0.62457 0.50019 0.97546 0.0
H893 H 0.62539 0.55379 0.96592 0.0
S894 S 0.74905 0.53248 0.99482 0.0
N895 N 0.72646 0.50235 0.99551 0.0
N896 N 0.7274 0.5606 0.98533 0.0
C897 C 0.70005 0.54616 0.98239 0.0
C898 C 0.69958 0.51444 0.98793 0.0
C899 C 0.55097 0.65824 0.88196 0.0
C900 C 0.56207 0.62908 0.87722 0.0
C901 C 0.52001 0.66378 0.87944 0.0
C902 C 0.49888 0.64068 0.87123 0.0
H903 H 0.56599 0.67661 0.88969 0.0
H904 H 0.51236 0.68603 0.88559 0.0
S905 S 0.51604 0.56122 0.85279 0.0
N906 N 0.54928 0.5773 0.86131 0.0
N907 N 0.49124 0.58812 0.85605 0.0
C908 C 0.50972 0.61202 0.8641 0.0
C909 C 0.54126 0.60613 0.86721 0.0
C910 C 0.42709 0.48861 0.86961 0.0
C911 C 0.43247 0.47776 0.89871 0.0
C912 C 0.42052 0.51893 0.86508 0.0
C913 C 0.41896 0.53983 0.88942 0.0
H914 H 0.42772 0.47354 0.8501 0.0
H915 H 0.4165 0.52592 0.84212 0.0
S916 S 0.43193 0.5233 0.97025 0.0
N917 N 0.43634 0.4907 0.95247 0.0
N918 N 0.4239 0.54754 0.94373 0.0
C919 C 0.42452 0.52942 0.91865 0.0
C920 C 0.4313 0.49848 0.92333 0.0
C921 C 0.55573 0.41747 0.88816 0.0
C922 C 0.53866 0.39914 0.90734 0.0
C923 C 0.58683 0.42237 0.89289 0.0
C924 C 0.60238 0.40875 0.9167 0.0
H925 H 0.54498 0.42832 0.86924 0.0
H926 H 0.5988 0.43675 0.87751 0.0
S927 S 0.56825 0.35928 0.97397 0.0
N928 N 0.5396 0.36785 0.95159 0.0
N929 N 0.59817 0.37662 0.96034 0.0
C930 C 0.58562 0.39044 0.93622 0.0
C931 C 0.55376 0.3858 0.93163 0.0
C932 C 0.71558 0.56537 0.21886 0.0
C933 C 0.68795 0.5802 0.21743 0.0
C934 C 0.71678 0.53378 0.21866 0.0
C935 C 0.69041 0.51533 0.21688 0.0
H936 H 0.73667 0.57822 0.21885 0.0
H937 H 0.73877 0.52378 0.21845 0.0
S938 S 0.61205 0.54273 0.21639 0.0
N939 N 0.63333 0.57387 0.21715 0.0
N940 N 0.63558 0.51452 0.21663 0.0
C941 C 0.66252 0.52982 0.21759 0.0
C942 C 0.6613 0.56217 0.21789 0.0
C943 C 0.55586 0.66712 0.14205 0.0
C944 C 0.56147 0.66552 0.1733 0.0
C945 C 0.52641 0.667 0.12993 0.0
C946 C 0.50108 0.66535 0.14844 0.0
H947 H 0.57438 0.66864 0.12667 0.0
H948 H 0.52362 0.66849 0.10568 0.0
S949 S 0.50313 0.66005 0.23182 0.0
N950 N 0.53893 0.66162 0.22266 0.0
N951 N 0.48363 0.66152 0.19973 0.0
C952 C 0.50624 0.66336 0.17973 0.0
C953 C 0.53636 0.66342 0.19216 0.0
C954 C 0.38679 0.52521 0.08467 0.0
C955 C 0.41703 0.51707 0.08184 0.0
C956 C 0.37867 0.55564 0.08531 0.0
C957 C 0.40035 0.57926 0.08289 0.0
H958 H 0.3695 0.50816 0.08859 0.0
H959 H 0.35538 0.56067 0.08946 0.0
S960 S 0.48173 0.56968 0.06914 0.0
N961 N 0.46807 0.53493 0.07223 0.0
N962 N 0.45283 0.59193 0.07322 0.0
C963 C 0.43018 0.57127 0.0771 0.0
C964 C 0.43849 0.54026 0.07668 0.0
C965 C 0.5495 0.43422 0.17567 0.0
C966 C 0.57366 0.42926 0.15626 0.0
C967 C 0.51946 0.43327 0.16498 0.0
C968 C 0.51214 0.42721 0.13438 0.0
H969 H 0.55371 0.43868 0.19953 0.0
H970 H 0.50182 0.43694 0.18098 0.0
S971 S 0.56696 0.41367 0.07376 0.0
N972 N 0.58813 0.41885 0.10466 0.0
N973 N 0.53186 0.41704 0.08448 0.0
C974 C 0.53611 0.42268 0.11456 0.0
C975 C 0.56675 0.42372 0.12549 0.0
C976 C 0.82681 0.67696 0.48385 0.0
C977 C 0.83276 0.65756 0.45923 0.0
C978 C 0.82718 0.66666 0.51357 0.0
C979 C 0.83386 0.63658 0.51993 0.0
H980 H 0.82378 0.7008 0.48039 0.0
H981 H 0.82454 0.683 0.53174 0.0
S982 S 0.84479 0.57516 0.46334 0.0
N983 N 0.8405 0.60557 0.44306 0.0
N984 N 0.84169 0.58643 0.49882 0.0
C985 C 0.83673 0.61628 0.49536 0.0
C986 C 0.83602 0.62669 0.46505 0.0
C987 C 0.42053 0.97135 0.57754 0.0
C988 C 0.39043 0.97312 0.58655 0.0
C989 C 0.4279 0.97118 0.54688 0.0
C990 C 0.40554 0.97281 0.52382 0.0
H991 H 0.4384 0.96795 0.59409 0.0
H992 H 0.45118 0.96773 0.54128 0.0
S993 S 0.32412 0.98444 0.53558 0.0
N994 N 0.33872 0.9816 0.56996 0.0
N995 N 0.3526 0.98141 0.5126 0.0
C996 C 0.37583 0.97794 0.53266 0.0
C997 C 0.36829 0.97803 0.56391 0.0
C998 C 0.08806 0.42478 0.51115 0.0
C999 C 0.07963 0.39513 0.50189 0.0
C1000 C 0.09012 0.43326 0.54187 0.0
C1001 C 0.0838 0.41248 0.56466 0.0
H1002 H 0.09522 0.44106 0.49477 0.0
H1003 H 0.09871 0.45577 0.54771 0.0
S1004 S 0.05287 0.33451 0.55202 0.0
N1005 N 0.05915 0.34675 0.5178 0.0
N1006 N 0.06294 0.36272 0.57534 0.0
C1007 C 0.07191 0.38389 0.55553 0.0
C1008 C 0.06985 0.37522 0.52423 0.0
C1009 C 0.64766 0.14233 0.5649 0.0
C1010 C 0.64817 0.16483 0.58793 0.0
C1011 C 0.64486 0.14946 0.53434 0.0
C1012 C 0.64253 0.17947 0.52526 0.0
H1013 H 0.64933 0.11876 0.57039 0.0
H1014 H 0.64459 0.13119 0.51772 0.0
S1015 S 0.64261 0.24709 0.57647 0.0
N1016 N 0.64601 0.21851 0.59942 0.0
N1017 N 0.64085 0.23211 0.54204 0.0
C1018 C 0.64306 0.20232 0.54802 0.0
C1019 C 0.64585 0.19498 0.57927 0.0
C1020 C 0.99431 0.39511 0.50098 0.0
C1021 C 1.00203 0.42539 0.4953 0.0
C1022 C 0.99135 0.38512 0.5306 0.0
C1023 C 0.99656 0.40478 0.55569 0.0
H1024 H 0.98778 0.37968 0.48257 0.0
H1025 H 0.98293 0.36228 0.53377 0.0
S1026 S 1.02454 0.48421 0.55286 0.0
N1027 N 1.01985 0.47354 0.5171 0.0
N1028 N 1.01512 0.45451 0.57275 0.0
C1029 C 1.00794 0.43403 0.55032 0.0
C1030 C 1.01044 0.44438 0.52011 0.0
C1031 C 0.6122 0.96184 0.60049 0.0
C1032 C 0.64228 0.96526 0.6113 0.0
C1033 C 0.60487 0.96352 0.56956 0.0
C1034 C 0.62731 0.96868 0.54824 0.0
H1035 H 0.59444 0.95564 0.61565 0.0
H1036 H 0.58179 0.95852 0.5622 0.0
S1037 S 0.70831 0.98579 0.56555 0.0
N1038 N 0.69378 0.97891 0.59867 0.0
N1039 N 0.68 0.98217 0.54077 0.0
C1040 C 0.65691 0.97513 0.55912 0.0
C1041 C 0.66438 0.9734 0.59056 0.0
C1042 C 0.08498 0.59547 0.50831 0.0
C1043 C 0.07944 0.61813 0.5301 0.0
C1044 C 0.08334 0.60123 0.47733 0.0
C1045 C 0.07623 0.62998 0.4668 0.0
H1046 H 0.09261 0.5736 0.51517 0.0
H1047 H 0.08996 0.58362 0.46174 0.0
S1048 S 0.05271 0.69493 0.51403 0.0
N1049 N 0.06105 0.66877 0.53855 0.0
N1050 N 0.05841 0.67969 0.48044 0.0
C1051 C 0.06743 0.65179 0.48815 0.0
C1052 C 0.0689 0.64585 0.51974 0.0
C1053 C 0.42617 0.07333 0.51063 0.0
C1054 C 0.40414 0.06832 0.53249 0.0
C1055 C 0.41823 0.07959 0.48053 0.0
C1056 C 0.38785 0.08131 0.47098 0.0
H1057 H 0.44986 0.07419 0.51718 0.0
H1058 H 0.43608 0.08515 0.46525 0.0
S1059 S 0.32138 0.06496 0.51782 0.0
N1060 N 0.35055 0.06163 0.54123 0.0
N1061 N 0.33564 0.07329 0.48493 0.0
C1062 C 0.36564 0.07361 0.4919 0.0
C1063 C 0.37375 0.0671 0.52253 0.0
C1064 C 0.48905 0.88161 0.69281 0.0
C1065 C 0.48191 0.88684 0.66225 0.0
C1066 C 0.51904 0.88078 0.7033 0.0
C1067 C 0.5431 0.88438 0.6836 0.0
H1068 H 0.47149 0.88046 0.70929 0.0
H1069 H 0.52345 0.87912 0.72734 0.0
S1070 S 0.53683 0.89337 0.60077 0.0
N1071 N 0.50157 0.89177 0.61179 0.0
N1072 N 0.55794 0.88967 0.63159 0.0
C1073 C 0.53638 0.88653 0.65259 0.0
C1074 C 0.50577 0.88787 0.64189 0.0
C1075 C 0.48458 0.18555 0.43273 0.0
C1076 C 0.47732 0.19127 0.40234 0.0
C1077 C 0.51423 0.18938 0.44426 0.0
C1078 C 0.5379 0.19944 0.42607 0.0
H1079 H 0.46773 0.17603 0.44727 0.0
H1080 H 0.51893 0.18274 0.46723 0.0
S1081 S 0.52978 0.223 0.34655 0.0
N1082 N 0.49552 0.21149 0.35542 0.0
N1083 N 0.55107 0.21898 0.37719 0.0
C1084 C 0.53041 0.20804 0.39651 0.0
C1085 C 0.5002 0.20383 0.38463 0.0
C1086 C 0.94772 0.57699 0.43059 0.0
C1087 C 0.92635 0.58622 0.40902 0.0
C1088 C 0.95641 0.54675 0.43161 0.0
C1089 C 0.94299 0.52456 0.41204 0.0
H1090 H 0.95829 0.59336 0.44628 0.0
H1091 H 0.97377 0.54067 0.4478 0.0
S1092 S 0.88472 0.53683 0.35265 0.0
N1093 N 0.89153 0.57065 0.36805 0.0
N1094 N 0.90684 0.51375 0.37102 0.0
C1095 C 0.92092 0.53334 0.39108 0.0
C1096 C 0.91283 0.56421 0.38932 0.0
C1097 C 0.49426 0.89171 0.47385 0.0
C1098 C 0.48623 0.886 0.44326 0.0
C1099 C 0.52442 0.89102 0.48417 0.0
C1100 C 0.54779 0.88456 0.46433 0.0
H1101 H 0.47744 0.89856 0.48969 0.0
H1102 H 0.52956 0.89749 0.50747 0.0
S1103 S 0.53802 0.86163 0.38355 0.0
N1104 N 0.50364 0.86908 0.39433 0.0
N1105 N 0.56012 0.86765 0.41369 0.0
C1106 C 0.5397 0.87608 0.43435 0.0
C1107 C 0.50901 0.87684 0.42383 0.0
C1108 C 0.16424 0.53331 0.42008 0.0
C1109 C 0.16298 0.53755 0.38873 0.0
C1110 C 0.16501 0.50424 0.43197 0.0
C1111 C 0.16492 0.47833 0.413 0.0
H1112 H 0.16219 0.55232 0.43557 0.0
H1113 H 0.16373 0.50204 0.45619 0.0
S1114 S 0.16778 0.4778 0.3293 0.0
N1115 N 0.16602 0.51384 0.33904 0.0
N1116 N 0.168 0.45935 0.36121 0.0
C1117 C 0.16689 0.48254 0.38168 0.0
C1118 C 0.16572 0.51211 0.3696 0.0
C1119 C 0.5185 0.08764 0.65836 0.0
C1120 C 0.49569 0.10704 0.64863 0.0
C1121 C 0.5479 0.09849 0.6655 0.0
C1122 C 0.55578 0.12926 0.66337 0.0
H1123 H 0.51365 0.06376 0.66072 0.0
H1124 H 0.56446 0.08263 0.67304 0.0
S1125 S 0.50484 0.18948 0.63789 0.0
N1126 N 0.48341 0.1585 0.63648 0.0
N1127 N 0.53837 0.17896 0.64982 0.0
C1128 C 0.53329 0.14889 0.65327 0.0
C1129 C 0.50338 0.13779 0.64592 0.0
C1130 C 0.89913 0.50088 0.62642 0.0
C1131 C 0.92962 0.49811 0.61944 0.0
C1132 C 0.88492 0.52856 0.62419 0.0
C1133 C 0.90054 0.55465 0.61477 0.0
H1134 H 0.88627 0.48175 0.63453 0.0
H1135 H 0.86156 0.52952 0.63053 0.0
S1136 S 0.98012 0.55882 0.59118 0.0
N1137 N 0.97459 0.52341 0.60081 0.0
N1138 N 0.94781 0.57541 0.5966 0.0
C1139 C 0.93079 0.55198 0.6067 0.0
C1140 C 0.94532 0.52374 0.60903 0.0
C1141 C 0.16061 0.53552 0.62365 0.0
C1142 C 0.16605 0.55657 0.64759 0.0
C1143 C 0.16124 0.50425 0.62832 0.0
C1144 C 0.16702 0.49273 0.65719 0.0
H1145 H 0.15436 0.54314 0.60138 0.0
H1146 H 0.1554 0.48909 0.60948 0.0
S1147 S 0.18763 0.53795 0.72645 0.0
N1148 N 0.18135 0.56329 0.70051 0.0
N1149 N 0.18202 0.50484 0.70921 0.0
C1150 C 0.17469 0.51347 0.68079 0.0
C1151 C 0.17435 0.54525 0.67602 0.0
C1152 C 0.16279 0.25024 0.41144 0.0
C1153 C 0.13973 0.22799 0.41343 0.0
C1154 C 0.1568 0.28097 0.41488 0.0
C1155 C 0.1274 0.29053 0.41984 0.0
H1156 H 0.18541 0.24393 0.40583 0.0
H1157 H 0.17495 0.29733 0.41175 0.0
S1158 S 0.05973 0.24126 0.43043 0.0
N1159 N 0.08697 0.21758 0.42375 0.0
N1160 N 0.07556 0.27534 0.42966 0.0
C1161 C 0.10453 0.26848 0.42381 0.0
C1162 C 0.11074 0.23717 0.42081 0.0
C1163 C 0.77796 0.1683 0.38149 0.0
C1164 C 0.79423 0.19022 0.39907 0.0
C1165 C 0.74631 0.16618 0.38196 0.0
C1166 C 0.72946 0.18607 0.39977 0.0
H1167 H 0.78977 0.15171 0.36835 0.0
H1168 H 0.73503 0.1481 0.36889 0.0
S1169 S 0.76106 0.25006 0.44687 0.0
N1170 N 0.79089 0.23414 0.43261 0.0
N1171 N 0.7316 0.23017 0.4333 0.0
C1172 C 0.74536 0.20929 0.41595 0.0
C1173 C 0.77763 0.21131 0.41568 0.0
C1174 C 0.89334 0.80924 0.404 0.0
C1175 C 0.91921 0.82708 0.39829 0.0
C1176 C 0.89178 0.77827 0.39649 0.0
C1177 C 0.91573 0.76393 0.38231 0.0
H1178 H 0.87442 0.81903 0.41522 0.0
H1179 H 0.87148 0.76551 0.40165 0.0
S1180 S 0.98819 0.80055 0.36154 0.0
N1181 N 0.96928 0.82803 0.37732 0.0
N1182 N 0.96591 0.77015 0.36232 0.0
C1183 C 0.94144 0.78162 0.37581 0.0
C1184 C 0.9433 0.81305 0.38404 0.0
C1185 C 0.25254 0.89544 0.47634 0.0
C1186 C 0.24014 0.88017 0.4506 0.0
C1187 C 0.28374 0.90134 0.47957 0.0
C1188 C 0.30384 0.89222 0.45719 0.0
H1189 H 0.23799 0.90391 0.49365 0.0
H1190 H 0.29195 0.91414 0.49931 0.0
S1191 S 0.28331 0.84783 0.3874 0.0
N1192 N 0.25088 0.85331 0.40376 0.0
N1193 N 0.30921 0.86454 0.4098 0.0
C1194 C 0.29189 0.8755 0.43215 0.0
C1195 C 0.26016 0.86945 0.42887 0.0
C1196 C 0.15701 0.77772 0.62842 0.0
C1197 C 0.14688 0.79792 0.60649 0.0
C1198 C 0.15525 0.74641 0.62343 0.0
C1199 C 0.14321 0.73372 0.59625 0.0
H1200 H 0.16572 0.78604 0.65016 0.0
H1201 H 0.16239 0.73208 0.64158 0.0
S1202 S 0.11674 0.77661 0.52992 0.0
N1203 N 0.12674 0.80293 0.55542 0.0
N1204 N 0.12341 0.74409 0.54587 0.0
C1205 C 0.13448 0.75366 0.57339 0.0
C1206 C 0.13632 0.78569 0.57853 0.0
C1207 C 0.25251 0.11209 0.65266 0.0
C1208 C 0.24484 0.13607 0.63407 0.0
C1209 C 0.2822 0.10216 0.65461 0.0
C1210 C 0.30548 0.11604 0.63837 0.0
H1211 H 0.23525 0.09993 0.66466 0.0
H1212 H 0.28673 0.08288 0.66843 0.0
S1213 S 0.29777 0.18222 0.58937 0.0
N1214 N 0.26334 0.17524 0.60114 0.0
N1215 N 0.31916 0.15671 0.60507 0.0
C1216 C 0.29844 0.14122 0.62114 0.0
C1217 C 0.26812 0.15116 0.6189 0.0
C1218 C 0.93969 0.25547 0.62959 0.0
C1219 C 0.91041 0.24953 0.63978 0.0
C1220 C 0.95195 0.28499 0.62942 0.0
C1221 C 0.9354 0.30995 0.6391 0.0
H1222 H 0.95378 0.23709 0.62282 0.0
H1223 H 0.97487 0.28814 0.62206 0.0
S1224 S 0.85665 0.3069 0.66533 0.0
N1225 N 0.86443 0.27133 0.65804 0.0
N1226 N 0.88732 0.32673 0.65738 0.0
C1227 C 0.90559 0.30447 0.64806 0.0
C1228 C 0.89319 0.27433 0.64851 0.0
C1229 C 0.74003 0.88479 0.66444 0.0
C1230 C 0.73516 0.90017 0.69188 0.0
C1231 C 0.76915 0.88165 0.65343 0.0
C1232 C 0.79481 0.89365 0.66935 0.0
H1233 H 0.72114 0.87594 0.65073 0.0
H1234 H 0.77137 0.87029 0.63176 0.0
S1235 S 0.79479 0.93327 0.74395 0.0
N1236 N 0.75884 0.92557 0.73596 0.0
N1237 N 0.81347 0.91966 0.7152 0.0
C1238 C 0.79044 0.90786 0.69752 0.0
C1239 C 0.7607 0.91112 0.70876 0.0
C1240 C 0.42715 0.14243 0.24828 0.0
C1241 C 0.40514 0.15107 0.22683 0.0
C1242 C 0.42045 0.139 0.2788 0.0
C1243 C 0.39158 0.14471 0.28935 0.0
H1244 H 0.45008 0.13878 0.24161 0.0
H1245 H 0.43839 0.13317 0.29444 0.0
S1246 S 0.32519 0.16588 0.2426 0.0
N1247 N 0.35266 0.16339 0.21832 0.0
N1248 N 0.34022 0.15775 0.27579 0.0
C1249 C 0.36907 0.15249 0.26812 0.0
C1250 C 0.37578 0.15544 0.23688 0.0
C1251 C 0.93636 0.46853 0.29275 0.0
C1252 C 0.95497 0.4479 0.30769 0.0
C1253 C 0.9349 0.47003 0.26109 0.0
C1254 C 0.95167 0.45063 0.24303 0.0
H1255 H 0.92199 0.48309 0.3056 0.0
H1256 H 0.91927 0.48529 0.25073 0.0
S1257 S 1.00639 0.3949 0.27069 0.0
N1258 N 0.99259 0.40964 0.30176 0.0
N1259 N 0.98967 0.41209 0.24245 0.0
C1260 C 0.97166 0.43112 0.25768 0.0
C1261 C 0.9734 0.42987 0.28992 0.0
C1262 C 0.65824 0.96613 0.32037 0.0
C1263 C 0.64056 0.95085 0.29759 0.0
C1264 C 0.65293 0.96198 0.35111 0.0
C1265 C 0.62982 0.94227 0.3603 0.0
H1266 H 0.67726 0.98044 0.31451 0.0
H1267 H 0.66816 0.97291 0.36769 0.0
S1268 S 0.57371 0.90106 0.31006 0.0
N1269 N 0.59647 0.91831 0.28672 0.0
N1270 N 0.58654 0.91053 0.34432 0.0
C1271 C 0.61052 0.92873 0.33786 0.0
C1272 C 0.61584 0.93303 0.30658 0.0
C1273 C 0.14994 0.62812 0.23276 0.0
C1274 C 0.12182 0.63417 0.21918 0.0
C1275 C 0.15321 0.62466 0.26403 0.0
C1276 C 0.12852 0.6269 0.28324 0.0
H1277 H 0.16995 0.6272 0.21933 0.0
H1278 H 0.17559 0.62089 0.27323 0.0
S1279 S 0.04927 0.63916 0.25883 0.0
N1280 N 0.06819 0.63982 0.22728 0.0
N1281 N 0.07442 0.63323 0.28597 0.0
C1282 C 0.09995 0.63137 0.26985 0.0
C1283 C 0.0966 0.63501 0.23791 0.0
C1284 C 0.38198 0.87169 0.80953 0.0
C1285 C 0.38379 0.89544 0.83098 0.0
C1286 C 0.38068 0.87711 0.7786 0.0
C1287 C 0.3816 0.90663 0.76739 0.0
H1288 H 0.38225 0.84849 0.81668 0.0
H1289 H 0.37984 0.85767 0.76337 0.0
S1290 S 0.3849 0.97705 0.8143 0.0
N1291 N 0.38517 0.94983 0.83915 0.0
N1292 N 0.38307 0.96017 0.78067 0.0
C1293 C 0.38253 0.93079 0.78862 0.0
C1294 C 0.38347 0.92517 0.82044 0.0
C1295 C 0.14045 0.39975 0.79399 0.0
C1296 C 0.15401 0.37623 0.80996 0.0
C1297 C 0.13525 0.3979 0.76258 0.0
C1298 C 0.14361 0.37251 0.74554 0.0
H1299 H 0.13429 0.42025 0.80575 0.0
H1300 H 0.12569 0.41708 0.75149 0.0
S1301 S 0.17732 0.30341 0.77645 0.0
N1302 N 0.1737 0.32577 0.80632 0.0
N1303 N 0.16416 0.3222 0.74744 0.0
C1304 C 0.15599 0.34823 0.76134 0.0
C1305 C 0.1611 0.35008 0.79343 0.0
C1306 C 0.63374 0.13792 0.80357 0.0
C1307 C 0.64311 0.15933 0.78244 0.0
C1308 C 0.63793 0.14311 0.83474 0.0
C1309 C 0.65177 0.16996 0.84637 0.0
H1310 H 0.62357 0.11651 0.79601 0.0
H1311 H 0.63091 0.1255 0.84979 0.0
S1312 S 0.6786 0.23441 0.80093 0.0
N1313 N 0.6655 0.20923 0.77559 0.0
N1314 N 0.67336 0.21914 0.83406 0.0
C1315 C 0.66028 0.19211 0.82556 0.0
C1316 C 0.65595 0.18679 0.79371 0.0
C1317 C 0.88613 0.64438 0.76478 0.0
C1318 C 0.87956 0.6138 0.77022 0.0
C1319 C 0.88173 0.65639 0.73597 0.0
C1320 C 0.86997 0.63852 0.71152 0.0
H1321 H 0.89562 0.659 0.78267 0.0
H1322 H 0.88819 0.67979 0.73267 0.0
S1323 S 0.84747 0.55746 0.71402 0.0
N1324 N 0.85951 0.56613 0.74874 0.0
N1325 N 0.85094 0.58885 0.69498 0.0
C1326 C 0.8622 0.60821 0.71689 0.0
C1327 C 0.86711 0.59583 0.74609 0.0
C1328 C 0.28504 0.39415 0.17539 0.0
C1329 C 0.25922 0.40841 0.16396 0.0
C1330 C 0.31428 0.40365 0.16771 0.0
C1331 C 0.31898 0.42773 0.14813 0.0
H1332 H 0.28272 0.37467 0.18952 0.0
H1333 H 0.3332 0.39099 0.17595 0.0
S1334 S 0.25954 0.47558 0.11546 0.0
N1335 N 0.24076 0.45006 0.13459 0.0
N1336 N 0.29548 0.46782 0.12017 0.0
C1337 C 0.29352 0.44343 0.13812 0.0
C1338 C 0.26376 0.43384 0.14602 0.0
C1339 C 0.25851 0.6319 0.84791 0.0
C1340 C 0.23975 0.60895 0.85967 0.0
C1341 C 0.29012 0.63192 0.85172 0.0
C1342 C 0.30447 0.6091 0.86769 0.0
H1343 H 0.24869 0.65065 0.83634 0.0
H1344 H 0.30323 0.65071 0.84326 0.0
S1345 S 0.26645 0.54178 0.89986 0.0
N1346 N 0.23853 0.56128 0.88563 0.0
N1347 N 0.2976 0.56128 0.89288 0.0
C1348 C 0.28617 0.58516 0.87818 0.0
C1349 C 0.25399 0.58507 0.87414 0.0
C1350 C 0.46175 0.23167 0.88741 0.0
C1351 C 0.44147 0.22111 0.86444 0.0
C1352 C 0.46673 0.26265 0.8933 0.0
C1353 C 0.45175 0.28463 0.87647 0.0
H1354 H 0.47307 0.21591 0.90185 0.0
H1355 H 0.48184 0.26933 0.91196 0.0
S1356 S 0.39896 0.26915 0.81144 0.0
N1357 N 0.40825 0.23539 0.82288 0.0
N1358 N 0.41761 0.29351 0.83411 0.0
C1359 C 0.43272 0.27449 0.8523 0.0
C1360 C 0.42757 0.24283 0.84629 0.0
C1361 C 0.84381 0.41029 0.92193 0.0
C1362 C 0.84649 0.43284 0.90029 0.0
C1363 C 0.81557 0.40098 0.93239 0.0
C1364 C 0.78869 0.41357 0.92152 0.0
H1365 H 0.86374 0.40059 0.93191 0.0
H1366 H 0.81493 0.38433 0.94988 0.0
S1367 S 0.78288 0.47115 0.8624 0.0
N1368 N 0.81941 0.46589 0.86651 0.0
N1369 N 0.76645 0.44823 0.88618 0.0
C1370 C 0.79084 0.43487 0.8986 0.0
C1371 C 0.81968 0.44455 0.88804 0.0
C1372 C 0.6511 0.74953 0.95542 0.0
C1373 C 0.67559 0.73955 0.93872 0.0
C1374 C 0.64675 0.78039 0.96106 0.0
C1375 C 0.66685 0.80279 0.95061 0.0
H1376 H 0.63439 0.73348 0.96324 0.0
H1377 H 0.62698 0.78672 0.97326 0.0
S1378 S 0.73631 0.78868 0.90834 0.0
N1379 N 0.72152 0.75469 0.91356 0.0
N1380 N 0.71341 0.81253 0.92446 0.0
C1381 C 0.69228 0.79312 0.9352 0.0
C1382 C 0.6966 0.76161 0.92917 0.0
C1383 C 0.79967 0.7093 0.1409 0.0
C1384 C 0.80461 0.68898 0.11688 0.0
C1385 C 0.77204 0.70942 0.15548 0.0
C1386 C 0.74809 0.68943 0.14651 0.0
H1387 H 0.8178 0.72403 0.14976 0.0
H1388 H 0.76987 0.72466 0.17468 0.0
S1389 S 0.74793 0.63499 0.08178 0.0
N1390 N 0.78209 0.6507 0.08249 0.0
N1391 N 0.73011 0.65108 0.10984 0.0
C1392 C 0.75192 0.67061 0.12105 0.0
C1393 C 0.78018 0.67035 0.10628 0.0
C1394 C 0.43232 0.78459 0.15793 0.0
C1395 C 0.42572 0.76893 0.13042 0.0
C1396 C 0.43537 0.81609 0.15954 0.0
C1397 C 0.43209 0.83362 0.13371 0.0
H1398 H 0.43461 0.7725 0.17877 0.0
H1399 H 0.43969 0.8268 0.18147 0.0
S1400 S 0.41664 0.80388 0.05561 0.0
N1401 N 0.41745 0.77343 0.07635 0.0
N1402 N 0.42323 0.83275 0.07923 0.0
C1403 C 0.42665 0.81829 0.10574 0.0
C1404 C 0.42345 0.786 0.10413 0.0
C1405 C 0.68631 0.30862 0.14729 0.0
C1406 C 0.67627 0.32554 0.1722 0.0
C1407 C 0.68652 0.27703 0.14722 0.0
C1408 C 0.67654 0.26057 0.172 0.0
H1409 H 0.6938 0.31983 0.12726 0.0
H1410 H 0.69397 0.26545 0.1271 0.0
S1411 S 0.64944 0.29385 0.24374 0.0
N1412 N 0.65729 0.32339 0.22301 0.0
N1413 N 0.65747 0.2639 0.22296 0.0
C1414 C 0.66724 0.27716 0.19754 0.0
C1415 C 0.66719 0.30958 0.19764 0.0
C1416 C 0.87061 0.76711 0.59064 0.0
C1417 C 0.88603 0.74465 0.60636 0.0
C1418 C 0.87467 0.79777 0.5985 0.0
C1419 C 0.89411 0.80716 0.62257 0.0
H1420 H 0.8544 0.76096 0.57275 0.0
H1421 H 0.8614 0.81405 0.58656 0.0
S1422 S 0.94322 0.7581 0.66807 0.0
N1423 N 0.92411 0.73449 0.64499 0.0
N1424 N 0.93158 0.79204 0.65984 0.0
C1425 C 0.9111 0.78521 0.63724 0.0
C1426 C 0.90715 0.75399 0.62909 0.0
C1427 C 0.24065 0.91196 0.66481 0.0
C1428 C 0.23466 0.89559 0.63772 0.0
C1429 C 0.27024 0.91748 0.67566 0.0
C1430 C 0.29512 0.90673 0.65998 0.0
H1431 H 0.22239 0.92122 0.67749 0.0
H1432 H 0.27359 0.93075 0.69632 0.0
S1433 S 0.29176 0.86116 0.5887 0.0
N1434 N 0.25621 0.86746 0.59605 0.0
N1435 N 0.31172 0.87789 0.61649 0.0
C1436 C 0.28947 0.88949 0.63335 0.0
C1437 C 0.2593 0.88394 0.6222 0.0
C1438 C 0.12807 0.28172 0.60668 0.0
C1439 C 0.14798 0.30309 0.62113 0.0
C1440 C 0.13389 0.25078 0.60654 0.0
C1441 C 0.15974 0.23992 0.62114 0.0
H1442 H 0.10712 0.28879 0.59634 0.0
H1443 H 0.11716 0.23522 0.59638 0.0
S1444 S 0.22105 0.28666 0.65881 0.0
N1445 N 0.19614 0.31133 0.64771 0.0
N1446 N 0.20709 0.25326 0.64763 0.0
C1447 C 0.18083 0.26118 0.63393 0.0
C1448 C 0.17499 0.29274 0.63384 0.0
C1449 C 0.75598 0.12626 0.66128 0.0
C1450 C 0.74846 0.1389 0.68935 0.0
C1451 C 0.78584 0.12697 0.6516 0.0
C1452 C 0.80956 0.14002 0.66969 0.0
H1453 H 0.73851 0.11705 0.64597 0.0
H1454 H 0.7902 0.11775 0.62937 0.0
S1455 S 0.80237 0.1731 0.74663 0.0
N1456 N 0.76759 0.16269 0.73624 0.0
N1457 N 0.82367 0.1637 0.71812 0.0
C1458 C 0.80262 0.15117 0.69853 0.0
C1459 C 0.77212 0.1507 0.70831 0.0
C1460 C 0.90509 0.32381 0.39814 0.0
C1461 C 0.93214 0.33045 0.41439 0.0
C1462 C 0.8934 0.29405 0.3952 0.0
C1463 C 0.90797 0.26965 0.40871 0.0
H1464 H 0.89347 0.3415 0.38653 0.0
H1465 H 0.87305 0.29006 0.38153 0.0
S1466 S 0.97799 0.27528 0.45617 0.0
N1467 N 0.97209 0.31027 0.44607 0.0
N1468 N 0.94998 0.25466 0.44061 0.0
C1469 C 0.93419 0.2762 0.42632 0.0
C1470 C 0.94629 0.30646 0.4291 0.0
C1471 C 0.77696 0.88591 0.4405 0.0
C1472 C 0.7998 0.89885 0.45983 0.0
C1473 C 0.74629 0.89021 0.44572 0.0
C1474 C 0.73714 0.90779 0.47039 0.0
H1475 H 0.78276 0.87319 0.42045 0.0
H1476 H 0.72976 0.88097 0.42941 0.0
S1477 S 0.78747 0.94301 0.5303 0.0
N1478 N 0.81071 0.92729 0.50652 0.0
N1479 N 0.75322 0.93541 0.51631 0.0
C1480 C 0.75959 0.91922 0.49099 0.0
C1481 C 0.79084 0.91472 0.48575 0.0
C1482 C 0.15329 0.73209 0.42011 0.0
C1483 C 0.13551 0.72658 0.39375 0.0
C1484 C 0.15673 0.76116 0.43308 0.0
C1485 C 0.14267 0.78612 0.42023 0.0
H1486 H 0.16412 0.71369 0.43135 0.0
H1487 H 0.17032 0.76391 0.45363 0.0
S1488 S 0.09491 0.78431 0.35022 0.0
N1489 N 0.10456 0.74896 0.35451 0.0
N1490 N 0.11108 0.80347 0.37886 0.0
C1491 C 0.12544 0.78112 0.39342 0.0
C1492 C 0.12186 0.75145 0.38021 0.0
C1493 C 0.28039 0.14715 0.40224 0.0
C1494 C 0.29338 0.13562 0.37601 0.0
C1495 C 0.249 0.14747 0.405 0.0
C1496 C 0.22925 0.13672 0.3815 0.0
H1497 H 0.29453 0.15493 0.42126 0.0
H1498 H 0.24018 0.15588 0.42603 0.0
S1499 S 0.25198 0.10703 0.30689 0.0
N1500 N 0.28416 0.11505 0.32519 0.0
N1501 N 0.22516 0.11609 0.33031 0.0
C1502 C 0.24195 0.12646 0.35458 0.0
C1503 C 0.27398 0.12576 0.3519 0.0
C1504 C 0.62037 0.89125 0.81411 0.0
C1505 C 0.63154 0.91319 0.79436 0.0
C1506 C 0.62445 0.89453 0.84556 0.0
C1507 C 0.64021 0.91971 0.85844 0.0
H1508 H 0.60916 0.87085 0.8052 0.0
H1509 H 0.61676 0.87641 0.85967 0.0
S1510 S 0.67091 0.98527 0.81734 0.0
N1511 N 0.65657 0.96237 0.79052 0.0
N1512 N 0.66456 0.9683 0.84941 0.0
C1513 C 0.64999 0.94259 0.83916 0.0
C1514 C 0.64556 0.93942 0.80719 0.0
C1515 C 0.1039 0.6097 0.75555 0.0
C1516 C 0.11695 0.62838 0.77878 0.0
C1517 C 0.10113 0.61953 0.72581 0.0
C1518 C 0.11148 0.64846 0.71785 0.0
H1519 H 0.0965 0.58682 0.76012 0.0
H1520 H 0.09216 0.6037 0.70871 0.0
S1521 S 0.1441 0.70755 0.77072 0.0
N1522 N 0.1378 0.67823 0.79221 0.0
N1523 N 0.13272 0.69678 0.73632 0.0
C1524 C 0.12296 0.66804 0.74116 0.0
C1525 C 0.12564 0.65802 0.77158 0.0
C1526 C 0.38425 0.10833 0.77674 0.0
C1527 C 0.39959 0.0852 0.79126 0.0
C1528 C 0.38095 0.10861 0.74526 0.0
C1529 C 0.39266 0.08571 0.72679 0.0
H1530 H 0.37577 0.12716 0.78964 0.0
H1531 H 0.36994 0.12762 0.73527 0.0
S1532 S 0.43195 1.01822 0.75331 0.0
N1533 N 0.42456 0.03727 0.78455 0.0
N1534 N 0.41804 0.03796 0.72534 0.0
C1535 C 0.4063 0.06139 0.74092 0.0
C1536 C 0.40986 0.06112 0.77313 0.0
C1537 C 0.97221 0.42435 0.7585 0.0
C1538 C 0.96066 0.44699 0.74021 0.0
C1539 C 0.97143 0.42673 0.7901 0.0
C1540 C 0.95923 0.45194 0.80497 0.0
H1541 H 0.9808 0.40398 0.74838 0.0
H1542 H 0.97983 0.40809 0.80292 0.0
S1543 S 0.92981 0.51951 0.76756 0.0
N1544 N 0.93927 0.497 0.73941 0.0
N1545 N 0.93797 0.50139 0.79872 0.0
C1546 C 0.9492 0.47559 0.78701 0.0
C1547 C 0.94985 0.47311 0.75472 0.0
C1548 C 0.59611 0.16588 0.31297 0.0
C1549 C 0.61178 0.14969 0.33503 0.0
C1550 C 0.59781 0.1584 0.2823 0.0
C1551 C 0.61534 0.13441 0.27233 0.0
H1552 H 0.5838 0.18571 0.31927 0.0
H1553 H 0.58681 0.17279 0.26622 0.0
S1554 S 0.65613 0.08133 0.32147 0.0
N1555 N 0.64188 0.10597 0.34525 0.0
N1556 N 0.64506 0.09157 0.28746 0.0
C1557 C 0.62859 0.11604 0.29436 0.0
C1558 C 0.62683 0.12377 0.32577 0.0
C1559 C 0.86814 0.67813 0.26438 0.0
C1560 C 0.88409 0.65404 0.27644 0.0
C1561 C 0.86886 0.68444 0.23356 0.0
C1562 C 0.88544 0.6669 0.21327 0.0
H1563 H 0.85576 0.69295 0.27899 0.0
H1564 H 0.8567 0.70374 0.22575 0.0
S1565 S 0.92874 0.59931 0.23267 0.0
N1566 N 0.91523 0.61103 0.26509 0.0
N1567 N 0.91651 0.62302 0.20723 0.0
C1568 C 0.90035 0.64186 0.2247 0.0
C1569 C 0.89971 0.63544 0.25621 0.0
C1570 C 0.3795 0.9267 0.28021 0.0
C1571 C 0.40876 0.9346 0.2711 0.0
C1572 C 0.37223 0.92611 0.31095 0.0
C1573 C 0.39373 0.93377 0.33408 0.0
H1574 H 0.36223 0.92002 0.26352 0.0
H1575 H 0.34955 0.91907 0.3166 0.0
S1576 S 0.47313 0.95824 0.32242 0.0
N1577 N 0.45908 0.95181 0.28799 0.0
N1578 N 0.44531 0.95091 0.34536 0.0
C1579 C 0.42277 0.94282 0.32525 0.0
C1580 C 0.43028 0.94315 0.29396 0.0
C1581 C 0.14539 0.35194 0.29904 0.0
C1582 C 0.12714 0.37164 0.31552 0.0
C1583 C 0.14868 0.3544 0.26773 0.0
C1584 C 0.1341 0.37689 0.2515 0.0
H1585 H 0.15802 0.33489 0.31056 0.0
H1586 H 0.1637 0.33927 0.25642 0.0
S1587 S 0.08185 0.43281 0.28347 0.0
N1588 N 0.09284 0.41324 0.31279 0.0
N1589 N 0.09883 0.41803 0.25418 0.0
C1590 C 0.11465 0.3959 0.26749 0.0
C1591 C 0.11119 0.39322 0.29938 0.0
C1592 C 0.75738 0.6105 0.89452 0.0
C1593 C 0.73273 0.59644 0.87875 0.0
C1594 C 0.78711 0.60232 0.88897 0.0
C1595 C 0.79345 0.58025 0.86689 0.0
H1596 H 0.7537 0.62781 0.91154 0.0
H1597 H 0.80532 0.61421 0.90133 0.0
S1598 S 0.73701 0.53617 0.8198 0.0
N1599 N 0.71663 0.5585 0.84092 0.0
N1600 N 0.77255 0.54409 0.82956 0.0
C1601 C 0.76902 0.56585 0.85112 0.0
C1602 C 0.73868 0.57366 0.85731 0.0
C1603 C 0.79038 0.4073 0.16146 0.0
C1604 C 0.76604 0.42478 0.15182 0.0
C1605 C 0.82032 0.41615 0.15624 0.0
C1606 C 0.82725 0.44306 0.14143 0.0
H1607 H 0.78637 0.38697 0.17401 0.0
H1608 H 0.83817 0.40242 0.16506 0.0
S1609 S 0.77189 0.49522 0.10844 0.0
N1610 N 0.75095 0.46895 0.12427 0.0
N1611 N 0.80718 0.48571 0.1146 0.0
C1612 C 0.80313 0.45995 0.13021 0.0
C1613 C 0.77257 0.45077 0.13532 0.0
C1614 C 0.66021 0.78053 0.22998 0.0
C1615 C 0.67117 0.76934 0.2026 0.0
C1616 C 0.66095 0.8117 0.23682 0.0
C1617 C 0.67306 0.83289 0.21677 0.0
H1618 H 0.64967 0.76531 0.24557 0.0
H1619 H 0.65097 0.81929 0.25759 0.0
S1620 S 0.70838 0.81458 0.14386 0.0
N1621 N 0.6972 0.78157 0.15664 0.0
N1622 N 0.69877 0.83977 0.16954 0.0
C1623 C 0.68587 0.82169 0.19023 0.0
C1624 C 0.68483 0.79006 0.18314 0.0
C1625 C 0.2671 0.65639 0.15076 0.0
C1626 C 0.24613 0.67708 0.13969 0.0
C1627 C 0.29826 0.66097 0.14752 0.0
C1628 C 0.30992 0.68638 0.1329 0.0
H1629 H 0.25942 0.63596 0.16145 0.0
H1630 H 0.31321 0.64384 0.1556 0.0
S1631 S 0.2651 0.74901 0.10245 0.0
N1632 N 0.23963 0.72517 0.11544 0.0
N1633 N 0.29804 0.73383 0.10931 0.0
C1634 C 0.28934 0.70797 0.12291 0.0
C1635 C 0.25755 0.70334 0.12633 0.0
C1636 C 0.39917 0.28035 0.10037 0.0
C1637 C 0.41948 0.26222 0.11642 0.0
C1638 C 0.40256 0.31198 0.10046 0.0
C1639 C 0.42621 0.32687 0.1169 0.0
H1640 H 0.37998 0.2701 0.08811 0.0
H1641 H 0.38571 0.32487 0.08874 0.0
S1642 S 0.48741 0.29013 0.16004 0.0
N1643 N 0.46559 0.26176 0.14711 0.0
N1644 N 0.4718 0.321 0.14757 0.0
C1645 C 0.44749 0.30902 0.13185 0.0
C1646 C 0.4442 0.2768 0.13152 0.0
C1647 C 0.33341 0.35812 0.92252 0.0
C1648 C 0.34589 0.38539 0.91249 0.0
C1649 C 0.30201 0.35323 0.92275 0.0
C1650 C 0.28195 0.37557 0.91335 0.0
H1651 H 0.34793 0.3398 0.92842 0.0
H1652 H 0.29345 0.3314 0.92957 0.0
S1653 S 0.30378 0.45239 0.88882 0.0
N1654 N 0.33614 0.43597 0.89547 0.0
N1655 N 0.27726 0.42709 0.89648 0.0
C1656 C 0.2943 0.40367 0.90522 0.0
C1657 C 0.32623 0.40847 0.90462 0.0
C1658 C 0.693 0.26722 0.99367 0.0
C1659 C 0.70334 0.2461 0.97227 0.0
C1660 C 0.6971 0.29845 0.98992 0.0
C1661 C 0.71167 0.30979 0.96461 0.0
H1662 H 0.68022 0.25972 1.01272 0.0
H1663 H 0.68727 0.31374 1.00606 0.0
S1664 S 0.74767 0.26424 0.90487 0.0
N1665 N 0.73225 0.239 0.92695 0.0
N1666 N 0.73999 0.29742 0.91995 0.0
C1667 C 0.72415 0.28893 0.94433 0.0
C1668 C 0.71999 0.25719 0.94814 0.0
C1669 C 0.39195 0.7403 0.931 0.0
C1670 C 0.41182 0.73204 0.90826 0.0
C1671 C 0.3898 0.77058 0.94071 0.0
C1672 C 0.40767 0.79382 0.92835 0.0
H1673 H 0.37698 0.7235 0.94044 0.0
H1674 H 0.37332 0.77586 0.95747 0.0
S1675 S 0.4662 0.78334 0.871 0.0
N1676 N 0.45179 0.74913 0.87568 0.0
N1677 N 0.44793 0.8057 0.89401 0.0
C1678 C 0.42892 0.78551 0.90689 0.0
C1679 C 0.4309 0.75476 0.89682 0.0
loop_
_geom_bond_atom_site_label_1
_geom_bond_atom_site_label_2
_geom_bond_distance
_geom_bond_site_symmetry_2
_ccdc_geom_bond_type
Mg0 O7 2.141 . S
Mg0 O8 2.048 . S
Mg0 O9 2.048 . S
Mg0 O12 2.141 . S
C1 O2 1.313 . S
C1 O8 1.195 . S
O2 C1 1.313 . S
C3 O4 1.245 . S
C3 O12 1.289 . S
O4 C3 1.245 . S
C5 O6 1.245 . S
C5 O7 1.289 . S
O6 C5 1.245 . S
O7 Mg0 2.141 . S
O7 C5 1.289 . S
O8 Mg0 2.048 . S
O8 C1 1.195 . S
O9 Mg0 2.048 . S
O9 C10 1.195 . S
C10 O9 1.195 . S
C10 O11 1.313 . S
O11 C10 1.313 . S
O12 Mg0 2.141 . S
O12 C3 1.289 . S
Mg13 O20 2.141 . S
Mg13 O21 2.048 . S
Mg13 O22 2.048 . S
Mg13 O25 2.141 . S
C14 O15 1.313 . S
C14 O21 1.195 . S
O15 C14 1.313 . S
C16 O17 1.245 . S
C16 O25 1.289 . S
O17 C16 1.245 . S
C18 O19 1.245 . S
C18 O20 1.289 . S
O19 C18 1.245 . S
O20 Mg13 2.141 . S
O20 C18 1.289 . S
O21 Mg13 2.048 . S
O21 C14 1.195 . S
O22 Mg13 2.048 . S
O22 C23 1.195 . S
C23 O22 1.195 . S
C23 O24 1.313 . S
O24 C23 1.313 . S
O25 Mg13 2.141 . S
O25 C16 1.289 . S
Mg26 O33 2.141 . S
Mg26 O34 2.048 . S
Mg26 O35 2.048 . S
Mg26 O38 2.141 . S
C27 O28 1.313 . S
C27 O34 1.195 . S
O28 C27 1.313 . S
C29 O30 1.245 . S
C29 O38 1.289 . S
O30 C29 1.245 . S
C31 O32 1.245 . S
C31 O33 1.289 . S
O32 C31 1.245 . S
O33 Mg26 2.141 . S
O33 C31 1.289 . S
O34 Mg26 2.048 . S
O34 C27 1.195 . S
O35 Mg26 2.048 . S
O35 C36 1.195 . S
C36 O35 1.195 . S
C36 O37 1.313 . S
O37 C36 1.313 . S
O38 Mg26 2.141 . S
O38 C29 1.289 . S
Mg39 O46 2.141 . S
Mg39 O47 2.048 . S
Mg39 O48 2.048 . S
Mg39 O51 2.141 . S
C40 O41 1.313 . S
C40 O47 1.195 . S
O41 C40 1.313 . S
C42 O43 1.245 . S
C42 O51 1.289 . S
O43 C42 1.245 . S
C44 O45 1.245 . S
C44 O46 1.289 . S
O45 C44 1.245 . S
O46 Mg39 2.141 . S
O46 C44 1.289 . S
O47 Mg39 2.048 . S
O47 C40 1.195 . S
O48 Mg39 2.048 . S
O48 C49 1.195 . S
C49 O48 1.195 . S
C49 O50 1.313 . S
O50 C49 1.313 . S
O51 Mg39 2.141 . S
O51 C42 1.289 . S
Mg52 O59 2.141 . S
Mg52 O60 2.048 . S
Mg52 O61 2.048 . S
Mg52 O64 2.141 . S
C53 O54 1.313 . S
C53 O60 1.195 . S
O54 C53 1.313 . S
C55 O56 1.245 . S
C55 O64 1.289 . S
O56 C55 1.245 . S
C57 O58 1.245 . S
C57 O59 1.289 . S
O58 C57 1.245 . S
O59 Mg52 2.141 . S
O59 C57 1.289 . S
O60 Mg52 2.048 . S
O60 C53 1.195 . S
O61 Mg52 2.048 . S
O61 C62 1.195 . S
C62 O61 1.195 . S
C62 O63 1.313 . S
O63 C62 1.313 . S
O64 Mg52 2.141 . S
O64 C55 1.289 . S
Mg65 O72 2.141 . S
Mg65 O73 2.048 . S
Mg65 O74 2.048 . S
Mg65 O77 2.141 . S
C66 O67 1.313 . S
C66 O73 1.195 . S
O67 C66 1.313 . S
C68 O69 1.245 . S
C68 O77 1.289 . S
O69 C68 1.245 . S
C70 O71 1.245 . S
C70 O72 1.289 . S
O71 C70 1.245 . S
O72 Mg65 2.141 . S
O72 C70 1.289 . S
O73 Mg65 2.048 . S
O73 C66 1.195 . S
O74 Mg65 2.048 . S
O74 C75 1.195 . S
C75 O74 1.195 . S
C75 O76 1.313 . S
O76 C75 1.313 . S
O77 Mg65 2.141 . S
O77 C68 1.289 . S
Mg78 O85 2.141 . S
Mg78 O86 2.048 . S
Mg78 O87 2.048 . S
Mg78 O90 2.141 . S
C79 O80 1.313 . S
C79 O86 1.195 . S
O80 C79 1.313 . S
C81 O82 1.245 . S
C81 O90 1.289 . S
O82 C81 1.245 . S
C83 O84 1.245 . S
C83 O85 1.289 . S
O84 C83 1.245 . S
O85 Mg78 2.141 . S
O85 C83 1.289 . S
O86 Mg78 2.048 . S
O86 C79 1.195 . S
O87 Mg78 2.048 . S
O87 C88 1.195 . S
C88 O87 1.195 . S
C88 O89 1.313 . S
O89 C88 1.313 . S
O90 Mg78 2.141 . S
O90 C81 1.289 . S
Mg91 O98 2.141 . S
Mg91 O99 2.048 . S
Mg91 O100 2.048 . S
Mg91 O103 2.141 . S
C92 O93 1.313 . S
C92 O99 1.195 . S
O93 C92 1.313 . S
C94 O95 1.245 . S
C94 O103 1.289 . S
O95 C94 1.245 . S
C96 O97 1.245 . S
C96 O98 1.289 . S
O97 C96 1.245 . S
O98 Mg91 2.141 . S
O98 C96 1.289 . S
O99 Mg91 2.048 . S
O99 C92 1.195 . S
O100 Mg91 2.048 . S
O100 C101 1.195 . S
C101 O100 1.195 . S
C101 O102 1.313 . S
O102 C101 1.313 . S
O103 Mg91 2.141 . S
O103 C94 1.289 . S
Mg104 O111 2.141 . S
Mg104 O112 2.048 . S
Mg104 O113 2.048 . S
Mg104 O116 2.141 . S
C105 O106 1.313 . S
C105 O112 1.195 . S
O106 C105 1.313 . S
C107 O108 1.245 . S
C107 O116 1.289 . S
O108 C107 1.245 . S
C109 O110 1.245 . S
C109 O111 1.289 . S
O110 C109 1.245 . S
O111 Mg104 2.141 . S
O111 C109 1.289 . S
O112 Mg104 2.048 . S
O112 C105 1.195 . S
O113 Mg104 2.048 . S
O113 C114 1.195 . S
C114 O113 1.195 . S
C114 O115 1.313 . S
O115 C114 1.313 . S
O116 Mg104 2.141 . S
O116 C107 1.289 . S
Mg117 O124 2.141 . S
Mg117 O125 2.048 . S
Mg117 O126 2.048 . S
Mg117 O129 2.141 . S
C118 O119 1.313 . S
C118 O125 1.195 . S
O119 C118 1.313 . S
C120 O121 1.245 . S
C120 O129 1.289 . S
O121 C120 1.245 . S
C122 O123 1.245 . S
C122 O124 1.289 . S
O123 C122 1.245 . S
O124 Mg117 2.141 . S
O124 C122 1.289 . S
O125 Mg117 2.048 . S
O125 C118 1.195 . S
O126 Mg117 2.048 . S
O126 C127 1.195 . S
C127 O126 1.195 . S
C127 O128 1.313 . S
O128 C127 1.313 . S
O129 Mg117 2.141 . S
O129 C120 1.289 . S
Mg130 O137 2.141 . S
Mg130 O138 2.048 . S
Mg130 O139 2.048 . S
Mg130 O142 2.141 . S
C131 O132 1.313 . S
C131 O138 1.195 . S
O132 C131 1.313 . S
C133 O134 1.245 . S
C133 O142 1.289 . S
O134 C133 1.245 . S
C135 O136 1.245 . S
C135 O137 1.289 . S
O136 C135 1.245 . S
O137 Mg130 2.141 . S
O137 C135 1.289 . S
O138 Mg130 2.048 . S
O138 C131 1.195 . S
O139 Mg130 2.048 . S
O139 C140 1.195 . S
C140 O139 1.195 . S
C140 O141 1.313 . S
O141 C140 1.313 . S
O142 Mg130 2.141 . S
O142 C133 1.289 . S
Mg143 O150 2.141 . S
Mg143 O151 2.048 . S
Mg143 O152 2.048 . S
Mg143 O155 2.141 . S
C144 O145 1.313 . S
C144 O151 1.195 . S
O145 C144 1.313 . S
C146 O147 1.245 . S
C146 O155 1.289 . S
O147 C146 1.245 . S
C148 O149 1.245 . S
C148 O150 1.289 . S
O149 C148 1.245 . S
O150 Mg143 2.141 . S
O150 C148 1.289 . S
O151 Mg143 2.048 . S
O151 C144 1.195 . S
O152 Mg143 2.048 . S
O152 C153 1.195 . S
C153 O152 1.195 . S
C153 O154 1.313 . S
O154 C153 1.313 . S
O155 Mg143 2.141 . S
O155 C146 1.289 . S
Mg156 O163 2.141 . S
Mg156 O164 2.048 . S
Mg156 O165 2.048 . S
Mg156 O168 2.141 . S
C157 O158 1.313 . S
C157 O164 1.195 . S
O158 C157 1.313 . S
C159 O160 1.245 . S
C159 O168 1.289 . S
O160 C159 1.245 . S
C161 O162 1.245 . S
C161 O163 1.289 . S
O162 C161 1.245 . S
O163 Mg156 2.141 . S
O163 C161 1.289 . S
O164 Mg156 2.048 . S
O164 C157 1.195 . S
O165 Mg156 2.048 . S
O165 C166 1.195 . S
C166 O165 1.195 . S
C166 O167 1.313 . S
O167 C166 1.313 . S
O168 Mg156 2.141 . S
O168 C159 1.289 . S
Mg169 O176 2.141 . S
Mg169 O177 2.048 . S
Mg169 O178 2.048 . S
Mg169 O181 2.141 . S
C170 O171 1.313 . S
C170 O177 1.195 . S
O171 C170 1.313 . S
C172 O173 1.245 . S
C172 O181 1.289 . S
O173 C172 1.245 . S
C174 O175 1.245 . S
C174 O176 1.289 . S
O175 C174 1.245 . S
O176 Mg169 2.141 . S
O176 C174 1.289 . S
O177 Mg169 2.048 . S
O177 C170 1.195 . S
O178 Mg169 2.048 . S
O178 C179 1.195 . S
C179 O178 1.195 . S
C179 O180 1.313 . S
O180 C179 1.313 . S
O181 Mg169 2.141 . S
O181 C172 1.289 . S
Mg182 O189 2.141 . S
Mg182 O190 2.048 . S
Mg182 O191 2.048 . S
Mg182 O194 2.141 . S
C183 O184 1.313 . S
C183 O190 1.195 . S
O184 C183 1.313 . S
C185 O186 1.245 . S
C185 O194 1.289 . S
O186 C185 1.245 . S
C187 O188 1.245 . S
C187 O189 1.289 . S
O188 C187 1.245 . S
O189 Mg182 2.141 . S
O189 C187 1.289 . S
O190 Mg182 2.048 . S
O190 C183 1.195 . S
O191 Mg182 2.048 . S
O191 C192 1.195 . S
C192 O191 1.195 . S
C192 O193 1.313 . S
O193 C192 1.313 . S
O194 Mg182 2.141 . S
O194 C185 1.289 . S
Mg195 O202 2.141 . S
Mg195 O203 2.048 . S
Mg195 O204 2.048 . S
Mg195 O207 2.141 . S
C196 O197 1.313 . S
C196 O203 1.195 . S
O197 C196 1.313 . S
C198 O199 1.245 . S
C198 O207 1.289 . S
O199 C198 1.245 . S
C200 O201 1.245 . S
C200 O202 1.289 . S
O201 C200 1.245 . S
O202 Mg195 2.141 . S
O202 C200 1.289 . S
O203 Mg195 2.048 . S
O203 C196 1.195 . S
O204 Mg195 2.048 . S
O204 C205 1.195 . S
C205 O204 1.195 . S
C205 O206 1.313 . S
O206 C205 1.313 . S
O207 Mg195 2.141 . S
O207 C198 1.289 . S
Mg208 O215 2.141 . S
Mg208 O216 2.048 . S
Mg208 O217 2.048 . S
Mg208 O220 2.141 . S
C209 O210 1.313 . S
C209 O216 1.195 . S
O210 C209 1.313 . S
C211 O212 1.245 . S
C211 O220 1.289 . S
O212 C211 1.245 . S
C213 O214 1.245 . S
C213 O215 1.289 . S
O214 C213 1.245 . S
O215 Mg208 2.141 . S
O215 C213 1.289 . S
O216 Mg208 2.048 . S
O216 C209 1.195 . S
O217 Mg208 2.048 . S
O217 C218 1.195 . S
C218 O217 1.195 . S
C218 O219 1.313 . S
O219 C218 1.313 . S
O220 Mg208 2.141 . S
O220 C211 1.289 . S
Mg221 O228 2.141 . S
Mg221 O229 2.048 . S
Mg221 O230 2.048 . S
Mg221 O233 2.141 . S
C222 O223 1.313 . S
C222 O229 1.195 . S
O223 C222 1.313 . S
C224 O225 1.245 . S
C224 O233 1.289 . S
O225 C224 1.245 . S
C226 O227 1.245 . S
C226 O228 1.289 . S
O227 C226 1.245 . S
O228 Mg221 2.141 . S
O228 C226 1.289 . S
O229 Mg221 2.048 . S
O229 C222 1.195 . S
O230 Mg221 2.048 . S
O230 C231 1.195 . S
C231 O230 1.195 . S
C231 O232 1.313 . S
O232 C231 1.313 . S
O233 Mg221 2.141 . S
O233 C224 1.289 . S
Mg234 O241 2.141 . S
Mg234 O242 2.048 . S
Mg234 O243 2.048 . S
Mg234 O246 2.141 . S
C235 O236 1.313 . S
C235 O242 1.195 . S
O236 C235 1.313 . S
C237 O238 1.245 . S
C237 O246 1.289 . S
O238 C237 1.245 . S
C239 O240 1.245 . S
C239 O241 1.289 . S
O240 C239 1.245 . S
O241 Mg234 2.141 . S
O241 C239 1.289 . S
O242 Mg234 2.048 . S
O242 C235 1.195 . S
O243 Mg234 2.048 . S
O243 C244 1.195 . S
C244 O243 1.195 . S
C244 O245 1.313 . S
O245 C244 1.313 . S
O246 Mg234 2.141 . S
O246 C237 1.289 . S
Mg247 O254 2.141 . S
Mg247 O255 2.048 . S
Mg247 O256 2.048 . S
Mg247 O259 2.141 . S
C248 O249 1.313 . S
C248 O255 1.195 . S
O249 C248 1.313 . S
C250 O251 1.245 . S
C250 O259 1.289 . S
O251 C250 1.245 . S
C252 O253 1.245 . S
C252 O254 1.289 . S
O253 C252 1.245 . S
O254 Mg247 2.141 . S
O254 C252 1.289 . S
O255 Mg247 2.048 . S
O255 C248 1.195 . S
O256 Mg247 2.048 . S
O256 C257 1.195 . S
C257 O256 1.195 . S
C257 O258 1.313 . S
O258 C257 1.313 . S
O259 Mg247 2.141 . S
O259 C250 1.289 . S
Mg260 O267 2.141 . S
Mg260 O268 2.048 . S
Mg260 O269 2.048 . S
Mg260 O272 2.141 . S
C261 O262 1.313 . S
C261 O268 1.195 . S
O262 C261 1.313 . S
C263 O264 1.245 . S
C263 O272 1.289 . S
O264 C263 1.245 . S
C265 O266 1.245 . S
C265 O267 1.289 . S
O266 C265 1.245 . S
O267 Mg260 2.141 . S
O267 C265 1.289 . S
O268 Mg260 2.048 . S
O268 C261 1.195 . S
O269 Mg260 2.048 . S
O269 C270 1.195 . S
C270 O269 1.195 . S
C270 O271 1.313 . S
O271 C270 1.313 . S
O272 Mg260 2.141 . S
O272 C263 1.289 . S
Mg273 O280 2.141 . S
Mg273 O281 2.048 . S
Mg273 O282 2.048 . S
Mg273 O285 2.141 . S
C274 O275 1.313 . S
C274 O281 1.195 . S
O275 C274 1.313 . S
C276 O277 1.245 . S
C276 O285 1.289 . S
O277 C276 1.245 . S
C278 O279 1.245 . S
C278 O280 1.289 . S
O279 C278 1.245 . S
O280 Mg273 2.141 . S
O280 C278 1.289 . S
O281 Mg273 2.048 . S
O281 C274 1.195 . S
O282 Mg273 2.048 . S
O282 C283 1.195 . S
C283 O282 1.195 . S
C283 O284 1.313 . S
O284 C283 1.313 . S
O285 Mg273 2.141 . S
O285 C276 1.289 . S
Mg286 O293 2.141 . S
Mg286 O294 2.048 . S
Mg286 O295 2.048 . S
Mg286 O298 2.141 . S
C287 O288 1.313 . S
C287 O294 1.195 . S
O288 C287 1.313 . S
C289 O290 1.245 . S
C289 O298 1.289 . S
O290 C289 1.245 . S
C291 O292 1.245 . S
C291 O293 1.289 . S
O292 C291 1.245 . S
O293 Mg286 2.141 . S
O293 C291 1.289 . S
O294 Mg286 2.048 . S
O294 C287 1.195 . S
O295 Mg286 2.048 . S
O295 C296 1.195 . S
C296 O295 1.195 . S
C296 O297 1.313 . S
O297 C296 1.313 . S
O298 Mg286 2.141 . S
O298 C289 1.289 . S
Mg299 O306 2.141 . S
Mg299 O307 2.048 . S
Mg299 O308 2.048 . S
Mg299 O311 2.141 . S
C300 O301 1.313 . S
C300 O307 1.195 . S
O301 C300 1.313 . S
C302 O303 1.245 . S
C302 O311 1.289 . S
O303 C302 1.245 . S
C304 O305 1.245 . S
C304 O306 1.289 . S
O305 C304 1.245 . S
O306 Mg299 2.141 . S
O306 C304 1.289 . S
O307 Mg299 2.048 . S
O307 C300 1.195 . S
O308 Mg299 2.048 . S
O308 C309 1.195 . S
C309 O308 1.195 . S
C309 O310 1.313 . S
O310 C309 1.313 . S
O311 Mg299 2.141 . S
O311 C302 1.289 . S
Mg312 O319 2.141 . S
Mg312 O320 2.048 . S
Mg312 O321 2.048 . S
Mg312 O324 2.141 . S
C313 O314 1.313 . S
C313 O320 1.195 . S
O314 C313 1.313 . S
C315 O316 1.245 . S
C315 O324 1.289 . S
O316 C315 1.245 . S
C317 O318 1.245 . S
C317 O319 1.289 . S
O318 C317 1.245 . S
O319 Mg312 2.141 . S
O319 C317 1.289 . S
O320 Mg312 2.048 . S
O320 C313 1.195 . S
O321 Mg312 2.048 . S
O321 C322 1.195 . S
C322 O321 1.195 . S
C322 O323 1.313 . S
O323 C322 1.313 . S
O324 Mg312 2.141 . S
O324 C315 1.289 . S
Mg325 O332 2.141 . S
Mg325 O333 2.048 . S
Mg325 O334 2.048 . S
Mg325 O337 2.141 . S
C326 O327 1.313 . S
C326 O333 1.195 . S
O327 C326 1.313 . S
C328 O329 1.245 . S
C328 O337 1.289 . S
O329 C328 1.245 . S
C330 O331 1.245 . S
C330 O332 1.289 . S
O331 C330 1.245 . S
O332 Mg325 2.141 . S
O332 C330 1.289 . S
O333 Mg325 2.048 . S
O333 C326 1.195 . S
O334 Mg325 2.048 . S
O334 C335 1.195 . S
C335 O334 1.195 . S
C335 O336 1.313 . S
O336 C335 1.313 . S
O337 Mg325 2.141 . S
O337 C328 1.289 . S
Mg338 O345 2.141 . S
Mg338 O346 2.048 . S
Mg338 O347 2.048 . S
Mg338 O350 2.141 . S
C339 O340 1.313 . S
C339 O346 1.195 . S
O340 C339 1.313 . S
C341 O342 1.245 . S
C341 O350 1.289 . S
O342 C341 1.245 . S
C343 O344 1.245 . S
C343 O345 1.289 . S
O344 C343 1.245 . S
O345 Mg338 2.141 . S
O345 C343 1.289 . S
O346 Mg338 2.048 . S
O346 C339 1.195 . S
O347 Mg338 2.048 . S
O347 C348 1.195 . S
C348 O347 1.195 . S
C348 O349 1.313 . S
O349 C348 1.313 . S
O350 Mg338 2.141 . S
O350 C341 1.289 . S
Mg351 O358 2.141 . S
Mg351 O359 2.048 . S
Mg351 O360 2.048 . S
Mg351 O363 2.141 . S
C352 O353 1.313 . S
C352 O359 1.195 . S
O353 C352 1.313 . S
C354 O355 1.245 . S
C354 O363 1.289 . S
O355 C354 1.245 . S
C356 O357 1.245 . S
C356 O358 1.289 . S
O357 C356 1.245 . S
O358 Mg351 2.141 . S
O358 C356 1.289 . S
O359 Mg351 2.048 . S
O359 C352 1.195 . S
O360 Mg351 2.048 . S
O360 C361 1.195 . S
C361 O360 1.195 . S
C361 O362 1.313 . S
O362 C361 1.313 . S
O363 Mg351 2.141 . S
O363 C354 1.289 . S
Mg364 O371 2.141 . S
Mg364 O372 2.048 . S
Mg364 O373 2.048 . S
Mg364 O376 2.141 . S
C365 O366 1.313 . S
C365 O372 1.195 . S
O366 C365 1.313 . S
C367 O368 1.245 . S
C367 O376 1.289 . S
O368 C367 1.245 . S
C369 O370 1.245 . S
C369 O371 1.289 . S
O370 C369 1.245 . S
O371 Mg364 2.141 . S
O371 C369 1.289 . S
O372 Mg364 2.048 . S
O372 C365 1.195 . S
O373 Mg364 2.048 . S
O373 C374 1.195 . S
C374 O373 1.195 . S
C374 O375 1.313 . S
O375 C374 1.313 . S
O376 Mg364 2.141 . S
O376 C367 1.289 . S
Mg377 O384 2.141 . S
Mg377 O385 2.048 . S
Mg377 O386 2.048 . S
Mg377 O389 2.141 . S
C378 O379 1.313 . S
C378 O385 1.195 . S
O379 C378 1.313 . S
C380 O381 1.245 . S
C380 O389 1.289 . S
O381 C380 1.245 . S
C382 O383 1.245 . S
C382 O384 1.289 . S
O383 C382 1.245 . S
O384 Mg377 2.141 . S
O384 C382 1.289 . S
O385 Mg377 2.048 . S
O385 C378 1.195 . S
O386 Mg377 2.048 . S
O386 C387 1.195 . S
C387 O386 1.195 . S
C387 O388 1.313 . S
O388 C387 1.313 . S
O389 Mg377 2.141 . S
O389 C380 1.289 . S
Mg390 O397 2.141 . S
Mg390 O398 2.048 . S
Mg390 O399 2.048 . S
Mg390 O402 2.141 . S
C391 O392 1.313 . S
C391 O398 1.195 . S
O392 C391 1.313 . S
C393 O394 1.245 . S
C393 O402 1.289 . S
O394 C393 1.245 . S
C395 O396 1.245 . S
C395 O397 1.289 . S
O396 C395 1.245 . S
O397 Mg390 2.141 . S
O397 C395 1.289 . S
O398 Mg390 2.048 . S
O398 C391 1.195 . S
O399 Mg390 2.048 . S
O399 C400 1.195 . S
C400 O399 1.195 . S
C400 O401 1.313 . S
O401 C400 1.313 . S
O402 Mg390 2.141 . S
O402 C393 1.289 . S
Mg403 O410 2.141 . S
Mg403 O411 2.048 . S
Mg403 O412 2.048 . S
Mg403 O415 2.141 . S
C404 O405 1.313 . S
C404 O411 1.195 . S
O405 C404 1.313 . S
C406 O407 1.245 . S
C406 O415 1.289 . S
O407 C406 1.245 . S
C408 O409 1.245 . S
C408 O410 1.289 . S
O409 C408 1.245 . S
O410 Mg403 2.141 . S
O410 C408 1.289 . S
O411 Mg403 2.048 . S
O411 C404 1.195 . S
O412 Mg403 2.048 . S
O412 C413 1.195 . S
C413 O412 1.195 . S
C413 O414 1.313 . S
O414 C413 1.313 . S
O415 Mg403 2.141 . S
O415 C406 1.289 . S
Mg416 O423 2.141 . S
Mg416 O424 2.048 . S
Mg416 O425 2.048 . S
Mg416 O428 2.141 . S
C417 O418 1.313 . S
C417 O424 1.195 . S
O418 C417 1.313 . S
C419 O420 1.245 . S
C419 O428 1.289 . S
O420 C419 1.245 . S
C421 O422 1.245 . S
C421 O423 1.289 . S
O422 C421 1.245 . S
O423 Mg416 2.141 . S
O423 C421 1.289 . S
O424 Mg416 2.048 . S
O424 C417 1.195 . S
O425 Mg416 2.048 . S
O425 C426 1.195 . S
C426 O425 1.195 . S
C426 O427 1.313 . S
O427 C426 1.313 . S
O428 Mg416 2.141 . S
O428 C419 1.289 . S
Mg429 O436 2.141 . S
Mg429 O437 2.048 . S
Mg429 O438 2.048 . S
Mg429 O441 2.141 . S
C430 O431 1.313 . S
C430 O437 1.195 . S
O431 C430 1.313 . S
C432 O433 1.245 . S
C432 O441 1.289 . S
O433 C432 1.245 . S
C434 O435 1.245 . S
C434 O436 1.289 . S
O435 C434 1.245 . S
O436 Mg429 2.141 . S
O436 C434 1.289 . S
O437 Mg429 2.048 . S
O437 C430 1.195 . S
O438 Mg429 2.048 . S
O438 C439 1.195 . S
C439 O438 1.195 . S
C439 O440 1.313 . S
O440 C439 1.313 . S
O441 Mg429 2.141 . S
O441 C432 1.289 . S
Mg442 O449 2.141 . S
Mg442 O450 2.048 . S
Mg442 O451 2.048 . S
Mg442 O454 2.141 . S
C443 O444 1.313 . S
C443 O450 1.195 . S
O444 C443 1.313 . S
C445 O446 1.245 . S
C445 O454 1.289 . S
O446 C445 1.245 . S
C447 O448 1.245 . S
C447 O449 1.289 . S
O448 C447 1.245 . S
O449 Mg442 2.141 . S
O449 C447 1.289 . S
O450 Mg442 2.048 . S
O450 C443 1.195 . S
O451 Mg442 2.048 . S
O451 C452 1.195 . S
C452 O451 1.195 . S
C452 O453 1.313 . S
O453 C452 1.313 . S
O454 Mg442 2.141 . S
O454 C445 1.289 . S
Mg455 O462 2.141 . S
Mg455 O463 2.048 . S
Mg455 O464 2.048 . S
Mg455 O467 2.141 . S
C456 O457 1.313 . S
C456 O463 1.195 . S
O457 C456 1.313 . S
C458 O459 1.245 . S
C458 O467 1.289 . S
O459 C458 1.245 . S
C460 O461 1.245 . S
C460 O462 1.289 . S
O461 C460 1.245 . S
O462 Mg455 2.141 . S
O462 C460 1.289 . S
O463 Mg455 2.048 . S
O463 C456 1.195 . S
O464 Mg455 2.048 . S
O464 C465 1.195 . S
C465 O464 1.195 . S
C465 O466 1.313 . S
O466 C465 1.313 . S
O467 Mg455 2.141 . S
O467 C458 1.289 . S
Mg468 O475 2.141 . S
Mg468 O476 2.048 . S
Mg468 O477 2.048 . S
Mg468 O480 2.141 . S
C469 O470 1.313 . S
C469 O476 1.195 . S
O470 C469 1.313 . S
C471 O472 1.245 . S
C471 O480 1.289 . S
O472 C471 1.245 . S
C473 O474 1.245 . S
C473 O475 1.289 . S
O474 C473 1.245 . S
O475 Mg468 2.141 . S
O475 C473 1.289 . S
O476 Mg468 2.048 . S
O476 C469 1.195 . S
O477 Mg468 2.048 . S
O477 C478 1.195 . S
C478 O477 1.195 . S
C478 O479 1.313 . S
O479 C478 1.313 . S
O480 Mg468 2.141 . S
O480 C471 1.289 . S
Mg481 O488 2.141 . S
Mg481 O489 2.048 . S
Mg481 O490 2.048 . S
Mg481 O493 2.141 . S
C482 O483 1.313 . S
C482 O489 1.195 . S
O483 C482 1.313 . S
C484 O485 1.245 . S
C484 O493 1.289 . S
O485 C484 1.245 . S
C486 O487 1.245 . S
C486 O488 1.289 . S
O487 C486 1.245 . S
O488 Mg481 2.141 . S
O488 C486 1.289 . S
O489 Mg481 2.048 . S
O489 C482 1.195 . S
O490 Mg481 2.048 . S
O490 C491 1.195 . S
C491 O490 1.195 . S
C491 O492 1.313 . S
O492 C491 1.313 . S
O493 Mg481 2.141 . S
O493 C484 1.289 . S
Mg494 O501 2.141 . S
Mg494 O502 2.048 . S
Mg494 O503 2.048 . S
Mg494 O506 2.141 . S
C495 O496 1.313 . S
C495 O502 1.195 . S
O496 C495 1.313 . S
C497 O498 1.245 . S
C497 O506 1.289 . S
O498 C497 1.245 . S
C499 O500 1.245 . S
C499 O501 1.289 . S
O500 C499 1.245 . S
O501 Mg494 2.141 . S
O501 C499 1.289 . S
O502 Mg494 2.048 . S
O502 C495 1.195 . S
O503 Mg494 2.048 . S
O503 C504 1.195 . S
C504 O503 1.195 . S
C504 O505 1.313 . S
O505 C504 1.313 . S
O506 Mg494 2.141 . S
O506 C497 1.289 . S
Mg507 O514 2.141 . S
Mg507 O515 2.048 . S
Mg507 O516 2.048 . S
Mg507 O519 2.141 . S
C508 O509 1.313 . S
C508 O515 1.195 . S
O509 C508 1.313 . S
C510 O511 1.245 . S
C510 O519 1.289 . S
O511 C510 1.245 . S
C512 O513 1.245 . S
C512 O514 1.289 . S
O513 C512 1.245 . S
O514 Mg507 2.141 . S
O514 C512 1.289 . S
O515 Mg507 2.048 . S
O515 C508 1.195 . S
O516 Mg507 2.048 . S
O516 C517 1.195 . S
C517 O516 1.195 . S
C517 O518 1.313 . S
O518 C517 1.313 . S
O519 Mg507 2.141 . S
O519 C510 1.289 . S
Mg520 O527 2.141 . S
Mg520 O528 2.048 . S
Mg520 O529 2.048 . S
Mg520 O532 2.141 . S
C521 O522 1.313 . S
C521 O528 1.195 . S
O522 C521 1.313 . S
C523 O524 1.245 . S
C523 O532 1.289 . S
O524 C523 1.245 . S
C525 O526 1.245 . S
C525 O527 1.289 . S
O526 C525 1.245 . S
O527 Mg520 2.141 . S
O527 C525 1.289 . S
O528 Mg520 2.048 . S
O528 C521 1.195 . S
O529 Mg520 2.048 . S
O529 C530 1.195 . S
C530 O529 1.195 . S
C530 O531 1.313 . S
O531 C530 1.313 . S
O532 Mg520 2.141 . S
O532 C523 1.289 . S
Mg533 O540 2.141 . S
Mg533 O541 2.048 . S
Mg533 O542 2.048 . S
Mg533 O545 2.141 . S
C534 O535 1.313 . S
C534 O541 1.195 . S
O535 C534 1.313 . S
C536 O537 1.245 . S
C536 O545 1.289 . S
O537 C536 1.245 . S
C538 O539 1.245 . S
C538 O540 1.289 . S
O539 C538 1.245 . S
O540 Mg533 2.141 . S
O540 C538 1.289 . S
O541 Mg533 2.048 . S
O541 C534 1.195 . S
O542 Mg533 2.048 . S
O542 C543 1.195 . S
C543 O542 1.195 . S
C543 O544 1.313 . S
O544 C543 1.313 . S
O545 Mg533 2.141 . S
O545 C536 1.289 . S
Mg546 O553 2.141 . S
Mg546 O554 2.048 . S
Mg546 O555 2.048 . S
Mg546 O558 2.141 . S
C547 O548 1.313 . S
C547 O554 1.195 . S
O548 C547 1.313 . S
C549 O550 1.245 . S
C549 O558 1.289 . S
O550 C549 1.245 . S
C551 O552 1.245 . S
C551 O553 1.289 . S
O552 C551 1.245 . S
O553 Mg546 2.141 . S
O553 C551 1.289 . S
O554 Mg546 2.048 . S
O554 C547 1.195 . S
O555 Mg546 2.048 . S
O555 C556 1.195 . S
C556 O555 1.195 . S
C556 O557 1.313 . S
O557 C556 1.313 . S
O558 Mg546 2.141 . S
O558 C549 1.289 . S
Mg559 O566 2.141 . S
Mg559 O567 2.048 . S
Mg559 O568 2.048 . S
Mg559 O571 2.141 . S
C560 O561 1.313 . S
C560 O567 1.195 . S
O561 C560 1.313 . S
C562 O563 1.245 . S
C562 O571 1.289 . S
O563 C562 1.245 . S
C564 O565 1.245 . S
C564 O566 1.289 . S
O565 C564 1.245 . S
O566 Mg559 2.141 . S
O566 C564 1.289 . S
O567 Mg559 2.048 . S
O567 C560 1.195 . S
O568 Mg559 2.048 . S
O568 C569 1.195 . S
C569 O568 1.195 . S
C569 O570 1.313 . S
O570 C569 1.313 . S
O571 Mg559 2.141 . S
O571 C562 1.289 . S
Mg572 O579 2.141 . S
Mg572 O580 2.048 . S
Mg572 O581 2.048 . S
Mg572 O584 2.141 . S
C573 O574 1.313 . S
C573 O580 1.195 . S
O574 C573 1.313 . S
C575 O576 1.245 . S
C575 O584 1.289 . S
O576 C575 1.245 . S
C577 O578 1.245 . S
C577 O579 1.289 . S
O578 C577 1.245 . S
O579 Mg572 2.141 . S
O579 C577 1.289 . S
O580 Mg572 2.048 . S
O580 C573 1.195 . S
O581 Mg572 2.048 . S
O581 C582 1.195 . S
C582 O581 1.195 . S
C582 O583 1.313 . S
O583 C582 1.313 . S
O584 Mg572 2.141 . S
O584 C575 1.289 . S
Mg585 O592 2.141 . S
Mg585 O593 2.048 . S
Mg585 O594 2.048 . S
Mg585 O597 2.141 . S
C586 O587 1.313 . S
C586 O593 1.195 . S
O587 C586 1.313 . S
C588 O589 1.245 . S
C588 O597 1.289 . S
O589 C588 1.245 . S
C590 O591 1.245 . S
C590 O592 1.289 . S
O591 C590 1.245 . S
O592 Mg585 2.141 . S
O592 C590 1.289 . S
O593 Mg585 2.048 . S
O593 C586 1.195 . S
O594 Mg585 2.048 . S
O594 C595 1.195 . S
C595 O594 1.195 . S
C595 O596 1.313 . S
O596 C595 1.313 . S
O597 Mg585 2.141 . S
O597 C588 1.289 . S
Mg598 O605 2.141 . S
Mg598 O606 2.048 . S
Mg598 O607 2.048 . S
Mg598 O610 2.141 . S
C599 O600 1.313 . S
C599 O606 1.195 . S
O600 C599 1.313 . S
C601 O602 1.245 . S
C601 O610 1.289 . S
O602 C601 1.245 . S
C603 O604 1.245 . S
C603 O605 1.289 . S
O604 C603 1.245 . S
O605 Mg598 2.141 . S
O605 C603 1.289 . S
O606 Mg598 2.048 . S
O606 C599 1.195 . S
O607 Mg598 2.048 . S
O607 C608 1.195 . S
C608 O607 1.195 . S
C608 O609 1.313 . S
O609 C608 1.313 . S
O610 Mg598 2.141 . S
O610 C601 1.289 . S
Mg611 O618 2.141 . S
Mg611 O619 2.048 . S
Mg611 O620 2.048 . S
Mg611 O623 2.141 . S
C612 O613 1.313 . S
C612 O619 1.195 . S
O613 C612 1.313 . S
C614 O615 1.245 . S
C614 O623 1.289 . S
O615 C614 1.245 . S
C616 O617 1.245 . S
C616 O618 1.289 . S
O617 C616 1.245 . S
O618 Mg611 2.141 . S
O618 C616 1.289 . S
O619 Mg611 2.048 . S
O619 C612 1.195 . S
O620 Mg611 2.048 . S
O620 C621 1.195 . S
C621 O620 1.195 . S
C621 O622 1.313 . S
O622 C621 1.313 . S
O623 Mg611 2.141 . S
O623 C614 1.289 . S
C624 C625 1.369 . S
C624 C626 1.419 1_565 S
C624 H628 0.930 . S
C625 C624 1.369 . S
C625 C634 1.429 . S
C626 C624 1.419 1_545 S
C626 C627 1.363 . S
C626 H629 0.929 . S
C627 C626 1.363 . S
C627 C633 1.428 . S
H628 C624 0.930 . S
H629 C626 0.929 . S
S630 N631 1.613 . S
S630 N632 1.610 1_565 S
N631 S630 1.613 . S
N631 C634 1.350 . S
N632 S630 1.610 1_545 S
N632 C633 1.351 . S
C633 C627 1.428 . S
C633 N632 1.351 . S
C633 C634 1.434 1_545 S
C634 C625 1.429 . S
C634 N631 1.350 . S
C634 C633 1.434 1_565 S
C635 C636 1.369 . S
C635 C637 1.419 1_455 S
C635 H639 0.930 . S
C636 C635 1.369 . S
C636 C645 1.429 . S
C637 C635 1.419 1_655 S
C637 C638 1.363 . S
C637 H640 0.929 . S
C638 C637 1.363 . S
C638 C644 1.428 . S
H639 C635 0.930 . S
H640 C637 0.929 . S
S641 N642 1.614 . S
S641 N643 1.610 1_455 S
N642 S641 1.614 . S
N642 C645 1.350 . S
N643 S641 1.610 1_655 S
N643 C644 1.351 . S
C644 C638 1.428 . S
C644 N643 1.351 . S
C644 C645 1.434 1_655 S
C645 C636 1.429 . S
C645 N642 1.350 . S
C645 C644 1.434 1_455 S
C646 C647 1.369 . S
C646 C648 1.419 1_565 S
C646 H650 0.930 . S
C647 C646 1.369 . S
C647 C656 1.429 . S
C648 C646 1.419 1_545 S
C648 C649 1.363 . S
C648 H651 0.929 . S
C649 C648 1.363 . S
C649 C655 1.428 . S
H650 C646 0.930 . S
H651 C648 0.929 . S
S652 N653 1.632 . S
S652 N654 1.591 1_565 S
N653 S652 1.632 . S
N653 C656 1.350 . S
N654 S652 1.591 1_545 S
N654 C655 1.351 . S
C655 C649 1.428 . S
C655 N654 1.351 . S
C655 C656 1.434 1_545 S
C656 C647 1.429 . S
C656 N653 1.350 . S
C656 C655 1.434 1_565 S
C657 C658 1.369 . S
C657 C659 1.419 1_655 S
C657 H661 0.930 . S
C658 C657 1.369 . S
C658 C667 1.429 . S
C659 C657 1.419 1_455 S
C659 C660 1.363 . S
C659 H662 0.929 . S
C660 C659 1.363 . S
C660 C666 1.428 . S
H661 C657 0.930 . S
H662 C659 0.929 . S
S663 N664 1.613 1_455 S
S663 N665 1.610 . S
N664 S663 1.613 1_655 S
N664 C667 1.350 . S
N665 S663 1.610 . S
N665 C666 1.351 . S
C666 C660 1.428 . S
C666 N665 1.351 . S
C666 C667 1.434 1_455 S
C667 C658 1.429 . S
C667 N664 1.350 . S
C667 C666 1.434 1_655 S
C668 C669 1.369 . S
C668 C670 1.419 1_565 S
C668 H672 0.930 . S
C669 C668 1.369 . S
C669 C678 1.429 . S
C670 C668 1.419 1_545 S
C670 C671 1.363 . S
C670 H673 0.929 . S
C671 C670 1.363 . S
C671 C677 1.428 . S
H672 C668 0.930 . S
H673 C670 0.929 . S
S674 N675 1.613 . S
S674 N676 1.610 1_565 S
N675 S674 1.613 . S
N675 C678 1.350 . S
N676 S674 1.610 1_545 S
N676 C677 1.351 . S
C677 C671 1.428 . S
C677 N676 1.351 . S
C677 C678 1.434 1_545 S
C678 C669 1.429 . S
C678 N675 1.350 . S
C678 C677 1.434 1_565 S
C679 C680 1.369 . S
C679 C681 1.419 1_655 S
C679 H683 0.930 . S
C680 C679 1.369 . S
C680 C689 1.429 . S
C681 C679 1.419 1_455 S
C681 C682 1.363 . S
C681 H684 0.929 . S
C682 C681 1.363 . S
C682 C688 1.428 . S
H683 C679 0.930 . S
H684 C681 0.929 . S
S685 N686 1.613 1_455 S
S685 N687 1.610 . S
N686 S685 1.613 1_655 S
N686 C689 1.350 . S
N687 S685 1.610 . S
N687 C688 1.351 . S
C688 C682 1.428 . S
C688 N687 1.351 . S
C688 C689 1.434 1_455 S
C689 C680 1.429 . S
C689 N686 1.350 . S
C689 C688 1.434 1_655 S
C690 C691 1.369 . S
C690 C692 1.419 1_545 S
C690 H694 0.930 . S
C691 C690 1.369 . S
C691 C700 1.429 . S
C692 C690 1.419 1_565 S
C692 C693 1.363 . S
C692 H695 0.929 . S
C693 C692 1.363 . S
C693 C699 1.428 . S
H694 C690 0.930 . S
H695 C692 0.929 . S
S696 N697 1.613 . S
S696 N698 1.610 1_545 S
N697 S696 1.613 . S
N697 C700 1.350 . S
N698 S696 1.610 1_565 S
N698 C699 1.351 . S
C699 C693 1.428 . S
C699 N698 1.351 . S
C699 C700 1.434 1_565 S
C700 C691 1.429 . S
C700 N697 1.350 . S
C700 C699 1.434 1_545 S
C701 C702 1.369 . S
C701 C703 1.419 1_455 S
C701 H705 0.930 . S
C702 C701 1.369 . S
C702 C711 1.429 . S
C703 C701 1.419 1_655 S
C703 C704 1.363 . S
C703 H706 0.929 . S
C704 C703 1.363 . S
C704 C710 1.428 . S
H705 C701 0.930 . S
H706 C703 0.929 . S
S707 N708 1.613 1_655 S
S707 N709 1.610 . S
N708 S707 1.613 1_455 S
N708 C711 1.350 . S
N709 S707 1.610 . S
N709 C710 1.351 . S
C710 C704 1.428 . S
C710 N709 1.351 . S
C710 C711 1.434 1_655 S
C711 C702 1.429 . S
C711 N708 1.350 . S
C711 C710 1.434 1_455 S
C712 C713 1.369 . S
C712 C714 1.419 1_554 S
C712 H716 0.930 . S
C713 C712 1.369 . S
C713 C722 1.429 . S
C714 C712 1.419 1_556 S
C714 C715 1.363 . S
C714 H717 0.929 . S
C715 C714 1.363 . S
C715 C721 1.428 . S
H716 C712 0.930 . S
H717 C714 0.929 . S
S718 N719 1.613 . S
S718 N720 1.610 1_554 S
N719 S718 1.613 . S
N719 C722 1.350 . S
N720 S718 1.610 1_556 S
N720 C721 1.351 . S
C721 C715 1.428 . S
C721 N720 1.351 . S
C721 C722 1.434 1_556 S
C722 C713 1.429 . S
C722 N719 1.350 . S
C722 C721 1.434 1_554 S
C723 C724 1.369 . S
C723 C725 1.419 1_556 S
C723 H727 0.930 . S
C724 C723 1.369 . S
C724 C733 1.429 . S
C725 C723 1.419 1_554 S
C725 C726 1.363 . S
C725 H728 0.929 . S
C726 C725 1.363 . S
C726 C732 1.428 . S
H727 C723 0.930 . S
H728 C725 0.929 . S
S729 N730 1.613 . S
S729 N731 1.610 1_556 S
N730 S729 1.613 . S
N730 C733 1.350 . S
N731 S729 1.610 1_554 S
N731 C732 1.351 . S
C732 C726 1.428 . S
C732 N731 1.351 . S
C732 C733 1.434 1_554 S
C733 C724 1.429 . S
C733 N730 1.350 . S
C733 C732 1.434 1_556 S
C734 C735 1.369 . S
C734 C736 1.419 1_556 S
C734 H738 0.930 . S
C735 C734 1.369 . S
C735 C744 1.429 . S
C736 C734 1.419 1_554 S
C736 C737 1.363 . S
C736 H739 0.929 . S
C737 C736 1.363 . S
C737 C743 1.428 . S
H738 C734 0.930 . S
H739 C736 0.929 . S
S740 N741 1.613 1_554 S
S740 N742 1.610 . S
N741 S740 1.613 1_556 S
N741 C744 1.350 . S
N742 S740 1.610 . S
N742 C743 1.351 . S
C743 C737 1.428 . S
C743 N742 1.351 . S
C743 C744 1.434 1_554 S
C744 C735 1.429 . S
C744 N741 1.350 . S
C744 C743 1.434 1_556 S
C745 C746 1.369 . S
C745 C747 1.419 1_556 S
C745 H749 0.930 . S
C746 C745 1.369 . S
C746 C755 1.429 . S
C747 C745 1.419 1_554 S
C747 C748 1.363 . S
C747 H750 0.929 . S
C748 C747 1.363 . S
C748 C754 1.428 . S
H749 C745 0.930 . S
H750 C747 0.929 . S
S751 N752 1.619 . S
S751 N753 1.605 1_556 S
N752 S751 1.619 . S
N752 C755 1.350 . S
N753 S751 1.605 1_554 S
N753 C754 1.351 . S
C754 C748 1.428 . S
C754 N753 1.351 . S
C754 C755 1.434 1_554 S
C755 C746 1.429 . S
C755 N752 1.350 . S
C755 C754 1.434 1_556 S
C756 C757 1.369 . S
C756 C758 1.419 1_554 S
C756 H760 0.930 . S
C757 C756 1.369 . S
C757 C766 1.429 . S
C758 C756 1.419 1_556 S
C758 C759 1.363 . S
C758 H761 0.929 . S
C759 C758 1.363 . S
C759 C765 1.428 . S
H760 C756 0.930 . S
H761 C758 0.929 . S
S762 N763 1.613 1_556 S
S762 N764 1.610 . S
N763 S762 1.613 1_554 S
N763 C766 1.350 . S
N764 S762 1.610 . S
N764 C765 1.351 . S
C765 C759 1.428 . S
C765 N764 1.351 . S
C765 C766 1.434 1_556 S
C766 C757 1.429 . S
C766 N763 1.350 . S
C766 C765 1.434 1_554 S
C767 C768 1.369 . S
C767 C769 1.419 1_556 S
C767 H771 0.930 . S
C768 C767 1.369 . S
C768 C777 1.429 . S
C769 C767 1.419 1_554 S
C769 C770 1.363 . S
C769 H772 0.929 . S
C770 C769 1.363 . S
C770 C776 1.428 . S
H771 C767 0.930 . S
H772 C769 0.929 . S
S773 N774 1.613 1_554 S
S773 N775 1.610 . S
N774 S773 1.613 1_556 S
N774 C777 1.350 . S
N775 S773 1.610 . S
N775 C776 1.351 . S
C776 C770 1.428 . S
C776 N775 1.351 . S
C776 C777 1.434 1_554 S
C777 C768 1.429 . S
C777 N774 1.350 . S
C777 C776 1.434 1_556 S
C778 C779 1.369 . S
C778 C780 1.419 1_554 S
C778 H782 0.930 . S
C779 C778 1.369 . S
C779 C788 1.429 . S
C780 C778 1.419 1_556 S
C780 C781 1.363 . S
C780 H783 0.929 . S
C781 C780 1.363 . S
C781 C787 1.428 . S
H782 C778 0.930 . S
H783 C780 0.929 . S
S784 N785 1.613 . S
S784 N786 1.610 1_554 S
N785 S784 1.613 . S
N785 C788 1.350 . S
N786 S784 1.610 1_556 S
N786 C787 1.351 . S
C787 C781 1.428 . S
C787 N786 1.351 . S
C787 C788 1.434 1_556 S
C788 C779 1.429 . S
C788 N785 1.350 . S
C788 C787 1.434 1_554 S
C789 C790 1.369 . S
C789 C791 1.419 1_556 S
C789 H793 0.930 . S
C790 C789 1.369 . S
C790 C799 1.429 . S
C791 C789 1.419 1_554 S
C791 C792 1.363 . S
C791 H794 0.929 . S
C792 C791 1.363 . S
C792 C798 1.428 . S
H793 C789 0.930 . S
H794 C791 0.929 . S
S795 N796 1.613 . S
S795 N797 1.610 1_556 S
N796 S795 1.613 . S
N796 C799 1.350 . S
N797 S795 1.610 1_554 S
N797 C798 1.351 . S
C798 C792 1.428 . S
C798 N797 1.351 . S
C798 C799 1.434 1_554 S
C799 C790 1.429 . S
C799 N796 1.350 . S
C799 C798 1.434 1_556 S
C800 C801 1.369 . S
C800 C802 1.419 1_455 S
C800 H804 0.930 . S
C801 C800 1.369 . S
C801 C810 1.429 . S
C802 C800 1.419 1_655 S
C802 C803 1.363 . S
C802 H805 0.929 . S
C803 C802 1.363 . S
C803 C809 1.428 . S
H804 C800 0.930 . S
H805 C802 0.929 . S
S806 N807 1.613 1_655 S
S806 N808 1.610 . S
N807 S806 1.613 1_455 S
N807 C810 1.350 . S
N808 S806 1.610 . S
N808 C809 1.351 . S
C809 C803 1.428 . S
C809 N808 1.351 . S
C809 C810 1.434 1_655 S
C810 C801 1.429 . S
C810 N807 1.350 . S
C810 C809 1.434 1_455 S
C811 C812 1.369 . S
C811 C813 1.419 1_455 S
C811 H815 0.930 . S
C812 C811 1.369 . S
C812 C821 1.429 . S
C813 C811 1.419 1_655 S
C813 C814 1.363 . S
C813 H816 0.929 . S
C814 C813 1.363 . S
C814 C820 1.428 . S
H815 C811 0.930 . S
H816 C813 0.929 . S
S817 N818 1.613 1_655 S
S817 N819 1.610 . S
N818 S817 1.613 1_455 S
N818 C821 1.350 . S
N819 S817 1.610 . S
N819 C820 1.351 . S
C820 C814 1.428 . S
C820 N819 1.351 . S
C820 C821 1.434 1_655 S
C821 C812 1.429 . S
C821 N818 1.350 . S
C821 C820 1.434 1_455 S
C822 C823 1.369 . S
C822 C824 1.419 1_565 S
C822 H826 0.930 . S
C823 C822 1.369 . S
C823 C832 1.429 . S
C824 C822 1.419 1_545 S
C824 C825 1.363 . S
C824 H827 0.929 . S
C825 C824 1.363 . S
C825 C831 1.428 . S
H826 C822 0.930 . S
H827 C824 0.929 . S
S828 N829 1.613 1_545 S
S828 N830 1.610 . S
N829 S828 1.613 1_565 S
N829 C832 1.350 . S
N830 S828 1.610 . S
N830 C831 1.351 . S
C831 C825 1.428 . S
C831 N830 1.351 . S
C831 C832 1.434 1_545 S
C832 C823 1.429 . S
C832 N829 1.350 . S
C832 C831 1.434 1_565 S
C833 C834 1.369 . S
C833 C835 1.419 1_455 S
C833 H837 0.930 . S
C834 C833 1.369 . S
C834 C843 1.429 . S
C835 C833 1.419 1_655 S
C835 C836 1.363 . S
C835 H838 0.929 . S
C836 C835 1.363 . S
C836 C842 1.428 . S
H837 C833 0.930 . S
H838 C835 0.929 . S
S839 N840 1.613 . S
S839 N841 1.610 1_455 S
N840 S839 1.613 . S
N840 C843 1.350 . S
N841 S839 1.610 1_655 S
N841 C842 1.351 . S
C842 C836 1.428 . S
C842 N841 1.351 . S
C842 C843 1.434 1_655 S
C843 C834 1.429 . S
C843 N840 1.350 . S
C843 C842 1.434 1_455 S
C844 C845 1.369 . S
C844 C846 1.419 1_545 S
C844 H848 0.930 . S
C845 C844 1.369 . S
C845 C854 1.429 . S
C846 C844 1.419 1_565 S
C846 C847 1.363 . S
C846 H849 0.929 . S
C847 C846 1.363 . S
C847 C853 1.428 . S
H848 C844 0.930 . S
H849 C846 0.929 . S
S850 N851 1.613 . S
S850 N852 1.610 1_545 S
N851 S850 1.613 . S
N851 C854 1.350 . S
N852 S850 1.610 1_565 S
N852 C853 1.351 . S
C853 C847 1.428 . S
C853 N852 1.351 . S
C853 C854 1.434 1_565 S
C854 C845 1.429 . S
C854 N851 1.350 . S
C854 C853 1.434 1_545 S
C855 C856 1.369 . S
C855 C857 1.419 1_455 S
C855 H859 0.930 . S
C856 C855 1.369 . S
C856 C865 1.429 . S
C857 C855 1.419 1_655 S
C857 C858 1.363 . S
C857 H860 0.929 . S
C858 C857 1.363 . S
C858 C864 1.428 . S
H859 C855 0.930 . S
H860 C857 0.929 . S
S861 N862 1.613 1_655 S
S861 N863 1.610 . S
N862 S861 1.613 1_455 S
N862 C865 1.350 . S
N863 S861 1.610 . S
N863 C864 1.351 . S
C864 C858 1.428 . S
C864 N863 1.351 . S
C864 C865 1.434 1_655 S
C865 C856 1.429 . S
C865 N862 1.350 . S
C865 C864 1.434 1_455 S
C866 C867 1.369 . S
C866 C868 1.419 1_545 S
C866 H870 0.930 . S
C867 C866 1.369 . S
C867 C876 1.429 . S
C868 C866 1.419 1_565 S
C868 C869 1.363 . S
C868 H871 0.929 . S
C869 C868 1.363 . S
C869 C875 1.428 . S
H870 C866 0.930 . S
H871 C868 0.929 . S
S872 N873 1.613 1_565 S
S872 N874 1.610 . S
N873 S872 1.613 1_545 S
N873 C876 1.350 . S
N874 S872 1.610 . S
N874 C875 1.351 . S
C875 C869 1.428 . S
C875 N874 1.351 . S
C875 C876 1.434 1_565 S
C876 C867 1.429 . S
C876 N873 1.350 . S
C876 C875 1.434 1_545 S
C877 C878 1.369 . S
C877 C879 1.419 1_545 S
C877 H881 0.930 . S
C878 C877 1.369 . S
C878 C887 1.429 . S
C879 C877 1.419 1_565 S
C879 C880 1.363 . S
C879 H882 0.929 . S
C880 C879 1.363 . S
C880 C886 1.428 . S
H881 C877 0.930 . S
H882 C879 0.929 . S
S883 N884 1.613 . S
S883 N885 1.610 1_545 S
N884 S883 1.613 . S
N884 C887 1.350 . S
N885 S883 1.610 1_565 S
N885 C886 1.351 . S
C886 C880 1.428 . S
C886 N885 1.351 . S
C886 C887 1.434 1_565 S
C887 C878 1.429 . S
C887 N884 1.350 . S
C887 C886 1.434 1_545 S
C888 C889 1.369 . S
C888 C890 1.419 . S
C888 H892 0.930 . S
C889 C888 1.369 . S
C889 C898 1.429 . S
C890 C888 1.419 . S
C890 C891 1.363 . S
C890 H893 0.929 . S
C891 C890 1.363 . S
C891 C897 1.428 . S
H892 C888 0.930 . S
H893 C890 0.929 . S
S894 N895 1.613 . S
S894 N896 1.610 . S
N895 S894 1.613 . S
N895 C898 1.350 . S
N896 S894 1.610 . S
N896 C897 1.351 . S
C897 C891 1.428 . S
C897 N896 1.351 . S
C897 C898 1.434 . S
C898 C889 1.429 . S
C898 N895 1.350 . S
C898 C897 1.434 . S
C899 C900 1.369 . S
C899 C901 1.419 . S
C899 H903 0.930 . S
C900 C899 1.369 . S
C900 C909 1.429 . S
C901 C899 1.419 . S
C901 C902 1.363 . S
C901 H904 0.929 . S
C902 C901 1.363 . S
C902 C908 1.428 . S
H903 C899 0.930 . S
H904 C901 0.929 . S
S905 N906 1.613 . S
S905 N907 1.610 . S
N906 S905 1.613 . S
N906 C909 1.350 . S
N907 S905 1.610 . S
N907 C908 1.351 . S
C908 C902 1.428 . S
C908 N907 1.351 . S
C908 C909 1.434 . S
C909 C900 1.429 . S
C909 N906 1.350 . S
C909 C908 1.434 . S
C910 C911 1.369 . S
C910 C912 1.419 . S
C910 H914 0.930 . S
C911 C910 1.369 . S
C911 C920 1.429 . S
C912 C910 1.419 . S
C912 C913 1.363 . S
C912 H915 0.929 . S
C913 C912 1.363 . S
C913 C919 1.428 . S
H914 C910 0.930 . S
H915 C912 0.929 . S
S916 N917 1.613 . S
S916 N918 1.610 . S
N917 S916 1.613 . S
N917 C920 1.350 . S
N918 S916 1.610 . S
N918 C919 1.351 . S
C919 C913 1.428 . S
C919 N918 1.351 . S
C919 C920 1.434 . S
C920 C911 1.429 . S
C920 N917 1.350 . S
C920 C919 1.434 . S
C921 C922 1.369 . S
C921 C923 1.419 . S
C921 H925 0.930 . S
C922 C921 1.369 . S
C922 C931 1.429 . S
C923 C921 1.419 . S
C923 C924 1.363 . S
C923 H926 0.929 . S
C924 C923 1.363 . S
C924 C930 1.428 . S
H925 C921 0.930 . S
H926 C923 0.929 . S
S927 N928 1.613 . S
S927 N929 1.610 . S
N928 S927 1.613 . S
N928 C931 1.350 . S
N929 S927 1.610 . S
N929 C930 1.351 . S
C930 C924 1.428 . S
C930 N929 1.351 . S
C930 C931 1.434 . S
C931 C922 1.429 . S
C931 N928 1.350 . S
C931 C930 1.434 . S
C932 C933 1.369 . S
C932 C934 1.419 . S
C932 H936 0.930 . S
C933 C932 1.369 . S
C933 C942 1.429 . S
C934 C932 1.419 . S
C934 C935 1.363 . S
C934 H937 0.929 . S
C935 C934 1.363 . S
C935 C941 1.428 . S
H936 C932 0.930 . S
H937 C934 0.929 . S
S938 N939 1.613 . S
S938 N940 1.610 . S
N939 S938 1.613 . S
N939 C942 1.350 . S
N940 S938 1.610 . S
N940 C941 1.351 . S
C941 C935 1.428 . S
C941 N940 1.351 . S
C941 C942 1.434 . S
C942 C933 1.429 . S
C942 N939 1.350 . S
C942 C941 1.434 . S
C943 C944 1.369 . S
C943 C945 1.419 . S
C943 H947 0.930 . S
C944 C943 1.369 . S
C944 C953 1.429 . S
C945 C943 1.419 . S
C945 C946 1.363 . S
C945 H948 0.929 . S
C946 C945 1.363 . S
C946 C952 1.428 . S
H947 C943 0.930 . S
H948 C945 0.929 . S
S949 N950 1.613 . S
S949 N951 1.610 . S
N950 S949 1.613 . S
N950 C953 1.350 . S
N951 S949 1.610 . S
N951 C952 1.351 . S
C952 C946 1.428 . S
C952 N951 1.351 . S
C952 C953 1.434 . S
C953 C944 1.429 . S
C953 N950 1.350 . S
C953 C952 1.434 . S
C954 C955 1.369 . S
C954 C956 1.419 . S
C954 H958 0.930 . S
C955 C954 1.369 . S
C955 C964 1.429 . S
C956 C954 1.419 . S
C956 C957 1.363 . S
C956 H959 0.929 . S
C957 C956 1.363 . S
C957 C963 1.428 . S
H958 C954 0.930 . S
H959 C956 0.929 . S
S960 N961 1.613 . S
S960 N962 1.610 . S
N961 S960 1.613 . S
N961 C964 1.350 . S
N962 S960 1.610 . S
N962 C963 1.351 . S
C963 C957 1.428 . S
C963 N962 1.351 . S
C963 C964 1.434 . S
C964 C955 1.429 . S
C964 N961 1.350 . S
C964 C963 1.434 . S
C965 C966 1.369 . S
C965 C967 1.419 . S
C965 H969 0.930 . S
C966 C965 1.369 . S
C966 C975 1.429 . S
C967 C965 1.419 . S
C967 C968 1.363 . S
C967 H970 0.929 . S
C968 C967 1.363 . S
C968 C974 1.428 . S
H969 C965 0.930 . S
H970 C967 0.929 . S
S971 N972 1.613 . S
S971 N973 1.610 . S
N972 S971 1.613 . S
N972 C975 1.350 . S
N973 S971 1.610 . S
N973 C974 1.351 . S
C974 C968 1.428 . S
C974 N973 1.351 . S
C974 C975 1.434 . S
C975 C966 1.429 . S
C975 N972 1.350 . S
C975 C974 1.434 . S
C976 C977 1.369 . S
C976 C978 1.419 . S
C976 H980 0.930 . S
C977 C976 1.369 . S
C977 C986 1.429 . S
C978 C976 1.419 . S
C978 C979 1.363 . S
C978 H981 0.929 . S
C979 C978 1.363 . S
C979 C985 1.428 . S
H980 C976 0.930 . S
H981 C978 0.929 . S
S982 N983 1.613 . S
S982 N984 1.610 . S
N983 S982 1.613 . S
N983 C986 1.350 . S
N984 S982 1.610 . S
N984 C985 1.351 . S
C985 C979 1.428 . S
C985 N984 1.351 . S
C985 C986 1.434 . S
C986 C977 1.429 . S
C986 N983 1.350 . S
C986 C985 1.434 . S
C987 C988 1.369 . S
C987 C989 1.419 . S
C987 H991 0.930 . S
C988 C987 1.369 . S
C988 C997 1.429 . S
C989 C987 1.419 . S
C989 C990 1.363 . S
C989 H992 0.929 . S
C990 C989 1.363 . S
C990 C996 1.428 . S
H991 C987 0.930 . S
H992 C989 0.929 . S
S993 N994 1.613 . S
S993 N995 1.610 . S
N994 S993 1.613 . S
N994 C997 1.350 . S
N995 S993 1.610 . S
N995 C996 1.351 . S
C996 C990 1.428 . S
C996 N995 1.351 . S
C996 C997 1.434 . S
C997 C988 1.429 . S
C997 N994 1.350 . S
C997 C996 1.434 . S
C998 C999 1.369 . S
C998 C1000 1.419 . S
C998 H1002 0.930 . S
C999 C998 1.369 . S
C999 C1008 1.429 . S
C1000 C998 1.419 . S
C1000 C1001 1.363 . S
C1000 H1003 0.929 . S
C1001 C1000 1.363 . S
C1001 C1007 1.428 . S
H1002 C998 0.930 . S
H1003 C1000 0.929 . S
S1004 N1005 1.613 . S
S1004 N1006 1.610 . S
N1005 S1004 1.613 . S
N1005 C1008 1.350 . S
N1006 S1004 1.610 . S
N1006 C1007 1.351 . S
C1007 C1001 1.428 . S
C1007 N1006 1.351 . S
C1007 C1008 1.434 . S
C1008 C999 1.429 . S
C1008 N1005 1.350 . S
C1008 C1007 1.434 . S
C1009 C1010 1.369 . S
C1009 C1011 1.419 . S
C1009 H1013 0.930 . S
C1010 C1009 1.369 . S
C1010 C1019 1.429 . S
C1011 C1009 1.419 . S
C1011 C1012 1.363 . S
C1011 H1014 0.929 . S
C1012 C1011 1.363 . S
C1012 C1018 1.428 . S
H1013 C1009 0.930 . S
H1014 C1011 0.929 . S
S1015 N1016 1.613 . S
S1015 N1017 1.610 . S
N1016 S1015 1.613 . S
N1016 C1019 1.350 . S
N1017 S1015 1.610 . S
N1017 C1018 1.351 . S
C1018 C1012 1.428 . S
C1018 N1017 1.351 . S
C1018 C1019 1.434 . S
C1019 C1010 1.429 . S
C1019 N1016 1.350 . S
C1019 C1018 1.434 . S
C1020 C1021 1.369 . S
C1020 C1022 1.419 . S
C1020 H1024 0.930 . S
C1021 C1020 1.369 . S
C1021 C1030 1.429 . S
C1022 C1020 1.419 . S
C1022 C1023 1.363 . S
C1022 H1025 0.929 . S
C1023 C1022 1.363 . S
C1023 C1029 1.428 . S
H1024 C1020 0.930 . S
H1025 C1022 0.929 . S
S1026 N1027 1.613 . S
S1026 N1028 1.610 . S
N1027 S1026 1.613 . S
N1027 C1030 1.350 . S
N1028 S1026 1.610 . S
N1028 C1029 1.351 . S
C1029 C1023 1.428 . S
C1029 N1028 1.351 . S
C1029 C1030 1.434 . S
C1030 C1021 1.429 . S
C1030 N1027 1.350 . S
C1030 C1029 1.434 . S
C1031 C1032 1.369 . S
C1031 C1033 1.419 . S
C1031 H1035 0.930 . S
C1032 C1031 1.369 . S
C1032 C1041 1.429 . S
C1033 C1031 1.419 . S
C1033 C1034 1.363 . S
C1033 H1036 0.929 . S
C1034 C1033 1.363 . S
C1034 C1040 1.428 . S
H1035 C1031 0.930 . S
H1036 C1033 0.929 . S
S1037 N1038 1.613 . S
S1037 N1039 1.610 . S
N1038 S1037 1.613 . S
N1038 C1041 1.350 . S
N1039 S1037 1.610 . S
N1039 C1040 1.351 . S
C1040 C1034 1.428 . S
C1040 N1039 1.351 . S
C1040 C1041 1.434 . S
C1041 C1032 1.429 . S
C1041 N1038 1.350 . S
C1041 C1040 1.434 . S
C1042 C1043 1.369 . S
C1042 C1044 1.419 . S
C1042 H1046 0.930 . S
C1043 C1042 1.369 . S
C1043 C1052 1.429 . S
C1044 C1042 1.419 . S
C1044 C1045 1.363 . S
C1044 H1047 0.929 . S
C1045 C1044 1.363 . S
C1045 C1051 1.428 . S
H1046 C1042 0.930 . S
H1047 C1044 0.929 . S
S1048 N1049 1.613 . S
S1048 N1050 1.610 . S
N1049 S1048 1.613 . S
N1049 C1052 1.350 . S
N1050 S1048 1.610 . S
N1050 C1051 1.351 . S
C1051 C1045 1.428 . S
C1051 N1050 1.351 . S
C1051 C1052 1.434 . S
C1052 C1043 1.429 . S
C1052 N1049 1.350 . S
C1052 C1051 1.434 . S
C1053 C1054 1.369 . S
C1053 C1055 1.419 . S
C1053 H1057 0.930 . S
C1054 C1053 1.369 . S
C1054 C1063 1.429 . S
C1055 C1053 1.419 . S
C1055 C1056 1.363 . S
C1055 H1058 0.929 . S
C1056 C1055 1.363 . S
C1056 C1062 1.428 . S
H1057 C1053 0.930 . S
H1058 C1055 0.929 . S
S1059 N1060 1.613 . S
S1059 N1061 1.610 . S
N1060 S1059 1.613 . S
N1060 C1063 1.350 . S
N1061 S1059 1.610 . S
N1061 C1062 1.351 . S
C1062 C1056 1.428 . S
C1062 N1061 1.351 . S
C1062 C1063 1.434 . S
C1063 C1054 1.429 . S
C1063 N1060 1.350 . S
C1063 C1062 1.434 . S
C1064 C1065 1.369 . S
C1064 C1066 1.419 . S
C1064 H1068 0.930 . S
C1065 C1064 1.369 . S
C1065 C1074 1.429 . S
C1066 C1064 1.419 . S
C1066 C1067 1.363 . S
C1066 H1069 0.929 . S
C1067 C1066 1.363 . S
C1067 C1073 1.428 . S
H1068 C1064 0.930 . S
H1069 C1066 0.929 . S
S1070 N1071 1.613 . S
S1070 N1072 1.610 . S
N1071 S1070 1.613 . S
N1071 C1074 1.350 . S
N1072 S1070 1.610 . S
N1072 C1073 1.351 . S
C1073 C1067 1.428 . S
C1073 N1072 1.351 . S
C1073 C1074 1.434 . S
C1074 C1065 1.429 . S
C1074 N1071 1.350 . S
C1074 C1073 1.434 . S
C1075 C1076 1.369 . S
C1075 C1077 1.419 . S
C1075 H1079 0.930 . S
C1076 C1075 1.369 . S
C1076 C1085 1.429 . S
C1077 C1075 1.419 . S
C1077 C1078 1.363 . S
C1077 H1080 0.929 . S
C1078 C1077 1.363 . S
C1078 C1084 1.428 . S
H1079 C1075 0.930 . S
H1080 C1077 0.929 . S
S1081 N1082 1.613 . S
S1081 N1083 1.610 . S
N1082 S1081 1.613 . S
N1082 C1085 1.350 . S
N1083 S1081 1.610 . S
N1083 C1084 1.351 . S
C1084 C1078 1.428 . S
C1084 N1083 1.351 . S
C1084 C1085 1.434 . S
C1085 C1076 1.429 . S
C1085 N1082 1.350 . S
C1085 C1084 1.434 . S
C1086 C1087 1.369 . S
C1086 C1088 1.419 . S
C1086 H1090 0.930 . S
C1087 C1086 1.369 . S
C1087 C1096 1.429 . S
C1088 C1086 1.419 . S
C1088 C1089 1.363 . S
C1088 H1091 0.929 . S
C1089 C1088 1.363 . S
C1089 C1095 1.428 . S
H1090 C1086 0.930 . S
H1091 C1088 0.929 . S
S1092 N1093 1.613 . S
S1092 N1094 1.610 . S
N1093 S1092 1.613 . S
N1093 C1096 1.350 . S
N1094 S1092 1.610 . S
N1094 C1095 1.351 . S
C1095 C1089 1.428 . S
C1095 N1094 1.351 . S
C1095 C1096 1.434 . S
C1096 C1087 1.429 . S
C1096 N1093 1.350 . S
C1096 C1095 1.434 . S
C1097 C1098 1.369 . S
C1097 C1099 1.419 . S
C1097 H1101 0.930 . S
C1098 C1097 1.369 . S
C1098 C1107 1.429 . S
C1099 C1097 1.419 . S
C1099 C1100 1.363 . S
C1099 H1102 0.929 . S
C1100 C1099 1.363 . S
C1100 C1106 1.428 . S
H1101 C1097 0.930 . S
H1102 C1099 0.929 . S
S1103 N1104 1.613 . S
S1103 N1105 1.610 . S
N1104 S1103 1.613 . S
N1104 C1107 1.350 . S
N1105 S1103 1.610 . S
N1105 C1106 1.351 . S
C1106 C1100 1.428 . S
C1106 N1105 1.351 . S
C1106 C1107 1.434 . S
C1107 C1098 1.429 . S
C1107 N1104 1.350 . S
C1107 C1106 1.434 . S
C1108 C1109 1.369 . S
C1108 C1110 1.419 . S
C1108 H1112 0.930 . S
C1109 C1108 1.369 . S
C1109 C1118 1.429 . S
C1110 C1108 1.419 . S
C1110 C1111 1.363 . S
C1110 H1113 0.929 . S
C1111 C1110 1.363 . S
C1111 C1117 1.428 . S
H1112 C1108 0.930 . S
H1113 C1110 0.929 . S
S1114 N1115 1.613 . S
S1114 N1116 1.610 . S
N1115 S1114 1.613 . S
N1115 C1118 1.350 . S
N1116 S1114 1.610 . S
N1116 C1117 1.351 . S
C1117 C1111 1.428 . S
C1117 N1116 1.351 . S
C1117 C1118 1.434 . S
C1118 C1109 1.429 . S
C1118 N1115 1.350 . S
C1118 C1117 1.434 . S
C1119 C1120 1.369 . S
C1119 C1121 1.419 . S
C1119 H1123 0.930 . S
C1120 C1119 1.369 . S
C1120 C1129 1.429 . S
C1121 C1119 1.419 . S
C1121 C1122 1.363 . S
C1121 H1124 0.929 . S
C1122 C1121 1.363 . S
C1122 C1128 1.428 . S
H1123 C1119 0.930 . S
H1124 C1121 0.929 . S
S1125 N1126 1.613 . S
S1125 N1127 1.610 . S
N1126 S1125 1.613 . S
N1126 C1129 1.350 . S
N1127 S1125 1.610 . S
N1127 C1128 1.351 . S
C1128 C1122 1.428 . S
C1128 N1127 1.351 . S
C1128 C1129 1.434 . S
C1129 C1120 1.429 . S
C1129 N1126 1.350 . S
C1129 C1128 1.434 . S
C1130 C1131 1.369 . S
C1130 C1132 1.419 . S
C1130 H1134 0.930 . S
C1131 C1130 1.369 . S
C1131 C1140 1.429 . S
C1132 C1130 1.419 . S
C1132 C1133 1.363 . S
C1132 H1135 0.929 . S
C1133 C1132 1.363 . S
C1133 C1139 1.428 . S
H1134 C1130 0.930 . S
H1135 C1132 0.929 . S
S1136 N1137 1.613 . S
S1136 N1138 1.610 . S
N1137 S1136 1.613 . S
N1137 C1140 1.350 . S
N1138 S1136 1.610 . S
N1138 C1139 1.351 . S
C1139 C1133 1.428 . S
C1139 N1138 1.351 . S
C1139 C1140 1.434 . S
C1140 C1131 1.429 . S
C1140 N1137 1.350 . S
C1140 C1139 1.434 . S
C1141 C1142 1.369 . S
C1141 C1143 1.419 . S
C1141 H1145 0.930 . S
C1142 C1141 1.369 . S
C1142 C1151 1.429 . S
C1143 C1141 1.419 . S
C1143 C1144 1.363 . S
C1143 H1146 0.929 . S
C1144 C1143 1.363 . S
C1144 C1150 1.428 . S
H1145 C1141 0.930 . S
H1146 C1143 0.929 . S
S1147 N1148 1.613 . S
S1147 N1149 1.610 . S
N1148 S1147 1.613 . S
N1148 C1151 1.350 . S
N1149 S1147 1.610 . S
N1149 C1150 1.351 . S
C1150 C1144 1.428 . S
C1150 N1149 1.351 . S
C1150 C1151 1.434 . S
C1151 C1142 1.429 . S
C1151 N1148 1.350 . S
C1151 C1150 1.434 . S
C1152 C1153 1.369 . S
C1152 C1154 1.419 . S
C1152 H1156 0.930 . S
C1153 C1152 1.369 . S
C1153 C1162 1.429 . S
C1154 C1152 1.419 . S
C1154 C1155 1.363 . S
C1154 H1157 0.929 . S
C1155 C1154 1.363 . S
C1155 C1161 1.428 . S
H1156 C1152 0.930 . S
H1157 C1154 0.929 . S
S1158 N1159 1.613 . S
S1158 N1160 1.610 . S
N1159 S1158 1.613 . S
N1159 C1162 1.350 . S
N1160 S1158 1.610 . S
N1160 C1161 1.351 . S
C1161 C1155 1.428 . S
C1161 N1160 1.351 . S
C1161 C1162 1.434 . S
C1162 C1153 1.429 . S
C1162 N1159 1.350 . S
C1162 C1161 1.434 . S
C1163 C1164 1.369 . S
C1163 C1165 1.419 . S
C1163 H1167 0.930 . S
C1164 C1163 1.369 . S
C1164 C1173 1.429 . S
C1165 C1163 1.419 . S
C1165 C1166 1.363 . S
C1165 H1168 0.929 . S
C1166 C1165 1.363 . S
C1166 C1172 1.428 . S
H1167 C1163 0.930 . S
H1168 C1165 0.929 . S
S1169 N1170 1.613 . S
S1169 N1171 1.610 . S
N1170 S1169 1.613 . S
N1170 C1173 1.350 . S
N1171 S1169 1.610 . S
N1171 C1172 1.351 . S
C1172 C1166 1.428 . S
C1172 N1171 1.351 . S
C1172 C1173 1.434 . S
C1173 C1164 1.429 . S
C1173 N1170 1.350 . S
C1173 C1172 1.434 . S
C1174 C1175 1.369 . S
C1174 C1176 1.419 . S
C1174 H1178 0.930 . S
C1175 C1174 1.369 . S
C1175 C1184 1.429 . S
C1176 C1174 1.419 . S
C1176 C1177 1.363 . S
C1176 H1179 0.929 . S
C1177 C1176 1.363 . S
C1177 C1183 1.428 . S
H1178 C1174 0.930 . S
H1179 C1176 0.929 . S
S1180 N1181 1.613 . S
S1180 N1182 1.610 . S
N1181 S1180 1.613 . S
N1181 C1184 1.350 . S
N1182 S1180 1.610 . S
N1182 C1183 1.351 . S
C1183 C1177 1.428 . S
C1183 N1182 1.351 . S
C1183 C1184 1.434 . S
C1184 C1175 1.429 . S
C1184 N1181 1.350 . S
C1184 C1183 1.434 . S
C1185 C1186 1.369 . S
C1185 C1187 1.419 . S
C1185 H1189 0.930 . S
C1186 C1185 1.369 . S
C1186 C1195 1.429 . S
C1187 C1185 1.419 . S
C1187 C1188 1.363 . S
C1187 H1190 0.929 . S
C1188 C1187 1.363 . S
C1188 C1194 1.428 . S
H1189 C1185 0.930 . S
H1190 C1187 0.929 . S
S1191 N1192 1.613 . S
S1191 N1193 1.610 . S
N1192 S1191 1.613 . S
N1192 C1195 1.350 . S
N1193 S1191 1.610 . S
N1193 C1194 1.351 . S
C1194 C1188 1.428 . S
C1194 N1193 1.351 . S
C1194 C1195 1.434 . S
C1195 C1186 1.429 . S
C1195 N1192 1.350 . S
C1195 C1194 1.434 . S
C1196 C1197 1.369 . S
C1196 C1198 1.419 . S
C1196 H1200 0.930 . S
C1197 C1196 1.369 . S
C1197 C1206 1.429 . S
C1198 C1196 1.419 . S
C1198 C1199 1.363 . S
C1198 H1201 0.929 . S
C1199 C1198 1.363 . S
C1199 C1205 1.428 . S
H1200 C1196 0.930 . S
H1201 C1198 0.929 . S
S1202 N1203 1.613 . S
S1202 N1204 1.610 . S
N1203 S1202 1.613 . S
N1203 C1206 1.350 . S
N1204 S1202 1.610 . S
N1204 C1205 1.351 . S
C1205 C1199 1.428 . S
C1205 N1204 1.351 . S
C1205 C1206 1.434 . S
C1206 C1197 1.429 . S
C1206 N1203 1.350 . S
C1206 C1205 1.434 . S
C1207 C1208 1.369 . S
C1207 C1209 1.419 . S
C1207 H1211 0.930 . S
C1208 C1207 1.369 . S
C1208 C1217 1.429 . S
C1209 C1207 1.419 . S
C1209 C1210 1.363 . S
C1209 H1212 0.929 . S
C1210 C1209 1.363 . S
C1210 C1216 1.428 . S
H1211 C1207 0.930 . S
H1212 C1209 0.929 . S
S1213 N1214 1.613 . S
S1213 N1215 1.610 . S
N1214 S1213 1.613 . S
N1214 C1217 1.350 . S
N1215 S1213 1.610 . S
N1215 C1216 1.351 . S
C1216 C1210 1.428 . S
C1216 N1215 1.351 . S
C1216 C1217 1.434 . S
C1217 C1208 1.429 . S
C1217 N1214 1.350 . S
C1217 C1216 1.434 . S
C1218 C1219 1.369 . S
C1218 C1220 1.419 . S
C1218 H1222 0.930 . S
C1219 C1218 1.369 . S
C1219 C1228 1.429 . S
C1220 C1218 1.419 . S
C1220 C1221 1.363 . S
C1220 H1223 0.929 . S
C1221 C1220 1.363 . S
C1221 C1227 1.428 . S
H1222 C1218 0.930 . S
H1223 C1220 0.929 . S
S1224 N1225 1.613 . S
S1224 N1226 1.610 . S
N1225 S1224 1.613 . S
N1225 C1228 1.350 . S
N1226 S1224 1.610 . S
N1226 C1227 1.351 . S
C1227 C1221 1.428 . S
C1227 N1226 1.351 . S
C1227 C1228 1.434 . S
C1228 C1219 1.429 . S
C1228 N1225 1.350 . S
C1228 C1227 1.434 . S
C1229 C1230 1.369 . S
C1229 C1231 1.419 . S
C1229 H1233 0.930 . S
C1230 C1229 1.369 . S
C1230 C1239 1.429 . S
C1231 C1229 1.419 . S
C1231 C1232 1.363 . S
C1231 H1234 0.929 . S
C1232 C1231 1.363 . S
C1232 C1238 1.428 . S
H1233 C1229 0.930 . S
H1234 C1231 0.929 . S
S1235 N1236 1.613 . S
S1235 N1237 1.610 . S
N1236 S1235 1.613 . S
N1236 C1239 1.350 . S
N1237 S1235 1.610 . S
N1237 C1238 1.351 . S
C1238 C1232 1.428 . S
C1238 N1237 1.351 . S
C1238 C1239 1.434 . S
C1239 C1230 1.429 . S
C1239 N1236 1.350 . S
C1239 C1238 1.434 . S
C1240 C1241 1.369 . S
C1240 C1242 1.419 . S
C1240 H1244 0.930 . S
C1241 C1240 1.369 . S
C1241 C1250 1.429 . S
C1242 C1240 1.419 . S
C1242 C1243 1.363 . S
C1242 H1245 0.929 . S
C1243 C1242 1.363 . S
C1243 C1249 1.428 . S
H1244 C1240 0.930 . S
H1245 C1242 0.929 . S
S1246 N1247 1.613 . S
S1246 N1248 1.610 . S
N1247 S1246 1.613 . S
N1247 C1250 1.350 . S
N1248 S1246 1.610 . S
N1248 C1249 1.351 . S
C1249 C1243 1.428 . S
C1249 N1248 1.351 . S
C1249 C1250 1.434 . S
C1250 C1241 1.429 . S
C1250 N1247 1.350 . S
C1250 C1249 1.434 . S
C1251 C1252 1.369 . S
C1251 C1253 1.419 . S
C1251 H1255 0.930 . S
C1252 C1251 1.369 . S
C1252 C1261 1.429 . S
C1253 C1251 1.419 . S
C1253 C1254 1.363 . S
C1253 H1256 0.929 . S
C1254 C1253 1.363 . S
C1254 C1260 1.428 . S
H1255 C1251 0.930 . S
H1256 C1253 0.929 . S
S1257 N1258 1.613 . S
S1257 N1259 1.610 . S
N1258 S1257 1.613 . S
N1258 C1261 1.350 . S
N1259 S1257 1.610 . S
N1259 C1260 1.351 . S
C1260 C1254 1.428 . S
C1260 N1259 1.351 . S
C1260 C1261 1.434 . S
C1261 C1252 1.429 . S
C1261 N1258 1.350 . S
C1261 C1260 1.434 . S
C1262 C1263 1.369 . S
C1262 C1264 1.419 . S
C1262 H1266 0.930 . S
C1263 C1262 1.369 . S
C1263 C1272 1.429 . S
C1264 C1262 1.419 . S
C1264 C1265 1.363 . S
C1264 H1267 0.929 . S
C1265 C1264 1.363 . S
C1265 C1271 1.428 . S
H1266 C1262 0.930 . S
H1267 C1264 0.929 . S
S1268 N1269 1.613 . S
S1268 N1270 1.610 . S
N1269 S1268 1.613 . S
N1269 C1272 1.350 . S
N1270 S1268 1.610 . S
N1270 C1271 1.351 . S
C1271 C1265 1.428 . S
C1271 N1270 1.351 . S
C1271 C1272 1.434 . S
C1272 C1263 1.429 . S
C1272 N1269 1.350 . S
C1272 C1271 1.434 . S
C1273 C1274 1.369 . S
C1273 C1275 1.419 . S
C1273 H1277 0.930 . S
C1274 C1273 1.369 . S
C1274 C1283 1.429 . S
C1275 C1273 1.419 . S
C1275 C1276 1.363 . S
C1275 H1278 0.929 . S
C1276 C1275 1.363 . S
C1276 C1282 1.428 . S
H1277 C1273 0.930 . S
H1278 C1275 0.929 . S
S1279 N1280 1.613 . S
S1279 N1281 1.610 . S
N1280 S1279 1.613 . S
N1280 C1283 1.350 . S
N1281 S1279 1.610 . S
N1281 C1282 1.351 . S
C1282 C1276 1.428 . S
C1282 N1281 1.351 . S
C1282 C1283 1.434 . S
C1283 C1274 1.429 . S
C1283 N1280 1.350 . S
C1283 C1282 1.434 . S
C1284 C1285 1.369 . S
C1284 C1286 1.419 . S
C1284 H1288 0.930 . S
C1285 C1284 1.369 . S
C1285 C1294 1.429 . S
C1286 C1284 1.419 . S
C1286 C1287 1.363 . S
C1286 H1289 0.929 . S
C1287 C1286 1.363 . S
C1287 C1293 1.428 . S
H1288 C1284 0.930 . S
H1289 C1286 0.929 . S
S1290 N1291 1.613 . S
S1290 N1292 1.610 . S
N1291 S1290 1.613 . S
N1291 C1294 1.350 . S
N1292 S1290 1.610 . S
N1292 C1293 1.351 . S
C1293 C1287 1.428 . S
C1293 N1292 1.351 . S
C1293 C1294 1.434 . S
C1294 C1285 1.429 . S
C1294 N1291 1.350 . S
C1294 C1293 1.434 . S
C1295 C1296 1.369 . S
C1295 C1297 1.419 . S
C1295 H1299 0.930 . S
C1296 C1295 1.369 . S
C1296 C1305 1.429 . S
C1297 C1295 1.419 . S
C1297 C1298 1.363 . S
C1297 H1300 0.929 . S
C1298 C1297 1.363 . S
C1298 C1304 1.428 . S
H1299 C1295 0.930 . S
H1300 C1297 0.929 . S
S1301 N1302 1.613 . S
S1301 N1303 1.610 . S
N1302 S1301 1.613 . S
N1302 C1305 1.350 . S
N1303 S1301 1.610 . S
N1303 C1304 1.351 . S
C1304 C1298 1.428 . S
C1304 N1303 1.351 . S
C1304 C1305 1.434 . S
C1305 C1296 1.429 . S
C1305 N1302 1.350 . S
C1305 C1304 1.434 . S
C1306 C1307 1.369 . S
C1306 C1308 1.419 . S
C1306 H1310 0.930 . S
C1307 C1306 1.369 . S
C1307 C1316 1.429 . S
C1308 C1306 1.419 . S
C1308 C1309 1.363 . S
C1308 H1311 0.929 . S
C1309 C1308 1.363 . S
C1309 C1315 1.428 . S
H1310 C1306 0.930 . S
H1311 C1308 0.929 . S
S1312 N1313 1.613 . S
S1312 N1314 1.610 . S
N1313 S1312 1.613 . S
N1313 C1316 1.350 . S
N1314 S1312 1.610 . S
N1314 C1315 1.351 . S
C1315 C1309 1.428 . S
C1315 N1314 1.351 . S
C1315 C1316 1.434 . S
C1316 C1307 1.429 . S
C1316 N1313 1.350 . S
C1316 C1315 1.434 . S
C1317 C1318 1.369 . S
C1317 C1319 1.419 . S
C1317 H1321 0.930 . S
C1318 C1317 1.369 . S
C1318 C1327 1.429 . S
C1319 C1317 1.419 . S
C1319 C1320 1.363 . S
C1319 H1322 0.929 . S
C1320 C1319 1.363 . S
C1320 C1326 1.428 . S
H1321 C1317 0.930 . S
H1322 C1319 0.929 . S
S1323 N1324 1.613 . S
S1323 N1325 1.610 . S
N1324 S1323 1.613 . S
N1324 C1327 1.350 . S
N1325 S1323 1.610 . S
N1325 C1326 1.351 . S
C1326 C1320 1.428 . S
C1326 N1325 1.351 . S
C1326 C1327 1.434 . S
C1327 C1318 1.429 . S
C1327 N1324 1.350 . S
C1327 C1326 1.434 . S
C1328 C1329 1.369 . S
C1328 C1330 1.419 . S
C1328 H1332 0.930 . S
C1329 C1328 1.369 . S
C1329 C1338 1.429 . S
C1330 C1328 1.419 . S
C1330 C1331 1.363 . S
C1330 H1333 0.929 . S
C1331 C1330 1.363 . S
C1331 C1337 1.428 . S
H1332 C1328 0.930 . S
H1333 C1330 0.929 . S
S1334 N1335 1.613 . S
S1334 N1336 1.610 . S
N1335 S1334 1.613 . S
N1335 C1338 1.350 . S
N1336 S1334 1.610 . S
N1336 C1337 1.351 . S
C1337 C1331 1.428 . S
C1337 N1336 1.351 . S
C1337 C1338 1.434 . S
C1338 C1329 1.429 . S
C1338 N1335 1.350 . S
C1338 C1337 1.434 . S
C1339 C1340 1.369 . S
C1339 C1341 1.419 . S
C1339 H1343 0.930 . S
C1340 C1339 1.369 . S
C1340 C1349 1.429 . S
C1341 C1339 1.419 . S
C1341 C1342 1.363 . S
C1341 H1344 0.929 . S
C1342 C1341 1.363 . S
C1342 C1348 1.428 . S
H1343 C1339 0.930 . S
H1344 C1341 0.929 . S
S1345 N1346 1.613 . S
S1345 N1347 1.610 . S
N1346 S1345 1.613 . S
N1346 C1349 1.350 . S
N1347 S1345 1.610 . S
N1347 C1348 1.351 . S
C1348 C1342 1.428 . S
C1348 N1347 1.351 . S
C1348 C1349 1.434 . S
C1349 C1340 1.429 . S
C1349 N1346 1.350 . S
C1349 C1348 1.434 . S
C1350 C1351 1.369 . S
C1350 C1352 1.419 . S
C1350 H1354 0.930 . S
C1351 C1350 1.369 . S
C1351 C1360 1.429 . S
C1352 C1350 1.419 . S
C1352 C1353 1.363 . S
C1352 H1355 0.929 . S
C1353 C1352 1.363 . S
C1353 C1359 1.428 . S
H1354 C1350 0.930 . S
H1355 C1352 0.929 . S
S1356 N1357 1.613 . S
S1356 N1358 1.610 . S
N1357 S1356 1.613 . S
N1357 C1360 1.350 . S
N1358 S1356 1.610 . S
N1358 C1359 1.351 . S
C1359 C1353 1.428 . S
C1359 N1358 1.351 . S
C1359 C1360 1.434 . S
C1360 C1351 1.429 . S
C1360 N1357 1.350 . S
C1360 C1359 1.434 . S
C1361 C1362 1.369 . S
C1361 C1363 1.419 . S
C1361 H1365 0.930 . S
C1362 C1361 1.369 . S
C1362 C1371 1.429 . S
C1363 C1361 1.419 . S
C1363 C1364 1.363 . S
C1363 H1366 0.929 . S
C1364 C1363 1.363 . S
C1364 C1370 1.428 . S
H1365 C1361 0.930 . S
H1366 C1363 0.929 . S
S1367 N1368 1.613 . S
S1367 N1369 1.610 . S
N1368 S1367 1.613 . S
N1368 C1371 1.350 . S
N1369 S1367 1.610 . S
N1369 C1370 1.351 . S
C1370 C1364 1.428 . S
C1370 N1369 1.351 . S
C1370 C1371 1.434 . S
C1371 C1362 1.429 . S
C1371 N1368 1.350 . S
C1371 C1370 1.434 . S
C1372 C1373 1.369 . S
C1372 C1374 1.419 . S
C1372 H1376 0.930 . S
C1373 C1372 1.369 . S
C1373 C1382 1.429 . S
C1374 C1372 1.419 . S
C1374 C1375 1.363 . S
C1374 H1377 0.929 . S
C1375 C1374 1.363 . S
C1375 C1381 1.428 . S
H1376 C1372 0.930 . S
H1377 C1374 0.929 . S
S1378 N1379 1.613 . S
S1378 N1380 1.610 . S
N1379 S1378 1.613 . S
N1379 C1382 1.350 . S
N1380 S1378 1.610 . S
N1380 C1381 1.351 . S
C1381 C1375 1.428 . S
C1381 N1380 1.351 . S
C1381 C1382 1.434 . S
C1382 C1373 1.429 . S
C1382 N1379 1.350 . S
C1382 C1381 1.434 . S
C1383 C1384 1.369 . S
C1383 C1385 1.419 . S
C1383 H1387 0.930 . S
C1384 C1383 1.369 . S
C1384 C1393 1.429 . S
C1385 C1383 1.419 . S
C1385 C1386 1.363 . S
C1385 H1388 0.929 . S
C1386 C1385 1.363 . S
C1386 C1392 1.428 . S
H1387 C1383 0.930 . S
H1388 C1385 0.929 . S
S1389 N1390 1.613 . S
S1389 N1391 1.610 . S
N1390 S1389 1.613 . S
N1390 C1393 1.350 . S
N1391 S1389 1.610 . S
N1391 C1392 1.351 . S
C1392 C1386 1.428 . S
C1392 N1391 1.351 . S
C1392 C1393 1.434 . S
C1393 C1384 1.429 . S
C1393 N1390 1.350 . S
C1393 C1392 1.434 . S
C1394 C1395 1.369 . S
C1394 C1396 1.419 . S
C1394 H1398 0.930 . S
C1395 C1394 1.369 . S
C1395 C1404 1.429 . S
C1396 C1394 1.419 . S
C1396 C1397 1.363 . S
C1396 H1399 0.929 . S
C1397 C1396 1.363 . S
C1397 C1403 1.428 . S
H1398 C1394 0.930 . S
H1399 C1396 0.929 . S
S1400 N1401 1.613 . S
S1400 N1402 1.610 . S
N1401 S1400 1.613 . S
N1401 C1404 1.350 . S
N1402 S1400 1.610 . S
N1402 C1403 1.351 . S
C1403 C1397 1.428 . S
C1403 N1402 1.351 . S
C1403 C1404 1.434 . S
C1404 C1395 1.429 . S
C1404 N1401 1.350 . S
C1404 C1403 1.434 . S
C1405 C1406 1.369 . S
C1405 C1407 1.419 . S
C1405 H1409 0.930 . S
C1406 C1405 1.369 . S
C1406 C1415 1.429 . S
C1407 C1405 1.419 . S
C1407 C1408 1.363 . S
C1407 H1410 0.929 . S
C1408 C1407 1.363 . S
C1408 C1414 1.428 . S
H1409 C1405 0.930 . S
H1410 C1407 0.929 . S
S1411 N1412 1.613 . S
S1411 N1413 1.610 . S
N1412 S1411 1.613 . S
N1412 C1415 1.350 . S
N1413 S1411 1.610 . S
N1413 C1414 1.351 . S
C1414 C1408 1.428 . S
C1414 N1413 1.351 . S
C1414 C1415 1.434 . S
C1415 C1406 1.429 . S
C1415 N1412 1.350 . S
C1415 C1414 1.434 . S
C1416 C1417 1.369 . S
C1416 C1418 1.419 . S
C1416 H1420 0.930 . S
C1417 C1416 1.369 . S
C1417 C1426 1.429 . S
C1418 C1416 1.419 . S
C1418 C1419 1.363 . S
C1418 H1421 0.929 . S
C1419 C1418 1.363 . S
C1419 C1425 1.428 . S
H1420 C1416 0.930 . S
H1421 C1418 0.929 . S
S1422 N1423 1.613 . S
S1422 N1424 1.610 . S
N1423 S1422 1.613 . S
N1423 C1426 1.350 . S
N1424 S1422 1.610 . S
N1424 C1425 1.351 . S
C1425 C1419 1.428 . S
C1425 N1424 1.351 . S
C1425 C1426 1.434 . S
C1426 C1417 1.429 . S
C1426 N1423 1.350 . S
C1426 C1425 1.434 . S
C1427 C1428 1.369 . S
C1427 C1429 1.419 . S
C1427 H1431 0.930 . S
C1428 C1427 1.369 . S
C1428 C1437 1.429 . S
C1429 C1427 1.419 . S
C1429 C1430 1.363 . S
C1429 H1432 0.929 . S
C1430 C1429 1.363 . S
C1430 C1436 1.428 . S
H1431 C1427 0.930 . S
H1432 C1429 0.929 . S
S1433 N1434 1.613 . S
S1433 N1435 1.610 . S
N1434 S1433 1.613 . S
N1434 C1437 1.350 . S
N1435 S1433 1.610 . S
N1435 C1436 1.351 . S
C1436 C1430 1.428 . S
C1436 N1435 1.351 . S
C1436 C1437 1.434 . S
C1437 C1428 1.429 . S
C1437 N1434 1.350 . S
C1437 C1436 1.434 . S
C1438 C1439 1.369 . S
C1438 C1440 1.419 . S
C1438 H1442 0.930 . S
C1439 C1438 1.369 . S
C1439 C1448 1.429 . S
C1440 C1438 1.419 . S
C1440 C1441 1.363 . S
C1440 H1443 0.929 . S
C1441 C1440 1.363 . S
C1441 C1447 1.428 . S
H1442 C1438 0.930 . S
H1443 C1440 0.929 . S
S1444 N1445 1.613 . S
S1444 N1446 1.610 . S
N1445 S1444 1.613 . S
N1445 C1448 1.350 . S
N1446 S1444 1.610 . S
N1446 C1447 1.351 . S
C1447 C1441 1.428 . S
C1447 N1446 1.351 . S
C1447 C1448 1.434 . S
C1448 C1439 1.429 . S
C1448 N1445 1.350 . S
C1448 C1447 1.434 . S
C1449 C1450 1.369 . S
C1449 C1451 1.419 . S
C1449 H1453 0.930 . S
C1450 C1449 1.369 . S
C1450 C1459 1.429 . S
C1451 C1449 1.419 . S
C1451 C1452 1.363 . S
C1451 H1454 0.929 . S
C1452 C1451 1.363 . S
C1452 C1458 1.428 . S
H1453 C1449 0.930 . S
H1454 C1451 0.929 . S
S1455 N1456 1.613 . S
S1455 N1457 1.610 . S
N1456 S1455 1.613 . S
N1456 C1459 1.350 . S
N1457 S1455 1.610 . S
N1457 C1458 1.351 . S
C1458 C1452 1.428 . S
C1458 N1457 1.351 . S
C1458 C1459 1.434 . S
C1459 C1450 1.429 . S
C1459 N1456 1.350 . S
C1459 C1458 1.434 . S
C1460 C1461 1.369 . S
C1460 C1462 1.419 . S
C1460 H1464 0.930 . S
C1461 C1460 1.369 . S
C1461 C1470 1.429 . S
C1462 C1460 1.419 . S
C1462 C1463 1.363 . S
C1462 H1465 0.929 . S
C1463 C1462 1.363 . S
C1463 C1469 1.428 . S
H1464 C1460 0.930 . S
H1465 C1462 0.929 . S
S1466 N1467 1.613 . S
S1466 N1468 1.610 . S
N1467 S1466 1.613 . S
N1467 C1470 1.350 . S
N1468 S1466 1.610 . S
N1468 C1469 1.351 . S
C1469 C1463 1.428 . S
C1469 N1468 1.351 . S
C1469 C1470 1.434 . S
C1470 C1461 1.429 . S
C1470 N1467 1.350 . S
C1470 C1469 1.434 . S
C1471 C1472 1.369 . S
C1471 C1473 1.419 . S
C1471 H1475 0.930 . S
C1472 C1471 1.369 . S
C1472 C1481 1.429 . S
C1473 C1471 1.419 . S
C1473 C1474 1.363 . S
C1473 H1476 0.929 . S
C1474 C1473 1.363 . S
C1474 C1480 1.428 . S
H1475 C1471 0.930 . S
H1476 C1473 0.929 . S
S1477 N1478 1.613 . S
S1477 N1479 1.610 . S
N1478 S1477 1.613 . S
N1478 C1481 1.350 . S
N1479 S1477 1.610 . S
N1479 C1480 1.351 . S
C1480 C1474 1.428 . S
C1480 N1479 1.351 . S
C1480 C1481 1.434 . S
C1481 C1472 1.429 . S
C1481 N1478 1.350 . S
C1481 C1480 1.434 . S
C1482 C1483 1.369 . S
C1482 C1484 1.419 . S
C1482 H1486 0.930 . S
C1483 C1482 1.369 . S
C1483 C1492 1.429 . S
C1484 C1482 1.419 . S
C1484 C1485 1.363 . S
C1484 H1487 0.929 . S
C1485 C1484 1.363 . S
C1485 C1491 1.428 . S
H1486 C1482 0.930 . S
H1487 C1484 0.929 . S
S1488 N1489 1.613 . S
S1488 N1490 1.610 . S
N1489 S1488 1.613 . S
N1489 C1492 1.350 . S
N1490 S1488 1.610 . S
N1490 C1491 1.351 . S
C1491 C1485 1.428 . S
C1491 N1490 1.351 . S
C1491 C1492 1.434 . S
C1492 C1483 1.429 . S
C1492 N1489 1.350 . S
C1492 C1491 1.434 . S
C1493 C1494 1.369 . S
C1493 C1495 1.419 . S
C1493 H1497 0.930 . S
C1494 C1493 1.369 . S
C1494 C1503 1.429 . S
C1495 C1493 1.419 . S
C1495 C1496 1.363 . S
C1495 H1498 0.929 . S
C1496 C1495 1.363 . S
C1496 C1502 1.428 . S
H1497 C1493 0.930 . S
H1498 C1495 0.929 . S
S1499 N1500 1.613 . S
S1499 N1501 1.610 . S
N1500 S1499 1.613 . S
N1500 C1503 1.350 . S
N1501 S1499 1.610 . S
N1501 C1502 1.351 . S
C1502 C1496 1.428 . S
C1502 N1501 1.351 . S
C1502 C1503 1.434 . S
C1503 C1494 1.429 . S
C1503 N1500 1.350 . S
C1503 C1502 1.434 . S
C1504 C1505 1.369 . S
C1504 C1506 1.419 . S
C1504 H1508 0.930 . S
C1505 C1504 1.369 . S
C1505 C1514 1.429 . S
C1506 C1504 1.419 . S
C1506 C1507 1.363 . S
C1506 H1509 0.929 . S
C1507 C1506 1.363 . S
C1507 C1513 1.428 . S
H1508 C1504 0.930 . S
H1509 C1506 0.929 . S
S1510 N1511 1.613 . S
S1510 N1512 1.610 . S
N1511 S1510 1.613 . S
N1511 C1514 1.350 . S
N1512 S1510 1.610 . S
N1512 C1513 1.351 . S
C1513 C1507 1.428 . S
C1513 N1512 1.351 . S
C1513 C1514 1.434 . S
C1514 C1505 1.429 . S
C1514 N1511 1.350 . S
C1514 C1513 1.434 . S
C1515 C1516 1.369 . S
C1515 C1517 1.419 . S
C1515 H1519 0.930 . S
C1516 C1515 1.369 . S
C1516 C1525 1.429 . S
C1517 C1515 1.419 . S
C1517 C1518 1.363 . S
C1517 H1520 0.929 . S
C1518 C1517 1.363 . S
C1518 C1524 1.428 . S
H1519 C1515 0.930 . S
H1520 C1517 0.929 . S
S1521 N1522 1.613 . S
S1521 N1523 1.610 . S
N1522 S1521 1.613 . S
N1522 C1525 1.350 . S
N1523 S1521 1.610 . S
N1523 C1524 1.351 . S
C1524 C1518 1.428 . S
C1524 N1523 1.351 . S
C1524 C1525 1.434 . S
C1525 C1516 1.429 . S
C1525 N1522 1.350 . S
C1525 C1524 1.434 . S
C1526 C1527 1.369 . S
C1526 C1528 1.419 . S
C1526 H1530 0.930 . S
C1527 C1526 1.369 . S
C1527 C1536 1.429 . S
C1528 C1526 1.419 . S
C1528 C1529 1.363 . S
C1528 H1531 0.929 . S
C1529 C1528 1.363 . S
C1529 C1535 1.428 . S
H1530 C1526 0.930 . S
H1531 C1528 0.929 . S
S1532 N1533 1.613 . S
S1532 N1534 1.610 . S
N1533 S1532 1.613 . S
N1533 C1536 1.350 . S
N1534 S1532 1.610 . S
N1534 C1535 1.351 . S
C1535 C1529 1.428 . S
C1535 N1534 1.351 . S
C1535 C1536 1.434 . S
C1536 C1527 1.429 . S
C1536 N1533 1.350 . S
C1536 C1535 1.434 . S
C1537 C1538 1.369 . S
C1537 C1539 1.419 . S
C1537 H1541 0.930 . S
C1538 C1537 1.369 . S
C1538 C1547 1.429 . S
C1539 C1537 1.419 . S
C1539 C1540 1.363 . S
C1539 H1542 0.929 . S
C1540 C1539 1.363 . S
C1540 C1546 1.428 . S
H1541 C1537 0.930 . S
H1542 C1539 0.929 . S
S1543 N1544 1.613 . S
S1543 N1545 1.610 . S
N1544 S1543 1.613 . S
N1544 C1547 1.350 . S
N1545 S1543 1.610 . S
N1545 C1546 1.351 . S
C1546 C1540 1.428 . S
C1546 N1545 1.351 . S
C1546 C1547 1.434 . S
C1547 C1538 1.429 . S
C1547 N1544 1.350 . S
C1547 C1546 1.434 . S
C1548 C1549 1.369 . S
C1548 C1550 1.419 . S
C1548 H1552 0.930 . S
C1549 C1548 1.369 . S
C1549 C1558 1.429 . S
C1550 C1548 1.419 . S
C1550 C1551 1.363 . S
C1550 H1553 0.929 . S
C1551 C1550 1.363 . S
C1551 C1557 1.428 . S
H1552 C1548 0.930 . S
H1553 C1550 0.929 . S
S1554 N1555 1.613 . S
S1554 N1556 1.610 . S
N1555 S1554 1.613 . S
N1555 C1558 1.350 . S
N1556 S1554 1.610 . S
N1556 C1557 1.351 . S
C1557 C1551 1.428 . S
C1557 N1556 1.351 . S
C1557 C1558 1.434 . S
C1558 C1549 1.429 . S
C1558 N1555 1.350 . S
C1558 C1557 1.434 . S
C1559 C1560 1.369 . S
C1559 C1561 1.419 . S
C1559 H1563 0.930 . S
C1560 C1559 1.369 . S
C1560 C1569 1.429 . S
C1561 C1559 1.419 . S
C1561 C1562 1.363 . S
C1561 H1564 0.929 . S
C1562 C1561 1.363 . S
C1562 C1568 1.428 . S
H1563 C1559 0.930 . S
H1564 C1561 0.929 . S
S1565 N1566 1.613 . S
S1565 N1567 1.610 . S
N1566 S1565 1.613 . S
N1566 C1569 1.350 . S
N1567 S1565 1.610 . S
N1567 C1568 1.351 . S
C1568 C1562 1.428 . S
C1568 N1567 1.351 . S
C1568 C1569 1.434 . S
C1569 C1560 1.429 . S
C1569 N1566 1.350 . S
C1569 C1568 1.434 . S
C1570 C1571 1.369 . S
C1570 C1572 1.419 . S
C1570 H1574 0.930 . S
C1571 C1570 1.369 . S
C1571 C1580 1.429 . S
C1572 C1570 1.419 . S
C1572 C1573 1.363 . S
C1572 H1575 0.929 . S
C1573 C1572 1.363 . S
C1573 C1579 1.428 . S
H1574 C1570 0.930 . S
H1575 C1572 0.929 . S
S1576 N1577 1.613 . S
S1576 N1578 1.610 . S
N1577 S1576 1.613 . S
N1577 C1580 1.350 . S
N1578 S1576 1.610 . S
N1578 C1579 1.351 . S
C1579 C1573 1.428 . S
C1579 N1578 1.351 . S
C1579 C1580 1.434 . S
C1580 C1571 1.429 . S
C1580 N1577 1.350 . S
C1580 C1579 1.434 . S
C1581 C1582 1.369 . S
C1581 C1583 1.419 . S
C1581 H1585 0.930 . S
C1582 C1581 1.369 . S
C1582 C1591 1.429 . S
C1583 C1581 1.419 . S
C1583 C1584 1.363 . S
C1583 H1586 0.929 . S
C1584 C1583 1.363 . S
C1584 C1590 1.428 . S
H1585 C1581 0.930 . S
H1586 C1583 0.929 . S
S1587 N1588 1.613 . S
S1587 N1589 1.610 . S
N1588 S1587 1.613 . S
N1588 C1591 1.350 . S
N1589 S1587 1.610 . S
N1589 C1590 1.351 . S
C1590 C1584 1.428 . S
C1590 N1589 1.351 . S
C1590 C1591 1.434 . S
C1591 C1582 1.429 . S
C1591 N1588 1.350 . S
C1591 C1590 1.434 . S
C1592 C1593 1.369 . S
C1592 C1594 1.419 . S
C1592 H1596 0.930 . S
C1593 C1592 1.369 . S
C1593 C1602 1.429 . S
C1594 C1592 1.419 . S
C1594 C1595 1.363 . S
C1594 H1597 0.929 . S
C1595 C1594 1.363 . S
C1595 C1601 1.428 . S
H1596 C1592 0.930 . S
H1597 C1594 0.929 . S
S1598 N1599 1.613 . S
S1598 N1600 1.610 . S
N1599 S1598 1.613 . S
N1599 C1602 1.350 . S
N1600 S1598 1.610 . S
N1600 C1601 1.351 . S
C1601 C1595 1.428 . S
C1601 N1600 1.351 . S
C1601 C1602 1.434 . S
C1602 C1593 1.429 . S
C1602 N1599 1.350 . S
C1602 C1601 1.434 . S
C1603 C1604 1.369 . S
C1603 C1605 1.419 . S
C1603 H1607 0.930 . S
C1604 C1603 1.369 . S
C1604 C1613 1.429 . S
C1605 C1603 1.419 . S
C1605 C1606 1.363 . S
C1605 H1608 0.929 . S
C1606 C1605 1.363 . S
C1606 C1612 1.428 . S
H1607 C1603 0.930 . S
H1608 C1605 0.929 . S
S1609 N1610 1.613 . S
S1609 N1611 1.610 . S
N1610 S1609 1.613 . S
N1610 C1613 1.350 . S
N1611 S1609 1.610 . S
N1611 C1612 1.351 . S
C1612 C1606 1.428 . S
C1612 N1611 1.351 . S
C1612 C1613 1.434 . S
C1613 C1604 1.429 . S
C1613 N1610 1.350 . S
C1613 C1612 1.434 . S
C1614 C1615 1.369 . S
C1614 C1616 1.419 . S
C1614 H1618 0.930 . S
C1615 C1614 1.369 . S
C1615 C1624 1.429 . S
C1616 C1614 1.419 . S
C1616 C1617 1.363 . S
C1616 H1619 0.929 . S
C1617 C1616 1.363 . S
C1617 C1623 1.428 . S
H1618 C1614 0.930 . S
H1619 C1616 0.929 . S
S1620 N1621 1.613 . S
S1620 N1622 1.610 . S
N1621 S1620 1.613 . S
N1621 C1624 1.350 . S
N1622 S1620 1.610 . S
N1622 C1623 1.351 . S
C1623 C1617 1.428 . S
C1623 N1622 1.351 . S
C1623 C1624 1.434 . S
C1624 C1615 1.429 . S
C1624 N1621 1.350 . S
C1624 C1623 1.434 . S
C1625 C1626 1.369 . S
C1625 C1627 1.419 . S
C1625 H1629 0.930 . S
C1626 C1625 1.369 . S
C1626 C1635 1.429 . S
C1627 C1625 1.419 . S
C1627 C1628 1.363 . S
C1627 H1630 0.929 . S
C1628 C1627 1.363 . S
C1628 C1634 1.428 . S
H1629 C1625 0.930 . S
H1630 C1627 0.929 . S
S1631 N1632 1.613 . S
S1631 N1633 1.610 . S
N1632 S1631 1.613 . S
N1632 C1635 1.350 . S
N1633 S1631 1.610 . S
N1633 C1634 1.351 . S
C1634 C1628 1.428 . S
C1634 N1633 1.351 . S
C1634 C1635 1.434 . S
C1635 C1626 1.429 . S
C1635 N1632 1.350 . S
C1635 C1634 1.434 . S
C1636 C1637 1.369 . S
C1636 C1638 1.419 . S
C1636 H1640 0.930 . S
C1637 C1636 1.369 . S
C1637 C1646 1.429 . S
C1638 C1636 1.419 . S
C1638 C1639 1.363 . S
C1638 H1641 0.929 . S
C1639 C1638 1.363 . S
C1639 C1645 1.428 . S
H1640 C1636 0.930 . S
H1641 C1638 0.929 . S
S1642 N1643 1.613 . S
S1642 N1644 1.610 . S
N1643 S1642 1.613 . S
N1643 C1646 1.350 . S
N1644 S1642 1.610 . S
N1644 C1645 1.351 . S
C1645 C1639 1.428 . S
C1645 N1644 1.351 . S
C1645 C1646 1.434 . S
C1646 C1637 1.429 . S
C1646 N1643 1.350 . S
C1646 C1645 1.434 . S
C1647 C1648 1.369 . S
C1647 C1649 1.419 . S
C1647 H1651 0.930 . S
C1648 C1647 1.369 . S
C1648 C1657 1.429 . S
C1649 C1647 1.419 . S
C1649 C1650 1.363 . S
C1649 H1652 0.929 . S
C1650 C1649 1.363 . S
C1650 C1656 1.428 . S
H1651 C1647 0.930 . S
H1652 C1649 0.929 . S
S1653 N1654 1.613 . S
S1653 N1655 1.610 . S
N1654 S1653 1.613 . S
N1654 C1657 1.350 . S
N1655 S1653 1.610 . S
N1655 C1656 1.351 . S
C1656 C1650 1.428 . S
C1656 N1655 1.351 . S
C1656 C1657 1.434 . S
C1657 C1648 1.429 . S
C1657 N1654 1.350 . S
C1657 C1656 1.434 . S
C1658 C1659 1.369 . S
C1658 C1660 1.419 . S
C1658 H1662 0.930 . S
C1659 C1658 1.369 . S
C1659 C1668 1.429 . S
C1660 C1658 1.419 . S
C1660 C1661 1.363 . S
C1660 H1663 0.929 . S
C1661 C1660 1.363 . S
C1661 C1667 1.428 . S
H1662 C1658 0.930 . S
H1663 C1660 0.929 . S
S1664 N1665 1.613 . S
S1664 N1666 1.610 . S
N1665 S1664 1.613 . S
N1665 C1668 1.350 . S
N1666 S1664 1.610 . S
N1666 C1667 1.351 . S
C1667 C1661 1.428 . S
C1667 N1666 1.351 . S
C1667 C1668 1.434 . S
C1668 C1659 1.429 . S
C1668 N1665 1.350 . S
C1668 C1667 1.434 . S
C1669 C1670 1.369 . S
C1669 C1671 1.419 . S
C1669 H1673 0.930 . S
C1670 C1669 1.369 . S
C1670 C1679 1.429 . S
C1671 C1669 1.419 . S
C1671 C1672 1.363 . S
C1671 H1674 0.929 . S
C1672 C1671 1.363 . S
C1672 C1678 1.428 . S
H1673 C1669 0.930 . S
H1674 C1671 0.929 . S
S1675 N1676 1.613 . S
S1675 N1677 1.610 . S
N1676 S1675 1.613 . S
N1676 C1679 1.350 . S
N1677 S1675 1.610 . S
N1677 C1678 1.351 . S
C1678 C1672 1.428 . S
C1678 N1677 1.351 . S
C1678 C1679 1.434 . S
C1679 C1670 1.429 . S
C1679 N1676 1.350 . S
C1679 C1678 1.434 . S
C625 C40 1.491 . S
C627 C3 1.497 . S
C636 C5 1.464 . S
C638 C23 1.471 . S
C647 C27 1.498 . S
C649 C16 1.510 . S
C658 C36 1.500 . S
C660 C44 1.500 . S
C669 C53 1.488 . S
C671 C68 1.497 . S
C680 C88 1.506 . S
C682 C70 1.516 . S
C691 C81 1.492 . S
C693 C92 1.505 . S
C702 C57 1.483 . S
C704 C101 1.492 . S
C713 C109 1.455 . S
C715 C244 1.449 . S
C724 C257 1.500 . S
C726 C122 1.500 . S
C735 C270 1.508 . S
C737 C135 1.513 . S
C746 C224 1.442 . S
C748 C148 1.441 . S
C757 C287 1.542 . S
C759 C166 1.546 . S
C768 C179 1.474 . S
C770 C213 1.471 . S
C779 C304 1.494 . S
C781 C192 1.502 . S
C790 C205 1.523 . S
C792 C278 1.519 . S
C801 C211 1.484 . S
C803 C118 1.474 . S
C812 C231 1.533 . S
C814 C196 1.530 . S
C823 C157 1.522 . S
C825 C237 1.507 . S
C834 C172 1.513 . S
C836 C248 1.500 . S
C845 C185 1.513 . S
C847 C261 1.507 . S
C856 C146 1.474 . S
C858 C274 1.476 . S
C867 C107 1.450 . S
C869 C291 1.448 . S
C878 C302 1.486 . S
C880 C131 1.495 . S
C889 C352 1.480 . S
C891 C315 1.481 . S
C900 C317 1.458 . S
C902 C335 1.470 . S
C911 C339 1.499 . S
C913 C328 1.510 . S
C922 C348 1.512 . S
C924 C356 1.512 . S
C933 C380 1.483 . S
C935 C365 1.487 . S
C944 C382 1.488 . S
C946 C400 1.504 . S
C955 C404 1.518 . S
C957 C393 1.519 . S
C966 C369 1.488 . S
C968 C413 1.501 . S
C977 C556 1.462 . S
C979 C421 1.458 . S
C988 C434 1.452 . S
C990 C569 1.462 . S
C999 C575 1.474 . S
C1001 C443 1.474 . S
C1010 C460 1.451 . S
C1012 C536 1.449 . S
C1021 C478 1.514 . S
C1023 C603 1.506 . S
C1032 C521 1.500 . S
C1034 C491 1.501 . S
C1043 C612 1.538 . S
C1045 C504 1.538 . S
C1054 C586 1.552 . S
C1056 C517 1.549 . S
C1065 C430 1.503 . S
C1067 C530 1.507 . S
C1076 C508 1.543 . S
C1078 C543 1.545 . S
C1087 C549 1.494 . S
C1089 C469 1.505 . S
C1098 C560 1.478 . S
C1100 C484 1.467 . S
C1109 C497 1.462 . S
C1111 C577 1.464 . S
C1120 C590 1.450 . S
C1122 C458 1.451 . S
C1131 C599 1.482 . S
C1133 C419 1.475 . S
C1142 C621 1.524 . S
C1144 C447 1.507 . S
C1153 C1 1.513 . S
C1155 C582 1.510 . S
C1164 C18 1.460 . S
C1166 C538 1.463 . S
C1175 C29 1.480 . S
C1177 C547 1.492 . S
C1186 C49 1.486 . S
C1188 C562 1.487 . S
C1197 C55 1.469 . S
C1199 C616 1.477 . S
C1208 C75 1.524 . S
C1210 C595 1.520 . S
C1219 C79 1.489 . S
C1221 C601 1.491 . S
C1230 C525 1.465 . S
C1232 C96 1.467 . S
C1241 C114 1.500 . S
C1243 C512 1.494 . S
C1252 C473 1.469 . S
C1254 C127 1.464 . S
C1263 C140 1.502 . S
C1265 C486 1.494 . S
C1274 C153 1.486 . S
C1276 C499 1.490 . S
C1285 C161 1.501 . S
C1287 C439 1.500 . S
C1296 C174 1.494 . S
C1298 C445 1.491 . S
C1307 C465 1.511 . S
C1309 C187 1.510 . S
C1318 C200 1.480 . S
C1320 C426 1.489 . S
C1329 C209 1.497 . S
C1331 C408 1.489 . S
C1340 C226 1.466 . S
C1342 C330 1.471 . S
C1351 C235 1.475 . S
C1353 C341 1.471 . S
C1362 C250 1.485 . S
C1364 C361 1.499 . S
C1373 C313 1.499 . S
C1375 C263 1.489 . S
C1384 C276 1.484 . S
C1386 C387 1.488 . S
C1395 C391 1.510 . S
C1397 C296 1.510 . S
C1406 C367 1.495 . S
C1408 C300 1.498 . S
C1417 C417 1.498 . S
C1419 C94 1.496 . S
C1428 C62 1.500 . S
C1430 C432 1.498 . S
C1439 C452 1.501 . S
C1441 C66 1.508 . S
C1450 C456 1.501 . S
C1452 C83 1.494 . S
C1461 C471 1.497 . S
C1463 C14 1.502 . S
C1472 C31 1.507 . S
C1474 C482 1.507 . S
C1483 C495 1.497 . S
C1485 C42 1.493 . S
C1494 C510 1.487 . S
C1496 C10 1.494 . S
C1505 C523 1.464 . S
C1507 C265 1.460 . S
C1516 C222 1.500 . S
C1518 C614 1.494 . S
C1527 C239 1.476 . S
C1529 C588 1.482 . S
C1538 C608 1.501 . S
C1540 C252 1.495 . S
C1549 C534 1.509 . S
C1551 C309 1.505 . S
C1560 C551 1.491 . S
C1562 C283 1.494 . S
C1571 C289 1.462 . S
C1573 C564 1.466 . S
C1582 C573 1.526 . S
C1584 C218 1.527 . S
C1593 C322 1.502 . S
C1595 C198 1.494 . S
C1604 C374 1.517 . S
C1606 C120 1.510 . S
C1615 C378 1.490 . S
C1617 C133 1.493 . S
C1626 C144 1.512 . S
C1628 C395 1.512 . S
C1637 C105 1.493 . S
C1639 C406 1.484 . S
C1648 C343 1.471 . S
C1650 C170 1.483 . S
C1659 C183 1.491 . S
C1661 C354 1.482 . S
C1670 C326 1.498 . S
C1672 C159 1.496 . S
