# Generated by pormake.
# Topology vbm, (6)-cn, num edge types: 1
# Building blocks:
#     Node 0, Type 0, BuildingBlock: KUMBUR_clean_sbu_0, # of connection points: 6
#     Node 1, Type 0, BuildingBlock: KUMBUR_clean_sbu_0, # of connection points: 6
#     Node 2, Type 0, BuildingBlock: KUMBUR_clean_sbu_0, # of connection points: 6
#     Node 3, Type 0, BuildingBlock: KUMBUR_clean_sbu_0, # of connection points: 6
#     Node 4, Type 0, BuildingBlock: KUMBUR_clean_sbu_0, # of connection points: 6
#     Node 5, Type 0, BuildingBlock: KUMBUR_clean_sbu_0, # of connection points: 6
#     Node 6, Type 0, BuildingBlock: KUMBUR_clean_sbu_0, # of connection points: 6
#     Node 7, Type 0, BuildingBlock: KUMBUR_clean_sbu_0, # of connection points: 6
#     Node 8, Type 0, BuildingBlock: KUMBUR_clean_sbu_0, # of connection points: 6
#     Node 9, Type 0, BuildingBlock: KUMBUR_clean_sbu_0, # of connection points: 6
#     Node 10, Type 0, BuildingBlock: KUMBUR_clean_sbu_0, # of connection points: 6
#     Node 11, Type 0, BuildingBlock: KUMBUR_clean_sbu_0, # of connection points: 6
#     Node 12, Type 0, BuildingBlock: KUMBUR_clean_sbu_0, # of connection points: 6
#     Node 13, Type 0, BuildingBlock: KUMBUR_clean_sbu_0, # of connection points: 6
#     Node 14, Type 0, BuildingBlock: KUMBUR_clean_sbu_0, # of connection points: 6
#     Node 15, Type 0, BuildingBlock: KUMBUR_clean_sbu_0, # of connection points: 6
#     Edge 16, Type (0, 0), BuildingBlock: KIFKEQ_clean_linker_1, # of connection points: 2
#     Edge 17, Type (0, 0), BuildingBlock: KIFKEQ_clean_linker_1, # of connection points: 2
#     Edge 18, Type (0, 0), BuildingBlock: KIFKEQ_clean_linker_1, # of connection points: 2
#     Edge 19, Type (0, 0), BuildingBlock: KIFKEQ_clean_linker_1, # of connection points: 2
#     Edge 20, Type (0, 0), BuildingBlock: KIFKEQ_clean_linker_1, # of connection points: 2
#     Edge 21, Type (0, 0), BuildingBlock: KIFKEQ_clean_linker_1, # of connection points: 2
#     Edge 22, Type (0, 0), BuildingBlock: KIFKEQ_clean_linker_1, # of connection points: 2
#     Edge 23, Type (0, 0), BuildingBlock: KIFKEQ_clean_linker_1, # of connection points: 2
#     Edge 24, Type (0, 0), BuildingBlock: KIFKEQ_clean_linker_1, # of connection points: 2
#     Edge 25, Type (0, 0), BuildingBlock: KIFKEQ_clean_linker_1, # of connection points: 2
#     Edge 26, Type (0, 0), BuildingBlock: KIFKEQ_clean_linker_1, # of connection points: 2
#     Edge 27, Type (0, 0), BuildingBlock: KIFKEQ_clean_linker_1, # of connection points: 2
#     Edge 28, Type (0, 0), BuildingBlock: KIFKEQ_clean_linker_1, # of connection points: 2
#     Edge 29, Type (0, 0), BuildingBlock: KIFKEQ_clean_linker_1, # of connection points: 2
#     Edge 30, Type (0, 0), BuildingBlock: KIFKEQ_clean_linker_1, # of connection points: 2
#     Edge 31, Type (0, 0), BuildingBlock: KIFKEQ_clean_linker_1, # of connection points: 2
#     Edge 32, Type (0, 0), BuildingBlock: KIFKEQ_clean_linker_1, # of connection points: 2
#     Edge 33, Type (0, 0), BuildingBlock: KIFKEQ_clean_linker_1, # of connection points: 2
#     Edge 34, Type (0, 0), BuildingBlock: KIFKEQ_clean_linker_1, # of connection points: 2
#     Edge 35, Type (0, 0), BuildingBlock: KIFKEQ_clean_linker_1, # of connection points: 2
#     Edge 36, Type (0, 0), BuildingBlock: KIFKEQ_clean_linker_1, # of connection points: 2
#     Edge 37, Type (0, 0), BuildingBlock: KIFKEQ_clean_linker_1, # of connection points: 2
#     Edge 38, Type (0, 0), BuildingBlock: KIFKEQ_clean_linker_1, # of connection points: 2
#     Edge 39, Type (0, 0), BuildingBlock: KIFKEQ_clean_linker_1, # of connection points: 2
#     Edge 40, Type (0, 0), BuildingBlock: KIFKEQ_clean_linker_1, # of connection points: 2
#     Edge 41, Type (0, 0), BuildingBlock: KIFKEQ_clean_linker_1, # of connection points: 2
#     Edge 42, Type (0, 0), BuildingBlock: KIFKEQ_clean_linker_1, # of connection points: 2
#     Edge 43, Type (0, 0), BuildingBlock: KIFKEQ_clean_linker_1, # of connection points: 2
#     Edge 44, Type (0, 0), BuildingBlock: KIFKEQ_clean_linker_1, # of connection points: 2
#     Edge 45, Type (0, 0), BuildingBlock: KIFKEQ_clean_linker_1, # of connection points: 2
#     Edge 46, Type (0, 0), BuildingBlock: KIFKEQ_clean_linker_1, # of connection points: 2
#     Edge 47, Type (0, 0), BuildingBlock: KIFKEQ_clean_linker_1, # of connection points: 2
#     Edge 48, Type (0, 0), BuildingBlock: KIFKEQ_clean_linker_1, # of connection points: 2
#     Edge 49, Type (0, 0), BuildingBlock: KIFKEQ_clean_linker_1, # of connection points: 2
#     Edge 50, Type (0, 0), BuildingBlock: KIFKEQ_clean_linker_1, # of connection points: 2
#     Edge 51, Type (0, 0), BuildingBlock: KIFKEQ_clean_linker_1, # of connection points: 2
#     Edge 52, Type (0, 0), BuildingBlock: KIFKEQ_clean_linker_1, # of connection points: 2
#     Edge 53, Type (0, 0), BuildingBlock: KIFKEQ_clean_linker_1, # of connection points: 2
#     Edge 54, Type (0, 0), BuildingBlock: KIFKEQ_clean_linker_1, # of connection points: 2
#     Edge 55, Type (0, 0), BuildingBlock: KIFKEQ_clean_linker_1, # of connection points: 2
#     Edge 56, Type (0, 0), BuildingBlock: KIFKEQ_clean_linker_1, # of connection points: 2
#     Edge 57, Type (0, 0), BuildingBlock: KIFKEQ_clean_linker_1, # of connection points: 2
#     Edge 58, Type (0, 0), BuildingBlock: KIFKEQ_clean_linker_1, # of connection points: 2
#     Edge 59, Type (0, 0), BuildingBlock: KIFKEQ_clean_linker_1, # of connection points: 2
#     Edge 60, Type (0, 0), BuildingBlock: KIFKEQ_clean_linker_1, # of connection points: 2
#     Edge 61, Type (0, 0), BuildingBlock: KIFKEQ_clean_linker_1, # of connection points: 2
#     Edge 62, Type (0, 0), BuildingBlock: KIFKEQ_clean_linker_1, # of connection points: 2
#     Edge 63, Type (0, 0), BuildingBlock: KIFKEQ_clean_linker_1, # of connection points: 2
# Relax obj value: 0.082
# Max RMSD: 0.146
# Mean RMSD: 0.146
data_MOF--net-vbm--node1-KUMBUR_clean_sbu_0--edge1-KIFKEQ_clean_linker_1
_symmetry_space_group_name_H-M    P1
_symmetry_Int_Tables_number       1
_symmetry_cell_setting            triclinic
loop_
_symmetry_equiv_pos_as_xyz
'x, y, z'
_cell_length_a     52.498113
_cell_length_b     24.582044
_cell_length_c     59.262754
_cell_angle_alpha  90.010889
_cell_angle_beta   90.061425
_cell_angle_gamma 90.051914
loop_
_atom_site_label
_atom_site_type_symbol
_atom_site_fract_x
_atom_site_fract_y
_atom_site_fract_z
_atom_type_partial_charge
Tb0 Tb 0.16065 0.08604 0.12597 0.0
C1 C 0.07734 0.22057 0.17185 0.0
C2 C 0.03933 0.20138 0.15027 0.0
C3 C 0.03583 0.22557 0.18989 0.0
C4 C 0.06609 0.20524 0.1519 0.0
C5 C 0.06236 0.23268 0.19093 0.0
C6 C 0.02432 0.20988 0.16955 0.0
C7 C 0.10046 0.26484 0.20947 0.0
N8 N 0.1029 0.22807 0.17193 0.0
C9 C 0.11443 0.25252 0.19003 0.0
C10 C 0.07437 0.25392 0.21008 0.0
Tb11 Tb 0.12458 0.20585 0.1396 0.0
N12 N 0.08131 0.19849 0.13364 0.0
C13 C 0.07056 0.19207 0.11273 0.0
C14 C 0.02845 0.19121 0.12915 0.0
C15 C 0.04413 0.18743 0.11024 0.0
H16 H 0.13459 0.26108 0.18981 0.0
H17 H 0.0359 0.18077 0.09372 0.0
H18 H 1.00376 0.20635 0.16872 0.0
H19 H 0.10984 0.28273 0.22395 0.0
H20 H 0.08212 0.18898 0.09781 0.0
H21 H 0.24812 0.11257 0.17316 0.0
H22 H 1.00799 0.18773 0.12717 0.0
H23 H 0.15059 0.04395 0.07347 0.0
H24 H 0.20184 0.10361 0.16841 0.0
H25 H 0.17592 0.02868 0.03897 0.0
H26 H 0.024 0.234 0.20444 0.0
H27 H 0.27659 0.10669 0.14003 0.0
H28 H 0.28156 0.0902 0.09837 0.0
H29 H 0.06356 0.26384 0.22509 0.0
H30 H 0.26193 0.06718 0.06182 0.0
N31 N 0.20354 0.09414 0.13264 0.0
C32 C 0.21382 0.10076 0.1537 0.0
C33 C 0.25619 0.10271 0.13778 0.0
C34 C 0.24571 0.09293 0.11646 0.0
C35 C 0.24018 0.10593 0.15652 0.0
C36 C 0.21902 0.08834 0.11448 0.0
H37 H 0.22254 0.04371 0.03952 0.0
N38 N 0.18246 0.0689 0.09323 0.0
C39 C 0.18521 0.04185 0.05434 0.0
C40 C 0.2081 0.0751 0.09405 0.0
C41 C 0.17094 0.05036 0.07395 0.0
C42 C 0.21151 0.05052 0.05471 0.0
C43 C 0.22334 0.06654 0.07482 0.0
O44 O 0.15049 1.0053 0.11775 0.0
O45 O 0.12317 0.11889 0.13368 0.0
O46 O 0.1231 0.15438 0.17006 0.0
O47 O 0.15689 0.09467 0.16287 0.0
O48 O 0.12521 0.0624 0.10869 0.0
O49 O 0.17139 1.02347 0.14817 0.0
O50 O 0.1384 0.28564 0.14456 0.0
O51 O 0.16217 0.17277 0.13221 0.0
O52 O 0.16426 0.14258 0.09782 0.0
O53 O 0.12664 0.19071 0.10257 0.0
O54 O 0.15969 0.228 0.15751 0.0
O55 O 0.113 0.2679 0.11725 0.0
C56 C 0.10954 0.09141 0.12015 0.0
C57 C 0.17829 0.93696 0.13144 0.0
C58 C 0.18267 0.83783 0.1291 0.0
C59 C 0.1673 0.88459 0.13139 0.0
C60 C 0.2091 0.84434 0.12644 0.0
C61 C 0.20472 0.94226 0.12867 0.0
C62 C 0.21997 0.8962 0.12608 0.0
C63 C 0.13957 0.11631 0.17649 0.0
C64 C 0.16209 0.9852 0.1353 0.0
C65 C 0.24986 0.07318 0.07643 0.0
C66 C 0.26104 0.08632 0.09723 0.0
C67 C 0.17563 0.19928 0.14623 0.0
C68 C 0.11053 0.35583 0.13367 0.0
C69 C 0.12174 0.40753 0.13069 0.0
C70 C 0.10846 0.45547 0.13678 0.0
C71 C 0.08391 0.45012 0.14613 0.0
C72 C 0.08585 0.35222 0.14251 0.0
C73 C 0.07271 0.39903 0.14879 0.0
C74 C 0.14563 0.17293 0.08974 0.0
C75 C 0.12501 0.306 0.1282 0.0
H76 H 0.14692 0.8802 0.13373 0.0
H77 H 0.22135 0.80922 0.12447 0.0
H78 H 0.21367 0.98183 0.12879 0.0
H79 H 0.24034 0.9007 0.12399 0.0
H80 H 0.14065 0.41017 0.12348 0.0
H81 H 0.07332 0.48537 0.15173 0.0
H82 H 0.07671 0.31329 0.14467 0.0
H83 H 0.05378 0.39569 0.15588 0.0
Tb84 Tb 0.87051 0.97747 0.12643 0.0
C85 C 0.95416 0.84406 0.1713 0.0
C86 C 0.99195 0.85958 0.14892 0.0
C87 C 0.99594 0.8393 0.18891 0.0
C88 C 0.96521 0.85676 0.15091 0.0
C89 C 0.96936 0.834 0.19047 0.0
C90 C 1.00723 0.85207 0.16815 0.0
C91 C 0.9311 0.80926 0.21061 0.0
N92 N 0.92848 0.83868 0.17199 0.0
C93 C 0.91689 0.81922 0.19107 0.0
C94 C 0.95743 0.81733 0.2104 0.0
Tb95 Tb 0.90668 0.8574 0.13931 0.0
N96 N 0.94975 0.86323 0.13273 0.0
C97 C 0.96013 0.86918 0.11169 0.0
C98 C 1.00254 0.86848 0.1276 0.0
C99 C 0.98655 0.87261 0.10887 0.0
H100 H 0.89654 0.81298 0.19148 0.0
H101 H 0.99454 0.87868 0.09223 0.0
H102 H 0.02779 0.8547 0.16702 0.0
H103 H 0.92174 0.79528 0.22581 0.0
H104 H 0.94826 0.87277 0.09695 0.0
H105 H 0.78173 0.94615 0.17102 0.0
H106 H 0.02298 0.87115 0.12536 0.0
H107 H 0.88175 0.02916 0.07569 0.0
H108 H 0.82807 0.95496 0.16744 0.0
H109 H 0.85727 0.05264 0.04156 0.0
H110 H 1.00796 0.83223 0.20349 0.0
H111 H 0.75406 0.95731 0.13754 0.0
H112 H 0.75013 0.98082 0.09638 0.0
H113 H 0.96842 0.80926 0.22552 0.0
H114 H 0.77069 1.0104 0.06111 0.0
N115 N 0.82736 0.96904 0.1319 0.0
C116 C 0.81651 0.95996 0.15256 0.0
C117 C 0.77453 0.96106 0.1358 0.0
C118 C 0.78556 0.97381 0.11499 0.0
C119 C 0.79007 0.95489 0.15473 0.0
C120 C 0.81231 0.97794 0.11365 0.0
H121 H 0.81062 0.03821 0.0406 0.0
N122 N 0.84941 1.0005 0.0939 0.0
C123 C 0.84759 0.03616 0.05616 0.0
C124 C 0.82375 0.99462 0.09395 0.0
C125 C 0.86141 1.02287 0.07559 0.0
C126 C 0.82128 0.02782 0.05566 0.0
C127 C 0.80897 1.00753 0.07482 0.0
O128 O 0.88153 0.05906 0.12095 0.0
O129 O 0.90797 0.94381 0.1333 0.0
O130 O 0.91018 0.913 0.16838 0.0
O131 O 0.87303 0.96266 0.16305 0.0
O132 O 0.90601 1.00269 0.10951 0.0
O133 O 0.85976 0.03659 0.15024 0.0
O134 O 0.89391 0.77766 0.14602 0.0
O135 O 0.86893 0.89002 0.13181 0.0
O136 O 0.86761 0.92494 0.09693 0.0
O137 O 0.90357 0.87077 0.1022 0.0
O138 O 0.87178 0.8352 0.15733 0.0
O139 O 0.91771 0.79406 0.11739 0.0
C140 C 0.92167 0.97188 0.12012 0.0
C141 C 0.8533 0.12537 0.1355 0.0
C142 C 0.84924 0.22464 0.13353 0.0
C143 C 0.86451 0.17757 0.13528 0.0
C144 C 0.8227 0.21863 0.13157 0.0
C145 C 0.82675 0.12061 0.13341 0.0
C146 C 0.81162 0.16698 0.13137 0.0
C147 C 0.89222 0.94633 0.17591 0.0
C148 C 0.86944 0.07665 0.13864 0.0
C149 C 0.78239 1.00115 0.07568 0.0
C150 C 0.7707 0.98427 0.09575 0.0
C151 C 0.85567 0.86302 0.14582 0.0
C152 C 0.92125 0.70694 0.13456 0.0
C153 C 0.91001 0.65507 0.13212 0.0
C154 C 0.9236 0.60736 0.13799 0.0
C155 C 0.94852 0.61311 0.14657 0.0
C156 C 0.94626 0.71092 0.14265 0.0
C157 C 0.95972 0.66434 0.1487 0.0
C158 C 0.88535 0.89161 0.08916 0.0
C159 C 0.90644 0.7565 0.12929 0.0
H160 H 0.88498 0.18157 0.13705 0.0
H161 H 0.81052 0.25398 0.13 0.0
H162 H 0.81764 0.08119 0.13361 0.0
H163 H 0.79116 0.16288 0.1298 0.0
H164 H 0.89083 0.65211 0.12548 0.0
H165 H 0.95939 0.57806 0.15198 0.0
H166 H 0.9554 0.74994 0.1444 0.0
H167 H 0.97892 0.66798 0.15521 0.0
Tb168 Tb 0.15854 0.97222 0.38585 0.0
C169 C 0.08373 0.83787 0.33284 0.0
C170 C 0.04428 0.84826 0.35354 0.0
C171 C 0.04315 0.83367 0.31302 0.0
C172 C 0.0712 0.84717 0.35305 0.0
C173 C 0.06979 0.82914 0.31278 0.0
C174 C 0.03042 0.8433 0.33337 0.0
C175 C 0.10918 0.80523 0.29428 0.0
N176 N 0.10949 0.83315 0.33317 0.0
C177 C 0.1222 0.81436 0.31452 0.0
C178 C 0.08294 0.8138 0.29326 0.0
Tb179 Tb 0.12881 0.85236 0.36689 0.0
N180 N 0.08521 0.85129 0.37235 0.0
C181 C 0.07301 0.85064 0.39283 0.0
C182 C 0.032 0.85221 0.37436 0.0
C183 C 0.04642 0.85229 0.39408 0.0
H184 H 0.14243 0.80699 0.315 0.0
H185 H 0.03707 0.85367 0.41034 0.0
H186 H 1.0098 0.84486 0.33344 0.0
H187 H 0.11941 0.79164 0.27947 0.0
H188 H 0.08311 0.85035 0.40858 0.0
H189 H 0.24712 0.9735 0.33791 0.0
H190 H 1.0114 0.85336 0.37544 0.0
H191 H 0.14827 1.00139 0.44047 0.0
H192 H 0.20119 0.97977 0.34216 0.0
H193 H 0.17378 1.00581 0.47531 0.0
H194 H 0.03216 0.82787 0.29772 0.0
H195 H 0.27485 0.96454 0.37136 0.0
H196 H 0.27917 0.96349 0.41338 0.0
H197 H 0.0729 0.80657 0.27756 0.0
H198 H 0.25934 0.97265 0.45072 0.0
N199 N 0.20154 0.97181 0.37824 0.0
C200 C 0.21239 0.97559 0.35725 0.0
C201 C 0.25439 0.96707 0.37352 0.0
C202 C 0.2435 0.96749 0.39502 0.0
C203 C 0.2388 0.9722 0.3546 0.0
C204 C 0.21672 0.97058 0.39692 0.0
H205 H 0.2202 0.98941 0.47392 0.0
N206 N 0.17987 0.9818 0.41938 0.0
C207 C 0.18294 0.99722 0.45935 0.0
C208 C 0.20557 0.97571 0.4181 0.0
C209 C 0.16857 0.99523 0.4395 0.0
C210 C 0.20912 0.98767 0.4585 0.0
C211 C 0.22084 0.97785 0.43768 0.0
O212 O 0.13992 0.04026 0.37164 0.0
O213 O 0.12206 0.93631 0.37662 0.0
O214 O 0.12771 0.90987 0.33836 0.0
O215 O 0.15853 0.97349 0.34875 0.0
O216 O 0.12334 0.98079 0.40555 0.0
O217 O 0.17178 0.05097 0.39366 0.0
O218 O 0.14854 0.79046 0.38422 0.0
O219 O 0.16528 0.889 0.37559 0.0
O220 O 0.15997 0.91175 0.41284 0.0
O221 O 0.12568 0.85638 0.40404 0.0
O222 O 0.16347 0.8475 0.34624 0.0
O223 O 0.11874 0.77009 0.36121 0.0
C224 C 0.10806 0.95577 0.39208 0.0
C225 C 0.14018 0.11886 0.39457 0.0
C226 C 0.12977 0.21538 0.39785 0.0
C227 C 0.14145 0.17211 0.38618 0.0
C228 C 0.11611 0.20407 0.41773 0.0
C229 C 0.12675 0.10881 0.41461 0.0
C230 C 0.11455 0.15107 0.42593 0.0
C231 C 0.14245 0.95241 0.33383 0.0
C232 C 0.15376 0.07513 0.38258 0.0
C233 C 0.24733 0.97179 0.43584 0.0
C234 C 0.25863 0.96658 0.41456 0.0
C235 C 0.17909 0.87158 0.35965 0.0
C236 C 0.15256 0.70699 0.36482 0.0
C237 C 0.14636 0.6527 0.36968 0.0
C238 C 0.16226 0.61018 0.36232 0.0
C239 C 0.18429 0.62237 0.34989 0.0
C240 C 0.17448 0.71801 0.35204 0.0
C241 C 0.19025 0.67607 0.34469 0.0
C242 C 0.1426 0.87567 0.41857 0.0
C243 C 0.13666 0.75125 0.37405 0.0
H244 H 0.1518 0.1798 0.37068 0.0
H245 H 0.10728 0.23634 0.42738 0.0
H246 H 0.12586 0.06883 0.42186 0.0
H247 H 0.10431 0.14288 0.44141 0.0
H248 H 0.12956 0.64361 0.37963 0.0
H249 H 0.19676 0.59026 0.344 0.0
H250 H 0.17972 0.75869 0.3478 0.0
H251 H 0.20719 0.6853 0.33501 0.0
Tb252 Tb 0.87022 0.07981 0.38441 0.0
C253 C 0.95354 0.20829 0.33603 0.0
C254 C 0.99188 0.19463 0.35792 0.0
C255 C 0.99485 0.21116 0.31758 0.0
C256 C 0.96509 0.19749 0.35639 0.0
C257 C 0.96824 0.21643 0.31643 0.0
C258 C 1.00666 0.20028 0.33831 0.0
C259 C 0.92949 0.23916 0.2966 0.0
N260 N 0.92785 0.21365 0.33574 0.0
C261 C 0.91578 0.23112 0.31655 0.0
C262 C 0.95581 0.23114 0.29646 0.0
Tb263 Tb 0.90684 0.19773 0.36909 0.0
N264 N 0.9501 0.19272 0.37492 0.0
C265 C 0.96102 0.18859 0.39584 0.0
C266 C 1.003 0.18756 0.37916 0.0
C267 C 0.9875 0.18521 0.39823 0.0
H268 H 0.89544 0.23729 0.31635 0.0
H269 H 0.99591 0.18061 0.4148 0.0
H270 H 0.02725 0.19761 0.33909 0.0
H271 H 0.91974 0.2516 0.28135 0.0
H272 H 0.94953 0.18659 0.41085 0.0
H273 H 0.78142 0.10392 0.33904 0.0
H274 H 0.02349 0.18495 0.38106 0.0
H275 H 0.8817 0.04087 0.43715 0.0
H276 H 0.82779 0.09495 0.34284 0.0
H277 H 0.85741 0.0279 0.47233 0.0
H278 H 1.00649 0.21676 0.30267 0.0
H279 H 0.75389 0.09999 0.37285 0.0
H280 H 0.75011 0.08583 0.41477 0.0
H281 H 0.9664 0.23768 0.28101 0.0
H282 H 0.77078 0.06488 0.45107 0.0
N283 N 0.82711 0.08736 0.3787 0.0
C284 C 0.81624 0.09295 0.35784 0.0
C285 C 0.77435 0.096 0.37467 0.0
C286 C 0.78542 0.08732 0.39583 0.0
C287 C 0.78982 0.09812 0.35555 0.0
C288 C 0.81215 0.08265 0.39724 0.0
H289 H 0.81081 0.04279 0.47269 0.0
N290 N 0.84928 0.06427 0.41776 0.0
C291 C 0.84767 0.03996 0.45702 0.0
C292 C 0.82364 0.07049 0.41751 0.0
C293 C 0.86135 0.04717 0.437 0.0
C294 C 0.82137 0.04854 0.45718 0.0
C295 C 0.80896 0.06323 0.43718 0.0
O296 O 0.88049 0.99915 0.39251 0.0
O297 O 0.90782 0.11194 0.37683 0.0
O298 O 0.91005 0.13915 0.3411 0.0
O299 O 0.873 0.08943 0.34745 0.0
O300 O 0.90564 0.05615 0.40186 0.0
O301 O 0.8594 1.01707 0.36223 0.0
O302 O 0.8936 0.27683 0.36196 0.0
O303 O 0.86903 0.16613 0.37698 0.0
O304 O 0.86694 0.1385 0.41179 0.0
O305 O 0.9047 0.18616 0.40635 0.0
O306 O 0.8718 0.21867 0.35079 0.0
O307 O 0.91837 0.26254 0.39014 0.0
C308 C 0.92143 0.08514 0.39054 0.0
C309 C 0.85292 0.93028 0.37888 0.0
C310 C 0.84879 0.83095 0.38067 0.0
C311 C 0.86398 0.878 0.37815 0.0
C312 C 0.82249 0.83713 0.38432 0.0
C313 C 0.82665 0.93521 0.38267 0.0
C314 C 0.81159 0.88887 0.38544 0.0
C315 C 0.89216 0.10467 0.33427 0.0
C316 C 0.86891 0.97889 0.37498 0.0
C317 C 0.78241 0.06991 0.43612 0.0
C318 C 0.77065 0.08189 0.41546 0.0
C319 C 0.85567 0.19165 0.36259 0.0
C320 C 0.92072 0.34899 0.37225 0.0
C321 C 0.90977 0.40069 0.37587 0.0
C322 C 0.92267 0.4487 0.36919 0.0
C323 C 0.94661 0.44339 0.35866 0.0
C324 C 0.94477 0.34541 0.36216 0.0
C325 C 0.95756 0.3923 0.35536 0.0
C326 C 0.88566 0.1694 0.4194 0.0
C327 C 0.90647 0.29917 0.37825 0.0
H328 H 0.88424 0.87395 0.37508 0.0
H329 H 0.81037 0.80184 0.38651 0.0
H330 H 0.8177 0.97473 0.38324 0.0
H331 H 0.79133 0.89307 0.38832 0.0
H332 H 0.89134 0.40327 0.38399 0.0
H333 H 0.95687 0.47868 0.3526 0.0
H334 H 0.95362 0.30644 0.35937 0.0
H335 H 0.97599 0.38901 0.34731 0.0
Tb336 Tb 0.90837 0.84852 0.86873 0.0
C337 C 0.82538 0.97794 0.9161 0.0
C338 C 0.78728 0.96083 0.89426 0.0
C339 C 0.78401 0.97954 0.93444 0.0
C340 C 0.81401 0.96527 0.89581 0.0
C341 C 0.81057 0.98601 0.93563 0.0
C342 C 0.77237 0.967 0.91377 0.0
C343 C 0.84917 1.00979 0.95557 0.0
N344 N 0.85103 0.98399 0.91649 0.0
C345 C 0.863 1.00178 0.93568 0.0
C346 C 0.82286 1.00134 0.95562 0.0
Tb347 Tb 0.87216 0.96747 0.88334 0.0
N348 N 0.8291 0.95988 0.87738 0.0
C349 C 0.81836 0.95386 0.85647 0.0
C350 C 0.77634 0.95165 0.87308 0.0
C351 C 0.79194 0.94886 0.85406 0.0
H352 H 0.88336 1.00799 0.93587 0.0
H353 H 0.78365 0.94271 0.83753 0.0
H354 H 0.75183 0.96325 0.91297 0.0
H355 H 0.85882 1.02238 0.97086 0.0
H356 H 0.83001 0.95143 0.84154 0.0
H357 H 0.99768 0.86814 0.91395 0.0
H358 H 0.75589 0.94781 0.87115 0.0
H359 H 0.89681 0.80289 0.81693 0.0
H360 H 0.9513 0.86216 0.91021 0.0
H361 H 0.92099 0.78387 0.78227 0.0
H362 H 0.77227 0.98518 0.94929 0.0
H363 H 0.02513 0.86144 0.88018 0.0
H364 H 0.0287 0.84531 0.83841 0.0
H365 H 0.81218 1.00775 0.97102 0.0
H366 H 1.00777 0.82233 0.80243 0.0
N367 N 0.95169 0.85396 0.87434 0.0
C368 C 0.96271 0.85918 0.89519 0.0
C369 C 1.00462 0.85891 0.87837 0.0
C370 C 0.9934 0.8504 0.85726 0.0
C371 C 0.9892 0.86256 0.89745 0.0
C372 C 0.9666 0.84774 0.85584 0.0
H373 H 0.96762 0.79822 0.78143 0.0
N374 N 0.92926 0.82944 0.83564 0.0
C375 C 0.93078 0.79853 0.79716 0.0
C376 C 0.95495 0.83494 0.83573 0.0
C377 C 0.91713 0.80935 0.81692 0.0
C378 C 0.95708 0.80684 0.79672 0.0
C379 C 0.96958 0.82436 0.81628 0.0
O380 O 0.8949 0.769 0.86261 0.0
O381 O 0.87069 0.8809 0.87652 0.0
O382 O 0.86886 0.90991 0.91113 0.0
O383 O 0.9065 0.86192 0.90591 0.0
O384 O 0.87326 0.82716 0.85069 0.0
O385 O 0.9198 0.78516 0.89052 0.0
O386 O 0.88232 0.04833 0.89136 0.0
O387 O 0.90955 0.93469 0.87574 0.0
O388 O 0.91126 0.9048 0.83986 0.0
O389 O 0.87511 0.95745 0.84641 0.0
O390 O 0.90779 0.99158 0.90041 0.0
O391 O 0.86149 0.02977 0.86097 0.0
C392 C 0.85727 0.85495 0.86229 0.0
C393 C 0.92234 0.6979 0.8734 0.0
C394 C 0.92438 0.59823 0.87037 0.0
C395 C 0.9112 0.64619 0.87658 0.0
C396 C 0.94879 0.60356 0.8607 0.0
C397 C 0.94686 0.70149 0.86422 0.0
C398 C 0.95991 0.65465 0.85784 0.0
C399 C 0.88755 0.87927 0.91891 0.0
C400 C 0.90792 0.74773 0.87902 0.0
C401 C 0.9962 0.82972 0.81724 0.0
C402 C 1.0081 0.84278 0.83772 0.0
C403 C 0.92337 0.96203 0.88911 0.0
C404 C 0.85464 0.11659 0.87742 0.0
C405 C 0.86565 0.16895 0.87716 0.0
C406 C 0.85031 0.21579 0.87932 0.0
C407 C 0.82389 0.20938 0.88215 0.0
C408 C 0.82823 0.11138 0.88037 0.0
C409 C 0.81301 0.15753 0.88281 0.0
C410 C 0.89387 0.94061 0.83313 0.0
C411 C 0.87081 0.06822 0.87373 0.0
H412 H 0.89241 0.64356 0.88404 0.0
H413 H 0.95929 0.56828 0.85501 0.0
H414 H 0.95592 0.74041 0.86187 0.0
H415 H 0.97872 0.65797 0.85049 0.0
H416 H 0.88601 0.17324 0.8747 0.0
H417 H 0.81165 0.24455 0.88403 0.0
H418 H 0.81929 0.0718 0.88052 0.0
H419 H 0.79265 0.15312 0.88503 0.0
Tb420 Tb 0.12731 0.19015 0.86897 0.0
C421 C 0.209 0.0578 0.91675 0.0
C422 C 0.24755 0.07911 0.89634 0.0
C423 C 0.2498 0.05554 0.93613 0.0
C424 C 0.22082 0.07374 0.89713 0.0
C425 C 0.22333 0.04713 0.93638 0.0
C426 C 0.26191 0.07156 0.91612 0.0
C427 C 0.18465 1.01579 0.9542 0.0
N428 N 0.18346 0.04962 0.91615 0.0
C429 C 0.17128 0.02687 0.93428 0.0
C430 C 0.21073 0.02667 0.95537 0.0
Tb431 Tb 0.16305 0.0701 0.88295 0.0
N432 N 0.20629 0.07908 0.87833 0.0
C433 C 0.2177 0.08497 0.85772 0.0
C434 C 0.25911 0.08926 0.87552 0.0
C435 C 0.24414 0.09103 0.85606 0.0
H436 H 0.15111 1.01858 0.93366 0.0
H437 H 0.25294 0.09729 0.83975 0.0
H438 H 0.28244 0.07611 0.91593 0.0
H439 H 0.1748 0.99903 0.96865 0.0
H440 H 0.2065 0.08669 0.84248 0.0
H441 H 0.03927 0.17348 0.9161 0.0
H442 H 0.27958 0.09374 0.87417 0.0
H443 H 0.13795 0.23015 0.81629 0.0
H444 H 0.08553 0.1768 0.91135 0.0
H445 H 0.11293 0.24803 0.78189 0.0
H446 H 0.26116 0.04815 0.95109 0.0
H447 H 1.01088 0.18233 0.883 0.0
H448 H 1.0062 0.19857 0.84133 0.0
H449 H 0.22104 1.01793 0.97079 0.0
H450 H 0.02625 0.21884 0.80473 0.0
N451 N 0.08417 0.18614 0.87553 0.0
C452 C 0.07374 0.18095 0.8966 0.0
C453 C 0.03134 0.18389 0.88074 0.0
C454 C 0.042 0.19205 0.8594 0.0
C455 C 0.0473 0.17899 0.89945 0.0
C456 C 0.06877 0.19346 0.85739 0.0
H457 H 0.06604 0.23797 0.78245 0.0
N458 N 0.10566 0.20859 0.83618 0.0
C459 C 0.10339 0.23577 0.79725 0.0
C460 C 0.07992 0.20509 0.83696 0.0
C461 C 0.1175 0.22575 0.81684 0.0
C462 C 0.07694 0.22993 0.79762 0.0
C463 C 0.06483 0.21522 0.81773 0.0
O464 O 0.13824 0.27058 0.86097 0.0
O465 O 0.16485 0.15702 0.87647 0.0
O466 O 0.16575 0.1239 0.91205 0.0
O467 O 0.12997 0.1781 0.90619 0.0
O468 O 0.16242 0.2117 0.85093 0.0
O469 O 0.11893 0.25247 0.89209 0.0
O470 O 0.1504 0.98962 0.88812 0.0
O471 O 0.12577 0.10406 0.87557 0.0
O472 O 0.1236 0.13281 0.84052 0.0
O473 O 0.16065 0.08286 0.84615 0.0
O474 O 0.12732 0.04628 0.89985 0.0
O475 O 0.17595 1.00863 0.86096 0.0
C476 C 0.17828 0.18309 0.86232 0.0
C477 C 0.1121 0.33985 0.87624 0.0
C478 C 0.10854 0.4392 0.87491 0.0
C479 C 0.12357 0.39175 0.87635 0.0
C480 C 0.08197 0.43388 0.8729 0.0
C481 C 0.08554 0.33577 0.87417 0.0
C482 C 0.07063 0.38252 0.8724 0.0
C483 C 0.1481 0.15781 0.91946 0.0
C484 C 0.12797 0.2907 0.87912 0.0
C485 C 0.03819 0.21161 0.81935 0.0
C486 C 0.02678 0.20007 0.84017 0.0
C487 C 0.11186 0.07686 0.88888 0.0
C488 C 0.17944 0.92114 0.87767 0.0
C489 C 0.1687 0.8689 0.87509 0.0
C490 C 0.18249 0.82177 0.88131 0.0
C491 C 0.20717 0.82842 0.8903 0.0
C492 C 0.20421 0.92614 0.88625 0.0
C493 C 0.21791 0.88008 0.89258 0.0
C494 C 0.14147 0.09894 0.83319 0.0
C495 C 0.16436 0.96997 0.87196 0.0
H496 H 0.14407 0.39521 0.87815 0.0
H497 H 0.06996 0.46955 0.87156 0.0
H498 H 0.07623 0.29662 0.87421 0.0
H499 H 0.05015 0.37893 0.87084 0.0
H500 H 0.14971 0.86522 0.86807 0.0
H501 H 0.21818 0.79376 0.89593 0.0
H502 H 0.21299 0.96556 0.88814 0.0
H503 H 0.23693 0.88445 0.89944 0.0
Tb504 Tb 0.90595 0.19537 0.63921 0.0
C505 C 0.82215 0.06034 0.59586 0.0
C506 C 0.7849 0.08264 0.61794 0.0
C507 C 0.78018 0.05639 0.5786 0.0
C508 C 0.81153 0.07722 0.61592 0.0
C509 C 0.80661 0.04827 0.57711 0.0
C510 C 0.76934 0.07363 0.599 0.0
C511 C 0.84414 1.01592 0.55774 0.0
N512 N 0.8477 0.05246 0.59523 0.0
C513 C 0.85874 0.0284 0.57683 0.0
C514 C 0.81801 0.02664 0.55775 0.0
Tb515 Tb 0.87001 0.07429 0.62724 0.0
N516 N 0.8272 0.08428 0.63391 0.0
C517 C 0.81714 0.09271 0.65491 0.0
C518 C 0.77467 0.09494 0.63912 0.0
C519 C 0.79085 0.09913 0.65775 0.0
H520 H 0.87894 1.02025 0.5766 0.0
H521 H 0.7831 0.10741 0.67431 0.0
H522 H 0.74885 0.07818 0.60014 0.0
H523 H 0.85307 0.99819 0.54302 0.0
H524 H 0.8293 0.09619 0.66951 0.0
H525 H 0.99219 0.17132 0.58988 0.0
H526 H 0.75432 0.09967 0.64139 0.0
H527 H 0.89788 0.24659 0.6904 0.0
H528 H 0.94622 0.17678 0.59586 0.0
H529 H 0.92427 0.26935 0.72351 0.0
H530 H 0.76791 0.04792 0.56432 0.0
H531 H 0.02185 0.18239 0.62198 0.0
H532 H 0.0282 0.20341 0.66311 0.0
H533 H 0.80674 1.0168 0.54297 0.0
H534 H 1.00968 0.23005 0.69963 0.0
N535 N 0.94888 0.18946 0.63146 0.0
C536 C 0.95852 0.18201 0.61021 0.0
C537 C 1.0015 0.18489 0.62479 0.0
C538 C 0.9917 0.19577 0.64624 0.0
C539 C 0.98482 0.17877 0.60665 0.0
C540 C 0.96502 0.19828 0.64898 0.0
H541 H 0.97094 0.25563 0.72224 0.0
N542 N 0.92911 0.21831 0.67068 0.0
C543 C 0.93311 0.25329 0.70842 0.0
C544 C 0.95474 0.21325 0.66936 0.0
C545 C 0.91821 0.24039 0.68957 0.0
C546 C 0.95941 0.24534 0.70767 0.0
C547 C 0.97063 0.22606 0.68782 0.0
O548 O 0.89456 0.2762 0.64592 0.0
O549 O 0.86818 0.16174 0.6327 0.0
O550 O 0.86656 0.12588 0.5975 0.0
O551 O 0.90227 0.18096 0.6023 0.0
O552 O 0.87148 0.21733 0.65786 0.0
O553 O 0.91412 0.25594 0.61523 0.0
O554 O 0.88238 0.99382 0.62163 0.0
O555 O 0.90747 0.10853 0.63386 0.0
O556 O 0.90948 0.14309 0.66928 0.0
O557 O 0.87459 0.08529 0.66395 0.0
O558 O 0.90515 0.05048 0.60958 0.0
O559 O 0.85748 1.01262 0.64931 0.0
C560 C 0.85518 0.1888 0.64687 0.0
C561 C 0.92093 0.34431 0.63012 0.0
C562 C 0.92455 0.44365 0.63142 0.0
C563 C 0.90947 0.39616 0.63028 0.0
C564 C 0.95117 0.43843 0.63285 0.0
C565 C 0.94755 0.34031 0.63162 0.0
C566 C 0.96251 0.38711 0.63308 0.0
C567 C 0.88397 0.15967 0.58951 0.0
C568 C 0.90499 0.29506 0.62765 0.0
C569 C 0.99715 0.22094 0.68559 0.0
C570 C 1.00768 0.20579 0.66481 0.0
C571 C 0.92095 0.08085 0.62035 0.0
C572 C 0.85347 0.92524 0.63247 0.0
C573 C 0.86442 0.87303 0.63418 0.0
C574 C 0.85039 0.82601 0.62815 0.0
C575 C 0.8253 0.83276 0.62012 0.0
C576 C 0.82824 0.93025 0.62501 0.0
C577 C 0.81435 0.88435 0.61875 0.0
C578 C 0.89304 0.10598 0.67662 0.0
C579 C 0.86874 0.97404 0.638 0.0
H580 H 0.88894 0.39955 0.62894 0.0
H581 H 0.96321 0.47415 0.63395 0.0
H582 H 0.95685 0.30117 0.63139 0.0
H583 H 0.98303 0.38359 0.63421 0.0
H584 H 0.88374 0.86928 0.64043 0.0
H585 H 0.81409 0.79825 0.61462 0.0
H586 H 0.81924 0.96954 0.62397 0.0
H587 H 0.795 0.88878 0.61271 0.0
Tb588 Tb 0.12447 0.85081 0.63897 0.0
C589 C 0.20647 0.98482 0.59117 0.0
C590 C 0.24506 0.9659 0.61199 0.0
C591 C 0.24743 0.98926 0.57219 0.0
C592 C 0.21829 0.96997 0.61096 0.0
C593 C 0.22085 0.99571 0.57162 0.0
C594 C 0.25953 0.97437 0.59236 0.0
C595 C 0.18187 1.02255 0.55304 0.0
N596 N 0.18082 0.9908 0.5914 0.0
C597 C 0.16846 1.01138 0.5729 0.0
C598 C 0.20815 1.01403 0.55229 0.0
Tb599 Tb 0.16036 0.97038 0.62453 0.0
N600 N 0.20361 0.96274 0.62954 0.0
C601 C 0.21486 0.95551 0.65017 0.0
C602 C 0.2565 0.95512 0.63283 0.0
C603 C 0.24133 0.95071 0.65206 0.0
H604 H 0.14813 1.0177 0.57319 0.0
H605 H 0.25 0.94346 0.66836 0.0
H606 H 0.2801 0.97087 0.59275 0.0
H607 H 0.1719 0.0375 0.5383 0.0
H608 H 0.20358 0.95181 0.66527 0.0
H609 H 0.03501 0.86894 0.59398 0.0
H610 H 0.277 0.9515 0.63434 0.0
H611 H 0.13641 0.80895 0.6913 0.0
H612 H 0.08146 0.86352 0.59759 0.0
H613 H 0.11243 0.793 0.72637 0.0
H614 H 0.25884 0.99694 0.5573 0.0
H615 H 1.00773 0.86308 0.62788 0.0
H616 H 1.00436 0.84889 0.66979 0.0
H617 H 0.21849 1.02275 0.5369 0.0
H618 H 0.02547 0.82844 0.70593 0.0
N619 N 0.08118 0.85593 0.63347 0.0
C620 C 0.07008 0.86068 0.61264 0.0
C621 C 0.02824 0.86063 0.62962 0.0
C622 C 0.03956 0.85295 0.65075 0.0
C623 C 0.04357 0.86382 0.61046 0.0
C624 C 0.06636 0.85034 0.65207 0.0
H625 H 0.06576 0.80678 0.72715 0.0
N626 N 0.10381 0.83345 0.67236 0.0
C627 C 0.10254 0.80611 0.7113 0.0
C628 C 0.07811 0.83872 0.67228 0.0
C629 C 0.11606 0.81509 0.69132 0.0
C630 C 0.07621 0.81407 0.71169 0.0
C631 C 0.06359 0.82962 0.69192 0.0
O632 O 0.13757 0.7714 0.64574 0.0
O633 O 0.16211 0.88332 0.63075 0.0
O634 O 0.16276 0.91563 0.59569 0.0
O635 O 0.1265 0.86288 0.6017 0.0
O636 O 0.15974 0.8294 0.65664 0.0
O637 O 0.11273 0.7867 0.61767 0.0
O638 O 0.14936 0.05154 0.61816 0.0
O639 O 0.1231 0.93682 0.6321 0.0
O640 O 0.12144 0.90795 0.66752 0.0
O641 O 0.15843 0.95772 0.66134 0.0
O642 O 0.12451 0.99471 0.6079 0.0
O643 O 0.17142 0.03105 0.64758 0.0
C644 C 0.17562 0.85704 0.64483 0.0
C645 C 0.10999 0.70007 0.63535 0.0
C646 C 0.10776 0.60049 0.63877 0.0
C647 C 0.12096 0.64823 0.63224 0.0
C648 C 0.0835 0.60618 0.64866 0.0
C649 C 0.0856 0.70402 0.64477 0.0
C650 C 0.07252 0.65741 0.65145 0.0
C651 C 0.14465 0.88261 0.58831 0.0
C652 C 0.12449 0.74963 0.62944 0.0
C653 C 0.03697 0.83476 0.69099 0.0
C654 C 0.02496 0.84639 0.67041 0.0
C655 C 0.10909 0.96424 0.61894 0.0
C656 C 0.17758 0.11897 0.63191 0.0
C657 C 0.16644 0.17116 0.63227 0.0
C658 C 0.18164 0.21821 0.62991 0.0
C659 C 0.20803 0.21218 0.62678 0.0
C660 C 0.20396 0.11415 0.62867 0.0
C661 C 0.21902 0.16051 0.62603 0.0
C662 C 0.13946 0.94187 0.67456 0.0
C663 C 0.16156 0.0703 0.63563 0.0
H664 H 0.13964 0.64532 0.6246 0.0
H665 H 0.07299 0.57109 0.65459 0.0
H666 H 0.07667 0.74304 0.64709 0.0
H667 H 0.05383 0.66101 0.65899 0.0
H668 H 0.1461 0.17517 0.63493 0.0
H669 H 0.22015 0.24752 0.62473 0.0
H670 H 0.213 0.07472 0.62842 0.0
H671 H 0.23936 0.15638 0.62356 0.0
Tb672 Tb 0.66082 0.58445 0.12457 0.0
C673 C 0.57778 0.71623 0.17214 0.0
C674 C 0.53941 0.70101 0.15045 0.0
C675 C 0.53645 0.72107 0.19051 0.0
C676 C 0.56621 0.70372 0.15195 0.0
C677 C 0.56307 0.72645 0.19157 0.0
C678 C 0.52463 0.70832 0.16996 0.0
C679 C 0.6018 0.7518 0.21091 0.0
N680 N 0.60346 0.72171 0.17233 0.0
C681 C 0.61553 0.74136 0.19116 0.0
C682 C 0.57548 0.74357 0.21123 0.0
Tb683 Tb 0.62448 0.70317 0.13924 0.0
N684 N 0.5812 0.6978 0.13348 0.0
C685 C 0.57026 0.69283 0.11259 0.0
C686 C 0.52828 0.69276 0.12928 0.0
C687 C 0.54378 0.68941 0.11023 0.0
H688 H 0.63585 0.74774 0.19125 0.0
H689 H 0.53536 0.68403 0.0937 0.0
H690 H 0.50404 0.70576 0.1692 0.0
H691 H 0.61153 0.76612 0.22589 0.0
H692 H 0.58173 0.69009 0.0976 0.0
H693 H 0.74874 0.60921 0.17125 0.0
H694 H 0.50778 0.6902 0.1274 0.0
H695 H 0.6503 0.54438 0.07187 0.0
H696 H 0.70244 0.60016 0.16679 0.0
H697 H 0.67527 0.53064 0.03708 0.0
H698 H 0.52481 0.72819 0.2053 0.0
H699 H 0.7769 0.60482 0.13787 0.0
H700 H 0.78148 0.59 0.09606 0.0
H701 H 0.56488 0.75188 0.22652 0.0
H702 H 0.7615 0.56839 0.0595 0.0
N703 N 0.70379 0.59218 0.13095 0.0
C704 C 0.71427 0.59802 0.15196 0.0
C705 C 0.75648 0.60082 0.13575 0.0
C706 C 0.74581 0.59183 0.11445 0.0
C707 C 0.74065 0.60321 0.15463 0.0
C708 C 0.71911 0.58718 0.11264 0.0
H709 H 0.72188 0.54573 0.03736 0.0
N710 N 0.68236 0.56846 0.09159 0.0
C711 C 0.68472 0.54315 0.05247 0.0
C712 C 0.70799 0.57472 0.09222 0.0
C713 C 0.67065 0.55077 0.07225 0.0
C714 C 0.71101 0.55184 0.05268 0.0
C715 C 0.72305 0.56704 0.07281 0.0
O716 O 0.65068 0.50375 0.11626 0.0
O717 O 0.62335 0.61709 0.132 0.0
O718 O 0.62119 0.64629 0.16787 0.0
O719 O 0.6574 0.5937 0.16153 0.0
O720 O 0.62537 0.56063 0.10715 0.0
O721 O 0.67131 0.52175 0.1468 0.0
O722 O 0.63789 0.78262 0.14562 0.0
O723 O 0.66218 0.6709 0.13156 0.0
O724 O 0.66418 0.64227 0.09686 0.0
O725 O 0.62653 0.69029 0.10206 0.0
O726 O 0.65954 0.72427 0.15747 0.0
O727 O 0.61313 0.76681 0.11757 0.0
C728 C 0.60969 0.58999 0.11842 0.0
C729 C 0.67819 0.43517 0.13018 0.0
C730 C 0.6825 0.33596 0.12834 0.0
C731 C 0.66718 0.38282 0.13053 0.0
C732 C 0.7089 0.34236 0.12538 0.0
C733 C 0.70458 0.44037 0.1271 0.0
C734 C 0.71978 0.3942 0.12463 0.0
C735 C 0.63843 0.61022 0.17465 0.0
C736 C 0.66204 0.48354 0.1339 0.0
C737 C 0.74958 0.57373 0.07425 0.0
C738 C 0.76095 0.58607 0.09506 0.0
C739 C 0.67558 0.69666 0.14584 0.0
C740 C 0.61053 0.85389 0.13484 0.0
C741 C 0.62163 0.90561 0.13159 0.0
C742 C 0.60846 0.95356 0.13784 0.0
C743 C 0.5841 0.9482 0.1476 0.0
C744 C 0.58606 0.85026 0.14412 0.0
C745 C 0.57302 0.89709 0.15053 0.0
C746 C 0.64552 0.67302 0.08908 0.0
C747 C 0.62495 0.80409 0.12919 0.0
H748 H 0.64683 0.37854 0.1331 0.0
H749 H 0.72113 0.30718 0.12347 0.0
H750 H 0.71351 0.47995 0.12686 0.0
H751 H 0.74012 0.3986 0.1223 0.0
H752 H 0.64038 0.90826 0.12405 0.0
H753 H 0.57361 0.98346 0.15332 0.0
H754 H 0.57704 0.81132 0.14653 0.0
H755 H 0.55425 0.89374 0.15796 0.0
Tb756 Tb 0.37056 0.47816 0.12471 0.0
C757 C 0.45502 0.34282 0.16876 0.0
C758 C 0.49248 0.35708 0.14583 0.0
C759 C 0.49711 0.33593 0.18567 0.0
C760 C 0.46575 0.35527 0.14823 0.0
C761 C 0.47051 0.33209 0.18769 0.0
C762 C 0.50809 0.3484 0.16475 0.0
C763 C 0.43239 0.31064 0.20865 0.0
N764 N 0.42931 0.33919 0.16994 0.0
C765 C 0.41788 0.32132 0.18936 0.0
C766 C 0.45883 0.31659 0.2079 0.0
Tb767 Tb 0.407 0.35838 0.13759 0.0
N768 N 0.44999 0.36324 0.13038 0.0
C769 C 0.46 0.36959 0.10921 0.0
C770 C 0.5027 0.36637 0.1244 0.0
C771 C 0.48637 0.372 0.10598 0.0
H772 H 0.39745 0.31679 0.19021 0.0
H773 H 0.49407 0.37842 0.08926 0.0
H774 H 0.52864 0.35015 0.16329 0.0
H775 H 0.42318 0.29779 0.22409 0.0
H776 H 0.44792 0.37435 0.09467 0.0
H777 H 0.28223 0.44607 0.16992 0.0
H778 H 0.52312 0.36828 0.12184 0.0
H779 H 0.38096 0.5311 0.07408 0.0
H780 H 0.3285 0.45676 0.16611 0.0
H781 H 0.35611 0.55281 0.03992 0.0
H782 H 0.50936 0.32824 0.20005 0.0
H783 H 0.25436 0.45409 0.13642 0.0
H784 H 0.25006 0.47542 0.09507 0.0
H785 H 0.47005 0.30806 0.22284 0.0
H786 H 0.27019 0.50502 0.0596 0.0
N787 N 0.3275 0.46873 0.13045 0.0
C788 C 0.31682 0.46037 0.15123 0.0
C789 C 0.27478 0.45861 0.13457 0.0
C790 C 0.28561 0.47072 0.11362 0.0
C791 C 0.29044 0.45425 0.15352 0.0
C792 C 0.31232 0.47588 0.11216 0.0
H793 H 0.30971 0.53508 0.03898 0.0
N794 N 0.3491 0.49991 0.09222 0.0
C795 C 0.34671 0.53559 0.05452 0.0
C796 C 0.32352 0.49244 0.09232 0.0
C797 C 0.36073 0.52328 0.07395 0.0
C798 C 0.32054 0.52538 0.05402 0.0
C799 C 0.30853 0.50437 0.07321 0.0
O800 O 0.38314 0.55879 0.11976 0.0
O801 O 0.40808 0.44467 0.1315 0.0
O802 O 0.41103 0.41495 0.16633 0.0
O803 O 0.37364 0.46396 0.16132 0.0
O804 O 0.40591 0.50288 0.10741 0.0
O805 O 0.35807 0.53908 0.14717 0.0
O806 O 0.3964 0.27759 0.14534 0.0
O807 O 0.36916 0.39081 0.13056 0.0
O808 O 0.36769 0.42573 0.09519 0.0
O809 O 0.40365 0.37157 0.1005 0.0
O810 O 0.37235 0.33578 0.15592 0.0
O811 O 0.41529 0.29672 0.11412 0.0
C812 C 0.42166 0.4724 0.11812 0.0
C813 C 0.35437 0.62717 0.13094 0.0
C814 C 0.35148 0.72662 0.12726 0.0
C815 C 0.36541 0.6793 0.13303 0.0
C816 C 0.3264 0.72024 0.11917 0.0
C817 C 0.32919 0.62253 0.12331 0.0
C818 C 0.31538 0.66874 0.11738 0.0
C819 C 0.39318 0.4485 0.17396 0.0
C820 C 0.3695 0.57804 0.13621 0.0
C821 C 0.28204 0.49662 0.07416 0.0
C822 C 0.27059 0.47975 0.09435 0.0
C823 C 0.35608 0.36366 0.14466 0.0
C824 C 0.42238 0.2088 0.12946 0.0
C825 C 0.41086 0.15691 0.12969 0.0
C826 C 0.4259 0.10936 0.13068 0.0
C827 C 0.45253 0.11461 0.1319 0.0
C828 C 0.44901 0.21277 0.13076 0.0
C829 C 0.46393 0.16594 0.13207 0.0
C830 C 0.38536 0.3922 0.08747 0.0
C831 C 0.40646 0.25805 0.127 0.0
H832 H 0.38473 0.68276 0.13932 0.0
H833 H 0.31524 0.755 0.11389 0.0
H834 H 0.32017 0.58326 0.12185 0.0
H835 H 0.29605 0.66461 0.11123 0.0
H836 H 0.39031 0.15353 0.12849 0.0
H837 H 0.46456 0.0789 0.13289 0.0
H838 H 0.45834 0.25192 0.13048 0.0
H839 H 0.48446 0.16944 0.13304 0.0
Tb840 Tb 0.66196 0.47839 0.37966 0.0
C841 C 0.57634 0.33713 0.3404 0.0
C842 C 0.54001 0.35522 0.36423 0.0
C843 C 0.53349 0.32827 0.32521 0.0
C844 C 0.56661 0.35281 0.36091 0.0
C845 C 0.55996 0.3234 0.3224 0.0
C846 C 0.52353 0.34419 0.34611 0.0
C847 C 0.59694 0.29607 0.30108 0.0
N848 N 0.60194 0.33241 0.33849 0.0
C849 C 0.61235 0.30986 0.31948 0.0
C850 C 0.57064 0.30358 0.30242 0.0
Tb851 Tb 0.62592 0.35662 0.3693 0.0
N852 N 0.58322 0.36267 0.37799 0.0
C853 C 0.57416 0.3712 0.39938 0.0
C854 C 0.5308 0.36712 0.38578 0.0
C855 C 0.54796 0.37437 0.40349 0.0
H856 H 0.63268 0.30398 0.31823 0.0
H857 H 0.54105 0.38266 0.42034 0.0
H858 H 0.50306 0.34644 0.34826 0.0
H859 H 0.60538 0.27962 0.28588 0.0
H860 H 0.58683 0.37736 0.41341 0.0
H861 H 0.74682 0.44089 0.33015 0.0
H862 H 0.51052 0.36959 0.38903 0.0
H863 H 0.65536 0.53681 0.4296 0.0
H864 H 0.70094 0.45317 0.33627 0.0
H865 H 0.68273 0.56176 0.46193 0.0
H866 H 0.52058 0.31843 0.31153 0.0
H867 H 0.77695 0.45035 0.36202 0.0
H868 H 0.78419 0.4748 0.40275 0.0
H869 H 0.55872 0.29258 0.28819 0.0
H870 H 0.76674 0.50827 0.43872 0.0
N871 N 0.70446 0.46731 0.37168 0.0
C872 C 0.71365 0.45741 0.35046 0.0
C873 C 0.75672 0.45552 0.36489 0.0
C874 C 0.74741 0.46941 0.38623 0.0
C875 C 0.73978 0.45036 0.34686 0.0
C876 C 0.72088 0.4753 0.38906 0.0
H877 H 0.72895 0.54212 0.46079 0.0
N878 N 0.68568 0.5021 0.4106 0.0
C879 C 0.69095 0.54233 0.44726 0.0
C880 C 0.71115 0.49374 0.40924 0.0
C881 C 0.67551 0.52823 0.4289 0.0
C882 C 0.71702 0.531 0.44659 0.0
C883 C 0.72751 0.50728 0.42725 0.0
O884 O 0.64985 0.55919 0.385 0.0
O885 O 0.62443 0.44365 0.37389 0.0
O886 O 0.62162 0.40745 0.33886 0.0
O887 O 0.65643 0.46588 0.34317 0.0
O888 O 0.62705 0.50311 0.39757 0.0
O889 O 0.67372 0.53902 0.35679 0.0
O890 O 0.63718 0.27563 0.36276 0.0
O891 O 0.66374 0.39056 0.37517 0.0
O892 O 0.6656 0.42958 0.41021 0.0
O893 O 0.63045 0.37241 0.40604 0.0
O894 O 0.66008 0.33418 0.35034 0.0
O895 O 0.61838 0.29674 0.39374 0.0
C896 C 0.61113 0.47201 0.38729 0.0
C897 C 0.67861 0.62693 0.37295 0.0
C898 C 0.68205 0.72615 0.37722 0.0
C899 C 0.6676 0.67919 0.3719 0.0
C900 C 0.70764 0.71926 0.38386 0.0
C901 C 0.70431 0.62182 0.37902 0.0
C902 C 0.71863 0.66764 0.38456 0.0
C903 C 0.6378 0.44438 0.33095 0.0
C904 C 0.66298 0.57818 0.36816 0.0
C905 C 0.75384 0.49871 0.42499 0.0
C906 C 0.76378 0.47966 0.40451 0.0
C907 C 0.67655 0.36286 0.36107 0.0
C908 C 0.61125 0.20792 0.37941 0.0
C909 C 0.62279 0.15616 0.37871 0.0
C910 C 0.60776 0.10854 0.37813 0.0
C911 C 0.58109 0.11353 0.3778 0.0
C912 C 0.58457 0.21168 0.379 0.0
C913 C 0.56964 0.16475 0.37809 0.0
C914 C 0.64859 0.39532 0.41855 0.0
C915 C 0.62721 0.25728 0.38132 0.0
H916 H 0.64789 0.68304 0.36671 0.0
H917 H 0.71924 0.75369 0.38879 0.0
H918 H 0.71336 0.5825 0.3795 0.0
H919 H 0.73837 0.66311 0.38953 0.0
H920 H 0.64338 0.15294 0.3792 0.0
H921 H 0.56907 0.07771 0.37715 0.0
H922 H 0.57521 0.25074 0.37966 0.0
H923 H 0.54908 0.16809 0.37781 0.0
Tb924 Tb 0.37125 0.57892 0.38084 0.0
C925 C 0.4561 0.71191 0.3376 0.0
C926 C 0.49329 0.69659 0.36083 0.0
C927 C 0.49833 0.71642 0.32091 0.0
C928 C 0.4666 0.69944 0.35825 0.0
C929 C 0.4718 0.72174 0.31875 0.0
C930 C 0.50906 0.70387 0.34193 0.0
C931 C 0.4341 0.74631 0.29772 0.0
N932 N 0.43045 0.71731 0.33632 0.0
C933 C 0.41938 0.73658 0.31696 0.0
C934 C 0.46041 0.7382 0.29852 0.0
Tb935 Tb 0.40776 0.69884 0.36852 0.0
N936 N 0.45067 0.69314 0.37608 0.0
C937 C 0.4605 0.68734 0.39735 0.0
C938 C 0.5033 0.68786 0.38239 0.0
C939 C 0.48683 0.68392 0.40076 0.0
H940 H 0.39906 0.74285 0.31608 0.0
H941 H 0.49439 0.67797 0.41758 0.0
H942 H 0.52959 0.70119 0.34352 0.0
H943 H 0.42516 0.76014 0.28229 0.0
H944 H 0.44826 0.68385 0.41184 0.0
H945 H 0.28339 0.61135 0.33479 0.0
H946 H 0.52368 0.68516 0.38508 0.0
H947 H 0.38145 0.52684 0.43166 0.0
H948 H 0.32964 0.6025 0.33916 0.0
H949 H 0.35625 0.50258 0.46526 0.0
H950 H 0.51072 0.7233 0.30658 0.0
H951 H 0.25503 0.59923 0.3677 0.0
H952 H 0.25025 0.57466 0.40867 0.0
H953 H 0.47179 0.74609 0.28364 0.0
H954 H 0.27007 0.5445 0.44421 0.0
N955 N 0.32821 0.58754 0.37462 0.0
C956 C 0.31779 0.59715 0.35382 0.0
C957 C 0.27546 0.59552 0.3698 0.0
C958 C 0.28606 0.58228 0.39075 0.0
C959 C 0.2914 0.60223 0.35119 0.0
C960 C 0.31279 0.57822 0.39256 0.0
H961 H 0.30959 0.51662 0.46538 0.0
N962 N 0.34948 0.55557 0.41294 0.0
C963 C 0.34689 0.51925 0.45053 0.0
C964 C 0.32382 0.56126 0.41242 0.0
C965 C 0.3611 0.53299 0.4314 0.0
C966 C 0.32056 0.52737 0.45056 0.0
C967 C 0.30864 0.5479 0.43123 0.0
O968 O 0.38227 0.4974 0.38642 0.0
O969 O 0.40881 0.6126 0.37458 0.0
O970 O 0.4118 0.64297 0.33953 0.0
O971 O 0.37443 0.59373 0.34434 0.0
O972 O 0.40657 0.55366 0.39825 0.0
O973 O 0.36071 0.51973 0.35696 0.0
O974 O 0.39527 0.77854 0.36139 0.0
O975 O 0.36975 0.66653 0.3754 0.0
O976 O 0.36775 0.63121 0.4103 0.0
O977 O 0.40379 0.68555 0.40563 0.0
O978 O 0.37342 0.72057 0.34966 0.0
O979 O 0.41817 0.76234 0.39065 0.0
C980 C 0.42237 0.58458 0.38786 0.0
C981 C 0.35424 0.43085 0.37164 0.0
C982 C 0.3503 0.33155 0.37371 0.0
C983 C 0.36552 0.37877 0.37208 0.0
C984 C 0.32373 0.33731 0.37533 0.0
C985 C 0.32766 0.43535 0.37339 0.0
C986 C 0.31256 0.38884 0.37532 0.0
C987 C 0.39396 0.60946 0.33179 0.0
C988 C 0.37034 0.47973 0.36862 0.0
C989 C 0.28208 0.55411 0.4299 0.0
C990 C 0.2708 0.57132 0.40967 0.0
C991 C 0.35691 0.69338 0.36099 0.0
C992 C 0.42221 0.84944 0.37356 0.0
C993 C 0.41097 0.90128 0.37594 0.0
C994 C 0.42472 0.94908 0.37046 0.0
C995 C 0.44982 0.94346 0.36235 0.0
C996 C 0.44738 0.84558 0.36593 0.0
C997 C 0.46102 0.89225 0.36029 0.0
C998 C 0.38533 0.66454 0.41838 0.0
C999 C 0.40726 0.79981 0.37845 0.0
H1000 H 0.38602 0.37497 0.37058 0.0
H1001 H 0.31157 0.30184 0.37679 0.0
H1002 H 0.31849 0.47468 0.37301 0.0
H1003 H 0.29208 0.39273 0.37663 0.0
H1004 H 0.39165 0.90412 0.38222 0.0
H1005 H 0.46084 0.97859 0.35725 0.0
H1006 H 0.45652 0.80656 0.36422 0.0
H1007 H 0.48036 0.88871 0.35413 0.0
Tb1008 Tb 0.40689 0.35245 0.86681 0.0
C1009 C 0.32538 0.47764 0.91673 0.0
C1010 C 0.28691 0.46164 0.89528 0.0
C1011 C 0.28447 0.47554 0.93585 0.0
C1012 C 0.31364 0.46654 0.89645 0.0
C1013 C 0.31099 0.48312 0.93665 0.0
C1014 C 0.27244 0.46489 0.91517 0.0
C1015 C 0.34983 0.50711 0.9562 0.0
N1016 N 0.35097 0.48499 0.91671 0.0
C1017 C 0.36323 0.50168 0.93592 0.0
C1018 C 0.32363 0.49721 0.95663 0.0
Tb1019 Tb 0.37148 0.47136 0.883 0.0
N1020 N 0.32831 0.46431 0.87765 0.0
C1021 C 0.31711 0.46186 0.85682 0.0
C1022 C 0.27551 0.45566 0.87409 0.0
C1023 C 0.29065 0.45686 0.85476 0.0
H1024 H 0.38352 0.50884 0.93582 0.0
H1025 H 0.28198 0.45355 0.83824 0.0
H1026 H 0.2519 0.46065 0.91466 0.0
H1027 H 0.35973 0.51877 0.97148 0.0
H1028 H 0.32845 0.46229 0.84167 0.0
H1029 H 0.4972 0.36807 0.91071 0.0
H1030 H 0.25503 0.45174 0.87244 0.0
H1031 H 0.39407 0.30928 0.81489 0.0
H1032 H 0.45072 0.36311 0.90768 0.0
H1033 H 0.41744 0.29132 0.77969 0.0
H1034 H 0.27306 0.47914 0.951 0.0
H1035 H 0.52391 0.36256 0.87645 0.0
H1036 H 0.52655 0.34836 0.8345 0.0
H1037 H 0.31328 0.50161 0.97233 0.0
H1038 H 0.50479 0.32738 0.7987 0.0
N1039 N 0.45033 0.35675 0.87174 0.0
C1040 C 0.4618 0.36069 0.89245 0.0
C1041 C 0.50336 0.36051 0.87495 0.0
C1042 C 0.49167 0.35325 0.85396 0.0
C1043 C 0.48835 0.36348 0.89431 0.0
C1044 C 0.46483 0.35116 0.85296 0.0
H1045 H 0.46411 0.30486 0.77819 0.0
N1046 N 0.42702 0.33437 0.83325 0.0
C1047 C 0.4276 0.30515 0.79452 0.0
C1048 C 0.45272 0.33947 0.83295 0.0
C1049 C 0.41441 0.31536 0.81459 0.0
C1050 C 0.45392 0.313 0.79372 0.0
C1051 C 0.46689 0.32947 0.81319 0.0
O1052 O 0.39299 0.27344 0.86034 0.0
O1053 O 0.36962 0.38557 0.87519 0.0
O1054 O 0.36831 0.41167 0.91004 0.0
O1055 O 0.40584 0.36401 0.9041 0.0
O1056 O 0.37118 0.33263 0.84911 0.0
O1057 O 0.41828 0.28817 0.88812 0.0
O1058 O 0.38156 0.55164 0.892 0.0
O1059 O 0.40863 0.43828 0.87467 0.0
O1060 O 0.40964 0.41005 0.83845 0.0
O1061 O 0.37405 0.46392 0.84587 0.0
O1062 O 0.40742 0.49387 0.89989 0.0
O1063 O 0.36079 0.53512 0.86137 0.0
C1064 C 0.35569 0.36106 0.86096 0.0
C1065 C 0.42024 0.2015 0.87054 0.0
C1066 C 0.42218 0.10183 0.86782 0.0
C1067 C 0.40929 0.14989 0.87434 0.0
C1068 C 0.4461 0.10693 0.85724 0.0
C1069 C 0.4443 0.20491 0.86044 0.0
C1070 C 0.45706 0.15795 0.85377 0.0
C1071 C 0.38704 0.3806 0.91741 0.0
C1072 C 0.4061 0.25138 0.87653 0.0
C1073 C 0.49355 0.33433 0.81375 0.0
C1074 C 0.50593 0.34625 0.83413 0.0
C1075 C 0.42273 0.46465 0.88817 0.0
C1076 C 0.35378 0.62058 0.87883 0.0
C1077 C 0.36448 0.67316 0.87813 0.0
C1078 C 0.34901 0.71961 0.8808 0.0
C1079 C 0.32277 0.7126 0.88457 0.0
C1080 C 0.32757 0.61471 0.88277 0.0
C1081 C 0.31222 0.6605 0.88568 0.0
C1082 C 0.39245 0.4468 0.83222 0.0
C1083 C 0.37005 0.57268 0.8746 0.0
H1084 H 0.39087 0.14741 0.88251 0.0
H1085 H 0.45634 0.07152 0.85131 0.0
H1086 H 0.45321 0.24379 0.8576 0.0
H1087 H 0.4755 0.16113 0.84571 0.0
H1088 H 0.38469 0.67794 0.87492 0.0
H1089 H 0.31045 0.7475 0.88684 0.0
H1090 H 0.31889 0.5749 0.88332 0.0
H1091 H 0.29201 0.65559 0.88866 0.0
Tb1092 Tb 0.62617 0.69549 0.86879 0.0
C1093 C 0.70931 0.55893 0.91368 0.0
C1094 C 0.7472 0.57953 0.89216 0.0
C1095 C 0.75092 0.55299 0.93154 0.0
C1096 C 0.72047 0.57529 0.8938 0.0
C1097 C 0.72437 0.54643 0.93269 0.0
C1098 C 0.76232 0.56957 0.91129 0.0
C1099 C 0.68604 0.51771 0.95182 0.0
N1100 N 0.68366 0.55286 0.91403 0.0
C1101 C 0.67195 0.53059 0.9325 0.0
C1102 C 0.71234 0.52632 0.95203 0.0
Tb1103 Tb 0.66213 0.57518 0.88165 0.0
N1104 N 0.70518 0.58369 0.87567 0.0
C1105 C 0.71573 0.59228 0.85486 0.0
C1106 C 0.75793 0.59188 0.8712 0.0
C1107 C 0.74212 0.59747 0.8524 0.0
H1108 H 0.65161 0.52414 0.9326 0.0
H1109 H 0.75025 0.60584 0.83598 0.0
H1110 H 0.78287 0.57313 0.91043 0.0
H1111 H 0.67659 0.50134 0.96656 0.0
H1112 H 0.70395 0.59674 0.84007 0.0
H1113 H 0.53826 0.6735 0.91576 0.0
H1114 H 0.77837 0.5957 0.86922 0.0
H1115 H 0.63632 0.74293 0.81712 0.0
H1116 H 0.58454 0.67916 0.91106 0.0
H1117 H 0.61112 0.76371 0.78312 0.0
H1118 H 0.76283 0.54408 0.94601 0.0
H1119 H 0.50982 0.68239 0.88268 0.0
H1120 H 0.50502 0.70076 0.84117 0.0
H1121 H 0.72321 0.51624 0.96701 0.0
H1122 H 0.52489 0.72528 0.80494 0.0
N1123 N 0.58307 0.68965 0.87531 0.0
C1124 C 0.57268 0.68327 0.89634 0.0
C1125 C 0.53027 0.68487 0.88045 0.0
C1126 C 0.54087 0.69442 0.85918 0.0
C1127 C 0.54626 0.67998 0.89915 0.0
C1128 C 0.56762 0.69694 0.85719 0.0
H1129 H 0.56443 0.74988 0.78322 0.0
N1130 N 0.60437 0.71589 0.83629 0.0
C1131 C 0.60175 0.7485 0.79811 0.0
C1132 C 0.57869 0.71063 0.83693 0.0
C1133 C 0.61598 0.73671 0.81748 0.0
C1134 C 0.57542 0.74048 0.79821 0.0
C1135 C 0.56349 0.72223 0.8179 0.0
O1136 O 0.6392 0.7753 0.86255 0.0
O1137 O 0.6639 0.66254 0.87618 0.0
O1138 O 0.66525 0.62797 0.91106 0.0
O1139 O 0.62925 0.68195 0.90587 0.0
O1140 O 0.661 0.71716 0.85059 0.0
O1141 O 0.61522 0.7583 0.89099 0.0
O1142 O 0.65119 0.49372 0.88766 0.0
O1143 O 0.62473 0.60901 0.87482 0.0
O1144 O 0.62255 0.64068 0.83945 0.0
O1145 O 0.65901 0.58861 0.84496 0.0
O1146 O 0.62669 0.55045 0.89876 0.0
O1147 O 0.67283 0.51536 0.85819 0.0
C1148 C 0.67711 0.68926 0.86205 0.0
C1149 C 0.61178 0.84576 0.87416 0.0
C1150 C 0.60943 0.94534 0.87088 0.0
C1151 C 0.62306 0.89757 0.87657 0.0
C1152 C 0.58444 0.93973 0.86246 0.0
C1153 C 0.58667 0.84192 0.86628 0.0
C1154 C 0.57318 0.88856 0.86037 0.0
C1155 C 0.64754 0.66129 0.91887 0.0
C1156 C 0.62657 0.7961 0.8793 0.0
C1157 C 0.5369 0.71708 0.81942 0.0
C1158 C 0.52559 0.70315 0.84004 0.0
C1159 C 0.61103 0.58111 0.88807 0.0
C1160 C 0.67944 0.42711 0.87333 0.0
C1161 C 0.66832 0.37486 0.87366 0.0
C1162 C 0.68367 0.32795 0.87549 0.0
C1163 C 0.7102 0.33415 0.87742 0.0
C1164 C 0.70598 0.4321 0.8754 0.0
C1165 C 0.7212 0.38588 0.87752 0.0
C1166 C 0.63992 0.6056 0.83211 0.0
C1167 C 0.66323 0.47564 0.87002 0.0
H1168 H 0.64231 0.90042 0.88308 0.0
H1169 H 0.57354 0.97484 0.85718 0.0
H1170 H 0.57745 0.80297 0.86462 0.0
H1171 H 0.55391 0.88502 0.85401 0.0
H1172 H 0.64785 0.37068 0.87189 0.0
H1173 H 0.72244 0.29889 0.87903 0.0
H1174 H 0.71503 0.47157 0.87508 0.0
H1175 H 0.74165 0.39014 0.87906 0.0
Tb1176 Tb 0.40777 0.70251 0.63874 0.0
C1177 C 0.32394 0.57304 0.5934 0.0
C1178 C 0.28652 0.59147 0.61591 0.0
C1179 C 0.2821 0.57225 0.57584 0.0
C1180 C 0.31317 0.58629 0.61388 0.0
C1181 C 0.30856 0.5648 0.57421 0.0
C1182 C 0.27109 0.58557 0.59667 0.0
C1183 C 0.34637 0.53798 0.55383 0.0
N1184 N 0.34952 0.56576 0.5926 0.0
C1185 C 0.36078 0.54614 0.57341 0.0
C1186 C 0.32018 0.54796 0.55414 0.0
Tb1187 Tb 0.37156 0.58256 0.62529 0.0
N1188 N 0.32874 0.59117 0.63207 0.0
C1189 C 0.31858 0.59763 0.65315 0.0
C1190 C 0.27617 0.60105 0.63728 0.0
C1191 C 0.29226 0.60342 0.65602 0.0
H1192 H 0.38104 0.53866 0.57299 0.0
H1193 H 0.28443 0.60992 0.67268 0.0
H1194 H 0.2506 0.58995 0.59783 0.0
H1195 H 0.35548 0.52401 0.53851 0.0
H1196 H 0.33065 0.59987 0.66785 0.0
H1197 H 0.49571 0.67904 0.59178 0.0
H1198 H 0.25581 0.6055 0.63955 0.0
H1199 H 0.39818 0.75396 0.68971 0.0
H1200 H 0.44958 0.68571 0.59647 0.0
H1201 H 0.42342 0.77559 0.72361 0.0
H1202 H 0.26994 0.56658 0.56124 0.0
H1203 H 0.52423 0.68794 0.62479 0.0
H1204 H 0.52916 0.70753 0.6662 0.0
H1205 H 0.30905 0.54134 0.53898 0.0
H1206 H 0.50943 0.73392 0.70226 0.0
N1207 N 0.45098 0.69636 0.63223 0.0
C1208 C 0.46137 0.68969 0.61121 0.0
C1209 C 0.5038 0.6908 0.62704 0.0
C1210 C 0.49327 0.70116 0.64825 0.0
C1211 C 0.48777 0.6859 0.60838 0.0
C1212 C 0.46652 0.7042 0.65023 0.0
H1213 H 0.47 0.76038 0.72375 0.0
N1214 N 0.42993 0.72482 0.67088 0.0
C1215 C 0.43272 0.75936 0.70878 0.0
C1216 C 0.45556 0.71902 0.67034 0.0
C1217 C 0.41848 0.74711 0.68946 0.0
C1218 C 0.45898 0.75057 0.70882 0.0
C1219 C 0.47082 0.73115 0.68928 0.0
O1220 O 0.39603 0.78329 0.64505 0.0
O1221 O 0.37008 0.66933 0.63168 0.0
O1222 O 0.36799 0.6385 0.59692 0.0
O1223 O 0.40542 0.68751 0.60174 0.0
O1224 O 0.37285 0.72496 0.65678 0.0
O1225 O 0.41673 0.76313 0.61497 0.0
O1226 O 0.38333 0.50265 0.61779 0.0
O1227 O 0.40906 0.61568 0.63288 0.0
O1228 O 0.41004 0.64993 0.6688 0.0
O1229 O 0.37577 0.59097 0.66217 0.0
O1230 O 0.40692 0.55942 0.60781 0.0
O1231 O 0.35929 0.51875 0.64641 0.0
C1232 C 0.35677 0.69611 0.64568 0.0
C1233 C 0.4228 0.8516 0.63001 0.0
C1234 C 0.4262 0.951 0.63126 0.0
C1235 C 0.41127 0.90338 0.62962 0.0
C1236 C 0.45274 0.94596 0.63372 0.0
C1237 C 0.44932 0.84778 0.6326 0.0
C1238 C 0.46413 0.8947 0.63452 0.0
C1239 C 0.38646 0.66939 0.58891 0.0
C1240 C 0.40707 0.80221 0.62708 0.0
C1241 C 0.49738 0.72534 0.68783 0.0
C1242 C 0.5086 0.71033 0.66732 0.0
C1243 C 0.42265 0.58848 0.61927 0.0
C1244 C 0.35514 0.43261 0.62851 0.0
C1245 C 0.36587 0.38036 0.63094 0.0
C1246 C 0.35203 0.33324 0.6247 0.0
C1247 C 0.32729 0.33994 0.61585 0.0
C1248 C 0.3303 0.43764 0.62011 0.0
C1249 C 0.31654 0.39161 0.61375 0.0
C1250 C 0.39354 0.6122 0.67548 0.0
C1251 C 0.37032 0.48133 0.63424 0.0
H1252 H 0.39081 0.90662 0.62749 0.0
H1253 H 0.46466 0.98177 0.63521 0.0
H1254 H 0.45866 0.80865 0.63289 0.0
H1255 H 0.48457 0.89134 0.63647 0.0
H1256 H 0.3849 0.37667 0.63785 0.0
H1257 H 0.31623 0.30533 0.61021 0.0
H1258 H 0.32153 0.47705 0.61838 0.0
H1259 H 0.29748 0.39601 0.60702 0.0
Tb1260 Tb 0.62455 0.35031 0.63869 0.0
C1261 C 0.7089 0.48161 0.59456 0.0
C1262 C 0.746 0.46331 0.61754 0.0
C1263 C 0.75103 0.48368 0.57764 0.0
C1264 C 0.71937 0.46799 0.61512 0.0
C1265 C 0.72456 0.49046 0.57561 0.0
C1266 C 0.76174 0.47015 0.59859 0.0
C1267 C 0.68691 0.51572 0.5546 0.0
N1268 N 0.68329 0.48794 0.59334 0.0
C1269 C 0.67221 0.50687 0.57394 0.0
C1270 C 0.71318 0.50693 0.55537 0.0
Tb1271 Tb 0.66079 0.47034 0.62565 0.0
N1272 N 0.7035 0.46206 0.63302 0.0
C1273 C 0.71331 0.45525 0.65423 0.0
C1274 C 0.75601 0.45325 0.63902 0.0
C1275 C 0.7396 0.44994 0.65748 0.0
H1276 H 0.65188 0.51334 0.57315 0.0
H1277 H 0.74717 0.44312 0.67423 0.0
H1278 H 0.78223 0.4662 0.60005 0.0
H1279 H 0.67796 0.52922 0.53913 0.0
H1280 H 0.70099 0.45234 0.66872 0.0
H1281 H 0.53672 0.37503 0.59159 0.0
H1282 H 0.77635 0.44917 0.64159 0.0
H1283 H 0.63382 0.29746 0.68953 0.0
H1284 H 0.58289 0.36688 0.59633 0.0
H1285 H 0.6085 0.27729 0.72349 0.0
H1286 H 0.76341 0.4899 0.56325 0.0
H1287 H 0.50823 0.36822 0.62467 0.0
H1288 H 0.50329 0.35017 0.6662 0.0
H1289 H 0.72453 0.51399 0.54039 0.0
H1290 H 0.52291 0.32369 0.70233 0.0
N1291 N 0.58141 0.35733 0.63211 0.0
C1292 C 0.57104 0.36377 0.61106 0.0
C1293 C 0.52865 0.36471 0.62692 0.0
C1294 C 0.53916 0.35471 0.6482 0.0
C1295 C 0.54466 0.36841 0.60822 0.0
C1296 C 0.56589 0.35081 0.65019 0.0
H1297 H 0.56215 0.29535 0.72377 0.0
N1298 N 0.60237 0.32894 0.67088 0.0
C1299 C 0.59934 0.29421 0.70871 0.0
C1300 C 0.57679 0.33609 0.67037 0.0
C1301 C 0.61363 0.30569 0.68937 0.0
C1302 C 0.57321 0.30463 0.70883 0.0
C1303 C 0.5615 0.32471 0.68933 0.0
O1304 O 0.63828 0.2707 0.64408 0.0
O1305 O 0.66236 0.38347 0.63186 0.0
O1306 O 0.66494 0.41416 0.59745 0.0
O1307 O 0.62745 0.36504 0.60166 0.0
O1308 O 0.65922 0.32883 0.65733 0.0
O1309 O 0.61317 0.28773 0.61647 0.0
O1310 O 0.65083 0.55109 0.61739 0.0
O1311 O 0.62327 0.43704 0.63254 0.0
O1312 O 0.6217 0.40289 0.66866 0.0
O1313 O 0.65599 0.46201 0.66247 0.0
O1314 O 0.62562 0.49396 0.60787 0.0
O1315 O 0.67111 0.53274 0.64812 0.0
C1316 C 0.67546 0.3572 0.64621 0.0
C1317 C 0.61057 0.20011 0.63322 0.0
C1318 C 0.60852 0.10053 0.6366 0.0
C1319 C 0.6218 0.14842 0.63041 0.0
C1320 C 0.58394 0.10591 0.6459 0.0
C1321 C 0.58585 0.20374 0.64199 0.0
C1322 C 0.57272 0.15698 0.64838 0.0
C1323 C 0.64659 0.38339 0.58911 0.0
C1324 C 0.62507 0.24992 0.62768 0.0
C1325 C 0.53499 0.33161 0.68788 0.0
C1326 C 0.52382 0.34664 0.66732 0.0
C1327 C 0.60978 0.46449 0.61895 0.0
C1328 C 0.67839 0.61936 0.63161 0.0
C1329 C 0.66742 0.6717 0.63152 0.0
C1330 C 0.68284 0.71849 0.62946 0.0
C1331 C 0.7093 0.71204 0.62706 0.0
C1332 C 0.70485 0.6141 0.62912 0.0
C1333 C 0.72015 0.66019 0.62676 0.0
C1334 C 0.63795 0.44097 0.67549 0.0
C1335 C 0.66208 0.57108 0.63515 0.0
H1336 H 0.64073 0.14576 0.62324 0.0
H1337 H 0.57335 0.0707 0.65158 0.0
H1338 H 0.5767 0.24266 0.644 0.0
H1339 H 0.55377 0.16035 0.65543 0.0
H1340 H 0.64701 0.67603 0.63365 0.0
H1341 H 0.7216 0.74718 0.62526 0.0
H1342 H 0.71376 0.57453 0.62928 0.0
H1343 H 0.74055 0.65574 0.62487 0.0
H1344 H 0.20401 0.24395 0.17907 0.0
H1345 H 0.20816 0.20395 0.10845 0.0
H1346 H 0.2454 0.28657 0.17725 0.0
H1347 H 0.25126 0.24343 0.10675 0.0
H1348 H 0.32251 0.35926 0.1075 0.0
H1349 H 0.27943 0.31926 0.10658 0.0
H1350 H 0.28761 0.2742 0.1767 0.0
H1351 H 0.32891 0.31725 0.1778 0.0
C1352 C 0.21415 0.24297 0.16315 0.0
C1353 C 0.20279 0.21883 0.14413 0.0
C1354 C 0.2383 0.2673 0.16209 0.0
C1355 C 0.25264 0.26814 0.14194 0.0
C1356 C 0.24119 0.24417 0.12266 0.0
C1357 C 0.21653 0.22042 0.12369 0.0
C1358 C 0.31465 0.34214 0.12282 0.0
C1359 C 0.32901 0.34334 0.14296 0.0
C1360 C 0.29001 0.31814 0.12225 0.0
C1361 C 0.27921 0.29358 0.14168 0.0
C1362 C 0.29419 0.29394 0.16148 0.0
C1363 C 0.3183 0.31851 0.16211 0.0
H1364 H 0.82841 0.81514 0.17854 0.0
H1365 H 0.82209 0.86048 0.10858 0.0
H1366 H 0.7872 0.77187 0.17702 0.0
H1367 H 0.77908 0.82015 0.10727 0.0
H1368 H 0.7082 0.70327 0.10817 0.0
H1369 H 0.75117 0.74356 0.10681 0.0
H1370 H 0.74495 0.78397 0.17757 0.0
H1371 H 0.70372 0.74059 0.17903 0.0
C1372 C 0.81785 0.81706 0.16284 0.0
C1373 C 0.82858 0.84278 0.1439 0.0
C1374 C 0.79378 0.79236 0.16197 0.0
C1375 C 0.77885 0.79277 0.14214 0.0
C1376 C 0.78964 0.81838 0.12294 0.0
C1377 C 0.81425 0.84254 0.12374 0.0
C1378 C 0.71647 0.71932 0.12352 0.0
C1379 C 0.70267 0.71677 0.14392 0.0
C1380 C 0.74104 0.74354 0.12271 0.0
C1381 C 0.75235 0.76699 0.14216 0.0
C1382 C 0.73796 0.76515 0.16227 0.0
C1383 C 0.7139 0.74037 0.16313 0.0
H1384 H 0.32191 0.6947 0.39723 0.0
H1385 H 0.33145 0.74554 0.32825 0.0
H1386 H 0.27949 0.7372 0.39782 0.0
H1387 H 0.2912 0.79192 0.32925 0.0
H1388 H 0.20934 0.83838 0.32552 0.0
H1389 H 0.2496 0.7914 0.3268 0.0
H1390 H 0.25151 0.80967 0.39938 0.0
H1391 H 0.20929 0.85252 0.39788 0.0
C1392 C 0.3149 0.71435 0.38211 0.0
C1393 C 0.33 0.71494 0.36244 0.0
C1394 C 0.2906 0.73991 0.38251 0.0
C1395 C 0.28093 0.76829 0.36346 0.0
C1396 C 0.29666 0.7694 0.34414 0.0
C1397 C 0.3203 0.74291 0.34359 0.0
C1398 C 0.21845 0.83302 0.34178 0.0
C1399 C 0.20606 0.85059 0.36149 0.0
C1400 C 0.24201 0.80606 0.34261 0.0
C1401 C 0.25494 0.79667 0.36321 0.0
C1402 C 0.24261 0.81511 0.38307 0.0
C1403 C 0.21845 0.84095 0.38224 0.0
H1404 H 0.82768 0.23399 0.32898 0.0
H1405 H 0.82287 0.20004 0.40011 0.0
H1406 H 0.78661 0.27799 0.32999 0.0
H1407 H 0.78009 0.24126 0.40106 0.0
H1408 H 0.71015 0.36069 0.39827 0.0
H1409 H 0.75279 0.31886 0.39993 0.0
H1410 H 0.74419 0.26718 0.33064 0.0
H1411 H 0.7033 0.31182 0.32877 0.0
C1412 C 0.81747 0.23467 0.34486 0.0
C1413 C 0.82858 0.21188 0.36428 0.0
C1414 C 0.79349 0.25985 0.34546 0.0
C1415 C 0.77908 0.26303 0.36553 0.0
C1416 C 0.79024 0.24026 0.38519 0.0
C1417 C 0.81471 0.21553 0.38461 0.0
C1418 C 0.71781 0.34165 0.38327 0.0
C1419 C 0.70344 0.3414 0.36313 0.0
C1420 C 0.7422 0.31662 0.38429 0.0
C1421 C 0.75276 0.28962 0.36532 0.0
C1422 C 0.73779 0.28868 0.34551 0.0
C1423 C 0.71391 0.31419 0.34444 0.0
H1424 H 0.71057 0.69207 0.89934 0.0
H1425 H 0.7044 0.7372 0.82935 0.0
H1426 H 0.75357 0.73235 0.90071 0.0
H1427 H 0.74561 0.7805 0.83092 0.0
H1428 H 0.82914 0.81132 0.82907 0.0
H1429 H 0.78785 0.76824 0.83045 0.0
H1430 H 0.78151 0.80882 0.90119 0.0
H1431 H 0.82455 0.84881 0.89991 0.0
C1432 C 0.71845 0.70995 0.88418 0.0
C1433 C 0.70416 0.70963 0.864 0.0
C1434 C 0.74305 0.73409 0.88502 0.0
C1435 C 0.75388 0.75964 0.86583 0.0
C1436 C 0.73899 0.76003 0.84597 0.0
C1437 C 0.71493 0.73532 0.84507 0.0
C1438 C 0.81892 0.81165 0.84495 0.0
C1439 C 0.83013 0.83519 0.86417 0.0
C1440 C 0.79482 0.78705 0.84576 0.0
C1441 C 0.78038 0.78533 0.86584 0.0
C1442 C 0.79167 0.80875 0.88531 0.0
C1443 C 0.81629 0.83279 0.88454 0.0
H1444 H 0.32931 0.32876 0.89956 0.0
H1445 H 0.3212 0.34709 0.82779 0.0
H1446 H 0.28813 0.28237 0.90123 0.0
H1447 H 0.27949 0.30682 0.8292 0.0
H1448 H 0.21122 0.20095 0.82839 0.0
H1449 H 0.25285 0.24159 0.8291 0.0
H1450 H 0.24741 0.2589 0.90171 0.0
H1451 H 0.20624 0.21218 0.90063 0.0
C1452 C 0.31833 0.32429 0.88419 0.0
C1453 C 0.32857 0.34223 0.86353 0.0
C1454 C 0.29443 0.29729 0.88503 0.0
C1455 C 0.27966 0.28814 0.86527 0.0
C1456 C 0.28982 0.30924 0.84491 0.0
C1457 C 0.31392 0.33403 0.84401 0.0
C1458 C 0.21917 0.21257 0.84458 0.0
C1459 C 0.20541 0.20229 0.86441 0.0
C1460 C 0.24324 0.23755 0.84508 0.0
C1461 C 0.25427 0.25671 0.86543 0.0
C1462 C 0.2404 0.24552 0.8855 0.0
C1463 C 0.21652 0.21834 0.885 0.0
H1464 H 0.70307 0.31194 0.67946 0.0
H1465 H 0.70871 0.35191 0.60892 0.0
H1466 H 0.74428 0.26848 0.67822 0.0
H1467 H 0.75159 0.31132 0.6078 0.0
H1468 H 0.82196 0.19331 0.60946 0.0
H1469 H 0.77915 0.23429 0.60805 0.0
H1470 H 0.78668 0.27991 0.67816 0.0
H1471 H 0.8278 0.23611 0.67972 0.0
C1472 C 0.71348 0.31269 0.66368 0.0
C1473 C 0.70257 0.33704 0.6445 0.0
C1474 C 0.73754 0.28784 0.66295 0.0
C1475 C 0.75221 0.28657 0.643 0.0
C1476 C 0.74124 0.31083 0.62358 0.0
C1477 C 0.7167 0.3352 0.62426 0.0
C1478 C 0.81404 0.2108 0.62467 0.0
C1479 C 0.82818 0.2096 0.64493 0.0
C1480 C 0.78954 0.23535 0.62381 0.0
C1481 C 0.77863 0.26043 0.64308 0.0
C1482 C 0.79336 0.2599 0.66303 0.0
C1483 C 0.81736 0.23488 0.66394 0.0
H1484 H 0.20355 0.81255 0.67795 0.0
H1485 H 0.20879 0.85273 0.60741 0.0
H1486 H 0.24503 0.77064 0.67671 0.0
H1487 H 0.25208 0.81406 0.60632 0.0
H1488 H 0.32407 0.70115 0.60797 0.0
H1489 H 0.28086 0.73995 0.60645 0.0
H1490 H 0.28711 0.78283 0.67697 0.0
H1491 H 0.32857 0.74065 0.67862 0.0
C1492 C 0.21394 0.81369 0.66217 0.0
C1493 C 0.20283 0.83763 0.64299 0.0
C1494 C 0.23819 0.78981 0.66145 0.0
C1495 C 0.25292 0.7893 0.64153 0.0
C1496 C 0.24172 0.81305 0.62208 0.0
C1497 C 0.21694 0.83631 0.62274 0.0
C1498 C 0.31575 0.71736 0.62326 0.0
C1499 C 0.3296 0.71567 0.64367 0.0
C1500 C 0.29102 0.74077 0.62234 0.0
C1501 C 0.27961 0.76441 0.64168 0.0
C1502 C 0.29412 0.76371 0.66177 0.0
C1503 C 0.31833 0.73965 0.66274 0.0
H1504 H 0.16788 0.04269 0.31815 0.0
H1505 H 0.11344 0.92069 0.29742 0.0
H1506 H 0.16571 0.08369 0.28062 0.0
H1507 H 0.11205 0.96056 0.25977 0.0
H1508 H 0.14437 1.01059 0.18897 0.0
H1509 H 0.14411 0.97208 0.22698 0.0
H1510 H 0.13242 0.13225 0.25486 0.0
H1511 H 0.13256 0.17072 0.21669 0.0
C1512 C 0.15559 1.02419 0.30562 0.0
C1513 C 0.14123 0.97739 0.31085 0.0
C1514 C 0.15425 0.04801 0.28412 0.0
C1515 C 0.13882 1.02524 0.26716 0.0
C1516 C 0.12437 0.97872 0.27237 0.0
C1517 C 0.12532 0.95557 0.29398 0.0
C1518 C 0.14163 0.03763 0.20319 0.0
C1519 C 0.13826 0.0938 0.19976 0.0
C1520 C 0.14134 1.01548 0.22497 0.0
C1521 C 0.13822 0.04905 0.24397 0.0
C1522 C 0.13492 0.10531 0.24058 0.0
C1523 C 0.1347 0.12734 0.21869 0.0
H1524 H 0.9314 0.10977 0.30332 0.0
H1525 H 0.85552 0.04537 0.31266 0.0
H1526 H 0.93258 0.06989 0.26538 0.0
H1527 H 0.85691 1.00535 0.27527 0.0
H1528 H 0.85488 1.0002 0.19871 0.0
H1529 H 0.85622 0.03817 0.23643 0.0
H1530 H 0.93307 0.97919 0.2449 0.0
H1531 H 0.93189 0.94119 0.20657 0.0
C1532 C 0.91497 0.08737 0.29732 0.0
C1533 C 0.89327 0.08139 0.31106 0.0
C1534 C 0.91575 0.06403 0.27565 0.0
C1535 C 0.89479 0.03457 0.26719 0.0
C1536 C 0.87327 0.02837 0.28105 0.0
C1537 C 0.87253 0.05129 0.30263 0.0
C1538 C 0.87213 0.99496 0.2085 0.0
C1539 C 0.89324 0.96722 0.19951 0.0
C1540 C 0.87283 1.01667 0.23028 0.0
C1541 C 0.8947 1.01162 0.24381 0.0
C1542 C 0.91597 0.98412 0.23488 0.0
C1543 C 0.9152 0.9619 0.21299 0.0
H1544 H 0.89431 0.99933 0.68804 0.0
H1545 H 0.89775 0.16008 0.71698 0.0
H1546 H 0.89678 0.95935 0.72587 0.0
H1547 H 0.89982 0.1202 0.75488 0.0
H1548 H 0.86367 1.02013 0.81492 0.0
H1549 H 0.86614 0.06114 0.77764 0.0
H1550 H 0.92933 0.95677 0.76092 0.0
H1551 H 0.92775 0.91696 0.79881 0.0
C1552 C 0.8958 0.0261 0.70251 0.0
C1553 C 0.89607 0.08286 0.69957 0.0
C1554 C 0.89734 1.0032 0.72413 0.0
C1555 C 0.89855 0.03661 0.74333 0.0
C1556 C 0.89895 0.09345 0.74037 0.0
C1557 C 0.898 0.11633 0.71868 0.0
C1558 C 0.87824 1.00578 0.80347 0.0
C1559 C 0.89535 0.96445 0.80998 0.0
C1560 C 0.87968 0.02965 0.78207 0.0
C1561 C 0.89792 1.01227 0.76636 0.0
C1562 C 0.91496 0.97079 0.77267 0.0
C1563 C 0.91393 0.94771 0.79434 0.0
H1564 H 0.17823 0.04247 0.81065 0.0
H1565 H 0.10177 0.10455 0.80263 0.0
H1566 H 0.17646 1.00382 0.77301 0.0
H1567 H 0.10017 0.06592 0.76446 0.0
H1568 H 0.10041 0.9367 0.70573 0.0
H1569 H 0.0998 0.97532 0.74393 0.0
H1570 H 0.17604 0.0368 0.73414 0.0
H1571 H 0.17684 0.99814 0.6965 0.0
C1572 C 0.16101 0.04817 0.80084 0.0
C1573 C 0.14019 0.07707 0.80975 0.0
C1574 C 0.16006 0.02606 0.77913 0.0
C1575 C 0.13822 0.03186 0.76559 0.0
C1576 C 0.11723 0.06037 0.77448 0.0
C1577 C 0.11825 0.08295 0.79628 0.0
C1578 C 0.11709 0.95813 0.71182 0.0
C1579 C 0.13875 0.9638 0.69801 0.0
C1580 C 0.11664 0.98072 0.73363 0.0
C1581 C 0.13792 1.00904 0.74218 0.0
C1582 C 0.15945 1.01468 0.72829 0.0
C1583 C 0.15984 0.99256 0.70657 0.0
H1584 H 0.63331 0.38929 0.29075 0.0
H1585 H 0.6352 0.55057 0.31929 0.0
H1586 H 0.63138 0.42865 0.25269 0.0
H1587 H 0.63282 0.58995 0.28139 0.0
H1588 H 0.60383 0.63298 0.20847 0.0
H1589 H 0.60138 0.59227 0.24612 0.0
H1590 H 0.66479 0.48793 0.23005 0.0
H1591 H 0.66809 0.52982 0.19297 0.0
C1592 C 0.63272 0.43302 0.28892 0.0
C1593 C 0.63424 0.46684 0.30796 0.0
C1594 C 0.63185 0.4556 0.26715 0.0
C1595 C 0.6319 0.51244 0.26406 0.0
C1596 C 0.63254 0.5461 0.28321 0.0
C1597 C 0.63402 0.52355 0.30487 0.0
C1598 C 0.61751 0.60201 0.21302 0.0
C1599 C 0.63642 0.58562 0.19763 0.0
C1600 C 0.61596 0.57838 0.23456 0.0
C1601 C 0.63283 0.5367 0.24101 0.0
C1602 C 0.65137 0.51954 0.22552 0.0
C1603 C 0.6533 0.54395 0.20424 0.0
H1604 H 0.43392 0.61427 0.30131 0.0
H1605 H 0.35719 0.55334 0.30922 0.0
H1606 H 0.4354 0.57461 0.26321 0.0
H1607 H 0.35889 0.51373 0.27191 0.0
H1608 H 0.43297 0.44239 0.2046 0.0
H1609 H 0.43484 0.48261 0.24257 0.0
H1610 H 0.3592 0.54766 0.23331 0.0
H1611 H 0.35711 0.50746 0.19609 0.0
C1612 C 0.41738 0.59277 0.29497 0.0
C1613 C 0.39537 0.58754 0.30836 0.0
C1614 C 0.41833 0.56958 0.27324 0.0
C1615 C 0.3972 0.54119 0.26442 0.0
C1616 C 0.37537 0.53594 0.27795 0.0
C1617 C 0.37447 0.55866 0.2995 0.0
C1618 C 0.41671 0.46498 0.21078 0.0
C1619 C 0.3948 0.47111 0.19726 0.0
C1620 C 0.41789 0.48848 0.23243 0.0
C1621 C 0.39711 0.51817 0.24106 0.0
C1622 C 0.37542 0.52446 0.22741 0.0
C1623 C 0.37427 0.50137 0.20591 0.0
H1624 H 0.42601 0.42328 0.79775 0.0
H1625 H 0.36242 0.52731 0.81434 0.0
H1626 H 0.42749 0.46308 0.75993 0.0
H1627 H 0.36478 0.56845 0.77699 0.0
H1628 H 0.39715 0.66648 0.7159 0.0
H1629 H 0.39825 0.62691 0.75389 0.0
H1630 H 0.39533 0.46588 0.72504 0.0
H1631 H 0.39385 0.50556 0.68712 0.0
C1632 C 0.41224 0.45419 0.79339 0.0
C1633 C 0.39381 0.4711 0.80914 0.0
C1634 C 0.41322 0.47729 0.77173 0.0
C1635 C 0.39628 0.51899 0.76551 0.0
C1636 C 0.37821 0.53669 0.78134 0.0
C1637 C 0.37683 0.51278 0.80277 0.0
C1638 C 0.39719 0.62275 0.71767 0.0
C1639 C 0.39566 0.58917 0.69855 0.0
C1640 C 0.39756 0.60005 0.73941 0.0
C1641 C 0.39696 0.54325 0.74244 0.0
C1642 C 0.39603 0.50972 0.72325 0.0
C1643 C 0.39506 0.53245 0.70158 0.0
H1644 H 0.67036 0.52811 0.81288 0.0
H1645 H 0.60502 0.62924 0.79848 0.0
H1646 H 0.66711 0.48761 0.77559 0.0
H1647 H 0.60263 0.58986 0.76049 0.0
H1648 H 0.63611 0.5478 0.68674 0.0
H1649 H 0.63422 0.58808 0.72457 0.0
H1650 H 0.63306 0.42741 0.75382 0.0
H1651 H 0.63459 0.38726 0.71596 0.0
C1652 C 0.65533 0.54212 0.80181 0.0
C1653 C 0.63805 0.5826 0.80883 0.0
C1654 C 0.65346 0.51854 0.78039 0.0
C1655 C 0.6346 0.53539 0.76514 0.0
C1656 C 0.61745 0.57622 0.7719 0.0
C1657 C 0.61893 0.59903 0.79362 0.0
C1658 C 0.63517 0.52114 0.70128 0.0
C1659 C 0.63528 0.46434 0.69842 0.0
C1660 C 0.63393 0.5442 0.72288 0.0
C1661 C 0.63344 0.51093 0.74214 0.0
C1662 C 0.63338 0.45406 0.73927 0.0
C1663 C 0.63403 0.43101 0.71761 0.0
H1664 H 0.18568 0.13696 0.95005 0.0
H1665 H 0.11093 0.20875 0.94484 0.0
H1666 H 0.1842 0.14497 0.99052 0.0
H1667 H 0.11029 0.22187 0.98569 0.0
H1668 H 0.10454 0.17613 0.06125 0.0
H1669 H 0.10512 0.1789 0.0201 0.0
H1670 H 0.18711 0.1973 0.02168 0.0
H1671 H 0.18636 0.19052 0.06256 0.0
C1672 C 0.16889 0.15483 0.95754 0.0
C1673 C 0.1481 0.17053 0.94407 0.0
C1674 C 0.16823 0.1606 0.98097 0.0
C1675 C 0.14708 0.18415 0.99183 0.0
C1676 C 0.12672 0.20241 0.97821 0.0
C1677 C 0.12718 0.19547 0.95466 0.0
C1678 C 0.12259 0.18154 0.05272 0.0
C1679 C 0.1454 0.18303 0.0651 0.0
C1680 C 0.12299 0.18328 0.02903 0.0
C1681 C 0.1462 0.18762 0.01716 0.0
C1682 C 0.16885 0.19213 0.02987 0.0
C1683 C 0.16847 0.189 0.05343 0.0
H1684 H 0.84687 0.86149 0.94609 0.0
H1685 H 0.92875 0.87463 0.94727 0.0
H1686 H 0.84618 0.85455 0.98696 0.0
H1687 H 0.92823 0.87147 0.98844 0.0
H1688 H 0.92207 0.8399 0.06363 0.0
H1689 H 0.92267 0.82748 0.02276 0.0
H1690 H 0.84956 0.9078 0.01804 0.0
H1691 H 0.8481 0.91545 0.05856 0.0
C1692 C 0.86479 0.86261 0.95518 0.0
C1693 C 0.88786 0.86839 0.94349 0.0
C1694 C 0.86443 0.85939 0.97873 0.0
C1695 C 0.88711 0.86349 0.99139 0.0
C1696 C 0.91033 0.86746 0.97951 0.0
C1697 C 0.9107 0.86939 0.95583 0.0
C1698 C 0.90599 0.85415 0.05384 0.0
C1699 C 0.88529 0.87981 0.06448 0.0
C1700 C 0.90643 0.84757 0.03028 0.0
C1701 C 0.88626 0.8669 0.01671 0.0
C1702 C 0.86535 0.89135 0.02759 0.0
C1703 C 0.86471 0.89685 0.05103 0.0
H1704 H 0.18189 0.8466 0.44543 0.0
H1705 H 0.10098 0.87558 0.44634 0.0
H1706 H 0.18208 0.83741 0.48628 0.0
H1707 H 0.10111 0.87011 0.48754 0.0
H1708 H 0.10611 0.83643 0.56288 0.0
H1709 H 0.10494 0.82408 0.52195 0.0
H1710 H 0.18075 0.89218 0.5172 0.0
H1711 H 0.18253 0.90013 0.55772 0.0
C1712 C 0.16404 0.85024 0.45447 0.0
C1713 C 0.14139 0.86104 0.44274 0.0
C1714 C 0.16414 0.84589 0.47799 0.0
C1715 C 0.14169 0.85407 0.49059 0.0
C1716 C 0.11877 0.86285 0.47864 0.0
C1717 C 0.11861 0.86592 0.45496 0.0
C1718 C 0.12265 0.84787 0.55307 0.0
C1719 C 0.14424 0.87023 0.56368 0.0
C1720 C 0.1219 0.84134 0.52949 0.0
C1721 C 0.14269 0.85726 0.51591 0.0
C1722 C 0.16445 0.87833 0.52677 0.0
C1723 C 0.16532 0.88393 0.55021 0.0
H1724 H 0.84646 0.13536 0.55916 0.0
H1725 H 0.92032 0.21182 0.56377 0.0
H1726 H 0.8477 0.14265 0.51858 0.0
H1727 H 0.9207 0.22382 0.52292 0.0
H1728 H 0.92683 0.17475 0.44772 0.0
H1729 H 0.92629 0.17872 0.48886 0.0
H1730 H 0.84426 0.19563 0.48733 0.0
H1731 H 0.84496 0.18799 0.44646 0.0
C1732 C 0.86301 0.15397 0.55152 0.0
C1733 C 0.88365 0.17128 0.56483 0.0
C1734 C 0.86351 0.1593 0.52806 0.0
C1735 C 0.88436 0.18382 0.51707 0.0
C1736 C 0.90453 0.20358 0.53053 0.0
C1737 C 0.90422 0.19721 0.55408 0.0
C1738 C 0.90879 0.18023 0.45625 0.0
C1739 C 0.88595 0.18102 0.44391 0.0
C1740 C 0.90841 0.18261 0.47991 0.0
C1741 C 0.88518 0.1868 0.49177 0.0
C1742 C 0.8625 0.19069 0.47911 0.0
C1743 C 0.86287 0.18706 0.45557 0.0
H1744 H 0.60436 0.67757 0.06073 0.0
H1745 H 0.68622 0.69115 0.06194 0.0
H1746 H 0.60487 0.68101 0.01958 0.0
H1747 H 0.68691 0.69843 0.02107 0.0
H1748 H 0.685 0.63811 0.94936 0.0
H1749 H 0.68364 0.64567 0.98988 0.0
H1750 H 0.61028 0.72506 0.98534 0.0
H1751 H 0.61078 0.71262 0.94447 0.0
C1752 C 0.6224 0.68298 0.05218 0.0
C1753 C 0.64524 0.68402 0.06452 0.0
C1754 C 0.62276 0.68508 0.0285 0.0
C1755 C 0.64598 0.68929 0.01663 0.0
C1756 C 0.66866 0.69342 0.02929 0.0
C1757 C 0.66831 0.69 0.05284 0.0
C1758 C 0.66836 0.65646 0.95693 0.0
C1759 C 0.64768 0.67318 0.94354 0.0
C1760 C 0.66777 0.66193 0.98038 0.0
C1761 C 0.64681 0.68606 0.99131 0.0
C1762 C 0.62656 0.70518 0.97778 0.0
C1763 C 0.62694 0.69859 0.95422 0.0
H1764 H 0.42842 0.37653 0.94555 0.0
H1765 H 0.34666 0.36016 0.94457 0.0
H1766 H 0.42806 0.37286 0.98674 0.0
H1767 H 0.34616 0.35286 0.98545 0.0
H1768 H 0.34794 0.41507 0.05691 0.0
H1769 H 0.34933 0.40707 0.01639 0.0
H1770 H 0.42277 0.32818 0.02109 0.0
H1771 H 0.42219 0.34079 0.06196 0.0
C1772 C 0.41046 0.3704 0.95416 0.0
C1773 C 0.38758 0.3687 0.94189 0.0
C1774 C 0.41018 0.36822 0.97784 0.0
C1775 C 0.38702 0.36335 0.98977 0.0
C1776 C 0.36434 0.35838 0.97717 0.0
C1777 C 0.3646 0.36179 0.95362 0.0
C1778 C 0.3646 0.39671 0.04938 0.0
C1779 C 0.38527 0.38015 0.06282 0.0
C1780 C 0.36521 0.39101 0.02594 0.0
C1781 C 0.3862 0.36687 0.01507 0.0
C1782 C 0.40647 0.348 0.02863 0.0
C1783 C 0.40604 0.35473 0.05218 0.0
H1784 H 0.61374 0.33923 0.44447 0.0
H1785 H 0.68524 0.42532 0.44899 0.0
H1786 H 0.61364 0.32768 0.48531 0.0
H1787 H 0.68411 0.4185 0.4896 0.0
H1788 H 0.60583 0.37368 0.56044 0.0
H1789 H 0.60665 0.37122 0.51933 0.0
H1790 H 0.68904 0.36683 0.52104 0.0
H1791 H 0.68795 0.37277 0.56194 0.0
C1792 C 0.62934 0.3562 0.45413 0.0
C1793 C 0.64915 0.38461 0.44332 0.0
C1794 C 0.62918 0.35005 0.4777 0.0
C1795 C 0.6487 0.37259 0.49115 0.0
C1796 C 0.66881 0.39974 0.48014 0.0
C1797 C 0.66921 0.40482 0.45664 0.0
C1798 C 0.62406 0.37139 0.55197 0.0
C1799 C 0.64681 0.37355 0.56442 0.0
C1800 C 0.6246 0.36986 0.5283 0.0
C1801 C 0.64794 0.36946 0.51648 0.0
C1802 C 0.67064 0.36877 0.52922 0.0
C1803 C 0.67007 0.37148 0.55279 0.0
H1804 H 0.42753 0.67596 0.56059 0.0
H1805 H 0.34555 0.68511 0.56159 0.0
H1806 H 0.42711 0.68103 0.51952 0.0
H1807 H 0.3449 0.69421 0.52079 0.0
H1808 H 0.34754 0.63997 0.44829 0.0
H1809 H 0.34854 0.64516 0.48885 0.0
H1810 H 0.42175 0.72585 0.48572 0.0
H1811 H 0.42167 0.71554 0.44475 0.0
C1812 C 0.40945 0.68064 0.55202 0.0
C1813 C 0.38659 0.68006 0.5643 0.0
C1814 C 0.40914 0.68375 0.52837 0.0
C1815 C 0.38594 0.68747 0.51641 0.0
C1816 C 0.36317 0.68966 0.52902 0.0
C1817 C 0.36349 0.68515 0.55255 0.0
C1818 C 0.36409 0.65811 0.45616 0.0
C1819 C 0.38488 0.67568 0.44311 0.0
C1820 C 0.36446 0.66221 0.47967 0.0
C1821 C 0.38528 0.6859 0.49103 0.0
C1822 C 0.40559 0.70613 0.47785 0.0
C1823 C 0.40545 0.70082 0.45422 0.0
H1824 H 0.95438 0.97118 0.1575 0.0
H1825 H 0.95139 1.01112 0.08686 0.0
H1826 H 0.99939 0.99839 0.1587 0.0
H1827 H 0.99514 0.04214 0.08813 0.0
H1828 H 0.07996 0.05121 0.0869 0.0
H1829 H 0.03637 1.01928 0.08814 0.0
H1830 H 0.03215 0.06216 0.1588 0.0
H1831 H 0.07706 0.09039 0.15763 0.0
C1832 C 0.9634 0.98517 0.14215 0.0
C1833 C 0.94946 0.9865 0.12181 0.0
C1834 C 0.98925 1.00191 0.14287 0.0
C1835 C 1.00179 1.02186 0.12339 0.0
C1836 C 0.98716 1.02517 0.1034 0.0
C1837 C 0.96169 1.00773 0.10265 0.0
C1838 C 0.06973 0.0541 0.10273 0.0
C1839 C 0.08192 0.0754 0.12193 0.0
C1840 C 0.04434 0.03616 0.10345 0.0
C1841 C 0.02974 0.03908 0.12343 0.0
C1842 C 0.04228 0.05893 0.14297 0.0
C1843 C 0.06805 0.07619 0.14228 0.0
H1844 H 0.95447 0.08279 0.35343 0.0
H1845 H 0.95068 0.04741 0.42444 0.0
H1846 H 0.99916 0.05386 0.35283 0.0
H1847 H 0.99392 1.01397 0.42378 0.0
H1848 H 0.07827 0.99406 0.42568 0.0
H1849 H 0.0353 0.02896 0.42427 0.0
H1850 H 0.03168 0.99218 0.35295 0.0
H1851 H 0.07618 0.9622 0.35431 0.0
C1852 C 0.96327 0.06946 0.369 0.0
C1853 C 0.94917 0.06987 0.38922 0.0
C1854 C 0.98895 0.0516 0.36864 0.0
C1855 C 1.00117 0.0319 0.38837 0.0
C1856 C 0.98635 0.0306 0.40828 0.0
C1857 C 0.9611 0.04943 0.40869 0.0
C1858 C 0.06829 0.99317 0.40967 0.0
C1859 C 0.08062 0.97333 0.3903 0.0
C1860 C 0.04318 1.01281 0.40883 0.0
C1861 C 0.02886 1.01261 0.38859 0.0
C1862 C 0.0415 0.99357 0.36899 0.0
C1863 C 0.06706 0.97511 0.36978 0.0
H1864 H 0.07898 0.07852 0.85161 0.0
H1865 H 0.08207 0.03841 0.92224 0.0
H1866 H 0.03384 0.05244 0.85057 0.0
H1867 H 0.03821 1.00827 0.92109 0.0
H1868 H 0.95333 1.00008 0.92253 0.0
H1869 H 0.99707 0.03103 0.9213 0.0
H1870 H 1.00079 0.98987 0.85043 0.0
H1871 H 0.95576 0.9629 0.85161 0.0
C1872 C 0.06996 0.06472 0.86699 0.0
C1873 C 0.08398 0.06298 0.88727 0.0
C1874 C 0.04403 0.04861 0.86636 0.0
C1875 C 0.03148 0.0288 0.88587 0.0
C1876 C 0.04618 1.02515 0.9058 0.0
C1877 C 0.07173 0.04206 0.90648 0.0
C1878 C 0.9635 0.9973 0.90667 0.0
C1879 C 0.95113 0.97687 0.88741 0.0
C1880 C 0.98898 1.01469 0.90594 0.0
C1881 C 1.00348 1.01202 0.88589 0.0
C1882 C 0.99077 0.99291 0.86632 0.0
C1883 C 0.96491 0.9763 0.86702 0.0
H1884 H 0.94989 0.03846 0.5872 0.0
H1885 H 0.9544 0.08398 0.65722 0.0
H1886 H 0.99363 1.00751 0.58816 0.0
H1887 H 0.99943 0.05676 0.65801 0.0
H1888 H 0.07715 0.96565 0.65677 0.0
H1889 H 0.03214 0.99262 0.65829 0.0
H1890 H 0.03484 0.03136 0.58718 0.0
H1891 H 0.07862 1.00071 0.58564 0.0
C1892 C 0.9605 0.04298 0.60279 0.0
C1893 C 0.94869 0.0657 0.62187 0.0
C1894 C 0.98596 1.0256 0.60333 0.0
C1895 C 1.00103 0.03051 0.623 0.0
C1896 C 0.98892 0.05195 0.64243 0.0
C1897 C 0.96307 0.06863 0.64193 0.0
C1898 C 0.06779 0.97849 0.64139 0.0
C1899 C 0.0813 0.97855 0.62084 0.0
C1900 C 0.04195 0.9951 0.64229 0.0
C1901 C 0.02898 1.01358 0.62276 0.0
C1902 C 0.04318 1.01557 0.60253 0.0
C1903 C 0.06865 0.99832 0.60161 0.0
H1904 H 0.45107 0.51326 0.08493 0.0
H1905 H 0.45472 0.46975 0.15519 0.0
H1906 H 0.49486 0.54412 0.08615 0.0
H1907 H 0.49973 0.49666 0.15628 0.0
H1908 H 0.57719 0.58822 0.15579 0.0
H1909 H 0.53223 0.56073 0.15677 0.0
H1910 H 0.53616 0.52135 0.08575 0.0
H1911 H 0.57989 0.55265 0.08473 0.0
C1912 C 0.46151 0.50908 0.10061 0.0
C1913 C 0.44945 0.487 0.11969 0.0
C1914 C 0.48699 0.52642 0.10133 0.0
C1915 C 0.50179 0.52209 0.12118 0.0
C1916 C 0.48944 0.50109 0.14056 0.0
C1917 C 0.46359 0.48452 0.13989 0.0
C1918 C 0.56811 0.57506 0.14031 0.0
C1919 C 0.58195 0.57499 0.11995 0.0
C1920 C 0.54231 0.55816 0.1409 0.0
C1921 C 0.5297 0.53934 0.12123 0.0
C1922 C 0.54422 0.53736 0.10118 0.0
C1923 C 0.56967 0.55495 0.10058 0.0
H1924 H 0.45484 0.58463 0.35049 0.0
H1925 H 0.45247 0.54679 0.42135 0.0
H1926 H 0.49994 0.55843 0.34928 0.0
H1927 H 0.49659 0.51747 0.42013 0.0
H1928 H 0.58204 0.51503 0.42034 0.0
H1929 H 0.53793 0.5443 0.41932 0.0
H1930 H 0.53244 0.49297 0.34974 0.0
H1931 H 0.57759 0.46687 0.35062 0.0
C1932 C 0.46401 0.57125 0.36588 0.0
C1933 C 0.45019 0.57015 0.38626 0.0
C1934 C 0.48991 0.55517 0.36516 0.0
C1935 C 0.50271 0.53637 0.38471 0.0
C1936 C 0.48827 0.53338 0.40478 0.0
C1937 C 0.46265 0.54988 0.40551 0.0
C1938 C 0.57141 0.50973 0.40481 0.0
C1939 C 0.58331 0.4867 0.38583 0.0
C1940 C 0.54578 0.52616 0.40423 0.0
C1941 C 0.53075 0.52023 0.38459 0.0
C1942 C 0.54296 0.49857 0.36527 0.0
C1943 C 0.56889 0.48261 0.36583 0.0
H1944 H 0.45303 0.50042 0.92173 0.0
H1945 H 0.45488 0.46689 0.85048 0.0
H1946 H 0.49675 0.5313 0.92051 0.0
H1947 H 0.49995 0.49367 0.84928 0.0
H1948 H 0.57813 0.5827 0.8508 0.0
H1949 H 0.5331 0.55574 0.84969 0.0
H1950 H 0.53786 0.50939 0.91996 0.0
H1951 H 0.58155 0.54049 0.9212 0.0
C1952 C 0.46308 0.49837 0.90579 0.0
C1953 C 0.45053 0.47905 0.88642 0.0
C1954 C 0.48856 0.5157 0.90506 0.0
C1955 C 0.50292 0.51405 0.88491 0.0
C1956 C 0.49005 0.49592 0.86525 0.0
C1957 C 0.46417 0.47941 0.86595 0.0
C1958 C 0.5692 0.56821 0.86612 0.0
C1959 C 0.58326 0.56626 0.88637 0.0
C1960 C 0.54334 0.55159 0.86544 0.0
C1961 C 0.53091 0.53101 0.88488 0.0
C1962 C 0.5457 0.52693 0.90475 0.0
C1963 C 0.57116 0.54438 0.90547 0.0
H1964 H 0.4519 0.54744 0.58606 0.0
H1965 H 0.45556 0.58904 0.65654 0.0
H1966 H 0.49542 0.51518 0.58727 0.0
H1967 H 0.5004 0.56036 0.65764 0.0
H1968 H 0.57731 0.46555 0.65642 0.0
H1969 H 0.53255 0.49467 0.65769 0.0
H1970 H 0.53682 0.53776 0.58707 0.0
H1971 H 0.58029 0.50508 0.58573 0.0
C1972 C 0.46228 0.5508 0.60182 0.0
C1973 C 0.4503 0.57273 0.62097 0.0
C1974 C 0.48763 0.53265 0.60252 0.0
C1975 C 0.50239 0.53597 0.62242 0.0
C1976 C 0.49012 0.55675 0.64188 0.0
C1977 C 0.46439 0.57425 0.64122 0.0
C1978 C 0.56834 0.47997 0.64109 0.0
C1979 C 0.58219 0.48069 0.62072 0.0
C1980 C 0.54267 0.49774 0.64185 0.0
C1981 C 0.53021 0.51801 0.62237 0.0
C1982 C 0.54476 0.52066 0.60235 0.0
C1983 C 0.57006 0.50226 0.60156 0.0
H1984 H 0.14212 0.79809 0.10509 0.0
H1985 H 0.19818 0.75176 0.15469 0.0
H1986 H 0.12525 0.70556 0.10505 0.0
H1987 H 0.18068 0.66006 0.1557 0.0
H1988 H 0.15889 0.48659 0.14083 0.0
H1989 H 0.17686 0.57738 0.1374 0.0
H1990 H 0.1017 0.64208 0.12446 0.0
H1991 H 0.08421 0.5511 0.12582 0.0
C1992 C 0.15058 0.76818 0.11623 0.0
C1993 C 0.17148 0.78215 0.12985 0.0
C1994 C 0.14088 0.715 0.11631 0.0
C1995 C 0.15151 0.67457 0.13036 0.0
C1996 C 0.17225 0.68918 0.14422 0.0
C1997 C 0.18221 0.74203 0.14382 0.0
C1998 C 0.14623 0.51993 0.13677 0.0
C1999 C 0.11995 0.51094 0.13382 0.0
C2000 C 0.15652 0.5725 0.13519 0.0
C2001 C 0.14081 0.61789 0.1309 0.0
C2002 C 0.11462 0.60863 0.12756 0.0
C2003 C 0.10443 0.55609 0.12876 0.0
H2004 H 0.83496 0.31093 0.15954 0.0
H2005 H 0.889 0.26389 0.10842 0.0
H2006 H 0.85253 0.4026 0.15988 0.0
H2007 H 0.90592 0.35636 0.10773 0.0
H2008 H 0.94755 0.51158 0.12669 0.0
H2009 H 0.93017 0.42044 0.12622 0.0
H2010 H 0.85549 0.48494 0.14118 0.0
H2011 H 0.87343 0.57594 0.14369 0.0
C2012 C 0.85052 0.32047 0.14821 0.0
C2013 C 0.86064 0.28017 0.134 0.0
C2014 C 0.86051 0.37332 0.14822 0.0
C2015 C 0.88067 0.38774 0.13372 0.0
C2016 C 0.89075 0.34709 0.11947 0.0
C2017 C 0.88101 0.29393 0.11976 0.0
C2018 C 0.92747 0.50653 0.13026 0.0
C2019 C 0.91209 0.55171 0.1356 0.0
C2020 C 0.91733 0.45388 0.12958 0.0
C2021 C 0.89131 0.44451 0.13375 0.0
C2022 C 0.87572 0.4899 0.13834 0.0
C2023 C 0.88597 0.54259 0.13939 0.0
H2024 H 0.17239 0.26215 0.37969 0.0
H2025 H 0.09481 0.29836 0.39894 0.0
H2026 H 0.17898 0.35682 0.36976 0.0
H2027 H 0.10204 0.39403 0.3906 0.0
H2028 H 0.11751 0.55638 0.35533 0.0
H2029 H 0.10875 0.46 0.36198 0.0
H2030 H 0.18484 0.44005 0.38883 0.0
H2031 H 0.19369 0.53554 0.38132 0.0
C2032 C 0.15664 0.29015 0.38164 0.0
C2033 C 0.13309 0.27252 0.39023 0.0
C2034 C 0.16057 0.34476 0.37632 0.0
C2035 C 0.14119 0.38333 0.37974 0.0
C2036 C 0.11738 0.36548 0.38766 0.0
C2037 C 0.11334 0.31067 0.39273 0.0
C2038 C 0.13221 0.53118 0.36276 0.0
C2039 C 0.15628 0.553 0.36773 0.0
C2040 C 0.12723 0.47608 0.36661 0.0
C2041 C 0.14617 0.44205 0.37575 0.0
C2042 C 0.17003 0.4646 0.38122 0.0
C2043 C 0.17507 0.51936 0.3771 0.0
H2044 H 0.87206 0.4797 0.36759 0.0
H2045 H 0.94754 0.54456 0.37892 0.0
H2046 H 0.85432 0.57044 0.37184 0.0
H2047 H 0.93015 0.63548 0.38112 0.0
H2048 H 0.89088 0.79132 0.40255 0.0
H2049 H 0.90782 0.69895 0.40165 0.0
H2050 H 0.84931 0.6532 0.35381 0.0
H2051 H 0.83184 0.74477 0.35574 0.0
C2052 C 0.88494 0.5131 0.37102 0.0
C2053 C 0.91137 0.50419 0.37269 0.0
C2054 C 0.87476 0.56566 0.37307 0.0
C2055 C 0.8907 0.61114 0.37658 0.0
C2056 C 0.91706 0.60197 0.37865 0.0
C2057 C 0.92716 0.54945 0.37696 0.0
C2058 C 0.88176 0.76143 0.39181 0.0
C2059 C 0.86001 0.77534 0.37926 0.0
C2060 C 0.8915 0.70831 0.39119 0.0
C2061 C 0.88003 0.66782 0.37766 0.0
C2062 C 0.85844 0.68235 0.36487 0.0
C2063 C 0.84848 0.73515 0.3658 0.0
H2064 H 0.8345 0.30165 0.85371 0.0
H2065 H 0.89119 0.25579 0.90281 0.0
H2066 H 0.85198 0.39335 0.85238 0.0
H2067 H 0.90808 0.34829 0.90252 0.0
H2068 H 0.94881 0.50266 0.88113 0.0
H2069 H 0.93137 0.41165 0.88275 0.0
H2070 H 0.85602 0.4762 0.87057 0.0
H2071 H 0.87391 0.56701 0.8669 0.0
C2072 C 0.85061 0.31146 0.8644 0.0
C2073 C 0.86151 0.27147 0.87833 0.0
C2074 C 0.86056 0.36432 0.86381 0.0
C2075 C 0.88148 0.37906 0.87743 0.0
C2076 C 0.8923 0.33875 0.89143 0.0
C2077 C 0.88259 0.28558 0.89171 0.0
C2078 C 0.92855 0.49763 0.87842 0.0
C2079 C 0.91295 0.54274 0.8735 0.0
C2080 C 0.91839 0.44508 0.87977 0.0
C2081 C 0.89216 0.43576 0.87672 0.0
C2082 C 0.87639 0.48111 0.87256 0.0
C2083 C 0.88663 0.5337 0.87084 0.0
H2084 H 0.14873 0.47871 0.85039 0.0
H2085 H 0.09443 0.52447 0.90151 0.0
H2086 H 0.16591 0.57106 0.85043 0.0
H2087 H 0.11219 0.61592 0.90249 0.0
H2088 H 0.13245 0.78946 0.88644 0.0
H2089 H 0.11488 0.69827 0.88362 0.0
H2090 H 0.19002 0.63489 0.86969 0.0
H2091 H 0.20713 0.7264 0.87054 0.0
C2092 C 0.14074 0.50842 0.86188 0.0
C2093 C 0.12018 0.49442 0.87587 0.0
C2094 C 0.15061 0.56147 0.86199 0.0
C2095 C 0.14045 0.60168 0.87639 0.0
C2096 C 0.12019 0.58694 0.89072 0.0
C2097 C 0.11009 0.53425 0.89032 0.0
C2098 C 0.14519 0.75634 0.88231 0.0
C2099 C 0.17134 0.76587 0.87888 0.0
C2100 C 0.13515 0.70355 0.88108 0.0
C2101 C 0.15097 0.65846 0.87668 0.0
C2102 C 0.17705 0.66817 0.87291 0.0
C2103 C 0.18701 0.72098 0.8738 0.0
H2104 H 0.82618 0.73023 0.63915 0.0
H2105 H 0.9002 0.794 0.62125 0.0
H2106 H 0.84329 0.63884 0.63912 0.0
H2107 H 0.91787 0.70282 0.62321 0.0
H2108 H 0.93781 0.5292 0.6046 0.0
H2109 H 0.92002 0.62059 0.60422 0.0
H2110 H 0.86801 0.575 0.65755 0.0
H2111 H 0.88517 0.48275 0.65698 0.0
C2112 C 0.84617 0.725 0.63525 0.0
C2113 C 0.86163 0.77007 0.62989 0.0
C2114 C 0.85615 0.67223 0.63564 0.0
C2115 C 0.88207 0.66272 0.63109 0.0
C2116 C 0.89771 0.70796 0.62636 0.0
C2117 C 0.88763 0.76073 0.62562 0.0
C2118 C 0.92251 0.53881 0.61619 0.0
C2119 C 0.91288 0.49882 0.63082 0.0
C2120 C 0.9124 0.59147 0.61613 0.0
C2121 C 0.8926 0.60598 0.63099 0.0
C2122 C 0.88292 0.56559 0.64558 0.0
C2123 C 0.89279 0.51259 0.64535 0.0
H2124 H 0.14033 0.25758 0.60686 0.0
H2125 H 0.19766 0.30432 0.65529 0.0
H2126 H 0.12337 0.34997 0.60722 0.0
H2127 H 0.18013 0.39589 0.65667 0.0
H2128 H 0.15822 0.56923 0.64181 0.0
H2129 H 0.17596 0.47835 0.63822 0.0
H2130 H 0.10037 0.41363 0.62714 0.0
H2131 H 0.08304 0.5047 0.62868 0.0
C2132 C 0.14906 0.28753 0.61784 0.0
C2133 C 0.17034 0.27373 0.631 0.0
C2134 C 0.13931 0.34064 0.61814 0.0
C2135 C 0.15031 0.38116 0.63195 0.0
C2136 C 0.17141 0.36669 0.64538 0.0
C2137 C 0.18139 0.31391 0.64476 0.0
C2138 C 0.1454 0.53587 0.63813 0.0
C2139 C 0.11906 0.5449 0.63574 0.0
C2140 C 0.15556 0.48325 0.63646 0.0
C2141 C 0.13968 0.43785 0.63264 0.0
C2142 C 0.11341 0.44711 0.62987 0.0
C2143 C 0.10333 0.49971 0.63117 0.0
H2144 H 0.58395 0.04913 0.12719 0.0
H2145 H 0.65894 0.98482 0.14106 0.0
H2146 H 0.60138 0.14013 0.12545 0.0
H2147 H 0.6768 0.07562 0.13727 0.0
H2148 H 0.69847 0.25018 0.15391 0.0
H2149 H 0.68097 0.15851 0.15539 0.0
H2150 H 0.62454 0.20344 0.10553 0.0
H2151 H 0.64145 0.29592 0.10509 0.0
C2152 C 0.60423 0.05416 0.1298 0.0
C2153 C 0.61986 1.00906 0.13465 0.0
C2154 C 0.61437 0.10671 0.12838 0.0
C2155 C 0.64062 0.11604 0.1313 0.0
C2156 C 0.65642 0.0707 0.13539 0.0
C2157 C 0.64619 1.01812 0.13718 0.0
C2158 C 0.68228 0.24034 0.14331 0.0
C2159 C 0.6713 0.2803 0.12942 0.0
C2160 C 0.67232 0.1875 0.14399 0.0
C2161 C 0.6513 0.17274 0.13049 0.0
C2162 C 0.64039 0.213 0.11653 0.0
C2163 C 0.65012 0.26616 0.11616 0.0
H2164 H 0.40133 0.75869 0.12038 0.0
H2165 H 0.3275 0.8222 0.13884 0.0
H2166 H 0.41909 0.8499 0.12243 0.0
H2167 H 0.34468 0.91362 0.13895 0.0
H2168 H 0.38665 0.07006 0.15645 0.0
H2169 H 0.36951 0.97772 0.15714 0.0
H2170 H 0.42117 0.93226 0.10354 0.0
H2171 H 0.43893 1.02374 0.1038 0.0
C2172 C 0.38882 0.79191 0.12491 0.0
C2173 C 0.36283 0.78249 0.12927 0.0
C2174 C 0.39895 0.84471 0.1257 0.0
C2175 C 0.38338 0.88992 0.13061 0.0
C2176 C 0.35749 0.88029 0.13532 0.0
C2177 C 0.34747 0.8275 0.13486 0.0
C2178 C 0.3942 0.04024 0.14478 0.0
C2179 C 0.41419 0.05412 0.13014 0.0
C2180 C 0.38434 0.98716 0.14508 0.0
C2181 C 0.39393 0.94674 0.13046 0.0
C2182 C 0.41362 0.96136 0.11549 0.0
C2183 C 0.42371 1.01409 0.11547 0.0
H2184 H 0.59621 1.02281 0.40544 0.0
H2185 H 0.64568 0.06985 0.35079 0.0
H2186 H 0.61406 0.93148 0.40489 0.0
H2187 H 0.66284 0.97766 0.34929 0.0
H2188 H 0.70557 0.82203 0.36518 0.0
H2189 H 0.68856 0.91346 0.36627 0.0
H2190 H 0.61508 0.84946 0.38576 0.0
H2191 H 0.63278 0.75825 0.38668 0.0
C2192 C 0.61082 1.01334 0.39316 0.0
C2193 C 0.61955 0.05347 0.37816 0.0
C2194 C 0.62096 0.96071 0.39268 0.0
C2195 C 0.63985 0.94636 0.3769 0.0
C2196 C 0.64865 0.98692 0.36195 0.0
C2197 C 0.63878 0.03989 0.36272 0.0
C2198 C 0.68587 0.82726 0.3701 0.0
C2199 C 0.67076 0.78215 0.37615 0.0
C2200 C 0.67592 0.88006 0.37033 0.0
C2201 C 0.65034 0.8896 0.37619 0.0
C2202 C 0.635 0.84433 0.38161 0.0
C2203 C 0.64508 0.79152 0.38174 0.0
H2204 H 0.44844 0.04483 0.38239 0.0
H2205 H 0.3747 0.98045 0.36385 0.0
H2206 H 0.43109 0.13595 0.38262 0.0
H2207 H 0.35675 0.07138 0.3661 0.0
H2208 H 0.33664 0.24524 0.34742 0.0
H2209 H 0.35423 0.15366 0.34741 0.0
H2210 H 0.40648 0.20012 0.40054 0.0
H2211 H 0.38957 0.29255 0.39952 0.0
C2212 C 0.42845 0.04987 0.37843 0.0
C2213 C 0.41319 1.0047 0.37273 0.0
C2214 C 0.41832 0.1025 0.37897 0.0
C2215 C 0.39241 0.11186 0.37427 0.0
C2216 C 0.3769 0.06645 0.36934 0.0
C2217 C 0.38716 1.01379 0.36844 0.0
C2218 C 0.35196 0.23577 0.35903 0.0
C2219 C 0.36176 0.27612 0.37343 0.0
C2220 C 0.36195 0.18298 0.35921 0.0
C2221 C 0.38179 0.16862 0.37409 0.0
C2222 C 0.39157 0.20933 0.38852 0.0
C2223 C 0.38184 0.26246 0.38804 0.0
H2224 H 0.33181 0.80486 0.85556 0.0
H2225 H 0.39061 0.76049 0.90293 0.0
H2226 H 0.34908 0.89666 0.85332 0.0
H2227 H 0.40731 0.85308 0.90175 0.0
H2228 H 0.44708 1.00658 0.87812 0.0
H2229 H 0.42972 0.91566 0.88079 0.0
H2230 H 0.35388 0.97998 0.87102 0.0
H2231 H 0.3716 0.07065 0.86628 0.0
C2232 C 0.34833 0.81505 0.86569 0.0
C2233 C 0.35991 0.77545 0.87937 0.0
C2234 C 0.35817 0.86794 0.86457 0.0
C2235 C 0.37964 0.88307 0.87742 0.0
C2236 C 0.39109 0.8432 0.89123 0.0
C2237 C 0.38149 0.78999 0.89202 0.0
C2238 C 0.42672 1.0015 0.87616 0.0
C2239 C 0.4109 0.04647 0.8716 0.0
C2240 C 0.41663 0.94903 0.87812 0.0
C2241 C 0.39027 0.9397 0.87606 0.0
C2242 C 0.37432 0.98493 0.87226 0.0
C2243 C 0.38449 0.03743 0.86992 0.0
H2244 H 0.69785 0.24193 0.8493 0.0
H2245 H 0.64421 0.28841 0.90084 0.0
H2246 H 0.68033 0.15022 0.84895 0.0
H2247 H 0.62737 0.19587 0.90153 0.0
H2248 H 0.58559 0.04094 0.88254 0.0
H2249 H 0.60298 0.13206 0.88308 0.0
H2250 H 0.67753 0.06771 0.8675 0.0
H2251 H 0.65956 0.97677 0.86491 0.0
C2252 C 0.6824 0.23224 0.86072 0.0
C2253 C 0.67236 0.27238 0.87506 0.0
C2254 C 0.67244 0.17938 0.8607 0.0
C2255 C 0.65241 0.1648 0.87531 0.0
C2256 C 0.64243 0.20528 0.88971 0.0
C2257 C 0.65212 0.25847 0.88941 0.0
C2258 C 0.60564 0.04603 0.87884 0.0
C2259 C 0.62097 1.00093 0.8733 0.0
C2260 C 0.61579 0.09865 0.87957 0.0
C2261 C 0.64178 0.10805 0.87525 0.0
C2262 C 0.65733 0.06273 0.87046 0.0
C2263 C 0.64706 1.01007 0.86936 0.0
H2264 H 0.44053 0.03635 0.60477 0.0
H2265 H 0.38567 0.99015 0.65537 0.0
H2266 H 0.42268 0.12765 0.60362 0.0
H2267 H 0.36841 0.08235 0.65521 0.0
H2268 H 0.32738 0.23758 0.63522 0.0
H2269 H 0.34449 0.14618 0.63598 0.0
H2270 H 0.41967 0.21 0.62231 0.0
H2271 H 0.40209 0.3011 0.61954 0.0
C2272 C 0.42471 0.046 0.6158 0.0
C2273 C 0.41449 1.00609 0.63015 0.0
C2274 C 0.41456 0.09862 0.61531 0.0
C2275 C 0.39413 0.11321 0.62946 0.0
C2276 C 0.38384 0.07289 0.64377 0.0
C2277 C 0.39376 1.01992 0.64396 0.0
C2278 C 0.34751 0.2323 0.63199 0.0
C2279 C 0.36317 0.27731 0.627 0.0
C2280 C 0.35748 0.17953 0.63283 0.0
C2281 C 0.38357 0.16995 0.62913 0.0
C2282 C 0.39939 0.21515 0.6248 0.0
C2283 C 0.38933 0.2679 0.6236 0.0
H2284 H 0.64239 0.75799 0.60531 0.0
H2285 H 0.69825 0.80476 0.65506 0.0
H2286 H 0.62546 0.8504 0.60521 0.0
H2287 H 0.68072 0.89637 0.65598 0.0
H2288 H 0.65894 0.06969 0.64081 0.0
H2289 H 0.67694 0.97896 0.63755 0.0
H2290 H 0.60181 0.91373 0.62464 0.0
H2291 H 0.5843 1.00463 0.62584 0.0
C2292 C 0.6508 0.78797 0.61646 0.0
C2293 C 0.67166 0.77415 0.63015 0.0
C2294 C 0.64106 0.84108 0.61651 0.0
C2295 C 0.65163 0.8816 0.63058 0.0
C2296 C 0.67234 0.86716 0.6445 0.0
C2297 C 0.68232 0.81436 0.64414 0.0
C2298 C 0.6463 0.03624 0.6368 0.0
C2299 C 0.62002 0.04506 0.6338 0.0
C2300 C 0.6566 0.98371 0.63531 0.0
C2301 C 0.64091 0.93821 0.63107 0.0
C2302 C 0.61472 0.94729 0.6277 0.0
C2303 C 0.60452 0.99978 0.62881 0.0
loop_
_geom_bond_atom_site_label_1
_geom_bond_atom_site_label_2
_geom_bond_distance
_geom_bond_site_symmetry_2
_ccdc_geom_bond_type
Tb0 N31 2.660 . S
Tb0 N38 2.600 . S
Tb0 O44 2.546 1_545 S
Tb0 O45 2.610 . S
Tb0 O47 2.320 . S
Tb0 O48 2.552 . S
Tb0 O49 2.413 1_545 S
Tb0 O51 2.362 . S
Tb0 O52 2.421 . S
Tb0 C64 2.833 1_545 S
C1 C4 1.432 . S
C1 C5 1.414 . S
C1 N8 1.359 . S
C2 C4 1.417 . S
C2 C6 1.432 . S
C2 C14 1.410 . S
C3 C5 1.444 . S
C3 C6 1.317 . S
C3 H26 0.929 1_455 S
C4 C1 1.432 . S
C4 C2 1.417 . S
C4 N12 1.360 . S
C5 C1 1.414 . S
C5 C3 1.444 . S
C5 C10 1.385 . S
C6 C2 1.432 . S
C6 C3 1.317 . S
C6 H18 0.930 1_455 S
C7 C9 1.392 . S
C7 C10 1.370 . S
C7 H19 0.931 . S
N8 C1 1.359 . S
N8 C9 1.327 . S
N8 Tb11 2.600 . S
C9 C7 1.392 . S
C9 N8 1.327 . S
C9 H16 0.930 . S
C10 C5 1.385 . S
C10 C7 1.370 . S
C10 H29 0.930 . S
Tb11 N8 2.600 . S
Tb11 N12 2.660 . S
Tb11 O45 2.362 . S
Tb11 O46 2.421 . S
Tb11 O50 2.546 . S
Tb11 O51 2.610 . S
Tb11 O53 2.320 . S
Tb11 O54 2.552 . S
Tb11 O55 2.413 . S
Tb11 C75 2.833 . S
N12 C4 1.360 . S
N12 Tb11 2.660 . S
N12 C13 1.305 . S
C13 N12 1.305 . S
C13 C15 1.407 . S
C13 H20 0.930 . S
C14 C2 1.410 . S
C14 C15 1.345 . S
C14 H22 0.900 1_455 S
C15 C13 1.407 . S
C15 C14 1.345 . S
C15 H17 0.930 . S
H16 C9 0.930 . S
H17 C15 0.930 . S
H18 C6 0.930 1_655 S
H19 C7 0.931 . S
H20 C13 0.930 . S
H21 C35 0.930 . S
H22 C14 0.900 1_655 S
H23 C41 0.930 . S
H24 C32 0.930 . S
H25 C39 0.931 . S
H26 C3 0.929 1_655 S
H27 C33 0.930 . S
H28 C66 0.930 . S
H29 C10 0.930 . S
H30 C65 0.929 . S
N31 Tb0 2.660 . S
N31 C32 1.305 . S
N31 C36 1.360 . S
C32 H24 0.930 . S
C32 N31 1.305 . S
C32 C35 1.407 . S
C33 H27 0.930 . S
C33 C34 1.410 . S
C33 C35 1.345 . S
C34 C33 1.410 . S
C34 C36 1.417 . S
C34 C66 1.432 . S
C35 H21 0.930 . S
C35 C32 1.407 . S
C35 C33 1.345 . S
C36 N31 1.360 . S
C36 C34 1.417 . S
C36 C40 1.432 . S
H37 C42 0.930 . S
N38 Tb0 2.600 . S
N38 C40 1.359 . S
N38 C41 1.327 . S
C39 H25 0.931 . S
C39 C41 1.392 . S
C39 C42 1.370 . S
C40 C36 1.432 . S
C40 N38 1.359 . S
C40 C43 1.414 . S
C41 H23 0.930 . S
C41 N38 1.327 . S
C41 C39 1.392 . S
C42 H37 0.930 . S
C42 C39 1.370 . S
C42 C43 1.385 . S
C43 C40 1.414 . S
C43 C42 1.385 . S
C43 C65 1.444 . S
O44 Tb0 2.546 1_565 S
O44 C64 1.251 . S
O45 Tb0 2.610 . S
O45 Tb11 2.362 . S
O45 C56 1.283 . S
O46 Tb11 2.421 . S
O46 C63 1.262 . S
O47 Tb0 2.320 . S
O47 C63 1.260 . S
O48 Tb0 2.552 . S
O48 C56 1.243 . S
O49 Tb0 2.413 1_565 S
O49 C64 1.256 . S
O50 Tb11 2.546 . S
O50 C75 1.251 . S
O51 Tb0 2.362 . S
O51 Tb11 2.610 . S
O51 C67 1.283 . S
O52 Tb0 2.421 . S
O52 C74 1.262 . S
O53 Tb11 2.320 . S
O53 C74 1.260 . S
O54 Tb11 2.552 . S
O54 C67 1.243 . S
O55 Tb11 2.413 . S
O55 C75 1.256 . S
C56 O45 1.283 . S
C56 O48 1.243 . S
C57 C59 1.382 . S
C57 C61 1.393 . S
C57 C64 1.500 . S
C58 C59 1.400 . S
C58 C60 1.384 . S
C59 C57 1.382 . S
C59 C58 1.400 . S
C59 H76 0.930 . S
C60 C58 1.384 . S
C60 C62 1.392 . S
C60 H77 0.931 . S
C61 C57 1.393 . S
C61 C62 1.401 . S
C61 H78 0.930 . S
C62 C60 1.392 . S
C62 C61 1.401 . S
C62 H79 0.930 . S
C63 O46 1.262 . S
C63 O47 1.260 . S
C64 Tb0 2.833 1_565 S
C64 O44 1.251 . S
C64 O49 1.256 . S
C64 C57 1.500 . S
C65 H30 0.929 . S
C65 C43 1.444 . S
C65 C66 1.317 . S
C66 H28 0.930 . S
C66 C34 1.432 . S
C66 C65 1.317 . S
C67 O51 1.283 . S
C67 O54 1.243 . S
C68 C69 1.382 . S
C68 C72 1.393 . S
C68 C75 1.500 . S
C69 C68 1.382 . S
C69 C70 1.400 . S
C69 H80 0.930 . S
C70 C69 1.400 . S
C70 C71 1.384 . S
C71 C70 1.384 . S
C71 C73 1.392 . S
C71 H81 0.931 . S
C72 C68 1.393 . S
C72 C73 1.401 . S
C72 H82 0.930 . S
C73 C71 1.392 . S
C73 C72 1.401 . S
C73 H83 0.930 . S
C74 O52 1.262 . S
C74 O53 1.260 . S
C75 Tb11 2.833 . S
C75 O50 1.251 . S
C75 O55 1.256 . S
C75 C68 1.500 . S
H76 C59 0.930 . S
H77 C60 0.931 . S
H78 C61 0.930 . S
H79 C62 0.930 . S
H80 C69 0.930 . S
H81 C71 0.931 . S
H82 C72 0.930 . S
H83 C73 0.930 . S
Tb84 N115 2.660 . S
Tb84 N122 2.600 . S
Tb84 O128 2.546 1_565 S
Tb84 O129 2.610 . S
Tb84 O131 2.320 . S
Tb84 O132 2.552 . S
Tb84 O133 2.413 1_565 S
Tb84 O135 2.362 . S
Tb84 O136 2.421 . S
Tb84 C148 2.833 1_565 S
C85 C88 1.432 . S
C85 C89 1.414 . S
C85 N92 1.359 . S
C86 C88 1.417 . S
C86 C90 1.432 . S
C86 C98 1.410 . S
C87 C89 1.444 . S
C87 C90 1.317 . S
C87 H110 0.929 1_655 S
C88 C85 1.432 . S
C88 C86 1.417 . S
C88 N96 1.360 . S
C89 C85 1.414 . S
C89 C87 1.444 . S
C89 C94 1.385 . S
C90 C86 1.432 . S
C90 C87 1.317 . S
C90 H102 0.930 1_655 S
C91 C93 1.392 . S
C91 C94 1.370 . S
C91 H103 0.931 . S
N92 C85 1.359 . S
N92 C93 1.327 . S
N92 Tb95 2.600 . S
C93 C91 1.392 . S
C93 N92 1.327 . S
C93 H100 0.930 . S
C94 C89 1.385 . S
C94 C91 1.370 . S
C94 H113 0.930 . S
Tb95 N92 2.600 . S
Tb95 N96 2.660 . S
Tb95 O129 2.362 . S
Tb95 O130 2.421 . S
Tb95 O134 2.546 . S
Tb95 O135 2.610 . S
Tb95 O137 2.320 . S
Tb95 O138 2.552 . S
Tb95 O139 2.413 . S
Tb95 C159 2.833 . S
N96 C88 1.360 . S
N96 Tb95 2.660 . S
N96 C97 1.305 . S
C97 N96 1.305 . S
C97 C99 1.407 . S
C97 H104 0.930 . S
C98 C86 1.410 . S
C98 C99 1.345 . S
C98 H106 0.900 1_655 S
C99 C97 1.407 . S
C99 C98 1.345 . S
C99 H101 0.930 . S
H100 C93 0.930 . S
H101 C99 0.930 . S
H102 C90 0.930 1_455 S
H103 C91 0.931 . S
H104 C97 0.930 . S
H105 C119 0.930 . S
H106 C98 0.900 1_455 S
H107 C125 0.930 . S
H108 C116 0.930 . S
H109 C123 0.931 . S
H110 C87 0.929 1_455 S
H111 C117 0.930 . S
H112 C150 0.930 . S
H113 C94 0.930 . S
H114 C149 0.929 . S
N115 Tb84 2.660 . S
N115 C116 1.305 . S
N115 C120 1.360 . S
C116 H108 0.930 . S
C116 N115 1.305 . S
C116 C119 1.407 . S
C117 H111 0.930 . S
C117 C118 1.410 . S
C117 C119 1.345 . S
C118 C117 1.410 . S
C118 C120 1.417 . S
C118 C150 1.432 . S
C119 H105 0.930 . S
C119 C116 1.407 . S
C119 C117 1.345 . S
C120 N115 1.360 . S
C120 C118 1.417 . S
C120 C124 1.432 . S
H121 C126 0.930 . S
N122 Tb84 2.600 . S
N122 C124 1.359 . S
N122 C125 1.327 . S
C123 H109 0.931 . S
C123 C125 1.392 . S
C123 C126 1.370 . S
C124 C120 1.432 . S
C124 N122 1.359 . S
C124 C127 1.414 . S
C125 H107 0.930 . S
C125 N122 1.327 . S
C125 C123 1.392 . S
C126 H121 0.930 . S
C126 C123 1.370 . S
C126 C127 1.385 . S
C127 C124 1.414 . S
C127 C126 1.385 . S
C127 C149 1.444 . S
O128 Tb84 2.546 1_545 S
O128 C148 1.251 . S
O129 Tb84 2.610 . S
O129 Tb95 2.362 . S
O129 C140 1.283 . S
O130 Tb95 2.421 . S
O130 C147 1.262 . S
O131 Tb84 2.320 . S
O131 C147 1.260 . S
O132 Tb84 2.552 . S
O132 C140 1.243 . S
O133 Tb84 2.413 1_545 S
O133 C148 1.256 . S
O134 Tb95 2.546 . S
O134 C159 1.251 . S
O135 Tb84 2.362 . S
O135 Tb95 2.610 . S
O135 C151 1.283 . S
O136 Tb84 2.421 . S
O136 C158 1.262 . S
O137 Tb95 2.320 . S
O137 C158 1.260 . S
O138 Tb95 2.552 . S
O138 C151 1.243 . S
O139 Tb95 2.413 . S
O139 C159 1.256 . S
C140 O129 1.283 . S
C140 O132 1.243 . S
C141 C143 1.382 . S
C141 C145 1.393 . S
C141 C148 1.500 . S
C142 C143 1.400 . S
C142 C144 1.384 . S
C143 C141 1.382 . S
C143 C142 1.400 . S
C143 H160 0.930 . S
C144 C142 1.384 . S
C144 C146 1.392 . S
C144 H161 0.931 . S
C145 C141 1.393 . S
C145 C146 1.401 . S
C145 H162 0.930 . S
C146 C144 1.392 . S
C146 C145 1.401 . S
C146 H163 0.930 . S
C147 O130 1.262 . S
C147 O131 1.260 . S
C148 Tb84 2.833 1_545 S
C148 O128 1.251 . S
C148 O133 1.256 . S
C148 C141 1.500 . S
C149 H114 0.929 . S
C149 C127 1.444 . S
C149 C150 1.317 . S
C150 H112 0.930 . S
C150 C118 1.432 . S
C150 C149 1.317 . S
C151 O135 1.283 . S
C151 O138 1.243 . S
C152 C153 1.382 . S
C152 C156 1.393 . S
C152 C159 1.500 . S
C153 C152 1.382 . S
C153 C154 1.400 . S
C153 H164 0.930 . S
C154 C153 1.400 . S
C154 C155 1.384 . S
C155 C154 1.384 . S
C155 C157 1.392 . S
C155 H165 0.931 . S
C156 C152 1.393 . S
C156 C157 1.401 . S
C156 H166 0.930 . S
C157 C155 1.392 . S
C157 C156 1.401 . S
C157 H167 0.930 . S
C158 O136 1.262 . S
C158 O137 1.260 . S
C159 Tb95 2.833 . S
C159 O134 1.251 . S
C159 O139 1.256 . S
C159 C152 1.500 . S
H160 C143 0.930 . S
H161 C144 0.931 . S
H162 C145 0.930 . S
H163 C146 0.930 . S
H164 C153 0.930 . S
H165 C155 0.931 . S
H166 C156 0.930 . S
H167 C157 0.930 . S
Tb168 N199 2.660 . S
Tb168 N206 2.600 . S
Tb168 O212 2.546 1_565 S
Tb168 O213 2.610 . S
Tb168 O215 2.320 . S
Tb168 O216 2.552 . S
Tb168 O217 2.413 1_565 S
Tb168 O219 2.362 . S
Tb168 O220 2.421 . S
Tb168 C232 2.833 1_565 S
C169 C172 1.432 . S
C169 C173 1.414 . S
C169 N176 1.359 . S
C170 C172 1.417 . S
C170 C174 1.432 . S
C170 C182 1.410 . S
C171 C173 1.444 . S
C171 C174 1.317 . S
C171 H194 0.929 1_455 S
C172 C169 1.432 . S
C172 C170 1.417 . S
C172 N180 1.360 . S
C173 C169 1.414 . S
C173 C171 1.444 . S
C173 C178 1.385 . S
C174 C170 1.432 . S
C174 C171 1.317 . S
C174 H186 0.930 1_455 S
C175 C177 1.392 . S
C175 C178 1.370 . S
C175 H187 0.931 . S
N176 C169 1.359 . S
N176 C177 1.327 . S
N176 Tb179 2.600 . S
C177 C175 1.392 . S
C177 N176 1.327 . S
C177 H184 0.930 . S
C178 C173 1.385 . S
C178 C175 1.370 . S
C178 H197 0.930 . S
Tb179 N176 2.600 . S
Tb179 N180 2.660 . S
Tb179 O213 2.362 . S
Tb179 O214 2.421 . S
Tb179 O218 2.546 . S
Tb179 O219 2.610 . S
Tb179 O221 2.320 . S
Tb179 O222 2.552 . S
Tb179 O223 2.413 . S
Tb179 C243 2.833 . S
N180 C172 1.360 . S
N180 Tb179 2.660 . S
N180 C181 1.305 . S
C181 N180 1.305 . S
C181 C183 1.407 . S
C181 H188 0.930 . S
C182 C170 1.410 . S
C182 C183 1.345 . S
C182 H190 0.900 1_455 S
C183 C181 1.407 . S
C183 C182 1.345 . S
C183 H185 0.930 . S
H184 C177 0.930 . S
H185 C183 0.930 . S
H186 C174 0.930 1_655 S
H187 C175 0.931 . S
H188 C181 0.930 . S
H189 C203 0.930 . S
H190 C182 0.900 1_655 S
H191 C209 0.930 . S
H192 C200 0.930 . S
H193 C207 0.931 . S
H194 C171 0.929 1_655 S
H195 C201 0.930 . S
H196 C234 0.930 . S
H197 C178 0.930 . S
H198 C233 0.929 . S
N199 Tb168 2.660 . S
N199 C200 1.305 . S
N199 C204 1.360 . S
C200 H192 0.930 . S
C200 N199 1.305 . S
C200 C203 1.407 . S
C201 H195 0.930 . S
C201 C202 1.410 . S
C201 C203 1.345 . S
C202 C201 1.410 . S
C202 C204 1.417 . S
C202 C234 1.432 . S
C203 H189 0.930 . S
C203 C200 1.407 . S
C203 C201 1.345 . S
C204 N199 1.360 . S
C204 C202 1.417 . S
C204 C208 1.432 . S
H205 C210 0.930 . S
N206 Tb168 2.600 . S
N206 C208 1.359 . S
N206 C209 1.327 . S
C207 H193 0.931 . S
C207 C209 1.392 . S
C207 C210 1.370 . S
C208 C204 1.432 . S
C208 N206 1.359 . S
C208 C211 1.414 . S
C209 H191 0.930 . S
C209 N206 1.327 . S
C209 C207 1.392 . S
C210 H205 0.930 . S
C210 C207 1.370 . S
C210 C211 1.385 . S
C211 C208 1.414 . S
C211 C210 1.385 . S
C211 C233 1.444 . S
O212 Tb168 2.546 1_545 S
O212 C232 1.251 . S
O213 Tb168 2.610 . S
O213 Tb179 2.362 . S
O213 C224 1.283 . S
O214 Tb179 2.421 . S
O214 C231 1.262 . S
O215 Tb168 2.320 . S
O215 C231 1.260 . S
O216 Tb168 2.552 . S
O216 C224 1.243 . S
O217 Tb168 2.413 1_545 S
O217 C232 1.256 . S
O218 Tb179 2.546 . S
O218 C243 1.251 . S
O219 Tb168 2.362 . S
O219 Tb179 2.610 . S
O219 C235 1.283 . S
O220 Tb168 2.421 . S
O220 C242 1.262 . S
O221 Tb179 2.320 . S
O221 C242 1.260 . S
O222 Tb179 2.552 . S
O222 C235 1.243 . S
O223 Tb179 2.413 . S
O223 C243 1.256 . S
C224 O213 1.283 . S
C224 O216 1.243 . S
C225 C227 1.382 . S
C225 C229 1.393 . S
C225 C232 1.500 . S
C226 C227 1.400 . S
C226 C228 1.384 . S
C227 C225 1.382 . S
C227 C226 1.400 . S
C227 H244 0.930 . S
C228 C226 1.384 . S
C228 C230 1.392 . S
C228 H245 0.931 . S
C229 C225 1.393 . S
C229 C230 1.401 . S
C229 H246 0.930 . S
C230 C228 1.392 . S
C230 C229 1.401 . S
C230 H247 0.930 . S
C231 O214 1.262 . S
C231 O215 1.260 . S
C232 Tb168 2.833 1_545 S
C232 O212 1.251 . S
C232 O217 1.256 . S
C232 C225 1.500 . S
C233 H198 0.929 . S
C233 C211 1.444 . S
C233 C234 1.317 . S
C234 H196 0.930 . S
C234 C202 1.432 . S
C234 C233 1.317 . S
C235 O219 1.283 . S
C235 O222 1.243 . S
C236 C237 1.382 . S
C236 C240 1.393 . S
C236 C243 1.500 . S
C237 C236 1.382 . S
C237 C238 1.400 . S
C237 H248 0.930 . S
C238 C237 1.400 . S
C238 C239 1.384 . S
C239 C238 1.384 . S
C239 C241 1.392 . S
C239 H249 0.931 . S
C240 C236 1.393 . S
C240 C241 1.401 . S
C240 H250 0.930 . S
C241 C239 1.392 . S
C241 C240 1.401 . S
C241 H251 0.930 . S
C242 O220 1.262 . S
C242 O221 1.260 . S
C243 Tb179 2.833 . S
C243 O218 1.251 . S
C243 O223 1.256 . S
C243 C236 1.500 . S
H244 C227 0.930 . S
H245 C228 0.931 . S
H246 C229 0.930 . S
H247 C230 0.930 . S
H248 C237 0.930 . S
H249 C239 0.931 . S
H250 C240 0.930 . S
H251 C241 0.930 . S
Tb252 N283 2.660 . S
Tb252 N290 2.600 . S
Tb252 O296 2.546 1_545 S
Tb252 O297 2.610 . S
Tb252 O299 2.320 . S
Tb252 O300 2.552 . S
Tb252 O301 2.413 1_545 S
Tb252 O303 2.362 . S
Tb252 O304 2.421 . S
Tb252 C316 2.833 1_545 S
C253 C256 1.432 . S
C253 C257 1.414 . S
C253 N260 1.359 . S
C254 C256 1.417 . S
C254 C258 1.432 . S
C254 C266 1.410 . S
C255 C257 1.444 . S
C255 C258 1.317 . S
C255 H278 0.929 1_655 S
C256 C253 1.432 . S
C256 C254 1.417 . S
C256 N264 1.360 . S
C257 C253 1.414 . S
C257 C255 1.444 . S
C257 C262 1.385 . S
C258 C254 1.432 . S
C258 C255 1.317 . S
C258 H270 0.930 1_655 S
C259 C261 1.392 . S
C259 C262 1.370 . S
C259 H271 0.931 . S
N260 C253 1.359 . S
N260 C261 1.327 . S
N260 Tb263 2.600 . S
C261 C259 1.392 . S
C261 N260 1.327 . S
C261 H268 0.930 . S
C262 C257 1.385 . S
C262 C259 1.370 . S
C262 H281 0.930 . S
Tb263 N260 2.600 . S
Tb263 N264 2.660 . S
Tb263 O297 2.362 . S
Tb263 O298 2.421 . S
Tb263 O302 2.546 . S
Tb263 O303 2.610 . S
Tb263 O305 2.320 . S
Tb263 O306 2.552 . S
Tb263 O307 2.413 . S
Tb263 C327 2.833 . S
N264 C256 1.360 . S
N264 Tb263 2.660 . S
N264 C265 1.305 . S
C265 N264 1.305 . S
C265 C267 1.407 . S
C265 H272 0.930 . S
C266 C254 1.410 . S
C266 C267 1.345 . S
C266 H274 0.900 1_655 S
C267 C265 1.407 . S
C267 C266 1.345 . S
C267 H269 0.930 . S
H268 C261 0.930 . S
H269 C267 0.930 . S
H270 C258 0.930 1_455 S
H271 C259 0.931 . S
H272 C265 0.930 . S
H273 C287 0.930 . S
H274 C266 0.900 1_455 S
H275 C293 0.930 . S
H276 C284 0.930 . S
H277 C291 0.931 . S
H278 C255 0.929 1_455 S
H279 C285 0.930 . S
H280 C318 0.930 . S
H281 C262 0.930 . S
H282 C317 0.929 . S
N283 Tb252 2.660 . S
N283 C284 1.305 . S
N283 C288 1.360 . S
C284 H276 0.930 . S
C284 N283 1.305 . S
C284 C287 1.407 . S
C285 H279 0.930 . S
C285 C286 1.410 . S
C285 C287 1.345 . S
C286 C285 1.410 . S
C286 C288 1.417 . S
C286 C318 1.432 . S
C287 H273 0.930 . S
C287 C284 1.407 . S
C287 C285 1.345 . S
C288 N283 1.360 . S
C288 C286 1.417 . S
C288 C292 1.432 . S
H289 C294 0.930 . S
N290 Tb252 2.600 . S
N290 C292 1.359 . S
N290 C293 1.327 . S
C291 H277 0.931 . S
C291 C293 1.392 . S
C291 C294 1.370 . S
C292 C288 1.432 . S
C292 N290 1.359 . S
C292 C295 1.414 . S
C293 H275 0.930 . S
C293 N290 1.327 . S
C293 C291 1.392 . S
C294 H289 0.930 . S
C294 C291 1.370 . S
C294 C295 1.385 . S
C295 C292 1.414 . S
C295 C294 1.385 . S
C295 C317 1.444 . S
O296 Tb252 2.546 1_565 S
O296 C316 1.251 . S
O297 Tb252 2.610 . S
O297 Tb263 2.362 . S
O297 C308 1.283 . S
O298 Tb263 2.421 . S
O298 C315 1.262 . S
O299 Tb252 2.320 . S
O299 C315 1.260 . S
O300 Tb252 2.552 . S
O300 C308 1.243 . S
O301 Tb252 2.413 1_565 S
O301 C316 1.256 . S
O302 Tb263 2.546 . S
O302 C327 1.251 . S
O303 Tb252 2.362 . S
O303 Tb263 2.610 . S
O303 C319 1.283 . S
O304 Tb252 2.421 . S
O304 C326 1.262 . S
O305 Tb263 2.320 . S
O305 C326 1.260 . S
O306 Tb263 2.552 . S
O306 C319 1.243 . S
O307 Tb263 2.413 . S
O307 C327 1.256 . S
C308 O297 1.283 . S
C308 O300 1.243 . S
C309 C311 1.382 . S
C309 C313 1.393 . S
C309 C316 1.500 . S
C310 C311 1.400 . S
C310 C312 1.384 . S
C311 C309 1.382 . S
C311 C310 1.400 . S
C311 H328 0.930 . S
C312 C310 1.384 . S
C312 C314 1.392 . S
C312 H329 0.931 . S
C313 C309 1.393 . S
C313 C314 1.401 . S
C313 H330 0.930 . S
C314 C312 1.392 . S
C314 C313 1.401 . S
C314 H331 0.930 . S
C315 O298 1.262 . S
C315 O299 1.260 . S
C316 Tb252 2.833 1_565 S
C316 O296 1.251 . S
C316 O301 1.256 . S
C316 C309 1.500 . S
C317 H282 0.929 . S
C317 C295 1.444 . S
C317 C318 1.317 . S
C318 H280 0.930 . S
C318 C286 1.432 . S
C318 C317 1.317 . S
C319 O303 1.283 . S
C319 O306 1.243 . S
C320 C321 1.382 . S
C320 C324 1.393 . S
C320 C327 1.500 . S
C321 C320 1.382 . S
C321 C322 1.400 . S
C321 H332 0.930 . S
C322 C321 1.400 . S
C322 C323 1.384 . S
C323 C322 1.384 . S
C323 C325 1.392 . S
C323 H333 0.931 . S
C324 C320 1.393 . S
C324 C325 1.401 . S
C324 H334 0.930 . S
C325 C323 1.392 . S
C325 C324 1.401 . S
C325 H335 0.930 . S
C326 O304 1.262 . S
C326 O305 1.260 . S
C327 Tb263 2.833 . S
C327 O302 1.251 . S
C327 O307 1.256 . S
C327 C320 1.500 . S
H328 C311 0.930 . S
H329 C312 0.931 . S
H330 C313 0.930 . S
H331 C314 0.930 . S
H332 C321 0.930 . S
H333 C323 0.931 . S
H334 C324 0.930 . S
H335 C325 0.930 . S
Tb336 N367 2.660 . S
Tb336 N374 2.600 . S
Tb336 O380 2.546 . S
Tb336 O381 2.610 . S
Tb336 O383 2.320 . S
Tb336 O384 2.552 . S
Tb336 O385 2.413 . S
Tb336 O387 2.362 . S
Tb336 O388 2.421 . S
Tb336 C400 2.833 . S
C337 C340 1.432 . S
C337 C341 1.414 . S
C337 N344 1.359 . S
C338 C340 1.417 . S
C338 C342 1.432 . S
C338 C350 1.410 . S
C339 C341 1.444 . S
C339 C342 1.317 . S
C339 H362 0.929 . S
C340 C337 1.432 . S
C340 C338 1.417 . S
C340 N348 1.360 . S
C341 C337 1.414 . S
C341 C339 1.444 . S
C341 C346 1.385 . S
C342 C338 1.432 . S
C342 C339 1.317 . S
C342 H354 0.930 . S
C343 C345 1.392 . S
C343 C346 1.370 . S
C343 H355 0.931 . S
N344 C337 1.359 . S
N344 C345 1.327 . S
N344 Tb347 2.600 . S
C345 C343 1.392 . S
C345 N344 1.327 . S
C345 H352 0.930 . S
C346 C341 1.385 . S
C346 C343 1.370 . S
C346 H365 0.930 . S
Tb347 N344 2.600 . S
Tb347 N348 2.660 . S
Tb347 O381 2.362 . S
Tb347 O382 2.421 . S
Tb347 O386 2.546 1_565 S
Tb347 O387 2.610 . S
Tb347 O389 2.320 . S
Tb347 O390 2.552 . S
Tb347 O391 2.413 1_565 S
Tb347 C411 2.833 1_565 S
N348 C340 1.360 . S
N348 Tb347 2.660 . S
N348 C349 1.305 . S
C349 N348 1.305 . S
C349 C351 1.407 . S
C349 H356 0.930 . S
C350 C338 1.410 . S
C350 C351 1.345 . S
C350 H358 0.930 . S
C351 C349 1.407 . S
C351 C350 1.345 . S
C351 H353 0.930 . S
H352 C345 0.930 . S
H353 C351 0.930 . S
H354 C342 0.930 . S
H355 C343 0.931 . S
H356 C349 0.930 . S
H357 C371 0.930 . S
H358 C350 0.930 . S
H359 C377 0.930 . S
H360 C368 0.930 . S
H361 C375 0.931 . S
H362 C339 0.929 . S
H363 C369 0.900 1_455 S
H364 C402 0.930 1_455 S
H365 C346 0.930 . S
H366 C401 0.929 1_455 S
N367 Tb336 2.660 . S
N367 C368 1.305 . S
N367 C372 1.360 . S
C368 H360 0.930 . S
C368 N367 1.305 . S
C368 C371 1.407 . S
C369 H363 0.900 1_655 S
C369 C370 1.410 . S
C369 C371 1.345 . S
C370 C369 1.410 . S
C370 C372 1.417 . S
C370 C402 1.432 . S
C371 H357 0.930 . S
C371 C368 1.407 . S
C371 C369 1.345 . S
C372 N367 1.360 . S
C372 C370 1.417 . S
C372 C376 1.432 . S
H373 C378 0.930 . S
N374 Tb336 2.600 . S
N374 C376 1.359 . S
N374 C377 1.327 . S
C375 H361 0.931 . S
C375 C377 1.392 . S
C375 C378 1.370 . S
C376 C372 1.432 . S
C376 N374 1.359 . S
C376 C379 1.414 . S
C377 H359 0.930 . S
C377 N374 1.327 . S
C377 C375 1.392 . S
C378 H373 0.930 . S
C378 C375 1.370 . S
C378 C379 1.385 . S
C379 C376 1.414 . S
C379 C378 1.385 . S
C379 C401 1.444 . S
O380 Tb336 2.546 . S
O380 C400 1.251 . S
O381 Tb336 2.610 . S
O381 Tb347 2.362 . S
O381 C392 1.283 . S
O382 Tb347 2.421 . S
O382 C399 1.262 . S
O383 Tb336 2.320 . S
O383 C399 1.260 . S
O384 Tb336 2.552 . S
O384 C392 1.243 . S
O385 Tb336 2.413 . S
O385 C400 1.256 . S
O386 Tb347 2.546 1_545 S
O386 C411 1.251 . S
O387 Tb336 2.362 . S
O387 Tb347 2.610 . S
O387 C403 1.283 . S
O388 Tb336 2.421 . S
O388 C410 1.262 . S
O389 Tb347 2.320 . S
O389 C410 1.260 . S
O390 Tb347 2.552 . S
O390 C403 1.243 . S
O391 Tb347 2.413 1_545 S
O391 C411 1.256 . S
C392 O381 1.283 . S
C392 O384 1.243 . S
C393 C395 1.382 . S
C393 C397 1.393 . S
C393 C400 1.500 . S
C394 C395 1.400 . S
C394 C396 1.384 . S
C395 C393 1.382 . S
C395 C394 1.400 . S
C395 H412 0.930 . S
C396 C394 1.384 . S
C396 C398 1.392 . S
C396 H413 0.931 . S
C397 C393 1.393 . S
C397 C398 1.401 . S
C397 H414 0.930 . S
C398 C396 1.392 . S
C398 C397 1.401 . S
C398 H415 0.930 . S
C399 O382 1.262 . S
C399 O383 1.260 . S
C400 Tb336 2.833 . S
C400 O380 1.251 . S
C400 O385 1.256 . S
C400 C393 1.500 . S
C401 H366 0.929 1_655 S
C401 C379 1.444 . S
C401 C402 1.317 . S
C402 H364 0.930 1_655 S
C402 C370 1.432 . S
C402 C401 1.317 . S
C403 O387 1.283 . S
C403 O390 1.243 . S
C404 C405 1.382 . S
C404 C408 1.393 . S
C404 C411 1.500 . S
C405 C404 1.382 . S
C405 C406 1.400 . S
C405 H416 0.930 . S
C406 C405 1.400 . S
C406 C407 1.384 . S
C407 C406 1.384 . S
C407 C409 1.392 . S
C407 H417 0.931 . S
C408 C404 1.393 . S
C408 C409 1.401 . S
C408 H418 0.930 . S
C409 C407 1.392 . S
C409 C408 1.401 . S
C409 H419 0.930 . S
C410 O388 1.262 . S
C410 O389 1.260 . S
C411 Tb347 2.833 1_545 S
C411 O386 1.251 . S
C411 O391 1.256 . S
C411 C404 1.500 . S
H412 C395 0.930 . S
H413 C396 0.931 . S
H414 C397 0.930 . S
H415 C398 0.930 . S
H416 C405 0.930 . S
H417 C407 0.931 . S
H418 C408 0.930 . S
H419 C409 0.930 . S
Tb420 N451 2.660 . S
Tb420 N458 2.600 . S
Tb420 O464 2.546 . S
Tb420 O465 2.610 . S
Tb420 O467 2.320 . S
Tb420 O468 2.552 . S
Tb420 O469 2.413 . S
Tb420 O471 2.362 . S
Tb420 O472 2.421 . S
Tb420 C484 2.833 . S
C421 C424 1.432 . S
C421 C425 1.414 . S
C421 N428 1.359 . S
C422 C424 1.417 . S
C422 C426 1.432 . S
C422 C434 1.410 . S
C423 C425 1.444 . S
C423 C426 1.317 . S
C423 H446 0.929 . S
C424 C421 1.432 . S
C424 C422 1.417 . S
C424 N432 1.360 . S
C425 C421 1.414 . S
C425 C423 1.444 . S
C425 C430 1.385 . S
C426 C422 1.432 . S
C426 C423 1.317 . S
C426 H438 0.930 . S
C427 C429 1.392 . S
C427 C430 1.370 . S
C427 H439 0.931 . S
N428 C421 1.359 . S
N428 C429 1.327 . S
N428 Tb431 2.600 . S
C429 C427 1.392 . S
C429 N428 1.327 . S
C429 H436 0.930 . S
C430 C425 1.385 . S
C430 C427 1.370 . S
C430 H449 0.930 . S
Tb431 N428 2.600 . S
Tb431 N432 2.660 . S
Tb431 O465 2.362 . S
Tb431 O466 2.421 . S
Tb431 O470 2.546 1_545 S
Tb431 O471 2.610 . S
Tb431 O473 2.320 . S
Tb431 O474 2.552 . S
Tb431 O475 2.413 1_545 S
Tb431 C495 2.833 1_545 S
N432 C424 1.360 . S
N432 Tb431 2.660 . S
N432 C433 1.305 . S
C433 N432 1.305 . S
C433 C435 1.407 . S
C433 H440 0.930 . S
C434 C422 1.410 . S
C434 C435 1.345 . S
C434 H442 0.930 . S
C435 C433 1.407 . S
C435 C434 1.345 . S
C435 H437 0.930 . S
H436 C429 0.930 . S
H437 C435 0.930 . S
H438 C426 0.930 . S
H439 C427 0.931 . S
H440 C433 0.930 . S
H441 C455 0.930 . S
H442 C434 0.930 . S
H443 C461 0.930 . S
H444 C452 0.930 . S
H445 C459 0.931 . S
H446 C423 0.929 . S
H447 C453 0.900 1_655 S
H448 C486 0.930 1_655 S
H449 C430 0.930 . S
H450 C485 0.929 1_655 S
N451 Tb420 2.660 . S
N451 C452 1.305 . S
N451 C456 1.360 . S
C452 H444 0.930 . S
C452 N451 1.305 . S
C452 C455 1.407 . S
C453 H447 0.900 1_455 S
C453 C454 1.410 . S
C453 C455 1.345 . S
C454 C453 1.410 . S
C454 C456 1.417 . S
C454 C486 1.432 . S
C455 H441 0.930 . S
C455 C452 1.407 . S
C455 C453 1.345 . S
C456 N451 1.360 . S
C456 C454 1.417 . S
C456 C460 1.432 . S
H457 C462 0.930 . S
N458 Tb420 2.600 . S
N458 C460 1.359 . S
N458 C461 1.327 . S
C459 H445 0.931 . S
C459 C461 1.392 . S
C459 C462 1.370 . S
C460 C456 1.432 . S
C460 N458 1.359 . S
C460 C463 1.414 . S
C461 H443 0.930 . S
C461 N458 1.327 . S
C461 C459 1.392 . S
C462 H457 0.930 . S
C462 C459 1.370 . S
C462 C463 1.385 . S
C463 C460 1.414 . S
C463 C462 1.385 . S
C463 C485 1.444 . S
O464 Tb420 2.546 . S
O464 C484 1.251 . S
O465 Tb420 2.610 . S
O465 Tb431 2.362 . S
O465 C476 1.283 . S
O466 Tb431 2.421 . S
O466 C483 1.262 . S
O467 Tb420 2.320 . S
O467 C483 1.260 . S
O468 Tb420 2.552 . S
O468 C476 1.243 . S
O469 Tb420 2.413 . S
O469 C484 1.256 . S
O470 Tb431 2.546 1_565 S
O470 C495 1.251 . S
O471 Tb420 2.362 . S
O471 Tb431 2.610 . S
O471 C487 1.283 . S
O472 Tb420 2.421 . S
O472 C494 1.262 . S
O473 Tb431 2.320 . S
O473 C494 1.260 . S
O474 Tb431 2.552 . S
O474 C487 1.243 . S
O475 Tb431 2.413 1_565 S
O475 C495 1.256 . S
C476 O465 1.283 . S
C476 O468 1.243 . S
C477 C479 1.382 . S
C477 C481 1.393 . S
C477 C484 1.500 . S
C478 C479 1.400 . S
C478 C480 1.384 . S
C479 C477 1.382 . S
C479 C478 1.400 . S
C479 H496 0.930 . S
C480 C478 1.384 . S
C480 C482 1.392 . S
C480 H497 0.931 . S
C481 C477 1.393 . S
C481 C482 1.401 . S
C481 H498 0.930 . S
C482 C480 1.392 . S
C482 C481 1.401 . S
C482 H499 0.930 . S
C483 O466 1.262 . S
C483 O467 1.260 . S
C484 Tb420 2.833 . S
C484 O464 1.251 . S
C484 O469 1.256 . S
C484 C477 1.500 . S
C485 H450 0.929 1_455 S
C485 C463 1.444 . S
C485 C486 1.317 . S
C486 H448 0.930 1_455 S
C486 C454 1.432 . S
C486 C485 1.317 . S
C487 O471 1.283 . S
C487 O474 1.243 . S
C488 C489 1.382 . S
C488 C492 1.393 . S
C488 C495 1.500 . S
C489 C488 1.382 . S
C489 C490 1.400 . S
C489 H500 0.930 . S
C490 C489 1.400 . S
C490 C491 1.384 . S
C491 C490 1.384 . S
C491 C493 1.392 . S
C491 H501 0.931 . S
C492 C488 1.393 . S
C492 C493 1.401 . S
C492 H502 0.930 . S
C493 C491 1.392 . S
C493 C492 1.401 . S
C493 H503 0.930 . S
C494 O472 1.262 . S
C494 O473 1.260 . S
C495 Tb431 2.833 1_565 S
C495 O470 1.251 . S
C495 O475 1.256 . S
C495 C488 1.500 . S
H496 C479 0.930 . S
H497 C480 0.931 . S
H498 C481 0.930 . S
H499 C482 0.930 . S
H500 C489 0.930 . S
H501 C491 0.931 . S
H502 C492 0.930 . S
H503 C493 0.930 . S
Tb504 N535 2.660 . S
Tb504 N542 2.600 . S
Tb504 O548 2.546 . S
Tb504 O549 2.610 . S
Tb504 O551 2.320 . S
Tb504 O552 2.552 . S
Tb504 O553 2.413 . S
Tb504 O555 2.362 . S
Tb504 O556 2.421 . S
Tb504 C568 2.833 . S
C505 C508 1.432 . S
C505 C509 1.414 . S
C505 N512 1.359 . S
C506 C508 1.417 . S
C506 C510 1.432 . S
C506 C518 1.410 . S
C507 C509 1.444 . S
C507 C510 1.317 . S
C507 H530 0.929 . S
C508 C505 1.432 . S
C508 C506 1.417 . S
C508 N516 1.360 . S
C509 C505 1.414 . S
C509 C507 1.444 . S
C509 C514 1.385 . S
C510 C506 1.432 . S
C510 C507 1.317 . S
C510 H522 0.930 . S
C511 C513 1.392 . S
C511 C514 1.370 . S
C511 H523 0.931 . S
N512 C505 1.359 . S
N512 C513 1.327 . S
N512 Tb515 2.600 . S
C513 C511 1.392 . S
C513 N512 1.327 . S
C513 H520 0.930 . S
C514 C509 1.385 . S
C514 C511 1.370 . S
C514 H533 0.930 . S
Tb515 N512 2.600 . S
Tb515 N516 2.660 . S
Tb515 O549 2.362 . S
Tb515 O550 2.421 . S
Tb515 O554 2.546 1_545 S
Tb515 O555 2.610 . S
Tb515 O557 2.320 . S
Tb515 O558 2.552 . S
Tb515 O559 2.413 1_545 S
Tb515 C579 2.833 1_545 S
N516 C508 1.360 . S
N516 Tb515 2.660 . S
N516 C517 1.305 . S
C517 N516 1.305 . S
C517 C519 1.407 . S
C517 H524 0.930 . S
C518 C506 1.410 . S
C518 C519 1.345 . S
C518 H526 0.930 . S
C519 C517 1.407 . S
C519 C518 1.345 . S
C519 H521 0.930 . S
H520 C513 0.930 . S
H521 C519 0.930 . S
H522 C510 0.930 . S
H523 C511 0.931 . S
H524 C517 0.930 . S
H525 C539 0.930 . S
H526 C518 0.930 . S
H527 C545 0.930 . S
H528 C536 0.930 . S
H529 C543 0.931 . S
H530 C507 0.929 . S
H531 C537 0.900 1_455 S
H532 C570 0.930 1_455 S
H533 C514 0.930 . S
H534 C569 0.929 1_455 S
N535 Tb504 2.660 . S
N535 C536 1.305 . S
N535 C540 1.360 . S
C536 H528 0.930 . S
C536 N535 1.305 . S
C536 C539 1.407 . S
C537 H531 0.900 1_655 S
C537 C538 1.410 . S
C537 C539 1.345 . S
C538 C537 1.410 . S
C538 C540 1.417 . S
C538 C570 1.432 . S
C539 H525 0.930 . S
C539 C536 1.407 . S
C539 C537 1.345 . S
C540 N535 1.360 . S
C540 C538 1.417 . S
C540 C544 1.432 . S
H541 C546 0.930 . S
N542 Tb504 2.600 . S
N542 C544 1.359 . S
N542 C545 1.327 . S
C543 H529 0.931 . S
C543 C545 1.392 . S
C543 C546 1.370 . S
C544 C540 1.432 . S
C544 N542 1.359 . S
C544 C547 1.414 . S
C545 H527 0.930 . S
C545 N542 1.327 . S
C545 C543 1.392 . S
C546 H541 0.930 . S
C546 C543 1.370 . S
C546 C547 1.385 . S
C547 C544 1.414 . S
C547 C546 1.385 . S
C547 C569 1.444 . S
O548 Tb504 2.546 . S
O548 C568 1.251 . S
O549 Tb504 2.610 . S
O549 Tb515 2.362 . S
O549 C560 1.283 . S
O550 Tb515 2.421 . S
O550 C567 1.262 . S
O551 Tb504 2.320 . S
O551 C567 1.260 . S
O552 Tb504 2.552 . S
O552 C560 1.243 . S
O553 Tb504 2.413 . S
O553 C568 1.256 . S
O554 Tb515 2.546 1_565 S
O554 C579 1.251 . S
O555 Tb504 2.362 . S
O555 Tb515 2.610 . S
O555 C571 1.283 . S
O556 Tb504 2.421 . S
O556 C578 1.262 . S
O557 Tb515 2.320 . S
O557 C578 1.260 . S
O558 Tb515 2.552 . S
O558 C571 1.243 . S
O559 Tb515 2.413 1_565 S
O559 C579 1.256 . S
C560 O549 1.283 . S
C560 O552 1.243 . S
C561 C563 1.382 . S
C561 C565 1.393 . S
C561 C568 1.500 . S
C562 C563 1.400 . S
C562 C564 1.384 . S
C563 C561 1.382 . S
C563 C562 1.400 . S
C563 H580 0.930 . S
C564 C562 1.384 . S
C564 C566 1.392 . S
C564 H581 0.931 . S
C565 C561 1.393 . S
C565 C566 1.401 . S
C565 H582 0.930 . S
C566 C564 1.392 . S
C566 C565 1.401 . S
C566 H583 0.930 . S
C567 O550 1.262 . S
C567 O551 1.260 . S
C568 Tb504 2.833 . S
C568 O548 1.251 . S
C568 O553 1.256 . S
C568 C561 1.500 . S
C569 H534 0.929 1_655 S
C569 C547 1.444 . S
C569 C570 1.317 . S
C570 H532 0.930 1_655 S
C570 C538 1.432 . S
C570 C569 1.317 . S
C571 O555 1.283 . S
C571 O558 1.243 . S
C572 C573 1.382 . S
C572 C576 1.393 . S
C572 C579 1.500 . S
C573 C572 1.382 . S
C573 C574 1.400 . S
C573 H584 0.930 . S
C574 C573 1.400 . S
C574 C575 1.384 . S
C575 C574 1.384 . S
C575 C577 1.392 . S
C575 H585 0.931 . S
C576 C572 1.393 . S
C576 C577 1.401 . S
C576 H586 0.930 . S
C577 C575 1.392 . S
C577 C576 1.401 . S
C577 H587 0.930 . S
C578 O556 1.262 . S
C578 O557 1.260 . S
C579 Tb515 2.833 1_565 S
C579 O554 1.251 . S
C579 O559 1.256 . S
C579 C572 1.500 . S
H580 C563 0.930 . S
H581 C564 0.931 . S
H582 C565 0.930 . S
H583 C566 0.930 . S
H584 C573 0.930 . S
H585 C575 0.931 . S
H586 C576 0.930 . S
H587 C577 0.930 . S
Tb588 N619 2.660 . S
Tb588 N626 2.600 . S
Tb588 O632 2.546 . S
Tb588 O633 2.610 . S
Tb588 O635 2.320 . S
Tb588 O636 2.552 . S
Tb588 O637 2.413 . S
Tb588 O639 2.362 . S
Tb588 O640 2.421 . S
Tb588 C652 2.833 . S
C589 C592 1.432 . S
C589 C593 1.414 . S
C589 N596 1.359 . S
C590 C592 1.417 . S
C590 C594 1.432 . S
C590 C602 1.410 . S
C591 C593 1.444 . S
C591 C594 1.317 . S
C591 H614 0.929 . S
C592 C589 1.432 . S
C592 C590 1.417 . S
C592 N600 1.360 . S
C593 C589 1.414 . S
C593 C591 1.444 . S
C593 C598 1.385 . S
C594 C590 1.432 . S
C594 C591 1.317 . S
C594 H606 0.930 . S
C595 C597 1.392 . S
C595 C598 1.370 . S
C595 H607 0.931 . S
N596 C589 1.359 . S
N596 C597 1.327 . S
N596 Tb599 2.600 . S
C597 C595 1.392 . S
C597 N596 1.327 . S
C597 H604 0.930 . S
C598 C593 1.385 . S
C598 C595 1.370 . S
C598 H617 0.930 . S
Tb599 N596 2.600 . S
Tb599 N600 2.660 . S
Tb599 O633 2.362 . S
Tb599 O634 2.421 . S
Tb599 O638 2.546 1_565 S
Tb599 O639 2.610 . S
Tb599 O641 2.320 . S
Tb599 O642 2.552 . S
Tb599 O643 2.413 1_565 S
Tb599 C663 2.833 1_565 S
N600 C592 1.360 . S
N600 Tb599 2.660 . S
N600 C601 1.305 . S
C601 N600 1.305 . S
C601 C603 1.407 . S
C601 H608 0.930 . S
C602 C590 1.410 . S
C602 C603 1.345 . S
C602 H610 0.930 . S
C603 C601 1.407 . S
C603 C602 1.345 . S
C603 H605 0.930 . S
H604 C597 0.930 . S
H605 C603 0.930 . S
H606 C594 0.930 . S
H607 C595 0.931 . S
H608 C601 0.930 . S
H609 C623 0.930 . S
H610 C602 0.930 . S
H611 C629 0.930 . S
H612 C620 0.930 . S
H613 C627 0.931 . S
H614 C591 0.929 . S
H615 C621 0.900 1_655 S
H616 C654 0.930 1_655 S
H617 C598 0.930 . S
H618 C653 0.929 1_655 S
N619 Tb588 2.660 . S
N619 C620 1.305 . S
N619 C624 1.360 . S
C620 H612 0.930 . S
C620 N619 1.305 . S
C620 C623 1.407 . S
C621 H615 0.900 1_455 S
C621 C622 1.410 . S
C621 C623 1.345 . S
C622 C621 1.410 . S
C622 C624 1.417 . S
C622 C654 1.432 . S
C623 H609 0.930 . S
C623 C620 1.407 . S
C623 C621 1.345 . S
C624 N619 1.360 . S
C624 C622 1.417 . S
C624 C628 1.432 . S
H625 C630 0.930 . S
N626 Tb588 2.600 . S
N626 C628 1.359 . S
N626 C629 1.327 . S
C627 H613 0.931 . S
C627 C629 1.392 . S
C627 C630 1.370 . S
C628 C624 1.432 . S
C628 N626 1.359 . S
C628 C631 1.414 . S
C629 H611 0.930 . S
C629 N626 1.327 . S
C629 C627 1.392 . S
C630 H625 0.930 . S
C630 C627 1.370 . S
C630 C631 1.385 . S
C631 C628 1.414 . S
C631 C630 1.385 . S
C631 C653 1.444 . S
O632 Tb588 2.546 . S
O632 C652 1.251 . S
O633 Tb588 2.610 . S
O633 Tb599 2.362 . S
O633 C644 1.283 . S
O634 Tb599 2.421 . S
O634 C651 1.262 . S
O635 Tb588 2.320 . S
O635 C651 1.260 . S
O636 Tb588 2.552 . S
O636 C644 1.243 . S
O637 Tb588 2.413 . S
O637 C652 1.256 . S
O638 Tb599 2.546 1_545 S
O638 C663 1.251 . S
O639 Tb588 2.362 . S
O639 Tb599 2.610 . S
O639 C655 1.283 . S
O640 Tb588 2.421 . S
O640 C662 1.262 . S
O641 Tb599 2.320 . S
O641 C662 1.260 . S
O642 Tb599 2.552 . S
O642 C655 1.243 . S
O643 Tb599 2.413 1_545 S
O643 C663 1.256 . S
C644 O633 1.283 . S
C644 O636 1.243 . S
C645 C647 1.382 . S
C645 C649 1.393 . S
C645 C652 1.500 . S
C646 C647 1.400 . S
C646 C648 1.384 . S
C647 C645 1.382 . S
C647 C646 1.400 . S
C647 H664 0.930 . S
C648 C646 1.384 . S
C648 C650 1.392 . S
C648 H665 0.931 . S
C649 C645 1.393 . S
C649 C650 1.401 . S
C649 H666 0.930 . S
C650 C648 1.392 . S
C650 C649 1.401 . S
C650 H667 0.930 . S
C651 O634 1.262 . S
C651 O635 1.260 . S
C652 Tb588 2.833 . S
C652 O632 1.251 . S
C652 O637 1.256 . S
C652 C645 1.500 . S
C653 H618 0.929 1_455 S
C653 C631 1.444 . S
C653 C654 1.317 . S
C654 H616 0.930 1_455 S
C654 C622 1.432 . S
C654 C653 1.317 . S
C655 O639 1.283 . S
C655 O642 1.243 . S
C656 C657 1.382 . S
C656 C660 1.393 . S
C656 C663 1.500 . S
C657 C656 1.382 . S
C657 C658 1.400 . S
C657 H668 0.930 . S
C658 C657 1.400 . S
C658 C659 1.384 . S
C659 C658 1.384 . S
C659 C661 1.392 . S
C659 H669 0.931 . S
C660 C656 1.393 . S
C660 C661 1.401 . S
C660 H670 0.930 . S
C661 C659 1.392 . S
C661 C660 1.401 . S
C661 H671 0.930 . S
C662 O640 1.262 . S
C662 O641 1.260 . S
C663 Tb599 2.833 1_545 S
C663 O638 1.251 . S
C663 O643 1.256 . S
C663 C656 1.500 . S
H664 C647 0.930 . S
H665 C648 0.931 . S
H666 C649 0.930 . S
H667 C650 0.930 . S
H668 C657 0.930 . S
H669 C659 0.931 . S
H670 C660 0.930 . S
H671 C661 0.930 . S
Tb672 N703 2.660 . S
Tb672 N710 2.600 . S
Tb672 O716 2.546 . S
Tb672 O717 2.610 . S
Tb672 O719 2.320 . S
Tb672 O720 2.552 . S
Tb672 O721 2.413 . S
Tb672 O723 2.362 . S
Tb672 O724 2.421 . S
Tb672 C736 2.833 . S
C673 C676 1.432 . S
C673 C677 1.414 . S
C673 N680 1.359 . S
C674 C676 1.417 . S
C674 C678 1.432 . S
C674 C686 1.410 . S
C675 C677 1.444 . S
C675 C678 1.317 . S
C675 H698 0.929 . S
C676 C673 1.432 . S
C676 C674 1.417 . S
C676 N684 1.360 . S
C677 C673 1.414 . S
C677 C675 1.444 . S
C677 C682 1.385 . S
C678 C674 1.432 . S
C678 C675 1.317 . S
C678 H690 0.930 . S
C679 C681 1.392 . S
C679 C682 1.370 . S
C679 H691 0.931 . S
N680 C673 1.359 . S
N680 C681 1.327 . S
N680 Tb683 2.600 . S
C681 C679 1.392 . S
C681 N680 1.327 . S
C681 H688 0.930 . S
C682 C677 1.385 . S
C682 C679 1.370 . S
C682 H701 0.930 . S
Tb683 N680 2.600 . S
Tb683 N684 2.660 . S
Tb683 O717 2.362 . S
Tb683 O718 2.421 . S
Tb683 O722 2.546 . S
Tb683 O723 2.610 . S
Tb683 O725 2.320 . S
Tb683 O726 2.552 . S
Tb683 O727 2.413 . S
Tb683 C747 2.833 . S
N684 C676 1.360 . S
N684 Tb683 2.660 . S
N684 C685 1.305 . S
C685 N684 1.305 . S
C685 C687 1.407 . S
C685 H692 0.930 . S
C686 C674 1.410 . S
C686 C687 1.345 . S
C686 H694 0.930 . S
C687 C685 1.407 . S
C687 C686 1.345 . S
C687 H689 0.930 . S
H688 C681 0.930 . S
H689 C687 0.930 . S
H690 C678 0.930 . S
H691 C679 0.931 . S
H692 C685 0.930 . S
H693 C707 0.930 . S
H694 C686 0.930 . S
H695 C713 0.930 . S
H696 C704 0.930 . S
H697 C711 0.931 . S
H698 C675 0.929 . S
H699 C705 0.930 . S
H700 C738 0.930 . S
H701 C682 0.930 . S
H702 C737 0.929 . S
N703 Tb672 2.660 . S
N703 C704 1.305 . S
N703 C708 1.360 . S
C704 H696 0.930 . S
C704 N703 1.305 . S
C704 C707 1.407 . S
C705 H699 0.930 . S
C705 C706 1.410 . S
C705 C707 1.345 . S
C706 C705 1.410 . S
C706 C708 1.417 . S
C706 C738 1.432 . S
C707 H693 0.930 . S
C707 C704 1.407 . S
C707 C705 1.345 . S
C708 N703 1.360 . S
C708 C706 1.417 . S
C708 C712 1.432 . S
H709 C714 0.930 . S
N710 Tb672 2.600 . S
N710 C712 1.359 . S
N710 C713 1.327 . S
C711 H697 0.931 . S
C711 C713 1.392 . S
C711 C714 1.370 . S
C712 C708 1.432 . S
C712 N710 1.359 . S
C712 C715 1.414 . S
C713 H695 0.930 . S
C713 N710 1.327 . S
C713 C711 1.392 . S
C714 H709 0.930 . S
C714 C711 1.370 . S
C714 C715 1.385 . S
C715 C712 1.414 . S
C715 C714 1.385 . S
C715 C737 1.444 . S
O716 Tb672 2.546 . S
O716 C736 1.251 . S
O717 Tb672 2.610 . S
O717 Tb683 2.362 . S
O717 C728 1.283 . S
O718 Tb683 2.421 . S
O718 C735 1.262 . S
O719 Tb672 2.320 . S
O719 C735 1.260 . S
O720 Tb672 2.552 . S
O720 C728 1.243 . S
O721 Tb672 2.413 . S
O721 C736 1.256 . S
O722 Tb683 2.546 . S
O722 C747 1.251 . S
O723 Tb672 2.362 . S
O723 Tb683 2.610 . S
O723 C739 1.283 . S
O724 Tb672 2.421 . S
O724 C746 1.262 . S
O725 Tb683 2.320 . S
O725 C746 1.260 . S
O726 Tb683 2.552 . S
O726 C739 1.243 . S
O727 Tb683 2.413 . S
O727 C747 1.256 . S
C728 O717 1.283 . S
C728 O720 1.243 . S
C729 C731 1.382 . S
C729 C733 1.393 . S
C729 C736 1.500 . S
C730 C731 1.400 . S
C730 C732 1.384 . S
C731 C729 1.382 . S
C731 C730 1.400 . S
C731 H748 0.930 . S
C732 C730 1.384 . S
C732 C734 1.392 . S
C732 H749 0.931 . S
C733 C729 1.393 . S
C733 C734 1.401 . S
C733 H750 0.930 . S
C734 C732 1.392 . S
C734 C733 1.401 . S
C734 H751 0.930 . S
C735 O718 1.262 . S
C735 O719 1.260 . S
C736 Tb672 2.833 . S
C736 O716 1.251 . S
C736 O721 1.256 . S
C736 C729 1.500 . S
C737 H702 0.929 . S
C737 C715 1.444 . S
C737 C738 1.317 . S
C738 H700 0.930 . S
C738 C706 1.432 . S
C738 C737 1.317 . S
C739 O723 1.283 . S
C739 O726 1.243 . S
C740 C741 1.382 . S
C740 C744 1.393 . S
C740 C747 1.500 . S
C741 C740 1.382 . S
C741 C742 1.400 . S
C741 H752 0.930 . S
C742 C741 1.400 . S
C742 C743 1.384 . S
C743 C742 1.384 . S
C743 C745 1.392 . S
C743 H753 0.931 1_565 S
C744 C740 1.393 . S
C744 C745 1.401 . S
C744 H754 0.930 . S
C745 C743 1.392 . S
C745 C744 1.401 . S
C745 H755 0.930 . S
C746 O724 1.262 . S
C746 O725 1.260 . S
C747 Tb683 2.833 . S
C747 O722 1.251 . S
C747 O727 1.256 . S
C747 C740 1.500 . S
H748 C731 0.930 . S
H749 C732 0.931 . S
H750 C733 0.930 . S
H751 C734 0.930 . S
H752 C741 0.930 . S
H753 C743 0.931 1_545 S
H754 C744 0.930 . S
H755 C745 0.930 . S
Tb756 N787 2.660 . S
Tb756 N794 2.600 . S
Tb756 O800 2.546 . S
Tb756 O801 2.610 . S
Tb756 O803 2.320 . S
Tb756 O804 2.552 . S
Tb756 O805 2.413 . S
Tb756 O807 2.362 . S
Tb756 O808 2.421 . S
Tb756 C820 2.833 . S
C757 C760 1.432 . S
C757 C761 1.414 . S
C757 N764 1.359 . S
C758 C760 1.417 . S
C758 C762 1.432 . S
C758 C770 1.410 . S
C759 C761 1.444 . S
C759 C762 1.317 . S
C759 H782 0.929 . S
C760 C757 1.432 . S
C760 C758 1.417 . S
C760 N768 1.360 . S
C761 C757 1.414 . S
C761 C759 1.444 . S
C761 C766 1.385 . S
C762 C758 1.432 . S
C762 C759 1.317 . S
C762 H774 0.930 . S
C763 C765 1.392 . S
C763 C766 1.370 . S
C763 H775 0.931 . S
N764 C757 1.359 . S
N764 C765 1.327 . S
N764 Tb767 2.600 . S
C765 C763 1.392 . S
C765 N764 1.327 . S
C765 H772 0.930 . S
C766 C761 1.385 . S
C766 C763 1.370 . S
C766 H785 0.930 . S
Tb767 N764 2.600 . S
Tb767 N768 2.660 . S
Tb767 O801 2.362 . S
Tb767 O802 2.421 . S
Tb767 O806 2.546 . S
Tb767 O807 2.610 . S
Tb767 O809 2.320 . S
Tb767 O810 2.552 . S
Tb767 O811 2.413 . S
Tb767 C831 2.833 . S
N768 C760 1.360 . S
N768 Tb767 2.660 . S
N768 C769 1.305 . S
C769 N768 1.305 . S
C769 C771 1.407 . S
C769 H776 0.930 . S
C770 C758 1.410 . S
C770 C771 1.345 . S
C770 H778 0.930 . S
C771 C769 1.407 . S
C771 C770 1.345 . S
C771 H773 0.930 . S
H772 C765 0.930 . S
H773 C771 0.930 . S
H774 C762 0.930 . S
H775 C763 0.931 . S
H776 C769 0.930 . S
H777 C791 0.930 . S
H778 C770 0.930 . S
H779 C797 0.930 . S
H780 C788 0.930 . S
H781 C795 0.931 . S
H782 C759 0.929 . S
H783 C789 0.930 . S
H784 C822 0.930 . S
H785 C766 0.930 . S
H786 C821 0.929 . S
N787 Tb756 2.660 . S
N787 C788 1.305 . S
N787 C792 1.360 . S
C788 H780 0.930 . S
C788 N787 1.305 . S
C788 C791 1.407 . S
C789 H783 0.930 . S
C789 C790 1.410 . S
C789 C791 1.345 . S
C790 C789 1.410 . S
C790 C792 1.417 . S
C790 C822 1.432 . S
C791 H777 0.930 . S
C791 C788 1.407 . S
C791 C789 1.345 . S
C792 N787 1.360 . S
C792 C790 1.417 . S
C792 C796 1.432 . S
H793 C798 0.930 . S
N794 Tb756 2.600 . S
N794 C796 1.359 . S
N794 C797 1.327 . S
C795 H781 0.931 . S
C795 C797 1.392 . S
C795 C798 1.370 . S
C796 C792 1.432 . S
C796 N794 1.359 . S
C796 C799 1.414 . S
C797 H779 0.930 . S
C797 N794 1.327 . S
C797 C795 1.392 . S
C798 H793 0.930 . S
C798 C795 1.370 . S
C798 C799 1.385 . S
C799 C796 1.414 . S
C799 C798 1.385 . S
C799 C821 1.444 . S
O800 Tb756 2.546 . S
O800 C820 1.251 . S
O801 Tb756 2.610 . S
O801 Tb767 2.362 . S
O801 C812 1.283 . S
O802 Tb767 2.421 . S
O802 C819 1.262 . S
O803 Tb756 2.320 . S
O803 C819 1.260 . S
O804 Tb756 2.552 . S
O804 C812 1.243 . S
O805 Tb756 2.413 . S
O805 C820 1.256 . S
O806 Tb767 2.546 . S
O806 C831 1.251 . S
O807 Tb756 2.362 . S
O807 Tb767 2.610 . S
O807 C823 1.283 . S
O808 Tb756 2.421 . S
O808 C830 1.262 . S
O809 Tb767 2.320 . S
O809 C830 1.260 . S
O810 Tb767 2.552 . S
O810 C823 1.243 . S
O811 Tb767 2.413 . S
O811 C831 1.256 . S
C812 O801 1.283 . S
C812 O804 1.243 . S
C813 C815 1.382 . S
C813 C817 1.393 . S
C813 C820 1.500 . S
C814 C815 1.400 . S
C814 C816 1.384 . S
C815 C813 1.382 . S
C815 C814 1.400 . S
C815 H832 0.930 . S
C816 C814 1.384 . S
C816 C818 1.392 . S
C816 H833 0.931 . S
C817 C813 1.393 . S
C817 C818 1.401 . S
C817 H834 0.930 . S
C818 C816 1.392 . S
C818 C817 1.401 . S
C818 H835 0.930 . S
C819 O802 1.262 . S
C819 O803 1.260 . S
C820 Tb756 2.833 . S
C820 O800 1.251 . S
C820 O805 1.256 . S
C820 C813 1.500 . S
C821 H786 0.929 . S
C821 C799 1.444 . S
C821 C822 1.317 . S
C822 H784 0.930 . S
C822 C790 1.432 . S
C822 C821 1.317 . S
C823 O807 1.283 . S
C823 O810 1.243 . S
C824 C825 1.382 . S
C824 C828 1.393 . S
C824 C831 1.500 . S
C825 C824 1.382 . S
C825 C826 1.400 . S
C825 H836 0.930 . S
C826 C825 1.400 . S
C826 C827 1.384 . S
C827 C826 1.384 . S
C827 C829 1.392 . S
C827 H837 0.931 1_545 S
C828 C824 1.393 . S
C828 C829 1.401 . S
C828 H838 0.930 . S
C829 C827 1.392 . S
C829 C828 1.401 . S
C829 H839 0.930 . S
C830 O808 1.262 . S
C830 O809 1.260 . S
C831 Tb767 2.833 . S
C831 O806 1.251 . S
C831 O811 1.256 . S
C831 C824 1.500 . S
H832 C815 0.930 . S
H833 C816 0.931 . S
H834 C817 0.930 . S
H835 C818 0.930 . S
H836 C825 0.930 . S
H837 C827 0.931 1_565 S
H838 C828 0.930 . S
H839 C829 0.930 . S
Tb840 N871 2.660 . S
Tb840 N878 2.600 . S
Tb840 O884 2.546 . S
Tb840 O885 2.610 . S
Tb840 O887 2.320 . S
Tb840 O888 2.552 . S
Tb840 O889 2.413 . S
Tb840 O891 2.362 . S
Tb840 O892 2.421 . S
Tb840 C904 2.833 . S
C841 C844 1.432 . S
C841 C845 1.414 . S
C841 N848 1.359 . S
C842 C844 1.417 . S
C842 C846 1.432 . S
C842 C854 1.410 . S
C843 C845 1.444 . S
C843 C846 1.317 . S
C843 H866 0.929 . S
C844 C841 1.432 . S
C844 C842 1.417 . S
C844 N852 1.360 . S
C845 C841 1.414 . S
C845 C843 1.444 . S
C845 C850 1.385 . S
C846 C842 1.432 . S
C846 C843 1.317 . S
C846 H858 0.930 . S
C847 C849 1.392 . S
C847 C850 1.370 . S
C847 H859 0.931 . S
N848 C841 1.359 . S
N848 C849 1.327 . S
N848 Tb851 2.600 . S
C849 C847 1.392 . S
C849 N848 1.327 . S
C849 H856 0.930 . S
C850 C845 1.385 . S
C850 C847 1.370 . S
C850 H869 0.930 . S
Tb851 N848 2.600 . S
Tb851 N852 2.660 . S
Tb851 O885 2.362 . S
Tb851 O886 2.421 . S
Tb851 O890 2.546 . S
Tb851 O891 2.610 . S
Tb851 O893 2.320 . S
Tb851 O894 2.552 . S
Tb851 O895 2.413 . S
Tb851 C915 2.833 . S
N852 C844 1.360 . S
N852 Tb851 2.660 . S
N852 C853 1.305 . S
C853 N852 1.305 . S
C853 C855 1.407 . S
C853 H860 0.930 . S
C854 C842 1.410 . S
C854 C855 1.345 . S
C854 H862 0.930 . S
C855 C853 1.407 . S
C855 C854 1.345 . S
C855 H857 0.930 . S
H856 C849 0.930 . S
H857 C855 0.930 . S
H858 C846 0.930 . S
H859 C847 0.931 . S
H860 C853 0.930 . S
H861 C875 0.930 . S
H862 C854 0.930 . S
H863 C881 0.930 . S
H864 C872 0.930 . S
H865 C879 0.931 . S
H866 C843 0.929 . S
H867 C873 0.930 . S
H868 C906 0.930 . S
H869 C850 0.930 . S
H870 C905 0.929 . S
N871 Tb840 2.660 . S
N871 C872 1.305 . S
N871 C876 1.360 . S
C872 H864 0.930 . S
C872 N871 1.305 . S
C872 C875 1.407 . S
C873 H867 0.930 . S
C873 C874 1.410 . S
C873 C875 1.345 . S
C874 C873 1.410 . S
C874 C876 1.417 . S
C874 C906 1.432 . S
C875 H861 0.930 . S
C875 C872 1.407 . S
C875 C873 1.345 . S
C876 N871 1.360 . S
C876 C874 1.417 . S
C876 C880 1.432 . S
H877 C882 0.930 . S
N878 Tb840 2.600 . S
N878 C880 1.359 . S
N878 C881 1.327 . S
C879 H865 0.931 . S
C879 C881 1.392 . S
C879 C882 1.370 . S
C880 C876 1.432 . S
C880 N878 1.359 . S
C880 C883 1.414 . S
C881 H863 0.930 . S
C881 N878 1.327 . S
C881 C879 1.392 . S
C882 H877 0.930 . S
C882 C879 1.370 . S
C882 C883 1.385 . S
C883 C880 1.414 . S
C883 C882 1.385 . S
C883 C905 1.444 . S
O884 Tb840 2.546 . S
O884 C904 1.251 . S
O885 Tb840 2.610 . S
O885 Tb851 2.362 . S
O885 C896 1.283 . S
O886 Tb851 2.421 . S
O886 C903 1.262 . S
O887 Tb840 2.320 . S
O887 C903 1.260 . S
O888 Tb840 2.552 . S
O888 C896 1.243 . S
O889 Tb840 2.413 . S
O889 C904 1.256 . S
O890 Tb851 2.546 . S
O890 C915 1.251 . S
O891 Tb840 2.362 . S
O891 Tb851 2.610 . S
O891 C907 1.283 . S
O892 Tb840 2.421 . S
O892 C914 1.262 . S
O893 Tb851 2.320 . S
O893 C914 1.260 . S
O894 Tb851 2.552 . S
O894 C907 1.243 . S
O895 Tb851 2.413 . S
O895 C915 1.256 . S
C896 O885 1.283 . S
C896 O888 1.243 . S
C897 C899 1.382 . S
C897 C901 1.393 . S
C897 C904 1.500 . S
C898 C899 1.400 . S
C898 C900 1.384 . S
C899 C897 1.382 . S
C899 C898 1.400 . S
C899 H916 0.930 . S
C900 C898 1.384 . S
C900 C902 1.392 . S
C900 H917 0.931 . S
C901 C897 1.393 . S
C901 C902 1.401 . S
C901 H918 0.930 . S
C902 C900 1.392 . S
C902 C901 1.401 . S
C902 H919 0.930 . S
C903 O886 1.262 . S
C903 O887 1.260 . S
C904 Tb840 2.833 . S
C904 O884 1.251 . S
C904 O889 1.256 . S
C904 C897 1.500 . S
C905 H870 0.929 . S
C905 C883 1.444 . S
C905 C906 1.317 . S
C906 H868 0.930 . S
C906 C874 1.432 . S
C906 C905 1.317 . S
C907 O891 1.283 . S
C907 O894 1.243 . S
C908 C909 1.382 . S
C908 C912 1.393 . S
C908 C915 1.500 . S
C909 C908 1.382 . S
C909 C910 1.400 . S
C909 H920 0.930 . S
C910 C909 1.400 . S
C910 C911 1.384 . S
C911 C910 1.384 . S
C911 C913 1.392 . S
C911 H921 0.931 1_545 S
C912 C908 1.393 . S
C912 C913 1.401 . S
C912 H922 0.930 . S
C913 C911 1.392 . S
C913 C912 1.401 . S
C913 H923 0.930 . S
C914 O892 1.262 . S
C914 O893 1.260 . S
C915 Tb851 2.833 . S
C915 O890 1.251 . S
C915 O895 1.256 . S
C915 C908 1.500 . S
H916 C899 0.930 . S
H917 C900 0.931 . S
H918 C901 0.930 . S
H919 C902 0.930 . S
H920 C909 0.930 . S
H921 C911 0.931 1_565 S
H922 C912 0.930 . S
H923 C913 0.930 . S
Tb924 N955 2.660 . S
Tb924 N962 2.600 . S
Tb924 O968 2.546 . S
Tb924 O969 2.610 . S
Tb924 O971 2.320 . S
Tb924 O972 2.552 . S
Tb924 O973 2.413 . S
Tb924 O975 2.362 . S
Tb924 O976 2.421 . S
Tb924 C988 2.833 . S
C925 C928 1.432 . S
C925 C929 1.414 . S
C925 N932 1.359 . S
C926 C928 1.417 . S
C926 C930 1.432 . S
C926 C938 1.410 . S
C927 C929 1.444 . S
C927 C930 1.317 . S
C927 H950 0.929 . S
C928 C925 1.432 . S
C928 C926 1.417 . S
C928 N936 1.360 . S
C929 C925 1.414 . S
C929 C927 1.444 . S
C929 C934 1.385 . S
C930 C926 1.432 . S
C930 C927 1.317 . S
C930 H942 0.930 . S
C931 C933 1.392 . S
C931 C934 1.370 . S
C931 H943 0.931 . S
N932 C925 1.359 . S
N932 C933 1.327 . S
N932 Tb935 2.600 . S
C933 C931 1.392 . S
C933 N932 1.327 . S
C933 H940 0.930 . S
C934 C929 1.385 . S
C934 C931 1.370 . S
C934 H953 0.930 . S
Tb935 N932 2.600 . S
Tb935 N936 2.660 . S
Tb935 O969 2.362 . S
Tb935 O970 2.421 . S
Tb935 O974 2.546 . S
Tb935 O975 2.610 . S
Tb935 O977 2.320 . S
Tb935 O978 2.552 . S
Tb935 O979 2.413 . S
Tb935 C999 2.833 . S
N936 C928 1.360 . S
N936 Tb935 2.660 . S
N936 C937 1.305 . S
C937 N936 1.305 . S
C937 C939 1.407 . S
C937 H944 0.930 . S
C938 C926 1.410 . S
C938 C939 1.345 . S
C938 H946 0.930 . S
C939 C937 1.407 . S
C939 C938 1.345 . S
C939 H941 0.930 . S
H940 C933 0.930 . S
H941 C939 0.930 . S
H942 C930 0.930 . S
H943 C931 0.931 . S
H944 C937 0.930 . S
H945 C959 0.930 . S
H946 C938 0.930 . S
H947 C965 0.930 . S
H948 C956 0.930 . S
H949 C963 0.931 . S
H950 C927 0.929 . S
H951 C957 0.930 . S
H952 C990 0.930 . S
H953 C934 0.930 . S
H954 C989 0.929 . S
N955 Tb924 2.660 . S
N955 C956 1.305 . S
N955 C960 1.360 . S
C956 H948 0.930 . S
C956 N955 1.305 . S
C956 C959 1.407 . S
C957 H951 0.930 . S
C957 C958 1.410 . S
C957 C959 1.345 . S
C958 C957 1.410 . S
C958 C960 1.417 . S
C958 C990 1.432 . S
C959 H945 0.930 . S
C959 C956 1.407 . S
C959 C957 1.345 . S
C960 N955 1.360 . S
C960 C958 1.417 . S
C960 C964 1.432 . S
H961 C966 0.930 . S
N962 Tb924 2.600 . S
N962 C964 1.359 . S
N962 C965 1.327 . S
C963 H949 0.931 . S
C963 C965 1.392 . S
C963 C966 1.370 . S
C964 C960 1.432 . S
C964 N962 1.359 . S
C964 C967 1.414 . S
C965 H947 0.930 . S
C965 N962 1.327 . S
C965 C963 1.392 . S
C966 H961 0.930 . S
C966 C963 1.370 . S
C966 C967 1.385 . S
C967 C964 1.414 . S
C967 C966 1.385 . S
C967 C989 1.444 . S
O968 Tb924 2.546 . S
O968 C988 1.251 . S
O969 Tb924 2.610 . S
O969 Tb935 2.362 . S
O969 C980 1.283 . S
O970 Tb935 2.421 . S
O970 C987 1.262 . S
O971 Tb924 2.320 . S
O971 C987 1.260 . S
O972 Tb924 2.552 . S
O972 C980 1.243 . S
O973 Tb924 2.413 . S
O973 C988 1.256 . S
O974 Tb935 2.546 . S
O974 C999 1.251 . S
O975 Tb924 2.362 . S
O975 Tb935 2.610 . S
O975 C991 1.283 . S
O976 Tb924 2.421 . S
O976 C998 1.262 . S
O977 Tb935 2.320 . S
O977 C998 1.260 . S
O978 Tb935 2.552 . S
O978 C991 1.243 . S
O979 Tb935 2.413 . S
O979 C999 1.256 . S
C980 O969 1.283 . S
C980 O972 1.243 . S
C981 C983 1.382 . S
C981 C985 1.393 . S
C981 C988 1.500 . S
C982 C983 1.400 . S
C982 C984 1.384 . S
C983 C981 1.382 . S
C983 C982 1.400 . S
C983 H1000 0.930 . S
C984 C982 1.384 . S
C984 C986 1.392 . S
C984 H1001 0.931 . S
C985 C981 1.393 . S
C985 C986 1.401 . S
C985 H1002 0.930 . S
C986 C984 1.392 . S
C986 C985 1.401 . S
C986 H1003 0.930 . S
C987 O970 1.262 . S
C987 O971 1.260 . S
C988 Tb924 2.833 . S
C988 O968 1.251 . S
C988 O973 1.256 . S
C988 C981 1.500 . S
C989 H954 0.929 . S
C989 C967 1.444 . S
C989 C990 1.317 . S
C990 H952 0.930 . S
C990 C958 1.432 . S
C990 C989 1.317 . S
C991 O975 1.283 . S
C991 O978 1.243 . S
C992 C993 1.382 . S
C992 C996 1.393 . S
C992 C999 1.500 . S
C993 C992 1.382 . S
C993 C994 1.400 . S
C993 H1004 0.930 . S
C994 C993 1.400 . S
C994 C995 1.384 . S
C995 C994 1.384 . S
C995 C997 1.392 . S
C995 H1005 0.931 1_565 S
C996 C992 1.393 . S
C996 C997 1.401 . S
C996 H1006 0.930 . S
C997 C995 1.392 . S
C997 C996 1.401 . S
C997 H1007 0.930 . S
C998 O976 1.262 . S
C998 O977 1.260 . S
C999 Tb935 2.833 . S
C999 O974 1.251 . S
C999 O979 1.256 . S
C999 C992 1.500 . S
H1000 C983 0.930 . S
H1001 C984 0.931 . S
H1002 C985 0.930 . S
H1003 C986 0.930 . S
H1004 C993 0.930 . S
H1005 C995 0.931 1_545 S
H1006 C996 0.930 . S
H1007 C997 0.930 . S
Tb1008 N1039 2.660 . S
Tb1008 N1046 2.600 . S
Tb1008 O1052 2.546 . S
Tb1008 O1053 2.610 . S
Tb1008 O1055 2.320 . S
Tb1008 O1056 2.552 . S
Tb1008 O1057 2.413 . S
Tb1008 O1059 2.362 . S
Tb1008 O1060 2.421 . S
Tb1008 C1072 2.833 . S
C1009 C1012 1.432 . S
C1009 C1013 1.414 . S
C1009 N1016 1.359 . S
C1010 C1012 1.417 . S
C1010 C1014 1.432 . S
C1010 C1022 1.410 . S
C1011 C1013 1.444 . S
C1011 C1014 1.317 . S
C1011 H1034 0.929 . S
C1012 C1009 1.432 . S
C1012 C1010 1.417 . S
C1012 N1020 1.360 . S
C1013 C1009 1.414 . S
C1013 C1011 1.444 . S
C1013 C1018 1.385 . S
C1014 C1010 1.432 . S
C1014 C1011 1.317 . S
C1014 H1026 0.930 . S
C1015 C1017 1.392 . S
C1015 C1018 1.370 . S
C1015 H1027 0.931 . S
N1016 C1009 1.359 . S
N1016 C1017 1.327 . S
N1016 Tb1019 2.600 . S
C1017 C1015 1.392 . S
C1017 N1016 1.327 . S
C1017 H1024 0.930 . S
C1018 C1013 1.385 . S
C1018 C1015 1.370 . S
C1018 H1037 0.930 . S
Tb1019 N1016 2.600 . S
Tb1019 N1020 2.660 . S
Tb1019 O1053 2.362 . S
Tb1019 O1054 2.421 . S
Tb1019 O1058 2.546 . S
Tb1019 O1059 2.610 . S
Tb1019 O1061 2.320 . S
Tb1019 O1062 2.552 . S
Tb1019 O1063 2.413 . S
Tb1019 C1083 2.833 . S
N1020 C1012 1.360 . S
N1020 Tb1019 2.660 . S
N1020 C1021 1.305 . S
C1021 N1020 1.305 . S
C1021 C1023 1.407 . S
C1021 H1028 0.930 . S
C1022 C1010 1.410 . S
C1022 C1023 1.345 . S
C1022 H1030 0.930 . S
C1023 C1021 1.407 . S
C1023 C1022 1.345 . S
C1023 H1025 0.930 . S
H1024 C1017 0.930 . S
H1025 C1023 0.930 . S
H1026 C1014 0.930 . S
H1027 C1015 0.931 . S
H1028 C1021 0.930 . S
H1029 C1043 0.930 . S
H1030 C1022 0.930 . S
H1031 C1049 0.930 . S
H1032 C1040 0.930 . S
H1033 C1047 0.931 . S
H1034 C1011 0.929 . S
H1035 C1041 0.930 . S
H1036 C1074 0.930 . S
H1037 C1018 0.930 . S
H1038 C1073 0.929 . S
N1039 Tb1008 2.660 . S
N1039 C1040 1.305 . S
N1039 C1044 1.360 . S
C1040 H1032 0.930 . S
C1040 N1039 1.305 . S
C1040 C1043 1.407 . S
C1041 H1035 0.930 . S
C1041 C1042 1.410 . S
C1041 C1043 1.345 . S
C1042 C1041 1.410 . S
C1042 C1044 1.417 . S
C1042 C1074 1.432 . S
C1043 H1029 0.930 . S
C1043 C1040 1.407 . S
C1043 C1041 1.345 . S
C1044 N1039 1.360 . S
C1044 C1042 1.417 . S
C1044 C1048 1.432 . S
H1045 C1050 0.930 . S
N1046 Tb1008 2.600 . S
N1046 C1048 1.359 . S
N1046 C1049 1.327 . S
C1047 H1033 0.931 . S
C1047 C1049 1.392 . S
C1047 C1050 1.370 . S
C1048 C1044 1.432 . S
C1048 N1046 1.359 . S
C1048 C1051 1.414 . S
C1049 H1031 0.930 . S
C1049 N1046 1.327 . S
C1049 C1047 1.392 . S
C1050 H1045 0.930 . S
C1050 C1047 1.370 . S
C1050 C1051 1.385 . S
C1051 C1048 1.414 . S
C1051 C1050 1.385 . S
C1051 C1073 1.444 . S
O1052 Tb1008 2.546 . S
O1052 C1072 1.251 . S
O1053 Tb1008 2.610 . S
O1053 Tb1019 2.362 . S
O1053 C1064 1.283 . S
O1054 Tb1019 2.421 . S
O1054 C1071 1.262 . S
O1055 Tb1008 2.320 . S
O1055 C1071 1.260 . S
O1056 Tb1008 2.552 . S
O1056 C1064 1.243 . S
O1057 Tb1008 2.413 . S
O1057 C1072 1.256 . S
O1058 Tb1019 2.546 . S
O1058 C1083 1.251 . S
O1059 Tb1008 2.362 . S
O1059 Tb1019 2.610 . S
O1059 C1075 1.283 . S
O1060 Tb1008 2.421 . S
O1060 C1082 1.262 . S
O1061 Tb1019 2.320 . S
O1061 C1082 1.260 . S
O1062 Tb1019 2.552 . S
O1062 C1075 1.243 . S
O1063 Tb1019 2.413 . S
O1063 C1083 1.256 . S
C1064 O1053 1.283 . S
C1064 O1056 1.243 . S
C1065 C1067 1.382 . S
C1065 C1069 1.393 . S
C1065 C1072 1.500 . S
C1066 C1067 1.400 . S
C1066 C1068 1.384 . S
C1067 C1065 1.382 . S
C1067 C1066 1.400 . S
C1067 H1084 0.930 . S
C1068 C1066 1.384 . S
C1068 C1070 1.392 . S
C1068 H1085 0.931 1_545 S
C1069 C1065 1.393 . S
C1069 C1070 1.401 . S
C1069 H1086 0.930 . S
C1070 C1068 1.392 . S
C1070 C1069 1.401 . S
C1070 H1087 0.930 . S
C1071 O1054 1.262 . S
C1071 O1055 1.260 . S
C1072 Tb1008 2.833 . S
C1072 O1052 1.251 . S
C1072 O1057 1.256 . S
C1072 C1065 1.500 . S
C1073 H1038 0.929 . S
C1073 C1051 1.444 . S
C1073 C1074 1.317 . S
C1074 H1036 0.930 . S
C1074 C1042 1.432 . S
C1074 C1073 1.317 . S
C1075 O1059 1.283 . S
C1075 O1062 1.243 . S
C1076 C1077 1.382 . S
C1076 C1080 1.393 . S
C1076 C1083 1.500 . S
C1077 C1076 1.382 . S
C1077 C1078 1.400 . S
C1077 H1088 0.930 . S
C1078 C1077 1.400 . S
C1078 C1079 1.384 . S
C1079 C1078 1.384 . S
C1079 C1081 1.392 . S
C1079 H1089 0.931 . S
C1080 C1076 1.393 . S
C1080 C1081 1.401 . S
C1080 H1090 0.930 . S
C1081 C1079 1.392 . S
C1081 C1080 1.401 . S
C1081 H1091 0.930 . S
C1082 O1060 1.262 . S
C1082 O1061 1.260 . S
C1083 Tb1019 2.833 . S
C1083 O1058 1.251 . S
C1083 O1063 1.256 . S
C1083 C1076 1.500 . S
H1084 C1067 0.930 . S
H1085 C1068 0.931 1_565 S
H1086 C1069 0.930 . S
H1087 C1070 0.930 . S
H1088 C1077 0.930 . S
H1089 C1079 0.931 . S
H1090 C1080 0.930 . S
H1091 C1081 0.930 . S
Tb1092 N1123 2.660 . S
Tb1092 N1130 2.600 . S
Tb1092 O1136 2.546 . S
Tb1092 O1137 2.610 . S
Tb1092 O1139 2.320 . S
Tb1092 O1140 2.552 . S
Tb1092 O1141 2.413 . S
Tb1092 O1143 2.362 . S
Tb1092 O1144 2.421 . S
Tb1092 C1156 2.833 . S
C1093 C1096 1.432 . S
C1093 C1097 1.414 . S
C1093 N1100 1.359 . S
C1094 C1096 1.417 . S
C1094 C1098 1.432 . S
C1094 C1106 1.410 . S
C1095 C1097 1.444 . S
C1095 C1098 1.317 . S
C1095 H1118 0.929 . S
C1096 C1093 1.432 . S
C1096 C1094 1.417 . S
C1096 N1104 1.360 . S
C1097 C1093 1.414 . S
C1097 C1095 1.444 . S
C1097 C1102 1.385 . S
C1098 C1094 1.432 . S
C1098 C1095 1.317 . S
C1098 H1110 0.930 . S
C1099 C1101 1.392 . S
C1099 C1102 1.370 . S
C1099 H1111 0.931 . S
N1100 C1093 1.359 . S
N1100 C1101 1.327 . S
N1100 Tb1103 2.600 . S
C1101 C1099 1.392 . S
C1101 N1100 1.327 . S
C1101 H1108 0.930 . S
C1102 C1097 1.385 . S
C1102 C1099 1.370 . S
C1102 H1121 0.930 . S
Tb1103 N1100 2.600 . S
Tb1103 N1104 2.660 . S
Tb1103 O1137 2.362 . S
Tb1103 O1138 2.421 . S
Tb1103 O1142 2.546 . S
Tb1103 O1143 2.610 . S
Tb1103 O1145 2.320 . S
Tb1103 O1146 2.552 . S
Tb1103 O1147 2.413 . S
Tb1103 C1167 2.833 . S
N1104 C1096 1.360 . S
N1104 Tb1103 2.660 . S
N1104 C1105 1.305 . S
C1105 N1104 1.305 . S
C1105 C1107 1.407 . S
C1105 H1112 0.930 . S
C1106 C1094 1.410 . S
C1106 C1107 1.345 . S
C1106 H1114 0.930 . S
C1107 C1105 1.407 . S
C1107 C1106 1.345 . S
C1107 H1109 0.930 . S
H1108 C1101 0.930 . S
H1109 C1107 0.930 . S
H1110 C1098 0.930 . S
H1111 C1099 0.931 . S
H1112 C1105 0.930 . S
H1113 C1127 0.930 . S
H1114 C1106 0.930 . S
H1115 C1133 0.930 . S
H1116 C1124 0.930 . S
H1117 C1131 0.931 . S
H1118 C1095 0.929 . S
H1119 C1125 0.930 . S
H1120 C1158 0.930 . S
H1121 C1102 0.930 . S
H1122 C1157 0.929 . S
N1123 Tb1092 2.660 . S
N1123 C1124 1.305 . S
N1123 C1128 1.360 . S
C1124 H1116 0.930 . S
C1124 N1123 1.305 . S
C1124 C1127 1.407 . S
C1125 H1119 0.930 . S
C1125 C1126 1.410 . S
C1125 C1127 1.345 . S
C1126 C1125 1.410 . S
C1126 C1128 1.417 . S
C1126 C1158 1.432 . S
C1127 H1113 0.930 . S
C1127 C1124 1.407 . S
C1127 C1125 1.345 . S
C1128 N1123 1.360 . S
C1128 C1126 1.417 . S
C1128 C1132 1.432 . S
H1129 C1134 0.930 . S
N1130 Tb1092 2.600 . S
N1130 C1132 1.359 . S
N1130 C1133 1.327 . S
C1131 H1117 0.931 . S
C1131 C1133 1.392 . S
C1131 C1134 1.370 . S
C1132 C1128 1.432 . S
C1132 N1130 1.359 . S
C1132 C1135 1.414 . S
C1133 H1115 0.930 . S
C1133 N1130 1.327 . S
C1133 C1131 1.392 . S
C1134 H1129 0.930 . S
C1134 C1131 1.370 . S
C1134 C1135 1.385 . S
C1135 C1132 1.414 . S
C1135 C1134 1.385 . S
C1135 C1157 1.444 . S
O1136 Tb1092 2.546 . S
O1136 C1156 1.251 . S
O1137 Tb1092 2.610 . S
O1137 Tb1103 2.362 . S
O1137 C1148 1.283 . S
O1138 Tb1103 2.421 . S
O1138 C1155 1.262 . S
O1139 Tb1092 2.320 . S
O1139 C1155 1.260 . S
O1140 Tb1092 2.552 . S
O1140 C1148 1.243 . S
O1141 Tb1092 2.413 . S
O1141 C1156 1.256 . S
O1142 Tb1103 2.546 . S
O1142 C1167 1.251 . S
O1143 Tb1092 2.362 . S
O1143 Tb1103 2.610 . S
O1143 C1159 1.283 . S
O1144 Tb1092 2.421 . S
O1144 C1166 1.262 . S
O1145 Tb1103 2.320 . S
O1145 C1166 1.260 . S
O1146 Tb1103 2.552 . S
O1146 C1159 1.243 . S
O1147 Tb1103 2.413 . S
O1147 C1167 1.256 . S
C1148 O1137 1.283 . S
C1148 O1140 1.243 . S
C1149 C1151 1.382 . S
C1149 C1153 1.393 . S
C1149 C1156 1.500 . S
C1150 C1151 1.400 . S
C1150 C1152 1.384 . S
C1151 C1149 1.382 . S
C1151 C1150 1.400 . S
C1151 H1168 0.930 . S
C1152 C1150 1.384 . S
C1152 C1154 1.392 . S
C1152 H1169 0.931 1_565 S
C1153 C1149 1.393 . S
C1153 C1154 1.401 . S
C1153 H1170 0.930 . S
C1154 C1152 1.392 . S
C1154 C1153 1.401 . S
C1154 H1171 0.930 . S
C1155 O1138 1.262 . S
C1155 O1139 1.260 . S
C1156 Tb1092 2.833 . S
C1156 O1136 1.251 . S
C1156 O1141 1.256 . S
C1156 C1149 1.500 . S
C1157 H1122 0.929 . S
C1157 C1135 1.444 . S
C1157 C1158 1.317 . S
C1158 H1120 0.930 . S
C1158 C1126 1.432 . S
C1158 C1157 1.317 . S
C1159 O1143 1.283 . S
C1159 O1146 1.243 . S
C1160 C1161 1.382 . S
C1160 C1164 1.393 . S
C1160 C1167 1.500 . S
C1161 C1160 1.382 . S
C1161 C1162 1.400 . S
C1161 H1172 0.930 . S
C1162 C1161 1.400 . S
C1162 C1163 1.384 . S
C1163 C1162 1.384 . S
C1163 C1165 1.392 . S
C1163 H1173 0.931 . S
C1164 C1160 1.393 . S
C1164 C1165 1.401 . S
C1164 H1174 0.930 . S
C1165 C1163 1.392 . S
C1165 C1164 1.401 . S
C1165 H1175 0.930 . S
C1166 O1144 1.262 . S
C1166 O1145 1.260 . S
C1167 Tb1103 2.833 . S
C1167 O1142 1.251 . S
C1167 O1147 1.256 . S
C1167 C1160 1.500 . S
H1168 C1151 0.930 . S
H1169 C1152 0.931 1_545 S
H1170 C1153 0.930 . S
H1171 C1154 0.930 . S
H1172 C1161 0.930 . S
H1173 C1163 0.931 . S
H1174 C1164 0.930 . S
H1175 C1165 0.930 . S
Tb1176 N1207 2.660 . S
Tb1176 N1214 2.600 . S
Tb1176 O1220 2.546 . S
Tb1176 O1221 2.610 . S
Tb1176 O1223 2.320 . S
Tb1176 O1224 2.552 . S
Tb1176 O1225 2.413 . S
Tb1176 O1227 2.362 . S
Tb1176 O1228 2.421 . S
Tb1176 C1240 2.833 . S
C1177 C1180 1.432 . S
C1177 C1181 1.414 . S
C1177 N1184 1.359 . S
C1178 C1180 1.417 . S
C1178 C1182 1.432 . S
C1178 C1190 1.410 . S
C1179 C1181 1.444 . S
C1179 C1182 1.317 . S
C1179 H1202 0.929 . S
C1180 C1177 1.432 . S
C1180 C1178 1.417 . S
C1180 N1188 1.360 . S
C1181 C1177 1.414 . S
C1181 C1179 1.444 . S
C1181 C1186 1.385 . S
C1182 C1178 1.432 . S
C1182 C1179 1.317 . S
C1182 H1194 0.930 . S
C1183 C1185 1.392 . S
C1183 C1186 1.370 . S
C1183 H1195 0.931 . S
N1184 C1177 1.359 . S
N1184 C1185 1.327 . S
N1184 Tb1187 2.600 . S
C1185 C1183 1.392 . S
C1185 N1184 1.327 . S
C1185 H1192 0.930 . S
C1186 C1181 1.385 . S
C1186 C1183 1.370 . S
C1186 H1205 0.930 . S
Tb1187 N1184 2.600 . S
Tb1187 N1188 2.660 . S
Tb1187 O1221 2.362 . S
Tb1187 O1222 2.421 . S
Tb1187 O1226 2.546 . S
Tb1187 O1227 2.610 . S
Tb1187 O1229 2.320 . S
Tb1187 O1230 2.552 . S
Tb1187 O1231 2.413 . S
Tb1187 C1251 2.833 . S
N1188 C1180 1.360 . S
N1188 Tb1187 2.660 . S
N1188 C1189 1.305 . S
C1189 N1188 1.305 . S
C1189 C1191 1.407 . S
C1189 H1196 0.930 . S
C1190 C1178 1.410 . S
C1190 C1191 1.345 . S
C1190 H1198 0.930 . S
C1191 C1189 1.407 . S
C1191 C1190 1.345 . S
C1191 H1193 0.930 . S
H1192 C1185 0.930 . S
H1193 C1191 0.930 . S
H1194 C1182 0.930 . S
H1195 C1183 0.931 . S
H1196 C1189 0.930 . S
H1197 C1211 0.930 . S
H1198 C1190 0.930 . S
H1199 C1217 0.930 . S
H1200 C1208 0.930 . S
H1201 C1215 0.931 . S
H1202 C1179 0.929 . S
H1203 C1209 0.930 . S
H1204 C1242 0.930 . S
H1205 C1186 0.930 . S
H1206 C1241 0.929 . S
N1207 Tb1176 2.660 . S
N1207 C1208 1.305 . S
N1207 C1212 1.360 . S
C1208 H1200 0.930 . S
C1208 N1207 1.305 . S
C1208 C1211 1.407 . S
C1209 H1203 0.930 . S
C1209 C1210 1.410 . S
C1209 C1211 1.345 . S
C1210 C1209 1.410 . S
C1210 C1212 1.417 . S
C1210 C1242 1.432 . S
C1211 H1197 0.930 . S
C1211 C1208 1.407 . S
C1211 C1209 1.345 . S
C1212 N1207 1.360 . S
C1212 C1210 1.417 . S
C1212 C1216 1.432 . S
H1213 C1218 0.930 . S
N1214 Tb1176 2.600 . S
N1214 C1216 1.359 . S
N1214 C1217 1.327 . S
C1215 H1201 0.931 . S
C1215 C1217 1.392 . S
C1215 C1218 1.370 . S
C1216 C1212 1.432 . S
C1216 N1214 1.359 . S
C1216 C1219 1.414 . S
C1217 H1199 0.930 . S
C1217 N1214 1.327 . S
C1217 C1215 1.392 . S
C1218 H1213 0.930 . S
C1218 C1215 1.370 . S
C1218 C1219 1.385 . S
C1219 C1216 1.414 . S
C1219 C1218 1.385 . S
C1219 C1241 1.444 . S
O1220 Tb1176 2.546 . S
O1220 C1240 1.251 . S
O1221 Tb1176 2.610 . S
O1221 Tb1187 2.362 . S
O1221 C1232 1.283 . S
O1222 Tb1187 2.421 . S
O1222 C1239 1.262 . S
O1223 Tb1176 2.320 . S
O1223 C1239 1.260 . S
O1224 Tb1176 2.552 . S
O1224 C1232 1.243 . S
O1225 Tb1176 2.413 . S
O1225 C1240 1.256 . S
O1226 Tb1187 2.546 . S
O1226 C1251 1.251 . S
O1227 Tb1176 2.362 . S
O1227 Tb1187 2.610 . S
O1227 C1243 1.283 . S
O1228 Tb1176 2.421 . S
O1228 C1250 1.262 . S
O1229 Tb1187 2.320 . S
O1229 C1250 1.260 . S
O1230 Tb1187 2.552 . S
O1230 C1243 1.243 . S
O1231 Tb1187 2.413 . S
O1231 C1251 1.256 . S
C1232 O1221 1.283 . S
C1232 O1224 1.243 . S
C1233 C1235 1.382 . S
C1233 C1237 1.393 . S
C1233 C1240 1.500 . S
C1234 C1235 1.400 . S
C1234 C1236 1.384 . S
C1235 C1233 1.382 . S
C1235 C1234 1.400 . S
C1235 H1252 0.930 . S
C1236 C1234 1.384 . S
C1236 C1238 1.392 . S
C1236 H1253 0.931 1_565 S
C1237 C1233 1.393 . S
C1237 C1238 1.401 . S
C1237 H1254 0.930 . S
C1238 C1236 1.392 . S
C1238 C1237 1.401 . S
C1238 H1255 0.930 . S
C1239 O1222 1.262 . S
C1239 O1223 1.260 . S
C1240 Tb1176 2.833 . S
C1240 O1220 1.251 . S
C1240 O1225 1.256 . S
C1240 C1233 1.500 . S
C1241 H1206 0.929 . S
C1241 C1219 1.444 . S
C1241 C1242 1.317 . S
C1242 H1204 0.930 . S
C1242 C1210 1.432 . S
C1242 C1241 1.317 . S
C1243 O1227 1.283 . S
C1243 O1230 1.243 . S
C1244 C1245 1.382 . S
C1244 C1248 1.393 . S
C1244 C1251 1.500 . S
C1245 C1244 1.382 . S
C1245 C1246 1.400 . S
C1245 H1256 0.930 . S
C1246 C1245 1.400 . S
C1246 C1247 1.384 . S
C1247 C1246 1.384 . S
C1247 C1249 1.392 . S
C1247 H1257 0.931 . S
C1248 C1244 1.393 . S
C1248 C1249 1.401 . S
C1248 H1258 0.930 . S
C1249 C1247 1.392 . S
C1249 C1248 1.401 . S
C1249 H1259 0.930 . S
C1250 O1228 1.262 . S
C1250 O1229 1.260 . S
C1251 Tb1187 2.833 . S
C1251 O1226 1.251 . S
C1251 O1231 1.256 . S
C1251 C1244 1.500 . S
H1252 C1235 0.930 . S
H1253 C1236 0.931 1_545 S
H1254 C1237 0.930 . S
H1255 C1238 0.930 . S
H1256 C1245 0.930 . S
H1257 C1247 0.931 . S
H1258 C1248 0.930 . S
H1259 C1249 0.930 . S
Tb1260 N1291 2.660 . S
Tb1260 N1298 2.600 . S
Tb1260 O1304 2.546 . S
Tb1260 O1305 2.610 . S
Tb1260 O1307 2.320 . S
Tb1260 O1308 2.552 . S
Tb1260 O1309 2.413 . S
Tb1260 O1311 2.362 . S
Tb1260 O1312 2.421 . S
Tb1260 C1324 2.833 . S
C1261 C1264 1.432 . S
C1261 C1265 1.414 . S
C1261 N1268 1.359 . S
C1262 C1264 1.417 . S
C1262 C1266 1.432 . S
C1262 C1274 1.410 . S
C1263 C1265 1.444 . S
C1263 C1266 1.317 . S
C1263 H1286 0.929 . S
C1264 C1261 1.432 . S
C1264 C1262 1.417 . S
C1264 N1272 1.360 . S
C1265 C1261 1.414 . S
C1265 C1263 1.444 . S
C1265 C1270 1.385 . S
C1266 C1262 1.432 . S
C1266 C1263 1.317 . S
C1266 H1278 0.930 . S
C1267 C1269 1.392 . S
C1267 C1270 1.370 . S
C1267 H1279 0.931 . S
N1268 C1261 1.359 . S
N1268 C1269 1.327 . S
N1268 Tb1271 2.600 . S
C1269 C1267 1.392 . S
C1269 N1268 1.327 . S
C1269 H1276 0.930 . S
C1270 C1265 1.385 . S
C1270 C1267 1.370 . S
C1270 H1289 0.930 . S
Tb1271 N1268 2.600 . S
Tb1271 N1272 2.660 . S
Tb1271 O1305 2.362 . S
Tb1271 O1306 2.421 . S
Tb1271 O1310 2.546 . S
Tb1271 O1311 2.610 . S
Tb1271 O1313 2.320 . S
Tb1271 O1314 2.552 . S
Tb1271 O1315 2.413 . S
Tb1271 C1335 2.833 . S
N1272 C1264 1.360 . S
N1272 Tb1271 2.660 . S
N1272 C1273 1.305 . S
C1273 N1272 1.305 . S
C1273 C1275 1.407 . S
C1273 H1280 0.930 . S
C1274 C1262 1.410 . S
C1274 C1275 1.345 . S
C1274 H1282 0.930 . S
C1275 C1273 1.407 . S
C1275 C1274 1.345 . S
C1275 H1277 0.930 . S
H1276 C1269 0.930 . S
H1277 C1275 0.930 . S
H1278 C1266 0.930 . S
H1279 C1267 0.931 . S
H1280 C1273 0.930 . S
H1281 C1295 0.930 . S
H1282 C1274 0.930 . S
H1283 C1301 0.930 . S
H1284 C1292 0.930 . S
H1285 C1299 0.931 . S
H1286 C1263 0.929 . S
H1287 C1293 0.930 . S
H1288 C1326 0.930 . S
H1289 C1270 0.930 . S
H1290 C1325 0.929 . S
N1291 Tb1260 2.660 . S
N1291 C1292 1.305 . S
N1291 C1296 1.360 . S
C1292 H1284 0.930 . S
C1292 N1291 1.305 . S
C1292 C1295 1.407 . S
C1293 H1287 0.930 . S
C1293 C1294 1.410 . S
C1293 C1295 1.345 . S
C1294 C1293 1.410 . S
C1294 C1296 1.417 . S
C1294 C1326 1.432 . S
C1295 H1281 0.930 . S
C1295 C1292 1.407 . S
C1295 C1293 1.345 . S
C1296 N1291 1.360 . S
C1296 C1294 1.417 . S
C1296 C1300 1.432 . S
H1297 C1302 0.930 . S
N1298 Tb1260 2.600 . S
N1298 C1300 1.359 . S
N1298 C1301 1.327 . S
C1299 H1285 0.931 . S
C1299 C1301 1.392 . S
C1299 C1302 1.370 . S
C1300 C1296 1.432 . S
C1300 N1298 1.359 . S
C1300 C1303 1.414 . S
C1301 H1283 0.930 . S
C1301 N1298 1.327 . S
C1301 C1299 1.392 . S
C1302 H1297 0.930 . S
C1302 C1299 1.370 . S
C1302 C1303 1.385 . S
C1303 C1300 1.414 . S
C1303 C1302 1.385 . S
C1303 C1325 1.444 . S
O1304 Tb1260 2.546 . S
O1304 C1324 1.251 . S
O1305 Tb1260 2.610 . S
O1305 Tb1271 2.362 . S
O1305 C1316 1.283 . S
O1306 Tb1271 2.421 . S
O1306 C1323 1.262 . S
O1307 Tb1260 2.320 . S
O1307 C1323 1.260 . S
O1308 Tb1260 2.552 . S
O1308 C1316 1.243 . S
O1309 Tb1260 2.413 . S
O1309 C1324 1.256 . S
O1310 Tb1271 2.546 . S
O1310 C1335 1.251 . S
O1311 Tb1260 2.362 . S
O1311 Tb1271 2.610 . S
O1311 C1327 1.283 . S
O1312 Tb1260 2.421 . S
O1312 C1334 1.262 . S
O1313 Tb1271 2.320 . S
O1313 C1334 1.260 . S
O1314 Tb1271 2.552 . S
O1314 C1327 1.243 . S
O1315 Tb1271 2.413 . S
O1315 C1335 1.256 . S
C1316 O1305 1.283 . S
C1316 O1308 1.243 . S
C1317 C1319 1.382 . S
C1317 C1321 1.393 . S
C1317 C1324 1.500 . S
C1318 C1319 1.400 . S
C1318 C1320 1.384 . S
C1319 C1317 1.382 . S
C1319 C1318 1.400 . S
C1319 H1336 0.930 . S
C1320 C1318 1.384 . S
C1320 C1322 1.392 . S
C1320 H1337 0.931 1_545 S
C1321 C1317 1.393 . S
C1321 C1322 1.401 . S
C1321 H1338 0.930 . S
C1322 C1320 1.392 . S
C1322 C1321 1.401 . S
C1322 H1339 0.930 . S
C1323 O1306 1.262 . S
C1323 O1307 1.260 . S
C1324 Tb1260 2.833 . S
C1324 O1304 1.251 . S
C1324 O1309 1.256 . S
C1324 C1317 1.500 . S
C1325 H1290 0.929 . S
C1325 C1303 1.444 . S
C1325 C1326 1.317 . S
C1326 H1288 0.930 . S
C1326 C1294 1.432 . S
C1326 C1325 1.317 . S
C1327 O1311 1.283 . S
C1327 O1314 1.243 . S
C1328 C1329 1.382 . S
C1328 C1332 1.393 . S
C1328 C1335 1.500 . S
C1329 C1328 1.382 . S
C1329 C1330 1.400 . S
C1329 H1340 0.930 . S
C1330 C1329 1.400 . S
C1330 C1331 1.384 . S
C1331 C1330 1.384 . S
C1331 C1333 1.392 . S
C1331 H1341 0.931 . S
C1332 C1328 1.393 . S
C1332 C1333 1.401 . S
C1332 H1342 0.930 . S
C1333 C1331 1.392 . S
C1333 C1332 1.401 . S
C1333 H1343 0.930 . S
C1334 O1312 1.262 . S
C1334 O1313 1.260 . S
C1335 Tb1271 2.833 . S
C1335 O1310 1.251 . S
C1335 O1315 1.256 . S
C1335 C1328 1.500 . S
H1336 C1319 0.930 . S
H1337 C1320 0.931 1_565 S
H1338 C1321 0.930 . S
H1339 C1322 0.930 . S
H1340 C1329 0.930 . S
H1341 C1331 0.931 . S
H1342 C1332 0.930 . S
H1343 C1333 0.930 . S
H1344 C1352 0.950 . S
H1345 C1357 0.950 . S
H1346 C1354 0.950 . S
H1347 C1356 0.950 . S
H1348 C1358 0.950 . S
H1349 C1360 0.950 . S
H1350 C1362 0.950 . S
H1351 C1363 0.950 . S
C1352 H1344 0.950 . S
C1352 C1353 1.386 . S
C1352 C1354 1.391 . S
C1353 C1352 1.386 . S
C1353 C1357 1.393 . S
C1354 H1346 0.950 . S
C1354 C1352 1.391 . S
C1354 C1355 1.400 . S
C1355 C1354 1.400 . S
C1355 C1356 1.398 . S
C1355 C1361 1.491 . S
C1356 H1347 0.950 . S
C1356 C1355 1.398 . S
C1356 C1357 1.391 . S
C1357 H1345 0.950 . S
C1357 C1353 1.393 . S
C1357 C1356 1.391 . S
C1358 H1348 0.950 . S
C1358 C1359 1.386 . S
C1358 C1360 1.391 . S
C1359 C1358 1.386 . S
C1359 C1363 1.393 . S
C1360 H1349 0.950 . S
C1360 C1358 1.391 . S
C1360 C1361 1.400 . S
C1361 C1355 1.491 . S
C1361 C1360 1.400 . S
C1361 C1362 1.398 . S
C1362 H1350 0.950 . S
C1362 C1361 1.398 . S
C1362 C1363 1.391 . S
C1363 H1351 0.950 . S
C1363 C1359 1.393 . S
C1363 C1362 1.391 . S
H1364 C1372 0.950 . S
H1365 C1377 0.950 . S
H1366 C1374 0.950 . S
H1367 C1376 0.950 . S
H1368 C1378 0.950 . S
H1369 C1380 0.950 . S
H1370 C1382 0.950 . S
H1371 C1383 0.950 . S
C1372 H1364 0.950 . S
C1372 C1373 1.386 . S
C1372 C1374 1.391 . S
C1373 C1372 1.386 . S
C1373 C1377 1.393 . S
C1374 H1366 0.950 . S
C1374 C1372 1.391 . S
C1374 C1375 1.400 . S
C1375 C1374 1.400 . S
C1375 C1376 1.398 . S
C1375 C1381 1.491 . S
C1376 H1367 0.950 . S
C1376 C1375 1.398 . S
C1376 C1377 1.391 . S
C1377 H1365 0.950 . S
C1377 C1373 1.393 . S
C1377 C1376 1.391 . S
C1378 H1368 0.950 . S
C1378 C1379 1.386 . S
C1378 C1380 1.391 . S
C1379 C1378 1.386 . S
C1379 C1383 1.393 . S
C1380 H1369 0.950 . S
C1380 C1378 1.391 . S
C1380 C1381 1.400 . S
C1381 C1375 1.491 . S
C1381 C1380 1.400 . S
C1381 C1382 1.398 . S
C1382 H1370 0.950 . S
C1382 C1381 1.398 . S
C1382 C1383 1.391 . S
C1383 H1371 0.950 . S
C1383 C1379 1.393 . S
C1383 C1382 1.391 . S
H1384 C1392 0.950 . S
H1385 C1397 0.950 . S
H1386 C1394 0.950 . S
H1387 C1396 0.950 . S
H1388 C1398 0.950 . S
H1389 C1400 0.950 . S
H1390 C1402 0.950 . S
H1391 C1403 0.950 . S
C1392 H1384 0.950 . S
C1392 C1393 1.386 . S
C1392 C1394 1.391 . S
C1393 C1392 1.386 . S
C1393 C1397 1.393 . S
C1394 H1386 0.950 . S
C1394 C1392 1.391 . S
C1394 C1395 1.400 . S
C1395 C1394 1.400 . S
C1395 C1396 1.398 . S
C1395 C1401 1.491 . S
C1396 H1387 0.950 . S
C1396 C1395 1.398 . S
C1396 C1397 1.391 . S
C1397 H1385 0.950 . S
C1397 C1393 1.393 . S
C1397 C1396 1.391 . S
C1398 H1388 0.950 . S
C1398 C1399 1.386 . S
C1398 C1400 1.391 . S
C1399 C1398 1.386 . S
C1399 C1403 1.393 . S
C1400 H1389 0.950 . S
C1400 C1398 1.391 . S
C1400 C1401 1.400 . S
C1401 C1395 1.491 . S
C1401 C1400 1.400 . S
C1401 C1402 1.398 . S
C1402 H1390 0.950 . S
C1402 C1401 1.398 . S
C1402 C1403 1.391 . S
C1403 H1391 0.950 . S
C1403 C1399 1.393 . S
C1403 C1402 1.391 . S
H1404 C1412 0.950 . S
H1405 C1417 0.950 . S
H1406 C1414 0.950 . S
H1407 C1416 0.950 . S
H1408 C1418 0.950 . S
H1409 C1420 0.950 . S
H1410 C1422 0.950 . S
H1411 C1423 0.950 . S
C1412 H1404 0.950 . S
C1412 C1413 1.386 . S
C1412 C1414 1.391 . S
C1413 C1412 1.386 . S
C1413 C1417 1.393 . S
C1414 H1406 0.950 . S
C1414 C1412 1.391 . S
C1414 C1415 1.400 . S
C1415 C1414 1.400 . S
C1415 C1416 1.398 . S
C1415 C1421 1.491 . S
C1416 H1407 0.950 . S
C1416 C1415 1.398 . S
C1416 C1417 1.391 . S
C1417 H1405 0.950 . S
C1417 C1413 1.393 . S
C1417 C1416 1.391 . S
C1418 H1408 0.950 . S
C1418 C1419 1.386 . S
C1418 C1420 1.391 . S
C1419 C1418 1.386 . S
C1419 C1423 1.393 . S
C1420 H1409 0.950 . S
C1420 C1418 1.391 . S
C1420 C1421 1.400 . S
C1421 C1415 1.491 . S
C1421 C1420 1.400 . S
C1421 C1422 1.398 . S
C1422 H1410 0.950 . S
C1422 C1421 1.398 . S
C1422 C1423 1.391 . S
C1423 H1411 0.950 . S
C1423 C1419 1.393 . S
C1423 C1422 1.391 . S
H1424 C1432 0.950 . S
H1425 C1437 0.950 . S
H1426 C1434 0.950 . S
H1427 C1436 0.950 . S
H1428 C1438 0.950 . S
H1429 C1440 0.950 . S
H1430 C1442 0.950 . S
H1431 C1443 0.950 . S
C1432 H1424 0.950 . S
C1432 C1433 1.386 . S
C1432 C1434 1.391 . S
C1433 C1432 1.386 . S
C1433 C1437 1.393 . S
C1434 H1426 0.950 . S
C1434 C1432 1.391 . S
C1434 C1435 1.400 . S
C1435 C1434 1.400 . S
C1435 C1436 1.398 . S
C1435 C1441 1.491 . S
C1436 H1427 0.950 . S
C1436 C1435 1.398 . S
C1436 C1437 1.391 . S
C1437 H1425 0.950 . S
C1437 C1433 1.393 . S
C1437 C1436 1.391 . S
C1438 H1428 0.950 . S
C1438 C1439 1.386 . S
C1438 C1440 1.391 . S
C1439 C1438 1.386 . S
C1439 C1443 1.393 . S
C1440 H1429 0.950 . S
C1440 C1438 1.391 . S
C1440 C1441 1.400 . S
C1441 C1435 1.491 . S
C1441 C1440 1.400 . S
C1441 C1442 1.398 . S
C1442 H1430 0.950 . S
C1442 C1441 1.398 . S
C1442 C1443 1.391 . S
C1443 H1431 0.950 . S
C1443 C1439 1.393 . S
C1443 C1442 1.391 . S
H1444 C1452 0.950 . S
H1445 C1457 0.950 . S
H1446 C1454 0.950 . S
H1447 C1456 0.950 . S
H1448 C1458 0.950 . S
H1449 C1460 0.950 . S
H1450 C1462 0.950 . S
H1451 C1463 0.950 . S
C1452 H1444 0.950 . S
C1452 C1453 1.386 . S
C1452 C1454 1.391 . S
C1453 C1452 1.386 . S
C1453 C1457 1.393 . S
C1454 H1446 0.950 . S
C1454 C1452 1.391 . S
C1454 C1455 1.400 . S
C1455 C1454 1.400 . S
C1455 C1456 1.398 . S
C1455 C1461 1.491 . S
C1456 H1447 0.950 . S
C1456 C1455 1.398 . S
C1456 C1457 1.391 . S
C1457 H1445 0.950 . S
C1457 C1453 1.393 . S
C1457 C1456 1.391 . S
C1458 H1448 0.950 . S
C1458 C1459 1.386 . S
C1458 C1460 1.391 . S
C1459 C1458 1.386 . S
C1459 C1463 1.393 . S
C1460 H1449 0.950 . S
C1460 C1458 1.391 . S
C1460 C1461 1.400 . S
C1461 C1455 1.491 . S
C1461 C1460 1.400 . S
C1461 C1462 1.398 . S
C1462 H1450 0.950 . S
C1462 C1461 1.398 . S
C1462 C1463 1.391 . S
C1463 H1451 0.950 . S
C1463 C1459 1.393 . S
C1463 C1462 1.391 . S
H1464 C1472 0.950 . S
H1465 C1477 0.950 . S
H1466 C1474 0.950 . S
H1467 C1476 0.950 . S
H1468 C1478 0.950 . S
H1469 C1480 0.950 . S
H1470 C1482 0.950 . S
H1471 C1483 0.950 . S
C1472 H1464 0.950 . S
C1472 C1473 1.386 . S
C1472 C1474 1.391 . S
C1473 C1472 1.386 . S
C1473 C1477 1.393 . S
C1474 H1466 0.950 . S
C1474 C1472 1.391 . S
C1474 C1475 1.400 . S
C1475 C1474 1.400 . S
C1475 C1476 1.398 . S
C1475 C1481 1.491 . S
C1476 H1467 0.950 . S
C1476 C1475 1.398 . S
C1476 C1477 1.391 . S
C1477 H1465 0.950 . S
C1477 C1473 1.393 . S
C1477 C1476 1.391 . S
C1478 H1468 0.950 . S
C1478 C1479 1.386 . S
C1478 C1480 1.391 . S
C1479 C1478 1.386 . S
C1479 C1483 1.393 . S
C1480 H1469 0.950 . S
C1480 C1478 1.391 . S
C1480 C1481 1.400 . S
C1481 C1475 1.491 . S
C1481 C1480 1.400 . S
C1481 C1482 1.398 . S
C1482 H1470 0.950 . S
C1482 C1481 1.398 . S
C1482 C1483 1.391 . S
C1483 H1471 0.950 . S
C1483 C1479 1.393 . S
C1483 C1482 1.391 . S
H1484 C1492 0.950 . S
H1485 C1497 0.950 . S
H1486 C1494 0.950 . S
H1487 C1496 0.950 . S
H1488 C1498 0.950 . S
H1489 C1500 0.950 . S
H1490 C1502 0.950 . S
H1491 C1503 0.950 . S
C1492 H1484 0.950 . S
C1492 C1493 1.386 . S
C1492 C1494 1.391 . S
C1493 C1492 1.386 . S
C1493 C1497 1.393 . S
C1494 H1486 0.950 . S
C1494 C1492 1.391 . S
C1494 C1495 1.400 . S
C1495 C1494 1.400 . S
C1495 C1496 1.398 . S
C1495 C1501 1.491 . S
C1496 H1487 0.950 . S
C1496 C1495 1.398 . S
C1496 C1497 1.391 . S
C1497 H1485 0.950 . S
C1497 C1493 1.393 . S
C1497 C1496 1.391 . S
C1498 H1488 0.950 . S
C1498 C1499 1.386 . S
C1498 C1500 1.391 . S
C1499 C1498 1.386 . S
C1499 C1503 1.393 . S
C1500 H1489 0.950 . S
C1500 C1498 1.391 . S
C1500 C1501 1.400 . S
C1501 C1495 1.491 . S
C1501 C1500 1.400 . S
C1501 C1502 1.398 . S
C1502 H1490 0.950 . S
C1502 C1501 1.398 . S
C1502 C1503 1.391 . S
C1503 H1491 0.950 . S
C1503 C1499 1.393 . S
C1503 C1502 1.391 . S
H1504 C1512 0.950 1_545 S
H1505 C1517 0.950 . S
H1506 C1514 0.950 . S
H1507 C1516 0.950 . S
H1508 C1518 0.950 1_565 S
H1509 C1520 0.950 . S
H1510 C1522 0.950 . S
H1511 C1523 0.950 . S
C1512 H1504 0.950 1_565 S
C1512 C1513 1.386 . S
C1512 C1514 1.391 1_565 S
C1513 C1512 1.386 . S
C1513 C1517 1.393 . S
C1514 H1506 0.950 . S
C1514 C1512 1.391 1_545 S
C1514 C1515 1.400 1_545 S
C1515 C1514 1.400 1_565 S
C1515 C1516 1.398 . S
C1515 C1521 1.491 1_565 S
C1516 H1507 0.950 . S
C1516 C1515 1.398 . S
C1516 C1517 1.391 . S
C1517 H1505 0.950 . S
C1517 C1513 1.393 . S
C1517 C1516 1.391 . S
C1518 H1508 0.950 1_545 S
C1518 C1519 1.386 . S
C1518 C1520 1.391 1_545 S
C1519 C1518 1.386 . S
C1519 C1523 1.393 . S
C1520 H1509 0.950 . S
C1520 C1518 1.391 1_565 S
C1520 C1521 1.400 1_565 S
C1521 C1515 1.491 1_545 S
C1521 C1520 1.400 1_545 S
C1521 C1522 1.398 . S
C1522 H1510 0.950 . S
C1522 C1521 1.398 . S
C1522 C1523 1.391 . S
C1523 H1511 0.950 . S
C1523 C1519 1.393 . S
C1523 C1522 1.391 . S
H1524 C1532 0.950 . S
H1525 C1537 0.950 . S
H1526 C1534 0.950 . S
H1527 C1536 0.950 1_565 S
H1528 C1538 0.950 . S
H1529 C1540 0.950 . S
H1530 C1542 0.950 1_545 S
H1531 C1543 0.950 . S
C1532 H1524 0.950 . S
C1532 C1533 1.386 . S
C1532 C1534 1.391 . S
C1533 C1532 1.386 . S
C1533 C1537 1.393 . S
C1534 H1526 0.950 . S
C1534 C1532 1.391 . S
C1534 C1535 1.400 . S
C1535 C1534 1.400 . S
C1535 C1536 1.398 . S
C1535 C1541 1.491 1_545 S
C1536 H1527 0.950 1_545 S
C1536 C1535 1.398 . S
C1536 C1537 1.391 . S
C1537 H1525 0.950 . S
C1537 C1533 1.393 . S
C1537 C1536 1.391 . S
C1538 H1528 0.950 . S
C1538 C1539 1.386 . S
C1538 C1540 1.391 . S
C1539 C1538 1.386 . S
C1539 C1543 1.393 . S
C1540 H1529 0.950 . S
C1540 C1538 1.391 . S
C1540 C1541 1.400 . S
C1541 C1535 1.491 1_565 S
C1541 C1540 1.400 . S
C1541 C1542 1.398 . S
C1542 H1530 0.950 1_565 S
C1542 C1541 1.398 . S
C1542 C1543 1.391 . S
C1543 H1531 0.950 . S
C1543 C1539 1.393 . S
C1543 C1542 1.391 . S
H1544 C1552 0.956 . S
H1545 C1557 0.950 . S
H1546 C1554 0.950 . S
H1547 C1556 0.950 . S
H1548 C1558 0.956 . S
H1549 C1560 0.950 . S
H1550 C1562 0.950 . S
H1551 C1563 0.950 . S
C1552 H1544 0.956 . S
C1552 C1553 1.386 . S
C1552 C1554 1.391 1_545 S
C1553 C1552 1.386 . S
C1553 C1557 1.393 . S
C1554 H1546 0.950 . S
C1554 C1552 1.391 1_565 S
C1554 C1555 1.400 1_565 S
C1555 C1554 1.400 1_545 S
C1555 C1556 1.398 . S
C1555 C1561 1.491 1_545 S
C1556 H1547 0.950 . S
C1556 C1555 1.398 . S
C1556 C1557 1.391 . S
C1557 H1545 0.950 . S
C1557 C1553 1.393 . S
C1557 C1556 1.391 . S
C1558 H1548 0.956 . S
C1558 C1559 1.386 . S
C1558 C1560 1.391 1_565 S
C1559 C1558 1.386 . S
C1559 C1563 1.393 . S
C1560 H1549 0.950 . S
C1560 C1558 1.391 1_545 S
C1560 C1561 1.400 1_545 S
C1561 C1555 1.491 1_565 S
C1561 C1560 1.400 1_565 S
C1561 C1562 1.398 . S
C1562 H1550 0.950 . S
C1562 C1561 1.398 . S
C1562 C1563 1.391 . S
C1563 H1551 0.950 . S
C1563 C1559 1.393 . S
C1563 C1562 1.391 . S
H1564 C1572 0.950 . S
H1565 C1577 0.950 . S
H1566 C1574 0.950 . S
H1567 C1576 0.950 . S
H1568 C1578 0.950 . S
H1569 C1580 0.950 . S
H1570 C1582 0.950 . S
H1571 C1583 0.950 . S
C1572 H1564 0.950 . S
C1572 C1573 1.386 . S
C1572 C1574 1.391 . S
C1573 C1572 1.386 . S
C1573 C1577 1.393 . S
C1574 H1566 0.950 . S
C1574 C1572 1.391 . S
C1574 C1575 1.400 . S
C1575 C1574 1.400 . S
C1575 C1576 1.398 . S
C1575 C1581 1.491 1_545 S
C1576 H1567 0.950 . S
C1576 C1575 1.398 . S
C1576 C1577 1.391 . S
C1577 H1565 0.950 . S
C1577 C1573 1.393 . S
C1577 C1576 1.391 . S
C1578 H1568 0.950 . S
C1578 C1579 1.386 . S
C1578 C1580 1.391 . S
C1579 C1578 1.386 . S
C1579 C1583 1.393 . S
C1580 H1569 0.950 . S
C1580 C1578 1.391 . S
C1580 C1581 1.400 . S
C1581 C1575 1.491 1_565 S
C1581 C1580 1.400 . S
C1581 C1582 1.398 . S
C1582 H1570 0.950 . S
C1582 C1581 1.398 . S
C1582 C1583 1.391 . S
C1583 H1571 0.950 . S
C1583 C1579 1.393 . S
C1583 C1582 1.391 . S
H1584 C1592 0.950 . S
H1585 C1597 0.950 . S
H1586 C1594 0.950 . S
H1587 C1596 0.950 . S
H1588 C1598 0.950 . S
H1589 C1600 0.950 . S
H1590 C1602 0.950 . S
H1591 C1603 0.950 . S
C1592 H1584 0.950 . S
C1592 C1593 1.386 . S
C1592 C1594 1.391 . S
C1593 C1592 1.386 . S
C1593 C1597 1.393 . S
C1594 H1586 0.950 . S
C1594 C1592 1.391 . S
C1594 C1595 1.400 . S
C1595 C1594 1.400 . S
C1595 C1596 1.398 . S
C1595 C1601 1.491 . S
C1596 H1587 0.950 . S
C1596 C1595 1.398 . S
C1596 C1597 1.391 . S
C1597 H1585 0.950 . S
C1597 C1593 1.393 . S
C1597 C1596 1.391 . S
C1598 H1588 0.950 . S
C1598 C1599 1.386 . S
C1598 C1600 1.391 . S
C1599 C1598 1.386 . S
C1599 C1603 1.393 . S
C1600 H1589 0.950 . S
C1600 C1598 1.391 . S
C1600 C1601 1.400 . S
C1601 C1595 1.491 . S
C1601 C1600 1.400 . S
C1601 C1602 1.398 . S
C1602 H1590 0.950 . S
C1602 C1601 1.398 . S
C1602 C1603 1.391 . S
C1603 H1591 0.950 . S
C1603 C1599 1.393 . S
C1603 C1602 1.391 . S
H1604 C1612 0.950 . S
H1605 C1617 0.950 . S
H1606 C1614 0.950 . S
H1607 C1616 0.950 . S
H1608 C1618 0.950 . S
H1609 C1620 0.950 . S
H1610 C1622 0.950 . S
H1611 C1623 0.950 . S
C1612 H1604 0.950 . S
C1612 C1613 1.386 . S
C1612 C1614 1.391 . S
C1613 C1612 1.386 . S
C1613 C1617 1.393 . S
C1614 H1606 0.950 . S
C1614 C1612 1.391 . S
C1614 C1615 1.400 . S
C1615 C1614 1.400 . S
C1615 C1616 1.398 . S
C1615 C1621 1.491 . S
C1616 H1607 0.950 . S
C1616 C1615 1.398 . S
C1616 C1617 1.391 . S
C1617 H1605 0.950 . S
C1617 C1613 1.393 . S
C1617 C1616 1.391 . S
C1618 H1608 0.950 . S
C1618 C1619 1.386 . S
C1618 C1620 1.391 . S
C1619 C1618 1.386 . S
C1619 C1623 1.393 . S
C1620 H1609 0.950 . S
C1620 C1618 1.391 . S
C1620 C1621 1.400 . S
C1621 C1615 1.491 . S
C1621 C1620 1.400 . S
C1621 C1622 1.398 . S
C1622 H1610 0.950 . S
C1622 C1621 1.398 . S
C1622 C1623 1.391 . S
C1623 H1611 0.950 . S
C1623 C1619 1.393 . S
C1623 C1622 1.391 . S
H1624 C1632 0.950 . S
H1625 C1637 0.950 . S
H1626 C1634 0.950 . S
H1627 C1636 0.950 . S
H1628 C1638 0.950 . S
H1629 C1640 0.950 . S
H1630 C1642 0.950 . S
H1631 C1643 0.950 . S
C1632 H1624 0.950 . S
C1632 C1633 1.386 . S
C1632 C1634 1.391 . S
C1633 C1632 1.386 . S
C1633 C1637 1.393 . S
C1634 H1626 0.950 . S
C1634 C1632 1.391 . S
C1634 C1635 1.400 . S
C1635 C1634 1.400 . S
C1635 C1636 1.398 . S
C1635 C1641 1.491 . S
C1636 H1627 0.950 . S
C1636 C1635 1.398 . S
C1636 C1637 1.391 . S
C1637 H1625 0.950 . S
C1637 C1633 1.393 . S
C1637 C1636 1.391 . S
C1638 H1628 0.950 . S
C1638 C1639 1.386 . S
C1638 C1640 1.391 . S
C1639 C1638 1.386 . S
C1639 C1643 1.393 . S
C1640 H1629 0.950 . S
C1640 C1638 1.391 . S
C1640 C1641 1.400 . S
C1641 C1635 1.491 . S
C1641 C1640 1.400 . S
C1641 C1642 1.398 . S
C1642 H1630 0.950 . S
C1642 C1641 1.398 . S
C1642 C1643 1.391 . S
C1643 H1631 0.950 . S
C1643 C1639 1.393 . S
C1643 C1642 1.391 . S
H1644 C1652 0.950 . S
H1645 C1657 0.950 . S
H1646 C1654 0.950 . S
H1647 C1656 0.950 . S
H1648 C1658 0.950 . S
H1649 C1660 0.950 . S
H1650 C1662 0.950 . S
H1651 C1663 0.950 . S
C1652 H1644 0.950 . S
C1652 C1653 1.386 . S
C1652 C1654 1.391 . S
C1653 C1652 1.386 . S
C1653 C1657 1.393 . S
C1654 H1646 0.950 . S
C1654 C1652 1.391 . S
C1654 C1655 1.400 . S
C1655 C1654 1.400 . S
C1655 C1656 1.398 . S
C1655 C1661 1.491 . S
C1656 H1647 0.950 . S
C1656 C1655 1.398 . S
C1656 C1657 1.391 . S
C1657 H1645 0.950 . S
C1657 C1653 1.393 . S
C1657 C1656 1.391 . S
C1658 H1648 0.950 . S
C1658 C1659 1.386 . S
C1658 C1660 1.391 . S
C1659 C1658 1.386 . S
C1659 C1663 1.393 . S
C1660 H1649 0.950 . S
C1660 C1658 1.391 . S
C1660 C1661 1.400 . S
C1661 C1655 1.491 . S
C1661 C1660 1.400 . S
C1661 C1662 1.398 . S
C1662 H1650 0.950 . S
C1662 C1661 1.398 . S
C1662 C1663 1.391 . S
C1663 H1651 0.950 . S
C1663 C1659 1.393 . S
C1663 C1662 1.391 . S
H1664 C1672 0.950 . S
H1665 C1677 0.950 . S
H1666 C1674 0.950 . S
H1667 C1676 0.950 . S
H1668 C1678 0.950 . S
H1669 C1680 0.950 . S
H1670 C1682 0.950 . S
H1671 C1683 0.950 . S
C1672 H1664 0.950 . S
C1672 C1673 1.386 . S
C1672 C1674 1.391 . S
C1673 C1672 1.386 . S
C1673 C1677 1.393 . S
C1674 H1666 0.950 . S
C1674 C1672 1.391 . S
C1674 C1675 1.400 . S
C1675 C1674 1.400 . S
C1675 C1676 1.398 . S
C1675 C1681 1.491 1_556 S
C1676 H1667 0.950 . S
C1676 C1675 1.398 . S
C1676 C1677 1.391 . S
C1677 H1665 0.950 . S
C1677 C1673 1.393 . S
C1677 C1676 1.391 . S
C1678 H1668 0.950 . S
C1678 C1679 1.386 . S
C1678 C1680 1.391 . S
C1679 C1678 1.386 . S
C1679 C1683 1.393 . S
C1680 H1669 0.950 . S
C1680 C1678 1.391 . S
C1680 C1681 1.400 . S
C1681 C1675 1.491 1_554 S
C1681 C1680 1.400 . S
C1681 C1682 1.398 . S
C1682 H1670 0.950 . S
C1682 C1681 1.398 . S
C1682 C1683 1.391 . S
C1683 H1671 0.950 . S
C1683 C1679 1.393 . S
C1683 C1682 1.391 . S
H1684 C1692 0.950 . S
H1685 C1697 0.950 . S
H1686 C1694 0.950 . S
H1687 C1696 0.950 . S
H1688 C1698 0.950 . S
H1689 C1700 0.950 . S
H1690 C1702 0.950 . S
H1691 C1703 0.950 . S
C1692 H1684 0.950 . S
C1692 C1693 1.386 . S
C1692 C1694 1.391 . S
C1693 C1692 1.386 . S
C1693 C1697 1.393 . S
C1694 H1686 0.950 . S
C1694 C1692 1.391 . S
C1694 C1695 1.400 . S
C1695 C1694 1.400 . S
C1695 C1696 1.398 . S
C1695 C1701 1.491 1_556 S
C1696 H1687 0.950 . S
C1696 C1695 1.398 . S
C1696 C1697 1.391 . S
C1697 H1685 0.950 . S
C1697 C1693 1.393 . S
C1697 C1696 1.391 . S
C1698 H1688 0.950 . S
C1698 C1699 1.386 . S
C1698 C1700 1.391 . S
C1699 C1698 1.386 . S
C1699 C1703 1.393 . S
C1700 H1689 0.950 . S
C1700 C1698 1.391 . S
C1700 C1701 1.400 . S
C1701 C1695 1.491 1_554 S
C1701 C1700 1.400 . S
C1701 C1702 1.398 . S
C1702 H1690 0.950 . S
C1702 C1701 1.398 . S
C1702 C1703 1.391 . S
C1703 H1691 0.950 . S
C1703 C1699 1.393 . S
C1703 C1702 1.391 . S
H1704 C1712 0.950 . S
H1705 C1717 0.950 . S
H1706 C1714 0.950 . S
H1707 C1716 0.950 . S
H1708 C1718 0.950 . S
H1709 C1720 0.950 . S
H1710 C1722 0.950 . S
H1711 C1723 0.950 . S
C1712 H1704 0.950 . S
C1712 C1713 1.386 . S
C1712 C1714 1.391 . S
C1713 C1712 1.386 . S
C1713 C1717 1.393 . S
C1714 H1706 0.950 . S
C1714 C1712 1.391 . S
C1714 C1715 1.400 . S
C1715 C1714 1.400 . S
C1715 C1716 1.398 . S
C1715 C1721 1.491 . S
C1716 H1707 0.950 . S
C1716 C1715 1.398 . S
C1716 C1717 1.391 . S
C1717 H1705 0.950 . S
C1717 C1713 1.393 . S
C1717 C1716 1.391 . S
C1718 H1708 0.950 . S
C1718 C1719 1.386 . S
C1718 C1720 1.391 . S
C1719 C1718 1.386 . S
C1719 C1723 1.393 . S
C1720 H1709 0.950 . S
C1720 C1718 1.391 . S
C1720 C1721 1.400 . S
C1721 C1715 1.491 . S
C1721 C1720 1.400 . S
C1721 C1722 1.398 . S
C1722 H1710 0.950 . S
C1722 C1721 1.398 . S
C1722 C1723 1.391 . S
C1723 H1711 0.950 . S
C1723 C1719 1.393 . S
C1723 C1722 1.391 . S
H1724 C1732 0.950 . S
H1725 C1737 0.950 . S
H1726 C1734 0.950 . S
H1727 C1736 0.950 . S
H1728 C1738 0.950 . S
H1729 C1740 0.950 . S
H1730 C1742 0.950 . S
H1731 C1743 0.950 . S
C1732 H1724 0.950 . S
C1732 C1733 1.386 . S
C1732 C1734 1.391 . S
C1733 C1732 1.386 . S
C1733 C1737 1.393 . S
C1734 H1726 0.950 . S
C1734 C1732 1.391 . S
C1734 C1735 1.400 . S
C1735 C1734 1.400 . S
C1735 C1736 1.398 . S
C1735 C1741 1.491 . S
C1736 H1727 0.950 . S
C1736 C1735 1.398 . S
C1736 C1737 1.391 . S
C1737 H1725 0.950 . S
C1737 C1733 1.393 . S
C1737 C1736 1.391 . S
C1738 H1728 0.950 . S
C1738 C1739 1.386 . S
C1738 C1740 1.391 . S
C1739 C1738 1.386 . S
C1739 C1743 1.393 . S
C1740 H1729 0.950 . S
C1740 C1738 1.391 . S
C1740 C1741 1.400 . S
C1741 C1735 1.491 . S
C1741 C1740 1.400 . S
C1741 C1742 1.398 . S
C1742 H1730 0.950 . S
C1742 C1741 1.398 . S
C1742 C1743 1.391 . S
C1743 H1731 0.950 . S
C1743 C1739 1.393 . S
C1743 C1742 1.391 . S
H1744 C1752 0.950 . S
H1745 C1757 0.950 . S
H1746 C1754 0.950 . S
H1747 C1756 0.950 . S
H1748 C1758 0.950 . S
H1749 C1760 0.950 . S
H1750 C1762 0.950 . S
H1751 C1763 0.950 . S
C1752 H1744 0.950 . S
C1752 C1753 1.386 . S
C1752 C1754 1.391 . S
C1753 C1752 1.386 . S
C1753 C1757 1.393 . S
C1754 H1746 0.950 . S
C1754 C1752 1.391 . S
C1754 C1755 1.400 . S
C1755 C1754 1.400 . S
C1755 C1756 1.398 . S
C1755 C1761 1.491 1_554 S
C1756 H1747 0.950 . S
C1756 C1755 1.398 . S
C1756 C1757 1.391 . S
C1757 H1745 0.950 . S
C1757 C1753 1.393 . S
C1757 C1756 1.391 . S
C1758 H1748 0.950 . S
C1758 C1759 1.386 . S
C1758 C1760 1.391 . S
C1759 C1758 1.386 . S
C1759 C1763 1.393 . S
C1760 H1749 0.950 . S
C1760 C1758 1.391 . S
C1760 C1761 1.400 . S
C1761 C1755 1.491 1_556 S
C1761 C1760 1.400 . S
C1761 C1762 1.398 . S
C1762 H1750 0.950 . S
C1762 C1761 1.398 . S
C1762 C1763 1.391 . S
C1763 H1751 0.950 . S
C1763 C1759 1.393 . S
C1763 C1762 1.391 . S
H1764 C1772 0.950 . S
H1765 C1777 0.950 . S
H1766 C1774 0.950 . S
H1767 C1776 0.950 . S
H1768 C1778 0.950 . S
H1769 C1780 0.950 . S
H1770 C1782 0.950 . S
H1771 C1783 0.950 . S
C1772 H1764 0.950 . S
C1772 C1773 1.386 . S
C1772 C1774 1.391 . S
C1773 C1772 1.386 . S
C1773 C1777 1.393 . S
C1774 H1766 0.950 . S
C1774 C1772 1.391 . S
C1774 C1775 1.400 . S
C1775 C1774 1.400 . S
C1775 C1776 1.398 . S
C1775 C1781 1.491 1_556 S
C1776 H1767 0.950 . S
C1776 C1775 1.398 . S
C1776 C1777 1.391 . S
C1777 H1765 0.950 . S
C1777 C1773 1.393 . S
C1777 C1776 1.391 . S
C1778 H1768 0.950 . S
C1778 C1779 1.386 . S
C1778 C1780 1.391 . S
C1779 C1778 1.386 . S
C1779 C1783 1.393 . S
C1780 H1769 0.950 . S
C1780 C1778 1.391 . S
C1780 C1781 1.400 . S
C1781 C1775 1.491 1_554 S
C1781 C1780 1.400 . S
C1781 C1782 1.398 . S
C1782 H1770 0.950 . S
C1782 C1781 1.398 . S
C1782 C1783 1.391 . S
C1783 H1771 0.950 . S
C1783 C1779 1.393 . S
C1783 C1782 1.391 . S
H1784 C1792 0.950 . S
H1785 C1797 0.950 . S
H1786 C1794 0.950 . S
H1787 C1796 0.950 . S
H1788 C1798 0.950 . S
H1789 C1800 0.950 . S
H1790 C1802 0.950 . S
H1791 C1803 0.950 . S
C1792 H1784 0.950 . S
C1792 C1793 1.386 . S
C1792 C1794 1.391 . S
C1793 C1792 1.386 . S
C1793 C1797 1.393 . S
C1794 H1786 0.950 . S
C1794 C1792 1.391 . S
C1794 C1795 1.400 . S
C1795 C1794 1.400 . S
C1795 C1796 1.398 . S
C1795 C1801 1.491 . S
C1796 H1787 0.950 . S
C1796 C1795 1.398 . S
C1796 C1797 1.391 . S
C1797 H1785 0.950 . S
C1797 C1793 1.393 . S
C1797 C1796 1.391 . S
C1798 H1788 0.950 . S
C1798 C1799 1.386 . S
C1798 C1800 1.391 . S
C1799 C1798 1.386 . S
C1799 C1803 1.393 . S
C1800 H1789 0.950 . S
C1800 C1798 1.391 . S
C1800 C1801 1.400 . S
C1801 C1795 1.491 . S
C1801 C1800 1.400 . S
C1801 C1802 1.398 . S
C1802 H1790 0.950 . S
C1802 C1801 1.398 . S
C1802 C1803 1.391 . S
C1803 H1791 0.950 . S
C1803 C1799 1.393 . S
C1803 C1802 1.391 . S
H1804 C1812 0.950 . S
H1805 C1817 0.950 . S
H1806 C1814 0.950 . S
H1807 C1816 0.950 . S
H1808 C1818 0.950 . S
H1809 C1820 0.950 . S
H1810 C1822 0.950 . S
H1811 C1823 0.950 . S
C1812 H1804 0.950 . S
C1812 C1813 1.386 . S
C1812 C1814 1.391 . S
C1813 C1812 1.386 . S
C1813 C1817 1.393 . S
C1814 H1806 0.950 . S
C1814 C1812 1.391 . S
C1814 C1815 1.400 . S
C1815 C1814 1.400 . S
C1815 C1816 1.398 . S
C1815 C1821 1.491 . S
C1816 H1807 0.950 . S
C1816 C1815 1.398 . S
C1816 C1817 1.391 . S
C1817 H1805 0.950 . S
C1817 C1813 1.393 . S
C1817 C1816 1.391 . S
C1818 H1808 0.950 . S
C1818 C1819 1.386 . S
C1818 C1820 1.391 . S
C1819 C1818 1.386 . S
C1819 C1823 1.393 . S
C1820 H1809 0.950 . S
C1820 C1818 1.391 . S
C1820 C1821 1.400 . S
C1821 C1815 1.491 . S
C1821 C1820 1.400 . S
C1821 C1822 1.398 . S
C1822 H1810 0.950 . S
C1822 C1821 1.398 . S
C1822 C1823 1.391 . S
C1823 H1811 0.950 . S
C1823 C1819 1.393 . S
C1823 C1822 1.391 . S
H1824 C1832 0.950 . S
H1825 C1837 0.950 . S
H1826 C1834 0.950 . S
H1827 C1836 0.950 . S
H1828 C1838 0.950 . S
H1829 C1840 0.950 . S
H1830 C1842 0.950 . S
H1831 C1843 0.950 . S
C1832 H1824 0.950 . S
C1832 C1833 1.386 . S
C1832 C1834 1.391 1_565 S
C1833 C1832 1.386 . S
C1833 C1837 1.393 . S
C1834 H1826 0.950 . S
C1834 C1832 1.391 1_545 S
C1834 C1835 1.400 1_545 S
C1835 C1834 1.400 1_565 S
C1835 C1836 1.398 . S
C1835 C1841 1.491 1_665 S
C1836 H1827 0.950 . S
C1836 C1835 1.398 . S
C1836 C1837 1.391 . S
C1837 H1825 0.950 . S
C1837 C1833 1.393 . S
C1837 C1836 1.391 . S
C1838 H1828 0.950 . S
C1838 C1839 1.386 . S
C1838 C1840 1.391 1_545 S
C1839 C1838 1.386 . S
C1839 C1843 1.393 . S
C1840 H1829 0.950 . S
C1840 C1838 1.391 1_565 S
C1840 C1841 1.400 1_565 S
C1841 C1835 1.491 1_445 S
C1841 C1840 1.400 1_545 S
C1841 C1842 1.398 . S
C1842 H1830 0.950 . S
C1842 C1841 1.398 . S
C1842 C1843 1.391 . S
C1843 H1831 0.950 . S
C1843 C1839 1.393 . S
C1843 C1842 1.391 . S
H1844 C1852 0.950 . S
H1845 C1857 0.950 . S
H1846 C1854 0.950 . S
H1847 C1856 0.950 . S
H1848 C1858 0.950 . S
H1849 C1860 0.950 . S
H1850 C1862 0.950 . S
H1851 C1863 0.950 . S
C1852 H1844 0.950 . S
C1852 C1853 1.386 . S
C1852 C1854 1.391 . S
C1853 C1852 1.386 . S
C1853 C1857 1.393 . S
C1854 H1846 0.950 . S
C1854 C1852 1.391 . S
C1854 C1855 1.400 . S
C1855 C1854 1.400 . S
C1855 C1856 1.398 . S
C1855 C1861 1.491 1_645 S
C1856 H1847 0.950 . S
C1856 C1855 1.398 . S
C1856 C1857 1.391 . S
C1857 H1845 0.950 . S
C1857 C1853 1.393 . S
C1857 C1856 1.391 . S
C1858 H1848 0.950 . S
C1858 C1859 1.386 . S
C1858 C1860 1.391 . S
C1859 C1858 1.386 . S
C1859 C1863 1.393 . S
C1860 H1849 0.950 . S
C1860 C1858 1.391 . S
C1860 C1861 1.400 . S
C1861 C1855 1.491 1_465 S
C1861 C1860 1.400 . S
C1861 C1862 1.398 . S
C1862 H1850 0.950 . S
C1862 C1861 1.398 . S
C1862 C1863 1.391 . S
C1863 H1851 0.950 . S
C1863 C1859 1.393 . S
C1863 C1862 1.391 . S
H1864 C1872 0.950 . S
H1865 C1877 0.950 1_565 S
H1866 C1874 0.950 . S
H1867 C1876 0.950 . S
H1868 C1878 0.950 . S
H1869 C1880 0.950 . S
H1870 C1882 0.950 . S
H1871 C1883 0.950 1_545 S
C1872 H1864 0.950 . S
C1872 C1873 1.386 . S
C1872 C1874 1.391 . S
C1873 C1872 1.386 . S
C1873 C1877 1.393 . S
C1874 H1866 0.950 . S
C1874 C1872 1.391 . S
C1874 C1875 1.400 . S
C1875 C1874 1.400 . S
C1875 C1876 1.398 1_545 S
C1875 C1881 1.491 1_445 S
C1876 H1867 0.950 . S
C1876 C1875 1.398 1_565 S
C1876 C1877 1.391 1_565 S
C1877 H1865 0.950 1_545 S
C1877 C1873 1.393 . S
C1877 C1876 1.391 1_545 S
C1878 H1868 0.950 . S
C1878 C1879 1.386 . S
C1878 C1880 1.391 . S
C1879 C1878 1.386 . S
C1879 C1883 1.393 . S
C1880 H1869 0.950 . S
C1880 C1878 1.391 . S
C1880 C1881 1.400 . S
C1881 C1875 1.491 1_665 S
C1881 C1880 1.400 . S
C1881 C1882 1.398 1_565 S
C1882 H1870 0.950 . S
C1882 C1881 1.398 1_545 S
C1882 C1883 1.391 1_545 S
C1883 H1871 0.950 1_565 S
C1883 C1879 1.393 . S
C1883 C1882 1.391 1_565 S
H1884 C1892 0.950 1_565 S
H1885 C1897 0.950 . S
H1886 C1894 0.950 . S
H1887 C1896 0.950 . S
H1888 C1898 0.950 1_545 S
H1889 C1900 0.950 . S
H1890 C1902 0.950 . S
H1891 C1903 0.950 . S
C1892 H1884 0.950 1_545 S
C1892 C1893 1.386 . S
C1892 C1894 1.391 1_545 S
C1893 C1892 1.386 . S
C1893 C1897 1.393 . S
C1894 H1886 0.950 . S
C1894 C1892 1.391 1_565 S
C1894 C1895 1.400 1_565 S
C1895 C1894 1.400 1_545 S
C1895 C1896 1.398 . S
C1895 C1901 1.491 1_645 S
C1896 H1887 0.950 . S
C1896 C1895 1.398 . S
C1896 C1897 1.391 . S
C1897 H1885 0.950 . S
C1897 C1893 1.393 . S
C1897 C1896 1.391 . S
C1898 H1888 0.950 1_565 S
C1898 C1899 1.386 . S
C1898 C1900 1.391 1_565 S
C1899 C1898 1.386 . S
C1899 C1903 1.393 . S
C1900 H1889 0.950 . S
C1900 C1898 1.391 1_545 S
C1900 C1901 1.400 1_545 S
C1901 C1895 1.491 1_465 S
C1901 C1900 1.400 1_565 S
C1901 C1902 1.398 . S
C1902 H1890 0.950 . S
C1902 C1901 1.398 . S
C1902 C1903 1.391 . S
C1903 H1891 0.950 . S
C1903 C1899 1.393 . S
C1903 C1902 1.391 . S
H1904 C1912 0.950 . S
H1905 C1917 0.950 . S
H1906 C1914 0.950 . S
H1907 C1916 0.950 . S
H1908 C1918 0.950 . S
H1909 C1920 0.950 . S
H1910 C1922 0.950 . S
H1911 C1923 0.950 . S
C1912 H1904 0.950 . S
C1912 C1913 1.386 . S
C1912 C1914 1.391 . S
C1913 C1912 1.386 . S
C1913 C1917 1.393 . S
C1914 H1906 0.950 . S
C1914 C1912 1.391 . S
C1914 C1915 1.400 . S
C1915 C1914 1.400 . S
C1915 C1916 1.398 . S
C1915 C1921 1.491 . S
C1916 H1907 0.950 . S
C1916 C1915 1.398 . S
C1916 C1917 1.391 . S
C1917 H1905 0.950 . S
C1917 C1913 1.393 . S
C1917 C1916 1.391 . S
C1918 H1908 0.950 . S
C1918 C1919 1.386 . S
C1918 C1920 1.391 . S
C1919 C1918 1.386 . S
C1919 C1923 1.393 . S
C1920 H1909 0.950 . S
C1920 C1918 1.391 . S
C1920 C1921 1.400 . S
C1921 C1915 1.491 . S
C1921 C1920 1.400 . S
C1921 C1922 1.398 . S
C1922 H1910 0.950 . S
C1922 C1921 1.398 . S
C1922 C1923 1.391 . S
C1923 H1911 0.950 . S
C1923 C1919 1.393 . S
C1923 C1922 1.391 . S
H1924 C1932 0.950 . S
H1925 C1937 0.950 . S
H1926 C1934 0.950 . S
H1927 C1936 0.950 . S
H1928 C1938 0.950 . S
H1929 C1940 0.950 . S
H1930 C1942 0.950 . S
H1931 C1943 0.950 . S
C1932 H1924 0.950 . S
C1932 C1933 1.386 . S
C1932 C1934 1.391 . S
C1933 C1932 1.386 . S
C1933 C1937 1.393 . S
C1934 H1926 0.950 . S
C1934 C1932 1.391 . S
C1934 C1935 1.400 . S
C1935 C1934 1.400 . S
C1935 C1936 1.398 . S
C1935 C1941 1.491 . S
C1936 H1927 0.950 . S
C1936 C1935 1.398 . S
C1936 C1937 1.391 . S
C1937 H1925 0.950 . S
C1937 C1933 1.393 . S
C1937 C1936 1.391 . S
C1938 H1928 0.950 . S
C1938 C1939 1.386 . S
C1938 C1940 1.391 . S
C1939 C1938 1.386 . S
C1939 C1943 1.393 . S
C1940 H1929 0.950 . S
C1940 C1938 1.391 . S
C1940 C1941 1.400 . S
C1941 C1935 1.491 . S
C1941 C1940 1.400 . S
C1941 C1942 1.398 . S
C1942 H1930 0.950 . S
C1942 C1941 1.398 . S
C1942 C1943 1.391 . S
C1943 H1931 0.950 . S
C1943 C1939 1.393 . S
C1943 C1942 1.391 . S
H1944 C1952 0.950 . S
H1945 C1957 0.950 . S
H1946 C1954 0.950 . S
H1947 C1956 0.950 . S
H1948 C1958 0.950 . S
H1949 C1960 0.950 . S
H1950 C1962 0.950 . S
H1951 C1963 0.950 . S
C1952 H1944 0.950 . S
C1952 C1953 1.386 . S
C1952 C1954 1.391 . S
C1953 C1952 1.386 . S
C1953 C1957 1.393 . S
C1954 H1946 0.950 . S
C1954 C1952 1.391 . S
C1954 C1955 1.400 . S
C1955 C1954 1.400 . S
C1955 C1956 1.398 . S
C1955 C1961 1.491 . S
C1956 H1947 0.950 . S
C1956 C1955 1.398 . S
C1956 C1957 1.391 . S
C1957 H1945 0.950 . S
C1957 C1953 1.393 . S
C1957 C1956 1.391 . S
C1958 H1948 0.950 . S
C1958 C1959 1.386 . S
C1958 C1960 1.391 . S
C1959 C1958 1.386 . S
C1959 C1963 1.393 . S
C1960 H1949 0.950 . S
C1960 C1958 1.391 . S
C1960 C1961 1.400 . S
C1961 C1955 1.491 . S
C1961 C1960 1.400 . S
C1961 C1962 1.398 . S
C1962 H1950 0.950 . S
C1962 C1961 1.398 . S
C1962 C1963 1.391 . S
C1963 H1951 0.950 . S
C1963 C1959 1.393 . S
C1963 C1962 1.391 . S
H1964 C1972 0.950 . S
H1965 C1977 0.950 . S
H1966 C1974 0.950 . S
H1967 C1976 0.950 . S
H1968 C1978 0.950 . S
H1969 C1980 0.950 . S
H1970 C1982 0.950 . S
H1971 C1983 0.950 . S
C1972 H1964 0.950 . S
C1972 C1973 1.386 . S
C1972 C1974 1.391 . S
C1973 C1972 1.386 . S
C1973 C1977 1.393 . S
C1974 H1966 0.950 . S
C1974 C1972 1.391 . S
C1974 C1975 1.400 . S
C1975 C1974 1.400 . S
C1975 C1976 1.398 . S
C1975 C1981 1.491 . S
C1976 H1967 0.950 . S
C1976 C1975 1.398 . S
C1976 C1977 1.391 . S
C1977 H1965 0.950 . S
C1977 C1973 1.393 . S
C1977 C1976 1.391 . S
C1978 H1968 0.950 . S
C1978 C1979 1.386 . S
C1978 C1980 1.391 . S
C1979 C1978 1.386 . S
C1979 C1983 1.393 . S
C1980 H1969 0.950 . S
C1980 C1978 1.391 . S
C1980 C1981 1.400 . S
C1981 C1975 1.491 . S
C1981 C1980 1.400 . S
C1981 C1982 1.398 . S
C1982 H1970 0.950 . S
C1982 C1981 1.398 . S
C1982 C1983 1.391 . S
C1983 H1971 0.950 . S
C1983 C1979 1.393 . S
C1983 C1982 1.391 . S
H1984 C1992 0.950 . S
H1985 C1997 0.950 . S
H1986 C1994 0.950 . S
H1987 C1996 0.950 . S
H1988 C1998 0.950 . S
H1989 C2000 0.950 . S
H1990 C2002 0.950 . S
H1991 C2003 0.950 . S
C1992 H1984 0.950 . S
C1992 C1993 1.386 . S
C1992 C1994 1.391 . S
C1993 C1992 1.386 . S
C1993 C1997 1.393 . S
C1994 H1986 0.950 . S
C1994 C1992 1.391 . S
C1994 C1995 1.400 . S
C1995 C1994 1.400 . S
C1995 C1996 1.398 . S
C1995 C2001 1.491 . S
C1996 H1987 0.950 . S
C1996 C1995 1.398 . S
C1996 C1997 1.391 . S
C1997 H1985 0.950 . S
C1997 C1993 1.393 . S
C1997 C1996 1.391 . S
C1998 H1988 0.950 . S
C1998 C1999 1.386 . S
C1998 C2000 1.391 . S
C1999 C1998 1.386 . S
C1999 C2003 1.393 . S
C2000 H1989 0.950 . S
C2000 C1998 1.391 . S
C2000 C2001 1.400 . S
C2001 C1995 1.491 . S
C2001 C2000 1.400 . S
C2001 C2002 1.398 . S
C2002 H1990 0.950 . S
C2002 C2001 1.398 . S
C2002 C2003 1.391 . S
C2003 H1991 0.950 . S
C2003 C1999 1.393 . S
C2003 C2002 1.391 . S
H2004 C2012 0.950 . S
H2005 C2017 0.950 . S
H2006 C2014 0.950 . S
H2007 C2016 0.950 . S
H2008 C2018 0.950 . S
H2009 C2020 0.950 . S
H2010 C2022 0.950 . S
H2011 C2023 0.950 . S
C2012 H2004 0.950 . S
C2012 C2013 1.386 . S
C2012 C2014 1.391 . S
C2013 C2012 1.386 . S
C2013 C2017 1.393 . S
C2014 H2006 0.950 . S
C2014 C2012 1.391 . S
C2014 C2015 1.400 . S
C2015 C2014 1.400 . S
C2015 C2016 1.398 . S
C2015 C2021 1.491 . S
C2016 H2007 0.950 . S
C2016 C2015 1.398 . S
C2016 C2017 1.391 . S
C2017 H2005 0.950 . S
C2017 C2013 1.393 . S
C2017 C2016 1.391 . S
C2018 H2008 0.950 . S
C2018 C2019 1.386 . S
C2018 C2020 1.391 . S
C2019 C2018 1.386 . S
C2019 C2023 1.393 . S
C2020 H2009 0.950 . S
C2020 C2018 1.391 . S
C2020 C2021 1.400 . S
C2021 C2015 1.491 . S
C2021 C2020 1.400 . S
C2021 C2022 1.398 . S
C2022 H2010 0.950 . S
C2022 C2021 1.398 . S
C2022 C2023 1.391 . S
C2023 H2011 0.950 . S
C2023 C2019 1.393 . S
C2023 C2022 1.391 . S
H2024 C2032 0.950 . S
H2025 C2037 0.950 . S
H2026 C2034 0.950 . S
H2027 C2036 0.950 . S
H2028 C2038 0.950 . S
H2029 C2040 0.950 . S
H2030 C2042 0.950 . S
H2031 C2043 0.950 . S
C2032 H2024 0.950 . S
C2032 C2033 1.386 . S
C2032 C2034 1.391 . S
C2033 C2032 1.386 . S
C2033 C2037 1.393 . S
C2034 H2026 0.950 . S
C2034 C2032 1.391 . S
C2034 C2035 1.400 . S
C2035 C2034 1.400 . S
C2035 C2036 1.398 . S
C2035 C2041 1.491 . S
C2036 H2027 0.950 . S
C2036 C2035 1.398 . S
C2036 C2037 1.391 . S
C2037 H2025 0.950 . S
C2037 C2033 1.393 . S
C2037 C2036 1.391 . S
C2038 H2028 0.950 . S
C2038 C2039 1.386 . S
C2038 C2040 1.391 . S
C2039 C2038 1.386 . S
C2039 C2043 1.393 . S
C2040 H2029 0.950 . S
C2040 C2038 1.391 . S
C2040 C2041 1.400 . S
C2041 C2035 1.491 . S
C2041 C2040 1.400 . S
C2041 C2042 1.398 . S
C2042 H2030 0.950 . S
C2042 C2041 1.398 . S
C2042 C2043 1.391 . S
C2043 H2031 0.950 . S
C2043 C2039 1.393 . S
C2043 C2042 1.391 . S
H2044 C2052 0.950 . S
H2045 C2057 0.950 . S
H2046 C2054 0.950 . S
H2047 C2056 0.950 . S
H2048 C2058 0.950 . S
H2049 C2060 0.950 . S
H2050 C2062 0.950 . S
H2051 C2063 0.950 . S
C2052 H2044 0.950 . S
C2052 C2053 1.386 . S
C2052 C2054 1.391 . S
C2053 C2052 1.386 . S
C2053 C2057 1.393 . S
C2054 H2046 0.950 . S
C2054 C2052 1.391 . S
C2054 C2055 1.400 . S
C2055 C2054 1.400 . S
C2055 C2056 1.398 . S
C2055 C2061 1.491 . S
C2056 H2047 0.950 . S
C2056 C2055 1.398 . S
C2056 C2057 1.391 . S
C2057 H2045 0.950 . S
C2057 C2053 1.393 . S
C2057 C2056 1.391 . S
C2058 H2048 0.950 . S
C2058 C2059 1.386 . S
C2058 C2060 1.391 . S
C2059 C2058 1.386 . S
C2059 C2063 1.393 . S
C2060 H2049 0.950 . S
C2060 C2058 1.391 . S
C2060 C2061 1.400 . S
C2061 C2055 1.491 . S
C2061 C2060 1.400 . S
C2061 C2062 1.398 . S
C2062 H2050 0.950 . S
C2062 C2061 1.398 . S
C2062 C2063 1.391 . S
C2063 H2051 0.950 . S
C2063 C2059 1.393 . S
C2063 C2062 1.391 . S
H2064 C2072 0.950 . S
H2065 C2077 0.950 . S
H2066 C2074 0.950 . S
H2067 C2076 0.950 . S
H2068 C2078 0.950 . S
H2069 C2080 0.950 . S
H2070 C2082 0.950 . S
H2071 C2083 0.950 . S
C2072 H2064 0.950 . S
C2072 C2073 1.386 . S
C2072 C2074 1.391 . S
C2073 C2072 1.386 . S
C2073 C2077 1.393 . S
C2074 H2066 0.950 . S
C2074 C2072 1.391 . S
C2074 C2075 1.400 . S
C2075 C2074 1.400 . S
C2075 C2076 1.398 . S
C2075 C2081 1.491 . S
C2076 H2067 0.950 . S
C2076 C2075 1.398 . S
C2076 C2077 1.391 . S
C2077 H2065 0.950 . S
C2077 C2073 1.393 . S
C2077 C2076 1.391 . S
C2078 H2068 0.950 . S
C2078 C2079 1.386 . S
C2078 C2080 1.391 . S
C2079 C2078 1.386 . S
C2079 C2083 1.393 . S
C2080 H2069 0.950 . S
C2080 C2078 1.391 . S
C2080 C2081 1.400 . S
C2081 C2075 1.491 . S
C2081 C2080 1.400 . S
C2081 C2082 1.398 . S
C2082 H2070 0.950 . S
C2082 C2081 1.398 . S
C2082 C2083 1.391 . S
C2083 H2071 0.950 . S
C2083 C2079 1.393 . S
C2083 C2082 1.391 . S
H2084 C2092 0.950 . S
H2085 C2097 0.950 . S
H2086 C2094 0.950 . S
H2087 C2096 0.950 . S
H2088 C2098 0.950 . S
H2089 C2100 0.950 . S
H2090 C2102 0.950 . S
H2091 C2103 0.950 . S
C2092 H2084 0.950 . S
C2092 C2093 1.386 . S
C2092 C2094 1.391 . S
C2093 C2092 1.386 . S
C2093 C2097 1.393 . S
C2094 H2086 0.950 . S
C2094 C2092 1.391 . S
C2094 C2095 1.400 . S
C2095 C2094 1.400 . S
C2095 C2096 1.398 . S
C2095 C2101 1.491 . S
C2096 H2087 0.950 . S
C2096 C2095 1.398 . S
C2096 C2097 1.391 . S
C2097 H2085 0.950 . S
C2097 C2093 1.393 . S
C2097 C2096 1.391 . S
C2098 H2088 0.950 . S
C2098 C2099 1.386 . S
C2098 C2100 1.391 . S
C2099 C2098 1.386 . S
C2099 C2103 1.393 . S
C2100 H2089 0.950 . S
C2100 C2098 1.391 . S
C2100 C2101 1.400 . S
C2101 C2095 1.491 . S
C2101 C2100 1.400 . S
C2101 C2102 1.398 . S
C2102 H2090 0.950 . S
C2102 C2101 1.398 . S
C2102 C2103 1.391 . S
C2103 H2091 0.950 . S
C2103 C2099 1.393 . S
C2103 C2102 1.391 . S
H2104 C2112 0.950 . S
H2105 C2117 0.950 . S
H2106 C2114 0.950 . S
H2107 C2116 0.950 . S
H2108 C2118 0.950 . S
H2109 C2120 0.950 . S
H2110 C2122 0.950 . S
H2111 C2123 0.950 . S
C2112 H2104 0.950 . S
C2112 C2113 1.386 . S
C2112 C2114 1.391 . S
C2113 C2112 1.386 . S
C2113 C2117 1.393 . S
C2114 H2106 0.950 . S
C2114 C2112 1.391 . S
C2114 C2115 1.400 . S
C2115 C2114 1.400 . S
C2115 C2116 1.398 . S
C2115 C2121 1.491 . S
C2116 H2107 0.950 . S
C2116 C2115 1.398 . S
C2116 C2117 1.391 . S
C2117 H2105 0.950 . S
C2117 C2113 1.393 . S
C2117 C2116 1.391 . S
C2118 H2108 0.950 . S
C2118 C2119 1.386 . S
C2118 C2120 1.391 . S
C2119 C2118 1.386 . S
C2119 C2123 1.393 . S
C2120 H2109 0.950 . S
C2120 C2118 1.391 . S
C2120 C2121 1.400 . S
C2121 C2115 1.491 . S
C2121 C2120 1.400 . S
C2121 C2122 1.398 . S
C2122 H2110 0.950 . S
C2122 C2121 1.398 . S
C2122 C2123 1.391 . S
C2123 H2111 0.950 . S
C2123 C2119 1.393 . S
C2123 C2122 1.391 . S
H2124 C2132 0.950 . S
H2125 C2137 0.950 . S
H2126 C2134 0.950 . S
H2127 C2136 0.950 . S
H2128 C2138 0.950 . S
H2129 C2140 0.950 . S
H2130 C2142 0.950 . S
H2131 C2143 0.950 . S
C2132 H2124 0.950 . S
C2132 C2133 1.386 . S
C2132 C2134 1.391 . S
C2133 C2132 1.386 . S
C2133 C2137 1.393 . S
C2134 H2126 0.950 . S
C2134 C2132 1.391 . S
C2134 C2135 1.400 . S
C2135 C2134 1.400 . S
C2135 C2136 1.398 . S
C2135 C2141 1.491 . S
C2136 H2127 0.950 . S
C2136 C2135 1.398 . S
C2136 C2137 1.391 . S
C2137 H2125 0.950 . S
C2137 C2133 1.393 . S
C2137 C2136 1.391 . S
C2138 H2128 0.950 . S
C2138 C2139 1.386 . S
C2138 C2140 1.391 . S
C2139 C2138 1.386 . S
C2139 C2143 1.393 . S
C2140 H2129 0.950 . S
C2140 C2138 1.391 . S
C2140 C2141 1.400 . S
C2141 C2135 1.491 . S
C2141 C2140 1.400 . S
C2141 C2142 1.398 . S
C2142 H2130 0.950 . S
C2142 C2141 1.398 . S
C2142 C2143 1.391 . S
C2143 H2131 0.950 . S
C2143 C2139 1.393 . S
C2143 C2142 1.391 . S
H2144 C2152 0.950 1_565 S
H2145 C2157 0.950 . S
H2146 C2154 0.950 . S
H2147 C2156 0.950 . S
H2148 C2158 0.950 . S
H2149 C2160 0.950 . S
H2150 C2162 0.950 . S
H2151 C2163 0.950 . S
C2152 H2144 0.950 1_545 S
C2152 C2153 1.386 1_545 S
C2152 C2154 1.391 . S
C2153 C2152 1.386 1_565 S
C2153 C2157 1.393 1_565 S
C2154 H2146 0.950 . S
C2154 C2152 1.391 . S
C2154 C2155 1.400 . S
C2155 C2154 1.400 . S
C2155 C2156 1.398 . S
C2155 C2161 1.491 . S
C2156 H2147 0.950 . S
C2156 C2155 1.398 . S
C2156 C2157 1.391 . S
C2157 H2145 0.950 . S
C2157 C2153 1.393 1_545 S
C2157 C2156 1.391 . S
C2158 H2148 0.950 . S
C2158 C2159 1.386 . S
C2158 C2160 1.391 . S
C2159 C2158 1.386 . S
C2159 C2163 1.393 . S
C2160 H2149 0.950 . S
C2160 C2158 1.391 . S
C2160 C2161 1.400 . S
C2161 C2155 1.491 . S
C2161 C2160 1.400 . S
C2161 C2162 1.398 . S
C2162 H2150 0.950 . S
C2162 C2161 1.398 . S
C2162 C2163 1.391 . S
C2163 H2151 0.950 . S
C2163 C2159 1.393 . S
C2163 C2162 1.391 . S
H2164 C2172 0.950 . S
H2165 C2177 0.950 . S
H2166 C2174 0.950 . S
H2167 C2176 0.950 . S
H2168 C2178 0.950 1_545 S
H2169 C2180 0.950 . S
H2170 C2182 0.950 . S
H2171 C2183 0.950 . S
C2172 H2164 0.950 . S
C2172 C2173 1.386 . S
C2172 C2174 1.391 . S
C2173 C2172 1.386 . S
C2173 C2177 1.393 . S
C2174 H2166 0.950 . S
C2174 C2172 1.391 . S
C2174 C2175 1.400 . S
C2175 C2174 1.400 . S
C2175 C2176 1.398 . S
C2175 C2181 1.491 . S
C2176 H2167 0.950 . S
C2176 C2175 1.398 . S
C2176 C2177 1.391 . S
C2177 H2165 0.950 . S
C2177 C2173 1.393 . S
C2177 C2176 1.391 . S
C2178 H2168 0.950 1_565 S
C2178 C2179 1.386 1_565 S
C2178 C2180 1.391 . S
C2179 C2178 1.386 1_545 S
C2179 C2183 1.393 1_545 S
C2180 H2169 0.950 . S
C2180 C2178 1.391 . S
C2180 C2181 1.400 . S
C2181 C2175 1.491 . S
C2181 C2180 1.400 . S
C2181 C2182 1.398 . S
C2182 H2170 0.950 . S
C2182 C2181 1.398 . S
C2182 C2183 1.391 . S
C2183 H2171 0.950 . S
C2183 C2179 1.393 1_565 S
C2183 C2182 1.391 . S
H2184 C2192 0.950 . S
H2185 C2197 0.950 1_545 S
H2186 C2194 0.950 . S
H2187 C2196 0.950 . S
H2188 C2198 0.950 . S
H2189 C2200 0.950 . S
H2190 C2202 0.950 . S
H2191 C2203 0.950 . S
C2192 H2184 0.950 . S
C2192 C2193 1.386 1_565 S
C2192 C2194 1.391 . S
C2193 C2192 1.386 1_545 S
C2193 C2197 1.393 1_545 S
C2194 H2186 0.950 . S
C2194 C2192 1.391 . S
C2194 C2195 1.400 . S
C2195 C2194 1.400 . S
C2195 C2196 1.398 . S
C2195 C2201 1.491 . S
C2196 H2187 0.950 . S
C2196 C2195 1.398 . S
C2196 C2197 1.391 . S
C2197 H2185 0.950 1_565 S
C2197 C2193 1.393 1_565 S
C2197 C2196 1.391 . S
C2198 H2188 0.950 . S
C2198 C2199 1.386 . S
C2198 C2200 1.391 . S
C2199 C2198 1.386 . S
C2199 C2203 1.393 . S
C2200 H2189 0.950 . S
C2200 C2198 1.391 . S
C2200 C2201 1.400 . S
C2201 C2195 1.491 . S
C2201 C2200 1.400 . S
C2201 C2202 1.398 . S
C2202 H2190 0.950 . S
C2202 C2201 1.398 . S
C2202 C2203 1.391 . S
C2203 H2191 0.950 . S
C2203 C2199 1.393 . S
C2203 C2202 1.391 . S
H2204 C2212 0.950 . S
H2205 C2217 0.950 1_565 S
H2206 C2214 0.950 . S
H2207 C2216 0.950 . S
H2208 C2218 0.950 . S
H2209 C2220 0.950 . S
H2210 C2222 0.950 . S
H2211 C2223 0.950 . S
C2212 H2204 0.950 . S
C2212 C2213 1.386 1_545 S
C2212 C2214 1.391 . S
C2213 C2212 1.386 1_565 S
C2213 C2217 1.393 1_565 S
C2214 H2206 0.950 . S
C2214 C2212 1.391 . S
C2214 C2215 1.400 . S
C2215 C2214 1.400 . S
C2215 C2216 1.398 . S
C2215 C2221 1.491 . S
C2216 H2207 0.950 . S
C2216 C2215 1.398 . S
C2216 C2217 1.391 . S
C2217 H2205 0.950 1_545 S
C2217 C2213 1.393 1_545 S
C2217 C2216 1.391 . S
C2218 H2208 0.950 . S
C2218 C2219 1.386 . S
C2218 C2220 1.391 . S
C2219 C2218 1.386 . S
C2219 C2223 1.393 . S
C2220 H2209 0.950 . S
C2220 C2218 1.391 . S
C2220 C2221 1.400 . S
C2221 C2215 1.491 . S
C2221 C2220 1.400 . S
C2221 C2222 1.398 . S
C2222 H2210 0.950 . S
C2222 C2221 1.398 . S
C2222 C2223 1.391 . S
C2223 H2211 0.950 . S
C2223 C2219 1.393 . S
C2223 C2222 1.391 . S
H2224 C2232 0.950 . S
H2225 C2237 0.950 . S
H2226 C2234 0.950 . S
H2227 C2236 0.950 . S
H2228 C2238 0.950 1_545 S
H2229 C2240 0.950 . S
H2230 C2242 0.950 . S
H2231 C2243 0.950 . S
C2232 H2224 0.950 . S
C2232 C2233 1.386 . S
C2232 C2234 1.391 . S
C2233 C2232 1.386 . S
C2233 C2237 1.393 . S
C2234 H2226 0.950 . S
C2234 C2232 1.391 . S
C2234 C2235 1.400 . S
C2235 C2234 1.400 . S
C2235 C2236 1.398 . S
C2235 C2241 1.491 . S
C2236 H2227 0.950 . S
C2236 C2235 1.398 . S
C2236 C2237 1.391 . S
C2237 H2225 0.950 . S
C2237 C2233 1.393 . S
C2237 C2236 1.391 . S
C2238 H2228 0.950 1_565 S
C2238 C2239 1.386 1_565 S
C2238 C2240 1.391 . S
C2239 C2238 1.386 1_545 S
C2239 C2243 1.393 1_545 S
C2240 H2229 0.950 . S
C2240 C2238 1.391 . S
C2240 C2241 1.400 . S
C2241 C2235 1.491 . S
C2241 C2240 1.400 . S
C2241 C2242 1.398 . S
C2242 H2230 0.950 . S
C2242 C2241 1.398 . S
C2242 C2243 1.391 . S
C2243 H2231 0.950 . S
C2243 C2239 1.393 1_565 S
C2243 C2242 1.391 . S
H2244 C2252 0.950 . S
H2245 C2257 0.950 . S
H2246 C2254 0.950 . S
H2247 C2256 0.950 . S
H2248 C2258 0.950 . S
H2249 C2260 0.950 . S
H2250 C2262 0.950 . S
H2251 C2263 0.950 1_565 S
C2252 H2244 0.950 . S
C2252 C2253 1.386 . S
C2252 C2254 1.391 . S
C2253 C2252 1.386 . S
C2253 C2257 1.393 . S
C2254 H2246 0.950 . S
C2254 C2252 1.391 . S
C2254 C2255 1.400 . S
C2255 C2254 1.400 . S
C2255 C2256 1.398 . S
C2255 C2261 1.491 . S
C2256 H2247 0.950 . S
C2256 C2255 1.398 . S
C2256 C2257 1.391 . S
C2257 H2245 0.950 . S
C2257 C2253 1.393 . S
C2257 C2256 1.391 . S
C2258 H2248 0.950 . S
C2258 C2259 1.386 1_545 S
C2258 C2260 1.391 . S
C2259 C2258 1.386 1_565 S
C2259 C2263 1.393 1_565 S
C2260 H2249 0.950 . S
C2260 C2258 1.391 . S
C2260 C2261 1.400 . S
C2261 C2255 1.491 . S
C2261 C2260 1.400 . S
C2261 C2262 1.398 . S
C2262 H2250 0.950 . S
C2262 C2261 1.398 . S
C2262 C2263 1.391 . S
C2263 H2251 0.950 1_545 S
C2263 C2259 1.393 1_545 S
C2263 C2262 1.391 . S
H2264 C2272 0.950 . S
H2265 C2277 0.950 1_565 S
H2266 C2274 0.950 . S
H2267 C2276 0.950 . S
H2268 C2278 0.950 . S
H2269 C2280 0.950 . S
H2270 C2282 0.950 . S
H2271 C2283 0.950 . S
C2272 H2264 0.950 . S
C2272 C2273 1.386 1_545 S
C2272 C2274 1.391 . S
C2273 C2272 1.386 1_565 S
C2273 C2277 1.393 1_565 S
C2274 H2266 0.950 . S
C2274 C2272 1.391 . S
C2274 C2275 1.400 . S
C2275 C2274 1.400 . S
C2275 C2276 1.398 . S
C2275 C2281 1.491 . S
C2276 H2267 0.950 . S
C2276 C2275 1.398 . S
C2276 C2277 1.391 . S
C2277 H2265 0.950 1_545 S
C2277 C2273 1.393 1_545 S
C2277 C2276 1.391 . S
C2278 H2268 0.950 . S
C2278 C2279 1.386 . S
C2278 C2280 1.391 . S
C2279 C2278 1.386 . S
C2279 C2283 1.393 . S
C2280 H2269 0.950 . S
C2280 C2278 1.391 . S
C2280 C2281 1.400 . S
C2281 C2275 1.491 . S
C2281 C2280 1.400 . S
C2281 C2282 1.398 . S
C2282 H2270 0.950 . S
C2282 C2281 1.398 . S
C2282 C2283 1.391 . S
C2283 H2271 0.950 . S
C2283 C2279 1.393 . S
C2283 C2282 1.391 . S
H2284 C2292 0.950 . S
H2285 C2297 0.950 . S
H2286 C2294 0.950 . S
H2287 C2296 0.950 . S
H2288 C2298 0.950 1_545 S
H2289 C2300 0.950 . S
H2290 C2302 0.950 . S
H2291 C2303 0.950 . S
C2292 H2284 0.950 . S
C2292 C2293 1.386 . S
C2292 C2294 1.391 . S
C2293 C2292 1.386 . S
C2293 C2297 1.393 . S
C2294 H2286 0.950 . S
C2294 C2292 1.391 . S
C2294 C2295 1.400 . S
C2295 C2294 1.400 . S
C2295 C2296 1.398 . S
C2295 C2301 1.491 . S
C2296 H2287 0.950 . S
C2296 C2295 1.398 . S
C2296 C2297 1.391 . S
C2297 H2285 0.950 . S
C2297 C2293 1.393 . S
C2297 C2296 1.391 . S
C2298 H2288 0.950 1_565 S
C2298 C2299 1.386 1_565 S
C2298 C2300 1.391 . S
C2299 C2298 1.386 1_545 S
C2299 C2303 1.393 1_545 S
C2300 H2289 0.950 . S
C2300 C2298 1.391 . S
C2300 C2301 1.400 . S
C2301 C2295 1.491 . S
C2301 C2300 1.400 . S
C2301 C2302 1.398 . S
C2302 H2290 0.950 . S
C2302 C2301 1.398 . S
C2302 C2303 1.391 . S
C2303 H2291 0.950 . S
C2303 C2299 1.393 1_565 S
C2303 C2302 1.391 . S
C1353 C67 1.463 . S
C1359 C823 1.470 . S
C1373 C151 1.467 . S
C1379 C739 1.468 . S
C1393 C991 1.453 . S
C1399 C235 1.444 . S
C1413 C319 1.468 . S
C1419 C907 1.467 . S
C1433 C1148 1.462 . S
C1439 C392 1.470 . S
C1453 C1064 1.450 . S
C1459 C476 1.466 . S
C1473 C1316 1.464 . S
C1479 C560 1.448 . S
C1493 C644 1.455 . S
C1499 C1232 1.444 . S
C1513 C231 1.621 . S
C1519 C63 1.636 . S
C1533 C315 1.634 . S
C1539 C147 1.629 . S
C1553 C578 1.636 . S
C1559 C410 1.622 . S
C1573 C494 1.634 . S
C1579 C662 1.629 . S
C1593 C903 1.635 . S
C1599 C735 1.622 . S
C1613 C987 1.638 . S
C1619 C819 1.621 . S
C1633 C1082 1.622 . S
C1639 C1250 1.635 . S
C1653 C1166 1.638 . S
C1659 C1334 1.622 . S
C1673 C483 1.719 . S
C1679 C74 1.716 . S
C1693 C399 1.731 . S
C1699 C158 1.704 . S
C1713 C242 1.718 . S
C1719 C651 1.717 . S
C1733 C567 1.717 . S
C1739 C326 1.718 . S
C1753 C746 1.731 . S
C1759 C1155 1.704 . S
C1773 C1071 1.727 . S
C1779 C830 1.709 . S
C1793 C914 1.717 . S
C1799 C1323 1.719 . S
C1813 C1239 1.704 . S
C1819 C998 1.731 . S
C1833 C140 1.463 . S
C1839 C56 1.453 . S
C1853 C308 1.459 . S
C1859 C224 1.461 . S
C1873 C487 1.449 . S
C1879 C403 1.436 . S
C1893 C571 1.444 . S
C1899 C655 1.459 . S
C1913 C812 1.438 . S
C1919 C728 1.438 . S
C1933 C980 1.462 . S
C1939 C896 1.448 . S
C1953 C1075 1.448 . S
C1959 C1159 1.462 . S
C1973 C1243 1.451 . S
C1979 C1327 1.463 . S
C1993 C58 1.361 . S
C1999 C70 1.361 . S
C2013 C142 1.407 . S
C2019 C154 1.407 . S
C2033 C226 1.391 . S
C2039 C238 1.391 . S
C2053 C322 1.406 . S
C2059 C310 1.406 . S
C2073 C406 1.361 . S
C2079 C394 1.361 . S
C2093 C478 1.361 . S
C2099 C490 1.361 . S
C2113 C574 1.365 . S
C2119 C562 1.365 . S
C2133 C658 1.396 . S
C2139 C646 1.396 . S
C2153 C742 1.387 . S
C2159 C730 1.387 . S
C2173 C814 1.371 . S
C2179 C826 1.371 . S
C2193 C910 1.367 . S
C2199 C898 1.367 . S
C2213 C994 1.361 . S
C2219 C982 1.361 . S
C2233 C1078 1.380 . S
C2239 C1066 1.380 . S
C2253 C1162 1.363 . S
C2259 C1150 1.363 . S
C2273 C1234 1.408 . S
C2279 C1246 1.408 . S
C2293 C1330 1.411 . S
C2299 C1318 1.411 . S
