# Generated by pormake.
# Topology wir, (6)-cn, num edge types: 1
# Building blocks:
#     Node 0, Type 0, BuildingBlock: CIFDUS_clean_sbu_1, # of connection points: 6
#     Node 1, Type 0, BuildingBlock: CIFDUS_clean_sbu_1, # of connection points: 6
#     Node 2, Type 0, BuildingBlock: CIFDUS_clean_sbu_1, # of connection points: 6
#     Node 3, Type 0, BuildingBlock: CIFDUS_clean_sbu_1, # of connection points: 6
#     Node 4, Type 0, BuildingBlock: CIFDUS_clean_sbu_1, # of connection points: 6
#     Node 5, Type 0, BuildingBlock: CIFDUS_clean_sbu_1, # of connection points: 6
#     Node 6, Type 0, BuildingBlock: CIFDUS_clean_sbu_1, # of connection points: 6
#     Node 7, Type 0, BuildingBlock: CIFDUS_clean_sbu_1, # of connection points: 6
#     Node 8, Type 0, BuildingBlock: CIFDUS_clean_sbu_1, # of connection points: 6
#     Node 9, Type 0, BuildingBlock: CIFDUS_clean_sbu_1, # of connection points: 6
#     Node 10, Type 0, BuildingBlock: CIFDUS_clean_sbu_1, # of connection points: 6
#     Node 11, Type 0, BuildingBlock: CIFDUS_clean_sbu_1, # of connection points: 6
#     Node 12, Type 0, BuildingBlock: CIFDUS_clean_sbu_1, # of connection points: 6
#     Node 13, Type 0, BuildingBlock: CIFDUS_clean_sbu_1, # of connection points: 6
#     Node 14, Type 0, BuildingBlock: CIFDUS_clean_sbu_1, # of connection points: 6
#     Node 15, Type 0, BuildingBlock: CIFDUS_clean_sbu_1, # of connection points: 6
#     Node 16, Type 0, BuildingBlock: CIFDUS_clean_sbu_1, # of connection points: 6
#     Node 17, Type 0, BuildingBlock: CIFDUS_clean_sbu_1, # of connection points: 6
#     Node 18, Type 0, BuildingBlock: CIFDUS_clean_sbu_1, # of connection points: 6
#     Node 19, Type 0, BuildingBlock: CIFDUS_clean_sbu_1, # of connection points: 6
#     Node 20, Type 0, BuildingBlock: CIFDUS_clean_sbu_1, # of connection points: 6
#     Node 21, Type 0, BuildingBlock: CIFDUS_clean_sbu_1, # of connection points: 6
#     Node 22, Type 0, BuildingBlock: CIFDUS_clean_sbu_1, # of connection points: 6
#     Node 23, Type 0, BuildingBlock: CIFDUS_clean_sbu_1, # of connection points: 6
#     Node 24, Type 0, BuildingBlock: CIFDUS_clean_sbu_1, # of connection points: 6
#     Node 25, Type 0, BuildingBlock: CIFDUS_clean_sbu_1, # of connection points: 6
#     Node 26, Type 0, BuildingBlock: CIFDUS_clean_sbu_1, # of connection points: 6
#     Node 27, Type 0, BuildingBlock: CIFDUS_clean_sbu_1, # of connection points: 6
#     Node 28, Type 0, BuildingBlock: CIFDUS_clean_sbu_1, # of connection points: 6
#     Node 29, Type 0, BuildingBlock: CIFDUS_clean_sbu_1, # of connection points: 6
#     Node 30, Type 0, BuildingBlock: CIFDUS_clean_sbu_1, # of connection points: 6
#     Node 31, Type 0, BuildingBlock: CIFDUS_clean_sbu_1, # of connection points: 6
#     Edge 32, Type (0, 0), None
#     Edge 33, Type (0, 0), None
#     Edge 34, Type (0, 0), None
#     Edge 35, Type (0, 0), None
#     Edge 36, Type (0, 0), None
#     Edge 37, Type (0, 0), None
#     Edge 38, Type (0, 0), None
#     Edge 39, Type (0, 0), None
#     Edge 40, Type (0, 0), None
#     Edge 41, Type (0, 0), None
#     Edge 42, Type (0, 0), None
#     Edge 43, Type (0, 0), None
#     Edge 44, Type (0, 0), None
#     Edge 45, Type (0, 0), None
#     Edge 46, Type (0, 0), None
#     Edge 47, Type (0, 0), None
#     Edge 48, Type (0, 0), None
#     Edge 49, Type (0, 0), None
#     Edge 50, Type (0, 0), None
#     Edge 51, Type (0, 0), None
#     Edge 52, Type (0, 0), None
#     Edge 53, Type (0, 0), None
#     Edge 54, Type (0, 0), None
#     Edge 55, Type (0, 0), None
#     Edge 56, Type (0, 0), None
#     Edge 57, Type (0, 0), None
#     Edge 58, Type (0, 0), None
#     Edge 59, Type (0, 0), None
#     Edge 60, Type (0, 0), None
#     Edge 61, Type (0, 0), None
#     Edge 62, Type (0, 0), None
#     Edge 63, Type (0, 0), None
#     Edge 64, Type (0, 0), None
#     Edge 65, Type (0, 0), None
#     Edge 66, Type (0, 0), None
#     Edge 67, Type (0, 0), None
#     Edge 68, Type (0, 0), None
#     Edge 69, Type (0, 0), None
#     Edge 70, Type (0, 0), None
#     Edge 71, Type (0, 0), None
#     Edge 72, Type (0, 0), None
#     Edge 73, Type (0, 0), None
#     Edge 74, Type (0, 0), None
#     Edge 75, Type (0, 0), None
#     Edge 76, Type (0, 0), None
#     Edge 77, Type (0, 0), None
#     Edge 78, Type (0, 0), None
#     Edge 79, Type (0, 0), None
#     Edge 80, Type (0, 0), None
#     Edge 81, Type (0, 0), None
#     Edge 82, Type (0, 0), None
#     Edge 83, Type (0, 0), None
#     Edge 84, Type (0, 0), None
#     Edge 85, Type (0, 0), None
#     Edge 86, Type (0, 0), None
#     Edge 87, Type (0, 0), None
#     Edge 88, Type (0, 0), None
#     Edge 89, Type (0, 0), None
#     Edge 90, Type (0, 0), None
#     Edge 91, Type (0, 0), None
#     Edge 92, Type (0, 0), None
#     Edge 93, Type (0, 0), None
#     Edge 94, Type (0, 0), None
#     Edge 95, Type (0, 0), None
#     Edge 96, Type (0, 0), None
#     Edge 97, Type (0, 0), None
#     Edge 98, Type (0, 0), None
#     Edge 99, Type (0, 0), None
#     Edge 100, Type (0, 0), None
#     Edge 101, Type (0, 0), None
#     Edge 102, Type (0, 0), None
#     Edge 103, Type (0, 0), None
#     Edge 104, Type (0, 0), None
#     Edge 105, Type (0, 0), None
#     Edge 106, Type (0, 0), None
#     Edge 107, Type (0, 0), None
#     Edge 108, Type (0, 0), None
#     Edge 109, Type (0, 0), None
#     Edge 110, Type (0, 0), None
#     Edge 111, Type (0, 0), None
#     Edge 112, Type (0, 0), None
#     Edge 113, Type (0, 0), None
#     Edge 114, Type (0, 0), None
#     Edge 115, Type (0, 0), None
#     Edge 116, Type (0, 0), None
#     Edge 117, Type (0, 0), None
#     Edge 118, Type (0, 0), None
#     Edge 119, Type (0, 0), None
#     Edge 120, Type (0, 0), None
#     Edge 121, Type (0, 0), None
#     Edge 122, Type (0, 0), None
#     Edge 123, Type (0, 0), None
#     Edge 124, Type (0, 0), None
#     Edge 125, Type (0, 0), None
#     Edge 126, Type (0, 0), None
#     Edge 127, Type (0, 0), None
# Relax obj value: 0.204
# Max RMSD: 0.166
# Mean RMSD: 0.166
data_MOF--net-wir--node1-CIFDUS_clean_sbu_1--edge1-none
_symmetry_space_group_name_H-M    P1
_symmetry_Int_Tables_number       1
_symmetry_cell_setting            triclinic
loop_
_symmetry_equiv_pos_as_xyz
'x, y, z'
_cell_length_a     17.419522
_cell_length_b     17.42106
_cell_length_c     41.686415
_cell_angle_alpha  89.999696
_cell_angle_beta   90.00001
_cell_angle_gamma 89.999939
loop_
_atom_site_label
_atom_site_type_symbol
_atom_site_fract_x
_atom_site_fract_y
_atom_site_fract_z
_atom_type_partial_charge
O0 O 0.26413 0.15212 0.20776 0.0
Mn1 Mn 0.24959 0.22488 0.24874 0.0
O2 O 0.23091 1.03029 0.21781 0.0
Mn3 Mn 0.23933 1.0496 0.26057 0.0
O4 O 0.23776 0.30033 0.28923 0.0
O5 O 0.30126 0.31306 0.22393 0.0
Mn6 Mn 0.24973 0.39906 0.23111 0.0
O7 O 0.14693 0.25752 0.22907 0.0
O8 O 0.28025 0.41559 0.27147 0.0
O9 O 0.3491 0.18858 0.27512 0.0
O10 O 0.34069 1.06128 0.27458 0.0
O11 O 0.29351 0.41492 0.19246 0.0
O12 O 0.14582 0.38594 0.22822 0.0
C13 C 0.1462 0.10064 0.28832 0.0
C14 C 0.25089 0.08228 0.19849 0.0
C15 C 0.26247 0.37001 0.29392 0.0
C16 C 0.30913 0.34286 0.19528 0.0
C17 C 0.11285 0.32173 0.22557 0.0
C18 C 0.36607 0.12232 0.28758 0.0
O19 O 0.19235 0.13807 0.26982 0.0
O20 O 0.15831 1.02733 0.28749 0.0
O21 O 0.13569 0.89685 0.47908 0.0
Mn22 Mn 0.16831 0.99951 0.49875 0.0
O23 O 1.00726 0.89571 0.47822 0.0
Mn24 Mn 0.9941 0.9996 0.48113 0.0
O25 O 0.2046 0.09902 0.52512 0.0
O26 O 0.25514 0.94229 0.5198 0.0
Mn27 Mn 0.34362 0.98927 0.51058 0.0
O28 O 0.24104 1.01406 0.45776 0.0
O29 O 0.33194 0.09054 0.52469 0.0
O30 O 0.09289 0.98766 0.53924 0.0
O31 O 0.97757 1.03008 0.5215 0.0
O32 O 0.36585 0.90817 0.53746 0.0
O33 O 0.36292 0.98101 0.46782 0.0
C34 C 1.05028 1.05906 0.4453 0.0
C35 C 1.07149 0.86275 0.47558 0.0
C36 C 0.27083 0.11597 0.53763 0.0
C37 C 0.29253 0.89609 0.53828 0.0
C38 C 0.31089 1.00091 0.44849 0.0
C39 C 1.02319 1.01232 0.54394 0.0
O40 O 0.08009 1.05116 0.47395 0.0
O41 O 0.97822 1.04343 0.44248 0.0
O42 O 0.49619 0.88564 0.72907 0.0
Mn43 Mn 0.39353 0.91827 0.74874 0.0
O44 O 0.49732 0.75722 0.72822 0.0
Mn45 Mn 0.39341 0.7441 0.7311 0.0
O46 O 0.294 0.95454 0.77512 0.0
O47 O 0.45073 1.00509 0.76983 0.0
Mn48 Mn 0.40375 0.09356 0.76057 0.0
O49 O 0.37899 0.99105 0.70776 0.0
O50 O 0.30233 0.08183 0.7745 0.0
O51 O 0.40535 0.8428 0.78923 0.0
O52 O 0.36286 0.72755 0.77146 0.0
O53 O 0.4847 0.11583 0.78752 0.0
O54 O 0.41229 0.11286 0.71782 0.0
C55 C 0.33403 0.8003 0.69526 0.0
C56 C 0.53028 0.82144 0.72557 0.0
C57 C 0.27701 1.02083 0.78755 0.0
C58 C 0.49685 1.04253 0.78833 0.0
C59 C 0.39228 1.06088 0.69849 0.0
C60 C 0.38065 0.77312 0.79391 0.0
O61 O 0.34187 0.83009 0.72392 0.0
O62 O 0.34965 0.72824 0.69244 0.0
O63 O 0.50745 0.2463 -0.02091 0.0
Mn64 Mn 0.47486 0.14363 -0.00125 0.0
O65 O 0.63589 0.24746 -0.02179 0.0
Mn66 Mn 0.64907 0.14358 -0.01889 0.0
O67 O 0.43859 1.0441 0.02512 0.0
O68 O 0.38801 0.20081 0.01982 0.0
Mn69 Mn 0.29954 0.15381 0.01058 0.0
O70 O 0.40213 0.12907 -0.04223 0.0
O71 O 0.31127 1.05248 0.02461 0.0
O72 O 0.5503 0.15547 0.03924 0.0
O73 O 0.66562 0.11312 0.02148 0.0
O74 O 0.27729 0.23485 0.03749 0.0
O75 O 0.28026 0.16219 -0.03219 0.0
C76 C 0.59287 0.08411 -0.05471 0.0
C77 C 0.57165 0.28041 -0.02442 0.0
C78 C 0.37234 1.02711 0.03759 0.0
C79 C 0.3506 0.24697 0.03831 0.0
C80 C 0.33228 0.14225 -0.05151 0.0
C81 C 0.62001 0.13084 0.04393 0.0
O82 O 0.56308 0.092 -0.02605 0.0
O83 O 0.66493 0.09975 -0.05754 0.0
O84 O 0.1465 0.88612 0.13419 0.0
Mn85 Mn 0.24826 0.91974 0.11413 0.0
O86 O 0.14639 0.75775 0.13416 0.0
Mn87 Mn 0.2506 0.74538 0.13095 0.0
O88 O 0.34702 0.95741 0.08752 0.0
O89 O 0.1889 1.00556 0.09347 0.0
Mn90 Mn 0.23512 0.09458 0.10171 0.0
O91 O 0.26298 0.99224 0.15505 0.0
O92 O 0.3328 0.08476 0.08389 0.0
O93 O 0.23614 0.84507 0.07348 0.0
O94 O 0.28078 0.7299 0.09035 0.0
O95 O 0.15082 0.11542 0.07638 0.0
O96 O 0.2323 0.11463 0.14464 0.0
C97 C 0.30955 0.80073 0.16719 0.0
C98 C 0.11289 0.82164 0.13733 0.0
C99 C 0.36205 1.02251 0.07351 0.0
C100 C 0.14116 1.04179 0.07527 0.0
C101 C 0.25119 1.06247 0.1641 0.0
C102 C 0.26184 0.77604 0.06823 0.0
O103 O 0.30144 0.83165 0.13869 0.0
O104 O 0.29503 0.72829 0.16943 0.0
O105 O 0.50698 0.89643 0.38417 0.0
Mn106 Mn 0.47339 0.9982 0.36412 0.0
O107 O 0.63536 0.89628 0.38417 0.0
Mn108 Mn 0.64779 1.00047 0.38094 0.0
O109 O 0.43574 0.09696 0.33751 0.0
O110 O 0.38753 0.93888 0.34349 0.0
Mn111 Mn 0.29851 0.98509 0.3517 0.0
O112 O 0.40092 1.01295 0.40505 0.0
O113 O 0.30837 0.08273 0.33386 0.0
O114 O 0.54804 0.98605 0.32347 0.0
O115 O 0.66326 1.03058 0.34033 0.0
O116 O 0.2777 0.90076 0.32639 0.0
O117 O 0.2785 0.98234 0.39464 0.0
C118 C 0.59245 1.0595 0.41716 0.0
C119 C 0.57145 0.86281 0.38732 0.0
C120 C 0.37065 0.11198 0.3235 0.0
C121 C 0.35134 0.89112 0.32529 0.0
C122 C 0.33068 1.0012 0.4141 0.0
C123 C 0.61708 1.01169 0.31822 0.0
O124 O 0.56153 1.05134 0.38867 0.0
O125 O 0.66489 1.04496 0.41941 0.0
O126 O 0.49663 0.25703 0.63419 0.0
Mn127 Mn 0.39486 0.22344 0.61414 0.0
O128 O 0.49675 0.38541 0.63416 0.0
Mn129 Mn 0.39254 0.39779 0.63097 0.0
O130 O 0.29608 0.1858 0.58753 0.0
O131 O 0.45417 0.1376 0.59346 0.0
Mn132 Mn 0.40794 1.0486 0.60171 0.0
O133 O 0.38014 0.15092 0.65506 0.0
O134 O 0.31017 1.05844 0.58398 0.0
O135 O 0.40696 0.29814 0.57349 0.0
O136 O 0.36232 0.41328 0.59038 0.0
O137 O 0.49216 1.02772 0.57635 0.0
O138 O 0.41088 1.02854 0.64464 0.0
C139 C 0.33361 0.34243 0.66721 0.0
C140 C 0.53024 0.32152 0.63733 0.0
C141 C 0.281 0.12068 0.57355 0.0
C142 C 0.50187 0.10135 0.57525 0.0
C143 C 0.39198 0.08069 0.6641 0.0
C144 C 0.38126 0.36716 0.56825 0.0
O145 O 0.3417 0.31152 0.63871 0.0
O146 O 0.34814 0.41487 0.66946 0.0
O147 O 0.13617 0.24673 0.88419 0.0
Mn148 Mn 0.16978 0.14499 0.86413 0.0
O149 O 1.00779 0.24686 0.88416 0.0
Mn150 Mn 0.99538 0.14267 0.88092 0.0
O151 O 0.20748 1.04624 0.83751 0.0
O152 O 0.25562 0.20435 0.84351 0.0
Mn153 Mn 0.34466 0.15816 0.8517 0.0
O154 O 0.24224 0.13023 0.90506 0.0
O155 O 0.33483 1.06061 0.83377 0.0
O156 O 0.09515 0.15714 0.82347 0.0
O157 O 0.97993 0.11256 0.84031 0.0
O158 O 0.36542 0.24258 0.82642 0.0
O159 O 0.36468 0.16079 0.89464 0.0
C160 C 1.0507 0.08365 0.91716 0.0
C161 C 0.07169 0.28035 0.88733 0.0
C162 C 0.27254 1.03127 0.82346 0.0
C163 C 0.29177 0.25216 0.82532 0.0
C164 C 0.31249 0.14196 0.9141 0.0
C165 C 1.02612 0.13148 0.81821 0.0
O166 O 0.08164 0.09181 0.88867 0.0
O167 O 0.97826 0.09818 0.9194 0.0
O168 O 0.99622 0.88564 0.63364 0.0
Mn169 Mn 0.89358 0.91829 0.61396 0.0
O170 O 0.99731 0.75722 0.63447 0.0
Mn171 Mn 0.8934 0.74412 0.63159 0.0
O172 O 0.79407 0.95461 0.58758 0.0
O173 O 0.95087 1.00507 0.59286 0.0
Mn174 Mn 0.90387 0.09351 0.60213 0.0
O175 O 0.87905 0.99104 0.65494 0.0
O176 O 0.80256 0.08192 0.58806 0.0
O177 O 0.9054 0.84284 0.57347 0.0
O178 O 0.86285 0.7276 0.59123 0.0
O179 O 0.98486 0.11598 0.57525 0.0
O180 O 0.9122 0.11287 0.64489 0.0
C181 C 0.83403 0.80033 0.66742 0.0
C182 C 1.03029 0.82143 0.63713 0.0
C183 C 0.77711 1.02085 0.5751 0.0
C184 C 0.99693 1.04267 0.57439 0.0
C185 C 0.89224 1.06088 0.66422 0.0
C186 C 0.88066 0.77317 0.56878 0.0
O187 O 0.84188 0.83013 0.63877 0.0
O188 O 0.84963 0.72827 0.67024 0.0
O189 O 1.00746 0.24631 0.38363 0.0
Mn190 Mn 0.97485 0.14365 0.36395 0.0
O191 O 0.1359 0.24747 0.38457 0.0
Mn192 Mn 0.14907 0.1436 0.38158 0.0
O193 O 0.93856 1.04415 0.33757 0.0
O194 O 0.88799 0.20086 0.34291 0.0
Mn195 Mn 0.79952 0.15387 0.35213 0.0
O196 O 0.90211 0.12907 0.40494 0.0
O197 O 0.81123 1.05257 0.33806 0.0
O198 O 1.05024 0.15554 0.32346 0.0
O199 O 0.16565 0.11334 0.34119 0.0
O200 O 0.77729 0.23495 0.32523 0.0
O201 O 0.78024 0.16219 0.39489 0.0
C202 C 0.09291 0.08401 0.41738 0.0
C203 C 0.07165 0.28041 0.38718 0.0
C204 C 0.87231 1.02717 0.3251 0.0
C205 C 0.85061 0.24704 0.32442 0.0
C206 C 0.83225 0.14225 0.41422 0.0
C207 C 0.12001 0.13108 0.31876 0.0
O208 O 1.06309 0.092 0.38874 0.0
O209 O 0.16498 0.09963 0.4202 0.0
O210 O 0.64694 0.25751 0.13363 0.0
Mn211 Mn 0.74959 0.22488 0.11396 0.0
O212 O 0.64583 0.38593 0.13447 0.0
Mn213 Mn 0.74975 0.39904 0.1316 0.0
O214 O 0.84911 0.18859 0.08758 0.0
O215 O 0.69233 0.13809 0.09285 0.0
Mn216 Mn 0.73935 1.04965 0.10214 0.0
O217 O 0.76412 0.15211 0.15494 0.0
O218 O 0.84072 1.06129 0.08814 0.0
O219 O 0.73778 0.30035 0.07347 0.0
O220 O 0.78032 0.41558 0.09125 0.0
O221 O 0.65842 1.02718 0.07522 0.0
O222 O 0.7309 1.0303 0.14489 0.0
C223 C 0.8091 0.34282 0.16744 0.0
C224 C 0.61286 0.32172 0.13713 0.0
C225 C 0.8661 0.12232 0.07513 0.0
C226 C 0.64631 0.10048 0.07437 0.0
C227 C 0.75088 0.08228 0.16421 0.0
C228 C 0.76251 0.37002 0.06879 0.0
O229 O 0.80127 0.31303 0.13878 0.0
O230 O 0.79349 0.41489 0.17026 0.0
O231 O 0.63568 0.89685 0.88362 0.0
Mn232 Mn 0.66827 0.99953 0.86395 0.0
O233 O 0.50724 0.89568 0.88458 0.0
Mn234 Mn 0.49405 0.99954 0.8816 0.0
O235 O 0.70453 0.09905 0.83757 0.0
O236 O 0.75514 0.94236 0.84289 0.0
Mn237 Mn 0.84361 0.98936 0.85213 0.0
O238 O 0.74101 1.01411 0.90494 0.0
O239 O 0.83185 0.09072 0.83815 0.0
O240 O 0.59286 0.98764 0.82346 0.0
O241 O 0.47744 1.02979 0.84121 0.0
O242 O 0.86586 0.90835 0.8252 0.0
O243 O 0.86287 0.98093 0.89489 0.0
C244 C 0.55022 1.05914 0.91738 0.0
C245 C 0.57149 0.86275 0.88718 0.0
C246 C 0.7708 0.11605 0.82513 0.0
C247 C 0.79255 0.89622 0.82439 0.0
C248 C 0.81086 1.0009 0.91422 0.0
C249 C 0.52308 1.01207 0.81877 0.0
O250 O 0.58002 1.05115 0.88874 0.0
O251 O 0.47816 1.04351 0.92021 0.0
O252 O 0.99665 0.25703 0.7285 0.0
Mn253 Mn 0.89493 0.2234 0.74858 0.0
O254 O 0.99675 0.3854 0.72855 0.0
Mn255 Mn 0.89254 0.39776 0.73177 0.0
O256 O 0.79619 0.1857 0.7752 0.0
O257 O 0.95435 0.13761 0.76923 0.0
Mn258 Mn 0.90813 1.04861 0.76099 0.0
O259 O 0.88018 0.15091 0.70765 0.0
O260 O 0.81051 1.05836 0.77886 0.0
O261 O 0.90705 0.29806 0.78923 0.0
O262 O 0.86237 0.41322 0.77237 0.0
O263 O 0.99242 1.0276 0.78629 0.0
O264 O 0.91085 1.02852 0.71806 0.0
C265 C 0.83358 0.34241 0.69553 0.0
C266 C 1.03025 0.32152 0.72536 0.0
C267 C 0.78119 0.12061 0.78921 0.0
C268 C 1.00201 0.10124 0.78743 0.0
C269 C 0.89195 0.08068 0.69861 0.0
C270 C 0.88134 0.36707 0.79448 0.0
O271 O 0.84171 0.31148 0.72403 0.0
O272 O 0.84809 0.41485 0.69329 0.0
O273 O 0.63616 0.24673 0.47853 0.0
Mn274 Mn 0.66973 0.14495 0.49858 0.0
O275 O 0.50777 0.24689 0.47847 0.0
Mn276 Mn 0.49532 0.14273 0.48175 0.0
O277 O 0.70734 1.04618 0.52519 0.0
O278 O 0.75562 0.20422 0.51923 0.0
Mn279 Mn 0.84462 0.15797 0.511 0.0
O280 O 0.74221 0.13018 0.45765 0.0
O281 O 0.83472 1.06026 0.52877 0.0
O282 O 0.5951 0.15714 0.53923 0.0
O283 O 0.4798 0.11276 0.52238 0.0
O284 O 0.86547 0.24224 0.53634 0.0
O285 O 0.86463 0.16082 0.46806 0.0
C286 C 0.55065 0.0836 0.44555 0.0
C287 C 0.57169 0.28035 0.47534 0.0
C288 C 0.77245 1.03109 0.53918 0.0
C289 C 0.79184 0.25195 0.53744 0.0
C290 C 0.81245 0.14195 0.44861 0.0
C291 C 0.52599 0.13167 0.54448 0.0
O292 O 0.58157 0.09183 0.47404 0.0
O293 O 0.47821 0.09814 0.4433 0.0
O294 O 0.64651 0.88613 0.2285 0.0
Mn295 Mn 0.74825 0.91974 0.24857 0.0
O296 O 0.6464 0.75776 0.22855 0.0
Mn297 Mn 0.75061 0.7454 0.23175 0.0
O298 O 0.847 0.95741 0.27519 0.0
O299 O 0.68886 1.00553 0.26924 0.0
Mn300 Mn 0.7351 0.09453 0.26098 0.0
O301 O 0.76298 0.99225 0.20765 0.0
O302 O 0.83281 0.08476 0.27878 0.0
O303 O 0.73613 0.84506 0.28922 0.0
O304 O 0.78081 0.72991 0.27234 0.0
O305 O 0.65088 0.11557 0.28632 0.0
O306 O 0.73225 0.11462 0.21806 0.0
C307 C 0.80954 0.80075 0.1955 0.0
C308 C 0.6129 0.82164 0.22536 0.0
C309 C 0.86204 1.02252 0.28918 0.0
C310 C 0.64123 1.04193 0.28745 0.0
C311 C 0.75116 1.06247 0.1986 0.0
C312 C 0.76185 0.77604 0.29446 0.0
O313 O 0.80144 0.83167 0.224 0.0
O314 O 0.79502 0.72831 0.19326 0.0
O315 O 1.00698 0.89642 -0.02148 0.0
Mn316 Mn 0.97338 0.99818 -0.00143 0.0
O317 O 0.13537 0.89628 -0.02152 0.0
Mn318 Mn 0.1478 1.00045 -0.01823 0.0
O319 O 0.93573 0.09694 0.02519 0.0
O320 O 0.88751 0.93887 0.0192 0.0
Mn321 Mn 0.79849 0.98509 0.011 0.0
O322 O 0.90091 1.01296 -0.04235 0.0
O323 O 0.80837 0.08271 0.02886 0.0
O324 O 1.048 0.98599 0.03923 0.0
O325 O 0.16329 1.03041 0.0224 0.0
O326 O 0.77769 0.90074 0.03631 0.0
O327 O 0.77847 0.98237 -0.03194 0.0
C328 C 0.09249 1.05957 -0.05445 0.0
C329 C 1.07145 0.86281 -0.02466 0.0
C330 C 0.87065 0.11197 0.03921 0.0
C331 C 0.85134 0.89109 0.0374 0.0
C332 C 0.83066 1.00121 -0.0514 0.0
C333 C 0.11709 1.01148 0.04449 0.0
O334 O 1.06154 1.05134 -0.02596 0.0
O335 O 0.16493 1.04504 -0.05669 0.0
O336 O 0.76404 0.65213 0.70776 0.0
Mn337 Mn 0.74951 0.72484 0.74877 0.0
O338 O 0.73098 0.53025 0.71782 0.0
Mn339 Mn 0.73946 0.54951 0.76058 0.0
O340 O 0.73767 0.80022 0.78927 0.0
O341 O 0.80106 0.81313 0.72398 0.0
Mn342 Mn 0.74945 0.89909 0.73113 0.0
O343 O 0.64676 0.75742 0.72915 0.0
O344 O 0.7797 0.91568 0.77153 0.0
O345 O 0.8491 0.68862 0.77511 0.0
O346 O 0.84085 0.56131 0.77455 0.0
O347 O 0.79347 0.91502 0.69253 0.0
O348 O 0.64559 0.88586 0.72814 0.0
C349 C 0.6463 0.60051 0.78833 0.0
C350 C 0.75086 0.58227 0.69849 0.0
C351 C 0.76206 0.87 0.79396 0.0
C352 C 0.8091 0.84296 0.69534 0.0
C353 C 0.61266 0.8216 0.72555 0.0
C354 C 0.86614 0.62237 0.78757 0.0
O355 O 0.69241 0.63794 0.76983 0.0
O356 O 0.65848 0.52722 0.78752 0.0
O357 O 0.63568 0.39686 -0.02088 0.0
Mn358 Mn 0.66829 0.49954 -0.00124 0.0
O359 O 0.50724 0.39572 -0.02179 0.0
Mn360 Mn 0.49408 0.49961 -0.01888 0.0
O361 O 0.70455 0.59911 0.02511 0.0
O362 O 0.75511 0.44234 0.01987 0.0
Mn363 Mn 0.84353 0.48941 0.01057 0.0
O364 O 0.74101 0.51405 -0.04223 0.0
O365 O 0.83187 0.59073 0.02462 0.0
O366 O 0.59284 0.48777 0.03925 0.0
O367 O 0.47753 0.53012 0.02148 0.0
O368 O 0.8661 0.40849 0.03747 0.0
O369 O 0.86289 0.48103 -0.03218 0.0
C370 C 0.55028 0.55906 -0.05471 0.0
C371 C 0.57148 0.36278 -0.02443 0.0
C372 C 0.77078 0.61611 0.03759 0.0
C373 C 0.79279 0.39634 0.03834 0.0
C374 C 0.81087 0.5009 -0.05151 0.0
C375 C 0.52313 0.51243 0.04393 0.0
O376 O 0.58007 0.55115 -0.02605 0.0
O377 O 0.47821 0.54343 -0.05753 0.0
O378 O 0.99638 0.38575 0.22914 0.0
Mn379 Mn 0.89365 0.41834 0.24877 0.0
O380 O 0.99754 0.25731 0.22815 0.0
Mn381 Mn 0.89368 0.24408 0.23115 0.0
O382 O 0.79406 0.45458 0.27512 0.0
O383 O 0.95077 0.50523 0.26983 0.0
Mn384 Mn 0.90372 0.59367 0.26058 0.0
O385 O 0.8791 0.49103 0.20776 0.0
O386 O 0.80238 0.58189 0.27461 0.0
O387 O 0.9055 0.34299 0.28928 0.0
O388 O 0.86344 0.22752 0.27155 0.0
O389 O 0.98475 0.61595 0.2875 0.0
O390 O 0.91211 0.61293 0.21782 0.0
C391 C 0.83403 0.3002 0.19536 0.0
C392 C 1.03047 0.32157 0.22555 0.0
C393 C 0.77705 0.52081 0.28759 0.0
C394 C 0.99691 0.54265 0.28832 0.0
C395 C 0.89225 0.56089 0.19849 0.0
C396 C 0.8811 0.27321 0.29398 0.0
O397 O 0.84208 0.33004 0.224 0.0
O398 O 0.84964 0.22813 0.19255 0.0
O399 O 1.00745 0.7463 0.47911 0.0
Mn400 Mn 0.97484 0.64362 0.49876 0.0
O401 O 0.13589 0.74743 0.47822 0.0
Mn402 Mn 0.14905 0.64353 0.48113 0.0
O403 O 0.93856 0.54407 0.52511 0.0
O404 O 0.88802 0.70086 0.51986 0.0
Mn405 Mn 0.7996 0.65379 0.51058 0.0
O406 O 0.90211 0.62912 0.45776 0.0
O407 O 0.81123 0.55251 0.52468 0.0
O408 O 1.05027 0.6554 0.53926 0.0
O409 O 0.16558 0.61301 0.52149 0.0
O410 O 0.77706 0.73477 0.53746 0.0
O411 O 0.78022 0.6621 0.46782 0.0
C412 C 0.09286 0.5841 0.4453 0.0
C413 C 0.07166 0.78038 0.47557 0.0
C414 C 0.87234 0.52709 0.53762 0.0
C415 C 0.85037 0.74688 0.53833 0.0
C416 C 0.83225 0.64225 0.44849 0.0
C417 C 0.11997 0.63072 0.54394 0.0
O418 O 1.06305 0.592 0.47395 0.0
O419 O 0.16493 0.59971 0.44248 0.0
O420 O 0.64635 0.38622 0.63412 0.0
Mn421 Mn 0.7482 0.41976 0.61411 0.0
O422 O 0.64618 0.25782 0.63422 0.0
Mn423 Mn 0.75035 0.24533 0.63093 0.0
O424 O 0.84704 0.45733 0.58753 0.0
O425 O 0.689 0.50568 0.59346 0.0
Mn426 Mn 0.73531 0.59465 0.6017 0.0
O427 O 0.76292 0.49222 0.65505 0.0
O428 O 0.83306 0.5847 0.58396 0.0
O429 O 0.73605 0.34516 0.57345 0.0
O430 O 0.78032 0.22983 0.5903 0.0
O431 O 0.65108 0.61555 0.57633 0.0
O432 O 0.73237 0.61466 0.64464 0.0
C433 C 0.80951 0.30062 0.66714 0.0
C434 C 0.61273 0.32175 0.63735 0.0
C435 C 0.86217 0.52242 0.57354 0.0
C436 C 0.64131 0.54193 0.57524 0.0
C437 C 0.75117 0.56246 0.6641 0.0
C438 C 0.76148 0.27605 0.5682 0.0
O439 O 0.80125 0.33156 0.63866 0.0
O440 O 0.79497 0.22819 0.66938 0.0
O441 O 1.00698 0.39643 0.88415 0.0
Mn442 Mn 0.97338 0.4982 0.86411 0.0
O443 O 0.13537 0.39631 0.88416 0.0
Mn444 Mn 0.14778 0.5005 0.88093 0.0
O445 O 0.93572 0.59698 0.83752 0.0
O446 O 0.88755 0.43884 0.84345 0.0
Mn447 Mn 0.79857 0.48512 0.8517 0.0
O448 O 0.90091 0.51291 0.90505 0.0
O449 O 0.80837 0.58272 0.83382 0.0
O450 O 1.04803 0.48611 0.82346 0.0
O451 O 0.16325 0.53066 0.84032 0.0
O452 O 0.77749 0.40085 0.82641 0.0
O453 O 0.77848 0.48239 0.89463 0.0
C454 C 0.09244 0.55951 0.91716 0.0
C455 C 1.07146 0.36284 0.88734 0.0
C456 C 0.87065 0.61201 0.82348 0.0
C457 C 0.85113 0.39121 0.82526 0.0
C458 C 0.83067 0.5012 0.9141 0.0
C459 C 0.11706 0.51179 0.81821 0.0
O460 O 1.06151 0.55135 0.88867 0.0
O461 O 0.16489 0.54499 0.9194 0.0
O462 O 0.99679 0.75694 0.13412 0.0
Mn463 Mn 0.89496 0.72337 0.1141 0.0
O464 O 0.99695 0.88533 0.13421 0.0
Mn465 Mn 0.89279 0.89782 0.1309 0.0
O466 O 0.79613 0.68578 0.08752 0.0
O467 O 0.95418 0.63746 0.09346 0.0
Mn468 Mn 0.90789 0.54849 0.1017 0.0
O469 O 0.88022 0.65093 0.15505 0.0
O470 O 0.81019 0.55842 0.0839 0.0
O471 O 0.90713 0.79794 0.07343 0.0
O472 O 0.86285 0.91329 0.09026 0.0
O473 O 0.99217 0.5276 0.07635 0.0
O474 O 0.91073 0.52849 0.14464 0.0
C475 C 0.83361 0.84254 0.16711 0.0
C476 C 1.0304 0.8214 0.13735 0.0
C477 C 0.78103 0.62071 0.07351 0.0
C478 C 1.0019 0.60123 0.07526 0.0
C479 C 0.89195 0.58069 0.1641 0.0
C480 C 0.8817 0.86705 0.06817 0.0
O481 O 0.84189 0.81159 0.13863 0.0
O482 O 0.84813 0.91498 0.16935 0.0
O483 O 0.63616 0.74673 0.38415 0.0
Mn484 Mn 0.66974 0.64495 0.36411 0.0
O485 O 0.50777 0.74686 0.38417 0.0
Mn486 Mn 0.49534 0.64267 0.38094 0.0
O487 O 0.70737 0.54615 0.33752 0.0
O488 O 0.75558 0.70427 0.34344 0.0
Mn489 Mn 0.84455 0.65797 0.35171 0.0
O490 O 0.74221 0.63023 0.40505 0.0
O491 O 0.83473 0.56031 0.33389 0.0
O492 O 0.59508 0.65704 0.32346 0.0
O493 O 0.47986 0.61251 0.34034 0.0
O494 O 0.86568 0.74217 0.32638 0.0
O495 O 0.86464 0.66079 0.39464 0.0
C496 C 0.55069 0.58366 0.41716 0.0
C497 C 0.57168 0.78033 0.38734 0.0
C498 C 0.77246 0.53108 0.32351 0.0
C499 C 0.79204 0.75187 0.32524 0.0
C500 C 0.81245 0.64197 0.4141 0.0
C501 C 0.52604 0.63137 0.31822 0.0
O502 O 0.58161 0.59182 0.38867 0.0
O503 O 0.47825 0.59819 0.41942 0.0
O504 O 0.49639 0.38574 0.13356 0.0
Mn505 Mn 0.39366 0.41833 0.11393 0.0
O506 O 0.49755 0.25731 0.13456 0.0
Mn507 Mn 0.39368 0.2441 0.13157 0.0
O508 O 0.29407 0.45457 0.08759 0.0
O509 O 0.4508 0.50519 0.09285 0.0
Mn510 Mn 0.40373 0.5936 0.10213 0.0
O511 O 0.37913 0.49103 0.15494 0.0
O512 O 0.30239 0.58188 0.0881 0.0
O513 O 0.40549 0.34295 0.07343 0.0
O514 O 0.3634 0.22751 0.09117 0.0
O515 O 0.48468 0.6161 0.07521 0.0
O516 O 0.41212 0.61292 0.14488 0.0
C517 C 0.33406 0.30023 0.16736 0.0
C518 C 0.53048 0.32156 0.13715 0.0
C519 C 0.27704 0.5208 0.07511 0.0
C520 C 0.49683 0.5428 0.07437 0.0
C521 C 0.39227 0.56089 0.16421 0.0
C522 C 0.38107 0.27318 0.06874 0.0
O523 O 0.34208 0.33006 0.13872 0.0
O524 O 0.34968 0.22817 0.17018 0.0
O525 O 0.50747 0.74631 0.88359 0.0
Mn526 Mn 0.47486 0.64362 0.86394 0.0
O527 O 0.63592 0.74746 0.88458 0.0
Mn528 Mn 0.64909 0.64359 0.88159 0.0
O529 O 0.43861 0.54406 0.83758 0.0
O530 O 0.38802 0.70081 0.84284 0.0
Mn531 Mn 0.29961 0.65373 0.85214 0.0
O532 O 0.40213 0.62908 0.90494 0.0
O533 O 0.3113 0.55238 0.83814 0.0
O534 O 0.55029 0.65544 0.82345 0.0
O535 O 0.66569 0.61329 0.84121 0.0
O536 O 0.27705 0.73463 0.82522 0.0
O537 O 0.28027 0.66217 0.89489 0.0
C538 C 0.59292 0.58401 0.91738 0.0
C539 C 0.57166 0.78038 0.88719 0.0
C540 C 0.37236 0.52704 0.82513 0.0
C541 C 0.35035 0.7468 0.82436 0.0
C542 C 0.33228 0.64226 0.91422 0.0
C543 C 0.62006 0.63098 0.81877 0.0
O544 O 0.56311 0.59201 0.88874 0.0
O545 O 0.66498 0.59962 0.92021 0.0
O546 O 0.14675 0.7574 0.63356 0.0
Mn547 Mn 0.24947 0.72481 0.61393 0.0
O548 O 0.14561 0.88584 0.63454 0.0
Mn549 Mn 0.24948 0.89905 0.63155 0.0
O550 O 0.34905 0.68855 0.58758 0.0
O551 O 0.1923 0.63795 0.59286 0.0
Mn552 Mn 0.23937 0.54954 0.60212 0.0
O553 O 0.26401 0.65212 0.65494 0.0
O554 O 0.34067 0.56123 0.58803 0.0
O555 O 0.23763 0.80016 0.57342 0.0
O556 O 0.27974 0.9156 0.59115 0.0
O557 O 0.15837 0.52705 0.57523 0.0
O558 O 0.23107 0.53022 0.64488 0.0
C559 C 0.3091 0.84292 0.66734 0.0
C560 C 0.11267 0.82159 0.63715 0.0
C561 C 0.36606 0.62234 0.57509 0.0
C562 C 0.14625 0.60035 0.57438 0.0
C563 C 0.25091 0.58226 0.66421 0.0
C564 C 0.26206 0.86992 0.56872 0.0
O565 O 0.30107 0.81309 0.63871 0.0
O566 O 0.2935 0.91499 0.67015 0.0
O567 O 0.13568 0.39685 0.3836 0.0
Mn568 Mn 0.1683 0.49953 0.36394 0.0
O569 O 1.00724 0.39571 0.38457 0.0
Mn570 Mn 0.99407 0.49958 0.38158 0.0
O571 O 0.20457 0.59908 0.33758 0.0
O572 O 0.25513 0.44232 0.34285 0.0
Mn573 Mn 0.34355 0.48939 0.35213 0.0
O574 O 0.24103 0.51406 0.40494 0.0
O575 O 0.33189 0.5907 0.33808 0.0
O576 O 0.09289 0.48771 0.32344 0.0
O577 O 0.97748 0.52989 0.3412 0.0
O578 O 0.36608 0.40844 0.32524 0.0
O579 O 0.3629 0.48102 0.39489 0.0
C580 C 1.05023 0.55916 0.41738 0.0
C581 C 1.07149 0.36278 0.38719 0.0
C582 C 0.27081 0.61608 0.3251 0.0
C583 C 0.29278 0.3963 0.32437 0.0
C584 C 0.31089 0.50091 0.41422 0.0
C585 C 1.02313 0.51219 0.31876 0.0
O586 O 0.08006 0.55116 0.38874 0.0
O587 O 0.97816 0.54355 0.4202 0.0
O588 O 0.49681 0.75694 0.22857 0.0
Mn589 Mn 0.39499 0.72338 0.2486 0.0
O590 O 0.49695 0.88533 0.22849 0.0
Mn591 Mn 0.39279 0.8978 0.23179 0.0
O592 O 0.29617 0.68578 0.27518 0.0
O593 O 0.45425 0.6375 0.26925 0.0
Mn594 Mn 0.40794 0.54854 0.26099 0.0
O595 O 0.38024 0.65093 0.20765 0.0
O596 O 0.31025 0.55842 0.27879 0.0
O597 O 0.40715 0.79796 0.28926 0.0
O598 O 0.36283 0.91329 0.27242 0.0
O599 O 0.49216 0.52747 0.28633 0.0
O600 O 0.41078 0.5285 0.21806 0.0
C601 C 0.33362 0.84251 0.19558 0.0
C602 C 0.53041 0.82141 0.22535 0.0
C603 C 0.28107 0.6207 0.28918 0.0
C604 C 0.50187 0.6011 0.28745 0.0
C605 C 0.39198 0.58069 0.1986 0.0
C606 C 0.3817 0.86706 0.29452 0.0
O607 O 0.34189 0.81157 0.22406 0.0
O608 O 0.34814 0.91495 0.19334 0.0
O609 O 0.13616 0.74673 -0.02145 0.0
Mn610 Mn 0.16975 0.64495 -0.00141 0.0
O611 O 1.00776 0.74687 -0.02152 0.0
Mn612 Mn 0.99533 0.6427 -0.01824 0.0
O613 O 0.20736 0.54615 0.02519 0.0
O614 O 0.2556 0.70426 0.01926 0.0
Mn615 Mn 0.34456 0.65795 0.011 0.0
O616 O 0.24222 0.63022 -0.04235 0.0
O617 O 0.33472 0.56028 0.02882 0.0
O618 O 0.09511 0.65707 0.03924 0.0
O619 O 0.97982 0.61269 0.02238 0.0
O620 O 0.36568 0.74215 0.03632 0.0
O621 O 0.36465 0.66076 -0.03193 0.0
C622 C 1.05065 0.58359 -0.05445 0.0
C623 C 0.07168 0.78032 -0.02468 0.0
C624 C 0.27245 0.53107 0.0392 0.0
C625 C 0.29205 0.75186 0.03746 0.0
C626 C 0.31247 0.64195 -0.05139 0.0
C627 C 1.02601 0.63157 0.04449 0.0
O628 O 0.08159 0.59182 -0.02596 0.0
O629 O 0.97821 0.59811 -0.05669 0.0
O630 O 0.14634 0.38623 0.72857 0.0
Mn631 Mn 0.24814 0.41981 0.7486 0.0
O632 O 0.1462 0.25784 0.7285 0.0
Mn633 Mn 0.25036 0.24536 0.73182 0.0
O634 O 0.34695 0.45742 0.77519 0.0
O635 O 0.18885 0.50568 0.76924 0.0
Mn636 Mn 0.23515 0.59464 0.761 0.0
O637 O 0.2629 0.49223 0.70766 0.0
O638 O 0.33278 0.58477 0.77885 0.0
O639 O 0.23596 0.34525 0.78927 0.0
O640 O 0.28029 0.22991 0.77246 0.0
O641 O 0.15087 0.61569 0.78631 0.0
O642 O 0.2324 0.61468 0.71806 0.0
C643 C 0.30955 0.30064 0.69561 0.0
C644 C 0.11274 0.32176 0.72535 0.0
C645 C 0.36202 0.52249 0.78921 0.0
C646 C 0.1412 0.54206 0.78744 0.0
C647 C 0.25119 0.56247 0.69861 0.0
C648 C 0.26141 0.27616 0.79455 0.0
O649 O 0.30125 0.3316 0.72409 0.0
O650 O 0.29504 0.2282 0.69338 0.0
O651 O 0.50699 0.39643 0.47856 0.0
Mn652 Mn 0.47342 0.49822 0.49859 0.0
O653 O 0.63539 0.39628 0.47847 0.0
Mn654 Mn 0.64783 0.50045 0.48175 0.0
O655 O 0.43583 0.59703 0.52519 0.0
O656 O 0.38755 0.43894 0.51928 0.0
Mn657 Mn 0.29861 0.48528 0.51099 0.0
O658 O 0.40094 0.51295 0.45765 0.0
O659 O 0.30846 0.58301 0.52875 0.0
O660 O 0.54807 0.4861 0.53924 0.0
O661 O 0.66336 0.53046 0.52237 0.0
O662 O 0.27744 0.40114 0.53634 0.0
O663 O 0.27852 0.48237 0.46807 0.0
C664 C 0.5925 0.55956 0.44555 0.0
C665 C 0.57146 0.36283 0.47532 0.0
C666 C 0.37073 0.61215 0.53917 0.0
C667 C 0.35106 0.39138 0.53748 0.0
C668 C 0.3307 0.5012 0.44861 0.0
C669 C 0.61718 0.51159 0.54448 0.0
O670 O 0.56157 0.55133 0.47404 0.0
O671 O 0.66494 0.54503 0.4433 0.0
loop_
_geom_bond_atom_site_label_1
_geom_bond_atom_site_label_2
_geom_bond_distance
_geom_bond_site_symmetry_2
_ccdc_geom_bond_type
O0 Mn1 2.163 . S
O0 C14 1.244 . S
Mn1 O0 2.163 . S
Mn1 O4 2.160 . S
Mn1 O5 2.221 . S
Mn1 O7 2.163 . S
Mn1 O9 2.160 . S
Mn1 O19 2.221 . S
O2 Mn3 2.087 . S
O2 C14 1.256 1_565 S
Mn3 O2 2.087 . S
Mn3 O10 2.088 1_565 S
Mn3 O19 2.290 1_565 S
Mn3 O20 2.251 1_565 S
O4 Mn1 2.160 . S
O4 C15 1.239 . S
O5 Mn1 2.221 . S
O5 Mn6 2.290 . S
O5 C16 1.278 . S
Mn6 O5 2.290 . S
Mn6 O8 2.089 . S
Mn6 O11 2.251 . S
Mn6 O12 2.087 . S
O7 Mn1 2.163 . S
O7 C17 1.244 . S
O8 Mn6 2.089 . S
O8 C15 1.256 . S
O9 Mn1 2.160 . S
O9 C18 1.239 . S
O10 Mn3 2.088 1_545 S
O10 C18 1.258 . S
O11 Mn6 2.251 . S
O11 C16 1.241 . S
O12 Mn6 2.087 . S
O12 C17 1.256 . S
C13 O19 1.278 . S
C13 O20 1.241 . S
C14 O0 1.244 . S
C14 O2 1.256 1_545 S
C15 O4 1.239 . S
C15 O8 1.256 . S
C16 O5 1.278 . S
C16 O11 1.241 . S
C17 O7 1.244 . S
C17 O12 1.256 . S
C18 O9 1.239 . S
C18 O10 1.258 . S
O19 Mn1 2.221 . S
O19 Mn3 2.290 1_545 S
O19 C13 1.278 . S
O20 Mn3 2.251 1_545 S
O20 C13 1.241 . S
O21 Mn22 2.163 . S
O21 C35 1.245 1_455 S
Mn22 O21 2.163 . S
Mn22 O25 2.160 . S
Mn22 O26 2.221 . S
Mn22 O28 2.163 . S
Mn22 O30 2.160 . S
Mn22 O40 2.221 . S
O23 Mn24 2.087 . S
O23 C35 1.255 . S
Mn24 O23 2.087 . S
Mn24 O31 2.089 . S
Mn24 O40 2.290 1_655 S
Mn24 O41 2.251 . S
O25 Mn22 2.160 . S
O25 C36 1.239 1_565 S
O26 Mn22 2.221 . S
O26 Mn27 2.290 . S
O26 C37 1.278 . S
Mn27 O26 2.290 . S
Mn27 O29 2.089 . S
Mn27 O32 2.251 . S
Mn27 O33 2.087 . S
O28 Mn22 2.163 . S
O28 C38 1.244 . S
O29 Mn27 2.089 . S
O29 C36 1.256 1_565 S
O30 Mn22 2.160 . S
O30 C39 1.239 1_455 S
O31 Mn24 2.089 . S
O31 C39 1.256 . S
O32 Mn27 2.251 . S
O32 C37 1.241 . S
O33 Mn27 2.087 . S
O33 C38 1.256 . S
C34 O40 1.278 . S
C34 O41 1.241 1_455 S
C35 O21 1.245 1_655 S
C35 O23 1.255 . S
C36 O25 1.239 1_545 S
C36 O29 1.256 1_545 S
C37 O26 1.278 . S
C37 O32 1.241 . S
C38 O28 1.244 . S
C38 O33 1.256 . S
C39 O30 1.239 1_655 S
C39 O31 1.256 . S
O40 Mn22 2.221 . S
O40 Mn24 2.290 1_455 S
O40 C34 1.278 . S
O41 Mn24 2.251 . S
O41 C34 1.241 1_655 S
O42 Mn43 2.163 . S
O42 C56 1.244 . S
Mn43 O42 2.163 . S
Mn43 O46 2.160 . S
Mn43 O47 2.221 . S
Mn43 O49 2.163 . S
Mn43 O51 2.160 . S
Mn43 O61 2.221 . S
O44 Mn45 2.087 . S
O44 C56 1.256 . S
Mn45 O44 2.087 . S
Mn45 O52 2.089 . S
Mn45 O61 2.290 . S
Mn45 O62 2.251 . S
O46 Mn43 2.160 . S
O46 C57 1.239 . S
O47 Mn43 2.221 . S
O47 Mn48 2.290 1_565 S
O47 C58 1.278 . S
Mn48 O47 2.290 1_545 S
Mn48 O50 2.088 1_545 S
Mn48 O53 2.251 1_545 S
Mn48 O54 2.087 . S
O49 Mn43 2.163 . S
O49 C59 1.244 . S
O50 Mn48 2.088 1_565 S
O50 C57 1.258 . S
O51 Mn43 2.160 . S
O51 C60 1.239 . S
O52 Mn45 2.089 . S
O52 C60 1.256 . S
O53 Mn48 2.251 1_565 S
O53 C58 1.241 . S
O54 Mn48 2.087 . S
O54 C59 1.256 1_545 S
C55 O61 1.278 . S
C55 O62 1.241 . S
C56 O42 1.244 . S
C56 O44 1.256 . S
C57 O46 1.239 . S
C57 O50 1.258 . S
C58 O47 1.278 . S
C58 O53 1.241 . S
C59 O49 1.244 . S
C59 O54 1.256 1_565 S
C60 O51 1.239 . S
C60 O52 1.256 . S
O61 Mn43 2.221 . S
O61 Mn45 2.290 . S
O61 C55 1.278 . S
O62 Mn45 2.251 . S
O62 C55 1.241 . S
O63 Mn64 2.163 . S
O63 C77 1.244 . S
Mn64 O63 2.163 . S
Mn64 O67 2.160 . S
Mn64 O68 2.221 . S
Mn64 O70 2.163 . S
Mn64 O72 2.160 . S
Mn64 O82 2.221 . S
O65 Mn66 2.087 . S
O65 C77 1.256 . S
Mn66 O65 2.087 . S
Mn66 O73 2.089 . S
Mn66 O82 2.290 . S
Mn66 O83 2.251 1_554 S
O67 Mn64 2.160 . S
O67 C78 1.239 1_545 S
O68 Mn64 2.221 . S
O68 Mn69 2.290 . S
O68 C79 1.278 . S
Mn69 O68 2.290 . S
Mn69 O71 2.089 . S
Mn69 O74 2.251 . S
Mn69 O75 2.087 . S
O70 Mn64 2.163 . S
O70 C80 1.244 . S
O71 Mn69 2.089 . S
O71 C78 1.256 1_545 S
O72 Mn64 2.160 . S
O72 C81 1.239 . S
O73 Mn66 2.089 . S
O73 C81 1.256 . S
O74 Mn69 2.251 . S
O74 C79 1.241 . S
O75 Mn69 2.087 . S
O75 C80 1.256 . S
C76 O82 1.278 . S
C76 O83 1.241 1_554 S
C77 O63 1.244 . S
C77 O65 1.256 . S
C78 O67 1.239 1_565 S
C78 O71 1.256 1_565 S
C79 O68 1.278 . S
C79 O74 1.241 . S
C80 O70 1.244 . S
C80 O75 1.256 . S
C81 O72 1.239 . S
C81 O73 1.256 . S
O82 Mn64 2.221 . S
O82 Mn66 2.290 . S
O82 C76 1.278 . S
O83 Mn66 2.251 1_556 S
O83 C76 1.241 1_556 S
O84 Mn85 2.163 . S
O84 C98 1.244 . S
Mn85 O84 2.163 . S
Mn85 O88 2.160 . S
Mn85 O89 2.221 . S
Mn85 O91 2.163 . S
Mn85 O93 2.160 . S
Mn85 O103 2.221 . S
O86 Mn87 2.087 . S
O86 C98 1.256 . S
Mn87 O86 2.087 . S
Mn87 O94 2.089 . S
Mn87 O103 2.290 . S
Mn87 O104 2.251 . S
O88 Mn85 2.160 . S
O88 C99 1.239 . S
O89 Mn85 2.221 . S
O89 Mn90 2.290 1_565 S
O89 C100 1.278 . S
Mn90 O89 2.290 1_545 S
Mn90 O92 2.088 1_545 S
Mn90 O95 2.251 1_545 S
Mn90 O96 2.087 . S
O91 Mn85 2.163 . S
O91 C101 1.244 . S
O92 Mn90 2.088 1_565 S
O92 C99 1.258 . S
O93 Mn85 2.160 . S
O93 C102 1.239 . S
O94 Mn87 2.089 . S
O94 C102 1.256 . S
O95 Mn90 2.251 1_565 S
O95 C100 1.241 . S
O96 Mn90 2.087 . S
O96 C101 1.256 1_545 S
C97 O103 1.278 . S
C97 O104 1.241 . S
C98 O84 1.244 . S
C98 O86 1.256 . S
C99 O88 1.239 . S
C99 O92 1.258 . S
C100 O89 1.278 . S
C100 O95 1.241 . S
C101 O91 1.244 . S
C101 O96 1.256 1_565 S
C102 O93 1.239 . S
C102 O94 1.256 . S
O103 Mn85 2.221 . S
O103 Mn87 2.290 . S
O103 C97 1.278 . S
O104 Mn87 2.251 . S
O104 C97 1.241 . S
O105 Mn106 2.163 . S
O105 C119 1.244 . S
Mn106 O105 2.163 . S
Mn106 O109 2.160 . S
Mn106 O110 2.221 . S
Mn106 O112 2.163 . S
Mn106 O114 2.160 . S
Mn106 O124 2.221 . S
O107 Mn108 2.087 . S
O107 C119 1.256 . S
Mn108 O107 2.087 . S
Mn108 O115 2.089 . S
Mn108 O124 2.290 . S
Mn108 O125 2.251 . S
O109 Mn106 2.160 . S
O109 C120 1.239 1_565 S
O110 Mn106 2.221 . S
O110 Mn111 2.290 . S
O110 C121 1.278 . S
Mn111 O110 2.290 . S
Mn111 O113 2.089 . S
Mn111 O116 2.251 . S
Mn111 O117 2.087 . S
O112 Mn106 2.163 . S
O112 C122 1.244 . S
O113 Mn111 2.089 . S
O113 C120 1.256 1_565 S
O114 Mn106 2.160 . S
O114 C123 1.239 . S
O115 Mn108 2.089 . S
O115 C123 1.256 . S
O116 Mn111 2.251 . S
O116 C121 1.241 . S
O117 Mn111 2.087 . S
O117 C122 1.256 . S
C118 O124 1.278 . S
C118 O125 1.241 . S
C119 O105 1.244 . S
C119 O107 1.256 . S
C120 O109 1.239 1_545 S
C120 O113 1.256 1_545 S
C121 O110 1.278 . S
C121 O116 1.241 . S
C122 O112 1.244 . S
C122 O117 1.256 . S
C123 O114 1.239 . S
C123 O115 1.256 . S
O124 Mn106 2.221 . S
O124 Mn108 2.290 . S
O124 C118 1.278 . S
O125 Mn108 2.251 . S
O125 C118 1.241 . S
O126 Mn127 2.163 . S
O126 C140 1.244 . S
Mn127 O126 2.163 . S
Mn127 O130 2.160 . S
Mn127 O131 2.221 . S
Mn127 O133 2.163 . S
Mn127 O135 2.160 . S
Mn127 O145 2.221 . S
O128 Mn129 2.087 . S
O128 C140 1.256 . S
Mn129 O128 2.087 . S
Mn129 O136 2.089 . S
Mn129 O145 2.290 . S
Mn129 O146 2.251 . S
O130 Mn127 2.160 . S
O130 C141 1.239 . S
O131 Mn127 2.221 . S
O131 Mn132 2.290 1_545 S
O131 C142 1.278 . S
Mn132 O131 2.290 1_565 S
Mn132 O134 2.088 1_565 S
Mn132 O137 2.251 1_565 S
Mn132 O138 2.087 . S
O133 Mn127 2.163 . S
O133 C143 1.244 . S
O134 Mn132 2.088 1_545 S
O134 C141 1.258 . S
O135 Mn127 2.160 . S
O135 C144 1.239 . S
O136 Mn129 2.089 . S
O136 C144 1.256 . S
O137 Mn132 2.251 1_545 S
O137 C142 1.241 . S
O138 Mn132 2.087 . S
O138 C143 1.256 1_565 S
C139 O145 1.278 . S
C139 O146 1.241 . S
C140 O126 1.244 . S
C140 O128 1.256 . S
C141 O130 1.239 . S
C141 O134 1.258 . S
C142 O131 1.278 . S
C142 O137 1.241 . S
C143 O133 1.244 . S
C143 O138 1.256 1_545 S
C144 O135 1.239 . S
C144 O136 1.256 . S
O145 Mn127 2.221 . S
O145 Mn129 2.290 . S
O145 C139 1.278 . S
O146 Mn129 2.251 . S
O146 C139 1.241 . S
O147 Mn148 2.163 . S
O147 C161 1.245 1_455 S
Mn148 O147 2.163 . S
Mn148 O151 2.160 . S
Mn148 O152 2.221 . S
Mn148 O154 2.163 . S
Mn148 O156 2.160 . S
Mn148 O166 2.221 . S
O149 Mn150 2.087 . S
O149 C161 1.255 . S
Mn150 O149 2.087 . S
Mn150 O157 2.089 . S
Mn150 O166 2.290 1_655 S
Mn150 O167 2.251 1_556 S
O151 Mn148 2.160 . S
O151 C162 1.239 1_545 S
O152 Mn148 2.221 . S
O152 Mn153 2.290 . S
O152 C163 1.278 . S
Mn153 O152 2.290 . S
Mn153 O155 2.089 . S
Mn153 O158 2.251 . S
Mn153 O159 2.087 . S
O154 Mn148 2.163 . S
O154 C164 1.244 . S
O155 Mn153 2.089 . S
O155 C162 1.256 1_545 S
O156 Mn148 2.160 . S
O156 C165 1.239 1_455 S
O157 Mn150 2.089 . S
O157 C165 1.256 . S
O158 Mn153 2.251 . S
O158 C163 1.241 . S
O159 Mn153 2.087 . S
O159 C164 1.256 . S
C160 O166 1.278 . S
C160 O167 1.241 1_456 S
C161 O147 1.245 1_655 S
C161 O149 1.255 . S
C162 O151 1.239 1_565 S
C162 O155 1.256 1_565 S
C163 O152 1.278 . S
C163 O158 1.241 . S
C164 O154 1.244 . S
C164 O159 1.256 . S
C165 O156 1.239 1_655 S
C165 O157 1.256 . S
O166 Mn148 2.221 . S
O166 Mn150 2.290 1_455 S
O166 C160 1.278 . S
O167 Mn150 2.251 1_554 S
O167 C160 1.241 1_654 S
O168 Mn169 2.163 . S
O168 C182 1.244 . S
Mn169 O168 2.163 . S
Mn169 O172 2.160 . S
Mn169 O173 2.221 . S
Mn169 O175 2.163 . S
Mn169 O177 2.160 . S
Mn169 O187 2.221 . S
O170 Mn171 2.087 . S
O170 C182 1.256 . S
Mn171 O170 2.087 . S
Mn171 O178 2.089 . S
Mn171 O187 2.290 . S
Mn171 O188 2.251 . S
O172 Mn169 2.160 . S
O172 C183 1.239 . S
O173 Mn169 2.221 . S
O173 Mn174 2.290 1_565 S
O173 C184 1.278 . S
Mn174 O173 2.290 1_545 S
Mn174 O176 2.088 1_545 S
Mn174 O179 2.251 1_545 S
Mn174 O180 2.087 . S
O175 Mn169 2.163 . S
O175 C185 1.244 . S
O176 Mn174 2.088 1_565 S
O176 C183 1.258 . S
O177 Mn169 2.160 . S
O177 C186 1.239 . S
O178 Mn171 2.089 . S
O178 C186 1.256 . S
O179 Mn174 2.251 1_565 S
O179 C184 1.241 . S
O180 Mn174 2.087 . S
O180 C185 1.256 1_545 S
C181 O187 1.278 . S
C181 O188 1.241 . S
C182 O168 1.244 . S
C182 O170 1.256 . S
C183 O172 1.239 . S
C183 O176 1.258 . S
C184 O173 1.278 . S
C184 O179 1.241 . S
C185 O175 1.244 . S
C185 O180 1.256 1_565 S
C186 O177 1.239 . S
C186 O178 1.256 . S
O187 Mn169 2.221 . S
O187 Mn171 2.290 . S
O187 C181 1.278 . S
O188 Mn171 2.251 . S
O188 C181 1.241 . S
O189 Mn190 2.163 . S
O189 C203 1.245 1_655 S
Mn190 O189 2.163 . S
Mn190 O193 2.160 . S
Mn190 O194 2.221 . S
Mn190 O196 2.163 . S
Mn190 O198 2.160 . S
Mn190 O208 2.221 . S
O191 Mn192 2.087 . S
O191 C203 1.255 . S
Mn192 O191 2.087 . S
Mn192 O199 2.089 . S
Mn192 O208 2.290 1_455 S
Mn192 O209 2.251 . S
O193 Mn190 2.160 . S
O193 C204 1.239 1_545 S
O194 Mn190 2.221 . S
O194 Mn195 2.290 . S
O194 C205 1.278 . S
Mn195 O194 2.290 . S
Mn195 O197 2.089 . S
Mn195 O200 2.251 . S
Mn195 O201 2.087 . S
O196 Mn190 2.163 . S
O196 C206 1.244 . S
O197 Mn195 2.089 . S
O197 C204 1.256 1_545 S
O198 Mn190 2.160 . S
O198 C207 1.239 1_655 S
O199 Mn192 2.089 . S
O199 C207 1.256 . S
O200 Mn195 2.251 . S
O200 C205 1.241 . S
O201 Mn195 2.087 . S
O201 C206 1.256 . S
C202 O208 1.278 . S
C202 O209 1.241 1_655 S
C203 O189 1.245 1_455 S
C203 O191 1.255 . S
C204 O193 1.239 1_565 S
C204 O197 1.256 1_565 S
C205 O194 1.278 . S
C205 O200 1.241 . S
C206 O196 1.244 . S
C206 O201 1.256 . S
C207 O198 1.239 1_455 S
C207 O199 1.256 . S
O208 Mn190 2.221 . S
O208 Mn192 2.290 1_655 S
O208 C202 1.278 . S
O209 Mn192 2.251 . S
O209 C202 1.241 1_455 S
O210 Mn211 2.163 . S
O210 C224 1.244 . S
Mn211 O210 2.163 . S
Mn211 O214 2.160 . S
Mn211 O215 2.221 . S
Mn211 O217 2.163 . S
Mn211 O219 2.160 . S
Mn211 O229 2.221 . S
O212 Mn213 2.087 . S
O212 C224 1.256 . S
Mn213 O212 2.087 . S
Mn213 O220 2.089 . S
Mn213 O229 2.290 . S
Mn213 O230 2.251 . S
O214 Mn211 2.160 . S
O214 C225 1.239 . S
O215 Mn211 2.221 . S
O215 Mn216 2.290 1_545 S
O215 C226 1.278 . S
Mn216 O215 2.290 1_565 S
Mn216 O218 2.088 1_565 S
Mn216 O221 2.251 1_565 S
Mn216 O222 2.087 . S
O217 Mn211 2.163 . S
O217 C227 1.244 . S
O218 Mn216 2.088 1_545 S
O218 C225 1.258 . S
O219 Mn211 2.160 . S
O219 C228 1.239 . S
O220 Mn213 2.089 . S
O220 C228 1.256 . S
O221 Mn216 2.251 1_545 S
O221 C226 1.241 . S
O222 Mn216 2.087 . S
O222 C227 1.256 1_565 S
C223 O229 1.278 . S
C223 O230 1.241 . S
C224 O210 1.244 . S
C224 O212 1.256 . S
C225 O214 1.239 . S
C225 O218 1.258 . S
C226 O215 1.278 . S
C226 O221 1.241 . S
C227 O217 1.244 . S
C227 O222 1.256 1_545 S
C228 O219 1.239 . S
C228 O220 1.256 . S
O229 Mn211 2.221 . S
O229 Mn213 2.290 . S
O229 C223 1.278 . S
O230 Mn213 2.251 . S
O230 C223 1.241 . S
O231 Mn232 2.163 . S
O231 C245 1.244 . S
Mn232 O231 2.163 . S
Mn232 O235 2.160 . S
Mn232 O236 2.221 . S
Mn232 O238 2.163 . S
Mn232 O240 2.160 . S
Mn232 O250 2.221 . S
O233 Mn234 2.087 . S
O233 C245 1.256 . S
Mn234 O233 2.087 . S
Mn234 O241 2.089 . S
Mn234 O250 2.290 . S
Mn234 O251 2.251 1_556 S
O235 Mn232 2.160 . S
O235 C246 1.239 1_565 S
O236 Mn232 2.221 . S
O236 Mn237 2.290 . S
O236 C247 1.278 . S
Mn237 O236 2.290 . S
Mn237 O239 2.089 . S
Mn237 O242 2.251 . S
Mn237 O243 2.087 . S
O238 Mn232 2.163 . S
O238 C248 1.244 . S
O239 Mn237 2.089 . S
O239 C246 1.256 1_565 S
O240 Mn232 2.160 . S
O240 C249 1.239 . S
O241 Mn234 2.089 . S
O241 C249 1.256 . S
O242 Mn237 2.251 . S
O242 C247 1.241 . S
O243 Mn237 2.087 . S
O243 C248 1.256 . S
C244 O250 1.278 . S
C244 O251 1.241 1_556 S
C245 O231 1.244 . S
C245 O233 1.256 . S
C246 O235 1.239 1_545 S
C246 O239 1.256 1_545 S
C247 O236 1.278 . S
C247 O242 1.241 . S
C248 O238 1.244 . S
C248 O243 1.256 . S
C249 O240 1.239 . S
C249 O241 1.256 . S
O250 Mn232 2.221 . S
O250 Mn234 2.290 . S
O250 C244 1.278 . S
O251 Mn234 2.251 1_554 S
O251 C244 1.241 1_554 S
O252 Mn253 2.163 . S
O252 C266 1.244 . S
Mn253 O252 2.163 . S
Mn253 O256 2.160 . S
Mn253 O257 2.221 . S
Mn253 O259 2.163 . S
Mn253 O261 2.160 . S
Mn253 O271 2.221 . S
O254 Mn255 2.087 . S
O254 C266 1.256 . S
Mn255 O254 2.087 . S
Mn255 O262 2.089 . S
Mn255 O271 2.290 . S
Mn255 O272 2.251 . S
O256 Mn253 2.160 . S
O256 C267 1.239 . S
O257 Mn253 2.221 . S
O257 Mn258 2.290 1_545 S
O257 C268 1.278 . S
Mn258 O257 2.290 1_565 S
Mn258 O260 2.088 1_565 S
Mn258 O263 2.251 1_565 S
Mn258 O264 2.087 . S
O259 Mn253 2.163 . S
O259 C269 1.244 . S
O260 Mn258 2.088 1_545 S
O260 C267 1.258 . S
O261 Mn253 2.160 . S
O261 C270 1.239 . S
O262 Mn255 2.089 . S
O262 C270 1.256 . S
O263 Mn258 2.251 1_545 S
O263 C268 1.241 . S
O264 Mn258 2.087 . S
O264 C269 1.256 1_565 S
C265 O271 1.278 . S
C265 O272 1.241 . S
C266 O252 1.244 . S
C266 O254 1.256 . S
C267 O256 1.239 . S
C267 O260 1.258 . S
C268 O257 1.278 . S
C268 O263 1.241 . S
C269 O259 1.244 . S
C269 O264 1.256 1_545 S
C270 O261 1.239 . S
C270 O262 1.256 . S
O271 Mn253 2.221 . S
O271 Mn255 2.290 . S
O271 C265 1.278 . S
O272 Mn255 2.251 . S
O272 C265 1.241 . S
O273 Mn274 2.163 . S
O273 C287 1.244 . S
Mn274 O273 2.163 . S
Mn274 O277 2.160 . S
Mn274 O278 2.221 . S
Mn274 O280 2.163 . S
Mn274 O282 2.160 . S
Mn274 O292 2.221 . S
O275 Mn276 2.087 . S
O275 C287 1.256 . S
Mn276 O275 2.087 . S
Mn276 O283 2.089 . S
Mn276 O292 2.290 . S
Mn276 O293 2.251 . S
O277 Mn274 2.160 . S
O277 C288 1.239 1_545 S
O278 Mn274 2.221 . S
O278 Mn279 2.290 . S
O278 C289 1.278 . S
Mn279 O278 2.290 . S
Mn279 O281 2.089 . S
Mn279 O284 2.251 . S
Mn279 O285 2.087 . S
O280 Mn274 2.163 . S
O280 C290 1.244 . S
O281 Mn279 2.089 . S
O281 C288 1.256 1_545 S
O282 Mn274 2.160 . S
O282 C291 1.239 . S
O283 Mn276 2.089 . S
O283 C291 1.256 . S
O284 Mn279 2.251 . S
O284 C289 1.241 . S
O285 Mn279 2.087 . S
O285 C290 1.256 . S
C286 O292 1.278 . S
C286 O293 1.241 . S
C287 O273 1.244 . S
C287 O275 1.256 . S
C288 O277 1.239 1_565 S
C288 O281 1.256 1_565 S
C289 O278 1.278 . S
C289 O284 1.241 . S
C290 O280 1.244 . S
C290 O285 1.256 . S
C291 O282 1.239 . S
C291 O283 1.256 . S
O292 Mn274 2.221 . S
O292 Mn276 2.290 . S
O292 C286 1.278 . S
O293 Mn276 2.251 . S
O293 C286 1.241 . S
O294 Mn295 2.163 . S
O294 C308 1.244 . S
Mn295 O294 2.163 . S
Mn295 O298 2.160 . S
Mn295 O299 2.221 . S
Mn295 O301 2.163 . S
Mn295 O303 2.160 . S
Mn295 O313 2.221 . S
O296 Mn297 2.087 . S
O296 C308 1.256 . S
Mn297 O296 2.087 . S
Mn297 O304 2.089 . S
Mn297 O313 2.290 . S
Mn297 O314 2.251 . S
O298 Mn295 2.160 . S
O298 C309 1.239 . S
O299 Mn295 2.221 . S
O299 Mn300 2.290 1_565 S
O299 C310 1.278 . S
Mn300 O299 2.290 1_545 S
Mn300 O302 2.088 1_545 S
Mn300 O305 2.251 1_545 S
Mn300 O306 2.087 . S
O301 Mn295 2.163 . S
O301 C311 1.244 . S
O302 Mn300 2.088 1_565 S
O302 C309 1.258 . S
O303 Mn295 2.160 . S
O303 C312 1.239 . S
O304 Mn297 2.089 . S
O304 C312 1.256 . S
O305 Mn300 2.251 1_565 S
O305 C310 1.241 . S
O306 Mn300 2.087 . S
O306 C311 1.256 1_545 S
C307 O313 1.278 . S
C307 O314 1.241 . S
C308 O294 1.244 . S
C308 O296 1.256 . S
C309 O298 1.239 . S
C309 O302 1.258 . S
C310 O299 1.278 . S
C310 O305 1.241 . S
C311 O301 1.244 . S
C311 O306 1.256 1_565 S
C312 O303 1.239 . S
C312 O304 1.256 . S
O313 Mn295 2.221 . S
O313 Mn297 2.290 . S
O313 C307 1.278 . S
O314 Mn297 2.251 . S
O314 C307 1.241 . S
O315 Mn316 2.163 . S
O315 C329 1.245 1_655 S
Mn316 O315 2.163 . S
Mn316 O319 2.160 . S
Mn316 O320 2.221 . S
Mn316 O322 2.163 . S
Mn316 O324 2.160 . S
Mn316 O334 2.221 . S
O317 Mn318 2.087 . S
O317 C329 1.255 . S
Mn318 O317 2.087 . S
Mn318 O325 2.089 . S
Mn318 O334 2.290 1_455 S
Mn318 O335 2.251 1_554 S
O319 Mn316 2.160 . S
O319 C330 1.239 1_565 S
O320 Mn316 2.221 . S
O320 Mn321 2.290 . S
O320 C331 1.278 . S
Mn321 O320 2.290 . S
Mn321 O323 2.089 . S
Mn321 O326 2.251 . S
Mn321 O327 2.087 . S
O322 Mn316 2.163 . S
O322 C332 1.244 . S
O323 Mn321 2.089 . S
O323 C330 1.256 1_565 S
O324 Mn316 2.160 . S
O324 C333 1.239 1_655 S
O325 Mn318 2.089 . S
O325 C333 1.256 . S
O326 Mn321 2.251 . S
O326 C331 1.241 . S
O327 Mn321 2.087 . S
O327 C332 1.256 . S
C328 O334 1.278 . S
C328 O335 1.241 1_654 S
C329 O315 1.245 1_455 S
C329 O317 1.255 . S
C330 O319 1.239 1_545 S
C330 O323 1.256 1_545 S
C331 O320 1.278 . S
C331 O326 1.241 . S
C332 O322 1.244 . S
C332 O327 1.256 . S
C333 O324 1.239 1_455 S
C333 O325 1.256 . S
O334 Mn316 2.221 . S
O334 Mn318 2.290 1_655 S
O334 C328 1.278 . S
O335 Mn318 2.251 1_556 S
O335 C328 1.241 1_456 S
O336 Mn337 2.163 . S
O336 C350 1.244 . S
Mn337 O336 2.163 . S
Mn337 O340 2.160 . S
Mn337 O341 2.221 . S
Mn337 O343 2.163 . S
Mn337 O345 2.160 . S
Mn337 O355 2.221 . S
O338 Mn339 2.087 . S
O338 C350 1.256 . S
Mn339 O338 2.087 . S
Mn339 O346 2.089 . S
Mn339 O355 2.290 . S
Mn339 O356 2.251 . S
O340 Mn337 2.160 . S
O340 C351 1.239 . S
O341 Mn337 2.221 . S
O341 Mn342 2.290 . S
O341 C352 1.278 . S
Mn342 O341 2.290 . S
Mn342 O344 2.089 . S
Mn342 O347 2.251 . S
Mn342 O348 2.087 . S
O343 Mn337 2.163 . S
O343 C353 1.244 . S
O344 Mn342 2.089 . S
O344 C351 1.256 . S
O345 Mn337 2.160 . S
O345 C354 1.239 . S
O346 Mn339 2.089 . S
O346 C354 1.256 . S
O347 Mn342 2.251 . S
O347 C352 1.241 . S
O348 Mn342 2.087 . S
O348 C353 1.256 . S
C349 O355 1.278 . S
C349 O356 1.241 . S
C350 O336 1.244 . S
C350 O338 1.256 . S
C351 O340 1.239 . S
C351 O344 1.256 . S
C352 O341 1.278 . S
C352 O347 1.241 . S
C353 O343 1.244 . S
C353 O348 1.256 . S
C354 O345 1.239 . S
C354 O346 1.256 . S
O355 Mn337 2.221 . S
O355 Mn339 2.290 . S
O355 C349 1.278 . S
O356 Mn339 2.251 . S
O356 C349 1.241 . S
O357 Mn358 2.163 . S
O357 C371 1.244 . S
Mn358 O357 2.163 . S
Mn358 O361 2.160 . S
Mn358 O362 2.221 . S
Mn358 O364 2.163 . S
Mn358 O366 2.160 . S
Mn358 O376 2.221 . S
O359 Mn360 2.087 . S
O359 C371 1.256 . S
Mn360 O359 2.087 . S
Mn360 O367 2.089 . S
Mn360 O376 2.290 . S
Mn360 O377 2.251 1_554 S
O361 Mn358 2.160 . S
O361 C372 1.239 . S
O362 Mn358 2.221 . S
O362 Mn363 2.290 . S
O362 C373 1.278 . S
Mn363 O362 2.290 . S
Mn363 O365 2.089 . S
Mn363 O368 2.251 . S
Mn363 O369 2.087 . S
O364 Mn358 2.163 . S
O364 C374 1.244 . S
O365 Mn363 2.089 . S
O365 C372 1.256 . S
O366 Mn358 2.160 . S
O366 C375 1.239 . S
O367 Mn360 2.089 . S
O367 C375 1.256 . S
O368 Mn363 2.251 . S
O368 C373 1.241 . S
O369 Mn363 2.087 . S
O369 C374 1.256 . S
C370 O376 1.278 . S
C370 O377 1.241 1_554 S
C371 O357 1.244 . S
C371 O359 1.256 . S
C372 O361 1.239 . S
C372 O365 1.256 . S
C373 O362 1.278 . S
C373 O368 1.241 . S
C374 O364 1.244 . S
C374 O369 1.256 . S
C375 O366 1.239 . S
C375 O367 1.256 . S
O376 Mn358 2.221 . S
O376 Mn360 2.290 . S
O376 C370 1.278 . S
O377 Mn360 2.251 1_556 S
O377 C370 1.241 1_556 S
O378 Mn379 2.163 . S
O378 C392 1.244 . S
Mn379 O378 2.163 . S
Mn379 O382 2.160 . S
Mn379 O383 2.221 . S
Mn379 O385 2.163 . S
Mn379 O387 2.160 . S
Mn379 O397 2.221 . S
O380 Mn381 2.087 . S
O380 C392 1.256 . S
Mn381 O380 2.087 . S
Mn381 O388 2.089 . S
Mn381 O397 2.290 . S
Mn381 O398 2.251 . S
O382 Mn379 2.160 . S
O382 C393 1.239 . S
O383 Mn379 2.221 . S
O383 Mn384 2.290 . S
O383 C394 1.278 . S
Mn384 O383 2.290 . S
Mn384 O386 2.089 . S
Mn384 O389 2.251 . S
Mn384 O390 2.087 . S
O385 Mn379 2.163 . S
O385 C395 1.244 . S
O386 Mn384 2.089 . S
O386 C393 1.256 . S
O387 Mn379 2.160 . S
O387 C396 1.239 . S
O388 Mn381 2.089 . S
O388 C396 1.256 . S
O389 Mn384 2.251 . S
O389 C394 1.241 . S
O390 Mn384 2.087 . S
O390 C395 1.256 . S
C391 O397 1.278 . S
C391 O398 1.241 . S
C392 O378 1.244 . S
C392 O380 1.256 . S
C393 O382 1.239 . S
C393 O386 1.256 . S
C394 O383 1.278 . S
C394 O389 1.241 . S
C395 O385 1.244 . S
C395 O390 1.256 . S
C396 O387 1.239 . S
C396 O388 1.256 . S
O397 Mn379 2.221 . S
O397 Mn381 2.290 . S
O397 C391 1.278 . S
O398 Mn381 2.251 . S
O398 C391 1.241 . S
O399 Mn400 2.163 . S
O399 C413 1.245 1_655 S
Mn400 O399 2.163 . S
Mn400 O403 2.160 . S
Mn400 O404 2.221 . S
Mn400 O406 2.163 . S
Mn400 O408 2.160 . S
Mn400 O418 2.221 . S
O401 Mn402 2.087 . S
O401 C413 1.255 . S
Mn402 O401 2.087 . S
Mn402 O409 2.089 . S
Mn402 O418 2.290 1_455 S
Mn402 O419 2.251 . S
O403 Mn400 2.160 . S
O403 C414 1.239 . S
O404 Mn400 2.221 . S
O404 Mn405 2.290 . S
O404 C415 1.278 . S
Mn405 O404 2.290 . S
Mn405 O407 2.089 . S
Mn405 O410 2.251 . S
Mn405 O411 2.087 . S
O406 Mn400 2.163 . S
O406 C416 1.244 . S
O407 Mn405 2.089 . S
O407 C414 1.256 . S
O408 Mn400 2.160 . S
O408 C417 1.239 1_655 S
O409 Mn402 2.089 . S
O409 C417 1.256 . S
O410 Mn405 2.251 . S
O410 C415 1.241 . S
O411 Mn405 2.087 . S
O411 C416 1.256 . S
C412 O418 1.278 . S
C412 O419 1.241 1_655 S
C413 O399 1.245 1_455 S
C413 O401 1.255 . S
C414 O403 1.239 . S
C414 O407 1.256 . S
C415 O404 1.278 . S
C415 O410 1.241 . S
C416 O406 1.244 . S
C416 O411 1.256 . S
C417 O408 1.239 1_455 S
C417 O409 1.256 . S
O418 Mn400 2.221 . S
O418 Mn402 2.290 1_655 S
O418 C412 1.278 . S
O419 Mn402 2.251 . S
O419 C412 1.241 1_455 S
O420 Mn421 2.163 . S
O420 C434 1.244 . S
Mn421 O420 2.163 . S
Mn421 O424 2.160 . S
Mn421 O425 2.221 . S
Mn421 O427 2.163 . S
Mn421 O429 2.160 . S
Mn421 O439 2.221 . S
O422 Mn423 2.087 . S
O422 C434 1.256 . S
Mn423 O422 2.087 . S
Mn423 O430 2.089 . S
Mn423 O439 2.290 . S
Mn423 O440 2.251 . S
O424 Mn421 2.160 . S
O424 C435 1.239 . S
O425 Mn421 2.221 . S
O425 Mn426 2.290 . S
O425 C436 1.278 . S
Mn426 O425 2.290 . S
Mn426 O428 2.089 . S
Mn426 O431 2.251 . S
Mn426 O432 2.087 . S
O427 Mn421 2.163 . S
O427 C437 1.244 . S
O428 Mn426 2.089 . S
O428 C435 1.256 . S
O429 Mn421 2.160 . S
O429 C438 1.239 . S
O430 Mn423 2.089 . S
O430 C438 1.256 . S
O431 Mn426 2.251 . S
O431 C436 1.241 . S
O432 Mn426 2.087 . S
O432 C437 1.256 . S
C433 O439 1.278 . S
C433 O440 1.241 . S
C434 O420 1.244 . S
C434 O422 1.256 . S
C435 O424 1.239 . S
C435 O428 1.256 . S
C436 O425 1.278 . S
C436 O431 1.241 . S
C437 O427 1.244 . S
C437 O432 1.256 . S
C438 O429 1.239 . S
C438 O430 1.256 . S
O439 Mn421 2.221 . S
O439 Mn423 2.290 . S
O439 C433 1.278 . S
O440 Mn423 2.251 . S
O440 C433 1.241 . S
O441 Mn442 2.163 . S
O441 C455 1.245 1_655 S
Mn442 O441 2.163 . S
Mn442 O445 2.160 . S
Mn442 O446 2.221 . S
Mn442 O448 2.163 . S
Mn442 O450 2.160 . S
Mn442 O460 2.221 . S
O443 Mn444 2.087 . S
O443 C455 1.255 . S
Mn444 O443 2.087 . S
Mn444 O451 2.089 . S
Mn444 O460 2.290 1_455 S
Mn444 O461 2.251 1_556 S
O445 Mn442 2.160 . S
O445 C456 1.239 . S
O446 Mn442 2.221 . S
O446 Mn447 2.290 . S
O446 C457 1.278 . S
Mn447 O446 2.290 . S
Mn447 O449 2.089 . S
Mn447 O452 2.251 . S
Mn447 O453 2.087 . S
O448 Mn442 2.163 . S
O448 C458 1.244 . S
O449 Mn447 2.089 . S
O449 C456 1.256 . S
O450 Mn442 2.160 . S
O450 C459 1.239 1_655 S
O451 Mn444 2.089 . S
O451 C459 1.256 . S
O452 Mn447 2.251 . S
O452 C457 1.241 . S
O453 Mn447 2.087 . S
O453 C458 1.256 . S
C454 O460 1.278 . S
C454 O461 1.241 1_656 S
C455 O441 1.245 1_455 S
C455 O443 1.255 . S
C456 O445 1.239 . S
C456 O449 1.256 . S
C457 O446 1.278 . S
C457 O452 1.241 . S
C458 O448 1.244 . S
C458 O453 1.256 . S
C459 O450 1.239 1_455 S
C459 O451 1.256 . S
O460 Mn442 2.221 . S
O460 Mn444 2.290 1_655 S
O460 C454 1.278 . S
O461 Mn444 2.251 1_554 S
O461 C454 1.241 1_454 S
O462 Mn463 2.163 . S
O462 C476 1.244 . S
Mn463 O462 2.163 . S
Mn463 O466 2.160 . S
Mn463 O467 2.221 . S
Mn463 O469 2.163 . S
Mn463 O471 2.160 . S
Mn463 O481 2.221 . S
O464 Mn465 2.087 . S
O464 C476 1.256 . S
Mn465 O464 2.087 . S
Mn465 O472 2.089 . S
Mn465 O481 2.290 . S
Mn465 O482 2.251 . S
O466 Mn463 2.160 . S
O466 C477 1.239 . S
O467 Mn463 2.221 . S
O467 Mn468 2.290 . S
O467 C478 1.278 . S
Mn468 O467 2.290 . S
Mn468 O470 2.089 . S
Mn468 O473 2.251 . S
Mn468 O474 2.087 . S
O469 Mn463 2.163 . S
O469 C479 1.244 . S
O470 Mn468 2.089 . S
O470 C477 1.256 . S
O471 Mn463 2.160 . S
O471 C480 1.239 . S
O472 Mn465 2.089 . S
O472 C480 1.256 . S
O473 Mn468 2.251 . S
O473 C478 1.241 . S
O474 Mn468 2.087 . S
O474 C479 1.256 . S
C475 O481 1.278 . S
C475 O482 1.241 . S
C476 O462 1.244 . S
C476 O464 1.256 . S
C477 O466 1.239 . S
C477 O470 1.256 . S
C478 O467 1.278 . S
C478 O473 1.241 . S
C479 O469 1.244 . S
C479 O474 1.256 . S
C480 O471 1.239 . S
C480 O472 1.256 . S
O481 Mn463 2.221 . S
O481 Mn465 2.290 . S
O481 C475 1.278 . S
O482 Mn465 2.251 . S
O482 C475 1.241 . S
O483 Mn484 2.163 . S
O483 C497 1.244 . S
Mn484 O483 2.163 . S
Mn484 O487 2.160 . S
Mn484 O488 2.221 . S
Mn484 O490 2.163 . S
Mn484 O492 2.160 . S
Mn484 O502 2.221 . S
O485 Mn486 2.087 . S
O485 C497 1.256 . S
Mn486 O485 2.087 . S
Mn486 O493 2.089 . S
Mn486 O502 2.290 . S
Mn486 O503 2.251 . S
O487 Mn484 2.160 . S
O487 C498 1.239 . S
O488 Mn484 2.221 . S
O488 Mn489 2.290 . S
O488 C499 1.278 . S
Mn489 O488 2.290 . S
Mn489 O491 2.089 . S
Mn489 O494 2.251 . S
Mn489 O495 2.087 . S
O490 Mn484 2.163 . S
O490 C500 1.244 . S
O491 Mn489 2.089 . S
O491 C498 1.256 . S
O492 Mn484 2.160 . S
O492 C501 1.239 . S
O493 Mn486 2.089 . S
O493 C501 1.256 . S
O494 Mn489 2.251 . S
O494 C499 1.241 . S
O495 Mn489 2.087 . S
O495 C500 1.256 . S
C496 O502 1.278 . S
C496 O503 1.241 . S
C497 O483 1.244 . S
C497 O485 1.256 . S
C498 O487 1.239 . S
C498 O491 1.256 . S
C499 O488 1.278 . S
C499 O494 1.241 . S
C500 O490 1.244 . S
C500 O495 1.256 . S
C501 O492 1.239 . S
C501 O493 1.256 . S
O502 Mn484 2.221 . S
O502 Mn486 2.290 . S
O502 C496 1.278 . S
O503 Mn486 2.251 . S
O503 C496 1.241 . S
O504 Mn505 2.163 . S
O504 C518 1.244 . S
Mn505 O504 2.163 . S
Mn505 O508 2.160 . S
Mn505 O509 2.221 . S
Mn505 O511 2.163 . S
Mn505 O513 2.160 . S
Mn505 O523 2.221 . S
O506 Mn507 2.087 . S
O506 C518 1.256 . S
Mn507 O506 2.087 . S
Mn507 O514 2.089 . S
Mn507 O523 2.290 . S
Mn507 O524 2.251 . S
O508 Mn505 2.160 . S
O508 C519 1.239 . S
O509 Mn505 2.221 . S
O509 Mn510 2.290 . S
O509 C520 1.278 . S
Mn510 O509 2.290 . S
Mn510 O512 2.089 . S
Mn510 O515 2.251 . S
Mn510 O516 2.087 . S
O511 Mn505 2.163 . S
O511 C521 1.244 . S
O512 Mn510 2.089 . S
O512 C519 1.256 . S
O513 Mn505 2.160 . S
O513 C522 1.239 . S
O514 Mn507 2.089 . S
O514 C522 1.256 . S
O515 Mn510 2.251 . S
O515 C520 1.241 . S
O516 Mn510 2.087 . S
O516 C521 1.256 . S
C517 O523 1.278 . S
C517 O524 1.241 . S
C518 O504 1.244 . S
C518 O506 1.256 . S
C519 O508 1.239 . S
C519 O512 1.256 . S
C520 O509 1.278 . S
C520 O515 1.241 . S
C521 O511 1.244 . S
C521 O516 1.256 . S
C522 O513 1.239 . S
C522 O514 1.256 . S
O523 Mn505 2.221 . S
O523 Mn507 2.290 . S
O523 C517 1.278 . S
O524 Mn507 2.251 . S
O524 C517 1.241 . S
O525 Mn526 2.163 . S
O525 C539 1.244 . S
Mn526 O525 2.163 . S
Mn526 O529 2.160 . S
Mn526 O530 2.221 . S
Mn526 O532 2.163 . S
Mn526 O534 2.160 . S
Mn526 O544 2.221 . S
O527 Mn528 2.087 . S
O527 C539 1.256 . S
Mn528 O527 2.087 . S
Mn528 O535 2.089 . S
Mn528 O544 2.290 . S
Mn528 O545 2.251 1_556 S
O529 Mn526 2.160 . S
O529 C540 1.239 . S
O530 Mn526 2.221 . S
O530 Mn531 2.290 . S
O530 C541 1.278 . S
Mn531 O530 2.290 . S
Mn531 O533 2.089 . S
Mn531 O536 2.251 . S
Mn531 O537 2.087 . S
O532 Mn526 2.163 . S
O532 C542 1.244 . S
O533 Mn531 2.089 . S
O533 C540 1.256 . S
O534 Mn526 2.160 . S
O534 C543 1.239 . S
O535 Mn528 2.089 . S
O535 C543 1.256 . S
O536 Mn531 2.251 . S
O536 C541 1.241 . S
O537 Mn531 2.087 . S
O537 C542 1.256 . S
C538 O544 1.278 . S
C538 O545 1.241 1_556 S
C539 O525 1.244 . S
C539 O527 1.256 . S
C540 O529 1.239 . S
C540 O533 1.256 . S
C541 O530 1.278 . S
C541 O536 1.241 . S
C542 O532 1.244 . S
C542 O537 1.256 . S
C543 O534 1.239 . S
C543 O535 1.256 . S
O544 Mn526 2.221 . S
O544 Mn528 2.290 . S
O544 C538 1.278 . S
O545 Mn528 2.251 1_554 S
O545 C538 1.241 1_554 S
O546 Mn547 2.163 . S
O546 C560 1.244 . S
Mn547 O546 2.163 . S
Mn547 O550 2.160 . S
Mn547 O551 2.221 . S
Mn547 O553 2.163 . S
Mn547 O555 2.160 . S
Mn547 O565 2.221 . S
O548 Mn549 2.087 . S
O548 C560 1.256 . S
Mn549 O548 2.087 . S
Mn549 O556 2.089 . S
Mn549 O565 2.290 . S
Mn549 O566 2.251 . S
O550 Mn547 2.160 . S
O550 C561 1.239 . S
O551 Mn547 2.221 . S
O551 Mn552 2.290 . S
O551 C562 1.278 . S
Mn552 O551 2.290 . S
Mn552 O554 2.089 . S
Mn552 O557 2.251 . S
Mn552 O558 2.087 . S
O553 Mn547 2.163 . S
O553 C563 1.244 . S
O554 Mn552 2.089 . S
O554 C561 1.256 . S
O555 Mn547 2.160 . S
O555 C564 1.239 . S
O556 Mn549 2.089 . S
O556 C564 1.256 . S
O557 Mn552 2.251 . S
O557 C562 1.241 . S
O558 Mn552 2.087 . S
O558 C563 1.256 . S
C559 O565 1.278 . S
C559 O566 1.241 . S
C560 O546 1.244 . S
C560 O548 1.256 . S
C561 O550 1.239 . S
C561 O554 1.256 . S
C562 O551 1.278 . S
C562 O557 1.241 . S
C563 O553 1.244 . S
C563 O558 1.256 . S
C564 O555 1.239 . S
C564 O556 1.256 . S
O565 Mn547 2.221 . S
O565 Mn549 2.290 . S
O565 C559 1.278 . S
O566 Mn549 2.251 . S
O566 C559 1.241 . S
O567 Mn568 2.163 . S
O567 C581 1.245 1_455 S
Mn568 O567 2.163 . S
Mn568 O571 2.160 . S
Mn568 O572 2.221 . S
Mn568 O574 2.163 . S
Mn568 O576 2.160 . S
Mn568 O586 2.221 . S
O569 Mn570 2.087 . S
O569 C581 1.255 . S
Mn570 O569 2.087 . S
Mn570 O577 2.089 . S
Mn570 O586 2.290 1_655 S
Mn570 O587 2.251 . S
O571 Mn568 2.160 . S
O571 C582 1.239 . S
O572 Mn568 2.221 . S
O572 Mn573 2.290 . S
O572 C583 1.278 . S
Mn573 O572 2.290 . S
Mn573 O575 2.089 . S
Mn573 O578 2.251 . S
Mn573 O579 2.087 . S
O574 Mn568 2.163 . S
O574 C584 1.244 . S
O575 Mn573 2.089 . S
O575 C582 1.256 . S
O576 Mn568 2.160 . S
O576 C585 1.239 1_455 S
O577 Mn570 2.089 . S
O577 C585 1.256 . S
O578 Mn573 2.251 . S
O578 C583 1.241 . S
O579 Mn573 2.087 . S
O579 C584 1.256 . S
C580 O586 1.278 . S
C580 O587 1.241 1_455 S
C581 O567 1.245 1_655 S
C581 O569 1.255 . S
C582 O571 1.239 . S
C582 O575 1.256 . S
C583 O572 1.278 . S
C583 O578 1.241 . S
C584 O574 1.244 . S
C584 O579 1.256 . S
C585 O576 1.239 1_655 S
C585 O577 1.256 . S
O586 Mn568 2.221 . S
O586 Mn570 2.290 1_455 S
O586 C580 1.278 . S
O587 Mn570 2.251 . S
O587 C580 1.241 1_655 S
O588 Mn589 2.163 . S
O588 C602 1.244 . S
Mn589 O588 2.163 . S
Mn589 O592 2.160 . S
Mn589 O593 2.221 . S
Mn589 O595 2.163 . S
Mn589 O597 2.160 . S
Mn589 O607 2.221 . S
O590 Mn591 2.087 . S
O590 C602 1.256 . S
Mn591 O590 2.087 . S
Mn591 O598 2.089 . S
Mn591 O607 2.290 . S
Mn591 O608 2.251 . S
O592 Mn589 2.160 . S
O592 C603 1.239 . S
O593 Mn589 2.221 . S
O593 Mn594 2.290 . S
O593 C604 1.278 . S
Mn594 O593 2.290 . S
Mn594 O596 2.089 . S
Mn594 O599 2.251 . S
Mn594 O600 2.087 . S
O595 Mn589 2.163 . S
O595 C605 1.244 . S
O596 Mn594 2.089 . S
O596 C603 1.256 . S
O597 Mn589 2.160 . S
O597 C606 1.239 . S
O598 Mn591 2.089 . S
O598 C606 1.256 . S
O599 Mn594 2.251 . S
O599 C604 1.241 . S
O600 Mn594 2.087 . S
O600 C605 1.256 . S
C601 O607 1.278 . S
C601 O608 1.241 . S
C602 O588 1.244 . S
C602 O590 1.256 . S
C603 O592 1.239 . S
C603 O596 1.256 . S
C604 O593 1.278 . S
C604 O599 1.241 . S
C605 O595 1.244 . S
C605 O600 1.256 . S
C606 O597 1.239 . S
C606 O598 1.256 . S
O607 Mn589 2.221 . S
O607 Mn591 2.290 . S
O607 C601 1.278 . S
O608 Mn591 2.251 . S
O608 C601 1.241 . S
O609 Mn610 2.163 . S
O609 C623 1.245 1_455 S
Mn610 O609 2.163 . S
Mn610 O613 2.160 . S
Mn610 O614 2.221 . S
Mn610 O616 2.163 . S
Mn610 O618 2.160 . S
Mn610 O628 2.221 . S
O611 Mn612 2.087 . S
O611 C623 1.255 . S
Mn612 O611 2.087 . S
Mn612 O619 2.089 . S
Mn612 O628 2.290 1_655 S
Mn612 O629 2.251 1_554 S
O613 Mn610 2.160 . S
O613 C624 1.239 . S
O614 Mn610 2.221 . S
O614 Mn615 2.290 . S
O614 C625 1.278 . S
Mn615 O614 2.290 . S
Mn615 O617 2.089 . S
Mn615 O620 2.251 . S
Mn615 O621 2.087 . S
O616 Mn610 2.163 . S
O616 C626 1.244 . S
O617 Mn615 2.089 . S
O617 C624 1.256 . S
O618 Mn610 2.160 . S
O618 C627 1.239 1_455 S
O619 Mn612 2.089 . S
O619 C627 1.256 . S
O620 Mn615 2.251 . S
O620 C625 1.241 . S
O621 Mn615 2.087 . S
O621 C626 1.256 . S
C622 O628 1.278 . S
C622 O629 1.241 1_454 S
C623 O609 1.245 1_655 S
C623 O611 1.255 . S
C624 O613 1.239 . S
C624 O617 1.256 . S
C625 O614 1.278 . S
C625 O620 1.241 . S
C626 O616 1.244 . S
C626 O621 1.256 . S
C627 O618 1.239 1_655 S
C627 O619 1.256 . S
O628 Mn610 2.221 . S
O628 Mn612 2.290 1_455 S
O628 C622 1.278 . S
O629 Mn612 2.251 1_556 S
O629 C622 1.241 1_656 S
O630 Mn631 2.163 . S
O630 C644 1.244 . S
Mn631 O630 2.163 . S
Mn631 O634 2.160 . S
Mn631 O635 2.221 . S
Mn631 O637 2.163 . S
Mn631 O639 2.160 . S
Mn631 O649 2.221 . S
O632 Mn633 2.087 . S
O632 C644 1.256 . S
Mn633 O632 2.087 . S
Mn633 O640 2.089 . S
Mn633 O649 2.290 . S
Mn633 O650 2.251 . S
O634 Mn631 2.160 . S
O634 C645 1.239 . S
O635 Mn631 2.221 . S
O635 Mn636 2.290 . S
O635 C646 1.278 . S
Mn636 O635 2.290 . S
Mn636 O638 2.089 . S
Mn636 O641 2.251 . S
Mn636 O642 2.087 . S
O637 Mn631 2.163 . S
O637 C647 1.244 . S
O638 Mn636 2.089 . S
O638 C645 1.256 . S
O639 Mn631 2.160 . S
O639 C648 1.239 . S
O640 Mn633 2.089 . S
O640 C648 1.256 . S
O641 Mn636 2.251 . S
O641 C646 1.241 . S
O642 Mn636 2.087 . S
O642 C647 1.256 . S
C643 O649 1.278 . S
C643 O650 1.241 . S
C644 O630 1.244 . S
C644 O632 1.256 . S
C645 O634 1.239 . S
C645 O638 1.256 . S
C646 O635 1.278 . S
C646 O641 1.241 . S
C647 O637 1.244 . S
C647 O642 1.256 . S
C648 O639 1.239 . S
C648 O640 1.256 . S
O649 Mn631 2.221 . S
O649 Mn633 2.290 . S
O649 C643 1.278 . S
O650 Mn633 2.251 . S
O650 C643 1.241 . S
O651 Mn652 2.163 . S
O651 C665 1.244 . S
Mn652 O651 2.163 . S
Mn652 O655 2.160 . S
Mn652 O656 2.221 . S
Mn652 O658 2.163 . S
Mn652 O660 2.160 . S
Mn652 O670 2.221 . S
O653 Mn654 2.087 . S
O653 C665 1.256 . S
Mn654 O653 2.087 . S
Mn654 O661 2.089 . S
Mn654 O670 2.290 . S
Mn654 O671 2.251 . S
O655 Mn652 2.160 . S
O655 C666 1.239 . S
O656 Mn652 2.221 . S
O656 Mn657 2.290 . S
O656 C667 1.278 . S
Mn657 O656 2.290 . S
Mn657 O659 2.089 . S
Mn657 O662 2.251 . S
Mn657 O663 2.087 . S
O658 Mn652 2.163 . S
O658 C668 1.244 . S
O659 Mn657 2.089 . S
O659 C666 1.256 . S
O660 Mn652 2.160 . S
O660 C669 1.239 . S
O661 Mn654 2.089 . S
O661 C669 1.256 . S
O662 Mn657 2.251 . S
O662 C667 1.241 . S
O663 Mn657 2.087 . S
O663 C668 1.256 . S
C664 O670 1.278 . S
C664 O671 1.241 . S
C665 O651 1.244 . S
C665 O653 1.256 . S
C666 O655 1.239 . S
C666 O659 1.256 . S
C667 O656 1.278 . S
C667 O662 1.241 . S
C668 O658 1.244 . S
C668 O663 1.256 . S
C669 O660 1.239 . S
C669 O661 1.256 . S
O670 Mn652 2.221 . S
O670 Mn654 2.290 . S
O670 C664 1.278 . S
O671 Mn654 2.251 . S
O671 C664 1.241 . S
C15 C583 0.672 . S
C39 C184 0.672 . S
C60 C541 0.672 . S
C226 C81 0.672 . S
C102 C625 0.672 . S
C310 C123 0.672 . S
C667 C144 0.672 . S
C165 C268 0.672 . S
C186 C415 0.672 . S
C207 C13 0.672 . S
C373 C228 0.672 . S
C58 C249 0.672 . S
C270 C457 0.672 . S
C291 C142 0.672 . S
C312 C499 0.672 . S
C100 C333 0.672 . S
C247 C351 0.672 . S
C520 C375 0.672 . S
C205 C396 0.672 . S
C417 C562 0.672 . S
C289 C438 0.672 . S
C646 C459 0.672 . S
C331 C480 0.672 . S
C501 C604 0.672 . S
C522 C79 0.672 . S
C543 C349 0.672 . S
C564 C37 0.672 . S
C585 C394 0.672 . S
C121 C606 0.672 . S
C478 C627 0.672 . S
C648 C163 0.672 . S
C669 C436 0.672 . S
C17 C392 1.679 1_455 S
C413 C35 1.680 1_455 S
C56 C353 1.680 . S
C77 C371 1.680 . S
C476 C98 1.679 1_655 S
C119 C497 1.680 . S
C434 C140 1.680 . S
C161 C455 1.680 1_655 S
C560 C182 1.679 1_455 S
C203 C581 1.680 1_455 S
C224 C518 1.680 . S
C245 C539 1.680 . S
C644 C266 1.679 1_455 S
C665 C287 1.680 . S
C308 C602 1.680 . S
C329 C623 1.680 1_455 S
C16 C517 0.735 . S
C202 C34 0.735 1_645 S
C55 C559 0.735 . S
C76 C244 0.735 1_544 S
C601 C97 0.735 . S
C286 C118 0.735 1_545 S
C139 C643 0.735 . S
C160 C328 0.735 1_446 S
C352 C181 0.735 . S
C391 C223 0.735 . S
C433 C265 0.735 . S
C307 C475 0.735 . S
C370 C538 0.736 1_554 S
C412 C580 0.735 1_655 S
C622 C454 0.735 1_454 S
C664 C496 0.736 . S
C18 C120 2.086 . S
C141 C36 2.086 . S
C162 C57 2.086 . S
C99 C78 2.086 . S
C183 C288 2.086 . S
C204 C309 2.086 . S
C330 C225 2.086 . S
C246 C267 2.086 . S
C354 C456 2.087 . S
C372 C477 2.086 . S
C393 C498 2.087 . S
C435 C414 2.087 . S
C519 C624 2.087 . S
C540 C645 2.086 . S
C666 C561 2.087 . S
C582 C603 2.087 . S
C14 C101 1.797 1_545 S
C38 C122 1.797 . S
C143 C59 1.797 1_545 S
C164 C80 1.797 1_556 S
C185 C269 1.797 1_565 S
C290 C206 1.797 . S
C311 C227 1.797 1_565 S
C332 C248 1.797 1_554 S
C350 C437 1.797 . S
C458 C374 1.797 1_556 S
C395 C479 1.797 . S
C500 C416 1.797 . S
C605 C521 1.797 . S
C542 C626 1.797 1_556 S
C563 C647 1.797 . S
C584 C668 1.797 . S
