# Generated by pormake.
# Topology fcu, (12)-cn, num edge types: 1
# Building blocks:
#     Node 0, Type 0, BuildingBlock: ZALLEG_clean_sbu_0, # of connection points: 12
#     Node 1, Type 0, BuildingBlock: ZALLEG_clean_sbu_0, # of connection points: 12
#     Node 2, Type 0, BuildingBlock: ZALLEG_clean_sbu_0, # of connection points: 12
#     Node 3, Type 0, BuildingBlock: ZALLEG_clean_sbu_0, # of connection points: 12
#     Edge 4, Type (0, 0), BuildingBlock: KIFKEQ_clean_linker_1, # of connection points: 2
#     Edge 5, Type (0, 0), BuildingBlock: KIFKEQ_clean_linker_1, # of connection points: 2
#     Edge 6, Type (0, 0), BuildingBlock: KIFKEQ_clean_linker_1, # of connection points: 2
#     Edge 7, Type (0, 0), BuildingBlock: KIFKEQ_clean_linker_1, # of connection points: 2
#     Edge 8, Type (0, 0), BuildingBlock: KIFKEQ_clean_linker_1, # of connection points: 2
#     Edge 9, Type (0, 0), BuildingBlock: KIFKEQ_clean_linker_1, # of connection points: 2
#     Edge 10, Type (0, 0), BuildingBlock: KIFKEQ_clean_linker_1, # of connection points: 2
#     Edge 11, Type (0, 0), BuildingBlock: KIFKEQ_clean_linker_1, # of connection points: 2
#     Edge 12, Type (0, 0), BuildingBlock: KIFKEQ_clean_linker_1, # of connection points: 2
#     Edge 13, Type (0, 0), BuildingBlock: KIFKEQ_clean_linker_1, # of connection points: 2
#     Edge 14, Type (0, 0), BuildingBlock: KIFKEQ_clean_linker_1, # of connection points: 2
#     Edge 15, Type (0, 0), BuildingBlock: KIFKEQ_clean_linker_1, # of connection points: 2
#     Edge 16, Type (0, 0), BuildingBlock: KIFKEQ_clean_linker_1, # of connection points: 2
#     Edge 17, Type (0, 0), BuildingBlock: KIFKEQ_clean_linker_1, # of connection points: 2
#     Edge 18, Type (0, 0), BuildingBlock: KIFKEQ_clean_linker_1, # of connection points: 2
#     Edge 19, Type (0, 0), BuildingBlock: KIFKEQ_clean_linker_1, # of connection points: 2
#     Edge 20, Type (0, 0), BuildingBlock: KIFKEQ_clean_linker_1, # of connection points: 2
#     Edge 21, Type (0, 0), BuildingBlock: KIFKEQ_clean_linker_1, # of connection points: 2
#     Edge 22, Type (0, 0), BuildingBlock: KIFKEQ_clean_linker_1, # of connection points: 2
#     Edge 23, Type (0, 0), BuildingBlock: KIFKEQ_clean_linker_1, # of connection points: 2
#     Edge 24, Type (0, 0), BuildingBlock: KIFKEQ_clean_linker_1, # of connection points: 2
#     Edge 25, Type (0, 0), BuildingBlock: KIFKEQ_clean_linker_1, # of connection points: 2
#     Edge 26, Type (0, 0), BuildingBlock: KIFKEQ_clean_linker_1, # of connection points: 2
#     Edge 27, Type (0, 0), BuildingBlock: KIFKEQ_clean_linker_1, # of connection points: 2
# Relax obj value: 0.000
# Max RMSD: 0.000
# Mean RMSD: 0.000
data_MOF--net-fcu--node1-ZALLEG_clean_sbu_0--edge1-KIFKEQ_clean_linker_1
_symmetry_space_group_name_H-M    P1
_symmetry_Int_Tables_number       1
_symmetry_cell_setting            triclinic
loop_
_symmetry_equiv_pos_as_xyz
'x, y, z'
_cell_length_a     26.916679
_cell_length_b     26.917255
_cell_length_c     26.917414
_cell_angle_alpha  89.995441
_cell_angle_beta   90.002429
_cell_angle_gamma 89.999372
loop_
_atom_site_label
_atom_site_type_symbol
_atom_site_fract_x
_atom_site_fract_y
_atom_site_fract_z
_atom_type_partial_charge
H0 H 0.94581 0.9458 0.94531 0.0
O1 O 0.96694 0.96695 0.96659 0.0
Tb2 Tb 0.92303 1.0123 0.01247 0.0
Tb3 Tb 0.01268 0.92304 1.0121 0.0
Tb4 Tb 0.01255 0.01295 0.92302 0.0
O5 O 0.96695 0.96657 0.05799 0.0
O6 O 0.96678 0.0583 0.96704 0.0
O7 O 0.96672 0.05791 0.05834 0.0
O8 O 0.05824 0.96674 0.05799 0.0
O9 O 0.05812 0.05849 0.96708 0.0
O10 O 0.05828 0.96716 0.96664 0.0
H11 H 0.94582 0.94527 0.07911 0.0
H12 H 0.94557 0.07954 0.94593 0.0
Tb13 Tb 0.01249 1.01218 0.102 0.0
Tb14 Tb 1.01236 0.10202 0.01292 0.0
H15 H 0.94548 0.07897 0.07957 0.0
H16 H 0.07945 0.9455 0.07908 0.0
Tb17 Tb 0.102 0.01268 0.01254 0.0
H18 H 0.07929 0.0798 0.946 0.0
H19 H 0.07951 0.94612 0.94537 0.0
O20 O 0.05811 0.05809 0.05841 0.0
H21 H 0.07926 0.07921 0.07969 0.0
O22 O 0.88042 0.9426 0.01275 0.0
O23 O 0.14462 0.08239 1.01228 0.0
O24 O 0.14487 0.94311 0.01279 0.0
O25 O 0.88015 0.08189 1.01221 0.0
O26 O 0.01325 0.8806 0.94231 0.0
O27 O 0.01269 0.14449 0.08268 0.0
O28 O 1.0119 0.14506 0.94341 0.0
O29 O 1.0124 0.88002 0.08163 0.0
O30 O 0.94292 0.01357 0.88025 0.0
O31 O 0.08212 1.01179 0.14477 0.0
O32 O 0.94282 1.01226 0.14471 0.0
O33 O 0.08222 0.01353 0.8803 0.0
O34 O 0.94312 0.88014 1.01144 0.0
O35 O 0.08194 0.14488 0.01342 0.0
O36 O 0.94262 0.1446 0.0136 0.0
O37 O 0.0824 0.88043 1.01163 0.0
O38 O 0.88025 1.01175 0.0821 0.0
O39 O 0.14478 0.01247 0.94292 0.0
O40 O 0.14472 0.01298 0.0822 0.0
O41 O 0.88032 1.0119 0.9428 0.0
O42 O 0.0129 0.94238 0.14445 0.0
O43 O 0.01296 0.08273 0.88058 0.0
O44 O 1.01229 0.94343 0.87997 0.0
O45 O 1.01204 0.08168 0.14504 0.0
C46 C 0.89558 0.89513 1.0121 0.0
C47 C 0.12947 0.12987 0.01293 0.0
C48 C 0.12988 0.89557 1.01211 0.0
C49 C 0.89514 0.12944 0.01293 0.0
C50 C 0.01283 0.89585 0.89487 0.0
C51 C 1.01233 0.12925 0.13013 0.0
C52 C 1.01245 0.13016 0.89584 0.0
C53 C 0.0127 0.89492 0.12921 0.0
C54 C 0.8954 0.01276 0.8953 0.0
C55 C 0.12963 1.01232 0.12971 0.0
C56 C 0.89532 1.01196 0.12961 0.0
C57 C 0.12972 0.0131 0.8954 0.0
H58 H 0.94554 0.44551 0.44597 0.0
O59 O 0.96676 0.46675 0.46706 0.0
Tb60 Tb 0.92301 0.51256 0.51263 0.0
Tb61 Tb 1.01247 0.42304 0.5128 0.0
Tb62 Tb 1.01237 0.51229 0.42301 0.0
O63 O 0.96686 0.467 0.55839 0.0
O64 O 0.96678 0.55809 0.46677 0.0
O65 O 0.96691 0.55834 0.55812 0.0
O66 O 0.05825 0.46697 0.55822 0.0
O67 O 0.05812 0.55809 0.46663 0.0
O68 O 0.05806 0.46669 0.46687 0.0
H69 H 0.94569 0.44589 0.57966 0.0
H70 H 0.94558 0.57922 0.44555 0.0
Tb71 Tb 0.01263 0.51276 0.60199 0.0
Tb72 Tb 0.01253 0.60202 0.51227 0.0
H73 H 0.94576 0.57959 0.57927 0.0
H74 H 0.07947 0.44583 0.57941 0.0
Tb75 Tb 0.10199 0.51248 0.51231 0.0
H76 H 0.07928 0.57924 0.44539 0.0
H77 H 0.07918 0.44544 0.44569 0.0
O78 O 0.05826 0.55826 0.55797 0.0
H79 H 0.07948 0.57946 0.57909 0.0
O80 O 0.88024 0.44293 0.51231 0.0
O81 O 0.14476 0.58211 0.51163 0.0
O82 O 0.1447 0.44282 0.51211 0.0
O83 O 0.8803 0.58222 0.51304 0.0
O84 O 0.01269 0.3801 0.44326 0.0
O85 O 0.01292 0.64495 0.5818 0.0
O86 O 1.01217 0.64458 0.44251 0.0
O87 O 1.01216 0.38049 0.58255 0.0
O88 O 0.94266 0.51189 0.38038 0.0
O89 O 0.08235 0.51245 0.64461 0.0
O90 O 0.94304 0.51319 0.64484 0.0
O91 O 0.08194 0.51257 0.38014 0.0
O92 O 0.9428 0.38032 0.5133 0.0
O93 O 0.0822 0.64472 0.5125 0.0
O94 O 0.9429 0.64478 0.5119 0.0
O95 O 0.0821 0.38027 0.51327 0.0
O96 O 0.88038 0.51221 0.58234 0.0
O97 O 0.14463 0.51187 0.44263 0.0
O98 O 0.14484 0.51302 0.58192 0.0
O99 O 0.88017 0.51292 0.44304 0.0
O100 O 0.01294 0.44324 0.64495 0.0
O101 O 0.01264 0.58183 0.38008 0.0
O102 O 1.01196 0.44251 0.38049 0.0
O103 O 1.01246 0.58251 0.64455 0.0
C104 C 0.89529 0.39541 0.51287 0.0
C105 C 0.1297 0.62963 0.51208 0.0
C106 C 0.12961 0.39532 0.51266 0.0
C107 C 0.89539 0.62973 0.51242 0.0
C108 C 1.01226 0.39504 0.3957 0.0
C109 C 0.01272 0.62999 0.62935 0.0
C110 C 1.01239 0.62937 0.39504 0.0
C111 C 0.01257 0.39569 0.63001 0.0
C112 C 0.89517 0.51234 0.39551 0.0
C113 C 0.12983 0.51272 0.62945 0.0
C114 C 0.8955 0.51275 0.62983 0.0
C115 C 0.12947 0.51222 0.39516 0.0
H116 H 0.44566 0.94565 0.44562 0.0
O117 O 0.46684 0.96685 0.46679 0.0
Tb118 Tb 0.42302 0.01248 0.51247 0.0
Tb119 Tb 0.51254 0.92303 0.51242 0.0
Tb120 Tb 0.51247 0.01261 0.423 0.0
O121 O 0.46692 0.96686 0.55813 0.0
O122 O 0.4668 0.05824 0.46685 0.0
O123 O 0.46679 0.05811 0.55824 0.0
O124 O 0.55823 0.9668 0.55813 0.0
O125 O 0.5581 0.05824 0.46691 0.0
O126 O 0.55818 0.96689 0.46674 0.0
H127 H 0.44575 0.94568 0.57934 0.0
H128 H 0.44562 0.07943 0.44567 0.0
Tb129 Tb 0.51262 0.01249 0.60198 0.0
Tb130 Tb 0.5124 0.10201 0.51264 0.0
H131 H 0.44559 0.07924 0.57945 0.0
H132 H 0.57941 0.94559 0.57929 0.0
Tb133 Tb 0.602 0.0125 0.51245 0.0
H134 H 0.57927 0.07947 0.44576 0.0
H135 H 0.57935 0.94574 0.44551 0.0
O136 O 0.55822 0.05819 0.55816 0.0
H137 H 0.57943 0.07937 0.57932 0.0
O138 O 0.38031 0.94282 0.51199 0.0
O139 O 0.64469 0.08219 0.51203 0.0
O140 O 0.64477 0.94289 0.51278 0.0
O141 O 0.38022 0.0821 0.51222 0.0
O142 O 0.51282 0.88035 0.44273 0.0
O143 O 0.51189 0.1447 0.5823 0.0
O144 O 0.51204 0.14482 0.44302 0.0
O145 O 0.51229 0.88024 0.58203 0.0
O146 O 0.44282 1.01226 0.38027 0.0
O147 O 0.58227 0.01287 0.64468 0.0
O148 O 0.44295 0.01287 0.64473 0.0
O149 O 0.5821 0.01298 0.38023 0.0
O150 O 0.44291 0.88026 0.5128 0.0
O151 O 0.58207 0.14476 0.51308 0.0
O152 O 0.44276 0.14472 0.51305 0.0
O153 O 0.5822 0.8803 0.51203 0.0
O154 O 0.38033 1.01202 0.58217 0.0
O155 O 0.6447 1.01211 0.44278 0.0
O156 O 0.64481 1.0122 0.58206 0.0
O157 O 0.38025 0.01291 0.44286 0.0
O158 O 0.51298 0.94278 0.64466 0.0
O159 O 0.51276 0.08232 0.38036 0.0
O160 O 0.51217 0.943 0.38019 0.0
O161 O 0.51311 0.08205 0.64482 0.0
C162 C 0.3954 0.89532 0.51244 0.0
C163 C 0.62959 0.1297 0.51257 0.0
C164 C 0.62971 0.89538 0.51236 0.0
C165 C 0.39526 0.12961 0.51263 0.0
C166 C 0.51249 0.89548 0.39523 0.0
C167 C 0.51249 0.12956 0.62978 0.0
C168 C 0.51242 0.12981 0.39549 0.0
C169 C 0.51263 0.89527 0.62955 0.0
C170 C 0.39531 0.01256 0.39536 0.0
C171 C 0.62976 0.01253 0.62958 0.0
C172 C 0.39542 1.01244 0.62968 0.0
C173 C 0.62962 0.01259 0.39528 0.0
H174 H 0.44565 0.44566 0.9457 0.0
O175 O 0.46683 0.46685 0.96687 0.0
Tb176 Tb 0.42302 0.51267 1.01238 0.0
Tb177 Tb 0.5123 0.42304 0.01274 0.0
Tb178 Tb 0.51268 0.51235 0.92302 0.0
O179 O 0.46666 0.46704 0.05826 0.0
O180 O 0.46698 0.55815 0.96665 0.0
O181 O 0.46686 0.55837 0.05799 0.0
O182 O 0.55804 0.46687 0.05834 0.0
O183 O 0.55835 0.55806 0.9668 0.0
O184 O 0.55814 0.46667 0.96703 0.0
H185 H 0.44542 0.44595 0.07948 0.0
H186 H 0.44584 0.5793 0.94538 0.0
Tb187 Tb 0.51238 0.5127 0.102 0.0
Tb188 Tb 0.51264 0.60202 1.01227 0.0
H189 H 0.44568 0.57964 0.07909 0.0
H190 H 0.57918 0.44569 0.07957 0.0
Tb191 Tb 0.60199 0.51239 0.01264 0.0
H192 H 0.5796 0.57918 0.94562 0.0
H193 H 0.57931 0.4454 0.94592 0.0
O194 O 0.55816 0.55822 0.05814 0.0
H195 H 0.57933 0.57942 0.07932 0.0
O196 O 0.38014 0.44311 1.01196 0.0
O197 O 0.64485 0.58197 0.01291 0.0
O198 O 0.6446 0.44266 0.01249 0.0
O199 O 0.38039 0.58238 0.0127 0.0
O200 O 0.51197 0.38017 0.94314 0.0
O201 O 0.51296 0.6449 0.08188 0.0
O202 O 0.51232 0.64462 0.94257 0.0
O203 O 0.51179 0.38043 0.08244 0.0
O204 O 0.44307 0.51194 0.88018 0.0
O205 O 0.58198 0.51237 0.14484 0.0
O206 O 0.44268 0.51319 0.14464 0.0
O207 O 0.58237 0.51263 0.88039 0.0
O208 O 0.4426 0.38043 0.01321 0.0
O209 O 0.58235 0.64464 1.01181 0.0
O210 O 0.44306 0.64487 1.01175 0.0
O211 O 0.5819 0.38018 0.01326 0.0
O212 O 0.38018 0.51242 0.08198 0.0
O213 O 0.64486 0.5119 0.94306 0.0
O214 O 0.64464 0.51273 0.08233 0.0
O215 O 0.38039 0.51313 0.94267 0.0
O216 O 0.51258 0.44313 0.1449 0.0
O217 O 0.5131 0.58192 0.88011 0.0
O218 O 0.5131 0.44263 0.88045 0.0
O219 O 0.51213 0.58243 0.14458 0.0
C220 C 0.39512 0.39557 0.01264 0.0
C221 C 0.62984 0.6295 1.01239 0.0
C222 C 0.62945 0.39518 0.01288 0.0
C223 C 0.39553 0.62986 1.01214 0.0
C224 C 0.51253 0.39514 0.89559 0.0
C225 C 0.51251 0.62991 0.12942 0.0
C226 C 0.51273 0.62946 0.8951 0.0
C227 C 0.51216 0.39559 0.12991 0.0
C228 C 0.39553 0.51251 0.89518 0.0
C229 C 0.6295 0.51255 0.12982 0.0
C230 C 0.39518 0.51289 0.12951 0.0
C231 C 0.62985 0.51224 0.89553 0.0
H232 H 0.0383 0.22698 0.12062 0.0
H233 H 0.98625 0.11942 0.22787 0.0
H234 H 0.03896 0.29066 0.18473 0.0
H235 H 0.98525 0.1835 0.29166 0.0
H236 H 0.03714 0.297 0.40574 0.0
H237 H 0.03787 0.23317 0.34175 0.0
H238 H 0.98602 0.34055 0.23414 0.0
H239 H 0.98695 0.40473 0.29776 0.0
C240 C 0.02656 0.217 0.1578 0.0
C241 C 1.01229 0.16806 0.16911 0.0
C242 C 0.0267 0.25364 0.19458 0.0
C243 C 1.01207 0.24239 0.2435 0.0
C244 C 0.99758 0.19341 0.25467 0.0
C245 C 0.99792 0.15665 0.21799 0.0
C246 C 0.02583 0.307 0.36843 0.0
C247 C 1.0121 0.35604 0.35689 0.0
C248 C 0.02601 0.27028 0.33172 0.0
C249 C 1.01197 0.28155 0.28264 0.0
C250 C 0.99792 0.33061 0.27125 0.0
C251 C 0.99822 0.36744 0.30785 0.0
H252 H 0.90472 0.0393 0.22697 0.0
H253 H 0.79787 0.98482 0.12024 0.0
H254 H 0.84059 0.04039 0.29067 0.0
H255 H 0.73409 0.98425 0.18434 0.0
H256 H 0.6195 0.03649 0.29697 0.0
H257 H 0.68356 0.03718 0.23322 0.0
H258 H 0.79161 0.9878 0.34133 0.0
H259 H 0.72791 0.98877 0.40541 0.0
C260 C 0.86764 0.02709 0.2172 0.0
C261 C 0.85642 1.01202 0.16849 0.0
C262 C 0.83084 0.0275 0.25384 0.0
C263 C 0.78204 1.01234 0.24281 0.0
C264 C 0.77098 0.99702 0.19406 0.0
C265 C 0.80766 0.99711 0.15729 0.0
C266 C 0.65691 0.02571 0.30716 0.0
C267 C 0.66853 0.0126 0.35635 0.0
C268 C 0.69368 0.02587 0.27048 0.0
C269 C 0.74289 0.01246 0.28197 0.0
C270 C 0.75437 0.99917 0.3312 0.0
C271 C 0.71772 0.99948 0.36798 0.0
H272 H 0.03698 0.90486 0.22739 0.0
H273 H 0.98876 0.79664 0.119 0.0
H274 H 0.03775 0.84078 0.29108 0.0
H275 H 0.98789 0.73287 0.18307 0.0
H276 H 0.03951 0.61973 0.29761 0.0
H277 H 0.0405 0.68374 0.23376 0.0
H278 H 0.98468 0.79048 0.34001 0.0
H279 H 0.98534 0.72685 0.40423 0.0
C280 C 0.02611 0.86748 0.2172 0.0
C281 C 0.01283 0.85593 0.16804 0.0
C282 C 0.02631 0.8307 0.25386 0.0
C283 C 0.01277 0.78153 0.24239 0.0
C284 C 0.99934 0.77008 0.19318 0.0
C285 C 0.9996 0.80677 0.15641 0.0
C286 C 0.02736 0.65685 0.30733 0.0
C287 C 1.01242 0.66817 0.35606 0.0
C288 C 0.0277 0.69357 0.27061 0.0
C289 C 0.01262 0.74241 0.28158 0.0
C290 C 0.9974 0.75356 0.33034 0.0
C291 C 0.99755 0.71697 0.36717 0.0
H292 H 0.40494 0.98615 0.29774 0.0
H293 H 0.29759 0.03864 0.40497 0.0
H294 H 0.34082 0.98511 0.23403 0.0
H295 H 0.23383 0.03926 0.34089 0.0
H296 H 0.11971 0.98721 0.2277 0.0
H297 H 0.18379 0.98633 0.29145 0.0
H298 H 0.29139 0.03791 0.18393 0.0
H299 H 0.22769 0.03713 0.11984 0.0
C300 C 0.36774 0.99791 0.30763 0.0
C301 C 0.35641 1.01244 0.35648 0.0
C302 C 0.33096 0.99754 0.27099 0.0
C303 C 0.28202 1.01218 0.28215 0.0
C304 C 0.27083 0.02691 0.33105 0.0
C305 C 0.3075 0.0268 0.36781 0.0
C306 C 0.15704 0.99843 0.21766 0.0
C307 C 0.16854 1.01221 0.16862 0.0
C308 C 0.1938 0.99816 0.25433 0.0
C309 C 0.24289 1.01213 0.243 0.0
C310 C 0.25426 0.02609 0.19392 0.0
C311 C 0.21761 0.02589 0.15714 0.0
H312 H 0.98748 0.90572 0.79692 0.0
H313 H 0.03859 0.79804 0.90452 0.0
H314 H 0.98666 0.84163 0.73317 0.0
H315 H 0.03944 0.73435 0.84043 0.0
H316 H 0.98721 0.62044 0.72724 0.0
H317 H 0.9865 0.68464 0.79084 0.0
H318 H 0.03926 0.79169 0.68334 0.0
H319 H 0.03833 0.72783 0.61936 0.0
C320 C 0.99898 0.86847 0.8069 0.0
C321 C 0.01299 0.85703 0.85588 0.0
C322 C 0.99875 0.8317 0.77022 0.0
C323 C 0.01301 0.78267 0.7815 0.0
C324 C 0.02735 0.77141 0.8305 0.0
C325 C 0.02709 0.80806 0.86727 0.0
C326 C 0.99874 0.65767 0.71717 0.0
C327 C 0.01277 0.66898 0.66816 0.0
C328 C 0.99856 0.6945 0.75376 0.0
C329 C 0.01291 0.74348 0.74239 0.0
C330 C 0.02716 0.75466 0.69335 0.0
C331 C 0.02685 0.71792 0.65664 0.0
H332 H 0.22744 0.98698 0.90505 0.0
H333 H 0.12016 0.03946 0.79772 0.0
H334 H 0.29114 0.98602 0.84096 0.0
H335 H 0.18426 0.04023 0.73399 0.0
H336 H 0.29726 0.98798 0.6198 0.0
H337 H 0.23354 0.98743 0.68389 0.0
H338 H 0.3414 0.03838 0.79146 0.0
H339 H 0.40546 0.03721 0.72774 0.0
C340 C 0.21753 0.99876 0.86787 0.0
C341 C 0.16865 0.01319 0.85652 0.0
C342 C 0.25418 0.99846 0.83109 0.0
C343 C 0.24301 0.0131 0.78216 0.0
C344 C 0.19411 0.02785 0.77098 0.0
C345 C 0.15733 0.02765 0.80764 0.0
C346 C 0.30739 0.99911 0.65712 0.0
C347 C 0.35653 0.01256 0.66861 0.0
C348 C 0.27073 0.99906 0.6939 0.0
C349 C 0.28215 0.01294 0.74299 0.0
C350 C 0.33132 0.02663 0.75433 0.0
C351 C 0.36809 0.02619 0.71767 0.0
H352 H 0.03734 0.40584 0.72807 0.0
H353 H 0.98782 0.29762 0.62027 0.0
H354 H 0.03818 0.34185 0.79193 0.0
H355 H 0.98704 0.23401 0.68445 0.0
H356 H 0.03908 0.12071 0.79828 0.0
H357 H 0.04 0.18482 0.73459 0.0
H358 H 0.98542 0.29164 0.8414 0.0
H359 H 0.98619 0.22787 0.9055 0.0
C360 C 0.0262 0.36848 0.71806 0.0
C361 C 0.01258 0.35687 0.66901 0.0
C362 C 0.02645 0.33177 0.7548 0.0
C363 C 0.01262 0.28264 0.7435 0.0
C364 C 0.99876 0.27118 0.69441 0.0
C365 C 0.99897 0.30777 0.65758 0.0
C366 C 0.0272 0.15787 0.80818 0.0
C367 C 0.01258 0.16914 0.85702 0.0
C368 C 0.02749 0.19465 0.77154 0.0
C369 C 0.01268 0.24353 0.78269 0.0
C370 C 0.99789 0.25468 0.83158 0.0
C371 C 0.99809 0.21801 0.86835 0.0
H372 H 0.72764 0.98702 0.61981 0.0
H373 H 0.61998 0.03813 0.72741 0.0
H374 H 0.79138 0.98627 0.6839 0.0
H375 H 0.68407 0.03904 0.79114 0.0
H376 H 0.79751 0.98728 0.90505 0.0
H377 H 0.73382 0.98636 0.84093 0.0
H378 H 0.84113 0.03904 0.73366 0.0
H379 H 0.9052 0.03824 0.7974 0.0
C380 C 0.71765 0.99854 0.65705 0.0
C381 C 0.66867 0.01257 0.66846 0.0
C382 C 0.75431 0.99834 0.69383 0.0
C383 C 0.74303 0.01266 0.74283 0.0
C384 C 0.69401 0.02694 0.75409 0.0
C385 C 0.65724 0.02665 0.71743 0.0
C386 C 0.80752 0.99873 0.86779 0.0
C387 C 0.85651 0.01277 0.85638 0.0
C388 C 0.77088 0.99844 0.831 0.0
C389 C 0.78217 0.0127 0.78199 0.0
C390 C 0.83118 0.02699 0.77072 0.0
C391 C 0.86794 0.02677 0.8074 0.0
H392 H 0.29708 0.40546 0.98774 0.0
H393 H 0.40494 0.29769 0.03811 0.0
H394 H 0.23332 0.3414 0.98715 0.0
H395 H 0.34083 0.23401 0.03922 0.0
H396 H 0.2273 0.12028 0.98726 0.0
H397 H 0.29096 0.18441 0.98651 0.0
H398 H 0.18373 0.29142 0.03989 0.0
H399 H 0.11967 0.22763 0.03895 0.0
C400 C 0.30712 0.36819 0.99911 0.0
C401 C 0.35617 0.35672 0.01285 0.0
C402 C 0.27044 0.33143 0.99903 0.0
C403 C 0.28177 0.2824 0.01318 0.0
C404 C 0.33084 0.27109 0.02723 0.0
C405 C 0.36763 0.30773 0.02683 0.0
C406 C 0.2173 0.15748 0.9989 0.0
C407 C 0.16833 0.16881 0.01306 0.0
C408 C 0.25392 0.19428 0.99872 0.0
C409 C 0.24264 0.24322 0.0132 0.0
C410 C 0.19366 0.25441 0.02765 0.0
C411 C 0.15691 0.21772 0.02734 0.0
H412 H 0.40535 0.72758 0.98603 0.0
H413 H 0.29769 0.6203 0.03781 0.0
H414 H 0.34129 0.79137 0.98497 0.0
H415 H 0.23403 0.68443 0.03844 0.0
H416 H 0.12008 0.79769 0.98664 0.0
H417 H 0.18419 0.734 0.98561 0.0
H418 H 0.29169 0.84141 0.03763 0.0
H419 H 0.22793 0.90547 0.03698 0.0
C420 C 0.3681 0.71769 0.99763 0.0
C421 C 0.35667 0.6688 1.01197 0.0
C422 C 0.33135 0.75438 0.99725 0.0
C423 C 0.28236 0.74321 1.01169 0.0
C424 C 0.27107 0.69428 0.02624 0.0
C425 C 0.3077 0.65748 0.02612 0.0
C426 C 0.15738 0.80773 0.99793 0.0
C427 C 0.16884 0.85672 1.01188 0.0
C428 C 0.19417 0.77108 0.99757 0.0
C429 C 0.24324 0.78239 1.01164 0.0
C430 C 0.25457 0.83144 0.02575 0.0
C431 C 0.21789 0.86819 0.02562 0.0
H432 H 0.72751 0.40503 0.98807 0.0
H433 H 0.61942 0.29707 0.03751 0.0
H434 H 0.79119 0.34092 0.98721 0.0
H435 H 0.68346 0.2333 0.03833 0.0
H436 H 0.79742 0.11975 0.98674 0.0
H437 H 0.73367 0.18383 0.98579 0.0
H438 H 0.84054 0.29083 0.03993 0.0
H439 H 0.90466 0.22714 0.03914 0.0
C440 C 0.7174 0.3677 0.9992 0.0
C441 C 0.66831 0.35622 0.01284 0.0
C442 C 0.75404 0.33091 0.99894 0.0
C443 C 0.74264 0.2818 0.01279 0.0
C444 C 0.69351 0.27044 0.02662 0.0
C445 C 0.65676 0.30713 0.0264 0.0
C446 C 0.80731 0.15694 0.99851 0.0
C447 C 0.85619 0.16829 0.01296 0.0
C448 C 0.77064 0.19371 0.99821 0.0
C449 C 0.78179 0.24264 0.01285 0.0
C450 C 0.8307 0.25384 0.02756 0.0
C451 C 0.86748 0.21719 0.02735 0.0
H452 H 0.90531 0.79728 0.98639 0.0
H453 H 0.79786 0.90478 0.03818 0.0
H454 H 0.84123 0.73353 0.98573 0.0
H455 H 0.73418 0.84067 0.03923 0.0
H456 H 0.62008 0.7275 0.98735 0.0
H457 H 0.68421 0.79115 0.98653 0.0
H458 H 0.7916 0.68358 0.03845 0.0
H459 H 0.72781 0.61954 0.03759 0.0
C460 C 0.8681 0.80724 0.99806 0.0
C461 C 0.85672 0.85619 1.01222 0.0
C462 C 0.83134 0.77056 0.99793 0.0
C463 C 0.78239 0.78179 0.01247 0.0
C464 C 0.77118 0.83077 0.02693 0.0
C465 C 0.80782 0.86755 0.02656 0.0
C466 C 0.65737 0.71741 0.99864 0.0
C467 C 0.66879 0.66836 1.01243 0.0
C468 C 0.69417 0.75404 0.99843 0.0
C469 C 0.74322 0.74267 0.01249 0.0
C470 C 0.7545 0.69359 0.02655 0.0
C471 C 0.71781 0.65685 0.02628 0.0
H472 H 0.62033 0.53894 0.79799 0.0
H473 H 0.72749 0.48578 0.9051 0.0
H474 H 0.68445 0.54 0.7343 0.0
H475 H 0.79127 0.48517 0.84101 0.0
H476 H 0.90555 0.53732 0.72796 0.0
H477 H 0.84151 0.53805 0.79175 0.0
H478 H 0.73371 0.48733 0.68401 0.0
H479 H 0.79737 0.48827 0.6199 0.0
C480 C 0.65749 0.52702 0.80786 0.0
C481 C 0.66878 0.51233 0.85667 0.0
C482 C 0.69428 0.5274 0.77122 0.0
C483 C 0.74317 0.51259 0.78235 0.0
C484 C 0.75431 0.49766 0.8312 0.0
C485 C 0.71763 0.49777 0.86797 0.0
C486 C 0.86819 0.52626 0.71788 0.0
C487 C 0.85663 0.51278 0.66877 0.0
C488 C 0.83144 0.52644 0.75457 0.0
C489 C 0.78231 0.51268 0.74319 0.0
C490 C 0.77088 0.49899 0.69405 0.0
C491 C 0.80751 0.49928 0.65726 0.0
H492 H 0.2275 0.53906 0.61986 0.0
H493 H 0.12032 0.48607 0.72702 0.0
H494 H 0.29125 0.5398 0.68395 0.0
H495 H 0.18444 0.48508 0.79072 0.0
H496 H 0.29735 0.53688 0.90511 0.0
H497 H 0.23367 0.53771 0.84101 0.0
H498 H 0.34155 0.4872 0.73326 0.0
H499 H 0.4056 0.48809 0.79701 0.0
C500 C 0.21763 0.52713 0.65701 0.0
C501 C 0.16876 0.51262 0.66832 0.0
C502 C 0.2543 0.52731 0.69378 0.0
C503 C 0.24316 0.51245 0.74265 0.0
C504 C 0.19427 0.49763 0.75379 0.0
C505 C 0.15748 0.49797 0.71714 0.0
C506 C 0.30751 0.5259 0.86775 0.0
C507 C 0.35665 0.51249 0.85623 0.0
C508 C 0.27086 0.52612 0.83096 0.0
C509 C 0.2823 0.51245 0.78182 0.0
C510 C 0.33147 0.49879 0.77043 0.0
C511 C 0.36823 0.49906 0.80712 0.0
H512 H 0.12022 0.54063 0.29809 0.0
H513 H 0.22663 0.48408 0.40417 0.0
H514 H 0.18433 0.54182 0.23435 0.0
H515 H 0.29035 0.48356 0.34003 0.0
H516 H 0.40544 0.53575 0.22805 0.0
H517 H 0.34135 0.53649 0.29174 0.0
H518 H 0.23285 0.48938 0.18309 0.0
H519 H 0.2966 0.4903 0.11906 0.0
C520 C 0.1572 0.52799 0.30769 0.0
C521 C 0.16831 0.51231 0.35623 0.0
C522 C 0.19398 0.52844 0.27104 0.0
C523 C 0.24265 0.51272 0.28188 0.0
C524 C 0.25359 0.49678 0.33046 0.0
C525 C 0.21694 0.49684 0.36725 0.0
C526 C 0.36792 0.5255 0.21772 0.0
C527 C 0.35621 0.51298 0.16839 0.0
C528 C 0.33114 0.52568 0.25437 0.0
C529 C 0.2818 0.5129 0.24273 0.0
C530 C 0.2702 0.50024 0.19335 0.0
C531 C 0.30689 0.50052 0.1566 0.0
H532 H 0.61978 0.48627 0.22748 0.0
H533 H 0.72722 0.53868 0.12029 0.0
H534 H 0.68385 0.48528 0.29125 0.0
H535 H 0.79092 0.53934 0.18442 0.0
H536 H 0.90499 0.48719 0.29753 0.0
H537 H 0.84089 0.48635 0.23383 0.0
H538 H 0.73337 0.53798 0.34139 0.0
H539 H 0.79711 0.53716 0.40546 0.0
C540 C 0.65698 0.49803 0.21761 0.0
C541 C 0.66836 0.51249 0.16875 0.0
C542 C 0.69374 0.49768 0.25429 0.0
C543 C 0.74269 0.51228 0.24314 0.0
C544 C 0.75392 0.527 0.19424 0.0
C545 C 0.71727 0.52686 0.15745 0.0
C546 C 0.86769 0.49844 0.3076 0.0
C547 C 0.85622 0.51223 0.35664 0.0
C548 C 0.8309 0.49819 0.27095 0.0
C549 C 0.78183 0.51219 0.2823 0.0
C550 C 0.77049 0.52615 0.33139 0.0
C551 C 0.80717 0.52592 0.36815 0.0
H552 H 0.40532 0.79732 0.53754 0.0
H553 H 0.29735 0.90519 0.48763 0.0
H554 H 0.34124 0.73358 0.53845 0.0
H555 H 0.23364 0.8411 0.48684 0.0
H556 H 0.12002 0.72731 0.53832 0.0
H557 H 0.18413 0.79101 0.53944 0.0
H558 H 0.29126 0.68407 0.48571 0.0
H559 H 0.22752 0.61999 0.4863 0.0
C560 C 0.368 0.80737 0.52632 0.0
C561 C 0.3565 0.8564 0.51253 0.0
C562 C 0.33123 0.7707 0.5266 0.0
C563 C 0.28214 0.78203 0.51263 0.0
C564 C 0.27077 0.83111 0.49866 0.0
C565 C 0.30743 0.86788 0.49886 0.0
C566 C 0.15724 0.71739 0.52666 0.0
C567 C 0.16861 0.66852 0.51223 0.0
C568 C 0.19403 0.75404 0.52707 0.0
C569 C 0.243 0.74286 0.51257 0.0
C570 C 0.25423 0.69394 0.49795 0.0
C571 C 0.21756 0.65717 0.49803 0.0
H572 H 0.11968 0.29724 0.53739 0.0
H573 H 0.22763 0.40521 0.48765 0.0
H574 H 0.18375 0.2335 0.53814 0.0
H575 H 0.29134 0.34111 0.48674 0.0
H576 H 0.40484 0.22728 0.53891 0.0
H577 H 0.34074 0.29102 0.53963 0.0
H578 H 0.23388 0.1841 0.48532 0.0
H579 H 0.29761 0.11999 0.48624 0.0
C580 C 0.157 0.30731 0.5262 0.0
C581 C 0.16851 0.35639 0.51258 0.0
C582 C 0.19376 0.27064 0.52638 0.0
C583 C 0.24285 0.282 0.51245 0.0
C584 C 0.25421 0.3311 0.49854 0.0
C585 C 0.21756 0.36788 0.49883 0.0
C586 C 0.36767 0.21738 0.52705 0.0
C587 C 0.35636 0.1685 0.5126 0.0
C588 C 0.3309 0.25404 0.52723 0.0
C589 C 0.28201 0.24286 0.51247 0.0
C590 C 0.27084 0.19395 0.49777 0.0
C591 C 0.3075 0.15717 0.49807 0.0
H592 H 0.90519 0.72756 0.48669 0.0
H593 H 0.79747 0.62 0.53779 0.0
H594 H 0.84111 0.7913 0.48572 0.0
H595 H 0.73377 0.6841 0.5385 0.0
H596 H 0.61996 0.79758 0.48659 0.0
H597 H 0.68407 0.73387 0.48564 0.0
H598 H 0.79134 0.84107 0.53855 0.0
H599 H 0.72759 0.90515 0.53786 0.0
C600 C 0.86793 0.71759 0.49816 0.0
C601 C 0.85649 0.66864 0.51229 0.0
C602 C 0.83116 0.75426 0.49784 0.0
C603 C 0.78214 0.74301 0.51211 0.0
C604 C 0.77084 0.69402 0.52644 0.0
C605 C 0.80749 0.65724 0.52628 0.0
C606 C 0.65721 0.80756 0.4981 0.0
C607 C 0.66862 0.8565 0.51226 0.0
C608 C 0.694 0.77091 0.49778 0.0
C609 C 0.743 0.78217 0.5121 0.0
C610 C 0.75428 0.83115 0.52646 0.0
C611 C 0.7176 0.86792 0.5263 0.0
H612 H 0.72744 0.12006 0.48687 0.0
H613 H 0.61983 0.22748 0.53845 0.0
H614 H 0.79115 0.18416 0.48619 0.0
H615 H 0.68392 0.2912 0.5395 0.0
H616 H 0.79728 0.4053 0.48789 0.0
H617 H 0.73357 0.34122 0.48701 0.0
H618 H 0.84104 0.23373 0.53894 0.0
H619 H 0.90513 0.29745 0.53811 0.0
C620 C 0.71745 0.15726 0.4985 0.0
C621 C 0.66848 0.16862 0.51264 0.0
C622 C 0.75411 0.19404 0.49836 0.0
C623 C 0.74285 0.24299 0.51287 0.0
C624 C 0.69385 0.2542 0.52725 0.0
C625 C 0.65708 0.21754 0.52689 0.0
C626 C 0.80733 0.368 0.49918 0.0
C627 C 0.85637 0.35652 0.51296 0.0
C628 C 0.77067 0.33123 0.49892 0.0
C629 C 0.78199 0.28216 0.51295 0.0
C630 C 0.83105 0.27083 0.52704 0.0
C631 C 0.86783 0.3075 0.52681 0.0
H632 H 0.53356 0.40575 0.79666 0.0
H633 H 0.49147 0.29619 0.90629 0.0
H634 H 0.53436 0.34173 0.73297 0.0
H635 H 0.49056 0.23247 0.84225 0.0
H636 H 0.54215 0.1207 0.72649 0.0
H637 H 0.54299 0.18478 0.79028 0.0
H638 H 0.48183 0.28991 0.68532 0.0
H639 H 0.48275 0.22626 0.62111 0.0
C640 C 0.52407 0.36808 0.80716 0.0
C641 C 0.51252 0.35617 0.85669 0.0
C642 C 0.52426 0.33133 0.77049 0.0
C643 C 0.51245 0.28179 0.78229 0.0
C644 C 0.50068 0.26999 0.83184 0.0
C645 C 0.50094 0.30666 0.86861 0.0
C646 C 0.52881 0.15749 0.71706 0.0
C647 C 0.51246 0.16839 0.6687 0.0
C648 C 0.52905 0.19424 0.75375 0.0
C649 C 0.51241 0.24266 0.74312 0.0
C650 C 0.49578 0.25336 0.69472 0.0
C651 C 0.49607 0.21676 0.65789 0.0
H652 H 0.53686 0.90521 0.72776 0.0
H653 H 0.48835 0.79709 0.6194 0.0
H654 H 0.53773 0.84106 0.79141 0.0
H655 H 0.48758 0.73327 0.68341 0.0
H656 H 0.53963 0.61997 0.79758 0.0
H657 H 0.54042 0.6841 0.73383 0.0
H658 H 0.48487 0.79064 0.84042 0.0
H659 H 0.48574 0.72692 0.90452 0.0
C660 C 0.52596 0.86784 0.71757 0.0
C661 C 0.51262 0.85632 0.66842 0.0
C662 C 0.52621 0.83102 0.75419 0.0
C663 C 0.51266 0.78186 0.7427 0.0
C664 C 0.49908 0.77047 0.69352 0.0
C665 C 0.49928 0.80718 0.6568 0.0
C666 C 0.52751 0.65708 0.80739 0.0
C667 C 0.5127 0.66832 0.85618 0.0
C668 C 0.52773 0.69386 0.77073 0.0
C669 C 0.51265 0.74268 0.78183 0.0
C670 C 0.49758 0.75375 0.83064 0.0
C671 C 0.49785 0.7171 0.86742 0.0
H672 H 0.53677 0.72812 0.11938 0.0
H673 H 0.48799 0.61993 0.22755 0.0
H674 H 0.53757 0.79185 0.18347 0.0
H675 H 0.48714 0.68399 0.29127 0.0
H676 H 0.53924 0.79792 0.40462 0.0
H677 H 0.54003 0.73425 0.34045 0.0
H678 H 0.48482 0.84103 0.2339 0.0
H679 H 0.48569 0.90508 0.2977 0.0
C680 C 0.5258 0.71799 0.15675 0.0
C681 C 0.51242 0.66886 0.1683 0.0
C682 C 0.52601 0.75466 0.19353 0.0
C683 C 0.51237 0.74322 0.24269 0.0
C684 C 0.49872 0.69406 0.25409 0.0
C685 C 0.49897 0.6573 0.21742 0.0
C686 C 0.52719 0.8078 0.36751 0.0
C687 C 0.51247 0.85663 0.3563 0.0
C688 C 0.52741 0.77118 0.3307 0.0
C689 C 0.51241 0.78234 0.28187 0.0
C690 C 0.49745 0.8312 0.27081 0.0
C691 C 0.49772 0.86794 0.3075 0.0
H692 H 0.53729 0.11998 0.29743 0.0
H693 H 0.4877 0.22788 0.40551 0.0
H694 H 0.53809 0.18412 0.23375 0.0
H695 H 0.48686 0.29166 0.34148 0.0
H696 H 0.53862 0.40523 0.22754 0.0
H697 H 0.53959 0.34111 0.29128 0.0
H698 H 0.4851 0.23422 0.18449 0.0
H699 H 0.48577 0.29796 0.1204 0.0
C700 C 0.52612 0.1573 0.30754 0.0
C701 C 0.51246 0.16876 0.35662 0.0
C702 C 0.52635 0.1941 0.27091 0.0
C703 C 0.51246 0.24319 0.28232 0.0
C704 C 0.49861 0.25453 0.33143 0.0
C705 C 0.49885 0.21783 0.36817 0.0
C706 C 0.52676 0.36806 0.21768 0.0
C707 C 0.51217 0.35673 0.16884 0.0
C708 C 0.52709 0.33127 0.25433 0.0
C709 C 0.51237 0.28236 0.24318 0.0
C710 C 0.49753 0.2712 0.19431 0.0
C711 C 0.49768 0.30786 0.15755 0.0
loop_
_geom_bond_atom_site_label_1
_geom_bond_atom_site_label_2
_geom_bond_distance
_geom_bond_site_symmetry_2
_ccdc_geom_bond_type
H0 O1 0.850 . S
O1 H0 0.850 . S
O1 Tb2 2.341 1_566 S
O1 Tb3 2.341 1_656 S
O1 Tb4 2.341 1_665 S
Tb2 O1 2.341 1_544 S
Tb2 O5 2.341 1_545 S
Tb2 O6 2.341 1_554 S
Tb2 O7 2.341 . S
Tb2 O22 2.344 1_545 S
Tb2 O25 2.344 . S
Tb2 O38 2.344 . S
Tb2 O41 2.344 1_554 S
Tb3 O1 2.341 1_454 S
Tb3 O5 2.341 1_455 S
Tb3 O8 2.341 . S
Tb3 O10 2.341 1_554 S
Tb3 O26 2.344 1_554 S
Tb3 O29 2.344 . S
Tb3 O34 2.344 1_455 S
Tb3 O37 2.344 . S
Tb4 O1 2.341 1_445 S
Tb4 O6 2.341 1_455 S
Tb4 O9 2.341 . S
Tb4 O10 2.341 1_545 S
Tb4 O30 2.344 1_455 S
Tb4 O33 2.344 . S
Tb4 O43 2.344 . S
Tb4 O44 2.344 1_545 S
O5 Tb2 2.341 1_565 S
O5 Tb3 2.341 1_655 S
O5 H11 0.850 . S
O5 Tb13 2.341 1_665 S
O6 Tb2 2.341 1_556 S
O6 Tb4 2.341 1_655 S
O6 H12 0.850 . S
O6 Tb14 2.341 1_656 S
O7 Tb2 2.341 . S
O7 Tb13 2.341 1_655 S
O7 Tb14 2.341 1_655 S
O7 H15 0.850 . S
O8 Tb3 2.341 . S
O8 Tb13 2.341 1_565 S
O8 H16 0.850 . S
O8 Tb17 2.341 1_565 S
O9 Tb4 2.341 . S
O9 Tb14 2.341 1_556 S
O9 Tb17 2.341 1_556 S
O9 H18 0.850 . S
O10 Tb3 2.341 1_556 S
O10 Tb4 2.341 1_565 S
O10 Tb17 2.341 1_566 S
O10 H19 0.850 . S
H11 O5 0.850 . S
H12 O6 0.850 . S
Tb13 O5 2.341 1_445 S
Tb13 O7 2.341 1_455 S
Tb13 O8 2.341 1_545 S
Tb13 O20 2.341 . S
Tb13 O31 2.344 . S
Tb13 O32 2.344 1_455 S
Tb13 O42 2.344 1_545 S
Tb13 O45 2.344 . S
Tb14 O6 2.341 1_454 S
Tb14 O7 2.341 1_455 S
Tb14 O9 2.341 1_554 S
Tb14 O20 2.341 . S
Tb14 O27 2.344 . S
Tb14 O28 2.344 1_554 S
Tb14 O35 2.344 . S
Tb14 O36 2.344 1_455 S
H15 O7 0.850 . S
H16 O8 0.850 . S
Tb17 O8 2.341 1_545 S
Tb17 O9 2.341 1_554 S
Tb17 O10 2.341 1_544 S
Tb17 O20 2.341 . S
Tb17 O23 2.344 . S
Tb17 O24 2.344 1_545 S
Tb17 O39 2.344 1_554 S
Tb17 O40 2.344 . S
H18 O9 0.850 . S
H19 O10 0.850 . S
O20 Tb13 2.341 . S
O20 Tb14 2.341 . S
O20 Tb17 2.341 . S
O20 H21 0.850 . S
H21 O20 0.850 . S
O22 Tb2 2.344 1_565 S
O22 C46 1.272 . S
O23 Tb17 2.344 . S
O23 C47 1.272 . S
O24 Tb17 2.344 1_565 S
O24 C48 1.272 . S
O25 Tb2 2.344 . S
O25 C49 1.272 . S
O26 Tb3 2.344 1_556 S
O26 C50 1.272 . S
O27 Tb14 2.344 . S
O27 C51 1.272 . S
O28 Tb14 2.344 1_556 S
O28 C52 1.272 . S
O29 Tb3 2.344 . S
O29 C53 1.272 . S
O30 Tb4 2.344 1_655 S
O30 C54 1.272 . S
O31 Tb13 2.344 . S
O31 C55 1.272 . S
O32 Tb13 2.344 1_655 S
O32 C56 1.272 . S
O33 Tb4 2.344 . S
O33 C57 1.272 . S
O34 Tb3 2.344 1_655 S
O34 C46 1.272 . S
O35 Tb14 2.344 . S
O35 C47 1.272 . S
O36 Tb14 2.344 1_655 S
O36 C49 1.272 . S
O37 Tb3 2.344 . S
O37 C48 1.272 . S
O38 Tb2 2.344 . S
O38 C56 1.272 . S
O39 Tb17 2.344 1_556 S
O39 C57 1.272 . S
O40 Tb17 2.344 . S
O40 C55 1.272 . S
O41 Tb2 2.344 1_556 S
O41 C54 1.272 . S
O42 Tb13 2.344 1_565 S
O42 C53 1.272 . S
O43 Tb4 2.344 . S
O43 C52 1.272 . S
O44 Tb4 2.344 1_565 S
O44 C50 1.272 . S
O45 Tb13 2.344 . S
O45 C51 1.272 . S
C46 O22 1.272 . S
C46 O34 1.272 . S
C47 O23 1.272 . S
C47 O35 1.272 . S
C48 O24 1.272 . S
C48 O37 1.272 . S
C49 O25 1.272 . S
C49 O36 1.272 . S
C50 O26 1.272 . S
C50 O44 1.272 . S
C51 O27 1.272 . S
C51 O45 1.272 . S
C52 O28 1.272 . S
C52 O43 1.272 . S
C53 O29 1.272 . S
C53 O42 1.272 . S
C54 O30 1.272 . S
C54 O41 1.272 . S
C55 O31 1.272 . S
C55 O40 1.272 . S
C56 O32 1.272 . S
C56 O38 1.272 . S
C57 O33 1.272 . S
C57 O39 1.272 . S
H58 O59 0.850 . S
O59 H58 0.850 . S
O59 Tb60 2.341 . S
O59 Tb61 2.341 1_655 S
O59 Tb62 2.341 1_655 S
Tb60 O59 2.341 . S
Tb60 O63 2.341 . S
Tb60 O64 2.341 . S
Tb60 O65 2.341 . S
Tb60 O80 2.344 . S
Tb60 O83 2.344 . S
Tb60 O96 2.344 . S
Tb60 O99 2.344 . S
Tb61 O59 2.341 1_455 S
Tb61 O63 2.341 1_455 S
Tb61 O66 2.341 . S
Tb61 O68 2.341 . S
Tb61 O84 2.344 . S
Tb61 O87 2.344 . S
Tb61 O92 2.344 1_455 S
Tb61 O95 2.344 . S
Tb62 O59 2.341 1_455 S
Tb62 O64 2.341 1_455 S
Tb62 O67 2.341 . S
Tb62 O68 2.341 . S
Tb62 O88 2.344 1_455 S
Tb62 O91 2.344 . S
Tb62 O101 2.344 . S
Tb62 O102 2.344 . S
O63 Tb60 2.341 . S
O63 Tb61 2.341 1_655 S
O63 H69 0.850 . S
O63 Tb71 2.341 1_655 S
O64 Tb60 2.341 . S
O64 Tb62 2.341 1_655 S
O64 H70 0.850 . S
O64 Tb72 2.341 1_655 S
O65 Tb60 2.341 . S
O65 Tb71 2.341 1_655 S
O65 Tb72 2.341 1_655 S
O65 H73 0.850 . S
O66 Tb61 2.341 . S
O66 Tb71 2.341 . S
O66 H74 0.850 . S
O66 Tb75 2.341 . S
O67 Tb62 2.341 . S
O67 Tb72 2.341 . S
O67 Tb75 2.341 . S
O67 H76 0.850 . S
O68 Tb61 2.341 . S
O68 Tb62 2.341 . S
O68 Tb75 2.341 . S
O68 H77 0.850 . S
H69 O63 0.850 . S
H70 O64 0.850 . S
Tb71 O63 2.341 1_455 S
Tb71 O65 2.341 1_455 S
Tb71 O66 2.341 . S
Tb71 O78 2.341 . S
Tb71 O89 2.344 . S
Tb71 O90 2.344 1_455 S
Tb71 O100 2.344 . S
Tb71 O103 2.344 . S
Tb72 O64 2.341 1_455 S
Tb72 O65 2.341 1_455 S
Tb72 O67 2.341 . S
Tb72 O78 2.341 . S
Tb72 O85 2.344 . S
Tb72 O86 2.344 . S
Tb72 O93 2.344 . S
Tb72 O94 2.344 1_455 S
H73 O65 0.850 . S
H74 O66 0.850 . S
Tb75 O66 2.341 . S
Tb75 O67 2.341 . S
Tb75 O68 2.341 . S
Tb75 O78 2.341 . S
Tb75 O81 2.344 . S
Tb75 O82 2.344 . S
Tb75 O97 2.344 . S
Tb75 O98 2.344 . S
H76 O67 0.850 . S
H77 O68 0.850 . S
O78 Tb71 2.341 . S
O78 Tb72 2.341 . S
O78 Tb75 2.341 . S
O78 H79 0.850 . S
H79 O78 0.850 . S
O80 Tb60 2.344 . S
O80 C104 1.272 . S
O81 Tb75 2.344 . S
O81 C105 1.272 . S
O82 Tb75 2.344 . S
O82 C106 1.272 . S
O83 Tb60 2.344 . S
O83 C107 1.272 . S
O84 Tb61 2.344 . S
O84 C108 1.272 . S
O85 Tb72 2.344 . S
O85 C109 1.272 . S
O86 Tb72 2.344 . S
O86 C110 1.272 . S
O87 Tb61 2.344 . S
O87 C111 1.272 . S
O88 Tb62 2.344 1_655 S
O88 C112 1.272 . S
O89 Tb71 2.344 . S
O89 C113 1.272 . S
O90 Tb71 2.344 1_655 S
O90 C114 1.272 . S
O91 Tb62 2.344 . S
O91 C115 1.272 . S
O92 Tb61 2.344 1_655 S
O92 C104 1.272 . S
O93 Tb72 2.344 . S
O93 C105 1.272 . S
O94 Tb72 2.344 1_655 S
O94 C107 1.272 . S
O95 Tb61 2.344 . S
O95 C106 1.272 . S
O96 Tb60 2.344 . S
O96 C114 1.272 . S
O97 Tb75 2.344 . S
O97 C115 1.272 . S
O98 Tb75 2.344 . S
O98 C113 1.272 . S
O99 Tb60 2.344 . S
O99 C112 1.272 . S
O100 Tb71 2.344 . S
O100 C111 1.272 . S
O101 Tb62 2.344 . S
O101 C110 1.272 . S
O102 Tb62 2.344 . S
O102 C108 1.272 . S
O103 Tb71 2.344 . S
O103 C109 1.272 . S
C104 O80 1.272 . S
C104 O92 1.272 . S
C105 O81 1.272 . S
C105 O93 1.272 . S
C106 O82 1.272 . S
C106 O95 1.272 . S
C107 O83 1.272 . S
C107 O94 1.272 . S
C108 O84 1.272 . S
C108 O102 1.272 . S
C109 O85 1.272 . S
C109 O103 1.272 . S
C110 O86 1.272 . S
C110 O101 1.272 . S
C111 O87 1.272 . S
C111 O100 1.272 . S
C112 O88 1.272 . S
C112 O99 1.272 . S
C113 O89 1.272 . S
C113 O98 1.272 . S
C114 O90 1.272 . S
C114 O96 1.272 . S
C115 O91 1.272 . S
C115 O97 1.272 . S
H116 O117 0.850 . S
O117 H116 0.850 . S
O117 Tb118 2.341 1_565 S
O117 Tb119 2.341 . S
O117 Tb120 2.341 1_565 S
Tb118 O117 2.341 1_545 S
Tb118 O121 2.341 1_545 S
Tb118 O122 2.341 . S
Tb118 O123 2.341 . S
Tb118 O138 2.344 1_545 S
Tb118 O141 2.344 . S
Tb118 O154 2.344 . S
Tb118 O157 2.344 . S
Tb119 O117 2.341 . S
Tb119 O121 2.341 . S
Tb119 O124 2.341 . S
Tb119 O126 2.341 . S
Tb119 O142 2.344 . S
Tb119 O145 2.344 . S
Tb119 O150 2.344 . S
Tb119 O153 2.344 . S
Tb120 O117 2.341 1_545 S
Tb120 O122 2.341 . S
Tb120 O125 2.341 . S
Tb120 O126 2.341 1_545 S
Tb120 O146 2.344 . S
Tb120 O149 2.344 . S
Tb120 O159 2.344 . S
Tb120 O160 2.344 1_545 S
O121 Tb118 2.341 1_565 S
O121 Tb119 2.341 . S
O121 H127 0.850 . S
O121 Tb129 2.341 1_565 S
O122 Tb118 2.341 . S
O122 Tb120 2.341 . S
O122 H128 0.850 . S
O122 Tb130 2.341 . S
O123 Tb118 2.341 . S
O123 Tb129 2.341 . S
O123 Tb130 2.341 . S
O123 H131 0.850 . S
O124 Tb119 2.341 . S
O124 Tb129 2.341 1_565 S
O124 H132 0.850 . S
O124 Tb133 2.341 1_565 S
O125 Tb120 2.341 . S
O125 Tb130 2.341 . S
O125 Tb133 2.341 . S
O125 H134 0.850 . S
O126 Tb119 2.341 . S
O126 Tb120 2.341 1_565 S
O126 Tb133 2.341 1_565 S
O126 H135 0.850 . S
H127 O121 0.850 . S
H128 O122 0.850 . S
Tb129 O121 2.341 1_545 S
Tb129 O123 2.341 . S
Tb129 O124 2.341 1_545 S
Tb129 O136 2.341 . S
Tb129 O147 2.344 . S
Tb129 O148 2.344 . S
Tb129 O158 2.344 1_545 S
Tb129 O161 2.344 . S
Tb130 O122 2.341 . S
Tb130 O123 2.341 . S
Tb130 O125 2.341 . S
Tb130 O136 2.341 . S
Tb130 O143 2.344 . S
Tb130 O144 2.344 . S
Tb130 O151 2.344 . S
Tb130 O152 2.344 . S
H131 O123 0.850 . S
H132 O124 0.850 . S
Tb133 O124 2.341 1_545 S
Tb133 O125 2.341 . S
Tb133 O126 2.341 1_545 S
Tb133 O136 2.341 . S
Tb133 O139 2.344 . S
Tb133 O140 2.344 1_545 S
Tb133 O155 2.344 . S
Tb133 O156 2.344 . S
H134 O125 0.850 . S
H135 O126 0.850 . S
O136 Tb129 2.341 . S
O136 Tb130 2.341 . S
O136 Tb133 2.341 . S
O136 H137 0.850 . S
H137 O136 0.850 . S
O138 Tb118 2.344 1_565 S
O138 C162 1.272 . S
O139 Tb133 2.344 . S
O139 C163 1.272 . S
O140 Tb133 2.344 1_565 S
O140 C164 1.272 . S
O141 Tb118 2.344 . S
O141 C165 1.272 . S
O142 Tb119 2.344 . S
O142 C166 1.272 . S
O143 Tb130 2.344 . S
O143 C167 1.272 . S
O144 Tb130 2.344 . S
O144 C168 1.272 . S
O145 Tb119 2.344 . S
O145 C169 1.272 . S
O146 Tb120 2.344 . S
O146 C170 1.272 . S
O147 Tb129 2.344 . S
O147 C171 1.272 . S
O148 Tb129 2.344 . S
O148 C172 1.272 . S
O149 Tb120 2.344 . S
O149 C173 1.272 . S
O150 Tb119 2.344 . S
O150 C162 1.272 . S
O151 Tb130 2.344 . S
O151 C163 1.272 . S
O152 Tb130 2.344 . S
O152 C165 1.272 . S
O153 Tb119 2.344 . S
O153 C164 1.272 . S
O154 Tb118 2.344 . S
O154 C172 1.272 . S
O155 Tb133 2.344 . S
O155 C173 1.272 . S
O156 Tb133 2.344 . S
O156 C171 1.272 . S
O157 Tb118 2.344 . S
O157 C170 1.272 . S
O158 Tb129 2.344 1_565 S
O158 C169 1.272 . S
O159 Tb120 2.344 . S
O159 C168 1.272 . S
O160 Tb120 2.344 1_565 S
O160 C166 1.272 . S
O161 Tb129 2.344 . S
O161 C167 1.272 . S
C162 O138 1.272 . S
C162 O150 1.272 . S
C163 O139 1.272 . S
C163 O151 1.272 . S
C164 O140 1.272 . S
C164 O153 1.272 . S
C165 O141 1.272 . S
C165 O152 1.272 . S
C166 O142 1.272 . S
C166 O160 1.272 . S
C167 O143 1.272 . S
C167 O161 1.272 . S
C168 O144 1.272 . S
C168 O159 1.272 . S
C169 O145 1.272 . S
C169 O158 1.272 . S
C170 O146 1.272 . S
C170 O157 1.272 . S
C171 O147 1.272 . S
C171 O156 1.272 . S
C172 O148 1.272 . S
C172 O154 1.272 . S
C173 O149 1.272 . S
C173 O155 1.272 . S
H174 O175 0.850 . S
O175 H174 0.850 . S
O175 Tb176 2.341 1_556 S
O175 Tb177 2.341 1_556 S
O175 Tb178 2.341 . S
Tb176 O175 2.341 1_554 S
Tb176 O179 2.341 . S
Tb176 O180 2.341 1_554 S
Tb176 O181 2.341 . S
Tb176 O196 2.344 . S
Tb176 O199 2.344 . S
Tb176 O212 2.344 . S
Tb176 O215 2.344 1_554 S
Tb177 O175 2.341 1_554 S
Tb177 O179 2.341 . S
Tb177 O182 2.341 . S
Tb177 O184 2.341 1_554 S
Tb177 O200 2.344 1_554 S
Tb177 O203 2.344 . S
Tb177 O208 2.344 . S
Tb177 O211 2.344 . S
Tb178 O175 2.341 . S
Tb178 O180 2.341 . S
Tb178 O183 2.341 . S
Tb178 O184 2.341 . S
Tb178 O204 2.344 . S
Tb178 O207 2.344 . S
Tb178 O217 2.344 . S
Tb178 O218 2.344 . S
O179 Tb176 2.341 . S
O179 Tb177 2.341 . S
O179 H185 0.850 . S
O179 Tb187 2.341 . S
O180 Tb176 2.341 1_556 S
O180 Tb178 2.341 . S
O180 H186 0.850 . S
O180 Tb188 2.341 1_556 S
O181 Tb176 2.341 . S
O181 Tb187 2.341 . S
O181 Tb188 2.341 . S
O181 H189 0.850 . S
O182 Tb177 2.341 . S
O182 Tb187 2.341 . S
O182 H190 0.850 . S
O182 Tb191 2.341 . S
O183 Tb178 2.341 . S
O183 Tb188 2.341 1_556 S
O183 Tb191 2.341 1_556 S
O183 H192 0.850 . S
O184 Tb177 2.341 1_556 S
O184 Tb178 2.341 . S
O184 Tb191 2.341 1_556 S
O184 H193 0.850 . S
H185 O179 0.850 . S
H186 O180 0.850 . S
Tb187 O179 2.341 . S
Tb187 O181 2.341 . S
Tb187 O182 2.341 . S
Tb187 O194 2.341 . S
Tb187 O205 2.344 . S
Tb187 O206 2.344 . S
Tb187 O216 2.344 . S
Tb187 O219 2.344 . S
Tb188 O180 2.341 1_554 S
Tb188 O181 2.341 . S
Tb188 O183 2.341 1_554 S
Tb188 O194 2.341 . S
Tb188 O201 2.344 . S
Tb188 O202 2.344 1_554 S
Tb188 O209 2.344 . S
Tb188 O210 2.344 . S
H189 O181 0.850 . S
H190 O182 0.850 . S
Tb191 O182 2.341 . S
Tb191 O183 2.341 1_554 S
Tb191 O184 2.341 1_554 S
Tb191 O194 2.341 . S
Tb191 O197 2.344 . S
Tb191 O198 2.344 . S
Tb191 O213 2.344 1_554 S
Tb191 O214 2.344 . S
H192 O183 0.850 . S
H193 O184 0.850 . S
O194 Tb187 2.341 . S
O194 Tb188 2.341 . S
O194 Tb191 2.341 . S
O194 H195 0.850 . S
H195 O194 0.850 . S
O196 Tb176 2.344 . S
O196 C220 1.272 . S
O197 Tb191 2.344 . S
O197 C221 1.272 . S
O198 Tb191 2.344 . S
O198 C222 1.272 . S
O199 Tb176 2.344 . S
O199 C223 1.272 . S
O200 Tb177 2.344 1_556 S
O200 C224 1.272 . S
O201 Tb188 2.344 . S
O201 C225 1.272 . S
O202 Tb188 2.344 1_556 S
O202 C226 1.272 . S
O203 Tb177 2.344 . S
O203 C227 1.272 . S
O204 Tb178 2.344 . S
O204 C228 1.272 . S
O205 Tb187 2.344 . S
O205 C229 1.272 . S
O206 Tb187 2.344 . S
O206 C230 1.272 . S
O207 Tb178 2.344 . S
O207 C231 1.272 . S
O208 Tb177 2.344 . S
O208 C220 1.272 . S
O209 Tb188 2.344 . S
O209 C221 1.272 . S
O210 Tb188 2.344 . S
O210 C223 1.272 . S
O211 Tb177 2.344 . S
O211 C222 1.272 . S
O212 Tb176 2.344 . S
O212 C230 1.272 . S
O213 Tb191 2.344 1_556 S
O213 C231 1.272 . S
O214 Tb191 2.344 . S
O214 C229 1.272 . S
O215 Tb176 2.344 1_556 S
O215 C228 1.272 . S
O216 Tb187 2.344 . S
O216 C227 1.272 . S
O217 Tb178 2.344 . S
O217 C226 1.272 . S
O218 Tb178 2.344 . S
O218 C224 1.272 . S
O219 Tb187 2.344 . S
O219 C225 1.272 . S
C220 O196 1.272 . S
C220 O208 1.272 . S
C221 O197 1.272 . S
C221 O209 1.272 . S
C222 O198 1.272 . S
C222 O211 1.272 . S
C223 O199 1.272 . S
C223 O210 1.272 . S
C224 O200 1.272 . S
C224 O218 1.272 . S
C225 O201 1.272 . S
C225 O219 1.272 . S
C226 O202 1.272 . S
C226 O217 1.272 . S
C227 O203 1.272 . S
C227 O216 1.272 . S
C228 O204 1.272 . S
C228 O215 1.272 . S
C229 O205 1.272 . S
C229 O214 1.272 . S
C230 O206 1.272 . S
C230 O212 1.272 . S
C231 O207 1.272 . S
C231 O213 1.272 . S
H232 C240 0.950 . S
H233 C245 0.950 . S
H234 C242 0.950 . S
H235 C244 0.950 . S
H236 C246 0.950 . S
H237 C248 0.950 . S
H238 C250 0.950 . S
H239 C251 0.950 . S
C240 H232 0.950 . S
C240 C241 1.386 1_455 S
C240 C242 1.391 . S
C241 C240 1.386 1_655 S
C241 C245 1.393 . S
C242 H234 0.950 . S
C242 C240 1.391 . S
C242 C243 1.396 1_455 S
C243 C242 1.396 1_655 S
C243 C244 1.403 . S
C243 C249 1.490 1_655 S
C244 H235 0.950 . S
C244 C243 1.403 . S
C244 C245 1.391 . S
C245 H233 0.950 . S
C245 C241 1.393 . S
C245 C244 1.391 . S
C246 H236 0.950 . S
C246 C247 1.386 1_655 S
C246 C248 1.391 . S
C247 C246 1.386 1_455 S
C247 C251 1.393 . S
C248 H237 0.950 . S
C248 C246 1.391 . S
C248 C249 1.400 1_655 S
C249 C243 1.490 1_455 S
C249 C248 1.400 1_455 S
C249 C250 1.398 . S
C250 H238 0.950 . S
C250 C249 1.398 . S
C250 C251 1.391 . S
C251 H239 0.950 . S
C251 C247 1.393 . S
C251 C250 1.391 . S
H252 C260 0.950 . S
H253 C265 0.950 . S
H254 C262 0.950 . S
H255 C264 0.950 . S
H256 C266 0.950 . S
H257 C268 0.950 . S
H258 C270 0.950 . S
H259 C271 0.950 . S
C260 H252 0.950 . S
C260 C261 1.395 . S
C260 C262 1.391 . S
C261 C260 1.395 . S
C261 C265 1.384 1_545 S
C262 H254 0.950 . S
C262 C260 1.391 . S
C262 C263 1.406 . S
C263 C262 1.406 . S
C263 C264 1.393 1_545 S
C263 C269 1.491 1_545 S
C264 H255 0.950 . S
C264 C263 1.393 1_565 S
C264 C265 1.391 . S
C265 H253 0.950 . S
C265 C261 1.384 1_565 S
C265 C264 1.391 . S
C266 H256 0.950 . S
C266 C267 1.391 . S
C266 C268 1.391 . S
C267 C266 1.391 . S
C267 C271 1.388 1_565 S
C268 H257 0.950 . S
C268 C266 1.391 . S
C268 C269 1.401 . S
C269 C263 1.491 1_565 S
C269 C268 1.401 . S
C269 C270 1.397 1_565 S
C270 H258 0.950 . S
C270 C269 1.397 1_545 S
C270 C271 1.391 . S
C271 H259 0.950 . S
C271 C267 1.388 1_545 S
C271 C270 1.391 . S
H272 C280 0.950 . S
H273 C285 0.950 . S
H274 C282 0.950 . S
H275 C284 0.950 . S
H276 C286 0.950 . S
H277 C288 0.950 . S
H278 C290 0.950 . S
H279 C291 0.950 . S
C280 H272 0.950 . S
C280 C281 1.393 . S
C280 C282 1.391 . S
C281 C280 1.393 . S
C281 C285 1.386 1_655 S
C282 H274 0.950 . S
C282 C280 1.391 . S
C282 C283 1.402 . S
C283 C282 1.402 . S
C283 C284 1.396 1_655 S
C283 C289 1.491 1_655 S
C284 H275 0.950 . S
C284 C283 1.396 1_455 S
C284 C285 1.391 . S
C285 H273 0.950 . S
C285 C281 1.386 1_455 S
C285 C284 1.391 . S
C286 H276 0.950 . S
C286 C287 1.397 . S
C286 C288 1.391 . S
C287 C286 1.397 . S
C287 C291 1.382 1_455 S
C288 H277 0.950 . S
C288 C286 1.391 . S
C288 C289 1.407 . S
C289 C283 1.491 1_455 S
C289 C288 1.407 . S
C289 C290 1.392 1_455 S
C290 H278 0.950 . S
C290 C289 1.392 1_655 S
C290 C291 1.391 . S
C291 H279 0.950 . S
C291 C287 1.382 1_655 S
C291 C290 1.391 . S
H292 C300 0.950 . S
H293 C305 0.950 . S
H294 C302 0.950 . S
H295 C304 0.950 . S
H296 C306 0.950 . S
H297 C308 0.950 . S
H298 C310 0.950 . S
H299 C311 0.950 . S
C300 H292 0.950 . S
C300 C301 1.386 . S
C300 C302 1.391 . S
C301 C300 1.386 . S
C301 C305 1.393 1_565 S
C302 H294 0.950 . S
C302 C300 1.391 . S
C302 C303 1.406 . S
C303 C302 1.406 . S
C303 C304 1.394 1_565 S
C303 C309 1.490 1_565 S
C304 H295 0.950 . S
C304 C303 1.394 1_545 S
C304 C305 1.391 . S
C305 H293 0.950 . S
C305 C301 1.393 1_545 S
C305 C304 1.391 . S
C306 H296 0.950 . S
C306 C307 1.386 . S
C306 C308 1.391 . S
C307 C306 1.386 . S
C307 C311 1.393 1_545 S
C308 H297 0.950 . S
C308 C306 1.391 . S
C308 C309 1.407 . S
C309 C303 1.490 1_545 S
C309 C308 1.407 . S
C309 C310 1.393 1_545 S
C310 H298 0.950 . S
C310 C309 1.393 1_565 S
C310 C311 1.391 . S
C311 H299 0.950 . S
C311 C307 1.393 1_565 S
C311 C310 1.391 . S
H312 C320 0.950 . S
H313 C325 0.950 . S
H314 C322 0.950 . S
H315 C324 0.950 . S
H316 C326 0.950 . S
H317 C328 0.950 . S
H318 C330 0.950 . S
H319 C331 0.950 . S
C320 H312 0.950 . S
C320 C321 1.386 1_655 S
C320 C322 1.391 . S
C321 C320 1.386 1_455 S
C321 C325 1.393 . S
C322 H314 0.950 . S
C322 C320 1.391 . S
C322 C323 1.389 1_655 S
C323 C322 1.389 1_455 S
C323 C324 1.411 . S
C323 C329 1.490 1_455 S
C324 H315 0.950 . S
C324 C323 1.411 . S
C324 C325 1.391 . S
C325 H313 0.950 . S
C325 C321 1.393 . S
C325 C324 1.391 . S
C326 H316 0.950 . S
C326 C327 1.386 1_455 S
C326 C328 1.391 . S
C327 C326 1.386 1_655 S
C327 C331 1.393 . S
C328 H317 0.950 . S
C328 C326 1.391 . S
C328 C329 1.392 1_455 S
C329 C323 1.490 1_655 S
C329 C328 1.392 1_655 S
C329 C330 1.407 . S
C330 H318 0.950 . S
C330 C329 1.407 . S
C330 C331 1.391 . S
C331 H319 0.950 . S
C331 C327 1.393 . S
C331 C330 1.391 . S
H332 C340 0.950 . S
H333 C345 0.950 . S
H334 C342 0.950 . S
H335 C344 0.950 . S
H336 C346 0.950 . S
H337 C348 0.950 . S
H338 C350 0.950 . S
H339 C351 0.950 . S
C340 H332 0.950 . S
C340 C341 1.386 . S
C340 C342 1.391 . S
C341 C340 1.386 . S
C341 C345 1.393 1_565 S
C342 H334 0.950 . S
C342 C340 1.391 . S
C342 C343 1.407 . S
C343 C342 1.407 . S
C343 C344 1.392 1_565 S
C343 C349 1.490 1_565 S
C344 H335 0.950 . S
C344 C343 1.392 1_545 S
C344 C345 1.391 . S
C345 H333 0.950 . S
C345 C341 1.393 1_545 S
C345 C344 1.391 . S
C346 H336 0.950 . S
C346 C347 1.386 . S
C346 C348 1.391 . S
C347 C346 1.386 . S
C347 C351 1.393 1_545 S
C348 H337 0.950 . S
C348 C346 1.391 . S
C348 C349 1.409 . S
C349 C343 1.490 1_545 S
C349 C348 1.409 . S
C349 C350 1.390 1_545 S
C350 H338 0.950 . S
C350 C349 1.390 1_565 S
C350 C351 1.391 . S
C351 H339 0.950 . S
C351 C347 1.393 1_565 S
C351 C350 1.391 . S
H352 C360 0.950 . S
H353 C365 0.950 . S
H354 C362 0.950 . S
H355 C364 0.950 . S
H356 C366 0.950 . S
H357 C368 0.950 . S
H358 C370 0.950 . S
H359 C371 0.950 . S
C360 H352 0.950 . S
C360 C361 1.388 . S
C360 C362 1.391 . S
C361 C360 1.388 . S
C361 C365 1.391 1_655 S
C362 H354 0.950 . S
C362 C360 1.391 . S
C362 C363 1.400 . S
C363 C362 1.400 . S
C363 C364 1.399 1_655 S
C363 C369 1.491 1_655 S
C364 H355 0.950 . S
C364 C363 1.399 1_455 S
C364 C365 1.391 . S
C365 H353 0.950 . S
C365 C361 1.391 1_455 S
C365 C364 1.391 . S
C366 H356 0.950 . S
C366 C367 1.392 . S
C366 C368 1.391 . S
C367 C366 1.392 . S
C367 C371 1.386 1_455 S
C368 H357 0.950 . S
C368 C366 1.391 . S
C368 C369 1.404 . S
C369 C363 1.491 1_455 S
C369 C368 1.404 . S
C369 C370 1.394 1_455 S
C370 H358 0.950 . S
C370 C369 1.394 1_655 S
C370 C371 1.391 . S
C371 H359 0.950 . S
C371 C367 1.386 1_655 S
C371 C370 1.391 . S
H372 C380 0.950 . S
H373 C385 0.950 . S
H374 C382 0.950 . S
H375 C384 0.950 . S
H376 C386 0.950 . S
H377 C388 0.950 . S
H378 C390 0.950 . S
H379 C391 0.950 . S
C380 H372 0.950 . S
C380 C381 1.399 . S
C380 C382 1.391 . S
C381 C380 1.399 . S
C381 C385 1.380 1_545 S
C382 H374 0.950 . S
C382 C380 1.391 . S
C382 C383 1.407 . S
C383 C382 1.407 . S
C383 C384 1.391 1_545 S
C383 C389 1.490 1_545 S
C384 H375 0.950 . S
C384 C383 1.391 1_565 S
C384 C385 1.391 . S
C385 H373 0.950 . S
C385 C381 1.380 1_565 S
C385 C384 1.391 . S
C386 H376 0.950 . S
C386 C387 1.394 . S
C386 C388 1.391 . S
C387 C386 1.394 . S
C387 C391 1.384 1_565 S
C388 H377 0.950 . S
C388 C386 1.391 . S
C388 C389 1.403 . S
C389 C383 1.490 1_565 S
C389 C388 1.403 . S
C389 C390 1.395 1_565 S
C390 H378 0.950 . S
C390 C389 1.395 1_545 S
C390 C391 1.391 . S
C391 H379 0.950 . S
C391 C387 1.384 1_545 S
C391 C390 1.391 . S
H392 C400 0.950 . S
H393 C405 0.950 . S
H394 C402 0.950 . S
H395 C404 0.950 . S
H396 C406 0.950 . S
H397 C408 0.950 . S
H398 C410 0.950 . S
H399 C411 0.950 . S
C400 H392 0.950 . S
C400 C401 1.386 1_554 S
C400 C402 1.391 . S
C401 C400 1.386 1_556 S
C401 C405 1.393 . S
C402 H394 0.950 . S
C402 C400 1.391 . S
C402 C403 1.396 1_554 S
C403 C402 1.396 1_556 S
C403 C404 1.403 . S
C403 C409 1.490 1_556 S
C404 H395 0.950 . S
C404 C403 1.403 . S
C404 C405 1.391 . S
C405 H393 0.950 . S
C405 C401 1.393 . S
C405 C404 1.391 . S
C406 H396 0.950 . S
C406 C407 1.386 1_556 S
C406 C408 1.391 . S
C407 C406 1.386 1_554 S
C407 C411 1.393 . S
C408 H397 0.950 . S
C408 C406 1.391 . S
C408 C409 1.400 1_556 S
C409 C403 1.490 1_554 S
C409 C408 1.400 1_554 S
C409 C410 1.398 . S
C410 H398 0.950 . S
C410 C409 1.398 . S
C410 C411 1.391 . S
C411 H399 0.950 . S
C411 C407 1.393 . S
C411 C410 1.391 . S
H412 C420 0.950 . S
H413 C425 0.950 . S
H414 C422 0.950 . S
H415 C424 0.950 . S
H416 C426 0.950 . S
H417 C428 0.950 . S
H418 C430 0.950 . S
H419 C431 0.950 . S
C420 H412 0.950 . S
C420 C421 1.386 . S
C420 C422 1.391 . S
C421 C420 1.386 . S
C421 C425 1.393 1_556 S
C422 H414 0.950 . S
C422 C420 1.391 . S
C422 C423 1.406 . S
C423 C422 1.406 . S
C423 C424 1.393 1_556 S
C423 C429 1.490 1_556 S
C424 H415 0.950 . S
C424 C423 1.393 1_554 S
C424 C425 1.391 . S
C425 H413 0.950 . S
C425 C421 1.393 1_554 S
C425 C424 1.391 . S
C426 H416 0.950 . S
C426 C427 1.386 . S
C426 C428 1.391 . S
C427 C426 1.386 . S
C427 C431 1.393 1_554 S
C428 H417 0.950 . S
C428 C426 1.391 . S
C428 C429 1.408 . S
C429 C423 1.490 1_554 S
C429 C428 1.408 . S
C429 C430 1.392 1_554 S
C430 H418 0.950 . S
C430 C429 1.392 1_556 S
C430 C431 1.391 . S
C431 H419 0.950 . S
C431 C427 1.393 1_556 S
C431 C430 1.391 . S
H432 C440 0.950 . S
H433 C445 0.950 . S
H434 C442 0.950 . S
H435 C444 0.950 . S
H436 C446 0.950 . S
H437 C448 0.950 . S
H438 C450 0.950 . S
H439 C451 0.950 . S
C440 H432 0.950 . S
C440 C441 1.393 . S
C440 C442 1.391 . S
C441 C440 1.393 . S
C441 C445 1.385 1_554 S
C442 H434 0.950 . S
C442 C440 1.391 . S
C442 C443 1.405 . S
C443 C442 1.405 . S
C443 C444 1.394 1_554 S
C443 C449 1.491 1_554 S
C444 H435 0.950 . S
C444 C443 1.394 1_556 S
C444 C445 1.391 . S
C445 H433 0.950 . S
C445 C441 1.385 1_556 S
C445 C444 1.391 . S
C446 H436 0.950 . S
C446 C447 1.389 . S
C446 C448 1.391 . S
C447 C446 1.389 . S
C447 C451 1.390 1_556 S
C448 H437 0.950 . S
C448 C446 1.391 . S
C448 C449 1.400 . S
C449 C443 1.491 1_556 S
C449 C448 1.400 . S
C449 C450 1.398 1_556 S
C450 H438 0.950 . S
C450 C449 1.398 1_554 S
C450 C451 1.391 . S
C451 H439 0.950 . S
C451 C447 1.390 1_554 S
C451 C450 1.391 . S
H452 C460 0.950 . S
H453 C465 0.950 . S
H454 C462 0.950 . S
H455 C464 0.950 . S
H456 C466 0.950 . S
H457 C468 0.950 . S
H458 C470 0.950 . S
H459 C471 0.950 . S
C460 H452 0.950 . S
C460 C461 1.386 1_556 S
C460 C462 1.391 . S
C461 C460 1.386 1_554 S
C461 C465 1.393 . S
C462 H454 0.950 . S
C462 C460 1.391 . S
C462 C463 1.389 1_556 S
C463 C462 1.389 1_554 S
C463 C464 1.410 . S
C463 C469 1.490 1_554 S
C464 H455 0.950 . S
C464 C463 1.410 . S
C464 C465 1.391 . S
C465 H453 0.950 . S
C465 C461 1.393 . S
C465 C464 1.391 . S
C466 H456 0.950 . S
C466 C467 1.386 1_554 S
C466 C468 1.391 . S
C467 C466 1.386 1_556 S
C467 C471 1.393 . S
C468 H457 0.950 . S
C468 C466 1.391 . S
C468 C469 1.392 1_554 S
C469 C463 1.490 1_556 S
C469 C468 1.392 1_556 S
C469 C470 1.407 . S
C470 H458 0.950 . S
C470 C469 1.407 . S
C470 C471 1.391 . S
C471 H459 0.950 . S
C471 C467 1.393 . S
C471 C470 1.391 . S
H472 C480 0.950 . S
H473 C485 0.950 . S
H474 C482 0.950 . S
H475 C484 0.950 . S
H476 C486 0.950 . S
H477 C488 0.950 . S
H478 C490 0.950 . S
H479 C491 0.950 . S
C480 H472 0.950 . S
C480 C481 1.386 . S
C480 C482 1.391 . S
C481 C480 1.386 . S
C481 C485 1.393 . S
C482 H474 0.950 . S
C482 C480 1.391 . S
C482 C483 1.400 . S
C483 C482 1.400 . S
C483 C484 1.398 . S
C483 C489 1.491 . S
C484 H475 0.950 . S
C484 C483 1.398 . S
C484 C485 1.391 . S
C485 H473 0.950 . S
C485 C481 1.393 . S
C485 C484 1.391 . S
C486 H476 0.950 . S
C486 C487 1.386 . S
C486 C488 1.391 . S
C487 C486 1.386 . S
C487 C491 1.393 . S
C488 H477 0.950 . S
C488 C486 1.391 . S
C488 C489 1.400 . S
C489 C483 1.491 . S
C489 C488 1.400 . S
C489 C490 1.398 . S
C490 H478 0.950 . S
C490 C489 1.398 . S
C490 C491 1.391 . S
C491 H479 0.950 . S
C491 C487 1.393 . S
C491 C490 1.391 . S
H492 C500 0.950 . S
H493 C505 0.950 . S
H494 C502 0.950 . S
H495 C504 0.950 . S
H496 C506 0.950 . S
H497 C508 0.950 . S
H498 C510 0.950 . S
H499 C511 0.950 . S
C500 H492 0.950 . S
C500 C501 1.386 . S
C500 C502 1.391 . S
C501 C500 1.386 . S
C501 C505 1.393 . S
C502 H494 0.950 . S
C502 C500 1.391 . S
C502 C503 1.400 . S
C503 C502 1.400 . S
C503 C504 1.398 . S
C503 C509 1.491 . S
C504 H495 0.950 . S
C504 C503 1.398 . S
C504 C505 1.391 . S
C505 H493 0.950 . S
C505 C501 1.393 . S
C505 C504 1.391 . S
C506 H496 0.950 . S
C506 C507 1.386 . S
C506 C508 1.391 . S
C507 C506 1.386 . S
C507 C511 1.393 . S
C508 H497 0.950 . S
C508 C506 1.391 . S
C508 C509 1.400 . S
C509 C503 1.491 . S
C509 C508 1.400 . S
C509 C510 1.398 . S
C510 H498 0.950 . S
C510 C509 1.398 . S
C510 C511 1.391 . S
C511 H499 0.950 . S
C511 C507 1.393 . S
C511 C510 1.391 . S
H512 C520 0.950 . S
H513 C525 0.950 . S
H514 C522 0.950 . S
H515 C524 0.950 . S
H516 C526 0.950 . S
H517 C528 0.950 . S
H518 C530 0.950 . S
H519 C531 0.950 . S
C520 H512 0.950 . S
C520 C521 1.386 . S
C520 C522 1.391 . S
C521 C520 1.386 . S
C521 C525 1.393 . S
C522 H514 0.950 . S
C522 C520 1.391 . S
C522 C523 1.400 . S
C523 C522 1.400 . S
C523 C524 1.398 . S
C523 C529 1.491 . S
C524 H515 0.950 . S
C524 C523 1.398 . S
C524 C525 1.391 . S
C525 H513 0.950 . S
C525 C521 1.393 . S
C525 C524 1.391 . S
C526 H516 0.950 . S
C526 C527 1.386 . S
C526 C528 1.391 . S
C527 C526 1.386 . S
C527 C531 1.393 . S
C528 H517 0.950 . S
C528 C526 1.391 . S
C528 C529 1.400 . S
C529 C523 1.491 . S
C529 C528 1.400 . S
C529 C530 1.398 . S
C530 H518 0.950 . S
C530 C529 1.398 . S
C530 C531 1.391 . S
C531 H519 0.950 . S
C531 C527 1.393 . S
C531 C530 1.391 . S
H532 C540 0.950 . S
H533 C545 0.950 . S
H534 C542 0.950 . S
H535 C544 0.950 . S
H536 C546 0.950 . S
H537 C548 0.950 . S
H538 C550 0.950 . S
H539 C551 0.950 . S
C540 H532 0.950 . S
C540 C541 1.386 . S
C540 C542 1.391 . S
C541 C540 1.386 . S
C541 C545 1.393 . S
C542 H534 0.950 . S
C542 C540 1.391 . S
C542 C543 1.400 . S
C543 C542 1.400 . S
C543 C544 1.398 . S
C543 C549 1.491 . S
C544 H535 0.950 . S
C544 C543 1.398 . S
C544 C545 1.391 . S
C545 H533 0.950 . S
C545 C541 1.393 . S
C545 C544 1.391 . S
C546 H536 0.950 . S
C546 C547 1.386 . S
C546 C548 1.391 . S
C547 C546 1.386 . S
C547 C551 1.393 . S
C548 H537 0.950 . S
C548 C546 1.391 . S
C548 C549 1.400 . S
C549 C543 1.491 . S
C549 C548 1.400 . S
C549 C550 1.398 . S
C550 H538 0.950 . S
C550 C549 1.398 . S
C550 C551 1.391 . S
C551 H539 0.950 . S
C551 C547 1.393 . S
C551 C550 1.391 . S
H552 C560 0.950 . S
H553 C565 0.950 . S
H554 C562 0.950 . S
H555 C564 0.950 . S
H556 C566 0.950 . S
H557 C568 0.950 . S
H558 C570 0.950 . S
H559 C571 0.950 . S
C560 H552 0.950 . S
C560 C561 1.386 . S
C560 C562 1.391 . S
C561 C560 1.386 . S
C561 C565 1.393 . S
C562 H554 0.950 . S
C562 C560 1.391 . S
C562 C563 1.400 . S
C563 C562 1.400 . S
C563 C564 1.398 . S
C563 C569 1.491 . S
C564 H555 0.950 . S
C564 C563 1.398 . S
C564 C565 1.391 . S
C565 H553 0.950 . S
C565 C561 1.393 . S
C565 C564 1.391 . S
C566 H556 0.950 . S
C566 C567 1.386 . S
C566 C568 1.391 . S
C567 C566 1.386 . S
C567 C571 1.393 . S
C568 H557 0.950 . S
C568 C566 1.391 . S
C568 C569 1.400 . S
C569 C563 1.491 . S
C569 C568 1.400 . S
C569 C570 1.398 . S
C570 H558 0.950 . S
C570 C569 1.398 . S
C570 C571 1.391 . S
C571 H559 0.950 . S
C571 C567 1.393 . S
C571 C570 1.391 . S
H572 C580 0.950 . S
H573 C585 0.950 . S
H574 C582 0.950 . S
H575 C584 0.950 . S
H576 C586 0.950 . S
H577 C588 0.950 . S
H578 C590 0.950 . S
H579 C591 0.950 . S
C580 H572 0.950 . S
C580 C581 1.386 . S
C580 C582 1.391 . S
C581 C580 1.386 . S
C581 C585 1.393 . S
C582 H574 0.950 . S
C582 C580 1.391 . S
C582 C583 1.400 . S
C583 C582 1.400 . S
C583 C584 1.398 . S
C583 C589 1.491 . S
C584 H575 0.950 . S
C584 C583 1.398 . S
C584 C585 1.391 . S
C585 H573 0.950 . S
C585 C581 1.393 . S
C585 C584 1.391 . S
C586 H576 0.950 . S
C586 C587 1.386 . S
C586 C588 1.391 . S
C587 C586 1.386 . S
C587 C591 1.393 . S
C588 H577 0.950 . S
C588 C586 1.391 . S
C588 C589 1.400 . S
C589 C583 1.491 . S
C589 C588 1.400 . S
C589 C590 1.398 . S
C590 H578 0.950 . S
C590 C589 1.398 . S
C590 C591 1.391 . S
C591 H579 0.950 . S
C591 C587 1.393 . S
C591 C590 1.391 . S
H592 C600 0.950 . S
H593 C605 0.950 . S
H594 C602 0.950 . S
H595 C604 0.950 . S
H596 C606 0.950 . S
H597 C608 0.950 . S
H598 C610 0.950 . S
H599 C611 0.950 . S
C600 H592 0.950 . S
C600 C601 1.386 . S
C600 C602 1.391 . S
C601 C600 1.386 . S
C601 C605 1.393 . S
C602 H594 0.950 . S
C602 C600 1.391 . S
C602 C603 1.400 . S
C603 C602 1.400 . S
C603 C604 1.398 . S
C603 C609 1.491 . S
C604 H595 0.950 . S
C604 C603 1.398 . S
C604 C605 1.391 . S
C605 H593 0.950 . S
C605 C601 1.393 . S
C605 C604 1.391 . S
C606 H596 0.950 . S
C606 C607 1.386 . S
C606 C608 1.391 . S
C607 C606 1.386 . S
C607 C611 1.393 . S
C608 H597 0.950 . S
C608 C606 1.391 . S
C608 C609 1.400 . S
C609 C603 1.491 . S
C609 C608 1.400 . S
C609 C610 1.398 . S
C610 H598 0.950 . S
C610 C609 1.398 . S
C610 C611 1.391 . S
C611 H599 0.950 . S
C611 C607 1.393 . S
C611 C610 1.391 . S
H612 C620 0.950 . S
H613 C625 0.950 . S
H614 C622 0.950 . S
H615 C624 0.950 . S
H616 C626 0.950 . S
H617 C628 0.950 . S
H618 C630 0.950 . S
H619 C631 0.950 . S
C620 H612 0.950 . S
C620 C621 1.386 . S
C620 C622 1.391 . S
C621 C620 1.386 . S
C621 C625 1.393 . S
C622 H614 0.950 . S
C622 C620 1.391 . S
C622 C623 1.400 . S
C623 C622 1.400 . S
C623 C624 1.398 . S
C623 C629 1.491 . S
C624 H615 0.950 . S
C624 C623 1.398 . S
C624 C625 1.391 . S
C625 H613 0.950 . S
C625 C621 1.393 . S
C625 C624 1.391 . S
C626 H616 0.950 . S
C626 C627 1.386 . S
C626 C628 1.391 . S
C627 C626 1.386 . S
C627 C631 1.393 . S
C628 H617 0.950 . S
C628 C626 1.391 . S
C628 C629 1.400 . S
C629 C623 1.491 . S
C629 C628 1.400 . S
C629 C630 1.398 . S
C630 H618 0.950 . S
C630 C629 1.398 . S
C630 C631 1.391 . S
C631 H619 0.950 . S
C631 C627 1.393 . S
C631 C630 1.391 . S
H632 C640 0.950 . S
H633 C645 0.950 . S
H634 C642 0.950 . S
H635 C644 0.950 . S
H636 C646 0.950 . S
H637 C648 0.950 . S
H638 C650 0.950 . S
H639 C651 0.950 . S
C640 H632 0.950 . S
C640 C641 1.386 . S
C640 C642 1.391 . S
C641 C640 1.386 . S
C641 C645 1.393 . S
C642 H634 0.950 . S
C642 C640 1.391 . S
C642 C643 1.400 . S
C643 C642 1.400 . S
C643 C644 1.398 . S
C643 C649 1.491 . S
C644 H635 0.950 . S
C644 C643 1.398 . S
C644 C645 1.391 . S
C645 H633 0.950 . S
C645 C641 1.393 . S
C645 C644 1.391 . S
C646 H636 0.950 . S
C646 C647 1.386 . S
C646 C648 1.391 . S
C647 C646 1.386 . S
C647 C651 1.393 . S
C648 H637 0.950 . S
C648 C646 1.391 . S
C648 C649 1.400 . S
C649 C643 1.491 . S
C649 C648 1.400 . S
C649 C650 1.398 . S
C650 H638 0.950 . S
C650 C649 1.398 . S
C650 C651 1.391 . S
C651 H639 0.950 . S
C651 C647 1.393 . S
C651 C650 1.391 . S
H652 C660 0.950 . S
H653 C665 0.950 . S
H654 C662 0.950 . S
H655 C664 0.950 . S
H656 C666 0.950 . S
H657 C668 0.950 . S
H658 C670 0.950 . S
H659 C671 0.950 . S
C660 H652 0.950 . S
C660 C661 1.386 . S
C660 C662 1.391 . S
C661 C660 1.386 . S
C661 C665 1.393 . S
C662 H654 0.950 . S
C662 C660 1.391 . S
C662 C663 1.400 . S
C663 C662 1.400 . S
C663 C664 1.398 . S
C663 C669 1.491 . S
C664 H655 0.950 . S
C664 C663 1.398 . S
C664 C665 1.391 . S
C665 H653 0.950 . S
C665 C661 1.393 . S
C665 C664 1.391 . S
C666 H656 0.950 . S
C666 C667 1.386 . S
C666 C668 1.391 . S
C667 C666 1.386 . S
C667 C671 1.393 . S
C668 H657 0.950 . S
C668 C666 1.391 . S
C668 C669 1.400 . S
C669 C663 1.491 . S
C669 C668 1.400 . S
C669 C670 1.398 . S
C670 H658 0.950 . S
C670 C669 1.398 . S
C670 C671 1.391 . S
C671 H659 0.950 . S
C671 C667 1.393 . S
C671 C670 1.391 . S
H672 C680 0.950 . S
H673 C685 0.950 . S
H674 C682 0.950 . S
H675 C684 0.950 . S
H676 C686 0.950 . S
H677 C688 0.950 . S
H678 C690 0.950 . S
H679 C691 0.950 . S
C680 H672 0.950 . S
C680 C681 1.386 . S
C680 C682 1.391 . S
C681 C680 1.386 . S
C681 C685 1.393 . S
C682 H674 0.950 . S
C682 C680 1.391 . S
C682 C683 1.400 . S
C683 C682 1.400 . S
C683 C684 1.398 . S
C683 C689 1.491 . S
C684 H675 0.950 . S
C684 C683 1.398 . S
C684 C685 1.391 . S
C685 H673 0.950 . S
C685 C681 1.393 . S
C685 C684 1.391 . S
C686 H676 0.950 . S
C686 C687 1.386 . S
C686 C688 1.391 . S
C687 C686 1.386 . S
C687 C691 1.393 . S
C688 H677 0.950 . S
C688 C686 1.391 . S
C688 C689 1.400 . S
C689 C683 1.491 . S
C689 C688 1.400 . S
C689 C690 1.398 . S
C690 H678 0.950 . S
C690 C689 1.398 . S
C690 C691 1.391 . S
C691 H679 0.950 . S
C691 C687 1.393 . S
C691 C690 1.391 . S
H692 C700 0.950 . S
H693 C705 0.950 . S
H694 C702 0.950 . S
H695 C704 0.950 . S
H696 C706 0.950 . S
H697 C708 0.950 . S
H698 C710 0.950 . S
H699 C711 0.950 . S
C700 H692 0.950 . S
C700 C701 1.386 . S
C700 C702 1.391 . S
C701 C700 1.386 . S
C701 C705 1.393 . S
C702 H694 0.950 . S
C702 C700 1.391 . S
C702 C703 1.400 . S
C703 C702 1.400 . S
C703 C704 1.398 . S
C703 C709 1.491 . S
C704 H695 0.950 . S
C704 C703 1.398 . S
C704 C705 1.391 . S
C705 H693 0.950 . S
C705 C701 1.393 . S
C705 C704 1.391 . S
C706 H696 0.950 . S
C706 C707 1.386 . S
C706 C708 1.391 . S
C707 C706 1.386 . S
C707 C711 1.393 . S
C708 H697 0.950 . S
C708 C706 1.391 . S
C708 C709 1.400 . S
C709 C703 1.491 . S
C709 C708 1.400 . S
C709 C710 1.398 . S
C710 H698 0.950 . S
C710 C709 1.398 . S
C710 C711 1.391 . S
C711 H699 0.950 . S
C711 C707 1.393 . S
C711 C710 1.391 . S
C241 C51 1.499 1_655 S
C247 C108 1.495 . S
C261 C56 1.499 . S
C267 C173 1.499 1_565 S
C281 C53 1.499 1_655 S
C287 C110 1.499 . S
C301 C170 1.499 1_565 S
C307 C55 1.495 . S
C321 C50 1.499 . S
C327 C109 1.503 1_655 S
C341 C57 1.499 1_565 S
C347 C172 1.499 . S
C361 C111 1.499 1_655 S
C367 C52 1.499 . S
C381 C171 1.499 . S
C387 C54 1.503 1_565 S
C401 C220 1.499 1_556 S
C407 C47 1.495 . S
C421 C223 1.499 1_556 S
C427 C48 1.499 . S
C441 C222 1.499 . S
C447 C49 1.499 1_556 S
C461 C46 1.499 . S
C467 C221 1.503 1_556 S
C481 C231 1.499 . S
C487 C114 1.503 . S
C501 C113 1.499 . S
C507 C228 1.499 . S
C521 C115 1.499 . S
C527 C230 1.495 . S
C541 C229 1.499 . S
C547 C112 1.499 . S
C561 C162 1.499 . S
C567 C105 1.499 . S
C581 C106 1.499 . S
C587 C165 1.495 . S
C601 C107 1.499 . S
C607 C164 1.503 . S
C621 C163 1.499 . S
C627 C104 1.499 . S
C641 C224 1.499 . S
C647 C167 1.499 . S
C661 C169 1.499 . S
C667 C226 1.503 . S
C681 C225 1.499 . S
C687 C166 1.499 . S
C701 C168 1.499 . S
C707 C227 1.495 . S
