# Generated by pormake.
# Topology lhb, (8)-cn, num edge types: 1
# Building blocks:
#     Node 0, Type 0, BuildingBlock: LIZSOE_clean_sbu_0, # of connection points: 8
#     Node 1, Type 0, BuildingBlock: LIZSOE_clean_sbu_0, # of connection points: 8
#     Node 2, Type 0, BuildingBlock: LIZSOE_clean_sbu_0, # of connection points: 8
#     Node 3, Type 0, BuildingBlock: LIZSOE_clean_sbu_0, # of connection points: 8
#     Node 4, Type 0, BuildingBlock: LIZSOE_clean_sbu_0, # of connection points: 8
#     Node 5, Type 0, BuildingBlock: LIZSOE_clean_sbu_0, # of connection points: 8
#     Node 6, Type 0, BuildingBlock: LIZSOE_clean_sbu_0, # of connection points: 8
#     Node 7, Type 0, BuildingBlock: LIZSOE_clean_sbu_0, # of connection points: 8
#     Edge 8, Type (0, 0), BuildingBlock: XIVTED_clean_linker_0, # of connection points: 2
#     Edge 9, Type (0, 0), BuildingBlock: XIVTED_clean_linker_0, # of connection points: 2
#     Edge 10, Type (0, 0), BuildingBlock: XIVTED_clean_linker_0, # of connection points: 2
#     Edge 11, Type (0, 0), BuildingBlock: XIVTED_clean_linker_0, # of connection points: 2
#     Edge 12, Type (0, 0), BuildingBlock: XIVTED_clean_linker_0, # of connection points: 2
#     Edge 13, Type (0, 0), BuildingBlock: XIVTED_clean_linker_0, # of connection points: 2
#     Edge 14, Type (0, 0), BuildingBlock: XIVTED_clean_linker_0, # of connection points: 2
#     Edge 15, Type (0, 0), BuildingBlock: XIVTED_clean_linker_0, # of connection points: 2
#     Edge 16, Type (0, 0), BuildingBlock: XIVTED_clean_linker_0, # of connection points: 2
#     Edge 17, Type (0, 0), BuildingBlock: XIVTED_clean_linker_0, # of connection points: 2
#     Edge 18, Type (0, 0), BuildingBlock: XIVTED_clean_linker_0, # of connection points: 2
#     Edge 19, Type (0, 0), BuildingBlock: XIVTED_clean_linker_0, # of connection points: 2
#     Edge 20, Type (0, 0), BuildingBlock: XIVTED_clean_linker_0, # of connection points: 2
#     Edge 21, Type (0, 0), BuildingBlock: XIVTED_clean_linker_0, # of connection points: 2
#     Edge 22, Type (0, 0), BuildingBlock: XIVTED_clean_linker_0, # of connection points: 2
#     Edge 23, Type (0, 0), BuildingBlock: XIVTED_clean_linker_0, # of connection points: 2
#     Edge 24, Type (0, 0), BuildingBlock: XIVTED_clean_linker_0, # of connection points: 2
#     Edge 25, Type (0, 0), BuildingBlock: XIVTED_clean_linker_0, # of connection points: 2
#     Edge 26, Type (0, 0), BuildingBlock: XIVTED_clean_linker_0, # of connection points: 2
#     Edge 27, Type (0, 0), BuildingBlock: XIVTED_clean_linker_0, # of connection points: 2
#     Edge 28, Type (0, 0), BuildingBlock: XIVTED_clean_linker_0, # of connection points: 2
#     Edge 29, Type (0, 0), BuildingBlock: XIVTED_clean_linker_0, # of connection points: 2
#     Edge 30, Type (0, 0), BuildingBlock: XIVTED_clean_linker_0, # of connection points: 2
#     Edge 31, Type (0, 0), BuildingBlock: XIVTED_clean_linker_0, # of connection points: 2
#     Edge 32, Type (0, 0), BuildingBlock: XIVTED_clean_linker_0, # of connection points: 2
#     Edge 33, Type (0, 0), BuildingBlock: XIVTED_clean_linker_0, # of connection points: 2
#     Edge 34, Type (0, 0), BuildingBlock: XIVTED_clean_linker_0, # of connection points: 2
#     Edge 35, Type (0, 0), BuildingBlock: XIVTED_clean_linker_0, # of connection points: 2
#     Edge 36, Type (0, 0), BuildingBlock: XIVTED_clean_linker_0, # of connection points: 2
#     Edge 37, Type (0, 0), BuildingBlock: XIVTED_clean_linker_0, # of connection points: 2
#     Edge 38, Type (0, 0), BuildingBlock: XIVTED_clean_linker_0, # of connection points: 2
#     Edge 39, Type (0, 0), BuildingBlock: XIVTED_clean_linker_0, # of connection points: 2
# Relax obj value: 0.116
# Max RMSD: 0.212
# Mean RMSD: 0.212
data_MOF--net-lhb--node1-LIZSOE_clean_sbu_0--edge1-XIVTED_clean_linker_0
_symmetry_space_group_name_H-M    P1
_symmetry_Int_Tables_number       1
_symmetry_cell_setting            triclinic
loop_
_symmetry_equiv_pos_as_xyz
'x, y, z'
_cell_length_a     43.917356
_cell_length_b     15.111522
_cell_length_c     41.765845
_cell_angle_alpha  89.950173
_cell_angle_beta   89.988222
_cell_angle_gamma 90.002389
loop_
_atom_site_label
_atom_site_type_symbol
_atom_site_fract_x
_atom_site_fract_y
_atom_site_fract_z
_atom_type_partial_charge
Co0 Co 0.06499 0.18752 1.0288 0.0
N1 N 0.10506 0.22076 1.02813 0.0
C2 C 0.11951 0.23814 1.00032 0.0
N3 N 0.1523 0.26644 1.03855 0.0
C4 C 0.12569 0.23978 0.05125 0.0
C5 C 0.14865 0.26565 1.00664 0.0
Co6 Co 0.94933 0.90447 1.02996 0.0
N7 N 0.90931 0.8707 1.02984 0.0
N8 N 0.86224 0.82453 1.04087 0.0
C9 C 0.86564 0.82451 1.00893 0.0
C10 C 0.89469 0.85229 1.00223 0.0
C11 C 0.88889 0.85199 0.05322 0.0
Co12 Co 1.00705 0.04637 1.03364 0.0
C13 C 0.98715 0.8558 0.05142 0.0
H14 H 0.90464 0.8588 0.97865 0.0
O15 O 0.02539 0.16882 1.03116 0.0
O16 O 0.9777 0.08544 0.06937 0.0
O17 O 0.0367 1.00807 0.06921 0.0
O18 O 0.03614 1.00002 0.99902 0.0
O19 O 0.07376 0.09848 0.99897 0.0
O20 O 0.9412 0.98481 0.06231 0.0
O21 O 0.98881 0.92376 1.03178 0.0
O22 O 0.94022 0.99247 0.99982 0.0
O23 O 0.07328 0.10812 0.06149 0.0
O24 O 0.0544 0.26633 0.05729 0.0
O25 O 0.97754 0.09195 0.99922 0.0
O26 O 0.96028 0.82668 0.05876 0.0
C27 C 0.06261 1.04268 0.0766 0.0
C28 C 0.8951 0.85322 0.0886 0.0
H29 H 0.91893 0.8686 0.09478 0.0
H30 H 0.87987 0.90202 0.10013 0.0
H31 H 0.88918 0.7877 0.0989 0.0
C32 C 0.95187 0.05079 0.07706 0.0
C33 C 0.06225 1.02663 0.98902 0.0
H34 H 0.10936 0.23114 0.97686 0.0
H35 H 0.12612 0.30491 0.09675 0.0
H36 H 0.13484 0.1902 0.09823 0.0
H37 H 0.09592 0.2253 0.09316 0.0
C38 C 0.11977 0.23949 0.0867 0.0
C39 C 0.0274 0.23716 0.05056 0.0
C40 C 0.95142 0.06447 0.98953 0.0
H41 H 0.16607 0.28198 0.98926 0.0
H42 H 0.84812 0.80749 0.99177 0.0
Co43 Co 0.19919 0.43803 0.27903 0.0
N44 N 0.15908 0.47095 0.27854 0.0
C45 C 0.14442 0.48762 0.25079 0.0
N46 N 0.11186 0.51631 0.28922 0.0
C47 C 0.13859 0.49018 0.30178 0.0
C48 C 0.11528 0.51491 0.25729 0.0
Co49 Co 0.31532 0.15647 0.27957 0.0
N50 N 0.3555 0.12394 0.27948 0.0
N51 N 0.40278 0.08016 0.29077 0.0
C52 C 0.39976 0.08179 0.25879 0.0
C53 C 0.37058 0.10808 0.25192 0.0
C54 C 0.37578 0.10516 0.30298 0.0
Co55 Co 0.25722 0.29718 0.28362 0.0
C56 C 0.27762 0.10676 0.30112 0.0
H57 H 0.36089 0.11545 0.22826 0.0
O58 O 0.23876 0.41948 0.28127 0.0
O59 O 0.28661 0.33655 0.31929 0.0
O60 O 0.22765 0.25827 0.31923 0.0
O61 O 0.22808 0.25075 0.24907 0.0
O62 O 0.19045 0.3492 0.24909 0.0
O63 O 0.32325 0.23671 0.3119 0.0
O64 O 0.27571 0.1748 0.28153 0.0
O65 O 0.32416 0.24494 0.24944 0.0
O66 O 0.19103 0.3582 0.31157 0.0
O67 O 0.20979 0.51667 0.30763 0.0
O68 O 0.28649 0.34329 0.24912 0.0
O69 O 0.30461 0.07825 0.30832 0.0
C70 C 0.2017 0.29268 0.32661 0.0
C71 C 0.3691 0.10308 0.33828 0.0
H72 H 0.34562 0.12224 0.34448 0.0
H73 H 0.38527 0.14697 0.35094 0.0
H74 H 0.37329 1.03517 0.34741 0.0
C75 C 0.31255 0.30233 0.32679 0.0
C76 C 0.20197 0.27739 0.23909 0.0
H77 H 0.15441 0.48031 0.22727 0.0
H78 H 0.13972 0.55821 0.34665 0.0
H79 H 0.12898 0.44514 0.34931 0.0
H80 H 0.16842 0.47395 0.34356 0.0
C81 C 0.1448 0.49124 0.33717 0.0
C82 C 0.23677 0.48764 0.30075 0.0
C83 C 0.31264 0.31662 0.23927 0.0
H84 H 0.09773 0.53077 0.24001 0.0
H85 H 0.41761 0.06688 0.24174 0.0
Co86 Co 0.69872 0.93744 0.27943 0.0
N87 N 0.65849 0.96947 0.27922 0.0
C88 C 0.64331 0.98424 0.25164 0.0
N89 N 0.61105 1.01195 0.29045 0.0
C90 C 0.63816 0.98813 0.3027 0.0
C91 C 0.61404 1.0097 0.25848 0.0
Co92 Co 0.81507 0.65662 0.27953 0.0
N93 N 0.85519 0.62387 0.2791 0.0
N94 N 0.90244 0.57876 0.28981 0.0
C95 C 0.899 0.57988 0.25788 0.0
C96 C 0.86984 0.607 0.25137 0.0
C97 C 0.87571 0.60492 0.30235 0.0
Co98 Co 0.75697 0.79722 0.28384 0.0
C99 C 0.77749 0.60689 0.30127 0.0
H100 H 0.85984 0.61406 0.22784 0.0
O101 O 0.73837 0.91948 0.28151 0.0
O102 O 0.7865 0.83667 0.31939 0.0
O103 O 0.72758 0.75805 0.31958 0.0
O104 O 0.72779 0.75053 0.2494 0.0
O105 O 0.69003 0.84853 0.2495 0.0
O106 O 0.82317 0.73682 0.3119 0.0
O107 O 0.77551 0.675 0.28172 0.0
O108 O 0.82378 0.74518 0.24942 0.0
O109 O 0.69084 0.8575 0.31193 0.0
O110 O 0.70929 1.01617 0.308 0.0
O111 O 0.78612 0.84352 0.24924 0.0
O112 O 0.8045 0.57825 0.3083 0.0
C113 C 0.7016 0.79216 0.32699 0.0
C114 C 0.86952 0.60416 0.33775 0.0
H115 H 0.84593 0.62174 0.34414 0.0
H116 H 0.88542 0.65014 0.3498 0.0
H117 H 0.87451 0.53717 0.34732 0.0
C118 C 0.81247 0.80246 0.32681 0.0
C119 C 0.70163 0.77686 0.23947 0.0
H120 H 0.65299 0.97654 0.22799 0.0
H121 H 0.64077 0.05937 0.3468 0.0
H122 H 0.6286 0.94785 0.35085 0.0
H123 H 0.66831 0.97188 0.34426 0.0
C124 C 0.64485 0.99113 0.33798 0.0
C125 C 0.73631 0.98756 0.30103 0.0
C126 C 0.81224 0.81689 0.23931 0.0
H127 H 0.5961 1.02355 0.24141 0.0
H128 H 0.91655 0.56396 0.2406 0.0
Co129 Co 0.06518 0.68989 0.5294 0.0
N130 N 0.10532 0.72297 0.52917 0.0
C131 C 0.12008 0.73977 0.5015 0.0
N132 N 0.15294 0.76477 0.54002 0.0
C133 C 0.12596 0.74018 0.55248 0.0
C134 C 0.14942 0.76489 0.50808 0.0
Co135 Co 0.94968 0.40605 0.52909 0.0
N136 N 0.90967 0.37208 0.52846 0.0
N137 N 0.86239 0.3263 0.53875 0.0
C138 C 0.86623 0.32647 0.50686 0.0
C139 C 0.89539 0.35398 0.50062 0.0
C140 C 0.88892 0.35338 0.55151 0.0
Co141 Co 0.00731 0.54823 0.53344 0.0
C142 C 0.98732 0.35743 0.55088 0.0
H143 H 0.90565 0.36069 0.47719 0.0
O144 O 0.02559 0.67095 0.53131 0.0
O145 O 0.97767 0.58672 0.56898 0.0
O146 O 0.03674 0.5095 0.56916 0.0
O147 O 0.03674 0.50233 0.49898 0.0
O148 O 0.07417 0.60135 0.49957 0.0
O149 O 0.94124 0.48599 0.56154 0.0
O150 O 0.98914 0.42554 0.53131 0.0
O151 O 0.94079 0.49433 0.49909 0.0
O152 O 0.07322 0.61014 0.56202 0.0
O153 O 0.05433 0.76826 0.55791 0.0
O154 O 0.97798 0.59414 0.49885 0.0
O155 O 0.9604 0.32796 0.55785 0.0
C156 C 0.06254 0.54425 0.57685 0.0
C157 C 0.89469 0.35423 0.58697 0.0
H158 H 0.91847 0.36924 0.59346 0.0
H159 H 0.87938 0.4031 0.59835 0.0
H160 H 0.88855 0.28869 0.59711 0.0
C161 C 0.9518 0.55189 0.57645 0.0
C162 C 0.06292 0.52947 0.48933 0.0
H163 H 0.11008 0.73342 0.47794 0.0
H164 H 0.12631 0.80617 0.5978 0.0
H165 H 0.13406 0.69099 0.59978 0.0
H166 H 0.09556 0.72837 0.59397 0.0
C167 C 0.1196 0.74096 0.58784 0.0
C168 C 0.0274 0.73912 0.55082 0.0
C169 C 0.95194 0.56655 0.48899 0.0
H170 H 0.1671 0.77978 0.49082 0.0
H171 H 0.8489 0.30992 0.48942 0.0
Co172 Co 0.19918 0.93709 0.77932 0.0
N173 N 0.15896 0.96947 0.77908 0.0
C174 C 0.14392 0.9851 0.75148 0.0
N175 N 0.11156 1.01246 0.79024 0.0
C176 C 0.13858 0.98793 0.80252 0.0
C177 C 0.11467 1.01092 0.75827 0.0
Co178 Co 0.31521 0.65513 0.77991 0.0
N179 N 0.35528 0.62166 0.77961 0.0
N180 N 0.40231 0.57456 0.79032 0.0
C181 C 0.39871 0.57459 0.7584 0.0
C182 C 0.3697 0.60301 0.7519 0.0
C183 C 0.3758 0.6026 0.80285 0.0
Co184 Co 0.25735 0.79652 0.7838 0.0
C185 C 0.27749 0.60604 0.80147 0.0
H186 H 0.3596 0.60943 0.7284 0.0
O187 O 0.23884 0.9189 0.78139 0.0
O188 O 0.28673 0.83572 0.81946 0.0
O189 O 0.22785 0.75763 0.81945 0.0
O190 O 0.22822 0.75009 0.74924 0.0
O191 O 0.19042 0.84805 0.74948 0.0
O192 O 0.32334 0.73544 0.81229 0.0
O193 O 0.27572 0.67409 0.78187 0.0
O194 O 0.32414 0.74321 0.74982 0.0
O195 O 0.19122 0.85747 0.81193 0.0
O196 O 0.20982 1.01593 0.80779 0.0
O197 O 0.28676 0.84246 0.7493 0.0
O198 O 0.30442 0.57716 0.80872 0.0
C199 C 0.20194 0.79201 0.82694 0.0
C200 C 0.3698 0.60399 0.83827 0.0
H201 H 0.34601 0.61948 0.84458 0.0
H202 H 0.38512 0.65286 0.84966 0.0
H203 H 0.37575 0.53852 0.84858 0.0
C204 C 0.31262 0.80128 0.82708 0.0
C205 C 0.20203 0.77645 0.73938 0.0
H206 H 0.15368 0.97777 0.72785 0.0
H207 H 0.13979 0.05644 0.8473 0.0
H208 H 0.1296 0.943 0.85021 0.0
H209 H 0.16885 0.97331 0.84406 0.0
C210 C 0.14511 0.98957 0.83785 0.0
C211 C 0.23682 0.98708 0.80086 0.0
C212 C 0.31288 0.81512 0.73956 0.0
H213 H 0.09683 1.0255 0.74117 0.0
H214 H 0.41604 0.55675 0.74112 0.0
Co215 Co 0.81566 0.15585 0.78018 0.0
N216 N 0.85581 0.12301 0.78026 0.0
C217 C 0.87089 0.1066 0.75274 0.0
N218 N 0.90309 0.07928 0.79164 0.0
C219 C 0.87609 0.10457 0.8038 0.0
C220 C 0.90005 0.08038 0.75966 0.0
Co221 Co 0.69948 0.43745 0.77898 0.0
N222 N 0.65926 0.46963 0.77858 0.0
N223 N 0.6116 0.51107 0.7894 0.0
C224 C 0.61499 0.5098 0.75745 0.0
C225 C 0.64436 0.48487 0.75088 0.0
C226 C 0.63867 0.4875 0.80188 0.0
Co227 Co 0.7577 0.29707 0.78371 0.0
C228 C 0.7371 0.48786 0.80045 0.0
H229 H 0.6543 0.47771 0.72732 0.0
O230 O 0.77613 0.17456 0.78191 0.0
O231 O 0.72816 0.2585 0.81937 0.0
O232 O 0.78701 0.3369 0.81938 0.0
O233 O 0.78714 0.34275 0.74921 0.0
O234 O 0.82461 0.24375 0.74999 0.0
O235 O 0.69156 0.35858 0.8119 0.0
O236 O 0.73914 0.41934 0.78113 0.0
O237 O 0.69076 0.34772 0.74945 0.0
O238 O 0.82355 0.23649 0.81239 0.0
O239 O 0.8048 0.07815 0.80906 0.0
O240 O 0.72864 0.25013 0.74915 0.0
O241 O 0.7101 0.51711 0.80715 0.0
C242 C 0.81287 0.3025 0.82708 0.0
C243 C 0.64513 0.49001 0.83722 0.0
H244 H 0.66913 0.47716 0.84339 0.0
H245 H 0.63055 0.44107 0.84957 0.0
H246 H 0.63864 0.55593 0.84673 0.0
C247 C 0.70231 0.29318 0.82694 0.0
C248 C 0.81331 0.3155 0.7396 0.0
H249 H 0.86119 0.11363 0.72907 0.0
H250 H 0.87353 1.03531 0.84836 0.0
H251 H 0.88563 0.14706 0.85166 0.0
H252 H 0.84593 0.12254 0.84523 0.0
C253 C 0.86941 0.10311 0.83909 0.0
C254 C 0.77788 0.10667 0.80159 0.0
C255 C 0.70239 0.27617 0.73937 0.0
H256 H 0.9179 0.06523 0.74264 0.0
H257 H 0.59723 0.52379 0.74019 0.0
Co258 Co 0.56457 0.19102 0.52915 0.0
N259 N 0.60453 0.22553 0.52849 0.0
C260 C 0.61867 0.24468 0.50065 0.0
N261 N 0.65177 0.27177 0.53872 0.0
C262 C 0.62532 0.24389 0.55151 0.0
C263 C 0.6478 0.2725 0.50685 0.0
Co264 Co 0.44969 0.90517 0.52941 0.0
N265 N 0.4097 0.87074 0.52896 0.0
N266 N 0.36267 0.82325 0.53956 0.0
C267 C 0.36631 0.82365 0.50764 0.0
C268 C 0.39532 0.85228 0.50121 0.0
C269 C 0.38916 0.85129 0.55215 0.0
Co270 Co 0.50712 0.04814 0.53359 0.0
C271 C 0.48744 0.8572 0.55121 0.0
H272 H 0.40543 0.85916 0.47772 0.0
O273 O 0.52509 0.17112 0.53141 0.0
O274 O 0.47746 0.08635 0.56916 0.0
O275 O 0.53675 1.01024 0.56923 0.0
O276 O 0.53658 1.00265 0.49909 0.0
O277 O 0.57361 0.10299 0.49911 0.0
O278 O 0.44116 0.98532 0.56173 0.0
O279 O 0.48917 0.92511 0.53154 0.0
O280 O 0.44061 0.99304 0.49925 0.0
O281 O 0.57316 0.111 0.56165 0.0
O282 O 0.55376 0.26882 0.55792 0.0
O283 O 0.47766 0.09336 0.49903 0.0
O284 O 0.46057 0.82757 0.55827 0.0
C285 C 0.56262 1.04512 0.57663 0.0
C286 C 0.39516 0.85205 0.58758 0.0
H287 H 0.41882 0.86885 0.59396 0.0
H288 H 0.37948 0.89954 0.59919 0.0
H289 H 0.3897 0.78589 0.59762 0.0
C290 C 0.45162 0.05137 0.57661 0.0
C291 C 0.56255 1.03059 0.48911 0.0
H292 H 0.60834 0.23849 0.47725 0.0
H293 H 0.62674 0.30567 0.59761 0.0
H294 H 0.63441 0.19025 0.59788 0.0
H295 H 0.59577 0.22869 0.59349 0.0
C296 C 0.61971 0.24154 0.58699 0.0
C297 C 0.52687 0.23907 0.55102 0.0
C298 C 0.45168 0.06537 0.48913 0.0
H299 H 0.66503 0.28986 0.48939 0.0
H300 H 0.349 0.8061 0.49032 0.0
Co301 Co 0.56556 0.68764 1.02954 0.0
N302 N 0.6057 0.72038 1.02929 0.0
C303 C 0.62045 0.73763 1.00164 0.0
N304 N 0.65291 0.76537 1.04024 0.0
C305 C 0.62613 0.73905 0.05264 0.0
C306 C 0.64958 0.76469 1.00829 0.0
Co307 Co 0.44936 0.40641 1.02918 0.0
N308 N 0.40927 0.37347 1.02863 0.0
N309 N 0.36202 0.32792 1.03912 0.0
C310 C 0.36567 0.32853 1.00721 0.0
C311 C 0.39483 0.35594 1.00084 0.0
C312 C 0.38863 0.35463 0.05178 0.0
Co313 Co 0.50744 0.54705 1.03367 0.0
C314 C 0.48694 0.35654 0.05086 0.0
H315 H 0.40498 0.36275 0.97737 0.0
O316 O 0.52596 0.66933 1.03155 0.0
O317 O 0.47795 0.58584 0.06931 0.0
O318 O 0.53681 0.50768 0.06935 0.0
O319 O 0.53666 0.50095 0.99915 0.0
O320 O 0.57441 0.59902 0.99954 0.0
O321 O 0.44125 0.48604 0.06181 0.0
O322 O 0.48893 0.42483 1.0314 0.0
O323 O 0.44061 0.49544 0.99929 0.0
O324 O 0.57351 0.60755 0.06206 0.0
O325 O 0.55487 0.76608 0.05817 0.0
O326 O 0.4783 0.59368 0.99915 0.0
O327 O 0.45994 0.32752 0.05774 0.0
C328 C 0.56271 0.54194 0.07695 0.0
C329 C 0.39454 0.35513 0.08722 0.0
H330 H 0.4184 0.36934 0.09363 0.0
H331 H 0.37947 0.40451 0.09868 0.0
H332 H 0.38818 0.28978 0.09737 0.0
C333 C 0.45203 0.55146 0.07681 0.0
C334 C 0.56285 0.52747 0.98935 0.0
H335 H 0.61053 0.73084 0.97807 0.0
H336 H 0.62555 0.80511 0.09794 0.0
H337 H 0.63519 0.69108 0.09989 0.0
H338 H 0.59605 0.72337 0.09426 0.0
C339 C 0.61984 0.73904 0.08802 0.0
C340 C 0.52789 0.73744 0.05107 0.0
C341 C 0.45215 0.56721 0.98924 0.0
H342 H 0.66719 0.78084 0.99111 0.0
H343 H 0.34826 0.3121 0.98985 0.0
H344 H 0.04439 0.07808 0.13742 0.0
H345 H 0.21786 0.1398 0.19712 0.0
H346 H 0.12064 0.98005 0.08342 0.0
H347 H 0.14032 0.28582 0.23216 0.0
H348 H 0.18317 0.05495 0.16191 0.0
H349 H 0.07928 0.12157 0.18037 0.0
C350 C 0.06825 0.06075 0.13537 0.0
C351 C 0.07934 1.0236 0.10686 0.0
C352 C 0.17385 0.10528 0.17753 0.0
C353 C 0.12008 0.07753 0.15562 0.0
C354 C 0.19369 0.15393 0.19759 0.0
C355 C 0.1823 0.2215 0.21748 0.0
C356 C 0.14226 0.12268 0.17785 0.0
C357 C 0.15054 0.23584 0.21703 0.0
C358 C 0.0884 0.08777 0.15963 0.0
C359 C 0.11091 1.00662 0.10521 0.0
N360 N 0.13191 0.18733 0.19777 0.0
N361 N 0.13015 1.03454 0.12892 0.0
H362 H 0.97003 1.01646 0.13798 0.0
H363 H 0.79639 0.954 0.19705 0.0
H364 H 0.89392 0.11414 0.08366 0.0
H365 H 0.87393 0.80901 0.23269 0.0
H366 H 0.83115 1.03904 0.16192 0.0
H367 H 0.93504 0.97328 0.18091 0.0
C368 C 0.94618 1.03382 0.13585 0.0
C369 C 0.93516 0.07073 0.10725 0.0
C370 C 0.84045 0.98891 0.17765 0.0
C371 C 0.8943 1.01711 0.15598 0.0
C372 C 0.82058 0.94014 0.19767 0.0
C373 C 0.83195 0.87281 0.21771 0.0
C374 C 0.87207 0.97186 0.17817 0.0
C375 C 0.86372 0.85879 0.21745 0.0
C376 C 0.92597 1.00697 0.1601 0.0
C377 C 0.9036 0.08775 0.10551 0.0
N378 N 0.88239 0.90741 0.19823 0.0
N379 N 0.8843 0.05995 0.1292 0.0
H380 H 0.12454 0.54017 0.48352 0.0
H381 H 0.14396 0.22801 0.33259 0.0
H382 H 0.04841 0.39098 0.44687 0.0
H383 H 0.21889 0.32939 0.38773 0.0
H384 H 0.10889 0.27045 0.37572 0.0
H385 H 0.15865 0.456 0.44958 0.0
C386 C 0.11478 0.48979 0.46821 0.0
C387 C 0.08313 0.47417 0.46804 0.0
C388 C 0.1331 0.28046 0.37902 0.0
C389 C 0.12308 0.37526 0.42841 0.0
C390 C 0.15332 0.25444 0.35459 0.0
C391 C 0.18474 0.27291 0.35668 0.0
C392 C 0.14415 0.32811 0.40547 0.0
C393 C 0.19513 0.31148 0.38525 0.0
C394 C 0.13456 0.44083 0.44889 0.0
C395 C 0.07247 0.4062 0.44783 0.0
N396 N 0.17494 0.33955 0.40798 0.0
N397 N 0.0923 0.36018 0.42857 0.0
H398 H 0.87013 0.86787 0.33248 0.0
H399 H 0.89037 0.55476 0.48309 0.0
H400 H 0.7955 0.76607 0.38805 0.0
H401 H 0.96619 0.70609 0.44674 0.0
H402 H 0.85609 0.6389 0.4493 0.0
H403 H 0.9054 0.82573 0.37549 0.0
C404 C 0.86088 0.84142 0.35455 0.0
C405 C 0.82949 0.8227 0.35678 0.0
C406 C 0.88015 0.65455 0.44864 0.0
C407 C 0.8703 0.76786 0.40544 0.0
C408 C 0.90003 0.6056 0.46787 0.0
C409 C 0.93165 0.62183 0.46774 0.0
C410 C 0.89149 0.72072 0.42829 0.0
C411 C 0.94216 0.69038 0.44766 0.0
C412 C 0.88121 0.81559 0.37891 0.0
C413 C 0.81923 0.78415 0.38544 0.0
N414 N 0.92223 0.73638 0.42848 0.0
N415 N 0.83953 0.75624 0.4081 0.0
H416 H 0.04436 0.57845 0.63777 0.0
H417 H 0.21803 0.64094 0.69658 0.0
H418 H 0.12047 0.48074 0.58348 0.0
H419 H 0.14029 0.78266 0.73336 0.0
H420 H 0.18332 0.5563 0.66133 0.0
H421 H 0.07931 0.62088 0.68078 0.0
C422 C 0.06821 0.56095 0.63565 0.0
C423 C 0.07924 0.52425 0.60705 0.0
C424 C 0.17396 0.60558 0.67736 0.0
C425 C 0.12007 0.57703 0.65588 0.0
C426 C 0.19381 0.65411 0.69744 0.0
C427 C 0.18236 0.72045 0.71782 0.0
C428 C 0.1423 0.62187 0.67814 0.0
C429 C 0.15054 0.73366 0.71785 0.0
C430 C 0.08839 0.58736 0.65996 0.0
C431 C 0.11079 0.50699 0.60534 0.0
N432 N 0.13191 0.68531 0.69854 0.0
N433 N 0.13007 0.53438 0.62908 0.0
H434 H 0.87492 0.3045 0.73358 0.0
H435 H 0.8941 0.61702 0.58254 0.0
H436 H 0.79875 0.45405 0.69712 0.0
H437 H 0.96909 0.51495 0.63749 0.0
H438 H 0.85912 0.57495 0.62584 0.0
H439 H 0.90897 0.3887 0.69954 0.0
C440 C 0.86513 0.35494 0.71828 0.0
C441 C 0.83349 0.37066 0.7182 0.0
C442 C 0.88333 0.56469 0.62905 0.0
C443 C 0.87337 0.46963 0.67846 0.0
C444 C 0.90349 0.59048 0.60453 0.0
C445 C 0.93489 0.57168 0.60652 0.0
C446 C 0.89441 0.5168 0.65547 0.0
C447 C 0.94534 0.53304 0.63507 0.0
C448 C 0.88488 0.40393 0.69891 0.0
C449 C 0.82281 0.43874 0.69801 0.0
N450 N 0.92519 0.5051 0.65789 0.0
N451 N 0.8426 0.4848 0.6787 0.0
H452 H 0.22004 0.82642 0.88789 0.0
H453 H 0.04633 0.89017 0.94659 0.0
H454 H 0.1439 0.72951 0.83349 0.0
H455 H 0.12396 1.0338 0.98265 0.0
H456 H 0.08107 0.80522 0.91147 0.0
H457 H 0.18502 0.86989 0.93074 0.0
C458 C 0.19617 0.80929 0.88573 0.0
C459 C 0.18515 0.77247 0.85714 0.0
C460 C 0.0904 0.85501 0.9273 0.0
C461 C 0.14426 0.82646 0.90577 0.0
C462 C 0.07053 0.90371 0.94732 0.0
C463 C 0.08194 0.97063 0.96747 0.0
C464 C 0.12204 0.87169 0.92794 0.0
C465 C 0.11373 0.98431 0.96732 0.0
C466 C 0.17595 0.83632 0.90993 0.0
C467 C 0.15357 0.7558 0.85535 0.0
N468 N 0.13239 0.93574 0.9481 0.0
N469 N 0.13426 0.78378 0.87898 0.0
H470 H 0.87054 0.36752 0.833 0.0
H471 H 0.88987 0.05217 0.98304 0.0
H472 H 0.79552 0.26667 0.88823 0.0
H473 H 0.96588 0.20437 0.94761 0.0
H474 H 0.85579 0.13698 0.94922 0.0
H475 H 0.90558 0.3245 0.87609 0.0
C476 C 0.86116 0.34115 0.85503 0.0
C477 C 0.82973 0.32289 0.85713 0.0
C478 C 0.87985 0.15266 0.94878 0.0
C479 C 0.87027 0.26705 0.90587 0.0
C480 C 0.89961 0.10333 0.96802 0.0
C481 C 0.93122 0.11967 0.96818 0.0
C482 C 0.89131 0.2193 0.9287 0.0
C483 C 0.94185 0.18857 0.94832 0.0
C484 C 0.88136 0.31479 0.87942 0.0
C485 C 0.8193 0.2844 0.88573 0.0
N486 N 0.92205 0.23494 0.92913 0.0
N487 N 0.83947 0.25595 0.90843 0.0
H488 H 0.71835 0.14065 0.69653 0.0
H489 H 0.54463 0.07903 0.63765 0.0
H490 H 0.64064 0.28229 0.73344 0.0
H491 H 0.62071 0.98252 0.58302 0.0
H492 H 0.57963 0.12101 0.68067 0.0
H493 H 0.68361 0.05645 0.66116 0.0
C494 C 0.69413 0.15389 0.69739 0.0
C495 C 0.6827 0.22011 0.71784 0.0
C496 C 0.5887 0.08787 0.65976 0.0
C497 C 0.64261 0.12212 0.67799 0.0
C498 C 0.56849 0.06173 0.63545 0.0
C499 C 0.57949 1.02544 0.60676 0.0
C500 C 0.62038 0.07769 0.65563 0.0
C501 C 0.61105 1.00845 0.60495 0.0
C502 C 0.67426 0.10564 0.67723 0.0
C503 C 0.65089 0.2334 0.71787 0.0
N504 N 0.63036 1.03554 0.62871 0.0
N505 N 0.63224 0.18535 0.69848 0.0
H506 H 0.3938 0.11564 0.58235 0.0
H507 H 0.37447 0.80395 0.7335 0.0
H508 H 0.46875 1.01545 0.6378 0.0
H509 H 0.29833 0.95386 0.69714 0.0
H510 H 0.40853 0.88814 0.69947 0.0
H511 H 0.35872 0.07351 0.62556 0.0
C512 C 0.40315 0.08952 0.60443 0.0
C513 C 0.43458 0.07128 0.60659 0.0
C514 C 0.38445 0.90347 0.69886 0.0
C515 C 0.394 1.0164 0.65545 0.0
C516 C 0.36469 0.8545 0.71823 0.0
C517 C 0.33306 0.87034 0.71818 0.0
C518 C 0.37296 0.96925 0.67845 0.0
C519 C 0.32239 0.93849 0.69802 0.0
C520 C 0.38293 0.0637 0.6289 0.0
C521 C 0.44498 1.03314 0.63525 0.0
N522 N 0.34219 0.9845 0.6787 0.0
N523 N 0.4248 1.0052 0.65803 0.0
H524 H 0.54692 0.3913 0.94682 0.0
H525 H 0.72054 0.32882 0.88774 0.0
H526 H 0.62456 0.53476 0.98294 0.0
H527 H 0.64439 0.22984 0.83383 0.0
H528 H 0.68561 0.37219 0.93066 0.0
H529 H 0.58165 0.3065 0.91164 0.0
C530 C 0.57112 0.40485 0.94754 0.0
C531 C 0.58254 0.47166 0.96774 0.0
C532 C 0.67652 0.3382 0.90995 0.0
C533 C 0.62262 0.37288 0.92814 0.0
C534 C 0.69669 0.31124 0.8857 0.0
C535 C 0.68564 0.27386 0.85722 0.0
C536 C 0.64484 0.32773 0.90594 0.0
C537 C 0.65409 0.25659 0.8556 0.0
C538 C 0.59098 0.35621 0.9275 0.0
C539 C 0.61433 0.48534 0.96758 0.0
N540 N 0.63482 0.2845 0.87928 0.0
N541 N 0.63298 0.43686 0.94833 0.0
H542 H 0.468 0.70478 0.94718 0.0
H543 H 0.29441 0.76711 0.88802 0.0
H544 H 0.39047 0.55918 0.98257 0.0
H545 H 0.37057 0.86453 0.83365 0.0
H546 H 0.32938 0.72397 0.93095 0.0
H547 H 0.43326 0.78992 0.91207 0.0
C548 C 0.44383 0.69081 0.94775 0.0
C549 C 0.43245 0.62328 0.9677 0.0
C550 C 0.33847 0.75759 0.91013 0.0
C551 C 0.39235 0.72242 0.9282 0.0
C552 C 0.31827 0.78443 0.88587 0.0
C553 C 0.32932 0.82123 0.85726 0.0
C554 C 0.37015 0.76766 0.90601 0.0
C555 C 0.36088 0.83821 0.85552 0.0
C556 C 0.42396 0.73963 0.92775 0.0
C557 C 0.40068 0.60913 0.96738 0.0
N558 N 0.38016 0.81041 0.87921 0.0
N559 N 0.38202 0.6578 0.94818 0.0
H560 H 0.54429 0.5762 0.1378 0.0
H561 H 0.71771 0.64004 0.19728 0.0
H562 H 0.62068 0.47909 0.0838 0.0
H563 H 0.63993 0.78389 0.23287 0.0
H564 H 0.68312 0.55479 0.16211 0.0
H565 H 0.5791 0.61962 0.18082 0.0
C566 C 0.56817 0.55902 0.13576 0.0
C567 C 0.57933 0.52221 0.10722 0.0
C568 C 0.67373 0.60472 0.17784 0.0
C569 C 0.61997 0.5761 0.15607 0.0
C570 C 0.69351 0.65361 0.19789 0.0
C571 C 0.68201 0.7207 0.21791 0.0
C572 C 0.64209 0.62142 0.17832 0.0
C573 C 0.65022 0.73433 0.21763 0.0
C574 C 0.58827 0.58602 0.16007 0.0
C575 C 0.61091 0.50541 0.10561 0.0
N576 N 0.63164 0.68561 0.19837 0.0
N577 N 0.6301 0.53335 0.12934 0.0
H578 H 0.29681 0.45406 0.19718 0.0
H579 H 0.47031 0.51577 0.13759 0.0
H580 H 0.37432 0.30825 0.23245 0.0
H581 H 0.39411 0.61485 0.08373 0.0
H582 H 0.43542 0.47221 0.18055 0.0
H583 H 0.33154 0.53909 0.16202 0.0
C584 C 0.32098 0.44 0.19771 0.0
C585 C 0.33235 0.37245 0.21765 0.0
C586 C 0.42632 0.50626 0.15984 0.0
C587 C 0.37244 0.47146 0.17807 0.0
C588 C 0.44647 0.53333 0.13557 0.0
C589 C 0.43538 0.57076 0.10709 0.0
C590 C 0.39464 0.51673 0.15586 0.0
C591 C 0.40384 0.58804 0.10549 0.0
C592 C 0.34084 0.48876 0.17767 0.0
C593 C 0.36411 0.35819 0.21728 0.0
N594 N 0.38459 0.56004 0.1292 0.0
N595 N 0.38277 0.4068 0.19804 0.0
H596 H 0.62406 1.04376 0.48249 0.0
H597 H 0.64391 0.72721 0.333 0.0
H598 H 0.54829 0.89013 0.44742 0.0
H599 H 0.71876 0.82939 0.38807 0.0
H600 H 0.60877 0.77051 0.37595 0.0
H601 H 0.65826 0.95925 0.44874 0.0
C602 C 0.61439 0.99234 0.46756 0.0
C603 C 0.58281 0.9755 0.4678 0.0
C604 C 0.63298 0.78047 0.37929 0.0
C605 C 0.62287 0.87622 0.42841 0.0
C606 C 0.65324 0.75396 0.35498 0.0
C607 C 0.68466 0.77243 0.35707 0.0
C608 C 0.64399 0.82856 0.40565 0.0
C609 C 0.69501 0.81144 0.38559 0.0
C610 C 0.63423 0.94319 0.44836 0.0
C611 C 0.57229 0.90629 0.44806 0.0
N612 N 0.67478 0.83997 0.40821 0.0
N613 N 0.59216 0.8601 0.42891 0.0
H614 H 0.39014 0.05267 0.48278 0.0
H615 H 0.37024 0.36733 0.33258 0.0
H616 H 0.46596 0.20515 0.44705 0.0
H617 H 0.29542 0.26592 0.38798 0.0
H618 H 0.40541 0.32452 0.37558 0.0
H619 H 0.35593 0.13697 0.44895 0.0
C620 C 0.39981 0.10379 0.46769 0.0
C621 C 0.43141 0.12036 0.46777 0.0
C622 C 0.3812 0.31463 0.37897 0.0
C623 C 0.39134 0.2194 0.42828 0.0
C624 C 0.36093 0.34086 0.35463 0.0
C625 C 0.32951 0.32244 0.35681 0.0
C626 C 0.37021 0.26686 0.40545 0.0
C627 C 0.31918 0.2838 0.38542 0.0
C628 C 0.37997 0.15282 0.44844 0.0
C629 C 0.44194 0.1892 0.44783 0.0
N630 N 0.33942 0.25552 0.40808 0.0
N631 N 0.42206 0.23528 0.42863 0.0
H632 H 0.01108 0.76849 0.10228 0.0
H633 H 1.00394 0.32216 0.99882 0.0
H634 H 0.00791 0.76685 0.99934 0.0
H635 H 1.00578 0.32797 0.10179 0.0
H636 H 1.00199 0.48412 0.99816 0.0
H637 H 0.01309 0.60688 0.10216 0.0
C638 C 0.01268 0.73438 0.07953 0.0
C639 C 0.00912 0.78187 0.05081 0.0
C640 C 1.00205 0.45004 1.02097 0.0
C641 C 0.0095 0.59557 0.05043 0.0
C642 C 1.00204 0.35708 1.02139 0.0
C643 C 1.00531 0.31085 0.05044 0.0
C644 C 1.00482 0.49718 0.04987 0.0
C645 C 1.00325 0.36055 0.07883 0.0
C646 C 0.01269 0.64163 0.07948 0.0
C647 C 0.01072 0.73337 1.02209 0.0
N648 N 1.00405 0.45069 0.07786 0.0
N649 N 0.00986 0.64304 1.02262 0.0
H650 H 0.26 0.57401 0.35211 0.0
H651 H 0.25486 1.02182 0.24906 0.0
H652 H 0.2584 0.57714 0.24914 0.0
H653 H 0.25581 1.01474 0.35203 0.0
H654 H 0.25273 0.85988 0.24822 0.0
H655 H 0.26232 0.73558 0.35223 0.0
C656 C 0.26201 0.60842 0.32943 0.0
C657 C 0.25883 0.56138 0.3006 0.0
C658 C 0.25263 0.89368 0.27107 0.0
C659 C 0.25954 0.74769 0.30046 0.0
C660 C 0.25274 0.98664 0.27157 0.0
C661 C 0.25575 1.03249 0.30069 0.0
C662 C 0.25506 0.84616 0.29995 0.0
C663 C 0.25346 0.98246 0.32902 0.0
C664 C 0.2622 0.70116 0.3295 0.0
C665 C 0.26092 0.61026 0.27198 0.0
N666 N 0.25413 0.89232 0.32797 0.0
N667 N 0.26022 0.70059 0.2726 0.0
H668 H 0.75945 0.07415 0.35238 0.0
H669 H 0.75438 0.52206 0.24936 0.0
H670 H 0.75775 0.07744 0.24941 0.0
H671 H 0.75588 0.51505 0.35233 0.0
H672 H 0.75208 0.36014 0.24855 0.0
H673 H 0.76185 0.23572 0.35252 0.0
C674 C 0.76145 0.10859 0.3297 0.0
C675 C 0.75826 0.06159 0.30086 0.0
C676 C 0.75215 0.39396 0.27139 0.0
C677 C 0.75905 0.24792 0.30076 0.0
C678 C 0.75235 0.48692 0.27189 0.0
C679 C 0.75555 0.53277 0.30099 0.0
C680 C 0.75467 0.34643 0.30026 0.0
C681 C 0.75337 0.48277 0.32934 0.0
C682 C 0.7617 0.20134 0.32979 0.0
C683 C 0.76031 0.11051 0.27225 0.0
N684 N 0.75394 0.39262 0.32829 0.0
N685 N 0.75967 0.20085 0.27289 0.0
H686 H 1.00449 0.82402 0.49879 0.0
H687 H 0.01083 0.27069 0.60209 0.0
H688 H 1.00529 0.83019 0.60177 0.0
H689 H 0.00881 0.26859 0.49912 0.0
H690 H 0.01279 0.1091 0.60209 0.0
H691 H 1.00268 0.98599 0.49803 0.0
C692 C 1.0024 0.85904 0.52132 0.0
C693 C 1.00535 0.81291 0.55042 0.0
C694 C 0.01265 0.14374 0.57938 0.0
C695 C 1.005 0.99922 0.54976 0.0
C696 C 0.01268 0.23649 0.57937 0.0
C697 C 0.00942 0.28384 0.55058 0.0
C698 C 0.00975 0.09756 0.55032 0.0
C699 C 0.01136 0.23522 0.52192 0.0
C700 C 1.00248 0.95199 0.52086 0.0
C701 C 1.00303 0.86271 0.57877 0.0
N702 N 0.01045 0.1449 0.52249 0.0
N703 N 1.00391 0.95284 0.57777 0.0
H704 H 0.26004 0.07347 0.85222 0.0
H705 H 0.25477 0.5215 0.74931 0.0
H706 H 0.25832 0.0768 0.74925 0.0
H707 H 0.25542 0.51411 0.85229 0.0
H708 H 0.25267 0.35957 0.7484 0.0
H709 H 0.26225 0.23506 0.85237 0.0
C710 C 0.262 0.10794 0.82954 0.0
C711 C 0.25882 0.06094 0.8007 0.0
C712 C 0.25251 0.3933 0.77126 0.0
C713 C 0.25941 0.24725 0.8006 0.0
C714 C 0.25259 0.48626 0.7718 0.0
C715 C 0.25553 0.53201 0.80095 0.0
C716 C 0.25488 0.34569 0.80012 0.0
C717 C 0.25314 0.4819 0.82925 0.0
C718 C 0.26213 0.20068 0.82964 0.0
C719 C 0.26085 0.10989 0.77209 0.0
N720 N 0.25385 0.39176 0.82817 0.0
N721 N 0.2601 0.20022 0.77273 0.0
H722 H 0.76025 0.57359 0.85197 0.0
H723 H 0.75554 1.02201 0.74926 0.0
H724 H 0.75907 0.57732 0.749 0.0
H725 H 0.75572 1.01421 0.85224 0.0
H726 H 0.75349 0.86008 0.74826 0.0
H727 H 0.76256 0.73516 0.85222 0.0
C728 C 0.76235 0.60813 0.82932 0.0
C729 C 0.75927 0.56127 0.80044 0.0
C730 C 0.75321 0.89372 0.77113 0.0
C731 C 0.75998 0.74756 0.80045 0.0
C732 C 0.75327 0.98667 0.77173 0.0
C733 C 0.75604 1.03232 0.80092 0.0
C734 C 0.75545 0.846 0.79999 0.0
C735 C 0.75355 0.98209 0.82918 0.0
C736 C 0.76253 0.70087 0.82947 0.0
C737 C 0.7615 0.6103 0.77187 0.0
N738 N 0.75429 0.89196 0.82805 0.0
N739 N 0.76079 0.70063 0.77255 0.0
H740 H 0.51341 0.77602 0.60242 0.0
H741 H 0.50104 0.31972 0.60237 0.0
H742 H 0.5068 0.76316 0.49982 0.0
H743 H 0.50723 0.33333 0.49975 0.0
H744 H 0.49848 0.48025 0.60461 0.0
H745 H 0.51595 0.61545 0.60459 0.0
C746 C 0.51406 0.73938 0.58013 0.0
C747 C 0.50957 0.78373 0.55095 0.0
C748 C 0.50025 0.44921 0.58141 0.0
C749 C 0.50958 0.59731 0.55317 0.0
C750 C 0.50029 0.35651 0.5801 0.0
C751 C 0.50467 0.31237 0.55088 0.0
C752 C 0.50464 0.49878 0.55316 0.0
C753 C 0.50385 0.36419 0.52288 0.0
C754 C 0.51409 0.64666 0.58141 0.0
C755 C 0.51026 0.73213 0.52293 0.0
N756 N 0.5049 0.45435 0.52474 0.0
N757 N 0.50921 0.64195 0.52476 0.0
H758 H 0.50499 0.82256 0.99906 0.0
H759 H 0.51016 0.26977 0.10219 0.0
H760 H 0.50608 0.829 0.10204 0.0
H761 H 0.50849 0.26727 0.99922 0.0
H762 H 0.51248 0.10821 0.10228 0.0
H763 H 0.50282 0.98452 0.99826 0.0
C764 C 0.5029 0.8576 1.02158 0.0
C765 C 0.50596 0.81157 0.05069 0.0
C766 C 0.51235 0.14276 0.07956 0.0
C767 C 0.50522 0.99792 0.04998 0.0
C768 C 0.51215 0.23552 0.0795 0.0
C769 C 0.50896 0.28273 0.05068 0.0
C770 C 0.50968 0.09641 0.05051 0.0
C771 C 0.51103 0.23402 1.02205 0.0
C772 C 0.50277 0.95057 1.0211 0.0
C773 C 0.50368 0.86142 0.07903 0.0
N774 N 0.51034 0.14367 1.02266 0.0
N775 N 0.50434 0.95157 0.078 0.0
H776 H 0.33119 0.1753 1.04254 0.0
H777 H 0.18322 0.41897 1.04164 0.0
H778 H 0.32942 0.44853 0.07123 0.0
H779 H 0.18476 0.14617 0.07104 0.0
H780 H 0.23618 0.43476 0.05922 0.0
H781 H 0.27812 0.15971 0.05979 0.0
C782 C 0.31964 0.23103 0.0534 0.0
C783 C 0.33398 0.31319 0.05539 0.0
C784 C 0.22468 0.37216 0.0629 0.0
C785 C 0.2738 0.29754 0.07416 0.0
C786 C 0.19469 0.36338 0.05271 0.0
C787 C 0.18032 0.28127 0.05483 0.0
C788 C 0.24038 0.29716 0.07401 0.0
C789 C 0.19557 0.21033 0.06914 0.0
C790 C 0.28959 0.22237 0.0634 0.0
C791 C 0.31863 0.38432 0.06943 0.0
N792 N 0.22524 0.21912 0.07748 0.0
N793 N 0.2889 0.37565 0.07756 0.0
H794 H 0.83133 0.67209 1.04464 0.0
H795 H 0.6839 0.91767 1.04385 0.0
H796 H 0.82996 0.94543 0.07322 0.0
H797 H 0.685 0.64455 0.07288 0.0
H798 H 0.73678 0.93278 0.06175 0.0
H799 H 0.77833 0.657 0.06217 0.0
C800 C 0.81989 0.72794 0.05555 0.0
C801 C 0.83433 0.81 0.05742 0.0
C802 C 0.7252 0.87025 0.06528 0.0
C803 C 0.7742 0.79493 0.07649 0.0
C804 C 0.69525 0.86186 0.05492 0.0
C805 C 0.68079 0.77986 0.05682 0.0
C806 C 0.74078 0.79496 0.07633 0.0
C807 C 0.69589 0.70863 0.07114 0.0
C808 C 0.78988 0.71957 0.06571 0.0
C809 C 0.81912 0.88128 0.07152 0.0
N810 N 0.72553 0.71704 0.07963 0.0
N811 N 0.78941 0.87289 0.0798 0.0
H812 H 0.08114 0.66913 0.29253 0.0
H813 H 0.9331 0.42594 0.2936 0.0
H814 H 0.07944 0.39631 0.32189 0.0
H815 H 0.93499 0.69946 0.3219 0.0
H816 H 0.98611 0.41021 0.311 0.0
H817 H 0.02823 0.68526 0.31025 0.0
C818 C 0.06964 0.61361 0.30362 0.0
C819 C 0.08395 0.53139 0.30568 0.0
C820 C 0.97468 0.47298 0.31449 0.0
C821 C 0.02394 0.54765 0.32501 0.0
C822 C 0.94466 0.48171 0.30441 0.0
C823 C 0.93038 0.56399 0.30624 0.0
C824 C 0.99051 0.54819 0.32516 0.0
C825 C 0.94574 0.63518 0.32021 0.0
C826 C 0.03969 0.62258 0.31389 0.0
C827 C 0.06867 0.46054 0.32003 0.0
N828 N 0.97545 0.62642 0.32842 0.0
N829 N 0.03902 0.46951 0.32844 0.0
H830 H 0.3326 0.66927 0.54232 0.0
H831 H 0.18212 0.6441 0.57598 0.0
H832 H 0.32946 0.94146 0.57213 0.0
H833 H 0.18775 0.91041 0.53986 0.0
H834 H 0.23545 0.65373 0.59333 0.0
H835 H 0.27973 0.65071 0.55967 0.0
C836 C 0.32085 0.724 0.55361 0.0
C837 C 0.33477 0.80673 0.55589 0.0
C838 C 0.22475 0.71072 0.58233 0.0
C839 C 0.27485 0.7874 0.57533 0.0
C840 C 0.19445 0.70552 0.57275 0.0
C841 C 0.18113 0.77653 0.55638 0.0
C842 C 0.24151 0.78718 0.57504 0.0
C843 C 0.19772 0.85442 0.55217 0.0
C844 C 0.29091 0.71352 0.56381 0.0
C845 C 0.31907 0.87671 0.57025 0.0
N846 N 0.22734 0.85746 0.56113 0.0
N847 N 0.28946 0.86626 0.57863 0.0
H848 H 0.83093 0.17468 0.54197 0.0
H849 H 0.68328 0.42332 0.54173 0.0
H850 H 0.82998 0.44808 0.5705 0.0
H851 H 0.68419 0.15001 0.57056 0.0
H852 H 0.73651 0.4372 0.55866 0.0
H853 H 0.77768 0.16081 0.55887 0.0
C854 C 0.81952 0.23081 0.55272 0.0
C855 C 0.83418 0.31249 0.55482 0.0
C856 C 0.72482 0.3749 0.56235 0.0
C857 C 0.7738 0.29879 0.57318 0.0
C858 C 0.69468 0.3672 0.55255 0.0
C859 C 0.68 0.28555 0.55473 0.0
C860 C 0.74037 0.29929 0.57314 0.0
C861 C 0.69519 0.2139 0.56867 0.0
C862 C 0.78937 0.22313 0.5625 0.0
C863 C 0.81898 0.38418 0.56867 0.0
N864 N 0.72499 0.22166 0.57665 0.0
N865 N 0.78917 0.37644 0.57662 0.0
H866 H 0.93484 0.2021 0.82352 0.0
H867 H 0.08012 0.89023 0.82289 0.0
H868 H 0.9343 0.92743 0.79658 0.0
H869 H 0.08005 0.16394 0.79451 0.0
H870 H 0.02709 0.90567 0.84104 0.0
H871 H 0.98814 0.18699 0.84079 0.0
C872 C 0.94581 0.13798 0.82242 0.0
C873 C 0.93091 0.06592 0.80845 0.0
C874 C 0.03909 0.96301 0.83188 0.0
C875 C 0.99082 0.04812 0.8279 0.0
C876 C 0.06907 0.95422 0.8216 0.0
C877 C 0.08372 1.02589 0.80703 0.0
C878 C 0.02412 1.04409 0.82751 0.0
C879 C 0.06896 0.10751 0.80542 0.0
C880 C 0.97596 0.12938 0.83218 0.0
C881 C 0.94558 0.98413 0.80704 0.0
N882 N 0.03963 0.11434 0.81519 0.0
N883 N 0.97506 0.97749 0.81628 0.0
H884 H 0.58244 0.39215 0.82614 0.0
H885 H 0.43188 0.41987 0.79354 0.0
H886 H 0.57706 0.65724 0.78881 0.0
H887 H 0.43585 0.69257 0.82259 0.0
H888 H 0.48475 0.40045 0.81072 0.0
H889 H 0.5293 0.40353 0.84409 0.0
C890 C 0.57021 0.45367 0.82274 0.0
C891 C 0.58351 0.5238 0.80587 0.0
C892 C 0.47375 0.46359 0.81474 0.0
C893 C 0.5234 0.53646 0.82527 0.0
C894 C 0.44382 0.47455 0.80464 0.0
C895 C 0.43014 0.55767 0.80671 0.0
C896 C 0.49007 0.53737 0.82593 0.0
C897 C 0.44606 0.62756 0.82085 0.0
C898 C 0.54003 0.45987 0.83269 0.0
C899 C 0.56708 0.60189 0.8015 0.0
N900 N 0.47568 0.61663 0.8291 0.0
N901 N 0.53758 0.60592 0.81083 0.0
H902 H 0.57944 0.88892 0.32244 0.0
H903 H 0.43446 0.20183 0.32331 0.0
H904 H 0.57983 0.1637 0.29548 0.0
H905 H 0.43393 0.92809 0.29515 0.0
H906 H 0.48758 0.18578 0.34102 0.0
H907 H 0.52631 0.90412 0.34031 0.0
C908 C 0.56846 0.95304 0.32141 0.0
C909 C 0.58324 1.02513 0.30729 0.0
C910 C 0.47544 0.12855 0.33204 0.0
C911 C 0.52357 1.04309 0.32748 0.0
C912 C 0.44539 0.13769 0.32201 0.0
C913 C 0.43056 0.0662 0.3076 0.0
C914 C 0.49028 0.04733 0.32755 0.0
C915 C 0.44517 0.98437 0.30595 0.0
C916 C 0.53842 0.96171 0.33155 0.0
C917 C 0.56861 0.10697 0.30604 0.0
N918 N 0.47457 0.97722 0.31545 0.0
N919 N 0.53923 0.1137 0.31565 0.0
loop_
_geom_bond_atom_site_label_1
_geom_bond_atom_site_label_2
_geom_bond_distance
_geom_bond_site_symmetry_2
_ccdc_geom_bond_type
Co0 N1 2.034 . S
Co0 O15 2.262 . S
Co0 O19 1.958 . S
Co0 O23 1.950 1_556 S
Co0 O24 2.057 . S
N1 Co0 2.034 . S
N1 C2 1.366 . S
N1 C4 1.332 1_556 S
C2 N1 1.366 . S
C2 C5 1.377 . S
C2 H34 0.931 . S
N3 C4 1.346 . S
N3 C5 1.337 1_554 S
C4 N1 1.332 1_554 S
C4 N3 1.346 . S
C4 C38 1.361 . S
C5 C2 1.377 . S
C5 N3 1.337 1_556 S
C5 H41 0.930 . S
Co6 N7 2.034 . S
Co6 O20 1.950 1_556 S
Co6 O21 2.262 . S
Co6 O22 1.958 . S
Co6 O26 2.057 . S
N7 Co6 2.034 . S
N7 C10 1.366 . S
N7 C11 1.332 1_556 S
N8 C9 1.337 1_554 S
N8 C11 1.346 . S
C9 N8 1.337 1_556 S
C9 C10 1.377 . S
C9 H42 0.930 . S
C10 N7 1.366 . S
C10 C9 1.377 . S
C10 H14 0.931 . S
C11 N7 1.332 1_554 S
C11 N8 1.346 . S
C11 C28 1.361 . S
Co12 O15 2.097 . S
Co12 O16 2.065 1_456 S
Co12 O17 2.065 1_546 S
Co12 O18 2.042 1_545 S
Co12 O21 2.097 1_445 S
Co12 O25 2.042 1_455 S
C13 O21 1.253 . S
C13 O26 1.263 . S
H14 C10 0.931 . S
O15 Co0 2.262 . S
O15 Co12 2.097 . S
O15 C39 1.253 . S
O16 Co12 2.065 1_654 S
O16 C32 1.224 . S
O17 Co12 2.065 1_564 S
O17 C27 1.222 . S
O18 Co12 2.042 1_565 S
O18 C33 1.237 . S
O19 Co0 1.958 . S
O19 C33 1.278 1_545 S
O20 Co6 1.950 1_554 S
O20 C32 1.271 1_565 S
O21 Co6 2.262 . S
O21 Co12 2.097 1_665 S
O21 C13 1.253 . S
O22 Co6 1.958 . S
O22 C40 1.278 1_565 S
O23 Co0 1.950 1_554 S
O23 C27 1.274 1_545 S
O24 Co0 2.057 . S
O24 C39 1.263 . S
O25 Co12 2.042 1_655 S
O25 C40 1.237 . S
O26 Co6 2.057 . S
O26 C13 1.263 . S
C27 O17 1.222 . S
C27 O23 1.274 1_565 S
C28 C11 1.361 . S
C28 H29 0.960 . S
C28 H30 0.961 . S
C28 H31 0.961 . S
H29 C28 0.960 . S
H30 C28 0.961 . S
H31 C28 0.961 . S
C32 O16 1.224 . S
C32 O20 1.271 1_545 S
C33 O18 1.237 . S
C33 O19 1.278 1_565 S
H34 C2 0.931 . S
H35 C38 0.961 . S
H36 C38 0.961 . S
H37 C38 0.960 . S
C38 C4 1.361 . S
C38 H35 0.961 . S
C38 H36 0.961 . S
C38 H37 0.960 . S
C39 O15 1.253 . S
C39 O24 1.263 . S
C40 O22 1.278 1_545 S
C40 O25 1.237 . S
H41 C5 0.930 . S
H42 C9 0.930 . S
Co43 N44 2.034 . S
Co43 O58 2.262 . S
Co43 O62 1.958 . S
Co43 O66 1.950 . S
Co43 O67 2.057 . S
N44 Co43 2.034 . S
N44 C45 1.366 . S
N44 C47 1.332 . S
C45 N44 1.366 . S
C45 C48 1.377 . S
C45 H77 0.931 . S
N46 C47 1.346 . S
N46 C48 1.337 . S
C47 N44 1.332 . S
C47 N46 1.346 . S
C47 C81 1.361 . S
C48 C45 1.377 . S
C48 N46 1.337 . S
C48 H84 0.930 . S
Co49 N50 2.034 . S
Co49 O63 1.950 . S
Co49 O64 2.262 . S
Co49 O65 1.958 . S
Co49 O69 2.057 . S
N50 Co49 2.034 . S
N50 C53 1.366 . S
N50 C54 1.332 . S
N51 C52 1.337 . S
N51 C54 1.346 . S
C52 N51 1.337 . S
C52 C53 1.377 . S
C52 H85 0.930 . S
C53 N50 1.366 . S
C53 C52 1.377 . S
C53 H57 0.931 . S
C54 N50 1.332 . S
C54 N51 1.346 . S
C54 C71 1.361 . S
Co55 O58 2.097 . S
Co55 O59 2.065 . S
Co55 O60 2.065 . S
Co55 O61 2.042 . S
Co55 O64 2.097 . S
Co55 O68 2.042 . S
C56 O64 1.253 . S
C56 O69 1.263 . S
H57 C53 0.931 . S
O58 Co43 2.262 . S
O58 Co55 2.097 . S
O58 C82 1.253 . S
O59 Co55 2.065 . S
O59 C75 1.221 . S
O60 Co55 2.065 . S
O60 C70 1.221 . S
O61 Co55 2.042 . S
O61 C76 1.237 . S
O62 Co43 1.958 . S
O62 C76 1.278 . S
O63 Co49 1.950 . S
O63 C75 1.277 . S
O64 Co49 2.262 . S
O64 Co55 2.097 . S
O64 C56 1.253 . S
O65 Co49 1.958 . S
O65 C83 1.278 . S
O66 Co43 1.950 . S
O66 C70 1.277 . S
O67 Co43 2.057 . S
O67 C82 1.263 . S
O68 Co55 2.042 . S
O68 C83 1.237 . S
O69 Co49 2.057 . S
O69 C56 1.263 . S
C70 O60 1.221 . S
C70 O66 1.277 . S
C71 C54 1.361 . S
C71 H72 0.960 . S
C71 H73 0.961 . S
C71 H74 0.961 1_545 S
H72 C71 0.960 . S
H73 C71 0.961 . S
H74 C71 0.961 1_565 S
C75 O59 1.221 . S
C75 O63 1.277 . S
C76 O61 1.237 . S
C76 O62 1.278 . S
H77 C45 0.931 . S
H78 C81 0.961 . S
H79 C81 0.961 . S
H80 C81 0.960 . S
C81 C47 1.361 . S
C81 H78 0.961 . S
C81 H79 0.961 . S
C81 H80 0.960 . S
C82 O58 1.253 . S
C82 O67 1.263 . S
C83 O65 1.278 . S
C83 O68 1.237 . S
H84 C48 0.930 . S
H85 C52 0.930 . S
Co86 N87 2.034 . S
Co86 O101 2.262 . S
Co86 O105 1.958 . S
Co86 O109 1.950 . S
Co86 O110 2.057 . S
N87 Co86 2.034 . S
N87 C88 1.366 . S
N87 C90 1.332 . S
C88 N87 1.366 . S
C88 C91 1.377 . S
C88 H120 0.931 . S
N89 C90 1.346 . S
N89 C91 1.337 . S
C90 N87 1.332 . S
C90 N89 1.346 . S
C90 C124 1.361 . S
C91 C88 1.377 . S
C91 N89 1.337 . S
C91 H127 0.930 . S
Co92 N93 2.034 . S
Co92 O106 1.950 . S
Co92 O107 2.262 . S
Co92 O108 1.958 . S
Co92 O112 2.057 . S
N93 Co92 2.034 . S
N93 C96 1.366 . S
N93 C97 1.332 . S
N94 C95 1.337 . S
N94 C97 1.346 . S
C95 N94 1.337 . S
C95 C96 1.377 . S
C95 H128 0.930 . S
C96 N93 1.366 . S
C96 C95 1.377 . S
C96 H100 0.931 . S
C97 N93 1.332 . S
C97 N94 1.346 . S
C97 C114 1.361 . S
Co98 O101 2.097 . S
Co98 O102 2.065 . S
Co98 O103 2.065 . S
Co98 O104 2.042 . S
Co98 O107 2.097 . S
Co98 O111 2.042 . S
C99 O107 1.253 . S
C99 O112 1.263 . S
H100 C96 0.931 . S
O101 Co86 2.262 . S
O101 Co98 2.097 . S
O101 C125 1.253 . S
O102 Co98 2.065 . S
O102 C118 1.221 . S
O103 Co98 2.065 . S
O103 C113 1.221 . S
O104 Co98 2.042 . S
O104 C119 1.237 . S
O105 Co86 1.958 . S
O105 C119 1.278 . S
O106 Co92 1.950 . S
O106 C118 1.277 . S
O107 Co92 2.262 . S
O107 Co98 2.097 . S
O107 C99 1.253 . S
O108 Co92 1.958 . S
O108 C126 1.278 . S
O109 Co86 1.950 . S
O109 C113 1.277 . S
O110 Co86 2.057 . S
O110 C125 1.263 . S
O111 Co98 2.042 . S
O111 C126 1.237 . S
O112 Co92 2.057 . S
O112 C99 1.263 . S
C113 O103 1.221 . S
C113 O109 1.277 . S
C114 C97 1.361 . S
C114 H115 0.960 . S
C114 H116 0.961 . S
C114 H117 0.961 . S
H115 C114 0.960 . S
H116 C114 0.961 . S
H117 C114 0.961 . S
C118 O102 1.221 . S
C118 O106 1.277 . S
C119 O104 1.237 . S
C119 O105 1.278 . S
H120 C88 0.931 . S
H121 C124 0.961 1_545 S
H122 C124 0.961 . S
H123 C124 0.960 . S
C124 C90 1.361 . S
C124 H121 0.961 1_565 S
C124 H122 0.961 . S
C124 H123 0.960 . S
C125 O101 1.253 . S
C125 O110 1.263 . S
C126 O108 1.278 . S
C126 O111 1.237 . S
H127 C91 0.930 . S
H128 C95 0.930 . S
Co129 N130 2.034 . S
Co129 O144 2.262 . S
Co129 O148 1.958 . S
Co129 O152 1.950 . S
Co129 O153 2.057 . S
N130 Co129 2.034 . S
N130 C131 1.366 . S
N130 C133 1.332 . S
C131 N130 1.366 . S
C131 C134 1.377 . S
C131 H163 0.931 . S
N132 C133 1.346 . S
N132 C134 1.337 . S
C133 N130 1.332 . S
C133 N132 1.346 . S
C133 C167 1.361 . S
C134 C131 1.377 . S
C134 N132 1.337 . S
C134 H170 0.930 . S
Co135 N136 2.034 . S
Co135 O149 1.950 . S
Co135 O150 2.262 . S
Co135 O151 1.958 . S
Co135 O155 2.057 . S
N136 Co135 2.034 . S
N136 C139 1.366 . S
N136 C140 1.332 . S
N137 C138 1.337 . S
N137 C140 1.346 . S
C138 N137 1.337 . S
C138 C139 1.377 . S
C138 H171 0.930 . S
C139 N136 1.366 . S
C139 C138 1.377 . S
C139 H143 0.931 . S
C140 N136 1.332 . S
C140 N137 1.346 . S
C140 C157 1.361 . S
Co141 O144 2.097 . S
Co141 O145 2.065 1_455 S
Co141 O146 2.065 . S
Co141 O147 2.042 . S
Co141 O150 2.097 1_455 S
Co141 O154 2.042 1_455 S
C142 O150 1.253 . S
C142 O155 1.263 . S
H143 C139 0.931 . S
O144 Co129 2.262 . S
O144 Co141 2.097 . S
O144 C168 1.253 . S
O145 Co141 2.065 1_655 S
O145 C161 1.221 . S
O146 Co141 2.065 . S
O146 C156 1.221 . S
O147 Co141 2.042 . S
O147 C162 1.237 . S
O148 Co129 1.958 . S
O148 C162 1.278 . S
O149 Co135 1.950 . S
O149 C161 1.277 . S
O150 Co135 2.262 . S
O150 Co141 2.097 1_655 S
O150 C142 1.253 . S
O151 Co135 1.958 . S
O151 C169 1.278 . S
O152 Co129 1.950 . S
O152 C156 1.277 . S
O153 Co129 2.057 . S
O153 C168 1.263 . S
O154 Co141 2.042 1_655 S
O154 C169 1.237 . S
O155 Co135 2.057 . S
O155 C142 1.263 . S
C156 O146 1.221 . S
C156 O152 1.277 . S
C157 C140 1.361 . S
C157 H158 0.960 . S
C157 H159 0.961 . S
C157 H160 0.961 . S
H158 C157 0.960 . S
H159 C157 0.961 . S
H160 C157 0.961 . S
C161 O145 1.221 . S
C161 O149 1.277 . S
C162 O147 1.237 . S
C162 O148 1.278 . S
H163 C131 0.931 . S
H164 C167 0.961 . S
H165 C167 0.961 . S
H166 C167 0.960 . S
C167 C133 1.361 . S
C167 H164 0.961 . S
C167 H165 0.961 . S
C167 H166 0.960 . S
C168 O144 1.253 . S
C168 O153 1.263 . S
C169 O151 1.278 . S
C169 O154 1.237 . S
H170 C134 0.930 . S
H171 C138 0.930 . S
Co172 N173 2.034 . S
Co172 O187 2.262 . S
Co172 O191 1.958 . S
Co172 O195 1.950 . S
Co172 O196 2.057 . S
N173 Co172 2.034 . S
N173 C174 1.366 . S
N173 C176 1.332 . S
C174 N173 1.366 . S
C174 C177 1.377 . S
C174 H206 0.931 . S
N175 C176 1.346 . S
N175 C177 1.337 . S
C176 N173 1.332 . S
C176 N175 1.346 . S
C176 C210 1.361 . S
C177 C174 1.377 . S
C177 N175 1.337 . S
C177 H213 0.930 . S
Co178 N179 2.034 . S
Co178 O192 1.950 . S
Co178 O193 2.262 . S
Co178 O194 1.958 . S
Co178 O198 2.057 . S
N179 Co178 2.034 . S
N179 C182 1.366 . S
N179 C183 1.332 . S
N180 C181 1.337 . S
N180 C183 1.346 . S
C181 N180 1.337 . S
C181 C182 1.377 . S
C181 H214 0.930 . S
C182 N179 1.366 . S
C182 C181 1.377 . S
C182 H186 0.931 . S
C183 N179 1.332 . S
C183 N180 1.346 . S
C183 C200 1.361 . S
Co184 O187 2.097 . S
Co184 O188 2.065 . S
Co184 O189 2.065 . S
Co184 O190 2.042 . S
Co184 O193 2.097 . S
Co184 O197 2.042 . S
C185 O193 1.253 . S
C185 O198 1.263 . S
H186 C182 0.931 . S
O187 Co172 2.262 . S
O187 Co184 2.097 . S
O187 C211 1.253 . S
O188 Co184 2.065 . S
O188 C204 1.221 . S
O189 Co184 2.065 . S
O189 C199 1.221 . S
O190 Co184 2.042 . S
O190 C205 1.237 . S
O191 Co172 1.958 . S
O191 C205 1.278 . S
O192 Co178 1.950 . S
O192 C204 1.277 . S
O193 Co178 2.262 . S
O193 Co184 2.097 . S
O193 C185 1.253 . S
O194 Co178 1.958 . S
O194 C212 1.278 . S
O195 Co172 1.950 . S
O195 C199 1.277 . S
O196 Co172 2.057 . S
O196 C211 1.263 . S
O197 Co184 2.042 . S
O197 C212 1.237 . S
O198 Co178 2.057 . S
O198 C185 1.263 . S
C199 O189 1.221 . S
C199 O195 1.277 . S
C200 C183 1.361 . S
C200 H201 0.960 . S
C200 H202 0.961 . S
C200 H203 0.961 . S
H201 C200 0.960 . S
H202 C200 0.961 . S
H203 C200 0.961 . S
C204 O188 1.221 . S
C204 O192 1.277 . S
C205 O190 1.237 . S
C205 O191 1.278 . S
H206 C174 0.931 . S
H207 C210 0.961 1_545 S
H208 C210 0.961 . S
H209 C210 0.960 . S
C210 C176 1.361 . S
C210 H207 0.961 1_565 S
C210 H208 0.961 . S
C210 H209 0.960 . S
C211 O187 1.253 . S
C211 O196 1.263 . S
C212 O194 1.278 . S
C212 O197 1.237 . S
H213 C177 0.930 . S
H214 C181 0.930 . S
Co215 N216 2.034 . S
Co215 O230 2.262 . S
Co215 O234 1.958 . S
Co215 O238 1.950 . S
Co215 O239 2.057 . S
N216 Co215 2.034 . S
N216 C217 1.366 . S
N216 C219 1.332 . S
C217 N216 1.366 . S
C217 C220 1.377 . S
C217 H249 0.931 . S
N218 C219 1.346 . S
N218 C220 1.337 . S
C219 N216 1.332 . S
C219 N218 1.346 . S
C219 C253 1.361 . S
C220 C217 1.377 . S
C220 N218 1.337 . S
C220 H256 0.930 . S
Co221 N222 2.034 . S
Co221 O235 1.950 . S
Co221 O236 2.262 . S
Co221 O237 1.958 . S
Co221 O241 2.057 . S
N222 Co221 2.034 . S
N222 C225 1.366 . S
N222 C226 1.332 . S
N223 C224 1.337 . S
N223 C226 1.346 . S
C224 N223 1.337 . S
C224 C225 1.377 . S
C224 H257 0.930 . S
C225 N222 1.366 . S
C225 C224 1.377 . S
C225 H229 0.931 . S
C226 N222 1.332 . S
C226 N223 1.346 . S
C226 C243 1.361 . S
Co227 O230 2.097 . S
Co227 O231 2.065 . S
Co227 O232 2.065 . S
Co227 O233 2.042 . S
Co227 O236 2.097 . S
Co227 O240 2.042 . S
C228 O236 1.253 . S
C228 O241 1.263 . S
H229 C225 0.931 . S
O230 Co215 2.262 . S
O230 Co227 2.097 . S
O230 C254 1.253 . S
O231 Co227 2.065 . S
O231 C247 1.221 . S
O232 Co227 2.065 . S
O232 C242 1.221 . S
O233 Co227 2.042 . S
O233 C248 1.237 . S
O234 Co215 1.958 . S
O234 C248 1.278 . S
O235 Co221 1.950 . S
O235 C247 1.277 . S
O236 Co221 2.262 . S
O236 Co227 2.097 . S
O236 C228 1.253 . S
O237 Co221 1.958 . S
O237 C255 1.278 . S
O238 Co215 1.950 . S
O238 C242 1.277 . S
O239 Co215 2.057 . S
O239 C254 1.263 . S
O240 Co227 2.042 . S
O240 C255 1.237 . S
O241 Co221 2.057 . S
O241 C228 1.263 . S
C242 O232 1.221 . S
C242 O238 1.277 . S
C243 C226 1.361 . S
C243 H244 0.960 . S
C243 H245 0.961 . S
C243 H246 0.961 . S
H244 C243 0.960 . S
H245 C243 0.961 . S
H246 C243 0.961 . S
C247 O231 1.221 . S
C247 O235 1.277 . S
C248 O233 1.237 . S
C248 O234 1.278 . S
H249 C217 0.931 . S
H250 C253 0.961 1_565 S
H251 C253 0.961 . S
H252 C253 0.960 . S
C253 C219 1.361 . S
C253 H250 0.961 1_545 S
C253 H251 0.961 . S
C253 H252 0.960 . S
C254 O230 1.253 . S
C254 O239 1.263 . S
C255 O237 1.278 . S
C255 O240 1.237 . S
H256 C220 0.930 . S
H257 C224 0.930 . S
Co258 N259 2.034 . S
Co258 O273 2.262 . S
Co258 O277 1.958 . S
Co258 O281 1.950 . S
Co258 O282 2.057 . S
N259 Co258 2.034 . S
N259 C260 1.366 . S
N259 C262 1.332 . S
C260 N259 1.366 . S
C260 C263 1.377 . S
C260 H292 0.931 . S
N261 C262 1.346 . S
N261 C263 1.337 . S
C262 N259 1.332 . S
C262 N261 1.346 . S
C262 C296 1.361 . S
C263 C260 1.377 . S
C263 N261 1.337 . S
C263 H299 0.930 . S
Co264 N265 2.034 . S
Co264 O278 1.950 . S
Co264 O279 2.262 . S
Co264 O280 1.958 . S
Co264 O284 2.057 . S
N265 Co264 2.034 . S
N265 C268 1.366 . S
N265 C269 1.332 . S
N266 C267 1.337 . S
N266 C269 1.346 . S
C267 N266 1.337 . S
C267 C268 1.377 . S
C267 H300 0.930 . S
C268 N265 1.366 . S
C268 C267 1.377 . S
C268 H272 0.931 . S
C269 N265 1.332 . S
C269 N266 1.346 . S
C269 C286 1.361 . S
Co270 O273 2.097 . S
Co270 O274 2.065 . S
Co270 O275 2.065 1_545 S
Co270 O276 2.042 1_545 S
Co270 O279 2.097 1_545 S
Co270 O283 2.042 . S
C271 O279 1.253 . S
C271 O284 1.263 . S
H272 C268 0.931 . S
O273 Co258 2.262 . S
O273 Co270 2.097 . S
O273 C297 1.253 . S
O274 Co270 2.065 . S
O274 C290 1.224 . S
O275 Co270 2.065 1_565 S
O275 C285 1.222 . S
O276 Co270 2.042 1_565 S
O276 C291 1.237 . S
O277 Co258 1.958 . S
O277 C291 1.278 1_545 S
O278 Co264 1.950 . S
O278 C290 1.271 1_565 S
O279 Co264 2.262 . S
O279 Co270 2.097 1_565 S
O279 C271 1.253 . S
O280 Co264 1.958 . S
O280 C298 1.278 1_565 S
O281 Co258 1.950 . S
O281 C285 1.274 1_545 S
O282 Co258 2.057 . S
O282 C297 1.263 . S
O283 Co270 2.042 . S
O283 C298 1.237 . S
O284 Co264 2.057 . S
O284 C271 1.263 . S
C285 O275 1.222 . S
C285 O281 1.274 1_565 S
C286 C269 1.361 . S
C286 H287 0.960 . S
C286 H288 0.961 . S
C286 H289 0.961 . S
H287 C286 0.960 . S
H288 C286 0.961 . S
H289 C286 0.961 . S
C290 O274 1.224 . S
C290 O278 1.271 1_545 S
C291 O276 1.237 . S
C291 O277 1.278 1_565 S
H292 C260 0.931 . S
H293 C296 0.961 . S
H294 C296 0.961 . S
H295 C296 0.960 . S
C296 C262 1.361 . S
C296 H293 0.961 . S
C296 H294 0.961 . S
C296 H295 0.960 . S
C297 O273 1.253 . S
C297 O282 1.263 . S
C298 O280 1.278 1_545 S
C298 O283 1.237 . S
H299 C263 0.930 . S
H300 C267 0.930 . S
Co301 N302 2.034 . S
Co301 O316 2.262 . S
Co301 O320 1.958 . S
Co301 O324 1.950 1_556 S
Co301 O325 2.057 . S
N302 Co301 2.034 . S
N302 C303 1.366 . S
N302 C305 1.332 1_556 S
C303 N302 1.366 . S
C303 C306 1.377 . S
C303 H335 0.931 . S
N304 C305 1.346 . S
N304 C306 1.337 1_554 S
C305 N302 1.332 1_554 S
C305 N304 1.346 . S
C305 C339 1.361 . S
C306 C303 1.377 . S
C306 N304 1.337 1_556 S
C306 H342 0.930 . S
Co307 N308 2.034 . S
Co307 O321 1.950 1_556 S
Co307 O322 2.262 . S
Co307 O323 1.958 . S
Co307 O327 2.057 . S
N308 Co307 2.034 . S
N308 C311 1.366 . S
N308 C312 1.332 1_556 S
N309 C310 1.337 1_554 S
N309 C312 1.346 . S
C310 N309 1.337 1_556 S
C310 C311 1.377 . S
C310 H343 0.930 . S
C311 N308 1.366 . S
C311 C310 1.377 . S
C311 H315 0.931 . S
C312 N308 1.332 1_554 S
C312 N309 1.346 . S
C312 C329 1.361 . S
Co313 O316 2.097 . S
Co313 O317 2.065 1_556 S
Co313 O318 2.065 1_556 S
Co313 O319 2.042 . S
Co313 O322 2.097 . S
Co313 O326 2.042 . S
C314 O322 1.253 . S
C314 O327 1.263 . S
H315 C311 0.931 . S
O316 Co301 2.262 . S
O316 Co313 2.097 . S
O316 C340 1.253 . S
O317 Co313 2.065 1_554 S
O317 C333 1.221 . S
O318 Co313 2.065 1_554 S
O318 C328 1.221 . S
O319 Co313 2.042 . S
O319 C334 1.237 . S
O320 Co301 1.958 . S
O320 C334 1.278 . S
O321 Co307 1.950 1_554 S
O321 C333 1.277 . S
O322 Co307 2.262 . S
O322 Co313 2.097 . S
O322 C314 1.253 . S
O323 Co307 1.958 . S
O323 C341 1.278 . S
O324 Co301 1.950 1_554 S
O324 C328 1.277 . S
O325 Co301 2.057 . S
O325 C340 1.263 . S
O326 Co313 2.042 . S
O326 C341 1.237 . S
O327 Co307 2.057 . S
O327 C314 1.263 . S
C328 O318 1.221 . S
C328 O324 1.277 . S
C329 C312 1.361 . S
C329 H330 0.960 . S
C329 H331 0.961 . S
C329 H332 0.961 . S
H330 C329 0.960 . S
H331 C329 0.961 . S
H332 C329 0.961 . S
C333 O317 1.221 . S
C333 O321 1.277 . S
C334 O319 1.237 . S
C334 O320 1.278 . S
H335 C303 0.931 . S
H336 C339 0.961 . S
H337 C339 0.961 . S
H338 C339 0.960 . S
C339 C305 1.361 . S
C339 H336 0.961 . S
C339 H337 0.961 . S
C339 H338 0.960 . S
C340 O316 1.253 . S
C340 O325 1.263 . S
C341 O323 1.278 . S
C341 O326 1.237 . S
H342 C306 0.930 . S
H343 C310 0.930 . S
H344 C350 0.930 . S
H345 C354 0.930 . S
H346 C359 0.929 . S
H347 C357 0.929 . S
H348 C352 0.929 . S
H349 C358 0.929 . S
C350 H344 0.930 . S
C350 C351 1.367 . S
C350 C358 1.378 . S
C351 C350 1.367 . S
C351 C359 1.433 1_545 S
C352 H348 0.929 . S
C352 C354 1.378 . S
C352 C356 1.350 . S
C353 C356 1.463 . S
C353 C358 1.350 . S
C353 N361 1.427 . S
C354 H345 0.930 . S
C354 C352 1.378 . S
C354 C355 1.367 . S
C355 C354 1.367 . S
C355 C357 1.433 . S
C356 C352 1.350 . S
C356 C353 1.463 . S
C356 N360 1.427 . S
C357 H347 0.929 . S
C357 C355 1.433 . S
C357 N360 1.384 . S
C358 H349 0.929 . S
C358 C350 1.378 . S
C358 C353 1.350 . S
C359 H346 0.929 . S
C359 C351 1.433 1_565 S
C359 N361 1.384 1_565 S
N360 C356 1.427 . S
N360 C357 1.384 . S
N361 C353 1.427 . S
N361 C359 1.384 1_545 S
H362 C368 0.930 . S
H363 C372 0.930 . S
H364 C377 0.929 . S
H365 C375 0.929 . S
H366 C370 0.929 . S
H367 C376 0.929 . S
C368 H362 0.930 . S
C368 C369 1.367 . S
C368 C376 1.378 . S
C369 C368 1.367 . S
C369 C377 1.433 1_565 S
C370 H366 0.929 . S
C370 C372 1.378 . S
C370 C374 1.350 . S
C371 C374 1.463 . S
C371 C376 1.350 . S
C371 N379 1.427 . S
C372 H363 0.930 . S
C372 C370 1.378 . S
C372 C373 1.367 . S
C373 C372 1.367 . S
C373 C375 1.433 . S
C374 C370 1.350 . S
C374 C371 1.463 . S
C374 N378 1.427 . S
C375 H365 0.929 . S
C375 C373 1.433 . S
C375 N378 1.384 . S
C376 H367 0.929 . S
C376 C368 1.378 . S
C376 C371 1.350 . S
C377 H364 0.929 . S
C377 C369 1.433 1_545 S
C377 N379 1.384 1_545 S
N378 C374 1.427 . S
N378 C375 1.384 . S
N379 C371 1.427 . S
N379 C377 1.384 1_565 S
H380 C386 0.930 . S
H381 C390 0.930 . S
H382 C395 0.929 . S
H383 C393 0.929 . S
H384 C388 0.929 . S
H385 C394 0.929 . S
C386 H380 0.930 . S
C386 C387 1.367 . S
C386 C394 1.378 . S
C387 C386 1.367 . S
C387 C395 1.433 . S
C388 H384 0.929 . S
C388 C390 1.378 . S
C388 C392 1.350 . S
C389 C392 1.463 . S
C389 C394 1.350 . S
C389 N397 1.427 . S
C390 H381 0.930 . S
C390 C388 1.378 . S
C390 C391 1.367 . S
C391 C390 1.367 . S
C391 C393 1.433 . S
C392 C388 1.350 . S
C392 C389 1.463 . S
C392 N396 1.427 . S
C393 H383 0.929 . S
C393 C391 1.433 . S
C393 N396 1.384 . S
C394 H385 0.929 . S
C394 C386 1.378 . S
C394 C389 1.350 . S
C395 H382 0.929 . S
C395 C387 1.433 . S
C395 N397 1.384 . S
N396 C392 1.427 . S
N396 C393 1.384 . S
N397 C389 1.427 . S
N397 C395 1.384 . S
H398 C404 0.930 . S
H399 C408 0.930 . S
H400 C413 0.929 . S
H401 C411 0.929 . S
H402 C406 0.929 . S
H403 C412 0.929 . S
C404 H398 0.930 . S
C404 C405 1.367 . S
C404 C412 1.378 . S
C405 C404 1.367 . S
C405 C413 1.433 . S
C406 H402 0.929 . S
C406 C408 1.378 . S
C406 C410 1.350 . S
C407 C410 1.463 . S
C407 C412 1.350 . S
C407 N415 1.427 . S
C408 H399 0.930 . S
C408 C406 1.378 . S
C408 C409 1.367 . S
C409 C408 1.367 . S
C409 C411 1.433 . S
C410 C406 1.350 . S
C410 C407 1.463 . S
C410 N414 1.427 . S
C411 H401 0.929 . S
C411 C409 1.433 . S
C411 N414 1.384 . S
C412 H403 0.929 . S
C412 C404 1.378 . S
C412 C407 1.350 . S
C413 H400 0.929 . S
C413 C405 1.433 . S
C413 N415 1.384 . S
N414 C410 1.427 . S
N414 C411 1.384 . S
N415 C407 1.427 . S
N415 C413 1.384 . S
H416 C422 0.930 . S
H417 C426 0.930 . S
H418 C431 0.929 . S
H419 C429 0.929 . S
H420 C424 0.929 . S
H421 C430 0.929 . S
C422 H416 0.930 . S
C422 C423 1.367 . S
C422 C430 1.378 . S
C423 C422 1.367 . S
C423 C431 1.433 . S
C424 H420 0.929 . S
C424 C426 1.378 . S
C424 C428 1.350 . S
C425 C428 1.463 . S
C425 C430 1.350 . S
C425 N433 1.427 . S
C426 H417 0.930 . S
C426 C424 1.378 . S
C426 C427 1.367 . S
C427 C426 1.367 . S
C427 C429 1.433 . S
C428 C424 1.350 . S
C428 C425 1.463 . S
C428 N432 1.427 . S
C429 H419 0.929 . S
C429 C427 1.433 . S
C429 N432 1.384 . S
C430 H421 0.929 . S
C430 C422 1.378 . S
C430 C425 1.350 . S
C431 H418 0.929 . S
C431 C423 1.433 . S
C431 N433 1.384 . S
N432 C428 1.427 . S
N432 C429 1.384 . S
N433 C425 1.427 . S
N433 C431 1.384 . S
H434 C440 0.930 . S
H435 C444 0.930 . S
H436 C449 0.929 . S
H437 C447 0.929 . S
H438 C442 0.929 . S
H439 C448 0.929 . S
C440 H434 0.930 . S
C440 C441 1.367 . S
C440 C448 1.378 . S
C441 C440 1.367 . S
C441 C449 1.433 . S
C442 H438 0.929 . S
C442 C444 1.378 . S
C442 C446 1.350 . S
C443 C446 1.463 . S
C443 C448 1.350 . S
C443 N451 1.427 . S
C444 H435 0.930 . S
C444 C442 1.378 . S
C444 C445 1.367 . S
C445 C444 1.367 . S
C445 C447 1.433 . S
C446 C442 1.350 . S
C446 C443 1.463 . S
C446 N450 1.427 . S
C447 H437 0.929 . S
C447 C445 1.433 . S
C447 N450 1.384 . S
C448 H439 0.929 . S
C448 C440 1.378 . S
C448 C443 1.350 . S
C449 H436 0.929 . S
C449 C441 1.433 . S
C449 N451 1.384 . S
N450 C446 1.427 . S
N450 C447 1.384 . S
N451 C443 1.427 . S
N451 C449 1.384 . S
H452 C458 0.930 . S
H453 C462 0.930 . S
H454 C467 0.929 . S
H455 C465 0.929 . S
H456 C460 0.929 . S
H457 C466 0.929 . S
C458 H452 0.930 . S
C458 C459 1.367 . S
C458 C466 1.378 . S
C459 C458 1.367 . S
C459 C467 1.433 . S
C460 H456 0.929 . S
C460 C462 1.378 . S
C460 C464 1.350 . S
C461 C464 1.463 . S
C461 C466 1.350 . S
C461 N469 1.427 . S
C462 H453 0.930 . S
C462 C460 1.378 . S
C462 C463 1.367 . S
C463 C462 1.367 . S
C463 C465 1.433 . S
C464 C460 1.350 . S
C464 C461 1.463 . S
C464 N468 1.427 . S
C465 H455 0.929 . S
C465 C463 1.433 . S
C465 N468 1.384 . S
C466 H457 0.929 . S
C466 C458 1.378 . S
C466 C461 1.350 . S
C467 H454 0.929 . S
C467 C459 1.433 . S
C467 N469 1.384 . S
N468 C464 1.427 . S
N468 C465 1.384 . S
N469 C461 1.427 . S
N469 C467 1.384 . S
H470 C476 0.930 . S
H471 C480 0.930 . S
H472 C485 0.929 . S
H473 C483 0.929 . S
H474 C478 0.929 . S
H475 C484 0.929 . S
C476 H470 0.930 . S
C476 C477 1.367 . S
C476 C484 1.378 . S
C477 C476 1.367 . S
C477 C485 1.433 . S
C478 H474 0.929 . S
C478 C480 1.378 . S
C478 C482 1.350 . S
C479 C482 1.463 . S
C479 C484 1.350 . S
C479 N487 1.427 . S
C480 H471 0.930 . S
C480 C478 1.378 . S
C480 C481 1.367 . S
C481 C480 1.367 . S
C481 C483 1.433 . S
C482 C478 1.350 . S
C482 C479 1.463 . S
C482 N486 1.427 . S
C483 H473 0.929 . S
C483 C481 1.433 . S
C483 N486 1.384 . S
C484 H475 0.929 . S
C484 C476 1.378 . S
C484 C479 1.350 . S
C485 H472 0.929 . S
C485 C477 1.433 . S
C485 N487 1.384 . S
N486 C482 1.427 . S
N486 C483 1.384 . S
N487 C479 1.427 . S
N487 C485 1.384 . S
H488 C494 0.930 . S
H489 C498 0.930 . S
H490 C503 0.929 . S
H491 C501 0.929 . S
H492 C496 0.929 . S
H493 C502 0.929 . S
C494 H488 0.930 . S
C494 C495 1.367 . S
C494 C502 1.378 . S
C495 C494 1.367 . S
C495 C503 1.433 . S
C496 H492 0.929 . S
C496 C498 1.378 . S
C496 C500 1.350 . S
C497 C500 1.463 . S
C497 C502 1.350 . S
C497 N505 1.427 . S
C498 H489 0.930 . S
C498 C496 1.378 . S
C498 C499 1.367 . S
C499 C498 1.367 . S
C499 C501 1.433 1_545 S
C500 C496 1.350 . S
C500 C497 1.463 . S
C500 N504 1.427 . S
C501 H491 0.929 . S
C501 C499 1.433 1_565 S
C501 N504 1.384 1_565 S
C502 H493 0.929 . S
C502 C494 1.378 . S
C502 C497 1.350 . S
C503 H490 0.929 . S
C503 C495 1.433 . S
C503 N505 1.384 . S
N504 C500 1.427 . S
N504 C501 1.384 1_545 S
N505 C497 1.427 . S
N505 C503 1.384 . S
H506 C512 0.930 . S
H507 C516 0.930 . S
H508 C521 0.929 . S
H509 C519 0.929 . S
H510 C514 0.929 . S
H511 C520 0.929 . S
C512 H506 0.930 . S
C512 C513 1.367 . S
C512 C520 1.378 . S
C513 C512 1.367 . S
C513 C521 1.433 1_565 S
C514 H510 0.929 . S
C514 C516 1.378 . S
C514 C518 1.350 . S
C515 C518 1.463 . S
C515 C520 1.350 . S
C515 N523 1.427 . S
C516 H507 0.930 . S
C516 C514 1.378 . S
C516 C517 1.367 . S
C517 C516 1.367 . S
C517 C519 1.433 . S
C518 C514 1.350 . S
C518 C515 1.463 . S
C518 N522 1.427 . S
C519 H509 0.929 . S
C519 C517 1.433 . S
C519 N522 1.384 . S
C520 H511 0.929 . S
C520 C512 1.378 . S
C520 C515 1.350 . S
C521 H508 0.929 . S
C521 C513 1.433 1_545 S
C521 N523 1.384 1_545 S
N522 C518 1.427 . S
N522 C519 1.384 . S
N523 C515 1.427 . S
N523 C521 1.384 1_565 S
H524 C530 0.930 . S
H525 C534 0.930 . S
H526 C539 0.929 . S
H527 C537 0.929 . S
H528 C532 0.929 . S
H529 C538 0.929 . S
C530 H524 0.930 . S
C530 C531 1.367 . S
C530 C538 1.378 . S
C531 C530 1.367 . S
C531 C539 1.433 . S
C532 H528 0.929 . S
C532 C534 1.378 . S
C532 C536 1.350 . S
C533 C536 1.463 . S
C533 C538 1.350 . S
C533 N541 1.427 . S
C534 H525 0.930 . S
C534 C532 1.378 . S
C534 C535 1.367 . S
C535 C534 1.367 . S
C535 C537 1.433 . S
C536 C532 1.350 . S
C536 C533 1.463 . S
C536 N540 1.427 . S
C537 H527 0.929 . S
C537 C535 1.433 . S
C537 N540 1.384 . S
C538 H529 0.929 . S
C538 C530 1.378 . S
C538 C533 1.350 . S
C539 H526 0.929 . S
C539 C531 1.433 . S
C539 N541 1.384 . S
N540 C536 1.427 . S
N540 C537 1.384 . S
N541 C533 1.427 . S
N541 C539 1.384 . S
H542 C548 0.930 . S
H543 C552 0.930 . S
H544 C557 0.929 . S
H545 C555 0.929 . S
H546 C550 0.929 . S
H547 C556 0.929 . S
C548 H542 0.930 . S
C548 C549 1.367 . S
C548 C556 1.378 . S
C549 C548 1.367 . S
C549 C557 1.433 . S
C550 H546 0.929 . S
C550 C552 1.378 . S
C550 C554 1.350 . S
C551 C554 1.463 . S
C551 C556 1.350 . S
C551 N559 1.427 . S
C552 H543 0.930 . S
C552 C550 1.378 . S
C552 C553 1.367 . S
C553 C552 1.367 . S
C553 C555 1.433 . S
C554 C550 1.350 . S
C554 C551 1.463 . S
C554 N558 1.427 . S
C555 H545 0.929 . S
C555 C553 1.433 . S
C555 N558 1.384 . S
C556 H547 0.929 . S
C556 C548 1.378 . S
C556 C551 1.350 . S
C557 H544 0.929 . S
C557 C549 1.433 . S
C557 N559 1.384 . S
N558 C554 1.427 . S
N558 C555 1.384 . S
N559 C551 1.427 . S
N559 C557 1.384 . S
H560 C566 0.930 . S
H561 C570 0.930 . S
H562 C575 0.929 . S
H563 C573 0.929 . S
H564 C568 0.929 . S
H565 C574 0.929 . S
C566 H560 0.930 . S
C566 C567 1.367 . S
C566 C574 1.378 . S
C567 C566 1.367 . S
C567 C575 1.433 . S
C568 H564 0.929 . S
C568 C570 1.378 . S
C568 C572 1.350 . S
C569 C572 1.463 . S
C569 C574 1.350 . S
C569 N577 1.427 . S
C570 H561 0.930 . S
C570 C568 1.378 . S
C570 C571 1.367 . S
C571 C570 1.367 . S
C571 C573 1.433 . S
C572 C568 1.350 . S
C572 C569 1.463 . S
C572 N576 1.427 . S
C573 H563 0.929 . S
C573 C571 1.433 . S
C573 N576 1.384 . S
C574 H565 0.929 . S
C574 C566 1.378 . S
C574 C569 1.350 . S
C575 H562 0.929 . S
C575 C567 1.433 . S
C575 N577 1.384 . S
N576 C572 1.427 . S
N576 C573 1.384 . S
N577 C569 1.427 . S
N577 C575 1.384 . S
H578 C584 0.930 . S
H579 C588 0.930 . S
H580 C593 0.929 . S
H581 C591 0.929 . S
H582 C586 0.929 . S
H583 C592 0.929 . S
C584 H578 0.930 . S
C584 C585 1.367 . S
C584 C592 1.378 . S
C585 C584 1.367 . S
C585 C593 1.433 . S
C586 H582 0.929 . S
C586 C588 1.378 . S
C586 C590 1.350 . S
C587 C590 1.463 . S
C587 C592 1.350 . S
C587 N595 1.427 . S
C588 H579 0.930 . S
C588 C586 1.378 . S
C588 C589 1.367 . S
C589 C588 1.367 . S
C589 C591 1.433 . S
C590 C586 1.350 . S
C590 C587 1.463 . S
C590 N594 1.427 . S
C591 H581 0.929 . S
C591 C589 1.433 . S
C591 N594 1.384 . S
C592 H583 0.929 . S
C592 C584 1.378 . S
C592 C587 1.350 . S
C593 H580 0.929 . S
C593 C585 1.433 . S
C593 N595 1.384 . S
N594 C590 1.427 . S
N594 C591 1.384 . S
N595 C587 1.427 . S
N595 C593 1.384 . S
H596 C602 0.930 1_545 S
H597 C606 0.930 . S
H598 C611 0.929 . S
H599 C609 0.929 . S
H600 C604 0.929 . S
H601 C610 0.929 . S
C602 H596 0.930 1_565 S
C602 C603 1.367 . S
C602 C610 1.378 . S
C603 C602 1.367 . S
C603 C611 1.433 . S
C604 H600 0.929 . S
C604 C606 1.378 . S
C604 C608 1.350 . S
C605 C608 1.463 . S
C605 C610 1.350 . S
C605 N613 1.427 . S
C606 H597 0.930 . S
C606 C604 1.378 . S
C606 C607 1.367 . S
C607 C606 1.367 . S
C607 C609 1.433 . S
C608 C604 1.350 . S
C608 C605 1.463 . S
C608 N612 1.427 . S
C609 H599 0.929 . S
C609 C607 1.433 . S
C609 N612 1.384 . S
C610 H601 0.929 . S
C610 C602 1.378 . S
C610 C605 1.350 . S
C611 H598 0.929 . S
C611 C603 1.433 . S
C611 N613 1.384 . S
N612 C608 1.427 . S
N612 C609 1.384 . S
N613 C605 1.427 . S
N613 C611 1.384 . S
H614 C620 0.930 1_565 S
H615 C624 0.930 . S
H616 C629 0.929 . S
H617 C627 0.929 . S
H618 C622 0.929 . S
H619 C628 0.929 . S
C620 H614 0.930 1_545 S
C620 C621 1.367 . S
C620 C628 1.378 . S
C621 C620 1.367 . S
C621 C629 1.433 . S
C622 H618 0.929 . S
C622 C624 1.378 . S
C622 C626 1.350 . S
C623 C626 1.463 . S
C623 C628 1.350 . S
C623 N631 1.427 . S
C624 H615 0.930 . S
C624 C622 1.378 . S
C624 C625 1.367 . S
C625 C624 1.367 . S
C625 C627 1.433 . S
C626 C622 1.350 . S
C626 C623 1.463 . S
C626 N630 1.427 . S
C627 H617 0.929 . S
C627 C625 1.433 . S
C627 N630 1.384 . S
C628 H619 0.929 . S
C628 C620 1.378 . S
C628 C623 1.350 . S
C629 H616 0.929 . S
C629 C621 1.433 . S
C629 N631 1.384 . S
N630 C626 1.427 . S
N630 C627 1.384 . S
N631 C623 1.427 . S
N631 C629 1.384 . S
H632 C638 0.930 . S
H633 C642 0.930 . S
H634 C647 0.929 . S
H635 C645 0.929 . S
H636 C640 0.929 . S
H637 C646 0.929 . S
C638 H632 0.930 . S
C638 C639 1.356 1_454 S
C638 C646 1.378 . S
C639 C638 1.356 1_656 S
C639 C647 1.445 . S
C640 H636 0.929 . S
C640 C642 1.378 . S
C640 C644 1.345 1_655 S
C641 C644 1.461 1_655 S
C641 C646 1.346 1_656 S
C641 N649 1.432 . S
C642 H633 0.930 . S
C642 C640 1.378 . S
C642 C643 1.367 1_655 S
C643 C642 1.367 1_455 S
C643 C645 1.433 1_556 S
C644 C640 1.345 1_455 S
C644 C641 1.461 1_455 S
C644 N648 1.434 1_556 S
C645 H635 0.929 . S
C645 C643 1.433 1_554 S
C645 N648 1.384 . S
C646 H637 0.929 . S
C646 C638 1.378 . S
C646 C641 1.346 1_454 S
C647 H634 0.929 . S
C647 C639 1.445 . S
C647 N649 1.384 . S
N648 C644 1.434 1_554 S
N648 C645 1.384 . S
N649 C641 1.432 . S
N649 C647 1.384 . S
H650 C656 0.930 . S
H651 C660 0.930 . S
H652 C665 0.929 . S
H653 C663 0.929 . S
H654 C658 0.929 . S
H655 C664 0.929 . S
C656 H650 0.930 . S
C656 C657 1.367 . S
C656 C664 1.378 . S
C657 C656 1.367 . S
C657 C665 1.433 . S
C658 H654 0.929 . S
C658 C660 1.378 . S
C658 C662 1.350 . S
C659 C662 1.463 . S
C659 C664 1.350 . S
C659 N667 1.427 . S
C660 H651 0.930 . S
C660 C658 1.378 . S
C660 C661 1.367 . S
C661 C660 1.367 . S
C661 C663 1.433 . S
C662 C658 1.350 . S
C662 C659 1.463 . S
C662 N666 1.427 . S
C663 H653 0.929 . S
C663 C661 1.433 . S
C663 N666 1.384 . S
C664 H655 0.929 . S
C664 C656 1.378 . S
C664 C659 1.350 . S
C665 H652 0.929 . S
C665 C657 1.433 . S
C665 N667 1.384 . S
N666 C662 1.427 . S
N666 C663 1.384 . S
N667 C659 1.427 . S
N667 C665 1.384 . S
H668 C674 0.930 . S
H669 C678 0.930 . S
H670 C683 0.929 . S
H671 C681 0.929 . S
H672 C676 0.929 . S
H673 C682 0.929 . S
C674 H668 0.930 . S
C674 C675 1.367 . S
C674 C682 1.378 . S
C675 C674 1.367 . S
C675 C683 1.433 . S
C676 H672 0.929 . S
C676 C678 1.378 . S
C676 C680 1.350 . S
C677 C680 1.463 . S
C677 C682 1.350 . S
C677 N685 1.427 . S
C678 H669 0.930 . S
C678 C676 1.378 . S
C678 C679 1.367 . S
C679 C678 1.367 . S
C679 C681 1.433 . S
C680 C676 1.350 . S
C680 C677 1.463 . S
C680 N684 1.427 . S
C681 H671 0.929 . S
C681 C679 1.433 . S
C681 N684 1.384 . S
C682 H673 0.929 . S
C682 C674 1.378 . S
C682 C677 1.350 . S
C683 H670 0.929 . S
C683 C675 1.433 . S
C683 N685 1.384 . S
N684 C680 1.427 . S
N684 C681 1.384 . S
N685 C677 1.427 . S
N685 C683 1.384 . S
H686 C692 0.930 . S
H687 C696 0.930 . S
H688 C701 0.929 . S
H689 C699 0.929 . S
H690 C694 0.929 . S
H691 C700 0.929 . S
C692 H686 0.930 . S
C692 C693 1.367 . S
C692 C700 1.378 . S
C693 C692 1.367 . S
C693 C701 1.433 1_455 S
C694 H690 0.929 . S
C694 C696 1.378 . S
C694 C698 1.350 . S
C695 C698 1.463 1_465 S
C695 C700 1.350 . S
C695 N703 1.427 1_455 S
C696 H687 0.930 . S
C696 C694 1.378 . S
C696 C697 1.367 . S
C697 C696 1.367 . S
C697 C699 1.433 1_655 S
C698 C694 1.350 . S
C698 C695 1.463 1_645 S
C698 N702 1.427 1_655 S
C699 H689 0.929 . S
C699 C697 1.433 1_455 S
C699 N702 1.384 . S
C700 H691 0.929 . S
C700 C692 1.378 . S
C700 C695 1.350 . S
C701 H688 0.929 . S
C701 C693 1.433 1_655 S
C701 N703 1.384 . S
N702 C698 1.427 1_455 S
N702 C699 1.384 . S
N703 C695 1.427 1_655 S
N703 C701 1.384 . S
H704 C710 0.930 . S
H705 C714 0.930 . S
H706 C719 0.929 . S
H707 C717 0.929 . S
H708 C712 0.929 . S
H709 C718 0.929 . S
C710 H704 0.930 . S
C710 C711 1.367 . S
C710 C718 1.378 . S
C711 C710 1.367 . S
C711 C719 1.433 . S
C712 H708 0.929 . S
C712 C714 1.378 . S
C712 C716 1.350 . S
C713 C716 1.463 . S
C713 C718 1.350 . S
C713 N721 1.427 . S
C714 H705 0.930 . S
C714 C712 1.378 . S
C714 C715 1.367 . S
C715 C714 1.367 . S
C715 C717 1.433 . S
C716 C712 1.350 . S
C716 C713 1.463 . S
C716 N720 1.427 . S
C717 H707 0.929 . S
C717 C715 1.433 . S
C717 N720 1.384 . S
C718 H709 0.929 . S
C718 C710 1.378 . S
C718 C713 1.350 . S
C719 H706 0.929 . S
C719 C711 1.433 . S
C719 N721 1.384 . S
N720 C716 1.427 . S
N720 C717 1.384 . S
N721 C713 1.427 . S
N721 C719 1.384 . S
H722 C728 0.930 . S
H723 C732 0.930 . S
H724 C737 0.929 . S
H725 C735 0.929 . S
H726 C730 0.929 . S
H727 C736 0.929 . S
C728 H722 0.930 . S
C728 C729 1.367 . S
C728 C736 1.378 . S
C729 C728 1.367 . S
C729 C737 1.433 . S
C730 H726 0.929 . S
C730 C732 1.378 . S
C730 C734 1.350 . S
C731 C734 1.463 . S
C731 C736 1.350 . S
C731 N739 1.427 . S
C732 H723 0.930 . S
C732 C730 1.378 . S
C732 C733 1.367 . S
C733 C732 1.367 . S
C733 C735 1.433 . S
C734 C730 1.350 . S
C734 C731 1.463 . S
C734 N738 1.427 . S
C735 H725 0.929 . S
C735 C733 1.433 . S
C735 N738 1.384 . S
C736 H727 0.929 . S
C736 C728 1.378 . S
C736 C731 1.350 . S
C737 H724 0.929 . S
C737 C729 1.433 . S
C737 N739 1.384 . S
N738 C734 1.427 . S
N738 C735 1.384 . S
N739 C731 1.427 . S
N739 C737 1.384 . S
H740 C746 0.930 . S
H741 C750 0.930 . S
H742 C755 0.929 . S
H743 C753 0.929 . S
H744 C748 0.929 . S
H745 C754 0.929 . S
C746 H740 0.930 . S
C746 C747 1.367 . S
C746 C754 1.378 . S
C747 C746 1.367 . S
C747 C755 1.433 . S
C748 H744 0.929 . S
C748 C750 1.378 . S
C748 C752 1.350 . S
C749 C752 1.463 . S
C749 C754 1.350 . S
C749 N757 1.427 . S
C750 H741 0.930 . S
C750 C748 1.378 . S
C750 C751 1.367 . S
C751 C750 1.367 . S
C751 C753 1.433 . S
C752 C748 1.350 . S
C752 C749 1.463 . S
C752 N756 1.427 . S
C753 H743 0.929 . S
C753 C751 1.433 . S
C753 N756 1.384 . S
C754 H745 0.929 . S
C754 C746 1.378 . S
C754 C749 1.350 . S
C755 H742 0.929 . S
C755 C747 1.433 . S
C755 N757 1.384 . S
N756 C752 1.427 . S
N756 C753 1.384 . S
N757 C749 1.427 . S
N757 C755 1.384 . S
H758 C764 0.930 . S
H759 C768 0.930 . S
H760 C773 0.929 . S
H761 C771 0.929 . S
H762 C766 0.929 . S
H763 C772 0.929 . S
C764 H758 0.930 . S
C764 C765 1.367 . S
C764 C772 1.378 . S
C765 C764 1.367 . S
C765 C773 1.433 1_556 S
C766 H762 0.929 . S
C766 C768 1.378 . S
C766 C770 1.346 1_554 S
C767 C770 1.463 1_565 S
C767 C772 1.350 . S
C767 N775 1.427 1_556 S
C768 H759 0.930 . S
C768 C766 1.378 . S
C768 C769 1.355 1_554 S
C769 C768 1.355 1_556 S
C769 C771 1.446 . S
C770 C766 1.346 1_556 S
C770 C767 1.463 1_545 S
C770 N774 1.431 . S
C771 H761 0.929 . S
C771 C769 1.446 . S
C771 N774 1.384 . S
C772 H763 0.929 . S
C772 C764 1.378 . S
C772 C767 1.350 . S
C773 H760 0.929 . S
C773 C765 1.433 1_554 S
C773 N775 1.384 . S
N774 C770 1.431 . S
N774 C771 1.384 . S
N775 C767 1.427 1_554 S
N775 C773 1.384 . S
H776 C782 0.930 . S
H777 C786 0.930 . S
H778 C791 0.929 . S
H779 C789 0.929 . S
H780 C784 0.929 . S
H781 C790 0.929 . S
C782 H776 0.930 . S
C782 C783 1.367 . S
C782 C790 1.378 . S
C783 C782 1.367 . S
C783 C791 1.433 . S
C784 H780 0.929 . S
C784 C786 1.378 . S
C784 C788 1.350 . S
C785 C788 1.463 . S
C785 C790 1.350 . S
C785 N793 1.427 . S
C786 H777 0.930 . S
C786 C784 1.378 . S
C786 C787 1.367 . S
C787 C786 1.367 . S
C787 C789 1.433 . S
C788 C784 1.350 . S
C788 C785 1.463 . S
C788 N792 1.427 . S
C789 H779 0.929 . S
C789 C787 1.433 . S
C789 N792 1.384 . S
C790 H781 0.929 . S
C790 C782 1.378 . S
C790 C785 1.350 . S
C791 H778 0.929 . S
C791 C783 1.433 . S
C791 N793 1.384 . S
N792 C788 1.427 . S
N792 C789 1.384 . S
N793 C785 1.427 . S
N793 C791 1.384 . S
H794 C800 0.930 . S
H795 C804 0.930 . S
H796 C809 0.929 . S
H797 C807 0.929 . S
H798 C802 0.929 . S
H799 C808 0.929 . S
C800 H794 0.930 . S
C800 C801 1.367 . S
C800 C808 1.378 . S
C801 C800 1.367 . S
C801 C809 1.433 . S
C802 H798 0.929 . S
C802 C804 1.378 . S
C802 C806 1.350 . S
C803 C806 1.463 . S
C803 C808 1.350 . S
C803 N811 1.427 . S
C804 H795 0.930 . S
C804 C802 1.378 . S
C804 C805 1.367 . S
C805 C804 1.367 . S
C805 C807 1.433 . S
C806 C802 1.350 . S
C806 C803 1.463 . S
C806 N810 1.427 . S
C807 H797 0.929 . S
C807 C805 1.433 . S
C807 N810 1.384 . S
C808 H799 0.929 . S
C808 C800 1.378 . S
C808 C803 1.350 . S
C809 H796 0.929 . S
C809 C801 1.433 . S
C809 N811 1.384 . S
N810 C806 1.427 . S
N810 C807 1.384 . S
N811 C803 1.427 . S
N811 C809 1.384 . S
H812 C818 0.930 . S
H813 C822 0.930 . S
H814 C827 0.929 . S
H815 C825 0.929 . S
H816 C820 0.929 . S
H817 C826 0.929 . S
C818 H812 0.930 . S
C818 C819 1.367 . S
C818 C826 1.378 . S
C819 C818 1.367 . S
C819 C827 1.433 . S
C820 H816 0.929 . S
C820 C822 1.378 . S
C820 C824 1.350 . S
C821 C824 1.463 1_455 S
C821 C826 1.350 . S
C821 N829 1.427 . S
C822 H813 0.930 . S
C822 C820 1.378 . S
C822 C823 1.367 . S
C823 C822 1.367 . S
C823 C825 1.433 . S
C824 C820 1.350 . S
C824 C821 1.463 1_655 S
C824 N828 1.427 . S
C825 H815 0.929 . S
C825 C823 1.433 . S
C825 N828 1.384 . S
C826 H817 0.929 . S
C826 C818 1.378 . S
C826 C821 1.350 . S
C827 H814 0.929 . S
C827 C819 1.433 . S
C827 N829 1.384 . S
N828 C824 1.427 . S
N828 C825 1.384 . S
N829 C821 1.427 . S
N829 C827 1.384 . S
H830 C836 0.930 . S
H831 C840 0.930 . S
H832 C845 0.929 . S
H833 C843 0.929 . S
H834 C838 0.929 . S
H835 C844 0.929 . S
C836 H830 0.930 . S
C836 C837 1.367 . S
C836 C844 1.378 . S
C837 C836 1.367 . S
C837 C845 1.433 . S
C838 H834 0.929 . S
C838 C840 1.378 . S
C838 C842 1.350 . S
C839 C842 1.463 . S
C839 C844 1.350 . S
C839 N847 1.427 . S
C840 H831 0.930 . S
C840 C838 1.378 . S
C840 C841 1.367 . S
C841 C840 1.367 . S
C841 C843 1.433 . S
C842 C838 1.350 . S
C842 C839 1.463 . S
C842 N846 1.427 . S
C843 H833 0.929 . S
C843 C841 1.433 . S
C843 N846 1.384 . S
C844 H835 0.929 . S
C844 C836 1.378 . S
C844 C839 1.350 . S
C845 H832 0.929 . S
C845 C837 1.433 . S
C845 N847 1.384 . S
N846 C842 1.427 . S
N846 C843 1.384 . S
N847 C839 1.427 . S
N847 C845 1.384 . S
H848 C854 0.930 . S
H849 C858 0.930 . S
H850 C863 0.929 . S
H851 C861 0.929 . S
H852 C856 0.929 . S
H853 C862 0.929 . S
C854 H848 0.930 . S
C854 C855 1.367 . S
C854 C862 1.378 . S
C855 C854 1.367 . S
C855 C863 1.433 . S
C856 H852 0.929 . S
C856 C858 1.378 . S
C856 C860 1.350 . S
C857 C860 1.463 . S
C857 C862 1.350 . S
C857 N865 1.427 . S
C858 H849 0.930 . S
C858 C856 1.378 . S
C858 C859 1.367 . S
C859 C858 1.367 . S
C859 C861 1.433 . S
C860 C856 1.350 . S
C860 C857 1.463 . S
C860 N864 1.427 . S
C861 H851 0.929 . S
C861 C859 1.433 . S
C861 N864 1.384 . S
C862 H853 0.929 . S
C862 C854 1.378 . S
C862 C857 1.350 . S
C863 H850 0.929 . S
C863 C855 1.433 . S
C863 N865 1.384 . S
N864 C860 1.427 . S
N864 C861 1.384 . S
N865 C857 1.427 . S
N865 C863 1.384 . S
H866 C872 0.930 . S
H867 C876 0.930 . S
H868 C881 0.929 . S
H869 C879 0.929 . S
H870 C874 0.929 . S
H871 C880 0.929 . S
C872 H866 0.930 . S
C872 C873 1.367 1_545 S
C872 C880 1.378 . S
C873 C872 1.367 1_565 S
C873 C881 1.433 . S
C874 H870 0.929 . S
C874 C876 1.378 . S
C874 C878 1.350 1_565 S
C875 C878 1.463 1_665 S
C875 C880 1.350 1_565 S
C875 N883 1.427 . S
C876 H867 0.930 . S
C876 C874 1.378 . S
C876 C877 1.367 1_565 S
C877 C876 1.367 1_545 S
C877 C879 1.433 . S
C878 C874 1.350 1_545 S
C878 C875 1.463 1_445 S
C878 N882 1.427 . S
C879 H869 0.929 . S
C879 C877 1.433 . S
C879 N882 1.384 . S
C880 H871 0.929 . S
C880 C872 1.378 . S
C880 C875 1.350 1_545 S
C881 H868 0.929 . S
C881 C873 1.433 . S
C881 N883 1.384 . S
N882 C878 1.427 . S
N882 C879 1.384 . S
N883 C875 1.427 . S
N883 C881 1.384 . S
H884 C890 0.930 . S
H885 C894 0.930 . S
H886 C899 0.929 . S
H887 C897 0.929 . S
H888 C892 0.929 . S
H889 C898 0.929 . S
C890 H884 0.930 . S
C890 C891 1.367 . S
C890 C898 1.378 . S
C891 C890 1.367 . S
C891 C899 1.433 . S
C892 H888 0.929 . S
C892 C894 1.378 . S
C892 C896 1.350 . S
C893 C896 1.463 . S
C893 C898 1.350 . S
C893 N901 1.427 . S
C894 H885 0.930 . S
C894 C892 1.378 . S
C894 C895 1.367 . S
C895 C894 1.367 . S
C895 C897 1.433 . S
C896 C892 1.350 . S
C896 C893 1.463 . S
C896 N900 1.427 . S
C897 H887 0.929 . S
C897 C895 1.433 . S
C897 N900 1.384 . S
C898 H889 0.929 . S
C898 C890 1.378 . S
C898 C893 1.350 . S
C899 H886 0.929 . S
C899 C891 1.433 . S
C899 N901 1.384 . S
N900 C896 1.427 . S
N900 C897 1.384 . S
N901 C893 1.427 . S
N901 C899 1.384 . S
H902 C908 0.930 . S
H903 C912 0.930 . S
H904 C917 0.929 . S
H905 C915 0.929 . S
H906 C910 0.929 . S
H907 C916 0.929 . S
C908 H902 0.930 . S
C908 C909 1.367 1_565 S
C908 C916 1.378 . S
C909 C908 1.367 1_545 S
C909 C917 1.433 . S
C910 H906 0.929 . S
C910 C912 1.378 . S
C910 C914 1.350 1_545 S
C911 C914 1.463 1_545 S
C911 C916 1.350 1_545 S
C911 N919 1.427 . S
C912 H903 0.930 . S
C912 C910 1.378 . S
C912 C913 1.367 1_545 S
C913 C912 1.367 1_565 S
C913 C915 1.433 . S
C914 C910 1.350 1_565 S
C914 C911 1.463 1_565 S
C914 N918 1.427 . S
C915 H905 0.929 . S
C915 C913 1.433 . S
C915 N918 1.384 . S
C916 H907 0.929 . S
C916 C908 1.378 . S
C916 C911 1.350 1_565 S
C917 H904 0.929 . S
C917 C909 1.433 . S
C917 N919 1.384 . S
N918 C914 1.427 . S
N918 C915 1.384 . S
N919 C911 1.427 . S
N919 C917 1.384 . S
C351 C27 1.781 1_545 S
C355 C76 1.961 . S
C369 C32 1.780 1_565 S
C373 C126 1.963 . S
C387 C162 1.962 . S
C391 C70 1.795 . S
C405 C118 1.800 . S
C409 C169 1.966 . S
C423 C156 1.781 . S
C427 C205 1.964 . S
C441 C248 1.967 . S
C445 C161 1.801 . S
C459 C199 1.800 . S
C463 C33 1.971 . S
C477 C242 1.786 . S
C481 C40 1.962 . S
C495 C255 1.969 . S
C499 C285 1.789 1_545 S
C513 C290 1.781 1_565 S
C517 C212 1.962 . S
C531 C334 1.965 . S
C535 C247 1.784 . S
C549 C341 1.968 . S
C553 C204 1.803 . S
C567 C328 1.786 . S
C571 C119 1.966 . S
C585 C83 1.968 . S
C589 C333 1.797 . S
C603 C291 1.962 . S
C607 C113 1.795 . S
C621 C298 1.964 . S
C625 C75 1.798 . S
C639 C13 1.744 . S
C643 C39 1.742 . S
C657 C82 1.747 . S
C661 C56 1.746 1_565 S
C675 C125 1.742 1_545 S
C679 C99 1.741 . S
C693 C168 1.734 . S
C697 C142 1.735 . S
C711 C211 1.749 1_545 S
C715 C185 1.749 . S
C729 C228 1.749 . S
C733 C254 1.749 1_565 S
C747 C271 1.750 . S
C751 C297 1.749 . S
C765 C340 1.745 . S
C769 C314 1.746 . S
C783 N309 1.201 . S
C787 N3 1.201 . S
C801 N8 1.202 . S
C805 N304 1.203 . S
C819 N46 1.201 . S
C823 N94 1.202 . S
C837 N266 1.186 . S
C841 N132 1.194 . S
C855 N137 1.201 . S
C859 N261 1.202 . S
C873 N218 1.176 1_565 S
C877 N175 1.171 1_545 S
C891 N223 1.183 . S
C895 N180 1.176 . S
C909 N89 1.174 1_545 S
C913 N51 1.181 1_565 S
