# Generated by pormake.
# Topology vmr, (7)-cn, num edge types: 1
# Building blocks:
#     Node 0, Type 0, BuildingBlock: HICVOG_clean_sbu_0, # of connection points: 7
#     Node 1, Type 0, BuildingBlock: HICVOG_clean_sbu_0, # of connection points: 7
#     Node 2, Type 0, BuildingBlock: HICVOG_clean_sbu_0, # of connection points: 7
#     Node 3, Type 0, BuildingBlock: HICVOG_clean_sbu_0, # of connection points: 7
#     Edge 4, Type (0, 0), BuildingBlock: AJUNOK_clean_linker_0, # of connection points: 2
#     Edge 5, Type (0, 0), BuildingBlock: AJUNOK_clean_linker_0, # of connection points: 2
#     Edge 6, Type (0, 0), BuildingBlock: AJUNOK_clean_linker_0, # of connection points: 2
#     Edge 7, Type (0, 0), BuildingBlock: AJUNOK_clean_linker_0, # of connection points: 2
#     Edge 8, Type (0, 0), BuildingBlock: AJUNOK_clean_linker_0, # of connection points: 2
#     Edge 9, Type (0, 0), BuildingBlock: AJUNOK_clean_linker_0, # of connection points: 2
#     Edge 10, Type (0, 0), BuildingBlock: AJUNOK_clean_linker_0, # of connection points: 2
#     Edge 11, Type (0, 0), BuildingBlock: AJUNOK_clean_linker_0, # of connection points: 2
#     Edge 12, Type (0, 0), BuildingBlock: AJUNOK_clean_linker_0, # of connection points: 2
#     Edge 13, Type (0, 0), BuildingBlock: AJUNOK_clean_linker_0, # of connection points: 2
#     Edge 14, Type (0, 0), BuildingBlock: AJUNOK_clean_linker_0, # of connection points: 2
#     Edge 15, Type (0, 0), BuildingBlock: AJUNOK_clean_linker_0, # of connection points: 2
#     Edge 16, Type (0, 0), BuildingBlock: AJUNOK_clean_linker_0, # of connection points: 2
#     Edge 17, Type (0, 0), BuildingBlock: AJUNOK_clean_linker_0, # of connection points: 2
# Relax obj value: 0.080
# Max RMSD: 0.178
# Mean RMSD: 0.178
data_MOF--net-vmr--node1-HICVOG_clean_sbu_0--edge1-AJUNOK_clean_linker_0
_symmetry_space_group_name_H-M    P1
_symmetry_Int_Tables_number       1
_symmetry_cell_setting            triclinic
loop_
_symmetry_equiv_pos_as_xyz
'x, y, z'
_cell_length_a     19.672017
_cell_length_b     16.124138
_cell_length_c     27.917127
_cell_angle_alpha  89.928369
_cell_angle_beta   124.11599
_cell_angle_gamma 90.241288
loop_
_atom_site_label
_atom_site_type_symbol
_atom_site_fract_x
_atom_site_fract_y
_atom_site_fract_z
_atom_type_partial_charge
Zn0 Zn 0.23176 0.41307 0.1435 0.0
C1 C 0.0615 0.40891 0.17759 0.0
N2 N 1.02177 0.45801 0.13059 0.0
C3 C 0.06456 0.44817 0.10685 0.0
N4 N 0.12977 0.39793 0.13889 0.0
N5 N 0.1262 0.37099 0.18231 0.0
C6 C 0.21402 0.3245 0.34414 0.0
O7 O 0.25142 0.39091 0.3423 0.0
O8 O 0.21708 0.39345 0.0664 0.0
Zn9 Zn 0.18447 0.27506 0.23092 0.0
N10 N 0.27082 0.52601 0.17034 0.0
C11 C 0.26335 0.64599 0.2167 0.0
C12 C 0.23637 0.5669 0.19412 0.0
C13 C 0.33418 0.56049 0.1702 0.0
N14 N 0.3265 0.68009 0.21694 0.0
C15 C 0.3638 0.63998 0.19476 0.0
O16 O 0.3025 0.25989 0.25633 0.0
C17 C 0.34887 0.28711 0.24149 0.0
O18 O 0.32427 0.34026 0.20145 0.0
H19 H 0.18885 0.538 0.19623 0.0
H20 H 0.36152 0.52573 0.15204 0.0
C21 C 0.08794 0.1301 0.20795 0.0
C22 C 0.05543 0.05131 0.18464 0.0
C23 C 0.10065 0.06634 0.12226 0.0
C24 C 0.13397 0.14426 0.14631 0.0
N25 N 0.12745 0.17428 0.18904 0.0
N26 N 0.06308 1.02116 0.14239 0.0
H27 H 0.08483 0.15461 0.2427 0.0
C28 C 0.23739 0.32436 0.05586 0.0
O29 O 0.26357 0.26475 0.09437 0.0
O30 O 0.18239 0.27335 0.30241 0.0
H31 H 0.16648 0.17957 0.13214 0.0
H32 H 0.23564 0.67935 0.23516 0.0
H33 H 0.10605 1.0413 0.0886 0.0
Zn34 Zn 0.83721 0.77695 0.27165 0.0
C35 C 0.96757 0.94139 0.39896 0.0
N36 N 1.01282 0.94222 0.37657 0.0
C37 C 0.96656 0.89982 0.32683 0.0
N38 N 0.89636 0.87307 0.31962 0.0
N39 N 0.89484 0.90194 0.36346 0.0
C40 C 0.80249 0.82555 0.45115 0.0
O41 O 0.78386 0.76524 0.41412 0.0
O42 O 0.83937 0.77558 0.20037 0.0
Zn43 Zn 0.79334 0.91712 0.35957 0.0
N44 N 0.89449 0.67609 0.31306 0.0
C45 C 0.92051 0.56716 0.37905 0.0
C46 C 0.88708 0.64485 0.35517 0.0
C47 C 0.93506 0.63318 0.29459 0.0
N48 N 0.95915 0.5233 0.35939 0.0
C49 C 0.96772 0.55453 0.31775 0.0
O50 O 0.70005 0.84191 0.30302 0.0
C51 C 0.67473 0.78847 0.26293 0.0
O52 O 0.72009 0.76189 0.24723 0.0
H53 H 0.85377 0.67902 0.36895 0.0
H54 H 0.93897 0.65855 0.26035 0.0
C55 C 0.68676 0.06102 0.32893 0.0
C56 C 0.65814 0.14111 0.30581 0.0
C57 C 0.76315 0.15199 0.28838 0.0
C58 C 0.79033 0.07292 0.31063 0.0
N59 N 0.75215 1.0289 0.33066 0.0
N60 N 0.69784 0.18372 0.2862 0.0
H61 H 0.65806 1.02442 0.34547 0.0
C62 C 0.81349 0.8285 0.16013 0.0
O63 O 0.7798 0.89732 0.16233 0.0
O64 O 0.81216 0.8984 0.43821 0.0
H65 H 0.84187 0.04699 0.31222 0.0
H66 H 0.91438 0.54125 0.41222 0.0
H67 H 0.79323 0.18773 0.27248 0.0
Zn68 Zn 0.86708 0.81114 0.7813 0.0
C69 C 0.98759 0.64431 0.90872 0.0
N70 N 0.03493 0.63816 0.88828 0.0
C71 C 0.9936 0.683 0.83929 0.0
N72 N 0.9239 0.71496 0.8302 0.0
N73 N 0.91899 0.68854 0.8731 0.0
C74 C 0.82499 0.7655 0.959 0.0
O75 O 0.81209 0.82756 0.92434 0.0
O76 O 0.86646 0.80995 0.70844 0.0
Zn77 Zn 0.81723 0.6736 0.86798 0.0
N78 N 0.93027 0.90833 0.82391 0.0
C79 C 1.01482 0.98415 0.91153 0.0
C80 C 0.96475 0.91567 0.88167 0.0
C81 C 0.94228 0.96741 0.79463 0.0
N82 N 0.02889 1.04199 0.88249 0.0
C83 C 0.99292 1.03588 0.82442 0.0
O84 O 0.72696 0.74898 0.81149 0.0
C85 C 0.70387 0.804 0.77277 0.0
O86 O 0.7509 0.83115 0.75847 0.0
H87 H 0.95458 0.86815 0.90442 0.0
H88 H 0.91532 0.95938 0.74886 0.0
C89 C 0.70859 0.53256 0.83767 0.0
C90 C 0.67821 0.4524 0.81528 0.0
C91 C 0.78749 0.43435 0.80291 0.0
C92 C 0.81617 0.51381 0.82406 0.0
N93 N 0.77696 0.5612 0.84158 0.0
N94 N 0.71941 0.40601 0.79872 0.0
H95 H 0.6785 0.57214 0.85157 0.0
C96 C 0.8106 0.77634 0.66117 0.0
O97 O 0.75068 0.73595 0.65885 0.0
O98 O 0.83233 0.6928 0.9448 0.0
H99 H 0.86875 0.53764 0.82569 0.0
H100 H 0.04354 0.99041 0.95765 0.0
H101 H 0.81827 0.39585 0.78899 0.0
Zn102 Zn 0.19784 0.30822 0.73326 0.0
C103 C 0.08197 0.13023 0.61018 0.0
N104 N 0.03256 0.13045 0.62918 0.0
C105 C 0.07325 0.17821 0.67672 0.0
N106 N 0.14403 0.20792 0.68617 0.0
N107 N 0.15134 0.17578 0.64553 0.0
C108 C 0.22879 0.25644 0.55504 0.0
O109 O 0.22977 0.31892 0.58559 0.0
O110 O 0.19824 0.30714 0.80587 0.0
Zn111 Zn 0.25623 0.17247 0.65374 0.0
N112 N 0.12889 0.40182 0.6894 0.0
C113 C 0.03239 0.46961 0.60067 0.0
C114 C 0.08711 0.40461 0.63079 0.0
C115 C 0.11945 0.46222 0.71911 0.0
N116 N 1.02096 0.52852 0.63035 0.0
C117 C 0.0639 0.5271 0.68914 0.0
O118 O 0.33859 0.25862 0.70395 0.0
C119 C 0.36015 0.31501 0.74147 0.0
O120 O 0.31395 0.33754 0.75744 0.0
H121 H 0.09498 0.35597 0.60766 0.0
H122 H 0.15231 0.45766 0.76559 0.0
C123 C 0.37466 1.03793 0.69482 0.0
C124 C 0.41092 0.9639 0.72524 0.0
C125 C 0.32408 0.96553 0.7593 0.0
C126 C 0.28787 1.03816 0.72872 0.0
N127 N 0.31281 0.07231 0.69642 0.0
N128 N 0.38432 0.93018 0.75674 0.0
H129 H 0.39339 0.06672 0.66892 0.0
C130 C 0.25195 0.27601 0.85473 0.0
O131 O 0.31323 0.23386 0.86065 0.0
O132 O 0.23902 0.18333 0.57525 0.0
H133 H 0.23973 0.06673 0.73042 0.0
H134 H 0.99791 0.47219 0.55396 0.0
H135 H 0.3045 0.9373 0.78485 0.0
C136 C 0.44429 0.16592 0.27584 0.0
C137 C 0.43182 0.25198 0.26773 0.0
C138 C 0.51891 0.13019 0.29092 0.0
C139 C 0.58423 0.17944 0.29921 0.0
H140 H 0.39447 0.12543 0.26716 0.0
H141 H 0.52328 0.06331 0.29301 0.0
S142 S 0.58583 0.40987 0.29245 0.0
N143 N 0.49271 0.38636 0.27478 0.0
N144 N 0.63367 0.32048 0.30511 0.0
C145 C 0.57383 0.26634 0.29513 0.0
C146 C 0.49758 0.30227 0.27892 0.0
C147 C 0.50313 0.63073 0.21015 0.0
C148 C 0.43775 0.67926 0.20175 0.0
C149 C 0.57847 0.66706 0.22685 0.0
C150 C 0.59164 0.75295 0.23663 0.0
H151 H 0.49817 0.56385 0.20697 0.0
H152 H 0.62819 0.62706 0.2353 0.0
S153 S 0.43773 0.90918 0.2123 0.0
N154 N 0.38897 0.81954 0.19753 0.0
N155 N 0.53133 0.88658 0.23094 0.0
C156 C 0.52589 0.80262 0.22542 0.0
C157 C 0.44886 0.76609 0.20747 0.0
C158 C 0.54204 0.96809 0.72924 0.0
C159 C 0.47818 0.9221 0.72553 0.0
C160 C 0.61321 0.92877 0.74046 0.0
C161 C 0.6228 0.84239 0.74855 0.0
H162 H 0.53937 1.0351 0.72691 0.0
H163 H 0.66302 0.96677 0.74651 0.0
S164 S 0.46671 0.69297 0.73122 0.0
N165 N 0.4241 0.78471 0.72186 0.0
N166 N 0.55807 0.71123 0.74384 0.0
C167 C 0.55683 0.79539 0.7404 0.0
C168 C 0.48448 0.83517 0.72867 0.0
C169 C 0.5347 0.46961 0.7926 0.0
C170 C 0.60096 0.41786 0.80602 0.0
C171 C 0.45748 0.43636 0.77465 0.0
C172 C 0.44371 0.35026 0.76901 0.0
H173 H 0.54097 0.53622 0.79315 0.0
H174 H 0.40729 0.47831 0.76225 0.0
S175 S 0.59908 0.18734 0.80828 0.0
N176 N 0.64918 0.27537 0.81978 0.0
N177 N 0.50429 0.21377 0.78477 0.0
C178 C 0.51032 0.2979 0.78566 0.0
C179 C 0.58878 0.33141 0.80448 0.0
C180 C 0.96245 1.03911 0.21825 0.0
C181 C 1.01752 1.00098 0.20832 0.0
C182 C 0.93992 1.00085 0.2523 0.0
C183 C 0.97153 0.92307 0.27784 0.0
H184 H 0.94023 0.10116 0.20231 0.0
H185 H 0.90193 1.03524 0.26195 0.0
S186 S 0.10695 0.79109 0.25756 0.0
N187 N 0.09458 0.87606 0.22027 0.0
N188 N 0.05321 0.80492 0.28591 0.0
C189 C 1.02133 0.88113 0.26465 0.0
C190 C 0.04364 0.91976 0.22908 0.0
C191 C 0.088 0.50756 0.2533 0.0
C192 C 0.05733 0.42956 0.22728 0.0
C193 C 0.06346 0.54481 0.28637 0.0
C194 C 1.0072 0.50547 0.29484 0.0
H195 H 0.12637 0.54324 0.24441 0.0
H196 H 0.085 0.60705 0.3026 0.0
S197 S 0.919 0.29483 0.24373 0.0
N198 N 0.9751 0.31004 0.2173 0.0
N199 N 0.92977 0.37931 0.28098 0.0
C200 C 0.98205 0.42402 0.27376 0.0
C201 C 1.00657 0.38634 0.23928 0.0
C202 C 0.09674 0.10092 0.81183 0.0
C203 C 1.01454 0.09439 0.79415 0.0
C204 C 0.11683 0.13682 0.77549 0.0
C205 C 0.05587 0.17014 0.72143 0.0
H206 H 0.14485 0.07124 0.85139 0.0
H207 H 0.17936 0.13138 0.78745 0.0
S208 S 0.83307 0.17882 0.65927 0.0
N209 N 0.87277 0.13111 0.72191 0.0
N210 N 0.91117 0.2011 0.65452 0.0
C211 C 0.97446 0.1703 0.7057 0.0
C212 C 0.95368 0.13219 0.74202 0.0
C213 C 0.96362 0.59508 0.7042 0.0
C214 C 0.04507 0.58677 0.72046 0.0
C215 C 0.94594 0.63464 0.74075 0.0
C216 C 1.0087 0.66962 0.79374 0.0
H217 H 0.91407 0.56462 0.66551 0.0
H218 H 0.88379 0.63117 0.72986 0.0
S219 S 0.23028 0.67561 0.85165 0.0
N220 N 0.18793 0.62449 0.78994 0.0
N221 N 0.15413 0.7006 0.8578 0.0
C222 C 0.08933 0.66789 0.80794 0.0
C223 C 0.10764 0.62633 0.77138 0.0
C224 C 1.01312 0.5091 0.95915 0.0
C225 C 1.0038 0.59559 0.95871 0.0
C226 C 0.03568 0.46177 0.00815 0.0
C227 C 0.04923 0.49958 0.05806 0.0
H228 H 1.00266 0.47781 0.92124 0.0
H229 H 0.0408 0.39509 0.00653 0.0
S230 S 0.04172 0.72502 0.08094 0.0
N231 N 1.01717 0.71789 0.01393 0.0
N232 N 0.05542 0.62887 0.10514 0.0
C233 C 0.0408 0.58615 0.05829 0.0
C234 C 1.0192 0.6343 0.00879 0.0
C235 C 0.94296 1.03339 0.4612 0.0
C236 C 0.99583 0.98566 0.45383 0.0
C237 C 0.97286 0.08162 0.51112 0.0
C238 C 0.05707 0.08393 0.55627 0.0
H239 H 0.87845 1.03512 0.4283 0.0
H240 H 0.92913 0.11751 0.51435 0.0
S241 S 0.21919 0.95925 0.56143 0.0
N242 N 0.1354 0.93797 0.49756 0.0
N243 N 0.19049 1.02542 0.59182 0.0
C244 C 0.10991 1.03393 0.55007 0.0
C245 C 0.07959 0.98561 0.49891 0.0
C246 C 0.27832 0.22953 0.94946 0.0
C247 C 0.24528 0.28811 0.90457 0.0
C248 C 0.27375 0.24099 0.99744 0.0
C249 C 0.23723 0.31225 1.00294 0.0
H250 H 0.30759 0.17414 0.94742 0.0
H251 H 0.30038 0.19403 0.03089 0.0
S252 S 0.14345 0.48502 0.89743 0.0
N253 N 0.1749 0.41977 0.86842 0.0
N254 N 0.16821 0.44259 0.95901 0.0
C255 C 0.20404 0.37128 0.9582 0.0
C256 C 0.20753 0.35885 0.90895 0.0
C257 C 0.84559 0.85703 0.60103 0.0
C258 C 0.81191 0.78525 0.60887 0.0
C259 C 0.84292 0.86933 0.55019 0.0
C260 C 0.80786 0.80958 0.50568 0.0
H261 H 0.87228 0.90522 0.63376 0.0
H262 H 0.86824 0.92633 0.54571 0.0
S263 S 0.71765 0.60747 0.50758 0.0
N264 N 0.74637 0.6518 0.56952 0.0
N265 N 0.7425 0.67363 0.47456 0.0
C266 C 0.77654 0.73614 0.51403 0.0
C267 C 0.77819 0.72435 0.56541 0.0
C268 C 0.81123 0.86014 0.02426 0.0
C269 C 0.82654 0.78012 0.01221 0.0
C270 C 0.80793 0.8754 0.07237 0.0
C271 C 0.82052 0.81144 0.11079 0.0
H272 H 0.80042 0.91159 0.99585 0.0
H273 H 0.79513 0.93789 0.07931 0.0
S274 S 0.86706 0.59134 0.10081 0.0
N275 N 0.85662 0.63633 0.04392 0.0
N276 N 0.85231 0.66524 0.13482 0.0
C277 C 0.83825 0.73149 0.10027 0.0
C278 C 0.84062 0.71575 0.05087 0.0
C279 C 0.2403 0.35146 0.48898 0.0
C280 C 0.22055 0.27253 0.49965 0.0
C281 C 0.23684 0.36801 0.43832 0.0
C282 C 0.21249 0.30662 0.39582 0.0
H283 H 0.26045 0.40065 0.52064 0.0
H284 H 0.25404 0.42937 0.43273 0.0
S285 S 0.14761 0.09148 0.4006 0.0
N286 N 0.17144 0.13359 0.46209 0.0
N287 N 0.16381 0.16449 0.36659 0.0
C288 C 0.18978 0.22808 0.40505 0.0
C289 C 0.19425 0.21104 0.45702 0.0
loop_
_geom_bond_atom_site_label_1
_geom_bond_atom_site_label_2
_geom_bond_distance
_geom_bond_site_symmetry_2
_ccdc_geom_bond_type
Zn0 N4 2.020 . S
Zn0 O8 2.019 . S
Zn0 N10 2.119 . S
Zn0 O18 1.975 . S
C1 N2 1.334 . S
C1 N5 1.336 . S
N2 C1 1.334 . S
N2 C3 1.334 . S
C3 N2 1.334 . S
C3 N4 1.336 . S
N4 Zn0 2.020 . S
N4 C3 1.336 . S
N4 N5 1.354 . S
N5 C1 1.336 . S
N5 N4 1.354 . S
N5 Zn9 2.020 . S
C6 O7 1.244 . S
C6 O30 1.257 . S
O7 C6 1.244 . S
O8 Zn0 2.019 . S
O8 C28 1.257 . S
Zn9 N5 2.020 . S
Zn9 O16 1.975 . S
Zn9 N25 2.119 . S
Zn9 O30 2.019 . S
N10 Zn0 2.119 . S
N10 C12 1.334 . S
N10 C13 1.328 . S
C11 C12 1.391 . S
C11 N14 1.329 . S
C11 H32 0.930 . S
C12 N10 1.334 . S
C12 C11 1.391 . S
C12 H19 0.930 . S
C13 N10 1.328 . S
C13 C15 1.392 . S
C13 H20 0.930 . S
N14 C11 1.329 . S
N14 C15 1.331 . S
C15 C13 1.392 . S
C15 N14 1.331 . S
O16 Zn9 1.975 . S
O16 C17 1.252 . S
C17 O16 1.252 . S
C17 O18 1.252 . S
O18 Zn0 1.975 . S
O18 C17 1.252 . S
H19 C12 0.930 . S
H20 C13 0.930 . S
C21 C22 1.392 . S
C21 N25 1.328 . S
C21 H27 0.930 . S
C22 C21 1.392 . S
C22 N26 1.331 . S
C23 C24 1.391 . S
C23 N26 1.329 . S
C23 H33 0.930 . S
C24 C23 1.391 . S
C24 N25 1.334 . S
C24 H31 0.930 . S
N25 Zn9 2.119 . S
N25 C21 1.328 . S
N25 C24 1.334 . S
N26 C22 1.331 . S
N26 C23 1.329 . S
H27 C21 0.930 . S
C28 O8 1.257 . S
C28 O29 1.244 . S
O29 C28 1.244 . S
O30 C6 1.257 . S
O30 Zn9 2.019 . S
H31 C24 0.930 . S
H32 C11 0.930 . S
H33 C23 0.930 . S
Zn34 N38 2.020 . S
Zn34 O42 2.019 . S
Zn34 N44 2.119 . S
Zn34 O52 1.975 . S
C35 N36 1.334 . S
C35 N39 1.336 . S
N36 C35 1.334 . S
N36 C37 1.334 . S
C37 N36 1.334 . S
C37 N38 1.336 . S
N38 Zn34 2.020 . S
N38 C37 1.336 . S
N38 N39 1.354 . S
N39 C35 1.336 . S
N39 N38 1.354 . S
N39 Zn43 2.020 . S
C40 O41 1.244 . S
C40 O64 1.257 . S
O41 C40 1.244 . S
O42 Zn34 2.019 . S
O42 C62 1.257 . S
Zn43 N39 2.020 . S
Zn43 O50 1.975 . S
Zn43 N59 2.119 . S
Zn43 O64 2.019 . S
N44 Zn34 2.119 . S
N44 C46 1.334 . S
N44 C47 1.328 . S
C45 C46 1.391 . S
C45 N48 1.329 . S
C45 H66 0.930 . S
C46 N44 1.334 . S
C46 C45 1.391 . S
C46 H53 0.930 . S
C47 N44 1.328 . S
C47 C49 1.392 . S
C47 H54 0.930 . S
N48 C45 1.329 . S
N48 C49 1.331 . S
C49 C47 1.392 . S
C49 N48 1.331 . S
O50 Zn43 1.975 . S
O50 C51 1.252 . S
C51 O50 1.252 . S
C51 O52 1.252 . S
O52 Zn34 1.975 . S
O52 C51 1.252 . S
H53 C46 0.930 . S
H54 C47 0.930 . S
C55 C56 1.392 . S
C55 N59 1.328 . S
C55 H61 0.930 . S
C56 C55 1.392 . S
C56 N60 1.331 . S
C57 C58 1.391 . S
C57 N60 1.329 . S
C57 H67 0.930 . S
C58 C57 1.391 . S
C58 N59 1.334 . S
C58 H65 0.930 . S
N59 Zn43 2.119 . S
N59 C55 1.328 . S
N59 C58 1.334 . S
N60 C56 1.331 . S
N60 C57 1.329 . S
H61 C55 0.930 . S
C62 O42 1.257 . S
C62 O63 1.244 . S
O63 C62 1.244 . S
O64 C40 1.257 . S
O64 Zn43 2.019 . S
H65 C58 0.930 . S
H66 C45 0.930 . S
H67 C57 0.930 . S
Zn68 N72 2.020 . S
Zn68 O76 2.019 . S
Zn68 N78 2.119 . S
Zn68 O86 1.975 . S
C69 N70 1.334 . S
C69 N73 1.336 . S
N70 C69 1.334 . S
N70 C71 1.334 . S
C71 N70 1.334 . S
C71 N72 1.336 . S
N72 Zn68 2.020 . S
N72 C71 1.336 . S
N72 N73 1.354 . S
N73 C69 1.336 . S
N73 N72 1.354 . S
N73 Zn77 2.020 . S
C74 O75 1.244 . S
C74 O98 1.257 . S
O75 C74 1.244 . S
O76 Zn68 2.019 . S
O76 C96 1.257 . S
Zn77 N73 2.020 . S
Zn77 O84 1.975 . S
Zn77 N93 2.119 . S
Zn77 O98 2.019 . S
N78 Zn68 2.119 . S
N78 C80 1.334 . S
N78 C81 1.328 . S
C79 C80 1.391 . S
C79 N82 1.329 . S
C79 H100 0.930 . S
C80 N78 1.334 . S
C80 C79 1.391 . S
C80 H87 0.930 . S
C81 N78 1.328 . S
C81 C83 1.392 . S
C81 H88 0.930 . S
N82 C79 1.329 . S
N82 C83 1.331 . S
C83 C81 1.392 . S
C83 N82 1.331 . S
O84 Zn77 1.975 . S
O84 C85 1.252 . S
C85 O84 1.252 . S
C85 O86 1.252 . S
O86 Zn68 1.975 . S
O86 C85 1.252 . S
H87 C80 0.930 . S
H88 C81 0.930 . S
C89 C90 1.392 . S
C89 N93 1.328 . S
C89 H95 0.930 . S
C90 C89 1.392 . S
C90 N94 1.331 . S
C91 C92 1.391 . S
C91 N94 1.329 . S
C91 H101 0.930 . S
C92 C91 1.391 . S
C92 N93 1.334 . S
C92 H99 0.930 . S
N93 Zn77 2.119 . S
N93 C89 1.328 . S
N93 C92 1.334 . S
N94 C90 1.331 . S
N94 C91 1.329 . S
H95 C89 0.930 . S
C96 O76 1.257 . S
C96 O97 1.244 . S
O97 C96 1.244 . S
O98 C74 1.257 . S
O98 Zn77 2.019 . S
H99 C92 0.930 . S
H100 C79 0.930 . S
H101 C91 0.930 . S
Zn102 N106 2.020 . S
Zn102 O110 2.019 . S
Zn102 N112 2.119 . S
Zn102 O120 1.975 . S
C103 N104 1.334 . S
C103 N107 1.336 . S
N104 C103 1.334 . S
N104 C105 1.334 . S
C105 N104 1.334 . S
C105 N106 1.336 . S
N106 Zn102 2.020 . S
N106 C105 1.336 . S
N106 N107 1.354 . S
N107 C103 1.336 . S
N107 N106 1.354 . S
N107 Zn111 2.020 . S
C108 O109 1.244 . S
C108 O132 1.257 . S
O109 C108 1.244 . S
O110 Zn102 2.019 . S
O110 C130 1.257 . S
Zn111 N107 2.020 . S
Zn111 O118 1.975 . S
Zn111 N127 2.119 . S
Zn111 O132 2.019 . S
N112 Zn102 2.119 . S
N112 C114 1.334 . S
N112 C115 1.328 . S
C113 C114 1.391 . S
C113 N116 1.329 . S
C113 H134 0.930 . S
C114 N112 1.334 . S
C114 C113 1.391 . S
C114 H121 0.930 . S
C115 N112 1.328 . S
C115 C117 1.392 . S
C115 H122 0.930 . S
N116 C113 1.329 . S
N116 C117 1.331 . S
C117 C115 1.392 . S
C117 N116 1.331 . S
O118 Zn111 1.975 . S
O118 C119 1.252 . S
C119 O118 1.252 . S
C119 O120 1.252 . S
O120 Zn102 1.975 . S
O120 C119 1.252 . S
H121 C114 0.930 . S
H122 C115 0.930 . S
C123 C124 1.392 . S
C123 N127 1.328 . S
C123 H129 0.930 . S
C124 C123 1.392 . S
C124 N128 1.331 . S
C125 C126 1.391 . S
C125 N128 1.329 . S
C125 H135 0.930 . S
C126 C125 1.391 . S
C126 N127 1.334 . S
C126 H133 0.930 . S
N127 Zn111 2.119 . S
N127 C123 1.328 . S
N127 C126 1.334 . S
N128 C124 1.331 . S
N128 C125 1.329 . S
H129 C123 0.930 . S
C130 O110 1.257 . S
C130 O131 1.244 . S
O131 C130 1.244 . S
O132 C108 1.257 . S
O132 Zn111 2.019 . S
H133 C126 0.930 . S
H134 C113 0.930 . S
H135 C125 0.930 . S
C136 C137 1.369 . S
C136 C138 1.419 1_545 S
C136 H140 0.930 . S
C137 C136 1.369 . S
C137 C146 1.429 . S
C138 C136 1.419 1_565 S
C138 C139 1.363 1_565 S
C138 H141 0.929 . S
C139 C138 1.363 1_545 S
C139 C145 1.428 . S
H140 C136 0.930 . S
H141 C138 0.929 . S
S142 N143 1.613 . S
S142 N144 1.610 . S
N143 S142 1.613 . S
N143 C146 1.350 . S
N144 S142 1.610 . S
N144 C145 1.351 . S
C145 C139 1.428 . S
C145 N144 1.351 . S
C145 C146 1.434 . S
C146 C137 1.429 . S
C146 N143 1.350 . S
C146 C145 1.434 . S
C147 C148 1.369 . S
C147 C149 1.419 . S
C147 H151 0.930 . S
C148 C147 1.369 . S
C148 C157 1.429 . S
C149 C147 1.419 . S
C149 C150 1.363 . S
C149 H152 0.929 . S
C150 C149 1.363 . S
C150 C156 1.428 . S
H151 C147 0.930 . S
H152 C149 0.929 . S
S153 N154 1.613 . S
S153 N155 1.610 . S
N154 S153 1.613 . S
N154 C157 1.350 . S
N155 S153 1.610 . S
N155 C156 1.351 . S
C156 C150 1.428 . S
C156 N155 1.351 . S
C156 C157 1.434 . S
C157 C148 1.429 . S
C157 N154 1.350 . S
C157 C156 1.434 . S
C158 C159 1.369 . S
C158 C160 1.419 . S
C158 H162 0.930 1_565 S
C159 C158 1.369 . S
C159 C168 1.429 . S
C160 C158 1.419 . S
C160 C161 1.363 . S
C160 H163 0.929 . S
C161 C160 1.363 . S
C161 C167 1.428 . S
H162 C158 0.930 1_545 S
H163 C160 0.929 . S
S164 N165 1.613 . S
S164 N166 1.610 . S
N165 S164 1.613 . S
N165 C168 1.350 . S
N166 S164 1.610 . S
N166 C167 1.351 . S
C167 C161 1.428 . S
C167 N166 1.351 . S
C167 C168 1.434 . S
C168 C159 1.429 . S
C168 N165 1.350 . S
C168 C167 1.434 . S
C169 C170 1.369 . S
C169 C171 1.419 . S
C169 H173 0.930 . S
C170 C169 1.369 . S
C170 C179 1.429 . S
C171 C169 1.419 . S
C171 C172 1.363 . S
C171 H174 0.929 . S
C172 C171 1.363 . S
C172 C178 1.428 . S
H173 C169 0.930 . S
H174 C171 0.929 . S
S175 N176 1.613 . S
S175 N177 1.610 . S
N176 S175 1.613 . S
N176 C179 1.350 . S
N177 S175 1.610 . S
N177 C178 1.351 . S
C178 C172 1.428 . S
C178 N177 1.351 . S
C178 C179 1.434 . S
C179 C170 1.429 . S
C179 N176 1.350 . S
C179 C178 1.434 . S
C180 C181 1.369 1_655 S
C180 C182 1.419 1_545 S
C180 H184 0.930 . S
C181 C180 1.369 1_455 S
C181 C190 1.429 1_545 S
C182 C180 1.419 1_565 S
C182 C183 1.363 . S
C182 H185 0.929 . S
C183 C182 1.363 . S
C183 C189 1.422 1_655 S
H184 C180 0.930 . S
H185 C182 0.929 . S
S186 N187 1.613 . S
S186 N188 1.610 . S
N187 S186 1.613 . S
N187 C190 1.350 . S
N188 S186 1.610 . S
N188 C189 1.353 . S
C189 C183 1.422 1_455 S
C189 N188 1.353 . S
C189 C190 1.439 . S
C190 C181 1.429 1_565 S
C190 N187 1.350 . S
C190 C189 1.439 . S
C191 C192 1.369 . S
C191 C193 1.419 . S
C191 H195 0.930 . S
C192 C191 1.369 . S
C192 C201 1.429 1_455 S
C193 C191 1.419 . S
C193 C194 1.363 1_455 S
C193 H196 0.929 . S
C194 C193 1.363 1_655 S
C194 C200 1.428 . S
H195 C191 0.930 . S
H196 C193 0.929 . S
S197 N198 1.613 . S
S197 N199 1.610 . S
N198 S197 1.613 . S
N198 C201 1.350 . S
N199 S197 1.610 . S
N199 C200 1.351 . S
C200 C194 1.428 . S
C200 N199 1.351 . S
C200 C201 1.434 . S
C201 C192 1.429 1_655 S
C201 N198 1.350 . S
C201 C200 1.434 . S
C202 C203 1.369 1_445 S
C202 C204 1.419 . S
C202 H206 0.930 . S
C203 C202 1.369 1_665 S
C203 C212 1.429 1_565 S
C204 C202 1.419 . S
C204 C205 1.363 . S
C204 H207 0.929 . S
C205 C204 1.363 . S
C205 C211 1.428 1_455 S
H206 C202 0.930 . S
H207 C204 0.929 . S
S208 N209 1.615 . S
S208 N210 1.606 1_565 S
N209 S208 1.615 . S
N209 C212 1.350 1_565 S
N210 S208 1.606 1_545 S
N210 C211 1.351 . S
C211 C205 1.428 1_655 S
C211 N210 1.351 . S
C211 C212 1.434 . S
C212 C203 1.429 1_545 S
C212 N209 1.350 1_545 S
C212 C211 1.434 . S
C213 C214 1.369 1_655 S
C213 C215 1.419 . S
C213 H217 0.930 . S
C214 C213 1.369 1_455 S
C214 C223 1.429 . S
C215 C213 1.419 . S
C215 C216 1.363 . S
C215 H218 0.929 . S
C216 C215 1.363 . S
C216 C222 1.428 1_655 S
H217 C213 0.930 . S
H218 C215 0.929 . S
S219 N220 1.613 . S
S219 N221 1.610 . S
N220 S219 1.613 . S
N220 C223 1.350 . S
N221 S219 1.610 . S
N221 C222 1.351 . S
C222 C216 1.428 1_455 S
C222 N221 1.351 . S
C222 C223 1.434 . S
C223 C214 1.429 . S
C223 N220 1.350 . S
C223 C222 1.434 . S
C224 C225 1.369 . S
C224 C226 1.419 1_656 S
C224 H228 0.930 . S
C225 C224 1.369 . S
C225 C234 1.429 1_556 S
C226 C224 1.419 1_454 S
C226 C227 1.362 . S
C226 H229 0.929 1_554 S
C227 C226 1.362 . S
C227 C233 1.428 . S
H228 C224 0.930 . S
H229 C226 0.929 1_556 S
S230 N231 1.613 1_455 S
S230 N232 1.610 . S
N231 S230 1.613 1_655 S
N231 C234 1.350 . S
N232 S230 1.610 . S
N232 C233 1.351 . S
C233 C227 1.428 . S
C233 N232 1.351 . S
C233 C234 1.434 1_455 S
C234 C225 1.429 1_554 S
C234 N231 1.350 . S
C234 C233 1.434 1_655 S
C235 C236 1.369 1_545 S
C235 C237 1.419 . S
C235 H239 0.930 . S
C236 C235 1.369 1_565 S
C236 C245 1.429 1_655 S
C237 C235 1.419 . S
C237 C238 1.363 1_655 S
C237 H240 0.929 . S
C238 C237 1.363 1_455 S
C238 C244 1.428 1_545 S
H239 C235 0.930 . S
H240 C237 0.929 . S
S241 N242 1.613 . S
S241 N243 1.610 . S
N242 S241 1.613 . S
N242 C245 1.350 . S
N243 S241 1.610 . S
N243 C244 1.351 . S
C244 C238 1.428 1_565 S
C244 N243 1.351 . S
C244 C245 1.434 . S
C245 C236 1.429 1_455 S
C245 N242 1.350 . S
C245 C244 1.434 . S
C246 C247 1.369 . S
C246 C248 1.419 . S
C246 H250 0.930 . S
C247 C246 1.369 . S
C247 C256 1.429 . S
C248 C246 1.419 . S
C248 C249 1.363 . S
C248 H251 0.929 1_556 S
C249 C248 1.363 . S
C249 C255 1.428 . S
H250 C246 0.930 . S
H251 C248 0.929 1_554 S
S252 N253 1.613 . S
S252 N254 1.610 . S
N253 S252 1.613 . S
N253 C256 1.350 . S
N254 S252 1.610 . S
N254 C255 1.351 . S
C255 C249 1.428 . S
C255 N254 1.351 . S
C255 C256 1.434 . S
C256 C247 1.429 . S
C256 N253 1.350 . S
C256 C255 1.434 . S
C257 C258 1.369 . S
C257 C259 1.419 . S
C257 H261 0.930 . S
C258 C257 1.369 . S
C258 C267 1.429 . S
C259 C257 1.419 . S
C259 C260 1.363 . S
C259 H262 0.929 . S
C260 C259 1.363 . S
C260 C266 1.428 . S
H261 C257 0.930 . S
H262 C259 0.929 . S
S263 N264 1.613 . S
S263 N265 1.610 . S
N264 S263 1.613 . S
N264 C267 1.350 . S
N265 S263 1.610 . S
N265 C266 1.351 . S
C266 C260 1.428 . S
C266 N265 1.351 . S
C266 C267 1.434 . S
C267 C258 1.429 . S
C267 N264 1.350 . S
C267 C266 1.434 . S
C268 C269 1.369 . S
C268 C270 1.419 . S
C268 H272 0.930 1_554 S
C269 C268 1.369 . S
C269 C278 1.429 . S
C270 C268 1.419 . S
C270 C271 1.363 . S
C270 H273 0.929 . S
C271 C270 1.363 . S
C271 C277 1.428 . S
H272 C268 0.930 1_556 S
H273 C270 0.929 . S
S274 N275 1.613 . S
S274 N276 1.610 . S
N275 S274 1.613 . S
N275 C278 1.350 . S
N276 S274 1.610 . S
N276 C277 1.351 . S
C277 C271 1.428 . S
C277 N276 1.351 . S
C277 C278 1.434 . S
C278 C269 1.429 . S
C278 N275 1.350 . S
C278 C277 1.434 . S
C279 C280 1.369 . S
C279 C281 1.419 . S
C279 H283 0.930 . S
C280 C279 1.369 . S
C280 C289 1.429 . S
C281 C279 1.419 . S
C281 C282 1.363 . S
C281 H284 0.929 . S
C282 C281 1.363 . S
C282 C288 1.428 . S
H283 C279 0.930 . S
H284 C281 0.929 . S
S285 N286 1.613 . S
S285 N287 1.610 . S
N286 S285 1.613 . S
N286 C289 1.350 . S
N287 S285 1.610 . S
N287 C288 1.351 . S
C288 C282 1.428 . S
C288 N287 1.351 . S
C288 C289 1.434 . S
C289 C280 1.429 . S
C289 N286 1.350 . S
C289 C288 1.434 . S
C137 C17 1.630 . S
C139 C56 1.487 1_545 S
C148 C15 1.483 . S
C150 C51 1.630 . S
C159 C124 1.482 1_565 S
C161 C85 1.630 . S
C170 C90 1.482 . S
C172 C119 1.630 . S
C181 C22 1.542 . S
C183 C37 1.452 . S
C192 C1 1.451 . S
C194 C49 1.543 . S
C203 C83 1.545 . S
C205 C105 1.445 . S
C214 C117 1.545 . S
C216 C71 1.444 . S
C225 C69 1.979 . S
C227 C3 1.980 . S
C236 C35 1.976 . S
C238 C103 1.983 . S
C247 C130 1.285 . S
C249 C28 1.304 1_556 S
C258 C96 1.285 . S
C260 C40 1.305 . S
C269 C74 1.303 1_554 S
C271 C62 1.286 . S
C280 C108 1.302 . S
C282 C6 1.286 . S
