# Generated by pormake.
# Topology sra, (4)-cn, num edge types: 1
# Building blocks:
#     Node 0, Type 0, BuildingBlock: CEKHIL_clean_sbu_0, # of connection points: 4
#     Node 1, Type 0, BuildingBlock: CEKHIL_clean_sbu_0, # of connection points: 4
#     Node 2, Type 0, BuildingBlock: CEKHIL_clean_sbu_0, # of connection points: 4
#     Node 3, Type 0, BuildingBlock: CEKHIL_clean_sbu_0, # of connection points: 4
#     Node 4, Type 0, BuildingBlock: CEKHIL_clean_sbu_0, # of connection points: 4
#     Node 5, Type 0, BuildingBlock: CEKHIL_clean_sbu_0, # of connection points: 4
#     Node 6, Type 0, BuildingBlock: CEKHIL_clean_sbu_0, # of connection points: 4
#     Node 7, Type 0, BuildingBlock: CEKHIL_clean_sbu_0, # of connection points: 4
#     Edge 8, Type (0, 0), BuildingBlock: FUNLAD_clean_linker_1, # of connection points: 2
#     Edge 9, Type (0, 0), BuildingBlock: FUNLAD_clean_linker_1, # of connection points: 2
#     Edge 10, Type (0, 0), BuildingBlock: FUNLAD_clean_linker_1, # of connection points: 2
#     Edge 11, Type (0, 0), BuildingBlock: FUNLAD_clean_linker_1, # of connection points: 2
#     Edge 12, Type (0, 0), BuildingBlock: FUNLAD_clean_linker_1, # of connection points: 2
#     Edge 13, Type (0, 0), BuildingBlock: FUNLAD_clean_linker_1, # of connection points: 2
#     Edge 14, Type (0, 0), BuildingBlock: FUNLAD_clean_linker_1, # of connection points: 2
#     Edge 15, Type (0, 0), BuildingBlock: FUNLAD_clean_linker_1, # of connection points: 2
#     Edge 16, Type (0, 0), BuildingBlock: FUNLAD_clean_linker_1, # of connection points: 2
#     Edge 17, Type (0, 0), BuildingBlock: FUNLAD_clean_linker_1, # of connection points: 2
#     Edge 18, Type (0, 0), BuildingBlock: FUNLAD_clean_linker_1, # of connection points: 2
#     Edge 19, Type (0, 0), BuildingBlock: FUNLAD_clean_linker_1, # of connection points: 2
#     Edge 20, Type (0, 0), BuildingBlock: FUNLAD_clean_linker_1, # of connection points: 2
#     Edge 21, Type (0, 0), BuildingBlock: FUNLAD_clean_linker_1, # of connection points: 2
#     Edge 22, Type (0, 0), BuildingBlock: FUNLAD_clean_linker_1, # of connection points: 2
#     Edge 23, Type (0, 0), BuildingBlock: FUNLAD_clean_linker_1, # of connection points: 2
# Relax obj value: 0.033
# Max RMSD: 0.069
# Mean RMSD: 0.069
data_MOF--net-sra--node1-CEKHIL_clean_sbu_0--edge1-FUNLAD_clean_linker_1
_symmetry_space_group_name_H-M    P1
_symmetry_Int_Tables_number       1
_symmetry_cell_setting            triclinic
loop_
_symmetry_equiv_pos_as_xyz
'x, y, z'
_cell_length_a     28.013209
_cell_length_b     55.02939
_cell_length_c     32.504086
_cell_angle_alpha  90.17191
_cell_angle_beta   89.938771
_cell_angle_gamma 90.004776
loop_
_atom_site_label
_atom_site_type_symbol
_atom_site_fract_x
_atom_site_fract_y
_atom_site_fract_z
_atom_type_partial_charge
Co0 Co 0.0256 0.10713 0.15321 0.0
O1 O 0.02656 0.07245 0.14124 0.0
O2 O 0.9945 0.10022 0.10094 0.0
C3 C 0.10345 0.10969 0.17293 0.0
O4 O 0.02029 0.14445 0.15249 0.0
Co5 Co 0.04378 0.12791 0.24017 0.0
O6 O 0.04365 0.16019 0.21313 0.0
C7 C 0.95051 0.10559 0.2218 0.0
C8 C 0.00491 0.0775 0.10703 0.0
C9 C 0.02977 0.16275 0.17608 0.0
O10 O 0.96199 0.104 0.18339 0.0
O11 O 0.97969 0.11257 0.24967 0.0
O12 O 0.09181 0.10981 0.13426 0.0
O13 O 0.06854 0.10614 0.19824 0.0
Co14 Co 0.99777 0.40238 0.15237 0.0
O15 O 0.99951 0.43608 0.135 0.0
O16 O 0.01389 0.40478 0.09422 0.0
C17 C 0.92886 0.40506 0.18832 0.0
O18 O 0.99785 0.36504 0.15897 0.0
Co19 Co 1.00028 0.38883 0.24575 0.0
O20 O 0.98033 0.35644 0.22506 0.0
C21 C 0.08794 0.40559 0.20363 0.0
C22 C 0.01058 0.42823 0.09855 0.0
C23 C 0.98707 0.34988 0.18789 0.0
O24 O 0.06738 0.4042 0.16827 0.0
O25 O 0.06616 0.40221 0.2378 0.0
O26 O 0.92756 0.40208 0.1486 0.0
O27 O 0.97052 0.40827 0.20385 0.0
Co28 Co 0.02845 0.90378 0.84432 0.0
O29 O 0.03261 0.93877 0.85008 0.0
O30 O 0.00959 0.91409 0.89966 0.0
C31 C 0.09976 0.89944 0.81229 0.0
O32 O 0.02315 0.86661 0.85116 0.0
Co33 Co 0.02899 0.87864 0.75797 0.0
O34 O 0.03185 0.84801 0.78969 0.0
C35 C 0.94545 0.90674 0.7853 0.0
C36 C 0.01905 0.93617 0.88794 0.0
C37 C 0.02662 0.84727 0.82864 0.0
O38 O 0.96029 0.90656 0.82297 0.0
O39 O 0.97066 0.89945 0.7549 0.0
O40 O 0.09813 0.9013 0.85219 0.0
O41 O 0.0597 0.90193 0.79366 0.0
Co42 Co 0.01514 0.60764 0.85229 0.0
O43 O 0.01692 0.57376 0.86793 0.0
O44 O 0.0469 0.60355 0.90533 0.0
C45 C 0.9369 0.60772 0.83484 0.0
O46 O 0.01709 0.64503 0.8463 0.0
Co47 Co 0.99151 0.62112 0.76168 0.0
O48 O 0.98069 0.65367 0.78624 0.0
C49 C 0.08829 0.60375 0.78234 0.0
C50 C 0.03744 0.58046 0.90178 0.0
C51 C 0.99853 0.66025 0.82055 0.0
O52 O 0.07792 0.60415 0.82108 0.0
O53 O 0.05776 0.60797 0.75399 0.0
O54 O 0.94966 0.61015 0.87294 0.0
O55 O 0.97106 0.60309 0.80929 0.0
Co56 Co 0.53063 0.6092 0.66485 0.0
O57 O 0.53295 0.57459 0.6562 0.0
O58 O 0.50099 0.6002 0.61209 0.0
C59 C 0.60836 0.61198 0.68378 0.0
O60 O 0.52531 0.6467 0.66377 0.0
Co61 Co 0.55056 0.62931 0.75275 0.0
O62 O 0.56076 0.65991 0.72199 0.0
C63 C 0.4559 0.60839 0.73376 0.0
C64 C 0.51315 0.57793 0.62082 0.0
C65 C 0.54287 0.66384 0.68663 0.0
O66 O 0.46723 0.60635 0.69534 0.0
O67 O 0.48528 0.61526 0.76158 0.0
O68 O 0.59659 0.61182 0.64523 0.0
O69 O 0.57366 0.60855 0.70926 0.0
Co70 Co 0.51018 0.90495 0.65662 0.0
O71 O 0.50434 0.93976 0.64953 0.0
O72 O 0.53102 0.91472 0.60161 0.0
C73 C 0.43782 0.9 0.68635 0.0
O74 O 0.51781 0.86778 0.65141 0.0
Co75 Co 0.507 0.88116 0.74382 0.0
O76 O 0.50232 0.85024 0.71256 0.0
C77 C 0.59026 0.90999 0.71813 0.0
C78 C 0.51976 0.93681 0.61225 0.0
C79 C 0.51095 0.84882 0.67408 0.0
O80 O 0.57708 0.90896 0.68006 0.0
O81 O 0.56427 0.9028 0.74806 0.0
O82 O 0.44112 0.90134 0.64648 0.0
O83 O 0.47683 0.90339 0.70622 0.0
Co84 Co 0.52545 0.40599 0.35978 0.0
O85 O 0.52598 0.44037 0.3737 0.0
O86 O 0.50296 0.41116 0.41575 0.0
C87 C 0.59776 0.40562 0.32885 0.0
O88 O 0.52138 0.36861 0.35756 0.0
Co89 Co 0.5311 0.38745 0.26899 0.0
O90 O 0.54264 0.35528 0.29464 0.0
C91 C 0.44094 0.40798 0.30155 0.0
C92 C 0.50961 0.43425 0.40957 0.0
C93 C 0.53176 0.35131 0.33212 0.0
O94 O 0.4581 0.4087 0.33828 0.0
O95 O 0.46548 0.40202 0.2698 0.0
O96 O 0.59506 0.40423 0.36877 0.0
O97 O 0.55804 0.40879 0.30998 0.0
Co98 Co 0.512 0.10565 0.3457 0.0
O99 O 0.51064 0.07117 0.3589 0.0
O100 O 0.54595 0.09925 0.39675 0.0
C101 C 0.43303 0.10834 0.3294 0.0
O102 O 0.51925 0.14286 0.34437 0.0
Co103 Co 0.48729 0.12584 0.2595 0.0
O104 O 0.482 0.15756 0.28856 0.0
C105 C 0.58271 0.10412 0.27395 0.0
C106 C 0.53437 0.07654 0.39199 0.0
C107 C 0.50271 0.16071 0.32305 0.0
O108 O 0.57338 0.10175 0.31266 0.0
O109 O 0.55201 0.11153 0.24766 0.0
O110 O 0.44691 0.10914 0.3675 0.0
O111 O 0.46641 0.10432 0.30283 0.0
H112 H 0.96459 0.31258 0.20221 0.0
C113 C 0.98439 0.32335 0.17995 0.0
H114 H 0.03438 0.32171 0.13141 0.0
H115 H 0.10751 0.2207 0.20579 0.0
H116 H 0.17093 0.24795 0.22693 0.0
H117 H 0.16476 0.29208 0.21498 0.0
H118 H 0.09523 0.30923 0.18154 0.0
C119 C 0.01104 0.31156 0.15181 0.0
C120 C 0.01664 0.28448 0.15445 0.0
C121 C 0.05781 0.27457 0.17341 0.0
C122 C 0.06098 0.24911 0.18091 0.0
C123 C 0.10264 0.23991 0.20007 0.0
C124 C 0.13949 0.25533 0.21219 0.0
C125 C 0.13605 0.28017 0.2054 0.0
C126 C 0.09588 0.28977 0.18619 0.0
H127 H 0.02119 0.1902 0.12645 0.0
C128 C 0.02453 0.18783 0.15949 0.0
H129 H 0.02773 0.20498 0.21744 0.0
H130 H 0.9361 0.29699 0.11279 0.0
H131 H 0.87147 0.27003 0.09257 0.0
H132 H 0.87455 0.2263 0.10876 0.0
H133 H 0.94226 0.20913 0.14461 0.0
C134 C 0.02383 0.20752 0.18447 0.0
C135 C 0.02285 0.23337 0.16975 0.0
C136 C 0.98231 0.2432 0.14938 0.0
C137 C 0.97965 0.26868 0.14125 0.0
C138 C 0.93929 0.27792 0.12038 0.0
C139 C 0.90207 0.26266 0.10856 0.0
C140 C 0.90388 0.23801 0.11758 0.0
C141 C 0.94324 0.22834 0.13796 0.0
H142 H 0.04245 0.82117 0.879 0.0
C143 C 0.02722 0.82292 0.84845 0.0
H144 H 0.99739 0.80543 0.7971 0.0
H145 H 0.08371 0.7032 0.79401 0.0
H146 H 0.11977 0.72179 0.73404 0.0
H147 H 0.11332 0.76593 0.72237 0.0
H148 H 0.07093 0.79172 0.77053 0.0
C149 C 0.01256 0.80299 0.82759 0.0
C150 C 0.02288 0.77721 0.8398 0.0
C151 C 0.04891 0.76231 0.81185 0.0
C152 C 0.05257 0.7368 0.81846 0.0
C153 C 0.07879 0.72255 0.78994 0.0
C154 C 0.10004 0.73301 0.75555 0.0
C155 C 0.09642 0.75785 0.749 0.0
C156 C 0.07157 0.77242 0.7768 0.0
H157 H 0.97887 0.69775 0.80601 0.0
C158 C 0.99908 0.68688 0.82784 0.0
H159 H 0.04744 0.68886 0.87784 0.0
H160 H 0.9712 0.79982 0.90065 0.0
H161 H 0.93956 0.78125 0.96239 0.0
H162 H 0.9496 0.73738 0.9751 0.0
H163 H 0.99101 0.71168 0.92563 0.0
C164 C 0.02629 0.69874 0.85546 0.0
C165 C 0.03015 0.72595 0.85299 0.0
C166 C 0.00772 0.741 0.88274 0.0
C167 C 0.00324 0.76657 0.87589 0.0
C168 C 0.97746 0.78063 0.90486 0.0
C169 C 0.95871 0.77013 0.94034 0.0
C170 C 0.96425 0.7454 0.94747 0.0
C171 C 0.98805 0.73087 0.9189 0.0
H172 H 0.56563 0.70179 0.69128 0.0
C173 C 0.54221 0.68972 0.67402 0.0
H174 H 0.48468 0.6886 0.63223 0.0
H175 H 0.42214 0.7945 0.69287 0.0
H176 H 0.35386 0.76981 0.71183 0.0
H177 H 0.35465 0.72541 0.701 0.0
H178 H 0.42346 0.70546 0.6708 0.0
C179 C 0.51095 0.69985 0.6478 0.0
C180 C 0.50671 0.7271 0.64636 0.0
C181 C 0.46584 0.73861 0.66329 0.0
C182 C 0.46575 0.76422 0.67028 0.0
C183 C 0.42452 0.7751 0.68767 0.0
C184 C 0.38499 0.76116 0.69851 0.0
C185 C 0.38541 0.73617 0.69235 0.0
C186 C 0.42522 0.72494 0.67499 0.0
H187 H 0.51478 0.82278 0.62149 0.0
C188 C 0.51238 0.8242 0.65477 0.0
H189 H 0.50623 0.80538 0.71093 0.0
H190 H 0.58582 0.71182 0.60497 0.0
H191 H 0.6545 0.73637 0.58598 0.0
H192 H 0.65689 0.78017 0.6022 0.0
H193 H 0.59059 0.79981 0.63668 0.0
C194 C 0.50985 0.80377 0.67774 0.0
C195 C 0.50664 0.77843 0.66077 0.0
C196 C 0.54622 0.76716 0.64109 0.0
C197 C 0.54575 0.74161 0.63319 0.0
C198 C 0.58517 0.73095 0.61277 0.0
C199 C 0.62462 0.74484 0.60155 0.0
C200 C 0.62589 0.76953 0.61058 0.0
C201 C 0.58739 0.78062 0.63027 0.0
H202 H 0.49951 0.32186 0.3695 0.0
C203 C 0.52481 0.32561 0.34497 0.0
H204 H 0.57009 0.31125 0.29948 0.0
H205 H 0.50082 0.21187 0.40434 0.0
H206 H 0.53167 0.23109 0.46601 0.0
H207 H 0.56379 0.2728 0.46397 0.0
H208 H 0.56379 0.29585 0.40054 0.0
C209 C 0.54488 0.30704 0.32389 0.0
C210 C 0.52785 0.28117 0.32623 0.0
C211 C 0.53076 0.26737 0.36303 0.0
C212 C 0.51529 0.24258 0.36356 0.0
C213 C 0.51477 0.23009 0.40155 0.0
C214 C 0.53196 0.24101 0.43731 0.0
C215 C 0.54983 0.26455 0.4362 0.0
C216 C 0.54932 0.27765 0.39961 0.0
H217 H 0.54722 0.18951 0.35145 0.0
C218 C 0.51352 0.18604 0.336 0.0
H219 H 0.4512 0.20068 0.31047 0.0
H220 H 0.51236 0.30256 0.25126 0.0
H221 H 0.48682 0.28266 0.18871 0.0
H222 H 0.46936 0.23876 0.18765 0.0
H223 H 0.47634 0.21467 0.24924 0.0
C224 C 0.48495 0.20477 0.32546 0.0
C225 C 0.50031 0.23097 0.32659 0.0
C226 C 0.49825 0.24473 0.28966 0.0
C227 C 0.51069 0.26985 0.28977 0.0
C228 C 0.50539 0.28326 0.25282 0.0
C229 C 0.49041 0.2721 0.21659 0.0
C230 C 0.48041 0.24743 0.21604 0.0
C231 C 0.48427 0.23383 0.25191 0.0
H232 H 0.35588 0.11354 0.34186 0.0
C233 C 0.38217 0.11134 0.31754 0.0
H234 H 0.39379 0.10756 0.25376 0.0
H235 H 0.19132 0.06748 0.20574 0.0
H236 H 0.24082 0.03182 0.1963 0.0
H237 H 0.32495 0.03175 0.21851 0.0
H238 H 0.36007 0.06731 0.2505 0.0
C239 C 0.36765 0.11055 0.27798 0.0
C240 C 0.31596 0.11079 0.26579 0.0
C241 C 0.29585 0.08994 0.2466 0.0
C242 C 0.24726 0.09003 0.23344 0.0
C243 C 0.22812 0.06865 0.21554 0.0
C244 C 0.25609 0.04796 0.21012 0.0
C245 C 0.30345 0.04792 0.22264 0.0
C246 C 0.32322 0.06854 0.24082 0.0
H247 H 0.18128 0.11285 0.16269 0.0
C248 C 0.15394 0.11171 0.18636 0.0
H249 H 0.14024 0.1105 0.25025 0.0
H250 H 0.34349 0.15465 0.29796 0.0
H251 H 0.29373 0.19024 0.30756 0.0
H252 H 0.20922 0.19 0.28635 0.0
H253 H 0.17397 0.15416 0.25503 0.0
C254 C 0.16719 0.11103 0.22621 0.0
C255 C 0.21864 0.11108 0.23899 0.0
C256 C 0.23862 0.13189 0.25829 0.0
C257 C 0.28733 0.13187 0.27126 0.0
C258 C 0.30654 0.15336 0.28866 0.0
C259 C 0.27842 0.174 0.2941 0.0
C260 C 0.23084 0.17388 0.28211 0.0
C261 C 0.21102 0.15316 0.26428 0.0
H262 H 0.63822 0.40398 0.27141 0.0
C263 C 0.64206 0.40352 0.3047 0.0
H264 H 0.69137 0.40162 0.35379 0.0
H265 H 0.84745 0.35683 0.23012 0.0
H266 H 0.83124 0.32208 0.27379 0.0
H267 H 0.76775 0.32375 0.3264 0.0
H268 H 0.72013 0.36023 0.33579 0.0
C269 C 0.68606 0.40257 0.32074 0.0
C270 C 0.72823 0.40256 0.29256 0.0
C271 C 0.75616 0.38126 0.28787 0.0
C272 C 0.79295 0.38034 0.25762 0.0
C273 C 0.81958 0.35863 0.253 0.0
C274 C 0.81049 0.33852 0.27773 0.0
C275 C 0.7747 0.33945 0.30733 0.0
C276 C 0.74764 0.36049 0.3124 0.0
H277 H 0.8934 0.40493 0.24848 0.0
C278 C 0.88699 0.40334 0.21558 0.0
H279 H 0.83433 0.39975 0.16948 0.0
H280 H 0.68622 0.44746 0.29743 0.0
H281 H 0.70256 0.48218 0.25387 0.0
H282 H 0.76412 0.48 0.19965 0.0
H283 H 0.80999 0.44311 0.18892 0.0
C284 C 0.84213 0.4005 0.20219 0.0
C285 C 0.80194 0.40079 0.23229 0.0
C286 C 0.77451 0.42222 0.23739 0.0
C287 C 0.73823 0.42327 0.268 0.0
C288 C 0.713 0.44534 0.27369 0.0
C289 C 0.72231 0.46549 0.24913 0.0
C290 C 0.75703 0.46428 0.21867 0.0
C291 C 0.78308 0.44299 0.21283 0.0
H292 H 0.13962 0.89458 0.75489 0.0
C293 C 0.14367 0.89583 0.78811 0.0
H294 H 0.19327 0.89713 0.83709 0.0
H295 H 0.34927 0.84994 0.71409 0.0
H296 H 0.32925 0.81435 0.75457 0.0
H297 H 0.26371 0.81567 0.80533 0.0
H298 H 0.21769 0.85261 0.81588 0.0
C299 C 0.18775 0.89603 0.80407 0.0
C300 C 0.22989 0.89578 0.77598 0.0
C301 C 0.25692 0.87424 0.77069 0.0
C302 C 0.29515 0.87358 0.74179 0.0
C303 C 0.32066 0.8516 0.73631 0.0
C304 C 0.30933 0.831 0.75915 0.0
C305 C 0.27237 0.83173 0.78768 0.0
C306 C 0.24625 0.85303 0.79344 0.0
H307 H 0.39622 0.89347 0.74229 0.0
C308 C 0.39333 0.89527 0.70907 0.0
H309 H 0.34587 0.89814 0.65897 0.0
H310 H 0.18743 0.94057 0.78055 0.0
H311 H 0.20718 0.97604 0.73992 0.0
H312 H 0.27246 0.9747 0.68898 0.0
H313 H 0.31846 0.93789 0.67845 0.0
C314 C 0.34993 0.89506 0.69179 0.0
C315 C 0.30672 0.89462 0.71865 0.0
C316 C 0.2794 0.91611 0.72371 0.0
C317 C 0.24135 0.91679 0.75271 0.0
C318 C 0.21591 0.93882 0.75824 0.0
C319 C 0.22708 0.95939 0.73531 0.0
C320 C 0.26387 0.95864 0.70668 0.0
C321 C 0.28997 0.93736 0.70093 0.0
H322 H 0.68575 0.61601 0.67317 0.0
C323 C 0.65856 0.61451 0.69691 0.0
H324 H 0.64477 0.61135 0.76046 0.0
H325 H 0.84506 0.56586 0.80391 0.0
H326 H 0.79187 0.53185 0.81567 0.0
H327 H 0.7067 0.53437 0.79701 0.0
H328 H 0.67423 0.57089 0.76642 0.0
C329 C 0.67165 0.61373 0.73666 0.0
C330 C 0.72297 0.61281 0.74898 0.0
C331 C 0.74131 0.5914 0.7674 0.0
C332 C 0.79041 0.58998 0.77841 0.0
C333 C 0.80794 0.56812 0.79566 0.0
C334 C 0.77784 0.54838 0.80239 0.0
C335 C 0.7299 0.5498 0.79187 0.0
C336 C 0.7117 0.57095 0.77442 0.0
H337 H 0.85986 0.61249 0.84626 0.0
C338 C 0.8865 0.61001 0.82228 0.0
H339 H 0.89876 0.60685 0.75831 0.0
H340 H 0.69872 0.65749 0.7184 0.0
H341 H 0.75214 0.69144 0.70656 0.0
H342 H 0.83766 0.6885 0.72389 0.0
H343 H 0.87024 0.65161 0.7535 0.0
C344 C 0.87256 0.60862 0.78281 0.0
C345 C 0.8211 0.61006 0.77138 0.0
C346 C 0.80279 0.63148 0.75315 0.0
C347 C 0.75359 0.63299 0.74239 0.0
C348 C 0.73599 0.65504 0.72594 0.0
C349 C 0.76622 0.67475 0.71927 0.0
C350 C 0.81436 0.67311 0.72909 0.0
C351 C 0.83261 0.65182 0.74598 0.0
H352 H 0.64126 0.92812 0.75895 0.0
C353 C 0.63814 0.91867 0.72963 0.0
H354 H 0.67533 0.89846 0.68487 0.0
H355 H 0.8477 0.95857 0.7859 0.0
H356 H 0.81767 0.99473 0.75187 0.0
H357 H 0.74493 0.99296 0.70921 0.0
H358 H 0.70154 0.95507 0.7005 0.0
C359 C 0.67793 0.91021 0.71171 0.0
C360 C 0.724 0.91123 0.7347 0.0
C361 C 0.74929 0.93341 0.739 0.0
C362 C 0.79198 0.93429 0.76273 0.0
C363 C 0.81588 0.95679 0.76728 0.0
C364 C 0.79886 0.97769 0.74814 0.0
C365 C 0.75783 0.9767 0.7242 0.0
C366 C 0.73317 0.95487 0.71958 0.0
H367 H 0.89012 0.91827 0.74226 0.0
C368 C 0.89657 0.91432 0.77458 0.0
H369 H 0.86363 0.90673 0.83143 0.0
H370 H 0.68285 0.86605 0.73475 0.0
H371 H 0.71294 0.83002 0.76862 0.0
H372 H 0.78778 0.83134 0.80845 0.0
H373 H 0.83277 0.86874 0.81496 0.0
C374 C 0.85885 0.9125 0.79977 0.0
C375 C 0.80995 0.91287 0.7814 0.0
C376 C 0.7839 0.89085 0.77804 0.0
C377 C 0.74102 0.89002 0.75461 0.0
C378 C 0.71582 0.86773 0.75181 0.0
C379 C 0.73267 0.84688 0.77114 0.0
C380 C 0.77479 0.84763 0.79358 0.0
C381 C 0.80029 0.86926 0.79704 0.0
H382 H 0.39983 0.60476 0.78075 0.0
C383 C 0.40622 0.60418 0.74774 0.0
H384 H 0.37319 0.60149 0.6894 0.0
H385 H 0.1845 0.55534 0.7694 0.0
H386 H 0.21773 0.51992 0.73518 0.0
H387 H 0.29727 0.52157 0.70265 0.0
H388 H 0.34424 0.55865 0.70427 0.0
C389 C 0.36837 0.60223 0.72254 0.0
C390 C 0.31873 0.60176 0.73977 0.0
C391 C 0.29127 0.58014 0.738 0.0
C392 C 0.24498 0.5793 0.7563 0.0
C393 C 0.21922 0.55718 0.75516 0.0
C394 C 0.23802 0.53667 0.73585 0.0
C395 C 0.28285 0.53758 0.71758 0.0
C396 C 0.3094 0.55897 0.71869 0.0
H397 H 0.1439 0.59766 0.73548 0.0
C398 C 0.13803 0.59949 0.76844 0.0
H399 H 0.17165 0.60331 0.82615 0.0
H400 H 0.35894 0.64709 0.74446 0.0
H401 H 0.3254 0.6826 0.77783 0.0
H402 H 0.24621 0.68089 0.81093 0.0
H403 H 0.19994 0.64369 0.81058 0.0
C404 C 0.17625 0.60005 0.7934 0.0
C405 C 0.22575 0.60024 0.77586 0.0
C406 C 0.25306 0.62195 0.77729 0.0
C407 C 0.29921 0.62282 0.75882 0.0
C408 C 0.32449 0.64512 0.75911 0.0
C409 C 0.30547 0.66574 0.77789 0.0
C410 C 0.26086 0.66479 0.79646 0.0
C411 C 0.23472 0.64326 0.79611 0.0
H412 H 0.63616 0.09975 0.22469 0.0
C413 C 0.63163 0.09973 0.25793 0.0
H414 H 0.66775 0.0987 0.31496 0.0
H415 H 0.85924 0.05466 0.23911 0.0
H416 H 0.82931 0.01988 0.27695 0.0
H417 H 0.7493 0.02068 0.30868 0.0
H418 H 0.69856 0.05625 0.30272 0.0
C419 C 0.67096 0.09875 0.28165 0.0
C420 C 0.72 0.09851 0.26294 0.0
C421 C 0.74962 0.07774 0.26706 0.0
C422 C 0.79613 0.07738 0.24906 0.0
C423 C 0.82418 0.05611 0.25287 0.0
C424 C 0.80731 0.03597 0.2743 0.0
C425 C 0.76223 0.03641 0.29214 0.0
C426 C 0.7335 0.05696 0.28855 0.0
H427 H 0.89464 0.10024 0.26867 0.0
C428 C 0.901 0.10045 0.23565 0.0
H429 H 0.86815 0.09997 0.17726 0.0
H430 H 0.67559 0.14255 0.25304 0.0
H431 H 0.70549 0.17714 0.21515 0.0
H432 H 0.78467 0.17591 0.182 0.0
H433 H 0.83462 0.1401 0.1869 0.0
C434 C 0.86326 0.09838 0.21031 0.0
C435 C 0.81341 0.0979 0.22725 0.0
C436 C 0.78375 0.11865 0.22299 0.0
C437 C 0.73747 0.11913 0.24134 0.0
C438 C 0.7101 0.14072 0.23847 0.0
C439 C 0.72704 0.16085 0.2171 0.0
C440 C 0.77165 0.16018 0.1985 0.0
C441 C 0.79992 0.13945 0.20149 0.0
H442 H 0.1598 0.41038 0.17626 0.0
C443 C 0.13989 0.41003 0.20495 0.0
H444 H 0.14374 0.41114 0.26993 0.0
H445 H 0.3506 0.36781 0.27944 0.0
H446 H 0.30377 0.33197 0.29493 0.0
H447 H 0.21617 0.33226 0.2872 0.0
H448 H 0.17498 0.36839 0.26375 0.0
C449 C 0.16309 0.41214 0.241 0.0
C450 C 0.21591 0.412 0.24346 0.0
C451 C 0.2393 0.39084 0.25789 0.0
C452 C 0.28966 0.39075 0.26273 0.0
C453 C 0.31229 0.36911 0.276 0.0
C454 C 0.28586 0.34833 0.28482 0.0
C455 C 0.23656 0.34849 0.28046 0.0
C456 C 0.21336 0.3694 0.26709 0.0
H457 H 0.36725 0.41459 0.32333 0.0
C458 C 0.38942 0.41244 0.29609 0.0
H459 H 0.39046 0.41013 0.23098 0.0
H460 H 0.18186 0.45555 0.21546 0.0
H461 H 0.22893 0.49123 0.19865 0.0
H462 H 0.31652 0.49099 0.20668 0.0
H463 H 0.35758 0.45508 0.23177 0.0
C464 C 0.36896 0.41183 0.25868 0.0
C465 C 0.31636 0.41198 0.25373 0.0
C466 C 0.29311 0.43296 0.23848 0.0
C467 C 0.24269 0.43302 0.23352 0.0
C468 C 0.22014 0.45442 0.21927 0.0
C469 C 0.24673 0.47504 0.20962 0.0
C470 C 0.29605 0.47491 0.21416 0.0
C471 C 0.31917 0.45419 0.22851 0.0
H472 H 0.96052 0.06068 0.05822 0.0
C473 C 0.99284 0.05842 0.07623 0.0
H474 H 0.0544 0.03773 0.08699 0.0
H475 H 0.01392 0.9352 0.01782 0.0
H476 H 0.03013 0.92759 0.08959 0.0
H477 H 0.03561 0.96135 0.13935 0.0
H478 H 0.02597 1.00299 0.11743 0.0
C479 C 0.02196 0.03931 0.06887 0.0
C480 C 0.01134 0.01905 0.03871 0.0
C481 C 0.01457 0.99451 0.05217 0.0
C482 C 0.00921 0.97487 0.02366 0.0
C483 C 0.01587 0.9508 0.03801 0.0
C484 C 0.02544 0.94612 0.07925 0.0
C485 C 0.02868 0.96512 0.10723 0.0
C486 C 0.02334 0.98902 0.09409 0.0
H487 H 0.04098 0.97282 0.90771 0.0
C488 C 0.01901 0.95739 0.91641 0.0
H489 H 0.97194 0.94297 0.96031 0.0
H490 H 0.01184 0.06307 0.99877 0.0
H491 H 0.98591 0.07071 0.92909 0.0
H492 H 0.96038 0.03703 0.884 0.0
H493 H 0.96309 0.99538 0.9078 0.0
C494 C 0.99386 0.95845 0.95182 0.0
C495 C 0.99794 0.97946 0.98175 0.0
C496 C 0.99126 1.00396 0.96895 0.0
C497 C 1.0009 0.02366 0.99657 0.0
C498 C 1.00068 0.0476 0.98071 0.0
C499 C 0.98649 0.05224 0.94044 0.0
C500 C 0.97249 0.03327 0.91494 0.0
C501 C 0.97479 0.00939 0.92886 0.0
H502 H 0.0586 0.56978 0.96519 0.0
C503 C 0.04497 0.56297 0.93608 0.0
H504 H 0.01587 0.53308 0.90409 0.0
H505 H 0.1075 0.47308 0.06251 0.0
H506 H 0.18509 0.4872 0.03925 0.0
H507 H 0.19178 0.51699 0.98298 0.0
H508 H 0.12101 0.53312 0.94987 0.0
C509 C 0.03113 0.53949 0.93288 0.0
C510 C 0.02825 0.52235 0.9687 0.0
C511 C 0.06999 0.51283 0.98747 0.0
C512 C 0.06617 0.49517 0.0195 0.0
C513 C 0.10842 0.4863 0.03794 0.0
C514 C 0.15314 0.49424 0.02486 0.0
C515 C 0.1569 0.51104 0.99319 0.0
C516 C 0.11597 0.52023 0.97453 0.0
H517 H 0.02622 0.43742 0.03341 0.0
C518 C 0.01869 0.44513 0.06354 0.0
H519 H 0.00786 0.47735 0.09781 0.0
H520 H 0.94074 0.5368 0.94037 0.0
H521 H 0.86359 0.52196 0.96276 0.0
H522 H 0.85733 0.49094 0.01711 0.0
H523 H 0.9283 0.47453 0.04943 0.0
C524 C 0.01614 0.4695 0.06794 0.0
C525 C 0.02072 0.4867 0.03243 0.0
C526 C 0.97906 0.49611 0.01354 0.0
C527 C 0.98278 0.51388 0.98181 0.0
C528 C 0.94025 0.52304 0.96406 0.0
C529 C 0.89564 0.51475 0.97676 0.0
C530 C 0.89211 0.49731 0.00739 0.0
C531 C 0.93316 0.48808 0.02572 0.0
H532 H 0.46742 0.44856 0.46188 0.0
C533 C 0.49669 0.45272 0.44114 0.0
H534 H 0.54945 0.47764 0.42358 0.0
H535 H 0.48627 0.5779 0.48931 0.0
H536 H 0.49433 0.58455 0.41619 0.0
H537 H 0.50522 0.55014 0.3684 0.0
H538 H 0.50931 0.5089 0.39354 0.0
C539 C 0.52014 0.47408 0.44467 0.0
C540 C 0.50631 0.49423 0.47407 0.0
C541 C 0.50123 0.51833 0.45881 0.0
C542 C 0.49274 0.53821 0.48631 0.0
C543 C 0.49122 0.56206 0.47005 0.0
C544 C 0.4959 0.56619 0.428 0.0
C545 C 0.50217 0.54683 0.40111 0.0
C546 C 0.50478 0.5232 0.4161 0.0
H547 H 0.53697 0.54273 0.59722 0.0
C548 C 0.51182 0.55734 0.59124 0.0
H549 H 0.45744 0.56984 0.55219 0.0
H550 H 0.52285 0.45198 0.51711 0.0
H551 H 0.50344 0.44452 0.58845 0.0
H552 H 0.47087 0.47721 0.63233 0.0
H553 H 0.4603 0.51794 0.60548 0.0
C554 C 0.48258 0.55532 0.55854 0.0
C555 C 0.48653 0.53404 0.5291 0.0
C556 C 0.48698 0.50967 0.5437 0.0
C557 C 0.50024 0.49011 0.517 0.0
C558 C 0.50815 0.46693 0.53455 0.0
C559 C 0.49787 0.46247 0.57578 0.0
C560 C 0.47993 0.48091 0.60058 0.0
C561 C 0.47455 0.50426 0.58491 0.0
H562 H 0.49471 0.97223 0.58958 0.0
C563 C 0.51958 0.95757 0.58305 0.0
H564 H 0.57317 0.94454 0.54357 0.0
H565 H 0.52824 1.00133 0.38129 0.0
H566 H 0.52887 0.9593 0.35935 0.0
H567 H 0.53472 0.92615 0.40992 0.0
H568 H 0.54096 0.9348 0.4826 0.0
C569 C 0.54821 0.95921 0.54974 0.0
C570 C 0.54455 0.9798 0.5191 0.0
C571 C 0.53917 0.97449 0.4765 0.0
C572 C 0.53371 0.99368 0.4473 0.0
C573 C 0.53075 0.98762 0.40495 0.0
C574 C 0.53134 0.96352 0.39183 0.0
C575 C 0.53477 0.94487 0.42029 0.0
C576 C 0.53857 0.95015 0.46207 0.0
H577 H 0.57759 0.06133 0.44291 0.0
C578 C 0.54694 0.05792 0.42329 0.0
H579 H 0.48933 0.03488 0.40952 0.0
H580 H 0.56832 0.99764 0.59523 0.0
H581 H 0.56154 0.0394 0.61827 0.0
H582 H 0.53606 0.07161 0.5705 0.0
H583 H 0.51967 0.06248 0.49911 0.0
C584 C 0.52004 0.03784 0.42934 0.0
C585 C 0.53114 0.01832 0.46049 0.0
C586 C 0.53615 0.02363 0.50317 0.0
C587 C 0.54578 1.00458 0.53187 0.0
C588 C 0.55675 0.01096 0.57302 0.0
C589 C 0.55362 0.03494 0.58654 0.0
C590 C 0.53965 0.0531 0.55957 0.0
C591 C 0.53092 0.04762 0.51841 0.0
loop_
_geom_bond_atom_site_label_1
_geom_bond_atom_site_label_2
_geom_bond_distance
_geom_bond_site_symmetry_2
_ccdc_geom_bond_type
Co0 O1 2.216 . S
Co0 O2 2.091 . S
Co0 O4 2.004 . S
Co0 O10 2.021 1_455 S
Co0 O12 2.137 . S
Co0 O13 2.244 . S
O1 Co0 2.216 . S
O1 C8 1.247 . S
O2 Co0 2.091 . S
O2 C8 1.261 . S
C3 O12 1.247 . S
C3 O13 1.272 . S
O4 Co0 2.004 . S
O4 C9 1.259 . S
Co5 O6 2.061 . S
Co5 O11 2.052 1_455 S
Co5 O13 2.135 . S
O6 Co5 2.061 . S
O6 C9 1.235 . S
C7 O10 1.238 . S
C7 O11 1.241 . S
C8 O1 1.247 . S
C8 O2 1.261 . S
C9 O4 1.259 . S
C9 O6 1.235 . S
O10 Co0 2.021 1_655 S
O10 C7 1.238 . S
O11 Co5 2.052 1_655 S
O11 C7 1.241 . S
O12 Co0 2.137 . S
O12 C3 1.247 . S
O13 Co0 2.244 . S
O13 C3 1.272 . S
O13 Co5 2.135 . S
Co14 O15 2.216 . S
Co14 O16 2.091 . S
Co14 O18 2.004 . S
Co14 O24 2.021 . S
Co14 O26 2.137 1_455 S
Co14 O27 2.244 1_455 S
O15 Co14 2.216 . S
O15 C22 1.247 . S
O16 Co14 2.091 . S
O16 C22 1.261 . S
C17 O26 1.247 . S
C17 O27 1.272 . S
O18 Co14 2.004 . S
O18 C23 1.259 . S
Co19 O20 2.061 . S
Co19 O25 2.052 . S
Co19 O27 2.135 1_455 S
O20 Co19 2.061 . S
O20 C23 1.235 . S
C21 O24 1.238 . S
C21 O25 1.241 . S
C22 O15 1.247 . S
C22 O16 1.261 . S
C23 O18 1.259 . S
C23 O20 1.235 . S
O24 Co14 2.021 . S
O24 C21 1.238 . S
O25 Co19 2.052 . S
O25 C21 1.241 . S
O26 Co14 2.137 1_655 S
O26 C17 1.247 . S
O27 Co14 2.244 1_655 S
O27 C17 1.272 . S
O27 Co19 2.135 1_655 S
Co28 O29 2.216 . S
Co28 O30 2.091 . S
Co28 O32 2.004 . S
Co28 O38 2.021 1_455 S
Co28 O40 2.137 . S
Co28 O41 2.244 . S
O29 Co28 2.216 . S
O29 C36 1.247 . S
O30 Co28 2.091 . S
O30 C36 1.261 . S
C31 O40 1.247 . S
C31 O41 1.272 . S
O32 Co28 2.004 . S
O32 C37 1.259 . S
Co33 O34 2.061 . S
Co33 O39 2.052 1_455 S
Co33 O41 2.135 . S
O34 Co33 2.061 . S
O34 C37 1.235 . S
C35 O38 1.238 . S
C35 O39 1.241 . S
C36 O29 1.247 . S
C36 O30 1.261 . S
C37 O32 1.259 . S
C37 O34 1.235 . S
O38 Co28 2.021 1_655 S
O38 C35 1.238 . S
O39 Co33 2.052 1_655 S
O39 C35 1.241 . S
O40 Co28 2.137 . S
O40 C31 1.247 . S
O41 Co28 2.244 . S
O41 C31 1.272 . S
O41 Co33 2.135 . S
Co42 O43 2.216 . S
Co42 O44 2.091 . S
Co42 O46 2.004 . S
Co42 O52 2.021 . S
Co42 O54 2.137 1_455 S
Co42 O55 2.244 1_455 S
O43 Co42 2.216 . S
O43 C50 1.247 . S
O44 Co42 2.091 . S
O44 C50 1.261 . S
C45 O54 1.247 . S
C45 O55 1.272 . S
O46 Co42 2.004 . S
O46 C51 1.259 . S
Co47 O48 2.061 . S
Co47 O53 2.052 . S
Co47 O55 2.135 1_455 S
O48 Co47 2.061 . S
O48 C51 1.235 . S
C49 O52 1.238 . S
C49 O53 1.241 . S
C50 O43 1.247 . S
C50 O44 1.261 . S
C51 O46 1.259 . S
C51 O48 1.235 . S
O52 Co42 2.021 . S
O52 C49 1.238 . S
O53 Co47 2.052 . S
O53 C49 1.241 . S
O54 Co42 2.137 1_655 S
O54 C45 1.247 . S
O55 Co42 2.244 1_655 S
O55 C45 1.272 . S
O55 Co47 2.135 1_655 S
Co56 O57 2.216 . S
Co56 O58 2.091 . S
Co56 O60 2.004 . S
Co56 O66 2.021 . S
Co56 O68 2.137 . S
Co56 O69 2.244 . S
O57 Co56 2.216 . S
O57 C64 1.247 . S
O58 Co56 2.091 . S
O58 C64 1.261 . S
C59 O68 1.247 . S
C59 O69 1.272 . S
O60 Co56 2.004 . S
O60 C65 1.259 . S
Co61 O62 2.061 . S
Co61 O67 2.052 . S
Co61 O69 2.135 . S
O62 Co61 2.061 . S
O62 C65 1.235 . S
C63 O66 1.238 . S
C63 O67 1.241 . S
C64 O57 1.247 . S
C64 O58 1.261 . S
C65 O60 1.259 . S
C65 O62 1.235 . S
O66 Co56 2.021 . S
O66 C63 1.238 . S
O67 Co61 2.052 . S
O67 C63 1.241 . S
O68 Co56 2.137 . S
O68 C59 1.247 . S
O69 Co56 2.244 . S
O69 C59 1.272 . S
O69 Co61 2.135 . S
Co70 O71 2.216 . S
Co70 O72 2.091 . S
Co70 O74 2.004 . S
Co70 O80 2.021 . S
Co70 O82 2.137 . S
Co70 O83 2.244 . S
O71 Co70 2.216 . S
O71 C78 1.247 . S
O72 Co70 2.091 . S
O72 C78 1.261 . S
C73 O82 1.247 . S
C73 O83 1.272 . S
O74 Co70 2.004 . S
O74 C79 1.259 . S
Co75 O76 2.061 . S
Co75 O81 2.052 . S
Co75 O83 2.135 . S
O76 Co75 2.061 . S
O76 C79 1.235 . S
C77 O80 1.238 . S
C77 O81 1.241 . S
C78 O71 1.247 . S
C78 O72 1.261 . S
C79 O74 1.259 . S
C79 O76 1.235 . S
O80 Co70 2.021 . S
O80 C77 1.238 . S
O81 Co75 2.052 . S
O81 C77 1.241 . S
O82 Co70 2.137 . S
O82 C73 1.247 . S
O83 Co70 2.244 . S
O83 C73 1.272 . S
O83 Co75 2.135 . S
Co84 O85 2.216 . S
Co84 O86 2.091 . S
Co84 O88 2.004 . S
Co84 O94 2.021 . S
Co84 O96 2.137 . S
Co84 O97 2.244 . S
O85 Co84 2.216 . S
O85 C92 1.247 . S
O86 Co84 2.091 . S
O86 C92 1.261 . S
C87 O96 1.247 . S
C87 O97 1.272 . S
O88 Co84 2.004 . S
O88 C93 1.259 . S
Co89 O90 2.061 . S
Co89 O95 2.052 . S
Co89 O97 2.135 . S
O90 Co89 2.061 . S
O90 C93 1.235 . S
C91 O94 1.238 . S
C91 O95 1.241 . S
C92 O85 1.247 . S
C92 O86 1.261 . S
C93 O88 1.259 . S
C93 O90 1.235 . S
O94 Co84 2.021 . S
O94 C91 1.238 . S
O95 Co89 2.052 . S
O95 C91 1.241 . S
O96 Co84 2.137 . S
O96 C87 1.247 . S
O97 Co84 2.244 . S
O97 C87 1.272 . S
O97 Co89 2.135 . S
Co98 O99 2.216 . S
Co98 O100 2.091 . S
Co98 O102 2.004 . S
Co98 O108 2.021 . S
Co98 O110 2.137 . S
Co98 O111 2.244 . S
O99 Co98 2.216 . S
O99 C106 1.247 . S
O100 Co98 2.091 . S
O100 C106 1.261 . S
C101 O110 1.247 . S
C101 O111 1.272 . S
O102 Co98 2.004 . S
O102 C107 1.259 . S
Co103 O104 2.061 . S
Co103 O109 2.052 . S
Co103 O111 2.135 . S
O104 Co103 2.061 . S
O104 C107 1.235 . S
C105 O108 1.238 . S
C105 O109 1.241 . S
C106 O99 1.247 . S
C106 O100 1.261 . S
C107 O102 1.259 . S
C107 O104 1.235 . S
O108 Co98 2.021 . S
O108 C105 1.238 . S
O109 Co103 2.052 . S
O109 C105 1.241 . S
O110 Co98 2.137 . S
O110 C101 1.247 . S
O111 Co98 2.244 . S
O111 C101 1.272 . S
O111 Co103 2.135 . S
H112 C113 0.951 1_655 S
C113 H112 0.951 1_455 S
C113 C119 1.265 . S
H114 C119 0.950 . S
H115 C123 0.949 . S
H116 C124 0.950 . S
H117 C125 0.951 . S
H118 C126 0.951 . S
C119 C113 1.265 . S
C119 H114 0.950 . S
C119 C120 1.478 . S
C120 C119 1.478 . S
C120 C121 1.397 . S
C120 C137 1.394 . S
C121 C120 1.397 . S
C121 C122 1.438 . S
C121 C126 1.429 . S
C122 C121 1.438 . S
C122 C123 1.428 . S
C122 C135 1.394 . S
C123 H115 0.949 . S
C123 C122 1.428 . S
C123 C124 1.345 . S
C124 H116 0.950 . S
C124 C123 1.345 . S
C124 C125 1.424 . S
C125 H117 0.951 . S
C125 C124 1.424 . S
C125 C126 1.347 . S
C126 H118 0.951 . S
C126 C121 1.429 . S
C126 C125 1.347 . S
H127 C128 0.951 . S
C128 H127 0.951 . S
C128 C134 1.265 1_455 S
H129 C134 0.950 . S
H130 C138 0.949 . S
H131 C139 0.950 . S
H132 C140 0.951 . S
H133 C141 0.951 . S
C134 C128 1.265 1_655 S
C134 H129 0.950 . S
C134 C135 1.478 1_655 S
C135 C122 1.394 . S
C135 C134 1.478 1_455 S
C135 C136 1.397 1_455 S
C136 C135 1.397 1_655 S
C136 C137 1.438 1_655 S
C136 C141 1.429 . S
C137 C120 1.394 . S
C137 C136 1.438 1_455 S
C137 C138 1.428 1_455 S
C138 H130 0.949 . S
C138 C137 1.428 1_655 S
C138 C139 1.345 . S
C139 H131 0.950 . S
C139 C138 1.345 . S
C139 C140 1.424 . S
C140 H132 0.951 . S
C140 C139 1.424 . S
C140 C141 1.347 . S
C141 H133 0.951 . S
C141 C136 1.429 . S
C141 C140 1.347 . S
H142 C143 0.951 . S
C143 H142 0.951 . S
C143 C149 1.265 1_455 S
H144 C149 0.950 . S
H145 C153 0.949 1_455 S
H146 C154 0.950 . S
H147 C155 0.951 . S
H148 C156 0.951 . S
C149 C143 1.265 1_655 S
C149 H144 0.950 . S
C149 C150 1.478 1_655 S
C150 C149 1.478 1_455 S
C150 C151 1.397 1_455 S
C150 C167 1.394 . S
C151 C150 1.397 1_655 S
C151 C152 1.438 1_655 S
C151 C156 1.429 . S
C152 C151 1.438 1_455 S
C152 C153 1.428 1_455 S
C152 C165 1.394 . S
C153 H145 0.949 1_655 S
C153 C152 1.428 1_655 S
C153 C154 1.345 . S
C154 H146 0.950 . S
C154 C153 1.345 . S
C154 C155 1.424 . S
C155 H147 0.951 . S
C155 C154 1.424 . S
C155 C156 1.347 . S
C156 H148 0.951 . S
C156 C151 1.429 . S
C156 C155 1.347 . S
H157 C158 0.951 1_655 S
C158 H157 0.951 1_455 S
C158 C164 1.265 . S
H159 C164 0.950 . S
H160 C168 0.949 . S
H161 C169 0.950 . S
H162 C170 0.951 . S
H163 C171 0.951 . S
C164 C158 1.265 . S
C164 H159 0.950 . S
C164 C165 1.478 . S
C165 C152 1.394 . S
C165 C164 1.478 . S
C165 C166 1.397 . S
C166 C165 1.397 . S
C166 C167 1.438 . S
C166 C171 1.429 . S
C167 C150 1.394 . S
C167 C166 1.438 . S
C167 C168 1.428 . S
C168 H160 0.949 . S
C168 C167 1.428 . S
C168 C169 1.345 . S
C169 H161 0.950 . S
C169 C168 1.345 . S
C169 C170 1.424 . S
C170 H162 0.951 . S
C170 C169 1.424 . S
C170 C171 1.347 . S
C171 H163 0.951 . S
C171 C166 1.429 . S
C171 C170 1.347 . S
H172 C173 0.951 . S
C173 H172 0.951 . S
C173 C179 1.265 . S
H174 C179 0.950 . S
H175 C183 0.949 . S
H176 C184 0.950 . S
H177 C185 0.951 . S
H178 C186 0.951 . S
C179 C173 1.265 . S
C179 H174 0.950 . S
C179 C180 1.478 . S
C180 C179 1.478 . S
C180 C181 1.397 . S
C180 C197 1.394 . S
C181 C180 1.397 . S
C181 C182 1.438 . S
C181 C186 1.429 . S
C182 C181 1.438 . S
C182 C183 1.428 . S
C182 C195 1.394 . S
C183 H175 0.949 . S
C183 C182 1.428 . S
C183 C184 1.345 . S
C184 H176 0.950 . S
C184 C183 1.345 . S
C184 C185 1.424 . S
C185 H177 0.951 . S
C185 C184 1.424 . S
C185 C186 1.347 . S
C186 H178 0.951 . S
C186 C181 1.429 . S
C186 C185 1.347 . S
H187 C188 0.951 . S
C188 H187 0.951 . S
C188 C194 1.265 . S
H189 C194 0.950 . S
H190 C198 0.949 . S
H191 C199 0.950 . S
H192 C200 0.951 . S
H193 C201 0.951 . S
C194 C188 1.265 . S
C194 H189 0.950 . S
C194 C195 1.478 . S
C195 C182 1.394 . S
C195 C194 1.478 . S
C195 C196 1.397 . S
C196 C195 1.397 . S
C196 C197 1.438 . S
C196 C201 1.429 . S
C197 C180 1.394 . S
C197 C196 1.438 . S
C197 C198 1.428 . S
C198 H190 0.949 . S
C198 C197 1.428 . S
C198 C199 1.345 . S
C199 H191 0.950 . S
C199 C198 1.345 . S
C199 C200 1.424 . S
C200 H192 0.951 . S
C200 C199 1.424 . S
C200 C201 1.347 . S
C201 H193 0.951 . S
C201 C196 1.429 . S
C201 C200 1.347 . S
H202 C203 0.951 . S
C203 H202 0.951 . S
C203 C209 1.265 . S
H204 C209 0.950 . S
H205 C213 0.949 . S
H206 C214 0.950 . S
H207 C215 0.951 . S
H208 C216 0.951 . S
C209 C203 1.265 . S
C209 H204 0.950 . S
C209 C210 1.478 . S
C210 C209 1.478 . S
C210 C211 1.397 . S
C210 C227 1.394 . S
C211 C210 1.397 . S
C211 C212 1.438 . S
C211 C216 1.429 . S
C212 C211 1.438 . S
C212 C213 1.428 . S
C212 C225 1.394 . S
C213 H205 0.949 . S
C213 C212 1.428 . S
C213 C214 1.345 . S
C214 H206 0.950 . S
C214 C213 1.345 . S
C214 C215 1.424 . S
C215 H207 0.951 . S
C215 C214 1.424 . S
C215 C216 1.347 . S
C216 H208 0.951 . S
C216 C211 1.429 . S
C216 C215 1.347 . S
H217 C218 0.951 . S
C218 H217 0.951 . S
C218 C224 1.265 . S
H219 C224 0.950 . S
H220 C228 0.949 . S
H221 C229 0.950 . S
H222 C230 0.951 . S
H223 C231 0.951 . S
C224 C218 1.265 . S
C224 H219 0.950 . S
C224 C225 1.478 . S
C225 C212 1.394 . S
C225 C224 1.478 . S
C225 C226 1.397 . S
C226 C225 1.397 . S
C226 C227 1.438 . S
C226 C231 1.429 . S
C227 C210 1.394 . S
C227 C226 1.438 . S
C227 C228 1.428 . S
C228 H220 0.949 . S
C228 C227 1.428 . S
C228 C229 1.345 . S
C229 H221 0.950 . S
C229 C228 1.345 . S
C229 C230 1.424 . S
C230 H222 0.951 . S
C230 C229 1.424 . S
C230 C231 1.347 . S
C231 H223 0.951 . S
C231 C226 1.429 . S
C231 C230 1.347 . S
H232 C233 0.951 . S
C233 H232 0.951 . S
C233 C239 1.265 . S
H234 C239 0.950 . S
H235 C243 0.949 . S
H236 C244 0.950 . S
H237 C245 0.951 . S
H238 C246 0.951 . S
C239 C233 1.265 . S
C239 H234 0.950 . S
C239 C240 1.478 . S
C240 C239 1.478 . S
C240 C241 1.397 . S
C240 C257 1.394 . S
C241 C240 1.397 . S
C241 C242 1.438 . S
C241 C246 1.429 . S
C242 C241 1.438 . S
C242 C243 1.428 . S
C242 C255 1.394 . S
C243 H235 0.949 . S
C243 C242 1.428 . S
C243 C244 1.345 . S
C244 H236 0.950 . S
C244 C243 1.345 . S
C244 C245 1.424 . S
C245 H237 0.951 . S
C245 C244 1.424 . S
C245 C246 1.347 . S
C246 H238 0.951 . S
C246 C241 1.429 . S
C246 C245 1.347 . S
H247 C248 0.951 . S
C248 H247 0.951 . S
C248 C254 1.265 . S
H249 C254 0.950 . S
H250 C258 0.949 . S
H251 C259 0.950 . S
H252 C260 0.951 . S
H253 C261 0.951 . S
C254 C248 1.265 . S
C254 H249 0.950 . S
C254 C255 1.478 . S
C255 C242 1.394 . S
C255 C254 1.478 . S
C255 C256 1.397 . S
C256 C255 1.397 . S
C256 C257 1.438 . S
C256 C261 1.429 . S
C257 C240 1.394 . S
C257 C256 1.438 . S
C257 C258 1.428 . S
C258 H250 0.949 . S
C258 C257 1.428 . S
C258 C259 1.345 . S
C259 H251 0.950 . S
C259 C258 1.345 . S
C259 C260 1.424 . S
C260 H252 0.951 . S
C260 C259 1.424 . S
C260 C261 1.347 . S
C261 H253 0.951 . S
C261 C256 1.429 . S
C261 C260 1.347 . S
H262 C263 0.951 . S
C263 H262 0.951 . S
C263 C269 1.265 . S
H264 C269 0.950 . S
H265 C273 0.949 . S
H266 C274 0.950 . S
H267 C275 0.951 . S
H268 C276 0.951 . S
C269 C263 1.265 . S
C269 H264 0.950 . S
C269 C270 1.478 . S
C270 C269 1.478 . S
C270 C271 1.397 . S
C270 C287 1.394 . S
C271 C270 1.397 . S
C271 C272 1.438 . S
C271 C276 1.429 . S
C272 C271 1.438 . S
C272 C273 1.428 . S
C272 C285 1.394 . S
C273 H265 0.949 . S
C273 C272 1.428 . S
C273 C274 1.345 . S
C274 H266 0.950 . S
C274 C273 1.345 . S
C274 C275 1.424 . S
C275 H267 0.951 . S
C275 C274 1.424 . S
C275 C276 1.347 . S
C276 H268 0.951 . S
C276 C271 1.429 . S
C276 C275 1.347 . S
H277 C278 0.951 . S
C278 H277 0.951 . S
C278 C284 1.265 . S
H279 C284 0.950 . S
H280 C288 0.949 . S
H281 C289 0.950 . S
H282 C290 0.951 . S
H283 C291 0.951 . S
C284 C278 1.265 . S
C284 H279 0.950 . S
C284 C285 1.478 . S
C285 C272 1.394 . S
C285 C284 1.478 . S
C285 C286 1.397 . S
C286 C285 1.397 . S
C286 C287 1.438 . S
C286 C291 1.429 . S
C287 C270 1.394 . S
C287 C286 1.438 . S
C287 C288 1.428 . S
C288 H280 0.949 . S
C288 C287 1.428 . S
C288 C289 1.345 . S
C289 H281 0.950 . S
C289 C288 1.345 . S
C289 C290 1.424 . S
C290 H282 0.951 . S
C290 C289 1.424 . S
C290 C291 1.347 . S
C291 H283 0.951 . S
C291 C286 1.429 . S
C291 C290 1.347 . S
H292 C293 0.951 . S
C293 H292 0.951 . S
C293 C299 1.265 . S
H294 C299 0.950 . S
H295 C303 0.949 . S
H296 C304 0.950 . S
H297 C305 0.951 . S
H298 C306 0.951 . S
C299 C293 1.265 . S
C299 H294 0.950 . S
C299 C300 1.478 . S
C300 C299 1.478 . S
C300 C301 1.397 . S
C300 C317 1.394 . S
C301 C300 1.397 . S
C301 C302 1.438 . S
C301 C306 1.429 . S
C302 C301 1.438 . S
C302 C303 1.428 . S
C302 C315 1.394 . S
C303 H295 0.949 . S
C303 C302 1.428 . S
C303 C304 1.345 . S
C304 H296 0.950 . S
C304 C303 1.345 . S
C304 C305 1.424 . S
C305 H297 0.951 . S
C305 C304 1.424 . S
C305 C306 1.347 . S
C306 H298 0.951 . S
C306 C301 1.429 . S
C306 C305 1.347 . S
H307 C308 0.951 . S
C308 H307 0.951 . S
C308 C314 1.265 . S
H309 C314 0.950 . S
H310 C318 0.949 . S
H311 C319 0.950 . S
H312 C320 0.951 . S
H313 C321 0.951 . S
C314 C308 1.265 . S
C314 H309 0.950 . S
C314 C315 1.478 . S
C315 C302 1.394 . S
C315 C314 1.478 . S
C315 C316 1.397 . S
C316 C315 1.397 . S
C316 C317 1.438 . S
C316 C321 1.429 . S
C317 C300 1.394 . S
C317 C316 1.438 . S
C317 C318 1.428 . S
C318 H310 0.949 . S
C318 C317 1.428 . S
C318 C319 1.345 . S
C319 H311 0.950 . S
C319 C318 1.345 . S
C319 C320 1.424 . S
C320 H312 0.951 . S
C320 C319 1.424 . S
C320 C321 1.347 . S
C321 H313 0.951 . S
C321 C316 1.429 . S
C321 C320 1.347 . S
H322 C323 0.951 . S
C323 H322 0.951 . S
C323 C329 1.265 . S
H324 C329 0.950 . S
H325 C333 0.949 . S
H326 C334 0.950 . S
H327 C335 0.951 . S
H328 C336 0.951 . S
C329 C323 1.265 . S
C329 H324 0.950 . S
C329 C330 1.478 . S
C330 C329 1.478 . S
C330 C331 1.397 . S
C330 C347 1.394 . S
C331 C330 1.397 . S
C331 C332 1.438 . S
C331 C336 1.429 . S
C332 C331 1.438 . S
C332 C333 1.428 . S
C332 C345 1.394 . S
C333 H325 0.949 . S
C333 C332 1.428 . S
C333 C334 1.345 . S
C334 H326 0.950 . S
C334 C333 1.345 . S
C334 C335 1.424 . S
C335 H327 0.951 . S
C335 C334 1.424 . S
C335 C336 1.347 . S
C336 H328 0.951 . S
C336 C331 1.429 . S
C336 C335 1.347 . S
H337 C338 0.951 . S
C338 H337 0.951 . S
C338 C344 1.265 . S
H339 C344 0.950 . S
H340 C348 0.949 . S
H341 C349 0.950 . S
H342 C350 0.951 . S
H343 C351 0.951 . S
C344 C338 1.265 . S
C344 H339 0.950 . S
C344 C345 1.478 . S
C345 C332 1.394 . S
C345 C344 1.478 . S
C345 C346 1.397 . S
C346 C345 1.397 . S
C346 C347 1.438 . S
C346 C351 1.429 . S
C347 C330 1.394 . S
C347 C346 1.438 . S
C347 C348 1.428 . S
C348 H340 0.949 . S
C348 C347 1.428 . S
C348 C349 1.345 . S
C349 H341 0.950 . S
C349 C348 1.345 . S
C349 C350 1.424 . S
C350 H342 0.951 . S
C350 C349 1.424 . S
C350 C351 1.347 . S
C351 H343 0.951 . S
C351 C346 1.429 . S
C351 C350 1.347 . S
H352 C353 0.951 . S
C353 H352 0.951 . S
C353 C359 1.265 . S
H354 C359 0.950 . S
H355 C363 0.949 . S
H356 C364 0.950 . S
H357 C365 0.951 . S
H358 C366 0.951 . S
C359 C353 1.265 . S
C359 H354 0.950 . S
C359 C360 1.478 . S
C360 C359 1.478 . S
C360 C361 1.397 . S
C360 C377 1.394 . S
C361 C360 1.397 . S
C361 C362 1.438 . S
C361 C366 1.429 . S
C362 C361 1.438 . S
C362 C363 1.428 . S
C362 C375 1.394 . S
C363 H355 0.949 . S
C363 C362 1.428 . S
C363 C364 1.345 . S
C364 H356 0.950 . S
C364 C363 1.345 . S
C364 C365 1.424 . S
C365 H357 0.951 . S
C365 C364 1.424 . S
C365 C366 1.347 . S
C366 H358 0.951 . S
C366 C361 1.429 . S
C366 C365 1.347 . S
H367 C368 0.951 . S
C368 H367 0.951 . S
C368 C374 1.265 . S
H369 C374 0.950 . S
H370 C378 0.949 . S
H371 C379 0.950 . S
H372 C380 0.951 . S
H373 C381 0.951 . S
C374 C368 1.265 . S
C374 H369 0.950 . S
C374 C375 1.478 . S
C375 C362 1.394 . S
C375 C374 1.478 . S
C375 C376 1.397 . S
C376 C375 1.397 . S
C376 C377 1.438 . S
C376 C381 1.429 . S
C377 C360 1.394 . S
C377 C376 1.438 . S
C377 C378 1.428 . S
C378 H370 0.949 . S
C378 C377 1.428 . S
C378 C379 1.345 . S
C379 H371 0.950 . S
C379 C378 1.345 . S
C379 C380 1.424 . S
C380 H372 0.951 . S
C380 C379 1.424 . S
C380 C381 1.347 . S
C381 H373 0.951 . S
C381 C376 1.429 . S
C381 C380 1.347 . S
H382 C383 0.951 . S
C383 H382 0.951 . S
C383 C389 1.265 . S
H384 C389 0.950 . S
H385 C393 0.949 . S
H386 C394 0.950 . S
H387 C395 0.951 . S
H388 C396 0.951 . S
C389 C383 1.265 . S
C389 H384 0.950 . S
C389 C390 1.478 . S
C390 C389 1.478 . S
C390 C391 1.397 . S
C390 C407 1.394 . S
C391 C390 1.397 . S
C391 C392 1.438 . S
C391 C396 1.429 . S
C392 C391 1.438 . S
C392 C393 1.428 . S
C392 C405 1.394 . S
C393 H385 0.949 . S
C393 C392 1.428 . S
C393 C394 1.345 . S
C394 H386 0.950 . S
C394 C393 1.345 . S
C394 C395 1.424 . S
C395 H387 0.951 . S
C395 C394 1.424 . S
C395 C396 1.347 . S
C396 H388 0.951 . S
C396 C391 1.429 . S
C396 C395 1.347 . S
H397 C398 0.951 . S
C398 H397 0.951 . S
C398 C404 1.265 . S
H399 C404 0.950 . S
H400 C408 0.949 . S
H401 C409 0.950 . S
H402 C410 0.951 . S
H403 C411 0.951 . S
C404 C398 1.265 . S
C404 H399 0.950 . S
C404 C405 1.478 . S
C405 C392 1.394 . S
C405 C404 1.478 . S
C405 C406 1.397 . S
C406 C405 1.397 . S
C406 C407 1.438 . S
C406 C411 1.429 . S
C407 C390 1.394 . S
C407 C406 1.438 . S
C407 C408 1.428 . S
C408 H400 0.949 . S
C408 C407 1.428 . S
C408 C409 1.345 . S
C409 H401 0.950 . S
C409 C408 1.345 . S
C409 C410 1.424 . S
C410 H402 0.951 . S
C410 C409 1.424 . S
C410 C411 1.347 . S
C411 H403 0.951 . S
C411 C406 1.429 . S
C411 C410 1.347 . S
H412 C413 0.951 . S
C413 H412 0.951 . S
C413 C419 1.265 . S
H414 C419 0.950 . S
H415 C423 0.949 . S
H416 C424 0.950 . S
H417 C425 0.951 . S
H418 C426 0.951 . S
C419 C413 1.265 . S
C419 H414 0.950 . S
C419 C420 1.478 . S
C420 C419 1.478 . S
C420 C421 1.397 . S
C420 C437 1.394 . S
C421 C420 1.397 . S
C421 C422 1.438 . S
C421 C426 1.429 . S
C422 C421 1.438 . S
C422 C423 1.428 . S
C422 C435 1.394 . S
C423 H415 0.949 . S
C423 C422 1.428 . S
C423 C424 1.345 . S
C424 H416 0.950 . S
C424 C423 1.345 . S
C424 C425 1.424 . S
C425 H417 0.951 . S
C425 C424 1.424 . S
C425 C426 1.347 . S
C426 H418 0.951 . S
C426 C421 1.429 . S
C426 C425 1.347 . S
H427 C428 0.951 . S
C428 H427 0.951 . S
C428 C434 1.265 . S
H429 C434 0.950 . S
H430 C438 0.949 . S
H431 C439 0.950 . S
H432 C440 0.951 . S
H433 C441 0.951 . S
C434 C428 1.265 . S
C434 H429 0.950 . S
C434 C435 1.478 . S
C435 C422 1.394 . S
C435 C434 1.478 . S
C435 C436 1.397 . S
C436 C435 1.397 . S
C436 C437 1.438 . S
C436 C441 1.429 . S
C437 C420 1.394 . S
C437 C436 1.438 . S
C437 C438 1.428 . S
C438 H430 0.949 . S
C438 C437 1.428 . S
C438 C439 1.345 . S
C439 H431 0.950 . S
C439 C438 1.345 . S
C439 C440 1.424 . S
C440 H432 0.951 . S
C440 C439 1.424 . S
C440 C441 1.347 . S
C441 H433 0.951 . S
C441 C436 1.429 . S
C441 C440 1.347 . S
H442 C443 0.951 . S
C443 H442 0.951 . S
C443 C449 1.265 . S
H444 C449 0.950 . S
H445 C453 0.949 . S
H446 C454 0.950 . S
H447 C455 0.951 . S
H448 C456 0.951 . S
C449 C443 1.265 . S
C449 H444 0.950 . S
C449 C450 1.478 . S
C450 C449 1.478 . S
C450 C451 1.397 . S
C450 C467 1.394 . S
C451 C450 1.397 . S
C451 C452 1.438 . S
C451 C456 1.429 . S
C452 C451 1.438 . S
C452 C453 1.428 . S
C452 C465 1.394 . S
C453 H445 0.949 . S
C453 C452 1.428 . S
C453 C454 1.345 . S
C454 H446 0.950 . S
C454 C453 1.345 . S
C454 C455 1.424 . S
C455 H447 0.951 . S
C455 C454 1.424 . S
C455 C456 1.347 . S
C456 H448 0.951 . S
C456 C451 1.429 . S
C456 C455 1.347 . S
H457 C458 0.951 . S
C458 H457 0.951 . S
C458 C464 1.265 . S
H459 C464 0.950 . S
H460 C468 0.949 . S
H461 C469 0.950 . S
H462 C470 0.951 . S
H463 C471 0.951 . S
C464 C458 1.265 . S
C464 H459 0.950 . S
C464 C465 1.478 . S
C465 C452 1.394 . S
C465 C464 1.478 . S
C465 C466 1.397 . S
C466 C465 1.397 . S
C466 C467 1.438 . S
C466 C471 1.429 . S
C467 C450 1.394 . S
C467 C466 1.438 . S
C467 C468 1.428 . S
C468 H460 0.949 . S
C468 C467 1.428 . S
C468 C469 1.345 . S
C469 H461 0.950 . S
C469 C468 1.345 . S
C469 C470 1.424 . S
C470 H462 0.951 . S
C470 C469 1.424 . S
C470 C471 1.347 . S
C471 H463 0.951 . S
C471 C466 1.429 . S
C471 C470 1.347 . S
H472 C473 0.951 1_655 S
C473 H472 0.951 1_455 S
C473 C479 1.265 . S
H474 C479 0.950 . S
H475 C483 0.949 . S
H476 C484 0.950 . S
H477 C485 0.951 . S
H478 C486 0.950 . S
C479 C473 1.265 . S
C479 H474 0.950 . S
C479 C480 1.478 . S
C480 C479 1.478 . S
C480 C481 1.397 1_545 S
C480 C497 1.394 1_554 S
C481 C480 1.397 1_565 S
C481 C482 1.438 . S
C481 C486 1.429 . S
C482 C481 1.438 . S
C482 C483 1.428 . S
C482 C495 1.396 1_554 S
C483 H475 0.949 . S
C483 C482 1.428 . S
C483 C484 1.345 . S
C484 H476 0.950 . S
C484 C483 1.345 . S
C484 C485 1.424 . S
C485 H477 0.951 . S
C485 C484 1.424 . S
C485 C486 1.347 . S
C486 H478 0.950 . S
C486 C481 1.429 . S
C486 C485 1.347 . S
H487 C488 0.951 . S
C488 H487 0.951 . S
C488 C494 1.265 1_455 S
H489 C494 0.950 . S
H490 C498 0.949 . S
H491 C499 0.950 . S
H492 C500 0.951 . S
H493 C501 0.950 . S
C494 C488 1.265 1_655 S
C494 H489 0.950 . S
C494 C495 1.477 1_655 S
C495 C482 1.396 1_556 S
C495 C494 1.477 1_455 S
C495 C496 1.396 1_465 S
C496 C495 1.396 1_645 S
C496 C497 1.438 1_655 S
C496 C501 1.429 . S
C497 C480 1.394 1_556 S
C497 C496 1.438 1_455 S
C497 C498 1.428 1_455 S
C498 H490 0.949 . S
C498 C497 1.428 1_655 S
C498 C499 1.345 . S
C499 H491 0.950 . S
C499 C498 1.345 . S
C499 C500 1.424 . S
C500 H492 0.951 . S
C500 C499 1.424 . S
C500 C501 1.347 . S
C501 H493 0.950 . S
C501 C496 1.429 . S
C501 C500 1.347 . S
H502 C503 0.951 1_655 S
C503 H502 0.951 1_455 S
C503 C509 1.265 . S
H504 C509 0.950 . S
H505 C513 0.949 . S
H506 C514 0.950 . S
H507 C515 0.951 1_556 S
H508 C516 0.951 . S
C509 C503 1.265 . S
C509 H504 0.950 . S
C509 C510 1.478 . S
C510 C509 1.478 . S
C510 C511 1.397 . S
C510 C527 1.394 1_455 S
C511 C510 1.397 . S
C511 C512 1.438 1_556 S
C511 C516 1.429 . S
C512 C511 1.438 1_554 S
C512 C513 1.428 . S
C512 C525 1.394 . S
C513 H505 0.949 . S
C513 C512 1.428 . S
C513 C514 1.345 . S
C514 H506 0.950 . S
C514 C513 1.345 . S
C514 C515 1.424 . S
C515 H507 0.951 1_554 S
C515 C514 1.424 . S
C515 C516 1.347 1_554 S
C516 H508 0.951 . S
C516 C511 1.429 . S
C516 C515 1.347 1_556 S
H517 C518 0.951 . S
C518 H517 0.951 . S
C518 C524 1.265 . S
H519 C524 0.950 1_655 S
H520 C528 0.949 . S
H521 C529 0.950 . S
H522 C530 0.951 1_554 S
H523 C531 0.951 . S
C524 C518 1.265 . S
C524 H519 0.950 1_455 S
C524 C525 1.478 . S
C525 C512 1.394 . S
C525 C524 1.478 . S
C525 C526 1.397 1_455 S
C526 C525 1.397 1_655 S
C526 C527 1.438 1_554 S
C526 C531 1.429 . S
C527 C510 1.394 1_655 S
C527 C526 1.438 1_556 S
C527 C528 1.428 . S
C528 H520 0.949 . S
C528 C527 1.428 . S
C528 C529 1.345 . S
C529 H521 0.950 . S
C529 C528 1.345 . S
C529 C530 1.424 . S
C530 H522 0.951 1_556 S
C530 C529 1.424 . S
C530 C531 1.347 1_556 S
C531 H523 0.951 . S
C531 C526 1.429 . S
C531 C530 1.347 1_554 S
H532 C533 0.951 . S
C533 H532 0.951 . S
C533 C539 1.265 . S
H534 C539 0.950 . S
H535 C543 0.949 . S
H536 C544 0.950 . S
H537 C545 0.951 . S
H538 C546 0.951 . S
C539 C533 1.265 . S
C539 H534 0.950 . S
C539 C540 1.478 . S
C540 C539 1.478 . S
C540 C541 1.397 . S
C540 C557 1.394 . S
C541 C540 1.397 . S
C541 C542 1.438 . S
C541 C546 1.429 . S
C542 C541 1.438 . S
C542 C543 1.428 . S
C542 C555 1.394 . S
C543 H535 0.949 . S
C543 C542 1.428 . S
C543 C544 1.345 . S
C544 H536 0.950 . S
C544 C543 1.345 . S
C544 C545 1.424 . S
C545 H537 0.951 . S
C545 C544 1.424 . S
C545 C546 1.347 . S
C546 H538 0.951 . S
C546 C541 1.429 . S
C546 C545 1.347 . S
H547 C548 0.951 . S
C548 H547 0.951 . S
C548 C554 1.265 . S
H549 C554 0.950 . S
H550 C558 0.949 . S
H551 C559 0.950 . S
H552 C560 0.951 . S
H553 C561 0.951 . S
C554 C548 1.265 . S
C554 H549 0.950 . S
C554 C555 1.478 . S
C555 C542 1.394 . S
C555 C554 1.478 . S
C555 C556 1.397 . S
C556 C555 1.397 . S
C556 C557 1.438 . S
C556 C561 1.429 . S
C557 C540 1.394 . S
C557 C556 1.438 . S
C557 C558 1.428 . S
C558 H550 0.949 . S
C558 C557 1.428 . S
C558 C559 1.345 . S
C559 H551 0.950 . S
C559 C558 1.345 . S
C559 C560 1.424 . S
C560 H552 0.951 . S
C560 C559 1.424 . S
C560 C561 1.347 . S
C561 H553 0.951 . S
C561 C556 1.429 . S
C561 C560 1.347 . S
H562 C563 0.951 . S
C563 H562 0.951 . S
C563 C569 1.265 . S
H564 C569 0.950 . S
H565 C573 0.949 1_545 S
H566 C574 0.950 . S
H567 C575 0.951 . S
H568 C576 0.951 . S
C569 C563 1.265 . S
C569 H564 0.950 . S
C569 C570 1.478 . S
C570 C569 1.478 . S
C570 C571 1.397 . S
C570 C587 1.394 1_565 S
C571 C570 1.397 . S
C571 C572 1.438 . S
C571 C576 1.429 . S
C572 C571 1.438 . S
C572 C573 1.428 . S
C572 C585 1.394 1_565 S
C573 H565 0.949 1_565 S
C573 C572 1.428 . S
C573 C574 1.345 . S
C574 H566 0.950 . S
C574 C573 1.345 . S
C574 C575 1.424 . S
C575 H567 0.951 . S
C575 C574 1.424 . S
C575 C576 1.347 . S
C576 H568 0.951 . S
C576 C571 1.429 . S
C576 C575 1.347 . S
H577 C578 0.951 . S
C578 H577 0.951 . S
C578 C584 1.265 . S
H579 C584 0.950 . S
H580 C588 0.949 1_565 S
H581 C589 0.950 . S
H582 C590 0.951 . S
H583 C591 0.951 . S
C584 C578 1.265 . S
C584 H579 0.950 . S
C584 C585 1.478 . S
C585 C572 1.394 1_545 S
C585 C584 1.478 . S
C585 C586 1.397 . S
C586 C585 1.397 . S
C586 C587 1.438 . S
C586 C591 1.429 . S
C587 C570 1.394 1_545 S
C587 C586 1.438 . S
C587 C588 1.428 . S
C588 H580 0.949 1_545 S
C588 C587 1.428 . S
C588 C589 1.345 . S
C589 H581 0.950 . S
C589 C588 1.345 . S
C589 C590 1.424 . S
C590 H582 0.951 . S
C590 C589 1.424 . S
C590 C591 1.347 . S
C591 H583 0.951 . S
C591 C586 1.429 . S
C591 C590 1.347 . S
C113 C23 1.399 . S
C128 C9 1.398 . S
C143 C37 1.401 . S
C158 C51 1.396 . S
C173 C65 1.393 . S
C188 C79 1.404 . S
C203 C93 1.404 . S
C218 C107 1.408 . S
C233 C101 1.410 . S
C248 C3 1.410 . S
C263 C87 1.445 . S
C278 C17 1.443 . S
C293 C31 1.445 . S
C308 C73 1.443 . S
C323 C59 1.410 . S
C338 C45 1.410 . S
C353 C77 1.324 . S
C368 C35 1.325 . S
C383 C63 1.325 . S
C398 C49 1.324 . S
C413 C105 1.325 . S
C428 C7 1.324 . S
C443 C21 1.380 . S
C458 C91 1.369 . S
C473 C8 1.365 . S
C488 C36 1.350 . S
C503 C50 1.351 . S
C518 C22 1.359 . S
C533 C92 1.365 . S
C548 C64 1.349 . S
C563 C78 1.351 . S
C578 C106 1.366 . S
