# Generated by pormake.
# Topology umh, (4)-cn, num edge types: 1
# Building blocks:
#     Node 0, Type 0, BuildingBlock: ICAMEG_clean_sbu_1, # of connection points: 4
#     Node 1, Type 0, BuildingBlock: ICAMEG_clean_sbu_1, # of connection points: 4
#     Node 2, Type 0, BuildingBlock: ICAMEG_clean_sbu_1, # of connection points: 4
#     Node 3, Type 0, BuildingBlock: ICAMEG_clean_sbu_1, # of connection points: 4
#     Node 4, Type 0, BuildingBlock: ICAMEG_clean_sbu_1, # of connection points: 4
#     Node 5, Type 0, BuildingBlock: ICAMEG_clean_sbu_1, # of connection points: 4
#     Node 6, Type 0, BuildingBlock: ICAMEG_clean_sbu_1, # of connection points: 4
#     Node 7, Type 0, BuildingBlock: ICAMEG_clean_sbu_1, # of connection points: 4
#     Node 8, Type 0, BuildingBlock: ICAMEG_clean_sbu_1, # of connection points: 4
#     Node 9, Type 0, BuildingBlock: ICAMEG_clean_sbu_1, # of connection points: 4
#     Node 10, Type 0, BuildingBlock: ICAMEG_clean_sbu_1, # of connection points: 4
#     Node 11, Type 0, BuildingBlock: ICAMEG_clean_sbu_1, # of connection points: 4
#     Node 12, Type 0, BuildingBlock: ICAMEG_clean_sbu_1, # of connection points: 4
#     Node 13, Type 0, BuildingBlock: ICAMEG_clean_sbu_1, # of connection points: 4
#     Node 14, Type 0, BuildingBlock: ICAMEG_clean_sbu_1, # of connection points: 4
#     Node 15, Type 0, BuildingBlock: ICAMEG_clean_sbu_1, # of connection points: 4
#     Edge 16, Type (0, 0), BuildingBlock: MIFKUJ_clean_linker_0, # of connection points: 2
#     Edge 17, Type (0, 0), BuildingBlock: MIFKUJ_clean_linker_0, # of connection points: 2
#     Edge 18, Type (0, 0), BuildingBlock: MIFKUJ_clean_linker_0, # of connection points: 2
#     Edge 19, Type (0, 0), BuildingBlock: MIFKUJ_clean_linker_0, # of connection points: 2
#     Edge 20, Type (0, 0), BuildingBlock: MIFKUJ_clean_linker_0, # of connection points: 2
#     Edge 21, Type (0, 0), BuildingBlock: MIFKUJ_clean_linker_0, # of connection points: 2
#     Edge 22, Type (0, 0), BuildingBlock: MIFKUJ_clean_linker_0, # of connection points: 2
#     Edge 23, Type (0, 0), BuildingBlock: MIFKUJ_clean_linker_0, # of connection points: 2
#     Edge 24, Type (0, 0), BuildingBlock: MIFKUJ_clean_linker_0, # of connection points: 2
#     Edge 25, Type (0, 0), BuildingBlock: MIFKUJ_clean_linker_0, # of connection points: 2
#     Edge 26, Type (0, 0), BuildingBlock: MIFKUJ_clean_linker_0, # of connection points: 2
#     Edge 27, Type (0, 0), BuildingBlock: MIFKUJ_clean_linker_0, # of connection points: 2
#     Edge 28, Type (0, 0), BuildingBlock: MIFKUJ_clean_linker_0, # of connection points: 2
#     Edge 29, Type (0, 0), BuildingBlock: MIFKUJ_clean_linker_0, # of connection points: 2
#     Edge 30, Type (0, 0), BuildingBlock: MIFKUJ_clean_linker_0, # of connection points: 2
#     Edge 31, Type (0, 0), BuildingBlock: MIFKUJ_clean_linker_0, # of connection points: 2
#     Edge 32, Type (0, 0), BuildingBlock: MIFKUJ_clean_linker_0, # of connection points: 2
#     Edge 33, Type (0, 0), BuildingBlock: MIFKUJ_clean_linker_0, # of connection points: 2
#     Edge 34, Type (0, 0), BuildingBlock: MIFKUJ_clean_linker_0, # of connection points: 2
#     Edge 35, Type (0, 0), BuildingBlock: MIFKUJ_clean_linker_0, # of connection points: 2
#     Edge 36, Type (0, 0), BuildingBlock: MIFKUJ_clean_linker_0, # of connection points: 2
#     Edge 37, Type (0, 0), BuildingBlock: MIFKUJ_clean_linker_0, # of connection points: 2
#     Edge 38, Type (0, 0), BuildingBlock: MIFKUJ_clean_linker_0, # of connection points: 2
#     Edge 39, Type (0, 0), BuildingBlock: MIFKUJ_clean_linker_0, # of connection points: 2
#     Edge 40, Type (0, 0), BuildingBlock: MIFKUJ_clean_linker_0, # of connection points: 2
#     Edge 41, Type (0, 0), BuildingBlock: MIFKUJ_clean_linker_0, # of connection points: 2
#     Edge 42, Type (0, 0), BuildingBlock: MIFKUJ_clean_linker_0, # of connection points: 2
#     Edge 43, Type (0, 0), BuildingBlock: MIFKUJ_clean_linker_0, # of connection points: 2
#     Edge 44, Type (0, 0), BuildingBlock: MIFKUJ_clean_linker_0, # of connection points: 2
#     Edge 45, Type (0, 0), BuildingBlock: MIFKUJ_clean_linker_0, # of connection points: 2
#     Edge 46, Type (0, 0), BuildingBlock: MIFKUJ_clean_linker_0, # of connection points: 2
#     Edge 47, Type (0, 0), BuildingBlock: MIFKUJ_clean_linker_0, # of connection points: 2
# Relax obj value: 0.087
# Max RMSD: 0.249
# Mean RMSD: 0.249
data_MOF--net-umh--node1-ICAMEG_clean_sbu_1--edge1-MIFKUJ_clean_linker_0
_symmetry_space_group_name_H-M    P1
_symmetry_Int_Tables_number       1
_symmetry_cell_setting            triclinic
loop_
_symmetry_equiv_pos_as_xyz
'x, y, z'
_cell_length_a     54.439089
_cell_length_b     54.464035
_cell_length_c     73.473807
_cell_angle_alpha  89.985402
_cell_angle_beta   90.002456
_cell_angle_gamma 90.012848
loop_
_atom_site_label
_atom_site_type_symbol
_atom_site_fract_x
_atom_site_fract_y
_atom_site_fract_z
_atom_type_partial_charge
Co0 Co 0.30373 0.07648 0.12684 0.0
Co1 Co 0.35087 0.10146 0.15231 0.0
O2 O 0.3383 0.08177 0.13233 0.0
C3 C 0.32424 0.10243 0.09539 0.0
O4 O 0.3339 0.11716 0.10754 0.0
C5 C 0.36965 0.05187 0.15865 0.0
O6 O 0.34721 0.04424 0.15544 0.0
O7 O 0.32681 0.08676 0.16946 0.0
O8 O 0.2965 0.06921 0.15308 0.0
H9 H 0.34447 0.15656 0.20693 0.0
H10 H 0.34206 0.05016 0.10577 0.0
O11 O 0.31088 0.08443 0.10054 0.0
H12 H 0.29237 0.98544 0.13491 0.0
H13 H 0.23413 0.04509 0.08828 0.0
H14 H 0.25639 0.08959 0.14435 0.0
H15 H 0.282 0.02916 0.13922 0.0
H16 H 0.27764 0.05194 0.09626 0.0
O17 O 0.37465 0.0747 0.15816 0.0
H18 H 0.3285 0.13217 0.18123 0.0
H19 H 0.4011 0.11162 0.16652 0.0
H20 H 0.21268 0.083 0.13699 0.0
H21 H 0.35301 0.00669 0.10102 0.0
H22 H 0.20131 0.0606 0.10877 0.0
H23 H 0.32812 0.97399 0.1157 0.0
O24 O 0.29557 0.11151 0.13136 0.0
H25 H 0.41317 0.09909 0.10186 0.0
H26 H 0.36698 0.15259 0.14383 0.0
H27 H 0.39505 0.17117 0.12133 0.0
H28 H 0.4183 0.14433 0.1001 0.0
H29 H 0.38481 0.08132 0.12449 0.0
H30 H 0.41782 0.13562 0.19217 0.0
H31 H 0.38941 0.15836 0.21255 0.0
O32 O 0.32714 0.12828 0.14678 0.0
C33 C 0.30669 0.07482 0.16822 0.0
C34 C 0.35702 0.14679 0.19812 0.0
C35 C 0.3982 0.13502 0.18984 0.0
N36 N 0.36388 0.12071 0.17229 0.0
C37 C 0.34811 0.13303 0.1835 0.0
C38 C 0.38863 0.12144 0.17536 0.0
C39 C 0.38225 0.14778 0.20127 0.0
C40 C 0.33099 0.03603 0.11204 0.0
N41 N 0.31131 0.04217 0.12265 0.0
C42 C 0.33734 0.01145 0.10937 0.0
C43 C 0.32339 0.99311 0.11763 0.0
C44 C 0.30333 -0.00048 0.12842 0.0
C45 C 0.29756 0.0243 0.13082 0.0
C46 C 0.23885 0.05482 0.10064 0.0
C47 C 0.25159 0.07968 0.13212 0.0
C48 C 0.26344 0.05879 0.1052 0.0
N49 N 0.26951 0.07096 0.12083 0.0
C50 C 0.22681 0.07607 0.12799 0.0
C51 C 0.22044 0.06352 0.11214 0.0
C52 C 0.30612 0.12955 0.13918 0.0
C53 C 0.40317 0.11097 0.11106 0.0
C54 C 0.37708 0.14081 0.13467 0.0
C55 C 0.39297 0.15142 0.12197 0.0
C56 C 0.40602 0.13636 0.11007 0.0
N57 N 0.37431 0.1159 0.13551 0.0
C58 C 0.38717 0.10101 0.12396 0.0
Co59 Co 0.42062 0.30125 0.62605 0.0
Co60 Co 0.39732 0.34773 0.65304 0.0
O61 O 0.41528 0.33571 0.63197 0.0
C62 C 0.39248 0.32198 0.59568 0.0
O63 O 0.37836 0.3313 0.60837 0.0
C64 C 0.44688 0.36773 0.65669 0.0
O65 O 0.45467 0.34557 0.65273 0.0
O66 O 0.41442 0.32422 0.66924 0.0
O67 O 0.42979 0.29369 0.65194 0.0
H68 H 0.34844 0.33947 0.7107 0.0
H69 H 0.4451 0.34002 0.6042 0.0
O70 O 0.41079 0.30859 0.60014 0.0
H71 H 0.51223 0.2906 0.63044 0.0
H72 H 0.44988 0.2325 0.58579 0.0
H73 H 0.40885 0.25356 0.64355 0.0
H74 H 0.46895 0.27987 0.63646 0.0
H75 H 0.44341 0.27581 0.59443 0.0
O76 O 0.42394 0.37222 0.65743 0.0
H77 H 0.37044 0.32439 0.68357 0.0
H78 H 0.38719 0.39759 0.66795 0.0
H79 H 0.41511 0.21003 0.63554 0.0
H80 H 0.48811 0.35131 0.59772 0.0
H81 H 0.43576 0.19927 0.60646 0.0
H82 H 0.52202 0.32655 0.61094 0.0
O83 O 0.38609 0.2927 0.63185 0.0
H84 H 0.39238 0.41059 0.60311 0.0
H85 H 0.34498 0.36215 0.64764 0.0
H86 H 0.32319 0.38999 0.62664 0.0
H87 H 0.34694 0.41443 0.60416 0.0
H88 H 0.41339 0.38238 0.62427 0.0
H89 H 0.36548 0.41349 0.69498 0.0
H90 H 0.34585 0.38433 0.71653 0.0
O91 O 0.37068 0.3232 0.64908 0.0
C92 C 0.426 0.30403 0.66733 0.0
C93 C 0.35682 0.35237 0.70136 0.0
C94 C 0.36642 0.39391 0.69255 0.0
N95 N 0.37984 0.36012 0.6741 0.0
C96 C 0.36923 0.34395 0.68595 0.0
C97 C 0.37871 0.38481 0.67729 0.0
C98 C 0.3554 0.37753 0.70464 0.0
C99 C 0.45976 0.32901 0.60984 0.0
N100 N 0.45454 0.30922 0.62059 0.0
C101 C 0.48407 0.33555 0.60619 0.0
C102 C 0.50309 0.32168 0.61363 0.0
C103 C 0.49761 0.30151 0.62458 0.0
C104 C 0.47308 0.29554 0.62797 0.0
C105 C 0.44093 0.23696 0.59852 0.0
C106 C 0.41806 0.24902 0.63096 0.0
C107 C 0.4372 0.26143 0.60347 0.0
N108 N 0.42603 0.26718 0.61957 0.0
C109 C 0.42146 0.22434 0.62646 0.0
C110 C 0.43301 0.21832 0.61013 0.0
C111 C 0.36887 0.30249 0.64109 0.0
C112 C 0.38183 0.40008 0.61287 0.0
C113 C 0.35542 0.37271 0.63789 0.0
C114 C 0.343 0.38848 0.62605 0.0
C115 C 0.35634 0.4022 0.61345 0.0
N116 N 0.38043 0.3707 0.63721 0.0
C117 C 0.39364 0.38416 0.62494 0.0
Co118 Co 0.19451 0.41778 0.12551 0.0
Co119 Co 0.14953 0.39493 0.15404 0.0
O120 O 0.16063 0.41517 0.13383 0.0
C121 C 0.16684 0.39588 0.09521 0.0
O122 O 0.15652 0.38224 0.10776 0.0
C123 C 0.13802 0.44565 0.16446 0.0
O124 O 0.16032 0.45132 0.15915 0.0
O125 O 0.1781 0.40473 0.16908 0.0
O126 O 0.20624 0.42319 0.15117 0.0
H127 H 0.15912 0.33425 0.20509 0.0
H128 H 0.15578 0.44833 0.10838 0.0
O129 O 0.183 0.41177 0.09973 0.0
H130 H 0.21506 0.50704 0.1345 0.0
H131 H 0.26051 0.44492 0.08201 0.0
H132 H 0.24276 0.39968 0.13866 0.0
H133 H 0.22213 0.46241 0.13693 0.0
H134 H 0.21804 0.44161 0.0935 0.0
O135 O 0.13051 0.42353 0.16358 0.0
H136 H 0.17281 0.35841 0.17857 0.0
H137 H 0.10165 0.38954 0.17326 0.0
H138 H 0.28552 0.40267 0.12774 0.0
H139 H 0.14806 0.4928 0.10554 0.0
H140 H 0.2946 0.42542 0.09922 0.0
H141 H 0.17779 0.52248 0.11872 0.0
O142 O 0.20003 0.38188 0.12852 0.0
H143 H 0.07867 0.4093 0.11152 0.0
H144 H 0.12624 0.34693 0.14507 0.0
H145 H 0.09186 0.33388 0.12544 0.0
H146 H 0.06785 0.36519 0.10847 0.0
H147 H 0.11327 0.42151 0.13122 0.0
H148 H 0.08721 0.36581 0.1998 0.0
H149 H 0.11605 0.33793 0.2159 0.0
O150 O 0.16867 0.36644 0.14488 0.0
C151 C 0.19856 0.41564 0.16664 0.0
C152 C 0.14636 0.34629 0.19816 0.0
C153 C 0.10601 0.36403 0.1952 0.0
N154 N 0.13802 0.37527 0.17433 0.0
C155 C 0.15399 0.35996 0.1831 0.0
C156 C 0.1143 0.37744 0.1802 0.0
C157 C 0.1222 0.34838 0.20423 0.0
C158 C 0.16893 0.46114 0.11397 0.0
N159 N 0.18946 0.45281 0.1227 0.0
C160 C 0.16441 0.4863 0.1124 0.0
C161 C 0.18108 0.50294 0.11982 0.0
C162 C 0.20199 0.49429 0.12868 0.0
C163 C 0.20589 0.469 0.13002 0.0
C164 C 0.25679 0.43501 0.09448 0.0
C165 C 0.2466 0.40976 0.12631 0.0
C166 C 0.23279 0.43304 0.10103 0.0
N167 N 0.22799 0.42064 0.1168 0.0
C168 C 0.27083 0.41132 0.12016 0.0
C169 C 0.27591 0.42407 0.10414 0.0
C170 C 0.18862 0.36405 0.13597 0.0
C171 C 0.08895 0.39549 0.11888 0.0
C172 C 0.11584 0.36065 0.13776 0.0
C173 C 0.09639 0.35316 0.12667 0.0
C174 C 0.08291 0.37073 0.11716 0.0
N175 N 0.12166 0.38496 0.13936 0.0
C176 C 0.10849 0.40231 0.13012 0.0
Co177 Co 0.0805 0.19269 0.62724 0.0
Co178 Co 0.1037 0.14361 0.65155 0.0
O179 O 0.08299 0.15775 0.63266 0.0
C180 C 0.10148 0.16958 0.59462 0.0
O181 O 0.11515 0.15722 0.60609 0.0
C182 C 0.05323 0.13144 0.66205 0.0
O183 O 0.04774 0.15421 0.65794 0.0
O184 O 0.09456 0.16986 0.669 0.0
O185 O 0.07563 0.20035 0.65376 0.0
H186 H 0.16688 0.14525 0.7014 0.0
H187 H 0.04936 0.15706 0.60723 0.0
O188 O 0.08596 0.18521 0.60061 0.0
H189 H 0.9915 0.21234 0.63863 0.0
H190 H 0.05302 0.26511 0.58991 0.0
H191 H 0.09893 0.23849 0.64432 0.0
H192 H 0.03624 0.2186 0.64134 0.0
H193 H 0.05639 0.22113 0.59761 0.0
O194 O 0.07516 0.12364 0.66019 0.0
H195 H 0.14114 0.16304 0.67712 0.0
H196 H 0.10943 0.09319 0.66668 0.0
H197 H 0.09589 0.28266 0.63721 0.0
H198 H 0.00477 0.15023 0.60403 0.0
H199 H 0.0728 0.29621 0.60983 0.0
H200 H 0.97551 0.17794 0.61986 0.0
O201 O 0.11647 0.1976 0.6303 0.0
H202 H 0.08706 0.07915 0.60422 0.0
H203 H 0.15117 0.12144 0.63981 0.0
H204 H 0.16314 0.08988 0.61742 0.0
H205 H 0.13095 0.0685 0.59944 0.0
H206 H 0.07593 0.11096 0.62665 0.0
H207 H 0.13469 0.07466 0.69096 0.0
H208 H 0.16372 0.10075 0.70846 0.0
O209 O 0.13214 0.16368 0.6434 0.0
C210 C 0.0834 0.19044 0.66847 0.0
C211 C 0.15436 0.13367 0.69383 0.0
C212 C 0.13626 0.09406 0.68798 0.0
N213 N 0.12396 0.12912 0.67041 0.0
C214 C 0.1398 0.14363 0.68002 0.0
C215 C 0.12198 0.10466 0.67428 0.0
C216 C 0.15256 0.10871 0.69779 0.0
C217 C 0.03674 0.16934 0.614 0.0
N218 N 0.04537 0.18829 0.62436 0.0
C219 C 0.01151 0.16532 0.6122 0.0
C220 C 0.99511 0.18086 0.62111 0.0
C221 C 0.00407 0.20016 0.63165 0.0
C222 C 0.02941 0.2036 0.63316 0.0
C223 C 0.0631 0.25944 0.6019 0.0
C224 C 0.08872 0.24427 0.63245 0.0
C225 C 0.06511 0.23457 0.6063 0.0
N226 N 0.0777 0.2273 0.62146 0.0
C227 C 0.08712 0.26929 0.62846 0.0
C228 C 0.07419 0.27688 0.61309 0.0
C229 C 0.13443 0.18492 0.63631 0.0
C230 C 0.10125 0.08829 0.61201 0.0
C231 C 0.13707 0.11221 0.63203 0.0
C232 C 0.14395 0.09434 0.61939 0.0
C233 C 0.12588 0.08235 0.60932 0.0
N234 N 0.11288 0.11794 0.63459 0.0
C235 C 0.09505 0.10624 0.62478 0.0
Co236 Co 0.30246 0.41144 0.38333 0.0
Co237 Co 0.34855 0.4021 0.35172 0.0
O238 O 0.33629 0.41443 0.37491 0.0
C239 C 0.33201 0.38625 0.41109 0.0
O240 O 0.34286 0.37531 0.39736 0.0
C241 C 0.35893 0.4548 0.3509 0.0
O242 O 0.33627 0.45804 0.3565 0.0
O243 O 0.32057 0.41687 0.33851 0.0
O244 O 0.28941 0.42039 0.35859 0.0
H245 H 0.34199 0.36121 0.29062 0.0
H246 H 0.33744 0.44268 0.40382 0.0
O247 O 0.31505 0.40194 0.40811 0.0
H248 H 0.27095 0.49831 0.38439 0.0
H249 H 0.2344 0.42151 0.42906 0.0
H250 H 0.25663 0.38998 0.36834 0.0
H251 H 0.26943 0.45421 0.37682 0.0
H252 H 0.27673 0.42582 0.41746 0.0
O253 O 0.3673 0.43322 0.34843 0.0
H254 H 0.32657 0.37629 0.32014 0.0
H255 H 0.39741 0.40353 0.33347 0.0
H256 H 0.21405 0.38543 0.37935 0.0
H257 H 0.33961 0.48662 0.41182 0.0
H258 H 0.20272 0.40126 0.40991 0.0
H259 H 0.30623 0.51477 0.40202 0.0
O260 O 0.30145 0.37631 0.37652 0.0
H261 H 0.41792 0.40182 0.39681 0.0
H262 H 0.37206 0.35264 0.35185 0.0
H263 H 0.40606 0.33356 0.36895 0.0
H264 H 0.42924 0.35821 0.39163 0.0
H265 H 0.38369 0.42013 0.37949 0.0
H266 H 0.41353 0.38913 0.30394 0.0
H267 H 0.38576 0.36764 0.28235 0.0
O268 O 0.32963 0.37093 0.35444 0.0
C269 C 0.29852 0.42226 0.34262 0.0
C270 C 0.35431 0.37036 0.29997 0.0
C271 C 0.39445 0.3861 0.30743 0.0
N272 N 0.36117 0.39041 0.32862 0.0
C273 C 0.34571 0.37885 0.31673 0.0
C274 C 0.38521 0.39425 0.32411 0.0
C275 C 0.37887 0.37403 0.29533 0.0
C276 C 0.32273 0.45478 0.39968 0.0
N277 N 0.30327 0.44589 0.38996 0.0
C278 C 0.32411 0.47966 0.40417 0.0
C279 C 0.30539 0.49545 0.39865 0.0
C280 C 0.2856 0.48623 0.38875 0.0
C281 C 0.28486 0.46125 0.38447 0.0
C282 C 0.2391 0.4146 0.4157 0.0
C283 C 0.25178 0.39708 0.3816 0.0
C284 C 0.26304 0.41697 0.40907 0.0
N285 N 0.26905 0.40839 0.39218 0.0
C286 C 0.22767 0.39437 0.38778 0.0
C287 C 0.22133 0.40324 0.40495 0.0
C288 C 0.31239 0.36319 0.36468 0.0
C289 C 0.40801 0.39092 0.38693 0.0
C290 C 0.38206 0.36348 0.3617 0.0
C291 C 0.40132 0.35259 0.37132 0.0
C292 C 0.41432 0.36643 0.38403 0.0
N293 N 0.37599 0.38751 0.36461 0.0
C294 C 0.38868 0.40121 0.37703 0.0
Co295 Co 0.07441 0.30606 0.8836 0.0
Co296 Co 0.09858 0.34444 0.85057 0.0
O297 O 0.07926 0.33824 0.87245 0.0
C298 C 0.09946 0.33581 0.91134 0.0
O299 O 0.11364 0.34316 0.89798 0.0
C300 C 0.04899 0.3611 0.84153 0.0
O301 O 0.04124 0.34029 0.84846 0.0
O302 O 0.08331 0.3162 0.8379 0.0
O303 O 0.06726 0.29097 0.8592 0.0
H304 H 0.15345 0.32174 0.79823 0.0
H305 H 0.04738 0.3493 0.89769 0.0
O306 O 0.08205 0.32068 0.90817 0.0
H307 H 0.98354 0.29109 0.87753 0.0
H308 H 0.04411 0.24884 0.93249 0.0
H309 H 0.08904 0.25513 0.87439 0.0
H310 H 0.02745 0.28032 0.87515 0.0
H311 H 0.04974 0.28904 0.91752 0.0
O312 O 0.07184 0.36607 0.84124 0.0
H313 H 0.12873 0.31385 0.82575 0.0
H314 H 0.10851 0.38908 0.82828 0.0
H315 H 0.0838 0.21458 0.88884 0.0
H316 H 0.0037 0.36079 0.90038 0.0
H317 H 0.06116 0.21126 0.9181 0.0
H318 H 0.97144 0.3316 0.8902 0.0
O319 O 0.10961 0.29755 0.88074 0.0
H320 H 0.09768 0.42148 0.88814 0.0
H321 H 0.15011 0.3616 0.8561 0.0
H322 H 0.16932 0.39618 0.87248 0.0
H323 H 0.14304 0.42643 0.88863 0.0
H324 H 0.07926 0.38652 0.87178 0.0
H325 H 0.13256 0.39769 0.80054 0.0
H326 H 0.15544 0.36391 0.78542 0.0
O327 O 0.12536 0.32264 0.85942 0.0
C328 C 0.07196 0.2968 0.84272 0.0
C329 C 0.14371 0.33664 0.80476 0.0
C330 C 0.13192 0.37926 0.80603 0.0
N331 N 0.11748 0.35105 0.82875 0.0
C332 C 0.12975 0.33231 0.82038 0.0
C333 C 0.11827 0.37426 0.8217 0.0
C334 C 0.14477 0.3603 0.79757 0.0
C335 C 0.03343 0.33641 0.89341 0.0
N336 N 0.03993 0.31411 0.88639 0.0
C337 C 0.00874 0.34305 0.89489 0.0
C338 C 0.99065 0.32668 0.88915 0.0
C339 C -0.00257 0.30395 0.88203 0.0
C340 C 0.02231 0.29796 0.88071 0.0
C341 C 0.05393 0.25004 0.91971 0.0
C342 C 0.07902 0.2538 0.88705 0.0
C343 C 0.05719 0.27274 0.91119 0.0
N344 N 0.06948 0.27436 0.89502 0.0
C345 C 0.07618 0.2308 0.8952 0.0
C346 C 0.06351 0.22896 0.91163 0.0
C347 C 0.12727 0.30513 0.87084 0.0
C348 C 0.10933 0.40847 0.88112 0.0
C349 C 0.13856 0.37467 0.86313 0.0
C350 C 0.14954 0.39423 0.87235 0.0
C351 C 0.13478 0.41121 0.8814 0.0
N352 N 0.11359 0.37212 0.86291 0.0
C353 C 0.099 0.38869 0.87175 0.0
Co354 Co 0.17396 0.09397 0.37582 0.0
Co355 Co 0.12945 0.11409 0.34583 0.0
O356 O 0.14004 0.0977 0.36803 0.0
C357 C 0.14943 0.12049 0.40551 0.0
O358 O 0.1404 0.13462 0.39268 0.0
C359 C 0.11077 0.06405 0.34316 0.0
O360 O 0.13332 0.05728 0.34694 0.0
O361 O 0.15427 0.09629 0.33116 0.0
O362 O 0.18469 0.08563 0.35038 0.0
H363 H 0.14054 0.15882 0.28657 0.0
H364 H 0.13448 0.06696 0.39513 0.0
O365 O 0.16368 0.10276 0.40131 0.0
H366 H 0.19014 0.0032 0.37126 0.0
H367 H 0.24024 0.06767 0.4194 0.0
H368 H 0.22249 0.10871 0.36103 0.0
H369 H 0.19912 0.0471 0.36631 0.0
H370 H 0.19754 0.07203 0.40858 0.0
O371 O 0.10549 0.08677 0.3418 0.0
H372 H 0.15431 0.13887 0.31494 0.0
H373 H 0.08044 0.12251 0.32899 0.0
H374 H 0.26547 0.10418 0.3711 0.0
H375 H 0.12487 0.02328 0.40049 0.0
H376 H 0.27456 0.08374 0.40055 0.0
H377 H 0.15277 0.99106 0.38845 0.0
O378 O 0.18075 0.12901 0.37089 0.0
H379 H 0.06262 0.12188 0.39267 0.0
H380 H 0.11485 0.16665 0.34899 0.0
H381 H 0.08528 0.1896 0.3679 0.0
H382 H 0.05892 0.16718 0.38994 0.0
H383 H 0.09256 0.09968 0.3736 0.0
H384 H 0.06585 0.1421 0.30069 0.0
H385 H 0.096 0.16052 0.2793 0.0
O386 O 0.15364 0.14129 0.34955 0.0
C387 C 0.17533 0.08705 0.33444 0.0
C388 C 0.12721 0.15097 0.29582 0.0
C389 C 0.08529 0.14156 0.30374 0.0
N390 N 0.11817 0.12985 0.3237 0.0
C391 C 0.13489 0.13975 0.31194 0.0
C392 C 0.09365 0.13047 0.31972 0.0
C393 C 0.10222 0.15189 0.29174 0.0
C394 C 0.14684 0.05304 0.39003 0.0
N395 N 0.16741 0.05956 0.38053 0.0
C396 C 0.14125 0.02834 0.39303 0.0
C397 C 0.15689 0.01027 0.38625 0.0
C398 C 0.17786 0.01707 0.37659 0.0
C399 C 0.18284 0.04195 0.37382 0.0
C400 C 0.23652 0.07662 0.40654 0.0
C401 C 0.22632 0.09949 0.37374 0.0
C402 C 0.21239 0.07918 0.40036 0.0
N403 N 0.20757 0.09036 0.38409 0.0
C404 C 0.25068 0.09714 0.37944 0.0
C405 C 0.25576 0.08564 0.39596 0.0
C406 C 0.17216 0.14491 0.35986 0.0
C407 C 0.07395 0.13184 0.38307 0.0
C408 C 0.10344 0.15678 0.35855 0.0
C409 C 0.08671 0.16986 0.3692 0.0
C410 C 0.07191 0.15727 0.38156 0.0
N411 N 0.10533 0.13184 0.36012 0.0
C412 C 0.09085 0.11936 0.37218 0.0
Co413 Co 0.40425 0.17579 0.87684 0.0
Co414 Co 0.38218 0.1291 0.84946 0.0
O415 O 0.40237 0.14155 0.86933 0.0
C416 C 0.38485 0.14868 0.9082 0.0
O417 O 0.37113 0.13733 0.89619 0.0
C418 C 0.43285 0.11767 0.8394 0.0
O419 O 0.43771 0.1406 0.84349 0.0
O420 O 0.39233 0.15647 0.83334 0.0
O421 O 0.40791 0.18665 0.85081 0.0
H422 H 0.32167 0.13491 0.79801 0.0
H423 H 0.43693 0.1394 0.89443 0.0
O424 O 0.3999 0.16526 0.90299 0.0
H425 H 0.49233 0.19879 0.86473 0.0
H426 H 0.4313 0.24468 0.91781 0.0
H427 H 0.38359 0.22267 0.86313 0.0
H428 H 0.44737 0.20412 0.86312 0.0
H429 H 0.42887 0.2016 0.90754 0.0
O430 O 0.41101 0.10947 0.84086 0.0
H431 H 0.34655 0.15077 0.82349 0.0
H432 H 0.37647 0.0798 0.83248 0.0
H433 H 0.38583 0.26599 0.87276 0.0
H434 H 0.48167 0.1338 0.89685 0.0
H435 H 0.40973 0.27722 0.90032 0.0
H436 H 0.50979 0.16338 0.8817 0.0
O437 O 0.36822 0.1797 0.87493 0.0
H438 H 0.39615 0.06086 0.89433 0.0
H439 H 0.33397 0.10687 0.8594 0.0
H440 H 0.32074 0.07385 0.88021 0.0
H441 H 0.35194 0.05061 0.89785 0.0
H442 H 0.40856 0.09414 0.8735 0.0
H443 H 0.35206 0.06318 0.80699 0.0
H444 H 0.32435 0.09081 0.78961 0.0
O445 O 0.35339 0.14889 0.85772 0.0
C446 C 0.40205 0.17761 0.83533 0.0
C447 C 0.33359 0.12266 0.80553 0.0
C448 C 0.35068 0.08241 0.81056 0.0
N449 N 0.36269 0.11616 0.82959 0.0
C450 C 0.34764 0.13152 0.82001 0.0
C451 C 0.36446 0.09192 0.82495 0.0
C452 C 0.33512 0.09792 0.80081 0.0
C453 C 0.44901 0.1526 0.88806 0.0
N454 N 0.43956 0.17214 0.87875 0.0
C455 C 0.47436 0.14921 0.88934 0.0
C456 C 0.49009 0.16585 0.88087 0.0
C457 C 0.48031 0.18572 0.87134 0.0
C458 C 0.45484 0.18861 0.87044 0.0
C459 C 0.42085 0.24002 0.90577 0.0
C460 C 0.39422 0.22744 0.87504 0.0
C461 C 0.41937 0.21567 0.89991 0.0
N462 N 0.4063 0.20969 0.88466 0.0
C463 C 0.39532 0.25199 0.88048 0.0
C464 C 0.40874 0.25827 0.89594 0.0
C465 C 0.35061 0.1682 0.86733 0.0
C466 C 0.38238 0.07081 0.88667 0.0
C467 C 0.34765 0.09682 0.86703 0.0
C468 C 0.34005 0.07813 0.87877 0.0
C469 C 0.35758 0.06509 0.88866 0.0
N470 N 0.37202 0.10233 0.86517 0.0
C471 C 0.38931 0.08959 0.87479 0.0
Co472 Co 0.68812 0.91447 0.87979 0.0
Co473 Co 0.64165 0.8926 0.85211 0.0
O474 O 0.65369 0.9105 0.87323 0.0
C475 C 0.66515 0.88782 0.91002 0.0
O476 O 0.65515 0.8743 0.89725 0.0
C477 C 0.62456 0.94294 0.84702 0.0
O478 O 0.64696 0.94956 0.85139 0.0
O479 O 0.6665 0.90818 0.83622 0.0
O480 O 0.69697 0.92287 0.8539 0.0
H481 H 0.64891 0.842 0.79517 0.0
H482 H 0.64977 0.94101 0.90064 0.0
O483 O 0.67955 0.9054 0.90567 0.0
H484 H 0.70305 0.00539 0.87475 0.0
H485 H 0.75681 0.94148 0.92099 0.0
H486 H 0.73579 0.90038 0.86325 0.0
H487 H 0.712 0.9616 0.8693 0.0
H488 H 0.71352 0.93667 0.91166 0.0
O489 O 0.61864 0.9203 0.84688 0.0
H490 H 0.66452 0.86411 0.82209 0.0
H491 H 0.59182 0.88453 0.8366 0.0
H492 H 0.77932 0.90497 0.87196 0.0
H493 H 0.64023 0.98458 0.90654 0.0
H494 H 0.79005 0.92564 0.90103 0.0
H495 H 0.66695 0.01711 0.8935 0.0
O496 O 0.6952 0.8795 0.87463 0.0
H497 H 0.5763 0.89153 0.90039 0.0
H498 H 0.62534 0.841 0.85818 0.0
H499 H 0.59573 0.82091 0.87879 0.0
H500 H 0.57098 0.84624 0.90009 0.0
H501 H 0.60626 0.91084 0.87965 0.0
H502 H 0.5755 0.86297 0.80966 0.0
H503 H 0.60416 0.84142 0.78876 0.0
O504 O 0.66493 0.86501 0.85675 0.0
C505 C 0.68704 0.91906 0.83836 0.0
C506 C 0.63627 0.85128 0.80418 0.0
C507 C 0.59505 0.86305 0.81232 0.0
N508 N 0.62906 0.8753 0.83103 0.0
C509 C 0.64498 0.86371 0.81951 0.0
C510 C 0.6044 0.87524 0.82753 0.0
C511 C 0.61114 0.85096 0.8006 0.0
C512 C 0.66161 0.95507 0.89507 0.0
N513 N 0.6815 0.94879 0.88474 0.0
C514 C 0.65606 0.9797 0.8984 0.0
C515 C 0.67104 -0.00206 0.89105 0.0
C516 C 0.6913 0.99139 0.88052 0.0
C517 C 0.69625 0.96657 0.87746 0.0
C518 C 0.75237 0.9325 0.90827 0.0
C519 C 0.74034 0.90958 0.87584 0.0
C520 C 0.7279 0.9297 0.90293 0.0
N521 N 0.72218 0.9185 0.88684 0.0
C522 C 0.76501 0.91204 0.88074 0.0
C523 C 0.77101 0.92362 0.89706 0.0
C524 C 0.6851 0.86248 0.86538 0.0
C525 C 0.58692 0.88031 0.89113 0.0
C526 C 0.61461 0.85214 0.86741 0.0
C527 C 0.59786 0.84067 0.87903 0.0
C528 C 0.58397 0.85489 0.89097 0.0
N529 N 0.61741 0.87708 0.86765 0.0
C530 C 0.60382 0.89115 0.87929 0.0
Co531 Co 0.58344 0.68653 0.37872 0.0
Co532 Co 0.60003 0.6363 0.35284 0.0
O533 O 0.5822 0.65177 0.37269 0.0
C534 C 0.60348 0.66046 0.41049 0.0
O535 O 0.61548 0.64727 0.39851 0.0
C536 C 0.54792 0.62987 0.34433 0.0
O537 O 0.54561 0.65314 0.34855 0.0
O538 O 0.59228 0.66373 0.33604 0.0
O539 O 0.5785 0.69576 0.35247 0.0
H540 H 0.65935 0.63297 0.3005 0.0
H541 H 0.54969 0.65351 0.39882 0.0
O542 O 0.58914 0.67756 0.40509 0.0
H543 H 0.49637 0.71485 0.36923 0.0
H544 H 0.56476 0.75997 0.41785 0.0
H545 H 0.60598 0.73081 0.36214 0.0
H546 H 0.54143 0.71715 0.36598 0.0
H547 H 0.56336 0.71617 0.40931 0.0
O548 O 0.5689 0.6195 0.34524 0.0
H549 H 0.63722 0.65264 0.32591 0.0
H550 H 0.59961 0.58597 0.33703 0.0
H551 H 0.60771 0.77479 0.37008 0.0
H552 H 0.50479 0.65063 0.40255 0.0
H553 H 0.58699 0.78961 0.39812 0.0
H554 H 0.47777 0.68134 0.38759 0.0
O555 O 0.6195 0.6877 0.37491 0.0
H556 H 0.58056 0.57233 0.39997 0.0
H557 H 0.64592 0.60946 0.3625 0.0
H558 H 0.65633 0.57625 0.38401 0.0
H559 H 0.62351 0.55747 0.40293 0.0
H560 H 0.571 0.6057 0.3784 0.0
H561 H 0.62119 0.56562 0.31164 0.0
H562 H 0.65137 0.58915 0.29323 0.0
O563 O 0.63098 0.6534 0.36005 0.0
C564 C 0.5838 0.68549 0.3373 0.0
C565 C 0.64631 0.6225 0.30847 0.0
C566 C 0.62487 0.5847 0.31471 0.0
N567 N 0.61733 0.62039 0.33304 0.0
C568 C 0.63379 0.63351 0.32291 0.0
C569 C 0.61268 0.59633 0.32904 0.0
C570 C 0.64181 0.59792 0.30438 0.0
C571 C 0.53809 0.66714 0.39247 0.0
N572 N 0.54817 0.68558 0.3823 0.0
C573 C 0.51265 0.66534 0.39455 0.0
C574 C 0.49751 0.68257 0.38614 0.0
C575 C 0.50794 0.70137 0.37583 0.0
C576 C 0.53346 0.70258 0.37403 0.0
C577 C 0.57382 0.75374 0.40558 0.0
C578 C 0.59679 0.73716 0.3743 0.0
C579 C 0.57312 0.72897 0.4007 0.0
N580 N 0.58442 0.72101 0.38518 0.0
C581 C 0.59789 0.76206 0.37875 0.0
C582 C 0.58629 0.77037 0.3945 0.0
C583 C 0.63576 0.67383 0.3678 0.0
C584 C 0.59501 0.58032 0.39177 0.0
C585 C 0.63155 0.60137 0.37069 0.0
C586 C 0.63754 0.58256 0.38283 0.0
C587 C 0.61912 0.57202 0.39343 0.0
N588 N 0.60786 0.60941 0.36914 0.0
C589 C 0.58969 0.59915 0.37947 0.0
Co590 Co 0.81214 0.58191 0.88045 0.0
Co591 Co 0.8595 0.60439 0.85389 0.0
O592 O 0.84677 0.58636 0.87472 0.0
C593 C 0.83354 0.60832 0.91144 0.0
O594 O 0.84353 0.62246 0.89904 0.0
C595 C 0.87743 0.55428 0.8497 0.0
O596 O 0.85494 0.5476 0.85376 0.0
O597 O 0.83561 0.58849 0.83738 0.0
O598 O 0.80434 0.57388 0.8543 0.0
H599 H 0.85399 0.65474 0.79669 0.0
H600 H 0.84989 0.55534 0.90191 0.0
O601 O 0.81966 0.59055 0.90659 0.0
H602 H 0.79835 0.49094 0.87419 0.0
H603 H 0.74212 0.55355 0.91989 0.0
H604 H 0.76501 0.59588 0.86302 0.0
H605 H 0.78913 0.53475 0.86902 0.0
H606 H 0.78571 0.55892 0.91155 0.0
O607 O 0.88312 0.57696 0.84922 0.0
H608 H 0.83755 0.63255 0.82332 0.0
H609 H 0.90987 0.61321 0.8396 0.0
H610 H 0.7212 0.59073 0.87074 0.0
H611 H 0.85966 0.51177 0.90755 0.0
H612 H 0.70953 0.56943 0.89937 0.0
H613 H 0.83385 0.47923 0.89357 0.0
O614 O 0.80497 0.61689 0.8754 0.0
H615 H 0.92249 0.60638 0.90385 0.0
H616 H 0.87481 0.6562 0.86033 0.0
H617 H 0.90311 0.67671 0.88169 0.0
H618 H 0.92717 0.65175 0.90366 0.0
H619 H 0.89384 0.58664 0.88233 0.0
H620 H 0.92704 0.63495 0.81302 0.0
H621 H 0.89899 0.65599 0.79138 0.0
O622 O 0.83563 0.63164 0.85797 0.0
C623 C 0.81495 0.57769 0.839 0.0
C624 C 0.86636 0.64571 0.80605 0.0
C625 C 0.90738 0.63459 0.81521 0.0
N626 N 0.87276 0.62188 0.83311 0.0
C627 C 0.85719 0.63322 0.8212 0.0
C628 C 0.89756 0.6223 0.83022 0.0
C629 C 0.89164 0.64639 0.80307 0.0
C630 C 0.83841 0.54128 0.89595 0.0
N631 N 0.81888 0.54756 0.88525 0.0
C632 C 0.8441 0.51664 0.89912 0.0
C633 C 0.82963 0.49839 0.89125 0.0
C634 C 0.80972 0.50495 0.88037 0.0
C635 C 0.80461 0.52978 0.87747 0.0
C636 C 0.74698 0.56279 0.90736 0.0
C637 C 0.76006 0.58641 0.87542 0.0
C638 C 0.77161 0.56591 0.90258 0.0
N639 N 0.77785 0.57746 0.88672 0.0
C640 C 0.73523 0.58363 0.87976 0.0
C641 C 0.7287 0.57171 0.89583 0.0
C642 C 0.81518 0.63398 0.86628 0.0
C643 C 0.91217 0.61745 0.8943 0.0
C644 C 0.88525 0.64521 0.86983 0.0
C645 C 0.90125 0.65693 0.88188 0.0
C646 C 0.91476 0.64291 0.8942 0.0
N647 N 0.88281 0.62024 0.87002 0.0
C648 C 0.89602 0.60636 0.88203 0.0
Co649 Co 0.91788 0.80308 0.38165 0.0
Co650 Co 0.8875 0.84616 0.35547 0.0
O651 O 0.90835 0.83655 0.37568 0.0
C652 C 0.89054 0.82171 0.41317 0.0
O653 O 0.87422 0.82887 0.40116 0.0
C654 C 0.9345 0.87031 0.34896 0.0
O655 O 0.94423 0.84874 0.35224 0.0
O656 O 0.90534 0.82401 0.33861 0.0
O657 O 0.92555 0.79582 0.35542 0.0
H658 H 0.83232 0.83199 0.30168 0.0
H659 H 0.93968 0.84501 0.40174 0.0
O660 O 0.90969 0.81015 0.40791 0.0
H661 H 0.00953 0.80304 0.37248 0.0
H662 H 0.95815 0.73918 0.42107 0.0
H663 H 0.91004 0.75391 0.36526 0.0
H664 H 0.96739 0.78693 0.3691 0.0
H665 H 0.94608 0.78124 0.41233 0.0
O666 O 0.91127 0.87309 0.34959 0.0
H667 H 0.85933 0.81964 0.32702 0.0
H668 H 0.87186 0.89446 0.34041 0.0
H669 H 0.92187 0.71158 0.37338 0.0
H670 H 0.98147 0.86161 0.40559 0.0
H671 H 0.9461 0.70401 0.40148 0.0
H672 H 0.01675 0.84071 0.39079 0.0
O673 O 0.88398 0.79069 0.37767 0.0
H674 H 0.88081 0.90956 0.40489 0.0
H675 H 0.83461 0.85529 0.36348 0.0
H676 H 0.81208 0.88138 0.38527 0.0
H677 H 0.83523 0.90874 0.40618 0.0
H678 H 0.90259 0.88305 0.38298 0.0
H679 H 0.84566 0.90762 0.3148 0.0
H680 H 0.82559 0.87625 0.29528 0.0
O681 O 0.86397 0.81911 0.36104 0.0
C682 C 0.91925 0.80527 0.34017 0.0
C683 C 0.84106 0.84582 0.31002 0.0
C684 C 0.84851 0.88828 0.31741 0.0
N685 N 0.86696 0.85632 0.33528 0.0
C686 C 0.85623 0.83894 0.32448 0.0
C687 C 0.86339 0.88072 0.33185 0.0
C688 C 0.83725 0.87066 0.30647 0.0
C689 C 0.95496 0.8356 0.39546 0.0
N690 N 0.95112 0.81493 0.38531 0.0
C691 C 0.97858 0.84517 0.3976 0.0
C692 C -0.00164 0.83344 0.38928 0.0
C693 C 0.99431 0.81231 0.379 0.0
C694 C 0.97042 0.80328 0.37713 0.0
C695 C 0.94765 0.74225 0.40877 0.0
C696 C 0.92076 0.75077 0.37742 0.0
C697 C 0.94074 0.76601 0.40377 0.0
N698 N 0.92759 0.77001 0.38821 0.0
C699 C 0.92732 0.72676 0.38199 0.0
C700 C 0.94089 0.72252 0.39777 0.0
C701 C 0.86502 0.79849 0.36927 0.0
C702 C 0.87052 0.89777 0.39581 0.0
C703 C 0.84479 0.86716 0.37254 0.0
C704 C 0.83194 0.88191 0.38482 0.0
C705 C 0.84494 0.89727 0.39655 0.0
N706 N 0.86987 0.86773 0.37192 0.0
C707 C 0.88275 0.8828 0.38332 0.0
Co708 Co 0.68435 0.58928 0.62928 0.0
Co709 Co 0.63956 0.60963 0.659 0.0
O710 O 0.65047 0.59184 0.63749 0.0
C711 C 0.65766 0.61272 0.59915 0.0
O712 O 0.64805 0.62686 0.61172 0.0
C713 C 0.62472 0.5588 0.665 0.0
O714 O 0.64729 0.55304 0.66044 0.0
O715 O 0.66614 0.59518 0.67394 0.0
O716 O 0.69612 0.58298 0.65485 0.0
H717 H 0.64977 0.66096 0.71532 0.0
H718 H 0.64564 0.55933 0.61159 0.0
O719 O 0.67299 0.59603 0.60364 0.0
H720 H 0.70476 0.49971 0.63675 0.0
H721 H 0.75061 0.56327 0.58562 0.0
H722 H 0.73251 0.60718 0.64276 0.0
H723 H 0.71192 0.54424 0.63995 0.0
H724 H 0.70806 0.56635 0.59698 0.0
O725 O 0.61799 0.5812 0.66531 0.0
H726 H 0.66381 0.63909 0.68781 0.0
H727 H 0.59075 0.61639 0.67656 0.0
H728 H 0.77537 0.60423 0.63205 0.0
H729 H 0.6378 0.51497 0.60802 0.0
H730 H 0.78462 0.58221 0.60326 0.0
H731 H 0.66745 0.48483 0.62071 0.0
O732 O 0.68966 0.62491 0.63286 0.0
H733 H 0.57008 0.60727 0.61402 0.0
H734 H 0.62093 0.66051 0.65314 0.0
H735 H 0.58871 0.67902 0.63391 0.0
H736 H 0.56302 0.65233 0.61418 0.0
H737 H 0.60265 0.58957 0.6333 0.0
H738 H 0.57592 0.63783 0.70403 0.0
H739 H 0.60552 0.66041 0.72357 0.0
O740 O 0.66144 0.63797 0.65311 0.0
C741 C 0.68723 0.58595 0.67082 0.0
C742 C 0.63667 0.6513 0.70686 0.0
C743 C 0.59523 0.63829 0.70054 0.0
N744 N 0.62806 0.62681 0.68047 0.0
C745 C 0.6445 0.63899 0.69123 0.0
C746 C 0.60373 0.62618 0.68501 0.0
C747 C 0.61185 0.65096 0.71149 0.0
C748 C 0.65875 0.54632 0.61697 0.0
N749 N 0.67928 0.55434 0.62586 0.0
C750 C 0.65416 0.52123 0.61498 0.0
C751 C 0.67079 0.50433 0.62213 0.0
C752 C 0.69172 0.51267 0.63114 0.0
C753 C 0.69567 0.53789 0.63292 0.0
C754 C 0.74682 0.57287 0.59821 0.0
C755 C 0.73643 0.59736 0.63031 0.0
C756 C 0.72277 0.57471 0.60468 0.0
N757 N 0.71787 0.5867 0.62061 0.0
C758 C 0.76071 0.59586 0.62427 0.0
C759 C 0.76589 0.58351 0.60811 0.0
C760 C 0.67994 0.64148 0.64276 0.0
C761 C 0.58111 0.61909 0.62259 0.0
C762 C 0.60984 0.64879 0.64456 0.0
C763 C 0.59161 0.65937 0.63373 0.0
C764 C 0.57719 0.64438 0.62267 0.0
N765 N 0.61357 0.62398 0.64441 0.0
C766 C 0.59951 0.60916 0.63361 0.0
Co767 Co 0.91628 0.68818 0.12837 0.0
Co768 Co 0.89929 0.63962 0.15592 0.0
O769 O 0.91519 0.65339 0.1345 0.0
C770 C 0.88901 0.66443 0.09863 0.0
O771 O 0.87698 0.653 0.11157 0.0
C772 C 0.95125 0.62651 0.15974 0.0
O773 O 0.95626 0.6491 0.15478 0.0
O774 O 0.91314 0.66571 0.17173 0.0
O775 O 0.92611 0.69677 0.15391 0.0
H776 H 0.84992 0.6423 0.21366 0.0
H777 H 0.94353 0.65225 0.10572 0.0
O778 O 0.90584 0.67979 0.10276 0.0
H779 H 0.00635 0.70887 0.12976 0.0
H780 H 0.93554 0.75961 0.08733 0.0
H781 H 0.90079 0.73439 0.14644 0.0
H782 H 0.96257 0.71479 0.13724 0.0
H783 H 0.93413 0.71586 0.09603 0.0
O784 O 0.92906 0.6192 0.16066 0.0
H785 H 0.86953 0.65971 0.18628 0.0
H786 H 0.89628 0.58922 0.17152 0.0
H787 H 0.902 0.77834 0.13837 0.0
H788 H 0.98708 0.64576 0.09778 0.0
H789 H 0.91947 0.79119 0.10862 0.0
H790 H 0.01884 0.67415 0.10989 0.0
O791 O 0.8813 0.69291 0.13525 0.0
H792 H 0.90303 0.57488 0.10731 0.0
H793 H 0.84934 0.61818 0.1508 0.0
H794 H 0.83159 0.58687 0.13041 0.0
H795 H 0.85851 0.56498 0.10847 0.0
H796 H 0.91995 0.6065 0.12781 0.0
H797 H 0.87711 0.57107 0.19882 0.0
H798 H 0.85365 0.59767 0.22008 0.0
O799 O 0.86955 0.66012 0.15174 0.0
C800 C 0.92308 0.68671 0.16948 0.0
C801 C 0.86001 0.6305 0.20447 0.0
C802 C 0.8753 0.59053 0.19615 0.0
N803 N 0.88382 0.62545 0.17724 0.0
C804 C 0.87108 0.64024 0.18891 0.0
C805 C 0.88614 0.60091 0.18074 0.0
C806 C 0.86214 0.60547 0.20807 0.0
C807 C 0.95722 0.66483 0.11088 0.0
N808 N 0.95052 0.68397 0.12182 0.0
C809 C 0.98186 0.661 0.10641 0.0
C810 C -0.00033 0.67691 0.11323 0.0
C811 C 0.99268 0.69639 0.12438 0.0
C812 C 0.96787 0.69963 0.12859 0.0
C813 C 0.92792 0.75425 0.10035 0.0
C814 C 0.90857 0.73986 0.13352 0.0
C815 C 0.92704 0.72951 0.10533 0.0
N816 N 0.91756 0.72262 0.12178 0.0
C817 C 0.90913 0.76476 0.129 0.0
C818 C 0.91891 0.77196 0.1123 0.0
C819 C 0.86534 0.6808 0.14423 0.0
C820 C 0.89111 0.58426 0.11683 0.0
C821 C 0.86115 0.60876 0.14126 0.0
C822 C 0.85101 0.59102 0.12978 0.0
C823 C 0.86613 0.57873 0.11748 0.0
N824 N 0.88566 0.6141 0.14053 0.0
C825 C 0.90061 0.6021 0.12853 0.0
Co826 Co 0.81978 0.91134 0.63 0.0
Co827 Co 0.86481 0.8914 0.65976 0.0
O828 O 0.85373 0.90902 0.63818 0.0
C829 C 0.84637 0.88703 0.60019 0.0
O830 O 0.85699 0.87404 0.61299 0.0
C831 C 0.87762 0.94261 0.6664 0.0
O832 O 0.8552 0.94748 0.66098 0.0
O833 O 0.83758 0.90487 0.67457 0.0
O834 O 0.80826 0.91851 0.65547 0.0
H835 H 0.85524 0.83924 0.71573 0.0
H836 H 0.85825 0.94036 0.61128 0.0
O837 O 0.83074 0.90354 0.60445 0.0
H838 H 0.80015 0.00133 0.63591 0.0
H839 H 0.75324 0.93627 0.58622 0.0
H840 H 0.7716 0.89441 0.64417 0.0
H841 H 0.7927 0.95698 0.64008 0.0
H842 H 0.79591 0.93307 0.5973 0.0
O843 O 0.88538 0.92052 0.66653 0.0
H844 H 0.841 0.86097 0.68822 0.0
H845 H 0.91351 0.88593 0.67773 0.0
H846 H 0.7286 0.89792 0.63387 0.0
H847 H 0.86622 0.98445 0.60656 0.0
H848 H 0.71923 0.91869 0.60462 0.0
H849 H 0.83719 0.01532 0.61908 0.0
O850 O 0.81443 0.87586 0.63427 0.0
H851 H 0.93473 0.89617 0.61527 0.0
H852 H 0.88502 0.84118 0.65385 0.0
H853 H 0.91794 0.82375 0.63473 0.0
H854 H 0.94304 0.85133 0.61525 0.0
H855 H 0.90152 0.91279 0.6345 0.0
H856 H 0.92855 0.86466 0.70522 0.0
H857 H 0.89932 0.84101 0.72438 0.0
O858 O 0.84382 0.86249 0.65352 0.0
C859 C 0.81678 0.91472 0.67145 0.0
C860 C 0.86818 0.84936 0.70744 0.0
C861 C 0.90932 0.86366 0.70155 0.0
N862 N 0.87647 0.87436 0.68125 0.0
C863 C 0.86024 0.86159 0.6918 0.0
C864 C 0.9007 0.87567 0.68601 0.0
C865 C 0.89291 0.85039 0.71229 0.0
C866 C 0.84534 0.95366 0.61654 0.0
N867 N 0.82496 0.94612 0.62584 0.0
C868 C 0.85003 0.97862 0.61393 0.0
C869 C 0.83373 0.99591 0.62095 0.0
C870 C 0.81296 0.98807 0.63041 0.0
C871 C 0.80884 0.96295 0.63274 0.0
C872 C 0.7571 0.92713 0.59898 0.0
C873 C 0.76763 0.90379 0.63154 0.0
C874 C 0.78122 0.9252 0.6053 0.0
N875 N 0.78619 0.91378 0.62145 0.0
C876 C 0.74327 0.90555 0.62572 0.0
C877 C 0.73802 0.91727 0.60931 0.0
C878 C 0.82481 0.85912 0.64365 0.0
C879 C 0.92396 0.88397 0.62373 0.0
C880 C 0.89587 0.85328 0.64541 0.0
C881 C 0.9145 0.84332 0.63463 0.0
C882 C 0.92859 0.85881 0.62371 0.0
N883 N 0.89146 0.87798 0.64535 0.0
C884 C 0.90521 0.89329 0.63471 0.0
Co885 Co 0.58208 0.80014 0.12492 0.0
Co886 Co 0.605 0.84702 0.15169 0.0
O887 O 0.58825 0.83461 0.13023 0.0
C888 C 0.61289 0.81875 0.09521 0.0
O889 O 0.6269 0.82747 0.1082 0.0
C890 C 0.55592 0.86849 0.15278 0.0
O891 O 0.54801 0.84629 0.14908 0.0
O892 O 0.58596 0.82483 0.16775 0.0
O893 O 0.57091 0.79398 0.1506 0.0
H894 H 0.64966 0.83982 0.21127 0.0
H895 H 0.5605 0.83876 0.10128 0.0
O896 O 0.59381 0.80622 0.09927 0.0
H897 H 0.48995 0.79282 0.12605 0.0
H898 H 0.55294 0.73084 0.08514 0.0
H899 H 0.59074 0.75283 0.14391 0.0
H900 H 0.53235 0.78092 0.13398 0.0
H901 H 0.56061 0.77422 0.09302 0.0
O902 O 0.57887 0.87257 0.15437 0.0
H903 H 0.62895 0.82424 0.18375 0.0
H904 H 0.61565 0.89719 0.16583 0.0
H905 H 0.58323 0.70925 0.13667 0.0
H906 H 0.51844 0.85114 0.09286 0.0
H907 H 0.56419 0.69802 0.10709 0.0
H908 H 0.4828 0.82816 0.10533 0.0
O909 O 0.61586 0.79064 0.13227 0.0
H910 H 0.61578 0.90709 0.10041 0.0
H911 H 0.65811 0.85944 0.14809 0.0
H912 H 0.68238 0.88545 0.12729 0.0
H913 H 0.66119 0.90948 0.10321 0.0
H914 H 0.59227 0.88074 0.12144 0.0
H915 H 0.63606 0.91359 0.19325 0.0
H916 H 0.65333 0.88482 0.21616 0.0
O917 O 0.63099 0.8214 0.14943 0.0
C918 C 0.57392 0.8049 0.16586 0.0
C919 C 0.64231 0.85256 0.20135 0.0
C920 C 0.63464 0.89396 0.19125 0.0
N921 N 0.62135 0.8598 0.17312 0.0
C922 C 0.63064 0.84384 0.18571 0.0
C923 C 0.62308 0.88457 0.17577 0.0
C924 C 0.64433 0.8778 0.2041 0.0
C925 C 0.5451 0.8285 0.1066 0.0
N926 N 0.54887 0.80904 0.11801 0.0
C927 C 0.52132 0.83567 0.10186 0.0
C928 C 0.50133 0.82279 0.10888 0.0
C929 C 0.50533 0.80296 0.12051 0.0
C930 C 0.52937 0.79633 0.12497 0.0
C931 C 0.56118 0.7355 0.09809 0.0
C932 C 0.58227 0.74809 0.13108 0.0
C933 C 0.5656 0.76002 0.10261 0.0
N934 N 0.57587 0.76603 0.11898 0.0
C935 C 0.57815 0.72338 0.12703 0.0
C936 C 0.56749 0.7171 0.11042 0.0
C937 C 0.63267 0.80026 0.14204 0.0
C938 C 0.62522 0.89677 0.11087 0.0
C939 C 0.64878 0.86986 0.13766 0.0
C940 C 0.66261 0.88458 0.12593 0.0
C941 C 0.6507 0.89807 0.11244 0.0
N942 N 0.62381 0.86865 0.13602 0.0
C943 C 0.61199 0.8819 0.12287 0.0
H944 H 0.36133 0.10909 0.92242 0.0
H945 H 0.35272 0.10043 0.9543 0.0
H946 H 0.39219 0.16572 0.97011 0.0
H947 H 0.40132 0.17438 0.938 0.0
H948 H 0.40116 0.12758 0.99336 0.0
H949 H 0.33053 0.16673 0.9676 0.0
H950 H 0.29754 0.17282 0.94506 0.0
H951 H 0.26845 0.10144 0.95739 0.0
H952 H 0.30152 0.09475 0.97982 0.0
H953 H 0.35022 0.14029 0.08084 0.0
H954 H 0.36101 0.14702 0.04911 0.0
H955 H 0.32243 0.08092 0.03397 0.0
H956 H 0.31106 0.07418 0.06593 0.0
H957 H 0.31333 0.11907 0.01046 0.0
H958 H 0.38426 0.08096 0.03727 0.0
H959 H 0.41629 0.07684 0.06081 0.0
H960 H 0.44432 0.1482 0.04716 0.0
H961 H 0.41217 0.15293 0.02374 0.0
C962 C 0.36834 0.12159 0.93265 0.0
C963 C 0.38174 0.14263 0.92768 0.0
C964 C 0.36336 0.1166 0.95088 0.0
C965 C 0.37137 0.13268 0.96455 0.0
C966 C 0.38572 0.15314 0.95975 0.0
C967 C 0.39088 0.15809 0.94142 0.0
C968 C 0.36381 0.12854 0.98372 0.0
C969 C 0.38197 0.126 0.99714 0.0
C970 C 0.33874 0.12608 0.9886 0.0
C971 C 0.31865 0.13015 0.97527 0.0
C972 C 0.3172 0.15226 0.96542 0.0
C973 C 0.29848 0.15582 0.95267 0.0
C974 C 0.28094 0.1375 0.94976 0.0
C975 C 0.28206 0.1156 0.95964 0.0
C976 C 0.30079 0.11192 0.97238 0.0
C977 C 0.3439 0.12715 0.07081 0.0
C978 C 0.32985 0.10659 0.07593 0.0
C979 C 0.3502 0.13102 0.05266 0.0
C980 C 0.34288 0.11427 0.03923 0.0
C981 C 0.32835 0.09401 0.04417 0.0
C982 C 0.32192 0.09015 0.06241 0.0
C983 C 0.35066 0.11797 0.02008 0.0
C984 C 0.33253 0.12051 0.00666 0.0
C985 C 0.37573 0.12058 0.01525 0.0
C986 C 0.39569 0.11737 0.02882 0.0
C987 C 0.3972 0.09581 0.03932 0.0
C988 C 0.41537 0.09337 0.05266 0.0
C989 C 0.43229 0.11227 0.0555 0.0
C990 C 0.43118 0.13358 0.04494 0.0
C991 C 0.41301 0.13614 0.03162 0.0
H992 H 0.44629 0.11038 0.06587 0.0
H993 H 0.26646 0.1403 0.93988 0.0
H994 H 0.31433 0.4055 0.44299 0.0
H995 H 0.32617 0.39422 0.47403 0.0
H996 H 0.37785 0.34144 0.45285 0.0
H997 H 0.36609 0.35246 0.42183 0.0
H998 H 0.35056 0.32235 0.48058 0.0
H999 H 0.39811 0.39496 0.46947 0.0
H1000 H 0.40483 0.43805 0.46047 0.0
H1001 H 0.35768 0.46226 0.50374 0.0
H1002 H 0.35038 0.41927 0.51284 0.0
H1003 H 0.41324 0.30188 0.56502 0.0
H1004 H 0.4042 0.31239 0.53323 0.0
H1005 H 0.35127 0.36611 0.55116 0.0
H1006 H 0.36014 0.35584 0.58276 0.0
H1007 H 0.38106 0.38429 0.52464 0.0
H1008 H 0.33114 0.31269 0.5345 0.0
H1009 H 0.32276 0.26988 0.54342 0.0
H1010 H 0.37345 0.24417 0.50292 0.0
H1011 H 0.38215 0.28691 0.49376 0.0
C1012 C 0.32826 0.39153 0.44493 0.0
C1013 C 0.33928 0.37991 0.42993 0.0
C1014 C 0.33505 0.38516 0.46267 0.0
C1015 C 0.35302 0.36711 0.46574 0.0
C1016 C 0.36394 0.3554 0.45079 0.0
C1017 C 0.35723 0.3618 0.43307 0.0
C1018 C 0.36034 0.36032 0.48453 0.0
C1019 C 0.3576 0.33582 0.49013 0.0
C1020 C 0.36904 0.37799 0.49709 0.0
C1021 C 0.37352 0.40387 0.49173 0.0
C1022 C 0.38902 0.40946 0.47698 0.0
C1023 C 0.39296 0.43387 0.47187 0.0
C1024 C 0.38164 0.45288 0.4815 0.0
C1025 C 0.36642 0.44752 0.49628 0.0
C1026 C 0.36239 0.42313 0.50143 0.0
C1027 C 0.39968 0.31591 0.56216 0.0
C1028 C 0.38735 0.32794 0.5764 0.0
C1029 C 0.39448 0.32184 0.54401 0.0
C1030 C 0.37696 0.33994 0.53985 0.0
C1031 C 0.36486 0.3521 0.55406 0.0
C1032 C 0.36989 0.3461 0.57213 0.0
C1033 C 0.37115 0.34638 0.5207 0.0
C1034 C 0.37418 0.37081 0.51504 0.0
C1035 C 0.36262 0.32868 0.50811 0.0
C1036 C 0.35751 0.30299 0.51359 0.0
C1037 C 0.34066 0.29792 0.5276 0.0
C1038 C 0.33581 0.27366 0.53268 0.0
C1039 C 0.34768 0.25431 0.52383 0.0
C1040 C 0.36432 0.25918 0.5098 0.0
C1041 C 0.36917 0.28341 0.50462 0.0
H1042 H 0.34392 0.23554 0.5278 0.0
H1043 H 0.38472 0.47177 0.47752 0.0
H1044 H 0.1321 0.37107 0.92179 0.0
H1045 H 0.14253 0.38383 0.95265 0.0
H1046 H 0.08927 0.33295 0.97428 0.0
H1047 H 0.07841 0.32024 0.9433 0.0
H1048 H 0.08799 0.37627 0.99229 0.0
H1049 H 0.14999 0.31875 0.97399 0.0
H1050 H 0.18211 0.30183 0.95394 0.0
H1051 H 0.22472 0.36761 0.96038 0.0
H1052 H 0.19266 0.38508 0.98027 0.0
H1053 H 0.1313 0.36541 0.08224 0.0
H1054 H 0.11951 0.35832 0.05075 0.0
H1055 H 0.17351 0.41105 0.03287 0.0
H1056 H 0.18581 0.41807 0.06461 0.0
H1057 H 0.17467 0.36917 0.01256 0.0
H1058 H 0.1129 0.42559 0.03257 0.0
H1059 H 0.08085 0.44125 0.05325 0.0
H1060 H 0.03778 0.37636 0.04413 0.0
H1061 H 0.06974 0.36012 0.0236 0.0
C1062 C 0.12251 0.3626 0.93308 0.0
C1063 C 0.10457 0.34444 0.93008 0.0
C1064 C 0.12855 0.36991 0.95073 0.0
C1065 C 0.11699 0.35906 0.96579 0.0
C1066 C 0.09849 0.3415 0.96285 0.0
C1067 C 0.09235 0.33422 0.94515 0.0
C1068 C 0.12464 0.36566 0.98458 0.0
C1069 C 0.10689 0.37448 0.99678 0.0
C1070 C 0.14942 0.36385 0.99033 0.0
C1071 C 0.1688 0.35333 0.97847 0.0
C1072 C 0.16612 0.32969 0.97102 0.0
C1073 C 0.18433 0.31998 0.9597 0.0
C1074 C 0.20541 0.33366 0.95585 0.0
C1075 C 0.20836 0.35705 0.96335 0.0
C1076 C 0.19018 0.36686 0.97466 0.0
C1077 C 0.14071 0.37561 0.07167 0.0
C1078 C 0.15953 0.39235 0.07597 0.0
C1079 C 0.13382 0.3716 0.05364 0.0
C1080 C 0.14539 0.38438 0.03946 0.0
C1081 C 0.16427 0.40106 0.04363 0.0
C1082 C 0.17122 0.40511 0.06176 0.0
C1083 C 0.13802 0.37971 0.0203 0.0
C1084 C 0.15581 0.37118 0.00803 0.0
C1085 C 0.11326 0.38167 0.01453 0.0
C1086 C 0.09381 0.39156 0.02664 0.0
C1087 C 0.09666 0.41458 0.03506 0.0
C1088 C 0.0785 0.42357 0.04674 0.0
C1089 C 0.05732 0.40979 0.05003 0.0
C1090 C 0.0542 0.38701 0.04158 0.0
C1091 C 0.07232 0.37792 0.0299 0.0
H1092 H 0.04329 0.41677 0.0591 0.0
H1093 H 0.21949 0.32612 0.94708 0.0
H1094 H 0.07951 0.1937 0.56599 0.0
H1095 H 0.0862 0.18643 0.53339 0.0
H1096 H 0.13688 0.12805 0.54623 0.0
H1097 H 0.13058 0.13529 0.57856 0.0
H1098 H 0.15552 0.15752 0.52075 0.0
H1099 H 0.07863 0.11609 0.53145 0.0
H1100 H 0.03553 0.11296 0.54151 0.0
H1101 H 0.01462 0.16808 0.50269 0.0
H1102 H 0.05769 0.17178 0.49258 0.0
H1103 H 0.16695 0.09727 0.43595 0.0
H1104 H 0.15727 0.10656 0.46773 0.0
H1105 H 0.10838 0.16435 0.45042 0.0
H1106 H 0.11767 0.155 0.41865 0.0
H1107 H 0.08828 0.13767 0.47762 0.0
H1108 H 0.16497 0.17804 0.46619 0.0
H1109 H 0.20805 0.18105 0.45608 0.0
H1110 H 0.2294 0.12805 0.49635 0.0
H1111 H 0.18636 0.12444 0.50653 0.0
C1112 C 0.09201 0.17928 0.56183 0.0
C1113 C 0.10456 0.16515 0.57487 0.0
C1114 C 0.09577 0.1751 0.54322 0.0
C1115 C 0.112 0.15662 0.53738 0.0
C1116 C 0.12438 0.14247 0.5504 0.0
C1117 C 0.12069 0.14663 0.56892 0.0
C1118 C 0.11654 0.15206 0.51774 0.0
C1119 C 0.14084 0.15293 0.51137 0.0
C1120 C 0.09732 0.14668 0.50539 0.0
C1121 C 0.07142 0.14441 0.5114 0.0
C1122 C 0.06487 0.12769 0.52516 0.0
C1123 C 0.04044 0.12578 0.53086 0.0
C1124 C 0.02236 0.14037 0.52278 0.0
C1125 C 0.02865 0.15683 0.50896 0.0
C1126 C 0.05307 0.15883 0.50323 0.0
C1127 C 0.15409 0.11191 0.4389 0.0
C1128 C 0.14323 0.12551 0.42477 0.0
C1129 C 0.14864 0.11726 0.45707 0.0
C1130 C 0.13234 0.13637 0.46145 0.0
C1131 C 0.12105 0.14958 0.44736 0.0
C1132 C 0.12649 0.14426 0.4292 0.0
C1133 C 0.1273 0.14279 0.48073 0.0
C1134 C 0.10294 0.14234 0.487 0.0
C1135 C 0.14646 0.14856 0.49302 0.0
C1136 C 0.17239 0.15081 0.48701 0.0
C1137 C 0.17882 0.16689 0.4728 0.0
C1138 C 0.20324 0.16872 0.46707 0.0
C1139 C 0.22144 0.15471 0.47554 0.0
C1140 C 0.21527 0.13887 0.48979 0.0
C1141 C 0.19087 0.13694 0.49555 0.0
H1142 H 0.24034 0.15615 0.47108 0.0
H1143 H 0.00345 0.13886 0.52721 0.0
H1144 H 0.64889 0.84932 0.08296 0.0
H1145 H 0.65742 0.86154 0.0517 0.0
H1146 H 0.59882 0.81475 0.03272 0.0
H1147 H 0.58976 0.80274 0.06416 0.0
H1148 H 0.67175 0.83715 0.02248 0.0
H1149 H 0.572 0.84081 0.99545 0.0
H1150 H 0.53009 0.8479 0.0071 0.0
H1151 H 0.55915 0.89136 0.05084 0.0
H1152 H 0.60118 0.88485 0.0393 0.0
H1153 H 0.63042 0.85633 0.92285 0.0
H1154 H 0.62182 0.84542 0.95437 0.0
H1155 H 0.678 0.89565 0.9725 0.0
H1156 H 0.68693 0.90662 0.94078 0.0
H1157 H 0.60644 0.87231 0.98325 0.0
H1158 H 0.70593 0.86965 0.01014 0.0
H1159 H 0.74796 0.86268 0.99867 0.0
H1160 H 0.71947 0.81783 0.95549 0.0
H1161 H 0.67733 0.82425 0.96685 0.0
C1162 C 0.63782 0.8415 0.07216 0.0
C1163 C 0.61858 0.82506 0.07606 0.0
C1164 C 0.64278 0.84851 0.05427 0.0
C1165 C 0.62863 0.83929 0.03986 0.0
C1166 C 0.60973 0.82243 0.04365 0.0
C1167 C 0.60464 0.81549 0.06161 0.0
C1168 C 0.63362 0.84758 0.02095 0.0
C1169 C 0.65752 0.84513 0.01399 0.0
C1170 C 0.615 0.85765 0.00975 0.0
C1171 C 0.58975 0.86211 0.01661 0.0
C1172 C 0.56943 0.85197 0.0075 0.0
C1173 C 0.54566 0.85587 0.01409 0.0
C1174 C 0.54197 0.87 0.02973 0.0
C1175 C 0.56204 0.88035 0.03877 0.0
C1176 C 0.58584 0.87654 0.03221 0.0
C1177 C 0.641 0.86511 0.9335 0.0
C1178 C 0.65952 0.88223 0.92929 0.0
C1179 C 0.63594 0.85892 0.95154 0.0
C1180 C 0.64939 0.86953 0.96577 0.0
C1181 C 0.66759 0.88702 0.96169 0.0
C1182 C 0.67261 0.89334 0.94358 0.0
C1183 C 0.64453 0.86185 0.98482 0.0
C1184 C 0.62065 0.8644 0.99178 0.0
C1185 C 0.66318 0.85195 0.99605 0.0
C1186 C 0.68847 0.84768 0.98923 0.0
C1187 C 0.70865 0.85824 0.99823 0.0
C1188 C 0.73249 0.85439 0.99175 0.0
C1189 C 0.73637 0.8399 0.97632 0.0
C1190 C 0.71643 0.82914 0.96739 0.0
C1191 C 0.69257 0.8329 0.97383 0.0
H1192 H 0.75484 0.83696 0.97132 0.0
H1193 H 0.52355 0.87296 0.03483 0.0
H1194 H 0.6743 0.58795 0.56903 0.0
H1195 H 0.66371 0.59575 0.53716 0.0
H1196 H 0.61549 0.65449 0.55373 0.0
H1197 H 0.62555 0.64653 0.58554 0.0
H1198 H 0.59444 0.62793 0.52769 0.0
H1199 H 0.6729 0.66624 0.53665 0.0
H1200 H 0.71648 0.66815 0.54568 0.0
H1201 H 0.7343 0.61312 0.50598 0.0
H1202 H 0.69073 0.61063 0.49689 0.0
H1203 H 0.58417 0.68507 0.43992 0.0
H1204 H 0.59207 0.67689 0.47225 0.0
H1205 H 0.6391 0.61631 0.45759 0.0
H1206 H 0.63153 0.62438 0.42549 0.0
H1207 H 0.66044 0.64478 0.48283 0.0
H1208 H 0.58159 0.60657 0.47401 0.0
H1209 H 0.53799 0.60518 0.46498 0.0
H1210 H 0.52093 0.66085 0.50438 0.0
H1211 H 0.56453 0.66282 0.51347 0.0
C1212 C 0.66138 0.60247 0.56589 0.0
C1213 C 0.65093 0.61672 0.57983 0.0
C1214 C 0.65541 0.60698 0.54766 0.0
C1215 C 0.63904 0.62595 0.54303 0.0
C1216 C 0.62818 0.6398 0.55696 0.0
C1217 C 0.63407 0.63527 0.57515 0.0
C1218 C 0.63348 0.63166 0.52367 0.0
C1219 C 0.60886 0.63191 0.51793 0.0
C1220 C 0.65228 0.63651 0.51085 0.0
C1221 C 0.67851 0.63808 0.51622 0.0
C1222 C 0.68608 0.65442 0.52994 0.0
C1223 C 0.71078 0.65562 0.53506 0.0
C1224 C 0.72814 0.64072 0.52645 0.0
C1225 C 0.72083 0.62463 0.51266 0.0
C1226 C 0.69613 0.62332 0.50751 0.0
C1227 C 0.5961 0.66996 0.44361 0.0
C1228 C 0.60725 0.65544 0.43011 0.0
C1229 C 0.60056 0.66526 0.46208 0.0
C1230 C 0.61613 0.64591 0.46734 0.0
C1231 C 0.62712 0.63138 0.45387 0.0
C1232 C 0.62269 0.63602 0.43549 0.0
C1233 C 0.62143 0.64088 0.48682 0.0
C1234 C 0.64602 0.64082 0.4926 0.0
C1235 C 0.6026 0.63628 0.49966 0.0
C1236 C 0.57636 0.63502 0.49428 0.0
C1237 C 0.56858 0.61866 0.48065 0.0
C1238 C 0.54386 0.61774 0.47553 0.0
C1239 C 0.52671 0.63297 0.48406 0.0
C1240 C 0.53424 0.64909 0.49776 0.0
C1241 C 0.55895 0.65011 0.50291 0.0
H1242 H 0.50758 0.63223 0.48008 0.0
H1243 H 0.74726 0.64168 0.53043 0.0
H1244 H 0.81359 0.58598 0.9416 0.0
H1245 H 0.82276 0.59484 0.97363 0.0
H1246 H 0.8747 0.65036 0.95711 0.0
H1247 H 0.86592 0.64153 0.92527 0.0
H1248 H 0.8933 0.62226 0.98379 0.0
H1249 H 0.81808 0.66601 0.97242 0.0
H1250 H 0.77493 0.67048 0.96278 0.0
H1251 H 0.75244 0.61926 0.00399 0.0
H1252 H 0.79554 0.61422 0.0137 0.0
H1253 H 0.90887 0.68502 0.06784 0.0
H1254 H 0.89907 0.67508 0.03614 0.0
H1255 H 0.84643 0.62114 0.05426 0.0
H1256 H 0.85579 0.63116 0.08584 0.0
H1257 H 0.82796 0.64753 0.02695 0.0
H1258 H 0.90309 0.6042 0.03867 0.0
H1259 H 0.94621 0.59993 0.04844 0.0
H1260 H 0.96888 0.65022 0.00668 0.0
H1261 H 0.92582 0.65508 0.99682 0.0
C1262 C 0.82697 0.60005 0.94482 0.0
C1263 C 0.8389 0.61313 0.93088 0.0
C1264 C 0.83213 0.60515 0.96311 0.0
C1265 C 0.84927 0.62343 0.96776 0.0
C1266 C 0.86142 0.63621 0.95386 0.0
C1267 C 0.85626 0.63118 0.93564 0.0
C1268 C 0.85464 0.62942 0.98708 0.0
C1269 C 0.87905 0.62803 0.99318 0.0
C1270 C 0.83599 0.63648 0.99944 0.0
C1271 C 0.81007 0.63953 0.99364 0.0
C1272 C 0.80396 0.65554 0.97932 0.0
C1273 C 0.77951 0.65821 0.97386 0.0
C1274 C 0.76096 0.64511 0.98273 0.0
C1275 C 0.76683 0.62936 0.99711 0.0
C1276 C 0.79126 0.6266 1.0026 0.0
C1277 C 0.89519 0.67107 0.06506 0.0
C1278 C 0.88317 0.65886 0.07938 0.0
C1279 C 0.88967 0.66534 0.04695 0.0
C1280 C 0.87218 0.64717 0.04282 0.0
C1281 C 0.85996 0.63522 0.0571 0.0
C1282 C 0.86541 0.64095 0.07517 0.0
C1283 C 0.86664 0.64045 0.02365 0.0
C1284 C 0.84221 0.64169 0.01758 0.0
C1285 C 0.88527 0.63323 0.01132 0.0
C1286 C 0.9112 0.63018 0.01712 0.0
C1287 C 0.91725 0.61449 0.03165 0.0
C1288 C 0.94168 0.61194 0.0372 0.0
C1289 C 0.96026 0.62484 0.02822 0.0
C1290 C 0.95446 0.64026 0.01364 0.0
C1291 C 0.93004 0.64291 0.00806 0.0
H1292 H 0.97917 0.62285 0.03253 0.0
H1293 H 0.74203 0.6472 0.97849 0.0
H1294 H 0.9183 0.80779 0.44267 0.0
H1295 H 0.91196 0.81938 0.47458 0.0
H1296 H 0.84849 0.86203 0.45924 0.0
H1297 H 0.85472 0.85077 0.42748 0.0
H1298 H 0.87759 0.88696 0.48272 0.0
H1299 H 0.84145 0.80665 0.47856 0.0
H1300 H 0.84086 0.76243 0.47138 0.0
H1301 H 0.89911 0.74995 0.50969 0.0
H1302 H 0.9003 0.79419 0.51689 0.0
H1303 H 0.82265 0.90393 0.56972 0.0
H1304 H 0.83125 0.89323 0.538 0.0
H1305 H 0.89177 0.84774 0.55534 0.0
H1306 H 0.88298 0.85789 0.58702 0.0
H1307 H 0.86526 0.82427 0.53085 0.0
H1308 H 0.9007 0.90483 0.53549 0.0
H1309 H 0.90101 0.94912 0.54248 0.0
H1310 H 0.8439 0.96124 0.50319 0.0
H1311 H 0.843 0.91696 0.49614 0.0
C1312 C 0.90298 0.8196 0.44611 0.0
C1313 C 0.88694 0.82822 0.43254 0.0
C1314 C 0.89935 0.82617 0.46434 0.0
C1315 C 0.87964 0.84144 0.46929 0.0
C1316 C 0.86381 0.85025 0.45573 0.0
C1317 C 0.86735 0.84365 0.43758 0.0
C1318 C 0.87532 0.84828 0.48858 0.0
C1319 C 0.87466 0.87327 0.49323 0.0
C1320 C 0.87195 0.83041 0.50233 0.0
C1321 C 0.87114 0.80377 0.49812 0.0
C1322 C 0.85427 0.79451 0.48535 0.0
C1323 C 0.8538 0.76943 0.48129 0.0
C1324 C 0.86998 0.7534 0.49004 0.0
C1325 C 0.88662 0.7624 0.5029 0.0
C1326 C 0.88719 0.78747 0.50698 0.0
C1327 C 0.83788 0.89177 0.56676 0.0
C1328 C 0.85211 0.88175 0.58089 0.0
C1329 C 0.84282 0.88572 0.54862 0.0
C1330 C 0.86231 0.86982 0.54425 0.0
C1331 C 0.87662 0.85998 0.55836 0.0
C1332 C 0.87159 0.86587 0.57647 0.0
C1333 C 0.86753 0.86301 0.52504 0.0
C1334 C 0.86832 0.838 0.52039 0.0
C1335 C 0.871 0.88088 0.51128 0.0
C1336 C 0.87163 0.90755 0.51541 0.0
C1337 C 0.88809 0.91692 0.52843 0.0
C1338 C 0.88839 0.94202 0.53239 0.0
C1339 C 0.87245 0.95797 0.52332 0.0
C1340 C 0.85622 0.94886 0.51022 0.0
C1341 C 0.85582 0.92377 0.50622 0.0
H1342 H 0.8727 0.9774 0.5264 0.0
H1343 H 0.8696 0.73399 0.48689 0.0
H1344 H 0.23512 0.35201 0.12538 0.0
H1345 H 0.25365 0.31134 0.12481 0.0
H1346 H 0.18497 0.27931 0.1421 0.0
H1347 H 0.16643 0.3201 0.14329 0.0
H1348 H 0.22095 0.26117 0.16123 0.0
H1349 H 0.20639 0.27338 0.09789 0.0
H1350 H 0.20746 0.29525 0.06852 0.0
H1351 H 0.28632 0.29384 0.06916 0.0
H1352 H 0.28573 0.27228 0.09869 0.0
H1353 H 0.25692 0.13799 0.13774 0.0
H1354 H 0.23613 0.17784 0.13664 0.0
H1355 H 0.30622 0.21469 0.13792 0.0
H1356 H 0.3272 0.17495 0.13947 0.0
H1357 H 0.26838 0.229 0.10871 0.0
H1358 H 0.28144 0.21898 0.17363 0.0
H1359 H 0.27908 0.19648 0.2027 0.0
H1360 H 0.2006 0.19223 0.19774 0.0
H1361 H 0.20254 0.21454 0.16852 0.0
C1362 C 0.22385 0.33631 0.12889 0.0
C1363 C 0.19929 0.33927 0.13436 0.0
C1364 C 0.23446 0.31305 0.12849 0.0
C1365 C 0.22059 0.29228 0.13319 0.0
C1366 C 0.19597 0.29513 0.13841 0.0
C1367 C 0.18541 0.31843 0.13904 0.0
C1368 C 0.23216 0.26775 0.13348 0.0
C1369 C 0.23096 0.254 0.14962 0.0
C1370 C 0.24557 0.25856 0.11843 0.0
C1371 C 0.24601 0.27139 0.1006 0.0
C1372 C 0.22396 0.27789 0.09184 0.0
C1373 C 0.22448 0.29021 0.07515 0.0
C1374 C 0.24694 0.29598 0.067 0.0
C1375 C 0.26893 0.28938 0.0755 0.0
C1376 C 0.26852 0.27709 0.09221 0.0
C1377 C 0.26789 0.15459 0.13781 0.0
C1378 C 0.29364 0.15346 0.13871 0.0
C1379 C 0.25601 0.17724 0.13721 0.0
C1380 C 0.26975 0.19897 0.13719 0.0
C1381 C 0.29544 0.19797 0.13792 0.0
C1382 C 0.30733 0.17533 0.1389 0.0
C1383 C 0.2572 0.22282 0.13642 0.0
C1384 C 0.25821 0.23629 0.1202 0.0
C1385 C 0.24338 0.23163 0.15128 0.0
C1386 C 0.24217 0.21816 0.1688 0.0
C1387 C 0.26371 0.21302 0.17865 0.0
C1388 C 0.26244 0.20038 0.19518 0.0
C1389 C 0.23971 0.19286 0.20204 0.0
C1390 C 0.21819 0.19803 0.1924 0.0
C1391 C 0.21937 0.21071 0.17586 0.0
H1392 H 0.23876 0.18307 0.21484 0.0
H1393 H 0.24731 0.30552 0.05408 0.0
H1394 H 0.36107 0.25353 0.6364 0.0
H1395 H 0.32183 0.23192 0.63655 0.0
H1396 H 0.28422 0.30003 0.64775 0.0
H1397 H 0.32354 0.32163 0.64831 0.0
H1398 H 0.26427 0.26416 0.66656 0.0
H1399 H 0.2882 0.27631 0.60445 0.0
H1400 H 0.31623 0.27407 0.57816 0.0
H1401 H 0.31571 0.19533 0.58119 0.0
H1402 H 0.28805 0.19713 0.60777 0.0
H1403 H 0.14631 0.23327 0.633 0.0
H1404 H 0.18732 0.25144 0.63393 0.0
H1405 H 0.21949 0.17932 0.63812 0.0
H1406 H 0.17845 0.16086 0.63753 0.0
H1407 H 0.24229 0.21547 0.61178 0.0
H1408 H 0.21674 0.205 0.67436 0.0
H1409 H 0.18732 0.20921 0.69968 0.0
H1410 H 0.18923 0.28767 0.69408 0.0
H1411 H 0.21832 0.28389 0.66847 0.0
C1412 C 0.34445 0.26389 0.63896 0.0
C1413 C 0.3453 0.28933 0.64207 0.0
C1414 C 0.32206 0.25153 0.63902 0.0
C1415 C 0.30011 0.26449 0.64176 0.0
C1416 C 0.30097 0.28973 0.64552 0.0
C1417 C 0.32342 0.30205 0.64577 0.0
C1418 C 0.27619 0.25189 0.64008 0.0
C1419 C 0.25941 0.25371 0.65451 0.0
C1420 C 0.26999 0.23802 0.62443 0.0
C1421 C 0.28624 0.23687 0.60822 0.0
C1422 C 0.29418 0.25852 0.59958 0.0
C1423 C 0.31 0.25733 0.58462 0.0
C1424 C 0.31779 0.23456 0.57802 0.0
C1425 C 0.30969 0.21295 0.58634 0.0
C1426 C 0.29394 0.21404 0.60135 0.0
C1427 C 0.16209 0.22123 0.63392 0.0
C1428 C 0.1592 0.19565 0.63529 0.0
C1429 C 0.18544 0.23165 0.63448 0.0
C1430 C 0.2062 0.21664 0.63618 0.0
C1431 C 0.20353 0.19108 0.63681 0.0
C1432 C 0.18014 0.18063 0.63655 0.0
C1433 C 0.2306 0.22786 0.63819 0.0
C1434 C 0.24736 0.22582 0.62383 0.0
C1435 C 0.23665 0.24181 0.65376 0.0
C1436 C 0.21952 0.24415 0.66938 0.0
C1437 C 0.21073 0.22315 0.67842 0.0
C1438 C 0.19413 0.22545 0.69284 0.0
C1439 C 0.18636 0.2487 0.69846 0.0
C1440 C 0.19524 0.26968 0.6897 0.0
C1441 C 0.21179 0.26747 0.67524 0.0
H1442 H 0.17351 0.25045 0.70962 0.0
H1443 H 0.33007 0.23366 0.56646 0.0
H1444 H 0.3103 0.33666 0.33329 0.0
H1445 H 0.29004 0.29684 0.32899 0.0
H1446 H 0.27533 0.29289 0.3866 0.0
H1447 H 0.2949 0.3329 0.39094 0.0
H1448 H 0.29205 0.2463 0.3671 0.0
H1449 H 0.23328 0.31526 0.3652 0.0
H1450 H 0.22038 0.35499 0.35223 0.0
H1451 H 0.21708 0.32272 0.29897 0.0
H1452 H 0.23048 0.28288 0.3116 0.0
H1453 H 0.196 0.16856 0.38705 0.0
H1454 H 0.22212 0.20474 0.38444 0.0
H1455 H 0.20524 0.20969 0.32714 0.0
H1456 H 0.17804 0.174 0.32991 0.0
H1457 H 0.20833 0.25381 0.34078 0.0
H1458 H 0.25959 0.18366 0.34195 0.0
H1459 H 0.27527 0.1438 0.35275 0.0
H1460 H 0.29584 0.1765 0.4037 0.0
H1461 H 0.27998 0.21653 0.39329 0.0
C1462 C 0.30319 0.32703 0.34506 0.0
C1463 C 0.30388 0.33783 0.36241 0.0
C1464 C 0.29168 0.30438 0.34258 0.0
C1465 C 0.28125 0.29217 0.35749 0.0
C1466 C 0.28341 0.30214 0.37498 0.0
C1467 C 0.2944 0.32498 0.37741 0.0
C1468 C 0.26563 0.27048 0.35479 0.0
C1469 C 0.27374 0.2478 0.36137 0.0
C1470 C 0.24217 0.27255 0.34672 0.0
C1471 C 0.23311 0.29619 0.3393 0.0
C1472 C 0.22994 0.31668 0.35071 0.0
C1473 C 0.22254 0.33921 0.34342 0.0
C1474 C 0.21798 0.3414 0.32478 0.0
C1475 C 0.22067 0.32101 0.3134 0.0
C1476 C 0.22816 0.29845 0.32061 0.0
C1477 C 0.19763 0.17756 0.37395 0.0
C1478 C 0.18527 0.16841 0.35863 0.0
C1479 C 0.21268 0.19809 0.37244 0.0
C1480 C 0.21624 0.20939 0.35547 0.0
C1481 C 0.20293 0.20107 0.34032 0.0
C1482 C 0.18739 0.18075 0.34191 0.0
C1483 C 0.23436 0.22949 0.35367 0.0
C1484 C 0.22677 0.25197 0.34621 0.0
C1485 C 0.25856 0.22707 0.36059 0.0
C1486 C 0.26846 0.20309 0.36686 0.0
C1487 C 0.26734 0.18234 0.3555 0.0
C1488 C 0.27627 0.1597 0.36155 0.0
C1489 C 0.28651 0.1576 0.37892 0.0
C1490 C 0.2879 0.17816 0.39025 0.0
C1491 C 0.27899 0.20084 0.38426 0.0
H1492 H 0.29341 0.14007 0.38359 0.0
H1493 H 0.21232 0.35888 0.31915 0.0
H1494 H 0.31016 0.16055 0.84594 0.0
H1495 H 0.27088 0.18233 0.84772 0.0
H1496 H 0.29555 0.21972 0.89616 0.0
H1497 H 0.33492 0.19862 0.89424 0.0
H1498 H 0.23385 0.18787 0.87196 0.0
H1499 H 0.27981 0.27962 0.89316 0.0
H1500 H 0.31991 0.3004 0.89032 0.0
H1501 H 0.33565 0.25897 0.842 0.0
H1502 H 0.29546 0.23829 0.84435 0.0
H1503 H 0.14151 0.27191 0.89667 0.0
H1504 H 0.17932 0.24789 0.89723 0.0
H1505 H 0.20407 0.28442 0.84843 0.0
H1506 H 0.16673 0.30907 0.84804 0.0
H1507 H 0.2408 0.27878 0.87108 0.0
H1508 H 0.1773 0.22764 0.84672 0.0
H1509 H 0.13657 0.20783 0.84674 0.0
H1510 H 0.15545 0.16822 0.89531 0.0
H1511 H 0.19617 0.18813 0.89575 0.0
C1512 C 0.30706 0.17317 0.85709 0.0
C1513 C 0.32575 0.17831 0.86971 0.0
C1514 C 0.28462 0.18551 0.85812 0.0
C1515 C 0.28061 0.20297 0.87185 0.0
C1516 C 0.29856 0.2067 0.88524 0.0
C1517 C 0.32102 0.19465 0.8841 0.0
C1518 C 0.25859 0.21873 0.87141 0.0
C1519 C 0.23531 0.20773 0.8718 0.0
C1520 C 0.26062 0.24464 0.87077 0.0
C1521 C 0.28471 0.25725 0.86905 0.0
C1522 C 0.29178 0.27503 0.88189 0.0
C1523 C 0.31452 0.28679 0.88036 0.0
C1524 C 0.33032 0.28098 0.86601 0.0
C1525 C 0.32341 0.26342 0.85313 0.0
C1526 C 0.30065 0.25167 0.85456 0.0
C1527 C 0.15509 0.27501 0.88614 0.0
C1528 C 0.15099 0.29221 0.87219 0.0
C1529 C 0.17663 0.2612 0.88645 0.0
C1530 C 0.19421 0.26405 0.87266 0.0
C1531 C 0.19064 0.28188 0.85915 0.0
C1532 C 0.16925 0.29591 0.85894 0.0
C1533 C 0.21602 0.24797 0.87197 0.0
C1534 C 0.23929 0.25892 0.87132 0.0
C1535 C 0.21393 0.22205 0.87185 0.0
C1536 C 0.18971 0.20953 0.87135 0.0
C1537 C 0.17273 0.21479 0.85745 0.0
C1538 C 0.14964 0.20355 0.85738 0.0
C1539 C 0.1434 0.18682 0.87104 0.0
C1540 C 0.16029 0.18121 0.88475 0.0
C1541 C 0.18339 0.19245 0.88491 0.0
H1542 H 0.1255 0.17817 0.87099 0.0
H1543 H 0.34787 0.29016 0.86483 0.0
H1544 H 0.67876 0.82562 0.84054 0.0
H1545 H 0.70129 0.78687 0.83884 0.0
H1546 H 0.74187 0.80647 0.88719 0.0
H1547 H 0.7201 0.84548 0.88863 0.0
H1548 H 0.77177 0.78809 0.8631 0.0
H1549 H 0.69317 0.76558 0.88814 0.0
H1550 H 0.64793 0.76324 0.8887 0.0
H1551 H 0.6485 0.72258 0.83864 0.0
H1552 H 0.69375 0.72498 0.83765 0.0
H1553 H 0.77848 0.65024 0.88838 0.0
H1554 H 0.75655 0.68912 0.88658 0.0
H1555 H 0.80005 0.71001 0.83995 0.0
H1556 H 0.8227 0.67135 0.84199 0.0
H1557 H 0.72815 0.70812 0.86157 0.0
H1558 H 0.80781 0.77195 0.84023 0.0
H1559 H 0.85293 0.77428 0.843 0.0
H1560 H 0.84999 0.73207 0.89232 0.0
H1561 H 0.80485 0.7298 0.88998 0.0
C1562 C 0.69242 0.82161 0.85084 0.0
C1563 C 0.69765 0.83856 0.86473 0.0
C1564 C 0.70526 0.79948 0.84985 0.0
C1565 C 0.72313 0.79376 0.86296 0.0
C1566 C 0.72826 0.81061 0.87687 0.0
C1567 C 0.71571 0.83284 0.87772 0.0
C1568 C 0.73646 0.77016 0.86239 0.0
C1569 C 0.76224 0.7706 0.8627 0.0
C1570 C 0.724 0.74738 0.86206 0.0
C1571 C 0.69681 0.74568 0.86273 0.0
C1572 C 0.68363 0.75628 0.87719 0.0
C1573 C 0.65799 0.75493 0.87759 0.0
C1574 C 0.64534 0.74283 0.86369 0.0
C1575 C 0.65832 0.73198 0.84938 0.0
C1576 C 0.68396 0.73332 0.8489 0.0
C1577 C 0.78348 0.66312 0.87776 0.0
C1578 C 0.80241 0.65779 0.86538 0.0
C1579 C 0.77083 0.68527 0.87671 0.0
C1580 C 0.77675 0.70245 0.8632 0.0
C1581 C 0.79545 0.69711 0.85065 0.0
C1582 C 0.80836 0.67504 0.85184 0.0
C1583 C 0.76344 0.72606 0.86251 0.0
C1584 C 0.73768 0.72562 0.86184 0.0
C1585 C 0.7759 0.74883 0.86305 0.0
C1586 C 0.80299 0.75049 0.8648 0.0
C1587 C 0.8168 0.76326 0.8517 0.0
C1588 C 0.84237 0.76456 0.85319 0.0
C1589 C 0.85433 0.75325 0.86779 0.0
C1590 C 0.84072 0.74074 0.88098 0.0
C1591 C 0.81515 0.73943 0.87957 0.0
H1592 H 0.87413 0.75424 0.8689 0.0
H1593 H 0.62549 0.74181 0.86401 0.0
H1594 H 0.65182 0.72025 0.37428 0.0
H1595 H 0.69393 0.73524 0.37374 0.0
H1596 H 0.72024 0.66216 0.36251 0.0
H1597 H 0.67778 0.64679 0.36265 0.0
H1598 H 0.74499 0.69674 0.39328 0.0
H1599 H 0.72407 0.68852 0.32945 0.0
H1600 H 0.69606 0.69332 0.30331 0.0
H1601 H 0.69529 0.77142 0.31127 0.0
H1602 H 0.72295 0.76703 0.33768 0.0
H1603 H 0.8627 0.74916 0.3757 0.0
H1604 H 0.82645 0.72283 0.37444 0.0
H1605 H 0.78147 0.78574 0.36152 0.0
H1606 H 0.81774 0.81199 0.36203 0.0
H1607 H 0.76884 0.74932 0.34098 0.0
H1608 H 0.78436 0.75948 0.40515 0.0
H1609 H 0.80917 0.75768 0.43321 0.0
H1610 H 0.8174 0.67975 0.42682 0.0
H1611 H 0.7929 0.68115 0.39857 0.0
C1612 C 0.66648 0.70723 0.37183 0.0
C1613 C 0.66146 0.68232 0.36845 0.0
C1614 C 0.69051 0.71587 0.37153 0.0
C1615 C 0.70996 0.69976 0.36806 0.0
C1616 C 0.70529 0.67475 0.36522 0.0
C1617 C 0.6811 0.66609 0.36523 0.0
C1618 C 0.73496 0.70978 0.36666 0.0
C1619 C 0.75063 0.70774 0.38169 0.0
C1620 C 0.74166 0.72466 0.35174 0.0
C1621 C 0.72543 0.72741 0.33563 0.0
C1622 C 0.71777 0.70669 0.32572 0.0
C1623 C 0.70198 0.70934 0.31084 0.0
C1624 C 0.69386 0.73266 0.30566 0.0
C1625 C 0.70158 0.75337 0.31531 0.0
C1626 C 0.71734 0.75081 0.33022 0.0
C1627 C 0.84506 0.7574 0.37265 0.0
C1628 C 0.84303 0.78269 0.36906 0.0
C1629 C 0.82437 0.74232 0.37197 0.0
C1630 C 0.80122 0.75236 0.3681 0.0
C1631 C 0.79918 0.77759 0.36449 0.0
C1632 C 0.8199 0.7926 0.36486 0.0
C1633 C 0.77899 0.73673 0.36779 0.0
C1634 C 0.76368 0.73785 0.35244 0.0
C1635 C 0.77247 0.72135 0.38259 0.0
C1636 C 0.78705 0.72046 0.39964 0.0
C1637 C 0.79161 0.74199 0.40966 0.0
C1638 C 0.8056 0.74104 0.42561 0.0
C1639 C 0.81492 0.71863 0.43176 0.0
C1640 C 0.81021 0.69711 0.42201 0.0
C1641 C 0.79627 0.69796 0.40604 0.0
H1642 H 0.82575 0.71793 0.44411 0.0
H1643 H 0.68162 0.73467 0.29414 0.0
H1644 H 0.80278 0.83701 0.61498 0.0
H1645 H 0.77852 0.79933 0.6154 0.0
H1646 H 0.79536 0.78952 0.67238 0.0
H1647 H 0.82081 0.8266 0.67171 0.0
H1648 H 0.79324 0.74691 0.65716 0.0
H1649 H 0.74043 0.81625 0.65811 0.0
H1650 H 0.72378 0.85622 0.64842 0.0
H1651 H 0.70427 0.82569 0.59651 0.0
H1652 H 0.72104 0.78553 0.60586 0.0
H1653 H 0.68306 0.6741 0.67077 0.0
H1654 H 0.70733 0.71203 0.67147 0.0
H1655 H 0.72675 0.70174 0.6151 0.0
H1656 H 0.70322 0.66341 0.61441 0.0
H1657 H 0.70863 0.75483 0.63253 0.0
H1658 H 0.768 0.68541 0.63362 0.0
H1659 H 0.7814 0.646 0.64685 0.0
H1660 H 0.78447 0.67897 0.69988 0.0
H1661 H 0.77071 0.71852 0.68696 0.0
C1662 C 0.80161 0.82655 0.6275 0.0
C1663 C 0.81336 0.83474 0.64337 0.0
C1664 C 0.78763 0.80516 0.62777 0.0
C1665 C 0.78448 0.79208 0.64407 0.0
C1666 C 0.79737 0.79947 0.65969 0.0
C1667 C 0.8119 0.8206 0.65931 0.0
C1668 C 0.76684 0.77144 0.64491 0.0
C1669 C 0.7747 0.7488 0.65193 0.0
C1670 C 0.74247 0.77388 0.6383 0.0
C1671 C 0.73217 0.79794 0.63264 0.0
C1672 C 0.73272 0.8181 0.64459 0.0
C1673 C 0.72325 0.84079 0.63916 0.0
C1674 C 0.71304 0.84353 0.62183 0.0
C1675 C 0.71221 0.82355 0.60992 0.0
C1676 C 0.72165 0.8008 0.61529 0.0
C1677 C 0.69218 0.68014 0.65846 0.0
C1678 C 0.69147 0.66583 0.64257 0.0
C1679 C 0.70602 0.7017 0.65891 0.0
C1680 C 0.71877 0.70938 0.64336 0.0
C1681 C 0.71696 0.69591 0.6272 0.0
C1682 C 0.70363 0.67408 0.62685 0.0
C1683 C 0.73541 0.73054 0.64426 0.0
C1684 C 0.72722 0.7532 0.63772 0.0
C1685 C 0.75918 0.72831 0.65173 0.0
C1686 C 0.7681 0.70479 0.65937 0.0
C1687 C 0.77135 0.68418 0.64812 0.0
C1688 C 0.77903 0.66184 0.65555 0.0
C1689 C 0.7837 0.65995 0.6742 0.0
C1690 C 0.78081 0.68045 0.68544 0.0
C1691 C 0.77309 0.70283 0.67807 0.0
H1692 H 0.78961 0.64262 0.67994 0.0
H1693 H 0.7057 0.86111 0.61763 0.0
H1694 H 0.82224 0.65649 0.15052 0.0
H1695 H 0.78107 0.67441 0.15292 0.0
H1696 H 0.81153 0.74669 0.1448 0.0
H1697 H 0.85261 0.72899 0.14201 0.0
H1698 H 0.77532 0.74039 0.17518 0.0
H1699 H 0.78853 0.72447 0.11056 0.0
H1700 H 0.79886 0.69742 0.08476 0.0
H1701 H 0.73847 0.65012 0.09838 0.0
H1702 H 0.72805 0.67671 0.12447 0.0
H1703 H 0.67815 0.81806 0.15035 0.0
H1704 H 0.71613 0.79479 0.1536 0.0
H1705 H 0.67652 0.72735 0.1439 0.0
H1706 H 0.63863 0.75068 0.13983 0.0
H1707 H 0.71593 0.72698 0.12489 0.0
H1708 H 0.69962 0.74254 0.18742 0.0
H1709 H 0.68857 0.76724 0.21436 0.0
H1710 H 0.75292 0.81167 0.2068 0.0
H1711 H 0.7642 0.78739 0.1797 0.0
C1712 C 0.82016 0.6762 0.1493 0.0
C1713 C 0.84057 0.69135 0.14595 0.0
C1714 C 0.7967 0.68636 0.1507 0.0
C1715 C 0.79347 0.71179 0.14907 0.0
C1716 C 0.81383 0.72701 0.14616 0.0
C1717 C 0.83719 0.71685 0.14443 0.0
C1718 C 0.76872 0.72257 0.14951 0.0
C1719 C 0.76229 0.73764 0.16419 0.0
C1720 C 0.75166 0.71816 0.13542 0.0
C1721 C 0.7577 0.7024 0.11958 0.0
C1722 C 0.7776 0.70818 0.10815 0.0
C1723 C 0.78344 0.69296 0.09346 0.0
C1724 C 0.76937 0.67202 0.08997 0.0
C1725 C 0.74938 0.66632 0.10112 0.0
C1726 C 0.74349 0.68146 0.11586 0.0
C1727 C 0.67751 0.79827 0.149 0.0
C1728 C 0.65547 0.7862 0.14471 0.0
C1729 C 0.6992 0.78495 0.15101 0.0
C1730 C 0.69912 0.75927 0.14927 0.0
C1731 C 0.67702 0.74715 0.14529 0.0
C1732 C 0.6554 0.7605 0.14294 0.0
C1733 C 0.72237 0.74529 0.15052 0.0
C1734 C 0.72865 0.72957 0.1361 0.0
C1735 C 0.73911 0.74877 0.16505 0.0
C1736 C 0.7326 0.7633 0.18144 0.0
C1737 C 0.71128 0.75772 0.19143 0.0
C1738 C 0.705 0.77161 0.20673 0.0
C1739 C 0.71997 0.79108 0.21223 0.0
C1740 C 0.74132 0.79661 0.2025 0.0
C1741 C 0.7477 0.78275 0.18719 0.0
H1742 H 0.71506 0.80183 0.22407 0.0
H1743 H 0.77393 0.66025 0.07859 0.0
H1744 H 0.15827 0.07427 0.30086 0.0
H1745 H 0.18236 0.065 0.2737 0.0
H1746 H 0.24921 0.07174 0.30478 0.0
H1747 H 0.2252 0.0808 0.33219 0.0
H1748 H 0.24708 0.10129 0.27299 0.0
H1749 H 0.23406 0.01737 0.29047 0.0
H1750 H 0.20932 0.98155 0.2997 0.0
H1751 H 0.16915 0.9852 0.24948 0.0
H1752 H 0.19341 0.02129 0.24005 0.0
H1753 H 0.32684 0.07361 0.20216 0.0
H1754 H 0.30557 0.06841 0.23106 0.0
H1755 H 0.23746 0.05583 0.20257 0.0
H1756 H 0.25875 0.06058 0.17338 0.0
H1757 H 0.24113 0.02741 0.23367 0.0
H1758 H 0.25061 0.11116 0.21645 0.0
H1759 H 0.27335 0.14766 0.2061 0.0
H1760 H 0.31642 0.14666 0.25505 0.0
H1761 H 0.29453 0.1095 0.26541 0.0
C1762 C 0.17809 0.07343 0.30202 0.0
C1763 C 0.18984 0.07842 0.31867 0.0
C1764 C 0.19181 0.06801 0.28649 0.0
C1765 C 0.21753 0.06765 0.28726 0.0
C1766 C 0.22934 0.07189 0.30396 0.0
C1767 C 0.2156 0.07698 0.3196 0.0
C1768 C 0.23198 0.06493 0.27032 0.0
C1769 C 0.24621 0.08494 0.26457 0.0
C1770 C 0.22995 0.04397 0.25904 0.0
C1771 C 0.21543 0.02218 0.26462 0.0
C1772 C 0.21981 0.01067 0.28145 0.0
C1773 C 0.2059 0.99029 0.28671 0.0
C1774 C 0.18763 0.98114 0.2752 0.0
C1775 C 0.18329 0.99232 0.25839 0.0
C1776 C 0.19714 0.01272 0.25307 0.0
C1777 C 0.30739 0.06938 0.20197 0.0
C1778 C 0.29439 0.06797 0.18545 0.0
C1779 C 0.29529 0.06637 0.21852 0.0
C1780 C 0.26987 0.06223 0.21895 0.0
C1781 C 0.25708 0.05912 0.20251 0.0
C1782 C 0.26926 0.06193 0.18586 0.0
C1783 C 0.25646 0.06366 0.23648 0.0
C1784 C 0.24225 0.0436 0.24222 0.0
C1785 C 0.25811 0.08478 0.24766 0.0
C1786 C 0.27109 0.10736 0.24163 0.0
C1787 C 0.26509 0.11857 0.22495 0.0
C1788 C 0.27782 0.13939 0.21908 0.0
C1789 C 0.29626 0.14954 0.22994 0.0
C1790 C 0.30211 0.13878 0.24666 0.0
C1791 C 0.28959 0.11778 0.25251 0.0
H1792 H 0.30598 0.16577 0.22543 0.0
H1793 H 0.17688 0.96536 0.2793 0.0
H1794 H 0.4338 0.25484 0.67243 0.0
H1795 H 0.43633 0.23358 0.70172 0.0
H1796 H 0.4375 0.30319 0.72965 0.0
H1797 H 0.43472 0.32459 0.70051 0.0
H1798 H 0.4673 0.26432 0.74645 0.0
H1799 H 0.3854 0.28172 0.72424 0.0
H1800 H 0.35373 0.28148 0.70025 0.0
H1801 H 0.35656 0.20273 0.69825 0.0
H1802 H 0.38866 0.20255 0.722 0.0
H1803 H 0.41702 0.22574 0.83203 0.0
H1804 H 0.42593 0.2481 0.80382 0.0
H1805 H 0.40962 0.18301 0.7726 0.0
H1806 H 0.40016 0.16087 0.80041 0.0
H1807 H 0.38853 0.22086 0.75753 0.0
H1808 H 0.46936 0.20306 0.78075 0.0
H1809 H 0.50245 0.20336 0.80367 0.0
H1810 H 0.50248 0.2822 0.80353 0.0
H1811 H 0.46911 0.28237 0.78079 0.0
C1812 C 0.43533 0.26564 0.68475 0.0
C1813 C 0.43357 0.29136 0.6842 0.0
C1814 C 0.43678 0.25347 0.70147 0.0
C1815 C 0.43679 0.26688 0.71779 0.0
C1816 C 0.4375 0.29256 0.71718 0.0
C1817 C 0.43573 0.30472 0.70052 0.0
C1818 C 0.43213 0.25437 0.73532 0.0
C1819 C 0.45006 0.25493 0.749 0.0
C1820 C 0.40963 0.24213 0.73849 0.0
C1821 C 0.38959 0.24213 0.72477 0.0
C1822 C 0.37936 0.26436 0.71862 0.0
C1823 C 0.36135 0.26431 0.70506 0.0
C1824 C 0.35319 0.24211 0.69769 0.0
C1825 C 0.36293 0.21992 0.70395 0.0
C1826 C 0.38103 0.21988 0.71747 0.0
C1827 C 0.41537 0.21622 0.81915 0.0
C1828 C 0.40782 0.19153 0.81852 0.0
C1829 C 0.42056 0.22898 0.80304 0.0
C1830 C 0.41864 0.21716 0.78608 0.0
C1831 C 0.41116 0.19255 0.78549 0.0
C1832 C 0.40579 0.1799 0.80148 0.0
C1833 C 0.42391 0.2303 0.76879 0.0
C1834 C 0.40589 0.23008 0.7551 0.0
C1835 C 0.44636 0.2428 0.76566 0.0
C1836 C 0.46656 0.24273 0.77921 0.0
C1837 C 0.4763 0.22046 0.7857 0.0
C1838 C 0.49512 0.22055 0.79865 0.0
C1839 C 0.50451 0.24279 0.80509 0.0
C1840 C 0.49515 0.26499 0.79855 0.0
C1841 C 0.4763 0.26501 0.78563 0.0
H1842 H 0.51908 0.24282 0.81511 0.0
H1843 H 0.33928 0.24211 0.68715 0.0
H1844 H 0.20546 0.38405 0.19433 0.0
H1845 H 0.22315 0.3927 0.22407 0.0
H1846 H 0.24191 0.46592 0.20648 0.0
H1847 H 0.22448 0.45703 0.17618 0.0
H1848 H 0.27765 0.44316 0.23022 0.0
H1849 H 0.19136 0.46047 0.22907 0.0
H1850 H 0.14855 0.45068 0.22084 0.0
H1851 H 0.15086 0.38665 0.25491 0.0
H1852 H 0.19383 0.39584 0.26312 0.0
H1853 H 0.30101 0.46436 0.3231 0.0
H1854 H 0.28174 0.47193 0.29344 0.0
H1855 H 0.24391 0.4024 0.29744 0.0
H1856 H 0.26196 0.39574 0.32755 0.0
H1857 H 0.21639 0.43268 0.27971 0.0
H1858 H 0.30355 0.41131 0.27678 0.0
H1859 H 0.34732 0.41857 0.28371 0.0
H1860 H 0.34407 0.48835 0.25669 0.0
H1861 H 0.30016 0.48174 0.24985 0.0
C1862 C 0.21374 0.40186 0.19666 0.0
C1863 C 0.21335 0.42001 0.1831 0.0
C1864 C 0.22383 0.40678 0.21366 0.0
C1865 C 0.23328 0.43013 0.21759 0.0
C1866 C 0.23453 0.44784 0.2037 0.0
C1867 C 0.22465 0.44276 0.18645 0.0
C1868 C 0.23975 0.43613 0.23666 0.0
C1869 C 0.26421 0.44145 0.24106 0.0
C1870 C 0.22217 0.43365 0.25075 0.0
C1871 C 0.19586 0.42884 0.24669 0.0
C1872 C 0.18274 0.44431 0.23481 0.0
C1873 C 0.15846 0.43884 0.23012 0.0
C1874 C 0.147 0.41804 0.23734 0.0
C1875 C 0.15975 0.40277 0.24935 0.0
C1876 C 0.18406 0.40813 0.25406 0.0
C1877 C 0.28781 0.45125 0.31785 0.0
C1878 C 0.28268 0.42962 0.32748 0.0
C1879 C 0.27707 0.45539 0.30085 0.0
C1880 C 0.26195 0.4374 0.29292 0.0
C1881 C 0.25558 0.41653 0.30319 0.0
C1882 C 0.26579 0.41273 0.3204 0.0
C1883 C 0.25456 0.43893 0.27346 0.0
C1884 C 0.22981 0.43501 0.26894 0.0
C1885 C 0.27195 0.44257 0.25929 0.0
C1886 C 0.29852 0.44615 0.26296 0.0
C1887 C 0.31215 0.42823 0.27236 0.0
C1888 C 0.33697 0.43224 0.27629 0.0
C1889 C 0.34844 0.45391 0.27068 0.0
C1890 C 0.33514 0.47159 0.26106 0.0
C1891 C 0.3103 0.46774 0.25715 0.0
H1892 H 0.36764 0.45698 0.27377 0.0
H1893 H 0.12824 0.41377 0.23362 0.0
H1894 H 0.10646 0.18198 0.70066 0.0
H1895 H 0.09667 0.19884 0.73037 0.0
H1896 H 0.03879 0.24242 0.7066 0.0
H1897 H 0.04889 0.22584 0.67641 0.0
H1898 H 0.06458 0.26831 0.73129 0.0
H1899 H 0.02499 0.19043 0.73048 0.0
H1900 H 0.02194 0.14581 0.72515 0.0
H1901 H 0.07731 0.13283 0.76564 0.0
H1902 H 0.08099 0.17737 0.77102 0.0
H1903 H 0.03382 0.30441 0.8199 0.0
H1904 H 0.02672 0.2836 0.79079 0.0
H1905 H 0.08658 0.23403 0.8024 0.0
H1906 H 0.09296 0.25429 0.83184 0.0
H1907 H 0.05137 0.21113 0.78301 0.0
H1908 H 0.09493 0.28926 0.77983 0.0
H1909 H 0.09838 0.3339 0.78487 0.0
H1910 H 0.03504 0.34621 0.75133 0.0
H1911 H 0.03087 0.30158 0.74637 0.0
C1912 C 0.09163 0.19517 0.70165 0.0
C1913 C 0.07826 0.20236 0.68616 0.0
C1914 C 0.08597 0.2047 0.71872 0.0
C1915 C 0.06656 0.22137 0.7208 0.0
C1916 C 0.05367 0.22934 0.70531 0.0
C1917 C 0.05949 0.21991 0.68809 0.0
C1918 C 0.06022 0.23051 0.73924 0.0
C1919 C 0.06111 0.25585 0.74252 0.0
C1920 C 0.05596 0.2142 0.75394 0.0
C1921 C 0.05334 0.1873 0.75109 0.0
C1922 C 0.03659 0.17807 0.7382 0.0
C1923 C 0.03475 0.15279 0.73517 0.0
C1924 C 0.04946 0.13651 0.74503 0.0
C1925 C 0.06593 0.14547 0.75801 0.0
C1926 C 0.06787 0.17073 0.76108 0.0
C1927 C 0.04476 0.28845 0.81647 0.0
C1928 C 0.06377 0.28069 0.82799 0.0
C1929 C 0.04087 0.27672 0.79981 0.0
C1930 C 0.05649 0.25763 0.79423 0.0
C1931 C 0.07433 0.24874 0.8064 0.0
C1932 C 0.07796 0.26023 0.8232 0.0
C1933 C 0.05633 0.24886 0.7751 0.0
C1934 C 0.05428 0.22359 0.7717 0.0
C1935 C 0.05948 0.26523 0.76026 0.0
C1936 C 0.06243 0.29208 0.76288 0.0
C1937 C 0.08168 0.30148 0.77359 0.0
C1938 C 0.08376 0.32677 0.77645 0.0
C1939 C 0.06695 0.34287 0.76846 0.0
C1940 C 0.04804 0.33371 0.75754 0.0
C1941 C 0.04578 0.30842 0.75471 0.0
H1942 H 0.0686 0.36244 0.77072 0.0
H1943 H 0.0481 0.11696 0.74262 0.0
H1944 H 0.66695 0.92578 0.80486 0.0
H1945 H 0.68836 0.93214 0.77619 0.0
H1946 H 0.75746 0.93625 0.80472 0.0
H1947 H 0.73603 0.93004 0.83379 0.0
H1948 H 0.75457 0.96886 0.77494 0.0
H1949 H 0.74193 0.88383 0.78767 0.0
H1950 H 0.71884 0.84647 0.79582 0.0
H1951 H 0.67333 0.85532 0.74854 0.0
H1952 H 0.69586 0.89304 0.74029 0.0
H1953 H 0.83397 0.92482 0.70537 0.0
H1954 H 0.81022 0.93314 0.73277 0.0
H1955 H 0.74314 0.92999 0.70162 0.0
H1956 H 0.76692 0.92172 0.67388 0.0
H1957 H 0.74377 0.8992 0.73211 0.0
H1958 H 0.76063 0.9834 0.71837 0.0
H1959 H 0.78676 0.01876 0.71038 0.0
H1960 H 0.82758 0.00954 0.75991 0.0
H1961 H 0.80193 0.97386 0.76808 0.0
C1962 C 0.68669 0.92836 0.80515 0.0
C1963 C 0.69987 0.92693 0.8216 0.0
C1964 C 0.69886 0.93204 0.78872 0.0
C1965 C 0.7245 0.93418 0.78832 0.0
C1966 C 0.73764 0.93453 0.80478 0.0
C1967 C 0.72539 0.93093 0.82135 0.0
C1968 C 0.73748 0.9337 0.77061 0.0
C1969 C 0.75242 0.95357 0.76562 0.0
C1970 C 0.73432 0.91386 0.75838 0.0
C1971 C 0.72044 0.89141 0.76345 0.0
C1972 C 0.72682 0.87798 0.77912 0.0
C1973 C 0.71387 0.85671 0.78374 0.0
C1974 C 0.69466 0.84852 0.77269 0.0
C1975 C 0.68824 0.86168 0.75707 0.0
C1976 C 0.70108 0.88302 0.75242 0.0
C1977 C 0.81417 0.92617 0.70425 0.0
C1978 C 0.80227 0.92239 0.68747 0.0
C1979 C 0.80065 0.93112 0.71993 0.0
C1980 C 0.77497 0.9323 0.7192 0.0
C1981 C 0.763 0.92924 0.70241 0.0
C1982 C 0.77658 0.92457 0.6866 0.0
C1983 C 0.76075 0.93445 0.7363 0.0
C1984 C 0.74567 0.9147 0.74128 0.0
C1985 C 0.76412 0.95422 0.74856 0.0
C1986 C 0.77946 0.97581 0.74377 0.0
C1987 C 0.7753 0.98878 0.7275 0.0
C1988 C 0.79 0.00891 0.72294 0.0
C1989 C 0.80885 0.01636 0.73461 0.0
C1990 C 0.81298 0.00373 0.75088 0.0
C1991 C 0.79834 0.98357 0.75549 0.0
H1992 H 0.82022 0.03194 0.73106 0.0
H1993 H 0.68484 0.8319 0.77618 0.0
H1994 H 0.5706 0.73392 0.33235 0.0
H1995 H 0.56389 0.75518 0.30334 0.0
H1996 H 0.57919 0.68807 0.27429 0.0
H1997 H 0.58639 0.66697 0.30289 0.0
H1998 H 0.6026 0.72449 0.25889 0.0
H1999 H 0.52011 0.71036 0.27993 0.0
H2000 H 0.4857 0.71259 0.3017 0.0
H2001 H 0.48818 0.79135 0.29985 0.0
H2002 H 0.52286 0.78959 0.27827 0.0
H2003 H 0.56358 0.75631 0.17176 0.0
H2004 H 0.5582 0.73645 0.20138 0.0
H2005 H 0.55838 0.80719 0.22769 0.0
H2006 H 0.56395 0.8272 0.19823 0.0
H2007 H 0.52608 0.7701 0.24443 0.0
H2008 H 0.61 0.78347 0.22433 0.0
H2009 H 0.6419 0.78091 0.20055 0.0
H2010 H 0.63526 0.70235 0.19998 0.0
H2011 H 0.60292 0.7045 0.2235 0.0
C2012 C 0.57247 0.72371 0.31978 0.0
C2013 C 0.57907 0.69874 0.32 0.0
C2014 C 0.56855 0.73585 0.30321 0.0
C2015 C 0.57087 0.72317 0.28662 0.0
C2016 C 0.57737 0.69828 0.28688 0.0
C2017 C 0.58144 0.68622 0.30332 0.0
C2018 C 0.56702 0.73566 0.26887 0.0
C2019 C 0.58573 0.73421 0.25573 0.0
C2020 C 0.5452 0.74874 0.26476 0.0
C2021 C 0.52425 0.74984 0.27764 0.0
C2022 C 0.51344 0.72816 0.28428 0.0
C2023 C 0.49387 0.72933 0.29657 0.0
C2024 C 0.4848 0.7521 0.3022 0.0
C2025 C 0.49525 0.77373 0.2955 0.0
C2026 C 0.51485 0.77266 0.28324 0.0
C2027 C 0.56173 0.76769 0.18376 0.0
C2028 C 0.5647 0.79327 0.18271 0.0
C2029 C 0.55864 0.75631 0.20067 0.0
C2030 C 0.55821 0.7704 0.21668 0.0
C2031 C 0.55868 0.79605 0.21548 0.0
C2032 C 0.56205 0.80741 0.19864 0.0
C2033 C 0.56144 0.75848 0.23461 0.0
C2034 C 0.54282 0.76026 0.24772 0.0
C2035 C 0.58329 0.74561 0.23875 0.0
C2036 C 0.6039 0.74416 0.22555 0.0
C2037 C 0.61532 0.76565 0.21911 0.0
C2038 C 0.63342 0.76429 0.20565 0.0
C2039 C 0.6405 0.74149 0.1987 0.0
C2040 C 0.6297 0.72 0.20535 0.0
C2041 C 0.61148 0.72128 0.21875 0.0
H2042 H 0.65433 0.74047 0.18816 0.0
H2043 H 0.46965 0.75297 0.31171 0.0
H2044 H 0.83575 0.57297 0.8055 0.0
H2045 H 0.81496 0.56776 0.77646 0.0
H2046 H 0.74547 0.56085 0.80416 0.0
H2047 H 0.76626 0.56596 0.83358 0.0
H2048 H 0.74972 0.52969 0.77355 0.0
H2049 H 0.76033 0.61432 0.78872 0.0
H2050 H 0.78278 0.65152 0.79813 0.0
H2051 H 0.82881 0.64605 0.75086 0.0
H2052 H 0.80694 0.60849 0.74134 0.0
H2053 H 0.66999 0.57413 0.70443 0.0
H2054 H 0.69365 0.56576 0.73188 0.0
H2055 H 0.761 0.57264 0.7014 0.0
H2056 H 0.73731 0.58097 0.67362 0.0
H2057 H 0.75926 0.60171 0.73272 0.0
H2058 H 0.74504 0.51787 0.7166 0.0
H2059 H 0.72019 0.48211 0.70743 0.0
H2060 H 0.67828 0.48762 0.75676 0.0
H2061 H 0.70263 0.52367 0.76611 0.0
C2062 C 0.81607 0.57001 0.80553 0.0
C2063 C 0.80259 0.57033 0.82188 0.0
C2064 C 0.80424 0.567 0.78888 0.0
C2065 C 0.77866 0.5644 0.78815 0.0
C2066 C 0.76526 0.56295 0.80446 0.0
C2067 C 0.77714 0.5659 0.82124 0.0
C2068 C 0.76596 0.56546 0.77033 0.0
C2069 C 0.75159 0.54549 0.76467 0.0
C2070 C 0.76878 0.58597 0.75865 0.0
C2071 C 0.78215 0.60843 0.76441 0.0
C2072 C 0.77541 0.62088 0.78043 0.0
C2073 C 0.788 0.64206 0.78577 0.0
C2074 C 0.80718 0.65115 0.77509 0.0
C2075 C 0.81392 0.63899 0.75911 0.0
C2076 C 0.80145 0.61774 0.75374 0.0
C2077 C 0.68985 0.5736 0.70347 0.0
C2078 C 0.70181 0.57836 0.68686 0.0
C2079 C 0.70332 0.56864 0.71917 0.0
C2080 C 0.72905 0.56844 0.71866 0.0
C2081 C 0.74112 0.57262 0.70203 0.0
C2082 C 0.72759 0.57729 0.68619 0.0
C2083 C 0.74311 0.56587 0.73583 0.0
C2084 C 0.75763 0.58572 0.74145 0.0
C2085 C 0.74015 0.5454 0.74751 0.0
C2086 C 0.72556 0.52361 0.74199 0.0
C2087 C 0.7304 0.51159 0.72543 0.0
C2088 C 0.71642 0.49124 0.72021 0.0
C2089 C 0.69764 0.48263 0.73149 0.0
C2090 C 0.69283 0.49432 0.74803 0.0
C2091 C 0.70674 0.51469 0.75331 0.0
H2092 H 0.68683 0.46687 0.72742 0.0
H2093 H 0.81677 0.66766 0.77917 0.0
H2094 H 0.92982 0.829 0.30867 0.0
H2095 H 0.93926 0.81079 0.27916 0.0
H2096 H 0.93769 0.73856 0.3033 0.0
H2097 H 0.92925 0.75689 0.33315 0.0
H2098 H 0.97156 0.74037 0.2771 0.0
H2099 H 0.8865 0.76393 0.28243 0.0
H2100 H 0.85207 0.79235 0.28801 0.0
H2101 H 0.87654 0.83832 0.24411 0.0
H2102 H 0.91133 0.81031 0.23843 0.0
H2103 H 0.92852 0.66811 0.20372 0.0
H2104 H 0.93658 0.69058 0.2317 0.0
H2105 H 0.94328 0.75792 0.2012 0.0
H2106 H 0.93508 0.73551 0.17292 0.0
H2107 H 0.91079 0.76154 0.22926 0.0
H2108 H 0.99316 0.73373 0.22163 0.0
H2109 H 0.02596 0.70352 0.21588 0.0
H2110 H 0.00511 0.66362 0.26386 0.0
H2111 H 0.97193 0.69338 0.26977 0.0
C2112 C 0.93187 0.80925 0.30774 0.0
C2113 C 0.92841 0.79429 0.32312 0.0
C2114 C 0.93721 0.79887 0.29086 0.0
C2115 C 0.93849 0.77327 0.28891 0.0
C2116 C 0.93662 0.75836 0.30447 0.0
C2117 C 0.93175 0.76882 0.3215 0.0
C2118 C 0.93974 0.76209 0.27049 0.0
C2119 C 0.9582 0.74486 0.26667 0.0
C2120 C 0.92259 0.76834 0.25673 0.0
C2121 C 0.90165 0.78516 0.26012 0.0
C2122 C 0.88463 0.78019 0.27405 0.0
C2123 C 0.86504 0.79622 0.27723 0.0
C2124 C 0.86215 0.81717 0.26644 0.0
C2125 C 0.87883 0.82211 0.25246 0.0
C2126 C 0.89847 0.80616 0.24925 0.0
C2127 C 0.93203 0.68766 0.20285 0.0
C2128 C 0.93093 0.70005 0.18605 0.0
C2129 C 0.93683 0.70044 0.2189 0.0
C2130 C 0.9407 0.72589 0.21853 0.0
C2131 C 0.94043 0.73825 0.20175 0.0
C2132 C 0.93578 0.72541 0.18561 0.0
C2133 C 0.94251 0.73969 0.23587 0.0
C2134 C 0.92446 0.75734 0.23955 0.0
C2135 C 0.95986 0.7336 0.2495 0.0
C2136 C 0.97993 0.71573 0.24608 0.0
C2137 C 0.99544 0.71842 0.23089 0.0
C2138 C 0.01413 0.70138 0.22761 0.0
C2139 C 0.01759 0.68164 0.23948 0.0
C2140 C 0.00241 0.67892 0.25468 0.0
C2141 C 0.98367 0.69589 0.25801 0.0
H2142 H 0.03206 0.66846 0.23691 0.0
H2143 H 0.84694 0.82953 0.26886 0.0
H2144 H 0.41789 0.0612 0.16615 0.0
H2145 H 0.45125 0.03136 0.16843 0.0
H2146 H 0.39975 0.97234 0.15952 0.0
H2147 H 0.36622 0.00195 0.15743 0.0
H2148 H 0.43353 0.96106 0.18576 0.0
H2149 H 0.43245 0.99402 0.12488 0.0
H2150 H 0.43288 0.0274 0.1022 0.0
H2151 H 0.50371 0.05066 0.1213 0.0
H2152 H 0.50351 0.01763 0.14432 0.0
H2153 H 0.50609 0.86555 0.15063 0.0
H2154 H 0.47644 0.8986 0.15467 0.0
H2155 H 0.53548 0.94987 0.16418 0.0
H2156 H 0.56548 0.91683 0.16006 0.0
H2157 H 0.50054 0.96735 0.14016 0.0
H2158 H 0.5027 0.93077 0.19937 0.0
H2159 H 0.50137 0.89672 0.22146 0.0
H2160 H 0.42781 0.87931 0.20478 0.0
H2161 H 0.42882 0.91303 0.18237 0.0
C2162 C 0.41362 0.04185 0.16485 0.0
C2163 C 0.38947 0.0339 0.16147 0.0
C2164 C 0.43269 0.02487 0.16614 0.0
C2165 C 0.42792 -0.00026 0.16393 0.0
C2166 C 0.40373 0.99169 0.16127 0.0
C2167 C 0.38464 0.00864 0.16002 0.0
C2168 C 0.44827 0.98189 0.16336 0.0
C2169 C 0.44813 0.96232 0.17575 0.0
C2170 C 0.4675 0.98394 0.15049 0.0
C2171 C 0.46784 0.00354 0.13646 0.0
C2172 C 0.44804 0.00636 0.12433 0.0
C2173 C 0.44825 0.0252 0.11141 0.0
C2174 C 0.46827 0.04119 0.11035 0.0
C2175 C 0.48818 0.03829 0.12216 0.0
C2176 C 0.48804 0.01951 0.13515 0.0
C2177 C 0.51283 0.88382 0.15363 0.0
C2178 C 0.53812 0.88858 0.15513 0.0
C2179 C 0.49584 0.90265 0.156 0.0
C2180 C 0.50382 0.92653 0.15996 0.0
C2181 C 0.52904 0.93148 0.16122 0.0
C2182 C 0.5461 0.91261 0.15889 0.0
C2183 C 0.48566 0.94633 0.16243 0.0
C2184 C 0.48617 0.96627 0.15036 0.0
C2185 C 0.46668 0.94451 0.1755 0.0
C2186 C 0.46591 0.92434 0.18909 0.0
C2187 C 0.4863 0.91958 0.20031 0.0
C2188 C 0.48559 0.90035 0.21291 0.0
C2189 C 0.46454 0.88583 0.2145 0.0
C2190 C 0.44411 0.89056 0.20352 0.0
C2191 C 0.44473 0.90975 0.19089 0.0
H2192 H 0.46403 0.87095 0.22425 0.0
H2193 H 0.46839 0.05578 0.10034 0.0
H2194 H 0.63179 0.50945 0.66182 0.0
H2195 H 0.60078 0.47724 0.66418 0.0
H2196 H 0.54608 0.5314 0.6781 0.0
H2197 H 0.57689 0.56385 0.67554 0.0
H2198 H 0.56939 0.46091 0.69079 0.0
H2199 H 0.49392 0.51707 0.65466 0.0
H2200 H 0.49061 0.55216 0.63353 0.0
H2201 H 0.56138 0.53485 0.61114 0.0
H2202 H 0.56491 0.49944 0.6319 0.0
H2203 H 0.43725 0.41507 0.66659 0.0
H2204 H 0.46698 0.44797 0.67172 0.0
H2205 H 0.52627 0.39825 0.65908 0.0
H2206 H 0.49678 0.36517 0.65413 0.0
H2207 H 0.4993 0.46765 0.64785 0.0
H2208 H 0.57621 0.41338 0.68451 0.0
H2209 H 0.58047 0.37782 0.70508 0.0
H2210 H 0.50762 0.39009 0.72554 0.0
H2211 H 0.50305 0.42591 0.7053 0.0
C2212 C 0.61323 0.5145 0.6656 0.0
C2213 C 0.60667 0.5392 0.66828 0.0
C2214 C 0.5956 0.49606 0.66702 0.0
C2215 C 0.57118 0.50205 0.67109 0.0
C2216 C 0.56483 0.52653 0.67472 0.0
C2217 C 0.58243 0.54501 0.67324 0.0
C2218 C 0.55206 0.48295 0.67012 0.0
C2219 C 0.55412 0.46225 0.68135 0.0
C2220 C 0.53204 0.48501 0.65795 0.0
C2221 C 0.52977 0.5058 0.64499 0.0
C2222 C 0.5087 0.52069 0.64515 0.0
C2223 C 0.5068 0.54064 0.63325 0.0
C2224 C 0.52581 0.54579 0.62105 0.0
C2225 C 0.5467 0.5309 0.62064 0.0
C2226 C 0.54866 0.5109 0.63247 0.0
C2227 C 0.45663 0.4111 0.66499 0.0
C2228 C 0.46471 0.38753 0.66001 0.0
C2229 C 0.47355 0.42991 0.66791 0.0
C2230 C 0.49876 0.42541 0.66598 0.0
C2231 C 0.50688 0.40193 0.66096 0.0
C2232 C 0.49 0.3831 0.65806 0.0
C2233 C 0.51659 0.44551 0.66853 0.0
C2234 C 0.51436 0.46639 0.65749 0.0
C2235 C 0.53653 0.44348 0.68078 0.0
C2236 C 0.53923 0.42221 0.69326 0.0
C2237 C 0.56115 0.40856 0.69347 0.0
C2238 C 0.56361 0.38834 0.70506 0.0
C2239 C 0.5443 0.38166 0.71657 0.0
C2240 C 0.52253 0.39523 0.71657 0.0
C2241 C 0.51999 0.41548 0.70502 0.0
H2242 H 0.54624 0.36599 0.72551 0.0
H2243 H 0.52434 0.56129 0.61189 0.0
H2244 H 0.14457 0.49515 0.16115 0.0
H2245 H 0.11362 0.52708 0.16535 0.0
H2246 H 0.06137 0.47248 0.18306 0.0
H2247 H 0.09208 0.44037 0.17866 0.0
H2248 H 0.04388 0.49966 0.15569 0.0
H2249 H 0.08413 0.51501 0.21258 0.0
H2250 H 0.11935 0.52348 0.23272 0.0
H2251 H 0.13304 0.59113 0.20446 0.0
H2252 H 0.09813 0.58289 0.18395 0.0
H2253 H 0.94737 0.58059 0.17418 0.0
H2254 H 0.98043 0.55125 0.17958 0.0
H2255 H 0.03345 0.60397 0.16012 0.0
H2256 H 0.00049 0.63369 0.15491 0.0
H2257 H 0.0504 0.57795 0.18989 0.0
H2258 H 0.01312 0.56159 0.13189 0.0
H2259 H 0.97851 0.55372 0.11104 0.0
H2260 H 0.96046 0.48814 0.14061 0.0
H2261 H 0.99475 0.49584 0.16183 0.0
C2262 C 0.12664 0.48999 0.16628 0.0
C2263 C 0.12065 0.46524 0.16941 0.0
C2264 C 0.10902 0.50828 0.16874 0.0
C2265 C 0.08526 0.5021 0.17456 0.0
C2266 C 0.07962 0.47756 0.17853 0.0
C2267 C 0.09717 0.45926 0.176 0.0
C2268 C 0.0656 0.52076 0.17459 0.0
C2269 C 0.0451 0.51655 0.16347 0.0
C2270 C 0.06768 0.54314 0.18424 0.0
C2271 C 0.08862 0.54822 0.19662 0.0
C2272 C 0.09477 0.5316 0.21056 0.0
C2273 C 0.11466 0.53638 0.22206 0.0
C2274 C 0.12846 0.55781 0.21985 0.0
C2275 C 0.12235 0.57453 0.20615 0.0
C2276 C 0.10249 0.56982 0.1946 0.0
C2277 C 0.96608 0.58603 0.17115 0.0
C2278 C 0.97134 0.60932 0.16391 0.0
C2279 C 0.98492 0.56927 0.17429 0.0
C2280 C 0.00927 0.57541 0.17003 0.0
C2281 C 0.01473 0.59896 0.16348 0.0
C2282 C 0.99588 0.61583 0.16043 0.0
C2283 C 0.0287 0.55661 0.17117 0.0
C2284 C 0.04916 0.56089 0.18233 0.0
C2285 C 0.02677 0.53429 0.16145 0.0
C2286 C 0.00635 0.52943 0.14855 0.0
C2287 C 0.00166 0.54558 0.13402 0.0
C2288 C 0.98211 0.54115 0.12213 0.0
C2289 C 0.96725 0.52048 0.12453 0.0
C2290 C 0.97196 0.50416 0.13879 0.0
C2291 C 0.99146 0.50855 0.15074 0.0
H2292 H 0.95212 0.51708 0.11531 0.0
H2293 H 0.14385 0.56147 0.22876 0.0
H2294 H 0.86502 0.99052 0.67096 0.0
H2295 H 0.89243 0.02508 0.67659 0.0
H2296 H 0.9543 0.97571 0.67901 0.0
H2297 H 0.92689 0.94078 0.67366 0.0
H2298 H 0.95709 0.01477 0.70436 0.0
H2299 H 0.94099 0.00175 0.63988 0.0
H2300 H 0.91369 0.99678 0.61335 0.0
H2301 H 0.88242 0.06789 0.6233 0.0
H2302 H 0.90934 0.07314 0.65006 0.0
H2303 H 0.05805 0.08353 0.67236 0.0
H2304 H 0.02515 0.05459 0.67928 0.0
H2305 H 0.97141 0.11197 0.67186 0.0
H2306 H 0.00419 0.14104 0.6647 0.0
H2307 H 0.96081 0.07231 0.65201 0.0
H2308 H 0.9801 0.08853 0.71362 0.0
H2309 H 0.0065 0.09445 0.74049 0.0
H2310 H 0.03073 0.01958 0.73688 0.0
H2311 H 0.0046 0.01325 0.70985 0.0
C2312 C 0.88442 0.98692 0.67292 0.0
C2313 C 0.89392 0.963 0.67157 0.0
C2314 C 0.9 0.00669 0.6762 0.0
C2315 C 0.92533 0.00289 0.67797 0.0
C2316 C 0.93474 0.97892 0.67768 0.0
C2317 C 0.91911 0.95905 0.6745 0.0
C2318 C 0.94224 0.02401 0.67807 0.0
C2319 C 0.95808 0.02733 0.69292 0.0
C2320 C 0.94286 0.04072 0.66333 0.0
C2321 C 0.927 0.03774 0.64706 0.0
C2322 C 0.92819 0.01626 0.63647 0.0
C2323 C 0.9128 0.0134 0.62138 0.0
C2324 C 0.8963 0.03199 0.61666 0.0
C2325 C 0.8952 0.0535 0.62699 0.0
C2326 C 0.91053 0.05644 0.6421 0.0
C2327 C 0.03926 0.09008 0.67241 0.0
C2328 C 0.03367 0.11449 0.66784 0.0
C2329 C 0.0205 0.07357 0.67652 0.0
C2330 C 0.9959 0.08123 0.6762 0.0
C2331 C 0.99032 0.10577 0.67221 0.0
C2332 C 0.00906 0.12232 0.66812 0.0
C2333 C 0.97605 0.063 0.67821 0.0
C2334 C 0.95965 0.06011 0.66366 0.0
C2335 C 0.97485 0.04688 0.69328 0.0
C2336 C 0.99051 0.05047 0.70961 0.0
C2337 C 0.99119 0.07336 0.71846 0.0
C2338 C 0.00609 0.07679 0.73374 0.0
C2339 C 0.02037 0.05743 0.74035 0.0
C2340 C 0.01968 0.03457 0.73173 0.0
C2341 C 0.00477 0.03103 0.71645 0.0
H2342 H 0.03192 0.06013 0.75217 0.0
H2343 H 0.8844 0.02975 0.60498 0.0
H2344 H 0.50043 0.64571 0.34441 0.0
H2345 H 0.46348 0.62091 0.34044 0.0
H2346 H 0.50816 0.55687 0.33063 0.0
H2347 H 0.54535 0.58154 0.33447 0.0
H2348 H 0.46532 0.55975 0.30828 0.0
H2349 H 0.48977 0.56781 0.37208 0.0
H2350 H 0.49977 0.59217 0.3994 0.0
H2351 H 0.42836 0.62558 0.39772 0.0
H2352 H 0.4181 0.6017 0.37018 0.0
H2353 H 0.40585 0.45434 0.33813 0.0
H2354 H 0.43254 0.48939 0.33267 0.0
H2355 H 0.3749 0.53861 0.34981 0.0
H2356 H 0.34798 0.50342 0.35563 0.0
H2357 H 0.4179 0.54976 0.36554 0.0
H2358 H 0.39 0.536 0.30569 0.0
H2359 H 0.37904 0.51174 0.27857 0.0
H2360 H 0.45443 0.49042 0.27196 0.0
H2361 H 0.46581 0.51416 0.29926 0.0
C2362 C 0.50245 0.62643 0.34112 0.0
C2363 C 0.5258 0.61546 0.33998 0.0
C2364 C 0.48131 0.61234 0.33882 0.0
C2365 C 0.4832 0.58711 0.3354 0.0
C2366 C 0.50643 0.57638 0.33322 0.0
C2367 C 0.52762 0.59044 0.33556 0.0
C2368 C 0.46123 0.57134 0.33612 0.0
C2369 C 0.4549 0.55748 0.32075 0.0
C2370 C 0.44722 0.56918 0.35225 0.0
C2371 C 0.45327 0.58319 0.36898 0.0
C2372 C 0.47627 0.58048 0.37747 0.0
C2373 C 0.48197 0.59418 0.39299 0.0
C2374 C 0.46472 0.61043 0.40027 0.0
C2375 C 0.44171 0.613 0.39205 0.0
C2376 C 0.43594 0.59939 0.37649 0.0
C2377 C 0.39875 0.4726 0.34068 0.0
C2378 C 0.37481 0.47613 0.34731 0.0
C2379 C 0.41398 0.49262 0.33741 0.0
C2380 C 0.40552 0.51657 0.34054 0.0
C2381 C 0.38165 0.52023 0.34718 0.0
C2382 C 0.36634 0.50014 0.35049 0.0
C2383 C 0.42237 0.53749 0.33784 0.0
C2384 C 0.42781 0.55237 0.35287 0.0
C2385 C 0.43534 0.54073 0.32132 0.0
C2386 C 0.42875 0.52681 0.30462 0.0
C2387 C 0.40425 0.52604 0.29852 0.0
C2388 C 0.39795 0.51237 0.28311 0.0
C2389 C 0.41602 0.49952 0.27356 0.0
C2390 C 0.44045 0.50038 0.27937 0.0
C2391 C 0.44684 0.51398 0.29481 0.0
H2392 H 0.4111 0.48892 0.26165 0.0
H2393 H 0.46915 0.62099 0.41231 0.0
H2394 H 0.05851 0.40461 0.82455 0.0
H2395 H 0.0297 0.43829 0.81943 0.0
H2396 H 0.97069 0.39401 0.84088 0.0
H2397 H -0.00076 0.36011 0.84585 0.0
H2398 H 0.95579 0.42405 0.81229 0.0
H2399 H 0.00165 0.42966 0.86873 0.0
H2400 H 0.04015 0.43063 0.88642 0.0
H2401 H 0.0629 0.49553 0.85781 0.0
H2402 H 0.02471 0.49464 0.83968 0.0
H2403 H 0.87252 0.50484 0.85336 0.0
H2404 H 0.90279 0.47334 0.84631 0.0
H2405 H 0.95418 0.52916 0.82932 0.0
H2406 H 0.92402 0.56101 0.83665 0.0
H2407 H 0.97538 0.49598 0.85119 0.0
H2408 H 0.92551 0.4934 0.79782 0.0
H2409 H 0.88687 0.49143 0.78038 0.0
H2410 H 0.87102 0.42073 0.80343 0.0
H2411 H 0.9094 0.42243 0.82123 0.0
C2412 C 0.03931 0.40188 0.82788 0.0
C2413 C 0.03117 0.37992 0.83591 0.0
C2414 C 0.02291 0.42109 0.82488 0.0
C2415 C -0.00176 0.41866 0.83005 0.0
C2416 C 0.98971 0.39616 0.83683 0.0
C2417 C 0.00607 0.37689 0.83975 0.0
C2418 C 0.98204 0.44031 0.83058 0.0
C2419 C 0.95997 0.4398 0.82078 0.0
C2420 C 0.98788 0.46095 0.84143 0.0
C2421 C 0.01047 0.46194 0.85272 0.0
C2422 C 0.01493 0.44406 0.86615 0.0
C2423 C 0.03669 0.44459 0.87624 0.0
C2424 C 0.05399 0.4631 0.87321 0.0
C2425 C 0.0495 0.48118 0.86012 0.0
C2426 C 0.02781 0.48067 0.84993 0.0
C2427 C 0.89021 0.51046 0.84804 0.0
C2428 C 0.89588 0.53538 0.84548 0.0
C2429 C 0.90743 0.49242 0.84392 0.0
C2430 C 0.93052 0.49894 0.83697 0.0
C2431 C 0.93636 0.52381 0.83455 0.0
C2432 C 0.91915 0.54193 0.83876 0.0
C2433 C 0.94884 0.47968 0.83307 0.0
C2434 C 0.97133 0.48055 0.84234 0.0
C2435 C 0.94329 0.45935 0.82179 0.0
C2436 C 0.92029 0.45812 0.81095 0.0
C2437 C 0.91372 0.4775 0.79926 0.0
C2438 C 0.89186 0.47642 0.7893 0.0
C2439 C 0.87648 0.45598 0.79082 0.0
C2440 C 0.88296 0.43655 0.80227 0.0
C2441 C 0.90478 0.43755 0.81228 0.0
H2442 H 0.85957 0.45519 0.7831 0.0
H2443 H 0.07084 0.46346 0.88102 0.0
H2444 H 0.98397 0.86944 0.3442 0.0
H2445 H 0.01156 0.90439 0.34125 0.0
H2446 H 0.94981 0.95393 0.34359 0.0
H2447 H 0.92179 0.91885 0.34627 0.0
H2448 H 0.98563 0.96775 0.31796 0.0
H2449 H 0.9811 0.94443 0.38101 0.0
H2450 H 0.98232 0.91477 0.40636 0.0
H2451 H 0.05725 0.89731 0.39354 0.0
H2452 H 0.05636 0.92658 0.36792 0.0
H2453 H 0.06124 0.0713 0.33986 0.0
H2454 H 0.02915 0.03986 0.3393 0.0
H2455 H 0.08446 0.98325 0.34235 0.0
H2456 H 0.11653 0.01444 0.34331 0.0
H2457 H 0.04905 0.97511 0.3662 0.0
H2458 H 0.05373 0.9958 0.30262 0.0
H2459 H 0.05303 0.02354 0.2761 0.0
H2460 H 0.97904 0.04466 0.28894 0.0
H2461 H 0.97942 0.01727 0.3157 0.0
C2462 C 0.97616 0.88773 0.34392 0.0
C2463 C 0.95074 0.89145 0.34567 0.0
C2464 C 0.99197 0.90766 0.34224 0.0
C2465 C 0.98268 0.93166 0.34251 0.0
C2466 C 0.95724 0.93548 0.34343 0.0
C2467 C 0.94133 0.91547 0.34502 0.0
C2468 C -0.00018 0.9526 0.3429 0.0
C2469 C -0.00073 0.96967 0.32863 0.0
C2470 C 0.01779 0.95469 0.35671 0.0
C2471 C 0.01861 0.93761 0.37247 0.0
C2472 C -0.0022 0.9342 0.38355 0.0
C2473 C -0.00156 0.91745 0.39797 0.0
C2474 C 0.01985 0.90416 0.40155 0.0
C2475 C 0.04069 0.90763 0.39075 0.0
C2476 C 0.04014 0.92432 0.37629 0.0
C2477 C 0.06655 0.05214 0.34026 0.0
C2478 C 0.09138 0.04532 0.34163 0.0
C2479 C 0.04821 0.03422 0.33989 0.0
C2480 C 0.05448 0.00925 0.34067 0.0
C2481 C 0.07927 0.00244 0.34177 0.0
C2482 C 0.09756 0.02029 0.34226 0.0
C2483 C 0.03527 0.9901 0.34103 0.0
C2484 C 0.03534 0.97338 0.35555 0.0
C2485 C 0.017 0.98829 0.32739 0.0
C2486 C 0.0167 0.0047 0.31128 0.0
C2487 C 0.03738 0.00651 0.29988 0.0
C2488 C 0.03703 0.02214 0.28478 0.0
C2489 C 0.01603 0.03591 0.28087 0.0
C2490 C 0.99531 0.03402 0.29201 0.0
C2491 C 0.99558 0.01843 0.30713 0.0
H2492 H 0.01579 0.048 0.26918 0.0
H2493 H 0.0203 0.89117 0.4127 0.0
H2494 H 0.57575 0.93634 0.83996 0.0
H2495 H 0.54527 0.96803 0.83347 0.0
H2496 H 0.60161 0.02364 0.83666 0.0
H2497 H 0.6321 0.99217 0.84356 0.0
H2498 H 0.56349 0.03574 0.85656 0.0
H2499 H 0.5755 0.00816 0.7958 0.0
H2500 H 0.579 0.97808 0.77087 0.0
H2501 H 0.50414 0.95601 0.77929 0.0
H2502 H 0.50028 0.98571 0.80447 0.0
H2503 H 0.48084 0.12969 0.83383 0.0
H2504 H 0.51531 0.1016 0.82978 0.0
H2505 H 0.46555 0.03995 0.83096 0.0
H2506 H 0.43082 0.06794 0.83471 0.0
H2507 H 0.50299 0.03366 0.80605 0.0
H2508 H 0.49383 0.05743 0.86944 0.0
H2509 H 0.49109 0.08678 0.89491 0.0
H2510 H 0.56185 0.11611 0.88093 0.0
H2511 H 0.56492 0.08699 0.85529 0.0
C2512 C 0.58168 0.9553 0.83915 0.0
C2513 C 0.60627 0.9618 0.84235 0.0
C2514 C 0.56429 0.97335 0.83529 0.0
C2515 C 0.57128 -0.00188 0.83436 0.0
C2516 C 0.59589 0.0046 0.83726 0.0
C2517 C 0.61326 0.9866 0.84123 0.0
C2518 C 0.55254 0.01742 0.83185 0.0
C2519 C 0.55061 0.03558 0.84528 0.0
C2520 C 0.53548 0.01688 0.81733 0.0
C2521 C 0.53766 -0.00095 0.80213 0.0
C2522 C 0.55983 0.99677 0.79243 0.0
C2523 C 0.56187 0.97981 0.77824 0.0
C2524 C 0.54182 0.96511 0.77353 0.0
C2525 C 0.51966 0.9674 0.78297 0.0
C2526 C 0.51753 0.98432 0.79719 0.0
C2527 C 0.47716 0.11018 0.83296 0.0
C2528 C 0.45317 0.10096 0.83483 0.0
C2529 C 0.49688 0.09419 0.83065 0.0
C2530 C 0.49293 0.06876 0.83036 0.0
C2531 C 0.4689 0.05956 0.83118 0.0
C2532 C 0.44912 0.07555 0.8334 0.0
C2533 C 0.51393 0.05168 0.83084 0.0
C2534 C 0.5162 0.03395 0.81711 0.0
C2535 C 0.53143 0.05261 0.84505 0.0
C2536 C 0.52949 0.07022 0.86036 0.0
C2537 C 0.50871 0.07027 0.87172 0.0
C2538 C 0.50713 0.08682 0.88621 0.0
C2539 C 0.52627 0.10333 0.88952 0.0
C2540 C 0.54704 0.10332 0.87834 0.0
C2541 C 0.54873 0.08678 0.86385 0.0
H2542 H 0.52505 0.1161 0.90076 0.0
H2543 H 0.54344 0.95199 0.76253 0.0
loop_
_geom_bond_atom_site_label_1
_geom_bond_atom_site_label_2
_geom_bond_distance
_geom_bond_site_symmetry_2
_ccdc_geom_bond_type
Co0 O2 2.143 . S
Co0 O8 2.074 . S
Co0 O11 2.093 . S
Co0 O24 2.097 . S
Co0 N41 2.151 . S
Co0 N49 2.214 . S
Co1 O2 2.160 . S
Co1 O7 2.058 . S
Co1 O17 2.057 . S
Co1 O32 2.037 . S
Co1 N36 2.145 . S
Co1 N57 2.257 . S
O2 Co0 2.143 . S
O2 Co1 2.160 . S
C3 O4 1.278 . S
C3 O11 1.224 . S
O4 C3 1.278 . S
C5 O6 1.245 . S
C5 O17 1.232 . S
O6 C5 1.245 . S
O7 Co1 2.058 . S
O7 C33 1.269 . S
O8 Co0 2.074 . S
O8 C33 1.257 . S
H9 C34 0.930 . S
H10 C40 0.930 . S
O11 Co0 2.093 . S
O11 C3 1.224 . S
H12 C44 0.929 . S
H13 C46 0.930 . S
H14 C47 0.930 . S
H15 C45 0.929 . S
H16 C48 0.928 . S
O17 Co1 2.057 . S
O17 C5 1.232 . S
H18 C37 0.929 . S
H19 C38 0.929 . S
H20 C50 0.931 . S
H21 C42 0.929 . S
H22 C51 0.930 . S
H23 C43 0.931 1_565 S
O24 Co0 2.097 . S
O24 C52 1.214 . S
H25 C53 0.929 . S
H26 C54 0.929 . S
H27 C55 0.930 . S
H28 C56 0.929 . S
H29 C58 0.930 . S
H30 C35 0.930 . S
H31 C39 0.930 . S
O32 Co1 2.037 . S
O32 C52 1.234 . S
C33 O7 1.269 . S
C33 O8 1.257 . S
C34 H9 0.930 . S
C34 C37 1.388 . S
C34 C39 1.418 . S
C35 H30 0.930 . S
C35 C38 1.404 . S
C35 C39 1.353 . S
N36 Co1 2.145 . S
N36 C37 1.397 . S
N36 C38 1.334 . S
C37 H18 0.929 . S
C37 C34 1.388 . S
C37 N36 1.397 . S
C38 H19 0.929 . S
C38 C35 1.404 . S
C38 N36 1.334 . S
C39 H31 0.930 . S
C39 C34 1.418 . S
C39 C35 1.353 . S
C40 H10 0.930 . S
C40 N41 1.330 . S
C40 C42 1.446 . S
N41 Co0 2.151 . S
N41 C40 1.330 . S
N41 C45 1.418 . S
C42 H21 0.929 . S
C42 C40 1.446 . S
C42 C43 1.332 . S
C43 H23 0.931 1_545 S
C43 C42 1.332 . S
C43 C44 1.267 . S
C44 H12 0.929 . S
C44 C43 1.267 . S
C44 C45 1.251 . S
C45 H15 0.929 . S
C45 N41 1.418 . S
C45 C44 1.251 . S
C46 H13 0.930 . S
C46 C48 1.406 . S
C46 C51 1.261 . S
C47 H14 0.930 . S
C47 N49 1.325 . S
C47 C50 1.357 . S
C48 H16 0.928 . S
C48 C46 1.406 . S
C48 N49 1.261 . S
N49 Co0 2.214 . S
N49 C47 1.325 . S
N49 C48 1.261 . S
C50 H20 0.931 . S
C50 C47 1.357 . S
C50 C51 1.312 . S
C51 H22 0.930 . S
C51 C46 1.261 . S
C51 C50 1.312 . S
C52 O24 1.214 . S
C52 O32 1.234 . S
C53 H25 0.929 . S
C53 C56 1.391 . S
C53 C58 1.391 . S
C54 H26 0.929 . S
C54 C55 1.390 . S
C54 N57 1.391 . S
C55 H27 0.930 . S
C55 C54 1.390 . S
C55 C56 1.392 . S
C56 H28 0.929 . S
C56 C53 1.391 . S
C56 C55 1.392 . S
N57 Co1 2.257 . S
N57 C54 1.391 . S
N57 C58 1.388 . S
C58 H29 0.930 . S
C58 C53 1.391 . S
C58 N57 1.388 . S
Co59 O61 2.143 . S
Co59 O67 2.074 . S
Co59 O70 2.093 . S
Co59 O83 2.097 . S
Co59 N100 2.151 . S
Co59 N108 2.214 . S
Co60 O61 2.160 . S
Co60 O66 2.058 . S
Co60 O76 2.057 . S
Co60 O91 2.037 . S
Co60 N95 2.145 . S
Co60 N116 2.257 . S
O61 Co59 2.143 . S
O61 Co60 2.160 . S
C62 O63 1.278 . S
C62 O70 1.224 . S
O63 C62 1.278 . S
C64 O65 1.245 . S
C64 O76 1.232 . S
O65 C64 1.245 . S
O66 Co60 2.058 . S
O66 C92 1.269 . S
O67 Co59 2.074 . S
O67 C92 1.257 . S
H68 C93 0.930 . S
H69 C99 0.930 . S
O70 Co59 2.093 . S
O70 C62 1.224 . S
H71 C103 0.929 . S
H72 C105 0.930 . S
H73 C106 0.930 . S
H74 C104 0.929 . S
H75 C107 0.928 . S
O76 Co60 2.057 . S
O76 C64 1.232 . S
H77 C96 0.929 . S
H78 C97 0.929 . S
H79 C109 0.931 . S
H80 C101 0.929 . S
H81 C110 0.930 . S
H82 C102 0.931 . S
O83 Co59 2.097 . S
O83 C111 1.214 . S
H84 C112 0.929 . S
H85 C113 0.929 . S
H86 C114 0.930 . S
H87 C115 0.929 . S
H88 C117 0.930 . S
H89 C94 0.930 . S
H90 C98 0.930 . S
O91 Co60 2.037 . S
O91 C111 1.234 . S
C92 O66 1.269 . S
C92 O67 1.257 . S
C93 H68 0.930 . S
C93 C96 1.388 . S
C93 C98 1.418 . S
C94 H89 0.930 . S
C94 C97 1.404 . S
C94 C98 1.353 . S
N95 Co60 2.145 . S
N95 C96 1.397 . S
N95 C97 1.334 . S
C96 H77 0.929 . S
C96 C93 1.388 . S
C96 N95 1.397 . S
C97 H78 0.929 . S
C97 C94 1.404 . S
C97 N95 1.334 . S
C98 H90 0.930 . S
C98 C93 1.418 . S
C98 C94 1.353 . S
C99 H69 0.930 . S
C99 N100 1.330 . S
C99 C101 1.446 . S
N100 Co59 2.151 . S
N100 C99 1.330 . S
N100 C104 1.418 . S
C101 H80 0.929 . S
C101 C99 1.446 . S
C101 C102 1.332 . S
C102 H82 0.931 . S
C102 C101 1.332 . S
C102 C103 1.267 . S
C103 H71 0.929 . S
C103 C102 1.267 . S
C103 C104 1.251 . S
C104 H74 0.929 . S
C104 N100 1.418 . S
C104 C103 1.251 . S
C105 H72 0.930 . S
C105 C107 1.406 . S
C105 C110 1.261 . S
C106 H73 0.930 . S
C106 N108 1.325 . S
C106 C109 1.357 . S
C107 H75 0.928 . S
C107 C105 1.406 . S
C107 N108 1.261 . S
N108 Co59 2.214 . S
N108 C106 1.325 . S
N108 C107 1.261 . S
C109 H79 0.931 . S
C109 C106 1.357 . S
C109 C110 1.312 . S
C110 H81 0.930 . S
C110 C105 1.261 . S
C110 C109 1.312 . S
C111 O83 1.214 . S
C111 O91 1.234 . S
C112 H84 0.929 . S
C112 C115 1.391 . S
C112 C117 1.391 . S
C113 H85 0.929 . S
C113 C114 1.390 . S
C113 N116 1.391 . S
C114 H86 0.930 . S
C114 C113 1.390 . S
C114 C115 1.392 . S
C115 H87 0.929 . S
C115 C112 1.391 . S
C115 C114 1.392 . S
N116 Co60 2.257 . S
N116 C113 1.391 . S
N116 C117 1.388 . S
C117 H88 0.930 . S
C117 C112 1.391 . S
C117 N116 1.388 . S
Co118 O120 2.143 . S
Co118 O126 2.074 . S
Co118 O129 2.093 . S
Co118 O142 2.097 . S
Co118 N159 2.151 . S
Co118 N167 2.214 . S
Co119 O120 2.160 . S
Co119 O125 2.058 . S
Co119 O135 2.057 . S
Co119 O150 2.037 . S
Co119 N154 2.145 . S
Co119 N175 2.257 . S
O120 Co118 2.143 . S
O120 Co119 2.160 . S
C121 O122 1.278 . S
C121 O129 1.224 . S
O122 C121 1.278 . S
C123 O124 1.245 . S
C123 O135 1.232 . S
O124 C123 1.245 . S
O125 Co119 2.058 . S
O125 C151 1.269 . S
O126 Co118 2.074 . S
O126 C151 1.257 . S
H127 C152 0.930 . S
H128 C158 0.930 . S
O129 Co118 2.093 . S
O129 C121 1.224 . S
H130 C162 0.929 . S
H131 C164 0.930 . S
H132 C165 0.930 . S
H133 C163 0.929 . S
H134 C166 0.928 . S
O135 Co119 2.057 . S
O135 C123 1.232 . S
H136 C155 0.929 . S
H137 C156 0.929 . S
H138 C168 0.931 . S
H139 C160 0.929 . S
H140 C169 0.930 . S
H141 C161 0.931 . S
O142 Co118 2.097 . S
O142 C170 1.214 . S
H143 C171 0.929 . S
H144 C172 0.929 . S
H145 C173 0.930 . S
H146 C174 0.929 . S
H147 C176 0.930 . S
H148 C153 0.930 . S
H149 C157 0.930 . S
O150 Co119 2.037 . S
O150 C170 1.234 . S
C151 O125 1.269 . S
C151 O126 1.257 . S
C152 H127 0.930 . S
C152 C155 1.388 . S
C152 C157 1.418 . S
C153 H148 0.930 . S
C153 C156 1.404 . S
C153 C157 1.353 . S
N154 Co119 2.145 . S
N154 C155 1.397 . S
N154 C156 1.334 . S
C155 H136 0.929 . S
C155 C152 1.388 . S
C155 N154 1.397 . S
C156 H137 0.929 . S
C156 C153 1.404 . S
C156 N154 1.334 . S
C157 H149 0.930 . S
C157 C152 1.418 . S
C157 C153 1.353 . S
C158 H128 0.930 . S
C158 N159 1.330 . S
C158 C160 1.446 . S
N159 Co118 2.151 . S
N159 C158 1.330 . S
N159 C163 1.418 . S
C160 H139 0.929 . S
C160 C158 1.446 . S
C160 C161 1.332 . S
C161 H141 0.931 . S
C161 C160 1.332 . S
C161 C162 1.267 . S
C162 H130 0.929 . S
C162 C161 1.267 . S
C162 C163 1.251 . S
C163 H133 0.929 . S
C163 N159 1.418 . S
C163 C162 1.251 . S
C164 H131 0.930 . S
C164 C166 1.406 . S
C164 C169 1.261 . S
C165 H132 0.930 . S
C165 N167 1.325 . S
C165 C168 1.357 . S
C166 H134 0.928 . S
C166 C164 1.406 . S
C166 N167 1.261 . S
N167 Co118 2.214 . S
N167 C165 1.325 . S
N167 C166 1.261 . S
C168 H138 0.931 . S
C168 C165 1.357 . S
C168 C169 1.312 . S
C169 H140 0.930 . S
C169 C164 1.261 . S
C169 C168 1.312 . S
C170 O142 1.214 . S
C170 O150 1.234 . S
C171 H143 0.929 . S
C171 C174 1.391 . S
C171 C176 1.391 . S
C172 H144 0.929 . S
C172 C173 1.390 . S
C172 N175 1.391 . S
C173 H145 0.930 . S
C173 C172 1.390 . S
C173 C174 1.392 . S
C174 H146 0.929 . S
C174 C171 1.391 . S
C174 C173 1.392 . S
N175 Co119 2.257 . S
N175 C172 1.391 . S
N175 C176 1.388 . S
C176 H147 0.930 . S
C176 C171 1.391 . S
C176 N175 1.388 . S
Co177 O179 2.143 . S
Co177 O185 2.074 . S
Co177 O188 2.093 . S
Co177 O201 2.097 . S
Co177 N218 2.151 . S
Co177 N226 2.214 . S
Co178 O179 2.160 . S
Co178 O184 2.058 . S
Co178 O194 2.057 . S
Co178 O209 2.037 . S
Co178 N213 2.145 . S
Co178 N234 2.257 . S
O179 Co177 2.143 . S
O179 Co178 2.160 . S
C180 O181 1.278 . S
C180 O188 1.224 . S
O181 C180 1.278 . S
C182 O183 1.245 . S
C182 O194 1.232 . S
O183 C182 1.245 . S
O184 Co178 2.058 . S
O184 C210 1.269 . S
O185 Co177 2.074 . S
O185 C210 1.257 . S
H186 C211 0.930 . S
H187 C217 0.930 . S
O188 Co177 2.093 . S
O188 C180 1.224 . S
H189 C221 0.929 . S
H190 C223 0.930 . S
H191 C224 0.930 . S
H192 C222 0.929 . S
H193 C225 0.928 . S
O194 Co178 2.057 . S
O194 C182 1.232 . S
H195 C214 0.929 . S
H196 C215 0.929 . S
H197 C227 0.931 . S
H198 C219 0.929 . S
H199 C228 0.930 . S
H200 C220 0.931 1_655 S
O201 Co177 2.097 . S
O201 C229 1.214 . S
H202 C230 0.929 . S
H203 C231 0.929 . S
H204 C232 0.930 . S
H205 C233 0.929 . S
H206 C235 0.930 . S
H207 C212 0.930 . S
H208 C216 0.930 . S
O209 Co178 2.037 . S
O209 C229 1.234 . S
C210 O184 1.269 . S
C210 O185 1.257 . S
C211 H186 0.930 . S
C211 C214 1.388 . S
C211 C216 1.418 . S
C212 H207 0.930 . S
C212 C215 1.404 . S
C212 C216 1.353 . S
N213 Co178 2.145 . S
N213 C214 1.397 . S
N213 C215 1.334 . S
C214 H195 0.929 . S
C214 C211 1.388 . S
C214 N213 1.397 . S
C215 H196 0.929 . S
C215 C212 1.404 . S
C215 N213 1.334 . S
C216 H208 0.930 . S
C216 C211 1.418 . S
C216 C212 1.353 . S
C217 H187 0.930 . S
C217 N218 1.330 . S
C217 C219 1.446 . S
N218 Co177 2.151 . S
N218 C217 1.330 . S
N218 C222 1.418 . S
C219 H198 0.929 . S
C219 C217 1.446 . S
C219 C220 1.332 . S
C220 H200 0.931 1_455 S
C220 C219 1.332 . S
C220 C221 1.267 . S
C221 H189 0.929 . S
C221 C220 1.267 . S
C221 C222 1.251 . S
C222 H192 0.929 . S
C222 N218 1.418 . S
C222 C221 1.251 . S
C223 H190 0.930 . S
C223 C225 1.406 . S
C223 C228 1.261 . S
C224 H191 0.930 . S
C224 N226 1.325 . S
C224 C227 1.357 . S
C225 H193 0.928 . S
C225 C223 1.406 . S
C225 N226 1.261 . S
N226 Co177 2.214 . S
N226 C224 1.325 . S
N226 C225 1.261 . S
C227 H197 0.931 . S
C227 C224 1.357 . S
C227 C228 1.312 . S
C228 H199 0.930 . S
C228 C223 1.261 . S
C228 C227 1.312 . S
C229 O201 1.214 . S
C229 O209 1.234 . S
C230 H202 0.929 . S
C230 C233 1.391 . S
C230 C235 1.391 . S
C231 H203 0.929 . S
C231 C232 1.390 . S
C231 N234 1.391 . S
C232 H204 0.930 . S
C232 C231 1.390 . S
C232 C233 1.392 . S
C233 H205 0.929 . S
C233 C230 1.391 . S
C233 C232 1.392 . S
N234 Co178 2.257 . S
N234 C231 1.391 . S
N234 C235 1.388 . S
C235 H206 0.930 . S
C235 C230 1.391 . S
C235 N234 1.388 . S
Co236 O238 2.143 . S
Co236 O244 2.074 . S
Co236 O247 2.093 . S
Co236 O260 2.097 . S
Co236 N277 2.151 . S
Co236 N285 2.214 . S
Co237 O238 2.160 . S
Co237 O243 2.058 . S
Co237 O253 2.057 . S
Co237 O268 2.037 . S
Co237 N272 2.145 . S
Co237 N293 2.257 . S
O238 Co236 2.143 . S
O238 Co237 2.160 . S
C239 O240 1.278 . S
C239 O247 1.224 . S
O240 C239 1.278 . S
C241 O242 1.245 . S
C241 O253 1.232 . S
O242 C241 1.245 . S
O243 Co237 2.058 . S
O243 C269 1.269 . S
O244 Co236 2.074 . S
O244 C269 1.257 . S
H245 C270 0.930 . S
H246 C276 0.930 . S
O247 Co236 2.093 . S
O247 C239 1.224 . S
H248 C280 0.929 . S
H249 C282 0.930 . S
H250 C283 0.930 . S
H251 C281 0.929 . S
H252 C284 0.928 . S
O253 Co237 2.057 . S
O253 C241 1.232 . S
H254 C273 0.929 . S
H255 C274 0.929 . S
H256 C286 0.931 . S
H257 C278 0.929 . S
H258 C287 0.930 . S
H259 C279 0.931 . S
O260 Co236 2.097 . S
O260 C288 1.214 . S
H261 C289 0.929 . S
H262 C290 0.929 . S
H263 C291 0.930 . S
H264 C292 0.929 . S
H265 C294 0.930 . S
H266 C271 0.930 . S
H267 C275 0.930 . S
O268 Co237 2.037 . S
O268 C288 1.234 . S
C269 O243 1.269 . S
C269 O244 1.257 . S
C270 H245 0.930 . S
C270 C273 1.388 . S
C270 C275 1.418 . S
C271 H266 0.930 . S
C271 C274 1.404 . S
C271 C275 1.353 . S
N272 Co237 2.145 . S
N272 C273 1.397 . S
N272 C274 1.334 . S
C273 H254 0.929 . S
C273 C270 1.388 . S
C273 N272 1.397 . S
C274 H255 0.929 . S
C274 C271 1.404 . S
C274 N272 1.334 . S
C275 H267 0.930 . S
C275 C270 1.418 . S
C275 C271 1.353 . S
C276 H246 0.930 . S
C276 N277 1.330 . S
C276 C278 1.446 . S
N277 Co236 2.151 . S
N277 C276 1.330 . S
N277 C281 1.418 . S
C278 H257 0.929 . S
C278 C276 1.446 . S
C278 C279 1.332 . S
C279 H259 0.931 . S
C279 C278 1.332 . S
C279 C280 1.267 . S
C280 H248 0.929 . S
C280 C279 1.267 . S
C280 C281 1.251 . S
C281 H251 0.929 . S
C281 N277 1.418 . S
C281 C280 1.251 . S
C282 H249 0.930 . S
C282 C284 1.406 . S
C282 C287 1.261 . S
C283 H250 0.930 . S
C283 N285 1.325 . S
C283 C286 1.357 . S
C284 H252 0.928 . S
C284 C282 1.406 . S
C284 N285 1.261 . S
N285 Co236 2.214 . S
N285 C283 1.325 . S
N285 C284 1.261 . S
C286 H256 0.931 . S
C286 C283 1.357 . S
C286 C287 1.312 . S
C287 H258 0.930 . S
C287 C282 1.261 . S
C287 C286 1.312 . S
C288 O260 1.214 . S
C288 O268 1.234 . S
C289 H261 0.929 . S
C289 C292 1.391 . S
C289 C294 1.391 . S
C290 H262 0.929 . S
C290 C291 1.390 . S
C290 N293 1.391 . S
C291 H263 0.930 . S
C291 C290 1.390 . S
C291 C292 1.392 . S
C292 H264 0.929 . S
C292 C289 1.391 . S
C292 C291 1.392 . S
N293 Co237 2.257 . S
N293 C290 1.391 . S
N293 C294 1.388 . S
C294 H265 0.930 . S
C294 C289 1.391 . S
C294 N293 1.388 . S
Co295 O297 2.143 . S
Co295 O303 2.074 . S
Co295 O306 2.093 . S
Co295 O319 2.097 . S
Co295 N336 2.151 . S
Co295 N344 2.214 . S
Co296 O297 2.160 . S
Co296 O302 2.058 . S
Co296 O312 2.057 . S
Co296 O327 2.037 . S
Co296 N331 2.145 . S
Co296 N352 2.257 . S
O297 Co295 2.143 . S
O297 Co296 2.160 . S
C298 O299 1.278 . S
C298 O306 1.224 . S
O299 C298 1.278 . S
C300 O301 1.245 . S
C300 O312 1.232 . S
O301 C300 1.245 . S
O302 Co296 2.058 . S
O302 C328 1.269 . S
O303 Co295 2.074 . S
O303 C328 1.257 . S
H304 C329 0.930 . S
H305 C335 0.930 . S
O306 Co295 2.093 . S
O306 C298 1.224 . S
H307 C339 0.929 . S
H308 C341 0.930 . S
H309 C342 0.930 . S
H310 C340 0.929 . S
H311 C343 0.928 . S
O312 Co296 2.057 . S
O312 C300 1.232 . S
H313 C332 0.929 . S
H314 C333 0.929 . S
H315 C345 0.931 . S
H316 C337 0.929 . S
H317 C346 0.930 . S
H318 C338 0.931 1_655 S
O319 Co295 2.097 . S
O319 C347 1.214 . S
H320 C348 0.929 . S
H321 C349 0.929 . S
H322 C350 0.930 . S
H323 C351 0.929 . S
H324 C353 0.930 . S
H325 C330 0.930 . S
H326 C334 0.930 . S
O327 Co296 2.037 . S
O327 C347 1.234 . S
C328 O302 1.269 . S
C328 O303 1.257 . S
C329 H304 0.930 . S
C329 C332 1.388 . S
C329 C334 1.418 . S
C330 H325 0.930 . S
C330 C333 1.404 . S
C330 C334 1.353 . S
N331 Co296 2.145 . S
N331 C332 1.397 . S
N331 C333 1.334 . S
C332 H313 0.929 . S
C332 C329 1.388 . S
C332 N331 1.397 . S
C333 H314 0.929 . S
C333 C330 1.404 . S
C333 N331 1.334 . S
C334 H326 0.930 . S
C334 C329 1.418 . S
C334 C330 1.353 . S
C335 H305 0.930 . S
C335 N336 1.330 . S
C335 C337 1.446 . S
N336 Co295 2.151 . S
N336 C335 1.330 . S
N336 C340 1.418 . S
C337 H316 0.929 . S
C337 C335 1.446 . S
C337 C338 1.332 . S
C338 H318 0.931 1_455 S
C338 C337 1.332 . S
C338 C339 1.267 . S
C339 H307 0.929 . S
C339 C338 1.267 . S
C339 C340 1.251 . S
C340 H310 0.929 . S
C340 N336 1.418 . S
C340 C339 1.251 . S
C341 H308 0.930 . S
C341 C343 1.406 . S
C341 C346 1.261 . S
C342 H309 0.930 . S
C342 N344 1.325 . S
C342 C345 1.357 . S
C343 H311 0.928 . S
C343 C341 1.406 . S
C343 N344 1.261 . S
N344 Co295 2.214 . S
N344 C342 1.325 . S
N344 C343 1.261 . S
C345 H315 0.931 . S
C345 C342 1.357 . S
C345 C346 1.312 . S
C346 H317 0.930 . S
C346 C341 1.261 . S
C346 C345 1.312 . S
C347 O319 1.214 . S
C347 O327 1.234 . S
C348 H320 0.929 . S
C348 C351 1.391 . S
C348 C353 1.391 . S
C349 H321 0.929 . S
C349 C350 1.390 . S
C349 N352 1.391 . S
C350 H322 0.930 . S
C350 C349 1.390 . S
C350 C351 1.392 . S
C351 H323 0.929 . S
C351 C348 1.391 . S
C351 C350 1.392 . S
N352 Co296 2.257 . S
N352 C349 1.391 . S
N352 C353 1.388 . S
C353 H324 0.930 . S
C353 C348 1.391 . S
C353 N352 1.388 . S
Co354 O356 2.143 . S
Co354 O362 2.074 . S
Co354 O365 2.093 . S
Co354 O378 2.097 . S
Co354 N395 2.151 . S
Co354 N403 2.214 . S
Co355 O356 2.160 . S
Co355 O361 2.058 . S
Co355 O371 2.057 . S
Co355 O386 2.037 . S
Co355 N390 2.145 . S
Co355 N411 2.257 . S
O356 Co354 2.143 . S
O356 Co355 2.160 . S
C357 O358 1.278 . S
C357 O365 1.224 . S
O358 C357 1.278 . S
C359 O360 1.245 . S
C359 O371 1.232 . S
O360 C359 1.245 . S
O361 Co355 2.058 . S
O361 C387 1.269 . S
O362 Co354 2.074 . S
O362 C387 1.257 . S
H363 C388 0.930 . S
H364 C394 0.930 . S
O365 Co354 2.093 . S
O365 C357 1.224 . S
H366 C398 0.929 . S
H367 C400 0.930 . S
H368 C401 0.930 . S
H369 C399 0.929 . S
H370 C402 0.928 . S
O371 Co355 2.057 . S
O371 C359 1.232 . S
H372 C391 0.929 . S
H373 C392 0.929 . S
H374 C404 0.931 . S
H375 C396 0.929 . S
H376 C405 0.930 . S
H377 C397 0.931 1_565 S
O378 Co354 2.097 . S
O378 C406 1.214 . S
H379 C407 0.929 . S
H380 C408 0.929 . S
H381 C409 0.930 . S
H382 C410 0.929 . S
H383 C412 0.930 . S
H384 C389 0.930 . S
H385 C393 0.930 . S
O386 Co355 2.037 . S
O386 C406 1.234 . S
C387 O361 1.269 . S
C387 O362 1.257 . S
C388 H363 0.930 . S
C388 C391 1.388 . S
C388 C393 1.418 . S
C389 H384 0.930 . S
C389 C392 1.404 . S
C389 C393 1.353 . S
N390 Co355 2.145 . S
N390 C391 1.397 . S
N390 C392 1.334 . S
C391 H372 0.929 . S
C391 C388 1.388 . S
C391 N390 1.397 . S
C392 H373 0.929 . S
C392 C389 1.404 . S
C392 N390 1.334 . S
C393 H385 0.930 . S
C393 C388 1.418 . S
C393 C389 1.353 . S
C394 H364 0.930 . S
C394 N395 1.330 . S
C394 C396 1.446 . S
N395 Co354 2.151 . S
N395 C394 1.330 . S
N395 C399 1.418 . S
C396 H375 0.929 . S
C396 C394 1.446 . S
C396 C397 1.332 . S
C397 H377 0.931 1_545 S
C397 C396 1.332 . S
C397 C398 1.267 . S
C398 H366 0.929 . S
C398 C397 1.267 . S
C398 C399 1.251 . S
C399 H369 0.929 . S
C399 N395 1.418 . S
C399 C398 1.251 . S
C400 H367 0.930 . S
C400 C402 1.406 . S
C400 C405 1.261 . S
C401 H368 0.930 . S
C401 N403 1.325 . S
C401 C404 1.357 . S
C402 H370 0.928 . S
C402 C400 1.406 . S
C402 N403 1.261 . S
N403 Co354 2.214 . S
N403 C401 1.325 . S
N403 C402 1.261 . S
C404 H374 0.931 . S
C404 C401 1.357 . S
C404 C405 1.312 . S
C405 H376 0.930 . S
C405 C400 1.261 . S
C405 C404 1.312 . S
C406 O378 1.214 . S
C406 O386 1.234 . S
C407 H379 0.929 . S
C407 C410 1.391 . S
C407 C412 1.391 . S
C408 H380 0.929 . S
C408 C409 1.390 . S
C408 N411 1.391 . S
C409 H381 0.930 . S
C409 C408 1.390 . S
C409 C410 1.392 . S
C410 H382 0.929 . S
C410 C407 1.391 . S
C410 C409 1.392 . S
N411 Co355 2.257 . S
N411 C408 1.391 . S
N411 C412 1.388 . S
C412 H383 0.930 . S
C412 C407 1.391 . S
C412 N411 1.388 . S
Co413 O415 2.143 . S
Co413 O421 2.074 . S
Co413 O424 2.093 . S
Co413 O437 2.097 . S
Co413 N454 2.151 . S
Co413 N462 2.214 . S
Co414 O415 2.160 . S
Co414 O420 2.058 . S
Co414 O430 2.057 . S
Co414 O445 2.037 . S
Co414 N449 2.145 . S
Co414 N470 2.257 . S
O415 Co413 2.143 . S
O415 Co414 2.160 . S
C416 O417 1.278 . S
C416 O424 1.224 . S
O417 C416 1.278 . S
C418 O419 1.245 . S
C418 O430 1.232 . S
O419 C418 1.245 . S
O420 Co414 2.058 . S
O420 C446 1.269 . S
O421 Co413 2.074 . S
O421 C446 1.257 . S
H422 C447 0.930 . S
H423 C453 0.930 . S
O424 Co413 2.093 . S
O424 C416 1.224 . S
H425 C457 0.929 . S
H426 C459 0.930 . S
H427 C460 0.930 . S
H428 C458 0.929 . S
H429 C461 0.928 . S
O430 Co414 2.057 . S
O430 C418 1.232 . S
H431 C450 0.929 . S
H432 C451 0.929 . S
H433 C463 0.931 . S
H434 C455 0.929 . S
H435 C464 0.930 . S
H436 C456 0.931 . S
O437 Co413 2.097 . S
O437 C465 1.214 . S
H438 C466 0.929 . S
H439 C467 0.929 . S
H440 C468 0.930 . S
H441 C469 0.929 . S
H442 C471 0.930 . S
H443 C448 0.930 . S
H444 C452 0.930 . S
O445 Co414 2.037 . S
O445 C465 1.234 . S
C446 O420 1.269 . S
C446 O421 1.257 . S
C447 H422 0.930 . S
C447 C450 1.388 . S
C447 C452 1.418 . S
C448 H443 0.930 . S
C448 C451 1.404 . S
C448 C452 1.353 . S
N449 Co414 2.145 . S
N449 C450 1.397 . S
N449 C451 1.334 . S
C450 H431 0.929 . S
C450 C447 1.388 . S
C450 N449 1.397 . S
C451 H432 0.929 . S
C451 C448 1.404 . S
C451 N449 1.334 . S
C452 H444 0.930 . S
C452 C447 1.418 . S
C452 C448 1.353 . S
C453 H423 0.930 . S
C453 N454 1.330 . S
C453 C455 1.446 . S
N454 Co413 2.151 . S
N454 C453 1.330 . S
N454 C458 1.418 . S
C455 H434 0.929 . S
C455 C453 1.446 . S
C455 C456 1.332 . S
C456 H436 0.931 . S
C456 C455 1.332 . S
C456 C457 1.267 . S
C457 H425 0.929 . S
C457 C456 1.267 . S
C457 C458 1.251 . S
C458 H428 0.929 . S
C458 N454 1.418 . S
C458 C457 1.251 . S
C459 H426 0.930 . S
C459 C461 1.406 . S
C459 C464 1.261 . S
C460 H427 0.930 . S
C460 N462 1.325 . S
C460 C463 1.357 . S
C461 H429 0.928 . S
C461 C459 1.406 . S
C461 N462 1.261 . S
N462 Co413 2.214 . S
N462 C460 1.325 . S
N462 C461 1.261 . S
C463 H433 0.931 . S
C463 C460 1.357 . S
C463 C464 1.312 . S
C464 H435 0.930 . S
C464 C459 1.261 . S
C464 C463 1.312 . S
C465 O437 1.214 . S
C465 O445 1.234 . S
C466 H438 0.929 . S
C466 C469 1.391 . S
C466 C471 1.391 . S
C467 H439 0.929 . S
C467 C468 1.390 . S
C467 N470 1.391 . S
C468 H440 0.930 . S
C468 C467 1.390 . S
C468 C469 1.392 . S
C469 H441 0.929 . S
C469 C466 1.391 . S
C469 C468 1.392 . S
N470 Co414 2.257 . S
N470 C467 1.391 . S
N470 C471 1.388 . S
C471 H442 0.930 . S
C471 C466 1.391 . S
C471 N470 1.388 . S
Co472 O474 2.143 . S
Co472 O480 2.074 . S
Co472 O483 2.093 . S
Co472 O496 2.097 . S
Co472 N513 2.151 . S
Co472 N521 2.214 . S
Co473 O474 2.160 . S
Co473 O479 2.058 . S
Co473 O489 2.057 . S
Co473 O504 2.037 . S
Co473 N508 2.145 . S
Co473 N529 2.257 . S
O474 Co472 2.143 . S
O474 Co473 2.160 . S
C475 O476 1.278 . S
C475 O483 1.224 . S
O476 C475 1.278 . S
C477 O478 1.245 . S
C477 O489 1.232 . S
O478 C477 1.245 . S
O479 Co473 2.058 . S
O479 C505 1.269 . S
O480 Co472 2.074 . S
O480 C505 1.257 . S
H481 C506 0.930 . S
H482 C512 0.930 . S
O483 Co472 2.093 . S
O483 C475 1.224 . S
H484 C516 0.929 . S
H485 C518 0.930 . S
H486 C519 0.930 . S
H487 C517 0.929 . S
H488 C520 0.928 . S
O489 Co473 2.057 . S
O489 C477 1.232 . S
H490 C509 0.929 . S
H491 C510 0.929 . S
H492 C522 0.931 . S
H493 C514 0.929 . S
H494 C523 0.930 . S
H495 C515 0.931 1_545 S
O496 Co472 2.097 . S
O496 C524 1.214 . S
H497 C525 0.929 . S
H498 C526 0.929 . S
H499 C527 0.930 . S
H500 C528 0.929 . S
H501 C530 0.930 . S
H502 C507 0.930 . S
H503 C511 0.930 . S
O504 Co473 2.037 . S
O504 C524 1.234 . S
C505 O479 1.269 . S
C505 O480 1.257 . S
C506 H481 0.930 . S
C506 C509 1.388 . S
C506 C511 1.418 . S
C507 H502 0.930 . S
C507 C510 1.404 . S
C507 C511 1.353 . S
N508 Co473 2.145 . S
N508 C509 1.397 . S
N508 C510 1.334 . S
C509 H490 0.929 . S
C509 C506 1.388 . S
C509 N508 1.397 . S
C510 H491 0.929 . S
C510 C507 1.404 . S
C510 N508 1.334 . S
C511 H503 0.930 . S
C511 C506 1.418 . S
C511 C507 1.353 . S
C512 H482 0.930 . S
C512 N513 1.330 . S
C512 C514 1.446 . S
N513 Co472 2.151 . S
N513 C512 1.330 . S
N513 C517 1.418 . S
C514 H493 0.929 . S
C514 C512 1.446 . S
C514 C515 1.332 . S
C515 H495 0.931 1_565 S
C515 C514 1.332 . S
C515 C516 1.267 . S
C516 H484 0.929 . S
C516 C515 1.267 . S
C516 C517 1.251 . S
C517 H487 0.929 . S
C517 N513 1.418 . S
C517 C516 1.251 . S
C518 H485 0.930 . S
C518 C520 1.406 . S
C518 C523 1.261 . S
C519 H486 0.930 . S
C519 N521 1.325 . S
C519 C522 1.357 . S
C520 H488 0.928 . S
C520 C518 1.406 . S
C520 N521 1.261 . S
N521 Co472 2.214 . S
N521 C519 1.325 . S
N521 C520 1.261 . S
C522 H492 0.931 . S
C522 C519 1.357 . S
C522 C523 1.312 . S
C523 H494 0.930 . S
C523 C518 1.261 . S
C523 C522 1.312 . S
C524 O496 1.214 . S
C524 O504 1.234 . S
C525 H497 0.929 . S
C525 C528 1.391 . S
C525 C530 1.391 . S
C526 H498 0.929 . S
C526 C527 1.390 . S
C526 N529 1.391 . S
C527 H499 0.930 . S
C527 C526 1.390 . S
C527 C528 1.392 . S
C528 H500 0.929 . S
C528 C525 1.391 . S
C528 C527 1.392 . S
N529 Co473 2.257 . S
N529 C526 1.391 . S
N529 C530 1.388 . S
C530 H501 0.930 . S
C530 C525 1.391 . S
C530 N529 1.388 . S
Co531 O533 2.143 . S
Co531 O539 2.074 . S
Co531 O542 2.093 . S
Co531 O555 2.097 . S
Co531 N572 2.151 . S
Co531 N580 2.214 . S
Co532 O533 2.160 . S
Co532 O538 2.058 . S
Co532 O548 2.057 . S
Co532 O563 2.037 . S
Co532 N567 2.145 . S
Co532 N588 2.257 . S
O533 Co531 2.143 . S
O533 Co532 2.160 . S
C534 O535 1.278 . S
C534 O542 1.224 . S
O535 C534 1.278 . S
C536 O537 1.245 . S
C536 O548 1.232 . S
O537 C536 1.245 . S
O538 Co532 2.058 . S
O538 C564 1.269 . S
O539 Co531 2.074 . S
O539 C564 1.257 . S
H540 C565 0.930 . S
H541 C571 0.930 . S
O542 Co531 2.093 . S
O542 C534 1.224 . S
H543 C575 0.929 . S
H544 C577 0.930 . S
H545 C578 0.930 . S
H546 C576 0.929 . S
H547 C579 0.928 . S
O548 Co532 2.057 . S
O548 C536 1.232 . S
H549 C568 0.929 . S
H550 C569 0.929 . S
H551 C581 0.931 . S
H552 C573 0.929 . S
H553 C582 0.930 . S
H554 C574 0.931 . S
O555 Co531 2.097 . S
O555 C583 1.214 . S
H556 C584 0.929 . S
H557 C585 0.929 . S
H558 C586 0.930 . S
H559 C587 0.929 . S
H560 C589 0.930 . S
H561 C566 0.930 . S
H562 C570 0.930 . S
O563 Co532 2.037 . S
O563 C583 1.234 . S
C564 O538 1.269 . S
C564 O539 1.257 . S
C565 H540 0.930 . S
C565 C568 1.388 . S
C565 C570 1.418 . S
C566 H561 0.930 . S
C566 C569 1.404 . S
C566 C570 1.353 . S
N567 Co532 2.145 . S
N567 C568 1.397 . S
N567 C569 1.334 . S
C568 H549 0.929 . S
C568 C565 1.388 . S
C568 N567 1.397 . S
C569 H550 0.929 . S
C569 C566 1.404 . S
C569 N567 1.334 . S
C570 H562 0.930 . S
C570 C565 1.418 . S
C570 C566 1.353 . S
C571 H541 0.930 . S
C571 N572 1.330 . S
C571 C573 1.446 . S
N572 Co531 2.151 . S
N572 C571 1.330 . S
N572 C576 1.418 . S
C573 H552 0.929 . S
C573 C571 1.446 . S
C573 C574 1.332 . S
C574 H554 0.931 . S
C574 C573 1.332 . S
C574 C575 1.267 . S
C575 H543 0.929 . S
C575 C574 1.267 . S
C575 C576 1.251 . S
C576 H546 0.929 . S
C576 N572 1.418 . S
C576 C575 1.251 . S
C577 H544 0.930 . S
C577 C579 1.406 . S
C577 C582 1.261 . S
C578 H545 0.930 . S
C578 N580 1.325 . S
C578 C581 1.357 . S
C579 H547 0.928 . S
C579 C577 1.406 . S
C579 N580 1.261 . S
N580 Co531 2.214 . S
N580 C578 1.325 . S
N580 C579 1.261 . S
C581 H551 0.931 . S
C581 C578 1.357 . S
C581 C582 1.312 . S
C582 H553 0.930 . S
C582 C577 1.261 . S
C582 C581 1.312 . S
C583 O555 1.214 . S
C583 O563 1.234 . S
C584 H556 0.929 . S
C584 C587 1.391 . S
C584 C589 1.391 . S
C585 H557 0.929 . S
C585 C586 1.390 . S
C585 N588 1.391 . S
C586 H558 0.930 . S
C586 C585 1.390 . S
C586 C587 1.392 . S
C587 H559 0.929 . S
C587 C584 1.391 . S
C587 C586 1.392 . S
N588 Co532 2.257 . S
N588 C585 1.391 . S
N588 C589 1.388 . S
C589 H560 0.930 . S
C589 C584 1.391 . S
C589 N588 1.388 . S
Co590 O592 2.143 . S
Co590 O598 2.074 . S
Co590 O601 2.093 . S
Co590 O614 2.097 . S
Co590 N631 2.151 . S
Co590 N639 2.214 . S
Co591 O592 2.160 . S
Co591 O597 2.058 . S
Co591 O607 2.057 . S
Co591 O622 2.037 . S
Co591 N626 2.145 . S
Co591 N647 2.257 . S
O592 Co590 2.143 . S
O592 Co591 2.160 . S
C593 O594 1.278 . S
C593 O601 1.224 . S
O594 C593 1.278 . S
C595 O596 1.245 . S
C595 O607 1.232 . S
O596 C595 1.245 . S
O597 Co591 2.058 . S
O597 C623 1.269 . S
O598 Co590 2.074 . S
O598 C623 1.257 . S
H599 C624 0.930 . S
H600 C630 0.930 . S
O601 Co590 2.093 . S
O601 C593 1.224 . S
H602 C634 0.929 . S
H603 C636 0.930 . S
H604 C637 0.930 . S
H605 C635 0.929 . S
H606 C638 0.928 . S
O607 Co591 2.057 . S
O607 C595 1.232 . S
H608 C627 0.929 . S
H609 C628 0.929 . S
H610 C640 0.931 . S
H611 C632 0.929 . S
H612 C641 0.930 . S
H613 C633 0.931 . S
O614 Co590 2.097 . S
O614 C642 1.214 . S
H615 C643 0.929 . S
H616 C644 0.929 . S
H617 C645 0.930 . S
H618 C646 0.929 . S
H619 C648 0.930 . S
H620 C625 0.930 . S
H621 C629 0.930 . S
O622 Co591 2.037 . S
O622 C642 1.234 . S
C623 O597 1.269 . S
C623 O598 1.257 . S
C624 H599 0.930 . S
C624 C627 1.388 . S
C624 C629 1.418 . S
C625 H620 0.930 . S
C625 C628 1.404 . S
C625 C629 1.353 . S
N626 Co591 2.145 . S
N626 C627 1.397 . S
N626 C628 1.334 . S
C627 H608 0.929 . S
C627 C624 1.388 . S
C627 N626 1.397 . S
C628 H609 0.929 . S
C628 C625 1.404 . S
C628 N626 1.334 . S
C629 H621 0.930 . S
C629 C624 1.418 . S
C629 C625 1.353 . S
C630 H600 0.930 . S
C630 N631 1.330 . S
C630 C632 1.446 . S
N631 Co590 2.151 . S
N631 C630 1.330 . S
N631 C635 1.418 . S
C632 H611 0.929 . S
C632 C630 1.446 . S
C632 C633 1.332 . S
C633 H613 0.931 . S
C633 C632 1.332 . S
C633 C634 1.267 . S
C634 H602 0.929 . S
C634 C633 1.267 . S
C634 C635 1.251 . S
C635 H605 0.929 . S
C635 N631 1.418 . S
C635 C634 1.251 . S
C636 H603 0.930 . S
C636 C638 1.406 . S
C636 C641 1.261 . S
C637 H604 0.930 . S
C637 N639 1.325 . S
C637 C640 1.357 . S
C638 H606 0.928 . S
C638 C636 1.406 . S
C638 N639 1.261 . S
N639 Co590 2.214 . S
N639 C637 1.325 . S
N639 C638 1.261 . S
C640 H610 0.931 . S
C640 C637 1.357 . S
C640 C641 1.312 . S
C641 H612 0.930 . S
C641 C636 1.261 . S
C641 C640 1.312 . S
C642 O614 1.214 . S
C642 O622 1.234 . S
C643 H615 0.929 . S
C643 C646 1.391 . S
C643 C648 1.391 . S
C644 H616 0.929 . S
C644 C645 1.390 . S
C644 N647 1.391 . S
C645 H617 0.930 . S
C645 C644 1.390 . S
C645 C646 1.392 . S
C646 H618 0.929 . S
C646 C643 1.391 . S
C646 C645 1.392 . S
N647 Co591 2.257 . S
N647 C644 1.391 . S
N647 C648 1.388 . S
C648 H619 0.930 . S
C648 C643 1.391 . S
C648 N647 1.388 . S
Co649 O651 2.143 . S
Co649 O657 2.074 . S
Co649 O660 2.093 . S
Co649 O673 2.097 . S
Co649 N690 2.151 . S
Co649 N698 2.214 . S
Co650 O651 2.160 . S
Co650 O656 2.058 . S
Co650 O666 2.057 . S
Co650 O681 2.037 . S
Co650 N685 2.145 . S
Co650 N706 2.257 . S
O651 Co649 2.143 . S
O651 Co650 2.160 . S
C652 O653 1.278 . S
C652 O660 1.224 . S
O653 C652 1.278 . S
C654 O655 1.245 . S
C654 O666 1.232 . S
O655 C654 1.245 . S
O656 Co650 2.058 . S
O656 C682 1.269 . S
O657 Co649 2.074 . S
O657 C682 1.257 . S
H658 C683 0.930 . S
H659 C689 0.930 . S
O660 Co649 2.093 . S
O660 C652 1.224 . S
H661 C693 0.929 . S
H662 C695 0.930 . S
H663 C696 0.930 . S
H664 C694 0.929 . S
H665 C697 0.928 . S
O666 Co650 2.057 . S
O666 C654 1.232 . S
H667 C686 0.929 . S
H668 C687 0.929 . S
H669 C699 0.931 . S
H670 C691 0.929 . S
H671 C700 0.930 . S
H672 C692 0.931 1_455 S
O673 Co649 2.097 . S
O673 C701 1.214 . S
H674 C702 0.929 . S
H675 C703 0.929 . S
H676 C704 0.930 . S
H677 C705 0.929 . S
H678 C707 0.930 . S
H679 C684 0.930 . S
H680 C688 0.930 . S
O681 Co650 2.037 . S
O681 C701 1.234 . S
C682 O656 1.269 . S
C682 O657 1.257 . S
C683 H658 0.930 . S
C683 C686 1.388 . S
C683 C688 1.418 . S
C684 H679 0.930 . S
C684 C687 1.404 . S
C684 C688 1.353 . S
N685 Co650 2.145 . S
N685 C686 1.397 . S
N685 C687 1.334 . S
C686 H667 0.929 . S
C686 C683 1.388 . S
C686 N685 1.397 . S
C687 H668 0.929 . S
C687 C684 1.404 . S
C687 N685 1.334 . S
C688 H680 0.930 . S
C688 C683 1.418 . S
C688 C684 1.353 . S
C689 H659 0.930 . S
C689 N690 1.330 . S
C689 C691 1.446 . S
N690 Co649 2.151 . S
N690 C689 1.330 . S
N690 C694 1.418 . S
C691 H670 0.929 . S
C691 C689 1.446 . S
C691 C692 1.332 . S
C692 H672 0.931 1_655 S
C692 C691 1.332 . S
C692 C693 1.267 . S
C693 H661 0.929 . S
C693 C692 1.267 . S
C693 C694 1.251 . S
C694 H664 0.929 . S
C694 N690 1.418 . S
C694 C693 1.251 . S
C695 H662 0.930 . S
C695 C697 1.406 . S
C695 C700 1.261 . S
C696 H663 0.930 . S
C696 N698 1.325 . S
C696 C699 1.357 . S
C697 H665 0.928 . S
C697 C695 1.406 . S
C697 N698 1.261 . S
N698 Co649 2.214 . S
N698 C696 1.325 . S
N698 C697 1.261 . S
C699 H669 0.931 . S
C699 C696 1.357 . S
C699 C700 1.312 . S
C700 H671 0.930 . S
C700 C695 1.261 . S
C700 C699 1.312 . S
C701 O673 1.214 . S
C701 O681 1.234 . S
C702 H674 0.929 . S
C702 C705 1.391 . S
C702 C707 1.391 . S
C703 H675 0.929 . S
C703 C704 1.390 . S
C703 N706 1.391 . S
C704 H676 0.930 . S
C704 C703 1.390 . S
C704 C705 1.392 . S
C705 H677 0.929 . S
C705 C702 1.391 . S
C705 C704 1.392 . S
N706 Co650 2.257 . S
N706 C703 1.391 . S
N706 C707 1.388 . S
C707 H678 0.930 . S
C707 C702 1.391 . S
C707 N706 1.388 . S
Co708 O710 2.143 . S
Co708 O716 2.074 . S
Co708 O719 2.093 . S
Co708 O732 2.097 . S
Co708 N749 2.151 . S
Co708 N757 2.214 . S
Co709 O710 2.160 . S
Co709 O715 2.058 . S
Co709 O725 2.057 . S
Co709 O740 2.037 . S
Co709 N744 2.145 . S
Co709 N765 2.257 . S
O710 Co708 2.143 . S
O710 Co709 2.160 . S
C711 O712 1.278 . S
C711 O719 1.224 . S
O712 C711 1.278 . S
C713 O714 1.245 . S
C713 O725 1.232 . S
O714 C713 1.245 . S
O715 Co709 2.058 . S
O715 C741 1.269 . S
O716 Co708 2.074 . S
O716 C741 1.257 . S
H717 C742 0.930 . S
H718 C748 0.930 . S
O719 Co708 2.093 . S
O719 C711 1.224 . S
H720 C752 0.929 . S
H721 C754 0.930 . S
H722 C755 0.930 . S
H723 C753 0.929 . S
H724 C756 0.928 . S
O725 Co709 2.057 . S
O725 C713 1.232 . S
H726 C745 0.929 . S
H727 C746 0.929 . S
H728 C758 0.931 . S
H729 C750 0.929 . S
H730 C759 0.930 . S
H731 C751 0.931 . S
O732 Co708 2.097 . S
O732 C760 1.214 . S
H733 C761 0.929 . S
H734 C762 0.929 . S
H735 C763 0.930 . S
H736 C764 0.929 . S
H737 C766 0.930 . S
H738 C743 0.930 . S
H739 C747 0.930 . S
O740 Co709 2.037 . S
O740 C760 1.234 . S
C741 O715 1.269 . S
C741 O716 1.257 . S
C742 H717 0.930 . S
C742 C745 1.388 . S
C742 C747 1.418 . S
C743 H738 0.930 . S
C743 C746 1.404 . S
C743 C747 1.353 . S
N744 Co709 2.145 . S
N744 C745 1.397 . S
N744 C746 1.334 . S
C745 H726 0.929 . S
C745 C742 1.388 . S
C745 N744 1.397 . S
C746 H727 0.929 . S
C746 C743 1.404 . S
C746 N744 1.334 . S
C747 H739 0.930 . S
C747 C742 1.418 . S
C747 C743 1.353 . S
C748 H718 0.930 . S
C748 N749 1.330 . S
C748 C750 1.446 . S
N749 Co708 2.151 . S
N749 C748 1.330 . S
N749 C753 1.418 . S
C750 H729 0.929 . S
C750 C748 1.446 . S
C750 C751 1.332 . S
C751 H731 0.931 . S
C751 C750 1.332 . S
C751 C752 1.267 . S
C752 H720 0.929 . S
C752 C751 1.267 . S
C752 C753 1.251 . S
C753 H723 0.929 . S
C753 N749 1.418 . S
C753 C752 1.251 . S
C754 H721 0.930 . S
C754 C756 1.406 . S
C754 C759 1.261 . S
C755 H722 0.930 . S
C755 N757 1.325 . S
C755 C758 1.357 . S
C756 H724 0.928 . S
C756 C754 1.406 . S
C756 N757 1.261 . S
N757 Co708 2.214 . S
N757 C755 1.325 . S
N757 C756 1.261 . S
C758 H728 0.931 . S
C758 C755 1.357 . S
C758 C759 1.312 . S
C759 H730 0.930 . S
C759 C754 1.261 . S
C759 C758 1.312 . S
C760 O732 1.214 . S
C760 O740 1.234 . S
C761 H733 0.929 . S
C761 C764 1.391 . S
C761 C766 1.391 . S
C762 H734 0.929 . S
C762 C763 1.390 . S
C762 N765 1.391 . S
C763 H735 0.930 . S
C763 C762 1.390 . S
C763 C764 1.392 . S
C764 H736 0.929 . S
C764 C761 1.391 . S
C764 C763 1.392 . S
N765 Co709 2.257 . S
N765 C762 1.391 . S
N765 C766 1.388 . S
C766 H737 0.930 . S
C766 C761 1.391 . S
C766 N765 1.388 . S
Co767 O769 2.143 . S
Co767 O775 2.074 . S
Co767 O778 2.093 . S
Co767 O791 2.097 . S
Co767 N808 2.151 . S
Co767 N816 2.214 . S
Co768 O769 2.160 . S
Co768 O774 2.058 . S
Co768 O784 2.057 . S
Co768 O799 2.037 . S
Co768 N803 2.145 . S
Co768 N824 2.257 . S
O769 Co767 2.143 . S
O769 Co768 2.160 . S
C770 O771 1.278 . S
C770 O778 1.224 . S
O771 C770 1.278 . S
C772 O773 1.245 . S
C772 O784 1.232 . S
O773 C772 1.245 . S
O774 Co768 2.058 . S
O774 C800 1.269 . S
O775 Co767 2.074 . S
O775 C800 1.257 . S
H776 C801 0.930 . S
H777 C807 0.930 . S
O778 Co767 2.093 . S
O778 C770 1.224 . S
H779 C811 0.929 . S
H780 C813 0.930 . S
H781 C814 0.930 . S
H782 C812 0.929 . S
H783 C815 0.928 . S
O784 Co768 2.057 . S
O784 C772 1.232 . S
H785 C804 0.929 . S
H786 C805 0.929 . S
H787 C817 0.931 . S
H788 C809 0.929 . S
H789 C818 0.930 . S
H790 C810 0.931 1_455 S
O791 Co767 2.097 . S
O791 C819 1.214 . S
H792 C820 0.929 . S
H793 C821 0.929 . S
H794 C822 0.930 . S
H795 C823 0.929 . S
H796 C825 0.930 . S
H797 C802 0.930 . S
H798 C806 0.930 . S
O799 Co768 2.037 . S
O799 C819 1.234 . S
C800 O774 1.269 . S
C800 O775 1.257 . S
C801 H776 0.930 . S
C801 C804 1.388 . S
C801 C806 1.418 . S
C802 H797 0.930 . S
C802 C805 1.404 . S
C802 C806 1.353 . S
N803 Co768 2.145 . S
N803 C804 1.397 . S
N803 C805 1.334 . S
C804 H785 0.929 . S
C804 C801 1.388 . S
C804 N803 1.397 . S
C805 H786 0.929 . S
C805 C802 1.404 . S
C805 N803 1.334 . S
C806 H798 0.930 . S
C806 C801 1.418 . S
C806 C802 1.353 . S
C807 H777 0.930 . S
C807 N808 1.330 . S
C807 C809 1.446 . S
N808 Co767 2.151 . S
N808 C807 1.330 . S
N808 C812 1.418 . S
C809 H788 0.929 . S
C809 C807 1.446 . S
C809 C810 1.332 . S
C810 H790 0.931 1_655 S
C810 C809 1.332 . S
C810 C811 1.267 . S
C811 H779 0.929 . S
C811 C810 1.267 . S
C811 C812 1.251 . S
C812 H782 0.929 . S
C812 N808 1.418 . S
C812 C811 1.251 . S
C813 H780 0.930 . S
C813 C815 1.406 . S
C813 C818 1.261 . S
C814 H781 0.930 . S
C814 N816 1.325 . S
C814 C817 1.357 . S
C815 H783 0.928 . S
C815 C813 1.406 . S
C815 N816 1.261 . S
N816 Co767 2.214 . S
N816 C814 1.325 . S
N816 C815 1.261 . S
C817 H787 0.931 . S
C817 C814 1.357 . S
C817 C818 1.312 . S
C818 H789 0.930 . S
C818 C813 1.261 . S
C818 C817 1.312 . S
C819 O791 1.214 . S
C819 O799 1.234 . S
C820 H792 0.929 . S
C820 C823 1.391 . S
C820 C825 1.391 . S
C821 H793 0.929 . S
C821 C822 1.390 . S
C821 N824 1.391 . S
C822 H794 0.930 . S
C822 C821 1.390 . S
C822 C823 1.392 . S
C823 H795 0.929 . S
C823 C820 1.391 . S
C823 C822 1.392 . S
N824 Co768 2.257 . S
N824 C821 1.391 . S
N824 C825 1.388 . S
C825 H796 0.930 . S
C825 C820 1.391 . S
C825 N824 1.388 . S
Co826 O828 2.143 . S
Co826 O834 2.074 . S
Co826 O837 2.093 . S
Co826 O850 2.097 . S
Co826 N867 2.151 . S
Co826 N875 2.214 . S
Co827 O828 2.160 . S
Co827 O833 2.058 . S
Co827 O843 2.057 . S
Co827 O858 2.037 . S
Co827 N862 2.145 . S
Co827 N883 2.257 . S
O828 Co826 2.143 . S
O828 Co827 2.160 . S
C829 O830 1.278 . S
C829 O837 1.224 . S
O830 C829 1.278 . S
C831 O832 1.245 . S
C831 O843 1.232 . S
O832 C831 1.245 . S
O833 Co827 2.058 . S
O833 C859 1.269 . S
O834 Co826 2.074 . S
O834 C859 1.257 . S
H835 C860 0.930 . S
H836 C866 0.930 . S
O837 Co826 2.093 . S
O837 C829 1.224 . S
H838 C870 0.929 . S
H839 C872 0.930 . S
H840 C873 0.930 . S
H841 C871 0.929 . S
H842 C874 0.928 . S
O843 Co827 2.057 . S
O843 C831 1.232 . S
H844 C863 0.929 . S
H845 C864 0.929 . S
H846 C876 0.931 . S
H847 C868 0.929 . S
H848 C877 0.930 . S
H849 C869 0.931 1_545 S
O850 Co826 2.097 . S
O850 C878 1.214 . S
H851 C879 0.929 . S
H852 C880 0.929 . S
H853 C881 0.930 . S
H854 C882 0.929 . S
H855 C884 0.930 . S
H856 C861 0.930 . S
H857 C865 0.930 . S
O858 Co827 2.037 . S
O858 C878 1.234 . S
C859 O833 1.269 . S
C859 O834 1.257 . S
C860 H835 0.930 . S
C860 C863 1.388 . S
C860 C865 1.418 . S
C861 H856 0.930 . S
C861 C864 1.404 . S
C861 C865 1.353 . S
N862 Co827 2.145 . S
N862 C863 1.397 . S
N862 C864 1.334 . S
C863 H844 0.929 . S
C863 C860 1.388 . S
C863 N862 1.397 . S
C864 H845 0.929 . S
C864 C861 1.404 . S
C864 N862 1.334 . S
C865 H857 0.930 . S
C865 C860 1.418 . S
C865 C861 1.353 . S
C866 H836 0.930 . S
C866 N867 1.330 . S
C866 C868 1.446 . S
N867 Co826 2.151 . S
N867 C866 1.330 . S
N867 C871 1.418 . S
C868 H847 0.929 . S
C868 C866 1.446 . S
C868 C869 1.332 . S
C869 H849 0.931 1_565 S
C869 C868 1.332 . S
C869 C870 1.267 . S
C870 H838 0.929 . S
C870 C869 1.267 . S
C870 C871 1.251 . S
C871 H841 0.929 . S
C871 N867 1.418 . S
C871 C870 1.251 . S
C872 H839 0.930 . S
C872 C874 1.406 . S
C872 C877 1.261 . S
C873 H840 0.930 . S
C873 N875 1.325 . S
C873 C876 1.357 . S
C874 H842 0.928 . S
C874 C872 1.406 . S
C874 N875 1.261 . S
N875 Co826 2.214 . S
N875 C873 1.325 . S
N875 C874 1.261 . S
C876 H846 0.931 . S
C876 C873 1.357 . S
C876 C877 1.312 . S
C877 H848 0.930 . S
C877 C872 1.261 . S
C877 C876 1.312 . S
C878 O850 1.214 . S
C878 O858 1.234 . S
C879 H851 0.929 . S
C879 C882 1.391 . S
C879 C884 1.391 . S
C880 H852 0.929 . S
C880 C881 1.390 . S
C880 N883 1.391 . S
C881 H853 0.930 . S
C881 C880 1.390 . S
C881 C882 1.392 . S
C882 H854 0.929 . S
C882 C879 1.391 . S
C882 C881 1.392 . S
N883 Co827 2.257 . S
N883 C880 1.391 . S
N883 C884 1.388 . S
C884 H855 0.930 . S
C884 C879 1.391 . S
C884 N883 1.388 . S
Co885 O887 2.143 . S
Co885 O893 2.074 . S
Co885 O896 2.093 . S
Co885 O909 2.097 . S
Co885 N926 2.151 . S
Co885 N934 2.214 . S
Co886 O887 2.160 . S
Co886 O892 2.058 . S
Co886 O902 2.057 . S
Co886 O917 2.037 . S
Co886 N921 2.145 . S
Co886 N942 2.257 . S
O887 Co885 2.143 . S
O887 Co886 2.160 . S
C888 O889 1.278 . S
C888 O896 1.224 . S
O889 C888 1.278 . S
C890 O891 1.245 . S
C890 O902 1.232 . S
O891 C890 1.245 . S
O892 Co886 2.058 . S
O892 C918 1.269 . S
O893 Co885 2.074 . S
O893 C918 1.257 . S
H894 C919 0.930 . S
H895 C925 0.930 . S
O896 Co885 2.093 . S
O896 C888 1.224 . S
H897 C929 0.929 . S
H898 C931 0.930 . S
H899 C932 0.930 . S
H900 C930 0.929 . S
H901 C933 0.928 . S
O902 Co886 2.057 . S
O902 C890 1.232 . S
H903 C922 0.929 . S
H904 C923 0.929 . S
H905 C935 0.931 . S
H906 C927 0.929 . S
H907 C936 0.930 . S
H908 C928 0.931 . S
O909 Co885 2.097 . S
O909 C937 1.214 . S
H910 C938 0.929 . S
H911 C939 0.929 . S
H912 C940 0.930 . S
H913 C941 0.929 . S
H914 C943 0.930 . S
H915 C920 0.930 . S
H916 C924 0.930 . S
O917 Co886 2.037 . S
O917 C937 1.234 . S
C918 O892 1.269 . S
C918 O893 1.257 . S
C919 H894 0.930 . S
C919 C922 1.388 . S
C919 C924 1.418 . S
C920 H915 0.930 . S
C920 C923 1.404 . S
C920 C924 1.353 . S
N921 Co886 2.145 . S
N921 C922 1.397 . S
N921 C923 1.334 . S
C922 H903 0.929 . S
C922 C919 1.388 . S
C922 N921 1.397 . S
C923 H904 0.929 . S
C923 C920 1.404 . S
C923 N921 1.334 . S
C924 H916 0.930 . S
C924 C919 1.418 . S
C924 C920 1.353 . S
C925 H895 0.930 . S
C925 N926 1.330 . S
C925 C927 1.446 . S
N926 Co885 2.151 . S
N926 C925 1.330 . S
N926 C930 1.418 . S
C927 H906 0.929 . S
C927 C925 1.446 . S
C927 C928 1.332 . S
C928 H908 0.931 . S
C928 C927 1.332 . S
C928 C929 1.267 . S
C929 H897 0.929 . S
C929 C928 1.267 . S
C929 C930 1.251 . S
C930 H900 0.929 . S
C930 N926 1.418 . S
C930 C929 1.251 . S
C931 H898 0.930 . S
C931 C933 1.406 . S
C931 C936 1.261 . S
C932 H899 0.930 . S
C932 N934 1.325 . S
C932 C935 1.357 . S
C933 H901 0.928 . S
C933 C931 1.406 . S
C933 N934 1.261 . S
N934 Co885 2.214 . S
N934 C932 1.325 . S
N934 C933 1.261 . S
C935 H905 0.931 . S
C935 C932 1.357 . S
C935 C936 1.312 . S
C936 H907 0.930 . S
C936 C931 1.261 . S
C936 C935 1.312 . S
C937 O909 1.214 . S
C937 O917 1.234 . S
C938 H910 0.929 . S
C938 C941 1.391 . S
C938 C943 1.391 . S
C939 H911 0.929 . S
C939 C940 1.390 . S
C939 N942 1.391 . S
C940 H912 0.930 . S
C940 C939 1.390 . S
C940 C941 1.392 . S
C941 H913 0.929 . S
C941 C938 1.391 . S
C941 C940 1.392 . S
N942 Co886 2.257 . S
N942 C939 1.391 . S
N942 C943 1.388 . S
C943 H914 0.930 . S
C943 C938 1.391 . S
C943 N942 1.388 . S
H944 C962 0.951 . S
H945 C964 0.951 . S
H946 C966 0.950 . S
H947 C967 0.950 . S
H948 C969 0.953 . S
H949 C972 0.950 . S
H950 C973 0.950 . S
H951 C975 0.950 . S
H952 C976 0.950 . S
H953 C977 0.951 . S
H954 C979 0.951 . S
H955 C981 0.950 . S
H956 C982 0.950 . S
H957 C984 0.953 . S
H958 C987 0.950 . S
H959 C988 0.950 . S
H960 C990 0.950 . S
H961 C991 0.950 . S
C962 H944 0.951 . S
C962 C963 1.366 . S
C962 C964 1.388 . S
C963 C962 1.366 . S
C963 C967 1.385 . S
C964 H945 0.951 . S
C964 C962 1.388 . S
C964 C965 1.366 . S
C965 C964 1.366 . S
C965 C966 1.414 . S
C965 C968 1.499 . S
C966 H946 0.950 . S
C966 C965 1.414 . S
C966 C967 1.374 . S
C967 H947 0.950 . S
C967 C963 1.385 . S
C967 C966 1.374 . S
C968 C965 1.499 . S
C968 C969 1.420 . S
C968 C970 1.389 . S
C969 H948 0.953 . S
C969 C968 1.420 . S
C969 C985 1.329 1_556 S
C970 C968 1.389 . S
C970 C971 1.524 . S
C970 C984 1.329 1_556 S
C971 C970 1.524 . S
C971 C972 1.397 . S
C971 C976 1.363 . S
C972 H949 0.950 . S
C972 C971 1.397 . S
C972 C973 1.334 . S
C973 H950 0.950 . S
C973 C972 1.334 . S
C973 C974 1.287 . S
C974 C973 1.287 . S
C974 C975 1.524 . S
C974 H993 0.913 . S
C975 H951 0.950 . S
C975 C974 1.524 . S
C975 C976 1.415 . S
C976 H952 0.950 . S
C976 C971 1.363 . S
C976 C975 1.415 . S
C977 H953 0.951 . S
C977 C978 1.366 . S
C977 C979 1.388 . S
C978 C977 1.366 . S
C978 C982 1.385 . S
C979 H954 0.951 . S
C979 C977 1.388 . S
C979 C980 1.366 . S
C980 C979 1.366 . S
C980 C981 1.414 . S
C980 C983 1.499 . S
C981 H955 0.950 . S
C981 C980 1.414 . S
C981 C982 1.374 . S
C982 H956 0.950 . S
C982 C978 1.385 . S
C982 C981 1.374 . S
C983 C980 1.499 . S
C983 C984 1.420 . S
C983 C985 1.389 . S
C984 H957 0.953 . S
C984 C970 1.329 1_554 S
C984 C983 1.420 . S
C985 C969 1.329 1_554 S
C985 C983 1.389 . S
C985 C986 1.524 . S
C986 C985 1.524 . S
C986 C987 1.397 . S
C986 C991 1.363 . S
C987 H958 0.950 . S
C987 C986 1.397 . S
C987 C988 1.334 . S
C988 H959 0.950 . S
C988 C987 1.334 . S
C988 C989 1.287 . S
C989 C988 1.287 . S
C989 C990 1.524 . S
C989 H992 0.999 . S
C990 H960 0.950 . S
C990 C989 1.524 . S
C990 C991 1.415 . S
C991 H961 0.950 . S
C991 C986 1.363 . S
C991 C990 1.415 . S
H992 C989 0.999 . S
H993 C974 0.913 . S
H994 C1012 0.951 . S
H995 C1014 0.951 . S
H996 C1016 0.950 . S
H997 C1017 0.950 . S
H998 C1019 0.950 . S
H999 C1022 0.950 . S
H1000 C1023 0.950 . S
H1001 C1025 0.950 . S
H1002 C1026 0.950 . S
H1003 C1027 0.951 . S
H1004 C1029 0.951 . S
H1005 C1031 0.950 . S
H1006 C1032 0.950 . S
H1007 C1034 0.950 . S
H1008 C1037 0.950 . S
H1009 C1038 0.950 . S
H1010 C1040 0.950 . S
H1011 C1041 0.950 . S
C1012 H994 0.951 . S
C1012 C1013 1.366 . S
C1012 C1014 1.388 . S
C1013 C1012 1.366 . S
C1013 C1017 1.385 . S
C1014 H995 0.951 . S
C1014 C1012 1.388 . S
C1014 C1015 1.366 . S
C1015 C1014 1.366 . S
C1015 C1016 1.414 . S
C1015 C1018 1.499 . S
C1016 H996 0.950 . S
C1016 C1015 1.414 . S
C1016 C1017 1.374 . S
C1017 H997 0.950 . S
C1017 C1013 1.385 . S
C1017 C1016 1.374 . S
C1018 C1015 1.499 . S
C1018 C1019 1.373 . S
C1018 C1020 1.389 . S
C1019 H998 0.950 . S
C1019 C1018 1.373 . S
C1019 C1035 1.377 . S
C1020 C1018 1.389 . S
C1020 C1021 1.524 . S
C1020 C1034 1.377 . S
C1021 C1020 1.524 . S
C1021 C1022 1.397 . S
C1021 C1026 1.363 . S
C1022 H999 0.950 . S
C1022 C1021 1.397 . S
C1022 C1023 1.334 . S
C1023 H1000 0.950 . S
C1023 C1022 1.334 . S
C1023 C1024 1.287 . S
C1024 C1023 1.287 . S
C1024 C1025 1.524 . S
C1024 H1043 0.913 . S
C1025 H1001 0.950 . S
C1025 C1024 1.524 . S
C1025 C1026 1.415 . S
C1026 H1002 0.950 . S
C1026 C1021 1.363 . S
C1026 C1025 1.415 . S
C1027 H1003 0.951 . S
C1027 C1028 1.366 . S
C1027 C1029 1.388 . S
C1028 C1027 1.366 . S
C1028 C1032 1.385 . S
C1029 H1004 0.951 . S
C1029 C1027 1.388 . S
C1029 C1030 1.366 . S
C1030 C1029 1.366 . S
C1030 C1031 1.414 . S
C1030 C1033 1.499 . S
C1031 H1005 0.950 . S
C1031 C1030 1.414 . S
C1031 C1032 1.374 . S
C1032 H1006 0.950 . S
C1032 C1028 1.385 . S
C1032 C1031 1.374 . S
C1033 C1030 1.499 . S
C1033 C1034 1.373 . S
C1033 C1035 1.389 . S
C1034 H1007 0.950 . S
C1034 C1020 1.377 . S
C1034 C1033 1.373 . S
C1035 C1019 1.377 . S
C1035 C1033 1.389 . S
C1035 C1036 1.524 . S
C1036 C1035 1.524 . S
C1036 C1037 1.397 . S
C1036 C1041 1.363 . S
C1037 H1008 0.950 . S
C1037 C1036 1.397 . S
C1037 C1038 1.334 . S
C1038 H1009 0.950 . S
C1038 C1037 1.334 . S
C1038 C1039 1.287 . S
C1039 C1038 1.287 . S
C1039 C1040 1.524 . S
C1039 H1042 0.999 . S
C1040 H1010 0.950 . S
C1040 C1039 1.524 . S
C1040 C1041 1.415 . S
C1041 H1011 0.950 . S
C1041 C1036 1.363 . S
C1041 C1040 1.415 . S
H1042 C1039 0.999 . S
H1043 C1024 0.913 . S
H1044 C1062 0.951 . S
H1045 C1064 0.951 . S
H1046 C1066 0.950 . S
H1047 C1067 0.950 . S
H1048 C1069 0.950 . S
H1049 C1072 0.950 . S
H1050 C1073 0.950 . S
H1051 C1075 0.950 . S
H1052 C1076 0.950 . S
H1053 C1077 0.951 . S
H1054 C1079 0.951 . S
H1055 C1081 0.950 . S
H1056 C1082 0.950 . S
H1057 C1084 0.950 . S
H1058 C1087 0.950 . S
H1059 C1088 0.950 . S
H1060 C1090 0.950 . S
H1061 C1091 0.950 . S
C1062 H1044 0.951 . S
C1062 C1063 1.366 . S
C1062 C1064 1.388 . S
C1063 C1062 1.366 . S
C1063 C1067 1.385 . S
C1064 H1045 0.951 . S
C1064 C1062 1.388 . S
C1064 C1065 1.366 . S
C1065 C1064 1.366 . S
C1065 C1066 1.414 . S
C1065 C1068 1.499 . S
C1066 H1046 0.950 . S
C1066 C1065 1.414 . S
C1066 C1067 1.374 . S
C1067 H1047 0.950 . S
C1067 C1063 1.385 . S
C1067 C1066 1.374 . S
C1068 C1065 1.499 . S
C1068 C1069 1.373 . S
C1068 C1070 1.389 . S
C1069 H1048 0.950 . S
C1069 C1068 1.373 . S
C1069 C1085 1.377 1_556 S
C1070 C1068 1.389 . S
C1070 C1071 1.524 . S
C1070 C1084 1.377 1_556 S
C1071 C1070 1.524 . S
C1071 C1072 1.397 . S
C1071 C1076 1.363 . S
C1072 H1049 0.950 . S
C1072 C1071 1.397 . S
C1072 C1073 1.334 . S
C1073 H1050 0.950 . S
C1073 C1072 1.334 . S
C1073 C1074 1.287 . S
C1074 C1073 1.287 . S
C1074 C1075 1.524 . S
C1074 H1093 0.913 . S
C1075 H1051 0.950 . S
C1075 C1074 1.524 . S
C1075 C1076 1.415 . S
C1076 H1052 0.950 . S
C1076 C1071 1.363 . S
C1076 C1075 1.415 . S
C1077 H1053 0.951 . S
C1077 C1078 1.366 . S
C1077 C1079 1.388 . S
C1078 C1077 1.366 . S
C1078 C1082 1.385 . S
C1079 H1054 0.951 . S
C1079 C1077 1.388 . S
C1079 C1080 1.366 . S
C1080 C1079 1.366 . S
C1080 C1081 1.414 . S
C1080 C1083 1.499 . S
C1081 H1055 0.950 . S
C1081 C1080 1.414 . S
C1081 C1082 1.374 . S
C1082 H1056 0.950 . S
C1082 C1078 1.385 . S
C1082 C1081 1.374 . S
C1083 C1080 1.499 . S
C1083 C1084 1.373 . S
C1083 C1085 1.389 . S
C1084 H1057 0.950 . S
C1084 C1070 1.377 1_554 S
C1084 C1083 1.373 . S
C1085 C1069 1.377 1_554 S
C1085 C1083 1.389 . S
C1085 C1086 1.524 . S
C1086 C1085 1.524 . S
C1086 C1087 1.397 . S
C1086 C1091 1.363 . S
C1087 H1058 0.950 . S
C1087 C1086 1.397 . S
C1087 C1088 1.334 . S
C1088 H1059 0.950 . S
C1088 C1087 1.334 . S
C1088 C1089 1.287 . S
C1089 C1088 1.287 . S
C1089 C1090 1.524 . S
C1089 H1092 0.999 . S
C1090 H1060 0.950 . S
C1090 C1089 1.524 . S
C1090 C1091 1.415 . S
C1091 H1061 0.950 . S
C1091 C1086 1.363 . S
C1091 C1090 1.415 . S
H1092 C1089 0.999 . S
H1093 C1074 0.913 . S
H1094 C1112 0.951 . S
H1095 C1114 0.951 . S
H1096 C1116 0.950 . S
H1097 C1117 0.950 . S
H1098 C1119 0.950 . S
H1099 C1122 0.950 . S
H1100 C1123 0.950 . S
H1101 C1125 0.950 . S
H1102 C1126 0.950 . S
H1103 C1127 0.951 . S
H1104 C1129 0.951 . S
H1105 C1131 0.950 . S
H1106 C1132 0.950 . S
H1107 C1134 0.950 . S
H1108 C1137 0.950 . S
H1109 C1138 0.950 . S
H1110 C1140 0.950 . S
H1111 C1141 0.950 . S
C1112 H1094 0.951 . S
C1112 C1113 1.366 . S
C1112 C1114 1.388 . S
C1113 C1112 1.366 . S
C1113 C1117 1.385 . S
C1114 H1095 0.951 . S
C1114 C1112 1.388 . S
C1114 C1115 1.366 . S
C1115 C1114 1.366 . S
C1115 C1116 1.414 . S
C1115 C1118 1.499 . S
C1116 H1096 0.950 . S
C1116 C1115 1.414 . S
C1116 C1117 1.374 . S
C1117 H1097 0.950 . S
C1117 C1113 1.385 . S
C1117 C1116 1.374 . S
C1118 C1115 1.499 . S
C1118 C1119 1.373 . S
C1118 C1120 1.389 . S
C1119 H1098 0.950 . S
C1119 C1118 1.373 . S
C1119 C1135 1.377 . S
C1120 C1118 1.389 . S
C1120 C1121 1.524 . S
C1120 C1134 1.377 . S
C1121 C1120 1.524 . S
C1121 C1122 1.397 . S
C1121 C1126 1.363 . S
C1122 H1099 0.950 . S
C1122 C1121 1.397 . S
C1122 C1123 1.334 . S
C1123 H1100 0.950 . S
C1123 C1122 1.334 . S
C1123 C1124 1.287 . S
C1124 C1123 1.287 . S
C1124 C1125 1.524 . S
C1124 H1143 0.913 . S
C1125 H1101 0.950 . S
C1125 C1124 1.524 . S
C1125 C1126 1.415 . S
C1126 H1102 0.950 . S
C1126 C1121 1.363 . S
C1126 C1125 1.415 . S
C1127 H1103 0.951 . S
C1127 C1128 1.366 . S
C1127 C1129 1.388 . S
C1128 C1127 1.366 . S
C1128 C1132 1.385 . S
C1129 H1104 0.951 . S
C1129 C1127 1.388 . S
C1129 C1130 1.366 . S
C1130 C1129 1.366 . S
C1130 C1131 1.414 . S
C1130 C1133 1.499 . S
C1131 H1105 0.950 . S
C1131 C1130 1.414 . S
C1131 C1132 1.374 . S
C1132 H1106 0.950 . S
C1132 C1128 1.385 . S
C1132 C1131 1.374 . S
C1133 C1130 1.499 . S
C1133 C1134 1.373 . S
C1133 C1135 1.389 . S
C1134 H1107 0.950 . S
C1134 C1120 1.377 . S
C1134 C1133 1.373 . S
C1135 C1119 1.377 . S
C1135 C1133 1.389 . S
C1135 C1136 1.524 . S
C1136 C1135 1.524 . S
C1136 C1137 1.397 . S
C1136 C1141 1.363 . S
C1137 H1108 0.950 . S
C1137 C1136 1.397 . S
C1137 C1138 1.334 . S
C1138 H1109 0.950 . S
C1138 C1137 1.334 . S
C1138 C1139 1.287 . S
C1139 C1138 1.287 . S
C1139 C1140 1.524 . S
C1139 H1142 0.999 . S
C1140 H1110 0.950 . S
C1140 C1139 1.524 . S
C1140 C1141 1.415 . S
C1141 H1111 0.950 . S
C1141 C1136 1.363 . S
C1141 C1140 1.415 . S
H1142 C1139 0.999 . S
H1143 C1124 0.913 . S
H1144 C1162 0.951 . S
H1145 C1164 0.951 . S
H1146 C1166 0.950 . S
H1147 C1167 0.950 . S
H1148 C1169 0.950 . S
H1149 C1172 0.950 . S
H1150 C1173 0.950 . S
H1151 C1175 0.950 . S
H1152 C1176 0.951 . S
H1153 C1177 0.951 . S
H1154 C1179 0.951 . S
H1155 C1181 0.950 . S
H1156 C1182 0.950 . S
H1157 C1184 0.950 . S
H1158 C1187 0.950 . S
H1159 C1188 0.950 . S
H1160 C1190 0.950 . S
H1161 C1191 0.951 . S
C1162 H1144 0.951 . S
C1162 C1163 1.366 . S
C1162 C1164 1.388 . S
C1163 C1162 1.366 . S
C1163 C1167 1.385 . S
C1164 H1145 0.951 . S
C1164 C1162 1.388 . S
C1164 C1165 1.366 . S
C1165 C1164 1.366 . S
C1165 C1166 1.414 . S
C1165 C1168 1.499 . S
C1166 H1146 0.950 . S
C1166 C1165 1.414 . S
C1166 C1167 1.374 . S
C1167 H1147 0.950 . S
C1167 C1163 1.385 . S
C1167 C1166 1.374 . S
C1168 C1165 1.499 . S
C1168 C1169 1.373 . S
C1168 C1170 1.389 . S
C1169 H1148 0.950 . S
C1169 C1168 1.373 . S
C1169 C1185 1.377 1_554 S
C1170 C1168 1.389 . S
C1170 C1171 1.524 . S
C1170 C1184 1.377 1_554 S
C1171 C1170 1.524 . S
C1171 C1172 1.397 . S
C1171 C1176 1.363 . S
C1172 H1149 0.950 . S
C1172 C1171 1.397 . S
C1172 C1173 1.334 . S
C1173 H1150 0.950 . S
C1173 C1172 1.334 . S
C1173 C1174 1.287 . S
C1174 C1173 1.287 . S
C1174 C1175 1.524 . S
C1174 H1193 0.913 . S
C1175 H1151 0.950 . S
C1175 C1174 1.524 . S
C1175 C1176 1.415 . S
C1176 H1152 0.951 . S
C1176 C1171 1.363 . S
C1176 C1175 1.415 . S
C1177 H1153 0.951 . S
C1177 C1178 1.366 . S
C1177 C1179 1.388 . S
C1178 C1177 1.366 . S
C1178 C1182 1.385 . S
C1179 H1154 0.951 . S
C1179 C1177 1.388 . S
C1179 C1180 1.366 . S
C1180 C1179 1.366 . S
C1180 C1181 1.414 . S
C1180 C1183 1.499 . S
C1181 H1155 0.950 . S
C1181 C1180 1.414 . S
C1181 C1182 1.374 . S
C1182 H1156 0.950 . S
C1182 C1178 1.385 . S
C1182 C1181 1.374 . S
C1183 C1180 1.499 . S
C1183 C1184 1.373 . S
C1183 C1185 1.389 . S
C1184 H1157 0.950 . S
C1184 C1170 1.377 1_556 S
C1184 C1183 1.373 . S
C1185 C1169 1.377 1_556 S
C1185 C1183 1.389 . S
C1185 C1186 1.524 . S
C1186 C1185 1.524 . S
C1186 C1187 1.397 . S
C1186 C1191 1.363 . S
C1187 H1158 0.950 . S
C1187 C1186 1.397 . S
C1187 C1188 1.334 . S
C1188 H1159 0.950 . S
C1188 C1187 1.334 . S
C1188 C1189 1.287 . S
C1189 C1188 1.287 . S
C1189 C1190 1.524 . S
C1189 H1192 0.999 . S
C1190 H1160 0.950 . S
C1190 C1189 1.524 . S
C1190 C1191 1.415 . S
C1191 H1161 0.951 . S
C1191 C1186 1.363 . S
C1191 C1190 1.415 . S
H1192 C1189 0.999 . S
H1193 C1174 0.913 . S
H1194 C1212 0.951 . S
H1195 C1214 0.951 . S
H1196 C1216 0.950 . S
H1197 C1217 0.950 . S
H1198 C1219 0.950 . S
H1199 C1222 0.950 . S
H1200 C1223 0.950 . S
H1201 C1225 0.950 . S
H1202 C1226 0.950 . S
H1203 C1227 0.951 . S
H1204 C1229 0.951 . S
H1205 C1231 0.950 . S
H1206 C1232 0.950 . S
H1207 C1234 0.950 . S
H1208 C1237 0.950 . S
H1209 C1238 0.950 . S
H1210 C1240 0.950 . S
H1211 C1241 0.950 . S
C1212 H1194 0.951 . S
C1212 C1213 1.366 . S
C1212 C1214 1.388 . S
C1213 C1212 1.366 . S
C1213 C1217 1.385 . S
C1214 H1195 0.951 . S
C1214 C1212 1.388 . S
C1214 C1215 1.366 . S
C1215 C1214 1.366 . S
C1215 C1216 1.414 . S
C1215 C1218 1.499 . S
C1216 H1196 0.950 . S
C1216 C1215 1.414 . S
C1216 C1217 1.374 . S
C1217 H1197 0.950 . S
C1217 C1213 1.385 . S
C1217 C1216 1.374 . S
C1218 C1215 1.499 . S
C1218 C1219 1.373 . S
C1218 C1220 1.389 . S
C1219 H1198 0.950 . S
C1219 C1218 1.373 . S
C1219 C1235 1.377 . S
C1220 C1218 1.389 . S
C1220 C1221 1.524 . S
C1220 C1234 1.377 . S
C1221 C1220 1.524 . S
C1221 C1222 1.397 . S
C1221 C1226 1.363 . S
C1222 H1199 0.950 . S
C1222 C1221 1.397 . S
C1222 C1223 1.334 . S
C1223 H1200 0.950 . S
C1223 C1222 1.334 . S
C1223 C1224 1.287 . S
C1224 C1223 1.287 . S
C1224 C1225 1.524 . S
C1224 H1243 0.913 . S
C1225 H1201 0.950 . S
C1225 C1224 1.524 . S
C1225 C1226 1.415 . S
C1226 H1202 0.950 . S
C1226 C1221 1.363 . S
C1226 C1225 1.415 . S
C1227 H1203 0.951 . S
C1227 C1228 1.366 . S
C1227 C1229 1.388 . S
C1228 C1227 1.366 . S
C1228 C1232 1.385 . S
C1229 H1204 0.951 . S
C1229 C1227 1.388 . S
C1229 C1230 1.366 . S
C1230 C1229 1.366 . S
C1230 C1231 1.414 . S
C1230 C1233 1.499 . S
C1231 H1205 0.950 . S
C1231 C1230 1.414 . S
C1231 C1232 1.374 . S
C1232 H1206 0.950 . S
C1232 C1228 1.385 . S
C1232 C1231 1.374 . S
C1233 C1230 1.499 . S
C1233 C1234 1.373 . S
C1233 C1235 1.389 . S
C1234 H1207 0.950 . S
C1234 C1220 1.377 . S
C1234 C1233 1.373 . S
C1235 C1219 1.377 . S
C1235 C1233 1.389 . S
C1235 C1236 1.524 . S
C1236 C1235 1.524 . S
C1236 C1237 1.397 . S
C1236 C1241 1.363 . S
C1237 H1208 0.950 . S
C1237 C1236 1.397 . S
C1237 C1238 1.334 . S
C1238 H1209 0.950 . S
C1238 C1237 1.334 . S
C1238 C1239 1.287 . S
C1239 C1238 1.287 . S
C1239 C1240 1.524 . S
C1239 H1242 0.999 . S
C1240 H1210 0.950 . S
C1240 C1239 1.524 . S
C1240 C1241 1.415 . S
C1241 H1211 0.950 . S
C1241 C1236 1.363 . S
C1241 C1240 1.415 . S
H1242 C1239 0.999 . S
H1243 C1224 0.913 . S
H1244 C1262 0.951 . S
H1245 C1264 0.951 . S
H1246 C1266 0.950 . S
H1247 C1267 0.950 . S
H1248 C1269 0.950 . S
H1249 C1272 0.950 . S
H1250 C1273 0.950 . S
H1251 C1275 0.950 . S
H1252 C1276 0.950 . S
H1253 C1277 0.951 . S
H1254 C1279 0.951 . S
H1255 C1281 0.950 . S
H1256 C1282 0.950 . S
H1257 C1284 0.950 . S
H1258 C1287 0.950 . S
H1259 C1288 0.950 . S
H1260 C1290 0.950 . S
H1261 C1291 0.950 . S
C1262 H1244 0.951 . S
C1262 C1263 1.366 . S
C1262 C1264 1.388 . S
C1263 C1262 1.366 . S
C1263 C1267 1.385 . S
C1264 H1245 0.951 . S
C1264 C1262 1.388 . S
C1264 C1265 1.366 . S
C1265 C1264 1.366 . S
C1265 C1266 1.414 . S
C1265 C1268 1.499 . S
C1266 H1246 0.950 . S
C1266 C1265 1.414 . S
C1266 C1267 1.374 . S
C1267 H1247 0.950 . S
C1267 C1263 1.385 . S
C1267 C1266 1.374 . S
C1268 C1265 1.499 . S
C1268 C1269 1.373 . S
C1268 C1270 1.389 . S
C1269 H1248 0.950 . S
C1269 C1268 1.373 . S
C1269 C1285 1.377 1_556 S
C1270 C1268 1.389 . S
C1270 C1271 1.524 . S
C1270 C1284 1.377 1_556 S
C1271 C1270 1.524 . S
C1271 C1272 1.397 . S
C1271 C1276 1.363 1_556 S
C1272 H1249 0.950 . S
C1272 C1271 1.397 . S
C1272 C1273 1.334 . S
C1273 H1250 0.950 . S
C1273 C1272 1.334 . S
C1273 C1274 1.287 . S
C1274 C1273 1.287 . S
C1274 C1275 1.524 1_556 S
C1274 H1293 0.913 . S
C1275 H1251 0.950 . S
C1275 C1274 1.524 1_554 S
C1275 C1276 1.415 . S
C1276 H1252 0.950 . S
C1276 C1271 1.363 1_554 S
C1276 C1275 1.415 . S
C1277 H1253 0.951 . S
C1277 C1278 1.366 . S
C1277 C1279 1.388 . S
C1278 C1277 1.366 . S
C1278 C1282 1.385 . S
C1279 H1254 0.951 . S
C1279 C1277 1.388 . S
C1279 C1280 1.366 . S
C1280 C1279 1.366 . S
C1280 C1281 1.414 . S
C1280 C1283 1.499 . S
C1281 H1255 0.950 . S
C1281 C1280 1.414 . S
C1281 C1282 1.374 . S
C1282 H1256 0.950 . S
C1282 C1278 1.385 . S
C1282 C1281 1.374 . S
C1283 C1280 1.499 . S
C1283 C1284 1.373 . S
C1283 C1285 1.389 . S
C1284 H1257 0.950 . S
C1284 C1270 1.377 1_554 S
C1284 C1283 1.373 . S
C1285 C1269 1.377 1_554 S
C1285 C1283 1.389 . S
C1285 C1286 1.524 . S
C1286 C1285 1.524 . S
C1286 C1287 1.397 . S
C1286 C1291 1.363 1_554 S
C1287 H1258 0.950 . S
C1287 C1286 1.397 . S
C1287 C1288 1.334 . S
C1288 H1259 0.950 . S
C1288 C1287 1.334 . S
C1288 C1289 1.287 . S
C1289 C1288 1.287 . S
C1289 C1290 1.524 1_554 S
C1289 H1292 0.999 . S
C1290 H1260 0.950 . S
C1290 C1289 1.524 1_556 S
C1290 C1291 1.415 . S
C1291 H1261 0.950 . S
C1291 C1286 1.363 1_556 S
C1291 C1290 1.415 . S
H1292 C1289 0.999 . S
H1293 C1274 0.913 . S
H1294 C1312 0.951 . S
H1295 C1314 0.951 . S
H1296 C1316 0.950 . S
H1297 C1317 0.950 . S
H1298 C1319 0.950 . S
H1299 C1322 0.950 . S
H1300 C1323 0.950 . S
H1301 C1325 0.950 . S
H1302 C1326 0.950 . S
H1303 C1327 0.951 . S
H1304 C1329 0.951 . S
H1305 C1331 0.950 . S
H1306 C1332 0.950 . S
H1307 C1334 0.950 . S
H1308 C1337 0.950 . S
H1309 C1338 0.950 . S
H1310 C1340 0.950 . S
H1311 C1341 0.950 . S
C1312 H1294 0.951 . S
C1312 C1313 1.366 . S
C1312 C1314 1.388 . S
C1313 C1312 1.366 . S
C1313 C1317 1.385 . S
C1314 H1295 0.951 . S
C1314 C1312 1.388 . S
C1314 C1315 1.366 . S
C1315 C1314 1.366 . S
C1315 C1316 1.414 . S
C1315 C1318 1.499 . S
C1316 H1296 0.950 . S
C1316 C1315 1.414 . S
C1316 C1317 1.374 . S
C1317 H1297 0.950 . S
C1317 C1313 1.385 . S
C1317 C1316 1.374 . S
C1318 C1315 1.499 . S
C1318 C1319 1.373 . S
C1318 C1320 1.389 . S
C1319 H1298 0.950 . S
C1319 C1318 1.373 . S
C1319 C1335 1.377 . S
C1320 C1318 1.389 . S
C1320 C1321 1.524 . S
C1320 C1334 1.377 . S
C1321 C1320 1.524 . S
C1321 C1322 1.397 . S
C1321 C1326 1.363 . S
C1322 H1299 0.950 . S
C1322 C1321 1.397 . S
C1322 C1323 1.334 . S
C1323 H1300 0.950 . S
C1323 C1322 1.334 . S
C1323 C1324 1.287 . S
C1324 C1323 1.287 . S
C1324 C1325 1.524 . S
C1324 H1343 0.913 . S
C1325 H1301 0.950 . S
C1325 C1324 1.524 . S
C1325 C1326 1.415 . S
C1326 H1302 0.950 . S
C1326 C1321 1.363 . S
C1326 C1325 1.415 . S
C1327 H1303 0.951 . S
C1327 C1328 1.366 . S
C1327 C1329 1.388 . S
C1328 C1327 1.366 . S
C1328 C1332 1.385 . S
C1329 H1304 0.951 . S
C1329 C1327 1.388 . S
C1329 C1330 1.366 . S
C1330 C1329 1.366 . S
C1330 C1331 1.414 . S
C1330 C1333 1.499 . S
C1331 H1305 0.950 . S
C1331 C1330 1.414 . S
C1331 C1332 1.374 . S
C1332 H1306 0.950 . S
C1332 C1328 1.385 . S
C1332 C1331 1.374 . S
C1333 C1330 1.499 . S
C1333 C1334 1.373 . S
C1333 C1335 1.389 . S
C1334 H1307 0.950 . S
C1334 C1320 1.377 . S
C1334 C1333 1.373 . S
C1335 C1319 1.377 . S
C1335 C1333 1.389 . S
C1335 C1336 1.524 . S
C1336 C1335 1.524 . S
C1336 C1337 1.397 . S
C1336 C1341 1.363 . S
C1337 H1308 0.950 . S
C1337 C1336 1.397 . S
C1337 C1338 1.334 . S
C1338 H1309 0.950 . S
C1338 C1337 1.334 . S
C1338 C1339 1.287 . S
C1339 C1338 1.287 . S
C1339 C1340 1.524 . S
C1339 H1342 0.999 . S
C1340 H1310 0.950 . S
C1340 C1339 1.524 . S
C1340 C1341 1.415 . S
C1341 H1311 0.950 . S
C1341 C1336 1.363 . S
C1341 C1340 1.415 . S
H1342 C1339 0.999 . S
H1343 C1324 0.913 . S
H1344 C1362 0.951 . S
H1345 C1364 0.951 . S
H1346 C1366 0.950 . S
H1347 C1367 0.950 . S
H1348 C1369 0.950 . S
H1349 C1372 0.950 . S
H1350 C1373 0.950 . S
H1351 C1375 0.950 . S
H1352 C1376 0.950 . S
H1353 C1377 0.951 . S
H1354 C1379 0.951 . S
H1355 C1381 0.950 . S
H1356 C1382 0.950 . S
H1357 C1384 0.950 . S
H1358 C1387 0.950 . S
H1359 C1388 0.950 . S
H1360 C1390 0.950 . S
H1361 C1391 0.950 . S
C1362 H1344 0.951 . S
C1362 C1363 1.366 . S
C1362 C1364 1.388 . S
C1363 C1362 1.366 . S
C1363 C1367 1.385 . S
C1364 H1345 0.951 . S
C1364 C1362 1.388 . S
C1364 C1365 1.366 . S
C1365 C1364 1.366 . S
C1365 C1366 1.414 . S
C1365 C1368 1.499 . S
C1366 H1346 0.950 . S
C1366 C1365 1.414 . S
C1366 C1367 1.374 . S
C1367 H1347 0.950 . S
C1367 C1363 1.385 . S
C1367 C1366 1.374 . S
C1368 C1365 1.499 . S
C1368 C1369 1.373 . S
C1368 C1370 1.389 . S
C1369 H1348 0.950 . S
C1369 C1368 1.373 . S
C1369 C1385 1.377 . S
C1370 C1368 1.389 . S
C1370 C1371 1.524 . S
C1370 C1384 1.377 . S
C1371 C1370 1.524 . S
C1371 C1372 1.397 . S
C1371 C1376 1.363 . S
C1372 H1349 0.950 . S
C1372 C1371 1.397 . S
C1372 C1373 1.334 . S
C1373 H1350 0.950 . S
C1373 C1372 1.334 . S
C1373 C1374 1.287 . S
C1374 C1373 1.287 . S
C1374 C1375 1.524 . S
C1374 H1393 0.913 . S
C1375 H1351 0.950 . S
C1375 C1374 1.524 . S
C1375 C1376 1.415 . S
C1376 H1352 0.950 . S
C1376 C1371 1.363 . S
C1376 C1375 1.415 . S
C1377 H1353 0.951 . S
C1377 C1378 1.366 . S
C1377 C1379 1.388 . S
C1378 C1377 1.366 . S
C1378 C1382 1.385 . S
C1379 H1354 0.951 . S
C1379 C1377 1.388 . S
C1379 C1380 1.366 . S
C1380 C1379 1.366 . S
C1380 C1381 1.414 . S
C1380 C1383 1.499 . S
C1381 H1355 0.950 . S
C1381 C1380 1.414 . S
C1381 C1382 1.374 . S
C1382 H1356 0.950 . S
C1382 C1378 1.385 . S
C1382 C1381 1.374 . S
C1383 C1380 1.499 . S
C1383 C1384 1.373 . S
C1383 C1385 1.389 . S
C1384 H1357 0.950 . S
C1384 C1370 1.377 . S
C1384 C1383 1.373 . S
C1385 C1369 1.377 . S
C1385 C1383 1.389 . S
C1385 C1386 1.524 . S
C1386 C1385 1.524 . S
C1386 C1387 1.397 . S
C1386 C1391 1.363 . S
C1387 H1358 0.950 . S
C1387 C1386 1.397 . S
C1387 C1388 1.334 . S
C1388 H1359 0.950 . S
C1388 C1387 1.334 . S
C1388 C1389 1.287 . S
C1389 C1388 1.287 . S
C1389 C1390 1.524 . S
C1389 H1392 0.999 . S
C1390 H1360 0.950 . S
C1390 C1389 1.524 . S
C1390 C1391 1.415 . S
C1391 H1361 0.950 . S
C1391 C1386 1.363 . S
C1391 C1390 1.415 . S
H1392 C1389 0.999 . S
H1393 C1374 0.913 . S
H1394 C1412 0.951 . S
H1395 C1414 0.951 . S
H1396 C1416 0.950 . S
H1397 C1417 0.950 . S
H1398 C1419 0.950 . S
H1399 C1422 0.950 . S
H1400 C1423 0.950 . S
H1401 C1425 0.950 . S
H1402 C1426 0.950 . S
H1403 C1427 0.951 . S
H1404 C1429 0.951 . S
H1405 C1431 0.950 . S
H1406 C1432 0.950 . S
H1407 C1434 0.950 . S
H1408 C1437 0.950 . S
H1409 C1438 0.950 . S
H1410 C1440 0.950 . S
H1411 C1441 0.950 . S
C1412 H1394 0.951 . S
C1412 C1413 1.366 . S
C1412 C1414 1.388 . S
C1413 C1412 1.366 . S
C1413 C1417 1.385 . S
C1414 H1395 0.951 . S
C1414 C1412 1.388 . S
C1414 C1415 1.366 . S
C1415 C1414 1.366 . S
C1415 C1416 1.414 . S
C1415 C1418 1.499 . S
C1416 H1396 0.950 . S
C1416 C1415 1.414 . S
C1416 C1417 1.374 . S
C1417 H1397 0.950 . S
C1417 C1413 1.385 . S
C1417 C1416 1.374 . S
C1418 C1415 1.499 . S
C1418 C1419 1.373 . S
C1418 C1420 1.389 . S
C1419 H1398 0.950 . S
C1419 C1418 1.373 . S
C1419 C1435 1.377 . S
C1420 C1418 1.389 . S
C1420 C1421 1.524 . S
C1420 C1434 1.377 . S
C1421 C1420 1.524 . S
C1421 C1422 1.397 . S
C1421 C1426 1.363 . S
C1422 H1399 0.950 . S
C1422 C1421 1.397 . S
C1422 C1423 1.334 . S
C1423 H1400 0.950 . S
C1423 C1422 1.334 . S
C1423 C1424 1.287 . S
C1424 C1423 1.287 . S
C1424 C1425 1.524 . S
C1424 H1443 0.913 . S
C1425 H1401 0.950 . S
C1425 C1424 1.524 . S
C1425 C1426 1.415 . S
C1426 H1402 0.950 . S
C1426 C1421 1.363 . S
C1426 C1425 1.415 . S
C1427 H1403 0.951 . S
C1427 C1428 1.366 . S
C1427 C1429 1.388 . S
C1428 C1427 1.366 . S
C1428 C1432 1.385 . S
C1429 H1404 0.951 . S
C1429 C1427 1.388 . S
C1429 C1430 1.366 . S
C1430 C1429 1.366 . S
C1430 C1431 1.414 . S
C1430 C1433 1.499 . S
C1431 H1405 0.950 . S
C1431 C1430 1.414 . S
C1431 C1432 1.374 . S
C1432 H1406 0.950 . S
C1432 C1428 1.385 . S
C1432 C1431 1.374 . S
C1433 C1430 1.499 . S
C1433 C1434 1.373 . S
C1433 C1435 1.389 . S
C1434 H1407 0.950 . S
C1434 C1420 1.377 . S
C1434 C1433 1.373 . S
C1435 C1419 1.377 . S
C1435 C1433 1.389 . S
C1435 C1436 1.524 . S
C1436 C1435 1.524 . S
C1436 C1437 1.397 . S
C1436 C1441 1.363 . S
C1437 H1408 0.950 . S
C1437 C1436 1.397 . S
C1437 C1438 1.334 . S
C1438 H1409 0.950 . S
C1438 C1437 1.334 . S
C1438 C1439 1.287 . S
C1439 C1438 1.287 . S
C1439 C1440 1.524 . S
C1439 H1442 0.999 . S
C1440 H1410 0.950 . S
C1440 C1439 1.524 . S
C1440 C1441 1.415 . S
C1441 H1411 0.950 . S
C1441 C1436 1.363 . S
C1441 C1440 1.415 . S
H1442 C1439 0.999 . S
H1443 C1424 0.913 . S
H1444 C1462 0.951 . S
H1445 C1464 0.951 . S
H1446 C1466 0.950 . S
H1447 C1467 0.950 . S
H1448 C1469 0.950 . S
H1449 C1472 0.950 . S
H1450 C1473 0.950 . S
H1451 C1475 0.950 . S
H1452 C1476 0.950 . S
H1453 C1477 0.951 . S
H1454 C1479 0.951 . S
H1455 C1481 0.950 . S
H1456 C1482 0.950 . S
H1457 C1484 0.950 . S
H1458 C1487 0.950 . S
H1459 C1488 0.950 . S
H1460 C1490 0.950 . S
H1461 C1491 0.950 . S
C1462 H1444 0.951 . S
C1462 C1463 1.366 . S
C1462 C1464 1.388 . S
C1463 C1462 1.366 . S
C1463 C1467 1.385 . S
C1464 H1445 0.951 . S
C1464 C1462 1.388 . S
C1464 C1465 1.366 . S
C1465 C1464 1.366 . S
C1465 C1466 1.414 . S
C1465 C1468 1.499 . S
C1466 H1446 0.950 . S
C1466 C1465 1.414 . S
C1466 C1467 1.374 . S
C1467 H1447 0.950 . S
C1467 C1463 1.385 . S
C1467 C1466 1.374 . S
C1468 C1465 1.499 . S
C1468 C1469 1.373 . S
C1468 C1470 1.389 . S
C1469 H1448 0.950 . S
C1469 C1468 1.373 . S
C1469 C1485 1.377 . S
C1470 C1468 1.389 . S
C1470 C1471 1.524 . S
C1470 C1484 1.377 . S
C1471 C1470 1.524 . S
C1471 C1472 1.397 . S
C1471 C1476 1.363 . S
C1472 H1449 0.950 . S
C1472 C1471 1.397 . S
C1472 C1473 1.334 . S
C1473 H1450 0.950 . S
C1473 C1472 1.334 . S
C1473 C1474 1.287 . S
C1474 C1473 1.287 . S
C1474 C1475 1.524 . S
C1474 H1493 0.913 . S
C1475 H1451 0.950 . S
C1475 C1474 1.524 . S
C1475 C1476 1.415 . S
C1476 H1452 0.950 . S
C1476 C1471 1.363 . S
C1476 C1475 1.415 . S
C1477 H1453 0.951 . S
C1477 C1478 1.366 . S
C1477 C1479 1.388 . S
C1478 C1477 1.366 . S
C1478 C1482 1.385 . S
C1479 H1454 0.951 . S
C1479 C1477 1.388 . S
C1479 C1480 1.366 . S
C1480 C1479 1.366 . S
C1480 C1481 1.414 . S
C1480 C1483 1.499 . S
C1481 H1455 0.950 . S
C1481 C1480 1.414 . S
C1481 C1482 1.374 . S
C1482 H1456 0.950 . S
C1482 C1478 1.385 . S
C1482 C1481 1.374 . S
C1483 C1480 1.499 . S
C1483 C1484 1.373 . S
C1483 C1485 1.389 . S
C1484 H1457 0.950 . S
C1484 C1470 1.377 . S
C1484 C1483 1.373 . S
C1485 C1469 1.377 . S
C1485 C1483 1.389 . S
C1485 C1486 1.524 . S
C1486 C1485 1.524 . S
C1486 C1487 1.397 . S
C1486 C1491 1.363 . S
C1487 H1458 0.950 . S
C1487 C1486 1.397 . S
C1487 C1488 1.334 . S
C1488 H1459 0.950 . S
C1488 C1487 1.334 . S
C1488 C1489 1.287 . S
C1489 C1488 1.287 . S
C1489 C1490 1.524 . S
C1489 H1492 0.999 . S
C1490 H1460 0.950 . S
C1490 C1489 1.524 . S
C1490 C1491 1.415 . S
C1491 H1461 0.950 . S
C1491 C1486 1.363 . S
C1491 C1490 1.415 . S
H1492 C1489 0.999 . S
H1493 C1474 0.913 . S
H1494 C1512 0.951 . S
H1495 C1514 0.951 . S
H1496 C1516 0.950 . S
H1497 C1517 0.950 . S
H1498 C1519 0.950 . S
H1499 C1522 0.950 . S
H1500 C1523 0.950 . S
H1501 C1525 0.950 . S
H1502 C1526 0.950 . S
H1503 C1527 0.951 . S
H1504 C1529 0.951 . S
H1505 C1531 0.950 . S
H1506 C1532 0.950 . S
H1507 C1534 0.950 . S
H1508 C1537 0.950 . S
H1509 C1538 0.950 . S
H1510 C1540 0.950 . S
H1511 C1541 0.950 . S
C1512 H1494 0.951 . S
C1512 C1513 1.366 . S
C1512 C1514 1.388 . S
C1513 C1512 1.366 . S
C1513 C1517 1.385 . S
C1514 H1495 0.951 . S
C1514 C1512 1.388 . S
C1514 C1515 1.366 . S
C1515 C1514 1.366 . S
C1515 C1516 1.414 . S
C1515 C1518 1.499 . S
C1516 H1496 0.950 . S
C1516 C1515 1.414 . S
C1516 C1517 1.374 . S
C1517 H1497 0.950 . S
C1517 C1513 1.385 . S
C1517 C1516 1.374 . S
C1518 C1515 1.499 . S
C1518 C1519 1.373 . S
C1518 C1520 1.389 . S
C1519 H1498 0.950 . S
C1519 C1518 1.373 . S
C1519 C1535 1.377 . S
C1520 C1518 1.389 . S
C1520 C1521 1.524 . S
C1520 C1534 1.377 . S
C1521 C1520 1.524 . S
C1521 C1522 1.397 . S
C1521 C1526 1.363 . S
C1522 H1499 0.950 . S
C1522 C1521 1.397 . S
C1522 C1523 1.334 . S
C1523 H1500 0.950 . S
C1523 C1522 1.334 . S
C1523 C1524 1.287 . S
C1524 C1523 1.287 . S
C1524 C1525 1.524 . S
C1524 H1543 0.913 . S
C1525 H1501 0.950 . S
C1525 C1524 1.524 . S
C1525 C1526 1.415 . S
C1526 H1502 0.950 . S
C1526 C1521 1.363 . S
C1526 C1525 1.415 . S
C1527 H1503 0.951 . S
C1527 C1528 1.366 . S
C1527 C1529 1.388 . S
C1528 C1527 1.366 . S
C1528 C1532 1.385 . S
C1529 H1504 0.951 . S
C1529 C1527 1.388 . S
C1529 C1530 1.366 . S
C1530 C1529 1.366 . S
C1530 C1531 1.414 . S
C1530 C1533 1.499 . S
C1531 H1505 0.950 . S
C1531 C1530 1.414 . S
C1531 C1532 1.374 . S
C1532 H1506 0.950 . S
C1532 C1528 1.385 . S
C1532 C1531 1.374 . S
C1533 C1530 1.499 . S
C1533 C1534 1.373 . S
C1533 C1535 1.389 . S
C1534 H1507 0.950 . S
C1534 C1520 1.377 . S
C1534 C1533 1.373 . S
C1535 C1519 1.377 . S
C1535 C1533 1.389 . S
C1535 C1536 1.524 . S
C1536 C1535 1.524 . S
C1536 C1537 1.397 . S
C1536 C1541 1.363 . S
C1537 H1508 0.950 . S
C1537 C1536 1.397 . S
C1537 C1538 1.334 . S
C1538 H1509 0.950 . S
C1538 C1537 1.334 . S
C1538 C1539 1.287 . S
C1539 C1538 1.287 . S
C1539 C1540 1.524 . S
C1539 H1542 0.999 . S
C1540 H1510 0.950 . S
C1540 C1539 1.524 . S
C1540 C1541 1.415 . S
C1541 H1511 0.950 . S
C1541 C1536 1.363 . S
C1541 C1540 1.415 . S
H1542 C1539 0.999 . S
H1543 C1524 0.913 . S
H1544 C1562 0.951 . S
H1545 C1564 0.951 . S
H1546 C1566 0.950 . S
H1547 C1567 0.950 . S
H1548 C1569 0.950 . S
H1549 C1572 0.950 . S
H1550 C1573 0.950 . S
H1551 C1575 0.950 . S
H1552 C1576 0.950 . S
H1553 C1577 0.951 . S
H1554 C1579 0.951 . S
H1555 C1581 0.950 . S
H1556 C1582 0.950 . S
H1557 C1584 0.950 . S
H1558 C1587 0.950 . S
H1559 C1588 0.950 . S
H1560 C1590 0.950 . S
H1561 C1591 0.950 . S
C1562 H1544 0.951 . S
C1562 C1563 1.366 . S
C1562 C1564 1.388 . S
C1563 C1562 1.366 . S
C1563 C1567 1.385 . S
C1564 H1545 0.951 . S
C1564 C1562 1.388 . S
C1564 C1565 1.366 . S
C1565 C1564 1.366 . S
C1565 C1566 1.414 . S
C1565 C1568 1.499 . S
C1566 H1546 0.950 . S
C1566 C1565 1.414 . S
C1566 C1567 1.374 . S
C1567 H1547 0.950 . S
C1567 C1563 1.385 . S
C1567 C1566 1.374 . S
C1568 C1565 1.499 . S
C1568 C1569 1.373 . S
C1568 C1570 1.389 . S
C1569 H1548 0.950 . S
C1569 C1568 1.373 . S
C1569 C1585 1.377 . S
C1570 C1568 1.389 . S
C1570 C1571 1.524 . S
C1570 C1584 1.377 . S
C1571 C1570 1.524 . S
C1571 C1572 1.397 . S
C1571 C1576 1.363 . S
C1572 H1549 0.950 . S
C1572 C1571 1.397 . S
C1572 C1573 1.334 . S
C1573 H1550 0.950 . S
C1573 C1572 1.334 . S
C1573 C1574 1.287 . S
C1574 C1573 1.287 . S
C1574 C1575 1.524 . S
C1574 H1593 0.913 . S
C1575 H1551 0.950 . S
C1575 C1574 1.524 . S
C1575 C1576 1.415 . S
C1576 H1552 0.950 . S
C1576 C1571 1.363 . S
C1576 C1575 1.415 . S
C1577 H1553 0.951 . S
C1577 C1578 1.366 . S
C1577 C1579 1.388 . S
C1578 C1577 1.366 . S
C1578 C1582 1.385 . S
C1579 H1554 0.951 . S
C1579 C1577 1.388 . S
C1579 C1580 1.366 . S
C1580 C1579 1.366 . S
C1580 C1581 1.414 . S
C1580 C1583 1.499 . S
C1581 H1555 0.950 . S
C1581 C1580 1.414 . S
C1581 C1582 1.374 . S
C1582 H1556 0.950 . S
C1582 C1578 1.385 . S
C1582 C1581 1.374 . S
C1583 C1580 1.499 . S
C1583 C1584 1.373 . S
C1583 C1585 1.389 . S
C1584 H1557 0.950 . S
C1584 C1570 1.377 . S
C1584 C1583 1.373 . S
C1585 C1569 1.377 . S
C1585 C1583 1.389 . S
C1585 C1586 1.524 . S
C1586 C1585 1.524 . S
C1586 C1587 1.397 . S
C1586 C1591 1.363 . S
C1587 H1558 0.950 . S
C1587 C1586 1.397 . S
C1587 C1588 1.334 . S
C1588 H1559 0.950 . S
C1588 C1587 1.334 . S
C1588 C1589 1.287 . S
C1589 C1588 1.287 . S
C1589 C1590 1.524 . S
C1589 H1592 0.999 . S
C1590 H1560 0.950 . S
C1590 C1589 1.524 . S
C1590 C1591 1.415 . S
C1591 H1561 0.950 . S
C1591 C1586 1.363 . S
C1591 C1590 1.415 . S
H1592 C1589 0.999 . S
H1593 C1574 0.913 . S
H1594 C1612 0.951 . S
H1595 C1614 0.951 . S
H1596 C1616 0.950 . S
H1597 C1617 0.950 . S
H1598 C1619 0.950 . S
H1599 C1622 0.950 . S
H1600 C1623 0.950 . S
H1601 C1625 0.950 . S
H1602 C1626 0.950 . S
H1603 C1627 0.951 . S
H1604 C1629 0.951 . S
H1605 C1631 0.950 . S
H1606 C1632 0.950 . S
H1607 C1634 0.950 . S
H1608 C1637 0.950 . S
H1609 C1638 0.950 . S
H1610 C1640 0.950 . S
H1611 C1641 0.950 . S
C1612 H1594 0.951 . S
C1612 C1613 1.366 . S
C1612 C1614 1.388 . S
C1613 C1612 1.366 . S
C1613 C1617 1.385 . S
C1614 H1595 0.951 . S
C1614 C1612 1.388 . S
C1614 C1615 1.366 . S
C1615 C1614 1.366 . S
C1615 C1616 1.414 . S
C1615 C1618 1.499 . S
C1616 H1596 0.950 . S
C1616 C1615 1.414 . S
C1616 C1617 1.374 . S
C1617 H1597 0.950 . S
C1617 C1613 1.385 . S
C1617 C1616 1.374 . S
C1618 C1615 1.499 . S
C1618 C1619 1.373 . S
C1618 C1620 1.389 . S
C1619 H1598 0.950 . S
C1619 C1618 1.373 . S
C1619 C1635 1.377 . S
C1620 C1618 1.389 . S
C1620 C1621 1.524 . S
C1620 C1634 1.377 . S
C1621 C1620 1.524 . S
C1621 C1622 1.397 . S
C1621 C1626 1.363 . S
C1622 H1599 0.950 . S
C1622 C1621 1.397 . S
C1622 C1623 1.334 . S
C1623 H1600 0.950 . S
C1623 C1622 1.334 . S
C1623 C1624 1.287 . S
C1624 C1623 1.287 . S
C1624 C1625 1.524 . S
C1624 H1643 0.913 . S
C1625 H1601 0.950 . S
C1625 C1624 1.524 . S
C1625 C1626 1.415 . S
C1626 H1602 0.950 . S
C1626 C1621 1.363 . S
C1626 C1625 1.415 . S
C1627 H1603 0.951 . S
C1627 C1628 1.366 . S
C1627 C1629 1.388 . S
C1628 C1627 1.366 . S
C1628 C1632 1.385 . S
C1629 H1604 0.951 . S
C1629 C1627 1.388 . S
C1629 C1630 1.366 . S
C1630 C1629 1.366 . S
C1630 C1631 1.414 . S
C1630 C1633 1.499 . S
C1631 H1605 0.950 . S
C1631 C1630 1.414 . S
C1631 C1632 1.374 . S
C1632 H1606 0.950 . S
C1632 C1628 1.385 . S
C1632 C1631 1.374 . S
C1633 C1630 1.499 . S
C1633 C1634 1.373 . S
C1633 C1635 1.389 . S
C1634 H1607 0.950 . S
C1634 C1620 1.377 . S
C1634 C1633 1.373 . S
C1635 C1619 1.377 . S
C1635 C1633 1.389 . S
C1635 C1636 1.524 . S
C1636 C1635 1.524 . S
C1636 C1637 1.397 . S
C1636 C1641 1.363 . S
C1637 H1608 0.950 . S
C1637 C1636 1.397 . S
C1637 C1638 1.334 . S
C1638 H1609 0.950 . S
C1638 C1637 1.334 . S
C1638 C1639 1.287 . S
C1639 C1638 1.287 . S
C1639 C1640 1.524 . S
C1639 H1642 0.999 . S
C1640 H1610 0.950 . S
C1640 C1639 1.524 . S
C1640 C1641 1.415 . S
C1641 H1611 0.950 . S
C1641 C1636 1.363 . S
C1641 C1640 1.415 . S
H1642 C1639 0.999 . S
H1643 C1624 0.913 . S
H1644 C1662 0.951 . S
H1645 C1664 0.951 . S
H1646 C1666 0.950 . S
H1647 C1667 0.950 . S
H1648 C1669 0.950 . S
H1649 C1672 0.950 . S
H1650 C1673 0.950 . S
H1651 C1675 0.950 . S
H1652 C1676 0.950 . S
H1653 C1677 0.951 . S
H1654 C1679 0.951 . S
H1655 C1681 0.950 . S
H1656 C1682 0.950 . S
H1657 C1684 0.950 . S
H1658 C1687 0.950 . S
H1659 C1688 0.950 . S
H1660 C1690 0.950 . S
H1661 C1691 0.950 . S
C1662 H1644 0.951 . S
C1662 C1663 1.366 . S
C1662 C1664 1.388 . S
C1663 C1662 1.366 . S
C1663 C1667 1.385 . S
C1664 H1645 0.951 . S
C1664 C1662 1.388 . S
C1664 C1665 1.366 . S
C1665 C1664 1.366 . S
C1665 C1666 1.414 . S
C1665 C1668 1.499 . S
C1666 H1646 0.950 . S
C1666 C1665 1.414 . S
C1666 C1667 1.374 . S
C1667 H1647 0.950 . S
C1667 C1663 1.385 . S
C1667 C1666 1.374 . S
C1668 C1665 1.499 . S
C1668 C1669 1.373 . S
C1668 C1670 1.389 . S
C1669 H1648 0.950 . S
C1669 C1668 1.373 . S
C1669 C1685 1.377 . S
C1670 C1668 1.389 . S
C1670 C1671 1.524 . S
C1670 C1684 1.377 . S
C1671 C1670 1.524 . S
C1671 C1672 1.397 . S
C1671 C1676 1.363 . S
C1672 H1649 0.950 . S
C1672 C1671 1.397 . S
C1672 C1673 1.334 . S
C1673 H1650 0.950 . S
C1673 C1672 1.334 . S
C1673 C1674 1.287 . S
C1674 C1673 1.287 . S
C1674 C1675 1.524 . S
C1674 H1693 0.913 . S
C1675 H1651 0.950 . S
C1675 C1674 1.524 . S
C1675 C1676 1.415 . S
C1676 H1652 0.950 . S
C1676 C1671 1.363 . S
C1676 C1675 1.415 . S
C1677 H1653 0.951 . S
C1677 C1678 1.366 . S
C1677 C1679 1.388 . S
C1678 C1677 1.366 . S
C1678 C1682 1.385 . S
C1679 H1654 0.951 . S
C1679 C1677 1.388 . S
C1679 C1680 1.366 . S
C1680 C1679 1.366 . S
C1680 C1681 1.414 . S
C1680 C1683 1.499 . S
C1681 H1655 0.950 . S
C1681 C1680 1.414 . S
C1681 C1682 1.374 . S
C1682 H1656 0.950 . S
C1682 C1678 1.385 . S
C1682 C1681 1.374 . S
C1683 C1680 1.499 . S
C1683 C1684 1.373 . S
C1683 C1685 1.389 . S
C1684 H1657 0.950 . S
C1684 C1670 1.377 . S
C1684 C1683 1.373 . S
C1685 C1669 1.377 . S
C1685 C1683 1.389 . S
C1685 C1686 1.524 . S
C1686 C1685 1.524 . S
C1686 C1687 1.397 . S
C1686 C1691 1.363 . S
C1687 H1658 0.950 . S
C1687 C1686 1.397 . S
C1687 C1688 1.334 . S
C1688 H1659 0.950 . S
C1688 C1687 1.334 . S
C1688 C1689 1.287 . S
C1689 C1688 1.287 . S
C1689 C1690 1.524 . S
C1689 H1692 0.999 . S
C1690 H1660 0.950 . S
C1690 C1689 1.524 . S
C1690 C1691 1.415 . S
C1691 H1661 0.950 . S
C1691 C1686 1.363 . S
C1691 C1690 1.415 . S
H1692 C1689 0.999 . S
H1693 C1674 0.913 . S
H1694 C1712 0.951 . S
H1695 C1714 0.951 . S
H1696 C1716 0.950 . S
H1697 C1717 0.950 . S
H1698 C1719 0.950 . S
H1699 C1722 0.950 . S
H1700 C1723 0.950 . S
H1701 C1725 0.950 . S
H1702 C1726 0.950 . S
H1703 C1727 0.951 . S
H1704 C1729 0.951 . S
H1705 C1731 0.950 . S
H1706 C1732 0.950 . S
H1707 C1734 0.950 . S
H1708 C1737 0.950 . S
H1709 C1738 0.950 . S
H1710 C1740 0.950 . S
H1711 C1741 0.950 . S
C1712 H1694 0.951 . S
C1712 C1713 1.366 . S
C1712 C1714 1.388 . S
C1713 C1712 1.366 . S
C1713 C1717 1.385 . S
C1714 H1695 0.951 . S
C1714 C1712 1.388 . S
C1714 C1715 1.366 . S
C1715 C1714 1.366 . S
C1715 C1716 1.414 . S
C1715 C1718 1.499 . S
C1716 H1696 0.950 . S
C1716 C1715 1.414 . S
C1716 C1717 1.374 . S
C1717 H1697 0.950 . S
C1717 C1713 1.385 . S
C1717 C1716 1.374 . S
C1718 C1715 1.499 . S
C1718 C1719 1.373 . S
C1718 C1720 1.389 . S
C1719 H1698 0.950 . S
C1719 C1718 1.373 . S
C1719 C1735 1.377 . S
C1720 C1718 1.389 . S
C1720 C1721 1.524 . S
C1720 C1734 1.377 . S
C1721 C1720 1.524 . S
C1721 C1722 1.397 . S
C1721 C1726 1.363 . S
C1722 H1699 0.950 . S
C1722 C1721 1.397 . S
C1722 C1723 1.334 . S
C1723 H1700 0.950 . S
C1723 C1722 1.334 . S
C1723 C1724 1.287 . S
C1724 C1723 1.287 . S
C1724 C1725 1.524 . S
C1724 H1743 0.913 . S
C1725 H1701 0.950 . S
C1725 C1724 1.524 . S
C1725 C1726 1.415 . S
C1726 H1702 0.950 . S
C1726 C1721 1.363 . S
C1726 C1725 1.415 . S
C1727 H1703 0.951 . S
C1727 C1728 1.366 . S
C1727 C1729 1.388 . S
C1728 C1727 1.366 . S
C1728 C1732 1.385 . S
C1729 H1704 0.951 . S
C1729 C1727 1.388 . S
C1729 C1730 1.366 . S
C1730 C1729 1.366 . S
C1730 C1731 1.414 . S
C1730 C1733 1.499 . S
C1731 H1705 0.950 . S
C1731 C1730 1.414 . S
C1731 C1732 1.374 . S
C1732 H1706 0.950 . S
C1732 C1728 1.385 . S
C1732 C1731 1.374 . S
C1733 C1730 1.499 . S
C1733 C1734 1.373 . S
C1733 C1735 1.389 . S
C1734 H1707 0.950 . S
C1734 C1720 1.377 . S
C1734 C1733 1.373 . S
C1735 C1719 1.377 . S
C1735 C1733 1.389 . S
C1735 C1736 1.524 . S
C1736 C1735 1.524 . S
C1736 C1737 1.397 . S
C1736 C1741 1.363 . S
C1737 H1708 0.950 . S
C1737 C1736 1.397 . S
C1737 C1738 1.334 . S
C1738 H1709 0.950 . S
C1738 C1737 1.334 . S
C1738 C1739 1.287 . S
C1739 C1738 1.287 . S
C1739 C1740 1.524 . S
C1739 H1742 0.999 . S
C1740 H1710 0.950 . S
C1740 C1739 1.524 . S
C1740 C1741 1.415 . S
C1741 H1711 0.950 . S
C1741 C1736 1.363 . S
C1741 C1740 1.415 . S
H1742 C1739 0.999 . S
H1743 C1724 0.913 . S
H1744 C1762 0.951 . S
H1745 C1764 0.951 . S
H1746 C1766 0.950 . S
H1747 C1767 0.950 . S
H1748 C1769 0.950 . S
H1749 C1772 0.950 . S
H1750 C1773 0.950 1_565 S
H1751 C1775 0.950 . S
H1752 C1776 0.950 . S
H1753 C1777 0.951 . S
H1754 C1779 0.951 . S
H1755 C1781 0.950 . S
H1756 C1782 0.950 . S
H1757 C1784 0.950 . S
H1758 C1787 0.950 . S
H1759 C1788 0.950 . S
H1760 C1790 0.950 . S
H1761 C1791 0.950 . S
C1762 H1744 0.951 . S
C1762 C1763 1.366 . S
C1762 C1764 1.388 . S
C1763 C1762 1.366 . S
C1763 C1767 1.385 . S
C1764 H1745 0.951 . S
C1764 C1762 1.388 . S
C1764 C1765 1.366 . S
C1765 C1764 1.366 . S
C1765 C1766 1.414 . S
C1765 C1768 1.499 . S
C1766 H1746 0.950 . S
C1766 C1765 1.414 . S
C1766 C1767 1.374 . S
C1767 H1747 0.950 . S
C1767 C1763 1.385 . S
C1767 C1766 1.374 . S
C1768 C1765 1.499 . S
C1768 C1769 1.373 . S
C1768 C1770 1.389 . S
C1769 H1748 0.950 . S
C1769 C1768 1.373 . S
C1769 C1785 1.377 . S
C1770 C1768 1.389 . S
C1770 C1771 1.524 . S
C1770 C1784 1.377 . S
C1771 C1770 1.524 . S
C1771 C1772 1.397 . S
C1771 C1776 1.363 . S
C1772 H1749 0.950 . S
C1772 C1771 1.397 . S
C1772 C1773 1.334 . S
C1773 H1750 0.950 1_545 S
C1773 C1772 1.334 . S
C1773 C1774 1.287 1_545 S
C1774 C1773 1.287 1_565 S
C1774 C1775 1.524 1_565 S
C1774 H1793 0.913 . S
C1775 H1751 0.950 . S
C1775 C1774 1.524 1_545 S
C1775 C1776 1.415 . S
C1776 H1752 0.950 . S
C1776 C1771 1.363 . S
C1776 C1775 1.415 . S
C1777 H1753 0.951 . S
C1777 C1778 1.366 . S
C1777 C1779 1.388 . S
C1778 C1777 1.366 . S
C1778 C1782 1.385 . S
C1779 H1754 0.951 . S
C1779 C1777 1.388 . S
C1779 C1780 1.366 . S
C1780 C1779 1.366 . S
C1780 C1781 1.414 . S
C1780 C1783 1.499 . S
C1781 H1755 0.950 . S
C1781 C1780 1.414 . S
C1781 C1782 1.374 . S
C1782 H1756 0.950 . S
C1782 C1778 1.385 . S
C1782 C1781 1.374 . S
C1783 C1780 1.499 . S
C1783 C1784 1.373 . S
C1783 C1785 1.389 . S
C1784 H1757 0.950 . S
C1784 C1770 1.377 . S
C1784 C1783 1.373 . S
C1785 C1769 1.377 . S
C1785 C1783 1.389 . S
C1785 C1786 1.524 . S
C1786 C1785 1.524 . S
C1786 C1787 1.397 . S
C1786 C1791 1.363 . S
C1787 H1758 0.950 . S
C1787 C1786 1.397 . S
C1787 C1788 1.334 . S
C1788 H1759 0.950 . S
C1788 C1787 1.334 . S
C1788 C1789 1.287 . S
C1789 C1788 1.287 . S
C1789 C1790 1.524 . S
C1789 H1792 0.999 . S
C1790 H1760 0.950 . S
C1790 C1789 1.524 . S
C1790 C1791 1.415 . S
C1791 H1761 0.950 . S
C1791 C1786 1.363 . S
C1791 C1790 1.415 . S
H1792 C1789 0.999 . S
H1793 C1774 0.913 . S
H1794 C1812 0.951 . S
H1795 C1814 0.951 . S
H1796 C1816 0.950 . S
H1797 C1817 0.950 . S
H1798 C1819 0.950 . S
H1799 C1822 0.950 . S
H1800 C1823 0.950 . S
H1801 C1825 0.950 . S
H1802 C1826 0.950 . S
H1803 C1827 0.951 . S
H1804 C1829 0.951 . S
H1805 C1831 0.950 . S
H1806 C1832 0.950 . S
H1807 C1834 0.950 . S
H1808 C1837 0.950 . S
H1809 C1838 0.950 . S
H1810 C1840 0.950 . S
H1811 C1841 0.950 . S
C1812 H1794 0.951 . S
C1812 C1813 1.366 . S
C1812 C1814 1.388 . S
C1813 C1812 1.366 . S
C1813 C1817 1.385 . S
C1814 H1795 0.951 . S
C1814 C1812 1.388 . S
C1814 C1815 1.366 . S
C1815 C1814 1.366 . S
C1815 C1816 1.414 . S
C1815 C1818 1.499 . S
C1816 H1796 0.950 . S
C1816 C1815 1.414 . S
C1816 C1817 1.374 . S
C1817 H1797 0.950 . S
C1817 C1813 1.385 . S
C1817 C1816 1.374 . S
C1818 C1815 1.499 . S
C1818 C1819 1.373 . S
C1818 C1820 1.389 . S
C1819 H1798 0.950 . S
C1819 C1818 1.373 . S
C1819 C1835 1.377 . S
C1820 C1818 1.389 . S
C1820 C1821 1.524 . S
C1820 C1834 1.377 . S
C1821 C1820 1.524 . S
C1821 C1822 1.397 . S
C1821 C1826 1.363 . S
C1822 H1799 0.950 . S
C1822 C1821 1.397 . S
C1822 C1823 1.334 . S
C1823 H1800 0.950 . S
C1823 C1822 1.334 . S
C1823 C1824 1.287 . S
C1824 C1823 1.287 . S
C1824 C1825 1.524 . S
C1824 H1843 0.913 . S
C1825 H1801 0.950 . S
C1825 C1824 1.524 . S
C1825 C1826 1.415 . S
C1826 H1802 0.950 . S
C1826 C1821 1.363 . S
C1826 C1825 1.415 . S
C1827 H1803 0.951 . S
C1827 C1828 1.366 . S
C1827 C1829 1.388 . S
C1828 C1827 1.366 . S
C1828 C1832 1.385 . S
C1829 H1804 0.951 . S
C1829 C1827 1.388 . S
C1829 C1830 1.366 . S
C1830 C1829 1.366 . S
C1830 C1831 1.414 . S
C1830 C1833 1.499 . S
C1831 H1805 0.950 . S
C1831 C1830 1.414 . S
C1831 C1832 1.374 . S
C1832 H1806 0.950 . S
C1832 C1828 1.385 . S
C1832 C1831 1.374 . S
C1833 C1830 1.499 . S
C1833 C1834 1.373 . S
C1833 C1835 1.389 . S
C1834 H1807 0.950 . S
C1834 C1820 1.377 . S
C1834 C1833 1.373 . S
C1835 C1819 1.377 . S
C1835 C1833 1.389 . S
C1835 C1836 1.524 . S
C1836 C1835 1.524 . S
C1836 C1837 1.397 . S
C1836 C1841 1.363 . S
C1837 H1808 0.950 . S
C1837 C1836 1.397 . S
C1837 C1838 1.334 . S
C1838 H1809 0.950 . S
C1838 C1837 1.334 . S
C1838 C1839 1.287 . S
C1839 C1838 1.287 . S
C1839 C1840 1.524 . S
C1839 H1842 0.999 . S
C1840 H1810 0.950 . S
C1840 C1839 1.524 . S
C1840 C1841 1.415 . S
C1841 H1811 0.950 . S
C1841 C1836 1.363 . S
C1841 C1840 1.415 . S
H1842 C1839 0.999 . S
H1843 C1824 0.913 . S
H1844 C1862 0.951 . S
H1845 C1864 0.951 . S
H1846 C1866 0.950 . S
H1847 C1867 0.950 . S
H1848 C1869 0.950 . S
H1849 C1872 0.950 . S
H1850 C1873 0.950 . S
H1851 C1875 0.950 . S
H1852 C1876 0.950 . S
H1853 C1877 0.951 . S
H1854 C1879 0.951 . S
H1855 C1881 0.950 . S
H1856 C1882 0.950 . S
H1857 C1884 0.950 . S
H1858 C1887 0.950 . S
H1859 C1888 0.950 . S
H1860 C1890 0.950 . S
H1861 C1891 0.950 . S
C1862 H1844 0.951 . S
C1862 C1863 1.366 . S
C1862 C1864 1.388 . S
C1863 C1862 1.366 . S
C1863 C1867 1.385 . S
C1864 H1845 0.951 . S
C1864 C1862 1.388 . S
C1864 C1865 1.366 . S
C1865 C1864 1.366 . S
C1865 C1866 1.414 . S
C1865 C1868 1.499 . S
C1866 H1846 0.950 . S
C1866 C1865 1.414 . S
C1866 C1867 1.374 . S
C1867 H1847 0.950 . S
C1867 C1863 1.385 . S
C1867 C1866 1.374 . S
C1868 C1865 1.499 . S
C1868 C1869 1.373 . S
C1868 C1870 1.389 . S
C1869 H1848 0.950 . S
C1869 C1868 1.373 . S
C1869 C1885 1.377 . S
C1870 C1868 1.389 . S
C1870 C1871 1.524 . S
C1870 C1884 1.377 . S
C1871 C1870 1.524 . S
C1871 C1872 1.397 . S
C1871 C1876 1.363 . S
C1872 H1849 0.950 . S
C1872 C1871 1.397 . S
C1872 C1873 1.334 . S
C1873 H1850 0.950 . S
C1873 C1872 1.334 . S
C1873 C1874 1.287 . S
C1874 C1873 1.287 . S
C1874 C1875 1.524 . S
C1874 H1893 0.913 . S
C1875 H1851 0.950 . S
C1875 C1874 1.524 . S
C1875 C1876 1.415 . S
C1876 H1852 0.950 . S
C1876 C1871 1.363 . S
C1876 C1875 1.415 . S
C1877 H1853 0.951 . S
C1877 C1878 1.366 . S
C1877 C1879 1.388 . S
C1878 C1877 1.366 . S
C1878 C1882 1.385 . S
C1879 H1854 0.951 . S
C1879 C1877 1.388 . S
C1879 C1880 1.366 . S
C1880 C1879 1.366 . S
C1880 C1881 1.414 . S
C1880 C1883 1.499 . S
C1881 H1855 0.950 . S
C1881 C1880 1.414 . S
C1881 C1882 1.374 . S
C1882 H1856 0.950 . S
C1882 C1878 1.385 . S
C1882 C1881 1.374 . S
C1883 C1880 1.499 . S
C1883 C1884 1.373 . S
C1883 C1885 1.389 . S
C1884 H1857 0.950 . S
C1884 C1870 1.377 . S
C1884 C1883 1.373 . S
C1885 C1869 1.377 . S
C1885 C1883 1.389 . S
C1885 C1886 1.524 . S
C1886 C1885 1.524 . S
C1886 C1887 1.397 . S
C1886 C1891 1.363 . S
C1887 H1858 0.950 . S
C1887 C1886 1.397 . S
C1887 C1888 1.334 . S
C1888 H1859 0.950 . S
C1888 C1887 1.334 . S
C1888 C1889 1.287 . S
C1889 C1888 1.287 . S
C1889 C1890 1.524 . S
C1889 H1892 0.999 . S
C1890 H1860 0.950 . S
C1890 C1889 1.524 . S
C1890 C1891 1.415 . S
C1891 H1861 0.950 . S
C1891 C1886 1.363 . S
C1891 C1890 1.415 . S
H1892 C1889 0.999 . S
H1893 C1874 0.913 . S
H1894 C1912 0.951 . S
H1895 C1914 0.951 . S
H1896 C1916 0.950 . S
H1897 C1917 0.950 . S
H1898 C1919 0.950 . S
H1899 C1922 0.950 . S
H1900 C1923 0.950 . S
H1901 C1925 0.950 . S
H1902 C1926 0.950 . S
H1903 C1927 0.951 . S
H1904 C1929 0.951 . S
H1905 C1931 0.950 . S
H1906 C1932 0.950 . S
H1907 C1934 0.950 . S
H1908 C1937 0.950 . S
H1909 C1938 0.950 . S
H1910 C1940 0.950 . S
H1911 C1941 0.950 . S
C1912 H1894 0.951 . S
C1912 C1913 1.366 . S
C1912 C1914 1.388 . S
C1913 C1912 1.366 . S
C1913 C1917 1.385 . S
C1914 H1895 0.951 . S
C1914 C1912 1.388 . S
C1914 C1915 1.366 . S
C1915 C1914 1.366 . S
C1915 C1916 1.414 . S
C1915 C1918 1.499 . S
C1916 H1896 0.950 . S
C1916 C1915 1.414 . S
C1916 C1917 1.374 . S
C1917 H1897 0.950 . S
C1917 C1913 1.385 . S
C1917 C1916 1.374 . S
C1918 C1915 1.499 . S
C1918 C1919 1.373 . S
C1918 C1920 1.389 . S
C1919 H1898 0.950 . S
C1919 C1918 1.373 . S
C1919 C1935 1.377 . S
C1920 C1918 1.389 . S
C1920 C1921 1.524 . S
C1920 C1934 1.377 . S
C1921 C1920 1.524 . S
C1921 C1922 1.397 . S
C1921 C1926 1.363 . S
C1922 H1899 0.950 . S
C1922 C1921 1.397 . S
C1922 C1923 1.334 . S
C1923 H1900 0.950 . S
C1923 C1922 1.334 . S
C1923 C1924 1.287 . S
C1924 C1923 1.287 . S
C1924 C1925 1.524 . S
C1924 H1943 0.913 . S
C1925 H1901 0.950 . S
C1925 C1924 1.524 . S
C1925 C1926 1.415 . S
C1926 H1902 0.950 . S
C1926 C1921 1.363 . S
C1926 C1925 1.415 . S
C1927 H1903 0.951 . S
C1927 C1928 1.366 . S
C1927 C1929 1.388 . S
C1928 C1927 1.366 . S
C1928 C1932 1.385 . S
C1929 H1904 0.951 . S
C1929 C1927 1.388 . S
C1929 C1930 1.366 . S
C1930 C1929 1.366 . S
C1930 C1931 1.414 . S
C1930 C1933 1.499 . S
C1931 H1905 0.950 . S
C1931 C1930 1.414 . S
C1931 C1932 1.374 . S
C1932 H1906 0.950 . S
C1932 C1928 1.385 . S
C1932 C1931 1.374 . S
C1933 C1930 1.499 . S
C1933 C1934 1.373 . S
C1933 C1935 1.389 . S
C1934 H1907 0.950 . S
C1934 C1920 1.377 . S
C1934 C1933 1.373 . S
C1935 C1919 1.377 . S
C1935 C1933 1.389 . S
C1935 C1936 1.524 . S
C1936 C1935 1.524 . S
C1936 C1937 1.397 . S
C1936 C1941 1.363 . S
C1937 H1908 0.950 . S
C1937 C1936 1.397 . S
C1937 C1938 1.334 . S
C1938 H1909 0.950 . S
C1938 C1937 1.334 . S
C1938 C1939 1.287 . S
C1939 C1938 1.287 . S
C1939 C1940 1.524 . S
C1939 H1942 0.999 . S
C1940 H1910 0.950 . S
C1940 C1939 1.524 . S
C1940 C1941 1.415 . S
C1941 H1911 0.950 . S
C1941 C1936 1.363 . S
C1941 C1940 1.415 . S
H1942 C1939 0.999 . S
H1943 C1924 0.913 . S
H1944 C1962 0.951 . S
H1945 C1964 0.951 . S
H1946 C1966 0.950 . S
H1947 C1967 0.950 . S
H1948 C1969 0.950 . S
H1949 C1972 0.950 . S
H1950 C1973 0.950 . S
H1951 C1975 0.950 . S
H1952 C1976 0.950 . S
H1953 C1977 0.951 . S
H1954 C1979 0.951 . S
H1955 C1981 0.950 . S
H1956 C1982 0.950 . S
H1957 C1984 0.950 . S
H1958 C1987 0.950 . S
H1959 C1988 0.950 . S
H1960 C1990 0.950 . S
H1961 C1991 0.950 . S
C1962 H1944 0.951 . S
C1962 C1963 1.366 . S
C1962 C1964 1.388 . S
C1963 C1962 1.366 . S
C1963 C1967 1.385 . S
C1964 H1945 0.951 . S
C1964 C1962 1.388 . S
C1964 C1965 1.366 . S
C1965 C1964 1.366 . S
C1965 C1966 1.414 . S
C1965 C1968 1.499 . S
C1966 H1946 0.950 . S
C1966 C1965 1.414 . S
C1966 C1967 1.374 . S
C1967 H1947 0.950 . S
C1967 C1963 1.385 . S
C1967 C1966 1.374 . S
C1968 C1965 1.499 . S
C1968 C1969 1.373 . S
C1968 C1970 1.389 . S
C1969 H1948 0.950 . S
C1969 C1968 1.373 . S
C1969 C1985 1.377 . S
C1970 C1968 1.389 . S
C1970 C1971 1.524 . S
C1970 C1984 1.377 . S
C1971 C1970 1.524 . S
C1971 C1972 1.397 . S
C1971 C1976 1.363 . S
C1972 H1949 0.950 . S
C1972 C1971 1.397 . S
C1972 C1973 1.334 . S
C1973 H1950 0.950 . S
C1973 C1972 1.334 . S
C1973 C1974 1.287 . S
C1974 C1973 1.287 . S
C1974 C1975 1.524 . S
C1974 H1993 0.913 . S
C1975 H1951 0.950 . S
C1975 C1974 1.524 . S
C1975 C1976 1.415 . S
C1976 H1952 0.950 . S
C1976 C1971 1.363 . S
C1976 C1975 1.415 . S
C1977 H1953 0.951 . S
C1977 C1978 1.366 . S
C1977 C1979 1.388 . S
C1978 C1977 1.366 . S
C1978 C1982 1.385 . S
C1979 H1954 0.951 . S
C1979 C1977 1.388 . S
C1979 C1980 1.366 . S
C1980 C1979 1.366 . S
C1980 C1981 1.414 . S
C1980 C1983 1.499 . S
C1981 H1955 0.950 . S
C1981 C1980 1.414 . S
C1981 C1982 1.374 . S
C1982 H1956 0.950 . S
C1982 C1978 1.385 . S
C1982 C1981 1.374 . S
C1983 C1980 1.499 . S
C1983 C1984 1.373 . S
C1983 C1985 1.389 . S
C1984 H1957 0.950 . S
C1984 C1970 1.377 . S
C1984 C1983 1.373 . S
C1985 C1969 1.377 . S
C1985 C1983 1.389 . S
C1985 C1986 1.524 . S
C1986 C1985 1.524 . S
C1986 C1987 1.397 . S
C1986 C1991 1.363 . S
C1987 H1958 0.950 . S
C1987 C1986 1.397 . S
C1987 C1988 1.334 . S
C1988 H1959 0.950 . S
C1988 C1987 1.334 . S
C1988 C1989 1.287 1_565 S
C1989 C1988 1.287 1_545 S
C1989 C1990 1.524 . S
C1989 H1992 0.999 . S
C1990 H1960 0.950 . S
C1990 C1989 1.524 . S
C1990 C1991 1.415 1_545 S
C1991 H1961 0.950 . S
C1991 C1986 1.363 . S
C1991 C1990 1.415 1_565 S
H1992 C1989 0.999 . S
H1993 C1974 0.913 . S
H1994 C2012 0.951 . S
H1995 C2014 0.951 . S
H1996 C2016 0.950 . S
H1997 C2017 0.950 . S
H1998 C2019 0.950 . S
H1999 C2022 0.950 . S
H2000 C2023 0.950 . S
H2001 C2025 0.950 . S
H2002 C2026 0.950 . S
H2003 C2027 0.951 . S
H2004 C2029 0.951 . S
H2005 C2031 0.950 . S
H2006 C2032 0.950 . S
H2007 C2034 0.950 . S
H2008 C2037 0.950 . S
H2009 C2038 0.950 . S
H2010 C2040 0.950 . S
H2011 C2041 0.950 . S
C2012 H1994 0.951 . S
C2012 C2013 1.366 . S
C2012 C2014 1.388 . S
C2013 C2012 1.366 . S
C2013 C2017 1.385 . S
C2014 H1995 0.951 . S
C2014 C2012 1.388 . S
C2014 C2015 1.366 . S
C2015 C2014 1.366 . S
C2015 C2016 1.414 . S
C2015 C2018 1.499 . S
C2016 H1996 0.950 . S
C2016 C2015 1.414 . S
C2016 C2017 1.374 . S
C2017 H1997 0.950 . S
C2017 C2013 1.385 . S
C2017 C2016 1.374 . S
C2018 C2015 1.499 . S
C2018 C2019 1.373 . S
C2018 C2020 1.389 . S
C2019 H1998 0.950 . S
C2019 C2018 1.373 . S
C2019 C2035 1.377 . S
C2020 C2018 1.389 . S
C2020 C2021 1.524 . S
C2020 C2034 1.377 . S
C2021 C2020 1.524 . S
C2021 C2022 1.397 . S
C2021 C2026 1.363 . S
C2022 H1999 0.950 . S
C2022 C2021 1.397 . S
C2022 C2023 1.334 . S
C2023 H2000 0.950 . S
C2023 C2022 1.334 . S
C2023 C2024 1.287 . S
C2024 C2023 1.287 . S
C2024 C2025 1.524 . S
C2024 H2043 0.913 . S
C2025 H2001 0.950 . S
C2025 C2024 1.524 . S
C2025 C2026 1.415 . S
C2026 H2002 0.950 . S
C2026 C2021 1.363 . S
C2026 C2025 1.415 . S
C2027 H2003 0.951 . S
C2027 C2028 1.366 . S
C2027 C2029 1.388 . S
C2028 C2027 1.366 . S
C2028 C2032 1.385 . S
C2029 H2004 0.951 . S
C2029 C2027 1.388 . S
C2029 C2030 1.366 . S
C2030 C2029 1.366 . S
C2030 C2031 1.414 . S
C2030 C2033 1.499 . S
C2031 H2005 0.950 . S
C2031 C2030 1.414 . S
C2031 C2032 1.374 . S
C2032 H2006 0.950 . S
C2032 C2028 1.385 . S
C2032 C2031 1.374 . S
C2033 C2030 1.499 . S
C2033 C2034 1.373 . S
C2033 C2035 1.389 . S
C2034 H2007 0.950 . S
C2034 C2020 1.377 . S
C2034 C2033 1.373 . S
C2035 C2019 1.377 . S
C2035 C2033 1.389 . S
C2035 C2036 1.524 . S
C2036 C2035 1.524 . S
C2036 C2037 1.397 . S
C2036 C2041 1.363 . S
C2037 H2008 0.950 . S
C2037 C2036 1.397 . S
C2037 C2038 1.334 . S
C2038 H2009 0.950 . S
C2038 C2037 1.334 . S
C2038 C2039 1.287 . S
C2039 C2038 1.287 . S
C2039 C2040 1.524 . S
C2039 H2042 0.999 . S
C2040 H2010 0.950 . S
C2040 C2039 1.524 . S
C2040 C2041 1.415 . S
C2041 H2011 0.950 . S
C2041 C2036 1.363 . S
C2041 C2040 1.415 . S
H2042 C2039 0.999 . S
H2043 C2024 0.913 . S
H2044 C2062 0.951 . S
H2045 C2064 0.951 . S
H2046 C2066 0.950 . S
H2047 C2067 0.950 . S
H2048 C2069 0.950 . S
H2049 C2072 0.950 . S
H2050 C2073 0.950 . S
H2051 C2075 0.950 . S
H2052 C2076 0.950 . S
H2053 C2077 0.951 . S
H2054 C2079 0.951 . S
H2055 C2081 0.950 . S
H2056 C2082 0.950 . S
H2057 C2084 0.950 . S
H2058 C2087 0.950 . S
H2059 C2088 0.950 . S
H2060 C2090 0.950 . S
H2061 C2091 0.950 . S
C2062 H2044 0.951 . S
C2062 C2063 1.366 . S
C2062 C2064 1.388 . S
C2063 C2062 1.366 . S
C2063 C2067 1.385 . S
C2064 H2045 0.951 . S
C2064 C2062 1.388 . S
C2064 C2065 1.366 . S
C2065 C2064 1.366 . S
C2065 C2066 1.414 . S
C2065 C2068 1.499 . S
C2066 H2046 0.950 . S
C2066 C2065 1.414 . S
C2066 C2067 1.374 . S
C2067 H2047 0.950 . S
C2067 C2063 1.385 . S
C2067 C2066 1.374 . S
C2068 C2065 1.499 . S
C2068 C2069 1.373 . S
C2068 C2070 1.389 . S
C2069 H2048 0.950 . S
C2069 C2068 1.373 . S
C2069 C2085 1.377 . S
C2070 C2068 1.389 . S
C2070 C2071 1.524 . S
C2070 C2084 1.377 . S
C2071 C2070 1.524 . S
C2071 C2072 1.397 . S
C2071 C2076 1.363 . S
C2072 H2049 0.950 . S
C2072 C2071 1.397 . S
C2072 C2073 1.334 . S
C2073 H2050 0.950 . S
C2073 C2072 1.334 . S
C2073 C2074 1.287 . S
C2074 C2073 1.287 . S
C2074 C2075 1.524 . S
C2074 H2093 0.913 . S
C2075 H2051 0.950 . S
C2075 C2074 1.524 . S
C2075 C2076 1.415 . S
C2076 H2052 0.950 . S
C2076 C2071 1.363 . S
C2076 C2075 1.415 . S
C2077 H2053 0.951 . S
C2077 C2078 1.366 . S
C2077 C2079 1.388 . S
C2078 C2077 1.366 . S
C2078 C2082 1.385 . S
C2079 H2054 0.951 . S
C2079 C2077 1.388 . S
C2079 C2080 1.366 . S
C2080 C2079 1.366 . S
C2080 C2081 1.414 . S
C2080 C2083 1.499 . S
C2081 H2055 0.950 . S
C2081 C2080 1.414 . S
C2081 C2082 1.374 . S
C2082 H2056 0.950 . S
C2082 C2078 1.385 . S
C2082 C2081 1.374 . S
C2083 C2080 1.499 . S
C2083 C2084 1.373 . S
C2083 C2085 1.389 . S
C2084 H2057 0.950 . S
C2084 C2070 1.377 . S
C2084 C2083 1.373 . S
C2085 C2069 1.377 . S
C2085 C2083 1.389 . S
C2085 C2086 1.524 . S
C2086 C2085 1.524 . S
C2086 C2087 1.397 . S
C2086 C2091 1.363 . S
C2087 H2058 0.950 . S
C2087 C2086 1.397 . S
C2087 C2088 1.334 . S
C2088 H2059 0.950 . S
C2088 C2087 1.334 . S
C2088 C2089 1.287 . S
C2089 C2088 1.287 . S
C2089 C2090 1.524 . S
C2089 H2092 0.999 . S
C2090 H2060 0.950 . S
C2090 C2089 1.524 . S
C2090 C2091 1.415 . S
C2091 H2061 0.950 . S
C2091 C2086 1.363 . S
C2091 C2090 1.415 . S
H2092 C2089 0.999 . S
H2093 C2074 0.913 . S
H2094 C2112 0.951 . S
H2095 C2114 0.951 . S
H2096 C2116 0.950 . S
H2097 C2117 0.950 . S
H2098 C2119 0.950 . S
H2099 C2122 0.950 . S
H2100 C2123 0.950 . S
H2101 C2125 0.950 . S
H2102 C2126 0.950 . S
H2103 C2127 0.951 . S
H2104 C2129 0.951 . S
H2105 C2131 0.950 . S
H2106 C2132 0.950 . S
H2107 C2134 0.950 . S
H2108 C2137 0.950 . S
H2109 C2138 0.950 1_455 S
H2110 C2140 0.950 . S
H2111 C2141 0.950 . S
C2112 H2094 0.951 . S
C2112 C2113 1.366 . S
C2112 C2114 1.388 . S
C2113 C2112 1.366 . S
C2113 C2117 1.385 . S
C2114 H2095 0.951 . S
C2114 C2112 1.388 . S
C2114 C2115 1.366 . S
C2115 C2114 1.366 . S
C2115 C2116 1.414 . S
C2115 C2118 1.499 . S
C2116 H2096 0.950 . S
C2116 C2115 1.414 . S
C2116 C2117 1.374 . S
C2117 H2097 0.950 . S
C2117 C2113 1.385 . S
C2117 C2116 1.374 . S
C2118 C2115 1.499 . S
C2118 C2119 1.373 . S
C2118 C2120 1.389 . S
C2119 H2098 0.950 . S
C2119 C2118 1.373 . S
C2119 C2135 1.377 . S
C2120 C2118 1.389 . S
C2120 C2121 1.524 . S
C2120 C2134 1.377 . S
C2121 C2120 1.524 . S
C2121 C2122 1.397 . S
C2121 C2126 1.363 . S
C2122 H2099 0.950 . S
C2122 C2121 1.397 . S
C2122 C2123 1.334 . S
C2123 H2100 0.950 . S
C2123 C2122 1.334 . S
C2123 C2124 1.287 . S
C2124 C2123 1.287 . S
C2124 C2125 1.524 . S
C2124 H2143 0.913 . S
C2125 H2101 0.950 . S
C2125 C2124 1.524 . S
C2125 C2126 1.415 . S
C2126 H2102 0.950 . S
C2126 C2121 1.363 . S
C2126 C2125 1.415 . S
C2127 H2103 0.951 . S
C2127 C2128 1.366 . S
C2127 C2129 1.388 . S
C2128 C2127 1.366 . S
C2128 C2132 1.385 . S
C2129 H2104 0.951 . S
C2129 C2127 1.388 . S
C2129 C2130 1.366 . S
C2130 C2129 1.366 . S
C2130 C2131 1.414 . S
C2130 C2133 1.499 . S
C2131 H2105 0.950 . S
C2131 C2130 1.414 . S
C2131 C2132 1.374 . S
C2132 H2106 0.950 . S
C2132 C2128 1.385 . S
C2132 C2131 1.374 . S
C2133 C2130 1.499 . S
C2133 C2134 1.373 . S
C2133 C2135 1.389 . S
C2134 H2107 0.950 . S
C2134 C2120 1.377 . S
C2134 C2133 1.373 . S
C2135 C2119 1.377 . S
C2135 C2133 1.389 . S
C2135 C2136 1.524 . S
C2136 C2135 1.524 . S
C2136 C2137 1.397 . S
C2136 C2141 1.363 . S
C2137 H2108 0.950 . S
C2137 C2136 1.397 . S
C2137 C2138 1.334 . S
C2138 H2109 0.950 1_655 S
C2138 C2137 1.334 . S
C2138 C2139 1.287 1_655 S
C2139 C2138 1.287 1_455 S
C2139 C2140 1.524 1_455 S
C2139 H2142 0.999 . S
C2140 H2110 0.950 . S
C2140 C2139 1.524 1_655 S
C2140 C2141 1.415 . S
C2141 H2111 0.950 . S
C2141 C2136 1.363 . S
C2141 C2140 1.415 . S
H2142 C2139 0.999 . S
H2143 C2124 0.913 . S
H2144 C2162 0.951 . S
H2145 C2164 0.951 . S
H2146 C2166 0.950 . S
H2147 C2167 0.950 . S
H2148 C2169 0.950 . S
H2149 C2172 0.950 . S
H2150 C2173 0.950 . S
H2151 C2175 0.950 . S
H2152 C2176 0.950 . S
H2153 C2177 0.951 . S
H2154 C2179 0.951 . S
H2155 C2181 0.950 . S
H2156 C2182 0.950 . S
H2157 C2184 0.950 . S
H2158 C2187 0.950 . S
H2159 C2188 0.950 . S
H2160 C2190 0.950 . S
H2161 C2191 0.950 . S
C2162 H2144 0.951 . S
C2162 C2163 1.366 . S
C2162 C2164 1.388 . S
C2163 C2162 1.366 . S
C2163 C2167 1.385 . S
C2164 H2145 0.951 . S
C2164 C2162 1.388 . S
C2164 C2165 1.405 . S
C2165 C2164 1.405 . S
C2165 C2166 1.405 1_545 S
C2165 C2168 1.469 1_545 S
C2166 H2146 0.950 . S
C2166 C2165 1.405 1_565 S
C2166 C2167 1.374 1_565 S
C2167 H2147 0.950 . S
C2167 C2163 1.385 . S
C2167 C2166 1.374 1_545 S
C2168 C2165 1.469 1_565 S
C2168 C2169 1.373 . S
C2168 C2170 1.389 . S
C2169 H2148 0.950 . S
C2169 C2168 1.373 . S
C2169 C2185 1.377 . S
C2170 C2168 1.389 . S
C2170 C2171 1.524 . S
C2170 C2184 1.377 . S
C2171 C2170 1.524 . S
C2171 C2172 1.397 . S
C2171 C2176 1.363 1_565 S
C2172 H2149 0.950 . S
C2172 C2171 1.397 . S
C2172 C2173 1.334 1_565 S
C2173 H2150 0.950 . S
C2173 C2172 1.334 1_545 S
C2173 C2174 1.287 . S
C2174 C2173 1.287 . S
C2174 C2175 1.524 . S
C2174 H2193 0.913 . S
C2175 H2151 0.950 . S
C2175 C2174 1.524 . S
C2175 C2176 1.415 . S
C2176 H2152 0.950 . S
C2176 C2171 1.363 1_545 S
C2176 C2175 1.415 . S
C2177 H2153 0.951 . S
C2177 C2178 1.366 . S
C2177 C2179 1.388 . S
C2178 C2177 1.366 . S
C2178 C2182 1.385 . S
C2179 H2154 0.951 . S
C2179 C2177 1.388 . S
C2179 C2180 1.366 . S
C2180 C2179 1.366 . S
C2180 C2181 1.414 . S
C2180 C2183 1.499 . S
C2181 H2155 0.950 . S
C2181 C2180 1.414 . S
C2181 C2182 1.374 . S
C2182 H2156 0.950 . S
C2182 C2178 1.385 . S
C2182 C2181 1.374 . S
C2183 C2180 1.499 . S
C2183 C2184 1.373 . S
C2183 C2185 1.389 . S
C2184 H2157 0.950 . S
C2184 C2170 1.377 . S
C2184 C2183 1.373 . S
C2185 C2169 1.377 . S
C2185 C2183 1.389 . S
C2185 C2186 1.524 . S
C2186 C2185 1.524 . S
C2186 C2187 1.397 . S
C2186 C2191 1.363 . S
C2187 H2158 0.950 . S
C2187 C2186 1.397 . S
C2187 C2188 1.334 . S
C2188 H2159 0.950 . S
C2188 C2187 1.334 . S
C2188 C2189 1.287 . S
C2189 C2188 1.287 . S
C2189 C2190 1.524 . S
C2189 H2192 0.999 . S
C2190 H2160 0.950 . S
C2190 C2189 1.524 . S
C2190 C2191 1.415 . S
C2191 H2161 0.950 . S
C2191 C2186 1.363 . S
C2191 C2190 1.415 . S
H2192 C2189 0.999 . S
H2193 C2174 0.913 . S
H2194 C2212 0.951 . S
H2195 C2214 0.951 . S
H2196 C2216 0.950 . S
H2197 C2217 0.950 . S
H2198 C2219 0.950 . S
H2199 C2222 0.950 . S
H2200 C2223 0.950 . S
H2201 C2225 0.950 . S
H2202 C2226 0.950 . S
H2203 C2227 0.951 . S
H2204 C2229 0.951 . S
H2205 C2231 0.950 . S
H2206 C2232 0.950 . S
H2207 C2234 0.950 . S
H2208 C2237 0.950 . S
H2209 C2238 0.950 . S
H2210 C2240 0.950 . S
H2211 C2241 0.950 . S
C2212 H2194 0.951 . S
C2212 C2213 1.366 . S
C2212 C2214 1.388 . S
C2213 C2212 1.366 . S
C2213 C2217 1.385 . S
C2214 H2195 0.951 . S
C2214 C2212 1.388 . S
C2214 C2215 1.366 . S
C2215 C2214 1.366 . S
C2215 C2216 1.414 . S
C2215 C2218 1.499 . S
C2216 H2196 0.950 . S
C2216 C2215 1.414 . S
C2216 C2217 1.374 . S
C2217 H2197 0.950 . S
C2217 C2213 1.385 . S
C2217 C2216 1.374 . S
C2218 C2215 1.499 . S
C2218 C2219 1.373 . S
C2218 C2220 1.389 . S
C2219 H2198 0.950 . S
C2219 C2218 1.373 . S
C2219 C2235 1.377 . S
C2220 C2218 1.389 . S
C2220 C2221 1.524 . S
C2220 C2234 1.377 . S
C2221 C2220 1.524 . S
C2221 C2222 1.397 . S
C2221 C2226 1.363 . S
C2222 H2199 0.950 . S
C2222 C2221 1.397 . S
C2222 C2223 1.334 . S
C2223 H2200 0.950 . S
C2223 C2222 1.334 . S
C2223 C2224 1.287 . S
C2224 C2223 1.287 . S
C2224 C2225 1.524 . S
C2224 H2243 0.913 . S
C2225 H2201 0.950 . S
C2225 C2224 1.524 . S
C2225 C2226 1.415 . S
C2226 H2202 0.950 . S
C2226 C2221 1.363 . S
C2226 C2225 1.415 . S
C2227 H2203 0.951 . S
C2227 C2228 1.366 . S
C2227 C2229 1.388 . S
C2228 C2227 1.366 . S
C2228 C2232 1.385 . S
C2229 H2204 0.951 . S
C2229 C2227 1.388 . S
C2229 C2230 1.366 . S
C2230 C2229 1.366 . S
C2230 C2231 1.414 . S
C2230 C2233 1.499 . S
C2231 H2205 0.950 . S
C2231 C2230 1.414 . S
C2231 C2232 1.374 . S
C2232 H2206 0.950 . S
C2232 C2228 1.385 . S
C2232 C2231 1.374 . S
C2233 C2230 1.499 . S
C2233 C2234 1.373 . S
C2233 C2235 1.389 . S
C2234 H2207 0.950 . S
C2234 C2220 1.377 . S
C2234 C2233 1.373 . S
C2235 C2219 1.377 . S
C2235 C2233 1.389 . S
C2235 C2236 1.524 . S
C2236 C2235 1.524 . S
C2236 C2237 1.397 . S
C2236 C2241 1.363 . S
C2237 H2208 0.950 . S
C2237 C2236 1.397 . S
C2237 C2238 1.334 . S
C2238 H2209 0.950 . S
C2238 C2237 1.334 . S
C2238 C2239 1.287 . S
C2239 C2238 1.287 . S
C2239 C2240 1.524 . S
C2239 H2242 0.999 . S
C2240 H2210 0.950 . S
C2240 C2239 1.524 . S
C2240 C2241 1.415 . S
C2241 H2211 0.950 . S
C2241 C2236 1.363 . S
C2241 C2240 1.415 . S
H2242 C2239 0.999 . S
H2243 C2224 0.913 . S
H2244 C2262 0.951 . S
H2245 C2264 0.951 . S
H2246 C2266 0.950 . S
H2247 C2267 0.950 . S
H2248 C2269 0.950 . S
H2249 C2272 0.950 . S
H2250 C2273 0.950 . S
H2251 C2275 0.950 . S
H2252 C2276 0.950 . S
H2253 C2277 0.951 . S
H2254 C2279 0.951 . S
H2255 C2281 0.950 . S
H2256 C2282 0.950 . S
H2257 C2284 0.950 . S
H2258 C2287 0.950 . S
H2259 C2288 0.950 . S
H2260 C2290 0.950 . S
H2261 C2291 0.950 . S
C2262 H2244 0.951 . S
C2262 C2263 1.366 . S
C2262 C2264 1.388 . S
C2263 C2262 1.366 . S
C2263 C2267 1.385 . S
C2264 H2245 0.951 . S
C2264 C2262 1.388 . S
C2264 C2265 1.366 . S
C2265 C2264 1.366 . S
C2265 C2266 1.414 . S
C2265 C2268 1.499 . S
C2266 H2246 0.950 . S
C2266 C2265 1.414 . S
C2266 C2267 1.374 . S
C2267 H2247 0.950 . S
C2267 C2263 1.385 . S
C2267 C2266 1.374 . S
C2268 C2265 1.499 . S
C2268 C2269 1.373 . S
C2268 C2270 1.389 . S
C2269 H2248 0.950 . S
C2269 C2268 1.373 . S
C2269 C2285 1.377 . S
C2270 C2268 1.389 . S
C2270 C2271 1.524 . S
C2270 C2284 1.377 . S
C2271 C2270 1.524 . S
C2271 C2272 1.397 . S
C2271 C2276 1.363 . S
C2272 H2249 0.950 . S
C2272 C2271 1.397 . S
C2272 C2273 1.334 . S
C2273 H2250 0.950 . S
C2273 C2272 1.334 . S
C2273 C2274 1.287 . S
C2274 C2273 1.287 . S
C2274 C2275 1.524 . S
C2274 H2293 0.913 . S
C2275 H2251 0.950 . S
C2275 C2274 1.524 . S
C2275 C2276 1.415 . S
C2276 H2252 0.950 . S
C2276 C2271 1.363 . S
C2276 C2275 1.415 . S
C2277 H2253 0.951 . S
C2277 C2278 1.366 . S
C2277 C2279 1.388 . S
C2278 C2277 1.366 . S
C2278 C2282 1.385 . S
C2279 H2254 0.951 . S
C2279 C2277 1.388 . S
C2279 C2280 1.366 . S
C2280 C2279 1.366 . S
C2280 C2281 1.414 1_655 S
C2280 C2283 1.499 1_655 S
C2281 H2255 0.950 . S
C2281 C2280 1.414 1_455 S
C2281 C2282 1.374 1_455 S
C2282 H2256 0.950 . S
C2282 C2278 1.385 . S
C2282 C2281 1.374 1_655 S
C2283 C2280 1.499 1_455 S
C2283 C2284 1.373 . S
C2283 C2285 1.389 . S
C2284 H2257 0.950 . S
C2284 C2270 1.377 . S
C2284 C2283 1.373 . S
C2285 C2269 1.377 . S
C2285 C2283 1.389 . S
C2285 C2286 1.524 1_455 S
C2286 C2285 1.524 1_655 S
C2286 C2287 1.397 . S
C2286 C2291 1.363 . S
C2287 H2258 0.950 . S
C2287 C2286 1.397 . S
C2287 C2288 1.334 . S
C2288 H2259 0.950 . S
C2288 C2287 1.334 . S
C2288 C2289 1.287 . S
C2289 C2288 1.287 . S
C2289 C2290 1.524 . S
C2289 H2292 0.999 . S
C2290 H2260 0.950 . S
C2290 C2289 1.524 . S
C2290 C2291 1.415 . S
C2291 H2261 0.950 . S
C2291 C2286 1.363 . S
C2291 C2290 1.415 . S
H2292 C2289 0.999 . S
H2293 C2274 0.913 . S
H2294 C2312 0.951 . S
H2295 C2314 0.953 1_545 S
H2296 C2316 0.950 . S
H2297 C2317 0.950 . S
H2298 C2319 0.950 1_565 S
H2299 C2322 0.950 . S
H2300 C2323 0.950 . S
H2301 C2325 0.950 . S
H2302 C2326 0.950 . S
H2303 C2327 0.951 . S
H2304 C2329 0.951 . S
H2305 C2331 0.924 1_655 S
H2306 C2332 0.950 . S
H2307 C2334 0.950 . S
H2308 C2337 0.950 . S
H2309 C2338 0.950 . S
H2310 C2340 0.950 . S
H2311 C2341 0.950 1_565 S
C2312 H2294 0.951 . S
C2312 C2313 1.366 . S
C2312 C2314 1.386 . S
C2313 C2312 1.366 . S
C2313 C2317 1.385 . S
C2314 H2295 0.953 1_565 S
C2314 C2312 1.386 . S
C2314 C2315 1.366 . S
C2315 C2314 1.366 . S
C2315 C2316 1.421 . S
C2315 C2318 1.492 1_565 S
C2316 H2296 0.950 . S
C2316 C2315 1.421 . S
C2316 C2317 1.374 . S
C2317 H2297 0.950 . S
C2317 C2313 1.385 . S
C2317 C2316 1.374 . S
C2318 C2315 1.492 1_545 S
C2318 C2319 1.373 . S
C2318 C2320 1.389 . S
C2319 H2298 0.950 1_545 S
C2319 C2318 1.373 . S
C2319 C2335 1.377 . S
C2320 C2318 1.389 . S
C2320 C2321 1.524 . S
C2320 C2334 1.377 . S
C2321 C2320 1.524 . S
C2321 C2322 1.397 . S
C2321 C2326 1.363 . S
C2322 H2299 0.950 . S
C2322 C2321 1.397 . S
C2322 C2323 1.334 . S
C2323 H2300 0.950 . S
C2323 C2322 1.334 . S
C2323 C2324 1.287 . S
C2324 C2323 1.287 . S
C2324 C2325 1.524 . S
C2324 H2343 0.913 . S
C2325 H2301 0.950 . S
C2325 C2324 1.524 . S
C2325 C2326 1.415 . S
C2326 H2302 0.950 . S
C2326 C2321 1.363 . S
C2326 C2325 1.415 . S
C2327 H2303 0.951 . S
C2327 C2328 1.366 . S
C2327 C2329 1.388 . S
C2328 C2327 1.366 . S
C2328 C2332 1.385 . S
C2329 H2304 0.951 . S
C2329 C2327 1.388 . S
C2329 C2330 1.366 . S
C2330 C2329 1.366 . S
C2330 C2331 1.416 . S
C2330 C2333 1.499 1_455 S
C2331 H2305 0.924 1_455 S
C2331 C2330 1.416 . S
C2331 C2332 1.400 . S
C2332 H2306 0.950 . S
C2332 C2328 1.385 . S
C2332 C2331 1.400 . S
C2333 C2330 1.499 1_655 S
C2333 C2334 1.373 . S
C2333 C2335 1.389 . S
C2334 H2307 0.950 . S
C2334 C2320 1.377 . S
C2334 C2333 1.373 . S
C2335 C2319 1.377 . S
C2335 C2333 1.389 . S
C2335 C2336 1.524 1_655 S
C2336 C2335 1.524 1_455 S
C2336 C2337 1.397 . S
C2336 C2341 1.363 . S
C2337 H2308 0.950 . S
C2337 C2336 1.397 . S
C2337 C2338 1.334 . S
C2338 H2309 0.950 . S
C2338 C2337 1.334 . S
C2338 C2339 1.287 . S
C2339 C2338 1.287 . S
C2339 C2340 1.524 1_545 S
C2339 H2342 0.999 1_545 S
C2340 H2310 0.950 . S
C2340 C2339 1.524 1_565 S
C2340 C2341 1.415 1_565 S
C2341 H2311 0.950 1_545 S
C2341 C2336 1.363 . S
C2341 C2340 1.415 1_545 S
H2342 C2339 0.999 1_565 S
H2343 C2324 0.913 . S
H2344 C2362 0.951 . S
H2345 C2364 0.951 . S
H2346 C2366 0.950 . S
H2347 C2367 0.950 . S
H2348 C2369 0.950 . S
H2349 C2372 0.950 . S
H2350 C2373 0.950 . S
H2351 C2375 0.950 . S
H2352 C2376 0.950 . S
H2353 C2377 0.951 . S
H2354 C2379 0.951 . S
H2355 C2381 0.950 . S
H2356 C2382 0.950 . S
H2357 C2384 0.950 . S
H2358 C2387 0.950 . S
H2359 C2388 0.950 . S
H2360 C2390 0.950 . S
H2361 C2391 0.950 . S
C2362 H2344 0.951 . S
C2362 C2363 1.366 . S
C2362 C2364 1.388 . S
C2363 C2362 1.366 . S
C2363 C2367 1.385 . S
C2364 H2345 0.951 . S
C2364 C2362 1.388 . S
C2364 C2365 1.366 . S
C2365 C2364 1.366 . S
C2365 C2366 1.414 . S
C2365 C2368 1.499 . S
C2366 H2346 0.950 . S
C2366 C2365 1.414 . S
C2366 C2367 1.374 . S
C2367 H2347 0.950 . S
C2367 C2363 1.385 . S
C2367 C2366 1.374 . S
C2368 C2365 1.499 . S
C2368 C2369 1.373 . S
C2368 C2370 1.389 . S
C2369 H2348 0.950 . S
C2369 C2368 1.373 . S
C2369 C2385 1.377 . S
C2370 C2368 1.389 . S
C2370 C2371 1.524 . S
C2370 C2384 1.377 . S
C2371 C2370 1.524 . S
C2371 C2372 1.397 . S
C2371 C2376 1.363 . S
C2372 H2349 0.950 . S
C2372 C2371 1.397 . S
C2372 C2373 1.334 . S
C2373 H2350 0.950 . S
C2373 C2372 1.334 . S
C2373 C2374 1.287 . S
C2374 C2373 1.287 . S
C2374 C2375 1.524 . S
C2374 H2393 0.913 . S
C2375 H2351 0.950 . S
C2375 C2374 1.524 . S
C2375 C2376 1.415 . S
C2376 H2352 0.950 . S
C2376 C2371 1.363 . S
C2376 C2375 1.415 . S
C2377 H2353 0.951 . S
C2377 C2378 1.366 . S
C2377 C2379 1.388 . S
C2378 C2377 1.366 . S
C2378 C2382 1.385 . S
C2379 H2354 0.951 . S
C2379 C2377 1.388 . S
C2379 C2380 1.366 . S
C2380 C2379 1.366 . S
C2380 C2381 1.414 . S
C2380 C2383 1.499 . S
C2381 H2355 0.950 . S
C2381 C2380 1.414 . S
C2381 C2382 1.374 . S
C2382 H2356 0.950 . S
C2382 C2378 1.385 . S
C2382 C2381 1.374 . S
C2383 C2380 1.499 . S
C2383 C2384 1.373 . S
C2383 C2385 1.389 . S
C2384 H2357 0.950 . S
C2384 C2370 1.377 . S
C2384 C2383 1.373 . S
C2385 C2369 1.377 . S
C2385 C2383 1.389 . S
C2385 C2386 1.524 . S
C2386 C2385 1.524 . S
C2386 C2387 1.397 . S
C2386 C2391 1.363 . S
C2387 H2358 0.950 . S
C2387 C2386 1.397 . S
C2387 C2388 1.334 . S
C2388 H2359 0.950 . S
C2388 C2387 1.334 . S
C2388 C2389 1.287 . S
C2389 C2388 1.287 . S
C2389 C2390 1.524 . S
C2389 H2392 0.999 . S
C2390 H2360 0.950 . S
C2390 C2389 1.524 . S
C2390 C2391 1.415 . S
C2391 H2361 0.950 . S
C2391 C2386 1.363 . S
C2391 C2390 1.415 . S
H2392 C2389 0.999 . S
H2393 C2374 0.913 . S
H2394 C2412 0.951 . S
H2395 C2414 0.951 . S
H2396 C2416 0.950 1_655 S
H2397 C2417 0.950 . S
H2398 C2419 0.950 . S
H2399 C2422 0.950 . S
H2400 C2423 0.950 . S
H2401 C2425 0.950 . S
H2402 C2426 0.949 . S
H2403 C2427 0.951 . S
H2404 C2429 0.951 . S
H2405 C2431 0.950 . S
H2406 C2432 0.950 . S
H2407 C2434 0.950 . S
H2408 C2437 0.950 . S
H2409 C2438 0.950 . S
H2410 C2440 0.950 . S
H2411 C2441 0.950 . S
C2412 H2394 0.951 . S
C2412 C2413 1.366 . S
C2412 C2414 1.388 . S
C2413 C2412 1.366 . S
C2413 C2417 1.385 . S
C2414 H2395 0.951 . S
C2414 C2412 1.388 . S
C2414 C2415 1.366 . S
C2415 C2414 1.366 . S
C2415 C2416 1.414 . S
C2415 C2418 1.499 1_455 S
C2416 H2396 0.950 1_455 S
C2416 C2415 1.414 . S
C2416 C2417 1.374 . S
C2417 H2397 0.950 . S
C2417 C2413 1.385 . S
C2417 C2416 1.374 . S
C2418 C2415 1.499 1_655 S
C2418 C2419 1.373 . S
C2418 C2420 1.389 . S
C2419 H2398 0.950 . S
C2419 C2418 1.373 . S
C2419 C2435 1.377 . S
C2420 C2418 1.389 . S
C2420 C2421 1.524 1_655 S
C2420 C2434 1.377 . S
C2421 C2420 1.524 1_455 S
C2421 C2422 1.397 . S
C2421 C2426 1.363 . S
C2422 H2399 0.950 . S
C2422 C2421 1.397 . S
C2422 C2423 1.334 . S
C2423 H2400 0.950 . S
C2423 C2422 1.334 . S
C2423 C2424 1.287 . S
C2424 C2423 1.287 . S
C2424 C2425 1.524 . S
C2424 H2443 0.913 . S
C2425 H2401 0.950 . S
C2425 C2424 1.524 . S
C2425 C2426 1.415 . S
C2426 H2402 0.949 . S
C2426 C2421 1.363 . S
C2426 C2425 1.415 . S
C2427 H2403 0.951 . S
C2427 C2428 1.366 . S
C2427 C2429 1.388 . S
C2428 C2427 1.366 . S
C2428 C2432 1.385 . S
C2429 H2404 0.951 . S
C2429 C2427 1.388 . S
C2429 C2430 1.366 . S
C2430 C2429 1.366 . S
C2430 C2431 1.414 . S
C2430 C2433 1.499 . S
C2431 H2405 0.950 . S
C2431 C2430 1.414 . S
C2431 C2432 1.374 . S
C2432 H2406 0.950 . S
C2432 C2428 1.385 . S
C2432 C2431 1.374 . S
C2433 C2430 1.499 . S
C2433 C2434 1.373 . S
C2433 C2435 1.389 . S
C2434 H2407 0.950 . S
C2434 C2420 1.377 . S
C2434 C2433 1.373 . S
C2435 C2419 1.377 . S
C2435 C2433 1.389 . S
C2435 C2436 1.524 . S
C2436 C2435 1.524 . S
C2436 C2437 1.397 . S
C2436 C2441 1.363 . S
C2437 H2408 0.950 . S
C2437 C2436 1.397 . S
C2437 C2438 1.334 . S
C2438 H2409 0.950 . S
C2438 C2437 1.334 . S
C2438 C2439 1.287 . S
C2439 C2438 1.287 . S
C2439 C2440 1.524 . S
C2439 H2442 0.999 . S
C2440 H2410 0.950 . S
C2440 C2439 1.524 . S
C2440 C2441 1.415 . S
C2441 H2411 0.950 . S
C2441 C2436 1.363 . S
C2441 C2440 1.415 . S
H2442 C2439 0.999 . S
H2443 C2424 0.913 . S
H2444 C2462 0.951 . S
H2445 C2464 0.951 . S
H2446 C2466 0.950 . S
H2447 C2467 0.950 . S
H2448 C2469 0.950 1_655 S
H2449 C2472 0.950 . S
H2450 C2473 0.950 . S
H2451 C2475 0.950 . S
H2452 C2476 0.950 . S
H2453 C2477 0.951 . S
H2454 C2479 0.951 . S
H2455 C2481 0.950 . S
H2456 C2482 0.950 . S
H2457 C2484 0.950 . S
H2458 C2487 0.950 . S
H2459 C2488 0.950 . S
H2460 C2490 0.950 . S
H2461 C2491 0.950 1_655 S
C2462 H2444 0.951 . S
C2462 C2463 1.366 . S
C2462 C2464 1.388 1_655 S
C2463 C2462 1.366 . S
C2463 C2467 1.385 . S
C2464 H2445 0.951 . S
C2464 C2462 1.388 1_455 S
C2464 C2465 1.361 1_455 S
C2465 C2464 1.361 1_655 S
C2465 C2466 1.440 . S
C2465 C2468 1.479 1_655 S
C2466 H2446 0.950 . S
C2466 C2465 1.440 . S
C2466 C2467 1.374 . S
C2467 H2447 0.950 . S
C2467 C2463 1.385 . S
C2467 C2466 1.374 . S
C2468 C2465 1.479 1_455 S
C2468 C2469 1.373 . S
C2468 C2470 1.389 . S
C2469 H2448 0.950 1_455 S
C2469 C2468 1.373 . S
C2469 C2485 1.377 . S
C2470 C2468 1.389 . S
C2470 C2471 1.524 . S
C2470 C2484 1.377 . S
C2471 C2470 1.524 . S
C2471 C2472 1.397 . S
C2471 C2476 1.363 . S
C2472 H2449 0.950 . S
C2472 C2471 1.397 . S
C2472 C2473 1.334 . S
C2473 H2450 0.950 . S
C2473 C2472 1.334 . S
C2473 C2474 1.287 . S
C2474 C2473 1.287 . S
C2474 C2475 1.524 . S
C2474 H2493 0.913 . S
C2475 H2451 0.950 . S
C2475 C2474 1.524 . S
C2475 C2476 1.415 . S
C2476 H2452 0.950 . S
C2476 C2471 1.363 . S
C2476 C2475 1.415 . S
C2477 H2453 0.951 . S
C2477 C2478 1.366 . S
C2477 C2479 1.388 . S
C2478 C2477 1.366 . S
C2478 C2482 1.385 . S
C2479 H2454 0.951 . S
C2479 C2477 1.388 . S
C2479 C2480 1.366 . S
C2480 C2479 1.366 . S
C2480 C2481 1.414 1_545 S
C2480 C2483 1.499 1_545 S
C2481 H2455 0.950 . S
C2481 C2480 1.414 1_565 S
C2481 C2482 1.374 1_565 S
C2482 H2456 0.950 . S
C2482 C2478 1.385 . S
C2482 C2481 1.374 1_545 S
C2483 C2480 1.499 1_565 S
C2483 C2484 1.373 . S
C2483 C2485 1.389 . S
C2484 H2457 0.950 . S
C2484 C2470 1.377 . S
C2484 C2483 1.373 . S
C2485 C2469 1.377 . S
C2485 C2483 1.389 . S
C2485 C2486 1.524 1_565 S
C2486 C2485 1.524 1_545 S
C2486 C2487 1.397 . S
C2486 C2491 1.363 . S
C2487 H2458 0.950 . S
C2487 C2486 1.397 . S
C2487 C2488 1.334 . S
C2488 H2459 0.950 . S
C2488 C2487 1.334 . S
C2488 C2489 1.287 . S
C2489 C2488 1.287 . S
C2489 C2490 1.524 1_455 S
C2489 H2492 0.999 . S
C2490 H2460 0.950 . S
C2490 C2489 1.524 1_655 S
C2490 C2491 1.415 1_655 S
C2491 H2461 0.950 1_455 S
C2491 C2486 1.363 . S
C2491 C2490 1.415 1_455 S
H2492 C2489 0.999 . S
H2493 C2474 0.913 . S
H2494 C2512 0.951 . S
H2495 C2514 0.951 . S
H2496 C2516 0.950 . S
H2497 C2517 0.950 . S
H2498 C2519 0.950 . S
H2499 C2522 0.950 1_545 S
H2500 C2523 0.950 . S
H2501 C2525 0.950 . S
H2502 C2526 0.950 . S
H2503 C2527 0.951 . S
H2504 C2529 0.951 . S
H2505 C2531 0.950 . S
H2506 C2532 0.950 . S
H2507 C2534 0.950 . S
H2508 C2537 0.950 . S
H2509 C2538 0.950 . S
H2510 C2540 0.950 . S
H2511 C2541 0.950 . S
C2512 H2494 0.951 . S
C2512 C2513 1.366 . S
C2512 C2514 1.388 . S
C2513 C2512 1.366 . S
C2513 C2517 1.385 . S
C2514 H2495 0.951 . S
C2514 C2512 1.388 . S
C2514 C2515 1.409 . S
C2515 C2514 1.409 . S
C2515 C2516 1.404 1_565 S
C2515 C2518 1.466 1_565 S
C2516 H2496 0.950 . S
C2516 C2515 1.404 1_545 S
C2516 C2517 1.374 1_545 S
C2517 H2497 0.950 . S
C2517 C2513 1.385 . S
C2517 C2516 1.374 1_565 S
C2518 C2515 1.466 1_545 S
C2518 C2519 1.373 . S
C2518 C2520 1.389 . S
C2519 H2498 0.950 . S
C2519 C2518 1.373 . S
C2519 C2535 1.377 . S
C2520 C2518 1.389 . S
C2520 C2521 1.527 1_545 S
C2520 C2534 1.377 . S
C2521 C2520 1.527 1_565 S
C2521 C2522 1.397 . S
C2521 C2526 1.360 . S
C2522 H2499 0.950 1_565 S
C2522 C2521 1.397 . S
C2522 C2523 1.334 . S
C2523 H2500 0.950 . S
C2523 C2522 1.334 . S
C2523 C2524 1.287 . S
C2524 C2523 1.287 . S
C2524 C2525 1.524 . S
C2524 H2543 0.913 . S
C2525 H2501 0.950 . S
C2525 C2524 1.524 . S
C2525 C2526 1.415 . S
C2526 H2502 0.950 . S
C2526 C2521 1.360 . S
C2526 C2525 1.415 . S
C2527 H2503 0.951 . S
C2527 C2528 1.366 . S
C2527 C2529 1.388 . S
C2528 C2527 1.366 . S
C2528 C2532 1.385 . S
C2529 H2504 0.951 . S
C2529 C2527 1.388 . S
C2529 C2530 1.366 . S
C2530 C2529 1.366 . S
C2530 C2531 1.414 . S
C2530 C2533 1.499 . S
C2531 H2505 0.950 . S
C2531 C2530 1.414 . S
C2531 C2532 1.374 . S
C2532 H2506 0.950 . S
C2532 C2528 1.385 . S
C2532 C2531 1.374 . S
C2533 C2530 1.499 . S
C2533 C2534 1.373 . S
C2533 C2535 1.389 . S
C2534 H2507 0.950 . S
C2534 C2520 1.377 . S
C2534 C2533 1.373 . S
C2535 C2519 1.377 . S
C2535 C2533 1.389 . S
C2535 C2536 1.524 . S
C2536 C2535 1.524 . S
C2536 C2537 1.397 . S
C2536 C2541 1.363 . S
C2537 H2508 0.950 . S
C2537 C2536 1.397 . S
C2537 C2538 1.334 . S
C2538 H2509 0.950 . S
C2538 C2537 1.334 . S
C2538 C2539 1.287 . S
C2539 C2538 1.287 . S
C2539 C2540 1.524 . S
C2539 H2542 0.999 . S
C2540 H2510 0.950 . S
C2540 C2539 1.524 . S
C2540 C2541 1.415 . S
C2541 H2511 0.950 . S
C2541 C2536 1.363 . S
C2541 C2540 1.415 . S
H2542 C2539 0.999 . S
H2543 C2524 0.913 . S
C963 C416 1.484 . S
C978 C3 1.484 . S
C1013 C239 1.484 . S
C1028 C62 1.484 . S
C1063 C298 1.484 . S
C1078 C121 1.483 . S
C1113 C180 1.483 . S
C1128 C357 1.484 . S
C1163 C888 1.483 . S
C1178 C475 1.483 . S
C1213 C711 1.483 . S
C1228 C534 1.483 . S
C1263 C593 1.484 . S
C1278 C770 1.483 . S
C1313 C652 1.483 . S
C1328 C829 1.483 . S
C1363 C170 1.039 . S
C1378 C52 1.038 . S
C1413 C111 1.039 . S
C1428 C229 1.038 . S
C1463 C288 1.039 . S
C1478 C406 1.039 . S
C1513 C465 1.039 . S
C1528 C347 1.039 . S
C1563 C524 1.038 . S
C1578 C642 1.038 . S
C1613 C583 1.038 . S
C1628 C701 1.039 . S
C1663 C878 1.039 . S
C1678 C760 1.039 . S
C1713 C819 1.039 . S
C1728 C937 1.038 . S
C1763 C387 1.289 . S
C1778 C33 1.290 . S
C1813 C92 1.289 . S
C1828 C446 1.289 . S
C1863 C151 1.290 . S
C1878 C269 1.289 . S
C1913 C210 1.290 . S
C1928 C328 1.290 . S
C1963 C505 1.289 . S
C1978 C859 1.289 . S
C2013 C564 1.289 . S
C2028 C918 1.290 . S
C2063 C623 1.289 . S
C2078 C741 1.289 . S
C2113 C682 1.290 . S
C2128 C800 1.289 . S
C2163 C5 1.304 . S
C2178 C890 1.304 . S
C2213 C713 1.304 . S
C2228 C64 1.305 . S
C2263 C123 1.304 . S
C2278 C772 1.304 . S
C2313 C831 1.305 . S
C2328 C182 1.304 . S
C2363 C536 1.304 . S
C2378 C241 1.305 . S
C2413 C300 1.304 . S
C2428 C595 1.305 . S
C2463 C654 1.305 . S
C2478 C359 1.304 . S
C2513 C477 1.304 . S
C2528 C418 1.305 . S
