# Generated by pormake.
# Topology vbm, (6)-cn, num edge types: 1
# Building blocks:
#     Node 0, Type 0, BuildingBlock: CUKXOW_clean_sbu_0, # of connection points: 6
#     Node 1, Type 0, BuildingBlock: CUKXOW_clean_sbu_0, # of connection points: 6
#     Node 2, Type 0, BuildingBlock: CUKXOW_clean_sbu_0, # of connection points: 6
#     Node 3, Type 0, BuildingBlock: CUKXOW_clean_sbu_0, # of connection points: 6
#     Node 4, Type 0, BuildingBlock: CUKXOW_clean_sbu_0, # of connection points: 6
#     Node 5, Type 0, BuildingBlock: CUKXOW_clean_sbu_0, # of connection points: 6
#     Node 6, Type 0, BuildingBlock: CUKXOW_clean_sbu_0, # of connection points: 6
#     Node 7, Type 0, BuildingBlock: CUKXOW_clean_sbu_0, # of connection points: 6
#     Node 8, Type 0, BuildingBlock: CUKXOW_clean_sbu_0, # of connection points: 6
#     Node 9, Type 0, BuildingBlock: CUKXOW_clean_sbu_0, # of connection points: 6
#     Node 10, Type 0, BuildingBlock: CUKXOW_clean_sbu_0, # of connection points: 6
#     Node 11, Type 0, BuildingBlock: CUKXOW_clean_sbu_0, # of connection points: 6
#     Node 12, Type 0, BuildingBlock: CUKXOW_clean_sbu_0, # of connection points: 6
#     Node 13, Type 0, BuildingBlock: CUKXOW_clean_sbu_0, # of connection points: 6
#     Node 14, Type 0, BuildingBlock: CUKXOW_clean_sbu_0, # of connection points: 6
#     Node 15, Type 0, BuildingBlock: CUKXOW_clean_sbu_0, # of connection points: 6
#     Edge 16, Type (0, 0), BuildingBlock: UVAHIK_clean_linker_0, # of connection points: 2
#     Edge 17, Type (0, 0), BuildingBlock: UVAHIK_clean_linker_0, # of connection points: 2
#     Edge 18, Type (0, 0), BuildingBlock: UVAHIK_clean_linker_0, # of connection points: 2
#     Edge 19, Type (0, 0), BuildingBlock: UVAHIK_clean_linker_0, # of connection points: 2
#     Edge 20, Type (0, 0), BuildingBlock: UVAHIK_clean_linker_0, # of connection points: 2
#     Edge 21, Type (0, 0), BuildingBlock: UVAHIK_clean_linker_0, # of connection points: 2
#     Edge 22, Type (0, 0), BuildingBlock: UVAHIK_clean_linker_0, # of connection points: 2
#     Edge 23, Type (0, 0), BuildingBlock: UVAHIK_clean_linker_0, # of connection points: 2
#     Edge 24, Type (0, 0), BuildingBlock: UVAHIK_clean_linker_0, # of connection points: 2
#     Edge 25, Type (0, 0), BuildingBlock: UVAHIK_clean_linker_0, # of connection points: 2
#     Edge 26, Type (0, 0), BuildingBlock: UVAHIK_clean_linker_0, # of connection points: 2
#     Edge 27, Type (0, 0), BuildingBlock: UVAHIK_clean_linker_0, # of connection points: 2
#     Edge 28, Type (0, 0), BuildingBlock: UVAHIK_clean_linker_0, # of connection points: 2
#     Edge 29, Type (0, 0), BuildingBlock: UVAHIK_clean_linker_0, # of connection points: 2
#     Edge 30, Type (0, 0), BuildingBlock: UVAHIK_clean_linker_0, # of connection points: 2
#     Edge 31, Type (0, 0), BuildingBlock: UVAHIK_clean_linker_0, # of connection points: 2
#     Edge 32, Type (0, 0), BuildingBlock: UVAHIK_clean_linker_0, # of connection points: 2
#     Edge 33, Type (0, 0), BuildingBlock: UVAHIK_clean_linker_0, # of connection points: 2
#     Edge 34, Type (0, 0), BuildingBlock: UVAHIK_clean_linker_0, # of connection points: 2
#     Edge 35, Type (0, 0), BuildingBlock: UVAHIK_clean_linker_0, # of connection points: 2
#     Edge 36, Type (0, 0), BuildingBlock: UVAHIK_clean_linker_0, # of connection points: 2
#     Edge 37, Type (0, 0), BuildingBlock: UVAHIK_clean_linker_0, # of connection points: 2
#     Edge 38, Type (0, 0), BuildingBlock: UVAHIK_clean_linker_0, # of connection points: 2
#     Edge 39, Type (0, 0), BuildingBlock: UVAHIK_clean_linker_0, # of connection points: 2
#     Edge 40, Type (0, 0), BuildingBlock: UVAHIK_clean_linker_0, # of connection points: 2
#     Edge 41, Type (0, 0), BuildingBlock: UVAHIK_clean_linker_0, # of connection points: 2
#     Edge 42, Type (0, 0), BuildingBlock: UVAHIK_clean_linker_0, # of connection points: 2
#     Edge 43, Type (0, 0), BuildingBlock: UVAHIK_clean_linker_0, # of connection points: 2
#     Edge 44, Type (0, 0), BuildingBlock: UVAHIK_clean_linker_0, # of connection points: 2
#     Edge 45, Type (0, 0), BuildingBlock: UVAHIK_clean_linker_0, # of connection points: 2
#     Edge 46, Type (0, 0), BuildingBlock: UVAHIK_clean_linker_0, # of connection points: 2
#     Edge 47, Type (0, 0), BuildingBlock: UVAHIK_clean_linker_0, # of connection points: 2
#     Edge 48, Type (0, 0), BuildingBlock: UVAHIK_clean_linker_0, # of connection points: 2
#     Edge 49, Type (0, 0), BuildingBlock: UVAHIK_clean_linker_0, # of connection points: 2
#     Edge 50, Type (0, 0), BuildingBlock: UVAHIK_clean_linker_0, # of connection points: 2
#     Edge 51, Type (0, 0), BuildingBlock: UVAHIK_clean_linker_0, # of connection points: 2
#     Edge 52, Type (0, 0), BuildingBlock: UVAHIK_clean_linker_0, # of connection points: 2
#     Edge 53, Type (0, 0), BuildingBlock: UVAHIK_clean_linker_0, # of connection points: 2
#     Edge 54, Type (0, 0), BuildingBlock: UVAHIK_clean_linker_0, # of connection points: 2
#     Edge 55, Type (0, 0), BuildingBlock: UVAHIK_clean_linker_0, # of connection points: 2
#     Edge 56, Type (0, 0), BuildingBlock: UVAHIK_clean_linker_0, # of connection points: 2
#     Edge 57, Type (0, 0), BuildingBlock: UVAHIK_clean_linker_0, # of connection points: 2
#     Edge 58, Type (0, 0), BuildingBlock: UVAHIK_clean_linker_0, # of connection points: 2
#     Edge 59, Type (0, 0), BuildingBlock: UVAHIK_clean_linker_0, # of connection points: 2
#     Edge 60, Type (0, 0), BuildingBlock: UVAHIK_clean_linker_0, # of connection points: 2
#     Edge 61, Type (0, 0), BuildingBlock: UVAHIK_clean_linker_0, # of connection points: 2
#     Edge 62, Type (0, 0), BuildingBlock: UVAHIK_clean_linker_0, # of connection points: 2
#     Edge 63, Type (0, 0), BuildingBlock: UVAHIK_clean_linker_0, # of connection points: 2
# Relax obj value: 0.123
# Max RMSD: 0.176
# Mean RMSD: 0.176
data_MOF--net-vbm--node1-CUKXOW_clean_sbu_0--edge1-UVAHIK_clean_linker_0
_symmetry_space_group_name_H-M    P1
_symmetry_Int_Tables_number       1
_symmetry_cell_setting            triclinic
loop_
_symmetry_equiv_pos_as_xyz
'x, y, z'
_cell_length_a     89.07297
_cell_length_b     18.827703
_cell_length_c     78.272996
_cell_angle_alpha  90.112636
_cell_angle_beta   89.93877
_cell_angle_gamma 89.940417
loop_
_atom_site_label
_atom_site_type_symbol
_atom_site_fract_x
_atom_site_fract_y
_atom_site_fract_z
_atom_type_partial_charge
Tb0 Tb 0.09977 0.13133 0.12242 0.0
C1 C 0.11869 0.1516 0.08841 0.0
Tb2 Tb 0.13524 0.16638 0.12378 0.0
O3 O 0.09209 0.24275 0.12507 0.0
O4 O 0.11435 0.21852 0.12489 0.0
O5 O 0.10724 0.11885 0.09601 0.0
C6 C 0.16237 0.22589 0.12645 0.0
O7 O 0.12987 0.18231 0.09694 0.0
C8 C 0.12965 1.02805 0.1204 0.0
C9 C 0.11674 0.13743 0.15769 0.0
O10 O 0.15314 0.23492 0.11376 0.0
O11 O 0.15612 0.18494 0.1377 0.0
O12 O 0.14303 0.05529 0.12094 0.0
O13 O 0.1207 0.07932 0.12139 0.0
O14 O 0.12814 0.17206 0.15048 0.0
O15 O 0.10531 0.11018 0.14894 0.0
C16 C 0.07234 0.0751 0.11983 0.0
O17 O 0.08143 0.06602 0.13264 0.0
O18 O 0.07891 0.11401 0.10838 0.0
C19 C 0.10544 0.26995 0.12574 0.0
Tb20 Tb 0.88343 0.94102 0.12209 0.0
C21 C 0.86604 0.9216 0.08769 0.0
Tb22 Tb 0.84897 0.90847 0.12306 0.0
O23 O 0.88796 0.83408 0.11279 0.0
O24 O 0.86927 0.85206 0.12814 0.0
O25 O 0.87744 0.95398 0.0954 0.0
C26 C 0.82168 0.85016 0.12537 0.0
O27 O 0.85475 0.89181 0.09621 0.0
C28 C 0.85393 0.04677 0.11962 0.0
C29 C 0.86585 0.94542 0.15707 0.0
O30 O 0.83145 0.83635 0.11344 0.0
O31 O 0.82745 0.89523 0.13602 0.0
O32 O 0.84068 1.01843 0.12014 0.0
O33 O 0.86312 0.99651 0.1206 0.0
O34 O 0.85471 0.90865 0.15008 0.0
O35 O 0.8773 0.97067 0.14809 0.0
C36 C 0.91188 0.98409 0.12504 0.0
O37 O 0.90541 0.93628 0.13441 0.0
O38 O 0.90222 1.00893 0.11412 0.0
C39 C 0.87588 0.80618 0.11907 0.0
Tb40 Tb 0.09856 0.94236 0.36968 0.0
C41 C 0.11499 0.90857 0.40427 0.0
Tb42 Tb 0.134 0.90631 0.37016 0.0
O43 O 0.09086 0.83088 0.36737 0.0
O44 O 0.11312 0.85466 0.36822 0.0
O45 O 0.10415 0.94551 0.39669 0.0
C46 C 0.16111 0.8454 0.3704 0.0
O47 O 0.12628 0.87832 0.39577 0.0
C48 C 0.12841 0.04502 0.37262 0.0
C49 C 0.11797 0.95025 0.33575 0.0
O50 O 0.15473 0.87688 0.38327 0.0
O51 O 0.15201 0.84651 0.3574 0.0
O52 O 0.14178 1.01756 0.37239 0.0
O53 O 0.11946 0.99382 0.37168 0.0
O54 O 0.12929 0.91474 0.34287 0.0
O55 O 0.1061 0.97408 0.34438 0.0
C56 C 0.07119 1.00067 0.3701 0.0
O57 O 0.07843 0.98031 0.35653 0.0
O58 O 0.07959 0.9901 0.38343 0.0
C59 C 0.10421 0.8034 0.36722 0.0
Tb60 Tb 0.8832 0.13327 0.36954 0.0
C61 C 0.86672 0.16696 0.40418 0.0
Tb62 Tb 0.84776 0.1702 0.36999 0.0
O63 O 0.89099 0.24489 0.36828 0.0
O64 O 0.86872 0.22122 0.36837 0.0
O65 O 0.87771 0.13078 0.3966 0.0
C66 C 0.82078 0.23217 0.37028 0.0
O67 O 0.85542 0.19695 0.3957 0.0
C68 C 0.85322 1.03124 0.37187 0.0
C69 C 0.8639 0.1282 0.3355 0.0
O70 O 0.82693 0.19913 0.38302 0.0
O71 O 0.83002 0.23193 0.35739 0.0
O72 O 0.83987 0.05899 0.37169 0.0
O73 O 0.86222 0.08229 0.37115 0.0
O74 O 0.85261 0.16372 0.34272 0.0
O75 O 0.87566 0.10319 0.34409 0.0
C76 C 0.91055 0.07488 0.36899 0.0
O77 O 0.90371 0.10301 0.35601 0.0
O78 O 0.90176 0.07775 0.38226 0.0
C79 C 0.87765 0.27252 0.36797 0.0
Tb80 Tb 0.84883 0.91012 0.86969 0.0
C81 C 0.86479 0.95411 0.83528 0.0
Tb82 Tb 0.88431 0.94642 0.86915 0.0
O83 O 0.84098 1.02136 0.87171 0.0
O84 O 0.86334 0.99769 0.87103 0.0
O85 O 0.85352 0.91833 0.84241 0.0
C86 C 0.91177 1.00314 0.86827 0.0
O87 O 0.87661 0.97822 0.84391 0.0
C88 C 0.87864 0.80731 0.86735 0.0
C89 C 0.86806 0.9109 0.90381 0.0
O90 O 0.90515 0.97081 0.8557 0.0
O91 O 0.9027 1.00548 0.88132 0.0
O92 O 0.89199 0.83458 0.86773 0.0
O93 O 0.86976 0.85888 0.86783 0.0
O94 O 0.87916 0.94646 0.89631 0.0
O95 O 0.85658 0.88242 0.89531 0.0
C96 C 0.82184 0.84848 0.86994 0.0
O97 O 0.82796 0.88185 0.88268 0.0
O98 O 0.83111 0.84821 0.85708 0.0
C99 C 0.85434 0.04888 0.87188 0.0
Tb100 Tb 0.13536 0.16892 0.86888 0.0
C101 C 0.11705 0.13854 0.83504 0.0
Tb102 Tb 0.09991 0.1339 0.87021 0.0
O103 O 0.14315 0.05784 0.87162 0.0
O104 O 0.12082 0.08181 0.87107 0.0
O105 O 0.12827 0.17452 0.84222 0.0
C106 C 0.07246 0.07751 0.87261 0.0
O107 O 0.10574 0.11047 0.84384 0.0
C108 C 0.10555 0.27258 0.86716 0.0
C109 C 0.11877 0.1539 0.90425 0.0
O110 O 0.08106 0.07443 0.85919 0.0
O111 O 0.07954 0.11042 0.88476 0.0
O112 O 0.09221 0.24535 0.86786 0.0
O113 O 0.11447 0.2212 0.86791 0.0
O114 O 0.1073 0.12148 0.89662 0.0
O115 O 0.12999 0.18452 0.89577 0.0
C116 C 0.16251 0.22819 0.8661 0.0
O117 O 0.15334 0.23721 0.87887 0.0
O118 O 0.1562 0.18741 0.85483 0.0
C119 C 0.12977 1.03057 0.87206 0.0
Tb120 Tb 0.8481 0.17175 0.62329 0.0
C121 C 0.86613 0.14043 0.65723 0.0
Tb122 Tb 0.88352 0.136 0.62222 0.0
O123 O 0.84026 0.06082 0.62037 0.0
O124 O 0.86259 0.08429 0.62102 0.0
O125 O 0.85498 0.17679 0.65004 0.0
C126 C 0.9109 0.07843 0.61999 0.0
O127 O 0.87745 0.11204 0.64846 0.0
C128 C 0.87794 0.27481 0.62536 0.0
C129 C 0.86509 0.15897 0.5881 0.0
O130 O 0.90237 0.07733 0.63348 0.0
O131 O 0.90379 0.11007 0.60769 0.0
O132 O 0.89128 0.24729 0.62468 0.0
O133 O 0.86901 0.22359 0.62458 0.0
O134 O 0.87639 0.12514 0.5957 0.0
O135 O 0.85384 0.18948 0.5966 0.0
C136 C 0.82096 0.23168 0.62573 0.0
O137 O 0.83008 0.23854 0.61285 0.0
O138 O 0.82732 0.19273 0.63731 0.0
C139 C 0.85362 1.03324 0.61996 0.0
Tb140 Tb 0.13437 0.9084 0.62219 0.0
C141 C 0.11858 0.9521 0.6568 0.0
Tb142 Tb 0.09892 0.94499 0.62307 0.0
O143 O 0.14221 1.01954 0.62016 0.0
O144 O 0.11987 0.99612 0.62106 0.0
O145 O 0.12981 0.91625 0.64954 0.0
C146 C 0.0715 1.00234 0.62408 0.0
O147 O 0.10674 0.9766 0.64828 0.0
C148 C 0.10458 0.80584 0.62473 0.0
C149 C 0.11492 0.90923 0.58824 0.0
O150 O 0.07815 0.97019 0.63663 0.0
O151 O 0.08052 1.0041 0.61098 0.0
O152 O 0.09122 0.83328 0.6245 0.0
O153 O 0.11347 0.85727 0.62418 0.0
O154 O 0.10389 0.94493 0.5959 0.0
O155 O 0.12648 0.88074 0.59659 0.0
C156 C 0.16142 0.84703 0.62167 0.0
O157 O 0.15508 0.87931 0.60893 0.0
O158 O 0.15232 0.84762 0.63469 0.0
C159 C 0.12885 0.0472 0.62015 0.0
Tb160 Tb 0.5997 0.63164 0.12185 0.0
C161 C 0.61525 0.66932 0.08686 0.0
Tb162 Tb 0.63514 0.66829 0.12042 0.0
O163 O 0.59197 0.74309 0.12438 0.0
O164 O 0.61422 0.71939 0.123 0.0
O165 O 0.60439 0.6329 0.09458 0.0
C166 C 0.66231 0.72765 0.11908 0.0
O167 O 0.62689 0.69747 0.09511 0.0
C168 C 0.6295 0.52941 0.11828 0.0
C169 C 0.62009 0.62089 0.15505 0.0
O170 O 0.65623 0.68914 0.10719 0.0
O171 O 0.65288 0.73447 0.13171 0.0
O172 O 0.64287 0.55671 0.11842 0.0
O173 O 0.6206 0.58091 0.11913 0.0
O174 O 0.63102 0.65872 0.14782 0.0
O175 O 0.60817 0.59677 0.14657 0.0
C176 C 0.57239 0.57338 0.12243 0.0
O177 O 0.5793 0.60078 0.13548 0.0
O178 O 0.58108 0.57688 0.10909 0.0
C179 C 0.60531 0.77068 0.12419 0.0
Tb180 Tb 0.38433 0.44431 0.12255 0.0
C181 C 0.36855 0.40797 0.08761 0.0
Tb182 Tb 0.34886 0.40846 0.12133 0.0
O183 O 0.392 0.33278 0.12479 0.0
O184 O 0.36975 0.35683 0.1236 0.0
O185 O 0.37942 0.44436 0.09532 0.0
C186 C 0.3217 0.34897 0.12026 0.0
O187 O 0.35699 0.3794 0.09593 0.0
C188 C 0.35457 0.54712 0.11918 0.0
C189 C 0.36414 0.4541 0.15606 0.0
O190 O 0.32768 0.38752 0.10833 0.0
O191 O 0.33122 0.3422 0.13277 0.0
O192 O 0.34118 0.51996 0.11921 0.0
O193 O 0.36347 0.49568 0.12019 0.0
O194 O 0.35288 0.41889 0.14872 0.0
O195 O 0.37624 0.47683 0.14768 0.0
C196 C 0.41169 0.50225 0.12295 0.0
O197 O 0.40468 0.47645 0.1361 0.0
O198 O 0.40307 0.49736 0.1096 0.0
C199 C 0.37864 0.30545 0.12467 0.0
Tb200 Tb 0.59876 0.44677 0.36803 0.0
C201 C 0.61421 0.4079 0.40297 0.0
Tb202 Tb 0.63416 0.40971 0.36944 0.0
O203 O 0.59107 0.33528 0.36538 0.0
O204 O 0.61329 0.35894 0.36662 0.0
O205 O 0.6034 0.4447 0.39528 0.0
C206 C 0.66119 0.34815 0.36984 0.0
O207 O 0.62587 0.37969 0.39469 0.0
C208 C 0.62862 0.54854 0.37213 0.0
C209 C 0.6191 0.45806 0.33489 0.0
O210 O 0.65472 0.37897 0.38274 0.0
O211 O 0.65224 0.3503 0.35672 0.0
O212 O 0.64198 0.52084 0.37214 0.0
O213 O 0.61967 0.49742 0.37089 0.0
O214 O 0.62988 0.41916 0.34207 0.0
O215 O 0.60724 0.48276 0.34341 0.0
C216 C 0.5714 0.50486 0.36765 0.0
O217 O 0.57829 0.47765 0.35454 0.0
O218 O 0.58014 0.50129 0.38092 0.0
C219 C 0.60441 0.30764 0.36546 0.0
Tb220 Tb 0.38329 0.63527 0.36885 0.0
C221 C 0.3674 0.6714 0.40379 0.0
Tb222 Tb 0.34786 0.67201 0.37002 0.0
O223 O 0.39103 0.74677 0.36689 0.0
O224 O 0.36877 0.72311 0.36775 0.0
O225 O 0.37824 0.63466 0.39607 0.0
C226 C 0.32084 0.73368 0.37041 0.0
O227 O 0.35591 0.70059 0.39546 0.0
C228 C 0.3534 0.53316 0.37217 0.0
C229 C 0.36338 0.62806 0.33524 0.0
O230 O 0.32706 0.70087 0.38315 0.0
O231 O 0.33004 0.73344 0.35749 0.0
O232 O 0.34004 0.56083 0.37224 0.0
O233 O 0.36236 0.58425 0.37112 0.0
O234 O 0.35221 0.66377 0.34265 0.0
O235 O 0.37535 0.60383 0.34361 0.0
C236 C 0.41065 0.57693 0.36833 0.0
O237 O 0.4036 0.60271 0.35521 0.0
O238 O 0.40205 0.58205 0.38172 0.0
C239 C 0.37768 0.77438 0.3669 0.0
Tb240 Tb 0.3491 0.40781 0.86999 0.0
C241 C 0.36443 0.45258 0.83526 0.0
Tb242 Tb 0.38456 0.44406 0.86879 0.0
O243 O 0.34137 0.51935 0.87185 0.0
O244 O 0.36367 0.49516 0.87119 0.0
O245 O 0.35319 0.41725 0.84261 0.0
C246 C 0.41185 0.50264 0.86831 0.0
O247 O 0.37648 0.47583 0.84364 0.0
C248 C 0.37895 0.30507 0.86675 0.0
C249 C 0.36875 0.40789 0.90373 0.0
O250 O 0.40497 0.47544 0.85523 0.0
O251 O 0.40315 0.49873 0.88163 0.0
O252 O 0.39229 0.33256 0.86667 0.0
O253 O 0.37002 0.35639 0.86775 0.0
O254 O 0.37965 0.44412 0.89604 0.0
O255 O 0.35719 0.37933 0.89541 0.0
C256 C 0.32194 0.34834 0.87126 0.0
O257 O 0.32796 0.38715 0.88313 0.0
O258 O 0.33143 0.34129 0.85869 0.0
C259 C 0.35475 0.54662 0.87196 0.0
Tb260 Tb 0.6353 0.66952 0.86945 0.0
C261 C 0.62013 0.62108 0.83493 0.0
Tb262 Tb 0.5999 0.63278 0.86813 0.0
O263 O 0.64312 0.55829 0.87195 0.0
O264 O 0.62081 0.58199 0.87095 0.0
O265 O 0.63092 0.66003 0.84208 0.0
C266 C 0.57252 0.57504 0.86777 0.0
O267 O 0.60832 0.5964 0.8435 0.0
C268 C 0.60553 0.77181 0.86552 0.0
C269 C 0.61544 0.67125 0.90306 0.0
O270 O 0.57953 0.60069 0.8546 0.0
O271 O 0.58116 0.57996 0.88112 0.0
O272 O 0.59219 0.74424 0.86542 0.0
O273 O 0.61441 0.72052 0.86676 0.0
O274 O 0.60463 0.63448 0.89535 0.0
O275 O 0.62707 0.69947 0.89478 0.0
C276 C 0.66232 0.7309 0.86983 0.0
O277 O 0.6559 0.69997 0.88271 0.0
O278 O 0.65333 0.72897 0.85675 0.0
C279 C 0.62976 0.53075 0.87201 0.0
Tb280 Tb 0.34807 0.6713 0.6216 0.0
C281 C 0.36363 0.62715 0.65627 0.0
Tb282 Tb 0.38351 0.63484 0.62261 0.0
O283 O 0.34029 0.56005 0.61927 0.0
O284 O 0.36261 0.58367 0.62033 0.0
O285 O 0.35245 0.66292 0.64895 0.0
C286 C 0.41085 0.57634 0.62285 0.0
O287 O 0.37559 0.60302 0.64782 0.0
C288 C 0.37787 0.77388 0.62482 0.0
C289 C 0.36761 0.67135 0.58776 0.0
O290 O 0.40393 0.60269 0.63603 0.0
O291 O 0.40215 0.58103 0.60956 0.0
O292 O 0.39122 0.74635 0.62481 0.0
O293 O 0.36897 0.72258 0.62381 0.0
O294 O 0.3785 0.63485 0.59539 0.0
O295 O 0.35608 0.70014 0.59616 0.0
C296 C 0.32106 0.73291 0.62134 0.0
O297 O 0.32728 0.70012 0.60855 0.0
O298 O 0.33025 0.73264 0.63425 0.0
C299 C 0.35366 0.5325 0.61926 0.0
Tb300 Tb 0.63436 0.41008 0.62027 0.0
C301 C 0.61943 0.45827 0.65497 0.0
Tb302 Tb 0.59894 0.44721 0.62187 0.0
O303 O 0.64212 0.52153 0.61832 0.0
O304 O 0.61984 0.49764 0.619 0.0
O305 O 0.6303 0.42007 0.64767 0.0
C306 C 0.57159 0.50538 0.62253 0.0
O307 O 0.60749 0.48252 0.64655 0.0
C308 C 0.60455 0.30812 0.62423 0.0
C309 C 0.61439 0.4092 0.58678 0.0
O310 O 0.57862 0.479 0.63559 0.0
O311 O 0.58019 0.50096 0.60912 0.0
O312 O 0.59122 0.33587 0.62451 0.0
O313 O 0.61345 0.35928 0.62293 0.0
O314 O 0.60357 0.44576 0.59459 0.0
O315 O 0.62607 0.38092 0.59495 0.0
C316 C 0.66148 0.34978 0.61913 0.0
O317 O 0.65545 0.38769 0.60711 0.0
O318 O 0.65202 0.34411 0.63175 0.0
C319 C 0.62875 0.54902 0.61822 0.0
C320 C 0.18499 0.27982 0.11257 0.0
C321 C 0.17828 0.24785 0.12685 0.0
C322 C 0.20049 0.2923 0.11226 0.0
C323 C 0.23575 0.22886 0.13216 0.0
H324 H 0.2529 0.39624 0.11107 0.0
C325 C 0.29931 0.29766 0.13526 0.0
C326 C 0.30576 0.32743 0.12055 0.0
C327 C 0.28379 0.28576 0.13609 0.0
C328 C 0.2483 0.34876 0.11684 0.0
H329 H 0.18232 0.2065 0.15224 0.0
H330 H 0.20926 0.22949 0.15187 0.0
H331 H 0.2257 0.38383 0.1128 0.0
H332 H 0.30121 0.36547 0.09496 0.0
H333 H 0.27426 0.34383 0.09629 0.0
H334 H 0.25837 0.19389 0.13622 0.0
C335 C 0.20268 0.2436 0.14075 0.0
C336 C 0.23269 0.3417 0.11784 0.0
C337 C 0.18722 0.23103 0.14104 0.0
C338 C 0.29653 0.34267 0.10649 0.0
C339 C 0.28106 0.33088 0.10732 0.0
C340 C 0.25136 0.23598 0.13119 0.0
C341 C 0.20957 0.27311 0.12624 0.0
C342 C 0.2262 0.28158 0.12548 0.0
C343 C 0.27445 0.30358 0.12223 0.0
C344 C 0.25783 0.29587 0.12344 0.0
H345 H 0.17836 0.29295 0.10142 0.0
H346 H 0.20542 0.31461 0.10082 0.0
H347 H 0.23116 0.18124 0.13788 0.0
H348 H 0.30616 0.28576 0.14631 0.0
H349 H 0.27905 0.265 0.14781 0.0
C350 C 0.7966 0.84741 0.13944 0.0
C351 C 0.80576 0.82822 0.12557 0.0
C352 C 0.78115 0.83498 0.13898 0.0
C353 C 0.75134 0.73434 0.11631 0.0
H354 H 0.72564 0.88432 0.13381 0.0
C355 C 0.68744 0.73269 0.10514 0.0
C356 C 0.67826 0.74905 0.11921 0.0
C357 C 0.70291 0.74446 0.10582 0.0
C358 C 0.73265 0.84166 0.12902 0.0
H359 H 0.80608 0.77911 0.10054 0.0
H360 H 0.77899 0.75785 0.0996 0.0
H361 H 0.75283 0.89711 0.13541 0.0
H362 H 0.67795 0.79267 0.14482 0.0
H363 H 0.70506 0.81357 0.14605 0.0
H364 H 0.73113 0.67917 0.10982 0.0
C365 C 0.78375 0.78184 0.11095 0.0
C366 C 0.74826 0.84884 0.12997 0.0
C367 C 0.79927 0.79405 0.11145 0.0
C368 C 0.68477 0.77989 0.13377 0.0
C369 C 0.70028 0.79186 0.13444 0.0
C370 C 0.73573 0.72727 0.11532 0.0
C371 C 0.77445 0.80341 0.12459 0.0
C372 C 0.75782 0.79524 0.12364 0.0
C373 C 0.70958 0.77296 0.12059 0.0
C374 C 0.72619 0.78087 0.12165 0.0
H375 H 0.80133 0.87359 0.15053 0.0
H376 H 0.77442 0.85084 0.14987 0.0
H377 H 0.75833 0.69156 0.11155 0.0
H378 H 0.68273 0.70901 0.09372 0.0
H379 H 0.70969 0.73059 0.09481 0.0
C380 C 0.29778 0.76997 0.35436 0.0
C381 C 0.30495 0.75608 0.36997 0.0
C382 C 0.28225 0.78191 0.35383 0.0
C383 C 0.2497 0.8333 0.38028 0.0
H384 H 0.22643 0.72418 0.34764 0.0
C385 C 0.18539 0.82208 0.38515 0.0
C386 C 0.17708 0.82428 0.36995 0.0
C387 C 0.20092 0.81162 0.38475 0.0
C388 C 0.23274 0.75583 0.35669 0.0
H389 H 0.30172 0.74629 0.39729 0.0
H390 H 0.27471 0.76853 0.39643 0.0
H391 H 0.25379 0.7162 0.34735 0.0
H392 H 0.17836 0.81529 0.34241 0.0
H393 H 0.20557 0.79853 0.3416 0.0
H394 H 0.2288 0.8739 0.3895 0.0
C395 C 0.28101 0.76995 0.3846 0.0
C396 C 0.24843 0.75121 0.35651 0.0
C397 C 0.29647 0.75712 0.38509 0.0
C398 C 0.1845 0.81331 0.35433 0.0
C399 C 0.2001 0.80362 0.3539 0.0
C400 C 0.23404 0.83849 0.38035 0.0
C401 C 0.27368 0.78116 0.36894 0.0
C402 C 0.25707 0.78938 0.36842 0.0
C403 C 0.20857 0.80408 0.3691 0.0
C404 C 0.22531 0.79921 0.3687 0.0
H405 H 0.30405 0.76913 0.3425 0.0
H406 H 0.27693 0.7911 0.3416 0.0
H407 H 0.25606 0.86407 0.38946 0.0
H408 H 0.17992 0.83004 0.39738 0.0
H409 H 0.20695 0.81037 0.39675 0.0
C410 C 0.79778 0.26917 0.35419 0.0
C411 C 0.80492 0.25495 0.36981 0.0
C412 C 0.78227 0.28153 0.35365 0.0
C413 C 0.74974 0.33342 0.38009 0.0
H414 H 0.7264 0.22525 0.34734 0.0
C415 C 0.68538 0.32401 0.38473 0.0
C416 C 0.67714 0.32667 0.36948 0.0
C417 C 0.70091 0.31308 0.3844 0.0
C418 C 0.73273 0.25663 0.35642 0.0
H419 H 0.80164 0.24501 0.39712 0.0
H420 H 0.77466 0.26792 0.39624 0.0
H421 H 0.75375 0.21658 0.3471 0.0
H422 H 0.67853 0.31803 0.34194 0.0
H423 H 0.7057 0.30046 0.34125 0.0
H424 H 0.72888 0.37443 0.38931 0.0
C425 C 0.78098 0.26931 0.38441 0.0
C426 C 0.74842 0.25162 0.35627 0.0
C427 C 0.79642 0.25608 0.38492 0.0
C428 C 0.68462 0.31572 0.3539 0.0
C429 C 0.7002 0.30554 0.35354 0.0
C430 C 0.73409 0.33899 0.38014 0.0
C431 C 0.77368 0.28085 0.36874 0.0
C432 C 0.75709 0.28947 0.36821 0.0
C433 C 0.7086 0.30551 0.36878 0.0
C434 C 0.72534 0.30009 0.36844 0.0
H435 H 0.80407 0.26828 0.34234 0.0
H436 H 0.77697 0.29096 0.34141 0.0
H437 H 0.75612 0.36393 0.3893 0.0
H438 H 0.67988 0.33196 0.39694 0.0
H439 H 0.70689 0.3115 0.39642 0.0
C440 C 0.68655 0.75492 0.88466 0.0
C441 C 0.67826 0.75239 0.86944 0.0
C442 C 0.70206 0.76596 0.88429 0.0
C443 C 0.73376 0.82303 0.85627 0.0
H444 H 0.75735 0.716 0.88896 0.0
C445 C 0.79884 0.81131 0.85386 0.0
C446 C 0.80599 0.82566 0.86947 0.0
C447 C 0.78334 0.79881 0.85334 0.0
C448 C 0.75091 0.74644 0.87979 0.0
H449 H 0.67956 0.76136 0.84191 0.0
H450 H 0.70672 0.77912 0.84115 0.0
H451 H 0.73012 0.70506 0.88902 0.0
H452 H 0.80273 0.83574 0.8968 0.0
H453 H 0.77578 0.81252 0.89595 0.0
H454 H 0.75472 0.86342 0.84692 0.0
C455 C 0.70126 0.77385 0.85344 0.0
C456 C 0.73527 0.74061 0.87988 0.0
C457 C 0.68568 0.76356 0.85385 0.0
C458 C 0.79751 0.82456 0.8846 0.0
C459 C 0.78208 0.81116 0.8841 0.0
C460 C 0.74944 0.82828 0.85607 0.0
C461 C 0.70971 0.7738 0.86865 0.0
C462 C 0.72644 0.77942 0.86825 0.0
C463 C 0.77476 0.79944 0.86845 0.0
C464 C 0.75818 0.79054 0.86794 0.0
H465 H 0.68109 0.74679 0.89688 0.0
H466 H 0.70808 0.76748 0.89629 0.0
H467 H 0.72738 0.85436 0.84724 0.0
H468 H 0.80511 0.81219 0.842 0.0
H469 H 0.77803 0.78925 0.8411 0.0
C470 C 0.29683 0.34225 0.88521 0.0
C471 C 0.306 0.32687 0.87107 0.0
C472 C 0.28136 0.33066 0.8845 0.0
C473 C 0.25149 0.2363 0.86076 0.0
H474 H 0.22604 0.38471 0.87947 0.0
C475 C 0.18731 0.23289 0.85134 0.0
C476 C 0.17843 0.24985 0.86562 0.0
C477 C 0.20278 0.24508 0.85154 0.0
C478 C 0.23296 0.34243 0.87433 0.0
H479 H 0.30628 0.2851 0.84528 0.0
H480 H 0.27915 0.26469 0.84397 0.0
H481 H 0.25325 0.39655 0.88101 0.0
H482 H 0.17865 0.29479 0.8911 0.0
H483 H 0.20573 0.31582 0.89154 0.0
H484 H 0.23121 0.18199 0.85416 0.0
C485 C 0.28395 0.28541 0.85567 0.0
C486 C 0.24858 0.34915 0.87523 0.0
C487 C 0.29947 0.29711 0.85639 0.0
C488 C 0.18523 0.28157 0.87988 0.0
C489 C 0.20074 0.29369 0.8801 0.0
C490 C 0.23586 0.22951 0.85989 0.0
C491 C 0.27467 0.30343 0.86961 0.0
C492 C 0.25804 0.29606 0.86852 0.0
C493 C 0.20975 0.27436 0.86604 0.0
C494 C 0.22639 0.28245 0.86669 0.0
H495 H 0.30157 0.36505 0.89672 0.0
H496 H 0.27461 0.34374 0.89558 0.0
H497 H 0.25843 0.19405 0.85564 0.0
H498 H 0.18235 0.20853 0.84014 0.0
H499 H 0.20931 0.23088 0.84036 0.0
C500 C 0.68661 0.34232 0.60525 0.0
C501 C 0.67742 0.3282 0.61942 0.0
C502 C 0.70209 0.3308 0.60607 0.0
C503 C 0.73196 0.239 0.63041 0.0
H504 H 0.75735 0.38589 0.61117 0.0
C505 C 0.79609 0.23781 0.64035 0.0
C506 C 0.80501 0.25323 0.62603 0.0
C507 C 0.7806 0.24973 0.63999 0.0
C508 C 0.75044 0.34403 0.61646 0.0
H509 H 0.67709 0.28869 0.64538 0.0
H510 H 0.70421 0.26848 0.64687 0.0
H511 H 0.73014 0.39713 0.60937 0.0
H512 H 0.80487 0.29519 0.60029 0.0
H513 H 0.77777 0.31579 0.59957 0.0
H514 H 0.75226 0.18575 0.63745 0.0
C515 C 0.69944 0.28812 0.63507 0.0
C516 C 0.73482 0.3504 0.61541 0.0
C517 C 0.68392 0.29971 0.63424 0.0
C518 C 0.79825 0.28319 0.61154 0.0
C519 C 0.78273 0.29506 0.61116 0.0
C520 C 0.74758 0.23258 0.63145 0.0
C521 C 0.70875 0.30494 0.6211 0.0
C522 C 0.72538 0.29785 0.62231 0.0
C523 C 0.77367 0.27722 0.62527 0.0
C524 C 0.75703 0.28497 0.62446 0.0
H525 H 0.68189 0.36412 0.59363 0.0
H526 H 0.70887 0.34294 0.59496 0.0
H527 H 0.72503 0.19718 0.63569 0.0
H528 H 0.80103 0.21479 0.65171 0.0
H529 H 0.77403 0.23669 0.6512 0.0
C530 C 0.18476 0.81371 0.63758 0.0
C531 C 0.17737 0.8256 0.62202 0.0
C532 C 0.20035 0.80371 0.63797 0.0
C533 C 0.23436 0.83922 0.61164 0.0
H534 H 0.25395 0.71526 0.64423 0.0
C535 C 0.29674 0.75696 0.6067 0.0
C536 C 0.30518 0.75545 0.62183 0.0
C537 C 0.28129 0.76998 0.60721 0.0
C538 C 0.24864 0.75073 0.63518 0.0
H539 H 0.18026 0.83268 0.59461 0.0
H540 H 0.20727 0.81246 0.59515 0.0
H541 H 0.2266 0.72361 0.64394 0.0
H542 H 0.30422 0.76785 0.64933 0.0
H543 H 0.27711 0.7901 0.65026 0.0
H544 H 0.25642 0.86486 0.60263 0.0
C545 C 0.20122 0.81322 0.60715 0.0
C546 C 0.23294 0.75557 0.63501 0.0
C547 C 0.1857 0.824 0.6068 0.0
C548 C 0.29798 0.76905 0.63747 0.0
C549 C 0.28246 0.78116 0.63801 0.0
C550 C 0.25001 0.8338 0.6117 0.0
C551 C 0.20884 0.80477 0.62277 0.0
C552 C 0.22557 0.79958 0.62315 0.0
C553 C 0.27392 0.78089 0.6229 0.0
C554 C 0.25733 0.78929 0.62342 0.0
H555 H 0.17861 0.8152 0.64952 0.0
H556 H 0.20579 0.79792 0.65025 0.0
H557 H 0.22917 0.87511 0.6026 0.0
H558 H 0.30201 0.74637 0.59448 0.0
H559 H 0.27502 0.76894 0.59537 0.0
C560 C 0.10527 0.98083 0.30833 0.0
C561 C 0.11858 0.96585 0.31726 0.0
C562 C 0.10569 0.99782 0.291 0.0
C563 C 0.12929 0.07556 0.25822 0.0
H564 H 0.10223 0.98194 0.22663 0.0
C565 C 0.13078 0.12793 0.1853 0.0
C566 C 0.11713 0.12525 0.17634 0.0
C567 C 0.13137 0.1093 0.20258 0.0
C568 C 0.1097 1.00954 0.23529 0.0
H569 H 0.14278 0.95702 0.31505 0.0
H570 H 0.14351 0.98825 0.28465 0.0
H571 H 0.10265 0.94593 0.25649 0.0
H572 H 0.09328 0.10425 0.17864 0.0
H573 H 0.09418 0.07461 0.20884 0.0
H574 H 0.13602 0.14085 0.23723 0.0
C575 C 0.13278 0.98626 0.29115 0.0
C576 C 0.11 0.98842 0.25237 0.0
C577 C 0.13234 0.968 0.30847 0.0
C578 C 0.104 0.10615 0.18515 0.0
C579 C 0.10456 0.08853 0.20245 0.0
C580 C 0.12885 0.09746 0.24116 0.0
C581 C 0.11944 1.00126 0.28227 0.0
C582 C 0.11974 1.02142 0.26401 0.0
C583 C 0.11829 0.08844 0.21133 0.0
C584 C 0.11897 0.06499 0.22948 0.0
H585 H 0.09448 0.97934 0.31472 0.0
H586 H 0.09526 1.00964 0.28448 0.0
H587 H 0.13679 0.10233 0.267 0.0
H588 H 0.14112 0.14187 0.17884 0.0
H589 H 0.14218 0.10915 0.2089 0.0
C590 C 0.87667 0.09952 0.30795 0.0
C591 C 0.86335 0.11401 0.31695 0.0
C592 C 0.87627 0.08425 0.29051 0.0
C593 C 0.85276 1.00947 0.25736 0.0
H594 H 0.87962 0.1065 0.22617 0.0
C595 C 0.85153 0.95863 0.18444 0.0
C596 C 0.86523 0.96122 0.17556 0.0
C597 C 0.8508 0.97828 0.20165 0.0
C598 C 0.87221 0.07802 0.23472 0.0
H599 H 0.83916 0.12372 0.31476 0.0
H600 H 0.83848 0.09535 0.28419 0.0
H601 H 0.8792 0.14013 0.25624 0.0
H602 H 0.889 0.98402 0.17787 0.0
H603 H 0.88787 1.01544 0.20799 0.0
H604 H 0.84613 0.94546 0.23609 0.0
C605 C 0.8492 0.09648 0.29071 0.0
C606 C 0.8719 0.09776 0.25191 0.0
C607 C 0.84961 0.11306 0.30814 0.0
C608 C 0.87824 0.9821 0.18433 0.0
C609 C 0.87756 1.00071 0.20159 0.0
C610 C 0.85322 0.98891 0.2402 0.0
C611 C 0.86254 0.08203 0.28176 0.0
C612 C 0.86224 0.06345 0.2634 0.0
C613 C 0.86379 1.00003 0.21043 0.0
C614 C 0.86302 1.02264 0.22866 0.0
H615 H 0.88744 0.10014 0.31436 0.0
H616 H 0.8867 0.0728 0.28391 0.0
H617 H 0.84532 0.98174 0.26604 0.0
H618 H 0.84128 0.94337 0.17798 0.0
H619 H 0.83997 0.97798 0.20794 0.0
C620 C 0.87872 0.10835 0.68467 0.0
C621 C 0.86564 0.12783 0.67585 0.0
C622 C 0.87811 0.09077 0.70197 0.0
C623 C 0.85376 0.10061 0.74065 0.0
H624 H 0.87995 0.94901 0.75606 0.0
C625 C 0.85038 0.97173 0.80807 0.0
C626 C 0.86415 0.96988 0.81682 0.0
C627 C 0.8499 0.98992 0.79075 0.0
C628 C 0.8726 0.9915 0.75192 0.0
H629 H 0.84166 0.14514 0.6783 0.0
H630 H 0.84048 0.11238 0.70837 0.0
H631 H 0.88034 0.98438 0.72617 0.0
H632 H 0.88823 0.98395 0.8142 0.0
H633 H 0.88738 1.0141 0.78395 0.0
H634 H 0.84584 0.10608 0.76652 0.0
C635 C 0.8513 0.11223 0.70206 0.0
C636 C 0.87288 1.01226 0.73482 0.0
C637 C 0.85196 0.13086 0.68479 0.0
C638 C 0.87743 0.98519 0.80784 0.0
C639 C 0.87697 1.0021 0.79051 0.0
C640 C 0.85333 0.07905 0.75774 0.0
C641 C 0.86435 0.09106 0.71083 0.0
C642 C 0.86363 0.06778 0.72899 0.0
C643 C 0.86321 1.00513 0.78183 0.0
C644 C 0.86288 1.02492 0.76355 0.0
H645 H 0.88946 0.10624 0.67818 0.0
H646 H 0.88846 0.07666 0.70837 0.0
H647 H 0.8466 0.14406 0.73671 0.0
H648 H 0.83996 0.9605 0.81468 0.0
H649 H 0.83916 0.99163 0.78428 0.0
C650 C 0.13118 0.12917 0.80745 0.0
C651 C 0.11752 0.1258 0.81641 0.0
C652 C 0.13186 0.11035 0.79017 0.0
C653 C 0.11048 1.00926 0.75738 0.0
H654 H 0.13737 0.10362 0.72573 0.0
C655 C 0.10595 0.98204 0.68434 0.0
C656 C 0.11925 0.96735 0.67531 0.0
C657 C 0.10641 0.99869 0.7017 0.0
C658 C 0.12993 0.07641 0.7345 0.0
H659 H 0.09374 0.10328 0.81411 0.0
H660 H 0.09478 0.07333 0.7839 0.0
H661 H 0.13651 0.14191 0.75555 0.0
H662 H 0.14345 0.95867 0.67737 0.0
H663 H 0.14425 0.98939 0.70783 0.0
H664 H 0.10356 0.94553 0.73611 0.0
C665 C 0.10511 0.08793 0.79029 0.0
C666 C 0.12944 0.09817 0.75159 0.0
C667 C 0.10447 0.10572 0.8076 0.0
C668 C 0.13303 0.96944 0.68403 0.0
C669 C 0.1335 0.98739 0.70139 0.0
C670 C 0.11083 0.98829 0.74027 0.0
C671 C 0.11886 0.08861 0.78142 0.0
C672 C 0.11962 0.06516 0.76324 0.0
C673 C 0.12017 1.00208 0.71036 0.0
C674 C 0.12049 1.02189 0.72866 0.0
H675 H 0.14147 0.14389 0.81392 0.0
H676 H 0.14268 0.1108 0.78386 0.0
H677 H 0.10307 0.98125 0.76602 0.0
H678 H 0.09515 0.98058 0.67801 0.0
H679 H 0.09599 1.01029 0.7083 0.0
C680 C 0.61052 0.5264 0.30932 0.0
C681 C 0.62036 0.47637 0.31654 0.0
C682 C 0.61137 0.54313 0.292 0.0
C683 C 0.63596 0.5326 0.25387 0.0
H684 H 0.59825 0.55603 0.22982 0.0
C685 C 0.61115 0.55415 0.1807 0.0
C686 C 0.62121 0.60306 0.17344 0.0
C687 C 0.61179 0.53811 0.19807 0.0
C688 C 0.6089 0.54909 0.23628 0.0
H689 H 0.639 0.40542 0.31117 0.0
H690 H 0.64029 0.43376 0.28076 0.0
H691 H 0.59806 0.52804 0.26008 0.0
H692 H 0.64003 0.67266 0.17879 0.0
H693 H 0.64099 0.64544 0.20928 0.0
H694 H 0.64676 0.55193 0.22984 0.0
C695 C 0.63204 0.46075 0.28862 0.0
C696 C 0.60879 0.53395 0.25372 0.0
C697 C 0.63124 0.4442 0.30603 0.0
C698 C 0.63211 0.63473 0.18396 0.0
C699 C 0.63271 0.61885 0.20142 0.0
C700 C 0.63607 0.54763 0.23636 0.0
C701 C 0.62201 0.50997 0.28137 0.0
C702 C 0.62231 0.52565 0.26276 0.0
C703 C 0.62245 0.57084 0.2087 0.0
C704 C 0.62252 0.55584 0.22735 0.0
H705 H 0.60211 0.55297 0.31704 0.0
H706 H 0.60368 0.58237 0.28693 0.0
H707 H 0.64658 0.52715 0.26048 0.0
H708 H 0.60271 0.52796 0.17299 0.0
H709 H 0.60392 0.49975 0.20316 0.0
C710 C 0.37556 0.59674 0.30744 0.0
C711 C 0.36248 0.61332 0.31669 0.0
C712 C 0.37483 0.58233 0.28996 0.0
C713 C 0.35031 0.5161 0.25647 0.0
H714 H 0.37806 0.61064 0.22587 0.0
C715 C 0.34924 0.47115 0.18306 0.0
C716 C 0.36312 0.47096 0.17451 0.0
C717 C 0.34839 0.49027 0.20034 0.0
C718 C 0.37037 0.58289 0.23423 0.0
H719 H 0.33835 0.62706 0.31488 0.0
H720 H 0.33708 0.60032 0.28426 0.0
H721 H 0.37805 0.64064 0.25613 0.0
H722 H 0.38705 0.48821 0.17754 0.0
H723 H 0.38566 0.51882 0.20761 0.0
H724 H 0.34297 0.45639 0.23474 0.0
C725 C 0.34788 0.59912 0.29061 0.0
C726 C 0.37031 0.60052 0.25156 0.0
C727 C 0.34863 0.61478 0.30809 0.0
C728 C 0.37614 0.48871 0.18367 0.0
C729 C 0.37532 0.50683 0.20094 0.0
C730 C 0.3505 0.49764 0.23914 0.0
C731 C 0.361 0.5831 0.28139 0.0
C732 C 0.36039 0.56691 0.26287 0.0
C733 C 0.36142 0.50879 0.20948 0.0
C734 C 0.36065 0.53029 0.22781 0.0
H735 H 0.38641 0.59538 0.31367 0.0
H736 H 0.3851 0.56958 0.28317 0.0
H737 H 0.34261 0.48904 0.26498 0.0
H738 H 0.33899 0.4581 0.17632 0.0
H739 H 0.33746 0.49188 0.20641 0.0
C740 C 0.34956 0.46918 0.80828 0.0
C741 C 0.36343 0.46909 0.81681 0.0
C742 C 0.34871 0.4882 0.79102 0.0
C743 C 0.37071 0.58089 0.75718 0.0
H744 H 0.34293 0.48734 0.72639 0.0
C745 C 0.37583 0.59551 0.68397 0.0
C746 C 0.36274 0.61221 0.67479 0.0
C747 C 0.37513 0.58089 0.70143 0.0
C748 C 0.35063 0.51431 0.73491 0.0
H749 H 0.38736 0.48634 0.81376 0.0
H750 H 0.38599 0.51675 0.78371 0.0
H751 H 0.3433 0.45445 0.75658 0.0
H752 H 0.33862 0.62593 0.67672 0.0
H753 H 0.33738 0.59883 0.7073 0.0
H754 H 0.37838 0.63881 0.73534 0.0
C755 C 0.37565 0.50478 0.79038 0.0
C756 C 0.35083 0.49571 0.75222 0.0
C757 C 0.37646 0.48677 0.80764 0.0
C758 C 0.3489 0.61356 0.68346 0.0
C759 C 0.34817 0.5977 0.70091 0.0
C760 C 0.37065 0.59866 0.73988 0.0
C761 C 0.36175 0.50672 0.78187 0.0
C762 C 0.36099 0.52827 0.76356 0.0
C763 C 0.3613 0.58156 0.71006 0.0
C764 C 0.36071 0.56516 0.72855 0.0
H765 H 0.3393 0.45619 0.81503 0.0
H766 H 0.33779 0.48978 0.78497 0.0
H767 H 0.37841 0.60858 0.76556 0.0
H768 H 0.38668 0.59422 0.67771 0.0
H769 H 0.3854 0.56805 0.70816 0.0
C770 C 0.63203 0.63536 0.80596 0.0
C771 C 0.62129 0.60287 0.81655 0.0
C772 C 0.63266 0.61911 0.78851 0.0
C773 C 0.60908 0.54629 0.75381 0.0
H774 H 0.64678 0.52853 0.72936 0.0
C775 C 0.6317 0.44491 0.68373 0.0
C776 C 0.62067 0.47633 0.67335 0.0
C777 C 0.63247 0.46109 0.70117 0.0
C778 C 0.63617 0.53279 0.73604 0.0
H779 H 0.60314 0.5259 0.81716 0.0
H780 H 0.60442 0.49703 0.78698 0.0
H781 H 0.64694 0.55322 0.76003 0.0
H782 H 0.60211 0.55124 0.67312 0.0
H783 H 0.60361 0.58 0.70329 0.0
H784 H 0.59828 0.52422 0.73005 0.0
C785 C 0.61212 0.53631 0.79201 0.0
C786 C 0.63625 0.54776 0.75357 0.0
C787 C 0.61144 0.55274 0.80938 0.0
C788 C 0.61064 0.52527 0.68073 0.0
C789 C 0.61145 0.54162 0.69809 0.0
C790 C 0.609 0.53122 0.73636 0.0
C791 C 0.6226 0.56987 0.78131 0.0
C792 C 0.62269 0.55455 0.76266 0.0
C793 C 0.62225 0.50918 0.70858 0.0
C794 C 0.62252 0.52449 0.72723 0.0
H795 H 0.63978 0.67423 0.81107 0.0
H796 H 0.64079 0.64636 0.78059 0.0
H797 H 0.59842 0.5521 0.76034 0.0
H798 H 0.6396 0.40696 0.67846 0.0
H799 H 0.64084 0.4347 0.70892 0.0
C800 C 0.13099 0.18793 0.932 0.0
C801 C 0.1191 0.15519 0.92318 0.0
C802 C 0.13118 0.18941 0.94986 0.0
C803 C 0.10632 0.17323 0.98745 0.0
H804 H 0.14332 0.13551 0.01188 0.0
C805 C 0.10739 0.1221 0.05995 0.0
C806 C 0.11904 0.15321 0.06948 0.0
C807 C 0.1076 0.12411 0.04212 0.0
C808 C 0.13294 0.14699 0.00524 0.0
H809 H 0.09811 0.09806 0.92634 0.0
H810 H 0.09855 0.10016 0.95739 0.0
H811 H 0.14333 0.13599 0.9807 0.0
H812 H 0.14008 0.21088 0.06764 0.0
H813 H 0.14036 0.2147 0.03651 0.0
H814 H 0.0959 0.18396 0.01196 0.0
C815 C 0.10763 0.12549 0.95049 0.0
C816 C 0.13294 0.14727 0.98738 0.0
C817 C 0.10743 0.12392 0.93266 0.0
C818 C 0.13093 0.18621 0.06073 0.0
C819 C 0.13114 0.18812 0.04287 0.0
C820 C 0.10631 0.17294 0.00529 0.0
C821 C 0.11949 0.15835 0.9593 0.0
C822 C 0.11961 0.15995 0.97828 0.0
C823 C 0.11946 0.15724 0.03337 0.0
C824 C 0.11959 0.15937 0.0144 0.0
H825 H 0.14015 0.21271 0.92513 0.0
H826 H 0.1404 0.21579 0.95627 0.0
H827 H 0.09591 0.18446 0.98083 0.0
H828 H 0.09806 0.09606 0.06623 0.0
H829 H 0.09853 0.09892 0.03518 0.0
C830 C 0.88006 0.93376 0.93227 0.0
C831 C 0.86831 0.90387 0.92267 0.0
C832 C 0.87992 0.93034 0.9501 0.0
C833 C 0.85403 0.90989 0.98644 0.0
H834 H 0.89062 0.87737 0.01208 0.0
C835 C 0.85447 0.8824 0.06001 0.0
C836 C 0.86611 0.91723 0.06879 0.0
C837 C 0.8547 0.87726 0.0422 0.0
C838 C 0.88033 0.88716 0.0051 0.0
H839 H 0.84736 0.84538 0.92436 0.0
H840 H 0.84722 0.839 0.95544 0.0
H841 H 0.89122 0.87306 0.98094 0.0
H842 H 0.88711 0.97421 0.06563 0.0
H843 H 0.88741 0.96584 0.03461 0.0
H844 H 0.84316 0.92458 0.01059 0.0
C845 C 0.85643 0.86594 0.94916 0.0
C846 C 0.88068 0.88463 0.98727 0.0
C847 C 0.85657 0.86927 0.93132 0.0
C848 C 0.87796 0.94689 0.05932 0.0
C849 C 0.8782 0.94166 0.04152 0.0
C850 C 0.85368 0.91241 0.00428 0.0
C851 C 0.86803 0.89699 0.95875 0.0
C852 C 0.86755 0.8965 0.97773 0.0
C853 C 0.86659 0.90671 0.03275 0.0
C854 C 0.86685 0.90162 0.01381 0.0
H855 H 0.88929 0.96088 0.92607 0.0
H856 H 0.88895 0.9555 0.95711 0.0
H857 H 0.84377 0.9203 0.97947 0.0
H858 H 0.84518 0.85868 0.06688 0.0
H859 H 0.84567 0.84934 0.03583 0.0
C860 C 0.10265 0.93192 0.4325 0.0
C861 C 0.11457 0.90209 0.42313 0.0
C862 C 0.10249 0.92864 0.45031 0.0
C863 C 0.11876 0.83411 0.48728 0.0
H864 H 0.10674 1.00392 0.51188 0.0
C865 C 0.1261 0.86793 0.56045 0.0
C866 C 0.11442 0.90207 0.56938 0.0
C867 C 0.12594 0.86447 0.5426 0.0
C868 C 0.10995 0.95576 0.50521 0.0
H869 H 0.13559 0.84424 0.42522 0.0
H870 H 0.13536 0.83916 0.45635 0.0
H871 H 0.10683 1.00414 0.48079 0.0
H872 H 0.0932 0.95767 0.56648 0.0
H873 H 0.09289 0.95101 0.53546 0.0
H874 H 0.12195 0.78596 0.51179 0.0
C875 C 0.12605 0.8645 0.44986 0.0
C876 C 0.11 0.95588 0.48739 0.0
C877 C 0.12621 0.86774 0.43201 0.0
C878 C 0.10244 0.93135 0.56006 0.0
C879 C 0.10229 0.92792 0.54224 0.0
C880 C 0.11871 0.834 0.50515 0.0
C881 C 0.11426 0.89555 0.45922 0.0
C882 C 0.11434 0.89501 0.4782 0.0
C883 C 0.11412 0.89516 0.53329 0.0
C884 C 0.11425 0.89478 0.51431 0.0
H885 H 0.09343 0.95838 0.42612 0.0
H886 H 0.09311 0.95201 0.45712 0.0
H887 H 0.12202 0.78613 0.48057 0.0
H888 H 0.13551 0.8448 0.5672 0.0
H889 H 0.13528 0.83938 0.53608 0.0
C890 C 0.85347 0.19774 0.56042 0.0
C891 C 0.86508 0.16266 0.56919 0.0
C892 C 0.85363 0.20197 0.5426 0.0
C893 C 0.87909 0.18906 0.50543 0.0
H894 H 0.84238 0.15732 0.47996 0.0
C895 C 0.87856 0.142 0.4326 0.0
C896 C 0.86691 0.17304 0.42306 0.0
C897 C 0.87842 0.14501 0.45043 0.0
C898 C 0.85269 0.16728 0.48689 0.0
H899 H 0.88594 0.10421 0.56599 0.0
H900 H 0.88609 0.11103 0.53498 0.0
H901 H 0.84186 0.1539 0.51109 0.0
H902 H 0.84611 0.23286 0.42486 0.0
H903 H 0.84596 0.23851 0.45596 0.0
H904 H 0.88994 0.2019 0.48122 0.0
C905 C 0.87697 0.1361 0.5419 0.0
C906 C 0.85239 0.16527 0.50473 0.0
C907 C 0.87682 0.13179 0.5597 0.0
C908 C 0.85524 0.20814 0.43178 0.0
C909 C 0.8551 0.21105 0.44962 0.0
C910 C 0.87939 0.19106 0.48759 0.0
C911 C 0.8654 0.17134 0.53314 0.0
C912 C 0.86561 0.17565 0.5142 0.0
C913 C 0.86663 0.17908 0.45915 0.0
C914 C 0.86621 0.17972 0.47811 0.0
H915 H 0.84427 0.22232 0.5673 0.0
H916 H 0.84462 0.23011 0.53623 0.0
H917 H 0.88942 0.19849 0.51236 0.0
H918 H 0.88772 0.11444 0.42634 0.0
H919 H 0.88738 0.11913 0.45739 0.0
C920 C 0.6022 0.65028 0.05886 0.0
C921 C 0.61445 0.67773 0.06806 0.0
C922 C 0.60178 0.6549 0.04106 0.0
C923 C 0.61827 0.74856 0.00399 0.0
H924 H 0.6054 0.58068 0.97928 0.0
C925 C 0.62628 0.71293 0.93095 0.0
C926 C 0.61462 0.67965 0.92187 0.0
C927 C 0.62582 0.71713 0.94879 0.0
C928 C 0.60883 0.62836 0.98597 0.0
H929 H 0.63573 0.73306 0.06569 0.0
H930 H 0.63503 0.74039 0.03462 0.0
H931 H 0.60534 0.5802 0.01035 0.0
H932 H 0.59307 0.62675 0.92447 0.0
H933 H 0.59225 0.63477 0.95545 0.0
H934 H 0.62187 0.79642 0.97951 0.0
C935 C 0.62569 0.7159 0.04122 0.0
C936 C 0.6088 0.62809 0.0038 0.0
C937 C 0.62611 0.71133 0.05904 0.0
C938 C 0.60233 0.65226 0.93101 0.0
C939 C 0.60188 0.6565 0.94881 0.0
C940 C 0.61831 0.74883 0.98612 0.0
C941 C 0.6136 0.68699 0.03201 0.0
C942 C 0.6135 0.68816 0.01303 0.0
C943 C 0.6137 0.68814 0.95793 0.0
C944 C 0.61357 0.68871 0.97691 0.0
H945 H 0.59296 0.6245 0.06536 0.0
H946 H 0.59218 0.63316 0.03438 0.0
H947 H 0.62181 0.79596 0.01073 0.0
H948 H 0.63593 0.7346 0.92434 0.0
H949 H 0.63517 0.74133 0.95544 0.0
C950 C 0.38117 0.43012 0.93202 0.0
C951 C 0.36938 0.39976 0.92256 0.0
C952 C 0.38143 0.42495 0.94982 0.0
C953 C 0.35643 0.39699 0.98674 0.0
H954 H 0.39368 0.36614 0.01125 0.0
C955 C 0.35786 0.36305 0.05997 0.0
C956 C 0.36922 0.39975 0.06878 0.0
C957 C 0.35816 0.35791 0.04216 0.0
C958 C 0.3832 0.37536 0.00459 0.0
H959 H 0.34877 0.33872 0.92449 0.0
H960 H 0.34933 0.32928 0.9555 0.0
H961 H 0.39371 0.3662 0.98007 0.0
H962 H 0.38997 0.45881 0.06568 0.0
H963 H 0.39039 0.45033 0.03465 0.0
H964 H 0.34594 0.40689 0.01123 0.0
C965 C 0.35826 0.35796 0.94914 0.0
C966 C 0.38323 0.37539 0.98673 0.0
C967 C 0.358 0.36307 0.93133 0.0
C968 C 0.38103 0.43009 0.05935 0.0
C969 C 0.38133 0.42488 0.04154 0.0
C970 C 0.35641 0.39696 0.00459 0.0
C971 C 0.36991 0.38932 0.95861 0.0
C972 C 0.36985 0.38663 0.97759 0.0
C973 C 0.36983 0.38925 0.03272 0.0
C974 C 0.36981 0.38657 0.01373 0.0
H975 H 0.39012 0.45884 0.92571 0.0
H976 H 0.39048 0.45041 0.95674 0.0
H977 H 0.34597 0.40694 0.98011 0.0
H978 H 0.34862 0.33873 0.06679 0.0
H979 H 0.34924 0.32924 0.03577 0.0
C980 C 0.62504 0.3659 0.43081 0.0
C981 C 0.61338 0.39944 0.42177 0.0
C982 C 0.62459 0.36165 0.44864 0.0
C983 C 0.60767 0.45059 0.48596 0.0
H984 H 0.62069 0.28275 0.51049 0.0
C985 C 0.60127 0.42854 0.55886 0.0
C986 C 0.61354 0.40087 0.56797 0.0
C987 C 0.60079 0.42401 0.54106 0.0
C988 C 0.61714 0.33021 0.50381 0.0
H989 H 0.59187 0.4528 0.42444 0.0
H990 H 0.59106 0.4447 0.45543 0.0
H991 H 0.62066 0.28237 0.47927 0.0
H992 H 0.6348 0.34526 0.56545 0.0
H993 H 0.63401 0.33808 0.53438 0.0
H994 H 0.60426 0.49874 0.51041 0.0
C995 C 0.60067 0.42278 0.44875 0.0
C996 C 0.61712 0.32999 0.48594 0.0
C997 C 0.60111 0.42707 0.43096 0.0
C998 C 0.62517 0.36715 0.55887 0.0
C999 C 0.62469 0.36267 0.54104 0.0
C1000 C 0.60769 0.45082 0.50379 0.0
C1001 C 0.61249 0.39085 0.45783 0.0
C1002 C 0.61238 0.39021 0.47681 0.0
C1003 C 0.61257 0.39179 0.53192 0.0
C1004 C 0.61241 0.39067 0.51294 0.0
H1005 H 0.63467 0.34405 0.42417 0.0
H1006 H 0.63393 0.33725 0.45526 0.0
H1007 H 0.60423 0.49835 0.47933 0.0
H1008 H 0.59205 0.45443 0.56542 0.0
H1009 H 0.59118 0.44591 0.53444 0.0
C1010 C 0.37996 0.6488 0.55942 0.0
C1011 C 0.3682 0.6794 0.56892 0.0
C1012 C 0.38019 0.65388 0.5416 0.0
C1013 C 0.35517 0.6823 0.50475 0.0
H1014 H 0.39244 0.71199 0.48013 0.0
C1015 C 0.35665 0.71614 0.43147 0.0
C1016 C 0.36802 0.67931 0.42264 0.0
C1017 C 0.35693 0.72113 0.44929 0.0
C1018 C 0.38196 0.70308 0.48682 0.0
H1019 H 0.3476 0.74072 0.56707 0.0
H1020 H 0.34811 0.74999 0.53604 0.0
H1021 H 0.39248 0.71206 0.51131 0.0
H1022 H 0.38873 0.61976 0.42571 0.0
H1023 H 0.38911 0.62799 0.45674 0.0
H1024 H 0.34467 0.67262 0.48029 0.0
C1025 C 0.35705 0.72121 0.54237 0.0
C1026 C 0.38198 0.70312 0.50468 0.0
C1027 C 0.35681 0.7162 0.56018 0.0
C1028 C 0.37979 0.64861 0.43205 0.0
C1029 C 0.38006 0.65367 0.44987 0.0
C1030 C 0.35515 0.68226 0.48689 0.0
C1031 C 0.36868 0.68964 0.53285 0.0
C1032 C 0.3686 0.6923 0.51386 0.0
C1033 C 0.36858 0.68951 0.45872 0.0
C1034 C 0.36856 0.69222 0.47771 0.0
H1035 H 0.38892 0.61999 0.56569 0.0
H1036 H 0.38923 0.62823 0.53466 0.0
H1037 H 0.34471 0.67268 0.51141 0.0
H1038 H 0.34744 0.74073 0.42467 0.0
H1039 H 0.34802 0.74996 0.4557 0.0
C1040 C 0.93714 0.97208 0.13847 0.0
C1041 C 0.92812 0.9999 0.12539 0.0
C1042 C 0.95272 0.98074 0.13807 0.0
C1043 C 0.98337 0.08392 0.11733 0.0
H1044 H 0.00787 0.92448 0.13174 0.0
C1045 C 0.04726 0.07692 0.1057 0.0
C1046 C 0.05625 0.05604 0.11953 0.0
C1047 C 0.0317 0.06747 0.10619 0.0
C1048 C 0.00119 0.96967 0.1278 0.0
H1049 H 0.92823 0.05971 0.1018 0.0
H1050 H 0.95549 0.0738 0.10085 0.0
H1051 H 0.9806 0.91602 0.13328 0.0
H1052 H 0.05613 1.00672 0.1445 0.0
H1053 H 0.02889 0.98965 0.14537 0.0
H1054 H 0.00401 0.1371 0.11165 0.0
C1055 C 0.95055 0.0463 0.11161 0.0
C1056 C 0.98553 0.96501 0.12873 0.0
C1057 C 0.93493 1.03813 0.11211 0.0
C1058 C 0.04946 1.02298 0.13362 0.0
C1059 C 0.03387 1.01321 0.1341 0.0
C1060 C -0.00098 0.08836 0.11629 0.0
C1061 C 0.95969 1.01685 0.12448 0.0
C1062 C 0.97639 1.02213 0.12355 0.0
C1063 C 0.02478 1.03666 0.12053 0.0
C1064 C 0.00812 1.03131 0.12151 0.0
H1065 H 0.93217 0.94263 0.14891 0.0
H1066 H 0.95931 0.95871 0.1484 0.0
H1067 H 0.97675 0.12941 0.11348 0.0
H1068 H 0.05219 0.10247 0.09465 0.0
H1069 H 0.02506 0.08498 0.09541 0.0
C1070 C 0.93505 0.05862 0.35405 0.0
C1071 C 0.92666 0.05642 0.36923 0.0
C1072 C 0.95066 0.0513 0.35441 0.0
C1073 C 0.98274 0.99482 0.38161 0.0
H1074 H 0.00523 0.12046 0.35187 0.0
C1075 C 0.04731 1.02236 0.38612 0.0
C1076 C 0.05508 1.01913 0.37052 0.0
C1077 C 0.03167 1.03008 0.38638 0.0
C1078 C -0.00088 0.0847 0.36017 0.0
H1079 H 0.92792 0.04236 0.39664 0.0
H1080 H 0.95524 1.03024 0.39737 0.0
H1081 H 0.97789 0.12306 0.35139 0.0
H1082 H 0.05275 1.02397 0.343 0.0
H1083 H 0.0255 1.03824 0.34343 0.0
H1084 H 0.00405 0.95693 0.39044 0.0
C1085 C 0.94977 1.03686 0.38512 0.0
C1086 C 0.98343 0.0859 0.35985 0.0
C1087 C 0.93411 0.04387 0.38473 0.0
C1088 C 0.04703 1.0266 0.35521 0.0
C1089 C 0.03143 1.03488 0.35547 0.0
C1090 C -0.00155 0.99388 0.38198 0.0
C1091 C 0.95828 0.04206 0.37 0.0
C1092 C 0.97502 0.04063 0.37047 0.0
C1093 C 0.02353 1.03531 0.37104 0.0
C1094 C 0.00683 1.03854 0.37119 0.0
H1095 H 0.92958 0.06801 0.3419 0.0
H1096 H 0.95678 0.05391 0.34247 0.0
H1097 H 0.97665 0.95867 0.38982 0.0
H1098 H 0.05324 1.0165 0.39811 0.0
H1099 H 0.02594 1.03118 0.39859 0.0
C1100 C 0.04789 0.07187 0.88793 0.0
C1101 C 0.05632 0.0596 0.87304 0.0
C1102 C 0.03227 0.06417 0.88781 0.0
C1103 C 0.00056 0.98735 0.86317 0.0
H1104 H 0.9773 0.13282 0.88636 0.0
C1105 C 0.93667 1.01026 0.85382 0.0
C1106 C 0.92791 1.02114 0.86852 0.0
C1107 C 0.95227 1.01752 0.85445 0.0
C1108 C 0.98362 0.0914 0.87996 0.0
H1109 H 0.05512 1.02753 0.84649 0.0
H1110 H 0.02784 1.0143 0.8462 0.0
H1111 H 0.00465 0.13605 0.88764 0.0
H1112 H 0.9285 0.0506 0.89526 0.0
H1113 H 0.95583 0.06338 0.89642 0.0
H1114 H 0.97954 0.94288 0.85543 0.0
C1115 C 0.03327 1.02928 0.85805 0.0
C1116 C -0.00069 0.0931 0.88072 0.0
C1117 C 0.04891 1.03692 0.85818 0.0
C1118 C 0.93499 0.04226 0.88372 0.0
C1119 C 0.95063 0.04958 0.88436 0.0
C1120 C 0.98488 0.98571 0.86239 0.0
C1121 C 0.02472 0.04413 0.87278 0.0
C1122 C 0.00799 0.04116 0.8723 0.0
C1123 C 0.95949 1.03578 0.86981 0.0
C1124 C 0.9762 1.03786 0.87072 0.0
H1125 H 0.05332 0.08935 0.89957 0.0
H1126 H 0.02609 0.07472 0.89947 0.0
H1127 H 0.00686 0.9459 0.85675 0.0
H1128 H 0.9315 0.9941 0.84191 0.0
H1129 H 0.9587 1.00792 0.84292 0.0
C1130 C 0.9354 0.07062 0.60461 0.0
C1131 C 0.92701 0.06 0.61958 0.0
C1132 C 0.95102 0.06265 0.60472 0.0
C1133 C 0.98276 0.98771 0.62956 0.0
H1134 H 0.00595 0.13154 0.6059 0.0
C1135 C 0.04667 1.01063 0.63864 0.0
C1136 C 0.05538 1.02062 0.62388 0.0
C1137 C 0.03106 1.01803 0.63806 0.0
C1138 C -0.00035 0.09057 0.61243 0.0
H1139 H 0.92825 1.03043 0.64627 0.0
H1140 H 0.95553 1.01666 0.64653 0.0
H1141 H 0.97859 0.13472 0.60464 0.0
H1142 H 0.05471 0.04866 0.59707 0.0
H1143 H 0.02738 0.06161 0.596 0.0
H1144 H 0.00381 0.94369 0.63739 0.0
C1145 C 0.95007 1.0306 0.63464 0.0
C1146 C 0.98396 0.09224 0.61168 0.0
C1147 C 0.93444 1.03856 0.63452 0.0
C1148 C 0.04825 0.04102 0.60866 0.0
C1149 C 0.03261 0.04845 0.60807 0.0
C1150 C -0.00155 0.98608 0.63032 0.0
C1151 C 0.95859 0.04393 0.61982 0.0
C1152 C 0.97531 0.04091 0.62027 0.0
C1153 C 0.0238 1.03551 0.62268 0.0
C1154 C 0.00709 1.03763 0.62182 0.0
H1155 H 0.92995 0.0871 0.5929 0.0
H1156 H 0.95717 0.072 0.593 0.0
H1157 H 0.97648 0.94675 0.63611 0.0
H1158 H 0.05187 0.99503 0.65056 0.0
H1159 H 0.02467 1.00913 0.64963 0.0
C1160 C 0.43549 0.52791 0.10712 0.0
C1161 C 0.42783 0.52011 0.12268 0.0
C1162 C 0.45116 0.53423 0.10683 0.0
C1163 C 0.48451 0.49295 0.13348 0.0
H1164 H 0.50555 0.60932 0.10042 0.0
C1165 C 0.54805 0.55389 0.13752 0.0
C1166 C 0.55629 0.55464 0.12222 0.0
C1167 C 0.53245 0.54552 0.13726 0.0
C1168 C 0.49983 0.57588 0.1096 0.0
H1169 H 0.43039 0.51632 0.15018 0.0
H1170 H 0.45761 0.52968 0.14976 0.0
H1171 H 0.47815 0.60867 0.10081 0.0
H1172 H 0.5548 0.54519 0.09469 0.0
H1173 H 0.52749 0.53051 0.09421 0.0
H1174 H 0.50622 0.46116 0.14243 0.0
C1175 C 0.45165 0.52886 0.13772 0.0
C1176 C 0.48411 0.57553 0.10983 0.0
C1177 C 0.43602 0.52201 0.13798 0.0
C1178 C 0.54872 0.54457 0.10668 0.0
C1179 C 0.53308 0.53684 0.1064 0.0
C1180 C 0.50021 0.49371 0.13331 0.0
C1181 C 0.45948 0.5333 0.12212 0.0
C1182 C 0.47623 0.53426 0.12183 0.0
C1183 C 0.52475 0.53834 0.12168 0.0
C1184 C 0.50806 0.5353 0.1214 0.0
H1185 H 0.42945 0.52612 0.09512 0.0
H1186 H 0.45677 0.53699 0.09457 0.0
H1187 H 0.47887 0.4592 0.14264 0.0
H1188 H 0.5536 0.56187 0.14968 0.0
H1189 H 0.52636 0.54742 0.14924 0.0
C1190 C 0.43451 0.55118 0.38402 0.0
C1191 C 0.42679 0.55891 0.36851 0.0
C1192 C 0.45017 0.54471 0.38421 0.0
C1193 C 0.48344 0.58545 0.35729 0.0
H1194 H 0.50461 0.46917 0.39024 0.0
C1195 C 0.54697 0.52421 0.35276 0.0
C1196 C 0.55529 0.52348 0.36799 0.0
C1197 C 0.53138 0.53258 0.35314 0.0
C1198 C 0.49886 0.50259 0.38109 0.0
H1199 H 0.42926 0.56242 0.34099 0.0
H1200 H 0.45648 0.54883 0.34123 0.0
H1201 H 0.47722 0.47012 0.39008 0.0
H1202 H 0.55391 0.53291 0.39553 0.0
H1203 H 0.5266 0.54759 0.39623 0.0
H1204 H 0.5051 0.61695 0.34815 0.0
C1205 C 0.45056 0.54981 0.35332 0.0
C1206 C 0.48314 0.5031 0.38098 0.0
C1207 C 0.43493 0.5568 0.35315 0.0
C1208 C 0.54777 0.53352 0.38359 0.0
C1209 C 0.53214 0.54125 0.384 0.0
C1210 C 0.49914 0.58454 0.35733 0.0
C1211 C 0.45844 0.54543 0.36886 0.0
C1212 C 0.47521 0.54434 0.36903 0.0
C1213 C 0.52374 0.53979 0.36879 0.0
C1214 C 0.50704 0.54297 0.3692 0.0
H1215 H 0.42851 0.55313 0.39606 0.0
H1216 H 0.45583 0.542 0.39643 0.0
H1217 H 0.47776 0.61918 0.34815 0.0
H1218 H 0.55248 0.51625 0.34055 0.0
H1219 H 0.52524 0.5307 0.34121 0.0
C1220 C 0.43619 0.52262 0.85327 0.0
C1221 C 0.42794 0.52159 0.86855 0.0
C1222 C 0.45178 0.53122 0.85355 0.0
C1223 C 0.4844 0.50115 0.88124 0.0
H1224 H 0.50531 0.61807 0.84819 0.0
C1225 C 0.54874 0.54948 0.88365 0.0
C1226 C 0.55638 0.55723 0.86807 0.0
C1227 C 0.53308 0.54315 0.88396 0.0
C1228 C 0.49968 0.58426 0.85736 0.0
H1229 H 0.42939 0.53081 0.89609 0.0
H1230 H 0.4567 0.54591 0.89661 0.0
H1231 H 0.47796 0.61587 0.84842 0.0
H1232 H 0.55379 0.56095 0.84058 0.0
H1233 H 0.52657 0.54759 0.84104 0.0
H1234 H 0.5061 0.46855 0.89002 0.0
C1235 C 0.45112 0.53961 0.88441 0.0
C1236 C 0.48399 0.58337 0.85753 0.0
C1237 C 0.43549 0.53163 0.88411 0.0
C1238 C 0.54817 0.5553 0.85278 0.0
C1239 C 0.53255 0.54845 0.85307 0.0
C1240 C 0.50012 0.50165 0.88099 0.0
C1241 C 0.45947 0.53838 0.86914 0.0
C1242 C 0.47616 0.54167 0.86943 0.0
C1243 C 0.52474 0.54402 0.86868 0.0
C1244 C 0.50798 0.543 0.869 0.0
H1245 H 0.43066 0.51468 0.8411 0.0
H1246 H 0.45788 0.52952 0.84157 0.0
H1247 H 0.47871 0.46763 0.89041 0.0
H1248 H 0.55479 0.55129 0.89564 0.0
H1249 H 0.52748 0.5404 0.89623 0.0
C1250 C 0.43522 0.5558 0.63776 0.0
C1251 C 0.42696 0.55762 0.6225 0.0
C1252 C 0.45082 0.54747 0.63741 0.0
C1253 C 0.4834 0.57966 0.60972 0.0
H1254 H 0.50445 0.46114 0.64229 0.0
C1255 C 0.54776 0.53188 0.60685 0.0
C1256 C 0.55544 0.5233 0.62237 0.0
C1257 C 0.53209 0.5382 0.60663 0.0
C1258 C 0.49878 0.4954 0.63326 0.0
H1259 H 0.42842 0.55007 0.59493 0.0
H1260 H 0.45574 0.53543 0.59429 0.0
H1261 H 0.47711 0.46303 0.64219 0.0
H1262 H 0.55291 0.51813 0.64985 0.0
H1263 H 0.52568 0.53144 0.64957 0.0
H1264 H 0.50505 0.61299 0.60095 0.0
C1265 C 0.45015 0.54092 0.60652 0.0
C1266 C 0.48309 0.49612 0.63316 0.0
C1267 C 0.43452 0.54863 0.60689 0.0
C1268 C 0.54726 0.52442 0.6377 0.0
C1269 C 0.53163 0.53126 0.6375 0.0
C1270 C 0.49911 0.57933 0.60989 0.0
C1271 C 0.45851 0.54137 0.62177 0.0
C1272 C 0.4752 0.53838 0.62142 0.0
C1273 C 0.52379 0.53648 0.62195 0.0
C1274 C 0.50703 0.5374 0.62172 0.0
H1275 H 0.42967 0.56294 0.64997 0.0
H1276 H 0.45691 0.54856 0.64937 0.0
H1277 H 0.47766 0.61362 0.60068 0.0
H1278 H 0.55379 0.5307 0.59483 0.0
H1279 H 0.52647 0.54158 0.5944 0.0
C1280 C 0.13846 0.90322 0.11849 0.0
C1281 C 0.1264 0.95104 0.11982 0.0
C1282 C 0.13605 0.83002 0.11884 0.0
C1283 C 0.1089 0.69452 0.13313 0.0
H1284 H 0.13272 0.56954 0.1044 0.0
C1285 C 0.09661 0.39481 0.12733 0.0
C1286 C 0.10869 0.34702 0.12618 0.0
C1287 C 0.099 0.46802 0.12691 0.0
C1288 C 0.12613 0.60356 0.11269 0.0
H1289 H 0.10228 0.95983 0.12232 0.0
H1290 H 0.09794 0.83088 0.12283 0.0
H1291 H 0.13569 0.69788 0.10202 0.0
H1292 H 0.13283 0.33838 0.12391 0.0
H1293 H 0.13713 0.46735 0.12324 0.0
H1294 H 0.09933 0.60018 0.14378 0.0
C1295 C 0.10933 0.85033 0.12167 0.0
C1296 C 0.12778 0.6773 0.11129 0.0
C1297 C 0.11177 0.92409 0.12128 0.0
C1298 C 0.12332 0.37406 0.12481 0.0
C1299 C 0.12574 0.44783 0.12432 0.0
C1300 C 0.10724 0.62078 0.13452 0.0
C1301 C 0.12149 0.80235 0.12053 0.0
C1302 C 0.11921 0.72383 0.12151 0.0
C1303 C 0.11356 0.49574 0.12531 0.0
C1304 C 0.11582 0.57425 0.12431 0.0
H1305 H 0.14988 0.9224 0.11742 0.0
H1306 H 0.14571 0.79509 0.11821 0.0
H1307 H 0.10231 0.72851 0.14143 0.0
H1308 H 0.08518 0.37559 0.12834 0.0
H1309 H 0.08933 0.50292 0.12743 0.0
C1310 C 0.87132 0.15206 0.11727 0.0
C1311 C 0.85686 0.12399 0.11941 0.0
C1312 C 0.87352 0.22596 0.11715 0.0
C1313 C 0.85221 0.39696 0.11257 0.0
H1314 H 0.88817 0.47946 0.13207 0.0
C1315 C 0.85967 0.69999 0.12558 0.0
C1316 C 0.87309 0.72876 0.11923 0.0
C1317 C 0.8575 0.62612 0.12572 0.0
C1318 C 0.87807 0.45704 0.12655 0.0
H1319 H 0.83344 0.15064 0.12341 0.0
H1320 H 0.83726 0.27792 0.12384 0.0
H1321 H 0.8851 0.35062 0.13188 0.0
H1322 H 0.89476 0.70308 0.1081 0.0
H1323 H 0.89109 0.57494 0.10872 0.0
H1324 H 0.84509 0.50388 0.10767 0.0
C1325 C 0.84691 0.24406 0.12167 0.0
C1326 C 0.87635 0.38312 0.12631 0.0
C1327 C 0.84472 0.17075 0.12158 0.0
C1328 C 0.88428 0.68253 0.1131 0.0
C1329 C 0.88224 0.60908 0.11353 0.0
C1330 C 0.85383 0.47084 0.11307 0.0
C1331 C 0.86131 0.27304 0.11933 0.0
C1332 C 0.86339 0.3519 0.1193 0.0
C1333 C 0.86884 0.57998 0.11982 0.0
C1334 C 0.8668 0.50165 0.12 0.0
H1335 H 0.88086 0.11708 0.11556 0.0
H1336 H 0.88476 0.24607 0.11512 0.0
H1337 H 0.84221 0.37528 0.1067 0.0
H1338 H 0.85088 0.73445 0.13039 0.0
H1339 H 0.84706 0.60499 0.13067 0.0
C1340 C 0.13721 0.16979 0.37421 0.0
C1341 C 0.12517 0.12209 0.37272 0.0
C1342 C 0.13481 0.243 0.37378 0.0
C1343 C 0.10798 0.37926 0.35915 0.0
H1344 H 0.13102 0.50258 0.389 0.0
C1345 C 0.09544 0.67863 0.36534 0.0
C1346 C 0.10746 0.72632 0.36701 0.0
C1347 C 0.09784 0.60541 0.3657 0.0
C1348 C 0.12465 0.46906 0.3804 0.0
H1349 H 0.1011 0.11345 0.36967 0.0
H1350 H 0.09678 0.24252 0.36899 0.0
H1351 H 0.13399 0.37412 0.39103 0.0
H1352 H 0.13151 0.73488 0.3703 0.0
H1353 H 0.13584 0.60585 0.37081 0.0
H1354 H 0.09865 0.47419 0.34851 0.0
C1355 C 0.10814 0.22293 0.37038 0.0
C1356 C 0.1263 0.39525 0.38161 0.0
C1357 C 0.11057 0.14914 0.37088 0.0
C1358 C 0.12205 0.69923 0.36894 0.0
C1359 C 0.12448 0.62543 0.36935 0.0
C1360 C 0.10633 0.45308 0.35795 0.0
C1361 C 0.12027 0.27078 0.37182 0.0
C1362 C 0.11801 0.34932 0.37098 0.0
C1363 C 0.11236 0.57759 0.36776 0.0
C1364 C 0.11463 0.49902 0.36858 0.0
H1365 H 0.14861 0.15051 0.37557 0.0
H1366 H 0.14445 0.27786 0.37462 0.0
H1367 H 0.10161 0.34571 0.35056 0.0
H1368 H 0.08405 0.69794 0.3639 0.0
H1369 H 0.08821 0.57057 0.36473 0.0
C1370 C 0.85978 0.37673 0.36933 0.0
C1371 C 0.87443 0.34962 0.36819 0.0
C1372 C 0.85735 0.45052 0.36984 0.0
C1373 C 0.87713 0.62066 0.37921 0.0
H1374 H 0.84452 0.70598 0.35377 0.0
C1375 C 0.87104 0.92688 0.37071 0.0
C1376 C 0.8564 0.95411 0.37187 0.0
C1377 C 0.87345 0.85306 0.3703 0.0
C1378 C 0.85361 0.68303 0.36109 0.0
H1379 H 0.89797 0.37801 0.36649 0.0
H1380 H 0.89377 0.50538 0.36716 0.0
H1381 H 0.84774 0.57736 0.35338 0.0
H1382 H 0.83286 0.92596 0.37372 0.0
H1383 H 0.83702 0.79851 0.37321 0.0
H1384 H 0.88301 0.72635 0.38692 0.0
C1385 C 0.88413 0.47051 0.36798 0.0
C1386 C 0.85543 0.60912 0.36089 0.0
C1387 C 0.88653 0.3973 0.36746 0.0
C1388 C 0.84429 0.90655 0.37274 0.0
C1389 C 0.84666 0.83331 0.37232 0.0
C1390 C 0.87532 0.69457 0.37941 0.0
C1391 C 0.86954 0.49833 0.36927 0.0
C1392 C 0.86723 0.57691 0.36992 0.0
C1393 C 0.86124 0.80537 0.37098 0.0
C1394 C 0.86352 0.72678 0.37037 0.0
H1395 H 0.85026 0.34108 0.36997 0.0
H1396 H 0.84595 0.47008 0.37096 0.0
H1397 H 0.88623 0.59772 0.38654 0.0
H1398 H 0.88057 0.96245 0.36997 0.0
H1399 H 0.88483 0.83339 0.36916 0.0
C1400 C 0.87213 0.15316 0.8705 0.0
C1401 C 0.85752 0.12599 0.8719 0.0
C1402 C 0.87451 0.22697 0.87004 0.0
C1403 C 0.85449 0.39677 0.86106 0.0
H1404 H 0.88739 0.48273 0.88591 0.0
C1405 C 0.86074 0.70339 0.86894 0.0
C1406 C 0.87538 0.73027 0.86758 0.0
C1407 C 0.8583 0.62963 0.86952 0.0
C1408 C 0.87822 0.4596 0.87875 0.0
H1409 H 0.834 0.15425 0.87415 0.0
H1410 H 0.8381 0.28167 0.87356 0.0
H1411 H 0.88422 0.35413 0.88644 0.0
H1412 H 0.89889 0.70151 0.86553 0.0
H1413 H 0.89468 0.57424 0.86631 0.0
H1414 H 0.8485 0.50223 0.85335 0.0
C1415 C 0.84774 0.24682 0.87251 0.0
C1416 C 0.87643 0.38572 0.87903 0.0
C1417 C 0.8454 0.1736 0.87298 0.0
C1418 C 0.88747 0.6824 0.86668 0.0
C1419 C 0.88506 0.60925 0.86726 0.0
C1420 C 0.85628 0.47067 0.86077 0.0
C1421 C 0.8623 0.27471 0.87091 0.0
C1422 C 0.86453 0.35327 0.87021 0.0
C1423 C 0.87048 0.58165 0.8688 0.0
C1424 C 0.86819 0.50311 0.86958 0.0
H1425 H 0.88166 0.11756 0.86958 0.0
H1426 H 0.88587 0.2466 0.86869 0.0
H1427 H 0.84532 0.37362 0.8539 0.0
H1428 H 0.85124 0.73919 0.86972 0.0
H1429 H 0.84692 0.61024 0.87083 0.0
C1430 C 0.12343 0.37666 0.86804 0.0
C1431 C 0.1088 0.34961 0.86668 0.0
C1432 C 0.12585 0.45044 0.86845 0.0
C1433 C 0.10743 0.62301 0.85803 0.0
H1434 H 0.13565 0.70108 0.89066 0.0
C1435 C 0.11189 0.92668 0.87109 0.0
C1436 C 0.12651 0.95361 0.87264 0.0
C1437 C 0.10945 0.85292 0.87071 0.0
C1438 C 0.12781 0.68022 0.88136 0.0
H1439 H 0.0853 0.37812 0.86447 0.0
H1440 H 0.08945 0.50549 0.86525 0.0
H1441 H 0.1327 0.57267 0.88837 0.0
H1442 H 0.14998 0.92501 0.87522 0.0
H1443 H 0.14579 0.79769 0.87446 0.0
H1444 H 0.10256 0.73053 0.851 0.0
C1445 C 0.09911 0.47058 0.86582 0.0
C1446 C 0.12617 0.60645 0.88001 0.0
C1447 C 0.09672 0.39736 0.86548 0.0
C1448 C 0.13856 0.90582 0.87408 0.0
C1449 C 0.13615 0.83262 0.87374 0.0
C1450 C 0.10909 0.69678 0.85937 0.0
C1451 C 0.11368 0.49831 0.8674 0.0
C1452 C 0.11594 0.57682 0.86834 0.0
C1453 C 0.12159 0.80496 0.87196 0.0
C1454 C 0.11931 0.72643 0.87103 0.0
H1455 H 0.13293 0.341 0.86898 0.0
H1456 H 0.13724 0.46999 0.86953 0.0
H1457 H 0.09958 0.60211 0.84874 0.0
H1458 H 0.10241 0.96244 0.86994 0.0
H1459 H 0.09806 0.83346 0.86948 0.0
C1460 C 0.84477 0.90854 0.61824 0.0
C1461 C 0.85684 0.95617 0.61954 0.0
C1462 C 0.84714 0.83532 0.6188 0.0
C1463 C 0.87598 0.69581 0.61333 0.0
H1464 H 0.84773 0.58145 0.63912 0.0
C1465 C 0.88682 0.39955 0.62664 0.0
C1466 C 0.87473 0.35193 0.6256 0.0
C1467 C 0.88446 0.47277 0.62603 0.0
C1468 C 0.85561 0.61238 0.63168 0.0
H1469 H 0.88096 0.96462 0.62218 0.0
H1470 H 0.88521 0.83561 0.62322 0.0
H1471 H 0.84449 0.70995 0.63788 0.0
H1472 H 0.85059 0.34357 0.62338 0.0
H1473 H 0.84634 0.47251 0.62217 0.0
H1474 H 0.88708 0.59826 0.6071 0.0
C1475 C 0.87386 0.85521 0.62166 0.0
C1476 C 0.85378 0.68622 0.63099 0.0
C1477 C 0.87146 0.929 0.6211 0.0
C1478 C 0.8601 0.37915 0.62422 0.0
C1479 C 0.85771 0.45294 0.62359 0.0
C1480 C 0.8778 0.62196 0.61401 0.0
C1481 C 0.86168 0.80747 0.62071 0.0
C1482 C 0.86393 0.72896 0.62178 0.0
C1483 C 0.86991 0.50067 0.62431 0.0
C1484 C 0.86766 0.57921 0.62323 0.0
H1485 H 0.83337 0.9279 0.61694 0.0
H1486 H 0.83753 0.80044 0.61766 0.0
H1487 H 0.88386 0.72678 0.6059 0.0
H1488 H 0.89823 0.38018 0.62781 0.0
H1489 H 0.89409 0.50759 0.627 0.0
C1490 C 0.11106 0.15165 0.62163 0.0
C1491 C 0.12568 0.12433 0.62015 0.0
C1492 C 0.10869 0.22549 0.62209 0.0
C1493 C 0.12872 0.39525 0.63094 0.0
H1494 H 0.09576 0.48103 0.60617 0.0
C1495 C 0.12246 0.70173 0.62304 0.0
C1496 C 0.10782 0.72878 0.62446 0.0
C1497 C 0.1249 0.62794 0.62244 0.0
C1498 C 0.10496 0.45795 0.61331 0.0
H1499 H 0.14919 0.15233 0.61777 0.0
H1500 H 0.14508 0.27979 0.61837 0.0
H1501 H 0.09893 0.35238 0.60567 0.0
H1502 H 0.08432 0.7003 0.62659 0.0
H1503 H 0.08852 0.57298 0.62578 0.0
H1504 H 0.13474 0.5008 0.63861 0.0
C1505 C 0.13544 0.24505 0.61948 0.0
C1506 C 0.10674 0.38404 0.61304 0.0
C1507 C 0.13779 0.17181 0.619 0.0
C1508 C 0.09574 0.68106 0.6254 0.0
C1509 C 0.09814 0.60788 0.6248 0.0
C1510 C 0.12694 0.46916 0.63122 0.0
C1511 C 0.1209 0.27309 0.62114 0.0
C1512 C 0.11866 0.35167 0.62183 0.0
C1513 C 0.11272 0.5801 0.6232 0.0
C1514 C 0.11501 0.50154 0.62244 0.0
H1515 H 0.10154 0.11615 0.6226 0.0
H1516 H 0.09733 0.24525 0.62349 0.0
H1517 H 0.13792 0.37215 0.63808 0.0
H1518 H 0.13197 0.73741 0.62223 0.0
H1519 H 0.13627 0.60841 0.62109 0.0
C1520 C 0.59642 0.89546 0.12589 0.0
C1521 C 0.60848 0.84785 0.12418 0.0
C1522 C 0.59873 0.96872 0.12533 0.0
C1523 C 0.62763 0.10785 0.13037 0.0
H1524 H 0.59878 0.22403 0.10592 0.0
C1525 C 0.63828 0.40441 0.1173 0.0
C1526 C 0.62624 0.45236 0.11862 0.0
C1527 C 0.63588 0.33127 0.11805 0.0
C1528 C 0.60683 0.19259 0.113 0.0
H1529 H 0.63251 0.8396 0.12062 0.0
H1530 H 0.63667 0.96864 0.11961 0.0
H1531 H 0.59559 0.09546 0.10679 0.0
H1532 H 0.60217 0.46142 0.12166 0.0
H1533 H 0.59787 0.33253 0.1231 0.0
H1534 H 0.63885 0.20493 0.13661 0.0
C1535 C 0.62537 0.94897 0.12153 0.0
C1536 C 0.60503 0.1187 0.11347 0.0
C1537 C 0.62303 0.87513 0.12207 0.0
C1538 C 0.61164 0.42555 0.12055 0.0
C1539 C 0.60921 0.35181 0.12132 0.0
C1540 C 0.62941 0.18174 0.12992 0.0
C1541 C 0.6132 0.99668 0.12301 0.0
C1542 C 0.6154 0.07529 0.12217 0.0
C1543 C 0.62135 0.30373 0.1202 0.0
C1544 C 0.61907 0.22517 0.12118 0.0
H1545 H 0.58507 0.87606 0.12762 0.0
H1546 H 0.58913 1.00354 0.12686 0.0
H1547 H 0.63568 0.07636 0.13742 0.0
H1548 H 0.64967 0.42346 0.11571 0.0
H1549 H 0.64547 0.29621 0.11678 0.0
C1550 C 0.37243 0.651 0.12119 0.0
C1551 C 0.35784 0.62412 0.11914 0.0
C1552 C 0.37487 0.72477 0.12166 0.0
C1553 C 0.35689 0.89691 0.10994 0.0
H1554 H 0.38406 0.97674 0.14346 0.0
C1555 C 0.36087 0.20125 0.12249 0.0
C1556 C 0.37541 0.22838 0.12475 0.0
C1557 C 0.35849 0.12744 0.12203 0.0
C1558 C 0.37652 0.95537 0.13391 0.0
H1559 H 0.33444 0.65283 0.11592 0.0
H1560 H 0.33863 0.78013 0.11682 0.0
H1561 H 0.38115 0.84821 0.14147 0.0
H1562 H 0.39878 0.20001 0.12836 0.0
H1563 H 0.39469 0.07265 0.12743 0.0
H1564 H 0.35227 1.00403 0.10236 0.0
C1565 C 0.34825 0.74514 0.11785 0.0
C1566 C 0.3749 0.88153 0.13274 0.0
C1567 C 0.34583 0.67196 0.11744 0.0
C1568 C 0.38743 0.1807 0.12668 0.0
C1569 C 0.38507 0.10747 0.12626 0.0
C1570 C 0.35852 0.97075 0.1111 0.0
C1571 C 0.36276 0.77275 0.11999 0.0
C1572 C 0.36504 0.85128 0.12076 0.0
C1573 C 0.37059 0.07962 0.1239 0.0
C1574 C 0.36837 1.00103 0.12309 0.0
H1575 H 0.38187 0.61519 0.12256 0.0
H1576 H 0.38622 0.74423 0.1232 0.0
H1577 H 0.34934 0.87552 0.1004 0.0
H1578 H 0.35143 0.23686 0.1209 0.0
H1579 H 0.34716 0.10785 0.12032 0.0
C1580 C 0.6222 0.20333 0.3678 0.0
C1581 C 0.60764 0.23047 0.36561 0.0
C1582 C 0.62459 0.12952 0.36853 0.0
C1583 C 0.60424 0.95988 0.37681 0.0
H1584 H 0.63839 0.87289 0.35434 0.0
C1585 C 0.61086 0.65291 0.36984 0.0
C1586 C 0.62542 0.62572 0.37201 0.0
C1587 C 0.60849 0.72672 0.36911 0.0
C1588 C 0.62886 0.89631 0.36084 0.0
H1589 H 0.58426 0.20202 0.36218 0.0
H1590 H 0.5884 0.07461 0.36322 0.0
H1591 H 0.63519 1.00144 0.35324 0.0
H1592 H 0.64881 0.65404 0.37541 0.0
H1593 H 0.64469 0.78147 0.3744 0.0
H1594 H 0.5979 0.85475 0.38441 0.0
C1595 C 0.59797 0.1095 0.3647 0.0
C1596 C 0.62705 0.9702 0.36024 0.0
C1597 C 0.59561 0.18273 0.36397 0.0
C1598 C 0.63746 0.67338 0.37364 0.0
C1599 C 0.63511 0.74662 0.37292 0.0
C1600 C 0.60605 0.88599 0.37742 0.0
C1601 C 0.61245 0.08166 0.36714 0.0
C1602 C 0.6147 1.00305 0.36818 0.0
C1603 C 0.62063 0.77452 0.37051 0.0
C1604 C 0.6184 0.85314 0.36947 0.0
H1605 H 0.63165 0.23899 0.36917 0.0
H1606 H 0.63589 0.11001 0.37053 0.0
H1607 H 0.5947 0.9833 0.38332 0.0
H1608 H 0.6014 0.61728 0.36848 0.0
H1609 H 0.59719 0.74627 0.36713 0.0
C1610 C 0.35987 0.87867 0.36887 0.0
C1611 C 0.37447 0.8515 0.36708 0.0
C1612 C 0.35747 0.95248 0.36949 0.0
C1613 C 0.3776 0.12235 0.37812 0.0
H1614 H 0.34411 0.20833 0.35433 0.0
C1615 C 0.3712 0.42884 0.37036 0.0
C1616 C 0.3566 0.45604 0.37212 0.0
C1617 C 0.37359 0.35503 0.36979 0.0
C1618 C 0.35345 0.18519 0.3612 0.0
H1619 H 0.39793 0.87982 0.36429 0.0
H1620 H 0.39377 1.00723 0.36514 0.0
H1621 H 0.34731 0.07972 0.35359 0.0
H1622 H 0.33314 0.42781 0.37493 0.0
H1623 H 0.33729 0.30038 0.37417 0.0
H1624 H 0.38374 0.22782 0.38573 0.0
C1625 C 0.38417 0.97237 0.36639 0.0
C1626 C 0.35526 0.11129 0.3608 0.0
C1627 C 0.38654 0.89915 0.36577 0.0
C1628 C 0.34452 0.40844 0.37347 0.0
C1629 C 0.34689 0.33521 0.37291 0.0
C1630 C 0.37579 0.19625 0.37852 0.0
C1631 C 0.36963 1.00025 0.36838 0.0
C1632 C 0.36737 0.07883 0.36923 0.0
C1633 C 0.36142 0.30729 0.37093 0.0
C1634 C 0.36368 0.22871 0.37009 0.0
H1635 H 0.35038 0.84305 0.36998 0.0
H1636 H 0.34612 0.97207 0.37114 0.0
H1637 H 0.38694 0.09921 0.38499 0.0
H1638 H 0.38069 0.46444 0.36923 0.0
H1639 H 0.38494 0.3354 0.36815 0.0
C1640 C 0.37261 0.65052 0.87003 0.0
C1641 C 0.35799 0.62365 0.87173 0.0
C1642 C 0.37503 0.72428 0.86938 0.0
C1643 C 0.35492 0.89429 0.86063 0.0
H1644 H 0.38837 0.98037 0.88448 0.0
C1645 C 0.36119 0.20075 0.86871 0.0
C1646 C 0.37576 0.22795 0.86681 0.0
C1647 C 0.35883 0.12694 0.86924 0.0
C1648 C 0.37903 0.95718 0.8776 0.0
H1649 H 0.33453 0.6524 0.87434 0.0
H1650 H 0.33872 0.77966 0.87346 0.0
H1651 H 0.3852 0.85176 0.88517 0.0
H1652 H 0.39921 0.19966 0.86377 0.0
H1653 H 0.39512 0.07223 0.8645 0.0
H1654 H 0.34874 0.99974 0.85309 0.0
C1655 C 0.34832 0.74466 0.87228 0.0
C1656 C 0.37725 0.88329 0.87797 0.0
C1657 C 0.34593 0.67151 0.87292 0.0
C1658 C 0.38784 0.18031 0.86532 0.0
C1659 C 0.38551 0.10709 0.86587 0.0
C1660 C 0.3567 0.96817 0.86027 0.0
C1661 C 0.36287 0.77227 0.87038 0.0
C1662 C 0.36514 0.85081 0.86952 0.0
C1663 C 0.37101 0.07921 0.86795 0.0
C1664 C 0.36879 1.00065 0.86873 0.0
H1665 H 0.3821 0.61471 0.86903 0.0
H1666 H 0.38639 0.74366 0.86779 0.0
H1667 H 0.34559 0.87114 0.85373 0.0
H1668 H 0.3517 0.23633 0.86999 0.0
H1669 H 0.34751 0.1073 0.87097 0.0
C1670 C 0.61198 0.42662 0.86976 0.0
C1671 C 0.62655 0.45362 0.87182 0.0
C1672 C 0.60958 0.35283 0.86901 0.0
C1673 C 0.62989 0.18282 0.86055 0.0
H1674 H 0.59583 0.0966 0.88322 0.0
C1675 C 0.62329 0.87607 0.86774 0.0
C1676 C 0.60874 0.84896 0.86558 0.0
C1677 C 0.62568 0.94988 0.86841 0.0
C1678 C 0.60534 0.1198 0.87667 0.0
H1679 H 0.64996 0.425 0.875 0.0
H1680 H 0.64581 0.29763 0.87395 0.0
H1681 H 0.59904 0.22513 0.88429 0.0
H1682 H 0.58535 0.87746 0.86216 0.0
H1683 H 0.58948 1.00488 0.8631 0.0
H1684 H 0.6362 0.07747 0.85295 0.0
C1685 C 0.63623 0.33259 0.87257 0.0
C1686 C 0.60715 0.19369 0.87725 0.0
C1687 C 0.63859 0.4058 0.87331 0.0
C1688 C 0.59671 0.89672 0.86392 0.0
C1689 C 0.59905 0.96996 0.8646 0.0
C1690 C 0.62808 0.10894 0.85997 0.0
C1691 C 0.62173 0.30487 0.87027 0.0
C1692 C 0.61947 0.22627 0.86924 0.0
C1693 C 0.61353 0.99776 0.86699 0.0
C1694 C 0.61577 0.07637 0.86799 0.0
H1695 H 0.60251 0.46236 0.86852 0.0
H1696 H 0.59826 0.33343 0.86712 0.0
H1697 H 0.6394 0.20601 0.85399 0.0
H1698 H 0.63276 0.84039 0.86913 0.0
H1699 H 0.63698 0.96938 0.87038 0.0
C1700 C 0.36005 0.87809 0.62284 0.0
C1701 C 0.37462 0.85098 0.62489 0.0
C1702 C 0.35763 0.9519 0.62236 0.0
C1703 C 0.37572 0.12424 0.63389 0.0
H1704 H 0.34818 0.20337 0.6007 0.0
C1705 C 0.37148 0.42832 0.62116 0.0
C1706 C 0.3569 0.4554 0.61918 0.0
C1707 C 0.37391 0.35453 0.62163 0.0
C1708 C 0.35583 0.1822 0.61016 0.0
H1709 H 0.39803 0.87939 0.6281 0.0
H1710 H 0.39388 1.00676 0.62716 0.0
H1711 H 0.35116 0.07489 0.60269 0.0
H1712 H 0.33348 0.42698 0.61607 0.0
H1713 H 0.33765 0.2996 0.61699 0.0
H1714 H 0.38038 0.23156 0.64135 0.0
C1715 C 0.38425 0.97192 0.62616 0.0
C1716 C 0.35749 0.10837 0.61133 0.0
C1717 C 0.38664 0.89869 0.62658 0.0
C1718 C 0.34487 0.40769 0.61753 0.0
C1719 C 0.34727 0.33447 0.61795 0.0
C1720 C 0.37406 0.19807 0.63271 0.0
C1721 C 0.36974 0.99975 0.62401 0.0
C1722 C 0.36747 0.07834 0.62319 0.0
C1723 C 0.3618 0.30667 0.62004 0.0
C1724 C 0.36407 0.22809 0.62085 0.0
H1725 H 0.35059 0.84244 0.62145 0.0
H1726 H 0.34628 0.97147 0.62082 0.0
H1727 H 0.38336 0.10309 0.64335 0.0
H1728 H 0.38095 0.46401 0.62248 0.0
H1729 H 0.38527 0.33496 0.62312 0.0
C1730 C 0.63755 0.67391 0.61739 0.0
C1731 C 0.62551 0.62612 0.61864 0.0
C1732 C 0.63516 0.7471 0.61816 0.0
C1733 C 0.6061 0.88601 0.6131 0.0
H1734 H 0.63497 1.0024 0.63748 0.0
C1735 C 0.59568 0.18344 0.62602 0.0
C1736 C 0.60774 0.23092 0.62425 0.0
C1737 C 0.598 0.11014 0.62547 0.0
C1738 C 0.6269 0.97086 0.63044 0.0
H1739 H 0.60143 0.61737 0.62162 0.0
H1740 H 0.59714 0.74632 0.62312 0.0
H1741 H 0.63814 0.87379 0.63667 0.0
H1742 H 0.63175 0.2389 0.62058 0.0
H1743 H 0.63592 0.10981 0.61959 0.0
H1744 H 0.59485 0.98313 0.6069 0.0
C1745 C 0.60848 0.7269 0.62137 0.0
C1746 C 0.62869 0.89694 0.62999 0.0
C1747 C 0.61091 0.65312 0.62056 0.0
C1748 C 0.62227 0.20347 0.62208 0.0
C1749 C 0.62463 0.12961 0.62155 0.0
C1750 C 0.6043 0.95992 0.61357 0.0
C1751 C 0.62063 0.77484 0.62029 0.0
C1752 C 0.61834 0.85345 0.62126 0.0
C1753 C 0.61247 0.08202 0.6231 0.0
C1754 C 0.61467 1.00339 0.62225 0.0
H1755 H 0.64894 0.65472 0.6158 0.0
H1756 H 0.64475 0.78202 0.61692 0.0
H1757 H 0.59805 0.85452 0.60602 0.0
H1758 H 0.58434 0.20296 0.62779 0.0
H1759 H 0.58841 0.07543 0.62704 0.0
loop_
_geom_bond_atom_site_label_1
_geom_bond_atom_site_label_2
_geom_bond_distance
_geom_bond_site_symmetry_2
_ccdc_geom_bond_type
Tb0 O3 2.453 . S
Tb0 O4 2.596 . S
Tb0 O5 2.374 . S
Tb0 O13 2.343 . S
Tb0 O15 2.353 . S
Tb0 O17 2.427 . S
Tb0 O18 2.513 . S
C1 O5 1.251 . S
C1 O7 1.263 . S
Tb2 O4 2.343 . S
Tb2 O7 2.353 . S
Tb2 O10 2.427 . S
Tb2 O11 2.513 . S
Tb2 O12 2.453 1_545 S
Tb2 O13 2.596 . S
Tb2 O14 2.374 . S
O3 Tb0 2.453 . S
O3 C19 1.245 . S
O4 Tb0 2.596 . S
O4 Tb2 2.343 . S
O4 C19 1.259 . S
O5 Tb0 2.374 . S
O5 C1 1.251 . S
C6 O10 1.275 . S
C6 O11 1.246 . S
O7 C1 1.263 . S
O7 Tb2 2.353 . S
C8 O12 1.245 . S
C8 O13 1.259 1_565 S
C9 O14 1.250 . S
C9 O15 1.263 . S
O10 Tb2 2.427 . S
O10 C6 1.275 . S
O11 Tb2 2.513 . S
O11 C6 1.246 . S
O12 Tb2 2.453 1_565 S
O12 C8 1.245 . S
O13 Tb0 2.343 . S
O13 Tb2 2.596 . S
O13 C8 1.259 1_545 S
O14 Tb2 2.374 . S
O14 C9 1.250 . S
O15 Tb0 2.353 . S
O15 C9 1.263 . S
C16 O17 1.275 . S
C16 O18 1.246 . S
O17 Tb0 2.427 . S
O17 C16 1.275 . S
O18 Tb0 2.513 . S
O18 C16 1.246 . S
C19 O3 1.245 . S
C19 O4 1.259 . S
Tb20 O23 2.453 . S
Tb20 O24 2.596 . S
Tb20 O25 2.374 . S
Tb20 O33 2.343 . S
Tb20 O35 2.353 . S
Tb20 O37 2.427 . S
Tb20 O38 2.513 . S
C21 O25 1.251 . S
C21 O27 1.263 . S
Tb22 O24 2.343 . S
Tb22 O27 2.353 . S
Tb22 O30 2.427 . S
Tb22 O31 2.513 . S
Tb22 O32 2.453 1_565 S
Tb22 O33 2.596 . S
Tb22 O34 2.374 . S
O23 Tb20 2.453 . S
O23 C39 1.245 . S
O24 Tb20 2.596 . S
O24 Tb22 2.343 . S
O24 C39 1.259 . S
O25 Tb20 2.374 . S
O25 C21 1.251 . S
C26 O30 1.275 . S
C26 O31 1.246 . S
O27 C21 1.263 . S
O27 Tb22 2.353 . S
C28 O32 1.245 . S
C28 O33 1.259 1_545 S
C29 O34 1.250 . S
C29 O35 1.263 . S
O30 Tb22 2.427 . S
O30 C26 1.275 . S
O31 Tb22 2.513 . S
O31 C26 1.246 . S
O32 Tb22 2.453 1_545 S
O32 C28 1.245 . S
O33 Tb20 2.343 . S
O33 Tb22 2.596 . S
O33 C28 1.259 1_565 S
O34 Tb22 2.374 . S
O34 C29 1.250 . S
O35 Tb20 2.353 . S
O35 C29 1.263 . S
C36 O37 1.275 . S
C36 O38 1.246 . S
O37 Tb20 2.427 . S
O37 C36 1.275 . S
O38 Tb20 2.513 . S
O38 C36 1.246 . S
C39 O23 1.245 . S
C39 O24 1.259 . S
Tb40 O43 2.453 . S
Tb40 O44 2.596 . S
Tb40 O45 2.374 . S
Tb40 O53 2.343 . S
Tb40 O55 2.353 . S
Tb40 O57 2.427 . S
Tb40 O58 2.513 . S
C41 O45 1.251 . S
C41 O47 1.263 . S
Tb42 O44 2.343 . S
Tb42 O47 2.353 . S
Tb42 O50 2.427 . S
Tb42 O51 2.513 . S
Tb42 O52 2.453 1_565 S
Tb42 O53 2.596 . S
Tb42 O54 2.374 . S
O43 Tb40 2.453 . S
O43 C59 1.245 . S
O44 Tb40 2.596 . S
O44 Tb42 2.343 . S
O44 C59 1.259 . S
O45 Tb40 2.374 . S
O45 C41 1.251 . S
C46 O50 1.275 . S
C46 O51 1.246 . S
O47 C41 1.263 . S
O47 Tb42 2.353 . S
C48 O52 1.245 . S
C48 O53 1.259 1_545 S
C49 O54 1.250 . S
C49 O55 1.263 . S
O50 Tb42 2.427 . S
O50 C46 1.275 . S
O51 Tb42 2.513 . S
O51 C46 1.246 . S
O52 Tb42 2.453 1_545 S
O52 C48 1.245 . S
O53 Tb40 2.343 . S
O53 Tb42 2.596 . S
O53 C48 1.259 1_565 S
O54 Tb42 2.374 . S
O54 C49 1.250 . S
O55 Tb40 2.353 . S
O55 C49 1.263 . S
C56 O57 1.275 . S
C56 O58 1.246 . S
O57 Tb40 2.427 . S
O57 C56 1.275 . S
O58 Tb40 2.513 . S
O58 C56 1.246 . S
C59 O43 1.245 . S
C59 O44 1.259 . S
Tb60 O63 2.453 . S
Tb60 O64 2.596 . S
Tb60 O65 2.374 . S
Tb60 O73 2.343 . S
Tb60 O75 2.353 . S
Tb60 O77 2.427 . S
Tb60 O78 2.513 . S
C61 O65 1.251 . S
C61 O67 1.263 . S
Tb62 O64 2.343 . S
Tb62 O67 2.353 . S
Tb62 O70 2.427 . S
Tb62 O71 2.513 . S
Tb62 O72 2.453 1_545 S
Tb62 O73 2.596 . S
Tb62 O74 2.374 . S
O63 Tb60 2.453 . S
O63 C79 1.245 . S
O64 Tb60 2.596 . S
O64 Tb62 2.343 . S
O64 C79 1.259 . S
O65 Tb60 2.374 . S
O65 C61 1.251 . S
C66 O70 1.275 . S
C66 O71 1.246 . S
O67 C61 1.263 . S
O67 Tb62 2.353 . S
C68 O72 1.245 . S
C68 O73 1.259 1_565 S
C69 O74 1.250 . S
C69 O75 1.263 . S
O70 Tb62 2.427 . S
O70 C66 1.275 . S
O71 Tb62 2.513 . S
O71 C66 1.246 . S
O72 Tb62 2.453 1_565 S
O72 C68 1.245 . S
O73 Tb60 2.343 . S
O73 Tb62 2.596 . S
O73 C68 1.259 1_545 S
O74 Tb62 2.374 . S
O74 C69 1.250 . S
O75 Tb60 2.353 . S
O75 C69 1.263 . S
C76 O77 1.275 . S
C76 O78 1.246 . S
O77 Tb60 2.427 . S
O77 C76 1.275 . S
O78 Tb60 2.513 . S
O78 C76 1.246 . S
C79 O63 1.245 . S
C79 O64 1.259 . S
Tb80 O83 2.453 1_565 S
Tb80 O84 2.596 . S
Tb80 O85 2.374 . S
Tb80 O93 2.343 . S
Tb80 O95 2.353 . S
Tb80 O97 2.427 . S
Tb80 O98 2.513 . S
C81 O85 1.251 . S
C81 O87 1.263 . S
Tb82 O84 2.343 . S
Tb82 O87 2.353 . S
Tb82 O90 2.427 . S
Tb82 O91 2.513 . S
Tb82 O92 2.453 . S
Tb82 O93 2.596 . S
Tb82 O94 2.374 . S
O83 Tb80 2.453 1_545 S
O83 C99 1.245 . S
O84 Tb80 2.596 . S
O84 Tb82 2.343 . S
O84 C99 1.259 1_565 S
O85 Tb80 2.374 . S
O85 C81 1.251 . S
C86 O90 1.275 . S
C86 O91 1.246 . S
O87 C81 1.263 . S
O87 Tb82 2.353 . S
C88 O92 1.245 . S
C88 O93 1.259 . S
C89 O94 1.250 . S
C89 O95 1.263 . S
O90 Tb82 2.427 . S
O90 C86 1.275 . S
O91 Tb82 2.513 . S
O91 C86 1.246 . S
O92 Tb82 2.453 . S
O92 C88 1.245 . S
O93 Tb80 2.343 . S
O93 Tb82 2.596 . S
O93 C88 1.259 . S
O94 Tb82 2.374 . S
O94 C89 1.250 . S
O95 Tb80 2.353 . S
O95 C89 1.263 . S
C96 O97 1.275 . S
C96 O98 1.246 . S
O97 Tb80 2.427 . S
O97 C96 1.275 . S
O98 Tb80 2.513 . S
O98 C96 1.246 . S
C99 O83 1.245 . S
C99 O84 1.259 1_545 S
Tb100 O103 2.453 1_545 S
Tb100 O104 2.596 . S
Tb100 O105 2.374 . S
Tb100 O113 2.343 . S
Tb100 O115 2.353 . S
Tb100 O117 2.427 . S
Tb100 O118 2.513 . S
C101 O105 1.251 . S
C101 O107 1.263 . S
Tb102 O104 2.343 . S
Tb102 O107 2.353 . S
Tb102 O110 2.427 . S
Tb102 O111 2.513 . S
Tb102 O112 2.453 . S
Tb102 O113 2.596 . S
Tb102 O114 2.374 . S
O103 Tb100 2.453 1_565 S
O103 C119 1.245 . S
O104 Tb100 2.596 . S
O104 Tb102 2.343 . S
O104 C119 1.259 1_545 S
O105 Tb100 2.374 . S
O105 C101 1.251 . S
C106 O110 1.275 . S
C106 O111 1.246 . S
O107 C101 1.263 . S
O107 Tb102 2.353 . S
C108 O112 1.245 . S
C108 O113 1.259 . S
C109 O114 1.250 . S
C109 O115 1.263 . S
O110 Tb102 2.427 . S
O110 C106 1.275 . S
O111 Tb102 2.513 . S
O111 C106 1.246 . S
O112 Tb102 2.453 . S
O112 C108 1.245 . S
O113 Tb100 2.343 . S
O113 Tb102 2.596 . S
O113 C108 1.259 . S
O114 Tb102 2.374 . S
O114 C109 1.250 . S
O115 Tb100 2.353 . S
O115 C109 1.263 . S
C116 O117 1.275 . S
C116 O118 1.246 . S
O117 Tb100 2.427 . S
O117 C116 1.275 . S
O118 Tb100 2.513 . S
O118 C116 1.246 . S
C119 O103 1.245 . S
C119 O104 1.259 1_565 S
Tb120 O123 2.453 1_545 S
Tb120 O124 2.596 . S
Tb120 O125 2.374 . S
Tb120 O133 2.343 . S
Tb120 O135 2.353 . S
Tb120 O137 2.427 . S
Tb120 O138 2.513 . S
C121 O125 1.251 . S
C121 O127 1.263 . S
Tb122 O124 2.343 . S
Tb122 O127 2.353 . S
Tb122 O130 2.427 . S
Tb122 O131 2.513 . S
Tb122 O132 2.453 . S
Tb122 O133 2.596 . S
Tb122 O134 2.374 . S
O123 Tb120 2.453 1_565 S
O123 C139 1.245 . S
O124 Tb120 2.596 . S
O124 Tb122 2.343 . S
O124 C139 1.259 1_545 S
O125 Tb120 2.374 . S
O125 C121 1.251 . S
C126 O130 1.275 . S
C126 O131 1.246 . S
O127 C121 1.263 . S
O127 Tb122 2.353 . S
C128 O132 1.245 . S
C128 O133 1.259 . S
C129 O134 1.250 . S
C129 O135 1.263 . S
O130 Tb122 2.427 . S
O130 C126 1.275 . S
O131 Tb122 2.513 . S
O131 C126 1.246 . S
O132 Tb122 2.453 . S
O132 C128 1.245 . S
O133 Tb120 2.343 . S
O133 Tb122 2.596 . S
O133 C128 1.259 . S
O134 Tb122 2.374 . S
O134 C129 1.250 . S
O135 Tb120 2.353 . S
O135 C129 1.263 . S
C136 O137 1.275 . S
C136 O138 1.246 . S
O137 Tb120 2.427 . S
O137 C136 1.275 . S
O138 Tb120 2.513 . S
O138 C136 1.246 . S
C139 O123 1.245 . S
C139 O124 1.259 1_565 S
Tb140 O143 2.453 1_565 S
Tb140 O144 2.596 . S
Tb140 O145 2.374 . S
Tb140 O153 2.343 . S
Tb140 O155 2.353 . S
Tb140 O157 2.427 . S
Tb140 O158 2.513 . S
C141 O145 1.251 . S
C141 O147 1.263 . S
Tb142 O144 2.343 . S
Tb142 O147 2.353 . S
Tb142 O150 2.427 . S
Tb142 O151 2.513 . S
Tb142 O152 2.453 . S
Tb142 O153 2.596 . S
Tb142 O154 2.374 . S
O143 Tb140 2.453 1_545 S
O143 C159 1.245 . S
O144 Tb140 2.596 . S
O144 Tb142 2.343 . S
O144 C159 1.259 1_565 S
O145 Tb140 2.374 . S
O145 C141 1.251 . S
C146 O150 1.275 . S
C146 O151 1.246 . S
O147 C141 1.263 . S
O147 Tb142 2.353 . S
C148 O152 1.245 . S
C148 O153 1.259 . S
C149 O154 1.250 . S
C149 O155 1.263 . S
O150 Tb142 2.427 . S
O150 C146 1.275 . S
O151 Tb142 2.513 . S
O151 C146 1.246 . S
O152 Tb142 2.453 . S
O152 C148 1.245 . S
O153 Tb140 2.343 . S
O153 Tb142 2.596 . S
O153 C148 1.259 . S
O154 Tb142 2.374 . S
O154 C149 1.250 . S
O155 Tb140 2.353 . S
O155 C149 1.263 . S
C156 O157 1.275 . S
C156 O158 1.246 . S
O157 Tb140 2.427 . S
O157 C156 1.275 . S
O158 Tb140 2.513 . S
O158 C156 1.246 . S
C159 O143 1.245 . S
C159 O144 1.259 1_545 S
Tb160 O163 2.453 . S
Tb160 O164 2.596 . S
Tb160 O165 2.374 . S
Tb160 O173 2.343 . S
Tb160 O175 2.353 . S
Tb160 O177 2.427 . S
Tb160 O178 2.513 . S
C161 O165 1.251 . S
C161 O167 1.263 . S
Tb162 O164 2.343 . S
Tb162 O167 2.353 . S
Tb162 O170 2.427 . S
Tb162 O171 2.513 . S
Tb162 O172 2.453 . S
Tb162 O173 2.596 . S
Tb162 O174 2.374 . S
O163 Tb160 2.453 . S
O163 C179 1.245 . S
O164 Tb160 2.596 . S
O164 Tb162 2.343 . S
O164 C179 1.259 . S
O165 Tb160 2.374 . S
O165 C161 1.251 . S
C166 O170 1.275 . S
C166 O171 1.246 . S
O167 C161 1.263 . S
O167 Tb162 2.353 . S
C168 O172 1.245 . S
C168 O173 1.259 . S
C169 O174 1.250 . S
C169 O175 1.263 . S
O170 Tb162 2.427 . S
O170 C166 1.275 . S
O171 Tb162 2.513 . S
O171 C166 1.246 . S
O172 Tb162 2.453 . S
O172 C168 1.245 . S
O173 Tb160 2.343 . S
O173 Tb162 2.596 . S
O173 C168 1.259 . S
O174 Tb162 2.374 . S
O174 C169 1.250 . S
O175 Tb160 2.353 . S
O175 C169 1.263 . S
C176 O177 1.275 . S
C176 O178 1.246 . S
O177 Tb160 2.427 . S
O177 C176 1.275 . S
O178 Tb160 2.513 . S
O178 C176 1.246 . S
C179 O163 1.245 . S
C179 O164 1.259 . S
Tb180 O183 2.453 . S
Tb180 O184 2.596 . S
Tb180 O185 2.374 . S
Tb180 O193 2.343 . S
Tb180 O195 2.353 . S
Tb180 O197 2.427 . S
Tb180 O198 2.513 . S
C181 O185 1.251 . S
C181 O187 1.263 . S
Tb182 O184 2.343 . S
Tb182 O187 2.353 . S
Tb182 O190 2.427 . S
Tb182 O191 2.513 . S
Tb182 O192 2.453 . S
Tb182 O193 2.596 . S
Tb182 O194 2.374 . S
O183 Tb180 2.453 . S
O183 C199 1.245 . S
O184 Tb180 2.596 . S
O184 Tb182 2.343 . S
O184 C199 1.259 . S
O185 Tb180 2.374 . S
O185 C181 1.251 . S
C186 O190 1.275 . S
C186 O191 1.246 . S
O187 C181 1.263 . S
O187 Tb182 2.353 . S
C188 O192 1.245 . S
C188 O193 1.259 . S
C189 O194 1.250 . S
C189 O195 1.263 . S
O190 Tb182 2.427 . S
O190 C186 1.275 . S
O191 Tb182 2.513 . S
O191 C186 1.246 . S
O192 Tb182 2.453 . S
O192 C188 1.245 . S
O193 Tb180 2.343 . S
O193 Tb182 2.596 . S
O193 C188 1.259 . S
O194 Tb182 2.374 . S
O194 C189 1.250 . S
O195 Tb180 2.353 . S
O195 C189 1.263 . S
C196 O197 1.275 . S
C196 O198 1.246 . S
O197 Tb180 2.427 . S
O197 C196 1.275 . S
O198 Tb180 2.513 . S
O198 C196 1.246 . S
C199 O183 1.245 . S
C199 O184 1.259 . S
Tb200 O203 2.453 . S
Tb200 O204 2.596 . S
Tb200 O205 2.374 . S
Tb200 O213 2.343 . S
Tb200 O215 2.353 . S
Tb200 O217 2.427 . S
Tb200 O218 2.513 . S
C201 O205 1.251 . S
C201 O207 1.263 . S
Tb202 O204 2.343 . S
Tb202 O207 2.353 . S
Tb202 O210 2.427 . S
Tb202 O211 2.513 . S
Tb202 O212 2.453 . S
Tb202 O213 2.596 . S
Tb202 O214 2.374 . S
O203 Tb200 2.453 . S
O203 C219 1.245 . S
O204 Tb200 2.596 . S
O204 Tb202 2.343 . S
O204 C219 1.259 . S
O205 Tb200 2.374 . S
O205 C201 1.251 . S
C206 O210 1.275 . S
C206 O211 1.246 . S
O207 C201 1.263 . S
O207 Tb202 2.353 . S
C208 O212 1.245 . S
C208 O213 1.259 . S
C209 O214 1.250 . S
C209 O215 1.263 . S
O210 Tb202 2.427 . S
O210 C206 1.275 . S
O211 Tb202 2.513 . S
O211 C206 1.246 . S
O212 Tb202 2.453 . S
O212 C208 1.245 . S
O213 Tb200 2.343 . S
O213 Tb202 2.596 . S
O213 C208 1.259 . S
O214 Tb202 2.374 . S
O214 C209 1.250 . S
O215 Tb200 2.353 . S
O215 C209 1.263 . S
C216 O217 1.275 . S
C216 O218 1.246 . S
O217 Tb200 2.427 . S
O217 C216 1.275 . S
O218 Tb200 2.513 . S
O218 C216 1.246 . S
C219 O203 1.245 . S
C219 O204 1.259 . S
Tb220 O223 2.453 . S
Tb220 O224 2.596 . S
Tb220 O225 2.374 . S
Tb220 O233 2.343 . S
Tb220 O235 2.353 . S
Tb220 O237 2.427 . S
Tb220 O238 2.513 . S
C221 O225 1.251 . S
C221 O227 1.263 . S
Tb222 O224 2.343 . S
Tb222 O227 2.353 . S
Tb222 O230 2.427 . S
Tb222 O231 2.513 . S
Tb222 O232 2.453 . S
Tb222 O233 2.596 . S
Tb222 O234 2.374 . S
O223 Tb220 2.453 . S
O223 C239 1.245 . S
O224 Tb220 2.596 . S
O224 Tb222 2.343 . S
O224 C239 1.259 . S
O225 Tb220 2.374 . S
O225 C221 1.251 . S
C226 O230 1.275 . S
C226 O231 1.246 . S
O227 C221 1.263 . S
O227 Tb222 2.353 . S
C228 O232 1.245 . S
C228 O233 1.259 . S
C229 O234 1.250 . S
C229 O235 1.263 . S
O230 Tb222 2.427 . S
O230 C226 1.275 . S
O231 Tb222 2.513 . S
O231 C226 1.246 . S
O232 Tb222 2.453 . S
O232 C228 1.245 . S
O233 Tb220 2.343 . S
O233 Tb222 2.596 . S
O233 C228 1.259 . S
O234 Tb222 2.374 . S
O234 C229 1.250 . S
O235 Tb220 2.353 . S
O235 C229 1.263 . S
C236 O237 1.275 . S
C236 O238 1.246 . S
O237 Tb220 2.427 . S
O237 C236 1.275 . S
O238 Tb220 2.513 . S
O238 C236 1.246 . S
C239 O223 1.245 . S
C239 O224 1.259 . S
Tb240 O243 2.453 . S
Tb240 O244 2.596 . S
Tb240 O245 2.374 . S
Tb240 O253 2.343 . S
Tb240 O255 2.353 . S
Tb240 O257 2.427 . S
Tb240 O258 2.513 . S
C241 O245 1.251 . S
C241 O247 1.263 . S
Tb242 O244 2.343 . S
Tb242 O247 2.353 . S
Tb242 O250 2.427 . S
Tb242 O251 2.513 . S
Tb242 O252 2.453 . S
Tb242 O253 2.596 . S
Tb242 O254 2.374 . S
O243 Tb240 2.453 . S
O243 C259 1.245 . S
O244 Tb240 2.596 . S
O244 Tb242 2.343 . S
O244 C259 1.259 . S
O245 Tb240 2.374 . S
O245 C241 1.251 . S
C246 O250 1.275 . S
C246 O251 1.246 . S
O247 C241 1.263 . S
O247 Tb242 2.353 . S
C248 O252 1.245 . S
C248 O253 1.259 . S
C249 O254 1.250 . S
C249 O255 1.263 . S
O250 Tb242 2.427 . S
O250 C246 1.275 . S
O251 Tb242 2.513 . S
O251 C246 1.246 . S
O252 Tb242 2.453 . S
O252 C248 1.245 . S
O253 Tb240 2.343 . S
O253 Tb242 2.596 . S
O253 C248 1.259 . S
O254 Tb242 2.374 . S
O254 C249 1.250 . S
O255 Tb240 2.353 . S
O255 C249 1.263 . S
C256 O257 1.275 . S
C256 O258 1.246 . S
O257 Tb240 2.427 . S
O257 C256 1.275 . S
O258 Tb240 2.513 . S
O258 C256 1.246 . S
C259 O243 1.245 . S
C259 O244 1.259 . S
Tb260 O263 2.453 . S
Tb260 O264 2.596 . S
Tb260 O265 2.374 . S
Tb260 O273 2.343 . S
Tb260 O275 2.353 . S
Tb260 O277 2.427 . S
Tb260 O278 2.513 . S
C261 O265 1.251 . S
C261 O267 1.263 . S
Tb262 O264 2.343 . S
Tb262 O267 2.353 . S
Tb262 O270 2.427 . S
Tb262 O271 2.513 . S
Tb262 O272 2.453 . S
Tb262 O273 2.596 . S
Tb262 O274 2.374 . S
O263 Tb260 2.453 . S
O263 C279 1.245 . S
O264 Tb260 2.596 . S
O264 Tb262 2.343 . S
O264 C279 1.259 . S
O265 Tb260 2.374 . S
O265 C261 1.251 . S
C266 O270 1.275 . S
C266 O271 1.246 . S
O267 C261 1.263 . S
O267 Tb262 2.353 . S
C268 O272 1.245 . S
C268 O273 1.259 . S
C269 O274 1.250 . S
C269 O275 1.263 . S
O270 Tb262 2.427 . S
O270 C266 1.275 . S
O271 Tb262 2.513 . S
O271 C266 1.246 . S
O272 Tb262 2.453 . S
O272 C268 1.245 . S
O273 Tb260 2.343 . S
O273 Tb262 2.596 . S
O273 C268 1.259 . S
O274 Tb262 2.374 . S
O274 C269 1.250 . S
O275 Tb260 2.353 . S
O275 C269 1.263 . S
C276 O277 1.275 . S
C276 O278 1.246 . S
O277 Tb260 2.427 . S
O277 C276 1.275 . S
O278 Tb260 2.513 . S
O278 C276 1.246 . S
C279 O263 1.245 . S
C279 O264 1.259 . S
Tb280 O283 2.453 . S
Tb280 O284 2.596 . S
Tb280 O285 2.374 . S
Tb280 O293 2.343 . S
Tb280 O295 2.353 . S
Tb280 O297 2.427 . S
Tb280 O298 2.513 . S
C281 O285 1.251 . S
C281 O287 1.263 . S
Tb282 O284 2.343 . S
Tb282 O287 2.353 . S
Tb282 O290 2.427 . S
Tb282 O291 2.513 . S
Tb282 O292 2.453 . S
Tb282 O293 2.596 . S
Tb282 O294 2.374 . S
O283 Tb280 2.453 . S
O283 C299 1.245 . S
O284 Tb280 2.596 . S
O284 Tb282 2.343 . S
O284 C299 1.259 . S
O285 Tb280 2.374 . S
O285 C281 1.251 . S
C286 O290 1.275 . S
C286 O291 1.246 . S
O287 C281 1.263 . S
O287 Tb282 2.353 . S
C288 O292 1.245 . S
C288 O293 1.259 . S
C289 O294 1.250 . S
C289 O295 1.263 . S
O290 Tb282 2.427 . S
O290 C286 1.275 . S
O291 Tb282 2.513 . S
O291 C286 1.246 . S
O292 Tb282 2.453 . S
O292 C288 1.245 . S
O293 Tb280 2.343 . S
O293 Tb282 2.596 . S
O293 C288 1.259 . S
O294 Tb282 2.374 . S
O294 C289 1.250 . S
O295 Tb280 2.353 . S
O295 C289 1.263 . S
C296 O297 1.275 . S
C296 O298 1.246 . S
O297 Tb280 2.427 . S
O297 C296 1.275 . S
O298 Tb280 2.513 . S
O298 C296 1.246 . S
C299 O283 1.245 . S
C299 O284 1.259 . S
Tb300 O303 2.453 . S
Tb300 O304 2.596 . S
Tb300 O305 2.374 . S
Tb300 O313 2.343 . S
Tb300 O315 2.353 . S
Tb300 O317 2.427 . S
Tb300 O318 2.513 . S
C301 O305 1.251 . S
C301 O307 1.263 . S
Tb302 O304 2.343 . S
Tb302 O307 2.353 . S
Tb302 O310 2.427 . S
Tb302 O311 2.513 . S
Tb302 O312 2.453 . S
Tb302 O313 2.596 . S
Tb302 O314 2.374 . S
O303 Tb300 2.453 . S
O303 C319 1.245 . S
O304 Tb300 2.596 . S
O304 Tb302 2.343 . S
O304 C319 1.259 . S
O305 Tb300 2.374 . S
O305 C301 1.251 . S
C306 O310 1.275 . S
C306 O311 1.246 . S
O307 C301 1.263 . S
O307 Tb302 2.353 . S
C308 O312 1.245 . S
C308 O313 1.259 . S
C309 O314 1.250 . S
C309 O315 1.263 . S
O310 Tb302 2.427 . S
O310 C306 1.275 . S
O311 Tb302 2.513 . S
O311 C306 1.246 . S
O312 Tb302 2.453 . S
O312 C308 1.245 . S
O313 Tb300 2.343 . S
O313 Tb302 2.596 . S
O313 C308 1.259 . S
O314 Tb302 2.374 . S
O314 C309 1.250 . S
O315 Tb300 2.353 . S
O315 C309 1.263 . S
C316 O317 1.275 . S
C316 O318 1.246 . S
O317 Tb300 2.427 . S
O317 C316 1.275 . S
O318 Tb300 2.513 . S
O318 C316 1.246 . S
C319 O303 1.245 . S
C319 O304 1.259 . S
C320 C321 1.349 . S
C320 C322 1.327 . S
C320 H345 0.950 . S
C321 C320 1.349 . S
C321 C337 1.349 . S
C322 C320 1.327 . S
C322 C341 1.429 . S
C322 H346 0.950 . S
C323 C340 1.574 . S
C323 C342 1.368 . S
C323 H347 0.949 . S
H324 C328 0.949 . S
C325 C326 1.349 . S
C325 C327 1.327 . S
C325 H348 0.950 . S
C326 C325 1.349 . S
C326 C338 1.349 . S
C327 C325 1.327 . S
C327 C343 1.429 . S
C327 H349 0.950 . S
C328 H324 0.949 . S
C328 C336 1.574 . S
C328 C344 1.368 . S
H329 C337 0.950 . S
H330 C335 0.950 . S
H331 C336 0.949 . S
H332 C338 0.950 . S
H333 C339 0.950 . S
H334 C340 0.949 . S
C335 H330 0.950 . S
C335 C337 1.327 . S
C335 C341 1.429 . S
C336 C328 1.574 . S
C336 H331 0.949 . S
C336 C342 1.368 . S
C337 C321 1.349 . S
C337 H329 0.950 . S
C337 C335 1.327 . S
C338 C326 1.349 . S
C338 H332 0.950 . S
C338 C339 1.327 . S
C339 H333 0.950 . S
C339 C338 1.327 . S
C339 C343 1.429 . S
C340 C323 1.574 . S
C340 H334 0.949 . S
C340 C344 1.368 . S
C341 C322 1.429 . S
C341 C335 1.429 . S
C341 C342 1.523 . S
C342 C323 1.368 . S
C342 C336 1.368 . S
C342 C341 1.523 . S
C343 C327 1.429 . S
C343 C339 1.429 . S
C343 C344 1.523 . S
C344 C328 1.368 . S
C344 C340 1.368 . S
C344 C343 1.523 . S
H345 C320 0.950 . S
H346 C322 0.950 . S
H347 C323 0.949 . S
H348 C325 0.950 . S
H349 C327 0.950 . S
C350 C351 1.349 . S
C350 C352 1.327 . S
C350 H375 0.950 . S
C351 C350 1.349 . S
C351 C367 1.349 . S
C352 C350 1.327 . S
C352 C371 1.429 . S
C352 H376 0.950 . S
C353 C370 1.574 . S
C353 C372 1.368 . S
C353 H377 0.949 . S
H354 C358 0.949 . S
C355 C356 1.349 . S
C355 C357 1.327 . S
C355 H378 0.950 . S
C356 C355 1.349 . S
C356 C368 1.349 . S
C357 C355 1.327 . S
C357 C373 1.429 . S
C357 H379 0.950 . S
C358 H354 0.949 . S
C358 C366 1.574 . S
C358 C374 1.368 . S
H359 C367 0.950 . S
H360 C365 0.950 . S
H361 C366 0.949 . S
H362 C368 0.950 . S
H363 C369 0.950 . S
H364 C370 0.949 . S
C365 H360 0.950 . S
C365 C367 1.327 . S
C365 C371 1.429 . S
C366 C358 1.574 . S
C366 H361 0.949 . S
C366 C372 1.368 . S
C367 C351 1.349 . S
C367 H359 0.950 . S
C367 C365 1.327 . S
C368 C356 1.349 . S
C368 H362 0.950 . S
C368 C369 1.327 . S
C369 H363 0.950 . S
C369 C368 1.327 . S
C369 C373 1.429 . S
C370 C353 1.574 . S
C370 H364 0.949 . S
C370 C374 1.368 . S
C371 C352 1.429 . S
C371 C365 1.429 . S
C371 C372 1.523 . S
C372 C353 1.368 . S
C372 C366 1.368 . S
C372 C371 1.523 . S
C373 C357 1.429 . S
C373 C369 1.429 . S
C373 C374 1.523 . S
C374 C358 1.368 . S
C374 C370 1.368 . S
C374 C373 1.523 . S
H375 C350 0.950 . S
H376 C352 0.950 . S
H377 C353 0.949 . S
H378 C355 0.950 . S
H379 C357 0.950 . S
C380 C381 1.349 . S
C380 C382 1.327 . S
C380 H405 0.950 . S
C381 C380 1.349 . S
C381 C397 1.349 . S
C382 C380 1.327 . S
C382 C401 1.429 . S
C382 H406 0.950 . S
C383 C400 1.574 . S
C383 C402 1.368 . S
C383 H407 0.949 . S
H384 C388 0.949 . S
C385 C386 1.349 . S
C385 C387 1.327 . S
C385 H408 0.950 . S
C386 C385 1.349 . S
C386 C398 1.349 . S
C387 C385 1.327 . S
C387 C403 1.429 . S
C387 H409 0.950 . S
C388 H384 0.949 . S
C388 C396 1.574 . S
C388 C404 1.368 . S
H389 C397 0.950 . S
H390 C395 0.950 . S
H391 C396 0.949 . S
H392 C398 0.950 . S
H393 C399 0.950 . S
H394 C400 0.949 . S
C395 H390 0.950 . S
C395 C397 1.327 . S
C395 C401 1.429 . S
C396 C388 1.574 . S
C396 H391 0.949 . S
C396 C402 1.368 . S
C397 C381 1.349 . S
C397 H389 0.950 . S
C397 C395 1.327 . S
C398 C386 1.349 . S
C398 H392 0.950 . S
C398 C399 1.327 . S
C399 H393 0.950 . S
C399 C398 1.327 . S
C399 C403 1.429 . S
C400 C383 1.574 . S
C400 H394 0.949 . S
C400 C404 1.368 . S
C401 C382 1.429 . S
C401 C395 1.429 . S
C401 C402 1.523 . S
C402 C383 1.368 . S
C402 C396 1.368 . S
C402 C401 1.523 . S
C403 C387 1.429 . S
C403 C399 1.429 . S
C403 C404 1.523 . S
C404 C388 1.368 . S
C404 C400 1.368 . S
C404 C403 1.523 . S
H405 C380 0.950 . S
H406 C382 0.950 . S
H407 C383 0.949 . S
H408 C385 0.950 . S
H409 C387 0.950 . S
C410 C411 1.349 . S
C410 C412 1.327 . S
C410 H435 0.950 . S
C411 C410 1.349 . S
C411 C427 1.349 . S
C412 C410 1.327 . S
C412 C431 1.429 . S
C412 H436 0.950 . S
C413 C430 1.574 . S
C413 C432 1.368 . S
C413 H437 0.949 . S
H414 C418 0.949 . S
C415 C416 1.349 . S
C415 C417 1.327 . S
C415 H438 0.950 . S
C416 C415 1.349 . S
C416 C428 1.349 . S
C417 C415 1.327 . S
C417 C433 1.429 . S
C417 H439 0.950 . S
C418 H414 0.949 . S
C418 C426 1.574 . S
C418 C434 1.368 . S
H419 C427 0.950 . S
H420 C425 0.950 . S
H421 C426 0.949 . S
H422 C428 0.950 . S
H423 C429 0.950 . S
H424 C430 0.949 . S
C425 H420 0.950 . S
C425 C427 1.327 . S
C425 C431 1.429 . S
C426 C418 1.574 . S
C426 H421 0.949 . S
C426 C432 1.368 . S
C427 C411 1.349 . S
C427 H419 0.950 . S
C427 C425 1.327 . S
C428 C416 1.349 . S
C428 H422 0.950 . S
C428 C429 1.327 . S
C429 H423 0.950 . S
C429 C428 1.327 . S
C429 C433 1.429 . S
C430 C413 1.574 . S
C430 H424 0.949 . S
C430 C434 1.368 . S
C431 C412 1.429 . S
C431 C425 1.429 . S
C431 C432 1.523 . S
C432 C413 1.368 . S
C432 C426 1.368 . S
C432 C431 1.523 . S
C433 C417 1.429 . S
C433 C429 1.429 . S
C433 C434 1.523 . S
C434 C418 1.368 . S
C434 C430 1.368 . S
C434 C433 1.523 . S
H435 C410 0.950 . S
H436 C412 0.950 . S
H437 C413 0.949 . S
H438 C415 0.950 . S
H439 C417 0.950 . S
C440 C441 1.349 . S
C440 C442 1.327 . S
C440 H465 0.950 . S
C441 C440 1.349 . S
C441 C457 1.349 . S
C442 C440 1.327 . S
C442 C461 1.429 . S
C442 H466 0.950 . S
C443 C460 1.574 . S
C443 C462 1.368 . S
C443 H467 0.949 . S
H444 C448 0.949 . S
C445 C446 1.349 . S
C445 C447 1.327 . S
C445 H468 0.950 . S
C446 C445 1.349 . S
C446 C458 1.349 . S
C447 C445 1.327 . S
C447 C463 1.429 . S
C447 H469 0.950 . S
C448 H444 0.949 . S
C448 C456 1.574 . S
C448 C464 1.368 . S
H449 C457 0.950 . S
H450 C455 0.950 . S
H451 C456 0.949 . S
H452 C458 0.950 . S
H453 C459 0.950 . S
H454 C460 0.949 . S
C455 H450 0.950 . S
C455 C457 1.327 . S
C455 C461 1.429 . S
C456 C448 1.574 . S
C456 H451 0.949 . S
C456 C462 1.368 . S
C457 C441 1.349 . S
C457 H449 0.950 . S
C457 C455 1.327 . S
C458 C446 1.349 . S
C458 H452 0.950 . S
C458 C459 1.327 . S
C459 H453 0.950 . S
C459 C458 1.327 . S
C459 C463 1.429 . S
C460 C443 1.574 . S
C460 H454 0.949 . S
C460 C464 1.368 . S
C461 C442 1.429 . S
C461 C455 1.429 . S
C461 C462 1.523 . S
C462 C443 1.368 . S
C462 C456 1.368 . S
C462 C461 1.523 . S
C463 C447 1.429 . S
C463 C459 1.429 . S
C463 C464 1.523 . S
C464 C448 1.368 . S
C464 C460 1.368 . S
C464 C463 1.523 . S
H465 C440 0.950 . S
H466 C442 0.950 . S
H467 C443 0.949 . S
H468 C445 0.950 . S
H469 C447 0.950 . S
C470 C471 1.349 . S
C470 C472 1.327 . S
C470 H495 0.950 . S
C471 C470 1.349 . S
C471 C487 1.349 . S
C472 C470 1.327 . S
C472 C491 1.429 . S
C472 H496 0.950 . S
C473 C490 1.574 . S
C473 C492 1.368 . S
C473 H497 0.949 . S
H474 C478 0.949 . S
C475 C476 1.349 . S
C475 C477 1.327 . S
C475 H498 0.950 . S
C476 C475 1.349 . S
C476 C488 1.349 . S
C477 C475 1.327 . S
C477 C493 1.429 . S
C477 H499 0.950 . S
C478 H474 0.949 . S
C478 C486 1.574 . S
C478 C494 1.368 . S
H479 C487 0.950 . S
H480 C485 0.950 . S
H481 C486 0.949 . S
H482 C488 0.950 . S
H483 C489 0.950 . S
H484 C490 0.949 . S
C485 H480 0.950 . S
C485 C487 1.327 . S
C485 C491 1.429 . S
C486 C478 1.574 . S
C486 H481 0.949 . S
C486 C492 1.368 . S
C487 C471 1.349 . S
C487 H479 0.950 . S
C487 C485 1.327 . S
C488 C476 1.349 . S
C488 H482 0.950 . S
C488 C489 1.327 . S
C489 H483 0.950 . S
C489 C488 1.327 . S
C489 C493 1.429 . S
C490 C473 1.574 . S
C490 H484 0.949 . S
C490 C494 1.368 . S
C491 C472 1.429 . S
C491 C485 1.429 . S
C491 C492 1.523 . S
C492 C473 1.368 . S
C492 C486 1.368 . S
C492 C491 1.523 . S
C493 C477 1.429 . S
C493 C489 1.429 . S
C493 C494 1.523 . S
C494 C478 1.368 . S
C494 C490 1.368 . S
C494 C493 1.523 . S
H495 C470 0.950 . S
H496 C472 0.950 . S
H497 C473 0.949 . S
H498 C475 0.950 . S
H499 C477 0.950 . S
C500 C501 1.349 . S
C500 C502 1.327 . S
C500 H525 0.950 . S
C501 C500 1.349 . S
C501 C517 1.349 . S
C502 C500 1.327 . S
C502 C521 1.429 . S
C502 H526 0.950 . S
C503 C520 1.574 . S
C503 C522 1.368 . S
C503 H527 0.949 . S
H504 C508 0.949 . S
C505 C506 1.349 . S
C505 C507 1.327 . S
C505 H528 0.950 . S
C506 C505 1.349 . S
C506 C518 1.349 . S
C507 C505 1.327 . S
C507 C523 1.429 . S
C507 H529 0.950 . S
C508 H504 0.949 . S
C508 C516 1.574 . S
C508 C524 1.368 . S
H509 C517 0.950 . S
H510 C515 0.950 . S
H511 C516 0.949 . S
H512 C518 0.950 . S
H513 C519 0.950 . S
H514 C520 0.949 . S
C515 H510 0.950 . S
C515 C517 1.327 . S
C515 C521 1.429 . S
C516 C508 1.574 . S
C516 H511 0.949 . S
C516 C522 1.368 . S
C517 C501 1.349 . S
C517 H509 0.950 . S
C517 C515 1.327 . S
C518 C506 1.349 . S
C518 H512 0.950 . S
C518 C519 1.327 . S
C519 H513 0.950 . S
C519 C518 1.327 . S
C519 C523 1.429 . S
C520 C503 1.574 . S
C520 H514 0.949 . S
C520 C524 1.368 . S
C521 C502 1.429 . S
C521 C515 1.429 . S
C521 C522 1.523 . S
C522 C503 1.368 . S
C522 C516 1.368 . S
C522 C521 1.523 . S
C523 C507 1.429 . S
C523 C519 1.429 . S
C523 C524 1.523 . S
C524 C508 1.368 . S
C524 C520 1.368 . S
C524 C523 1.523 . S
H525 C500 0.950 . S
H526 C502 0.950 . S
H527 C503 0.949 . S
H528 C505 0.950 . S
H529 C507 0.950 . S
C530 C531 1.349 . S
C530 C532 1.327 . S
C530 H555 0.950 . S
C531 C530 1.349 . S
C531 C547 1.349 . S
C532 C530 1.327 . S
C532 C551 1.429 . S
C532 H556 0.950 . S
C533 C550 1.574 . S
C533 C552 1.368 . S
C533 H557 0.949 . S
H534 C538 0.949 . S
C535 C536 1.349 . S
C535 C537 1.327 . S
C535 H558 0.950 . S
C536 C535 1.349 . S
C536 C548 1.349 . S
C537 C535 1.327 . S
C537 C553 1.429 . S
C537 H559 0.950 . S
C538 H534 0.949 . S
C538 C546 1.574 . S
C538 C554 1.368 . S
H539 C547 0.950 . S
H540 C545 0.950 . S
H541 C546 0.949 . S
H542 C548 0.950 . S
H543 C549 0.950 . S
H544 C550 0.949 . S
C545 H540 0.950 . S
C545 C547 1.327 . S
C545 C551 1.429 . S
C546 C538 1.574 . S
C546 H541 0.949 . S
C546 C552 1.368 . S
C547 C531 1.349 . S
C547 H539 0.950 . S
C547 C545 1.327 . S
C548 C536 1.349 . S
C548 H542 0.950 . S
C548 C549 1.327 . S
C549 H543 0.950 . S
C549 C548 1.327 . S
C549 C553 1.429 . S
C550 C533 1.574 . S
C550 H544 0.949 . S
C550 C554 1.368 . S
C551 C532 1.429 . S
C551 C545 1.429 . S
C551 C552 1.523 . S
C552 C533 1.368 . S
C552 C546 1.368 . S
C552 C551 1.523 . S
C553 C537 1.429 . S
C553 C549 1.429 . S
C553 C554 1.523 . S
C554 C538 1.368 . S
C554 C550 1.368 . S
C554 C553 1.523 . S
H555 C530 0.950 . S
H556 C532 0.950 . S
H557 C533 0.949 . S
H558 C535 0.950 . S
H559 C537 0.950 . S
C560 C561 1.349 . S
C560 C562 1.327 . S
C560 H585 0.950 . S
C561 C560 1.349 . S
C561 C577 1.349 . S
C562 C560 1.327 . S
C562 C581 1.429 . S
C562 H586 0.950 . S
C563 C580 1.574 . S
C563 C582 1.368 1_545 S
C563 H587 0.949 . S
H564 C568 0.949 . S
C565 C566 1.349 . S
C565 C567 1.327 . S
C565 H588 0.950 . S
C566 C565 1.349 . S
C566 C578 1.349 . S
C567 C565 1.327 . S
C567 C583 1.429 . S
C567 H589 0.950 . S
C568 H564 0.949 . S
C568 C576 1.574 . S
C568 C584 1.368 1_565 S
H569 C577 0.950 . S
H570 C575 0.950 1_545 S
H571 C576 0.949 . S
H572 C578 0.950 . S
H573 C579 0.950 1_565 S
H574 C580 0.949 . S
C575 H570 0.950 1_565 S
C575 C577 1.327 . S
C575 C581 1.429 . S
C576 C568 1.574 . S
C576 H571 0.949 . S
C576 C582 1.368 . S
C577 C561 1.349 . S
C577 H569 0.950 . S
C577 C575 1.327 . S
C578 C566 1.349 . S
C578 H572 0.950 . S
C578 C579 1.327 . S
C579 H573 0.950 1_545 S
C579 C578 1.327 . S
C579 C583 1.429 . S
C580 C563 1.574 . S
C580 H574 0.949 . S
C580 C584 1.368 . S
C581 C562 1.429 . S
C581 C575 1.429 . S
C581 C582 1.523 . S
C582 C563 1.368 1_565 S
C582 C576 1.368 . S
C582 C581 1.523 . S
C583 C567 1.429 . S
C583 C579 1.429 . S
C583 C584 1.523 . S
C584 C568 1.368 1_545 S
C584 C580 1.368 . S
C584 C583 1.523 . S
H585 C560 0.950 . S
H586 C562 0.950 . S
H587 C563 0.949 . S
H588 C565 0.950 . S
H589 C567 0.950 . S
C590 C591 1.349 . S
C590 C592 1.327 . S
C590 H615 0.950 . S
C591 C590 1.349 . S
C591 C607 1.349 . S
C592 C590 1.327 . S
C592 C611 1.429 . S
C592 H616 0.950 . S
C593 C610 1.574 . S
C593 C612 1.368 1_565 S
C593 H617 0.949 . S
H594 C598 0.949 . S
C595 C596 1.349 . S
C595 C597 1.327 . S
C595 H618 0.950 . S
C596 C595 1.349 . S
C596 C608 1.349 . S
C597 C595 1.327 . S
C597 C613 1.429 . S
C597 H619 0.950 . S
C598 H594 0.949 . S
C598 C606 1.574 . S
C598 C614 1.368 1_545 S
H599 C607 0.950 1_565 S
H600 C605 0.950 1_565 S
H601 C606 0.949 . S
H602 C608 0.950 1_545 S
H603 C609 0.950 1_545 S
H604 C610 0.949 . S
C605 H600 0.950 1_545 S
C605 C607 1.327 . S
C605 C611 1.429 . S
C606 C598 1.574 . S
C606 H601 0.949 . S
C606 C612 1.368 . S
C607 C591 1.349 . S
C607 H599 0.950 1_545 S
C607 C605 1.327 . S
C608 C596 1.349 . S
C608 H602 0.950 1_565 S
C608 C609 1.327 . S
C609 H603 0.950 1_565 S
C609 C608 1.327 . S
C609 C613 1.429 . S
C610 C593 1.574 . S
C610 H604 0.949 . S
C610 C614 1.368 . S
C611 C592 1.429 . S
C611 C605 1.429 . S
C611 C612 1.523 . S
C612 C593 1.368 1_545 S
C612 C606 1.368 . S
C612 C611 1.523 . S
C613 C597 1.429 . S
C613 C609 1.429 . S
C613 C614 1.523 . S
C614 C598 1.368 1_565 S
C614 C610 1.368 . S
C614 C613 1.523 . S
H615 C590 0.950 . S
H616 C592 0.950 . S
H617 C593 0.949 . S
H618 C595 0.950 . S
H619 C597 0.950 . S
C620 C621 1.349 . S
C620 C622 1.327 . S
C620 H645 0.950 . S
C621 C620 1.349 . S
C621 C637 1.349 . S
C622 C620 1.327 . S
C622 C641 1.429 . S
C622 H646 0.950 . S
C623 C640 1.574 . S
C623 C642 1.368 . S
C623 H647 0.949 . S
H624 C628 0.949 . S
C625 C626 1.349 . S
C625 C627 1.327 . S
C625 H648 0.950 . S
C626 C625 1.349 . S
C626 C638 1.349 . S
C627 C625 1.327 . S
C627 C643 1.429 . S
C627 H649 0.950 . S
C628 H624 0.949 . S
C628 C636 1.574 . S
C628 C644 1.368 . S
H629 C637 0.950 . S
H630 C635 0.950 . S
H631 C636 0.949 . S
H632 C638 0.950 . S
H633 C639 0.950 . S
H634 C640 0.949 . S
C635 H630 0.950 . S
C635 C637 1.327 . S
C635 C641 1.429 . S
C636 C628 1.574 . S
C636 H631 0.949 . S
C636 C642 1.368 1_565 S
C637 C621 1.349 . S
C637 H629 0.950 . S
C637 C635 1.327 . S
C638 C626 1.349 . S
C638 H632 0.950 . S
C638 C639 1.327 . S
C639 H633 0.950 . S
C639 C638 1.327 . S
C639 C643 1.429 . S
C640 C623 1.574 . S
C640 H634 0.949 . S
C640 C644 1.368 1_545 S
C641 C622 1.429 . S
C641 C635 1.429 . S
C641 C642 1.523 . S
C642 C623 1.368 . S
C642 C636 1.368 1_545 S
C642 C641 1.523 . S
C643 C627 1.429 . S
C643 C639 1.429 . S
C643 C644 1.523 . S
C644 C628 1.368 . S
C644 C640 1.368 1_565 S
C644 C643 1.523 . S
H645 C620 0.950 . S
H646 C622 0.950 . S
H647 C623 0.949 . S
H648 C625 0.950 . S
H649 C627 0.950 . S
C650 C651 1.349 . S
C650 C652 1.327 . S
C650 H675 0.950 . S
C651 C650 1.349 . S
C651 C667 1.349 . S
C652 C650 1.327 . S
C652 C671 1.429 . S
C652 H676 0.950 . S
C653 C670 1.574 . S
C653 C672 1.368 1_565 S
C653 H677 0.949 . S
H654 C658 0.949 . S
C655 C656 1.349 . S
C655 C657 1.327 . S
C655 H678 0.950 . S
C656 C655 1.349 . S
C656 C668 1.349 . S
C657 C655 1.327 . S
C657 C673 1.429 . S
C657 H679 0.950 . S
C658 H654 0.949 . S
C658 C666 1.574 . S
C658 C674 1.368 1_545 S
H659 C667 0.950 . S
H660 C665 0.950 1_565 S
H661 C666 0.949 . S
H662 C668 0.950 . S
H663 C669 0.950 1_545 S
H664 C670 0.949 . S
C665 H660 0.950 1_545 S
C665 C667 1.327 . S
C665 C671 1.429 . S
C666 C658 1.574 . S
C666 H661 0.949 . S
C666 C672 1.368 . S
C667 C651 1.349 . S
C667 H659 0.950 . S
C667 C665 1.327 . S
C668 C656 1.349 . S
C668 H662 0.950 . S
C668 C669 1.327 . S
C669 H663 0.950 1_565 S
C669 C668 1.327 . S
C669 C673 1.429 . S
C670 C653 1.574 . S
C670 H664 0.949 . S
C670 C674 1.368 . S
C671 C652 1.429 . S
C671 C665 1.429 . S
C671 C672 1.523 . S
C672 C653 1.368 1_545 S
C672 C666 1.368 . S
C672 C671 1.523 . S
C673 C657 1.429 . S
C673 C669 1.429 . S
C673 C674 1.523 . S
C674 C658 1.368 1_565 S
C674 C670 1.368 . S
C674 C673 1.523 . S
H675 C650 0.950 . S
H676 C652 0.950 . S
H677 C653 0.949 . S
H678 C655 0.950 . S
H679 C657 0.950 . S
C680 C681 1.349 . S
C680 C682 1.327 . S
C680 H705 0.950 . S
C681 C680 1.349 . S
C681 C697 1.349 . S
C682 C680 1.327 . S
C682 C701 1.429 . S
C682 H706 0.950 . S
C683 C700 1.574 . S
C683 C702 1.368 . S
C683 H707 0.949 . S
H684 C688 0.949 . S
C685 C686 1.349 . S
C685 C687 1.327 . S
C685 H708 0.950 . S
C686 C685 1.349 . S
C686 C698 1.349 . S
C687 C685 1.327 . S
C687 C703 1.429 . S
C687 H709 0.950 . S
C688 H684 0.949 . S
C688 C696 1.574 . S
C688 C704 1.368 . S
H689 C697 0.950 . S
H690 C695 0.950 . S
H691 C696 0.949 . S
H692 C698 0.950 . S
H693 C699 0.950 . S
H694 C700 0.949 . S
C695 H690 0.950 . S
C695 C697 1.327 . S
C695 C701 1.429 . S
C696 C688 1.574 . S
C696 H691 0.949 . S
C696 C702 1.368 . S
C697 C681 1.349 . S
C697 H689 0.950 . S
C697 C695 1.327 . S
C698 C686 1.349 . S
C698 H692 0.950 . S
C698 C699 1.327 . S
C699 H693 0.950 . S
C699 C698 1.327 . S
C699 C703 1.429 . S
C700 C683 1.574 . S
C700 H694 0.949 . S
C700 C704 1.368 . S
C701 C682 1.429 . S
C701 C695 1.429 . S
C701 C702 1.523 . S
C702 C683 1.368 . S
C702 C696 1.368 . S
C702 C701 1.523 . S
C703 C687 1.429 . S
C703 C699 1.429 . S
C703 C704 1.523 . S
C704 C688 1.368 . S
C704 C700 1.368 . S
C704 C703 1.523 . S
H705 C680 0.950 . S
H706 C682 0.950 . S
H707 C683 0.949 . S
H708 C685 0.950 . S
H709 C687 0.950 . S
C710 C711 1.349 . S
C710 C712 1.327 . S
C710 H735 0.950 . S
C711 C710 1.349 . S
C711 C727 1.349 . S
C712 C710 1.327 . S
C712 C731 1.429 . S
C712 H736 0.950 . S
C713 C730 1.574 . S
C713 C732 1.368 . S
C713 H737 0.949 . S
H714 C718 0.949 . S
C715 C716 1.349 . S
C715 C717 1.327 . S
C715 H738 0.950 . S
C716 C715 1.349 . S
C716 C728 1.349 . S
C717 C715 1.327 . S
C717 C733 1.429 . S
C717 H739 0.950 . S
C718 H714 0.949 . S
C718 C726 1.574 . S
C718 C734 1.368 . S
H719 C727 0.950 . S
H720 C725 0.950 . S
H721 C726 0.949 . S
H722 C728 0.950 . S
H723 C729 0.950 . S
H724 C730 0.949 . S
C725 H720 0.950 . S
C725 C727 1.327 . S
C725 C731 1.429 . S
C726 C718 1.574 . S
C726 H721 0.949 . S
C726 C732 1.368 . S
C727 C711 1.349 . S
C727 H719 0.950 . S
C727 C725 1.327 . S
C728 C716 1.349 . S
C728 H722 0.950 . S
C728 C729 1.327 . S
C729 H723 0.950 . S
C729 C728 1.327 . S
C729 C733 1.429 . S
C730 C713 1.574 . S
C730 H724 0.949 . S
C730 C734 1.368 . S
C731 C712 1.429 . S
C731 C725 1.429 . S
C731 C732 1.523 . S
C732 C713 1.368 . S
C732 C726 1.368 . S
C732 C731 1.523 . S
C733 C717 1.429 . S
C733 C729 1.429 . S
C733 C734 1.523 . S
C734 C718 1.368 . S
C734 C730 1.368 . S
C734 C733 1.523 . S
H735 C710 0.950 . S
H736 C712 0.950 . S
H737 C713 0.949 . S
H738 C715 0.950 . S
H739 C717 0.950 . S
C740 C741 1.349 . S
C740 C742 1.327 . S
C740 H765 0.950 . S
C741 C740 1.349 . S
C741 C757 1.349 . S
C742 C740 1.327 . S
C742 C761 1.429 . S
C742 H766 0.950 . S
C743 C760 1.574 . S
C743 C762 1.368 . S
C743 H767 0.949 . S
H744 C748 0.949 . S
C745 C746 1.349 . S
C745 C747 1.327 . S
C745 H768 0.950 . S
C746 C745 1.349 . S
C746 C758 1.349 . S
C747 C745 1.327 . S
C747 C763 1.429 . S
C747 H769 0.950 . S
C748 H744 0.949 . S
C748 C756 1.574 . S
C748 C764 1.368 . S
H749 C757 0.950 . S
H750 C755 0.950 . S
H751 C756 0.949 . S
H752 C758 0.950 . S
H753 C759 0.950 . S
H754 C760 0.949 . S
C755 H750 0.950 . S
C755 C757 1.327 . S
C755 C761 1.429 . S
C756 C748 1.574 . S
C756 H751 0.949 . S
C756 C762 1.368 . S
C757 C741 1.349 . S
C757 H749 0.950 . S
C757 C755 1.327 . S
C758 C746 1.349 . S
C758 H752 0.950 . S
C758 C759 1.327 . S
C759 H753 0.950 . S
C759 C758 1.327 . S
C759 C763 1.429 . S
C760 C743 1.574 . S
C760 H754 0.949 . S
C760 C764 1.368 . S
C761 C742 1.429 . S
C761 C755 1.429 . S
C761 C762 1.523 . S
C762 C743 1.368 . S
C762 C756 1.368 . S
C762 C761 1.523 . S
C763 C747 1.429 . S
C763 C759 1.429 . S
C763 C764 1.523 . S
C764 C748 1.368 . S
C764 C760 1.368 . S
C764 C763 1.523 . S
H765 C740 0.950 . S
H766 C742 0.950 . S
H767 C743 0.949 . S
H768 C745 0.950 . S
H769 C747 0.950 . S
C770 C771 1.349 . S
C770 C772 1.327 . S
C770 H795 0.950 . S
C771 C770 1.349 . S
C771 C787 1.349 . S
C772 C770 1.327 . S
C772 C791 1.429 . S
C772 H796 0.950 . S
C773 C790 1.574 . S
C773 C792 1.368 . S
C773 H797 0.949 . S
H774 C778 0.949 . S
C775 C776 1.349 . S
C775 C777 1.327 . S
C775 H798 0.950 . S
C776 C775 1.349 . S
C776 C788 1.349 . S
C777 C775 1.327 . S
C777 C793 1.429 . S
C777 H799 0.950 . S
C778 H774 0.949 . S
C778 C786 1.574 . S
C778 C794 1.368 . S
H779 C787 0.950 . S
H780 C785 0.950 . S
H781 C786 0.949 . S
H782 C788 0.950 . S
H783 C789 0.950 . S
H784 C790 0.949 . S
C785 H780 0.950 . S
C785 C787 1.327 . S
C785 C791 1.429 . S
C786 C778 1.574 . S
C786 H781 0.949 . S
C786 C792 1.368 . S
C787 C771 1.349 . S
C787 H779 0.950 . S
C787 C785 1.327 . S
C788 C776 1.349 . S
C788 H782 0.950 . S
C788 C789 1.327 . S
C789 H783 0.950 . S
C789 C788 1.327 . S
C789 C793 1.429 . S
C790 C773 1.574 . S
C790 H784 0.949 . S
C790 C794 1.368 . S
C791 C772 1.429 . S
C791 C785 1.429 . S
C791 C792 1.523 . S
C792 C773 1.368 . S
C792 C786 1.368 . S
C792 C791 1.523 . S
C793 C777 1.429 . S
C793 C789 1.429 . S
C793 C794 1.523 . S
C794 C778 1.368 . S
C794 C790 1.368 . S
C794 C793 1.523 . S
H795 C770 0.950 . S
H796 C772 0.950 . S
H797 C773 0.949 . S
H798 C775 0.950 . S
H799 C777 0.950 . S
C800 C801 1.349 . S
C800 C802 1.327 . S
C800 H825 0.950 . S
C801 C800 1.349 . S
C801 C817 1.349 . S
C802 C800 1.327 . S
C802 C821 1.429 . S
C802 H826 0.950 . S
C803 C820 1.574 1_556 S
C803 C822 1.368 . S
C803 H827 0.949 . S
H804 C808 0.949 . S
C805 C806 1.349 . S
C805 C807 1.327 . S
C805 H828 0.950 . S
C806 C805 1.349 . S
C806 C818 1.349 . S
C807 C805 1.327 . S
C807 C823 1.429 . S
C807 H829 0.950 . S
C808 H804 0.949 . S
C808 C816 1.574 1_554 S
C808 C824 1.368 . S
H809 C817 0.950 . S
H810 C815 0.950 . S
H811 C816 0.949 . S
H812 C818 0.950 . S
H813 C819 0.950 . S
H814 C820 0.949 . S
C815 H810 0.950 . S
C815 C817 1.327 . S
C815 C821 1.429 . S
C816 C808 1.574 1_556 S
C816 H811 0.949 . S
C816 C822 1.368 . S
C817 C801 1.349 . S
C817 H809 0.950 . S
C817 C815 1.327 . S
C818 C806 1.349 . S
C818 H812 0.950 . S
C818 C819 1.327 . S
C819 H813 0.950 . S
C819 C818 1.327 . S
C819 C823 1.429 . S
C820 C803 1.574 1_554 S
C820 H814 0.949 . S
C820 C824 1.368 . S
C821 C802 1.429 . S
C821 C815 1.429 . S
C821 C822 1.523 . S
C822 C803 1.368 . S
C822 C816 1.368 . S
C822 C821 1.523 . S
C823 C807 1.429 . S
C823 C819 1.429 . S
C823 C824 1.523 . S
C824 C808 1.368 . S
C824 C820 1.368 . S
C824 C823 1.523 . S
H825 C800 0.950 . S
H826 C802 0.950 . S
H827 C803 0.949 . S
H828 C805 0.950 . S
H829 C807 0.950 . S
C830 C831 1.349 . S
C830 C832 1.327 . S
C830 H855 0.950 . S
C831 C830 1.349 . S
C831 C847 1.349 . S
C832 C830 1.327 . S
C832 C851 1.429 . S
C832 H856 0.950 . S
C833 C850 1.574 1_556 S
C833 C852 1.368 . S
C833 H857 0.949 . S
H834 C838 0.949 . S
C835 C836 1.349 . S
C835 C837 1.327 . S
C835 H858 0.950 . S
C836 C835 1.349 . S
C836 C848 1.349 . S
C837 C835 1.327 . S
C837 C853 1.429 . S
C837 H859 0.950 . S
C838 H834 0.949 . S
C838 C846 1.574 1_554 S
C838 C854 1.368 . S
H839 C847 0.950 . S
H840 C845 0.950 . S
H841 C846 0.949 . S
H842 C848 0.950 . S
H843 C849 0.950 . S
H844 C850 0.949 . S
C845 H840 0.950 . S
C845 C847 1.327 . S
C845 C851 1.429 . S
C846 C838 1.574 1_556 S
C846 H841 0.949 . S
C846 C852 1.368 . S
C847 C831 1.349 . S
C847 H839 0.950 . S
C847 C845 1.327 . S
C848 C836 1.349 . S
C848 H842 0.950 . S
C848 C849 1.327 . S
C849 H843 0.950 . S
C849 C848 1.327 . S
C849 C853 1.429 . S
C850 C833 1.574 1_554 S
C850 H844 0.949 . S
C850 C854 1.368 . S
C851 C832 1.429 . S
C851 C845 1.429 . S
C851 C852 1.523 . S
C852 C833 1.368 . S
C852 C846 1.368 . S
C852 C851 1.523 . S
C853 C837 1.429 . S
C853 C849 1.429 . S
C853 C854 1.523 . S
C854 C838 1.368 . S
C854 C850 1.368 . S
C854 C853 1.523 . S
H855 C830 0.950 . S
H856 C832 0.950 . S
H857 C833 0.949 . S
H858 C835 0.950 . S
H859 C837 0.950 . S
C860 C861 1.349 . S
C860 C862 1.327 . S
C860 H885 0.950 . S
C861 C860 1.349 . S
C861 C877 1.349 . S
C862 C860 1.327 . S
C862 C881 1.429 . S
C862 H886 0.950 . S
C863 C880 1.574 . S
C863 C882 1.368 . S
C863 H887 0.949 . S
H864 C868 0.949 . S
C865 C866 1.349 . S
C865 C867 1.327 . S
C865 H888 0.950 . S
C866 C865 1.349 . S
C866 C878 1.349 . S
C867 C865 1.327 . S
C867 C883 1.429 . S
C867 H889 0.950 . S
C868 H864 0.949 . S
C868 C876 1.574 . S
C868 C884 1.368 . S
H869 C877 0.950 . S
H870 C875 0.950 . S
H871 C876 0.949 . S
H872 C878 0.950 . S
H873 C879 0.950 . S
H874 C880 0.949 . S
C875 H870 0.950 . S
C875 C877 1.327 . S
C875 C881 1.429 . S
C876 C868 1.574 . S
C876 H871 0.949 . S
C876 C882 1.368 . S
C877 C861 1.349 . S
C877 H869 0.950 . S
C877 C875 1.327 . S
C878 C866 1.349 . S
C878 H872 0.950 . S
C878 C879 1.327 . S
C879 H873 0.950 . S
C879 C878 1.327 . S
C879 C883 1.429 . S
C880 C863 1.574 . S
C880 H874 0.949 . S
C880 C884 1.368 . S
C881 C862 1.429 . S
C881 C875 1.429 . S
C881 C882 1.523 . S
C882 C863 1.368 . S
C882 C876 1.368 . S
C882 C881 1.523 . S
C883 C867 1.429 . S
C883 C879 1.429 . S
C883 C884 1.523 . S
C884 C868 1.368 . S
C884 C880 1.368 . S
C884 C883 1.523 . S
H885 C860 0.950 . S
H886 C862 0.950 . S
H887 C863 0.949 . S
H888 C865 0.950 . S
H889 C867 0.950 . S
C890 C891 1.349 . S
C890 C892 1.327 . S
C890 H915 0.950 . S
C891 C890 1.349 . S
C891 C907 1.349 . S
C892 C890 1.327 . S
C892 C911 1.429 . S
C892 H916 0.950 . S
C893 C910 1.574 . S
C893 C912 1.368 . S
C893 H917 0.949 . S
H894 C898 0.949 . S
C895 C896 1.349 . S
C895 C897 1.327 . S
C895 H918 0.950 . S
C896 C895 1.349 . S
C896 C908 1.349 . S
C897 C895 1.327 . S
C897 C913 1.429 . S
C897 H919 0.950 . S
C898 H894 0.949 . S
C898 C906 1.574 . S
C898 C914 1.368 . S
H899 C907 0.950 . S
H900 C905 0.950 . S
H901 C906 0.949 . S
H902 C908 0.950 . S
H903 C909 0.950 . S
H904 C910 0.949 . S
C905 H900 0.950 . S
C905 C907 1.327 . S
C905 C911 1.429 . S
C906 C898 1.574 . S
C906 H901 0.949 . S
C906 C912 1.368 . S
C907 C891 1.349 . S
C907 H899 0.950 . S
C907 C905 1.327 . S
C908 C896 1.349 . S
C908 H902 0.950 . S
C908 C909 1.327 . S
C909 H903 0.950 . S
C909 C908 1.327 . S
C909 C913 1.429 . S
C910 C893 1.574 . S
C910 H904 0.949 . S
C910 C914 1.368 . S
C911 C892 1.429 . S
C911 C905 1.429 . S
C911 C912 1.523 . S
C912 C893 1.368 . S
C912 C906 1.368 . S
C912 C911 1.523 . S
C913 C897 1.429 . S
C913 C909 1.429 . S
C913 C914 1.523 . S
C914 C898 1.368 . S
C914 C910 1.368 . S
C914 C913 1.523 . S
H915 C890 0.950 . S
H916 C892 0.950 . S
H917 C893 0.949 . S
H918 C895 0.950 . S
H919 C897 0.950 . S
C920 C921 1.349 . S
C920 C922 1.327 . S
C920 H945 0.950 . S
C921 C920 1.349 . S
C921 C937 1.349 . S
C922 C920 1.327 . S
C922 C941 1.429 . S
C922 H946 0.950 . S
C923 C940 1.574 1_554 S
C923 C942 1.368 . S
C923 H947 0.949 . S
H924 C928 0.949 . S
C925 C926 1.349 . S
C925 C927 1.327 . S
C925 H948 0.950 . S
C926 C925 1.349 . S
C926 C938 1.349 . S
C927 C925 1.327 . S
C927 C943 1.429 . S
C927 H949 0.950 . S
C928 H924 0.949 . S
C928 C936 1.574 1_556 S
C928 C944 1.368 . S
H929 C937 0.950 . S
H930 C935 0.950 . S
H931 C936 0.949 . S
H932 C938 0.950 . S
H933 C939 0.950 . S
H934 C940 0.949 . S
C935 H930 0.950 . S
C935 C937 1.327 . S
C935 C941 1.429 . S
C936 C928 1.574 1_554 S
C936 H931 0.949 . S
C936 C942 1.368 . S
C937 C921 1.349 . S
C937 H929 0.950 . S
C937 C935 1.327 . S
C938 C926 1.349 . S
C938 H932 0.950 . S
C938 C939 1.327 . S
C939 H933 0.950 . S
C939 C938 1.327 . S
C939 C943 1.429 . S
C940 C923 1.574 1_556 S
C940 H934 0.949 . S
C940 C944 1.368 . S
C941 C922 1.429 . S
C941 C935 1.429 . S
C941 C942 1.523 . S
C942 C923 1.368 . S
C942 C936 1.368 . S
C942 C941 1.523 . S
C943 C927 1.429 . S
C943 C939 1.429 . S
C943 C944 1.523 . S
C944 C928 1.368 . S
C944 C940 1.368 . S
C944 C943 1.523 . S
H945 C920 0.950 . S
H946 C922 0.950 . S
H947 C923 0.949 . S
H948 C925 0.950 . S
H949 C927 0.950 . S
C950 C951 1.349 . S
C950 C952 1.327 . S
C950 H975 0.950 . S
C951 C950 1.349 . S
C951 C967 1.349 . S
C952 C950 1.327 . S
C952 C971 1.429 . S
C952 H976 0.950 . S
C953 C970 1.574 1_556 S
C953 C972 1.368 . S
C953 H977 0.949 . S
H954 C958 0.949 . S
C955 C956 1.349 . S
C955 C957 1.327 . S
C955 H978 0.950 . S
C956 C955 1.349 . S
C956 C968 1.349 . S
C957 C955 1.327 . S
C957 C973 1.429 . S
C957 H979 0.950 . S
C958 H954 0.949 . S
C958 C966 1.574 1_554 S
C958 C974 1.368 . S
H959 C967 0.950 . S
H960 C965 0.950 . S
H961 C966 0.949 . S
H962 C968 0.950 . S
H963 C969 0.950 . S
H964 C970 0.949 . S
C965 H960 0.950 . S
C965 C967 1.327 . S
C965 C971 1.429 . S
C966 C958 1.574 1_556 S
C966 H961 0.949 . S
C966 C972 1.368 . S
C967 C951 1.349 . S
C967 H959 0.950 . S
C967 C965 1.327 . S
C968 C956 1.349 . S
C968 H962 0.950 . S
C968 C969 1.327 . S
C969 H963 0.950 . S
C969 C968 1.327 . S
C969 C973 1.429 . S
C970 C953 1.574 1_554 S
C970 H964 0.949 . S
C970 C974 1.368 . S
C971 C952 1.429 . S
C971 C965 1.429 . S
C971 C972 1.523 . S
C972 C953 1.368 . S
C972 C966 1.368 . S
C972 C971 1.523 . S
C973 C957 1.429 . S
C973 C969 1.429 . S
C973 C974 1.523 . S
C974 C958 1.368 . S
C974 C970 1.368 . S
C974 C973 1.523 . S
H975 C950 0.950 . S
H976 C952 0.950 . S
H977 C953 0.949 . S
H978 C955 0.950 . S
H979 C957 0.950 . S
C980 C981 1.349 . S
C980 C982 1.327 . S
C980 H1005 0.950 . S
C981 C980 1.349 . S
C981 C997 1.349 . S
C982 C980 1.327 . S
C982 C1001 1.429 . S
C982 H1006 0.950 . S
C983 C1000 1.574 . S
C983 C1002 1.368 . S
C983 H1007 0.949 . S
H984 C988 0.949 . S
C985 C986 1.349 . S
C985 C987 1.327 . S
C985 H1008 0.950 . S
C986 C985 1.349 . S
C986 C998 1.349 . S
C987 C985 1.327 . S
C987 C1003 1.429 . S
C987 H1009 0.950 . S
C988 H984 0.949 . S
C988 C996 1.574 . S
C988 C1004 1.368 . S
H989 C997 0.950 . S
H990 C995 0.950 . S
H991 C996 0.949 . S
H992 C998 0.950 . S
H993 C999 0.950 . S
H994 C1000 0.949 . S
C995 H990 0.950 . S
C995 C997 1.327 . S
C995 C1001 1.429 . S
C996 C988 1.574 . S
C996 H991 0.949 . S
C996 C1002 1.368 . S
C997 C981 1.349 . S
C997 H989 0.950 . S
C997 C995 1.327 . S
C998 C986 1.349 . S
C998 H992 0.950 . S
C998 C999 1.327 . S
C999 H993 0.950 . S
C999 C998 1.327 . S
C999 C1003 1.429 . S
C1000 C983 1.574 . S
C1000 H994 0.949 . S
C1000 C1004 1.368 . S
C1001 C982 1.429 . S
C1001 C995 1.429 . S
C1001 C1002 1.523 . S
C1002 C983 1.368 . S
C1002 C996 1.368 . S
C1002 C1001 1.523 . S
C1003 C987 1.429 . S
C1003 C999 1.429 . S
C1003 C1004 1.523 . S
C1004 C988 1.368 . S
C1004 C1000 1.368 . S
C1004 C1003 1.523 . S
H1005 C980 0.950 . S
H1006 C982 0.950 . S
H1007 C983 0.949 . S
H1008 C985 0.950 . S
H1009 C987 0.950 . S
C1010 C1011 1.349 . S
C1010 C1012 1.327 . S
C1010 H1035 0.950 . S
C1011 C1010 1.349 . S
C1011 C1027 1.349 . S
C1012 C1010 1.327 . S
C1012 C1031 1.429 . S
C1012 H1036 0.950 . S
C1013 C1030 1.574 . S
C1013 C1032 1.368 . S
C1013 H1037 0.949 . S
H1014 C1018 0.949 . S
C1015 C1016 1.349 . S
C1015 C1017 1.327 . S
C1015 H1038 0.950 . S
C1016 C1015 1.349 . S
C1016 C1028 1.349 . S
C1017 C1015 1.327 . S
C1017 C1033 1.429 . S
C1017 H1039 0.950 . S
C1018 H1014 0.949 . S
C1018 C1026 1.574 . S
C1018 C1034 1.368 . S
H1019 C1027 0.950 . S
H1020 C1025 0.950 . S
H1021 C1026 0.949 . S
H1022 C1028 0.950 . S
H1023 C1029 0.950 . S
H1024 C1030 0.949 . S
C1025 H1020 0.950 . S
C1025 C1027 1.327 . S
C1025 C1031 1.429 . S
C1026 C1018 1.574 . S
C1026 H1021 0.949 . S
C1026 C1032 1.368 . S
C1027 C1011 1.349 . S
C1027 H1019 0.950 . S
C1027 C1025 1.327 . S
C1028 C1016 1.349 . S
C1028 H1022 0.950 . S
C1028 C1029 1.327 . S
C1029 H1023 0.950 . S
C1029 C1028 1.327 . S
C1029 C1033 1.429 . S
C1030 C1013 1.574 . S
C1030 H1024 0.949 . S
C1030 C1034 1.368 . S
C1031 C1012 1.429 . S
C1031 C1025 1.429 . S
C1031 C1032 1.523 . S
C1032 C1013 1.368 . S
C1032 C1026 1.368 . S
C1032 C1031 1.523 . S
C1033 C1017 1.429 . S
C1033 C1029 1.429 . S
C1033 C1034 1.523 . S
C1034 C1018 1.368 . S
C1034 C1030 1.368 . S
C1034 C1033 1.523 . S
H1035 C1010 0.950 . S
H1036 C1012 0.950 . S
H1037 C1013 0.949 . S
H1038 C1015 0.950 . S
H1039 C1017 0.950 . S
C1040 C1041 1.349 . S
C1040 C1042 1.327 . S
C1040 H1065 0.950 . S
C1041 C1040 1.349 . S
C1041 C1057 1.349 1_565 S
C1042 C1040 1.327 . S
C1042 C1061 1.429 . S
C1042 H1066 0.950 . S
C1043 C1060 1.574 1_655 S
C1043 C1062 1.368 1_545 S
C1043 H1067 0.949 . S
H1044 C1048 0.949 . S
C1045 C1046 1.349 . S
C1045 C1047 1.327 . S
C1045 H1068 0.950 . S
C1046 C1045 1.349 . S
C1046 C1058 1.349 1_545 S
C1047 C1045 1.327 . S
C1047 C1063 1.429 . S
C1047 H1069 0.950 . S
C1048 H1044 0.949 . S
C1048 C1056 1.574 1_455 S
C1048 C1064 1.368 1_565 S
H1049 C1057 0.950 . S
H1050 C1055 0.950 . S
H1051 C1056 0.949 . S
H1052 C1058 0.950 . S
H1053 C1059 0.950 . S
H1054 C1060 0.949 . S
C1055 H1050 0.950 . S
C1055 C1057 1.327 . S
C1055 C1061 1.429 1_545 S
C1056 C1048 1.574 1_655 S
C1056 H1051 0.949 . S
C1056 C1062 1.368 . S
C1057 C1041 1.349 1_545 S
C1057 H1049 0.950 . S
C1057 C1055 1.327 . S
C1058 C1046 1.349 1_565 S
C1058 H1052 0.950 . S
C1058 C1059 1.327 . S
C1059 H1053 0.950 . S
C1059 C1058 1.327 . S
C1059 C1063 1.429 1_565 S
C1060 C1043 1.574 1_455 S
C1060 H1054 0.949 . S
C1060 C1064 1.368 . S
C1061 C1042 1.429 . S
C1061 C1055 1.429 1_565 S
C1061 C1062 1.523 . S
C1062 C1043 1.368 1_565 S
C1062 C1056 1.368 . S
C1062 C1061 1.523 . S
C1063 C1047 1.429 . S
C1063 C1059 1.429 1_545 S
C1063 C1064 1.523 . S
C1064 C1048 1.368 1_545 S
C1064 C1060 1.368 . S
C1064 C1063 1.523 . S
H1065 C1040 0.950 . S
H1066 C1042 0.950 . S
H1067 C1043 0.949 . S
H1068 C1045 0.950 . S
H1069 C1047 0.950 . S
C1070 C1071 1.349 . S
C1070 C1072 1.327 . S
C1070 H1095 0.950 . S
C1071 C1070 1.349 . S
C1071 C1087 1.349 1_545 S
C1072 C1070 1.327 . S
C1072 C1091 1.429 . S
C1072 H1096 0.950 . S
C1073 C1090 1.574 1_655 S
C1073 C1092 1.368 1_565 S
C1073 H1097 0.949 . S
H1074 C1078 0.949 . S
C1075 C1076 1.349 . S
C1075 C1077 1.327 . S
C1075 H1098 0.950 . S
C1076 C1075 1.349 . S
C1076 C1088 1.349 1_565 S
C1077 C1075 1.327 . S
C1077 C1093 1.429 . S
C1077 H1099 0.950 . S
C1078 H1074 0.949 . S
C1078 C1086 1.574 1_455 S
C1078 C1094 1.368 1_545 S
H1079 C1087 0.950 . S
H1080 C1085 0.950 . S
H1081 C1086 0.949 . S
H1082 C1088 0.950 . S
H1083 C1089 0.950 . S
H1084 C1090 0.949 . S
C1085 H1080 0.950 . S
C1085 C1087 1.327 . S
C1085 C1091 1.429 1_565 S
C1086 C1078 1.574 1_655 S
C1086 H1081 0.949 . S
C1086 C1092 1.368 . S
C1087 C1071 1.349 1_565 S
C1087 H1079 0.950 . S
C1087 C1085 1.327 . S
C1088 C1076 1.349 1_545 S
C1088 H1082 0.950 . S
C1088 C1089 1.327 . S
C1089 H1083 0.950 . S
C1089 C1088 1.327 . S
C1089 C1093 1.429 1_545 S
C1090 C1073 1.574 1_455 S
C1090 H1084 0.949 . S
C1090 C1094 1.368 . S
C1091 C1072 1.429 . S
C1091 C1085 1.429 1_545 S
C1091 C1092 1.523 . S
C1092 C1073 1.368 1_545 S
C1092 C1086 1.368 . S
C1092 C1091 1.523 . S
C1093 C1077 1.429 . S
C1093 C1089 1.429 1_565 S
C1093 C1094 1.523 . S
C1094 C1078 1.368 1_565 S
C1094 C1090 1.368 . S
C1094 C1093 1.523 . S
H1095 C1070 0.950 . S
H1096 C1072 0.950 . S
H1097 C1073 0.949 . S
H1098 C1075 0.950 . S
H1099 C1077 0.950 . S
C1100 C1101 1.349 . S
C1100 C1102 1.327 . S
C1100 H1125 0.950 . S
C1101 C1100 1.349 . S
C1101 C1117 1.349 1_545 S
C1102 C1100 1.327 . S
C1102 C1121 1.429 . S
C1102 H1126 0.950 . S
C1103 C1120 1.574 1_455 S
C1103 C1122 1.368 1_565 S
C1103 H1127 0.949 . S
H1104 C1108 0.949 . S
C1105 C1106 1.349 . S
C1105 C1107 1.327 . S
C1105 H1128 0.950 . S
C1106 C1105 1.349 . S
C1106 C1118 1.349 1_565 S
C1107 C1105 1.327 . S
C1107 C1123 1.429 . S
C1107 H1129 0.950 . S
C1108 H1104 0.949 . S
C1108 C1116 1.574 1_655 S
C1108 C1124 1.368 1_545 S
H1109 C1117 0.950 . S
H1110 C1115 0.950 . S
H1111 C1116 0.949 . S
H1112 C1118 0.950 . S
H1113 C1119 0.950 . S
H1114 C1120 0.949 . S
C1115 H1110 0.950 . S
C1115 C1117 1.327 . S
C1115 C1121 1.429 1_565 S
C1116 C1108 1.574 1_455 S
C1116 H1111 0.949 . S
C1116 C1122 1.368 . S
C1117 C1101 1.349 1_565 S
C1117 H1109 0.950 . S
C1117 C1115 1.327 . S
C1118 C1106 1.349 1_545 S
C1118 H1112 0.950 . S
C1118 C1119 1.327 . S
C1119 H1113 0.950 . S
C1119 C1118 1.327 . S
C1119 C1123 1.429 1_545 S
C1120 C1103 1.574 1_655 S
C1120 H1114 0.949 . S
C1120 C1124 1.368 . S
C1121 C1102 1.429 . S
C1121 C1115 1.429 1_545 S
C1121 C1122 1.523 . S
C1122 C1103 1.368 1_545 S
C1122 C1116 1.368 . S
C1122 C1121 1.523 . S
C1123 C1107 1.429 . S
C1123 C1119 1.429 1_565 S
C1123 C1124 1.523 . S
C1124 C1108 1.368 1_565 S
C1124 C1120 1.368 . S
C1124 C1123 1.523 . S
H1125 C1100 0.950 . S
H1126 C1102 0.950 . S
H1127 C1103 0.949 . S
H1128 C1105 0.950 . S
H1129 C1107 0.950 . S
C1130 C1131 1.349 . S
C1130 C1132 1.327 . S
C1130 H1155 0.950 . S
C1131 C1130 1.349 . S
C1131 C1147 1.349 1_545 S
C1132 C1130 1.327 . S
C1132 C1151 1.429 . S
C1132 H1156 0.950 . S
C1133 C1150 1.574 1_655 S
C1133 C1152 1.368 1_565 S
C1133 H1157 0.949 . S
H1134 C1138 0.949 . S
C1135 C1136 1.349 . S
C1135 C1137 1.327 . S
C1135 H1158 0.950 . S
C1136 C1135 1.349 . S
C1136 C1148 1.349 1_565 S
C1137 C1135 1.327 . S
C1137 C1153 1.429 . S
C1137 H1159 0.950 . S
C1138 H1134 0.949 . S
C1138 C1146 1.574 1_455 S
C1138 C1154 1.368 1_545 S
H1139 C1147 0.950 . S
H1140 C1145 0.950 . S
H1141 C1146 0.949 . S
H1142 C1148 0.950 . S
H1143 C1149 0.950 . S
H1144 C1150 0.949 . S
C1145 H1140 0.950 . S
C1145 C1147 1.327 . S
C1145 C1151 1.429 1_565 S
C1146 C1138 1.574 1_655 S
C1146 H1141 0.949 . S
C1146 C1152 1.368 . S
C1147 C1131 1.349 1_565 S
C1147 H1139 0.950 . S
C1147 C1145 1.327 . S
C1148 C1136 1.349 1_545 S
C1148 H1142 0.950 . S
C1148 C1149 1.327 . S
C1149 H1143 0.950 . S
C1149 C1148 1.327 . S
C1149 C1153 1.429 1_545 S
C1150 C1133 1.574 1_455 S
C1150 H1144 0.949 . S
C1150 C1154 1.368 . S
C1151 C1132 1.429 . S
C1151 C1145 1.429 1_545 S
C1151 C1152 1.523 . S
C1152 C1133 1.368 1_545 S
C1152 C1146 1.368 . S
C1152 C1151 1.523 . S
C1153 C1137 1.429 . S
C1153 C1149 1.429 1_565 S
C1153 C1154 1.523 . S
C1154 C1138 1.368 1_565 S
C1154 C1150 1.368 . S
C1154 C1153 1.523 . S
H1155 C1130 0.950 . S
H1156 C1132 0.950 . S
H1157 C1133 0.949 . S
H1158 C1135 0.950 . S
H1159 C1137 0.950 . S
C1160 C1161 1.349 . S
C1160 C1162 1.327 . S
C1160 H1185 0.950 . S
C1161 C1160 1.349 . S
C1161 C1177 1.349 . S
C1162 C1160 1.327 . S
C1162 C1181 1.429 . S
C1162 H1186 0.950 . S
C1163 C1180 1.574 . S
C1163 C1182 1.368 . S
C1163 H1187 0.949 . S
H1164 C1168 0.949 . S
C1165 C1166 1.349 . S
C1165 C1167 1.327 . S
C1165 H1188 0.950 . S
C1166 C1165 1.349 . S
C1166 C1178 1.349 . S
C1167 C1165 1.327 . S
C1167 C1183 1.429 . S
C1167 H1189 0.950 . S
C1168 H1164 0.949 . S
C1168 C1176 1.574 . S
C1168 C1184 1.368 . S
H1169 C1177 0.950 . S
H1170 C1175 0.950 . S
H1171 C1176 0.949 . S
H1172 C1178 0.950 . S
H1173 C1179 0.950 . S
H1174 C1180 0.949 . S
C1175 H1170 0.950 . S
C1175 C1177 1.327 . S
C1175 C1181 1.429 . S
C1176 C1168 1.574 . S
C1176 H1171 0.949 . S
C1176 C1182 1.368 . S
C1177 C1161 1.349 . S
C1177 H1169 0.950 . S
C1177 C1175 1.327 . S
C1178 C1166 1.349 . S
C1178 H1172 0.950 . S
C1178 C1179 1.327 . S
C1179 H1173 0.950 . S
C1179 C1178 1.327 . S
C1179 C1183 1.429 . S
C1180 C1163 1.574 . S
C1180 H1174 0.949 . S
C1180 C1184 1.368 . S
C1181 C1162 1.429 . S
C1181 C1175 1.429 . S
C1181 C1182 1.523 . S
C1182 C1163 1.368 . S
C1182 C1176 1.368 . S
C1182 C1181 1.523 . S
C1183 C1167 1.429 . S
C1183 C1179 1.429 . S
C1183 C1184 1.523 . S
C1184 C1168 1.368 . S
C1184 C1180 1.368 . S
C1184 C1183 1.523 . S
H1185 C1160 0.950 . S
H1186 C1162 0.950 . S
H1187 C1163 0.949 . S
H1188 C1165 0.950 . S
H1189 C1167 0.950 . S
C1190 C1191 1.349 . S
C1190 C1192 1.327 . S
C1190 H1215 0.950 . S
C1191 C1190 1.349 . S
C1191 C1207 1.349 . S
C1192 C1190 1.327 . S
C1192 C1211 1.429 . S
C1192 H1216 0.950 . S
C1193 C1210 1.574 . S
C1193 C1212 1.368 . S
C1193 H1217 0.949 . S
H1194 C1198 0.949 . S
C1195 C1196 1.349 . S
C1195 C1197 1.327 . S
C1195 H1218 0.950 . S
C1196 C1195 1.349 . S
C1196 C1208 1.349 . S
C1197 C1195 1.327 . S
C1197 C1213 1.429 . S
C1197 H1219 0.950 . S
C1198 H1194 0.949 . S
C1198 C1206 1.574 . S
C1198 C1214 1.368 . S
H1199 C1207 0.950 . S
H1200 C1205 0.950 . S
H1201 C1206 0.949 . S
H1202 C1208 0.950 . S
H1203 C1209 0.950 . S
H1204 C1210 0.949 . S
C1205 H1200 0.950 . S
C1205 C1207 1.327 . S
C1205 C1211 1.429 . S
C1206 C1198 1.574 . S
C1206 H1201 0.949 . S
C1206 C1212 1.368 . S
C1207 C1191 1.349 . S
C1207 H1199 0.950 . S
C1207 C1205 1.327 . S
C1208 C1196 1.349 . S
C1208 H1202 0.950 . S
C1208 C1209 1.327 . S
C1209 H1203 0.950 . S
C1209 C1208 1.327 . S
C1209 C1213 1.429 . S
C1210 C1193 1.574 . S
C1210 H1204 0.949 . S
C1210 C1214 1.368 . S
C1211 C1192 1.429 . S
C1211 C1205 1.429 . S
C1211 C1212 1.523 . S
C1212 C1193 1.368 . S
C1212 C1206 1.368 . S
C1212 C1211 1.523 . S
C1213 C1197 1.429 . S
C1213 C1209 1.429 . S
C1213 C1214 1.523 . S
C1214 C1198 1.368 . S
C1214 C1210 1.368 . S
C1214 C1213 1.523 . S
H1215 C1190 0.950 . S
H1216 C1192 0.950 . S
H1217 C1193 0.949 . S
H1218 C1195 0.950 . S
H1219 C1197 0.950 . S
C1220 C1221 1.349 . S
C1220 C1222 1.327 . S
C1220 H1245 0.950 . S
C1221 C1220 1.349 . S
C1221 C1237 1.349 . S
C1222 C1220 1.327 . S
C1222 C1241 1.429 . S
C1222 H1246 0.950 . S
C1223 C1240 1.574 . S
C1223 C1242 1.368 . S
C1223 H1247 0.949 . S
H1224 C1228 0.949 . S
C1225 C1226 1.349 . S
C1225 C1227 1.327 . S
C1225 H1248 0.950 . S
C1226 C1225 1.349 . S
C1226 C1238 1.349 . S
C1227 C1225 1.327 . S
C1227 C1243 1.429 . S
C1227 H1249 0.950 . S
C1228 H1224 0.949 . S
C1228 C1236 1.574 . S
C1228 C1244 1.368 . S
H1229 C1237 0.950 . S
H1230 C1235 0.950 . S
H1231 C1236 0.949 . S
H1232 C1238 0.950 . S
H1233 C1239 0.950 . S
H1234 C1240 0.949 . S
C1235 H1230 0.950 . S
C1235 C1237 1.327 . S
C1235 C1241 1.429 . S
C1236 C1228 1.574 . S
C1236 H1231 0.949 . S
C1236 C1242 1.368 . S
C1237 C1221 1.349 . S
C1237 H1229 0.950 . S
C1237 C1235 1.327 . S
C1238 C1226 1.349 . S
C1238 H1232 0.950 . S
C1238 C1239 1.327 . S
C1239 H1233 0.950 . S
C1239 C1238 1.327 . S
C1239 C1243 1.429 . S
C1240 C1223 1.574 . S
C1240 H1234 0.949 . S
C1240 C1244 1.368 . S
C1241 C1222 1.429 . S
C1241 C1235 1.429 . S
C1241 C1242 1.523 . S
C1242 C1223 1.368 . S
C1242 C1236 1.368 . S
C1242 C1241 1.523 . S
C1243 C1227 1.429 . S
C1243 C1239 1.429 . S
C1243 C1244 1.523 . S
C1244 C1228 1.368 . S
C1244 C1240 1.368 . S
C1244 C1243 1.523 . S
H1245 C1220 0.950 . S
H1246 C1222 0.950 . S
H1247 C1223 0.949 . S
H1248 C1225 0.950 . S
H1249 C1227 0.950 . S
C1250 C1251 1.349 . S
C1250 C1252 1.327 . S
C1250 H1275 0.950 . S
C1251 C1250 1.349 . S
C1251 C1267 1.349 . S
C1252 C1250 1.327 . S
C1252 C1271 1.429 . S
C1252 H1276 0.950 . S
C1253 C1270 1.574 . S
C1253 C1272 1.368 . S
C1253 H1277 0.949 . S
H1254 C1258 0.949 . S
C1255 C1256 1.349 . S
C1255 C1257 1.327 . S
C1255 H1278 0.950 . S
C1256 C1255 1.349 . S
C1256 C1268 1.349 . S
C1257 C1255 1.327 . S
C1257 C1273 1.429 . S
C1257 H1279 0.950 . S
C1258 H1254 0.949 . S
C1258 C1266 1.574 . S
C1258 C1274 1.368 . S
H1259 C1267 0.950 . S
H1260 C1265 0.950 . S
H1261 C1266 0.949 . S
H1262 C1268 0.950 . S
H1263 C1269 0.950 . S
H1264 C1270 0.949 . S
C1265 H1260 0.950 . S
C1265 C1267 1.327 . S
C1265 C1271 1.429 . S
C1266 C1258 1.574 . S
C1266 H1261 0.949 . S
C1266 C1272 1.368 . S
C1267 C1251 1.349 . S
C1267 H1259 0.950 . S
C1267 C1265 1.327 . S
C1268 C1256 1.349 . S
C1268 H1262 0.950 . S
C1268 C1269 1.327 . S
C1269 H1263 0.950 . S
C1269 C1268 1.327 . S
C1269 C1273 1.429 . S
C1270 C1253 1.574 . S
C1270 H1264 0.949 . S
C1270 C1274 1.368 . S
C1271 C1252 1.429 . S
C1271 C1265 1.429 . S
C1271 C1272 1.523 . S
C1272 C1253 1.368 . S
C1272 C1266 1.368 . S
C1272 C1271 1.523 . S
C1273 C1257 1.429 . S
C1273 C1269 1.429 . S
C1273 C1274 1.523 . S
C1274 C1258 1.368 . S
C1274 C1270 1.368 . S
C1274 C1273 1.523 . S
H1275 C1250 0.950 . S
H1276 C1252 0.950 . S
H1277 C1253 0.949 . S
H1278 C1255 0.950 . S
H1279 C1257 0.950 . S
C1280 C1281 1.349 . S
C1280 C1282 1.327 . S
C1280 H1305 0.950 . S
C1281 C1280 1.349 . S
C1281 C1297 1.349 . S
C1282 C1280 1.327 . S
C1282 C1301 1.429 . S
C1282 H1306 0.950 . S
C1283 C1300 1.574 . S
C1283 C1302 1.368 . S
C1283 H1307 0.949 . S
H1284 C1288 0.949 . S
C1285 C1286 1.349 . S
C1285 C1287 1.327 . S
C1285 H1308 0.950 . S
C1286 C1285 1.349 . S
C1286 C1298 1.349 . S
C1287 C1285 1.327 . S
C1287 C1303 1.429 . S
C1287 H1309 0.950 . S
C1288 H1284 0.949 . S
C1288 C1296 1.574 . S
C1288 C1304 1.368 . S
H1289 C1297 0.950 . S
H1290 C1295 0.950 . S
H1291 C1296 0.949 . S
H1292 C1298 0.950 . S
H1293 C1299 0.950 . S
H1294 C1300 0.949 . S
C1295 H1290 0.950 . S
C1295 C1297 1.327 . S
C1295 C1301 1.429 . S
C1296 C1288 1.574 . S
C1296 H1291 0.949 . S
C1296 C1302 1.368 . S
C1297 C1281 1.349 . S
C1297 H1289 0.950 . S
C1297 C1295 1.327 . S
C1298 C1286 1.349 . S
C1298 H1292 0.950 . S
C1298 C1299 1.327 . S
C1299 H1293 0.950 . S
C1299 C1298 1.327 . S
C1299 C1303 1.429 . S
C1300 C1283 1.574 . S
C1300 H1294 0.949 . S
C1300 C1304 1.368 . S
C1301 C1282 1.429 . S
C1301 C1295 1.429 . S
C1301 C1302 1.523 . S
C1302 C1283 1.368 . S
C1302 C1296 1.368 . S
C1302 C1301 1.523 . S
C1303 C1287 1.429 . S
C1303 C1299 1.429 . S
C1303 C1304 1.523 . S
C1304 C1288 1.368 . S
C1304 C1300 1.368 . S
C1304 C1303 1.523 . S
H1305 C1280 0.950 . S
H1306 C1282 0.950 . S
H1307 C1283 0.949 . S
H1308 C1285 0.950 . S
H1309 C1287 0.950 . S
C1310 C1311 1.349 . S
C1310 C1312 1.327 . S
C1310 H1335 0.950 . S
C1311 C1310 1.349 . S
C1311 C1327 1.349 . S
C1312 C1310 1.327 . S
C1312 C1331 1.429 . S
C1312 H1336 0.950 . S
C1313 C1330 1.574 . S
C1313 C1332 1.368 . S
C1313 H1337 0.949 . S
H1314 C1318 0.949 . S
C1315 C1316 1.349 . S
C1315 C1317 1.327 . S
C1315 H1338 0.950 . S
C1316 C1315 1.349 . S
C1316 C1328 1.349 . S
C1317 C1315 1.327 . S
C1317 C1333 1.429 . S
C1317 H1339 0.950 . S
C1318 H1314 0.949 . S
C1318 C1326 1.574 . S
C1318 C1334 1.368 . S
H1319 C1327 0.950 . S
H1320 C1325 0.950 . S
H1321 C1326 0.949 . S
H1322 C1328 0.950 . S
H1323 C1329 0.950 . S
H1324 C1330 0.949 . S
C1325 H1320 0.950 . S
C1325 C1327 1.327 . S
C1325 C1331 1.429 . S
C1326 C1318 1.574 . S
C1326 H1321 0.949 . S
C1326 C1332 1.368 . S
C1327 C1311 1.349 . S
C1327 H1319 0.950 . S
C1327 C1325 1.327 . S
C1328 C1316 1.349 . S
C1328 H1322 0.950 . S
C1328 C1329 1.327 . S
C1329 H1323 0.950 . S
C1329 C1328 1.327 . S
C1329 C1333 1.429 . S
C1330 C1313 1.574 . S
C1330 H1324 0.949 . S
C1330 C1334 1.368 . S
C1331 C1312 1.429 . S
C1331 C1325 1.429 . S
C1331 C1332 1.523 . S
C1332 C1313 1.368 . S
C1332 C1326 1.368 . S
C1332 C1331 1.523 . S
C1333 C1317 1.429 . S
C1333 C1329 1.429 . S
C1333 C1334 1.523 . S
C1334 C1318 1.368 . S
C1334 C1330 1.368 . S
C1334 C1333 1.523 . S
H1335 C1310 0.950 . S
H1336 C1312 0.950 . S
H1337 C1313 0.949 . S
H1338 C1315 0.950 . S
H1339 C1317 0.950 . S
C1340 C1341 1.349 . S
C1340 C1342 1.327 . S
C1340 H1365 0.950 . S
C1341 C1340 1.349 . S
C1341 C1357 1.349 . S
C1342 C1340 1.327 . S
C1342 C1361 1.429 . S
C1342 H1366 0.950 . S
C1343 C1360 1.574 . S
C1343 C1362 1.368 . S
C1343 H1367 0.949 . S
H1344 C1348 0.949 . S
C1345 C1346 1.349 . S
C1345 C1347 1.327 . S
C1345 H1368 0.950 . S
C1346 C1345 1.349 . S
C1346 C1358 1.349 . S
C1347 C1345 1.327 . S
C1347 C1363 1.429 . S
C1347 H1369 0.950 . S
C1348 H1344 0.949 . S
C1348 C1356 1.574 . S
C1348 C1364 1.368 . S
H1349 C1357 0.950 . S
H1350 C1355 0.950 . S
H1351 C1356 0.949 . S
H1352 C1358 0.950 . S
H1353 C1359 0.950 . S
H1354 C1360 0.949 . S
C1355 H1350 0.950 . S
C1355 C1357 1.327 . S
C1355 C1361 1.429 . S
C1356 C1348 1.574 . S
C1356 H1351 0.949 . S
C1356 C1362 1.368 . S
C1357 C1341 1.349 . S
C1357 H1349 0.950 . S
C1357 C1355 1.327 . S
C1358 C1346 1.349 . S
C1358 H1352 0.950 . S
C1358 C1359 1.327 . S
C1359 H1353 0.950 . S
C1359 C1358 1.327 . S
C1359 C1363 1.429 . S
C1360 C1343 1.574 . S
C1360 H1354 0.949 . S
C1360 C1364 1.368 . S
C1361 C1342 1.429 . S
C1361 C1355 1.429 . S
C1361 C1362 1.523 . S
C1362 C1343 1.368 . S
C1362 C1356 1.368 . S
C1362 C1361 1.523 . S
C1363 C1347 1.429 . S
C1363 C1359 1.429 . S
C1363 C1364 1.523 . S
C1364 C1348 1.368 . S
C1364 C1360 1.368 . S
C1364 C1363 1.523 . S
H1365 C1340 0.950 . S
H1366 C1342 0.950 . S
H1367 C1343 0.949 . S
H1368 C1345 0.950 . S
H1369 C1347 0.950 . S
C1370 C1371 1.349 . S
C1370 C1372 1.327 . S
C1370 H1395 0.950 . S
C1371 C1370 1.349 . S
C1371 C1387 1.349 . S
C1372 C1370 1.327 . S
C1372 C1391 1.429 . S
C1372 H1396 0.950 . S
C1373 C1390 1.574 . S
C1373 C1392 1.368 . S
C1373 H1397 0.949 . S
H1374 C1378 0.949 . S
C1375 C1376 1.349 . S
C1375 C1377 1.327 . S
C1375 H1398 0.950 . S
C1376 C1375 1.349 . S
C1376 C1388 1.349 . S
C1377 C1375 1.327 . S
C1377 C1393 1.429 . S
C1377 H1399 0.950 . S
C1378 H1374 0.949 . S
C1378 C1386 1.574 . S
C1378 C1394 1.368 . S
H1379 C1387 0.950 . S
H1380 C1385 0.950 . S
H1381 C1386 0.949 . S
H1382 C1388 0.950 . S
H1383 C1389 0.950 . S
H1384 C1390 0.949 . S
C1385 H1380 0.950 . S
C1385 C1387 1.327 . S
C1385 C1391 1.429 . S
C1386 C1378 1.574 . S
C1386 H1381 0.949 . S
C1386 C1392 1.368 . S
C1387 C1371 1.349 . S
C1387 H1379 0.950 . S
C1387 C1385 1.327 . S
C1388 C1376 1.349 . S
C1388 H1382 0.950 . S
C1388 C1389 1.327 . S
C1389 H1383 0.950 . S
C1389 C1388 1.327 . S
C1389 C1393 1.429 . S
C1390 C1373 1.574 . S
C1390 H1384 0.949 . S
C1390 C1394 1.368 . S
C1391 C1372 1.429 . S
C1391 C1385 1.429 . S
C1391 C1392 1.523 . S
C1392 C1373 1.368 . S
C1392 C1386 1.368 . S
C1392 C1391 1.523 . S
C1393 C1377 1.429 . S
C1393 C1389 1.429 . S
C1393 C1394 1.523 . S
C1394 C1378 1.368 . S
C1394 C1390 1.368 . S
C1394 C1393 1.523 . S
H1395 C1370 0.950 . S
H1396 C1372 0.950 . S
H1397 C1373 0.949 . S
H1398 C1375 0.950 . S
H1399 C1377 0.950 . S
C1400 C1401 1.349 . S
C1400 C1402 1.327 . S
C1400 H1425 0.950 . S
C1401 C1400 1.349 . S
C1401 C1417 1.349 . S
C1402 C1400 1.327 . S
C1402 C1421 1.429 . S
C1402 H1426 0.950 . S
C1403 C1420 1.574 . S
C1403 C1422 1.368 . S
C1403 H1427 0.949 . S
H1404 C1408 0.949 . S
C1405 C1406 1.349 . S
C1405 C1407 1.327 . S
C1405 H1428 0.950 . S
C1406 C1405 1.349 . S
C1406 C1418 1.349 . S
C1407 C1405 1.327 . S
C1407 C1423 1.429 . S
C1407 H1429 0.950 . S
C1408 H1404 0.949 . S
C1408 C1416 1.574 . S
C1408 C1424 1.368 . S
H1409 C1417 0.950 . S
H1410 C1415 0.950 . S
H1411 C1416 0.949 . S
H1412 C1418 0.950 . S
H1413 C1419 0.950 . S
H1414 C1420 0.949 . S
C1415 H1410 0.950 . S
C1415 C1417 1.327 . S
C1415 C1421 1.429 . S
C1416 C1408 1.574 . S
C1416 H1411 0.949 . S
C1416 C1422 1.368 . S
C1417 C1401 1.349 . S
C1417 H1409 0.950 . S
C1417 C1415 1.327 . S
C1418 C1406 1.349 . S
C1418 H1412 0.950 . S
C1418 C1419 1.327 . S
C1419 H1413 0.950 . S
C1419 C1418 1.327 . S
C1419 C1423 1.429 . S
C1420 C1403 1.574 . S
C1420 H1414 0.949 . S
C1420 C1424 1.368 . S
C1421 C1402 1.429 . S
C1421 C1415 1.429 . S
C1421 C1422 1.523 . S
C1422 C1403 1.368 . S
C1422 C1416 1.368 . S
C1422 C1421 1.523 . S
C1423 C1407 1.429 . S
C1423 C1419 1.429 . S
C1423 C1424 1.523 . S
C1424 C1408 1.368 . S
C1424 C1420 1.368 . S
C1424 C1423 1.523 . S
H1425 C1400 0.950 . S
H1426 C1402 0.950 . S
H1427 C1403 0.949 . S
H1428 C1405 0.950 . S
H1429 C1407 0.950 . S
C1430 C1431 1.349 . S
C1430 C1432 1.327 . S
C1430 H1455 0.950 . S
C1431 C1430 1.349 . S
C1431 C1447 1.349 . S
C1432 C1430 1.327 . S
C1432 C1451 1.429 . S
C1432 H1456 0.950 . S
C1433 C1450 1.574 . S
C1433 C1452 1.368 . S
C1433 H1457 0.949 . S
H1434 C1438 0.949 . S
C1435 C1436 1.349 . S
C1435 C1437 1.327 . S
C1435 H1458 0.950 . S
C1436 C1435 1.349 . S
C1436 C1448 1.349 . S
C1437 C1435 1.327 . S
C1437 C1453 1.429 . S
C1437 H1459 0.950 . S
C1438 H1434 0.949 . S
C1438 C1446 1.574 . S
C1438 C1454 1.368 . S
H1439 C1447 0.950 . S
H1440 C1445 0.950 . S
H1441 C1446 0.949 . S
H1442 C1448 0.950 . S
H1443 C1449 0.950 . S
H1444 C1450 0.949 . S
C1445 H1440 0.950 . S
C1445 C1447 1.327 . S
C1445 C1451 1.429 . S
C1446 C1438 1.574 . S
C1446 H1441 0.949 . S
C1446 C1452 1.368 . S
C1447 C1431 1.349 . S
C1447 H1439 0.950 . S
C1447 C1445 1.327 . S
C1448 C1436 1.349 . S
C1448 H1442 0.950 . S
C1448 C1449 1.327 . S
C1449 H1443 0.950 . S
C1449 C1448 1.327 . S
C1449 C1453 1.429 . S
C1450 C1433 1.574 . S
C1450 H1444 0.949 . S
C1450 C1454 1.368 . S
C1451 C1432 1.429 . S
C1451 C1445 1.429 . S
C1451 C1452 1.523 . S
C1452 C1433 1.368 . S
C1452 C1446 1.368 . S
C1452 C1451 1.523 . S
C1453 C1437 1.429 . S
C1453 C1449 1.429 . S
C1453 C1454 1.523 . S
C1454 C1438 1.368 . S
C1454 C1450 1.368 . S
C1454 C1453 1.523 . S
H1455 C1430 0.950 . S
H1456 C1432 0.950 . S
H1457 C1433 0.949 . S
H1458 C1435 0.950 . S
H1459 C1437 0.950 . S
C1460 C1461 1.349 . S
C1460 C1462 1.327 . S
C1460 H1485 0.950 . S
C1461 C1460 1.349 . S
C1461 C1477 1.349 . S
C1462 C1460 1.327 . S
C1462 C1481 1.429 . S
C1462 H1486 0.950 . S
C1463 C1480 1.574 . S
C1463 C1482 1.368 . S
C1463 H1487 0.949 . S
H1464 C1468 0.949 . S
C1465 C1466 1.349 . S
C1465 C1467 1.327 . S
C1465 H1488 0.950 . S
C1466 C1465 1.349 . S
C1466 C1478 1.349 . S
C1467 C1465 1.327 . S
C1467 C1483 1.429 . S
C1467 H1489 0.950 . S
C1468 H1464 0.949 . S
C1468 C1476 1.574 . S
C1468 C1484 1.368 . S
H1469 C1477 0.950 . S
H1470 C1475 0.950 . S
H1471 C1476 0.949 . S
H1472 C1478 0.950 . S
H1473 C1479 0.950 . S
H1474 C1480 0.949 . S
C1475 H1470 0.950 . S
C1475 C1477 1.327 . S
C1475 C1481 1.429 . S
C1476 C1468 1.574 . S
C1476 H1471 0.949 . S
C1476 C1482 1.368 . S
C1477 C1461 1.349 . S
C1477 H1469 0.950 . S
C1477 C1475 1.327 . S
C1478 C1466 1.349 . S
C1478 H1472 0.950 . S
C1478 C1479 1.327 . S
C1479 H1473 0.950 . S
C1479 C1478 1.327 . S
C1479 C1483 1.429 . S
C1480 C1463 1.574 . S
C1480 H1474 0.949 . S
C1480 C1484 1.368 . S
C1481 C1462 1.429 . S
C1481 C1475 1.429 . S
C1481 C1482 1.523 . S
C1482 C1463 1.368 . S
C1482 C1476 1.368 . S
C1482 C1481 1.523 . S
C1483 C1467 1.429 . S
C1483 C1479 1.429 . S
C1483 C1484 1.523 . S
C1484 C1468 1.368 . S
C1484 C1480 1.368 . S
C1484 C1483 1.523 . S
H1485 C1460 0.950 . S
H1486 C1462 0.950 . S
H1487 C1463 0.949 . S
H1488 C1465 0.950 . S
H1489 C1467 0.950 . S
C1490 C1491 1.349 . S
C1490 C1492 1.327 . S
C1490 H1515 0.950 . S
C1491 C1490 1.349 . S
C1491 C1507 1.349 . S
C1492 C1490 1.327 . S
C1492 C1511 1.429 . S
C1492 H1516 0.950 . S
C1493 C1510 1.574 . S
C1493 C1512 1.368 . S
C1493 H1517 0.949 . S
H1494 C1498 0.949 . S
C1495 C1496 1.349 . S
C1495 C1497 1.327 . S
C1495 H1518 0.950 . S
C1496 C1495 1.349 . S
C1496 C1508 1.349 . S
C1497 C1495 1.327 . S
C1497 C1513 1.429 . S
C1497 H1519 0.950 . S
C1498 H1494 0.949 . S
C1498 C1506 1.574 . S
C1498 C1514 1.368 . S
H1499 C1507 0.950 . S
H1500 C1505 0.950 . S
H1501 C1506 0.949 . S
H1502 C1508 0.950 . S
H1503 C1509 0.950 . S
H1504 C1510 0.949 . S
C1505 H1500 0.950 . S
C1505 C1507 1.327 . S
C1505 C1511 1.429 . S
C1506 C1498 1.574 . S
C1506 H1501 0.949 . S
C1506 C1512 1.368 . S
C1507 C1491 1.349 . S
C1507 H1499 0.950 . S
C1507 C1505 1.327 . S
C1508 C1496 1.349 . S
C1508 H1502 0.950 . S
C1508 C1509 1.327 . S
C1509 H1503 0.950 . S
C1509 C1508 1.327 . S
C1509 C1513 1.429 . S
C1510 C1493 1.574 . S
C1510 H1504 0.949 . S
C1510 C1514 1.368 . S
C1511 C1492 1.429 . S
C1511 C1505 1.429 . S
C1511 C1512 1.523 . S
C1512 C1493 1.368 . S
C1512 C1506 1.368 . S
C1512 C1511 1.523 . S
C1513 C1497 1.429 . S
C1513 C1509 1.429 . S
C1513 C1514 1.523 . S
C1514 C1498 1.368 . S
C1514 C1510 1.368 . S
C1514 C1513 1.523 . S
H1515 C1490 0.950 . S
H1516 C1492 0.950 . S
H1517 C1493 0.949 . S
H1518 C1495 0.950 . S
H1519 C1497 0.950 . S
C1520 C1521 1.349 . S
C1520 C1522 1.327 . S
C1520 H1545 0.950 . S
C1521 C1520 1.349 . S
C1521 C1537 1.349 . S
C1522 C1520 1.327 . S
C1522 C1541 1.429 . S
C1522 H1546 0.950 . S
C1523 C1540 1.574 . S
C1523 C1542 1.368 . S
C1523 H1547 0.949 . S
H1524 C1528 0.949 . S
C1525 C1526 1.349 . S
C1525 C1527 1.327 . S
C1525 H1548 0.950 . S
C1526 C1525 1.349 . S
C1526 C1538 1.349 . S
C1527 C1525 1.327 . S
C1527 C1543 1.429 . S
C1527 H1549 0.950 . S
C1528 H1524 0.949 . S
C1528 C1536 1.574 . S
C1528 C1544 1.368 . S
H1529 C1537 0.950 . S
H1530 C1535 0.950 . S
H1531 C1536 0.949 . S
H1532 C1538 0.950 . S
H1533 C1539 0.950 . S
H1534 C1540 0.949 . S
C1535 H1530 0.950 . S
C1535 C1537 1.327 . S
C1535 C1541 1.429 . S
C1536 C1528 1.574 . S
C1536 H1531 0.949 . S
C1536 C1542 1.368 . S
C1537 C1521 1.349 . S
C1537 H1529 0.950 . S
C1537 C1535 1.327 . S
C1538 C1526 1.349 . S
C1538 H1532 0.950 . S
C1538 C1539 1.327 . S
C1539 H1533 0.950 . S
C1539 C1538 1.327 . S
C1539 C1543 1.429 . S
C1540 C1523 1.574 . S
C1540 H1534 0.949 . S
C1540 C1544 1.368 . S
C1541 C1522 1.429 . S
C1541 C1535 1.429 . S
C1541 C1542 1.523 1_565 S
C1542 C1523 1.368 . S
C1542 C1536 1.368 . S
C1542 C1541 1.523 1_545 S
C1543 C1527 1.429 . S
C1543 C1539 1.429 . S
C1543 C1544 1.523 . S
C1544 C1528 1.368 . S
C1544 C1540 1.368 . S
C1544 C1543 1.523 . S
H1545 C1520 0.950 . S
H1546 C1522 0.950 . S
H1547 C1523 0.949 . S
H1548 C1525 0.950 . S
H1549 C1527 0.950 . S
C1550 C1551 1.349 . S
C1550 C1552 1.327 . S
C1550 H1575 0.950 . S
C1551 C1550 1.349 . S
C1551 C1567 1.349 . S
C1552 C1550 1.327 . S
C1552 C1571 1.429 . S
C1552 H1576 0.950 . S
C1553 C1570 1.574 . S
C1553 C1572 1.368 . S
C1553 H1577 0.949 . S
H1554 C1558 0.949 . S
C1555 C1556 1.349 . S
C1555 C1557 1.327 . S
C1555 H1578 0.950 . S
C1556 C1555 1.349 . S
C1556 C1568 1.349 . S
C1557 C1555 1.327 . S
C1557 C1573 1.429 . S
C1557 H1579 0.950 . S
C1558 H1554 0.949 . S
C1558 C1566 1.574 . S
C1558 C1574 1.368 . S
H1559 C1567 0.950 . S
H1560 C1565 0.950 . S
H1561 C1566 0.949 . S
H1562 C1568 0.950 . S
H1563 C1569 0.950 . S
H1564 C1570 0.949 . S
C1565 H1560 0.950 . S
C1565 C1567 1.327 . S
C1565 C1571 1.429 . S
C1566 C1558 1.574 . S
C1566 H1561 0.949 . S
C1566 C1572 1.368 . S
C1567 C1551 1.349 . S
C1567 H1559 0.950 . S
C1567 C1565 1.327 . S
C1568 C1556 1.349 . S
C1568 H1562 0.950 . S
C1568 C1569 1.327 . S
C1569 H1563 0.950 . S
C1569 C1568 1.327 . S
C1569 C1573 1.429 . S
C1570 C1553 1.574 . S
C1570 H1564 0.949 . S
C1570 C1574 1.368 . S
C1571 C1552 1.429 . S
C1571 C1565 1.429 . S
C1571 C1572 1.523 . S
C1572 C1553 1.368 . S
C1572 C1566 1.368 . S
C1572 C1571 1.523 . S
C1573 C1557 1.429 . S
C1573 C1569 1.429 . S
C1573 C1574 1.523 1_545 S
C1574 C1558 1.368 . S
C1574 C1570 1.368 . S
C1574 C1573 1.523 1_565 S
H1575 C1550 0.950 . S
H1576 C1552 0.950 . S
H1577 C1553 0.949 . S
H1578 C1555 0.950 . S
H1579 C1557 0.950 . S
C1580 C1581 1.349 . S
C1580 C1582 1.327 . S
C1580 H1605 0.950 . S
C1581 C1580 1.349 . S
C1581 C1597 1.349 . S
C1582 C1580 1.327 . S
C1582 C1601 1.429 . S
C1582 H1606 0.950 . S
C1583 C1600 1.574 . S
C1583 C1602 1.368 . S
C1583 H1607 0.949 . S
H1584 C1588 0.949 . S
C1585 C1586 1.349 . S
C1585 C1587 1.327 . S
C1585 H1608 0.950 . S
C1586 C1585 1.349 . S
C1586 C1598 1.349 . S
C1587 C1585 1.327 . S
C1587 C1603 1.429 . S
C1587 H1609 0.950 . S
C1588 H1584 0.949 . S
C1588 C1596 1.574 . S
C1588 C1604 1.368 . S
H1589 C1597 0.950 . S
H1590 C1595 0.950 . S
H1591 C1596 0.949 . S
H1592 C1598 0.950 . S
H1593 C1599 0.950 . S
H1594 C1600 0.949 . S
C1595 H1590 0.950 . S
C1595 C1597 1.327 . S
C1595 C1601 1.429 . S
C1596 C1588 1.574 . S
C1596 H1591 0.949 . S
C1596 C1602 1.368 . S
C1597 C1581 1.349 . S
C1597 H1589 0.950 . S
C1597 C1595 1.327 . S
C1598 C1586 1.349 . S
C1598 H1592 0.950 . S
C1598 C1599 1.327 . S
C1599 H1593 0.950 . S
C1599 C1598 1.327 . S
C1599 C1603 1.429 . S
C1600 C1583 1.574 . S
C1600 H1594 0.949 . S
C1600 C1604 1.368 . S
C1601 C1582 1.429 . S
C1601 C1595 1.429 . S
C1601 C1602 1.523 1_545 S
C1602 C1583 1.368 . S
C1602 C1596 1.368 . S
C1602 C1601 1.523 1_565 S
C1603 C1587 1.429 . S
C1603 C1599 1.429 . S
C1603 C1604 1.523 . S
C1604 C1588 1.368 . S
C1604 C1600 1.368 . S
C1604 C1603 1.523 . S
H1605 C1580 0.950 . S
H1606 C1582 0.950 . S
H1607 C1583 0.949 . S
H1608 C1585 0.950 . S
H1609 C1587 0.950 . S
C1610 C1611 1.349 . S
C1610 C1612 1.327 . S
C1610 H1635 0.950 . S
C1611 C1610 1.349 . S
C1611 C1627 1.349 . S
C1612 C1610 1.327 . S
C1612 C1631 1.429 . S
C1612 H1636 0.950 . S
C1613 C1630 1.574 . S
C1613 C1632 1.368 . S
C1613 H1637 0.949 . S
H1614 C1618 0.949 . S
C1615 C1616 1.349 . S
C1615 C1617 1.327 . S
C1615 H1638 0.950 . S
C1616 C1615 1.349 . S
C1616 C1628 1.349 . S
C1617 C1615 1.327 . S
C1617 C1633 1.429 . S
C1617 H1639 0.950 . S
C1618 H1614 0.949 . S
C1618 C1626 1.574 . S
C1618 C1634 1.368 . S
H1619 C1627 0.950 . S
H1620 C1625 0.950 . S
H1621 C1626 0.949 . S
H1622 C1628 0.950 . S
H1623 C1629 0.950 . S
H1624 C1630 0.949 . S
C1625 H1620 0.950 . S
C1625 C1627 1.327 . S
C1625 C1631 1.429 . S
C1626 C1618 1.574 . S
C1626 H1621 0.949 . S
C1626 C1632 1.368 . S
C1627 C1611 1.349 . S
C1627 H1619 0.950 . S
C1627 C1625 1.327 . S
C1628 C1616 1.349 . S
C1628 H1622 0.950 . S
C1628 C1629 1.327 . S
C1629 H1623 0.950 . S
C1629 C1628 1.327 . S
C1629 C1633 1.429 . S
C1630 C1613 1.574 . S
C1630 H1624 0.949 . S
C1630 C1634 1.368 . S
C1631 C1612 1.429 . S
C1631 C1625 1.429 . S
C1631 C1632 1.523 1_565 S
C1632 C1613 1.368 . S
C1632 C1626 1.368 . S
C1632 C1631 1.523 1_545 S
C1633 C1617 1.429 . S
C1633 C1629 1.429 . S
C1633 C1634 1.523 . S
C1634 C1618 1.368 . S
C1634 C1630 1.368 . S
C1634 C1633 1.523 . S
H1635 C1610 0.950 . S
H1636 C1612 0.950 . S
H1637 C1613 0.949 . S
H1638 C1615 0.950 . S
H1639 C1617 0.950 . S
C1640 C1641 1.349 . S
C1640 C1642 1.327 . S
C1640 H1665 0.950 . S
C1641 C1640 1.349 . S
C1641 C1657 1.349 . S
C1642 C1640 1.327 . S
C1642 C1661 1.429 . S
C1642 H1666 0.950 . S
C1643 C1660 1.574 . S
C1643 C1662 1.368 . S
C1643 H1667 0.949 . S
H1644 C1648 0.949 . S
C1645 C1646 1.349 . S
C1645 C1647 1.327 . S
C1645 H1668 0.950 . S
C1646 C1645 1.349 . S
C1646 C1658 1.349 . S
C1647 C1645 1.327 . S
C1647 C1663 1.429 . S
C1647 H1669 0.950 . S
C1648 H1644 0.949 . S
C1648 C1656 1.574 . S
C1648 C1664 1.368 . S
H1649 C1657 0.950 . S
H1650 C1655 0.950 . S
H1651 C1656 0.949 . S
H1652 C1658 0.950 . S
H1653 C1659 0.950 . S
H1654 C1660 0.949 . S
C1655 H1650 0.950 . S
C1655 C1657 1.327 . S
C1655 C1661 1.429 . S
C1656 C1648 1.574 . S
C1656 H1651 0.949 . S
C1656 C1662 1.368 . S
C1657 C1641 1.349 . S
C1657 H1649 0.950 . S
C1657 C1655 1.327 . S
C1658 C1646 1.349 . S
C1658 H1652 0.950 . S
C1658 C1659 1.327 . S
C1659 H1653 0.950 . S
C1659 C1658 1.327 . S
C1659 C1663 1.429 . S
C1660 C1643 1.574 . S
C1660 H1654 0.949 . S
C1660 C1664 1.368 . S
C1661 C1642 1.429 . S
C1661 C1655 1.429 . S
C1661 C1662 1.523 . S
C1662 C1643 1.368 . S
C1662 C1656 1.368 . S
C1662 C1661 1.523 . S
C1663 C1647 1.429 . S
C1663 C1659 1.429 . S
C1663 C1664 1.523 1_545 S
C1664 C1648 1.368 . S
C1664 C1660 1.368 . S
C1664 C1663 1.523 1_565 S
H1665 C1640 0.950 . S
H1666 C1642 0.950 . S
H1667 C1643 0.949 . S
H1668 C1645 0.950 . S
H1669 C1647 0.950 . S
C1670 C1671 1.349 . S
C1670 C1672 1.327 . S
C1670 H1695 0.950 . S
C1671 C1670 1.349 . S
C1671 C1687 1.349 . S
C1672 C1670 1.327 . S
C1672 C1691 1.429 . S
C1672 H1696 0.950 . S
C1673 C1690 1.574 . S
C1673 C1692 1.368 . S
C1673 H1697 0.949 . S
H1674 C1678 0.949 . S
C1675 C1676 1.349 . S
C1675 C1677 1.327 . S
C1675 H1698 0.950 . S
C1676 C1675 1.349 . S
C1676 C1688 1.349 . S
C1677 C1675 1.327 . S
C1677 C1693 1.429 . S
C1677 H1699 0.950 . S
C1678 H1674 0.949 . S
C1678 C1686 1.574 . S
C1678 C1694 1.368 . S
H1679 C1687 0.950 . S
H1680 C1685 0.950 . S
H1681 C1686 0.949 . S
H1682 C1688 0.950 . S
H1683 C1689 0.950 . S
H1684 C1690 0.949 . S
C1685 H1680 0.950 . S
C1685 C1687 1.327 . S
C1685 C1691 1.429 . S
C1686 C1678 1.574 . S
C1686 H1681 0.949 . S
C1686 C1692 1.368 . S
C1687 C1671 1.349 . S
C1687 H1679 0.950 . S
C1687 C1685 1.327 . S
C1688 C1676 1.349 . S
C1688 H1682 0.950 . S
C1688 C1689 1.327 . S
C1689 H1683 0.950 . S
C1689 C1688 1.327 . S
C1689 C1693 1.429 . S
C1690 C1673 1.574 . S
C1690 H1684 0.949 . S
C1690 C1694 1.368 . S
C1691 C1672 1.429 . S
C1691 C1685 1.429 . S
C1691 C1692 1.523 . S
C1692 C1673 1.368 . S
C1692 C1686 1.368 . S
C1692 C1691 1.523 . S
C1693 C1677 1.429 . S
C1693 C1689 1.429 . S
C1693 C1694 1.523 1_565 S
C1694 C1678 1.368 . S
C1694 C1690 1.368 . S
C1694 C1693 1.523 1_545 S
H1695 C1670 0.950 . S
H1696 C1672 0.950 . S
H1697 C1673 0.949 . S
H1698 C1675 0.950 . S
H1699 C1677 0.950 . S
C1700 C1701 1.349 . S
C1700 C1702 1.327 . S
C1700 H1725 0.950 . S
C1701 C1700 1.349 . S
C1701 C1717 1.349 . S
C1702 C1700 1.327 . S
C1702 C1721 1.429 . S
C1702 H1726 0.950 . S
C1703 C1720 1.574 . S
C1703 C1722 1.368 . S
C1703 H1727 0.949 . S
H1704 C1708 0.949 . S
C1705 C1706 1.349 . S
C1705 C1707 1.327 . S
C1705 H1728 0.950 . S
C1706 C1705 1.349 . S
C1706 C1718 1.349 . S
C1707 C1705 1.327 . S
C1707 C1723 1.429 . S
C1707 H1729 0.950 . S
C1708 H1704 0.949 . S
C1708 C1716 1.574 . S
C1708 C1724 1.368 . S
H1709 C1717 0.950 . S
H1710 C1715 0.950 . S
H1711 C1716 0.949 . S
H1712 C1718 0.950 . S
H1713 C1719 0.950 . S
H1714 C1720 0.949 . S
C1715 H1710 0.950 . S
C1715 C1717 1.327 . S
C1715 C1721 1.429 . S
C1716 C1708 1.574 . S
C1716 H1711 0.949 . S
C1716 C1722 1.368 . S
C1717 C1701 1.349 . S
C1717 H1709 0.950 . S
C1717 C1715 1.327 . S
C1718 C1706 1.349 . S
C1718 H1712 0.950 . S
C1718 C1719 1.327 . S
C1719 H1713 0.950 . S
C1719 C1718 1.327 . S
C1719 C1723 1.429 . S
C1720 C1703 1.574 . S
C1720 H1714 0.949 . S
C1720 C1724 1.368 . S
C1721 C1702 1.429 . S
C1721 C1715 1.429 . S
C1721 C1722 1.523 1_565 S
C1722 C1703 1.368 . S
C1722 C1716 1.368 . S
C1722 C1721 1.523 1_545 S
C1723 C1707 1.429 . S
C1723 C1719 1.429 . S
C1723 C1724 1.523 . S
C1724 C1708 1.368 . S
C1724 C1720 1.368 . S
C1724 C1723 1.523 . S
H1725 C1700 0.950 . S
H1726 C1702 0.950 . S
H1727 C1703 0.949 . S
H1728 C1705 0.950 . S
H1729 C1707 0.950 . S
C1730 C1731 1.349 . S
C1730 C1732 1.327 . S
C1730 H1755 0.950 . S
C1731 C1730 1.349 . S
C1731 C1747 1.349 . S
C1732 C1730 1.327 . S
C1732 C1751 1.429 . S
C1732 H1756 0.950 . S
C1733 C1750 1.574 . S
C1733 C1752 1.368 . S
C1733 H1757 0.949 . S
H1734 C1738 0.949 . S
C1735 C1736 1.349 . S
C1735 C1737 1.327 . S
C1735 H1758 0.950 . S
C1736 C1735 1.349 . S
C1736 C1748 1.349 . S
C1737 C1735 1.327 . S
C1737 C1753 1.429 . S
C1737 H1759 0.950 . S
C1738 H1734 0.949 . S
C1738 C1746 1.574 . S
C1738 C1754 1.368 . S
H1739 C1747 0.950 . S
H1740 C1745 0.950 . S
H1741 C1746 0.949 . S
H1742 C1748 0.950 . S
H1743 C1749 0.950 . S
H1744 C1750 0.949 . S
C1745 H1740 0.950 . S
C1745 C1747 1.327 . S
C1745 C1751 1.429 . S
C1746 C1738 1.574 . S
C1746 H1741 0.949 . S
C1746 C1752 1.368 . S
C1747 C1731 1.349 . S
C1747 H1739 0.950 . S
C1747 C1745 1.327 . S
C1748 C1736 1.349 . S
C1748 H1742 0.950 . S
C1748 C1749 1.327 . S
C1749 H1743 0.950 . S
C1749 C1748 1.327 . S
C1749 C1753 1.429 . S
C1750 C1733 1.574 . S
C1750 H1744 0.949 . S
C1750 C1754 1.368 . S
C1751 C1732 1.429 . S
C1751 C1745 1.429 . S
C1751 C1752 1.523 . S
C1752 C1733 1.368 . S
C1752 C1746 1.368 . S
C1752 C1751 1.523 . S
C1753 C1737 1.429 . S
C1753 C1749 1.429 . S
C1753 C1754 1.523 1_545 S
C1754 C1738 1.368 . S
C1754 C1750 1.368 . S
C1754 C1753 1.523 1_565 S
H1755 C1730 0.950 . S
H1756 C1732 0.950 . S
H1757 C1733 0.949 . S
H1758 C1735 0.950 . S
H1759 C1737 0.950 . S
C321 C6 1.562 . S
C326 C186 1.562 . S
C351 C26 1.562 . S
C356 C166 1.562 . S
C381 C226 1.562 . S
C386 C46 1.562 . S
C411 C66 1.562 . S
C416 C206 1.562 . S
C441 C276 1.562 . S
C446 C96 1.562 . S
C471 C256 1.562 . S
C476 C116 1.562 . S
C501 C316 1.562 . S
C506 C136 1.562 . S
C531 C156 1.562 . S
C536 C296 1.562 . S
C561 C49 1.560 . S
C566 C9 1.560 . S
C591 C69 1.560 . S
C596 C29 1.560 . S
C621 C121 1.560 . S
C626 C81 1.560 . S
C651 C101 1.560 . S
C656 C141 1.560 . S
C681 C209 1.560 . S
C686 C169 1.560 . S
C711 C229 1.560 . S
C716 C189 1.560 . S
C741 C241 1.560 . S
C746 C281 1.560 . S
C771 C261 1.560 . S
C776 C301 1.560 . S
C801 C109 1.584 . S
C806 C1 1.584 . S
C831 C89 1.584 . S
C836 C21 1.584 . S
C861 C41 1.584 . S
C866 C149 1.584 . S
C891 C129 1.584 . S
C896 C61 1.584 . S
C921 C161 1.584 . S
C926 C269 1.584 . S
C951 C249 1.584 . S
C956 C181 1.584 . S
C981 C201 1.584 . S
C986 C309 1.584 . S
C1011 C289 1.584 . S
C1016 C221 1.584 . S
C1041 C36 1.560 . S
C1046 C16 1.560 . S
C1071 C76 1.560 . S
C1076 C56 1.560 . S
C1101 C106 1.560 . S
C1106 C86 1.560 . S
C1131 C126 1.560 . S
C1136 C146 1.560 . S
C1161 C196 1.560 . S
C1166 C176 1.560 . S
C1191 C236 1.560 . S
C1196 C216 1.560 . S
C1221 C246 1.560 . S
C1226 C266 1.560 . S
C1251 C286 1.560 . S
C1256 C306 1.560 . S
C1281 C8 2.034 . S
C1286 C19 2.034 . S
C1311 C28 2.034 . S
C1316 C39 2.034 . S
C1341 C48 2.034 . S
C1346 C59 2.034 . S
C1371 C79 2.034 . S
C1376 C68 2.034 . S
C1401 C99 2.034 . S
C1406 C88 2.034 . S
C1431 C108 2.034 . S
C1436 C119 2.034 . S
C1461 C139 2.034 . S
C1466 C128 2.034 . S
C1491 C159 2.034 . S
C1496 C148 2.034 . S
C1521 C179 2.034 . S
C1526 C168 2.034 . S
C1551 C188 2.034 . S
C1556 C199 2.034 . S
C1581 C219 2.034 . S
C1586 C208 2.034 . S
C1611 C239 2.034 . S
C1616 C228 2.034 . S
C1641 C259 2.034 . S
C1646 C248 2.034 . S
C1671 C279 2.034 . S
C1676 C268 2.034 . S
C1701 C288 2.034 . S
C1706 C299 2.034 . S
C1731 C319 2.034 . S
C1736 C308 2.034 . S
