# Generated by pormake.
# Topology dmp, (4)-cn, num edge types: 1
# Building blocks:
#     Node 0, Type 0, BuildingBlock: KUFVIS_clean_sbu_0, # of connection points: 4
#     Node 1, Type 0, BuildingBlock: KUFVIS_clean_sbu_0, # of connection points: 4
#     Node 2, Type 0, BuildingBlock: KUFVIS_clean_sbu_0, # of connection points: 4
#     Node 3, Type 0, BuildingBlock: KUFVIS_clean_sbu_0, # of connection points: 4
#     Edge 4, Type (0, 0), BuildingBlock: EZIPEK_clean_linker_0, # of connection points: 2
#     Edge 5, Type (0, 0), BuildingBlock: EZIPEK_clean_linker_0, # of connection points: 2
#     Edge 6, Type (0, 0), BuildingBlock: EZIPEK_clean_linker_0, # of connection points: 2
#     Edge 7, Type (0, 0), BuildingBlock: EZIPEK_clean_linker_0, # of connection points: 2
#     Edge 8, Type (0, 0), BuildingBlock: EZIPEK_clean_linker_0, # of connection points: 2
#     Edge 9, Type (0, 0), BuildingBlock: EZIPEK_clean_linker_0, # of connection points: 2
#     Edge 10, Type (0, 0), BuildingBlock: EZIPEK_clean_linker_0, # of connection points: 2
#     Edge 11, Type (0, 0), BuildingBlock: EZIPEK_clean_linker_0, # of connection points: 2
# Relax obj value: 0.121
# Max RMSD: 0.218
# Mean RMSD: 0.218
data_MOF--net-dmp--node1-KUFVIS_clean_sbu_0--edge1-EZIPEK_clean_linker_0
_symmetry_space_group_name_H-M    P1
_symmetry_Int_Tables_number       1
_symmetry_cell_setting            triclinic
loop_
_symmetry_equiv_pos_as_xyz
'x, y, z'
_cell_length_a     28.273321
_cell_length_b     13.682899
_cell_length_c     11.339141
_cell_angle_alpha  90.028972
_cell_angle_beta   90.025174
_cell_angle_gamma 94.101535
loop_
_atom_site_label
_atom_site_type_symbol
_atom_site_fract_x
_atom_site_fract_y
_atom_site_fract_z
_atom_type_partial_charge
Mn0 Mn 0.12005 0.23034 0.29288 0.0
Mn1 Mn 0.18984 0.20568 0.05441 0.0
C2 C 0.17519 0.35836 0.25155 0.0
C3 C 0.05125 0.28793 0.38203 0.0
C4 C 0.20463 0.1019 0.28871 0.0
O5 O 0.08239 0.12508 0.19724 0.0
O6 O 0.12887 0.12368 0.03606 0.0
C7 C 0.13594 0.28468 0.8545 0.0
N8 N 0.17693 0.27921 0.91629 0.0
C9 C 0.22268 0.35983 0.7603 0.0
C10 C 0.18093 0.36767 0.6958 0.0
C11 C 0.13744 0.33088 0.74359 0.0
C12 C 0.21902 0.31503 0.87108 0.0
H13 H 0.10268 0.25352 0.88931 0.0
C14 C 0.09108 0.09646 0.09291 0.0
O15 O 0.07416 0.21894 0.42934 0.0
O16 O 0.06726 0.31903 0.28095 0.0
N17 N 0.24982 0.2789 0.05398 0.0
C18 C 0.28388 0.28887 0.13862 0.0
C19 C 0.33021 0.32305 0.10681 0.0
C20 C 0.34009 0.35135 0.98953 0.0
C21 C 0.30283 0.35111 0.90756 0.0
C22 C 0.25801 0.31278 0.94369 0.0
H23 H 0.27576 0.26838 0.22874 0.0
O24 O 0.16028 0.33754 0.35696 0.0
O25 O 0.16003 0.29712 0.16732 0.0
O26 O 0.17059 0.13591 0.34602 0.0
O27 O 0.2113 0.1222 0.18105 0.0
C28 C 0.30779 0.39123 0.79352 0.0
C29 C 0.26769 0.39649 0.72026 0.0
H30 H 0.18176 0.40256 0.61003 0.0
H31 H 0.10547 0.33758 0.69381 0.0
H32 H 0.35807 0.32819 0.17246 0.0
H33 H 0.3756 0.37938 0.96562 0.0
H34 H 0.34191 0.4211 0.76276 0.0
H35 H 0.27173 0.43054 0.63425 0.0
Mn36 Mn 0.40041 0.70328 0.33608 0.0
Mn37 Mn 0.3368 0.81132 0.12263 0.0
C38 C 0.32668 0.63454 0.28178 0.0
C39 C 0.45259 0.5879 0.40328 0.0
C40 C 0.33873 0.87702 0.37772 0.0
O41 O 0.45101 0.79515 0.25555 0.0
O42 O 0.40422 0.86432 0.12271 0.0
C43 C 0.38456 0.74101 0.90947 0.0
N44 N 0.34425 0.74954 0.97323 0.0
C45 C 0.29602 0.67668 0.81704 0.0
C46 C 0.33696 0.66734 0.74972 0.0
C47 C 0.38141 0.7001 0.79597 0.0
C48 C 0.30122 0.72017 0.92847 0.0
H49 H 0.41879 0.76628 0.94425 0.0
C50 C 0.44458 0.85441 0.17068 0.0
O51 O 0.44507 0.66624 0.46311 0.0
O52 O 0.43409 0.58261 0.29852 0.0
N53 N 0.27109 0.76918 0.10827 0.0
C54 C 0.23488 0.78367 0.18415 0.0
C55 C 0.18839 0.75087 0.15321 0.0
C56 C 0.17928 0.70766 0.04235 0.0
C57 C 0.21673 0.69828 0.96324 0.0
C58 C 0.26249 0.73059 0.99996 0.0
H59 H 0.24155 0.81758 0.26895 0.0
O60 O 0.34555 0.61505 0.38245 0.0
O61 O 0.35199 0.69307 0.21136 0.0
O62 O 0.36955 0.82079 0.41663 0.0
O63 O 0.3254 0.8779 0.27044 0.0
C64 C 0.21064 0.65498 0.85101 0.0
C65 C 0.25029 0.64385 0.77826 0.0
H66 H 0.33448 0.63569 0.66222 0.0
H67 H 0.41321 0.69458 0.74414 0.0
H68 H 0.15972 0.75866 0.21493 0.0
H69 H 0.14349 0.68109 0.01909 0.0
H70 H 0.17572 0.62828 0.82072 0.0
H71 H 0.2453 0.60858 0.69341 0.0
Mn72 Mn 0.90038 0.70354 0.6838 0.0
Mn73 Mn 0.83707 0.8125 0.89702 0.0
C74 C 0.82675 0.63505 0.73861 0.0
C75 C 0.95239 0.58783 0.61688 0.0
C76 C 0.83853 0.87677 0.6415 0.0
O77 O 0.95112 0.79573 0.76359 0.0
O78 O 0.90446 0.86562 0.89607 0.0
C79 C 0.88536 0.74245 0.10965 0.0
N80 N 0.84486 0.75169 0.04683 0.0
C81 C 0.79699 0.67994 0.20414 0.0
C82 C 0.83812 0.67003 0.27058 0.0
C83 C 0.88251 0.70182 0.22329 0.0
C84 C 0.8019 0.72337 0.09265 0.0
H85 H 0.91954 0.76675 0.07391 0.0
C86 C 0.94478 0.85548 0.84805 0.0
O87 O 0.94484 0.66591 0.55666 0.0
O88 O 0.93407 0.58307 0.7218 0.0
N89 N 0.7714 0.77041 0.91237 0.0
C90 C 0.73508 0.78351 0.83627 0.0
C91 C 0.6887 0.75044 0.86772 0.0
C92 C 0.67983 0.7081 0.97908 0.0
C93 C 0.71739 0.70002 0.05829 0.0
C94 C 0.76301 0.73305 0.02132 0.0
H95 H 0.7416 0.81638 0.75088 0.0
O96 O 0.84551 0.61523 0.63793 0.0
O97 O 0.85215 0.69368 0.80892 0.0
O98 O 0.86942 0.82062 0.60285 0.0
O99 O 0.82532 0.87815 0.74882 0.0
C100 C 0.7116 0.65682 0.17059 0.0
C101 C 0.75142 0.64626 0.24305 0.0
H102 H 0.83585 0.63831 0.35799 0.0
H103 H 0.91447 0.69541 0.27431 0.0
H104 H 0.65996 0.7571 0.80588 0.0
H105 H 0.64414 0.68107 1.00258 0.0
H106 H 0.67683 0.62932 0.2009 0.0
H107 H 0.74675 0.6101 0.3274 0.0
Mn108 Mn 0.62056 0.23056 0.72903 0.0
Mn109 Mn 0.69003 0.20315 0.96755 0.0
C110 C 0.67606 0.35761 0.77245 0.0
C111 C 0.552 0.28916 0.63955 0.0
C112 C 0.70496 0.10165 0.73182 0.0
O113 O 0.58247 0.12498 0.82293 0.0
O114 O 0.62894 0.12135 0.98395 0.0
C115 C 0.63584 0.28152 0.16747 0.0
N116 N 0.67701 0.27506 0.10683 0.0
C117 C 0.72282 0.35084 0.26611 0.0
C118 C 0.68089 0.3598 0.3295 0.0
C119 C 0.6373 0.32609 0.27941 0.0
C120 C 0.71918 0.30835 0.15398 0.0
H121 H 0.60249 0.25251 0.13086 0.0
C122 C 0.5911 0.09512 0.92673 0.0
O123 O 0.57492 0.22036 0.59188 0.0
O124 O 0.56795 0.31973 0.74101 0.0
N125 N 0.75012 0.27577 0.97034 0.0
C126 C 0.78414 0.2884 0.88602 0.0
C127 C 0.83045 0.32172 0.91917 0.0
C128 C 0.84047 0.34529 0.03788 0.0
C129 C 0.80334 0.34141 0.12042 0.0
C130 C 0.75834 0.30604 0.0821 0.0
H131 H 0.77599 0.27062 0.79506 0.0
O132 O 0.6612 0.33762 0.6667 0.0
O133 O 0.66057 0.29613 0.85598 0.0
O134 O 0.67087 0.13602 0.67512 0.0
O135 O 0.7117 0.12102 0.83973 0.0
C136 C 0.80832 0.37815 0.23622 0.0
C137 C 0.76799 0.38426 0.30848 0.0
H138 H 0.68167 0.39332 0.41612 0.0
H139 H 0.60521 0.33391 0.32817 0.0
H140 H 0.85826 0.32935 0.85357 0.0
H141 H 0.87599 0.37245 0.06291 0.0
H142 H 0.8426 0.40571 0.26875 0.0
H143 H 0.77201 0.4165 0.39553 0.0
C144 C 0.32589 0.04443 0.40491 0.0
C145 C 0.31764 0.95153 0.45337 0.0
C146 C 0.2321 0.97643 0.44149 0.0
C147 C 0.24252 0.0476 0.35043 0.0
N148 N 0.30704 0.09852 0.2143 0.0
N149 N 0.26424 0.85535 0.57493 0.0
C150 C 0.2916 0.07235 0.3244 0.0
C151 C 0.27077 0.92708 0.49227 0.0
N152 N 0.37015 0.08995 0.40844 0.0
N153 N 0.18617 0.95002 0.47101 0.0
H154 H 0.29335 0.82205 0.60957 0.0
H155 H 0.2316 0.83074 0.61015 0.0
H156 H 0.15741 0.97632 0.42679 0.0
H157 H 0.17624 0.89962 0.53659 0.0
H158 H 0.37801 0.15759 0.36757 0.0
H159 H 0.39693 0.06149 0.45881 0.0
H160 H 0.34307 0.11134 0.19495 0.0
H161 H 0.28605 0.08965 0.13927 0.0
C162 C 0.20163 0.52557 0.33118 0.0
C163 C 0.19873 0.45901 0.23519 0.0
C164 C 0.26882 0.53733 0.14807 0.0
C165 C 0.279 0.58857 0.25503 0.0
N166 N 0.2486 0.65377 0.43543 0.0
N167 N 0.20496 0.47571 0.02656 0.0
C168 C 0.24306 0.5901 0.34297 0.0
C169 C 0.22464 0.48584 0.13471 0.0
N170 N 0.16351 0.53064 0.40443 0.0
N171 N 0.30039 0.53322 0.05874 0.0
H172 H 0.16939 0.45148 0.01495 0.0
H173 H 0.16939 0.45148 0.01495 0.0
H174 H 0.33552 0.56181 0.06338 0.0
H175 H 0.33552 0.56181 0.06338 0.0
H176 H 0.16239 0.5764 0.47737 0.0
H177 H 0.1308 0.49391 0.38484 0.0
H178 H 0.22477 0.65758 0.50458 0.0
H179 H 0.27714 0.70595 0.44081 0.0
C180 C 0.73181 0.97577 0.57898 0.0
C181 C 0.74265 0.04756 0.66917 0.0
C182 C 0.82579 0.044 0.61266 0.0
C183 C 0.81727 0.95069 0.56543 0.0
N184 N 0.76332 0.85331 0.44638 0.0
N185 N 0.80775 0.10046 0.80278 0.0
C186 C 0.77023 0.92597 0.52782 0.0
C187 C 0.79184 0.0728 0.69355 0.0
N188 N 0.68575 0.94933 0.55055 0.0
N189 N 0.87009 0.08926 0.60774 0.0
H190 H 0.78717 0.09156 0.87842 0.0
H191 H 0.84384 0.11397 0.82109 0.0
H192 H 0.89664 0.06012 0.55728 0.0
H193 H 0.87818 0.15732 0.64749 0.0
H194 H 0.67554 0.89872 0.48534 0.0
H195 H 0.65718 0.97607 0.59506 0.0
H196 H 0.7305 0.82805 0.41263 0.0
H197 H 0.79228 0.81977 0.41141 0.0
C198 C 0.74296 0.58876 0.67957 0.0
C199 C 0.77937 0.58816 0.7663 0.0
C200 C 0.72604 0.4853 0.88943 0.0
C201 C 0.69949 0.45831 0.78967 0.0
N202 N 0.66243 0.53147 0.62426 0.0
N203 N 0.80255 0.54067 0.96247 0.0
C204 C 0.70148 0.52513 0.69415 0.0
C205 C 0.77004 0.53847 0.8743 0.0
N206 N 0.74811 0.65051 0.58529 0.0
N207 N 0.7071 0.47362 0.99824 0.0
H208 H 0.83776 0.56692 0.95181 0.0
H209 H 0.79329 0.51598 0.04663 0.0
H210 H 0.67173 0.4484 1.01087 0.0
H211 H 0.67173 0.4484 1.01087 0.0
H212 H 0.72423 0.65173 0.51584 0.0
H213 H 0.77657 0.7027 0.57789 0.0
H214 H 0.6602 0.57975 0.55407 0.0
H215 H 0.63003 0.49404 0.64521 0.0
C216 C 0.05636 0.93042 0.02739 0.0
C217 C 0.0541 0.03362 0.02954 0.0
C218 C 0.98601 0.01946 0.89412 0.0
C219 C 0.98588 0.91572 0.89904 0.0
N220 N 0.01702 0.77101 0.98127 0.0
N221 N 0.013 0.17639 0.9797 0.0
C222 C 0.02026 0.87066 0.968 0.0
C223 C 0.01783 0.07818 0.96691 0.0
N224 N 0.09317 0.88961 0.08221 0.0
N225 N 0.9563 0.06167 0.81722 0.0
H226 H 0.03581 0.22184 0.03139 0.0
H227 H 0.98436 0.21174 0.94696 0.0
H228 H 0.93325 0.02041 0.76165 0.0
H229 H 0.95724 0.13659 0.8007 0.0
H230 H 0.0992 0.81593 0.07567 0.0
H231 H 0.1193 0.93053 0.12967 0.0
H232 H 0.03704 0.7339 0.04126 0.0
H233 H 0.99184 0.7248 0.93757 0.0
C234 C 0.51769 0.07696 0.05189 0.0
C235 C 0.55393 0.03229 0.98931 0.0
C236 C 0.51995 0.8694 0.05046 0.0
C237 C 0.48562 0.91457 0.11944 0.0
N238 N 0.45614 0.0606 0.20135 0.0
N239 N 0.59286 0.88812 0.93641 0.0
C240 C 0.48581 0.01831 0.12447 0.0
C241 C 0.5561 0.92905 0.99124 0.0
N242 N 0.51296 0.17522 0.03936 0.0
N243 N 0.51662 0.76975 0.03707 0.0
H244 H 0.61899 0.92898 0.88899 0.0
H245 H 0.59884 0.8144 0.94282 0.0
H246 H 0.4914 0.72365 0.08064 0.0
H247 H 0.53663 0.73255 0.97712 0.0
H248 H 0.48436 0.21068 0.0721 0.0
H249 H 0.53584 0.22066 0.98791 0.0
H250 H 0.45713 0.13551 0.21803 0.0
H251 H 0.43304 0.01939 0.25674 0.0
C252 C 1.00007 0.43578 0.62478 0.0
C253 C 0.97263 0.50041 0.55979 0.0
C254 C 0.98434 0.40193 0.38085 0.0
C255 C 0.0139 0.34151 0.44548 0.0
N256 N 0.0233 0.26925 0.63719 0.0
N257 N 0.92274 0.51572 0.38859 0.0
C258 C 0.01369 0.34816 0.57028 0.0
C259 C 0.96025 0.47543 0.44092 0.0
N260 N 0.01491 0.45885 0.73659 0.0
N261 N 0.97735 0.38569 0.26303 0.0
H262 H 0.89925 0.55625 0.43534 0.0
H263 H 0.91134 0.49987 0.30313 0.0
H264 H 0.98649 0.32155 0.22168 0.0
H265 H 0.96273 0.43553 0.20668 0.0
H266 H 0.03763 0.4165 0.7837 0.0
H267 H 0.00875 0.52497 0.7774 0.0
H268 H 0.0201 0.26877 0.7288 0.0
H269 H 0.0279 0.20076 0.60047 0.0
C270 C 0.50019 0.43557 0.39611 0.0
C271 C 0.473 0.50083 0.46083 0.0
C272 C 0.48533 0.40393 0.64066 0.0
C273 C 0.51462 0.34285 0.5762 0.0
N274 N 0.52295 0.26865 0.38511 0.0
N275 N 0.42356 0.51722 0.63246 0.0
C276 C 0.51389 0.34835 0.45133 0.0
C277 C 0.46101 0.47682 0.58012 0.0
N278 N 0.51471 0.45758 0.28384 0.0
N279 N 0.47868 0.38879 0.75874 0.0
H280 H 0.39982 0.5571 0.58561 0.0
H281 H 0.41247 0.50191 0.71822 0.0
H282 H 0.48766 0.32479 0.80062 0.0
H283 H 0.46442 0.43938 0.81476 0.0
H284 H 0.53729 0.41472 0.23699 0.0
H285 H 0.50844 0.52333 0.24236 0.0
H286 H 0.51935 0.26741 0.29358 0.0
H287 H 0.52754 0.20044 0.42252 0.0
loop_
_geom_bond_atom_site_label_1
_geom_bond_atom_site_label_2
_geom_bond_distance
_geom_bond_site_symmetry_2
_ccdc_geom_bond_type
Mn0 O5 2.095 . S
Mn0 O15 2.162 . S
Mn0 O16 2.297 . S
Mn0 O24 2.385 . S
Mn0 O25 2.209 . S
Mn0 O26 2.094 . S
Mn1 O6 2.121 . S
Mn1 N8 2.257 1_554 S
Mn1 N17 2.282 . S
Mn1 O25 2.215 . S
Mn1 O27 2.117 . S
C2 O24 1.234 . S
C2 O25 1.283 . S
C3 O15 1.281 . S
C3 O16 1.236 . S
C4 O26 1.240 . S
C4 O27 1.264 . S
O5 Mn0 2.095 . S
O5 C14 1.250 . S
O6 Mn1 2.121 . S
O6 C14 1.258 . S
C7 N8 1.326 . S
C7 C11 1.460 . S
C7 H13 0.929 . S
N8 Mn1 2.257 1_556 S
N8 C7 1.326 . S
N8 C12 1.362 . S
C9 C10 1.258 . S
C9 C12 1.431 . S
C9 C29 1.449 . S
C10 C9 1.258 . S
C10 C11 1.477 . S
C10 H30 0.931 . S
C11 C7 1.460 . S
C11 C10 1.477 . S
C11 H31 0.930 . S
C12 N8 1.362 . S
C12 C9 1.431 . S
C12 C22 1.476 . S
H13 C7 0.929 . S
C14 O5 1.250 . S
C14 O6 1.258 . S
O15 Mn0 2.162 . S
O15 C3 1.281 . S
O16 Mn0 2.297 . S
O16 C3 1.236 . S
N17 Mn1 2.282 . S
N17 C18 1.328 . S
N17 C22 1.318 1_554 S
C18 N17 1.328 . S
C18 C19 1.457 . S
C18 H23 0.929 . S
C19 C18 1.457 . S
C19 C20 1.291 . S
C19 H32 0.931 . S
C20 C19 1.291 . S
C20 C21 1.373 1_554 S
C20 H33 0.929 . S
C21 C20 1.373 1_556 S
C21 C22 1.396 . S
C21 C28 1.403 . S
C22 C12 1.476 . S
C22 N17 1.318 1_556 S
C22 C21 1.396 . S
H23 C18 0.929 . S
O24 Mn0 2.385 . S
O24 C2 1.234 . S
O25 Mn0 2.209 . S
O25 Mn1 2.215 . S
O25 C2 1.283 . S
O26 Mn0 2.094 . S
O26 C4 1.240 . S
O27 Mn1 2.117 . S
O27 C4 1.264 . S
C28 C21 1.403 . S
C28 C29 1.399 . S
C28 H34 0.929 . S
C29 C9 1.449 . S
C29 C28 1.399 . S
C29 H35 0.930 . S
H30 C10 0.931 . S
H31 C11 0.930 . S
H32 C19 0.931 . S
H33 C20 0.929 . S
H34 C28 0.929 . S
H35 C29 0.930 . S
Mn36 O41 2.095 . S
Mn36 O51 2.162 . S
Mn36 O52 2.297 . S
Mn36 O60 2.385 . S
Mn36 O61 2.209 . S
Mn36 O62 2.094 . S
Mn37 O42 2.121 . S
Mn37 N44 2.257 1_554 S
Mn37 N53 2.282 . S
Mn37 O61 2.215 . S
Mn37 O63 2.117 . S
C38 O60 1.234 . S
C38 O61 1.283 . S
C39 O51 1.281 . S
C39 O52 1.236 . S
C40 O62 1.240 . S
C40 O63 1.264 . S
O41 Mn36 2.095 . S
O41 C50 1.250 . S
O42 Mn37 2.121 . S
O42 C50 1.258 . S
C43 N44 1.326 . S
C43 C47 1.460 . S
C43 H49 0.929 . S
N44 Mn37 2.257 1_556 S
N44 C43 1.326 . S
N44 C48 1.362 . S
C45 C46 1.258 . S
C45 C48 1.431 . S
C45 C65 1.449 . S
C46 C45 1.258 . S
C46 C47 1.477 . S
C46 H66 0.931 . S
C47 C43 1.460 . S
C47 C46 1.477 . S
C47 H67 0.930 . S
C48 N44 1.362 . S
C48 C45 1.431 . S
C48 C58 1.476 . S
H49 C43 0.929 . S
C50 O41 1.250 . S
C50 O42 1.258 . S
O51 Mn36 2.162 . S
O51 C39 1.281 . S
O52 Mn36 2.297 . S
O52 C39 1.236 . S
N53 Mn37 2.282 . S
N53 C54 1.328 . S
N53 C58 1.318 1_554 S
C54 N53 1.328 . S
C54 C55 1.457 . S
C54 H59 0.929 . S
C55 C54 1.457 . S
C55 C56 1.291 . S
C55 H68 0.931 . S
C56 C55 1.291 . S
C56 C57 1.373 1_554 S
C56 H69 0.929 . S
C57 C56 1.373 1_556 S
C57 C58 1.396 . S
C57 C64 1.403 . S
C58 C48 1.476 . S
C58 N53 1.318 1_556 S
C58 C57 1.396 . S
H59 C54 0.929 . S
O60 Mn36 2.385 . S
O60 C38 1.234 . S
O61 Mn36 2.209 . S
O61 Mn37 2.215 . S
O61 C38 1.283 . S
O62 Mn36 2.094 . S
O62 C40 1.240 . S
O63 Mn37 2.117 . S
O63 C40 1.264 . S
C64 C57 1.403 . S
C64 C65 1.399 . S
C64 H70 0.929 . S
C65 C45 1.449 . S
C65 C64 1.399 . S
C65 H71 0.930 . S
H66 C46 0.931 . S
H67 C47 0.930 . S
H68 C55 0.931 . S
H69 C56 0.929 . S
H70 C64 0.929 . S
H71 C65 0.930 . S
Mn72 O77 2.095 . S
Mn72 O87 2.162 . S
Mn72 O88 2.297 . S
Mn72 O96 2.385 . S
Mn72 O97 2.209 . S
Mn72 O98 2.094 . S
Mn73 O78 2.121 . S
Mn73 N80 2.257 1_556 S
Mn73 N89 2.282 . S
Mn73 O97 2.215 . S
Mn73 O99 2.117 . S
C74 O96 1.234 . S
C74 O97 1.283 . S
C75 O87 1.281 . S
C75 O88 1.236 . S
C76 O98 1.240 . S
C76 O99 1.264 . S
O77 Mn72 2.095 . S
O77 C86 1.250 . S
O78 Mn73 2.121 . S
O78 C86 1.258 . S
C79 N80 1.326 . S
C79 C83 1.460 . S
C79 H85 0.929 . S
N80 Mn73 2.257 1_554 S
N80 C79 1.326 . S
N80 C84 1.362 . S
C81 C82 1.258 . S
C81 C84 1.431 . S
C81 C101 1.449 . S
C82 C81 1.258 . S
C82 C83 1.477 . S
C82 H102 0.931 . S
C83 C79 1.460 . S
C83 C82 1.477 . S
C83 H103 0.930 . S
C84 N80 1.362 . S
C84 C81 1.431 . S
C84 C94 1.476 . S
H85 C79 0.929 . S
C86 O77 1.250 . S
C86 O78 1.258 . S
O87 Mn72 2.162 . S
O87 C75 1.281 . S
O88 Mn72 2.297 . S
O88 C75 1.236 . S
N89 Mn73 2.282 . S
N89 C90 1.328 . S
N89 C94 1.318 1_556 S
C90 N89 1.328 . S
C90 C91 1.457 . S
C90 H95 0.929 . S
C91 C90 1.457 . S
C91 C92 1.291 . S
C91 H104 0.931 . S
C92 C91 1.291 . S
C92 C93 1.373 1_556 S
C92 H105 0.929 . S
C93 C92 1.373 1_554 S
C93 C94 1.396 . S
C93 C100 1.403 . S
C94 C84 1.476 . S
C94 N89 1.318 1_554 S
C94 C93 1.396 . S
H95 C90 0.929 . S
O96 Mn72 2.385 . S
O96 C74 1.234 . S
O97 Mn72 2.209 . S
O97 Mn73 2.215 . S
O97 C74 1.283 . S
O98 Mn72 2.094 . S
O98 C76 1.240 . S
O99 Mn73 2.117 . S
O99 C76 1.264 . S
C100 C93 1.403 . S
C100 C101 1.399 . S
C100 H106 0.929 . S
C101 C81 1.449 . S
C101 C100 1.399 . S
C101 H107 0.930 . S
H102 C82 0.931 . S
H103 C83 0.930 . S
H104 C91 0.931 . S
H105 C92 0.929 . S
H106 C100 0.929 . S
H107 C101 0.930 . S
Mn108 O113 2.095 . S
Mn108 O123 2.162 . S
Mn108 O124 2.297 . S
Mn108 O132 2.385 . S
Mn108 O133 2.209 . S
Mn108 O134 2.094 . S
Mn109 O114 2.121 . S
Mn109 N116 2.257 1_556 S
Mn109 N125 2.282 . S
Mn109 O133 2.215 . S
Mn109 O135 2.117 . S
C110 O132 1.234 . S
C110 O133 1.283 . S
C111 O123 1.281 . S
C111 O124 1.236 . S
C112 O134 1.240 . S
C112 O135 1.264 . S
O113 Mn108 2.095 . S
O113 C122 1.250 . S
O114 Mn109 2.121 . S
O114 C122 1.258 . S
C115 N116 1.326 . S
C115 C119 1.460 . S
C115 H121 0.929 . S
N116 Mn109 2.257 1_554 S
N116 C115 1.326 . S
N116 C120 1.362 . S
C117 C118 1.258 . S
C117 C120 1.431 . S
C117 C137 1.449 . S
C118 C117 1.258 . S
C118 C119 1.477 . S
C118 H138 0.931 . S
C119 C115 1.460 . S
C119 C118 1.477 . S
C119 H139 0.930 . S
C120 N116 1.362 . S
C120 C117 1.431 . S
C120 C130 1.476 . S
H121 C115 0.929 . S
C122 O113 1.250 . S
C122 O114 1.258 . S
O123 Mn108 2.162 . S
O123 C111 1.281 . S
O124 Mn108 2.297 . S
O124 C111 1.236 . S
N125 Mn109 2.282 . S
N125 C126 1.328 . S
N125 C130 1.318 1_556 S
C126 N125 1.328 . S
C126 C127 1.457 . S
C126 H131 0.929 . S
C127 C126 1.457 . S
C127 C128 1.291 . S
C127 H140 0.931 . S
C128 C127 1.291 . S
C128 C129 1.373 1_556 S
C128 H141 0.929 . S
C129 C128 1.373 1_554 S
C129 C130 1.396 . S
C129 C136 1.403 . S
C130 C120 1.476 . S
C130 N125 1.318 1_554 S
C130 C129 1.396 . S
H131 C126 0.929 . S
O132 Mn108 2.385 . S
O132 C110 1.234 . S
O133 Mn108 2.209 . S
O133 Mn109 2.215 . S
O133 C110 1.283 . S
O134 Mn108 2.094 . S
O134 C112 1.240 . S
O135 Mn109 2.117 . S
O135 C112 1.264 . S
C136 C129 1.403 . S
C136 C137 1.399 . S
C136 H142 0.929 . S
C137 C117 1.449 . S
C137 C136 1.399 . S
C137 H143 0.930 . S
H138 C118 0.931 . S
H139 C119 0.930 . S
H140 C127 0.931 . S
H141 C128 0.929 . S
H142 C136 0.929 . S
H143 C137 0.930 . S
C144 C145 1.363 1_545 S
C144 C150 1.379 . S
C144 N152 1.356 . S
C145 C144 1.363 1_565 S
C145 C151 1.363 . S
C146 C147 1.363 1_565 S
C146 C151 1.379 . S
C146 N153 1.356 . S
C147 C146 1.363 1_545 S
C147 C150 1.363 . S
N148 C150 1.356 . S
N148 H160 0.984 . S
N148 H161 0.985 . S
N149 C151 1.356 . S
N149 H154 0.984 . S
N149 H155 0.985 . S
C150 C144 1.379 . S
C150 C147 1.363 . S
C150 N148 1.356 . S
C151 C145 1.363 . S
C151 C146 1.379 . S
C151 N149 1.356 . S
N152 C144 1.356 . S
N152 H158 0.984 . S
N152 H159 0.984 . S
N153 C146 1.356 . S
N153 H156 0.984 . S
N153 H157 0.985 . S
H154 N149 0.984 . S
H155 N149 0.985 . S
H156 N153 0.984 . S
H157 N153 0.985 . S
H158 N152 0.984 . S
H159 N152 0.984 . S
H160 N148 0.984 . S
H161 N148 0.985 . S
C162 C163 1.363 . S
C162 C168 1.379 . S
C162 N170 1.356 . S
C163 C162 1.363 . S
C163 C169 1.363 . S
C164 C165 1.363 . S
C164 C169 1.379 . S
C164 N171 1.356 . S
C165 C164 1.363 . S
C165 C168 1.363 . S
N166 C168 1.356 . S
N166 H178 0.984 . S
N166 H179 0.985 . S
N167 C169 1.356 . S
N167 H172 0.984 . S
N167 H173 0.985 . S
C168 C162 1.379 . S
C168 C165 1.363 . S
C168 N166 1.356 . S
C169 C163 1.363 . S
C169 C164 1.379 . S
C169 N167 1.356 . S
N170 C162 1.356 . S
N170 H176 0.984 . S
N170 H177 0.984 . S
N171 C164 1.356 . S
N171 H174 0.984 . S
N171 H175 0.985 . S
H172 N167 0.984 . S
H173 N167 0.985 . S
H174 N171 0.984 . S
H175 N171 0.985 . S
H176 N170 0.984 . S
H177 N170 0.984 . S
H178 N166 0.984 . S
H179 N166 0.985 . S
C180 C181 1.363 1_565 S
C180 C186 1.379 . S
C180 N188 1.356 . S
C181 C180 1.363 1_545 S
C181 C187 1.363 . S
C182 C183 1.363 1_545 S
C182 C187 1.379 . S
C182 N189 1.356 . S
C183 C182 1.363 1_565 S
C183 C186 1.363 . S
N184 C186 1.356 . S
N184 H196 0.984 . S
N184 H197 0.985 . S
N185 C187 1.356 . S
N185 H190 0.984 . S
N185 H191 0.985 . S
C186 C180 1.379 . S
C186 C183 1.363 . S
C186 N184 1.356 . S
C187 C181 1.363 . S
C187 C182 1.379 . S
C187 N185 1.356 . S
N188 C180 1.356 . S
N188 H194 0.984 . S
N188 H195 0.984 . S
N189 C182 1.356 . S
N189 H192 0.984 . S
N189 H193 0.985 . S
H190 N185 0.984 . S
H191 N185 0.985 . S
H192 N189 0.984 . S
H193 N189 0.985 . S
H194 N188 0.984 . S
H195 N188 0.984 . S
H196 N184 0.984 . S
H197 N184 0.985 . S
C198 C199 1.363 . S
C198 C204 1.379 . S
C198 N206 1.356 . S
C199 C198 1.363 . S
C199 C205 1.363 . S
C200 C201 1.363 . S
C200 C205 1.379 . S
C200 N207 1.356 . S
C201 C200 1.363 . S
C201 C204 1.363 . S
N202 C204 1.356 . S
N202 H214 0.984 . S
N202 H215 0.985 . S
N203 C205 1.356 . S
N203 H208 0.984 . S
N203 H209 0.985 . S
C204 C198 1.379 . S
C204 C201 1.363 . S
C204 N202 1.356 . S
C205 C199 1.363 . S
C205 C200 1.379 . S
C205 N203 1.356 . S
N206 C198 1.356 . S
N206 H212 0.984 . S
N206 H213 0.984 . S
N207 C200 1.356 . S
N207 H210 0.984 . S
N207 H211 0.985 . S
H208 N203 0.984 . S
H209 N203 0.985 . S
H210 N207 0.984 . S
H211 N207 0.985 . S
H212 N206 0.984 . S
H213 N206 0.984 . S
H214 N202 0.984 . S
H215 N202 0.985 . S
C216 C217 1.363 . S
C216 C222 1.379 1_445 S
C216 N224 1.356 . S
C217 C216 1.363 . S
C217 C223 1.363 1_554 S
C218 C219 1.363 . S
C218 C223 1.379 1_665 S
C218 N225 1.356 . S
C219 C218 1.363 . S
C219 C222 1.363 1_556 S
N220 C222 1.356 . S
N220 H232 0.984 . S
N220 H233 0.985 . S
N221 C223 1.356 . S
N221 H226 0.984 . S
N221 H227 0.985 . S
C222 C216 1.379 1_665 S
C222 C219 1.363 1_554 S
C222 N220 1.356 . S
C223 C217 1.363 1_556 S
C223 C218 1.379 1_445 S
C223 N221 1.356 . S
N224 C216 1.356 . S
N224 H230 0.984 1_545 S
N224 H231 0.984 . S
N225 C218 1.356 . S
N225 H228 0.984 . S
N225 H229 0.985 1_565 S
H226 N221 0.984 . S
H227 N221 0.985 . S
H228 N225 0.984 . S
H229 N225 0.985 1_545 S
H230 N224 0.984 1_565 S
H231 N224 0.984 . S
H232 N220 0.984 . S
H233 N220 0.985 . S
C234 C235 1.363 . S
C234 C240 1.379 1_545 S
C234 N242 1.356 . S
C235 C234 1.363 . S
C235 C241 1.363 1_556 S
C236 C237 1.363 . S
C236 C241 1.379 1_565 S
C236 N243 1.356 . S
C237 C236 1.363 . S
C237 C240 1.363 1_554 S
N238 C240 1.356 . S
N238 H250 0.984 . S
N238 H251 0.985 . S
N239 C241 1.356 . S
N239 H244 0.984 . S
N239 H245 0.985 . S
C240 C234 1.379 1_565 S
C240 C237 1.363 1_556 S
C240 N238 1.356 . S
C241 C235 1.363 1_554 S
C241 C236 1.379 1_545 S
C241 N239 1.356 . S
N242 C234 1.356 . S
N242 H248 0.984 . S
N242 H249 0.984 . S
N243 C236 1.356 . S
N243 H246 0.984 . S
N243 H247 0.985 . S
H244 N239 0.984 . S
H245 N239 0.985 . S
H246 N243 0.984 . S
H247 N243 0.985 . S
H248 N242 0.984 . S
H249 N242 0.984 . S
H250 N238 0.984 . S
H251 N238 0.985 . S
C252 C253 1.363 . S
C252 C258 1.379 1_655 S
C252 N260 1.356 . S
C253 C252 1.363 . S
C253 C259 1.363 . S
C254 C255 1.363 . S
C254 C259 1.379 1_455 S
C254 N261 1.356 . S
C255 C254 1.363 . S
C255 C258 1.363 . S
N256 C258 1.356 . S
N256 H268 0.984 . S
N256 H269 0.985 . S
N257 C259 1.356 . S
N257 H262 0.984 . S
N257 H263 0.985 . S
C258 C252 1.379 1_455 S
C258 C255 1.363 . S
C258 N256 1.356 . S
C259 C253 1.363 . S
C259 C254 1.379 1_655 S
C259 N257 1.356 . S
N260 C252 1.356 . S
N260 H266 0.984 . S
N260 H267 0.984 . S
N261 C254 1.356 . S
N261 H264 0.984 . S
N261 H265 0.985 . S
H262 N257 0.984 . S
H263 N257 0.985 . S
H264 N261 0.984 . S
H265 N261 0.985 . S
H266 N260 0.984 . S
H267 N260 0.984 . S
H268 N256 0.984 . S
H269 N256 0.985 . S
C270 C271 1.363 . S
C270 C276 1.379 . S
C270 N278 1.356 . S
C271 C270 1.363 . S
C271 C277 1.363 . S
C272 C273 1.363 . S
C272 C277 1.379 . S
C272 N279 1.356 . S
C273 C272 1.363 . S
C273 C276 1.363 . S
N274 C276 1.356 . S
N274 H286 0.984 . S
N274 H287 0.985 . S
N275 C277 1.356 . S
N275 H280 0.984 . S
N275 H281 0.985 . S
C276 C270 1.379 . S
C276 C273 1.363 . S
C276 N274 1.356 . S
C277 C271 1.363 . S
C277 C272 1.379 . S
C277 N275 1.356 . S
N278 C270 1.356 . S
N278 H284 0.984 . S
N278 H285 0.984 . S
N279 C272 1.356 . S
N279 H282 0.984 . S
N279 H283 0.985 . S
H280 N275 0.984 . S
H281 N275 0.985 . S
H282 N279 0.984 . S
H283 N279 0.985 . S
H284 N278 0.984 . S
H285 N278 0.984 . S
H286 N274 0.984 . S
H287 N274 0.985 . S
C145 C40 1.170 . S
C147 C4 1.170 . S
C163 C2 1.094 . S
C165 C38 1.094 . S
C181 C112 1.170 . S
C183 C76 1.170 . S
C199 C74 1.094 . S
C201 C110 1.094 . S
C217 C14 1.514 . S
C219 C86 1.514 . S
C235 C122 1.514 . S
C237 C50 1.514 . S
C253 C75 1.619 . S
C255 C3 1.619 . S
C271 C39 1.620 . S
C273 C111 1.620 . S
