# Generated by pormake.
# Topology rob, (6)-cn, num edge types: 1
# Building blocks:
#     Node 0, Type 0, BuildingBlock: JUFBIX_clean_sbu_0, # of connection points: 6
#     Node 1, Type 0, BuildingBlock: JUFBIX_clean_sbu_0, # of connection points: 6
#     Node 2, Type 0, BuildingBlock: JUFBIX_clean_sbu_0, # of connection points: 6
#     Node 3, Type 0, BuildingBlock: JUFBIX_clean_sbu_0, # of connection points: 6
#     Edge 4, Type (0, 0), BuildingBlock: MIFKUJ_clean_linker_0, # of connection points: 2
#     Edge 5, Type (0, 0), BuildingBlock: MIFKUJ_clean_linker_0, # of connection points: 2
#     Edge 6, Type (0, 0), BuildingBlock: MIFKUJ_clean_linker_0, # of connection points: 2
#     Edge 7, Type (0, 0), BuildingBlock: MIFKUJ_clean_linker_0, # of connection points: 2
#     Edge 8, Type (0, 0), BuildingBlock: MIFKUJ_clean_linker_0, # of connection points: 2
#     Edge 9, Type (0, 0), BuildingBlock: MIFKUJ_clean_linker_0, # of connection points: 2
#     Edge 10, Type (0, 0), BuildingBlock: MIFKUJ_clean_linker_0, # of connection points: 2
#     Edge 11, Type (0, 0), BuildingBlock: MIFKUJ_clean_linker_0, # of connection points: 2
#     Edge 12, Type (0, 0), BuildingBlock: MIFKUJ_clean_linker_0, # of connection points: 2
#     Edge 13, Type (0, 0), BuildingBlock: MIFKUJ_clean_linker_0, # of connection points: 2
#     Edge 14, Type (0, 0), BuildingBlock: MIFKUJ_clean_linker_0, # of connection points: 2
#     Edge 15, Type (0, 0), BuildingBlock: MIFKUJ_clean_linker_0, # of connection points: 2
# Relax obj value: 0.336
# Max RMSD: 0.250
# Mean RMSD: 0.250
data_MOF--net-rob--node1-JUFBIX_clean_sbu_0--edge1-MIFKUJ_clean_linker_0
_symmetry_space_group_name_H-M    P1
_symmetry_Int_Tables_number       1
_symmetry_cell_setting            triclinic
loop_
_symmetry_equiv_pos_as_xyz
'x, y, z'
_cell_length_a     21.575951
_cell_length_b     32.354156
_cell_length_c     35.497945
_cell_angle_alpha  94.531845
_cell_angle_beta   89.83392
_cell_angle_gamma 90.089511
loop_
_atom_site_label
_atom_site_type_symbol
_atom_site_fract_x
_atom_site_fract_y
_atom_site_fract_z
_atom_type_partial_charge
Co0 Co 0.21614 0.27012 0.97947 0.0
C1 C 0.1862 0.19094 -0.00082 0.0
Co2 Co 0.29285 0.23815 0.00644 0.0
C3 C 0.14734 0.30711 0.92112 0.0
C4 C 0.09374 0.30318 0.97149 0.0
N5 N 0.1508 0.29589 0.95688 0.0
N6 N 0.09016 0.32048 0.91258 0.0
C7 C 0.05649 0.31833 0.94442 0.0
H8 H 0.18553 0.30415 0.90128 0.0
H9 H 0.07915 0.29594 -0.0006 0.0
C10 C 0.32266 0.3174 0.98725 0.0
N11 N 0.3585 0.21213 0.02889 0.0
C12 C 0.36427 0.20375 0.06538 0.0
C13 C 0.41321 0.2005 0.01279 0.0
N14 N 0.4203 0.18779 0.07267 0.0
C15 C 0.45111 0.18539 0.03957 0.0
C16 C 0.29116 0.22398 0.92853 0.0
O17 O 0.26748 0.31727 0.97466 0.0
O18 O 0.34288 0.28565 0.00221 0.0
O19 O 0.32017 0.21631 0.95817 0.0
O20 O 0.24322 0.24668 0.93136 0.0
O21 O 0.24204 0.19072 0.0106 0.0
H22 H 0.42609 0.20437 0.98383 0.0
H23 H 0.32876 0.21022 0.08659 0.0
O24 O 0.16552 0.22286 0.98469 0.0
O25 O 0.18968 0.29311 0.02764 0.0
O26 O 0.2645 0.26068 0.05449 0.0
C27 C 0.21775 0.28451 0.05738 0.0
H28 H 0.00738 0.32463 0.94727 0.0
H29 H 0.49888 0.1758 0.03556 0.0
Co30 Co 0.71387 0.77 0.98736 0.0
C31 C 0.6902 0.68924 0.00462 0.0
Co32 Co 0.79375 0.73947 0.01249 0.0
C33 C 0.63709 0.80633 0.93198 0.0
C34 C 0.58966 0.80091 0.98437 0.0
N35 N 0.64533 0.79492 0.96739 0.0
N36 N 0.57835 0.81849 0.92607 0.0
C37 C 0.54852 0.81539 0.9591 0.0
H38 H 0.67224 0.80311 0.91013 0.0
H39 H 0.57854 0.79315 0.01267 0.0
C40 C 0.81727 0.82031 0.99515 0.0
N41 N 0.86213 0.71423 0.03265 0.0
C42 C 0.87008 0.70405 0.06847 0.0
C43 C 0.91645 0.70455 0.01524 0.0
N44 N 0.92729 0.68889 0.07429 0.0
C45 C 0.95636 0.6889 0.04061 0.0
C46 C 0.78869 0.72773 0.93419 0.0
O47 O 0.76154 0.81892 0.98345 0.0
O48 O 0.84046 0.78863 0.00882 0.0
O49 O 0.81935 0.72005 0.96323 0.0
O50 O 0.73977 0.74938 0.93808 0.0
O51 O 0.74614 0.69028 0.01593 0.0
H52 H 0.92742 0.70975 0.98626 0.0
H53 H 0.83546 0.70949 0.09034 0.0
O54 O 0.66707 0.72116 0.99143 0.0
O55 O 0.68852 0.78985 0.03667 0.0
O56 O 0.76718 0.75952 0.0617 0.0
C57 C 0.71851 0.78137 0.06573 0.0
H58 H 0.49971 0.82131 0.96414 0.0
H59 H 0.00366 0.67938 0.03474 0.0
Co60 Co 0.20764 0.73873 0.5158 0.0
C61 C 0.19081 0.82213 0.50051 0.0
Co62 Co 0.28666 0.7677 0.48801 0.0
C63 C 0.12826 0.69997 0.56962 0.0
C64 C 0.07936 0.71915 0.52167 0.0
N65 N 0.13663 0.71713 0.53649 0.0
N66 N 0.06786 0.6914 0.5761 0.0
C67 C 0.03727 0.70339 0.54575 0.0
H68 H 0.16561 0.69502 0.58902 0.0
H69 H 0.06839 0.73296 0.49574 0.0
C70 C 0.30383 0.68444 0.50318 0.0
N71 N 0.358 0.78911 0.46743 0.0
C72 C 0.36814 0.80189 0.43261 0.0
C73 C 0.41442 0.78942 0.48365 0.0
N74 N 0.42887 0.8097 0.42632 0.0
C75 C 0.45775 0.80203 0.45869 0.0
C76 C 0.28857 0.77592 0.56715 0.0
O77 O 0.24875 0.68662 0.5161 0.0
O78 O 0.32808 0.71632 0.49038 0.0
O79 O 0.31534 0.78538 0.53714 0.0
O80 O 0.23911 0.75455 0.56468 0.0
O81 O 0.24456 0.81896 0.48572 0.0
H82 H 0.42422 0.7788 0.51115 0.0
H83 H 0.33185 0.80378 0.41188 0.0
O84 O 0.16738 0.79109 0.51528 0.0
O85 O 0.17703 0.72313 0.46679 0.0
O86 O 0.25683 0.74981 0.43909 0.0
C87 C 0.2054 0.73066 0.43674 0.0
H88 H 0.98751 0.70318 0.54206 0.0
H89 H 0.50723 0.80277 0.46346 0.0
Co90 Co 0.71486 0.23794 0.50724 0.0
C91 C 0.68404 0.31811 0.48838 0.0
Co92 Co 0.79025 0.27194 0.48063 0.0
C93 C 0.63819 0.20037 0.56324 0.0
C94 C 0.59196 0.206 0.51072 0.0
N95 N 0.64723 0.21198 0.5279 0.0
N96 N 0.57912 0.18781 0.56895 0.0
C97 C 0.55037 0.1912 0.53562 0.0
H98 H 0.67379 0.20276 0.58466 0.0
H99 H 0.58132 0.2141 0.48248 0.0
C100 C 0.82106 0.19177 0.49983 0.0
N101 N 0.8569 0.29808 0.45916 0.0
C102 C 0.86217 0.30928 0.42344 0.0
C103 C 0.91373 0.3045 0.47425 0.0
N104 N 0.92025 0.32156 0.41533 0.0
C105 C 0.95265 0.31898 0.44746 0.0
C106 C 0.78689 0.28451 0.5589 0.0
O107 O 0.76594 0.19104 0.51266 0.0
O108 O 0.84009 0.22378 0.48455 0.0
O109 O 0.81572 0.29296 0.52925 0.0
O110 O 0.73978 0.26082 0.55595 0.0
O111 O 0.7399 0.31964 0.47698 0.0
H112 H 0.92713 0.29679 0.50218 0.0
H113 H 0.82467 0.30682 0.40325 0.0
O114 O 0.66441 0.28523 0.50181 0.0
O115 O 0.6912 0.21526 0.45822 0.0
O116 O 0.76376 0.25077 0.43217 0.0
C117 C 0.71861 0.22568 0.42876 0.0
H118 H 0.5017 0.18592 0.52992 0.0
H119 H 0.00196 0.32427 0.45067 0.0
H120 H 0.72684 0.61303 0.02499 0.0
H121 H 0.66531 0.54919 0.02243 0.0
H122 H 0.50784 0.6151 0.98266 0.0
H123 H 0.56855 0.67893 0.98544 0.0
H124 H 0.47437 0.56411 0.03598 0.0
H125 H 0.59499 0.55522 0.92162 0.0
H126 H 0.69098 0.55583 0.8838 0.0
H127 H 0.75995 0.45169 0.93874 0.0
H128 H 0.66469 0.45086 0.97732 0.0
H129 H 0.29049 0.39379 0.96546 0.0
H130 H 0.35456 0.45644 0.96834 0.0
H131 H 0.50791 0.38813 0.01015 0.0
H132 H 0.44447 0.32536 0.00718 0.0
H133 H 0.54461 0.43969 0.95665 0.0
H134 H 0.423 0.44822 0.07046 0.0
H135 H 0.32676 0.44776 0.10805 0.0
H136 H 0.2594 0.55282 0.05383 0.0
H137 H 0.3549 0.55351 0.01546 0.0
C138 C 0.67901 0.61397 0.01593 0.0
C139 C 0.65269 0.651 0.00524 0.0
C140 C 0.64401 0.57745 0.01432 0.0
C141 C 0.58224 0.57735 0.00193 0.0
C142 C 0.55544 0.61449 0.99224 0.0
C143 C 0.59033 0.65093 0.99376 0.0
C144 C 0.54555 0.53847 -0.00156 0.0
C145 C 0.48937 0.53705 0.0183 0.0
C146 C 0.56578 0.50295 0.97594 0.0
C147 C 0.62299 0.50326 0.95265 0.0
C148 C 0.63084 0.53266 0.92587 0.0
C149 C 0.68508 0.53301 0.90425 0.0
C150 C 0.73161 0.50389 0.90894 0.0
C151 C 0.72391 0.47428 0.93519 0.0
C152 C 0.66979 0.47384 0.95692 0.0
C153 C 0.33799 0.39201 0.97498 0.0
C154 C 0.36226 0.35466 0.98632 0.0
C155 C 0.37444 0.42787 0.97676 0.0
C156 C 0.43571 0.42699 0.98991 0.0
C157 C 0.46069 0.38946 2e-05 0.0
C158 C 0.42426 0.35366 -0.0016 0.0
C159 C 0.47333 0.46543 0.99406 0.0
C160 C 0.52968 0.46674 0.97436 0.0
C161 C 0.45323 0.50089 0.01667 0.0
C162 C 0.39584 0.50065 0.03981 0.0
C163 C 0.38745 0.47101 0.06632 0.0
C164 C 0.33307 0.47074 0.08781 0.0
C165 C 0.28692 0.50018 0.08326 0.0
C166 C 0.29514 0.53 0.05728 0.0
C167 C 0.3494 0.53036 0.03567 0.0
H168 H 0.24486 0.49993 0.09994 0.0
H169 H 0.77357 0.5042 0.89217 0.0
H170 H 0.26515 0.60751 0.52158 0.0
H171 H 0.32578 0.54326 0.518 0.0
H172 H 0.48475 0.6094 0.47957 0.0
H173 H 0.42457 0.67316 0.48236 0.0
H174 H 0.47095 0.53837 0.43812 0.0
H175 H 0.472 0.58165 0.57131 0.0
H176 H 0.42439 0.60227 0.63319 0.0
H177 H 0.32998 0.48518 0.6312 0.0
H178 H 0.37645 0.46407 0.56905 0.0
H179 H 0.71266 0.39605 0.46835 0.0
H180 H 0.64428 0.45642 0.46989 0.0
H181 H 0.49294 0.38255 0.50753 0.0
H182 H 0.56112 0.32235 0.50672 0.0
H183 H 0.49791 0.455 0.54832 0.0
H184 H 0.50074 0.41047 0.41632 0.0
H185 H 0.54904 0.38981 0.35466 0.0
H186 H 0.63625 0.50917 0.35434 0.0
H187 H 0.58915 0.53036 0.41628 0.0
C188 C 0.31307 0.60833 0.51248 0.0
C189 C 0.33997 0.64547 0.50229 0.0
C190 C 0.34772 0.57163 0.51053 0.0
C191 C 0.41002 0.57155 0.49874 0.0
C192 C 0.43678 0.60862 0.48862 0.0
C193 C 0.40225 0.64514 0.49038 0.0
C194 C 0.44769 0.533 0.49661 0.0
C195 C 0.47734 0.52038 0.46234 0.0
C196 C 0.45484 0.5089 0.5279 0.0
C197 C 0.42718 0.52146 0.56536 0.0
C198 C 0.44073 0.56042 0.58394 0.0
C199 C 0.41401 0.57218 0.61909 0.0
C200 C 0.37405 0.5451 0.63607 0.0
C201 C 0.36087 0.50615 0.61799 0.0
C202 C 0.38742 0.49426 0.58282 0.0
C203 C 0.66474 0.39259 0.47673 0.0
C204 C 0.64239 0.35436 0.48738 0.0
C205 C 0.62562 0.4271 0.4775 0.0
C206 C 0.56327 0.42395 0.48853 0.0
C207 C 0.54085 0.38576 0.49897 0.0
C208 C 0.57991 0.35132 0.49836 0.0
C209 C 0.5217 0.46064 0.48994 0.0
C210 C 0.49128 0.47287 0.52404 0.0
C211 C 0.51385 0.48441 0.4585 0.0
C212 C 0.54183 0.47187 0.4211 0.0
C213 C 0.53056 0.43222 0.40322 0.0
C214 C 0.55767 0.42043 0.36821 0.0
C215 C 0.5958 0.44813 0.35064 0.0
C216 C 0.60675 0.48773 0.368 0.0
C217 C 0.57981 0.49966 0.40304 0.0
H218 H 0.61677 0.43894 0.32353 0.0
H219 H 0.3534 0.55426 0.66327 0.0
H220 H 0.06462 0.18217 0.97856 0.0
H221 H 0.99988 0.1203 0.97973 0.0
H222 H 0.15127 0.05479 0.02712 0.0
H223 H 0.21667 0.11646 0.02571 0.0
H224 H 0.1004 0.01025 0.96795 0.0
H225 H 0.0235 0.08422 0.08219 0.0
H226 H 0.97755 0.14236 0.12193 0.0
H227 H 0.81899 0.14113 0.04911 0.0
H228 H 0.86357 0.0827 0.00919 0.0
H229 H 0.93712 0.83283 0.01775 0.0
H230 H 0.99746 0.89669 0.01816 0.0
H231 H 0.84264 0.95851 0.97049 0.0
H232 H 0.78143 0.89471 0.9704 0.0
H233 H 0.8934 0.00553 0.02866 0.0
H234 H 0.96656 0.93012 0.91628 0.0
H235 H 0.00885 0.87001 0.87759 0.0
H236 H 0.17386 0.87456 0.94513 0.0
H237 H 0.13214 0.93436 0.98462 0.0
C238 C 0.08408 0.15471 0.9895 0.0
C239 C 0.14595 0.15419 0.00187 0.0
C240 C 0.04683 0.11943 0.99036 0.0
C241 C 0.07058 0.08301 0.00377 0.0
C242 C 0.13201 0.08259 0.01668 0.0
C243 C 0.1693 0.11788 0.01588 0.0
C244 C 0.0326 0.04466 0.00225 0.0
C245 C 0.05555 0.00904 0.98173 0.0
C246 C 0.97316 0.04349 0.0191 0.0
C247 C 0.94718 0.07939 0.04248 0.0
C248 C 0.97912 0.09662 0.07445 0.0
C249 C 0.95324 0.12956 0.09708 0.0
C250 C 0.89568 0.14568 0.08789 0.0
C251 C 0.86365 0.12873 0.05617 0.0
C252 C 0.88907 0.0956 0.03362 0.0
C253 C 0.91588 0.85992 0.00717 0.0
C254 C 0.85445 0.85865 0.99397 0.0
C255 C 0.95057 0.89638 0.00731 0.0
C256 C 0.92475 0.93224 0.99402 0.0
C257 C 0.86345 0.93114 0.98083 0.0
C258 C 0.82865 0.89463 0.98067 0.0
C259 C 0.96151 0.97107 0.9947 0.0
C260 C 0.93827 0.00677 0.01491 0.0
C261 C 0.02058 0.97239 0.97741 0.0
C262 C 0.04594 0.93649 0.95364 0.0
C263 C 0.01164 0.9181 0.92309 0.0
C264 C 0.03555 0.88412 0.90098 0.0
C265 C 0.09394 0.86841 0.90896 0.0
C266 C 0.1286 0.88673 0.93902 0.0
C267 C 0.10487 0.92069 0.96126 0.0
H268 H 0.11237 0.84211 0.89179 0.0
H269 H 0.87574 0.17116 0.10546 0.0
H270 H 0.80771 0.12615 0.5435 0.0
H271 H 0.87555 0.06562 0.54518 0.0
H272 H 0.99544 0.11484 0.46216 0.0
H273 H 0.92839 0.17557 0.4606 0.0
H274 H 0.96463 0.03264 0.44419 0.0
H275 H 0.04666 0.1164 0.54919 0.0
H276 H 0.04854 0.15894 0.60996 0.0
H277 H 0.97213 0.05763 0.66612 0.0
H278 H 0.96952 0.0145 0.6056 0.0
H279 H 0.21441 0.88956 0.46045 0.0
H280 H 0.15394 0.95372 0.46078 0.0
H281 H 0.02732 0.90752 0.54183 0.0
H282 H 0.08694 0.84334 0.54146 0.0
H283 H 0.06455 0.98936 0.56045 0.0
H284 H 0.98358 0.90561 0.45398 0.0
H285 H 0.98982 0.86261 0.39358 0.0
H286 H 0.06794 0.96505 0.33979 0.0
H287 H 0.06304 0.00851 0.40007 0.0
C288 C 0.84865 0.12414 0.52572 0.0
C289 C 0.86258 0.15559 0.50184 0.0
C290 C 0.88752 0.08966 0.52685 0.0
C291 C 0.94064 0.08582 0.50387 0.0
C292 C 0.9547 0.11721 0.48011 0.0
C293 C 0.91639 0.15193 0.47934 0.0
C294 C 0.98022 0.0483 0.50354 0.0
C295 C 0.98721 0.0235 0.4695 0.0
C296 C 0.00869 0.03595 0.53669 0.0
C297 C 0.00736 0.06236 0.5728 0.0
C298 C 0.02958 0.10334 0.57441 0.0
C299 C 0.03117 0.12746 0.60885 0.0
C300 C 0.01069 0.11093 0.64189 0.0
C301 C 0.98816 0.07033 0.64051 0.0
C302 C 0.98671 0.04602 0.60617 0.0
C303 C 0.17375 0.89311 0.47837 0.0
C304 C 0.1554 0.86133 0.50086 0.0
C305 C 0.13917 0.9297 0.47844 0.0
C306 C 0.086 0.93524 0.5012 0.0
C307 C 0.06819 0.90385 0.52408 0.0
C308 C 0.10224 0.86714 0.5237 0.0
C309 C 0.04866 0.9737 0.5012 0.0
C310 C 0.042 0.9986 0.53516 0.0
C311 C 0.0207 0.9862 0.46795 0.0
C312 C 0.02361 0.96017 0.43166 0.0
C313 C 0.00265 0.91886 0.42937 0.0
C314 C 0.00583 0.89442 0.39513 0.0
C315 C 0.02944 0.91105 0.36289 0.0
C316 C 0.04977 0.95219 0.3648 0.0
C317 C 0.04677 0.97675 0.399 0.0
H318 H 0.03183 0.89209 0.33641 0.0
H319 H 0.01214 0.12962 0.66854 0.0
H320 H 0.74131 0.25978 0.36244 0.0
H321 H 0.69236 0.24197 0.30154 0.0
H322 H 0.59644 0.14033 0.3481 0.0
H323 H 0.643 0.15948 0.40982 0.0
H324 H 0.68829 0.18193 0.25072 0.0
H325 H 0.45434 0.12852 0.30968 0.0
H326 H 0.39164 0.13845 0.36797 0.0
H327 H 0.47538 0.2578 0.39379 0.0
H328 H 0.53789 0.24879 0.33543 0.0
H329 H 0.50316 0.12944 0.08933 0.0
H330 H 0.55448 0.12365 0.15024 0.0
H331 H 0.44883 0.22818 0.19842 0.0
H332 H 0.3964 0.23301 0.13822 0.0
H333 H 0.45853 0.1763 0.24832 0.0
H334 H 0.60152 0.23641 0.16407 0.0
H335 H 0.66499 0.24021 0.10655 0.0
H336 H 0.76296 0.1303 0.13162 0.0
H337 H 0.69939 0.12553 0.18908 0.0
C338 C 0.71025 0.23339 0.35964 0.0
C339 C 0.69528 0.21135 0.39097 0.0
C340 C 0.68244 0.22311 0.32473 0.0
C341 C 0.63981 0.19025 0.32035 0.0
C342 C 0.628 0.16645 0.35103 0.0
C343 C 0.6548 0.17729 0.38622 0.0
C344 C 0.605 0.18304 0.28442 0.0
C345 C 0.63806 0.18032 0.2502 0.0
C346 C 0.53939 0.18168 0.28364 0.0
C347 C 0.50129 0.18771 0.31847 0.0
C348 C 0.45918 0.15691 0.32776 0.0
C349 C 0.4237 0.16238 0.3608 0.0
C350 C 0.4297 0.19866 0.38464 0.0
C351 C 0.47094 0.22965 0.37538 0.0
C352 C 0.50641 0.22437 0.34234 0.0
C353 C 0.49062 0.15079 0.11315 0.0
C354 C 0.44602 0.18171 0.10911 0.0
C355 C 0.52 0.14758 0.14784 0.0
C356 C 0.50631 0.17592 0.17878 0.0
C357 C 0.46011 0.20585 0.17505 0.0
C358 C 0.43005 0.20858 0.14062 0.0
C359 C 0.54175 0.17607 0.21456 0.0
C360 C 0.5088 0.17719 0.24879 0.0
C361 C 0.60737 0.17784 0.21532 0.0
C362 C 0.64514 0.1803 0.18057 0.0
C363 C 0.63619 0.21283 0.15712 0.0
C364 C 0.67224 0.21519 0.12458 0.0
C365 C 0.71783 0.18544 0.11538 0.0
C366 C 0.72751 0.15326 0.13874 0.0
C367 C 0.69147 0.1507 0.17129 0.0
H368 H 0.74577 0.18742 0.09023 0.0
H369 H 0.40229 0.20279 0.41024 0.0
H370 H 0.78242 0.78996 0.13241 0.0
H371 H 0.73941 0.80609 0.19579 0.0
H372 H 0.55655 0.81499 0.14795 0.0
H373 H 0.59974 0.80138 0.08476 0.0
H374 H 0.56455 0.86962 0.20292 0.0
H375 H 0.61851 0.72514 0.18561 0.0
H376 H 0.68919 0.66606 0.17164 0.0
H377 H 0.79931 0.70563 0.26841 0.0
H378 H 0.73004 0.76553 0.2825 0.0
H379 H 0.37929 0.80138 0.35529 0.0
H380 H 0.43395 0.80783 0.29588 0.0
H381 H 0.60141 0.84122 0.35674 0.0
H382 H 0.54693 0.83697 0.41644 0.0
H383 H 0.60816 0.77009 0.29883 0.0
H384 H 0.5442 0.91293 0.31691 0.0
H385 H 0.46854 0.96948 0.32905 0.0
H386 H 0.36779 0.92651 0.22936 0.0
H387 H 0.44241 0.86931 0.21692 0.0
C388 C 0.73319 0.79593 0.1355 0.0
C389 C 0.6943 0.79416 0.10374 0.0
C390 C 0.7086 0.80495 0.1717 0.0
C391 C 0.64445 0.81086 0.17679 0.0
C392 C 0.60612 0.81055 0.14487 0.0
C393 C 0.63086 0.80261 0.10871 0.0
C394 C 0.61627 0.81526 0.21514 0.0
C395 C 0.5739 0.84764 0.22374 0.0
C396 C 0.62891 0.78692 0.24264 0.0
C397 C 0.66968 0.75027 0.23473 0.0
C398 C 0.65809 0.72146 0.20375 0.0
C399 C 0.69793 0.68783 0.19579 0.0
C400 C 0.749 0.68229 0.21896 0.0
C401 C 0.76 0.71015 0.25033 0.0
C402 C 0.72049 0.74396 0.25829 0.0
C403 C 0.42726 0.81102 0.3564 0.0
C404 C 0.45863 0.81794 0.3911 0.0
C405 C 0.45851 0.81451 0.32224 0.0
C406 C 0.5217 0.82465 0.32209 0.0
C407 C 0.5527 0.833 0.35641 0.0
C408 C 0.52134 0.83023 0.39055 0.0
C409 C 0.55626 0.82395 0.28607 0.0
C410 C 0.59957 0.7922 0.278 0.0
C411 C 0.54346 0.85219 0.25879 0.0
C412 C 0.4986 0.8866 0.26619 0.0
C413 C 0.5056 0.9153 0.29777 0.0
C414 C 0.46297 0.94753 0.30466 0.0
C415 C 0.4133 0.95153 0.28005 0.0
C416 C 0.40625 0.92335 0.24843 0.0
C417 C 0.44874 0.89105 0.24142 0.0
H418 H 0.38036 0.97651 0.28542 0.0
H419 H 0.77988 0.6563 0.21271 0.0
H420 H 0.46279 0.79626 0.90374 0.0
H421 H 0.41959 0.79833 0.8406 0.0
H422 H 0.58735 0.85501 0.80301 0.0
H423 H 0.63154 0.85281 0.86666 0.0
H424 H 0.45978 0.88763 0.77696 0.0
H425 H 0.58982 0.76912 0.77731 0.0
H426 H 0.63439 0.70725 0.80312 0.0
H427 H 0.45505 0.6493 0.80025 0.0
H428 H 0.40931 0.71121 0.77489 0.0
H429 H 0.38711 0.82764 0.58176 0.0
H430 H 0.43943 0.84326 0.64218 0.0
H431 H 0.30741 0.76711 0.69655 0.0
H432 H 0.25466 0.75124 0.63619 0.0
H433 H 0.42971 0.74789 0.71112 0.0
H434 H 0.30128 0.87037 0.71032 0.0
H435 H 0.2614 0.93368 0.68456 0.0
H436 H 0.44479 0.98547 0.68633 0.0
H437 H 0.48602 0.92215 0.7115 0.0
C438 C 0.49005 0.81011 0.88241 0.0
C439 C 0.55058 0.82439 0.89012 0.0
C440 C 0.46538 0.81109 0.84632 0.0
C441 C 0.50047 0.82671 0.81737 0.0
C442 C 0.55972 0.84297 0.8252 0.0
C443 C 0.58491 0.84144 0.86135 0.0
C444 C 0.47644 0.82224 0.77845 0.0
C445 C 0.45416 0.85727 0.76206 0.0
C446 C 0.46896 0.7825 0.75952 0.0
C447 C 0.49607 0.74499 0.77453 0.0
C448 C 0.55982 0.74334 0.78249 0.0
C449 C 0.58532 0.70823 0.79697 0.0
C450 C 0.54753 0.67439 0.80343 0.0
C451 C 0.48423 0.67557 0.79528 0.0
C452 C 0.45852 0.71065 0.7808 0.0
C453 C 0.36877 0.81453 0.60664 0.0
C454 C 0.31684 0.78807 0.60422 0.0
C455 C 0.39863 0.82364 0.64114 0.0
C456 C 0.37713 0.80642 0.67375 0.0
C457 C 0.32462 0.78068 0.6716 0.0
C458 C 0.29446 0.77175 0.63716 0.0
C459 C 0.41137 0.81322 0.70973 0.0
C460 C 0.43576 0.77842 0.72563 0.0
C461 C 0.42162 0.85329 0.72774 0.0
C462 C 0.39686 0.89126 0.71235 0.0
C463 C 0.33324 0.89505 0.70482 0.0
C464 C 0.31037 0.93099 0.6904 0.0
C465 C 0.35058 0.96352 0.68368 0.0
C466 C 0.41374 0.96021 0.69145 0.0
C467 C 0.43688 0.9243 0.70579 0.0
H468 H 0.33277 0.99134 0.67257 0.0
H469 H 0.56731 0.64722 0.81466 0.0
H470 H 0.62696 0.19948 0.64041 0.0
H471 H 0.57223 0.19215 0.69956 0.0
H472 H 0.40911 0.15021 0.63811 0.0
H473 H 0.4637 0.15541 0.5787 0.0
H474 H 0.39329 0.22159 0.69339 0.0
H475 H 0.46996 0.08228 0.68211 0.0
H476 H 0.54927 0.02769 0.67224 0.0
H477 H 0.64844 0.0791 0.7697 0.0
H478 H 0.57013 0.13438 0.77987 0.0
H479 H 0.22627 0.20744 0.86314 0.0
H480 H 0.26854 0.18744 0.80025 0.0
H481 H 0.4535 0.19021 0.84662 0.0
H482 H 0.41099 0.20725 0.90966 0.0
H483 H 0.44903 0.1314 0.79479 0.0
H484 H 0.38199 0.27522 0.80171 0.0
H485 H 0.30425 0.33072 0.813 0.0
H486 H 0.19051 0.27357 0.72444 0.0
H487 H 0.26737 0.21748 0.71288 0.0
C488 C 0.57999 0.18787 0.63907 0.0
C489 C 0.5498 0.17895 0.6042 0.0
C490 C 0.54869 0.18378 0.67312 0.0
C491 C 0.48658 0.17099 0.67306 0.0
C492 C 0.45695 0.16048 0.63863 0.0
C493 C 0.48841 0.16384 0.60459 0.0
C494 C 0.45138 0.17164 0.70889 0.0
C495 C 0.40463 0.20143 0.7154 0.0
C496 C 0.46715 0.1458 0.73762 0.0
C497 C 0.51447 0.11271 0.73153 0.0
C498 C 0.509 0.0822 0.70122 0.0
C499 C 0.55369 0.05106 0.69563 0.0
C500 C 0.60393 0.04997 0.72028 0.0
C501 C 0.60952 0.08 0.75062 0.0
C502 C 0.56496 0.11121 0.75633 0.0
C503 C 0.27584 0.20318 0.85984 0.0
C504 C 0.31547 0.20912 0.8911 0.0
C505 C 0.30004 0.19201 0.82391 0.0
C506 C 0.36445 0.18836 0.81843 0.0
C507 C 0.40371 0.19287 0.84999 0.0
C508 C 0.3794 0.20277 0.88602 0.0
C509 C 0.39171 0.18215 0.77988 0.0
C510 C 0.43707 0.15135 0.77275 0.0
C511 C 0.37522 0.2075 0.75067 0.0
C512 C 0.33013 0.242 0.75666 0.0
C513 C 0.34036 0.27449 0.78468 0.0
C514 C 0.29644 0.30602 0.79115 0.0
C515 C 0.24241 0.30561 0.76951 0.0
C516 C 0.23237 0.27381 0.74119 0.0
C517 C 0.27612 0.24218 0.73464 0.0
H518 H 0.20836 0.32996 0.77465 0.0
H519 H 0.63846 0.02583 0.71592 0.0
H520 H 0.86637 0.673 0.13895 0.0
H521 H 0.91171 0.67059 0.20159 0.0
H522 H 0.09445 0.68285 0.15427 0.0
H523 H 0.04994 0.68656 0.09185 0.0
H524 H 0.0905 0.62779 0.21099 0.0
H525 H 0.02259 0.76471 0.18759 0.0
H526 H 0.94726 0.81736 0.1709 0.0
H527 H 0.83731 0.79473 0.2681 0.0
H528 H 0.91071 0.74065 0.2846 0.0
H529 H 0.26023 0.72723 0.36685 0.0
H530 H 0.21037 0.70981 0.30557 0.0
H531 H 0.03651 0.69087 0.36196 0.0
H532 H 0.08585 0.70741 0.42311 0.0
H533 H 0.03153 0.74526 0.30242 0.0
H534 H 0.10234 0.61011 0.32719 0.0
H535 H 0.1785 0.5578 0.34356 0.0
H536 H 0.28529 0.57937 0.24475 0.0
H537 H 0.21038 0.6325 0.22818 0.0
C538 C 0.9162 0.6751 0.14167 0.0
C539 C 0.95421 0.68091 0.11018 0.0
C540 C 0.94202 0.67335 0.17752 0.0
C541 C 0.00629 0.67709 0.18249 0.0
C542 C 0.04469 0.67991 0.15092 0.0
C543 C 0.01895 0.68199 0.11513 0.0
C544 C 0.03324 0.68207 0.22079 0.0
C545 C 0.07793 0.65356 0.23095 0.0
C546 C 0.01599 0.71548 0.24685 0.0
C547 C 0.97165 0.74801 0.23695 0.0
C548 C 0.98183 0.77041 0.20509 0.0
C549 C 0.93943 0.80052 0.19564 0.0
C550 C 0.88719 0.8091 0.21823 0.0
C551 C 0.87742 0.7877 0.2504 0.0
C552 C 0.91933 0.75723 0.25976 0.0
C553 C 0.21152 0.71902 0.36615 0.0
C554 C 0.17694 0.71868 0.39973 0.0
C555 C 0.18323 0.70897 0.33123 0.0
C556 C 0.11993 0.69897 0.32945 0.0
C557 C 0.08545 0.69844 0.36289 0.0
C558 C 0.11381 0.70781 0.39775 0.0
C559 C 0.08885 0.69104 0.2926 0.0
C560 C 0.04356 0.7192 0.28264 0.0
C561 C 0.10575 0.65747 0.26674 0.0
C562 C 0.15111 0.62569 0.2767 0.0
C563 C 0.14246 0.6041 0.30919 0.0
C564 C 0.18537 0.57425 0.31849 0.0
C565 C 0.23681 0.56536 0.29528 0.0
C566 C 0.24546 0.58634 0.26273 0.0
C567 C 0.2028 0.61635 0.25339 0.0
H568 H 0.26987 0.54213 0.30246 0.0
H569 H 0.85453 0.83252 0.21095 0.0
H570 H 0.02268 0.36595 0.39964 0.0
H571 H 0.07272 0.36887 0.33795 0.0
H572 H 0.92504 0.29497 0.28583 0.0
H573 H 0.87597 0.2908 0.34722 0.0
H574 H 0.03475 0.26323 0.26613 0.0
H575 H 0.9403 0.39753 0.27217 0.0
H576 H 0.91568 0.46822 0.29902 0.0
H577 H 0.10843 0.50099 0.29621 0.0
H578 H 0.1344 0.43029 0.27 0.0
H579 H 0.11708 0.33413 0.07329 0.0
H580 H 0.06873 0.35051 0.13502 0.0
H581 H 0.21484 0.2855 0.18814 0.0
H582 H 0.26341 0.26872 0.12657 0.0
H583 H 0.10305 0.38883 0.20568 0.0
H584 H 0.14159 0.22272 0.24941 0.0
H585 H 0.16393 0.15312 0.21892 0.0
H586 H 0.07335 0.18517 0.11772 0.0
H587 H 0.04823 0.25424 0.1481 0.0
C588 C 1.00067 0.35056 0.375 0.0
C589 C 0.94544 0.32796 0.37853 0.0
C590 C 0.02905 0.35256 0.33971 0.0
C591 C 0.00256 0.33216 0.30728 0.0
C592 C 0.9463 0.31092 0.31051 0.0
C593 C 0.91795 0.3089 0.34569 0.0
C594 C 0.03563 0.33009 0.2705 0.0
C595 C 0.04958 0.29076 0.25298 0.0
C596 C 0.05483 0.36599 0.25323 0.0
C597 C 0.03937 0.40841 0.2695 0.0
C598 C 0.97754 0.41965 0.27768 0.0
C599 C 0.96333 0.45978 0.29272 0.0
C600 C 0.01049 0.48906 0.29944 0.0
C601 C 0.07197 0.47828 0.2911 0.0
C602 C 0.08645 0.43818 0.27614 0.0
C603 C 0.13954 0.32389 0.09816 0.0
C604 C 0.19352 0.29952 0.09498 0.0
C605 C 0.11202 0.33353 0.13343 0.0
C606 C 0.13785 0.31877 0.16598 0.0
C607 C 0.19395 0.29682 0.16322 0.0
C608 C 0.22153 0.28719 0.128 0.0
C609 C 0.10256 0.32212 0.20189 0.0
C610 C 0.08829 0.36148 0.21911 0.0
C611 C 0.08221 0.28629 0.21875 0.0
C612 C 0.09375 0.24388 0.20093 0.0
C613 C 0.12582 0.21474 0.22081 0.0
C614 C 0.13884 0.17533 0.20356 0.0
C615 C 0.12004 0.16471 0.16641 0.0
C616 C 0.08768 0.19335 0.14654 0.0
C617 C 0.0739 0.23259 0.1638 0.0
H618 H 0.13052 0.1343 0.15301 0.0
H619 H 0.9994 0.52014 0.311 0.0
H620 H 0.88626 0.33528 0.57374 0.0
H621 H 0.93598 0.35195 0.63465 0.0
H622 H 0.79233 0.28588 0.68975 0.0
H623 H 0.74258 0.26834 0.62867 0.0
H624 H 0.90725 0.38974 0.70442 0.0
H625 H 0.86624 0.22535 0.75188 0.0
H626 H 0.83789 0.15613 0.72279 0.0
H627 H 0.92262 0.18484 0.61841 0.0
H628 H 0.95392 0.25341 0.64733 0.0
H629 H 0.99099 0.36744 0.89693 0.0
H630 H 0.94194 0.37141 0.83535 0.0
H631 H 0.08702 0.29516 0.78295 0.0
H632 H 0.13523 0.29002 0.84437 0.0
H633 H 0.97546 0.26442 0.76491 0.0
H634 H 0.07452 0.39689 0.76653 0.0
H635 H 0.10343 0.46767 0.79122 0.0
H636 H 0.91208 0.5039 0.79247 0.0
H637 H 0.88185 0.43318 0.76832 0.0
C638 C 0.86459 0.32479 0.59885 0.0
C639 C 0.81108 0.29982 0.59632 0.0
C640 C 0.89289 0.33466 0.63368 0.0
C641 C 0.86831 0.31966 0.66654 0.0
C642 C 0.81235 0.29733 0.66455 0.0
C643 C 0.78406 0.2873 0.62966 0.0
C644 C 0.9052 0.32305 0.70173 0.0
C645 C 0.92192 0.36245 0.7179 0.0
C646 C 0.92574 0.28727 0.71849 0.0
C647 C 0.91163 0.24478 0.70167 0.0
C648 C 0.87954 0.21668 0.72288 0.0
C649 C 0.86303 0.17752 0.70642 0.0
C650 C 0.87824 0.16615 0.66874 0.0
C651 C 0.91085 0.19367 0.6476 0.0
C652 C 0.92828 0.2326 0.66407 0.0
C653 C 0.01273 0.35181 0.87226 0.0
C654 C 0.06665 0.32803 0.87576 0.0
C655 C 0.98497 0.35445 0.83702 0.0
C656 C 0.01081 0.33355 0.80459 0.0
C657 C 0.06626 0.31147 0.80767 0.0
C658 C 0.09405 0.30884 0.84286 0.0
C659 C 0.97694 0.33128 0.76823 0.0
C660 C 0.96077 0.29188 0.7517 0.0
C661 C 0.95782 0.36709 0.75093 0.0
C662 C 0.97585 0.40952 0.76602 0.0
C663 C 0.03851 0.41979 0.77248 0.0
C664 C 0.05515 0.45994 0.78631 0.0
C665 C 0.00958 0.49017 0.79361 0.0
C666 C 0.9473 0.4804 0.78693 0.0
C667 C 0.93039 0.44029 0.77315 0.0
H668 H 0.02252 0.52122 0.80435 0.0
H669 H 0.865 0.13596 0.65595 0.0
H670 H 0.11726 0.69663 0.64694 0.0
H671 H 0.06292 0.68509 0.70553 0.0
H672 H 0.89952 0.64702 0.64233 0.0
H673 H 0.95404 0.65688 0.58342 0.0
H674 H 0.88075 0.71392 0.69639 0.0
H675 H 0.96275 0.57682 0.68985 0.0
H676 H 0.04261 0.52233 0.68225 0.0
H677 H 0.14002 0.57794 0.77868 0.0
H678 H 0.06091 0.63293 0.78677 0.0
H679 H 0.72058 0.70815 0.87044 0.0
H680 H 0.75988 0.68505 0.80744 0.0
H681 H 0.94734 0.69315 0.84985 0.0
H682 H 0.90796 0.71338 0.91303 0.0
H683 H 0.94135 0.63054 0.80171 0.0
H684 H 0.8686 0.77336 0.80187 0.0
H685 H 0.7888 0.82791 0.81031 0.0
H686 H 0.67646 0.76308 0.72513 0.0
H687 H 0.75511 0.7078 0.7167 0.0
C688 C 0.07047 0.68462 0.64522 0.0
C689 C 0.03979 0.67849 0.61028 0.0
C690 C 0.0394 0.67807 0.67886 0.0
C691 C 0.97714 0.66541 0.6782 0.0
C692 C 0.94749 0.65701 0.64339 0.0
C693 C 0.97868 0.66304 0.60976 0.0
C694 C 0.94117 0.66607 0.7138 0.0
C695 C 0.8931 0.6951 0.71922 0.0
C696 C 0.95808 0.64198 0.74362 0.0
C697 C 0.00616 0.60923 0.73869 0.0
C698 C 1.0015 0.57766 0.70923 0.0
C699 C 0.04655 0.54662 0.7049 0.0
C700 C 0.09652 0.5468 0.72984 0.0
C701 C 0.10141 0.57793 0.75929 0.0
C702 C 0.05635 0.60896 0.76384 0.0
C703 C 0.7701 0.70462 0.86621 0.0
C704 C 0.81136 0.71282 0.8964 0.0
C705 C 0.79257 0.69156 0.83024 0.0
C706 C 0.85677 0.68819 0.82361 0.0
C707 C 0.89768 0.69542 0.85412 0.0
C708 C 0.87517 0.70723 0.89021 0.0
C709 C 0.88222 0.67948 0.78484 0.0
C710 C 0.92831 0.64897 0.77876 0.0
C711 C 0.86396 0.70255 0.75443 0.0
C712 C 0.81741 0.73628 0.75893 0.0
C713 C 0.82675 0.77069 0.78507 0.0
C714 C 0.78169 0.8017 0.78989 0.0
C715 C 0.72749 0.79889 0.76838 0.0
C716 C 0.71837 0.76517 0.74186 0.0
C717 C 0.76314 0.73399 0.73706 0.0
H718 H 0.69261 0.82288 0.77219 0.0
H719 H 0.13128 0.5227 0.72649 0.0
loop_
_geom_bond_atom_site_label_1
_geom_bond_atom_site_label_2
_geom_bond_distance
_geom_bond_site_symmetry_2
_ccdc_geom_bond_type
Co0 N5 2.057 . S
Co0 O17 2.021 . S
Co0 O20 2.062 . S
Co0 O24 2.117 . S
Co0 O25 2.020 1_556 S
C1 O21 1.273 . S
C1 O24 1.244 1_554 S
Co2 N11 2.057 . S
Co2 O18 2.117 . S
Co2 O19 2.020 1_554 S
Co2 O21 2.021 . S
Co2 O26 2.062 . S
C3 N5 1.316 . S
C3 N6 1.347 . S
C3 H8 0.931 . S
C4 N5 1.375 . S
C4 C7 1.350 . S
C4 H9 0.930 . S
N5 Co0 2.057 . S
N5 C3 1.316 . S
N5 C4 1.375 . S
N6 C3 1.347 . S
N6 C7 1.373 . S
C7 C4 1.350 . S
C7 N6 1.373 . S
C7 H28 0.931 . S
H8 C3 0.931 . S
H9 C4 0.930 . S
C10 O17 1.269 . S
C10 O18 1.248 1_556 S
N11 Co2 2.057 . S
N11 C12 1.316 . S
N11 C13 1.375 . S
C12 N11 1.316 . S
C12 N14 1.347 . S
C12 H23 0.931 . S
C13 N11 1.375 . S
C13 C15 1.350 . S
C13 H22 0.930 . S
N14 C12 1.347 . S
N14 C15 1.373 . S
C15 C13 1.350 . S
C15 N14 1.373 . S
C15 H29 0.931 . S
C16 O19 1.256 . S
C16 O20 1.255 . S
O17 Co0 2.021 . S
O17 C10 1.269 . S
O18 Co2 2.117 . S
O18 C10 1.248 1_554 S
O19 Co2 2.020 1_556 S
O19 C16 1.256 . S
O20 Co0 2.062 . S
O20 C16 1.255 . S
O21 C1 1.273 . S
O21 Co2 2.021 . S
H22 C13 0.930 . S
H23 C12 0.931 . S
O24 Co0 2.117 . S
O24 C1 1.244 1_556 S
O25 Co0 2.020 1_554 S
O25 C27 1.256 . S
O26 Co2 2.062 . S
O26 C27 1.255 . S
C27 O25 1.256 . S
C27 O26 1.255 . S
H28 C7 0.931 . S
H29 C15 0.931 . S
Co30 N35 2.057 . S
Co30 O47 2.021 . S
Co30 O50 2.062 . S
Co30 O54 2.117 . S
Co30 O55 2.020 1_556 S
C31 O51 1.273 . S
C31 O54 1.244 1_554 S
Co32 N41 2.057 . S
Co32 O48 2.117 . S
Co32 O49 2.020 1_554 S
Co32 O51 2.021 . S
Co32 O56 2.062 . S
C33 N35 1.316 . S
C33 N36 1.347 . S
C33 H38 0.931 . S
C34 N35 1.375 . S
C34 C37 1.350 . S
C34 H39 0.930 . S
N35 Co30 2.057 . S
N35 C33 1.316 . S
N35 C34 1.375 . S
N36 C33 1.347 . S
N36 C37 1.373 . S
C37 C34 1.350 . S
C37 N36 1.373 . S
C37 H58 0.931 . S
H38 C33 0.931 . S
H39 C34 0.930 . S
C40 O47 1.269 . S
C40 O48 1.248 1_556 S
N41 Co32 2.057 . S
N41 C42 1.316 . S
N41 C43 1.375 . S
C42 N41 1.316 . S
C42 N44 1.347 . S
C42 H53 0.931 . S
C43 N41 1.375 . S
C43 C45 1.350 . S
C43 H52 0.930 . S
N44 C42 1.347 . S
N44 C45 1.373 . S
C45 C43 1.350 . S
C45 N44 1.373 . S
C45 H59 0.931 . S
C46 O49 1.256 . S
C46 O50 1.255 . S
O47 Co30 2.021 . S
O47 C40 1.269 . S
O48 Co32 2.117 . S
O48 C40 1.248 1_554 S
O49 Co32 2.020 1_556 S
O49 C46 1.256 . S
O50 Co30 2.062 . S
O50 C46 1.255 . S
O51 C31 1.273 . S
O51 Co32 2.021 . S
H52 C43 0.930 . S
H53 C42 0.931 . S
O54 Co30 2.117 . S
O54 C31 1.244 1_556 S
O55 Co30 2.020 1_554 S
O55 C57 1.256 . S
O56 Co32 2.062 . S
O56 C57 1.255 . S
C57 O55 1.256 . S
C57 O56 1.255 . S
H58 C37 0.931 . S
H59 C45 0.931 . S
Co60 N65 2.057 . S
Co60 O77 2.021 . S
Co60 O80 2.062 . S
Co60 O84 2.117 . S
Co60 O85 2.020 . S
C61 O81 1.259 . S
C61 O84 1.258 . S
Co62 N71 2.057 . S
Co62 O78 2.117 . S
Co62 O79 2.020 . S
Co62 O81 2.021 . S
Co62 O86 2.062 . S
C63 N65 1.316 . S
C63 N66 1.347 . S
C63 H68 0.931 . S
C64 N65 1.375 . S
C64 C67 1.350 . S
C64 H69 0.930 . S
N65 Co60 2.057 . S
N65 C63 1.316 . S
N65 C64 1.375 . S
N66 C63 1.347 . S
N66 C67 1.373 . S
C67 C64 1.350 . S
C67 N66 1.373 . S
C67 H88 0.931 . S
H68 C63 0.931 . S
H69 C64 0.930 . S
C70 O77 1.259 . S
C70 O78 1.258 . S
N71 Co62 2.057 . S
N71 C72 1.316 . S
N71 C73 1.375 . S
C72 N71 1.316 . S
C72 N74 1.347 . S
C72 H83 0.931 . S
C73 N71 1.375 . S
C73 C75 1.350 . S
C73 H82 0.930 . S
N74 C72 1.347 . S
N74 C75 1.373 . S
C75 C73 1.350 . S
C75 N74 1.373 . S
C75 H89 0.931 . S
C76 O79 1.256 . S
C76 O80 1.255 . S
O77 Co60 2.021 . S
O77 C70 1.259 . S
O78 Co62 2.117 . S
O78 C70 1.258 . S
O79 Co62 2.020 . S
O79 C76 1.256 . S
O80 Co60 2.062 . S
O80 C76 1.255 . S
O81 C61 1.259 . S
O81 Co62 2.021 . S
H82 C73 0.930 . S
H83 C72 0.931 . S
O84 Co60 2.117 . S
O84 C61 1.258 . S
O85 Co60 2.020 . S
O85 C87 1.256 . S
O86 Co62 2.062 . S
O86 C87 1.255 . S
C87 O85 1.256 . S
C87 O86 1.255 . S
H88 C67 0.931 . S
H89 C75 0.931 . S
Co90 N95 2.057 . S
Co90 O107 2.021 . S
Co90 O110 2.062 . S
Co90 O114 2.117 . S
Co90 O115 2.020 . S
C91 O111 1.259 . S
C91 O114 1.258 . S
Co92 N101 2.057 . S
Co92 O108 2.117 . S
Co92 O109 2.020 . S
Co92 O111 2.021 . S
Co92 O116 2.062 . S
C93 N95 1.316 . S
C93 N96 1.347 . S
C93 H98 0.931 . S
C94 N95 1.375 . S
C94 C97 1.350 . S
C94 H99 0.930 . S
N95 Co90 2.057 . S
N95 C93 1.316 . S
N95 C94 1.375 . S
N96 C93 1.347 . S
N96 C97 1.373 . S
C97 C94 1.350 . S
C97 N96 1.373 . S
C97 H118 0.931 . S
H98 C93 0.931 . S
H99 C94 0.930 . S
C100 O107 1.259 . S
C100 O108 1.258 . S
N101 Co92 2.057 . S
N101 C102 1.316 . S
N101 C103 1.375 . S
C102 N101 1.316 . S
C102 N104 1.347 . S
C102 H113 0.931 . S
C103 N101 1.375 . S
C103 C105 1.350 . S
C103 H112 0.930 . S
N104 C102 1.347 . S
N104 C105 1.373 . S
C105 C103 1.350 . S
C105 N104 1.373 . S
C105 H119 0.931 . S
C106 O109 1.256 . S
C106 O110 1.255 . S
O107 Co90 2.021 . S
O107 C100 1.259 . S
O108 Co92 2.117 . S
O108 C100 1.258 . S
O109 Co92 2.020 . S
O109 C106 1.256 . S
O110 Co90 2.062 . S
O110 C106 1.255 . S
O111 C91 1.259 . S
O111 Co92 2.021 . S
H112 C103 0.930 . S
H113 C102 0.931 . S
O114 Co90 2.117 . S
O114 C91 1.258 . S
O115 Co90 2.020 . S
O115 C117 1.256 . S
O116 Co92 2.062 . S
O116 C117 1.255 . S
C117 O115 1.256 . S
C117 O116 1.255 . S
H118 C97 0.931 . S
H119 C105 0.931 . S
H120 C138 0.951 . S
H121 C140 0.951 . S
H122 C142 0.950 1_554 S
H123 C143 0.951 . S
H124 C145 0.950 . S
H125 C148 0.950 . S
H126 C149 0.950 . S
H127 C151 0.950 . S
H128 C152 0.950 . S
H129 C153 0.951 . S
H130 C155 0.951 . S
H131 C157 0.950 1_556 S
H132 C158 0.951 1_556 S
H133 C160 0.950 . S
H134 C163 0.950 . S
H135 C164 0.950 . S
H136 C166 0.950 . S
H137 C167 0.950 . S
C138 H120 0.951 . S
C138 C139 1.366 . S
C138 C140 1.388 . S
C139 C138 1.366 . S
C139 C143 1.385 1_556 S
C140 H121 0.951 . S
C140 C138 1.388 . S
C140 C141 1.366 . S
C141 C140 1.366 . S
C141 C142 1.414 . S
C141 C144 1.499 . S
C142 H122 0.950 1_556 S
C142 C141 1.414 . S
C142 C143 1.374 1_556 S
C143 H123 0.951 . S
C143 C139 1.385 1_554 S
C143 C142 1.374 1_554 S
C144 C141 1.499 . S
C144 C145 1.373 1_556 S
C144 C146 1.389 . S
C145 H124 0.950 . S
C145 C144 1.373 1_554 S
C145 C161 1.377 . S
C146 C144 1.389 . S
C146 C147 1.524 . S
C146 C160 1.377 . S
C147 C146 1.524 . S
C147 C148 1.397 . S
C147 C152 1.363 . S
C148 H125 0.950 . S
C148 C147 1.397 . S
C148 C149 1.334 . S
C149 H126 0.950 . S
C149 C148 1.334 . S
C149 C150 1.287 . S
C150 C149 1.287 . S
C150 C151 1.524 . S
C150 H169 0.913 . S
C151 H127 0.950 . S
C151 C150 1.524 . S
C151 C152 1.415 . S
C152 H128 0.950 . S
C152 C147 1.363 . S
C152 C151 1.415 . S
C153 H129 0.951 . S
C153 C154 1.365 . S
C153 C155 1.388 . S
C154 C153 1.365 . S
C154 C158 1.385 . S
C155 H130 0.951 . S
C155 C153 1.388 . S
C155 C156 1.366 . S
C156 C155 1.366 . S
C156 C157 1.414 . S
C156 C159 1.499 . S
C157 H131 0.950 1_554 S
C157 C156 1.414 . S
C157 C158 1.375 . S
C158 H132 0.951 1_554 S
C158 C154 1.385 . S
C158 C157 1.375 . S
C159 C156 1.499 . S
C159 C160 1.373 1_554 S
C159 C161 1.389 . S
C160 H133 0.950 . S
C160 C146 1.377 . S
C160 C159 1.373 1_556 S
C161 C145 1.377 . S
C161 C159 1.389 . S
C161 C162 1.524 . S
C162 C161 1.524 . S
C162 C163 1.397 . S
C162 C167 1.363 . S
C163 H134 0.950 . S
C163 C162 1.397 . S
C163 C164 1.334 . S
C164 H135 0.950 . S
C164 C163 1.334 . S
C164 C165 1.287 . S
C165 C164 1.287 . S
C165 C166 1.524 . S
C165 H168 0.999 . S
C166 H136 0.950 . S
C166 C165 1.524 . S
C166 C167 1.415 . S
C167 H137 0.950 . S
C167 C162 1.363 . S
C167 C166 1.415 . S
H168 C165 0.999 . S
H169 C150 0.913 . S
H170 C188 0.951 . S
H171 C190 0.951 . S
H172 C192 0.950 . S
H173 C193 0.950 . S
H174 C195 0.950 . S
H175 C198 0.950 . S
H176 C199 0.950 . S
H177 C201 0.950 . S
H178 C202 0.950 . S
H179 C203 0.951 . S
H180 C205 0.951 . S
H181 C207 0.950 . S
H182 C208 0.950 . S
H183 C210 0.950 . S
H184 C213 0.950 . S
H185 C214 0.950 . S
H186 C216 0.950 . S
H187 C217 0.950 . S
C188 H170 0.951 . S
C188 C189 1.366 . S
C188 C190 1.388 . S
C189 C188 1.366 . S
C189 C193 1.385 . S
C190 H171 0.951 . S
C190 C188 1.388 . S
C190 C191 1.366 . S
C191 C190 1.366 . S
C191 C192 1.414 . S
C191 C194 1.499 . S
C192 H172 0.950 . S
C192 C191 1.414 . S
C192 C193 1.374 . S
C193 H173 0.950 . S
C193 C189 1.385 . S
C193 C192 1.374 . S
C194 C191 1.499 . S
C194 C195 1.373 . S
C194 C196 1.389 . S
C195 H174 0.950 . S
C195 C194 1.373 . S
C195 C211 1.377 . S
C196 C194 1.389 . S
C196 C197 1.524 . S
C196 C210 1.377 . S
C197 C196 1.524 . S
C197 C198 1.397 . S
C197 C202 1.363 . S
C198 H175 0.950 . S
C198 C197 1.397 . S
C198 C199 1.334 . S
C199 H176 0.950 . S
C199 C198 1.334 . S
C199 C200 1.287 . S
C200 C199 1.287 . S
C200 C201 1.524 . S
C200 H219 0.913 . S
C201 H177 0.950 . S
C201 C200 1.524 . S
C201 C202 1.415 . S
C202 H178 0.950 . S
C202 C197 1.363 . S
C202 C201 1.415 . S
C203 H179 0.951 . S
C203 C204 1.366 . S
C203 C205 1.388 . S
C204 C203 1.366 . S
C204 C208 1.385 . S
C205 H180 0.951 . S
C205 C203 1.388 . S
C205 C206 1.366 . S
C206 C205 1.366 . S
C206 C207 1.414 . S
C206 C209 1.499 . S
C207 H181 0.950 . S
C207 C206 1.414 . S
C207 C208 1.374 . S
C208 H182 0.950 . S
C208 C204 1.385 . S
C208 C207 1.374 . S
C209 C206 1.499 . S
C209 C210 1.373 . S
C209 C211 1.389 . S
C210 H183 0.950 . S
C210 C196 1.377 . S
C210 C209 1.373 . S
C211 C195 1.377 . S
C211 C209 1.389 . S
C211 C212 1.524 . S
C212 C211 1.524 . S
C212 C213 1.397 . S
C212 C217 1.363 . S
C213 H184 0.950 . S
C213 C212 1.397 . S
C213 C214 1.334 . S
C214 H185 0.950 . S
C214 C213 1.334 . S
C214 C215 1.287 . S
C215 C214 1.287 . S
C215 C216 1.524 . S
C215 H218 0.999 . S
C216 H186 0.950 . S
C216 C215 1.524 . S
C216 C217 1.415 . S
C217 H187 0.950 . S
C217 C212 1.363 . S
C217 C216 1.415 . S
H218 C215 0.999 . S
H219 C200 0.913 . S
H220 C238 0.951 . S
H221 C240 0.951 . S
H222 C242 0.950 . S
H223 C243 0.950 . S
H224 C245 0.950 . S
H225 C248 0.950 . S
H226 C249 0.950 . S
H227 C251 0.950 . S
H228 C252 0.950 . S
H229 C253 0.951 . S
H230 C255 0.951 . S
H231 C257 0.950 . S
H232 C258 0.950 . S
H233 C260 0.950 . S
H234 C263 0.950 . S
H235 C264 0.950 . S
H236 C266 0.950 . S
H237 C267 0.950 . S
C238 H220 0.951 . S
C238 C239 1.365 1_554 S
C238 C240 1.388 . S
C239 C238 1.365 1_556 S
C239 C243 1.385 . S
C240 H221 0.951 . S
C240 C238 1.388 . S
C240 C241 1.366 . S
C241 C240 1.366 . S
C241 C242 1.414 1_554 S
C241 C244 1.499 . S
C242 H222 0.950 . S
C242 C241 1.414 1_556 S
C242 C243 1.374 . S
C243 H223 0.950 . S
C243 C239 1.385 . S
C243 C242 1.374 . S
C244 C241 1.499 . S
C244 C245 1.373 1_554 S
C244 C246 1.389 1_455 S
C245 H224 0.950 . S
C245 C244 1.373 1_556 S
C245 C261 1.377 1_545 S
C246 C244 1.389 1_655 S
C246 C247 1.524 . S
C246 C260 1.377 1_545 S
C247 C246 1.524 . S
C247 C248 1.397 1_655 S
C247 C252 1.363 . S
C248 H225 0.950 . S
C248 C247 1.397 1_455 S
C248 C249 1.334 . S
C249 H226 0.950 . S
C249 C248 1.334 . S
C249 C250 1.287 1_455 S
C250 C249 1.287 1_655 S
C250 C251 1.524 . S
C250 H269 0.913 . S
C251 H227 0.950 . S
C251 C250 1.524 . S
C251 C252 1.415 . S
C252 H228 0.950 . S
C252 C247 1.363 . S
C252 C251 1.415 . S
C253 H229 0.951 . S
C253 C254 1.364 1_556 S
C253 C255 1.388 . S
C254 C253 1.364 1_554 S
C254 C258 1.385 . S
C255 H230 0.951 . S
C255 C253 1.388 . S
C255 C256 1.366 . S
C256 C255 1.366 . S
C256 C257 1.414 1_556 S
C256 C259 1.499 . S
C257 H231 0.950 . S
C257 C256 1.414 1_554 S
C257 C258 1.374 . S
C258 H232 0.950 . S
C258 C254 1.385 . S
C258 C257 1.374 . S
C259 C256 1.499 . S
C259 C260 1.373 1_556 S
C259 C261 1.389 1_655 S
C260 H233 0.950 . S
C260 C246 1.377 1_565 S
C260 C259 1.373 1_554 S
C261 C245 1.377 1_565 S
C261 C259 1.389 1_455 S
C261 C262 1.524 . S
C262 C261 1.524 . S
C262 C263 1.397 1_455 S
C262 C267 1.363 . S
C263 H234 0.950 . S
C263 C262 1.397 1_655 S
C263 C264 1.334 . S
C264 H235 0.950 . S
C264 C263 1.334 . S
C264 C265 1.287 1_655 S
C265 C264 1.287 1_455 S
C265 C266 1.524 . S
C265 H268 0.999 . S
C266 H236 0.950 . S
C266 C265 1.524 . S
C266 C267 1.415 . S
C267 H237 0.950 . S
C267 C262 1.363 . S
C267 C266 1.415 . S
H268 C265 0.999 . S
H269 C250 0.913 . S
H270 C288 0.951 . S
H271 C290 0.951 . S
H272 C292 0.950 . S
H273 C293 0.950 . S
H274 C295 0.950 . S
H275 C298 0.950 . S
H276 C299 0.950 . S
H277 C301 0.950 . S
H278 C302 0.950 . S
H279 C303 0.951 . S
H280 C305 0.951 . S
H281 C307 0.950 . S
H282 C308 0.950 . S
H283 C310 0.950 . S
H284 C313 0.950 . S
H285 C314 0.950 . S
H286 C316 0.950 . S
H287 C317 0.950 . S
C288 H270 0.951 . S
C288 C289 1.366 . S
C288 C290 1.388 . S
C289 C288 1.366 . S
C289 C293 1.385 . S
C290 H271 0.951 . S
C290 C288 1.388 . S
C290 C291 1.366 . S
C291 C290 1.366 . S
C291 C292 1.414 . S
C291 C294 1.499 . S
C292 H272 0.950 . S
C292 C291 1.414 . S
C292 C293 1.374 . S
C293 H273 0.950 . S
C293 C289 1.385 . S
C293 C292 1.374 . S
C294 C291 1.499 . S
C294 C295 1.373 . S
C294 C296 1.389 1_655 S
C295 H274 0.950 . S
C295 C294 1.373 . S
C295 C311 1.377 1_545 S
C296 C294 1.389 1_455 S
C296 C297 1.524 . S
C296 C310 1.377 1_545 S
C297 C296 1.524 . S
C297 C298 1.397 . S
C297 C302 1.363 . S
C298 H275 0.950 . S
C298 C297 1.397 . S
C298 C299 1.334 . S
C299 H276 0.950 . S
C299 C298 1.334 . S
C299 C300 1.287 . S
C300 C299 1.287 . S
C300 C301 1.524 . S
C300 H319 0.913 . S
C301 H277 0.950 . S
C301 C300 1.524 . S
C301 C302 1.415 . S
C302 H278 0.950 . S
C302 C297 1.363 . S
C302 C301 1.415 . S
C303 H279 0.951 . S
C303 C304 1.366 . S
C303 C305 1.388 . S
C304 C303 1.366 . S
C304 C308 1.385 . S
C305 H280 0.951 . S
C305 C303 1.388 . S
C305 C306 1.366 . S
C306 C305 1.366 . S
C306 C307 1.414 . S
C306 C309 1.499 . S
C307 H281 0.950 . S
C307 C306 1.414 . S
C307 C308 1.374 . S
C308 H282 0.950 . S
C308 C304 1.385 . S
C308 C307 1.374 . S
C309 C306 1.499 . S
C309 C310 1.373 . S
C309 C311 1.389 1_455 S
C310 H283 0.950 . S
C310 C296 1.377 1_565 S
C310 C309 1.373 . S
C311 C295 1.377 1_565 S
C311 C309 1.389 1_655 S
C311 C312 1.524 . S
C312 C311 1.524 . S
C312 C313 1.397 . S
C312 C317 1.363 . S
C313 H284 0.950 . S
C313 C312 1.397 . S
C313 C314 1.334 . S
C314 H285 0.950 . S
C314 C313 1.334 . S
C314 C315 1.287 . S
C315 C314 1.287 . S
C315 C316 1.524 . S
C315 H318 0.999 . S
C316 H286 0.950 . S
C316 C315 1.524 . S
C316 C317 1.415 . S
C317 H287 0.950 . S
C317 C312 1.363 . S
C317 C316 1.415 . S
H318 C315 0.999 . S
H319 C300 0.913 . S
H320 C338 0.951 . S
H321 C340 0.951 . S
H322 C342 0.950 . S
H323 C343 0.950 . S
H324 C345 0.950 . S
H325 C348 0.950 . S
H326 C349 0.950 . S
H327 C351 0.950 . S
H328 C352 0.950 . S
H329 C353 0.951 . S
H330 C355 0.951 . S
H331 C357 0.950 . S
H332 C358 0.950 . S
H333 C360 0.950 . S
H334 C363 0.950 . S
H335 C364 0.950 . S
H336 C366 0.950 . S
H337 C367 0.950 . S
C338 H320 0.951 . S
C338 C339 1.366 . S
C338 C340 1.388 . S
C339 C338 1.366 . S
C339 C343 1.385 . S
C340 H321 0.951 . S
C340 C338 1.388 . S
C340 C341 1.366 . S
C341 C340 1.366 . S
C341 C342 1.414 . S
C341 C344 1.499 . S
C342 H322 0.950 . S
C342 C341 1.414 . S
C342 C343 1.374 . S
C343 H323 0.950 . S
C343 C339 1.385 . S
C343 C342 1.374 . S
C344 C341 1.499 . S
C344 C345 1.373 . S
C344 C346 1.389 . S
C345 H324 0.950 . S
C345 C344 1.373 . S
C345 C361 1.377 . S
C346 C344 1.389 . S
C346 C347 1.524 . S
C346 C360 1.377 . S
C347 C346 1.524 . S
C347 C348 1.397 . S
C347 C352 1.363 . S
C348 H325 0.950 . S
C348 C347 1.397 . S
C348 C349 1.334 . S
C349 H326 0.950 . S
C349 C348 1.334 . S
C349 C350 1.287 . S
C350 C349 1.287 . S
C350 C351 1.524 . S
C350 H369 0.913 . S
C351 H327 0.950 . S
C351 C350 1.524 . S
C351 C352 1.415 . S
C352 H328 0.950 . S
C352 C347 1.363 . S
C352 C351 1.415 . S
C353 H329 0.951 . S
C353 C354 1.366 . S
C353 C355 1.388 . S
C354 C353 1.366 . S
C354 C358 1.385 . S
C355 H330 0.951 . S
C355 C353 1.388 . S
C355 C356 1.366 . S
C356 C355 1.366 . S
C356 C357 1.414 . S
C356 C359 1.499 . S
C357 H331 0.950 . S
C357 C356 1.414 . S
C357 C358 1.374 . S
C358 H332 0.950 . S
C358 C354 1.385 . S
C358 C357 1.374 . S
C359 C356 1.499 . S
C359 C360 1.373 . S
C359 C361 1.389 . S
C360 H333 0.950 . S
C360 C346 1.377 . S
C360 C359 1.373 . S
C361 C345 1.377 . S
C361 C359 1.389 . S
C361 C362 1.524 . S
C362 C361 1.524 . S
C362 C363 1.397 . S
C362 C367 1.363 . S
C363 H334 0.950 . S
C363 C362 1.397 . S
C363 C364 1.334 . S
C364 H335 0.950 . S
C364 C363 1.334 . S
C364 C365 1.287 . S
C365 C364 1.287 . S
C365 C366 1.524 . S
C365 H368 0.999 . S
C366 H336 0.950 . S
C366 C365 1.524 . S
C366 C367 1.415 . S
C367 H337 0.950 . S
C367 C362 1.363 . S
C367 C366 1.415 . S
H368 C365 0.999 . S
H369 C350 0.913 . S
H370 C388 0.951 . S
H371 C390 0.951 . S
H372 C392 0.950 . S
H373 C393 0.950 . S
H374 C395 0.950 . S
H375 C398 0.950 . S
H376 C399 0.950 . S
H377 C401 0.950 . S
H378 C402 0.950 . S
H379 C403 0.951 . S
H380 C405 0.951 . S
H381 C407 0.950 . S
H382 C408 0.950 . S
H383 C410 0.950 . S
H384 C413 0.950 . S
H385 C414 0.950 . S
H386 C416 0.950 . S
H387 C417 0.950 . S
C388 H370 0.951 . S
C388 C389 1.366 . S
C388 C390 1.388 . S
C389 C388 1.366 . S
C389 C393 1.385 . S
C390 H371 0.951 . S
C390 C388 1.388 . S
C390 C391 1.366 . S
C391 C390 1.366 . S
C391 C392 1.414 . S
C391 C394 1.499 . S
C392 H372 0.950 . S
C392 C391 1.414 . S
C392 C393 1.374 . S
C393 H373 0.950 . S
C393 C389 1.385 . S
C393 C392 1.374 . S
C394 C391 1.499 . S
C394 C395 1.373 . S
C394 C396 1.389 . S
C395 H374 0.950 . S
C395 C394 1.373 . S
C395 C411 1.377 . S
C396 C394 1.389 . S
C396 C397 1.524 . S
C396 C410 1.377 . S
C397 C396 1.524 . S
C397 C398 1.397 . S
C397 C402 1.363 . S
C398 H375 0.950 . S
C398 C397 1.397 . S
C398 C399 1.334 . S
C399 H376 0.950 . S
C399 C398 1.334 . S
C399 C400 1.287 . S
C400 C399 1.287 . S
C400 C401 1.524 . S
C400 H419 0.913 . S
C401 H377 0.950 . S
C401 C400 1.524 . S
C401 C402 1.415 . S
C402 H378 0.950 . S
C402 C397 1.363 . S
C402 C401 1.415 . S
C403 H379 0.951 . S
C403 C404 1.366 . S
C403 C405 1.388 . S
C404 C403 1.366 . S
C404 C408 1.385 . S
C405 H380 0.951 . S
C405 C403 1.388 . S
C405 C406 1.366 . S
C406 C405 1.366 . S
C406 C407 1.414 . S
C406 C409 1.499 . S
C407 H381 0.950 . S
C407 C406 1.414 . S
C407 C408 1.374 . S
C408 H382 0.950 . S
C408 C404 1.385 . S
C408 C407 1.374 . S
C409 C406 1.499 . S
C409 C410 1.373 . S
C409 C411 1.389 . S
C410 H383 0.950 . S
C410 C396 1.377 . S
C410 C409 1.373 . S
C411 C395 1.377 . S
C411 C409 1.389 . S
C411 C412 1.524 . S
C412 C411 1.524 . S
C412 C413 1.397 . S
C412 C417 1.363 . S
C413 H384 0.950 . S
C413 C412 1.397 . S
C413 C414 1.334 . S
C414 H385 0.950 . S
C414 C413 1.334 . S
C414 C415 1.287 . S
C415 C414 1.287 . S
C415 C416 1.524 . S
C415 H418 0.999 . S
C416 H386 0.950 . S
C416 C415 1.524 . S
C416 C417 1.415 . S
C417 H387 0.950 . S
C417 C412 1.363 . S
C417 C416 1.415 . S
H418 C415 0.999 . S
H419 C400 0.913 . S
H420 C438 0.951 . S
H421 C440 0.951 . S
H422 C442 0.950 . S
H423 C443 0.950 . S
H424 C445 0.950 . S
H425 C448 0.950 . S
H426 C449 0.950 . S
H427 C451 0.950 . S
H428 C452 0.950 . S
H429 C453 0.951 . S
H430 C455 0.951 . S
H431 C457 0.950 . S
H432 C458 0.950 . S
H433 C460 0.950 . S
H434 C463 0.950 . S
H435 C464 0.950 . S
H436 C466 0.950 . S
H437 C467 0.950 . S
C438 H420 0.951 . S
C438 C439 1.366 . S
C438 C440 1.388 . S
C439 C438 1.366 . S
C439 C443 1.385 . S
C440 H421 0.951 . S
C440 C438 1.388 . S
C440 C441 1.366 . S
C441 C440 1.366 . S
C441 C442 1.414 . S
C441 C444 1.499 . S
C442 H422 0.950 . S
C442 C441 1.414 . S
C442 C443 1.374 . S
C443 H423 0.950 . S
C443 C439 1.385 . S
C443 C442 1.374 . S
C444 C441 1.499 . S
C444 C445 1.373 . S
C444 C446 1.389 . S
C445 H424 0.950 . S
C445 C444 1.373 . S
C445 C461 1.377 . S
C446 C444 1.389 . S
C446 C447 1.524 . S
C446 C460 1.377 . S
C447 C446 1.524 . S
C447 C448 1.397 . S
C447 C452 1.363 . S
C448 H425 0.950 . S
C448 C447 1.397 . S
C448 C449 1.334 . S
C449 H426 0.950 . S
C449 C448 1.334 . S
C449 C450 1.287 . S
C450 C449 1.287 . S
C450 C451 1.524 . S
C450 H469 0.913 . S
C451 H427 0.950 . S
C451 C450 1.524 . S
C451 C452 1.415 . S
C452 H428 0.950 . S
C452 C447 1.363 . S
C452 C451 1.415 . S
C453 H429 0.951 . S
C453 C454 1.366 . S
C453 C455 1.388 . S
C454 C453 1.366 . S
C454 C458 1.385 . S
C455 H430 0.951 . S
C455 C453 1.388 . S
C455 C456 1.366 . S
C456 C455 1.366 . S
C456 C457 1.414 . S
C456 C459 1.499 . S
C457 H431 0.950 . S
C457 C456 1.414 . S
C457 C458 1.374 . S
C458 H432 0.950 . S
C458 C454 1.385 . S
C458 C457 1.374 . S
C459 C456 1.499 . S
C459 C460 1.373 . S
C459 C461 1.389 . S
C460 H433 0.950 . S
C460 C446 1.377 . S
C460 C459 1.373 . S
C461 C445 1.377 . S
C461 C459 1.389 . S
C461 C462 1.524 . S
C462 C461 1.524 . S
C462 C463 1.397 . S
C462 C467 1.363 . S
C463 H434 0.950 . S
C463 C462 1.397 . S
C463 C464 1.334 . S
C464 H435 0.950 . S
C464 C463 1.334 . S
C464 C465 1.287 . S
C465 C464 1.287 . S
C465 C466 1.524 . S
C465 H468 0.999 . S
C466 H436 0.950 . S
C466 C465 1.524 . S
C466 C467 1.415 . S
C467 H437 0.950 . S
C467 C462 1.363 . S
C467 C466 1.415 . S
H468 C465 0.999 . S
H469 C450 0.913 . S
H470 C488 0.951 . S
H471 C490 0.951 . S
H472 C492 0.950 . S
H473 C493 0.950 . S
H474 C495 0.950 . S
H475 C498 0.950 . S
H476 C499 0.950 . S
H477 C501 0.950 . S
H478 C502 0.950 . S
H479 C503 0.951 . S
H480 C505 0.951 . S
H481 C507 0.950 . S
H482 C508 0.950 . S
H483 C510 0.950 . S
H484 C513 0.950 . S
H485 C514 0.950 . S
H486 C516 0.950 . S
H487 C517 0.950 . S
C488 H470 0.951 . S
C488 C489 1.366 . S
C488 C490 1.388 . S
C489 C488 1.366 . S
C489 C493 1.385 . S
C490 H471 0.951 . S
C490 C488 1.388 . S
C490 C491 1.366 . S
C491 C490 1.366 . S
C491 C492 1.414 . S
C491 C494 1.499 . S
C492 H472 0.950 . S
C492 C491 1.414 . S
C492 C493 1.374 . S
C493 H473 0.950 . S
C493 C489 1.385 . S
C493 C492 1.374 . S
C494 C491 1.499 . S
C494 C495 1.373 . S
C494 C496 1.389 . S
C495 H474 0.950 . S
C495 C494 1.373 . S
C495 C511 1.377 . S
C496 C494 1.389 . S
C496 C497 1.524 . S
C496 C510 1.377 . S
C497 C496 1.524 . S
C497 C498 1.397 . S
C497 C502 1.363 . S
C498 H475 0.950 . S
C498 C497 1.397 . S
C498 C499 1.334 . S
C499 H476 0.950 . S
C499 C498 1.334 . S
C499 C500 1.287 . S
C500 C499 1.287 . S
C500 C501 1.524 . S
C500 H519 0.913 . S
C501 H477 0.950 . S
C501 C500 1.524 . S
C501 C502 1.415 . S
C502 H478 0.950 . S
C502 C497 1.363 . S
C502 C501 1.415 . S
C503 H479 0.951 . S
C503 C504 1.366 . S
C503 C505 1.388 . S
C504 C503 1.366 . S
C504 C508 1.385 . S
C505 H480 0.951 . S
C505 C503 1.388 . S
C505 C506 1.366 . S
C506 C505 1.366 . S
C506 C507 1.414 . S
C506 C509 1.499 . S
C507 H481 0.950 . S
C507 C506 1.414 . S
C507 C508 1.374 . S
C508 H482 0.950 . S
C508 C504 1.385 . S
C508 C507 1.374 . S
C509 C506 1.499 . S
C509 C510 1.373 . S
C509 C511 1.389 . S
C510 H483 0.950 . S
C510 C496 1.377 . S
C510 C509 1.373 . S
C511 C495 1.377 . S
C511 C509 1.389 . S
C511 C512 1.524 . S
C512 C511 1.524 . S
C512 C513 1.397 . S
C512 C517 1.363 . S
C513 H484 0.950 . S
C513 C512 1.397 . S
C513 C514 1.334 . S
C514 H485 0.950 . S
C514 C513 1.334 . S
C514 C515 1.287 . S
C515 C514 1.287 . S
C515 C516 1.524 . S
C515 H518 0.999 . S
C516 H486 0.950 . S
C516 C515 1.524 . S
C516 C517 1.415 . S
C517 H487 0.950 . S
C517 C512 1.363 . S
C517 C516 1.415 . S
H518 C515 0.999 . S
H519 C500 0.913 . S
H520 C538 0.951 . S
H521 C540 0.951 . S
H522 C542 0.950 . S
H523 C543 0.950 1_455 S
H524 C545 0.950 . S
H525 C548 0.950 . S
H526 C549 0.950 . S
H527 C551 0.950 . S
H528 C552 0.950 . S
H529 C553 0.951 . S
H530 C555 0.951 . S
H531 C557 0.950 . S
H532 C558 0.950 . S
H533 C560 0.950 . S
H534 C563 0.950 . S
H535 C564 0.950 . S
H536 C566 0.950 . S
H537 C567 0.950 . S
C538 H520 0.951 . S
C538 C539 1.366 . S
C538 C540 1.388 . S
C539 C538 1.366 . S
C539 C543 1.385 . S
C540 H521 0.951 . S
C540 C538 1.388 . S
C540 C541 1.366 . S
C541 C540 1.366 . S
C541 C542 1.414 1_655 S
C541 C544 1.499 1_655 S
C542 H522 0.950 . S
C542 C541 1.414 1_455 S
C542 C543 1.374 1_455 S
C543 H523 0.950 1_655 S
C543 C539 1.385 . S
C543 C542 1.374 1_655 S
C544 C541 1.499 1_455 S
C544 C545 1.373 . S
C544 C546 1.389 . S
C545 H524 0.950 . S
C545 C544 1.373 . S
C545 C561 1.377 . S
C546 C544 1.389 . S
C546 C547 1.524 . S
C546 C560 1.377 . S
C547 C546 1.524 . S
C547 C548 1.397 . S
C547 C552 1.363 1_455 S
C548 H525 0.950 . S
C548 C547 1.397 . S
C548 C549 1.334 . S
C549 H526 0.950 . S
C549 C548 1.334 . S
C549 C550 1.287 . S
C550 C549 1.287 . S
C550 C551 1.524 1_455 S
C550 H569 0.913 1_455 S
C551 H527 0.950 . S
C551 C550 1.524 1_655 S
C551 C552 1.415 . S
C552 H528 0.950 . S
C552 C547 1.363 1_655 S
C552 C551 1.415 . S
C553 H529 0.951 . S
C553 C554 1.366 . S
C553 C555 1.388 . S
C554 C553 1.366 . S
C554 C558 1.385 . S
C555 H530 0.951 . S
C555 C553 1.388 . S
C555 C556 1.366 . S
C556 C555 1.366 . S
C556 C557 1.414 . S
C556 C559 1.499 . S
C557 H531 0.950 . S
C557 C556 1.414 . S
C557 C558 1.374 . S
C558 H532 0.950 . S
C558 C554 1.385 . S
C558 C557 1.374 . S
C559 C556 1.499 . S
C559 C560 1.373 . S
C559 C561 1.389 . S
C560 H533 0.950 . S
C560 C546 1.377 . S
C560 C559 1.373 . S
C561 C545 1.377 . S
C561 C559 1.389 . S
C561 C562 1.524 . S
C562 C561 1.524 . S
C562 C563 1.397 . S
C562 C567 1.363 . S
C563 H534 0.950 . S
C563 C562 1.397 . S
C563 C564 1.334 . S
C564 H535 0.950 . S
C564 C563 1.334 . S
C564 C565 1.287 . S
C565 C564 1.287 . S
C565 C566 1.524 . S
C565 H568 0.999 . S
C566 H536 0.950 . S
C566 C565 1.524 . S
C566 C567 1.415 . S
C567 H537 0.950 . S
C567 C562 1.363 . S
C567 C566 1.415 . S
H568 C565 0.999 . S
H569 C550 0.913 1_655 S
H570 C588 0.951 . S
H571 C590 0.951 1_455 S
H572 C592 0.950 . S
H573 C593 0.950 . S
H574 C595 0.950 . S
H575 C598 0.950 . S
H576 C599 0.950 . S
H577 C601 0.950 . S
H578 C602 0.950 1_455 S
H579 C603 0.951 . S
H580 C605 0.951 . S
H581 C607 0.950 . S
H582 C608 0.950 . S
H583 C610 0.950 . S
H584 C613 0.950 . S
H585 C614 0.950 . S
H586 C616 0.950 . S
H587 C617 0.950 . S
C588 H570 0.951 . S
C588 C589 1.366 . S
C588 C590 1.388 . S
C589 C588 1.366 . S
C589 C593 1.385 . S
C590 H571 0.951 1_655 S
C590 C588 1.388 . S
C590 C591 1.366 . S
C591 C590 1.366 . S
C591 C592 1.414 . S
C591 C594 1.499 1_655 S
C592 H572 0.950 . S
C592 C591 1.414 . S
C592 C593 1.374 . S
C593 H573 0.950 . S
C593 C589 1.385 . S
C593 C592 1.374 . S
C594 C591 1.499 1_455 S
C594 C595 1.373 . S
C594 C596 1.389 . S
C595 H574 0.950 . S
C595 C594 1.373 . S
C595 C611 1.377 . S
C596 C594 1.389 . S
C596 C597 1.524 1_455 S
C596 C610 1.377 . S
C597 C596 1.524 1_655 S
C597 C598 1.397 . S
C597 C602 1.363 . S
C598 H575 0.950 . S
C598 C597 1.397 . S
C598 C599 1.334 . S
C599 H576 0.950 . S
C599 C598 1.334 . S
C599 C600 1.287 . S
C600 C599 1.287 . S
C600 C601 1.524 . S
C600 H619 0.913 . S
C601 H577 0.950 . S
C601 C600 1.524 . S
C601 C602 1.415 . S
C602 H578 0.950 1_655 S
C602 C597 1.363 . S
C602 C601 1.415 . S
C603 H579 0.951 . S
C603 C604 1.366 . S
C603 C605 1.388 . S
C604 C603 1.366 . S
C604 C608 1.385 . S
C605 H580 0.951 . S
C605 C603 1.388 . S
C605 C606 1.366 . S
C606 C605 1.366 . S
C606 C607 1.414 . S
C606 C609 1.499 . S
C607 H581 0.950 . S
C607 C606 1.414 . S
C607 C608 1.374 . S
C608 H582 0.950 . S
C608 C604 1.385 . S
C608 C607 1.374 . S
C609 C606 1.499 . S
C609 C610 1.373 . S
C609 C611 1.389 . S
C610 H583 0.950 . S
C610 C596 1.377 . S
C610 C609 1.373 . S
C611 C595 1.377 . S
C611 C609 1.389 . S
C611 C612 1.524 . S
C612 C611 1.524 . S
C612 C613 1.397 . S
C612 C617 1.363 . S
C613 H584 0.950 . S
C613 C612 1.397 . S
C613 C614 1.334 . S
C614 H585 0.950 . S
C614 C613 1.334 . S
C614 C615 1.287 . S
C615 C614 1.287 . S
C615 C616 1.524 . S
C615 H618 0.999 . S
C616 H586 0.950 . S
C616 C615 1.524 . S
C616 C617 1.415 . S
C617 H587 0.950 . S
C617 C612 1.363 . S
C617 C616 1.415 . S
H618 C615 0.999 . S
H619 C600 0.913 . S
H620 C638 0.951 . S
H621 C640 0.951 . S
H622 C642 0.950 . S
H623 C643 0.950 . S
H624 C645 0.950 . S
H625 C648 0.950 . S
H626 C649 0.950 . S
H627 C651 0.950 . S
H628 C652 0.950 . S
H629 C653 0.951 1_655 S
H630 C655 0.951 . S
H631 C657 0.950 . S
H632 C658 0.950 . S
H633 C660 0.950 1_455 S
H634 C663 0.950 . S
H635 C664 0.950 . S
H636 C666 0.950 . S
H637 C667 0.950 . S
C638 H620 0.951 . S
C638 C639 1.366 . S
C638 C640 1.388 . S
C639 C638 1.366 . S
C639 C643 1.385 . S
C640 H621 0.951 . S
C640 C638 1.388 . S
C640 C641 1.366 . S
C641 C640 1.366 . S
C641 C642 1.414 . S
C641 C644 1.499 . S
C642 H622 0.950 . S
C642 C641 1.414 . S
C642 C643 1.374 . S
C643 H623 0.950 . S
C643 C639 1.385 . S
C643 C642 1.374 . S
C644 C641 1.499 . S
C644 C645 1.373 . S
C644 C646 1.389 . S
C645 H624 0.950 . S
C645 C644 1.373 . S
C645 C661 1.377 . S
C646 C644 1.389 . S
C646 C647 1.524 . S
C646 C660 1.377 . S
C647 C646 1.524 . S
C647 C648 1.397 . S
C647 C652 1.363 1_655 S
C648 H625 0.950 . S
C648 C647 1.397 . S
C648 C649 1.334 . S
C649 H626 0.950 . S
C649 C648 1.334 . S
C649 C650 1.287 . S
C650 C649 1.287 . S
C650 C651 1.524 1_655 S
C650 H669 0.913 . S
C651 H627 0.950 . S
C651 C650 1.524 1_455 S
C651 C652 1.415 . S
C652 H628 0.950 . S
C652 C647 1.363 1_455 S
C652 C651 1.415 . S
C653 H629 0.951 1_455 S
C653 C654 1.366 . S
C653 C655 1.388 1_455 S
C654 C653 1.366 . S
C654 C658 1.385 . S
C655 H630 0.951 . S
C655 C653 1.388 1_655 S
C655 C656 1.366 1_655 S
C656 C655 1.366 1_455 S
C656 C657 1.414 . S
C656 C659 1.499 1_455 S
C657 H631 0.950 . S
C657 C656 1.414 . S
C657 C658 1.374 . S
C658 H632 0.950 . S
C658 C654 1.385 . S
C658 C657 1.374 . S
C659 C656 1.499 1_655 S
C659 C660 1.373 . S
C659 C661 1.389 . S
C660 H633 0.950 1_655 S
C660 C646 1.377 . S
C660 C659 1.373 . S
C661 C645 1.377 . S
C661 C659 1.389 . S
C661 C662 1.524 . S
C662 C661 1.524 . S
C662 C663 1.397 1_655 S
C662 C667 1.363 . S
C663 H634 0.950 . S
C663 C662 1.397 1_455 S
C663 C664 1.334 . S
C664 H635 0.950 . S
C664 C663 1.334 . S
C664 C665 1.287 1_455 S
C665 C664 1.287 1_655 S
C665 C666 1.524 . S
C665 H668 0.999 . S
C666 H636 0.950 . S
C666 C665 1.524 . S
C666 C667 1.415 . S
C667 H637 0.950 . S
C667 C662 1.363 . S
C667 C666 1.415 . S
H668 C665 0.999 . S
H669 C650 0.913 . S
H670 C688 0.951 . S
H671 C690 0.951 . S
H672 C692 0.950 . S
H673 C693 0.950 1_655 S
H674 C695 0.950 . S
H675 C698 0.950 . S
H676 C699 0.950 . S
H677 C701 0.950 . S
H678 C702 0.950 . S
H679 C703 0.951 . S
H680 C705 0.951 . S
H681 C707 0.950 . S
H682 C708 0.950 . S
H683 C710 0.950 1_455 S
H684 C713 0.950 . S
H685 C714 0.950 . S
H686 C716 0.950 . S
H687 C717 0.950 . S
C688 H670 0.951 . S
C688 C689 1.366 . S
C688 C690 1.388 . S
C689 C688 1.366 . S
C689 C693 1.385 . S
C690 H671 0.951 . S
C690 C688 1.388 . S
C690 C691 1.366 . S
C691 C690 1.366 . S
C691 C692 1.414 1_455 S
C691 C694 1.499 1_455 S
C692 H672 0.950 . S
C692 C691 1.414 1_655 S
C692 C693 1.374 1_655 S
C693 H673 0.950 1_455 S
C693 C689 1.385 . S
C693 C692 1.374 1_455 S
C694 C691 1.499 1_655 S
C694 C695 1.373 . S
C694 C696 1.389 1_655 S
C695 H674 0.950 . S
C695 C694 1.373 . S
C695 C711 1.377 . S
C696 C694 1.389 1_455 S
C696 C697 1.524 . S
C696 C710 1.377 1_455 S
C697 C696 1.524 . S
C697 C698 1.397 . S
C697 C702 1.363 . S
C698 H675 0.950 . S
C698 C697 1.397 . S
C698 C699 1.334 . S
C699 H676 0.950 . S
C699 C698 1.334 . S
C699 C700 1.287 . S
C700 C699 1.287 . S
C700 C701 1.524 . S
C700 H719 0.913 . S
C701 H677 0.950 . S
C701 C700 1.524 . S
C701 C702 1.415 . S
C702 H678 0.950 . S
C702 C697 1.363 . S
C702 C701 1.415 . S
C703 H679 0.951 . S
C703 C704 1.366 . S
C703 C705 1.388 . S
C704 C703 1.366 . S
C704 C708 1.385 . S
C705 H680 0.951 . S
C705 C703 1.388 . S
C705 C706 1.366 . S
C706 C705 1.366 . S
C706 C707 1.414 . S
C706 C709 1.499 . S
C707 H681 0.950 . S
C707 C706 1.414 . S
C707 C708 1.374 . S
C708 H682 0.950 . S
C708 C704 1.385 . S
C708 C707 1.374 . S
C709 C706 1.499 . S
C709 C710 1.373 . S
C709 C711 1.389 . S
C710 H683 0.950 1_655 S
C710 C696 1.377 1_655 S
C710 C709 1.373 . S
C711 C695 1.377 . S
C711 C709 1.389 . S
C711 C712 1.524 . S
C712 C711 1.524 . S
C712 C713 1.397 . S
C712 C717 1.363 . S
C713 H684 0.950 . S
C713 C712 1.397 . S
C713 C714 1.334 . S
C714 H685 0.950 . S
C714 C713 1.334 . S
C714 C715 1.287 . S
C715 C714 1.287 . S
C715 C716 1.524 . S
C715 H718 0.999 . S
C716 H686 0.950 . S
C716 C715 1.524 . S
C716 C717 1.415 . S
C717 H687 0.950 . S
C717 C712 1.363 . S
C717 C716 1.415 . S
H718 C715 0.999 . S
H719 C700 0.913 . S
C139 C31 1.631 1_556 S
C154 C10 1.631 1_554 S
C189 C70 1.629 . S
C204 C91 1.629 . S
C239 C1 1.631 1_556 S
C254 C40 1.631 1_554 S
C289 C100 1.630 . S
C304 C61 1.630 . S
C339 C117 0.793 . S
C354 N14 0.786 . S
C389 C57 0.794 . S
C404 N74 0.785 . S
C439 N36 0.789 . S
C454 C76 0.796 . S
C489 N96 0.787 . S
C504 C16 0.797 . S
C539 N44 0.790 . S
C554 C87 0.790 . S
C589 N104 0.787 . S
C604 C27 0.791 . S
C639 C106 0.794 . S
C654 N6 0.790 . S
C689 N66 0.787 . S
C704 C46 0.797 . S
