# Generated by pormake.
# Topology vby, (6)-cn, num edge types: 1
# Building blocks:
#     Node 0, Type 0, BuildingBlock: UKALOJ_clean_sbu_0, # of connection points: 6
#     Node 1, Type 0, BuildingBlock: UKALOJ_clean_sbu_0, # of connection points: 6
#     Node 2, Type 0, BuildingBlock: UKALOJ_clean_sbu_0, # of connection points: 6
#     Node 3, Type 0, BuildingBlock: UKALOJ_clean_sbu_0, # of connection points: 6
#     Node 4, Type 0, BuildingBlock: UKALOJ_clean_sbu_0, # of connection points: 6
#     Node 5, Type 0, BuildingBlock: UKALOJ_clean_sbu_0, # of connection points: 6
#     Node 6, Type 0, BuildingBlock: UKALOJ_clean_sbu_0, # of connection points: 6
#     Node 7, Type 0, BuildingBlock: UKALOJ_clean_sbu_0, # of connection points: 6
#     Edge 8, Type (0, 0), BuildingBlock: EYOCIG_clean_linker_4, # of connection points: 2
#     Edge 9, Type (0, 0), BuildingBlock: EYOCIG_clean_linker_4, # of connection points: 2
#     Edge 10, Type (0, 0), BuildingBlock: EYOCIG_clean_linker_4, # of connection points: 2
#     Edge 11, Type (0, 0), BuildingBlock: EYOCIG_clean_linker_4, # of connection points: 2
#     Edge 12, Type (0, 0), BuildingBlock: EYOCIG_clean_linker_4, # of connection points: 2
#     Edge 13, Type (0, 0), BuildingBlock: EYOCIG_clean_linker_4, # of connection points: 2
#     Edge 14, Type (0, 0), BuildingBlock: EYOCIG_clean_linker_4, # of connection points: 2
#     Edge 15, Type (0, 0), BuildingBlock: EYOCIG_clean_linker_4, # of connection points: 2
#     Edge 16, Type (0, 0), BuildingBlock: EYOCIG_clean_linker_4, # of connection points: 2
#     Edge 17, Type (0, 0), BuildingBlock: EYOCIG_clean_linker_4, # of connection points: 2
#     Edge 18, Type (0, 0), BuildingBlock: EYOCIG_clean_linker_4, # of connection points: 2
#     Edge 19, Type (0, 0), BuildingBlock: EYOCIG_clean_linker_4, # of connection points: 2
#     Edge 20, Type (0, 0), BuildingBlock: EYOCIG_clean_linker_4, # of connection points: 2
#     Edge 21, Type (0, 0), BuildingBlock: EYOCIG_clean_linker_4, # of connection points: 2
#     Edge 22, Type (0, 0), BuildingBlock: EYOCIG_clean_linker_4, # of connection points: 2
#     Edge 23, Type (0, 0), BuildingBlock: EYOCIG_clean_linker_4, # of connection points: 2
#     Edge 24, Type (0, 0), BuildingBlock: EYOCIG_clean_linker_4, # of connection points: 2
#     Edge 25, Type (0, 0), BuildingBlock: EYOCIG_clean_linker_4, # of connection points: 2
#     Edge 26, Type (0, 0), BuildingBlock: EYOCIG_clean_linker_4, # of connection points: 2
#     Edge 27, Type (0, 0), BuildingBlock: EYOCIG_clean_linker_4, # of connection points: 2
#     Edge 28, Type (0, 0), BuildingBlock: EYOCIG_clean_linker_4, # of connection points: 2
#     Edge 29, Type (0, 0), BuildingBlock: EYOCIG_clean_linker_4, # of connection points: 2
#     Edge 30, Type (0, 0), BuildingBlock: EYOCIG_clean_linker_4, # of connection points: 2
#     Edge 31, Type (0, 0), BuildingBlock: EYOCIG_clean_linker_4, # of connection points: 2
# Relax obj value: 0.066
# Max RMSD: 0.108
# Mean RMSD: 0.108
data_MOF--net-vby--node1-UKALOJ_clean_sbu_0--edge1-EYOCIG_clean_linker_4
_symmetry_space_group_name_H-M    P1
_symmetry_Int_Tables_number       1
_symmetry_cell_setting            triclinic
loop_
_symmetry_equiv_pos_as_xyz
'x, y, z'
_cell_length_a     12.131819
_cell_length_b     46.611917
_cell_length_c     33.844803
_cell_angle_alpha  90.012494
_cell_angle_beta   89.995175
_cell_angle_gamma 90.012442
loop_
_atom_site_label
_atom_site_type_symbol
_atom_site_fract_x
_atom_site_fract_y
_atom_site_fract_z
_atom_type_partial_charge
Zn0 Zn 0.07134 0.36623 0.99583 0.0
O1 O 0.24476 0.3712 0.99691 0.0
C2 C 0.11116 0.30555 1.01564 0.0
Zn3 Zn 0.07229 0.35979 0.06133 0.0
C4 C 0.29712 0.36892 0.02924 0.0
O5 O 0.24535 0.36519 0.06142 0.0
C6 C 0.84628 0.35704 0.02786 0.0
O7 O 0.04819 0.40429 0.07124 0.0
O8 O 0.04722 0.41066 1.00684 0.0
N9 N 0.0767 0.35182 0.12082 0.0
C10 C 0.02044 0.36252 0.15192 0.0
C11 C 0.13274 0.33133 0.17446 0.0
N12 N 0.14634 0.33246 0.13498 0.0
N13 N 0.05458 0.35003 0.18563 0.0
C14 C 0.02886 0.36023 0.90514 0.0
C15 C 0.09883 0.39913 0.88336 0.0
N16 N 0.07045 0.37452 0.93646 0.0
N17 N 0.11389 0.39865 0.9228 0.0
N18 N 0.046 0.37526 0.87172 0.0
H19 H 0.03642 0.31453 0.90557 0.0
H20 H 0.91525 0.32873 0.88205 0.0
H21 H 0.92783 0.32916 0.93545 0.0
C22 C 0.9729 0.33162 0.9072 0.0
C23 C 0.93414 0.38545 0.14957 0.0
H24 H -0.02612 0.40661 0.15437 0.0
H25 H 0.87117 0.38239 0.17298 0.0
H26 H 0.89375 0.38566 0.12027 0.0
O27 O 0.89882 0.35423 0.06008 0.0
O28 O 0.8979 0.36134 0.99578 0.0
C29 C 0.03878 0.42075 0.04155 0.0
O30 O 0.09808 0.32183 0.98594 0.0
O31 O 0.09951 0.31546 0.05035 0.0
Zn32 Zn 0.8749 0.62067 0.06126 0.0
O33 O 0.89897 0.57617 0.07118 0.0
C34 C 0.10092 0.6234 0.02779 0.0
Zn35 Zn 0.87589 0.61419 0.99576 0.0
C36 C 0.90844 0.5597 0.04149 0.0
O37 O 0.90005 0.56977 1.00678 0.0
C38 C 0.83605 0.67489 1.01557 0.0
O39 O 0.70247 0.60921 0.99684 0.0
O40 O 0.70183 0.61527 0.06134 0.0
N41 N 0.87684 0.60588 0.9364 0.0
C42 C 0.91826 0.62019 0.90507 0.0
C43 C 0.84875 0.58123 0.8833 0.0
N44 N 0.83369 0.58171 0.92274 0.0
N45 N 0.90129 0.60513 0.87166 0.0
C46 C 0.92664 0.61795 0.15185 0.0
C47 C 0.81441 0.64916 0.17439 0.0
N48 N 0.87044 0.62866 0.12075 0.0
N49 N 0.80085 0.64803 0.13491 0.0
N50 N 0.8925 0.63044 0.18556 0.0
H51 H 0.97301 0.57384 0.15418 0.0
H52 H 0.07571 0.59801 0.17296 0.0
H53 H 0.05345 0.59482 0.12021 0.0
C54 C 0.01287 0.595 0.14948 0.0
C55 C -0.02609 0.64884 0.90713 0.0
H56 H 0.91018 0.66588 0.90564 0.0
H57 H 0.03128 0.65181 0.88192 0.0
H58 H 0.01924 0.6513 0.93533 0.0
O59 O 0.8491 0.65858 0.98587 0.0
O60 O 0.84771 0.66499 0.05028 0.0
C61 C 0.65008 0.61151 0.02916 0.0
O62 O 0.04836 0.62622 0.06001 0.0
O63 O 0.04932 0.61909 0.99571 0.0
Zn64 Zn 0.07215 0.62065 0.49561 0.0
O65 O 0.04806 0.57615 0.48565 0.0
C66 C 0.84614 0.62339 0.52909 0.0
Zn67 Zn 0.07116 0.61417 0.56111 0.0
C68 C 0.03851 0.55969 0.51532 0.0
O69 O 0.04685 0.56976 0.55004 0.0
C70 C 0.11111 0.67486 0.54135 0.0
O71 O 0.24456 0.60917 0.56002 0.0
O72 O 0.24522 0.61527 0.49553 0.0
N73 N 0.07014 0.60584 0.62046 0.0
C74 C 0.02917 0.6202 0.65182 0.0
C75 C 0.09754 0.58109 0.67351 0.0
N76 N 0.11258 0.58157 0.63407 0.0
N77 N 0.04573 0.60509 0.6852 0.0
C78 C 0.0204 0.61795 0.40502 0.0
C79 C 0.1327 0.64916 0.38251 0.0
N80 N 0.07662 0.62865 0.43613 0.0
N81 N 0.14625 0.64802 0.42199 0.0
N82 N 0.05458 0.63044 0.37132 0.0
H83 H -0.02608 0.57384 0.40261 0.0
H84 H 0.87125 0.59803 0.38391 0.0
H85 H 0.89361 0.5948 0.43664 0.0
C86 C 0.93413 0.595 0.40736 0.0
C87 C -0.02571 0.64895 0.64981 0.0
H88 H 0.03854 0.66587 0.65098 0.0
H89 H 0.91765 0.65209 0.67519 0.0
H90 H 0.92829 0.65139 0.62175 0.0
O91 O 0.0981 0.65855 0.57103 0.0
O92 O 0.09936 0.66498 0.50663 0.0
C93 C 0.29695 0.61149 0.52771 0.0
O94 O 0.89869 0.62619 0.49687 0.0
O95 O 0.89774 0.6191 0.56118 0.0
Zn96 Zn 0.87576 0.36626 0.5612 0.0
O97 O 0.70235 0.37124 0.56012 0.0
C98 C 0.83591 0.30555 0.54143 0.0
Zn99 Zn 0.87479 0.35975 0.4957 0.0
C100 C 0.64998 0.36891 0.5278 0.0
O101 O 0.70173 0.36512 0.49562 0.0
C102 C 0.10079 0.35704 0.52917 0.0
O103 O 0.89885 0.40425 0.48575 0.0
O104 O 0.89998 0.41067 0.55014 0.0
N105 N 0.87037 0.35174 0.43621 0.0
C106 C 0.92653 0.36247 0.40511 0.0
C107 C 0.81439 0.33122 0.38258 0.0
N108 N 0.80083 0.33235 0.42206 0.0
N109 N 0.89242 0.34996 0.3714 0.0
C110 C 0.91791 0.36026 0.6519 0.0
C111 C 0.84895 0.39929 0.67364 0.0
N112 N 0.87673 0.37459 0.62056 0.0
N113 N 0.83391 0.39881 0.6342 0.0
N114 N 0.90112 0.37534 0.6853 0.0
H115 H 0.9092 0.31457 0.65118 0.0
H116 H 0.03018 0.32851 0.67515 0.0
H117 H 0.01887 0.32912 0.62173 0.0
C118 C 0.97319 0.33156 0.64985 0.0
C119 C 0.01269 0.38545 0.40747 0.0
H120 H 0.97273 0.4066 0.40287 0.0
H121 H 0.07541 0.38249 0.38394 0.0
H122 H 0.05342 0.38559 0.43671 0.0
O123 O 0.04825 0.35422 0.49695 0.0
O124 O 0.04918 0.36136 0.56126 0.0
C125 C 0.90833 0.42073 0.51542 0.0
O126 O 0.84891 0.32188 0.57111 0.0
O127 O 0.84762 0.31543 0.50672 0.0
Zn128 Zn 0.57134 0.86626 0.99583 0.0
O129 O 0.74475 0.87125 0.9969 0.0
C130 C 0.61119 0.80556 1.01559 0.0
Zn131 Zn 0.57232 0.85978 0.06132 0.0
C132 C 0.79714 0.86894 0.02922 0.0
O133 O 0.7454 0.86517 0.0614 0.0
C134 C 0.3463 0.85704 0.02786 0.0
O135 O 0.54828 0.90428 0.07128 0.0
O136 O 0.54715 0.91068 1.00688 0.0
N137 N 0.57676 0.85178 0.12081 0.0
C138 C 0.52054 0.86249 0.15192 0.0
C139 C 0.63278 0.83127 0.17443 0.0
N140 N 0.64636 0.83241 0.13495 0.0
N141 N 0.55468 0.84999 0.18562 0.0
C142 C 0.52914 0.86025 0.90513 0.0
C143 C 0.59818 0.89927 0.8834 0.0
N144 N 0.57037 0.87458 0.93647 0.0
N145 N 0.61324 0.89879 0.92284 0.0
N146 N 0.54594 0.87532 0.87173 0.0
H147 H 0.53775 0.81456 0.9058 0.0
H148 H 0.41676 0.8285 0.88187 0.0
H149 H 0.42817 0.8291 0.9353 0.0
C150 C 0.4738 0.83155 0.90716 0.0
C151 C 0.4343 0.88543 0.14958 0.0
H152 H 0.47413 0.90659 0.15432 0.0
H153 H 0.37142 0.8824 0.17303 0.0
H154 H 0.39379 0.88563 0.1203 0.0
O155 O 0.39885 0.85423 0.06007 0.0
O156 O 0.39791 0.86134 0.99577 0.0
C157 C 0.5388 0.92075 0.04161 0.0
O158 O 0.59817 0.82187 0.98591 0.0
O159 O 0.59948 0.81545 0.05031 0.0
Zn160 Zn 0.37513 0.12068 0.06142 0.0
O161 O 0.39919 0.07618 0.07136 0.0
C162 C 0.60118 0.12343 0.02796 0.0
Zn163 Zn 0.37616 0.1142 0.99593 0.0
C164 C 0.40872 0.05971 0.04168 0.0
O165 O 0.40039 0.06978 1.00696 0.0
C166 C 0.33624 0.17489 1.01572 0.0
O167 O 0.20276 0.10919 0.997 0.0
O168 O 0.20206 0.11529 0.06149 0.0
N169 N 0.37717 0.10587 0.93657 0.0
C170 C 0.41834 0.12021 0.90524 0.0
C171 C 0.34952 0.08115 0.8835 0.0
N172 N 0.33445 0.08164 0.92294 0.0
N173 N 0.40163 0.10512 0.87184 0.0
C174 C 0.42686 0.11797 0.15201 0.0
C175 C 0.31463 0.14919 0.17454 0.0
N176 N 0.37067 0.12868 0.12091 0.0
N177 N 0.30108 0.14805 0.13506 0.0
N178 N 0.39271 0.13047 0.18572 0.0
H179 H 0.47322 0.07387 0.15435 0.0
H180 H 0.57591 0.09803 0.17313 0.0
H181 H 0.55368 0.09484 0.12039 0.0
C182 C 0.51308 0.09502 0.14966 0.0
C183 C 0.47353 0.14893 0.90728 0.0
H184 H 0.40949 0.16589 0.90598 0.0
H185 H 0.53047 0.152 0.88196 0.0
H186 H 0.51925 0.15138 0.9354 0.0
O187 O 0.34929 0.15858 0.98603 0.0
O188 O 0.34795 0.16501 0.05043 0.0
C189 C 0.15034 0.11151 0.02931 0.0
O190 O 0.5486 0.12623 0.06018 0.0
O191 O 0.54959 0.11912 0.99587 0.0
Zn192 Zn 0.57221 0.12065 0.49578 0.0
O193 O 0.54817 0.07616 0.4858 0.0
C194 C 0.34618 0.12339 0.52925 0.0
Zn195 Zn 0.57118 0.11416 0.56127 0.0
C196 C 0.53858 0.05969 0.51546 0.0
O197 O 0.54685 0.06975 0.55019 0.0
C198 C 0.61113 0.17486 0.54152 0.0
O199 O 0.74457 0.10915 0.5602 0.0
O200 O 0.74529 0.11528 0.49571 0.0
N201 N 0.57012 0.10582 0.62062 0.0
C202 C 0.5293 0.1202 0.65198 0.0
C203 C 0.59729 0.08104 0.67365 0.0
N204 N 0.61233 0.08152 0.63421 0.0
N205 N 0.54571 0.10507 0.68536 0.0
C206 C 0.5205 0.11795 0.40518 0.0
C207 C 0.63281 0.14917 0.38268 0.0
N208 N 0.5767 0.12866 0.4363 0.0
N209 N 0.64634 0.14803 0.42217 0.0
N210 N 0.55469 0.13046 0.37149 0.0
H211 H 0.47403 0.07385 0.40276 0.0
H212 H 0.37136 0.09804 0.38406 0.0
H213 H 0.3937 0.0948 0.43679 0.0
C214 C 0.43423 0.095 0.40751 0.0
C215 C 0.47467 0.14898 0.64998 0.0
H216 H 0.53908 0.16587 0.65105 0.0
H217 H 0.41825 0.15219 0.67541 0.0
H218 H 0.42848 0.15142 0.62196 0.0
O219 O 0.59815 0.15854 0.5712 0.0
O220 O 0.59937 0.16497 0.5068 0.0
C221 C 0.797 0.11148 0.52789 0.0
O222 O 0.39875 0.12618 0.49703 0.0
O223 O 0.39777 0.1191 0.56134 0.0
Zn224 Zn 0.376 0.86623 0.56119 0.0
O225 O 0.2026 0.87122 0.56012 0.0
C226 C 0.33612 0.80554 0.5414 0.0
Zn227 Zn 0.375 0.85974 0.49569 0.0
C228 C 0.15021 0.8689 0.5278 0.0
O229 O 0.20194 0.86512 0.49562 0.0
C230 C 0.60102 0.85702 0.52915 0.0
O231 O 0.39906 0.90424 0.48575 0.0
O232 O 0.40023 0.91065 0.55015 0.0
N233 N 0.37056 0.85174 0.4362 0.0
C234 C 0.42676 0.86246 0.4051 0.0
C235 C 0.31454 0.83123 0.38257 0.0
N236 N 0.30097 0.83236 0.42205 0.0
N237 N 0.39262 0.84996 0.37139 0.0
C238 C 0.41817 0.86023 0.65189 0.0
C239 C 0.34925 0.89927 0.67362 0.0
N240 N 0.37699 0.87456 0.62055 0.0
N241 N 0.3342 0.89878 0.63419 0.0
N242 N 0.40141 0.87532 0.68529 0.0
H243 H 0.40942 0.81454 0.65116 0.0
H244 H 0.5304 0.82847 0.67514 0.0
H245 H 0.51911 0.82908 0.62171 0.0
C246 C 0.47342 0.83153 0.64984 0.0
C247 C 0.51298 0.88542 0.40745 0.0
H248 H 0.47311 0.90657 0.40277 0.0
H249 H 0.57579 0.88242 0.38397 0.0
H250 H 0.55359 0.8856 0.43671 0.0
O251 O 0.54846 0.85421 0.49694 0.0
O252 O 0.54943 0.86133 0.56124 0.0
C253 C 0.40856 0.92071 0.51543 0.0
O254 O 0.34914 0.82185 0.57109 0.0
O255 O 0.34782 0.81542 0.50669 0.0
C256 C 0.51395 0.36475 0.0287 0.0
C257 C 0.41493 0.36667 0.02877 0.0
C258 C 0.62939 0.36111 0.02853 0.0
C259 C 0.72843 0.35923 0.02846 0.0
C260 C 0.31781 0.61933 0.02845 0.0
C261 C 0.21877 0.62122 0.02839 0.0
C262 C 0.43325 0.61569 0.02862 0.0
C263 C 0.53228 0.61376 0.02868 0.0
C264 C 0.62923 0.61932 0.52843 0.0
C265 C 0.72828 0.6212 0.5285 0.0
C266 C 0.51379 0.61567 0.52826 0.0
C267 C 0.41476 0.61375 0.52819 0.0
C268 C 0.43314 0.36474 0.52834 0.0
C269 C 0.53217 0.36666 0.52828 0.0
C270 C 0.31769 0.36111 0.52851 0.0
C271 C 0.21865 0.35922 0.52858 0.0
C272 C 0.01397 0.86476 0.02868 0.0
C273 C 0.91495 0.86668 0.02873 0.0
C274 C 0.12941 0.86112 0.02852 0.0
C275 C 0.22845 0.85923 0.02846 0.0
C276 C 0.93351 0.1157 0.02878 0.0
C277 C 0.03253 0.11377 0.02882 0.0
C278 C 0.81807 0.11935 0.02864 0.0
C279 C 0.71903 0.12124 0.02857 0.0
C280 C 0.12928 0.11931 0.52858 0.0
C281 C 0.22832 0.1212 0.52865 0.0
C282 C 0.01383 0.11567 0.52843 0.0
C283 C 0.91481 0.11374 0.52838 0.0
C284 C 0.81792 0.86109 0.52848 0.0
C285 C 0.71888 0.8592 0.52855 0.0
C286 C 0.93337 0.86472 0.52833 0.0
C287 C 0.03239 0.86665 0.52829 0.0
C288 C 0.95886 0.50488 0.04902 0.0
C289 C 0.9358 0.52999 0.04682 0.0
C290 C -0.01163 0.47557 0.04903 0.0
C291 C 0.01142 0.45045 0.04686 0.0
C292 C 0.95866 0.47555 0.50783 0.0
C293 C 0.93565 0.45043 0.51006 0.0
C294 C -0.01187 0.50486 0.5078 0.0
C295 C 0.01117 0.52998 0.50998 0.0
C296 C 0.4885 0.97557 0.04917 0.0
C297 C 0.5115 0.95046 0.04695 0.0
C298 C 0.45905 0.00489 0.04919 0.0
C299 C 0.43603 0.03001 0.04701 0.0
C300 C 0.48826 0.00486 0.5079 0.0
C301 C 0.51127 0.02998 0.51011 0.0
C302 C 0.45883 0.97554 0.50789 0.0
C303 C 0.43585 0.95042 0.51009 0.0
C304 C 0.19743 0.25376 1.00844 0.0
C305 C 0.15797 0.27748 1.01053 0.0
C306 C 0.24995 0.22667 1.00846 0.0
C307 C 0.28942 0.20296 1.01058 0.0
C308 C 0.69738 0.75377 1.00834 0.0
C309 C 0.65795 0.77749 1.01045 0.0
C310 C 0.74985 0.72668 1.00833 0.0
C311 C 0.78928 0.70296 1.01044 0.0
C312 C 0.19737 0.72665 0.54862 0.0
C313 C 0.15792 0.70293 0.5465 0.0
C314 C 0.24988 0.75374 0.54864 0.0
C315 C 0.28933 0.77746 0.54654 0.0
C316 C 0.74976 0.25376 0.54873 0.0
C317 C 0.78917 0.27748 0.54659 0.0
C318 C 0.69731 0.22666 0.54876 0.0
C319 C 0.65789 0.20293 0.54666 0.0
C320 C -0.01089 0.35655 0.25843 0.0
C321 C 0.01709 0.35417 0.22441 0.0
C322 C 0.95775 0.35654 0.29859 0.0
C323 C 0.92982 0.35413 0.33262 0.0
C324 C 0.95788 0.6239 0.25836 0.0
C325 C 0.92993 0.62629 0.22434 0.0
C326 C -0.01078 0.6239 0.29852 0.0
C327 C 0.01716 0.62629 0.33254 0.0
C328 C 0.95933 0.61449 0.79866 0.0
C329 C 0.93441 0.61123 0.83286 0.0
C330 C -0.01201 0.61449 0.75823 0.0
C331 C 0.0128 0.61121 0.72402 0.0
C332 C 0.95903 0.36596 0.75831 0.0
C333 C 0.93415 0.36923 0.72411 0.0
C334 C -0.01223 0.36594 0.79873 0.0
C335 C 0.01277 0.36918 0.83293 0.0
C336 C 0.4893 0.85652 0.25842 0.0
C337 C 0.51725 0.85413 0.2244 0.0
C338 C 0.45796 0.85651 0.29859 0.0
C339 C 0.43003 0.85411 0.33261 0.0
C340 C 0.45804 0.12392 0.25852 0.0
C341 C 0.43011 0.12632 0.2245 0.0
C342 C 0.48937 0.12392 0.29868 0.0
C343 C 0.51729 0.12631 0.3327 0.0
C344 C 0.45949 0.1145 0.79883 0.0
C345 C 0.43464 0.11123 0.83303 0.0
C346 C 0.48809 0.11449 0.75839 0.0
C347 C 0.51285 0.11121 0.72418 0.0
C348 C 0.45932 0.86594 0.75829 0.0
C349 C 0.43444 0.86921 0.72409 0.0
C350 C 0.488 0.86595 0.79872 0.0
C351 C 0.51289 0.86921 0.83292 0.0
loop_
_geom_bond_atom_site_label_1
_geom_bond_atom_site_label_2
_geom_bond_distance
_geom_bond_site_symmetry_2
_ccdc_geom_bond_type
Zn0 O1 2.055 . S
Zn0 O8 2.046 . S
Zn0 N16 2.036 . S
Zn0 O28 2.053 1_455 S
Zn0 O30 2.066 . S
O1 Zn0 2.055 . S
O1 C4 1.259 1_556 S
C2 O30 1.256 . S
C2 O31 1.244 1_556 S
Zn3 O5 2.046 . S
Zn3 O7 2.055 . S
Zn3 N9 2.036 . S
Zn3 O27 2.066 1_455 S
Zn3 O31 2.053 . S
C4 O1 1.259 1_554 S
C4 O5 1.254 . S
O5 Zn3 2.046 . S
O5 C4 1.254 . S
C6 O27 1.256 . S
C6 O28 1.244 1_554 S
O7 Zn3 2.055 . S
O7 C29 1.259 . S
O8 Zn0 2.046 . S
O8 C29 1.254 1_556 S
N9 Zn3 2.036 . S
N9 C10 1.298 . S
N9 N12 1.398 . S
C10 N9 1.298 . S
C10 N13 1.367 . S
C10 C23 1.481 1_455 S
C11 N12 1.299 . S
C11 N13 1.379 . S
N12 N9 1.398 . S
N12 C11 1.299 . S
N13 C10 1.367 . S
N13 C11 1.379 . S
C14 N16 1.298 . S
C14 N18 1.367 . S
C14 C22 1.481 . S
C15 N17 1.299 . S
C15 N18 1.379 1_655 S
N16 Zn0 2.036 . S
N16 C14 1.298 . S
N16 N17 1.398 1_455 S
N17 C15 1.299 . S
N17 N16 1.398 1_655 S
N18 C14 1.367 . S
N18 C15 1.379 1_455 S
H19 C22 0.980 . S
H20 C22 0.981 . S
H21 C22 0.981 . S
C22 C14 1.481 . S
C22 H19 0.980 . S
C22 H20 0.981 . S
C22 H21 0.981 . S
C23 C10 1.481 1_655 S
C23 H24 0.980 . S
C23 H25 0.981 . S
C23 H26 0.981 . S
H24 C23 0.980 . S
H25 C23 0.981 . S
H26 C23 0.981 . S
O27 Zn3 2.066 1_655 S
O27 C6 1.256 . S
O28 Zn0 2.053 1_655 S
O28 C6 1.244 1_556 S
C29 O7 1.259 . S
C29 O8 1.254 1_554 S
O30 Zn0 2.066 . S
O30 C2 1.256 . S
O31 C2 1.244 1_554 S
O31 Zn3 2.053 . S
Zn32 O33 2.055 . S
Zn32 O40 2.046 . S
Zn32 N48 2.036 . S
Zn32 O60 2.053 . S
Zn32 O62 2.066 1_655 S
O33 Zn32 2.055 . S
O33 C36 1.259 . S
C34 O62 1.256 . S
C34 O63 1.244 1_554 S
Zn35 O37 2.046 . S
Zn35 O39 2.055 . S
Zn35 N41 2.036 . S
Zn35 O59 2.066 . S
Zn35 O63 2.053 1_655 S
C36 O33 1.259 . S
C36 O37 1.254 1_554 S
O37 Zn35 2.046 . S
O37 C36 1.254 1_556 S
C38 O59 1.256 . S
C38 O60 1.244 1_556 S
O39 Zn35 2.055 . S
O39 C61 1.259 1_556 S
O40 Zn32 2.046 . S
O40 C61 1.254 . S
N41 Zn35 2.036 . S
N41 C42 1.298 . S
N41 N44 1.398 1_655 S
C42 N41 1.298 . S
C42 N45 1.367 . S
C42 C55 1.481 . S
C43 N44 1.299 . S
C43 N45 1.379 1_455 S
N44 N41 1.398 1_455 S
N44 C43 1.299 . S
N45 C42 1.367 . S
N45 C43 1.379 1_655 S
C46 N48 1.298 . S
C46 N50 1.367 . S
C46 C54 1.481 1_655 S
C47 N49 1.299 . S
C47 N50 1.379 . S
N48 Zn32 2.036 . S
N48 C46 1.298 . S
N48 N49 1.398 . S
N49 C47 1.299 . S
N49 N48 1.398 . S
N50 C46 1.367 . S
N50 C47 1.379 . S
H51 C54 0.980 . S
H52 C54 0.981 . S
H53 C54 0.981 . S
C54 C46 1.481 1_455 S
C54 H51 0.980 . S
C54 H52 0.981 . S
C54 H53 0.981 . S
C55 C42 1.481 . S
C55 H56 0.980 . S
C55 H57 0.981 . S
C55 H58 0.981 . S
H56 C55 0.980 . S
H57 C55 0.981 . S
H58 C55 0.981 . S
O59 Zn35 2.066 . S
O59 C38 1.256 . S
O60 Zn32 2.053 . S
O60 C38 1.244 1_554 S
C61 O39 1.259 1_554 S
C61 O40 1.254 . S
O62 Zn32 2.066 1_455 S
O62 C34 1.256 . S
O63 C34 1.244 1_556 S
O63 Zn35 2.053 1_455 S
Zn64 O65 2.055 . S
Zn64 O72 2.046 . S
Zn64 N80 2.036 . S
Zn64 O92 2.053 . S
Zn64 O94 2.066 1_455 S
O65 Zn64 2.055 . S
O65 C68 1.259 . S
C66 O94 1.256 . S
C66 O95 1.244 . S
Zn67 O69 2.046 . S
Zn67 O71 2.055 . S
Zn67 N73 2.036 . S
Zn67 O91 2.066 . S
Zn67 O95 2.053 1_455 S
C68 O65 1.259 . S
C68 O69 1.254 . S
O69 Zn67 2.046 . S
O69 C68 1.254 . S
C70 O91 1.256 . S
C70 O92 1.244 . S
O71 Zn67 2.055 . S
O71 C93 1.259 . S
O72 Zn64 2.046 . S
O72 C93 1.254 . S
N73 Zn67 2.036 . S
N73 C74 1.298 . S
N73 N76 1.398 1_455 S
C74 N73 1.298 . S
C74 N77 1.367 . S
C74 C87 1.481 . S
C75 N76 1.299 . S
C75 N77 1.379 1_655 S
N76 N73 1.398 1_655 S
N76 C75 1.299 . S
N77 C74 1.367 . S
N77 C75 1.379 1_455 S
C78 N80 1.298 . S
C78 N82 1.367 . S
C78 C86 1.481 1_455 S
C79 N81 1.299 . S
C79 N82 1.379 . S
N80 Zn64 2.036 . S
N80 C78 1.298 . S
N80 N81 1.398 . S
N81 C79 1.299 . S
N81 N80 1.398 . S
N82 C78 1.367 . S
N82 C79 1.379 . S
H83 C86 0.980 . S
H84 C86 0.981 . S
H85 C86 0.981 . S
C86 C78 1.481 1_655 S
C86 H83 0.980 . S
C86 H84 0.981 . S
C86 H85 0.981 . S
C87 C74 1.481 . S
C87 H88 0.980 . S
C87 H89 0.981 . S
C87 H90 0.981 . S
H88 C87 0.980 . S
H89 C87 0.981 . S
H90 C87 0.981 . S
O91 Zn67 2.066 . S
O91 C70 1.256 . S
O92 Zn64 2.053 . S
O92 C70 1.244 . S
C93 O71 1.259 . S
C93 O72 1.254 . S
O94 Zn64 2.066 1_655 S
O94 C66 1.256 . S
O95 C66 1.244 . S
O95 Zn67 2.053 1_655 S
Zn96 O97 2.055 . S
Zn96 O104 2.046 . S
Zn96 N112 2.036 . S
Zn96 O124 2.053 1_655 S
Zn96 O126 2.066 . S
O97 Zn96 2.055 . S
O97 C100 1.259 . S
C98 O126 1.256 . S
C98 O127 1.244 . S
Zn99 O101 2.046 . S
Zn99 O103 2.055 . S
Zn99 N105 2.036 . S
Zn99 O123 2.066 1_655 S
Zn99 O127 2.053 . S
C100 O97 1.259 . S
C100 O101 1.254 . S
O101 Zn99 2.046 . S
O101 C100 1.254 . S
C102 O123 1.256 . S
C102 O124 1.244 . S
O103 Zn99 2.055 . S
O103 C125 1.259 . S
O104 Zn96 2.046 . S
O104 C125 1.254 . S
N105 Zn99 2.036 . S
N105 C106 1.298 . S
N105 N108 1.398 . S
C106 N105 1.298 . S
C106 N109 1.367 . S
C106 C119 1.481 1_655 S
C107 N108 1.299 . S
C107 N109 1.379 . S
N108 N105 1.398 . S
N108 C107 1.299 . S
N109 C106 1.367 . S
N109 C107 1.379 . S
C110 N112 1.298 . S
C110 N114 1.367 . S
C110 C118 1.481 . S
C111 N113 1.299 . S
C111 N114 1.379 1_455 S
N112 Zn96 2.036 . S
N112 C110 1.298 . S
N112 N113 1.398 1_655 S
N113 C111 1.299 . S
N113 N112 1.398 1_455 S
N114 C110 1.367 . S
N114 C111 1.379 1_655 S
H115 C118 0.980 . S
H116 C118 0.981 . S
H117 C118 0.981 . S
C118 C110 1.481 . S
C118 H115 0.980 . S
C118 H116 0.981 . S
C118 H117 0.981 . S
C119 C106 1.481 1_455 S
C119 H120 0.980 . S
C119 H121 0.981 . S
C119 H122 0.981 . S
H120 C119 0.980 . S
H121 C119 0.981 . S
H122 C119 0.981 . S
O123 Zn99 2.066 1_455 S
O123 C102 1.256 . S
O124 Zn96 2.053 1_455 S
O124 C102 1.244 . S
C125 O103 1.259 . S
C125 O104 1.254 . S
O126 Zn96 2.066 . S
O126 C98 1.256 . S
O127 C98 1.244 . S
O127 Zn99 2.053 . S
Zn128 O129 2.055 . S
Zn128 O136 2.046 . S
Zn128 N144 2.036 . S
Zn128 O156 2.053 . S
Zn128 O158 2.066 . S
O129 Zn128 2.055 . S
O129 C132 1.259 1_556 S
C130 O158 1.256 . S
C130 O159 1.244 1_556 S
Zn131 O133 2.046 . S
Zn131 O135 2.055 . S
Zn131 N137 2.036 . S
Zn131 O155 2.066 . S
Zn131 O159 2.053 . S
C132 O129 1.259 1_554 S
C132 O133 1.254 . S
O133 Zn131 2.046 . S
O133 C132 1.254 . S
C134 O155 1.256 . S
C134 O156 1.244 1_554 S
O135 Zn131 2.055 . S
O135 C157 1.259 . S
O136 Zn128 2.046 . S
O136 C157 1.254 1_556 S
N137 Zn131 2.036 . S
N137 C138 1.298 . S
N137 N140 1.398 . S
C138 N137 1.298 . S
C138 N141 1.367 . S
C138 C151 1.481 . S
C139 N140 1.299 . S
C139 N141 1.379 . S
N140 N137 1.398 . S
N140 C139 1.299 . S
N141 C138 1.367 . S
N141 C139 1.379 . S
C142 N144 1.298 . S
C142 N146 1.367 . S
C142 C150 1.481 . S
C143 N145 1.299 . S
C143 N146 1.379 . S
N144 Zn128 2.036 . S
N144 C142 1.298 . S
N144 N145 1.398 . S
N145 C143 1.299 . S
N145 N144 1.398 . S
N146 C142 1.367 . S
N146 C143 1.379 . S
H147 C150 0.980 . S
H148 C150 0.981 . S
H149 C150 0.981 . S
C150 C142 1.481 . S
C150 H147 0.980 . S
C150 H148 0.981 . S
C150 H149 0.981 . S
C151 C138 1.481 . S
C151 H152 0.980 . S
C151 H153 0.981 . S
C151 H154 0.981 . S
H152 C151 0.980 . S
H153 C151 0.981 . S
H154 C151 0.981 . S
O155 Zn131 2.066 . S
O155 C134 1.256 . S
O156 Zn128 2.053 . S
O156 C134 1.244 1_556 S
C157 O135 1.259 . S
C157 O136 1.254 1_554 S
O158 Zn128 2.066 . S
O158 C130 1.256 . S
O159 C130 1.244 1_554 S
O159 Zn131 2.053 . S
Zn160 O161 2.055 . S
Zn160 O168 2.046 . S
Zn160 N176 2.036 . S
Zn160 O188 2.053 . S
Zn160 O190 2.066 . S
O161 Zn160 2.055 . S
O161 C164 1.259 . S
C162 O190 1.256 . S
C162 O191 1.244 1_554 S
Zn163 O165 2.046 . S
Zn163 O167 2.055 . S
Zn163 N169 2.036 . S
Zn163 O187 2.066 . S
Zn163 O191 2.053 . S
C164 O161 1.259 . S
C164 O165 1.254 1_554 S
O165 Zn163 2.046 . S
O165 C164 1.254 1_556 S
C166 O187 1.256 . S
C166 O188 1.244 1_556 S
O167 Zn163 2.055 . S
O167 C189 1.259 1_556 S
O168 Zn160 2.046 . S
O168 C189 1.254 . S
N169 Zn163 2.036 . S
N169 C170 1.298 . S
N169 N172 1.398 . S
C170 N169 1.298 . S
C170 N173 1.367 . S
C170 C183 1.481 . S
C171 N172 1.299 . S
C171 N173 1.379 . S
N172 N169 1.398 . S
N172 C171 1.299 . S
N173 C170 1.367 . S
N173 C171 1.379 . S
C174 N176 1.298 . S
C174 N178 1.367 . S
C174 C182 1.481 . S
C175 N177 1.299 . S
C175 N178 1.379 . S
N176 Zn160 2.036 . S
N176 C174 1.298 . S
N176 N177 1.398 . S
N177 C175 1.299 . S
N177 N176 1.398 . S
N178 C174 1.367 . S
N178 C175 1.379 . S
H179 C182 0.980 . S
H180 C182 0.981 . S
H181 C182 0.981 . S
C182 C174 1.481 . S
C182 H179 0.980 . S
C182 H180 0.981 . S
C182 H181 0.981 . S
C183 C170 1.481 . S
C183 H184 0.980 . S
C183 H185 0.981 . S
C183 H186 0.981 . S
H184 C183 0.980 . S
H185 C183 0.981 . S
H186 C183 0.981 . S
O187 Zn163 2.066 . S
O187 C166 1.256 . S
O188 Zn160 2.053 . S
O188 C166 1.244 1_554 S
C189 O167 1.259 1_554 S
C189 O168 1.254 . S
O190 Zn160 2.066 . S
O190 C162 1.256 . S
O191 C162 1.244 1_556 S
O191 Zn163 2.053 . S
Zn192 O193 2.055 . S
Zn192 O200 2.046 . S
Zn192 N208 2.036 . S
Zn192 O220 2.053 . S
Zn192 O222 2.066 . S
O193 Zn192 2.055 . S
O193 C196 1.259 . S
C194 O222 1.256 . S
C194 O223 1.244 . S
Zn195 O197 2.046 . S
Zn195 O199 2.055 . S
Zn195 N201 2.036 . S
Zn195 O219 2.066 . S
Zn195 O223 2.053 . S
C196 O193 1.259 . S
C196 O197 1.254 . S
O197 Zn195 2.046 . S
O197 C196 1.254 . S
C198 O219 1.256 . S
C198 O220 1.244 . S
O199 Zn195 2.055 . S
O199 C221 1.259 . S
O200 Zn192 2.046 . S
O200 C221 1.254 . S
N201 Zn195 2.036 . S
N201 C202 1.298 . S
N201 N204 1.398 . S
C202 N201 1.298 . S
C202 N205 1.367 . S
C202 C215 1.481 . S
C203 N204 1.299 . S
C203 N205 1.379 . S
N204 N201 1.398 . S
N204 C203 1.299 . S
N205 C202 1.367 . S
N205 C203 1.379 . S
C206 N208 1.298 . S
C206 N210 1.367 . S
C206 C214 1.481 . S
C207 N209 1.299 . S
C207 N210 1.379 . S
N208 Zn192 2.036 . S
N208 C206 1.298 . S
N208 N209 1.398 . S
N209 C207 1.299 . S
N209 N208 1.398 . S
N210 C206 1.367 . S
N210 C207 1.379 . S
H211 C214 0.980 . S
H212 C214 0.981 . S
H213 C214 0.981 . S
C214 C206 1.481 . S
C214 H211 0.980 . S
C214 H212 0.981 . S
C214 H213 0.981 . S
C215 C202 1.481 . S
C215 H216 0.980 . S
C215 H217 0.981 . S
C215 H218 0.981 . S
H216 C215 0.980 . S
H217 C215 0.981 . S
H218 C215 0.981 . S
O219 Zn195 2.066 . S
O219 C198 1.256 . S
O220 Zn192 2.053 . S
O220 C198 1.244 . S
C221 O199 1.259 . S
C221 O200 1.254 . S
O222 Zn192 2.066 . S
O222 C194 1.256 . S
O223 C194 1.244 . S
O223 Zn195 2.053 . S
Zn224 O225 2.055 . S
Zn224 O232 2.046 . S
Zn224 N240 2.036 . S
Zn224 O252 2.053 . S
Zn224 O254 2.066 . S
O225 Zn224 2.055 . S
O225 C228 1.259 . S
C226 O254 1.256 . S
C226 O255 1.244 . S
Zn227 O229 2.046 . S
Zn227 O231 2.055 . S
Zn227 N233 2.036 . S
Zn227 O251 2.066 . S
Zn227 O255 2.053 . S
C228 O225 1.259 . S
C228 O229 1.254 . S
O229 Zn227 2.046 . S
O229 C228 1.254 . S
C230 O251 1.256 . S
C230 O252 1.244 . S
O231 Zn227 2.055 . S
O231 C253 1.259 . S
O232 Zn224 2.046 . S
O232 C253 1.254 . S
N233 Zn227 2.036 . S
N233 C234 1.298 . S
N233 N236 1.398 . S
C234 N233 1.298 . S
C234 N237 1.367 . S
C234 C247 1.481 . S
C235 N236 1.299 . S
C235 N237 1.379 . S
N236 N233 1.398 . S
N236 C235 1.299 . S
N237 C234 1.367 . S
N237 C235 1.379 . S
C238 N240 1.298 . S
C238 N242 1.367 . S
C238 C246 1.481 . S
C239 N241 1.299 . S
C239 N242 1.379 . S
N240 Zn224 2.036 . S
N240 C238 1.298 . S
N240 N241 1.398 . S
N241 C239 1.299 . S
N241 N240 1.398 . S
N242 C238 1.367 . S
N242 C239 1.379 . S
H243 C246 0.980 . S
H244 C246 0.981 . S
H245 C246 0.981 . S
C246 C238 1.481 . S
C246 H243 0.980 . S
C246 H244 0.981 . S
C246 H245 0.981 . S
C247 C234 1.481 . S
C247 H248 0.980 . S
C247 H249 0.981 . S
C247 H250 0.981 . S
H248 C247 0.980 . S
H249 C247 0.981 . S
H250 C247 0.981 . S
O251 Zn227 2.066 . S
O251 C230 1.256 . S
O252 Zn224 2.053 . S
O252 C230 1.244 . S
C253 O231 1.259 . S
C253 O232 1.254 . S
O254 Zn224 2.066 . S
O254 C226 1.256 . S
O255 C226 1.244 . S
O255 Zn227 2.053 . S
C256 C257 1.170 . S
C256 C258 1.380 . S
C257 C256 1.170 . S
C258 C256 1.380 . S
C258 C259 1.170 . S
C259 C258 1.170 . S
C260 C261 1.170 . S
C260 C262 1.380 . S
C261 C260 1.170 . S
C262 C260 1.380 . S
C262 C263 1.170 . S
C263 C262 1.170 . S
C264 C265 1.170 . S
C264 C266 1.380 . S
C265 C264 1.170 . S
C266 C264 1.380 . S
C266 C267 1.170 . S
C267 C266 1.170 . S
C268 C269 1.170 . S
C268 C270 1.380 . S
C269 C268 1.170 . S
C270 C268 1.380 . S
C270 C271 1.170 . S
C271 C270 1.170 . S
C272 C273 1.170 1_455 S
C272 C274 1.380 . S
C273 C272 1.170 1_655 S
C274 C272 1.380 . S
C274 C275 1.170 . S
C275 C274 1.170 . S
C276 C277 1.170 1_655 S
C276 C278 1.380 . S
C277 C276 1.170 1_455 S
C278 C276 1.380 . S
C278 C279 1.170 . S
C279 C278 1.170 . S
C280 C281 1.170 . S
C280 C282 1.380 . S
C281 C280 1.170 . S
C282 C280 1.380 . S
C282 C283 1.170 1_455 S
C283 C282 1.170 1_655 S
C284 C285 1.170 . S
C284 C286 1.380 . S
C285 C284 1.170 . S
C286 C284 1.380 . S
C286 C287 1.170 1_655 S
C287 C286 1.170 1_455 S
C288 C289 1.170 . S
C288 C290 1.380 1_655 S
C289 C288 1.170 . S
C290 C288 1.380 1_455 S
C290 C291 1.170 . S
C291 C290 1.170 . S
C292 C293 1.170 . S
C292 C294 1.380 . S
C293 C292 1.170 . S
C294 C292 1.380 . S
C294 C295 1.170 1_655 S
C295 C294 1.170 1_455 S
C296 C297 1.170 . S
C296 C298 1.380 1_565 S
C297 C296 1.170 . S
C298 C296 1.380 1_545 S
C298 C299 1.170 . S
C299 C298 1.170 . S
C300 C301 1.170 . S
C300 C302 1.380 1_545 S
C301 C300 1.170 . S
C302 C300 1.380 1_565 S
C302 C303 1.170 . S
C303 C302 1.170 . S
C304 C305 1.170 . S
C304 C306 1.380 . S
C305 C304 1.170 . S
C306 C304 1.380 . S
C306 C307 1.170 . S
C307 C306 1.170 . S
C308 C309 1.170 . S
C308 C310 1.380 . S
C309 C308 1.170 . S
C310 C308 1.380 . S
C310 C311 1.170 . S
C311 C310 1.170 . S
C312 C313 1.170 . S
C312 C314 1.380 . S
C313 C312 1.170 . S
C314 C312 1.380 . S
C314 C315 1.170 . S
C315 C314 1.170 . S
C316 C317 1.170 . S
C316 C318 1.380 . S
C317 C316 1.170 . S
C318 C316 1.380 . S
C318 C319 1.170 . S
C319 C318 1.170 . S
C320 C321 1.170 . S
C320 C322 1.380 . S
C321 C320 1.170 . S
C322 C320 1.380 . S
C322 C323 1.170 . S
C323 C322 1.170 . S
C324 C325 1.170 . S
C324 C326 1.380 . S
C325 C324 1.170 . S
C326 C324 1.380 . S
C326 C327 1.170 . S
C327 C326 1.170 . S
C328 C329 1.170 . S
C328 C330 1.380 1_655 S
C329 C328 1.170 . S
C330 C328 1.380 1_455 S
C330 C331 1.170 . S
C331 C330 1.170 . S
C332 C333 1.170 . S
C332 C334 1.380 1_655 S
C333 C332 1.170 . S
C334 C332 1.380 1_455 S
C334 C335 1.170 . S
C335 C334 1.170 . S
C336 C337 1.170 . S
C336 C338 1.380 . S
C337 C336 1.170 . S
C338 C336 1.380 . S
C338 C339 1.170 . S
C339 C338 1.170 . S
C340 C341 1.170 . S
C340 C342 1.380 . S
C341 C340 1.170 . S
C342 C340 1.380 . S
C342 C343 1.170 . S
C343 C342 1.170 . S
C344 C345 1.170 . S
C344 C346 1.380 . S
C345 C344 1.170 . S
C346 C344 1.380 . S
C346 C347 1.170 . S
C347 C346 1.170 . S
C348 C349 1.170 . S
C348 C350 1.380 . S
C349 C348 1.170 . S
C350 C348 1.380 . S
C350 C351 1.170 . S
C351 C350 1.170 . S
C257 C4 1.356 . S
C259 C6 1.350 . S
C261 C34 1.351 . S
C263 C61 1.357 . S
C265 C66 1.352 . S
C267 C93 1.346 . S
C269 C100 1.346 . S
C271 C102 1.355 . S
C273 C132 1.357 . S
C275 C134 1.352 . S
C277 C189 1.348 . S
C279 C162 1.350 . S
C281 C194 1.348 . S
C283 C221 1.351 . S
C285 C230 1.354 . S
C287 C228 1.356 . S
C289 C36 1.513 . S
C291 C29 1.518 . S
C293 C125 1.504 . S
C295 C68 1.523 . S
C297 C157 1.508 . S
C299 C164 1.522 . S
C301 C196 1.521 . S
C303 C253 1.506 . S
C305 C2 1.591 . S
C307 C166 1.599 . S
C309 C130 1.597 . S
C311 C38 1.585 . S
C313 C70 1.591 . S
C315 C226 1.599 . S
C317 C98 1.594 . S
C319 C198 1.596 . S
C321 N13 1.460 1_655 S
C323 N109 1.442 . S
C325 N50 1.460 1_455 S
C327 N82 1.442 . S
C329 N45 1.519 . S
C331 N77 1.566 . S
C333 N114 1.571 . S
C335 N18 1.525 . S
C337 N141 1.477 . S
C339 N237 1.450 . S
C341 N178 1.481 . S
C343 N210 1.457 . S
C345 N173 1.519 . S
C347 N205 1.566 . S
C349 N242 1.532 . S
C351 N146 1.545 . S
