# Generated by pormake.
# Topology smm, (6)-cn, num edge types: 1
# Building blocks:
#     Node 0, Type 0, BuildingBlock: CIFDUS_clean_sbu_1, # of connection points: 6
#     Node 1, Type 0, BuildingBlock: CIFDUS_clean_sbu_1, # of connection points: 6
#     Node 2, Type 0, BuildingBlock: CIFDUS_clean_sbu_1, # of connection points: 6
#     Node 3, Type 0, BuildingBlock: CIFDUS_clean_sbu_1, # of connection points: 6
#     Node 4, Type 0, BuildingBlock: CIFDUS_clean_sbu_1, # of connection points: 6
#     Node 5, Type 0, BuildingBlock: CIFDUS_clean_sbu_1, # of connection points: 6
#     Node 6, Type 0, BuildingBlock: CIFDUS_clean_sbu_1, # of connection points: 6
#     Node 7, Type 0, BuildingBlock: CIFDUS_clean_sbu_1, # of connection points: 6
#     Node 8, Type 0, BuildingBlock: CIFDUS_clean_sbu_1, # of connection points: 6
#     Edge 9, Type (0, 0), BuildingBlock: EZIPEK_clean_linker_0, # of connection points: 2
#     Edge 10, Type (0, 0), BuildingBlock: EZIPEK_clean_linker_0, # of connection points: 2
#     Edge 11, Type (0, 0), BuildingBlock: EZIPEK_clean_linker_0, # of connection points: 2
#     Edge 12, Type (0, 0), BuildingBlock: EZIPEK_clean_linker_0, # of connection points: 2
#     Edge 13, Type (0, 0), BuildingBlock: EZIPEK_clean_linker_0, # of connection points: 2
#     Edge 14, Type (0, 0), BuildingBlock: EZIPEK_clean_linker_0, # of connection points: 2
#     Edge 15, Type (0, 0), BuildingBlock: EZIPEK_clean_linker_0, # of connection points: 2
#     Edge 16, Type (0, 0), BuildingBlock: EZIPEK_clean_linker_0, # of connection points: 2
#     Edge 17, Type (0, 0), BuildingBlock: EZIPEK_clean_linker_0, # of connection points: 2
#     Edge 18, Type (0, 0), BuildingBlock: EZIPEK_clean_linker_0, # of connection points: 2
#     Edge 19, Type (0, 0), BuildingBlock: EZIPEK_clean_linker_0, # of connection points: 2
#     Edge 20, Type (0, 0), BuildingBlock: EZIPEK_clean_linker_0, # of connection points: 2
#     Edge 21, Type (0, 0), BuildingBlock: EZIPEK_clean_linker_0, # of connection points: 2
#     Edge 22, Type (0, 0), BuildingBlock: EZIPEK_clean_linker_0, # of connection points: 2
#     Edge 23, Type (0, 0), BuildingBlock: EZIPEK_clean_linker_0, # of connection points: 2
#     Edge 24, Type (0, 0), BuildingBlock: EZIPEK_clean_linker_0, # of connection points: 2
#     Edge 25, Type (0, 0), BuildingBlock: EZIPEK_clean_linker_0, # of connection points: 2
#     Edge 26, Type (0, 0), BuildingBlock: EZIPEK_clean_linker_0, # of connection points: 2
#     Edge 27, Type (0, 0), BuildingBlock: EZIPEK_clean_linker_0, # of connection points: 2
#     Edge 28, Type (0, 0), BuildingBlock: EZIPEK_clean_linker_0, # of connection points: 2
#     Edge 29, Type (0, 0), BuildingBlock: EZIPEK_clean_linker_0, # of connection points: 2
#     Edge 30, Type (0, 0), BuildingBlock: EZIPEK_clean_linker_0, # of connection points: 2
#     Edge 31, Type (0, 0), BuildingBlock: EZIPEK_clean_linker_0, # of connection points: 2
#     Edge 32, Type (0, 0), BuildingBlock: EZIPEK_clean_linker_0, # of connection points: 2
#     Edge 33, Type (0, 0), BuildingBlock: EZIPEK_clean_linker_0, # of connection points: 2
#     Edge 34, Type (0, 0), BuildingBlock: EZIPEK_clean_linker_0, # of connection points: 2
#     Edge 35, Type (0, 0), BuildingBlock: EZIPEK_clean_linker_0, # of connection points: 2
# Relax obj value: 0.218
# Max RMSD: 0.240
# Mean RMSD: 0.217
data_MOF--net-smm--node1-CIFDUS_clean_sbu_1--edge1-EZIPEK_clean_linker_0
_symmetry_space_group_name_H-M    P1
_symmetry_Int_Tables_number       1
_symmetry_cell_setting            triclinic
loop_
_symmetry_equiv_pos_as_xyz
'x, y, z'
_cell_length_a     38.422072
_cell_length_b     38.259629
_cell_length_c     11.526774
_cell_angle_alpha  93.709736
_cell_angle_beta   93.956085
_cell_angle_gamma 120.36705
loop_
_atom_site_label
_atom_site_type_symbol
_atom_site_fract_x
_atom_site_fract_y
_atom_site_fract_z
_atom_type_partial_charge
O0 O 0.03846 0.21921 0.24743 0.0
Mn1 Mn 0.01544 0.20054 0.06908 0.0
O2 O -0.00492 0.16036 0.28639 0.0
Mn3 Mn 0.9599 0.1643 0.17633 0.0
O4 O 0.0011 0.18976 0.88701 0.0
O5 O 0.06447 0.19513 0.04187 0.0
Mn6 Mn 0.09704 0.23947 0.98228 0.0
O7 O 0.04345 0.26318 0.03837 0.0
O8 O 0.06544 0.23018 0.84044 0.0
O9 O 0.98619 0.13428 0.07741 0.0
O10 O 0.92327 0.11651 0.09195 0.0
O11 O 0.12535 0.21336 -0.00394 0.0
O12 O 0.10683 0.28354 0.08256 0.0
C13 C 0.94589 0.20882 0.196 0.0
C14 C 0.02563 0.19392 0.32168 0.0
C15 C 0.02696 0.20729 0.81265 0.0
C16 C 0.09113 0.18457 0.02354 0.0
C17 C 0.08076 0.29202 0.04663 0.0
C18 C 0.94846 0.10579 0.07514 0.0
O19 O 0.9644 0.20711 0.10388 0.0
O20 O 0.94025 0.18432 0.27336 0.0
O21 O 0.84465 0.82634 0.92531 0.0
Mn22 Mn 0.83817 0.83979 0.1005 0.0
O23 O 0.85276 0.88392 0.88416 0.0
Mn24 Mn 0.81527 0.87797 0.98342 0.0
O25 O 0.8296 0.8506 0.2765 0.0
O26 O 0.89528 0.84691 0.14818 0.0
Mn27 Mn 0.88345 0.81403 0.25684 0.0
O28 O 0.80423 0.77635 0.12391 0.0
O29 O 0.86895 0.83312 0.38012 0.0
O30 O 0.87516 0.90558 0.10238 0.0
O31 O 0.83081 0.92466 0.07418 0.0
O32 O 0.93592 0.83328 0.26474 0.0
O33 O 0.8491 0.7608 0.19726 0.0
C34 C 0.75713 0.83161 0.94632 0.0
C35 C 0.85387 0.85274 0.85314 0.0
C36 C 0.84387 0.84508 0.37379 0.0
C37 C 0.93131 0.85137 0.17845 0.0
C38 C 0.81286 0.75068 0.16564 0.0
C39 C 0.86664 0.93419 0.10596 0.0
O40 O 0.7793 0.83137 0.04081 0.0
O41 O 0.77337 0.86069 0.881 0.0
O42 O 0.15318 0.99633 0.13816 0.0
Mn43 Mn 0.15752 0.00297 0.9619 0.0
O44 O 0.19208 0.06048 0.23014 0.0
Mn45 Mn 0.20553 0.08619 0.09979 0.0
O46 O 0.16264 0.01207 0.78688 0.0
O47 O 0.1024 0.95116 0.92596 0.0
Mn48 Mn 0.10149 0.9277 0.78999 0.0
O49 O 0.18672 0.96913 0.94284 0.0
O50 O 0.10458 0.96231 0.68673 0.0
O51 O 0.12527 0.03404 0.96925 0.0
O52 O 0.16929 0.0991 0.03568 0.0
O53 O 0.05259 0.89254 0.83397 0.0
O54 O 0.14457 0.91928 0.79926 0.0
C55 C 0.25146 0.08476 0.02351 0.0
C56 C 0.1685 0.02243 0.23021 0.0
C57 C 0.13774 0.99566 0.6933 0.0
C58 C 0.06586 0.92014 0.92348 0.0
C59 C 0.17805 0.93879 0.86638 0.0
C60 C 0.13404 0.07094 -0.00611 0.0
O61 O 0.2139 0.05432 0.0031 0.0
O62 O 0.25832 0.11734 0.08745 0.0
O63 O 0.64289 0.50629 0.11792 0.0
Mn64 Mn 0.65615 0.50845 0.29586 0.0
O65 O 0.70442 0.52836 0.05456 0.0
Mn66 Mn 0.73707 0.54969 0.197 0.0
O67 O 0.66795 0.50935 0.47458 0.0
O68 O 0.60456 0.45485 0.29417 0.0
Mn69 Mn 0.57195 0.45863 0.38377 0.0
O70 O 0.62914 0.54333 0.34636 0.0
O71 O 0.60397 0.47399 0.52704 0.0
O72 O 0.68252 0.47231 0.26322 0.0
O73 O 0.74891 0.51511 0.26749 0.0
O74 O 0.54606 0.40447 0.32332 0.0
O75 O 0.56334 0.49823 0.32745 0.0
C76 C 0.73687 0.59998 0.28047 0.0
C77 C 0.66599 0.51319 0.03652 0.0
C78 C 0.64262 0.4942 0.55053 0.0
C79 C 0.5797 0.416 0.2789 0.0
C80 C 0.59242 0.53419 0.35943 0.0
C81 C 0.7192 0.47984 0.27266 0.0
O82 O 0.70844 0.56231 0.28518 0.0
O83 O 0.76833 0.60452 0.23314 0.0
O84 O 0.50022 0.14538 0.07139 0.0
Mn85 Mn 0.49626 0.16188 0.24559 0.0
O86 O 0.51389 0.2044 0.03329 0.0
Mn87 Mn 0.47499 0.19909 0.12814 0.0
O88 O 0.49328 0.17384 0.42459 0.0
O89 O 0.54947 0.16518 0.2897 0.0
Mn90 Mn 0.54454 0.13008 0.38599 0.0
O91 O 0.46173 0.09899 0.27194 0.0
O92 O 0.52743 0.14636 0.51283 0.0
O93 O 0.53416 0.22849 0.24164 0.0
O94 O 0.48836 0.24586 0.2145 0.0
O95 O 0.59878 0.15812 0.3645 0.0
O96 O 0.50648 0.07948 0.31208 0.0
C97 C 0.41669 0.15301 0.09179 0.0
C98 C 0.51255 0.17225 0.00129 0.0
C99 C 0.50693 0.16421 0.51578 0.0
C100 C 0.58794 0.17845 0.30098 0.0
C101 C 0.46995 0.07125 0.29585 0.0
C102 C 0.52487 0.25677 0.23993 0.0
O103 O 0.43805 0.15457 0.19035 0.0
O104 O 0.43391 0.1799 0.02091 0.0
O105 O 0.8437 0.35999 0.12279 0.0
Mn106 Mn 0.83594 0.35055 0.296 0.0
O107 O 0.80457 0.29641 0.02651 0.0
Mn108 Mn 0.79337 0.2671 0.15373 0.0
O109 O 0.82809 0.34152 0.46774 0.0
O110 O 0.83699 0.40346 0.32527 0.0
Mn111 Mn 0.87728 0.43655 0.4301 0.0
O112 O 0.89998 0.37854 0.35407 0.0
O113 O 0.8634 0.40642 0.5578 0.0
O114 O 0.77175 0.32313 0.25272 0.0
O115 O 0.74737 0.25647 0.21617 0.0
O116 O 0.85069 0.46371 0.39498 0.0
O117 O 0.92365 0.44492 0.36966 0.0
C118 C 0.84267 0.26817 0.24505 0.0
C119 C 0.82741 0.33494 0.02868 0.0
C120 C 0.84252 0.36781 0.55902 0.0
C121 C 0.82488 0.42936 0.33354 0.0
C122 C 0.92976 0.41578 0.3807 0.0
C123 C 0.74176 0.28596 0.23645 0.0
O124 O 0.83515 0.29756 0.25955 0.0
O125 O 0.81566 0.23598 0.17684 0.0
O126 O 0.36491 0.87722 0.83305 0.0
Mn127 Mn 0.34722 0.85956 0.65392 0.0
O128 O 0.31091 0.82219 0.86796 0.0
Mn129 Mn 0.2828 0.82214 0.73089 0.0
O130 O 0.33486 0.84579 0.47256 0.0
O131 O 0.39692 0.85479 0.64623 0.0
Mn132 Mn 0.43063 0.89094 0.56366 0.0
O133 O 0.37754 0.92135 0.61293 0.0
O134 O 0.39903 0.87562 0.41959 0.0
O135 O 0.31908 0.79464 0.67509 0.0
O136 O 0.25574 0.7747 0.63295 0.0
O137 O 0.45484 0.8622 0.60833 0.0
O138 O 0.44209 0.94038 0.63802 0.0
C139 C 0.2678 0.86482 0.7346 0.0
C140 C 0.34477 0.85267 0.90446 0.0
C141 C 0.3604 0.85727 0.39572 0.0
C142 C 0.42152 0.84116 0.65412 0.0
C143 C 0.41502 0.94817 0.60516 0.0
C144 C 0.28203 0.76506 0.64937 0.0
O145 O 0.29599 0.86844 0.66671 0.0
O146 O 0.24986 0.83375 0.7922 0.0
O147 O 0.17132 0.49762 0.52972 0.0
Mn148 Mn 0.16819 0.50494 0.70712 0.0
O149 O 0.15246 0.54137 0.46708 0.0
Mn150 Mn 0.12991 0.54828 0.59733 0.0
O151 O 0.16523 0.5146 0.88335 0.0
O152 O 0.22141 0.50614 0.74709 0.0
Mn153 Mn 0.21092 0.46728 0.83594 0.0
O154 O 0.13069 0.44141 0.72 0.0
O155 O 0.19525 0.48306 0.96768 0.0
O156 O 0.20642 0.56872 0.70651 0.0
O157 O 0.16478 0.59259 0.703 0.0
O158 O 0.26484 0.49019 0.8232 0.0
O159 O 0.17283 0.41864 0.75279 0.0
C160 C 0.07762 0.49442 0.6305 0.0
C161 C 0.16631 0.5175 0.45061 0.0
C162 C 0.17756 0.50368 0.97249 0.0
C163 C 0.25895 0.51484 0.76431 0.0
C164 C 0.13695 0.4119 0.73508 0.0
C165 C 0.20034 0.59862 0.72161 0.0
O166 O 0.11466 0.5027 0.66017 0.0
O167 O 0.07492 0.52384 0.58961 0.0
O168 O 0.50208 0.66397 0.87994 0.0
Mn169 Mn 0.50131 0.67324 0.70639 0.0
O170 O 0.50862 0.7218 0.95396 0.0
Mn171 Mn 0.53451 0.74991 0.8334 0.0
O172 O 0.49892 0.67842 0.52756 0.0
O173 O 0.44869 0.61854 0.67729 0.0
Mn174 Mn 0.4538 0.58675 0.57283 0.0
O175 O 0.53835 0.64782 0.67651 0.0
O176 O 0.46044 0.61303 0.44137 0.0
O177 O 0.46296 0.69918 0.72483 0.0
O178 O 0.50515 0.76597 0.74797 0.0
O179 O 0.40229 0.55564 0.61008 0.0
O180 O 0.49704 0.58113 0.62161 0.0
C181 C 0.58774 0.75215 0.82137 0.0
C182 C 0.50132 0.68632 0.96496 0.0
C183 C 0.48148 0.65138 0.43725 0.0
C184 C 0.41105 0.58927 0.67147 0.0
C185 C 0.53256 0.61226 0.644 0.0
C186 C 0.46945 0.73587 0.72541 0.0
O187 O 0.55661 0.72912 0.73981 0.0
O188 O 0.58567 0.77902 0.89112 0.0
C189 C 0.07459 0.34758 0.95285 0.0
C190 C 0.0918 0.32215 0.95638 0.0
C191 C 0.11357 0.34071 0.76218 0.0
C192 C 0.10508 0.37224 0.77191 0.0
N193 N 0.06028 0.39252 0.84315 0.0
N194 N 0.13936 0.3058 0.86961 0.0
C195 C 0.08016 0.37173 0.85747 0.0
C196 C 0.11414 0.32125 0.86204 0.0
N197 N 0.05582 0.35102 0.04538 0.0
N198 N 0.12397 0.33164 0.65857 0.0
H199 H 0.15722 0.30708 0.80408 0.0
H200 H 0.14821 0.29781 0.94543 0.0
H201 H 0.12454 0.34702 0.58633 0.0
H202 H 0.12723 0.30639 0.64174 0.0
H203 H 0.04382 0.36993 0.05209 0.0
H204 H 0.05458 0.33668 0.12026 0.0
H205 H 0.03891 0.39137 0.89593 0.0
H206 H 0.06213 0.40754 0.76943 0.0
C207 C 0.69248 0.82645 0.87208 0.0
C208 C 0.71169 0.80635 0.9209 0.0
C209 C 0.64655 0.74171 0.87054 0.0
C210 C 0.63014 0.76255 0.81113 0.0
N211 N 0.64376 0.82191 0.71919 0.0
N212 N 0.70743 0.74236 0.94825 0.0
C213 C 0.6561 0.8037 0.7964 0.0
C214 C 0.68892 0.76305 0.91472 0.0
N215 N 0.70782 0.8671 0.90318 0.0
N216 N 0.62144 0.70208 0.8873 0.0
H217 H 0.73796 0.75721 0.98173 0.0
H218 H 0.693 0.71068 0.93567 0.0
H219 H 0.59126 0.68599 0.8499 0.0
H220 H 0.63015 0.6862 0.9407 0.0
H221 H 0.69319 0.88225 0.87471 0.0
H222 H 0.73216 0.8841 0.96862 0.0
H223 H 0.66263 0.85193 0.70228 0.0
H224 H 0.61617 0.80534 0.66512 0.0
C225 C 0.24768 0.94998 0.82393 0.0
C226 C 0.20663 0.92402 0.84611 0.0
C227 C 0.20599 0.86736 0.73648 0.0
C228 C 0.24858 0.89014 0.73609 0.0
N229 N 0.31141 0.95361 0.7932 0.0
N230 N 0.15326 0.85478 0.85745 0.0
C231 C 0.27007 0.93183 0.78345 0.0
C232 C 0.18803 0.88159 0.81368 0.0
N233 N 0.26474 0.99127 0.83575 0.0
N234 N 0.18326 0.83067 0.66908 0.0
H235 H 0.1405 0.86433 0.92014 0.0
H236 H 0.14021 0.82325 0.84121 0.0
H237 H 0.19617 0.81971 0.61085 0.0
H238 H 0.15164 0.81371 0.6637 0.0
H239 H 0.29323 0.0109 0.81062 0.0
H240 H 0.2491 0.00555 0.86119 0.0
H241 H 0.32869 0.98295 0.83754 0.0
H242 H 0.3281 0.94113 0.76214 0.0
C243 C 0.35212 0.14551 0.0015 0.0
C244 C 0.37151 0.12823 0.06643 0.0
C245 C 0.30469 0.06671 0.06199 0.0
C246 C 0.28741 0.08425 0.99025 0.0
N247 N 0.29841 0.1314 0.85093 0.0
N248 N 0.36606 0.06602 0.12301 0.0
C249 C 0.31331 0.11951 0.94102 0.0
C250 C 0.34788 0.08662 0.08574 0.0
N251 N 0.36848 0.18677 0.00746 0.0
N252 N 0.2801 0.0328 0.1128 0.0
H253 H 0.3975 0.07933 0.13456 0.0
H254 H 0.34981 0.03483 0.13032 0.0
H255 H 0.24854 0.01784 0.09577 0.0
H256 H 0.29121 0.02115 0.17503 0.0
H257 H 0.3536 0.19984 0.96589 0.0
H258 H 0.39352 0.2073 0.06706 0.0
H259 H 0.31687 0.15737 0.8113 0.0
H260 H 0.26851 0.11291 0.81127 0.0
C261 C 0.9109 0.28738 0.19343 0.0
C262 C 0.88205 0.27161 0.27499 0.0
C263 C 0.8902 0.21377 0.27939 0.0
C264 C 0.9228 0.23055 0.20846 0.0
N265 N 0.96807 0.28868 0.11301 0.0
N266 N 0.85731 0.22924 0.42822 0.0
C267 C 0.93476 0.26926 0.17047 0.0
C268 C 0.87827 0.23929 0.33333 0.0
N269 N 0.91314 0.31748 0.13175 0.0
N270 N 0.86739 0.17269 0.2845 0.0
H271 H 0.84645 0.24721 0.46396 0.0
H272 H 0.85435 0.20564 0.47519 0.0
H273 H 0.86994 0.15162 0.22901 0.0
H274 H 0.84214 0.15963 0.33058 0.0
H275 H 0.92935 0.32664 0.05985 0.0
H276 H 0.89722 0.33204 0.15167 0.0
H277 H 0.97908 0.31822 0.0918 0.0
H278 H 0.98604 0.27646 0.09395 0.0
C279 C 0.74813 0.68126 0.13024 0.0
C280 C 0.78085 0.71248 0.2086 0.0
C281 C 0.75758 0.66742 0.36629 0.0
C282 C 0.73092 0.63512 0.28278 0.0
N283 N 0.68591 0.61524 0.1079 0.0
N284 N 0.81616 0.73464 0.40748 0.0
C285 C 0.72109 0.64374 0.17241 0.0
C286 C 0.78482 0.70576 0.32941 0.0
N287 N 0.74531 0.68553 0.01384 0.0
N288 N 0.75743 0.66024 0.48068 0.0
H289 H 0.83557 0.76387 0.38928 0.0
H290 H 0.82396 0.7293 0.48995 0.0
H291 H 0.73762 0.63134 0.50443 0.0
H292 H 0.77352 0.68286 0.55075 0.0
H293 H 0.72466 0.66184 0.95087 0.0
H294 H 0.76566 0.71183 0.97887 0.0
H295 H 0.67432 0.62129 0.03253 0.0
H296 H 0.66666 0.58791 0.14055 0.0
C297 C 0.03253 0.42911 0.50344 0.0
C298 C 0.04028 0.45322 0.61082 0.0
C299 C 0.97325 0.44447 0.58124 0.0
C300 C 0.96657 0.42509 0.46355 0.0
N301 N 0.99027 0.39699 0.31666 0.0
N302 N 0.01072 0.46166 0.77567 0.0
C303 C -0.00421 0.4155 0.42719 0.0
C304 C 0.00731 0.45184 0.65803 0.0
N305 N 0.06002 0.41834 0.47764 0.0
N306 N 0.95022 0.45993 0.61815 0.0
H307 H 0.03707 0.46897 0.82959 0.0
H308 H 0.98645 0.45823 0.81914 0.0
H309 H 0.9293 0.46248 0.56403 0.0
H310 H 0.95611 0.47618 0.70023 0.0
H311 H 0.05456 0.39635 0.40946 0.0
H312 H 0.08657 0.4287 0.53397 0.0
H313 H 0.01191 0.39241 0.28036 0.0
H314 H 0.96463 0.38835 0.25817 0.0
C315 C 0.56212 0.56884 0.63858 0.0
C316 C 0.56626 0.60575 0.61188 0.0
C317 C 0.6004 0.60238 0.44063 0.0
C318 C 0.58537 0.5601 0.44967 0.0
N319 N 0.54674 0.50253 0.56246 0.0
N320 N 0.59891 0.66377 0.50537 0.0
C321 C 0.56536 0.54323 0.55086 0.0
C322 C 0.58928 0.62487 0.51975 0.0
N323 N 0.55217 0.55721 0.74674 0.0
N324 N 0.624 0.6206 0.35455 0.0
H325 H 0.59427 0.68157 0.56747 0.0
H326 H 0.61116 0.67837 0.43282 0.0
H327 H 0.62996 0.6046 0.29016 0.0
H328 H 0.63909 0.65182 0.34896 0.0
H329 H 0.55157 0.53187 0.77715 0.0
H330 H 0.54905 0.57598 0.81003 0.0
H331 H 0.52841 0.48941 0.62807 0.0
H332 H 0.54475 0.48024 0.50258 0.0
C333 C 0.41493 0.03063 0.42566 0.0
C334 C 0.43942 0.03174 0.33763 0.0
C335 C 0.44522 0.97679 0.41532 0.0
C336 C 0.42417 0.97776 0.51357 0.0
N337 N 0.38985 0.00724 0.61092 0.0
N338 N 0.45682 0.99191 0.21526 0.0
C339 C 0.40837 0.00453 0.51656 0.0
C340 C 0.44699 0.99971 0.32154 0.0
N341 N 0.39608 0.05261 0.41799 0.0
N342 N 0.46646 0.95694 0.41209 0.0
H343 H 0.4584 0.00907 0.1467 0.0
H344 H 0.45836 0.966 0.19165 0.0
H345 H 0.47023 0.94136 0.47688 0.0
H346 H 0.4853 0.95994 0.34788 0.0
H347 H 0.37413 0.05008 0.47046 0.0
H348 H 0.39885 0.0699 0.34934 0.0
H349 H 0.37979 0.02766 0.62369 0.0
H350 H 0.3872 0.99096 0.68212 0.0
C351 C 0.07907 0.08165 0.05705 0.0
C352 C 0.10377 0.08315 0.96929 0.0
C353 C 0.0937 0.13437 0.88483 0.0
C354 C 0.08115 0.14201 -0.00832 0.0
N355 N 0.05602 0.11948 0.17389 0.0
N356 N 0.13398 0.11033 0.7959 0.0
C357 C 0.07071 0.11376 0.07477 0.0
C358 C 0.10965 0.10829 0.87944 0.0
N359 N 0.06541 0.0507 0.12568 0.0
N360 N 0.09259 0.15405 0.79143 0.0
H361 H 0.14665 0.09182 0.79078 0.0
H362 H 0.14363 0.13203 0.73692 0.0
H363 H 0.0818 0.17413 0.79515 0.0
H364 H 0.09855 0.14745 0.70858 0.0
H365 H 0.04482 0.04598 0.1857 0.0
H366 H 0.07238 0.02776 0.11442 0.0
H367 H 0.05114 0.10199 0.24316 0.0
H368 H 0.05036 0.14322 0.18787 0.0
C369 C 0.92387 0.99524 0.02938 0.0
C370 C 0.89799 0.97846 0.11852 0.0
C371 C 0.91568 0.04721 0.19665 0.0
C372 C 0.93624 0.06321 0.09687 0.0
N373 N 0.95951 0.05261 0.9171 0.0
N374 N 0.86696 0.98822 0.28228 0.0
C375 C 0.94085 0.03736 0.01389 0.0
C376 C 0.89387 0.00453 0.20176 0.0
N377 N 0.93162 0.97079 0.95805 0.0
N378 N 0.91706 0.07264 0.28813 0.0
H379 H 0.85207 0.95736 0.2939 0.0
H380 H 0.85735 0.0047 0.33241 0.0
H381 H 0.9301 0.10384 0.28824 0.0
H382 H 0.90785 0.06311 0.36896 0.0
H383 H 0.9514 0.98112 0.89459 0.0
H384 H 0.92146 0.94064 0.97006 0.0
H385 H 0.95952 0.03484 0.84493 0.0
H386 H 0.9733 0.08339 0.90544 0.0
C387 C 0.98347 0.91388 0.09408 0.0
C388 C 0.96673 0.87254 0.11406 0.0
C389 C 0.02872 0.87561 0.06469 0.0
C390 C 0.0404 0.91244 0.01781 0.0
N391 N 0.0252 0.96413 0.97075 0.0
N392 N 0.97093 0.8113 0.09242 0.0
C393 C 0.01706 0.93134 0.02849 0.0
C394 C 0.98877 0.85259 0.09252 0.0
N395 N 0.96914 0.93691 0.14201 0.0
N396 N 0.05516 0.86179 0.07646 0.0
H397 H 0.94025 0.79244 0.10174 0.0
H398 H 0.98531 0.79542 0.06898 0.0
H399 H 0.08489 0.8787 0.05558 0.0
H400 H 0.0488 0.83611 0.11792 0.0
H401 H 0.98335 0.96826 0.13771 0.0
H402 H 0.94599 0.92543 0.19589 0.0
H403 H 0.00684 0.97687 0.96948 0.0
H404 H 0.04923 0.97717 0.92019 0.0
C405 C 0.73403 0.42765 0.19076 0.0
C406 C 0.72864 0.44759 0.2899 0.0
C407 C 0.76669 0.42661 0.41457 0.0
C408 C 0.7822 0.41876 0.31483 0.0
N409 N 0.77779 0.40663 0.10635 0.0
N410 N 0.7413 0.46751 0.49815 0.0
C411 C 0.76402 0.41634 0.20188 0.0
C412 C 0.74416 0.44625 0.40318 0.0
N413 N 0.71183 0.42145 0.08629 0.0
N414 N 0.77627 0.41797 0.52083 0.0
H415 H 0.7264 0.48387 0.49162 0.0
H416 H 0.75619 0.47133 0.58116 0.0
H417 H 0.79353 0.40408 0.52945 0.0
H418 H 0.76369 0.42062 0.59581 0.0
H419 H 0.71235 0.40488 0.01177 0.0
H420 H 0.68999 0.42987 0.07931 0.0
H421 H 0.76884 0.40851 0.02075 0.0
H422 H 0.79951 0.39795 0.1146 0.0
C423 C 0.60355 0.36884 0.32013 0.0
C424 C 0.58894 0.38484 0.23536 0.0
C425 C 0.54904 0.31751 0.12527 0.0
C426 C 0.55499 0.3001 0.22603 0.0
N427 N 0.59164 0.3095 0.41413 0.0
N428 N 0.55596 0.37801 0.04585 0.0
C429 C 0.58461 0.32589 0.32015 0.0
C430 C 0.5656 0.36033 0.13191 0.0
N431 N 0.63414 0.3951 0.40373 0.0
N432 N 0.5263 0.29316 0.02518 0.0
H433 H 0.56895 0.40963 0.05093 0.0
H434 H 0.53493 0.36209 0.97241 0.0
H435 H 0.50997 0.2617 0.01926 0.0
H436 H 0.52487 0.30399 0.94556 0.0
H437 H 0.64939 0.38629 0.46208 0.0
H438 H 0.64628 0.4264 0.40592 0.0
H439 H 0.60951 0.32656 0.49168 0.0
H440 H 0.57779 0.27816 0.4157 0.0
C441 C 0.63311 0.21375 0.15192 0.0
C442 C 0.61917 0.21638 0.26056 0.0
C443 C 0.68195 0.28188 0.32302 0.0
C444 C 0.69849 0.27485 0.2251 0.0
N445 N 0.68626 0.24541 0.02573 0.0
N446 N 0.62897 0.25247 0.45023 0.0
C447 C 0.67236 0.24478 0.13179 0.0
C448 C 0.64262 0.25116 0.34469 0.0
N449 N 0.61064 0.17951 0.07376 0.0
N450 N 0.70407 0.31747 0.39515 0.0
H451 H 0.60017 0.2304 0.46781 0.0
H452 H 0.64643 0.27425 0.52115 0.0
H453 H 0.73275 0.33992 0.37846 0.0
H454 H 0.69269 0.3263 0.46327 0.0
H455 H 0.62124 0.17305 -0.00056 0.0
H456 H 0.58127 0.15681 0.08528 0.0
H457 H 0.66814 0.22656 0.95056 0.0
H458 H 0.71552 0.26757 0.01187 0.0
C459 C 0.44082 0.77336 0.82632 0.0
C460 C 0.43657 0.7455 0.73103 0.0
C461 C 0.39976 0.76842 0.60771 0.0
C462 C 0.41216 0.80192 0.69438 0.0
N463 N 0.44088 0.83522 0.88912 0.0
N464 N 0.39765 0.70474 0.55242 0.0
C465 C 0.43014 0.80311 0.80651 0.0
C466 C 0.41071 0.73879 0.6289 0.0
N467 N 0.45626 0.77172 0.93447 0.0
N468 N 0.38157 0.76775 0.50106 0.0
H469 H 0.4054 0.68298 0.57007 0.0
H470 H 0.37661 0.6963 0.47884 0.0
H471 H 0.37286 0.78896 0.48552 0.0
H472 H 0.37587 0.74714 0.42857 0.0
H473 H 0.45776 0.78896 0.01034 0.0
H474 H 0.46413 0.74994 0.94874 0.0
H475 H 0.4588 0.8412 0.9681 0.0
H476 H 0.43217 0.85665 0.87648 0.0
C477 C 0.2289 0.66993 0.81089 0.0
C478 C 0.23429 0.64215 0.73906 0.0
C479 C 0.27617 0.69615 0.62131 0.0
C480 C 0.26828 0.72361 0.68607 0.0
N481 N 0.24098 0.73784 0.85537 0.0
N482 N 0.27929 0.6346 0.61919 0.0
C483 C 0.24632 0.71105 0.7859 0.0
C484 C 0.26322 0.65708 0.6581 0.0
N485 N 0.20489 0.65581 0.89906 0.0
N486 N 0.29309 0.70593 0.51935 0.0
H487 H 0.27226 0.60736 0.65164 0.0
H488 H 0.303 0.6454 0.56719 0.0
H489 H 0.30085 0.73339 0.48646 0.0
H490 H 0.29567 0.68527 0.46242 0.0
H491 H 0.1944 0.67201 0.94629 0.0
H492 H 0.19474 0.62666 0.92358 0.0
H493 H 0.23213 0.73315 0.93897 0.0
H494 H 0.24534 0.76513 0.83047 0.0
C495 C 0.36707 0.59132 0.81848 0.0
C496 C 0.37692 0.59404 0.70252 0.0
C497 C 0.3051 0.55952 0.62592 0.0
C498 C 0.29511 0.55309 0.74129 0.0
N499 N 0.31495 0.5767 0.94663 0.0
N500 N 0.35763 0.59681 0.50224 0.0
C501 C 0.32578 0.57474 0.83728 0.0
C502 C 0.3465 0.58453 0.60891 0.0
N503 N 0.3962 0.60031 0.90869 0.0
N504 N 0.27585 0.53898 0.53314 0.0
H505 H 0.38816 0.61418 0.4889 0.0
H506 H 0.33698 0.59315 0.43217 0.0
H507 H 0.24539 0.52043 0.54421 0.0
H508 H 0.28209 0.53893 0.44662 0.0
H509 H 0.38998 0.5945 -0.00578 0.0
H510 H 0.42645 0.61181 0.89543 0.0
H511 H 0.33588 0.59417 0.01932 0.0
H512 H 0.28452 0.56362 0.96084 0.0
C513 C 0.01956 0.23316 0.6265 0.0
C514 C 0.01499 0.19987 0.68517 0.0
C515 C 0.03284 0.17368 0.51539 0.0
C516 C 0.03387 0.20447 0.45105 0.0
N517 N 0.02553 0.2631 0.44457 0.0
N518 N 0.00633 0.13313 0.675 0.0
C519 C 0.02669 0.23435 0.50642 0.0
C520 C 0.01772 0.16823 0.62535 0.0
N521 N 0.01814 0.26415 0.68757 0.0
N522 N 0.04715 0.15004 0.47115 0.0
H523 H 0.99493 0.12874 0.75573 0.0
H524 H 0.00465 0.10747 0.63162 0.0
H525 H 0.0609 0.15563 0.39422 0.0
H526 H 0.04974 0.12869 0.51687 0.0
H527 H 0.02585 0.29173 0.6559 0.0
H528 H 0.01045 0.26251 0.77303 0.0
H529 H 0.01467 0.28161 0.47486 0.0
H530 H 0.03469 0.2683 0.36156 0.0
C531 C 0.82006 0.81112 0.65707 0.0
C532 C 0.85381 0.84554 0.72446 0.0
C533 C 0.86367 0.88563 0.55898 0.0
C534 C 0.83247 0.85107 0.48897 0.0
N535 N 0.77531 0.78331 0.47197 0.0
N536 N 0.91489 0.91039 0.72595 0.0
C537 C 0.80841 0.81466 0.53964 0.0
C538 C 0.87778 0.88125 0.67052 0.0
N539 N 0.80084 0.77484 0.70298 0.0
N540 N 0.88102 0.92221 0.51483 0.0
H541 H 0.92685 0.90591 0.8039 0.0
H542 H 0.93513 0.93616 0.68881 0.0
H543 H 0.8709 0.92477 0.43113 0.0
H544 H 0.90216 0.94972 0.56419 0.0
H545 H 0.77652 0.74808 0.65888 0.0
H546 H 0.81181 0.77038 0.78236 0.0
H547 H 0.75498 0.75573 0.50071 0.0
H548 H 0.76737 0.78631 0.3862 0.0
C549 C 0.17222 0.99236 0.5266 0.0
C550 C 0.15086 0.00877 0.58191 0.0
C551 C 0.13677 0.02984 0.4002 0.0
C552 C 0.15532 0.01048 0.34293 0.0
N553 N 0.18376 0.96698 0.34422 0.0
N554 N 0.10706 0.03678 0.57163 0.0
C555 C 0.17061 0.9894 0.40368 0.0
C556 C 0.13153 0.02582 0.51889 0.0
N557 N 0.19434 0.98015 0.59196 0.0
N558 N 0.1253 0.05305 0.3417 0.0
H559 H 0.103 0.03463 0.65995 0.0
H560 H 0.08858 0.04527 0.52655 0.0
H561 H 0.12703 0.05545 0.25269 0.0
H562 H 0.11664 0.07206 0.3826 0.0
H563 H 0.21293 0.97065 0.55743 0.0
H564 H 0.19751 0.98365 0.6829 0.0
H565 H 0.19139 0.94756 0.38313 0.0
H566 H 0.18357 0.96486 0.25354 0.0
C567 C 0.65202 0.53361 0.73671 0.0
C568 C 0.6566 0.5032 0.67551 0.0
C569 C 0.65134 0.47026 0.85286 0.0
C570 C 0.64857 0.50161 0.91394 0.0
N571 N 0.62919 0.55168 0.90878 0.0
N572 N 0.66598 0.44575 0.67524 0.0
C573 C 0.64409 0.53024 0.85449 0.0
C574 C 0.65768 0.47225 0.73374 0.0
N575 N 0.65535 0.56554 0.68154 0.0
N576 N 0.64592 0.43788 0.90909 0.0
H577 H 0.67275 0.44872 0.58975 0.0
H578 H 0.67007 0.42397 0.7134 0.0
H579 H 0.63847 0.43553 -0.00523 0.0
H580 H 0.64472 0.41206 0.86903 0.0
H581 H 0.65525 0.59035 0.72396 0.0
H582 H 0.66198 0.56881 0.59519 0.0
H583 H 0.62328 0.57208 0.86897 0.0
H584 H 0.61862 0.54528 0.99026 0.0
C585 C 0.53693 0.20428 0.70581 0.0
C586 C 0.50141 0.17442 0.63554 0.0
C587 C 0.47606 0.1366 0.80358 0.0
C588 C 0.51301 0.16538 0.87381 0.0
N589 N 0.58013 0.2252 0.88996 0.0
N590 N 0.43226 0.12146 0.62175 0.0
C591 C 0.544 0.19873 0.82363 0.0
C592 C 0.46942 0.14331 0.68616 0.0
N593 N 0.56297 0.23864 0.65878 0.0
N594 N 0.44777 0.10256 0.84767 0.0
H595 H 0.42754 0.12776 0.53719 0.0
H596 H 0.40587 0.10117 0.65575 0.0
H597 H 0.45232 0.09513 0.93029 0.0
H598 H 0.42147 0.07935 0.79828 0.0
H599 H 0.58873 0.26367 0.70483 0.0
H600 H 0.55588 0.24321 0.57427 0.0
H601 H 0.60547 0.24782 0.85709 0.0
H602 H 0.58556 0.22297 0.97807 0.0
C603 C 0.87149 0.36212 0.74798 0.0
C604 C 0.83661 0.354 0.67459 0.0
C605 C 0.7976 0.34105 0.84052 0.0
C606 C 0.83294 0.3501 0.9143 0.0
N607 N 0.90542 0.37892 0.94527 0.0
N608 N 0.76524 0.33027 0.64235 0.0
C609 C 0.87057 0.36358 0.87026 0.0
C610 C 0.79915 0.34185 0.71832 0.0
N611 N 0.90477 0.36658 0.69932 0.0
N612 N 0.76325 0.33319 0.88924 0.0
H613 H 0.76577 0.32962 0.55208 0.0
H614 H 0.73614 0.31869 0.66631 0.0
H615 H 0.7623 0.33438 0.97954 0.0
H616 H 0.73673 0.32841 0.84295 0.0
H617 H 0.93004 0.36897 0.74703 0.0
H618 H 0.90522 0.36361 0.60886 0.0
H619 H 0.9343 0.39229 0.91833 0.0
H620 H 0.90595 0.38252 0.03575 0.0
C621 C 0.34547 0.8203 0.20039 0.0
C622 C 0.34674 0.85246 0.27074 0.0
C623 C 0.35377 0.88981 0.10022 0.0
C624 C 0.3561 0.85894 0.03177 0.0
N625 N 0.35916 0.7974 0.01797 0.0
N626 N 0.35028 0.91703 0.29301 0.0
C627 C 0.35378 0.82512 0.08298 0.0
C628 C 0.35019 0.88698 0.22182 0.0
N629 N 0.33485 0.78462 0.24592 0.0
N630 N 0.35316 0.92062 0.04794 0.0
H631 H 0.34436 0.9138 0.3799 0.0
H632 H 0.35664 0.94509 0.26784 0.0
H633 H 0.35771 0.92478 0.96069 0.0
H634 H 0.34714 0.94165 0.08921 0.0
H635 H 0.33024 0.7584 0.19751 0.0
H636 H 0.32619 0.78015 0.33002 0.0
H637 H 0.36203 0.77442 0.05285 0.0
H638 H 0.36386 0.79932 0.93003 0.0
C639 C 0.1388 0.48326 0.13734 0.0
C640 C 0.17127 0.51438 0.08918 0.0
C641 C 0.20509 0.54732 0.28475 0.0
C642 C 0.17489 0.51258 0.33111 0.0
N643 N 0.12062 0.44264 0.29749 0.0
N644 N 0.23518 0.57745 0.11162 0.0
C645 C 0.14395 0.47903 0.25619 0.0
C646 C 0.20447 0.54713 0.16154 0.0
N647 N 0.1029 0.45827 0.06945 0.0
N648 N 0.23381 0.58022 0.35902 0.0
H649 H 0.23324 0.57908 0.02149 0.0
H650 H 0.26242 0.60024 0.15819 0.0
H651 H 0.23594 0.57942 0.44923 0.0
H652 H 0.2545 0.60809 0.3323 0.0
H653 H 0.07671 0.43824 0.10503 0.0
H654 H 0.09859 0.4623 0.98202 0.0
H655 H 0.09899 0.4165 0.24337 0.0
H656 H 0.1272 0.43777 0.38203 0.0
C657 C 0.5113 0.64962 0.25505 0.0
C658 C 0.48939 0.66328 0.31982 0.0
C659 C 0.46667 0.68035 0.1421 0.0
C660 C 0.49344 0.67263 0.08126 0.0
N661 N 0.54675 0.65624 0.08642 0.0
N662 N 0.45077 0.6969 0.32977 0.0
C663 C 0.51714 0.65873 0.13897 0.0
C664 C 0.4687 0.68061 0.265 0.0
N665 N 0.52595 0.6272 0.30336 0.0
N666 N 0.43809 0.68556 0.08145 0.0
H667 H 0.45167 0.69725 0.42041 0.0
H668 H 0.43843 0.7133 0.29508 0.0
H669 H 0.43398 0.6826 0.99015 0.0
H670 H 0.41561 0.688 0.12033 0.0
H671 H 0.53727 0.61204 0.25475 0.0
H672 H 0.52409 0.62111 0.39008 0.0
H673 H 0.56808 0.65123 0.13105 0.0
H674 H 0.55247 0.66248 0.00127 0.0
loop_
_geom_bond_atom_site_label_1
_geom_bond_atom_site_label_2
_geom_bond_distance
_geom_bond_site_symmetry_2
_ccdc_geom_bond_type
O0 Mn1 2.163 . S
O0 C14 1.244 . S
Mn1 O0 2.163 . S
Mn1 O4 2.160 1_454 S
Mn1 O5 2.221 . S
Mn1 O7 2.163 . S
Mn1 O9 2.160 1_455 S
Mn1 O19 2.221 1_455 S
O2 Mn3 2.087 . S
O2 C14 1.256 1_655 S
Mn3 O2 2.087 . S
Mn3 O10 2.089 . S
Mn3 O19 2.290 . S
Mn3 O20 2.251 . S
O4 Mn1 2.160 1_656 S
O4 C15 1.239 1_655 S
O5 Mn1 2.221 . S
O5 Mn6 2.290 1_554 S
O5 C16 1.278 . S
Mn6 O5 2.290 1_556 S
Mn6 O8 2.089 . S
Mn6 O11 2.251 1_556 S
Mn6 O12 2.087 . S
O7 Mn1 2.163 . S
O7 C17 1.244 . S
O8 Mn6 2.089 . S
O8 C15 1.256 . S
O9 Mn1 2.160 1_655 S
O9 C18 1.239 . S
O10 Mn3 2.089 . S
O10 C18 1.256 . S
O11 Mn6 2.251 1_554 S
O11 C16 1.241 . S
O12 Mn6 2.087 . S
O12 C17 1.256 1_556 S
C13 O19 1.278 . S
C13 O20 1.241 . S
C14 O0 1.244 . S
C14 O2 1.256 1_455 S
C15 O4 1.239 1_455 S
C15 O8 1.256 . S
C16 O5 1.278 . S
C16 O11 1.241 . S
C17 O7 1.244 . S
C17 O12 1.256 1_554 S
C18 O9 1.239 . S
C18 O10 1.256 . S
O19 Mn1 2.221 1_655 S
O19 Mn3 2.290 . S
O19 C13 1.278 . S
O20 Mn3 2.251 . S
O20 C13 1.241 . S
O21 Mn22 2.163 1_556 S
O21 C35 1.244 . S
Mn22 O21 2.163 1_554 S
Mn22 O25 2.160 . S
Mn22 O26 2.221 . S
Mn22 O28 2.163 . S
Mn22 O30 2.160 . S
Mn22 O40 2.221 . S
O23 Mn24 2.087 . S
O23 C35 1.256 . S
Mn24 O23 2.087 . S
Mn24 O31 2.089 . S
Mn24 O40 2.290 1_556 S
Mn24 O41 2.251 . S
O25 Mn22 2.160 . S
O25 C36 1.239 . S
O26 Mn22 2.221 . S
O26 Mn27 2.290 . S
O26 C37 1.278 . S
Mn27 O26 2.290 . S
Mn27 O29 2.089 . S
Mn27 O32 2.251 . S
Mn27 O33 2.087 . S
O28 Mn22 2.163 . S
O28 C38 1.244 . S
O29 Mn27 2.089 . S
O29 C36 1.256 . S
O30 Mn22 2.160 . S
O30 C39 1.239 . S
O31 Mn24 2.089 . S
O31 C39 1.256 1_556 S
O32 Mn27 2.251 . S
O32 C37 1.241 . S
O33 Mn27 2.087 . S
O33 C38 1.256 . S
C34 O40 1.278 . S
C34 O41 1.241 1_554 S
C35 O21 1.244 . S
C35 O23 1.256 . S
C36 O25 1.239 . S
C36 O29 1.256 . S
C37 O26 1.278 . S
C37 O32 1.241 . S
C38 O28 1.244 . S
C38 O33 1.256 . S
C39 O30 1.239 . S
C39 O31 1.256 1_554 S
O40 Mn22 2.221 . S
O40 Mn24 2.290 1_554 S
O40 C34 1.278 . S
O41 Mn24 2.251 . S
O41 C34 1.241 1_556 S
O42 Mn43 2.161 1_564 S
O42 C56 1.242 1_565 S
Mn43 O42 2.161 1_546 S
Mn43 O46 2.160 . S
Mn43 O47 2.221 1_545 S
Mn43 O49 2.163 1_545 S
Mn43 O51 2.159 1_556 S
Mn43 O61 2.221 1_556 S
O44 Mn45 2.087 . S
O44 C56 1.256 . S
Mn45 O44 2.087 . S
Mn45 O52 2.089 . S
Mn45 O61 2.290 . S
Mn45 O62 2.251 . S
O46 Mn43 2.160 . S
O46 C57 1.239 . S
O47 Mn43 2.221 1_565 S
O47 Mn48 2.290 . S
O47 C58 1.278 . S
Mn48 O47 2.290 . S
Mn48 O50 2.089 . S
Mn48 O53 2.251 . S
Mn48 O54 2.087 . S
O49 Mn43 2.163 1_565 S
O49 C59 1.244 . S
O50 Mn48 2.089 . S
O50 C57 1.256 1_565 S
O51 Mn43 2.159 1_554 S
O51 C60 1.245 . S
O52 Mn45 2.089 . S
O52 C60 1.256 . S
O53 Mn48 2.251 . S
O53 C58 1.241 . S
O54 Mn48 2.087 . S
O54 C59 1.256 . S
C55 O61 1.278 . S
C55 O62 1.241 . S
C56 O42 1.242 1_545 S
C56 O44 1.256 . S
C57 O46 1.239 . S
C57 O50 1.256 1_545 S
C58 O47 1.278 . S
C58 O53 1.241 . S
C59 O49 1.244 . S
C59 O54 1.256 . S
C60 O51 1.245 . S
C60 O52 1.256 . S
O61 Mn43 2.221 1_554 S
O61 Mn45 2.290 . S
O61 C55 1.278 . S
O62 Mn45 2.251 . S
O62 C55 1.241 . S
O63 Mn64 2.163 . S
O63 C77 1.244 . S
Mn64 O63 2.163 . S
Mn64 O67 2.160 . S
Mn64 O68 2.221 . S
Mn64 O70 2.163 . S
Mn64 O72 2.160 . S
Mn64 O82 2.221 . S
O65 Mn66 2.087 . S
O65 C77 1.256 . S
Mn66 O65 2.087 . S
Mn66 O73 2.089 . S
Mn66 O82 2.290 . S
Mn66 O83 2.251 . S
O67 Mn64 2.160 . S
O67 C78 1.239 . S
O68 Mn64 2.221 . S
O68 Mn69 2.290 . S
O68 C79 1.278 . S
Mn69 O68 2.290 . S
Mn69 O71 2.089 . S
Mn69 O74 2.251 . S
Mn69 O75 2.087 . S
O70 Mn64 2.163 . S
O70 C80 1.244 . S
O71 Mn69 2.089 . S
O71 C78 1.256 . S
O72 Mn64 2.160 . S
O72 C81 1.239 . S
O73 Mn66 2.089 . S
O73 C81 1.256 . S
O74 Mn69 2.251 . S
O74 C79 1.241 . S
O75 Mn69 2.087 . S
O75 C80 1.256 . S
C76 O82 1.278 . S
C76 O83 1.241 . S
C77 O63 1.244 . S
C77 O65 1.256 . S
C78 O67 1.239 . S
C78 O71 1.256 . S
C79 O68 1.278 . S
C79 O74 1.241 . S
C80 O70 1.244 . S
C80 O75 1.256 . S
C81 O72 1.239 . S
C81 O73 1.256 . S
O82 Mn64 2.221 . S
O82 Mn66 2.290 . S
O82 C76 1.278 . S
O83 Mn66 2.251 . S
O83 C76 1.241 . S
O84 Mn85 2.163 . S
O84 C98 1.244 1_554 S
Mn85 O84 2.163 . S
Mn85 O88 2.160 . S
Mn85 O89 2.221 . S
Mn85 O91 2.163 . S
Mn85 O93 2.160 . S
Mn85 O103 2.221 . S
O86 Mn87 2.087 1_556 S
O86 C98 1.256 . S
Mn87 O86 2.087 1_554 S
Mn87 O94 2.089 . S
Mn87 O103 2.290 . S
Mn87 O104 2.251 . S
O88 Mn85 2.160 . S
O88 C99 1.239 . S
O89 Mn85 2.221 . S
O89 Mn90 2.290 . S
O89 C100 1.278 . S
Mn90 O89 2.290 . S
Mn90 O92 2.089 . S
Mn90 O95 2.251 . S
Mn90 O96 2.087 . S
O91 Mn85 2.163 . S
O91 C101 1.244 . S
O92 Mn90 2.089 . S
O92 C99 1.256 . S
O93 Mn85 2.160 . S
O93 C102 1.239 . S
O94 Mn87 2.089 . S
O94 C102 1.256 . S
O95 Mn90 2.251 . S
O95 C100 1.241 . S
O96 Mn90 2.087 . S
O96 C101 1.256 . S
C97 O103 1.278 . S
C97 O104 1.241 . S
C98 O84 1.244 1_556 S
C98 O86 1.256 . S
C99 O88 1.239 . S
C99 O92 1.256 . S
C100 O89 1.278 . S
C100 O95 1.241 . S
C101 O91 1.244 . S
C101 O96 1.256 . S
C102 O93 1.239 . S
C102 O94 1.256 . S
O103 Mn85 2.221 . S
O103 Mn87 2.290 . S
O103 C97 1.278 . S
O104 Mn87 2.251 . S
O104 C97 1.241 . S
O105 Mn106 2.163 . S
O105 C119 1.244 . S
Mn106 O105 2.163 . S
Mn106 O109 2.160 . S
Mn106 O110 2.221 . S
Mn106 O112 2.163 . S
Mn106 O114 2.160 . S
Mn106 O124 2.221 . S
O107 Mn108 2.087 . S
O107 C119 1.256 . S
Mn108 O107 2.087 . S
Mn108 O115 2.089 . S
Mn108 O124 2.290 . S
Mn108 O125 2.251 . S
O109 Mn106 2.160 . S
O109 C120 1.239 . S
O110 Mn106 2.221 . S
O110 Mn111 2.290 . S
O110 C121 1.278 . S
Mn111 O110 2.290 . S
Mn111 O113 2.089 . S
Mn111 O116 2.251 . S
Mn111 O117 2.087 . S
O112 Mn106 2.163 . S
O112 C122 1.244 . S
O113 Mn111 2.089 . S
O113 C120 1.256 . S
O114 Mn106 2.160 . S
O114 C123 1.239 . S
O115 Mn108 2.089 . S
O115 C123 1.256 . S
O116 Mn111 2.251 . S
O116 C121 1.241 . S
O117 Mn111 2.087 . S
O117 C122 1.256 . S
C118 O124 1.278 . S
C118 O125 1.241 . S
C119 O105 1.244 . S
C119 O107 1.256 . S
C120 O109 1.239 . S
C120 O113 1.256 . S
C121 O110 1.278 . S
C121 O116 1.241 . S
C122 O112 1.244 . S
C122 O117 1.256 . S
C123 O114 1.239 . S
C123 O115 1.256 . S
O124 Mn106 2.221 . S
O124 Mn108 2.290 . S
O124 C118 1.278 . S
O125 Mn108 2.251 . S
O125 C118 1.241 . S
O126 Mn127 2.163 . S
O126 C140 1.244 . S
Mn127 O126 2.163 . S
Mn127 O130 2.160 . S
Mn127 O131 2.221 . S
Mn127 O133 2.163 . S
Mn127 O135 2.160 . S
Mn127 O145 2.221 . S
O128 Mn129 2.087 . S
O128 C140 1.256 . S
Mn129 O128 2.087 . S
Mn129 O136 2.089 . S
Mn129 O145 2.290 . S
Mn129 O146 2.251 . S
O130 Mn127 2.160 . S
O130 C141 1.239 . S
O131 Mn127 2.221 . S
O131 Mn132 2.290 . S
O131 C142 1.278 . S
Mn132 O131 2.290 . S
Mn132 O134 2.089 . S
Mn132 O137 2.251 . S
Mn132 O138 2.087 . S
O133 Mn127 2.163 . S
O133 C143 1.244 . S
O134 Mn132 2.089 . S
O134 C141 1.256 . S
O135 Mn127 2.160 . S
O135 C144 1.239 . S
O136 Mn129 2.089 . S
O136 C144 1.256 . S
O137 Mn132 2.251 . S
O137 C142 1.241 . S
O138 Mn132 2.087 . S
O138 C143 1.256 . S
C139 O145 1.278 . S
C139 O146 1.241 . S
C140 O126 1.244 . S
C140 O128 1.256 . S
C141 O130 1.239 . S
C141 O134 1.256 . S
C142 O131 1.278 . S
C142 O137 1.241 . S
C143 O133 1.244 . S
C143 O138 1.256 . S
C144 O135 1.239 . S
C144 O136 1.256 . S
O145 Mn127 2.221 . S
O145 Mn129 2.290 . S
O145 C139 1.278 . S
O146 Mn129 2.251 . S
O146 C139 1.241 . S
O147 Mn148 2.163 . S
O147 C161 1.244 . S
Mn148 O147 2.163 . S
Mn148 O151 2.160 . S
Mn148 O152 2.221 . S
Mn148 O154 2.163 . S
Mn148 O156 2.160 . S
Mn148 O166 2.221 . S
O149 Mn150 2.087 . S
O149 C161 1.256 . S
Mn150 O149 2.087 . S
Mn150 O157 2.089 . S
Mn150 O166 2.290 . S
Mn150 O167 2.251 . S
O151 Mn148 2.160 . S
O151 C162 1.239 1_556 S
O152 Mn148 2.221 . S
O152 Mn153 2.290 . S
O152 C163 1.278 . S
Mn153 O152 2.290 . S
Mn153 O155 2.089 1_556 S
Mn153 O158 2.251 . S
Mn153 O159 2.087 . S
O154 Mn148 2.163 . S
O154 C164 1.244 . S
O155 Mn153 2.089 1_554 S
O155 C162 1.256 . S
O156 Mn148 2.160 . S
O156 C165 1.239 . S
O157 Mn150 2.089 . S
O157 C165 1.256 . S
O158 Mn153 2.251 . S
O158 C163 1.241 . S
O159 Mn153 2.087 . S
O159 C164 1.256 . S
C160 O166 1.278 . S
C160 O167 1.241 . S
C161 O147 1.244 . S
C161 O149 1.256 . S
C162 O151 1.239 1_554 S
C162 O155 1.256 . S
C163 O152 1.278 . S
C163 O158 1.241 . S
C164 O154 1.244 . S
C164 O159 1.256 . S
C165 O156 1.239 . S
C165 O157 1.256 . S
O166 Mn148 2.221 . S
O166 Mn150 2.290 . S
O166 C160 1.278 . S
O167 Mn150 2.251 . S
O167 C160 1.241 . S
O168 Mn169 2.163 . S
O168 C182 1.244 . S
Mn169 O168 2.163 . S
Mn169 O172 2.160 . S
Mn169 O173 2.221 . S
Mn169 O175 2.163 . S
Mn169 O177 2.160 . S
Mn169 O187 2.221 . S
O170 Mn171 2.087 1_554 S
O170 C182 1.256 1_554 S
Mn171 O170 2.087 1_556 S
Mn171 O178 2.089 . S
Mn171 O187 2.290 . S
Mn171 O188 2.251 . S
O172 Mn169 2.160 . S
O172 C183 1.239 . S
O173 Mn169 2.221 . S
O173 Mn174 2.290 . S
O173 C184 1.278 . S
Mn174 O173 2.290 . S
Mn174 O176 2.089 . S
Mn174 O179 2.251 . S
Mn174 O180 2.087 . S
O175 Mn169 2.163 . S
O175 C185 1.244 . S
O176 Mn174 2.089 . S
O176 C183 1.256 . S
O177 Mn169 2.160 . S
O177 C186 1.239 . S
O178 Mn171 2.089 . S
O178 C186 1.256 . S
O179 Mn174 2.251 . S
O179 C184 1.241 . S
O180 Mn174 2.087 . S
O180 C185 1.256 . S
C181 O187 1.278 . S
C181 O188 1.241 . S
C182 O168 1.244 . S
C182 O170 1.256 1_556 S
C183 O172 1.239 . S
C183 O176 1.256 . S
C184 O173 1.278 . S
C184 O179 1.241 . S
C185 O175 1.244 . S
C185 O180 1.256 . S
C186 O177 1.239 . S
C186 O178 1.256 . S
O187 Mn169 2.221 . S
O187 Mn171 2.290 . S
O187 C181 1.278 . S
O188 Mn171 2.251 . S
O188 C181 1.241 . S
C189 C190 1.363 1_554 S
C189 C195 1.379 1_554 S
C189 N197 1.356 . S
C190 C189 1.363 1_556 S
C190 C196 1.363 . S
C191 C192 1.363 . S
C191 C196 1.379 . S
C191 N198 1.356 . S
C192 C191 1.363 . S
C192 C195 1.363 . S
N193 C195 1.356 . S
N193 H205 0.984 . S
N193 H206 0.985 . S
N194 C196 1.356 . S
N194 H199 0.984 . S
N194 H200 0.985 . S
C195 C189 1.379 1_556 S
C195 C192 1.363 . S
C195 N193 1.356 . S
C196 C190 1.363 . S
C196 C191 1.379 . S
C196 N194 1.356 . S
N197 C189 1.356 . S
N197 H203 0.984 . S
N197 H204 0.984 . S
N198 C191 1.356 . S
N198 H201 0.984 . S
N198 H202 0.985 . S
H199 N194 0.984 . S
H200 N194 0.985 . S
H201 N198 0.984 . S
H202 N198 0.985 . S
H203 N197 0.984 . S
H204 N197 0.984 . S
H205 N193 0.984 . S
H206 N193 0.985 . S
C207 C208 1.363 . S
C207 C213 1.379 . S
C207 N215 1.356 . S
C208 C207 1.363 . S
C208 C214 1.363 . S
C209 C210 1.363 . S
C209 C214 1.379 . S
C209 N216 1.356 . S
C210 C209 1.363 . S
C210 C213 1.363 . S
N211 C213 1.356 . S
N211 H223 0.984 . S
N211 H224 0.985 . S
N212 C214 1.356 1_554 S
N212 H217 0.984 . S
N212 H218 0.985 . S
C213 C207 1.379 . S
C213 C210 1.363 . S
C213 N211 1.356 . S
C214 C208 1.363 . S
C214 C209 1.379 . S
C214 N212 1.356 1_556 S
N215 C207 1.356 . S
N215 H221 0.984 . S
N215 H222 0.984 1_556 S
N216 C209 1.356 . S
N216 H219 0.984 . S
N216 H220 0.985 . S
H217 N212 0.984 . S
H218 N212 0.985 . S
H219 N216 0.984 . S
H220 N216 0.985 . S
H221 N215 0.984 . S
H222 N215 0.984 1_554 S
H223 N211 0.984 . S
H224 N211 0.985 . S
C225 C226 1.363 . S
C225 C231 1.379 . S
C225 N233 1.356 . S
C226 C225 1.363 . S
C226 C232 1.363 . S
C227 C228 1.363 . S
C227 C232 1.379 . S
C227 N234 1.356 . S
C228 C227 1.363 . S
C228 C231 1.363 . S
N229 C231 1.356 . S
N229 H241 0.984 . S
N229 H242 0.985 . S
N230 C232 1.356 . S
N230 H235 0.984 . S
N230 H236 0.985 . S
C231 C225 1.379 . S
C231 C228 1.363 . S
C231 N229 1.356 . S
C232 C226 1.363 . S
C232 C227 1.379 . S
C232 N230 1.356 . S
N233 C225 1.356 . S
N233 H239 0.984 1_565 S
N233 H240 0.984 . S
N234 C227 1.356 . S
N234 H237 0.984 . S
N234 H238 0.985 . S
H235 N230 0.984 . S
H236 N230 0.985 . S
H237 N234 0.984 . S
H238 N234 0.985 . S
H239 N233 0.984 1_545 S
H240 N233 0.984 . S
H241 N229 0.984 . S
H242 N229 0.985 . S
C243 C244 1.363 . S
C243 C249 1.379 . S
C243 N251 1.356 . S
C244 C243 1.363 . S
C244 C250 1.363 . S
C245 C246 1.363 . S
C245 C250 1.379 . S
C245 N252 1.356 . S
C246 C245 1.363 . S
C246 C249 1.363 . S
N247 C249 1.356 1_556 S
N247 H259 0.984 . S
N247 H260 0.985 . S
N248 C250 1.356 . S
N248 H253 0.984 . S
N248 H254 0.985 . S
C249 C243 1.379 . S
C249 C246 1.363 . S
C249 N247 1.356 1_554 S
C250 C244 1.363 . S
C250 C245 1.379 . S
C250 N248 1.356 . S
N251 C243 1.356 . S
N251 H257 0.984 . S
N251 H258 0.984 . S
N252 C245 1.356 . S
N252 H255 0.984 . S
N252 H256 0.985 . S
H253 N248 0.984 . S
H254 N248 0.985 . S
H255 N252 0.984 . S
H256 N252 0.985 . S
H257 N251 0.984 . S
H258 N251 0.984 . S
H259 N247 0.984 . S
H260 N247 0.985 . S
C261 C262 1.363 . S
C261 C267 1.379 . S
C261 N269 1.356 . S
C262 C261 1.363 . S
C262 C268 1.363 . S
C263 C264 1.363 . S
C263 C268 1.379 . S
C263 N270 1.356 . S
C264 C263 1.363 . S
C264 C267 1.363 . S
N265 C267 1.364 . S
N265 H277 0.980 1_554 S
N265 H278 0.981 1_554 S
N266 C268 1.356 . S
N266 H271 0.984 . S
N266 H272 0.985 . S
C267 C261 1.379 . S
C267 C264 1.363 . S
C267 N265 1.364 . S
C268 C262 1.363 . S
C268 C263 1.379 . S
C268 N266 1.356 . S
N269 C261 1.356 . S
N269 H275 0.984 . S
N269 H276 0.984 . S
N270 C263 1.356 . S
N270 H273 0.984 . S
N270 H274 0.985 . S
H271 N266 0.984 . S
H272 N266 0.985 . S
H273 N270 0.984 . S
H274 N270 0.985 . S
H275 N269 0.984 . S
H276 N269 0.984 . S
H277 N265 0.980 1_556 S
H278 N265 0.981 1_556 S
C279 C280 1.363 . S
C279 C285 1.379 . S
C279 N287 1.356 1_554 S
C280 C279 1.363 . S
C280 C286 1.363 . S
C281 C282 1.363 . S
C281 C286 1.379 . S
C281 N288 1.356 . S
C282 C281 1.363 . S
C282 C285 1.363 . S
N283 C285 1.356 . S
N283 H295 0.984 . S
N283 H296 0.985 . S
N284 C286 1.356 . S
N284 H289 0.984 . S
N284 H290 0.985 . S
C285 C279 1.379 . S
C285 C282 1.363 . S
C285 N283 1.356 . S
C286 C280 1.363 . S
C286 C281 1.379 . S
C286 N284 1.356 . S
N287 C279 1.356 1_556 S
N287 H293 0.984 . S
N287 H294 0.984 . S
N288 C281 1.356 . S
N288 H291 0.984 . S
N288 H292 0.985 . S
H289 N284 0.984 . S
H290 N284 0.985 . S
H291 N288 0.984 . S
H292 N288 0.985 . S
H293 N287 0.984 . S
H294 N287 0.984 . S
H295 N283 0.984 . S
H296 N283 0.985 . S
C297 C298 1.363 . S
C297 C303 1.379 . S
C297 N305 1.356 . S
C298 C297 1.363 . S
C298 C304 1.363 . S
C299 C300 1.363 . S
C299 C304 1.379 1_655 S
C299 N306 1.356 . S
C300 C299 1.363 . S
C300 C303 1.363 1_655 S
N301 C303 1.356 . S
N301 H313 0.984 . S
N301 H314 0.985 1_455 S
N302 C304 1.356 . S
N302 H307 0.984 . S
N302 H308 0.985 1_455 S
C303 C297 1.379 . S
C303 C300 1.363 1_455 S
C303 N301 1.356 . S
C304 C298 1.363 . S
C304 C299 1.379 1_455 S
C304 N302 1.356 . S
N305 C297 1.356 . S
N305 H311 0.984 . S
N305 H312 0.984 . S
N306 C299 1.356 . S
N306 H309 0.984 . S
N306 H310 0.985 . S
H307 N302 0.984 . S
H308 N302 0.985 1_655 S
H309 N306 0.984 . S
H310 N306 0.985 . S
H311 N305 0.984 . S
H312 N305 0.984 . S
H313 N301 0.984 . S
H314 N301 0.985 1_655 S
C315 C316 1.363 . S
C315 C321 1.379 . S
C315 N323 1.356 . S
C316 C315 1.363 . S
C316 C322 1.363 . S
C317 C318 1.363 . S
C317 C322 1.379 . S
C317 N324 1.356 . S
C318 C317 1.363 . S
C318 C321 1.363 . S
N319 C321 1.356 . S
N319 H331 0.984 . S
N319 H332 0.985 . S
N320 C322 1.356 . S
N320 H325 0.984 . S
N320 H326 0.985 . S
C321 C315 1.379 . S
C321 C318 1.363 . S
C321 N319 1.356 . S
C322 C316 1.363 . S
C322 C317 1.379 . S
C322 N320 1.356 . S
N323 C315 1.356 . S
N323 H329 0.984 . S
N323 H330 0.984 . S
N324 C317 1.356 . S
N324 H327 0.984 . S
N324 H328 0.985 . S
H325 N320 0.984 . S
H326 N320 0.985 . S
H327 N324 0.984 . S
H328 N324 0.985 . S
H329 N323 0.984 . S
H330 N323 0.984 . S
H331 N319 0.984 . S
H332 N319 0.985 . S
C333 C334 1.363 . S
C333 C339 1.379 . S
C333 N341 1.356 . S
C334 C333 1.363 . S
C334 C340 1.363 . S
C335 C336 1.363 . S
C335 C340 1.379 1_565 S
C335 N342 1.356 . S
C336 C335 1.363 . S
C336 C339 1.363 1_565 S
N337 C339 1.356 1_565 S
N337 H349 0.984 1_565 S
N337 H350 0.985 . S
N338 C340 1.356 . S
N338 H343 0.984 . S
N338 H344 0.985 . S
C339 C333 1.379 . S
C339 C336 1.363 1_545 S
C339 N337 1.356 1_545 S
C340 C334 1.363 . S
C340 C335 1.379 1_545 S
C340 N338 1.356 . S
N341 C333 1.356 . S
N341 H347 0.984 . S
N341 H348 0.984 . S
N342 C335 1.356 . S
N342 H345 0.984 . S
N342 H346 0.985 . S
H343 N338 0.984 . S
H344 N338 0.985 . S
H345 N342 0.984 . S
H346 N342 0.985 . S
H347 N341 0.984 . S
H348 N341 0.984 . S
H349 N337 0.984 1_545 S
H350 N337 0.985 . S
C351 C352 1.363 . S
C351 C357 1.379 . S
C351 N359 1.356 . S
C352 C351 1.363 . S
C352 C358 1.363 1_554 S
C353 C354 1.363 . S
C353 C358 1.379 1_554 S
C353 N360 1.356 1_554 S
C354 C353 1.363 . S
C354 C357 1.363 . S
N355 C357 1.356 . S
N355 H367 0.984 . S
N355 H368 0.985 . S
N356 C358 1.356 . S
N356 H361 0.984 . S
N356 H362 0.985 . S
C357 C351 1.379 . S
C357 C354 1.363 . S
C357 N355 1.356 . S
C358 C352 1.363 1_556 S
C358 C353 1.379 1_556 S
C358 N356 1.356 . S
N359 C351 1.356 . S
N359 H365 0.984 . S
N359 H366 0.984 . S
N360 C353 1.356 1_556 S
N360 H363 0.984 . S
N360 H364 0.985 . S
H361 N356 0.984 . S
H362 N356 0.985 . S
H363 N360 0.984 . S
H364 N360 0.985 . S
H365 N359 0.984 . S
H366 N359 0.984 . S
H367 N355 0.984 . S
H368 N355 0.985 . S
C369 C370 1.363 1_556 S
C369 C375 1.379 1_565 S
C369 N377 1.356 . S
C370 C369 1.363 1_554 S
C370 C376 1.363 . S
C371 C372 1.363 . S
C371 C376 1.379 1_545 S
C371 N378 1.356 . S
C372 C371 1.363 . S
C372 C375 1.363 1_554 S
N373 C375 1.356 . S
N373 H385 0.984 . S
N373 H386 0.985 . S
N374 C376 1.356 . S
N374 H379 0.984 . S
N374 H380 0.985 . S
C375 C369 1.379 1_545 S
C375 C372 1.363 1_556 S
C375 N373 1.356 . S
C376 C370 1.363 . S
C376 C371 1.379 1_565 S
C376 N374 1.356 . S
N377 C369 1.356 . S
N377 H383 0.984 . S
N377 H384 0.984 . S
N378 C371 1.356 . S
N378 H381 0.984 . S
N378 H382 0.985 . S
H379 N374 0.984 . S
H380 N374 0.985 . S
H381 N378 0.984 . S
H382 N378 0.985 . S
H383 N377 0.984 . S
H384 N377 0.984 . S
H385 N373 0.984 . S
H386 N373 0.985 . S
C387 C388 1.363 . S
C387 C393 1.379 1_654 S
C387 N395 1.356 1_554 S
C388 C387 1.363 . S
C388 C394 1.363 . S
C389 C390 1.363 . S
C389 C394 1.379 1_455 S
C389 N396 1.356 . S
C390 C389 1.363 . S
C390 C393 1.363 1_554 S
N391 C393 1.356 . S
N391 H403 0.984 . S
N391 H404 0.985 . S
N392 C394 1.356 . S
N392 H397 0.984 . S
N392 H398 0.985 . S
C393 C387 1.379 1_456 S
C393 C390 1.363 1_556 S
C393 N391 1.356 . S
C394 C388 1.363 . S
C394 C389 1.379 1_655 S
C394 N392 1.356 . S
N395 C387 1.356 1_556 S
N395 H401 0.989 . S
N395 H402 0.980 1_556 S
N396 C389 1.356 . S
N396 H399 0.984 . S
N396 H400 0.985 . S
H397 N392 0.984 . S
H398 N392 0.985 . S
H399 N396 0.984 . S
H400 N396 0.985 . S
H401 N395 0.989 . S
H402 N395 0.980 1_554 S
H403 N391 0.984 . S
H404 N391 0.985 . S
C405 C406 1.363 . S
C405 C411 1.379 . S
C405 N413 1.356 . S
C406 C405 1.363 . S
C406 C412 1.363 . S
C407 C408 1.363 . S
C407 C412 1.379 . S
C407 N414 1.356 . S
C408 C407 1.363 . S
C408 C411 1.363 . S
N409 C411 1.356 . S
N409 H421 0.984 . S
N409 H422 0.985 . S
N410 C412 1.356 . S
N410 H415 0.984 . S
N410 H416 0.985 . S
C411 C405 1.379 . S
C411 C408 1.363 . S
C411 N409 1.356 . S
C412 C406 1.363 . S
C412 C407 1.379 . S
C412 N410 1.356 . S
N413 C405 1.356 . S
N413 H419 0.984 . S
N413 H420 0.984 . S
N414 C407 1.356 . S
N414 H417 0.984 . S
N414 H418 0.985 . S
H415 N410 0.984 . S
H416 N410 0.985 . S
H417 N414 0.984 . S
H418 N414 0.985 . S
H419 N413 0.984 . S
H420 N413 0.984 . S
H421 N409 0.984 . S
H422 N409 0.985 . S
C423 C424 1.363 . S
C423 C429 1.379 . S
C423 N431 1.356 . S
C424 C423 1.363 . S
C424 C430 1.363 . S
C425 C426 1.363 . S
C425 C430 1.379 . S
C425 N432 1.356 . S
C426 C425 1.363 . S
C426 C429 1.363 . S
N427 C429 1.356 . S
N427 H439 0.984 . S
N427 H440 0.985 . S
N428 C430 1.356 . S
N428 H433 0.984 . S
N428 H434 0.985 . S
C429 C423 1.379 . S
C429 C426 1.363 . S
C429 N427 1.356 . S
C430 C424 1.363 . S
C430 C425 1.379 . S
C430 N428 1.356 . S
N431 C423 1.356 . S
N431 H437 0.984 . S
N431 H438 0.984 . S
N432 C425 1.356 . S
N432 H435 0.984 . S
N432 H436 0.985 1_554 S
H433 N428 0.984 . S
H434 N428 0.985 . S
H435 N432 0.984 . S
H436 N432 0.985 1_556 S
H437 N431 0.984 . S
H438 N431 0.984 . S
H439 N427 0.984 . S
H440 N427 0.985 . S
C441 C442 1.363 . S
C441 C447 1.379 . S
C441 N449 1.356 . S
C442 C441 1.363 . S
C442 C448 1.363 . S
C443 C444 1.363 . S
C443 C448 1.379 . S
C443 N450 1.356 . S
C444 C443 1.363 . S
C444 C447 1.363 . S
N445 C447 1.356 . S
N445 H457 0.984 . S
N445 H458 0.985 . S
N446 C448 1.356 . S
N446 H451 0.984 . S
N446 H452 0.985 . S
C447 C441 1.379 . S
C447 C444 1.363 . S
C447 N445 1.356 . S
C448 C442 1.363 . S
C448 C443 1.379 . S
C448 N446 1.356 . S
N449 C441 1.356 . S
N449 H455 0.984 . S
N449 H456 0.984 . S
N450 C443 1.356 . S
N450 H453 0.984 . S
N450 H454 0.985 . S
H451 N446 0.984 . S
H452 N446 0.985 . S
H453 N450 0.984 . S
H454 N450 0.985 . S
H455 N449 0.984 . S
H456 N449 0.984 . S
H457 N445 0.984 . S
H458 N445 0.985 . S
C459 C460 1.363 . S
C459 C465 1.379 . S
C459 N467 1.356 . S
C460 C459 1.363 . S
C460 C466 1.363 . S
C461 C462 1.363 . S
C461 C466 1.379 . S
C461 N468 1.356 . S
C462 C461 1.363 . S
C462 C465 1.363 . S
N463 C465 1.356 . S
N463 H475 0.984 . S
N463 H476 0.985 . S
N464 C466 1.356 . S
N464 H469 0.984 . S
N464 H470 0.985 . S
C465 C459 1.379 . S
C465 C462 1.363 . S
C465 N463 1.356 . S
C466 C460 1.363 . S
C466 C461 1.379 . S
C466 N464 1.356 . S
N467 C459 1.356 . S
N467 H473 0.984 . S
N467 H474 0.984 . S
N468 C461 1.356 . S
N468 H471 0.984 . S
N468 H472 0.985 . S
H469 N464 0.984 . S
H470 N464 0.985 . S
H471 N468 0.984 . S
H472 N468 0.985 . S
H473 N467 0.984 . S
H474 N467 0.984 . S
H475 N463 0.984 . S
H476 N463 0.985 . S
C477 C478 1.363 . S
C477 C483 1.379 . S
C477 N485 1.356 . S
C478 C477 1.363 . S
C478 C484 1.363 . S
C479 C480 1.363 . S
C479 C484 1.379 . S
C479 N486 1.356 . S
C480 C479 1.363 . S
C480 C483 1.363 . S
N481 C483 1.356 . S
N481 H493 0.984 . S
N481 H494 0.985 . S
N482 C484 1.356 . S
N482 H487 0.984 . S
N482 H488 0.985 . S
C483 C477 1.379 . S
C483 C480 1.363 . S
C483 N481 1.356 . S
C484 C478 1.363 . S
C484 C479 1.379 . S
C484 N482 1.356 . S
N485 C477 1.356 . S
N485 H491 0.984 . S
N485 H492 0.984 . S
N486 C479 1.356 . S
N486 H489 0.984 . S
N486 H490 0.985 . S
H487 N482 0.984 . S
H488 N482 0.985 . S
H489 N486 0.984 . S
H490 N486 0.985 . S
H491 N485 0.984 . S
H492 N485 0.984 . S
H493 N481 0.984 . S
H494 N481 0.985 . S
C495 C496 1.363 . S
C495 C501 1.379 . S
C495 N503 1.356 . S
C496 C495 1.363 . S
C496 C502 1.363 . S
C497 C498 1.363 . S
C497 C502 1.379 . S
C497 N504 1.356 . S
C498 C497 1.363 . S
C498 C501 1.363 . S
N499 C501 1.356 . S
N499 H511 0.986 . S
N499 H512 0.985 . S
N500 C502 1.356 . S
N500 H505 0.984 . S
N500 H506 0.985 . S
C501 C495 1.379 . S
C501 C498 1.363 . S
C501 N499 1.356 . S
C502 C496 1.363 . S
C502 C497 1.379 . S
C502 N500 1.356 . S
N503 C495 1.356 . S
N503 H509 0.984 . S
N503 H510 0.984 . S
N504 C497 1.356 . S
N504 H507 0.984 . S
N504 H508 0.985 . S
H505 N500 0.984 . S
H506 N500 0.985 . S
H507 N504 0.984 . S
H508 N504 0.985 . S
H509 N503 0.984 . S
H510 N503 0.984 . S
H511 N499 0.986 . S
H512 N499 0.985 . S
C513 C514 1.363 1_455 S
C513 C519 1.379 . S
C513 N521 1.356 1_455 S
C514 C513 1.363 1_655 S
C514 C520 1.363 1_655 S
C515 C516 1.363 . S
C515 C520 1.379 . S
C515 N522 1.356 . S
C516 C515 1.363 . S
C516 C519 1.363 . S
N517 C519 1.356 . S
N517 H529 0.984 . S
N517 H530 0.985 . S
N518 C520 1.356 1_655 S
N518 H523 0.984 . S
N518 H524 0.985 . S
C519 C513 1.379 . S
C519 C516 1.363 . S
C519 N517 1.356 . S
C520 C514 1.363 1_455 S
C520 C515 1.379 . S
C520 N518 1.356 1_455 S
N521 C513 1.356 1_655 S
N521 H527 0.984 . S
N521 H528 0.984 . S
N522 C515 1.356 . S
N522 H525 0.984 . S
N522 H526 0.985 . S
H523 N518 0.984 . S
H524 N518 0.985 . S
H525 N522 0.984 . S
H526 N522 0.985 . S
H527 N521 0.984 . S
H528 N521 0.984 . S
H529 N517 0.984 . S
H530 N517 0.985 . S
C531 C532 1.363 . S
C531 C537 1.379 . S
C531 N539 1.356 . S
C532 C531 1.363 . S
C532 C538 1.363 . S
C533 C534 1.363 . S
C533 C538 1.379 . S
C533 N540 1.356 . S
C534 C533 1.363 . S
C534 C537 1.363 . S
N535 C537 1.356 . S
N535 H547 0.984 . S
N535 H548 0.985 . S
N536 C538 1.356 . S
N536 H541 0.984 . S
N536 H542 0.985 . S
C537 C531 1.379 . S
C537 C534 1.363 . S
C537 N535 1.356 . S
C538 C532 1.363 . S
C538 C533 1.379 . S
C538 N536 1.356 . S
N539 C531 1.356 . S
N539 H545 0.984 . S
N539 H546 0.984 . S
N540 C533 1.356 . S
N540 H543 0.984 . S
N540 H544 0.985 . S
H541 N536 0.984 . S
H542 N536 0.985 . S
H543 N540 0.984 . S
H544 N540 0.985 . S
H545 N539 0.984 . S
H546 N539 0.984 . S
H547 N535 0.984 . S
H548 N535 0.985 . S
C549 C550 1.363 1_565 S
C549 C555 1.379 . S
C549 N557 1.356 . S
C550 C549 1.363 1_545 S
C550 C556 1.363 . S
C551 C552 1.363 . S
C551 C556 1.379 . S
C551 N558 1.356 . S
C552 C551 1.363 . S
C552 C555 1.363 1_545 S
N553 C555 1.356 . S
N553 H565 0.984 . S
N553 H566 0.985 . S
N554 C556 1.356 . S
N554 H559 0.984 . S
N554 H560 0.985 . S
C555 C549 1.379 . S
C555 C552 1.363 1_565 S
C555 N553 1.356 . S
C556 C550 1.363 . S
C556 C551 1.379 . S
C556 N554 1.356 . S
N557 C549 1.356 . S
N557 H563 0.984 . S
N557 H564 0.984 . S
N558 C551 1.356 . S
N558 H561 0.984 . S
N558 H562 0.985 . S
H559 N554 0.984 . S
H560 N554 0.985 . S
H561 N558 0.984 . S
H562 N558 0.985 . S
H563 N557 0.984 . S
H564 N557 0.984 . S
H565 N553 0.984 . S
H566 N553 0.985 . S
C567 C568 1.363 . S
C567 C573 1.379 . S
C567 N575 1.356 . S
C568 C567 1.363 . S
C568 C574 1.363 . S
C569 C570 1.363 . S
C569 C574 1.379 . S
C569 N576 1.356 . S
C570 C569 1.363 . S
C570 C573 1.363 . S
N571 C573 1.356 1_554 S
N571 H583 0.984 . S
N571 H584 0.985 . S
N572 C574 1.356 . S
N572 H577 0.984 . S
N572 H578 0.985 . S
C573 C567 1.379 . S
C573 C570 1.363 . S
C573 N571 1.356 1_556 S
C574 C568 1.363 . S
C574 C569 1.379 . S
C574 N572 1.356 . S
N575 C567 1.356 . S
N575 H581 0.984 . S
N575 H582 0.984 . S
N576 C569 1.356 . S
N576 H579 0.984 . S
N576 H580 0.985 . S
H577 N572 0.984 . S
H578 N572 0.985 . S
H579 N576 0.984 . S
H580 N576 0.985 . S
H581 N575 0.984 . S
H582 N575 0.984 . S
H583 N571 0.984 . S
H584 N571 0.985 . S
C585 C586 1.363 . S
C585 C591 1.379 . S
C585 N593 1.356 . S
C586 C585 1.363 . S
C586 C592 1.363 . S
C587 C588 1.363 . S
C587 C592 1.379 . S
C587 N594 1.356 . S
C588 C587 1.363 . S
C588 C591 1.363 . S
N589 C591 1.356 . S
N589 H601 0.984 . S
N589 H602 0.985 . S
N590 C592 1.356 . S
N590 H595 0.984 . S
N590 H596 0.985 . S
C591 C585 1.379 . S
C591 C588 1.363 . S
C591 N589 1.356 . S
C592 C586 1.363 . S
C592 C587 1.379 . S
C592 N590 1.356 . S
N593 C585 1.356 . S
N593 H599 0.984 . S
N593 H600 0.984 . S
N594 C587 1.356 . S
N594 H597 0.984 . S
N594 H598 0.985 . S
H595 N590 0.984 . S
H596 N590 0.985 . S
H597 N594 0.984 . S
H598 N594 0.985 . S
H599 N593 0.984 . S
H600 N593 0.984 . S
H601 N589 0.984 . S
H602 N589 0.985 . S
C603 C604 1.363 . S
C603 C609 1.379 . S
C603 N611 1.356 . S
C604 C603 1.363 . S
C604 C610 1.363 . S
C605 C606 1.363 . S
C605 C610 1.379 . S
C605 N612 1.356 . S
C606 C605 1.363 . S
C606 C609 1.363 . S
N607 C609 1.356 . S
N607 H619 0.984 . S
N607 H620 0.985 1_556 S
N608 C610 1.356 . S
N608 H613 0.984 . S
N608 H614 0.985 . S
C609 C603 1.379 . S
C609 C606 1.363 . S
C609 N607 1.356 . S
C610 C604 1.363 . S
C610 C605 1.379 . S
C610 N608 1.356 . S
N611 C603 1.356 . S
N611 H617 0.984 . S
N611 H618 0.984 . S
N612 C605 1.356 . S
N612 H615 0.984 1_556 S
N612 H616 0.985 . S
H613 N608 0.984 . S
H614 N608 0.985 . S
H615 N612 0.984 1_554 S
H616 N612 0.985 . S
H617 N611 0.984 . S
H618 N611 0.984 . S
H619 N607 0.984 . S
H620 N607 0.985 1_554 S
C621 C622 1.363 . S
C621 C627 1.379 . S
C621 N629 1.356 . S
C622 C621 1.363 . S
C622 C628 1.363 . S
C623 C624 1.363 . S
C623 C628 1.379 . S
C623 N630 1.362 . S
C624 C623 1.363 . S
C624 C627 1.363 . S
N625 C627 1.356 . S
N625 H637 0.984 . S
N625 H638 0.985 1_554 S
N626 C628 1.356 . S
N626 H631 0.984 . S
N626 H632 0.985 . S
C627 C621 1.379 . S
C627 C624 1.363 . S
C627 N625 1.356 . S
C628 C622 1.363 . S
C628 C623 1.379 . S
C628 N626 1.356 . S
N629 C621 1.356 . S
N629 H635 0.984 . S
N629 H636 0.984 . S
N630 C623 1.362 . S
N630 H633 0.978 1_554 S
N630 H634 0.985 . S
H631 N626 0.984 . S
H632 N626 0.985 . S
H633 N630 0.978 1_556 S
H634 N630 0.985 . S
H635 N629 0.984 . S
H636 N629 0.984 . S
H637 N625 0.984 . S
H638 N625 0.985 1_556 S
C639 C640 1.363 . S
C639 C645 1.379 . S
C639 N647 1.356 . S
C640 C639 1.363 . S
C640 C646 1.363 . S
C641 C642 1.363 . S
C641 C646 1.379 . S
C641 N648 1.356 . S
C642 C641 1.363 . S
C642 C645 1.363 . S
N643 C645 1.356 . S
N643 H655 0.984 . S
N643 H656 0.985 . S
N644 C646 1.356 . S
N644 H649 0.984 . S
N644 H650 0.985 . S
C645 C639 1.379 . S
C645 C642 1.363 . S
C645 N643 1.356 . S
C646 C640 1.363 . S
C646 C641 1.379 . S
C646 N644 1.356 . S
N647 C639 1.356 . S
N647 H653 0.984 . S
N647 H654 0.984 . S
N648 C641 1.356 . S
N648 H651 0.984 . S
N648 H652 0.985 . S
H649 N644 0.984 . S
H650 N644 0.985 . S
H651 N648 0.984 . S
H652 N648 0.985 . S
H653 N647 0.984 . S
H654 N647 0.984 . S
H655 N643 0.984 . S
H656 N643 0.985 . S
C657 C658 1.363 . S
C657 C663 1.379 . S
C657 N665 1.356 . S
C658 C657 1.363 . S
C658 C664 1.363 . S
C659 C660 1.363 . S
C659 C664 1.379 . S
C659 N666 1.356 . S
C660 C659 1.363 . S
C660 C663 1.363 . S
N661 C663 1.356 . S
N661 H673 0.984 . S
N661 H674 0.985 1_554 S
N662 C664 1.356 . S
N662 H667 0.984 . S
N662 H668 0.985 . S
C663 C657 1.379 . S
C663 C660 1.363 . S
C663 N661 1.356 . S
C664 C658 1.363 . S
C664 C659 1.379 . S
C664 N662 1.356 . S
N665 C657 1.356 . S
N665 H671 0.984 . S
N665 H672 0.984 . S
N666 C659 1.356 . S
N666 H669 0.984 1_554 S
N666 H670 0.985 . S
H667 N662 0.984 . S
H668 N662 0.985 . S
H669 N666 0.984 1_556 S
H670 N666 0.985 . S
H671 N665 0.984 . S
H672 N665 0.984 . S
H673 N661 0.984 . S
H674 N661 0.985 1_556 S
C190 C17 1.546 1_556 S
C192 C164 1.553 . S
C208 C34 1.182 1_556 S
C210 C181 1.199 . S
C226 C59 1.571 . S
C228 C139 1.173 . S
C244 C97 1.015 . S
C246 C55 1.036 . S
C262 C118 1.105 . S
C264 C13 1.061 . S
C280 C38 1.508 . S
C282 C76 1.171 . S
C298 C160 1.215 . S
C300 C122 1.589 . S
C316 C185 1.695 . S
C318 C80 1.681 . S
C334 C101 1.812 . S
C336 C143 1.810 . S
C352 C60 1.220 . S
C354 C16 1.118 . S
C370 C39 1.210 . S
C372 C18 1.212 . S
C388 C37 1.299 . S
C390 C58 1.282 1_554 S
C406 C81 1.317 . S
C408 C121 1.206 . S
C424 C79 1.252 . S
C426 C102 1.370 . S
C442 C100 1.210 . S
C444 C123 1.298 . S
C460 C186 1.440 . S
C462 C142 1.371 . S
C478 C165 1.217 . S
C480 C144 1.223 . S
C496 C184 1.280 . S
C498 C163 1.277 . S
C514 C15 1.199 1_655 S
C516 C14 1.191 . S
C532 C35 1.149 . S
C534 C36 1.156 . S
C550 C57 1.150 . S
C552 C56 1.143 . S
C568 C78 1.217 . S
C570 C77 1.202 1_556 S
C586 C99 1.160 . S
C588 C98 1.157 . S
C604 C120 1.200 . S
C606 C119 1.182 1_556 S
C622 C141 1.197 . S
C624 C140 1.195 1_554 S
C640 C162 1.178 . S
C642 C161 1.174 . S
C658 C183 1.171 . S
C660 C182 1.158 1_554 S
