# Generated by pormake.
# Topology bcs, (6)-cn, num edge types: 1
# Building blocks:
#     Node 0, Type 0, BuildingBlock: BETFEN_clean_sbu_0, # of connection points: 6
#     Node 1, Type 0, BuildingBlock: BETFEN_clean_sbu_0, # of connection points: 6
#     Node 2, Type 0, BuildingBlock: BETFEN_clean_sbu_0, # of connection points: 6
#     Node 3, Type 0, BuildingBlock: BETFEN_clean_sbu_0, # of connection points: 6
#     Node 4, Type 0, BuildingBlock: BETFEN_clean_sbu_0, # of connection points: 6
#     Node 5, Type 0, BuildingBlock: BETFEN_clean_sbu_0, # of connection points: 6
#     Node 6, Type 0, BuildingBlock: BETFEN_clean_sbu_0, # of connection points: 6
#     Node 7, Type 0, BuildingBlock: BETFEN_clean_sbu_0, # of connection points: 6
#     Node 8, Type 0, BuildingBlock: BETFEN_clean_sbu_0, # of connection points: 6
#     Node 9, Type 0, BuildingBlock: BETFEN_clean_sbu_0, # of connection points: 6
#     Node 10, Type 0, BuildingBlock: BETFEN_clean_sbu_0, # of connection points: 6
#     Node 11, Type 0, BuildingBlock: BETFEN_clean_sbu_0, # of connection points: 6
#     Node 12, Type 0, BuildingBlock: BETFEN_clean_sbu_0, # of connection points: 6
#     Node 13, Type 0, BuildingBlock: BETFEN_clean_sbu_0, # of connection points: 6
#     Node 14, Type 0, BuildingBlock: BETFEN_clean_sbu_0, # of connection points: 6
#     Node 15, Type 0, BuildingBlock: BETFEN_clean_sbu_0, # of connection points: 6
#     Edge 16, Type (0, 0), BuildingBlock: TEMPAE_clean_linker_10, # of connection points: 2
#     Edge 17, Type (0, 0), BuildingBlock: TEMPAE_clean_linker_10, # of connection points: 2
#     Edge 18, Type (0, 0), BuildingBlock: TEMPAE_clean_linker_10, # of connection points: 2
#     Edge 19, Type (0, 0), BuildingBlock: TEMPAE_clean_linker_10, # of connection points: 2
#     Edge 20, Type (0, 0), BuildingBlock: TEMPAE_clean_linker_10, # of connection points: 2
#     Edge 21, Type (0, 0), BuildingBlock: TEMPAE_clean_linker_10, # of connection points: 2
#     Edge 22, Type (0, 0), BuildingBlock: TEMPAE_clean_linker_10, # of connection points: 2
#     Edge 23, Type (0, 0), BuildingBlock: TEMPAE_clean_linker_10, # of connection points: 2
#     Edge 24, Type (0, 0), BuildingBlock: TEMPAE_clean_linker_10, # of connection points: 2
#     Edge 25, Type (0, 0), BuildingBlock: TEMPAE_clean_linker_10, # of connection points: 2
#     Edge 26, Type (0, 0), BuildingBlock: TEMPAE_clean_linker_10, # of connection points: 2
#     Edge 27, Type (0, 0), BuildingBlock: TEMPAE_clean_linker_10, # of connection points: 2
#     Edge 28, Type (0, 0), BuildingBlock: TEMPAE_clean_linker_10, # of connection points: 2
#     Edge 29, Type (0, 0), BuildingBlock: TEMPAE_clean_linker_10, # of connection points: 2
#     Edge 30, Type (0, 0), BuildingBlock: TEMPAE_clean_linker_10, # of connection points: 2
#     Edge 31, Type (0, 0), BuildingBlock: TEMPAE_clean_linker_10, # of connection points: 2
#     Edge 32, Type (0, 0), BuildingBlock: TEMPAE_clean_linker_10, # of connection points: 2
#     Edge 33, Type (0, 0), BuildingBlock: TEMPAE_clean_linker_10, # of connection points: 2
#     Edge 34, Type (0, 0), BuildingBlock: TEMPAE_clean_linker_10, # of connection points: 2
#     Edge 35, Type (0, 0), BuildingBlock: TEMPAE_clean_linker_10, # of connection points: 2
#     Edge 36, Type (0, 0), BuildingBlock: TEMPAE_clean_linker_10, # of connection points: 2
#     Edge 37, Type (0, 0), BuildingBlock: TEMPAE_clean_linker_10, # of connection points: 2
#     Edge 38, Type (0, 0), BuildingBlock: TEMPAE_clean_linker_10, # of connection points: 2
#     Edge 39, Type (0, 0), BuildingBlock: TEMPAE_clean_linker_10, # of connection points: 2
#     Edge 40, Type (0, 0), BuildingBlock: TEMPAE_clean_linker_10, # of connection points: 2
#     Edge 41, Type (0, 0), BuildingBlock: TEMPAE_clean_linker_10, # of connection points: 2
#     Edge 42, Type (0, 0), BuildingBlock: TEMPAE_clean_linker_10, # of connection points: 2
#     Edge 43, Type (0, 0), BuildingBlock: TEMPAE_clean_linker_10, # of connection points: 2
#     Edge 44, Type (0, 0), BuildingBlock: TEMPAE_clean_linker_10, # of connection points: 2
#     Edge 45, Type (0, 0), BuildingBlock: TEMPAE_clean_linker_10, # of connection points: 2
#     Edge 46, Type (0, 0), BuildingBlock: TEMPAE_clean_linker_10, # of connection points: 2
#     Edge 47, Type (0, 0), BuildingBlock: TEMPAE_clean_linker_10, # of connection points: 2
#     Edge 48, Type (0, 0), BuildingBlock: TEMPAE_clean_linker_10, # of connection points: 2
#     Edge 49, Type (0, 0), BuildingBlock: TEMPAE_clean_linker_10, # of connection points: 2
#     Edge 50, Type (0, 0), BuildingBlock: TEMPAE_clean_linker_10, # of connection points: 2
#     Edge 51, Type (0, 0), BuildingBlock: TEMPAE_clean_linker_10, # of connection points: 2
#     Edge 52, Type (0, 0), BuildingBlock: TEMPAE_clean_linker_10, # of connection points: 2
#     Edge 53, Type (0, 0), BuildingBlock: TEMPAE_clean_linker_10, # of connection points: 2
#     Edge 54, Type (0, 0), BuildingBlock: TEMPAE_clean_linker_10, # of connection points: 2
#     Edge 55, Type (0, 0), BuildingBlock: TEMPAE_clean_linker_10, # of connection points: 2
#     Edge 56, Type (0, 0), BuildingBlock: TEMPAE_clean_linker_10, # of connection points: 2
#     Edge 57, Type (0, 0), BuildingBlock: TEMPAE_clean_linker_10, # of connection points: 2
#     Edge 58, Type (0, 0), BuildingBlock: TEMPAE_clean_linker_10, # of connection points: 2
#     Edge 59, Type (0, 0), BuildingBlock: TEMPAE_clean_linker_10, # of connection points: 2
#     Edge 60, Type (0, 0), BuildingBlock: TEMPAE_clean_linker_10, # of connection points: 2
#     Edge 61, Type (0, 0), BuildingBlock: TEMPAE_clean_linker_10, # of connection points: 2
#     Edge 62, Type (0, 0), BuildingBlock: TEMPAE_clean_linker_10, # of connection points: 2
#     Edge 63, Type (0, 0), BuildingBlock: TEMPAE_clean_linker_10, # of connection points: 2
# Relax obj value: 0.160
# Max RMSD: 0.238
# Mean RMSD: 0.187
data_MOF--net-bcs--node1-BETFEN_clean_sbu_0--edge1-TEMPAE_clean_linker_10
_symmetry_space_group_name_H-M    P1
_symmetry_Int_Tables_number       1
_symmetry_cell_setting            triclinic
loop_
_symmetry_equiv_pos_as_xyz
'x, y, z'
_cell_length_a     48.680795
_cell_length_b     41.542462
_cell_length_c     41.064335
_cell_angle_alpha  109.99371
_cell_angle_beta   72.565054
_cell_angle_gamma 122.63407
loop_
_atom_site_label
_atom_site_type_symbol
_atom_site_fract_x
_atom_site_fract_y
_atom_site_fract_z
_atom_type_partial_charge
Pr0 Pr 0.03905 0.00891 0.032 0.0
Pr1 Pr 1.01507 0.98966 0.9706 0.0
C2 C 0.05536 0.00382 0.0869 0.0
C3 C 0.07522 0.99073 0.09497 0.0
C4 C 0.10483 0.01829 0.10882 0.0
C5 C 0.12242 0.00606 0.11866 0.0
C6 C 0.11075 0.96592 0.11509 0.0
C7 C 0.08125 0.93841 0.10095 0.0
C8 C 0.06374 0.95061 0.09108 0.0
C9 C 0.07934 0.06706 0.99385 0.0
C10 C 0.07077 0.95199 0.95499 0.0
C11 C 0.99914 0.99206 0.91403 0.0
C12 C 0.97885 0.00206 0.90316 0.0
C13 C 0.94859 0.99836 0.9228 0.0
C14 C 0.93013 0.00843 0.9117 0.0
C15 C 0.9417 0.02259 0.88089 0.0
C16 C 0.97208 0.02624 0.86147 0.0
C17 C 0.9904 0.0161 0.8725 0.0
C18 C 0.97437 0.93244 0.00972 0.0
C19 C 0.98319 0.04642 0.04754 0.0
O20 O 0.02918 0.9766 0.07212 0.0
O21 O 0.07081 0.03593 0.07521 0.0
O22 O 0.0682 0.03066 0.98146 0.0
O23 O 0.06924 0.07485 0.02729 0.0
O24 O 0.0523 0.95739 0.94015 0.0
O25 O 0.06833 0.96802 0.99046 0.0
O26 O 1.02387 0.02125 0.93005 0.0
O27 O 0.98413 0.96074 0.92674 0.0
O28 O 0.98589 0.96891 0.02138 0.0
O29 O 0.98436 0.92392 0.97639 0.0
O30 O 1.00039 0.03935 0.06266 0.0
O31 O 0.98697 0.03211 0.0118 0.0
H32 H 0.11422 0.04941 0.11247 0.0
H33 H 0.1452 0.02812 0.12907 0.0
H34 H 0.07111 0.90732 0.09834 0.0
H35 H 0.04083 0.92843 0.08095 0.0
H36 H 0.93933 0.98789 0.94672 0.0
H37 H 0.90704 0.00567 0.92751 0.0
H38 H 0.98157 0.03652 0.83742 0.0
H39 H 1.0137 0.0192 0.85699 0.0
Pr40 Pr 0.27448 0.78686 0.26476 0.0
Pr41 Pr 0.27122 0.70853 0.25939 0.0
C42 C 0.27737 0.84817 0.25159 0.0
C43 C 0.25911 0.85692 0.23553 0.0
C44 C 0.23486 0.86698 0.25627 0.0
C45 C 0.21849 0.87665 0.24156 0.0
C46 C 0.22602 0.87679 0.20572 0.0
C47 C 0.25036 0.86684 0.18497 0.0
C48 C 0.26673 0.85711 0.19968 0.0
C49 C 0.22913 0.74516 0.31509 0.0
C50 C 0.22364 0.70325 0.2152 0.0
C51 C 0.26562 0.64468 0.27062 0.0
C52 C 0.28301 0.6323 0.28329 0.0
C53 C 0.31217 0.65973 0.29783 0.0
C54 C 0.32814 0.64719 0.30991 0.0
C55 C 0.31524 0.607 0.30756 0.0
C56 C 0.28592 0.57974 0.29304 0.0
C57 C 0.26999 0.59231 0.28105 0.0
C58 C 0.31645 0.75028 0.20891 0.0
C59 C 0.3211 0.79197 0.31081 0.0
O60 O 0.29323 0.82967 0.23067 0.0
O61 O 0.26355 0.83724 0.2814 0.0
O62 O 0.23399 0.73068 0.28301 0.0
O63 O 0.24738 0.78309 0.32257 0.0
O64 O 0.22567 0.68356 0.2328 0.0
O65 O 0.24286 0.74165 0.21912 0.0
O66 O 0.2541 0.66687 0.29395 0.0
O67 O 0.27835 0.65511 0.24057 0.0
O68 O 0.31179 0.76474 0.24105 0.0
O69 O 0.29807 0.71235 0.20153 0.0
O70 O 0.31812 0.81267 0.2951 0.0
O71 O 0.30354 0.75318 0.30429 0.0
H72 H 0.22872 0.8678 0.28407 0.0
H73 H 0.20036 0.88484 0.25851 0.0
H74 H 0.25665 0.86632 0.15723 0.0
H75 H 0.28551 0.84996 0.18294 0.0
H76 H 0.32259 0.69075 0.29974 0.0
H77 H 0.35083 0.66894 0.32062 0.0
H78 H 0.27504 0.54868 0.2913 0.0
H79 H 0.24738 0.57075 0.27009 0.0
Pr80 Pr 0.53025 0.00552 0.46961 0.0
Pr81 Pr 0.51477 0.9831 0.54125 0.0
C82 C 0.52527 0.01673 0.41123 0.0
C83 C 0.50577 0.03015 0.40373 0.0
C84 C 0.49545 0.05514 0.4301 0.0
C85 C 0.4779 0.06894 0.42273 0.0
C86 C 0.47 0.05775 0.38887 0.0
C87 C 0.47953 0.03167 0.36281 0.0
C88 C 0.49728 0.01804 0.3702 0.0
C89 C 0.56994 0.06319 0.51994 0.0
C90 C 0.46946 0.0125 0.53209 0.0
C91 C 0.52058 0.97289 0.59959 0.0
C92 C 0.54088 0.96015 0.60657 0.0
C93 C 0.54549 0.92918 0.58291 0.0
C94 C 0.56531 0.91779 0.58923 0.0
C95 C 0.58131 0.93747 0.61904 0.0
C96 C 0.57737 0.96908 0.64226 0.0
C97 C 0.55714 0.98018 0.63614 0.0
C98 C 0.47467 0.92573 0.49122 0.0
C99 C 0.57514 0.97488 0.47861 0.0
O100 O 0.50869 0.98247 0.41928 0.0
O101 O 0.54814 0.043 0.43096 0.0
O102 O 0.53915 0.04146 0.52575 0.0
O103 O 0.581 0.05718 0.48666 0.0
O104 O 0.48213 0.01224 0.55619 0.0
O105 O 0.48109 0.0064 0.49842 0.0
O106 O 0.53669 0.00704 0.5914 0.0
O107 O 0.4972 0.94636 0.58052 0.0
O108 O 0.50552 0.94712 0.48524 0.0
O109 O 0.46385 0.9317 0.5246 0.0
O110 O 0.56354 0.97702 0.45461 0.0
O111 O 0.56289 0.98016 0.51213 0.0
H112 H 0.50141 0.0645 0.45633 0.0
H113 H 0.47133 0.08924 0.44339 0.0
H114 H 0.47333 0.02183 0.33666 0.0
H115 H 0.5046 0.99828 0.34966 0.0
H116 H 0.53387 0.91381 0.55944 0.0
H117 H 0.56839 0.89375 0.57064 0.0
H118 H 0.58945 0.98473 0.66542 0.0
H119 H 0.55429 0.00451 0.65443 0.0
Pr120 Pr 0.26575 0.21913 0.74597 0.0
Pr121 Pr 0.28224 0.30124 0.77348 0.0
C122 C 0.24808 0.1454 0.70809 0.0
C123 C 0.26439 0.12636 0.67939 0.0
C124 C 0.29844 0.14732 0.66918 0.0
C125 C 0.31446 0.12882 0.64296 0.0
C126 C 0.29659 0.08913 0.62641 0.0
C127 C 0.26222 0.06869 0.63582 0.0
C128 C 0.24618 0.08725 0.66225 0.0
C129 C 0.31576 0.26204 0.78899 0.0
C130 C 0.32407 0.28383 0.70007 0.0
C131 C 0.29806 0.37626 0.80599 0.0
C132 C 0.28198 0.39988 0.81419 0.0
C133 C 0.24808 0.38132 0.8135 0.0
C134 C 0.23277 0.40356 0.82003 0.0
C135 C 0.25116 0.44477 0.82699 0.0
C136 C 0.28529 0.46326 0.82691 0.0
C137 C 0.30064 0.44089 0.82055 0.0
C138 C 0.23189 0.25771 0.73091 0.0
C139 C 0.22769 0.23674 0.82161 0.0
O140 O 0.24339 0.16983 0.70022 0.0
O141 O 0.25884 0.15882 0.73813 0.0
O142 O 0.31395 0.27325 0.76528 0.0
O143 O 0.29152 0.22706 0.79104 0.0
O144 O 0.32796 0.30861 0.7307 0.0
O145 O 0.29847 0.24816 0.69741 0.0
O146 O 0.28438 0.34826 0.82281 0.0
O147 O 0.30685 0.36516 0.77268 0.0
O148 O 0.23393 0.24718 0.75492 0.0
O149 O 0.25609 0.2924 0.72844 0.0
O150 O 0.22237 0.21144 0.79135 0.0
O151 O 0.25338 0.27249 0.8232 0.0
H152 H 0.31273 0.17771 0.68211 0.0
H153 H 0.34104 0.14517 0.63672 0.0
H154 H 0.24796 0.03829 0.62314 0.0
H155 H 0.21975 0.07094 0.66969 0.0
H156 H 0.23344 0.34961 0.80811 0.0
H157 H 0.2063 0.38846 0.82062 0.0
H158 H 0.29994 0.4949 0.83185 0.0
H159 H 0.327 0.45554 0.82053 0.0
Pr160 Pr 1.01705 0.03622 0.50583 0.0
Pr161 Pr 0.04432 0.97457 0.50089 0.0
C162 C 1.0099 0.08832 0.48922 0.0
C163 C 0.98611 0.09282 0.47843 0.0
C164 C 0.95223 0.0739 0.49097 0.0
C165 C 0.9303 0.07806 0.4792 0.0
C166 C 0.9419 0.10087 0.45449 0.0
C167 C 0.97588 0.11976 0.44218 0.0
C168 C 0.99771 0.11577 0.45406 0.0
C169 C 0.97416 0.98085 0.54776 0.0
C170 C 0.98669 0.94603 0.45237 0.0
C171 C 0.05149 0.9216 0.51601 0.0
C172 C 0.07584 0.91604 0.52423 0.0
C173 C 0.10779 0.94711 0.52908 0.0
C174 C 0.1298 0.9416 0.53915 0.0
C175 C 0.12016 0.90494 0.54455 0.0
C176 C 0.08815 0.87392 0.53925 0.0
C177 C 0.06626 0.87946 0.52918 0.0
C178 C 0.08788 0.03078 0.45981 0.0
C179 C 0.0733 0.06402 0.55566 0.0
O180 O 1.02073 0.06529 0.46611 0.0
O181 O 1.005 0.08558 0.52165 0.0
O182 O 1.00068 0.98468 0.52808 0.0
O183 O 0.9688 0.00794 0.54648 0.0
O184 O 1.00262 0.93583 0.46464 0.0
O185 O 0.99014 0.98181 0.46182 0.0
O186 O 0.04287 0.9463 0.53987 0.0
O187 O 0.05456 0.92358 0.48377 0.0
O188 O 0.06091 0.02635 0.47875 0.0
O189 O 0.09316 0.00368 0.46118 0.0
O190 O 0.05802 0.07467 0.5429 0.0
O191 O 0.06982 0.02821 0.54607 0.0
H192 H 0.94271 0.05572 0.50956 0.0
H193 H 0.90424 0.06292 0.48896 0.0
H194 H 0.98568 0.13798 0.42355 0.0
H195 H 1.02376 0.13054 0.44403 0.0
H196 H 0.11552 0.97566 0.52551 0.0
H197 H 0.15432 0.96601 0.5427 0.0
H198 H 0.07965 0.84554 0.54376 0.0
H199 H 0.04156 0.85528 0.52591 0.0
Pr200 Pr 0.29032 0.7705 0.72667 0.0
Pr201 Pr 0.2611 0.72434 0.77394 0.0
C202 C 0.30339 0.80953 0.67826 0.0
C203 C 0.28581 0.82187 0.66571 0.0
C204 C 0.30302 0.85767 0.6554 0.0
C205 C 0.28673 0.86936 0.64285 0.0
C206 C 0.25286 0.84533 0.64025 0.0
C207 C 0.23571 0.8095 0.6508 0.0
C208 C 0.25196 0.79799 0.66354 0.0
C209 C 0.33117 0.80046 0.77715 0.0
C210 C 0.22896 0.791 0.79629 0.0
C211 C 0.24989 0.68605 0.82225 0.0
C212 C 0.26729 0.67178 0.83267 0.0
C213 C 0.24926 0.64117 0.85039 0.0
C214 C 0.26544 0.62852 0.86198 0.0
C215 C 0.3001 0.64635 0.8561 0.0
C216 C 0.31805 0.67656 0.8376 0.0
C217 C 0.30182 0.6891 0.82598 0.0
C218 C 0.21949 0.694 0.7241 0.0
C219 C 0.32277 0.70443 0.70444 0.0
O220 O 0.29262 0.77188 0.67137 0.0
O221 O 0.31128 0.82725 0.70974 0.0
O222 O 0.30066 0.78888 0.78332 0.0
O223 O 0.34176 0.7966 0.74378 0.0
O224 O 0.22937 0.76329 0.80663 0.0
O225 O 0.24955 0.79733 0.76509 0.0
O226 O 0.2628 0.72405 0.82827 0.0
O227 O 0.23917 0.66803 0.79204 0.0
O228 O 0.25017 0.7061 0.71734 0.0
O229 O 0.20923 0.69684 0.7575 0.0
O230 O 0.32239 0.73213 0.69417 0.0
O231 O 0.30195 0.69774 0.73543 0.0
H232 H 0.32912 0.87659 0.65702 0.0
H233 H 0.30062 0.89737 0.63547 0.0
H234 H 0.20978 0.78993 0.6487 0.0
H235 H 0.23807 0.77025 0.67143 0.0
H236 H 0.22264 0.6274 0.85558 0.0
H237 H 0.25081 0.60479 0.87558 0.0
H238 H 0.34474 0.69126 0.8329 0.0
H239 H 0.31627 0.71278 0.81226 0.0
Pr240 Pr 0.53326 0.96764 0.98825 0.0
Pr241 Pr 0.50629 0.01821 0.02785 0.0
C242 C 0.55801 0.9273 0.93476 0.0
C243 C 0.58945 0.93834 0.91118 0.0
C244 C 0.6195 0.96131 0.92451 0.0
C245 C 0.64905 0.96945 0.90189 0.0
C246 C 0.64911 0.95516 0.86549 0.0
C247 C 0.61914 0.93505 0.85213 0.0
C248 C 0.5895 0.92642 0.87486 0.0
C249 C 0.56362 0.01562 0.0484 0.0
C250 C 0.56901 0.05611 0.97159 0.0
C251 C 0.47605 0.0549 0.07748 0.0
C252 C 0.44071 0.04043 0.08939 0.0
C253 C 0.41793 0.0117 0.06638 0.0
C254 C 0.3846 0.00097 0.07617 0.0
C255 C 0.37365 0.01824 0.10934 0.0
C256 C 0.39608 0.04429 0.13341 0.0
C257 C 0.42951 0.05548 0.1234 0.0
C258 C 0.47672 0.9702 0.96746 0.0
C259 C 0.47267 0.93102 0.04651 0.0
O260 O 0.53925 0.93892 0.93092 0.0
O261 O 0.55863 0.93094 0.96753 0.0
O262 O 0.55706 0.02715 0.0284 0.0
O263 O 0.55503 0.97862 0.03727 0.0
O264 O 0.55313 0.06608 1.00178 0.0
O265 O 0.56318 0.01962 0.95922 0.0
O266 O 0.48854 0.03763 0.08486 0.0
O267 O 0.48619 0.06021 0.04549 0.0
O268 O 0.48253 0.95881 0.98819 0.0
O269 O 0.48578 0.00724 0.97797 0.0
O270 O 0.48843 0.92068 0.0165 0.0
O271 O 0.47806 0.96737 0.05818 0.0
H272 H 0.62018 0.97179 0.95246 0.0
H273 H 0.67155 0.98464 0.91319 0.0
H274 H 0.61846 0.92424 0.82419 0.0
H275 H 0.56655 0.90953 0.8641 0.0
H276 H 0.42615 -0.00097 0.04021 0.0
H277 H 0.36778 0.98118 0.05716 0.0
H278 H 0.38825 0.05853 0.15895 0.0
H279 H 0.44674 0.07715 0.14161 0.0
Pr280 Pr 0.31172 0.27261 0.28463 0.0
Pr281 Pr 0.26607 0.25272 0.23804 0.0
C282 C 0.34314 0.27258 0.32891 0.0
C283 C 0.35303 0.24724 0.33442 0.0
C284 C 0.36375 0.25628 0.36603 0.0
C285 C 0.37449 0.23356 0.37135 0.0
C286 C 0.37477 0.20131 0.34507 0.0
C287 C 0.36341 0.19192 0.31355 0.0
C288 C 0.35263 0.21472 0.30827 0.0
C289 C 0.34463 0.31276 0.23037 0.0
C290 C 0.29214 0.19213 0.21935 0.0
C291 C 0.22797 0.24979 0.20002 0.0
C292 C 0.21962 0.27533 0.19237 0.0
C293 C 0.18638 0.26213 0.19246 0.0
C294 C 0.17713 0.28551 0.18594 0.0
C295 C 0.20098 0.32259 0.17905 0.0
C296 C 0.2344 0.33597 0.17902 0.0
C297 C 0.24367 0.31257 0.18589 0.0
C298 C 0.23488 0.2109 0.29127 0.0
C299 C 0.29244 0.33805 0.29448 0.0
O300 O 0.31161 0.26103 0.33486 0.0
O301 O 0.35826 0.28722 0.30111 0.0
O302 O 0.3223 0.27702 0.22649 0.0
O303 O 0.3514 0.32788 0.26221 0.0
O304 O 0.27984 0.20491 0.20546 0.0
O305 O 0.3028 0.21046 0.24999 0.0
O306 O 0.25723 0.25314 0.18708 0.0
O307 O 0.21795 0.2444 0.23192 0.0
O308 O 0.25538 0.24739 0.29597 0.0
O309 O 0.23042 0.19564 0.25878 0.0
O310 O 0.29882 0.32311 0.31302 0.0
O311 O 0.28442 0.31893 0.26297 0.0
H312 H 0.36408 0.28118 0.38655 0.0
H313 H 0.38252 0.24123 0.39614 0.0
H314 H 0.36354 0.16753 0.29264 0.0
H315 H 0.34441 0.20729 0.28366 0.0
H316 H 0.16749 0.23355 0.19752 0.0
H317 H 0.15126 0.27418 0.18561 0.0
H318 H 0.25323 0.36452 0.17391 0.0
H319 H 0.26949 0.32353 0.18612 0.0
Pr320 Pr 0.51772 0.53828 0.01088 0.0
Pr321 Pr 0.54469 0.48322 0.99832 0.0
C322 C 0.49869 0.58533 1.00338 0.0
C323 C 0.474 0.58551 0.98954 0.0
C324 C 0.4628 0.6126 0.00779 0.0
C325 C 0.44181 0.61607 0.99384 0.0
C326 C 0.4316 0.5926 0.96114 0.0
C327 C 0.44209 0.56455 0.94337 0.0
C328 C 0.46306 0.56103 0.95742 0.0
C329 C 0.48445 0.48722 0.05658 0.0
C330 C 0.48643 0.45156 0.95281 0.0
C331 C 0.56394 0.43617 0.00565 0.0
C332 C 0.58605 0.43466 0.0228 0.0
C333 C 0.61901 0.4451 0.00784 0.0
C334 C 0.63854 0.43985 0.02249 0.0
C335 C 0.62554 0.4238 0.05231 0.0
C336 C 0.59281 0.41421 0.06764 0.0
C337 C 0.57332 0.41943 0.05302 0.0
C338 C 0.57791 0.53499 0.95306 0.0
C339 C 0.57551 0.56931 0.05667 0.0
O340 O 0.52014 0.57617 0.98056 0.0
O341 O 0.48906 0.57182 0.03158 0.0
O342 O 0.49379 0.47775 0.02417 0.0
O343 O 0.49098 0.5236 0.06586 0.0
O344 O 0.50262 0.44069 0.9635 0.0
O345 O 0.49029 0.48743 0.96469 0.0
O346 O 0.53915 0.44067 0.02565 0.0
O347 O 0.5768 0.45418 0.97985 0.0
O348 O 0.56867 0.54398 0.98554 0.0
O349 O 0.57115 0.49848 0.94328 0.0
O350 O 0.56064 0.58085 0.0447 0.0
O351 O 0.57052 0.53295 0.04581 0.0
H352 H 0.47085 0.63172 0.03263 0.0
H353 H 0.43376 0.63741 0.00865 0.0
H354 H 0.43495 0.54613 0.91805 0.0
H355 H 0.47131 0.53982 0.9428 0.0
H356 H 0.62954 0.45647 0.98432 0.0
H357 H 0.6635 0.44719 0.00973 0.0
H358 H 0.58208 0.40232 0.09088 0.0
H359 H 0.54797 0.41073 0.06506 0.0
Pr360 Pr 0.79021 0.27172 0.22636 0.0
Pr361 Pr 0.76448 0.23003 0.27685 0.0
C362 C 0.79946 0.30567 0.17525 0.0
C363 C 0.7847 0.32333 0.16515 0.0
C364 C 0.7974 0.33544 0.13343 0.0
C365 C 0.78258 0.35004 0.12223 0.0
C366 C 0.75453 0.35267 0.14248 0.0
C367 C 0.74214 0.34088 0.17459 0.0
C368 C 0.75706 0.32632 0.18577 0.0
C369 C 0.83336 0.30721 0.27589 0.0
C370 C 0.73082 0.29459 0.29753 0.0
C371 C 0.7544 0.19559 0.32772 0.0
C372 C 0.77207 0.18266 0.3392 0.0
C373 C 0.75493 0.15623 0.36129 0.0
C374 C 0.77174 0.14504 0.37359 0.0
C375 C 0.80605 0.16026 0.36407 0.0
C376 C 0.82303 0.18633 0.34144 0.0
C377 C 0.80618 0.19738 0.32907 0.0
C378 C 0.72089 0.19476 0.22807 0.0
C379 C 0.82399 0.20711 0.206 0.0
O380 O 0.78177 0.26803 0.17358 0.0
O381 O 0.8145 0.32496 0.20281 0.0
O382 O 0.80271 0.29487 0.28273 0.0
O383 O 0.84293 0.30095 0.24227 0.0
O384 O 0.73257 0.2686 0.30894 0.0
O385 O 0.75007 0.2993 0.26543 0.0
O386 O 0.76764 0.2334 0.3318 0.0
O387 O 0.74321 0.1758 0.29787 0.0
O388 O 0.75152 0.20678 0.22072 0.0
O389 O 0.71178 0.20124 0.2617 0.0
O390 O 0.8203 0.23089 0.19347 0.0
O391 O 0.80659 0.20476 0.2392 0.0
H392 H 0.81867 0.33326 0.11708 0.0
H393 H 0.79319 0.35925 0.09764 0.0
H394 H 0.72031 0.34177 0.19067 0.0
H395 H 0.7466 0.31669 0.21016 0.0
H396 H 0.7286 0.14465 0.36942 0.0
H397 H 0.75801 0.12519 0.3912 0.0
H398 H 0.84935 0.19813 0.33321 0.0
H399 H 0.81982 0.21771 0.31189 0.0
Pr400 Pr 0.03315 0.46641 0.4812 0.0
Pr401 Pr 1.00689 0.52478 0.52911 0.0
C402 C 0.04696 0.41872 0.42464 0.0
C403 C 0.07876 0.42318 0.40495 0.0
C404 C 0.10748 0.45142 0.41995 0.0
C405 C 0.13785 0.45461 0.40264 0.0
C406 C 0.14008 0.42995 0.36973 0.0
C407 C 0.1114 0.40332 0.35381 0.0
C408 C 0.08084 0.3998 0.37146 0.0
C409 C 0.0737 0.51733 0.53386 0.0
C410 C 0.07106 0.55809 0.47095 0.0
C411 C 0.98713 0.56881 0.58433 0.0
C412 C 0.95622 0.56297 0.60754 0.0
C413 C 0.92617 0.54031 0.59426 0.0
C414 C 0.89731 0.53789 0.61599 0.0
C415 C 0.89801 0.55772 0.65144 0.0
C416 C 0.92776 0.57774 0.6652 0.0
C417 C 0.95673 0.58055 0.6433 0.0
C418 C 0.97879 0.47976 0.46738 0.0
C419 C 0.97083 0.43437 0.54365 0.0
O420 O 0.03936 0.44374 0.42261 0.0
O421 O 0.04104 0.41403 0.45654 0.0
O422 O 0.0492 0.51682 0.52892 0.0
O423 O 0.07764 0.48893 0.51098 0.0
O424 O 0.05626 0.56829 0.502 0.0
O425 O 0.06327 0.52115 0.45581 0.0
O426 O 1.00053 0.55004 0.5873 0.0
O427 O 0.98852 0.56855 0.55186 0.0
O428 O 0.98522 0.46772 0.48705 0.0
O429 O 0.98511 0.51598 0.48072 0.0
O430 O 0.99075 0.42551 0.51706 0.0
O431 O 0.97197 0.46881 0.55272 0.0
H432 H 0.10629 0.47025 0.44558 0.0
H433 H 0.15925 0.47507 0.41591 0.0
H434 H 0.11243 0.38445 0.32815 0.0
H435 H 0.05886 0.37843 0.35932 0.0
H436 H 0.92519 0.52576 0.56679 0.0
H437 H 0.87494 0.52256 0.6044 0.0
H438 H 0.92893 0.5927 0.69254 0.0
H439 H 0.97969 0.59743 0.65404 0.0
Pr440 Pr 0.7738 0.70996 0.23872 0.0
Pr441 Pr 0.79338 0.79351 0.26655 0.0
C442 C 0.75461 0.6341 0.2066 0.0
C443 C 0.76573 0.60652 0.20306 0.0
C444 C 0.79758 0.62061 0.20901 0.0
C445 C 0.80826 0.59446 0.20575 0.0
C446 C 0.78711 0.55368 0.19692 0.0
C447 C 0.75475 0.53975 0.19221 0.0
C448 C 0.74413 0.56605 0.19524 0.0
C449 C 0.8247 0.75135 0.28053 0.0
C450 C 0.82783 0.77274 0.18922 0.0
C451 C 0.81358 0.86766 0.30434 0.0
C452 C 0.79931 0.88681 0.33585 0.0
C453 C 0.8025 0.92268 0.33685 0.0
C454 C 0.78369 0.93742 0.36326 0.0
C455 C 0.76143 0.91634 0.38897 0.0
C456 C 0.76046 0.88212 0.38954 0.0
C457 C 0.77912 0.8673 0.36303 0.0
C458 C 0.74365 0.75329 0.22369 0.0
C459 C 0.7337 0.72944 0.31269 0.0
O460 O 0.77443 0.66288 0.19051 0.0
O461 O 0.74213 0.64539 0.23825 0.0
O462 O 0.82288 0.76241 0.2568 0.0
O463 O 0.79984 0.71703 0.28318 0.0
O464 O 0.83478 0.79853 0.2191 0.0
O465 O 0.80128 0.73775 0.18858 0.0
O466 O 0.82139 0.84398 0.30869 0.0
O467 O 0.79894 0.85368 0.27684 0.0
O468 O 0.74456 0.74119 0.24734 0.0
O469 O 0.76866 0.78787 0.22174 0.0
O470 O 0.72906 0.70472 0.28209 0.0
O471 O 0.76003 0.76459 0.31525 0.0
H472 H 0.81439 0.65186 0.21558 0.0
H473 H 0.83361 0.60637 0.20873 0.0
H474 H 0.7379 0.50863 0.18558 0.0
H475 H 0.71922 0.55482 0.19119 0.0
H476 H 0.81797 0.93804 0.31603 0.0
H477 H 0.78475 0.96368 0.36195 0.0
H478 H 0.74384 0.86561 0.40932 0.0
H479 H 0.77635 0.83954 0.3628 0.0
Pr480 Pr 0.76721 0.27998 0.75813 0.0
Pr481 Pr 0.767 0.20266 0.74935 0.0
C482 C 0.76971 0.34354 0.75025 0.0
C483 C 0.75224 0.35639 0.73801 0.0
C484 C 0.74814 0.38863 0.7589 0.0
C485 C 0.73325 0.40285 0.74734 0.0
C486 C 0.72223 0.38523 0.71449 0.0
C487 C 0.72612 0.35266 0.69367 0.0
C488 C 0.74089 0.33831 0.70533 0.0
C489 C 0.72338 0.23577 0.80744 0.0
C490 C 0.71953 0.19764 0.70446 0.0
C491 C 0.76602 0.14056 0.7586 0.0
C492 C 0.78465 0.12997 0.77209 0.0
C493 C 0.81252 0.12718 0.75161 0.0
C494 C 0.82871 0.11494 0.76369 0.0
C495 C 0.81746 0.10506 0.79654 0.0
C496 C 0.78969 0.1081 0.8171 0.0
C497 C 0.77343 0.1202 0.80496 0.0
C498 C 0.81158 0.24774 0.70077 0.0
C499 C 0.81564 0.28564 0.8014 0.0
O500 O 0.78383 0.32428 0.72663 0.0
O501 O 0.7564 0.33083 0.77923 0.0
O502 O 0.72803 0.22209 0.77503 0.0
O503 O 0.74093 0.27376 0.81554 0.0
O504 O 0.72313 0.1767 0.71926 0.0
O505 O 0.73618 0.23644 0.71217 0.0
O506 O 0.75056 0.15865 0.78143 0.0
O507 O 0.77891 0.15289 0.72943 0.0
O508 O 0.80616 0.26061 0.73315 0.0
O509 O 0.79455 0.20972 0.69215 0.0
O510 O 0.81273 0.30573 0.78504 0.0
O511 O 0.79775 0.24695 0.79581 0.0
H512 H 0.7569 0.40322 0.78406 0.0
H513 H 0.73101 0.42821 0.76385 0.0
H514 H 0.71754 0.33811 0.66842 0.0
H515 H 0.74364 0.31331 0.68869 0.0
H516 H 0.82176 0.13415 0.72604 0.0
H517 H 0.85022 0.11343 0.74731 0.0
H518 H 0.78004 0.10037 0.84234 0.0
H519 H 0.75174 0.12142 0.82119 0.0
Pr520 Pr 0.79844 0.77308 0.78081 0.0
Pr521 Pr 0.75713 0.75138 0.7276 0.0
C522 C 0.83015 0.77818 0.82765 0.0
C523 C 0.83411 0.75316 0.84178 0.0
C524 C 0.85616 0.77092 0.86584 0.0
C525 C 0.86314 0.74828 0.87704 0.0
C526 C 0.8481 0.70731 0.8644 0.0
C527 C 0.82526 0.68945 0.84087 0.0
C528 C 0.81833 0.71225 0.8296 0.0
C529 C 0.83486 0.81002 0.72451 0.0
C530 C 0.77316 0.68579 0.72601 0.0
C531 C 0.72784 0.74925 0.67988 0.0
C532 C 0.72214 0.77622 0.67069 0.0
C533 C 0.70547 0.76289 0.64233 0.0
C534 C 0.69639 0.78653 0.63572 0.0
C535 C 0.70374 0.82387 0.65751 0.0
C536 C 0.72163 0.83773 0.68508 0.0
C537 C 0.73072 0.81408 0.69167 0.0
C538 C 0.7202 0.71457 0.78375 0.0
C539 C 0.78016 0.83739 0.78501 0.0
O540 O 0.80164 0.77726 0.83625 0.0
O541 O 0.84264 0.77921 0.79487 0.0
O542 O 0.81278 0.77423 0.72133 0.0
O543 O 0.83906 0.82694 0.75695 0.0
O544 O 0.769 0.69992 0.70472 0.0
O545 O 0.77992 0.7061 0.75785 0.0
O546 O 0.75809 0.75543 0.67341 0.0
O547 O 0.71242 0.74027 0.71014 0.0
O548 O 0.7428 0.75018 0.78705 0.0
O549 O 0.71507 0.6981 0.75147 0.0
O550 O 0.7854 0.82328 0.80534 0.0
O551 O 0.77334 0.81767 0.7531 0.0
H552 H 0.86878 0.80252 0.87519 0.0
H553 H 0.8813 0.76314 0.89462 0.0
H554 H 0.81304 0.65798 0.83087 0.0
H555 H 0.80129 0.6981 0.81086 0.0
H556 H 0.6985 0.73366 0.62599 0.0
H557 H 0.68238 0.7749 0.61446 0.0
H558 H 0.72806 0.86662 0.70186 0.0
H559 H 0.74358 0.82493 0.71371 0.0
Pr560 Pr 0.54122 0.51329 0.53136 0.0
Pr561 Pr 0.51381 0.48765 0.4716 0.0
C562 C 0.55891 0.5144 0.58833 0.0
C563 C 0.5776 0.50253 0.59982 0.0
C564 C 0.6122 0.52047 0.59304 0.0
C565 C 0.62896 0.50908 0.60529 0.0
C566 C 0.61145 0.47951 0.62444 0.0
C567 C 0.57687 0.46169 0.63111 0.0
C568 C 0.5602 0.47316 0.61905 0.0
C569 C 0.57859 0.56776 0.48945 0.0
C570 C 0.57164 0.45355 0.45608 0.0
C571 C 0.49448 0.48447 0.41484 0.0
C572 C 0.47302 0.49339 0.40508 0.0
C573 C 0.47725 0.49514 0.37034 0.0
C574 C 0.4591 0.50661 0.36077 0.0
C575 C 0.43635 0.5166 0.38583 0.0
C576 C 0.4317 0.51407 0.4206 0.0
C577 C 0.45 0.50268 0.43018 0.0
C578 C 0.47629 0.4346 0.51486 0.0
C579 C 0.48328 0.54726 0.54667 0.0
O580 O 0.53221 0.486 0.5751 0.0
O581 O 0.575 0.54391 0.57293 0.0
O582 O 0.56777 0.53121 0.47891 0.0
O583 O 0.56956 0.5776 0.52289 0.0
O584 O 0.55115 0.45581 0.44147 0.0
O585 O 0.57091 0.47231 0.49101 0.0
O586 O 0.52002 0.51472 0.42888 0.0
O587 O 0.4804 0.45478 0.42962 0.0
O588 O 0.48729 0.47114 0.5243 0.0
O589 O 0.48547 0.42378 0.48166 0.0
O590 O 0.50396 0.54531 0.56128 0.0
O591 O 0.48392 0.52834 0.5118 0.0
H592 H 0.62632 0.54328 0.57838 0.0
H593 H 0.6556 0.52317 0.59951 0.0
H594 H 0.56266 0.4393 0.64623 0.0
H595 H 0.53355 0.45916 0.62503 0.0
H596 H 0.49501 0.48821 0.35066 0.0
H597 H 0.46292 0.50773 0.33371 0.0
H598 H 0.41457 0.52188 0.44056 0.0
H599 H 0.44663 0.50182 0.45723 0.0
Pr600 Pr 1.01686 0.5238 0.99737 0.0
Pr601 Pr 1.01388 0.46495 0.02848 0.0
C602 C 1.01704 0.56289 0.95669 0.0
C603 C 0.99569 0.57296 0.94791 0.0
C604 C 1.00482 0.61258 0.95392 0.0
C605 C 0.9861 0.62329 0.94449 0.0
C606 C 0.9579 0.59461 0.92843 0.0
C607 C 0.94846 0.55481 0.92284 0.0
C608 C 0.96716 0.54406 0.93249 0.0
C609 C 0.05374 0.55773 0.05206 0.0
C610 C 0.95849 0.49591 0.06197 0.0
C611 C 1.01429 0.42699 0.06975 0.0
C612 C 0.0378 0.42155 0.07973 0.0
C613 C 0.02607 0.38884 0.09306 0.0
C614 C 0.04789 0.38288 0.10264 0.0
C615 C 0.08192 0.40957 0.09903 0.0
C616 C 0.09362 0.44259 0.08583 0.0
C617 C 0.0717 0.44847 0.07612 0.0
C618 C 0.97755 0.43095 0.97338 0.0
C619 C 0.07222 0.49284 0.96413 0.0
O620 O 1.01108 0.52646 0.94591 0.0
O621 O 0.02602 0.5796 0.98786 0.0
O622 O 0.05236 0.52886 0.0276 0.0
O623 O 0.03652 0.57126 0.04833 0.0
O624 O 0.97422 0.4809 0.06745 0.0
O625 O 0.96722 0.50993 0.03403 0.0
O626 O 1.01718 0.46206 0.08095 0.0
O627 O 1.00801 0.41062 0.03751 0.0
O628 O 0.97846 0.45962 0.9979 0.0
O629 O 0.99458 0.41742 0.97757 0.0
O630 O 0.05601 0.50697 0.95812 0.0
O631 O 0.06397 0.47993 0.99262 0.0
H632 H 0.0267 0.63539 0.96574 0.0
H633 H 0.99374 0.65416 0.94983 0.0
H634 H 0.92704 0.53199 0.9103 0.0
H635 H 0.95949 0.51321 0.92749 0.0
H636 H 0.99996 0.3679 0.09611 0.0
H637 H 0.03805 0.35753 0.11326 0.0
H638 H 0.11971 0.4635 0.08254 0.0
H639 H 0.08118 0.47389 0.06573 0.0
C640 C 0.17219 0.1979 0.8528 0.0
C641 C 0.20616 0.22249 0.85339 0.0
C642 C 0.1518 0.17724 0.87925 0.0
C643 C 0.16586 0.18013 0.90645 0.0
C644 C 0.2 0.20637 0.90803 0.0
C645 C 0.21971 0.22764 0.88165 0.0
C646 C 0.11547 0.15055 0.8769 0.0
C647 C 0.2162 0.20982 0.93605 0.0
C648 C 0.10721 0.1352 0.98402 0.0
C649 C 0.10281 0.09701 0.97287 0.0
C650 C 0.12804 0.16292 0.96306 0.0
C651 C 0.14549 0.15246 0.93057 0.0
C652 C 0.14189 0.11426 0.91988 0.0
C653 C 0.12031 0.08694 0.94087 0.0
C654 C 0.13048 0.20288 0.97507 0.0
C655 C 0.16042 0.10194 0.88586 0.0
H656 H 0.16171 0.19379 0.83087 0.0
H657 H 0.24608 0.24609 0.88181 0.0
H658 H 0.10983 0.11951 0.86954 0.0
H659 H 0.10056 0.15494 0.90268 0.0
H660 H 0.10767 0.15558 0.85712 0.0
H661 H 0.24194 0.23445 0.93602 0.0
H662 H 0.20195 0.21413 0.96231 0.0
H663 H 0.21657 0.18216 0.93165 0.0
H664 H 0.09358 0.14305 0.00865 0.0
H665 H 0.11716 0.05753 0.9322 0.0
H666 H 0.1202 0.20651 0.95664 0.0
H667 H 0.15665 0.2262 0.97487 0.0
H668 H 0.11691 0.2073 1.00181 0.0
H669 H 0.15169 0.10129 0.86348 0.0
H670 H 0.1571 0.07246 0.88276 0.0
H671 H 0.18714 0.12349 0.88442 0.0
C672 C 0.13075 0.91863 0.10764 0.0
C673 C 0.12865 0.95266 0.12684 0.0
C674 C 0.14626 0.90488 0.11913 0.0
C675 C 0.16039 0.92578 0.15048 0.0
C676 C 0.15864 0.96032 0.16985 0.0
C677 C 0.14281 0.97327 0.15786 0.0
C678 C 0.14719 0.8677 0.09788 0.0
C679 C 0.17277 0.98314 0.20378 0.0
C680 C 0.175 0.87518 0.20042 0.0
C681 C 0.2089 0.88791 0.19031 0.0
C682 C 0.15879 0.88658 0.18715 0.0
C683 C 0.17684 0.91147 0.16319 0.0
C684 C 0.21086 0.92358 0.15218 0.0
C685 C 0.22647 0.91183 0.16592 0.0
C686 C 0.12231 0.87205 0.19888 0.0
C687 C 0.23107 0.95007 0.12673 0.0
H688 H 0.12033 0.90269 0.08343 0.0
H689 H 0.14087 -0.00085 0.17331 0.0
H690 H 0.17311 0.87377 0.08937 0.0
H691 H 0.13499 0.84576 0.11426 0.0
H692 H 0.13479 0.85463 0.07431 0.0
H693 H 0.1738 0.01217 0.21297 0.0
H694 H 0.15726 0.96622 0.22436 0.0
H695 H 0.19796 0.98769 0.20078 0.0
H696 H 0.16101 0.85607 0.21868 0.0
H697 H 0.25272 0.92228 0.1582 0.0
H698 H 0.10912 0.85728 0.17578 0.0
H699 H 0.11794 0.89721 0.21332 0.0
H700 H 0.11146 0.85119 0.21615 0.0
H701 H 0.21862 0.93893 0.10355 0.0
H702 H 0.25612 0.95318 0.11762 0.0
H703 H 0.23347 0.97942 0.13975 0.0
C704 C 0.46521 0.89655 0.42873 0.0
C705 C 0.45283 0.9054 0.46413 0.0
C706 C 0.44488 0.87896 0.4027 0.0
C707 C 0.41148 0.87018 0.41244 0.0
C708 C 0.39897 0.87931 0.44821 0.0
C709 C 0.41976 0.89659 0.47364 0.0
C710 C 0.45914 0.86978 0.36483 0.0
C711 C 0.36363 0.87089 0.45966 0.0
C712 C 0.3635 0.85342 0.34473 0.0
C713 C 0.34492 0.81231 0.33613 0.0
C714 C 0.38562 0.87273 0.36919 0.0
C715 C 0.38925 0.85037 0.38539 0.0
C716 C 0.3709 0.80892 0.37651 0.0
C717 C 0.34897 0.79043 0.35208 0.0
C718 C 0.40479 0.91703 0.37805 0.0
C719 C 0.37414 0.78403 0.39312 0.0
H720 H 0.49083 0.9035 0.42138 0.0
H721 H 0.41022 0.90386 0.50099 0.0
H722 H 0.44533 0.83785 0.35353 0.0
H723 H 0.45648 0.88507 0.34945 0.0
H724 H 0.48564 0.87872 0.36162 0.0
H725 H 0.35805 0.88088 0.48841 0.0
H726 H 0.35835 0.8857 0.4463 0.0
H727 H 0.34671 0.83893 0.45199 0.0
H728 H 0.36061 0.87061 0.33255 0.0
H729 H 0.33485 0.75869 0.34565 0.0
H730 H 0.43162 0.92728 0.37356 0.0
H731 H 0.3981 0.92832 0.40621 0.0
H732 H 0.40002 0.93011 0.36229 0.0
H733 H 0.4003 0.79131 0.38893 0.0
H734 H 0.35906 0.75212 0.38239 0.0
H735 H 0.36628 0.7904 0.42182 0.0
C736 C 0.3076 0.03288 0.60717 0.0
C737 C 0.3146 0.06858 0.60243 0.0
C738 C 0.32931 0.01781 0.59089 0.0
C739 C 0.35865 0.03924 0.56975 0.0
C740 C 0.36413 0.07315 0.5621 0.0
C741 C 0.34186 0.08735 0.57848 0.0
C742 C 0.32235 0.98101 0.59893 0.0
C743 C 0.39506 0.09662 0.53942 0.0
C744 C 0.4354 0.04064 0.57522 0.0
C745 C 0.44046 0.01801 0.54234 0.0
C746 C 0.40855 0.04741 0.5845 0.0
C747 C 0.38591 0.03021 0.56057 0.0
C748 C 0.39025 0.00607 0.5278 0.0
C749 C 0.41783 0.0007 0.51885 0.0
C750 C 0.40489 0.07377 0.61959 0.0
C751 C 0.36616 0.98646 0.50205 0.0
H752 H 0.28656 0.01828 0.62571 0.0
H753 H 0.34687 0.11451 0.57423 0.0
H754 H 0.32721 0.96123 0.5747 0.0
H755 H 0.33899 0.98883 0.61709 0.0
H756 H 0.2965 0.96488 0.61139 0.0
H757 H 0.39351 0.11912 0.53242 0.0
H758 H 0.41645 0.11171 0.5537 0.0
H759 H 0.39994 0.07715 0.51495 0.0
H760 H 0.45298 0.05399 0.59327 0.0
H761 H 0.42155 0.98265 0.49353 0.0
H762 H 0.38068 0.05774 0.63505 0.0
H763 H 0.40564 0.09939 0.61567 0.0
H764 H 0.42461 0.08468 0.63513 0.0
H765 H 0.34046 0.97165 0.51534 0.0
H766 H 0.37068 0.96451 0.47994 0.0
H767 H 0.3683 0.00888 0.49118 0.0
C768 C 0.14408 0.86388 0.54328 0.0
C769 C 0.14281 0.89907 0.55668 0.0
C770 C 0.16345 0.85666 0.55617 0.0
C771 C 0.18222 0.8854 0.58305 0.0
C772 C 0.18172 0.92138 0.59612 0.0
C773 C 0.16209 0.92782 0.58274 0.0
C774 C 0.16324 0.81787 0.54156 0.0
C775 C 0.2015 0.95281 0.62464 0.0
C776 C 0.20302 0.84955 0.64119 0.0
C777 C 0.2354 0.85727 0.6264 0.0
C778 C 0.18564 0.85893 0.62754 0.0
C779 C 0.20105 0.8769 0.59856 0.0
C780 C 0.23397 0.88563 0.58395 0.0
C781 C 0.25071 0.87562 0.59796 0.0
C782 C 0.15057 0.84914 0.64392 0.0
C783 C 0.25143 0.90531 0.55337 0.0
H784 H 0.12973 0.84176 0.52273 0.0
H785 H 0.16108 0.95496 0.59349 0.0
H786 H 0.18877 0.82285 0.53152 0.0
H787 H 0.15334 0.80175 0.56269 0.0
H788 H 0.14807 0.79906 0.52003 0.0
H789 H 0.1966 0.97792 0.6337 0.0
H790 H 0.19579 0.9406 0.64747 0.0
H791 H 0.22817 0.96374 0.6148 0.0
H792 H 0.19117 0.83617 0.6636 0.0
H793 H 0.27561 0.88148 0.58613 0.0
H794 H 0.13372 0.82848 0.62415 0.0
H795 H 0.14823 0.87607 0.65284 0.0
H796 H 0.14229 0.83566 0.66663 0.0
H797 H 0.23654 0.88883 0.53156 0.0
H798 H 0.27618 0.90763 0.54346 0.0
H799 H 0.25441 0.93526 0.56146 0.0
C800 C 0.38716 0.83753 0.7959 0.0
C801 C 0.35292 0.82232 0.80476 0.0
C802 C 0.40806 0.85984 0.82182 0.0
C803 C 0.39445 0.86724 0.8575 0.0
C804 C 0.35979 0.8511 0.86662 0.0
C805 C 0.33949 0.82881 0.84019 0.0
C806 C 0.44481 0.87623 0.81093 0.0
C807 C 0.34418 0.85821 0.90425 0.0
C808 C 0.44532 0.90323 0.93007 0.0
C809 C 0.45647 0.94369 0.93879 0.0
C810 C 0.42546 0.878 0.90342 0.0
C811 C 0.41645 0.89357 0.8851 0.0
C812 C 0.42797 0.93448 0.89365 0.0
C813 C 0.44785 0.95897 0.92026 0.0
C814 C 0.41387 0.83464 0.89505 0.0
C815 C 0.41896 0.95239 0.87495 0.0
H816 H 0.39769 0.83244 0.7686 0.0
H817 H 0.31303 0.81696 0.84729 0.0
H818 H 0.45724 0.90874 0.81733 0.0
H819 H 0.45466 0.86765 0.8257 0.0
H820 H 0.45137 0.86594 0.78245 0.0
H821 H 0.31681 0.84217 0.90719 0.0
H822 H 0.35199 0.84899 0.92063 0.0
H823 H 0.35263 0.89003 0.91463 0.0
H824 H 0.45199 0.89125 0.94421 0.0
H825 H 0.45642 0.99021 0.92678 0.0
H826 H 0.42164 0.82457 0.86691 0.0
H827 H 0.38655 0.81801 0.89987 0.0
H828 H 0.4237 0.82726 0.91099 0.0
H829 H 0.42708 0.94545 0.84636 0.0
H830 H 0.43028 0.98476 0.88432 0.0
H831 H 0.39179 0.93963 0.87891 0.0
C832 C 0.32133 0.01202 0.14766 0.0
C833 C 0.34222 0.01815 0.11584 0.0
C834 C 0.30084 0.02904 0.16115 0.0
C835 C 0.30303 0.05408 0.14311 0.0
C836 C 0.31963 0.05446 0.10835 0.0
C837 C 0.33871 0.03571 0.09481 0.0
C838 C 0.2807 0.02491 0.19687 0.0
C839 C 0.32244 0.08048 0.08794 0.0
C840 C 0.2688 0.12478 0.18162 0.0
C841 C 0.294 0.15635 0.20042 0.0
C842 C 0.27057 0.09043 0.16345 0.0
C843 C 0.29858 0.08834 0.16372 0.0
C844 C 0.32424 0.12064 0.18255 0.0
C845 C 0.32122 0.15389 0.20126 0.0
C846 C 0.24203 0.05658 0.145 0.0
C847 C 0.35543 0.12074 0.18241 0.0
H848 H 0.32347 0.99749 0.16351 0.0
H849 H 0.35466 0.04 0.06996 0.0
H850 H 0.29596 0.04818 0.21724 0.0
H851 H 0.25878 0.02799 0.19964 0.0
H852 H 0.27251 0.99608 0.20174 0.0
H853 H 0.33158 0.0727 0.05973 0.0
H854 H 0.29838 0.07859 0.09026 0.0
H855 H 0.34003 0.11144 0.09872 0.0
H856 H 0.24744 0.12669 0.18163 0.0
H857 H 0.3407 0.17859 0.21573 0.0
H858 H 0.2496 0.03786 0.12208 0.0
H859 H 0.22931 0.06707 0.13625 0.0
H860 H 0.22393 0.0381 0.16372 0.0
H861 H 0.34966 0.09912 0.19684 0.0
H862 H 0.37432 0.1499 0.19497 0.0
H863 H 0.36634 0.1123 0.1552 0.0
C864 C 0.13946 0.06143 0.41849 0.0
C865 C 0.11049 0.06122 0.43881 0.0
C866 C 0.16085 0.0888 0.39739 0.0
C867 C 0.15306 0.1166 0.39602 0.0
C868 C 0.12422 0.11716 0.41718 0.0
C869 C 0.10355 0.08979 0.43857 0.0
C870 C 0.1914 0.0872 0.37573 0.0
C871 C 0.11463 0.14587 0.41641 0.0
C872 C 0.2205 0.20298 0.35382 0.0
C873 C 0.21383 0.18848 0.3192 0.0
C874 C 0.2008 0.18027 0.37932 0.0
C875 C 0.17349 0.14244 0.37015 0.0
C876 C 0.16638 0.12822 0.33539 0.0
C877 C 0.18667 0.15114 0.31047 0.0
C878 C 0.20963 0.19636 0.41587 0.0
C879 C 0.13748 0.0884 0.32427 0.0
H880 H 0.14531 0.03978 0.41876 0.0
H881 H 0.08178 0.09053 0.45482 0.0
H882 H 0.18909 0.07794 0.34751 0.0
H883 H 0.21341 0.11672 0.37999 0.0
H884 H 0.19559 0.06637 0.38207 0.0
H885 H 0.09237 0.14384 0.43553 0.0
H886 H 0.13525 0.17628 0.42219 0.0
H887 H 0.10959 0.14014 0.3898 0.0
H888 H 0.24143 0.23171 0.3608 0.0
H889 H 0.18114 0.1396 0.28386 0.0
H890 H 0.21593 0.17718 0.42183 0.0
H891 H 0.18817 0.19645 0.43529 0.0
H892 H 0.23085 0.22664 0.41925 0.0
H893 H 0.14111 0.06517 0.32665 0.0
H894 H 0.13418 0.08247 0.29681 0.0
H895 H 0.11444 0.08613 0.34172 0.0
C896 C 0.86879 0.17781 0.19643 0.0
C897 C 0.84735 0.18345 0.18295 0.0
C898 C 0.88999 0.15846 0.17635 0.0
C899 C 0.89178 0.13869 0.13864 0.0
C900 C 0.86932 0.1433 0.12513 0.0
C901 C 0.84994 0.16487 0.14554 0.0
C902 C 0.91202 0.1612 0.19733 0.0
C903 C 0.86386 0.1238 0.08761 0.0
C904 C 0.95747 0.09927 0.06101 0.0
C905 C 0.95977 0.07 0.07064 0.0
C906 C 0.9381 0.12086 0.08147 0.0
C907 C 0.91541 0.11485 0.11502 0.0
C908 C 0.91692 0.08437 0.12435 0.0
C909 C 0.93809 0.06501 0.10426 0.0
C910 C 0.94384 0.15238 0.06606 0.0
C911 C 0.89461 0.06961 0.15635 0.0
H912 H 0.8702 0.19016 0.22415 0.0
H913 H 0.83526 0.16594 0.13105 0.0
H914 H 0.89718 0.13888 0.21345 0.0
H915 H 0.93276 0.15666 0.1805 0.0
H916 H 0.92238 0.19036 0.21567 0.0
H917 H 0.87855 0.14624 0.0716 0.0
H918 H 0.87084 0.10038 0.07679 0.0
H919 H 0.83755 0.1107 0.08519 0.0
H920 H 0.97237 0.10705 0.03654 0.0
H921 H 0.93647 0.04383 0.11548 0.0
H922 H 0.9368 0.17381 0.08562 0.0
H923 H 0.92935 0.13856 0.04409 0.0
H924 H 0.97022 0.16853 0.05504 0.0
H925 H 0.90924 0.08334 0.17818 0.0
H926 H 0.88419 0.03739 0.15148 0.0
H927 H 0.87391 0.07611 0.16445 0.0
C928 C 0.12308 0.58509 0.42965 0.0
C929 C 0.09628 0.58876 0.45179 0.0
C930 C 0.1464 0.61317 0.40999 0.0
C931 C 0.14204 0.6448 0.41163 0.0
C932 C 0.11521 0.64887 0.43435 0.0
C933 C 0.09292 0.62109 0.45463 0.0
C934 C 0.17527 0.60852 0.38689 0.0
C935 C 0.10915 0.68147 0.43601 0.0
C936 C 0.21264 0.73237 0.37496 0.0
C937 C 0.20622 0.72109 0.34064 0.0
C938 C 0.19209 0.70769 0.39846 0.0
C939 C 0.164 0.67172 0.38752 0.0
C940 C 0.157 0.66096 0.35311 0.0
C941 C 0.17857 0.68547 0.32989 0.0
C942 C 0.20091 0.7195 0.43456 0.0
C943 C 0.1268 0.62345 0.34073 0.0
H944 H 0.12583 0.56025 0.42777 0.0
H945 H 0.07203 0.62373 0.47161 0.0
H946 H 0.1728 0.6014 0.35895 0.0
H947 H 0.19865 0.63643 0.39154 0.0
H948 H 0.17704 0.58489 0.39149 0.0
H949 H 0.0879 0.68138 0.45603 0.0
H950 H 0.13135 0.71038 0.44207 0.0
H951 H 0.10421 0.6783 0.41009 0.0
H952 H 0.23435 0.75976 0.38299 0.0
H953 H 0.17367 0.6769 0.30327 0.0
H954 H 0.20467 0.69697 0.43828 0.0
H955 H 0.18041 0.72108 0.45485 0.0
H956 H 0.22365 0.74833 0.43892 0.0
H957 H 0.12846 0.5978 0.34055 0.0
H958 H 0.12381 0.62076 0.31398 0.0
H959 H 0.10436 0.62213 0.359 0.0
C960 C 0.58823 0.88443 0.62478 0.0
C961 C 0.60136 0.92422 0.62612 0.0
C962 C 0.60673 0.871 0.631 0.0
C963 C 0.6394 0.89793 0.63824 0.0
C964 C 0.65282 0.93822 0.63967 0.0
C965 C 0.63351 0.95096 0.63386 0.0
C966 C 0.5913 0.8279 0.62975 0.0
C967 C 0.68769 0.96771 0.64683 0.0
C968 C 0.67432 0.8632 0.68196 0.0
C969 C 0.69063 0.84689 0.65296 0.0
C970 C 0.65857 0.88129 0.67775 0.0
C971 C 0.65942 0.88344 0.64374 0.0
C972 C 0.67721 0.86871 0.61458 0.0
C973 C 0.6924 0.85036 0.61952 0.0
C974 C 0.63963 0.89625 0.7095 0.0
C975 C 0.67919 0.87104 0.57798 0.0
H976 H 0.56324 0.86381 0.61918 0.0
H977 H 0.64375 0.98171 0.63464 0.0
H978 H 0.59204 0.82404 0.65486 0.0
H979 H 0.56528 0.81104 0.62487 0.0
H980 H 0.60555 0.81518 0.60872 0.0
H981 H 0.69429 0.99802 0.64752 0.0
H982 H 0.69095 0.96726 0.67223 0.0
H983 H 0.7052 0.95975 0.62625 0.0
H984 H 0.67261 0.86027 0.70784 0.0
H985 H 0.70532 0.83821 0.59711 0.0
H986 H 0.61285 0.87785 0.70778 0.0
H987 H 0.64663 0.92672 0.71039 0.0
H988 H 0.64389 0.89565 0.73435 0.0
H989 H 0.65443 0.85186 0.56961 0.0
H990 H 0.69659 0.86178 0.5587 0.0
H991 H 0.68711 0.90143 0.57745 0.0
C992 C 0.4374 0.42915 0.92555 0.0
C993 C 0.46193 0.4225 0.92833 0.0
C994 C 0.41346 0.40175 0.90335 0.0
C995 C 0.4143 0.36701 0.8827 0.0
C996 C 0.43918 0.36027 0.88511 0.0
C997 C 0.46243 0.38784 0.90814 0.0
C998 C 0.38713 0.40994 0.90215 0.0
C999 C 0.4415 0.32416 0.86301 0.0
C1000 C 0.33611 0.28088 0.8457 0.0
C1001 C 0.34158 0.28696 0.81227 0.0
C1002 C 0.35959 0.3065 0.86885 0.0
C1003 C 0.38962 0.33838 0.85798 0.0
C1004 C 0.39557 0.34379 0.82378 0.0
C1005 C 0.37134 0.31841 0.80159 0.0
C1006 C 0.35182 0.30014 0.90531 0.0
C1007 C 0.42742 0.37675 0.81071 0.0
H1008 H 0.43653 0.45562 0.94122 0.0
H1009 H 0.48132 0.38246 0.90996 0.0
H1010 H 0.38888 0.41205 0.87533 0.0
H1011 H 0.36235 0.38538 0.90856 0.0
H1012 H 0.38918 0.43761 0.92071 0.0
H1013 H 0.46237 0.32327 0.86772 0.0
H1014 H 0.4183 0.29739 0.86863 0.0
H1015 H 0.4447 0.32323 0.83484 0.0
H1016 H 0.31299 0.25686 0.85419 0.0
H1017 H 0.37572 0.32318 0.77572 0.0
H1018 H 0.35159 0.3262 0.9249 0.0
H1019 H 0.37123 0.29672 0.91015 0.0
H1020 H 0.32758 0.27385 0.90965 0.0
H1021 H 0.42942 0.4054 0.82644 0.0
H1022 H 0.42919 0.37537 0.7827 0.0
H1023 H 0.44876 0.37577 0.81396 0.0
C1024 C 0.84301 0.77027 0.33848 0.0
C1025 C 0.84936 0.77696 0.3051 0.0
C1026 C 0.86517 0.79642 0.36289 0.0
C1027 C 0.89477 0.82957 0.35342 0.0
C1028 C 0.90164 0.8357 0.31932 0.0
C1029 C 0.87871 0.80964 0.29579 0.0
C1030 C 0.85644 0.78921 0.39917 0.0
C1031 C 0.93305 0.87016 0.3078 0.0
C1032 C 0.93768 0.92037 0.42357 0.0
C1033 C 0.96304 0.91576 0.42734 0.0
C1034 C 0.91497 0.8922 0.40027 0.0
C1035 C 0.91793 0.85877 0.37951 0.0
C1036 C 0.9435 0.85394 0.38311 0.0
C1037 C 0.96549 0.88222 0.40722 0.0
C1038 C 0.88776 0.89825 0.39785 0.0
C1039 C 0.94799 0.81921 0.36103 0.0
H1040 H 0.82018 0.74528 0.34593 0.0
H1041 H 0.88372 0.81494 0.27 0.0
H1042 H 0.87627 0.78737 0.40508 0.0
H1043 H 0.85434 0.81418 0.41885 0.0
H1044 H 0.83282 0.76179 0.40226 0.0
H1045 H 0.93578 0.8693 0.27971 0.0
H1046 H 0.93336 0.89794 0.32371 0.0
H1047 H 0.95473 0.87069 0.31216 0.0
H1048 H 0.93528 0.94591 0.43923 0.0
H1049 H 0.98502 0.87841 0.4098 0.0
H1050 H 0.86342 0.87239 0.40278 0.0
H1051 H 0.89035 0.90111 0.37107 0.0
H1052 H 0.88793 0.92485 0.41686 0.0
H1053 H 0.92522 0.79151 0.36532 0.0
H1054 H 0.96896 0.81955 0.36699 0.0
H1055 H 0.95239 0.81906 0.33286 0.0
C1056 C 0.45938 0.59207 0.60613 0.0
C1057 C 0.45962 0.57036 0.56953 0.0
C1058 C 0.43924 0.61255 0.62662 0.0
C1059 C 0.41477 0.61404 0.61364 0.0
C1060 C 0.41463 0.59185 0.5767 0.0
C1061 C 0.43558 0.57224 0.55673 0.0
C1062 C 0.4455 0.63381 0.6637 0.0
C1063 C 0.39116 0.58744 0.55657 0.0
C1064 C 0.34711 0.65024 0.68982 0.0
C1065 C 0.34633 0.68124 0.68136 0.0
C1066 C 0.36721 0.62959 0.66968 0.0
C1067 C 0.39098 0.63732 0.63715 0.0
C1068 C 0.39056 0.66889 0.62864 0.0
C1069 C 0.36971 0.68849 0.64903 0.0
C1070 C 0.36169 0.59773 0.68445 0.0
C1071 C 0.41331 0.68392 0.5969 0.0
H1072 H 0.47601 0.59372 0.61997 0.0
H1073 H 0.43241 0.55738 0.52964 0.0
H1074 H 0.438 0.6568 0.67388 0.0
H1075 H 0.43141 0.6123 0.68064 0.0
H1076 H 0.47202 0.64767 0.66567 0.0
H1077 H 0.38067 0.55789 0.53882 0.0
H1078 H 0.3706 0.59194 0.57404 0.0
H1079 H 0.4049 0.60929 0.53997 0.0
H1080 H 0.331 0.64096 0.71337 0.0
H1081 H 0.37237 0.71099 0.63879 0.0
H1082 H 0.37623 0.61134 0.70635 0.0
H1083 H 0.36913 0.5768 0.66458 0.0
H1084 H 0.33533 0.58117 0.69533 0.0
H1085 H 0.43403 0.67746 0.58917 0.0
H1086 H 0.42362 0.71611 0.60173 0.0
H1087 H 0.39904 0.66998 0.57474 0.0
C1088 C 0.62068 0.08185 0.92961 0.0
C1089 C 0.5936 0.08561 0.95091 0.0
C1090 C 0.64327 0.10812 0.90804 0.0
C1091 C 0.63795 0.13802 0.90687 0.0
C1092 C 0.6108 0.14217 0.92865 0.0
C1093 C 0.58921 0.11625 0.95088 0.0
C1094 C 0.67248 0.10346 0.88607 0.0
C1095 C 0.60378 0.17294 0.92741 0.0
C1096 C 0.70751 0.22421 0.86769 0.0
C1097 C 0.7014 0.21127 0.83304 0.0
C1098 C 0.68734 0.20046 0.89199 0.0
C1099 C 0.65982 0.16358 0.88154 0.0
C1100 C 0.65329 0.15078 0.84664 0.0
C1101 C 0.67454 0.17452 0.82263 0.0
C1102 C 0.69578 0.2145 0.92858 0.0
C1103 C 0.62375 0.11212 0.83469 0.0
H1104 H 0.62422 0.0583 0.92985 0.0
H1105 H 0.56809 0.11891 0.96714 0.0
H1106 H 0.67021 0.09482 0.85789 0.0
H1107 H 0.69563 0.1318 0.89021 0.0
H1108 H 0.6746 0.08092 0.89227 0.0
H1109 H 0.58208 0.17287 0.94655 0.0
H1110 H 0.62548 0.20252 0.93288 0.0
H1111 H 0.5991 0.16769 0.90073 0.0
H1112 H 0.72858 0.25249 0.87556 0.0
H1113 H 0.66983 0.16462 0.79579 0.0
H1114 H 0.69941 0.19288 0.93428 0.0
H1115 H 0.67512 0.21683 0.94804 0.0
H1116 H 0.71848 0.24349 0.93226 0.0
H1117 H 0.62584 0.08759 0.83669 0.0
H1118 H 0.62122 0.10747 0.80721 0.0
H1119 H 0.60089 0.11082 0.85193 0.0
C1120 C 0.10081 0.36471 0.10004 0.0
C1121 C 0.10483 0.4026 0.1091 0.0
C1122 C 0.12035 0.35666 0.11156 0.0
C1123 C 0.14469 0.38732 0.13259 0.0
C1124 C 0.14981 0.42598 0.14073 0.0
C1125 C 0.12977 0.43318 0.12889 0.0
C1126 C 0.11421 0.31503 0.10211 0.0
C1127 C 0.17562 0.45941 0.16295 0.0
C1128 C 0.16304 0.34951 0.19065 0.0
C1129 C 0.19051 0.34591 0.17048 0.0
C1130 C 0.14911 0.36537 0.17969 0.0
C1131 C 0.16301 0.37789 0.14775 0.0
C1132 C 0.19214 0.37688 0.12853 0.0
C1133 C 0.20561 0.36089 0.14017 0.0
C1134 C 0.11822 0.36624 0.20115 0.0
C1135 C 0.20781 0.39021 0.09448 0.0
H1136 H 0.08202 0.34113 0.08416 0.0
H1137 H 0.13289 0.4625 0.13611 0.0
H1138 H 0.13742 0.31413 0.08936 0.0
H1139 H 0.10562 0.30382 0.12624 0.0
H1140 H 0.09541 0.29498 0.08419 0.0
H1141 H 0.17871 0.48826 0.16404 0.0
H1142 H 0.1685 0.45497 0.19003 0.0
H1143 H 0.19973 0.46013 0.15261 0.0
H1144 H 0.15166 0.3385 0.21441 0.0
H1145 H 0.2268 0.35804 0.12447 0.0
H1146 H 0.09696 0.34422 0.18679 0.0
H1147 H 0.12058 0.39538 0.20526 0.0
H1148 H 0.1127 0.35959 0.22711 0.0
H1149 H 0.19206 0.36867 0.07394 0.0
H1150 H 0.23274 0.39294 0.08547 0.0
H1151 H 0.2098 0.41888 0.09722 0.0
C1152 C 0.60251 0.60137 0.94041 0.0
C1153 C 0.59985 0.56406 0.93065 0.0
C1154 C 0.62257 0.62859 0.91882 0.0
C1155 C 0.64127 0.61881 0.88713 0.0
C1156 C 0.63939 0.58156 0.87776 0.0
C1157 C 0.61842 0.55454 0.89931 0.0
C1158 C 0.62307 0.66743 0.92948 0.0
C1159 C 0.65933 0.57002 0.84471 0.0
C1160 C 0.66657 0.66534 0.80999 0.0
C1161 C 0.69965 0.69382 0.81268 0.0
C1162 C 0.64706 0.6421 0.83484 0.0
C1163 C 0.66117 0.6463 0.86262 0.0
C1164 C 0.69459 0.67535 0.86567 0.0
C1165 C 0.71328 0.69916 0.84096 0.0
C1166 C 0.61145 0.61235 0.83082 0.0
C1167 C 0.71104 0.68014 0.89413 0.0
H1168 H 0.58837 0.60903 0.96463 0.0
H1169 H 0.61679 0.52594 0.89169 0.0
H1170 H 0.6487 0.6919 0.93107 0.0
H1171 H 0.61384 0.66998 0.90934 0.0
H1172 H 0.60766 0.67096 0.95516 0.0
H1173 H 0.65728 0.54143 0.84258 0.0
H1174 H 0.65079 0.56785 0.82147 0.0
H1175 H 0.68572 0.59282 0.84385 0.0
H1176 H 0.65591 0.66102 0.78813 0.0
H1177 H 0.73897 0.72059 0.84279 0.0
H1178 H 0.59522 0.61579 0.85577 0.0
H1179 H 0.60791 0.58228 0.82453 0.0
H1180 H 0.60341 0.6151 0.80975 0.0
H1181 H 0.69682 0.68527 0.92021 0.0
H1182 H 0.73677 0.70482 0.8937 0.0
H1183 H 0.71141 0.65273 0.89089 0.0
C1184 C 0.72353 0.38913 0.1529 0.0
C1185 C 0.73763 0.36629 0.12958 0.0
C1186 C 0.70639 0.40062 0.14118 0.0
C1187 C 0.70343 0.38938 0.10518 0.0
C1188 C 0.71837 0.36731 0.08137 0.0
C1189 C 0.73497 0.35577 0.09384 0.0
C1190 C 0.69042 0.42354 0.16763 0.0
C1191 C 0.71648 0.35543 0.04268 0.0
C1192 C 0.63103 0.38082 0.07798 0.0
C1193 C 0.64553 0.41566 0.06661 0.0
C1194 C 0.64948 0.37226 0.09095 0.0
C1195 C 0.68346 0.39901 0.09248 0.0
C1196 C 0.69827 0.43432 0.08119 0.0
C1197 C 0.67915 0.44226 0.06854 0.0
C1198 C 0.63262 0.33432 0.10273 0.0
C1199 C 0.73416 0.46425 0.08312 0.0
H1200 H 0.7258 0.39804 0.18045 0.0
H1201 H 0.74532 0.33778 0.07553 0.0
H1202 H 0.69398 0.44731 0.15753 0.0
H1203 H 0.66348 0.40363 0.17268 0.0
H1204 H 0.70025 0.43654 0.19292 0.0
H1205 H 0.73062 0.33981 0.02736 0.0
H1206 H 0.69038 0.336 0.03823 0.0
H1207 H 0.72622 0.38179 0.03251 0.0
H1208 H 0.60524 0.35974 0.07616 0.0
H1209 H 0.6905 0.46958 0.06047 0.0
H1210 H 0.6357 0.34049 0.13029 0.0
H1211 H 0.64422 0.31602 0.08652 0.0
H1212 H 0.60586 0.31712 0.10076 0.0
H1213 H 0.7371 0.48028 0.11075 0.0
H1214 H 0.7434 0.486 0.06722 0.0
H1215 H 0.74971 0.44994 0.07409 0.0
C1216 C 0.95058 0.46917 0.41956 0.0
C1217 C 0.95982 0.45387 0.43743 0.0
C1218 C 0.93119 0.44492 0.3924 0.0
C1219 C 0.92067 0.40417 0.38264 0.0
C1220 C 0.93052 0.38869 0.40013 0.0
C1221 C 0.94995 0.41367 0.42724 0.0
C1222 C 0.92142 0.46284 0.37458 0.0
C1223 C 0.92 0.34555 0.39065 0.0
C1224 C 0.84293 0.33734 0.33863 0.0
C1225 C 0.85588 0.33083 0.303 0.0
C1226 C 0.86365 0.3605 0.3647 0.0
C1227 C 0.89835 0.37774 0.35512 0.0
C1228 C 0.91156 0.3707 0.3192 0.0
C1229 C 0.89021 0.34736 0.29362 0.0
C1230 C 0.84835 0.36699 0.40255 0.0
C1231 C 0.94831 0.3883 0.30772 0.0
H1232 H 0.95815 0.50018 0.42714 0.0
H1233 H 0.95704 0.40159 0.44082 0.0
H1234 H 0.92913 0.45622 0.34587 0.0
H1235 H 0.8942 0.44981 0.37911 0.0
H1236 H 0.93255 0.49517 0.38427 0.0
H1237 H 0.93084 0.33833 0.40557 0.0
H1238 H 0.89274 0.32817 0.39601 0.0
H1239 H 0.92742 0.33623 0.36224 0.0
H1240 H 0.81644 0.32455 0.3462 0.0
H1241 H 0.90044 0.34238 0.2662 0.0
H1242 H 0.85653 0.3987 0.41338 0.0
H1243 H 0.85671 0.3577 0.4183 0.0
H1244 H 0.82097 0.35062 0.40583 0.0
H1245 H 0.96008 0.42078 0.31493 0.0
H1246 H 0.95469 0.37892 0.27903 0.0
H1247 H 0.95901 0.37974 0.32149 0.0
C1248 C 0.60631 0.63402 0.47573 0.0
C1249 C 0.60217 0.59609 0.46703 0.0
C1250 C 0.62767 0.66033 0.4536 0.0
C1251 C 0.64598 0.64876 0.42257 0.0
C1252 C 0.64251 0.61082 0.41433 0.0
C1253 C 0.62032 0.58481 0.43634 0.0
C1254 C 0.62989 0.70001 0.46285 0.0
C1255 C 0.66202 0.59745 0.38201 0.0
C1256 C 0.6769 0.69031 0.34156 0.0
C1257 C 0.71055 0.71544 0.34392 0.0
C1258 C 0.65517 0.67071 0.3683 0.0
C1259 C 0.66758 0.67519 0.39759 0.0
C1260 C 0.70137 0.70191 0.40079 0.0
C1261 C 0.72238 0.72217 0.3741 0.0
C1262 C 0.61923 0.64355 0.36421 0.0
C1263 C 0.71585 0.70694 0.43109 0.0
H1264 H 0.59215 0.64274 0.49934 0.0
H1265 H 0.61737 0.55561 0.42961 0.0
H1266 H 0.6559 0.72359 0.4638 0.0
H1267 H 0.62108 0.70244 0.44226 0.0
H1268 H 0.61499 0.70513 0.48847 0.0
H1269 H 0.65843 0.56831 0.38079 0.0
H1270 H 0.65445 0.59558 0.35821 0.0
H1271 H 0.68869 0.61908 0.38137 0.0
H1272 H 0.66772 0.68511 0.31821 0.0
H1273 H 0.7485 0.74115 0.37571 0.0
H1274 H 0.60332 0.6486 0.38891 0.0
H1275 H 0.61361 0.61265 0.35843 0.0
H1276 H 0.61268 0.64747 0.34267 0.0
H1277 H 0.70064 0.7122 0.45633 0.0
H1278 H 0.74156 0.73159 0.4317 0.0
H1279 H 0.71586 0.67957 0.42889 0.0
C1280 C 0.86844 0.34236 0.82088 0.0
C1281 C 0.84003 0.30688 0.82583 0.0
C1282 C 0.89186 0.36306 0.84392 0.0
C1283 C 0.88624 0.34838 0.87307 0.0
C1284 C 0.85742 0.31268 0.87834 0.0
C1285 C 0.83485 0.29205 0.85433 0.0
C1286 C 0.92269 0.40049 0.83695 0.0
C1287 C 0.85021 0.2966 0.9096 0.0
C1288 C 0.95763 0.38169 0.91856 0.0
C1289 C 0.95508 0.4109 0.94704 0.0
C1290 C 0.93576 0.3616 0.89385 0.0
C1291 C 0.9104 0.37048 0.89823 0.0
C1292 C 0.90789 0.40019 0.92687 0.0
C1293 C 0.93052 0.42037 0.95074 0.0
C1294 C 0.93972 0.33081 0.86315 0.0
C1295 C 0.88094 0.41017 0.93267 0.0
H1296 H 0.87261 0.35367 0.79864 0.0
H1297 H 0.81274 0.26476 0.85832 0.0
H1298 H 0.9238 0.4255 0.85906 0.0
H1299 H 0.94484 0.39821 0.835 0.0
H1300 H 0.92385 0.40716 0.81243 0.0
H1301 H 0.82636 0.2689 0.91026 0.0
H1302 H 0.87015 0.29098 0.90919 0.0
H1303 H 0.8495 0.31853 0.93414 0.0
H1304 H 0.97681 0.37461 0.91555 0.0
H1305 H 0.92854 0.443 0.97277 0.0
H1306 H 0.9421 0.33761 0.83823 0.0
H1307 H 0.91749 0.30173 0.86422 0.0
H1308 H 0.96165 0.3287 0.86268 0.0
H1309 H 0.88263 0.41981 0.90974 0.0
H1310 H 0.88223 0.43375 0.95647 0.0
H1311 H 0.85647 0.3837 0.93533 0.0
C1312 C 0.83418 0.77921 0.12859 0.0
C1313 C 0.84856 0.78554 0.15664 0.0
C1314 C 0.85337 0.79853 0.1009 0.0
C1315 C 0.8878 0.82389 0.10092 0.0
C1316 C 0.90263 0.82782 0.12795 0.0
C1317 C 0.88276 0.80919 0.15575 0.0
C1318 C 0.83639 0.79408 0.0731 0.0
C1319 C 0.93929 0.85359 0.12865 0.0
C1320 C 0.94514 0.86474 0.02107 0.0
C1321 C 0.95057 0.90336 0.0314 0.0
C1322 C 0.92416 0.83804 0.04295 0.0
C1323 C 0.90777 0.85009 0.07556 0.0
C1324 C 0.91228 0.88865 0.08533 0.0
C1325 C 0.93389 0.91487 0.0634 0.0
C1326 C 0.92058 0.79752 0.0318 0.0
C1327 C 0.89483 0.90263 0.11943 0.0
H1328 H 0.80766 0.76135 0.1295 0.0
H1329 H 0.8939 0.81406 0.17744 0.0
H1330 H 0.83656 0.82188 0.07659 0.0
H1331 H 0.84974 0.78826 0.04661 0.0
H1332 H 0.8104 0.77002 0.07441 0.0
H1333 H 0.94752 0.84927 0.14854 0.0
H1334 H 0.95318 0.84752 0.10259 0.0
H1335 H 0.94577 0.88485 0.13484 0.0
H1336 H 0.9581 0.85578 0.9964 0.0
H1337 H 0.93781 0.9446 0.07141 0.0
H1338 H 0.89418 0.77488 0.03398 0.0
H1339 H 0.93201 0.79455 0.04952 0.0
H1340 H 0.93252 0.79146 1.00447 0.0
H1341 H 0.86798 0.88162 0.12192 0.0
H1342 H 0.89857 0.9321 0.12164 0.0
H1343 H 0.90414 0.90408 0.14175 0.0
C1344 C 0.84554 0.06538 0.78611 0.0
C1345 C 0.83447 0.09137 0.80914 0.0
C1346 C 0.86169 0.0524 0.79756 0.0
C1347 C 0.86687 0.06553 0.83301 0.0
C1348 C 0.85528 0.09122 0.85652 0.0
C1349 C 0.83947 0.10401 0.84429 0.0
C1350 C 0.8733 0.02469 0.77167 0.0
C1351 C 0.85983 0.10552 0.8946 0.0
C1352 C 0.88802 0.01012 0.87034 0.0
C1353 C 0.92235 0.0336 0.86893 0.0
C1354 C 0.86965 0.01985 0.85854 0.0
C1355 C 0.88589 0.05408 0.84514 0.0
C1356 C 0.92055 0.07786 0.84364 0.0
C1357 C 0.93829 0.06739 0.85554 0.0
C1358 C 0.83286 0.99352 0.86061 0.0
C1359 C 0.93896 0.11449 0.82945 0.0
H1360 H 0.84125 0.05477 0.75908 0.0
H1361 H 0.83125 0.12426 0.86228 0.0
H1362 H 0.9003 0.03785 0.77028 0.0
H1363 H 0.86132 0.99698 0.78048 0.0
H1364 H 0.86771 0.01754 0.74496 0.0
H1365 H 0.84825 0.12413 0.90982 0.0
H1366 H 0.84894 0.08016 0.90662 0.0
H1367 H 0.88651 0.12278 0.89683 0.0
H1368 H 0.87552 0.98371 0.88021 0.0
H1369 H 0.96473 0.08601 0.85472 0.0
H1370 H 0.8253 0.9848 0.83469 0.0
H1371 H 0.82029 0.00971 0.87939 0.0
H1372 H 0.82428 0.96655 0.86924 0.0
H1373 H 0.93443 0.10701 0.80222 0.0
H1374 H 0.96596 0.12948 0.82951 0.0
H1375 H 0.92978 0.13532 0.84536 0.0
C1376 C 0.67947 0.13651 0.66782 0.0
C1377 C 0.69635 0.17758 0.6785 0.0
C1378 C 0.65816 0.11756 0.64256 0.0
C1379 C 0.65365 0.14023 0.62765 0.0
C1380 C 0.67032 0.18162 0.6386 0.0
C1381 C 0.69145 0.19976 0.66382 0.0
C1382 C 0.64084 0.07333 0.63146 0.0
C1383 C 0.66612 0.20683 0.62341 0.0
C1384 C 0.62514 0.09605 0.53838 0.0
C1385 C 0.5915 0.08466 0.5474 0.0
C1386 C 0.6456 0.11397 0.56426 0.0
C1387 C 0.63209 0.12084 0.6 0.0
C1388 C 0.59817 0.10977 0.60921 0.0
C1389 C 0.57829 0.0919 0.58275 0.0
C1390 C 0.68162 0.12523 0.55336 0.0
C1391 C 0.58284 0.11644 0.64702 0.0
H1392 H 0.68309 0.1191 0.67893 0.0
H1393 H 0.70426 0.23149 0.67188 0.0
H1394 H 0.61394 0.06155 0.63378 0.0
H1395 H 0.64976 0.06415 0.60352 0.0
H1396 H 0.64503 0.05982 0.64733 0.0
H1397 H 0.68023 0.23858 0.63535 0.0
H1398 H 0.6745 0.20209 0.59474 0.0
H1399 H 0.63968 0.19832 0.62743 0.0
H1400 H 0.63541 0.09027 0.51106 0.0
H1401 H 0.55227 0.08315 0.58973 0.0
H1402 H 0.68767 0.10988 0.56521 0.0
H1403 H 0.69719 0.15719 0.56314 0.0
H1404 H 0.68825 0.11787 0.52447 0.0
H1405 H 0.58569 0.10034 0.66135 0.0
H1406 H 0.55619 0.10659 0.64976 0.0
H1407 H 0.59573 0.14805 0.6598 0.0
C1408 C 0.62005 0.96608 0.43428 0.0
C1409 C 0.60351 0.96783 0.46866 0.0
C1410 C 0.64732 0.96001 0.42505 0.0
C1411 C 0.65808 0.95545 0.45083 0.0
C1412 C 0.6418 0.95775 0.48569 0.0
C1413 C 0.61469 0.96391 0.49419 0.0
C1414 C 0.66428 0.9578 0.38758 0.0
C1415 C 0.65263 0.95304 0.51384 0.0
C1416 C 0.70267 0.89666 0.41325 0.0
C1417 C 0.73571 0.92635 0.41098 0.0
C1418 C 0.67716 0.90577 0.428 0.0
C1419 C 0.68492 0.94554 0.44054 0.0
C1420 C 0.71824 0.97556 0.44044 0.0
C1421 C 0.74331 0.96553 0.42565 0.0
C1422 C 0.64188 0.87292 0.42795 0.0
C1423 C 0.72745 0.01832 0.45388 0.0
H1424 H 0.61173 0.96943 0.41455 0.0
H1425 H 0.60218 0.96541 0.52094 0.0
H1426 H 0.69097 0.97941 0.38668 0.0
H1427 H 0.66203 0.92826 0.376 0.0
H1428 H 0.65372 0.96358 0.37108 0.0
H1429 H 0.63849 0.9579 0.54012 0.0
H1430 H 0.64933 0.92306 0.50739 0.0
H1431 H 0.67924 0.97399 0.51509 0.0
H1432 H 0.69659 0.86633 0.40155 0.0
H1433 H 0.76886 0.98837 0.4244 0.0
H1434 H 0.63043 0.87434 0.40919 0.0
H1435 H 0.62728 0.87608 0.45422 0.0
H1436 H 0.64008 0.84356 0.42036 0.0
H1437 H 0.72346 0.02812 0.43456 0.0
H1438 H 0.75372 0.03715 0.45794 0.0
H1439 H 0.71172 0.02287 0.47891 0.0
C1440 C 0.81149 0.11066 0.37971 0.0
C1441 C 0.82421 0.14959 0.37816 0.0
C1442 C 0.82868 0.10032 0.39264 0.0
C1443 C 0.85928 0.12961 0.40438 0.0
C1444 C 0.87202 0.16902 0.40328 0.0
C1445 C 0.85437 0.1785 0.39015 0.0
C1446 C 0.8144 0.05794 0.39308 0.0
C1447 C 0.90443 0.2012 0.41578 0.0
C1448 C 0.89446 0.11323 0.46477 0.0
C1449 C 0.91895 0.10532 0.44147 0.0
C1450 C 0.87426 0.12024 0.45296 0.0
C1451 C 0.87856 0.11913 0.41697 0.0
C1452 C 0.90248 0.10985 0.39319 0.0
C1453 C 0.92239 0.10313 0.40572 0.0
C1454 C 0.84893 0.12989 0.47911 0.0
C1455 C 0.9076 0.10791 0.35457 0.0
H1456 H 0.78836 0.08809 0.37019 0.0
H1457 H 0.86409 0.20874 0.38958 0.0
H1458 H 0.83006 0.04602 0.37379 0.0
H1459 H 0.81423 0.05548 0.4192 0.0
H1460 H 0.78888 0.03949 0.38655 0.0
H1461 H 0.91057 0.23049 0.41387 0.0
H1462 H 0.90357 0.2023 0.44343 0.0
H1463 H 0.9246 0.19495 0.39999 0.0
H1464 H 0.89179 0.11518 0.49245 0.0
H1465 H 0.94087 0.09635 0.38748 0.0
H1466 H 0.82421 0.1097 0.47077 0.0
H1467 H 0.85508 0.1601 0.4802 0.0
H1468 H 0.8476 0.12781 0.50586 0.0
H1469 H 0.88397 0.08722 0.34393 0.0
H1470 H 0.92609 0.09843 0.33929 0.0
H1471 H 0.91604 0.13719 0.35059 0.0
C1472 C 0.66345 0.15512 0.21256 0.0
C1473 C 0.69754 0.17014 0.20189 0.0
C1474 C 0.64101 0.13082 0.18821 0.0
C1475 C 0.65284 0.12118 0.15221 0.0
C1476 C 0.68731 0.13675 0.14127 0.0
C1477 C 0.70919 0.16103 0.16617 0.0
C1478 C 0.60456 0.11509 0.20109 0.0
C1479 C 0.70109 0.12735 0.10324 0.0
C1480 C 0.59519 0.02784 0.09371 0.0
C1481 C 0.58553 0.04258 0.07572 0.0
C1482 C 0.61684 0.053 0.11872 0.0
C1483 C 0.6292 0.09405 0.12614 0.0
C1484 C 0.61919 0.10906 0.10835 0.0
C1485 C 0.59752 0.0832 0.0834 0.0
C1486 C 0.62675 0.03563 0.13699 0.0
C1487 C 0.63162 0.15252 0.11544 0.0
H1488 H 0.65423 0.16212 0.24007 0.0
H1489 H 0.73549 0.1726 0.15767 0.0
H1490 H 0.59385 0.1234 0.18709 0.0
H1491 H 0.5918 0.08258 0.19535 0.0
H1492 H 0.59933 0.12618 0.2297 0.0
H1493 H 0.72847 0.14245 0.09882 0.0
H1494 H 0.69166 0.09525 0.094 0.0
H1495 H 0.69275 0.13608 0.08696 0.0
H1496 H 0.58602 0.99652 0.08801 0.0
H1497 H 0.59016 0.09485 0.06968 0.0
H1498 H 0.62017 0.0439 0.16576 0.0
H1499 H 0.65387 0.04765 0.13142 0.0
H1500 H 0.6147 0.00313 0.12865 0.0
H1501 H 0.62527 0.16391 0.14367 0.0
H1502 H 0.62111 0.15951 0.09992 0.0
H1503 H 0.65888 0.1683 0.10908 0.0
C1504 C 0.76479 0.88355 0.83226 0.0
C1505 C 0.77939 0.87451 0.79804 0.0
C1506 C 0.75353 0.91063 0.84134 0.0
C1507 C 0.75756 0.92908 0.81557 0.0
C1508 C 0.77763 0.92524 0.78318 0.0
C1509 C 0.78785 0.89725 0.77444 0.0
C1510 C 0.73341 0.91527 0.87685 0.0
C1511 C 0.78453 0.94671 0.75613 0.0
C1512 C 0.67555 0.91901 0.81982 0.0
C1513 C 0.67892 0.95427 0.84304 0.0
C1514 C 0.70232 0.91209 0.80748 0.0
C1515 C 0.73323 0.94129 0.81864 0.0
C1516 C 0.7378 0.97884 0.83798 0.0
C1517 C 0.71048 0.98498 0.84995 0.0
C1518 C 0.69614 0.87157 0.78641 0.0
C1519 C 0.77047 0.01138 0.84916 0.0
H1520 H 0.75891 0.86648 0.85069 0.0
H1521 H 0.80024 0.89107 0.74824 0.0
H1522 H 0.7406 0.9466 0.88846 0.0
H1523 H 0.70691 0.89934 0.87397 0.0
H1524 H 0.73643 0.90344 0.89527 0.0
H1525 H 0.8063 0.94797 0.73646 0.0
H1526 H 0.76287 0.93127 0.74221 0.0
H1527 H 0.78883 0.97701 0.76869 0.0
H1528 H 0.65133 0.89507 0.81418 0.0
H1529 H 0.71339 0.01281 0.86699 0.0
H1530 H 0.69489 0.855 0.80354 0.0
H1531 H 0.71643 0.87321 0.76455 0.0
H1532 H 0.67264 0.85474 0.77535 0.0
H1533 H 0.77192 0.00982 0.87495 0.0
H1534 H 0.77295 0.0404 0.85233 0.0
H1535 H 0.79129 0.00918 0.83006 0.0
C1536 C 0.92427 0.95222 0.59156 0.0
C1537 C 0.95261 0.95168 0.57012 0.0
C1538 C 0.90405 0.92617 0.61406 0.0
C1539 C 0.91244 0.89898 0.61563 0.0
C1540 C 0.94061 0.89765 0.59338 0.0
C1541 C 0.96012 0.92372 0.57069 0.0
C1542 C 0.87414 0.92853 0.63691 0.0
C1543 C 0.95076 0.86951 0.59431 0.0
C1544 C 0.88267 0.86826 0.70272 0.0
C1545 C 0.85522 0.83085 0.69549 0.0
C1546 C 0.90187 0.89001 0.67677 0.0
C1547 C 0.89328 0.87444 0.64256 0.0
C1548 C 0.86571 0.83646 0.63492 0.0
C1549 C 0.84717 0.81496 0.66139 0.0
C1550 C 0.93112 0.93008 0.68625 0.0
C1551 C 0.85529 0.81898 0.59903 0.0
H1552 H 0.91803 0.97346 0.59109 0.0
H1553 H 0.98147 0.92251 0.5537 0.0
H1554 H 0.85198 0.89903 0.63406 0.0
H1555 H 0.87776 0.939 0.66481 0.0
H1556 H 0.86932 0.94875 0.63042 0.0
H1557 H 0.97236 0.8708 0.57431 0.0
H1558 H 0.9571 0.8765 0.62057 0.0
H1559 H 0.92996 0.83905 0.58991 0.0
H1560 H 0.8892 0.88082 0.72894 0.0
H1561 H 0.826 0.78614 0.6556 0.0
H1562 H 0.9269 0.95286 0.6839 0.0
H1563 H 0.95363 0.93195 0.66782 0.0
H1564 H 0.93573 0.93701 0.71336 0.0
H1565 H 0.84825 0.83754 0.59316 0.0
H1566 H 0.83408 0.78869 0.59684 0.0
H1567 H 0.87618 0.81842 0.57881 0.0
C1568 C 0.18155 0.80689 0.85133 0.0
C1569 C 0.20566 0.81465 0.8195 0.0
C1570 C 0.16094 0.82686 0.87174 0.0
C1571 C 0.1616 0.85957 0.86393 0.0
C1572 C 0.18618 0.86786 0.83197 0.0
C1573 C 0.20592 0.84673 0.81171 0.0
C1574 C 0.13715 0.81088 0.90266 0.0
C1575 C 0.19308 0.90097 0.81799 0.0
C1576 C 0.09536 0.90818 0.89479 0.0
C1577 C 0.09401 0.92825 0.93188 0.0
C1578 C 0.11513 0.88717 0.87422 0.0
C1579 C 0.13815 0.88342 0.88755 0.0
C1580 C 0.13718 0.90399 0.92498 0.0
C1581 C 0.11655 0.92405 0.945 0.0
C1582 C 0.10998 0.86778 0.83661 0.0
C1583 C 0.15912 0.90614 0.94567 0.0
H1584 H 0.17801 0.78358 0.86111 0.0
H1585 H 0.22269 0.8566 0.78864 0.0
H1586 H 0.15072 0.82343 0.92522 0.0
H1587 H 0.11685 0.81805 0.91028 0.0
H1588 H 0.12627 0.77852 0.8969 0.0
H1589 H 0.21971 0.91735 0.80795 0.0
H1590 H 0.17931 0.88863 0.79564 0.0
H1591 H 0.18571 0.92185 0.83811 0.0
H1592 H 0.07992 0.90827 0.88059 0.0
H1593 H 0.11878 0.93742 0.97248 0.0
H1594 H 0.11699 0.84437 0.82591 0.0
H1595 H 0.1251 0.8903 0.82069 0.0
H1596 H 0.0838 0.85485 0.8338 0.0
H1597 H 0.14416 0.8834 0.96137 0.0
H1598 H 0.16957 0.93507 0.96432 0.0
H1599 H 0.17971 0.90141 0.92864 0.0
C1600 C 0.95235 0.3764 0.56681 0.0
C1601 C 0.94617 0.4046 0.56412 0.0
C1602 C 0.93008 0.34942 0.58786 0.0
C1603 C 0.90053 0.35003 0.60586 0.0
C1604 C 0.89364 0.37758 0.60224 0.0
C1605 C 0.91678 0.40492 0.58178 0.0
C1606 C 0.93869 0.32116 0.59179 0.0
C1607 C 0.86203 0.37852 0.62034 0.0
C1608 C 0.83163 0.26018 0.64048 0.0
C1609 C 0.83454 0.27319 0.67616 0.0
C1610 C 0.8527 0.28504 0.61723 0.0
C1611 C 0.87771 0.3233 0.62998 0.0
C1612 C 0.881 0.33621 0.66598 0.0
C1613 C 0.85905 0.31117 0.68872 0.0
C1614 C 0.84791 0.27065 0.57921 0.0
C1615 C 0.9078 0.37643 0.68047 0.0
H1616 H 0.97517 0.37627 0.55338 0.0
H1617 H 0.91178 0.42647 0.57948 0.0
H1618 H 0.94074 0.32665 0.6196 0.0
H1619 H 0.91886 0.29054 0.5844 0.0
H1620 H 0.96231 0.32389 0.57542 0.0
H1621 H 0.85929 0.39976 0.61271 0.0
H1622 H 0.8405 0.34895 0.61398 0.0
H1623 H 0.8614 0.38674 0.64915 0.0
H1624 H 0.81242 0.2309 0.63089 0.0
H1625 H 0.86133 0.32118 0.71635 0.0
H1626 H 0.87057 0.27103 0.56229 0.0
H1627 H 0.84342 0.29056 0.57181 0.0
H1628 H 0.82689 0.24041 0.57364 0.0
H1629 H 0.93229 0.38034 0.66606 0.0
H1630 H 0.90781 0.38132 0.70882 0.0
H1631 H 0.90457 0.39934 0.67674 0.0
C1632 C 0.42834 0.08091 0.40519 0.0
C1633 C 0.45312 0.07459 0.38063 0.0
C1634 C 0.41414 0.09965 0.3989 0.0
C1635 C 0.42469 0.11206 0.36712 0.0
C1636 C 0.44887 0.10461 0.34173 0.0
C1637 C 0.46287 0.08614 0.34883 0.0
C1638 C 0.38846 0.10707 0.4267 0.0
C1639 C 0.46071 0.11723 0.30745 0.0
C1640 C 0.37149 0.13709 0.33961 0.0
C1641 C 0.3875 0.17817 0.3504 0.0
C1642 C 0.38328 0.11514 0.34483 0.0
C1643 C 0.41176 0.1347 0.36123 0.0
C1644 C 0.4281 0.17614 0.37202 0.0
C1645 C 0.41583 0.19732 0.36642 0.0
C1646 C 0.36521 0.07101 0.3329 0.0
C1647 C 0.45863 0.19818 0.38945 0.0
H1648 H 0.42018 0.07149 0.42956 0.0
H1649 H 0.48226 0.08191 0.32985 0.0
H1650 H 0.39769 0.13911 0.43625 0.0
H1651 H 0.3657 0.09447 0.41547 0.0
H1652 H 0.38206 0.09431 0.44942 0.0
H1653 H 0.47797 0.10691 0.28951 0.0
H1654 H 0.43946 0.10579 0.29406 0.0
H1655 H 0.47347 0.14971 0.31251 0.0
H1656 H 0.34941 0.12202 0.32752 0.0
H1657 H 0.42872 0.22906 0.37428 0.0
H1658 H 0.35652 0.05745 0.3556 0.0
H1659 H 0.38216 0.06081 0.31403 0.0
H1660 H 0.34364 0.06027 0.32026 0.0
H1661 H 0.45311 0.18816 0.41361 0.0
H1662 H 0.46831 0.2304 0.39649 0.0
H1663 H 0.47826 0.19193 0.37176 0.0
C1664 C 0.62368 0.59056 0.0847 0.0
C1665 C 0.59979 0.59796 0.08143 0.0
C1666 C 0.64728 0.61736 0.10736 0.0
C1667 C 0.6467 0.65223 0.12801 0.0
C1668 C 0.62252 0.6598 0.12502 0.0
C1669 C 0.59962 0.63283 0.1015 0.0
C1670 C 0.67292 0.60834 0.10914 0.0
C1671 C 0.62053 0.69613 0.14708 0.0
C1672 C 0.68787 0.69834 0.21013 0.0
C1673 C 0.71822 0.72946 0.19999 0.0
C1674 C 0.66398 0.67396 0.18746 0.0
C1675 C 0.67089 0.68007 0.15334 0.0
C1676 C 0.70152 0.71166 0.14304 0.0
C1677 C 0.72463 0.73629 0.16667 0.0
C1678 C 0.63151 0.64124 0.19988 0.0
C1679 C 0.71031 0.71868 0.10668 0.0
H1680 H 0.62429 0.56393 0.06908 0.0
H1681 H 0.58121 0.63876 0.09926 0.0
H1682 H 0.698 0.63287 0.10358 0.0
H1683 H 0.67022 0.60537 0.13592 0.0
H1684 H 0.67096 0.58087 0.09026 0.0
H1685 H 0.6003 0.69778 0.14177 0.0
H1686 H 0.61649 0.69656 0.17527 0.0
H1687 H 0.64416 0.72274 0.14206 0.0
H1688 H 0.68278 0.69301 0.23592 0.0
H1689 H 0.74819 0.76008 0.15862 0.0
H1690 H 0.62924 0.61247 0.18414 0.0
H1691 H 0.61074 0.64294 0.19608 0.0
H1692 H 0.62899 0.64221 0.22795 0.0
H1693 H 0.71033 0.69257 0.08699 0.0
H1694 H 0.73491 0.7447 0.10285 0.0
H1695 H 0.69154 0.72296 0.10149 0.0
C1696 C 0.21394 0.23863 0.67284 0.0
C1697 C 0.20753 0.23162 0.7061 0.0
C1698 C 0.19211 0.21241 0.64817 0.0
C1699 C 0.16274 0.17886 0.65724 0.0
C1700 C 0.15579 0.17233 0.69121 0.0
C1701 C 0.17846 0.19847 0.71501 0.0
C1702 C 0.20095 0.22004 0.61204 0.0
C1703 C 0.12456 0.13744 0.7023 0.0
C1704 C 0.09309 0.12674 0.60215 0.0
C1705 C 0.09618 0.09376 0.58152 0.0
C1706 C 0.11438 0.15453 0.62703 0.0
C1707 C 0.13992 0.14978 0.63085 0.0
C1708 C 0.14346 0.11686 0.60967 0.0
C1709 C 0.1214 0.08913 0.58562 0.0
C1710 C 0.10926 0.18868 0.64958 0.0
C1711 C 0.17069 0.11097 0.61229 0.0
H1712 H 0.23657 0.26399 0.66571 0.0
H1713 H 0.17341 0.19296 0.74071 0.0
H1714 H 0.20321 0.19526 0.59215 0.0
H1715 H 0.18109 0.22188 0.60618 0.0
H1716 H 0.2245 0.24759 0.60918 0.0
H1717 H 0.12173 0.13797 0.73031 0.0
H1718 H 0.10277 0.13666 0.69792 0.0
H1719 H 0.1246 0.10992 0.68613 0.0
H1720 H 0.0736 0.13049 0.59934 0.0
H1721 H 0.12426 0.06398 0.56959 0.0
H1722 H 0.13179 0.21672 0.64566 0.0
H1723 H 0.10481 0.1884 0.67764 0.0
H1724 H 0.08811 0.18803 0.64369 0.0
H1725 H 0.19499 0.13703 0.60768 0.0
H1726 H 0.17082 0.08458 0.59315 0.0
H1727 H 0.1679 0.10786 0.63903 0.0
C1728 C 0.6851 0.31202 0.35374 0.0
C1729 C 0.70745 0.31805 0.32064 0.0
C1730 C 0.66439 0.33181 0.37421 0.0
C1731 C 0.66318 0.36247 0.36505 0.0
C1732 C 0.68596 0.36901 0.33174 0.0
C1733 C 0.70586 0.34811 0.31151 0.0
C1734 C 0.64266 0.31794 0.40677 0.0
C1735 C 0.69063 0.39983 0.31616 0.0
C1736 C 0.59461 0.40765 0.39675 0.0
C1737 C 0.59512 0.4302 0.4331 0.0
C1738 C 0.61454 0.38689 0.37616 0.0
C1739 C 0.63959 0.38603 0.3887 0.0
C1740 C 0.64051 0.40912 0.42535 0.0
C1741 C 0.6197 0.42889 0.44547 0.0
C1742 C 0.60731 0.36457 0.33951 0.0
C1743 C 0.66476 0.41443 0.44499 0.0
H1744 H 0.68312 0.29033 0.36456 0.0
H1745 H 0.72115 0.35642 0.28734 0.0
H1746 H 0.65771 0.33271 0.42835 0.0
H1747 H 0.6219 0.32435 0.4149 0.0
H1748 H 0.63244 0.28586 0.40273 0.0
H1749 H 0.71672 0.4161 0.30438 0.0
H1750 H 0.67535 0.38528 0.2948 0.0
H1751 H 0.68349 0.42116 0.33579 0.0
H1752 H 0.5775 0.40546 0.38322 0.0
H1753 H 0.62348 0.44441 0.47232 0.0
H1754 H 0.61484 0.34162 0.32949 0.0
H1755 H 0.62075 0.38543 0.32196 0.0
H1756 H 0.58059 0.35046 0.33833 0.0
H1757 H 0.65157 0.39334 0.4623 0.0
H1758 H 0.67563 0.44439 0.462 0.0
H1759 H 0.68502 0.40954 0.42719 0.0
C1760 C 0.42112 0.90501 0.08855 0.0
C1761 C 0.44848 0.90176 0.06751 0.0
C1762 C 0.39834 0.87813 0.10951 0.0
C1763 C 0.40373 0.84815 0.11028 0.0
C1764 C 0.43122 0.84459 0.08882 0.0
C1765 C 0.45302 0.87113 0.06723 0.0
C1766 C 0.36878 0.88219 0.13122 0.0
C1767 C 0.43829 0.8137 0.08967 0.0
C1768 C 0.36624 0.81063 0.19383 0.0
C1769 C 0.33927 0.77413 0.18312 0.0
C1770 C 0.3879 0.83449 0.17008 0.0
C1771 C 0.38171 0.82207 0.1351 0.0
C1772 C 0.35428 0.78528 0.12423 0.0
C1773 C 0.33361 0.76138 0.14833 0.0
C1774 C 0.41734 0.87304 0.18248 0.0
C1775 C 0.3463 0.77166 0.08748 0.0
H1776 H 0.41741 0.92849 0.08844 0.0
H1777 H 0.4743 0.86879 0.05107 0.0
H1778 H 0.34581 0.85375 0.12654 0.0
H1779 H 0.37065 0.89032 0.15947 0.0
H1780 H 0.36663 0.90483 0.12528 0.0
H1781 H 0.46021 0.81421 0.07072 0.0
H1782 H 0.44263 0.81843 0.11637 0.0
H1783 H 0.41674 0.7841 0.08368 0.0
H1784 H 0.37059 0.82037 0.22079 0.0
H1785 H 0.31246 0.7333 0.14026 0.0
H1786 H 0.41519 0.89771 0.18092 0.0
H1787 H 0.4403 0.87466 0.16526 0.0
H1788 H 0.41973 0.8772 0.2099 0.0
H1789 H 0.34219 0.79306 0.0821 0.0
H1790 H 0.324 0.74234 0.08323 0.0
H1791 H 0.36738 0.77025 0.06817 0.0
C1792 C 0.95551 0.63923 0.90222 0.0
C1793 C 0.93888 0.60654 0.91727 0.0
C1794 C 0.93819 0.65228 0.89313 0.0
C1795 C 0.90329 0.63193 0.89881 0.0
C1796 C 0.88627 0.59821 0.913 0.0
C1797 C 0.90427 0.58598 0.92218 0.0
C1798 C 0.95731 0.68838 0.87805 0.0
C1799 C 0.84908 0.57558 0.91915 0.0
C1800 C 0.86423 0.69338 0.90852 0.0
C1801 C 0.85798 0.68408 0.87434 0.0
C1802 C 0.8778 0.67549 0.91718 0.0
C1803 C 0.88492 0.64717 0.89115 0.0
C1804 C 0.87696 0.63601 0.85712 0.0
C1805 C 0.86372 0.65472 0.84906 0.0
C1806 C 0.886 0.68834 0.95377 0.0
C1807 C 0.88393 0.60571 0.82871 0.0
H1808 H 0.98223 0.65477 0.89758 0.0
H1809 H 0.8912 0.56086 0.934 0.0
H1810 H 0.95011 0.68142 0.85227 0.0
H1811 H 0.95133 0.71154 0.89559 0.0
H1812 H 0.98439 0.70037 0.87459 0.0
H1813 H 0.83959 0.54858 0.92822 0.0
H1814 H 0.83941 0.59436 0.93914 0.0
H1815 H 0.83918 0.56723 0.89471 0.0
H1816 H 0.85926 0.71546 0.92839 0.0
H1817 H 0.85925 0.64756 0.82251 0.0
H1818 H 0.91314 0.70353 0.9528 0.0
H1819 H 0.87531 0.66249 0.96502 0.0
H1820 H 0.87678 0.70858 0.9716 0.0
H1821 H 0.91096 0.61763 0.82114 0.0
H1822 H 0.87291 0.59711 0.80496 0.0
H1823 H 0.87421 0.57907 0.83841 0.0
C1824 C 0.44411 0.46899 0.11065 0.0
C1825 C 0.46255 0.45877 0.07955 0.0
C1826 C 0.42341 0.44286 0.133 0.0
C1827 C 0.42173 0.40584 0.12474 0.0
C1828 C 0.44024 0.3953 0.09327 0.0
C1829 C 0.45997 0.42159 0.07081 0.0
C1830 C 0.40359 0.45512 0.16573 0.0
C1831 C 0.43997 0.3567 0.08383 0.0
C1832 C 0.39755 0.36281 0.20389 0.0
C1833 C 0.36453 0.33387 0.20159 0.0
C1834 C 0.41668 0.38512 0.17831 0.0
C1835 C 0.40221 0.37948 0.15019 0.0
C1836 C 0.36881 0.3501 0.14765 0.0
C1837 C 0.35053 0.3272 0.17308 0.0
C1838 C 0.45231 0.41528 0.18178 0.0
C1839 C 0.35202 0.34385 0.11884 0.0
H1840 H 0.44566 0.49749 0.11749 0.0
H1841 H 0.47393 0.41335 0.04674 0.0
H1842 H 0.37725 0.43213 0.16711 0.0
H1843 H 0.4125 0.45853 0.18922 0.0
H1844 H 0.40534 0.48327 0.16687 0.0
H1845 H 0.45526 0.35254 0.05823 0.0
H1846 H 0.44948 0.35521 0.10439 0.0
H1847 H 0.41438 0.33204 0.08271 0.0
H1848 H 0.40854 0.36801 0.22582 0.0
H1849 H 0.32491 0.30519 0.17143 0.0
H1850 H 0.45574 0.44515 0.18696 0.0
H1851 H 0.46841 0.41108 0.15694 0.0
H1852 H 0.46063 0.41374 0.20334 0.0
H1853 H 0.35179 0.37105 0.12087 0.0
H1854 H 0.32621 0.31936 0.12003 0.0
H1855 H 0.3659 0.33757 0.09288 0.0
C1856 C 0.38553 0.56625 0.927 0.0
C1857 C 0.41105 0.59837 0.94526 0.0
C1858 C 0.36629 0.5716 0.91181 0.0
C1859 C 0.37273 0.61 0.91477 0.0
C1860 C 0.39842 0.64251 0.93318 0.0
C1861 C 0.41724 0.63633 0.94807 0.0
C1862 C 0.33944 0.53615 0.89213 0.0
C1863 C 0.40617 0.68396 0.93703 0.0
C1864 C 0.34546 0.6316 0.85042 0.0
C1865 C 0.31753 0.63454 0.87022 0.0
C1866 C 0.36313 0.62264 0.86421 0.0
C1867 C 0.35274 0.61647 0.89872 0.0
C1868 C 0.32413 0.61845 0.91853 0.0
C1869 C 0.30692 0.62743 0.90408 0.0
C1870 C 0.39335 0.62059 0.84209 0.0
C1871 C 0.31207 0.61186 0.95531 0.0
H1872 H 0.38031 0.53679 0.92485 0.0
H1873 H 0.43725 0.66144 0.96151 0.0
H1874 H 0.31598 0.53715 0.90103 0.0
H1875 H 0.3465 0.53628 0.86387 0.0
H1876 H 0.33514 0.5082 0.89532 0.0
H1877 H 0.42675 0.70605 0.95238 0.0
H1878 H 0.41288 0.69042 0.9108 0.0
H1879 H 0.38405 0.68726 0.95023 0.0
H1880 H 0.35359 0.63642 0.82406 0.0
H1881 H 0.2856 0.62999 0.91977 0.0
H1882 H 0.39102 0.59189 0.83991 0.0
H1883 H 0.41545 0.64366 0.85483 0.0
H1884 H 0.39746 0.62459 0.81531 0.0
H1885 H 0.30685 0.5823 0.95514 0.0
H1886 H 0.28937 0.61431 0.96726 0.0
H1887 H 0.3315 0.6336 0.97213 0.0
C1888 C 0.1149 0.5357 0.57066 0.0
C1889 C 0.09406 0.54449 0.5624 0.0
C1890 C 0.13457 0.56087 0.59742 0.0
C1891 C 0.13411 0.59634 0.616 0.0
C1892 C 0.11331 0.60556 0.6075 0.0
C1893 C 0.09327 0.57933 0.5811 0.0
C1894 C 0.15575 0.54932 0.60593 0.0
C1895 C 0.11253 0.64337 0.626 0.0
C1896 C 0.16389 0.64388 0.70547 0.0
C1897 C 0.19715 0.67076 0.69692 0.0
C1898 C 0.14302 0.6199 0.67955 0.0
C1899 C 0.1554 0.62351 0.64427 0.0
C1900 C 0.18868 0.65173 0.6358 0.0
C1901 C 0.20922 0.67457 0.66208 0.0
C1902 C 0.10798 0.5898 0.68978 0.0
C1903 C 0.20279 0.65742 0.59883 0.0
H1904 H 0.11557 0.50878 0.55639 0.0
H1905 H 0.07738 0.58642 0.57467 0.0
H1906 H 0.18212 0.57153 0.6014 0.0
H1907 H 0.14956 0.54842 0.63402 0.0
H1908 H 0.15257 0.52022 0.58987 0.0
H1909 H 0.0955 0.64658 0.616 0.0
H1910 H 0.10469 0.64472 0.65451 0.0
H1911 H 0.13764 0.6687 0.62263 0.0
H1912 H 0.15438 0.6407 0.73231 0.0
H1913 H 0.23482 0.69552 0.65534 0.0
H1914 H 0.1042 0.55993 0.67585 0.0
H1915 H 0.09049 0.59398 0.68178 0.0
H1916 H 0.10181 0.59135 0.71841 0.0
H1917 H 0.2036 0.63069 0.58156 0.0
H1918 H 0.2281 0.68285 0.59711 0.0
H1919 H 0.18675 0.66196 0.58859 0.0
C1920 C 0.3805 0.32491 0.67143 0.0
C1921 C 0.34719 0.29768 0.66878 0.0
C1922 C 0.40195 0.34282 0.64364 0.0
C1923 C 0.38952 0.3344 0.61291 0.0
C1924 C 0.35611 0.3058 0.60964 0.0
C1925 C 0.33545 0.28732 0.63745 0.0
C1926 C 0.43758 0.37215 0.64789 0.0
C1927 C 0.34157 0.29668 0.57783 0.0
C1928 C 0.43399 0.41951 0.5677 0.0
C1929 C 0.45298 0.40762 0.53844 0.0
C1930 C 0.41242 0.39528 0.59127 0.0
C1931 C 0.41052 0.35867 0.58619 0.0
C1932 C 0.42964 0.34643 0.55658 0.0
C1933 C 0.45031 0.37084 0.53272 0.0
C1934 C 0.39192 0.40916 0.62189 0.0
C1935 C 0.42909 0.30822 0.55077 0.0
H1936 H 0.38964 0.33282 0.69562 0.0
H1937 H 0.30959 0.26661 0.63553 0.0
H1938 H 0.45411 0.36645 0.62415 0.0
H1939 H 0.44207 0.40218 0.65116 0.0
H1940 H 0.44439 0.37136 0.67101 0.0
H1941 H 0.31618 0.27128 0.5778 0.0
H1942 H 0.34072 0.32265 0.57726 0.0
H1943 H 0.35724 0.29039 0.55347 0.0
H1944 H 0.43586 0.44785 0.57209 0.0
H1945 H 0.46519 0.36175 0.51025 0.0
H1946 H 0.3997 0.41419 0.64676 0.0
H1947 H 0.36553 0.38635 0.62282 0.0
H1948 H 0.39428 0.43682 0.62053 0.0
H1949 H 0.43849 0.30909 0.57274 0.0
H1950 H 0.44437 0.30218 0.52583 0.0
H1951 H 0.40346 0.28352 0.55048 0.0
C1952 C 0.16929 0.64778 0.19853 0.0
C1953 C 0.1983 0.68209 0.19186 0.0
C1954 C 0.14476 0.62738 0.17684 0.0
C1955 C 0.14979 0.64111 0.14729 0.0
C1956 C 0.17919 0.67561 0.14028 0.0
C1957 C 0.20293 0.69602 0.16297 0.0
C1958 C 0.11343 0.59124 0.18563 0.0
C1959 C 0.18576 0.69063 0.10855 0.0
C1960 C 0.10141 0.56763 0.07282 0.0
C1961 C 0.07739 0.57819 0.07723 0.0
C1962 C 0.12518 0.58793 0.09539 0.0
C1963 C 0.1245 0.61906 0.12342 0.0
C1964 C 0.09976 0.62921 0.1285 0.0
C1965 C 0.07663 0.60883 0.1051 0.0
C1966 C 0.15134 0.57647 0.08885 0.0
C1967 C 0.09778 0.6616 0.15861 0.0
H1968 H 0.1655 0.63719 0.22111 0.0
H1969 H 0.22545 0.72243 0.15768 0.0
H1970 H 0.09173 0.59465 0.1882 0.0
H1971 H 0.1109 0.56524 0.16414 0.0
H1972 H 0.11281 0.58538 0.21037 0.0
H1973 H 0.21004 0.71758 0.10659 0.0
H1974 H 0.18512 0.6677 0.0844 0.0
H1975 H 0.16621 0.69716 0.10953 0.0
H1976 H 0.10207 0.54394 0.05123 0.0
H1977 H 0.05792 0.61682 0.10864 0.0
H1978 H 0.15027 0.56775 0.11208 0.0
H1979 H 0.17615 0.60199 0.08464 0.0
H1980 H 0.14854 0.55177 0.0657 0.0
H1981 H 0.09596 0.65566 0.18377 0.0
H1982 H 0.07628 0.66482 0.1597 0.0
H1983 H 0.12057 0.6899 0.15619 0.0
C1984 C 0.68408 0.41216 0.72469 0.0
C1985 C 0.70705 0.40105 0.70195 0.0
C1986 C 0.66945 0.42692 0.71317 0.0
C1987 C 0.67825 0.43119 0.67815 0.0
C1988 C 0.70199 0.42091 0.65531 0.0
C1989 C 0.71576 0.40552 0.66733 0.0
C1990 C 0.64424 0.43749 0.73833 0.0
C1991 C 0.71282 0.42613 0.61812 0.0
C1992 C 0.61698 0.42754 0.63539 0.0
C1993 C 0.62897 0.46736 0.63782 0.0
C1994 C 0.63268 0.41558 0.64867 0.0
C1995 C 0.66118 0.44409 0.66479 0.0
C1996 C 0.67317 0.48445 0.66773 0.0
C1997 C 0.65712 0.4955 0.65388 0.0
C1998 C 0.61858 0.37233 0.64561 0.0
C1999 C 0.7032 0.51634 0.68483 0.0
H2000 H 0.67699 0.40853 0.7514 0.0
H2001 H 0.73392 0.3977 0.64975 0.0
H2002 H 0.65232 0.46873 0.74086 0.0
H2003 H 0.62035 0.41958 0.72801 0.0
H2004 H 0.64023 0.43275 0.76478 0.0
H2005 H 0.73413 0.42108 0.60499 0.0
H2006 H 0.69209 0.40526 0.60278 0.0
H2007 H 0.71971 0.4562 0.61769 0.0
H2008 H 0.59538 0.40559 0.62278 0.0
H2009 H 0.66633 0.52636 0.65623 0.0
H2010 H 0.61307 0.36658 0.67194 0.0
H2011 H 0.63693 0.36297 0.62958 0.0
H2012 H 0.59563 0.354 0.63345 0.0
H2013 H 0.70613 0.50802 0.70599 0.0
H2014 H 0.70218 0.54417 0.696 0.0
H2015 H 0.72534 0.52219 0.66463 0.0
C2016 C 0.82527 0.53571 0.20595 0.0
C2017 C 0.80076 0.52678 0.188 0.0
C2018 C 0.84732 0.52106 0.19024 0.0
C2019 C 0.84414 0.49654 0.15625 0.0
C2020 C 0.81579 0.48165 0.14119 0.0
C2021 C 0.79437 0.49717 0.15721 0.0
C2022 C 0.87662 0.53643 0.20771 0.0
C2023 C 0.81079 0.45387 0.10571 0.0
C2024 C 0.92147 0.52447 0.09008 0.0
C2025 C 0.92979 0.49612 0.08708 0.0
C2026 C 0.89402 0.52516 0.11315 0.0
C2027 C 0.87382 0.49601 0.13305 0.0
C2028 C 0.88199 0.4671 0.13006 0.0
C2029 C 0.91035 0.46792 0.10743 0.0
C2030 C 0.88663 0.55711 0.11599 0.0
C2031 C 0.86124 0.4355 0.15067 0.0
H2032 H 0.8293 0.55721 0.23065 0.0
H2033 H 0.775 0.48922 0.1435 0.0
H2034 H 0.88196 0.51268 0.20461 0.0
H2035 H 0.89866 0.55941 0.19507 0.0
H2036 H 0.87262 0.54948 0.23608 0.0
H2037 H 0.78505 0.43949 0.10073 0.0
H2038 H 0.82738 0.47038 0.08506 0.0
H2039 H 0.81705 0.43108 0.1034 0.0
H2040 H 0.93671 0.54652 0.0746 0.0
H2041 H 0.91682 0.4459 0.10506 0.0
H2042 H 0.88452 0.57302 0.1437 0.0
H2043 H 0.86272 0.54398 0.10683 0.0
H2044 H 0.90595 0.57874 0.10019 0.0
H2045 H 0.87003 0.44631 0.17628 0.0
H2046 H 0.86354 0.40877 0.1368 0.0
H2047 H 0.83482 0.42741 0.15579 0.0
C2048 C 0.8371 0.53266 0.66754 0.0
C2049 C 0.8694 0.56293 0.67182 0.0
C2050 C 0.81065 0.54043 0.67891 0.0
C2051 C 0.81687 0.57935 0.69477 0.0
C2052 C 0.84885 0.60898 0.70279 0.0
C2053 C 0.87472 0.60039 0.69109 0.0
C2054 C 0.77675 0.50752 0.67173 0.0
C2055 C 0.85655 0.65077 0.72093 0.0
C2056 C 0.78421 0.63517 0.67985 0.0
C2057 C 0.77247 0.64775 0.71449 0.0
C2058 C 0.79429 0.60704 0.67144 0.0
C2059 C 0.7923 0.59148 0.69844 0.0
C2060 C 0.77495 0.59897 0.73189 0.0
C2061 C 0.76549 0.62749 0.73969 0.0
C2062 C 0.81167 0.59876 0.635 0.0
C2063 C 0.77056 0.58136 0.7609 0.0
H2064 H 0.83278 0.50334 0.65355 0.0
H2065 H 0.89957 0.62401 0.69457 0.0
H2066 H 0.75796 0.50919 0.69447 0.0
H2067 H 0.77091 0.50975 0.64877 0.0
H2068 H 0.77514 0.47846 0.66583 0.0
H2069 H 0.88228 0.66957 0.72681 0.0
H2070 H 0.85297 0.66379 0.70408 0.0
H2071 H 0.83965 0.65144 0.74591 0.0
H2072 H 0.78892 0.65023 0.66019 0.0
H2073 H 0.75516 0.63622 0.76633 0.0
H2074 H 0.8047 0.56727 0.626 0.0
H2075 H 0.83873 0.61592 0.63522 0.0
H2076 H 0.80593 0.60705 0.61587 0.0
H2077 H 0.74856 0.5796 0.78039 0.0
H2078 H 0.79249 0.60022 0.77469 0.0
H2079 H 0.76803 0.55163 0.75054 0.0
C2080 C 0.38422 0.51617 0.38726 0.0
C2081 C 0.41808 0.53025 0.37569 0.0
C2082 C 0.36666 0.52839 0.3773 0.0
C2083 C 0.38332 0.55531 0.35517 0.0
C2084 C 0.4176 0.56996 0.34375 0.0
C2085 C 0.43452 0.55722 0.35409 0.0
C2086 C 0.33011 0.51146 0.38967 0.0
C2087 C 0.43641 0.59901 0.32048 0.0
C2088 C 0.3354 0.56017 0.30042 0.0
C2089 C 0.33232 0.59346 0.32003 0.0
C2090 C 0.35158 0.5472 0.31175 0.0
C2091 C 0.36502 0.56792 0.34349 0.0
C2092 C 0.36184 0.60138 0.36351 0.0
C2093 C 0.34556 0.61373 0.35156 0.0
C2094 C 0.35428 0.51126 0.28975 0.0
C2095 C 0.37578 0.62423 0.39753 0.0
H2096 H 0.37129 0.49494 0.40357 0.0
H2097 H 0.46079 0.56867 0.34547 0.0
H2098 H 0.32198 0.49631 0.41117 0.0
H2099 H 0.32292 0.53466 0.39883 0.0
H2100 H 0.31683 0.48981 0.36743 0.0
H2101 H 0.4631 0.60811 0.3144 0.0
H2102 H 0.42614 0.58598 0.2955 0.0
H2103 H 0.43363 0.62554 0.33333 0.0
H2104 H 0.32548 0.54445 0.27591 0.0
H2105 H 0.3429 0.63912 0.36713 0.0
H2106 H 0.34199 0.48848 0.30523 0.0
H2107 H 0.38055 0.51862 0.28231 0.0
H2108 H 0.34297 0.49876 0.26549 0.0
H2109 H 0.36466 0.60473 0.41607 0.0
H2110 H 0.37119 0.64954 0.41007 0.0
H2111 H 0.40276 0.63531 0.3928 0.0
C2112 C 0.23959 0.49745 0.86846 0.0
C2113 C 0.23368 0.46769 0.8378 0.0
C2114 C 0.21668 0.5107 0.8852 0.0
C2115 C 0.18739 0.4934 0.87094 0.0
C2116 C 0.18392 0.4679 0.83739 0.0
C2117 C 0.20725 0.45531 0.8211 0.0
C2118 C 0.22184 0.53952 0.92016 0.0
C2119 C 0.15359 0.45013 0.82073 0.0
C2120 C 0.11029 0.46557 0.93748 0.0
C2121 C 0.10109 0.4928 0.93931 0.0
C2122 C 0.13816 0.46544 0.91496 0.0
C2123 C 0.1577 0.4938 0.89423 0.0
C2124 C 0.14849 0.52138 0.89589 0.0
C2125 C 0.12003 0.52038 0.91834 0.0
C2126 C 0.14671 0.4349 0.91351 0.0
C2127 C 0.16915 0.55306 0.87543 0.0
H2128 H 0.26031 0.50764 0.8812 0.0
H2129 H 0.20334 0.43331 0.7967 0.0
H2130 H 0.21552 0.56196 0.92151 0.0
H2131 H 0.20532 0.52386 0.94136 0.0
H2132 H 0.24765 0.55438 0.92511 0.0
H2133 H 0.15714 0.43634 0.79251 0.0
H2134 H 0.13252 0.42728 0.8343 0.0
H2135 H 0.14698 0.47275 0.82348 0.0
H2136 H 0.09549 0.44407 0.95354 0.0
H2137 H 0.11315 0.54186 0.92017 0.0
H2138 H 0.17115 0.44945 0.92199 0.0
H2139 H 0.1483 0.41773 0.88622 0.0
H2140 H 0.12826 0.41422 0.9305 0.0
H2141 H 0.18734 0.57911 0.89175 0.0
H2142 H 0.15377 0.56204 0.86944 0.0
H2143 H 0.18288 0.54398 0.85056 0.0
C2144 C 0.27934 0.38471 0.34452 0.0
C2145 C 0.2904 0.37447 0.30896 0.0
C2146 C 0.26408 0.40803 0.35553 0.0
C2147 C 0.25943 0.4201 0.33016 0.0
C2148 C 0.27611 0.41598 0.29566 0.0
C2149 C 0.29182 0.39342 0.2855 0.0
C2150 C 0.24868 0.41471 0.39323 0.0
C2151 C 0.27275 0.42962 0.2681 0.0
C2152 C 0.17039 0.39254 0.33982 0.0
C2153 C 0.17132 0.42883 0.35446 0.0
C2154 C 0.19923 0.38987 0.33043 0.0
C2155 C 0.22986 0.42436 0.33641 0.0
C2156 C 0.2313 0.46139 0.3492 0.0
C2157 C 0.20193 0.46317 0.35804 0.0
C2158 C 0.19658 0.34971 0.31543 0.0
C2159 C 0.26323 0.49904 0.35539 0.0
H2160 H 0.2791 0.37104 0.36293 0.0
H2161 H 0.3017 0.3868 0.25814 0.0
H2162 H 0.25038 0.44406 0.40196 0.0
H2163 H 0.22219 0.39228 0.39584 0.0
H2164 H 0.26075 0.41233 0.41072 0.0
H2165 H 0.29211 0.43132 0.24495 0.0
H2166 H 0.24834 0.40852 0.25915 0.0
H2167 H 0.27413 0.45877 0.27891 0.0
H2168 H 0.14689 0.36581 0.33731 0.0
H2169 H 0.20291 0.49146 0.36873 0.0
H2170 H 0.20391 0.34236 0.33387 0.0
H2171 H 0.21343 0.34944 0.29033 0.0
H2172 H 0.17116 0.32632 0.31053 0.0
H2173 H 0.26678 0.50631 0.38296 0.0
H2174 H 0.26259 0.52374 0.35136 0.0
H2175 H 0.28465 0.49664 0.33801 0.0
loop_
_geom_bond_atom_site_label_1
_geom_bond_atom_site_label_2
_geom_bond_distance
_geom_bond_site_symmetry_2
_ccdc_geom_bond_type
Pr0 C2 2.880 . S
Pr0 O20 2.562 1_545 S
Pr0 O21 2.490 . S
Pr0 O22 2.695 1_554 S
Pr0 O23 2.512 1_554 S
Pr0 O25 2.437 1_544 S
Pr0 O28 2.436 1_445 S
Pr0 O30 2.438 . S
Pr1 C11 2.880 1_565 S
Pr1 O22 2.436 1_665 S
Pr1 O24 2.448 . S
Pr1 O26 2.562 1_565 S
Pr1 O27 2.490 . S
Pr1 O28 2.695 1_556 S
Pr1 O29 2.512 1_556 S
Pr1 O31 2.437 1_566 S
C2 Pr0 2.880 . S
C2 C3 1.491 1_545 S
C2 O20 1.254 1_545 S
C2 O21 1.225 . S
C3 C2 1.491 1_565 S
C3 C4 1.392 1_565 S
C3 C8 1.356 . S
C4 C3 1.392 1_545 S
C4 C5 1.368 . S
C4 H32 0.929 . S
C5 C4 1.368 . S
C5 C6 1.386 1_545 S
C5 H33 0.929 . S
C6 C5 1.386 1_565 S
C6 C7 1.373 . S
C7 C6 1.373 . S
C7 C8 1.409 . S
C7 H34 0.931 . S
C8 C3 1.356 . S
C8 C7 1.409 . S
C8 H35 0.930 . S
C9 O22 1.270 . S
C9 O23 1.248 . S
C10 O24 1.257 1_455 S
C10 O25 1.278 . S
C11 Pr1 2.880 1_545 S
C11 C12 1.491 . S
C11 O26 1.254 . S
C11 O27 1.225 1_545 S
C12 C11 1.491 . S
C12 C13 1.392 1_545 S
C12 C17 1.356 . S
C13 C12 1.392 1_565 S
C13 C14 1.368 . S
C13 H36 0.929 . S
C14 C13 1.368 . S
C14 C15 1.386 1_565 S
C14 H37 0.929 . S
C15 C14 1.386 1_545 S
C15 C16 1.373 . S
C16 C15 1.373 . S
C16 C17 1.409 . S
C16 H38 0.931 . S
C17 C12 1.356 . S
C17 C16 1.409 . S
C17 H39 0.930 . S
C18 O28 1.270 . S
C18 O29 1.248 . S
C19 O30 1.267 1_655 S
C19 O31 1.278 . S
O20 Pr0 2.562 1_565 S
O20 C2 1.254 1_565 S
O21 Pr0 2.490 . S
O21 C2 1.225 . S
O22 Pr0 2.695 1_556 S
O22 Pr1 2.436 1_445 S
O22 C9 1.270 . S
O23 Pr0 2.512 1_556 S
O23 C9 1.248 . S
O24 Pr1 2.448 . S
O24 C10 1.257 1_655 S
O25 Pr0 2.437 1_566 S
O25 C10 1.278 . S
O26 Pr1 2.562 1_545 S
O26 C11 1.254 . S
O27 Pr1 2.490 . S
O27 C11 1.225 1_565 S
O28 Pr0 2.436 1_665 S
O28 Pr1 2.695 1_554 S
O28 C18 1.270 . S
O29 Pr1 2.512 1_554 S
O29 C18 1.248 . S
O30 Pr0 2.438 . S
O30 C19 1.267 1_455 S
O31 Pr1 2.437 1_544 S
O31 C19 1.278 . S
H32 C4 0.929 . S
H33 C5 0.929 . S
H34 C7 0.931 . S
H35 C8 0.930 . S
H36 C13 0.929 . S
H37 C14 0.929 . S
H38 C16 0.931 . S
H39 C17 0.930 . S
Pr40 C42 2.880 . S
Pr40 O60 2.562 . S
Pr40 O61 2.490 . S
Pr40 O62 2.695 . S
Pr40 O63 2.512 . S
Pr40 O65 2.437 . S
Pr40 O68 2.436 . S
Pr40 O70 2.438 . S
Pr41 C51 2.880 . S
Pr41 O62 2.436 . S
Pr41 O64 2.438 . S
Pr41 O66 2.562 . S
Pr41 O67 2.490 . S
Pr41 O68 2.695 . S
Pr41 O69 2.512 . S
Pr41 O71 2.437 . S
C42 Pr40 2.880 . S
C42 C43 1.491 . S
C42 O60 1.254 . S
C42 O61 1.225 . S
C43 C42 1.491 . S
C43 C44 1.392 . S
C43 C48 1.356 . S
C44 C43 1.392 . S
C44 C45 1.368 . S
C44 H72 0.929 . S
C45 C44 1.368 . S
C45 C46 1.386 . S
C45 H73 0.929 . S
C46 C45 1.386 . S
C46 C47 1.373 . S
C47 C46 1.373 . S
C47 C48 1.409 . S
C47 H74 0.931 . S
C48 C43 1.356 . S
C48 C47 1.409 . S
C48 H75 0.930 . S
C49 O62 1.270 . S
C49 O63 1.248 . S
C50 O64 1.267 . S
C50 O65 1.278 . S
C51 Pr41 2.880 . S
C51 C52 1.491 . S
C51 O66 1.254 . S
C51 O67 1.225 . S
C52 C51 1.491 . S
C52 C53 1.392 . S
C52 C57 1.356 . S
C53 C52 1.392 . S
C53 C54 1.368 . S
C53 H76 0.929 . S
C54 C53 1.368 . S
C54 C55 1.386 . S
C54 H77 0.929 . S
C55 C54 1.386 . S
C55 C56 1.373 . S
C56 C55 1.373 . S
C56 C57 1.409 . S
C56 H78 0.931 . S
C57 C52 1.356 . S
C57 C56 1.409 . S
C57 H79 0.930 . S
C58 O68 1.270 . S
C58 O69 1.248 . S
C59 O70 1.267 . S
C59 O71 1.278 . S
O60 Pr40 2.562 . S
O60 C42 1.254 . S
O61 Pr40 2.490 . S
O61 C42 1.225 . S
O62 Pr40 2.695 . S
O62 Pr41 2.436 . S
O62 C49 1.270 . S
O63 Pr40 2.512 . S
O63 C49 1.248 . S
O64 Pr41 2.438 . S
O64 C50 1.267 . S
O65 Pr40 2.437 . S
O65 C50 1.278 . S
O66 Pr41 2.562 . S
O66 C51 1.254 . S
O67 Pr41 2.490 . S
O67 C51 1.225 . S
O68 Pr40 2.436 . S
O68 Pr41 2.695 . S
O68 C58 1.270 . S
O69 Pr41 2.512 . S
O69 C58 1.248 . S
O70 Pr40 2.438 . S
O70 C59 1.267 . S
O71 Pr41 2.437 . S
O71 C59 1.278 . S
H72 C44 0.929 . S
H73 C45 0.929 . S
H74 C47 0.931 . S
H75 C48 0.930 . S
H76 C53 0.929 . S
H77 C54 0.929 . S
H78 C56 0.931 . S
H79 C57 0.930 . S
Pr80 C82 2.880 . S
Pr80 O100 2.562 . S
Pr80 O101 2.490 . S
Pr80 O102 2.695 . S
Pr80 O103 2.512 . S
Pr80 O105 2.437 . S
Pr80 O108 2.436 1_545 S
Pr80 O110 2.438 . S
Pr81 C91 2.880 . S
Pr81 O102 2.436 1_565 S
Pr81 O104 2.406 1_565 S
Pr81 O106 2.562 . S
Pr81 O107 2.490 . S
Pr81 O108 2.695 . S
Pr81 O109 2.512 . S
Pr81 O111 2.437 . S
C82 Pr80 2.880 . S
C82 C83 1.491 . S
C82 O100 1.254 . S
C82 O101 1.225 . S
C83 C82 1.491 . S
C83 C84 1.392 . S
C83 C88 1.356 . S
C84 C83 1.392 . S
C84 C85 1.368 . S
C84 H112 0.929 . S
C85 C84 1.368 . S
C85 C86 1.386 . S
C85 H113 0.929 . S
C86 C85 1.386 . S
C86 C87 1.373 . S
C87 C86 1.373 . S
C87 C88 1.409 . S
C87 H114 0.931 . S
C88 C83 1.356 . S
C88 C87 1.409 . S
C88 H115 0.930 . S
C89 O102 1.270 . S
C89 O103 1.248 . S
C90 O104 1.300 . S
C90 O105 1.278 . S
C91 Pr81 2.880 . S
C91 C92 1.491 . S
C91 O106 1.254 . S
C91 O107 1.225 . S
C92 C91 1.491 . S
C92 C93 1.392 . S
C92 C97 1.356 . S
C93 C92 1.392 . S
C93 C94 1.368 . S
C93 H116 0.929 . S
C94 C93 1.368 . S
C94 C95 1.386 . S
C94 H117 0.929 . S
C95 C94 1.386 . S
C95 C96 1.373 . S
C96 C95 1.373 . S
C96 C97 1.409 . S
C96 H118 0.931 . S
C97 C92 1.356 . S
C97 C96 1.409 . S
C97 H119 0.930 . S
C98 O108 1.270 . S
C98 O109 1.248 . S
C99 O110 1.267 1_565 S
C99 O111 1.278 . S
O100 Pr80 2.562 . S
O100 C82 1.254 . S
O101 Pr80 2.490 . S
O101 C82 1.225 . S
O102 Pr80 2.695 . S
O102 Pr81 2.436 1_545 S
O102 C89 1.270 . S
O103 Pr80 2.512 . S
O103 C89 1.248 . S
O104 Pr81 2.406 1_545 S
O104 C90 1.300 . S
O105 Pr80 2.437 . S
O105 C90 1.278 . S
O106 Pr81 2.562 . S
O106 C91 1.254 . S
O107 Pr81 2.490 . S
O107 C91 1.225 . S
O108 Pr80 2.436 1_565 S
O108 Pr81 2.695 . S
O108 C98 1.270 . S
O109 Pr81 2.512 . S
O109 C98 1.248 . S
O110 Pr80 2.438 . S
O110 C99 1.267 1_545 S
O111 Pr81 2.437 . S
O111 C99 1.278 . S
H112 C84 0.929 . S
H113 C85 0.929 . S
H114 C87 0.931 . S
H115 C88 0.930 . S
H116 C93 0.929 . S
H117 C94 0.929 . S
H118 C96 0.931 . S
H119 C97 0.930 . S
Pr120 C122 2.880 . S
Pr120 O140 2.562 . S
Pr120 O141 2.490 . S
Pr120 O142 2.695 . S
Pr120 O143 2.512 . S
Pr120 O145 2.437 . S
Pr120 O148 2.436 . S
Pr120 O150 2.438 . S
Pr121 C131 2.880 . S
Pr121 O142 2.436 . S
Pr121 O144 2.438 . S
Pr121 O146 2.562 . S
Pr121 O147 2.490 . S
Pr121 O148 2.695 . S
Pr121 O149 2.512 . S
Pr121 O151 2.437 . S
C122 Pr120 2.880 . S
C122 C123 1.491 . S
C122 O140 1.254 . S
C122 O141 1.225 . S
C123 C122 1.491 . S
C123 C124 1.392 . S
C123 C128 1.356 . S
C124 C123 1.392 . S
C124 C125 1.368 . S
C124 H152 0.929 . S
C125 C124 1.368 . S
C125 C126 1.386 . S
C125 H153 0.929 . S
C126 C125 1.386 . S
C126 C127 1.373 . S
C127 C126 1.373 . S
C127 C128 1.409 . S
C127 H154 0.931 . S
C128 C123 1.356 . S
C128 C127 1.409 . S
C128 H155 0.930 . S
C129 O142 1.270 . S
C129 O143 1.248 . S
C130 O144 1.267 . S
C130 O145 1.278 . S
C131 Pr121 2.880 . S
C131 C132 1.491 . S
C131 O146 1.254 . S
C131 O147 1.225 . S
C132 C131 1.491 . S
C132 C133 1.392 . S
C132 C137 1.356 . S
C133 C132 1.392 . S
C133 C134 1.368 . S
C133 H156 0.929 . S
C134 C133 1.368 . S
C134 C135 1.386 . S
C134 H157 0.929 . S
C135 C134 1.386 . S
C135 C136 1.373 . S
C136 C135 1.373 . S
C136 C137 1.409 . S
C136 H158 0.931 . S
C137 C132 1.356 . S
C137 C136 1.409 . S
C137 H159 0.930 . S
C138 O148 1.270 . S
C138 O149 1.248 . S
C139 O150 1.267 . S
C139 O151 1.278 . S
O140 Pr120 2.562 . S
O140 C122 1.254 . S
O141 Pr120 2.490 . S
O141 C122 1.225 . S
O142 Pr120 2.695 . S
O142 Pr121 2.436 . S
O142 C129 1.270 . S
O143 Pr120 2.512 . S
O143 C129 1.248 . S
O144 Pr121 2.438 . S
O144 C130 1.267 . S
O145 Pr120 2.437 . S
O145 C130 1.278 . S
O146 Pr121 2.562 . S
O146 C131 1.254 . S
O147 Pr121 2.490 . S
O147 C131 1.225 . S
O148 Pr120 2.436 . S
O148 Pr121 2.695 . S
O148 C138 1.270 . S
O149 Pr121 2.512 . S
O149 C138 1.248 . S
O150 Pr120 2.438 . S
O150 C139 1.267 . S
O151 Pr121 2.437 . S
O151 C139 1.278 . S
H152 C124 0.929 . S
H153 C125 0.929 . S
H154 C127 0.931 . S
H155 C128 0.930 . S
H156 C133 0.929 . S
H157 C134 0.929 . S
H158 C136 0.931 . S
H159 C137 0.930 . S
Pr160 C162 2.880 . S
Pr160 O180 2.562 . S
Pr160 O181 2.490 . S
Pr160 O182 2.695 1_545 S
Pr160 O183 2.512 1_545 S
Pr160 O185 2.437 1_545 S
Pr160 O188 2.436 1_655 S
Pr160 O190 2.438 1_655 S
Pr161 C171 2.880 . S
Pr161 O182 2.436 1_455 S
Pr161 O184 2.438 1_455 S
Pr161 O186 2.562 . S
Pr161 O187 2.490 . S
Pr161 O188 2.695 1_565 S
Pr161 O189 2.512 1_565 S
Pr161 O191 2.437 1_565 S
C162 Pr160 2.880 . S
C162 C163 1.491 . S
C162 O180 1.254 . S
C162 O181 1.225 . S
C163 C162 1.491 . S
C163 C164 1.392 . S
C163 C168 1.356 . S
C164 C163 1.392 . S
C164 C165 1.368 . S
C164 H192 0.929 . S
C165 C164 1.368 . S
C165 C166 1.386 . S
C165 H193 0.929 . S
C166 C165 1.386 . S
C166 C167 1.373 . S
C167 C166 1.373 . S
C167 C168 1.409 . S
C167 H194 0.931 . S
C168 C163 1.356 . S
C168 C167 1.409 . S
C168 H195 0.930 . S
C169 O182 1.270 . S
C169 O183 1.248 . S
C170 O184 1.267 . S
C170 O185 1.278 . S
C171 Pr161 2.880 . S
C171 C172 1.491 . S
C171 O186 1.254 . S
C171 O187 1.225 . S
C172 C171 1.491 . S
C172 C173 1.392 . S
C172 C177 1.356 . S
C173 C172 1.392 . S
C173 C174 1.368 . S
C173 H196 0.929 . S
C174 C173 1.368 . S
C174 C175 1.386 . S
C174 H197 0.929 . S
C175 C174 1.386 . S
C175 C176 1.373 . S
C176 C175 1.373 . S
C176 C177 1.409 . S
C176 H198 0.931 . S
C177 C172 1.356 . S
C177 C176 1.409 . S
C177 H199 0.930 . S
C178 O188 1.270 . S
C178 O189 1.248 . S
C179 O190 1.267 . S
C179 O191 1.278 . S
O180 Pr160 2.562 . S
O180 C162 1.254 . S
O181 Pr160 2.490 . S
O181 C162 1.225 . S
O182 Pr160 2.695 1_565 S
O182 Pr161 2.436 1_655 S
O182 C169 1.270 . S
O183 Pr160 2.512 1_565 S
O183 C169 1.248 . S
O184 Pr161 2.438 1_655 S
O184 C170 1.267 . S
O185 Pr160 2.437 1_565 S
O185 C170 1.278 . S
O186 Pr161 2.562 . S
O186 C171 1.254 . S
O187 Pr161 2.490 . S
O187 C171 1.225 . S
O188 Pr160 2.436 1_455 S
O188 Pr161 2.695 1_545 S
O188 C178 1.270 . S
O189 Pr161 2.512 1_545 S
O189 C178 1.248 . S
O190 Pr160 2.438 1_455 S
O190 C179 1.267 . S
O191 Pr161 2.437 1_545 S
O191 C179 1.278 . S
H192 C164 0.929 . S
H193 C165 0.929 . S
H194 C167 0.931 . S
H195 C168 0.930 . S
H196 C173 0.929 . S
H197 C174 0.929 . S
H198 C176 0.931 . S
H199 C177 0.930 . S
Pr200 C202 2.880 . S
Pr200 O220 2.562 . S
Pr200 O221 2.490 . S
Pr200 O222 2.695 . S
Pr200 O223 2.512 . S
Pr200 O225 2.437 . S
Pr200 O228 2.436 . S
Pr200 O230 2.438 . S
Pr201 C211 2.880 . S
Pr201 O222 2.436 . S
Pr201 O224 2.438 . S
Pr201 O226 2.562 . S
Pr201 O227 2.490 . S
Pr201 O228 2.695 . S
Pr201 O229 2.512 . S
Pr201 O231 2.437 . S
C202 Pr200 2.880 . S
C202 C203 1.491 . S
C202 O220 1.254 . S
C202 O221 1.225 . S
C203 C202 1.491 . S
C203 C204 1.392 . S
C203 C208 1.356 . S
C204 C203 1.392 . S
C204 C205 1.368 . S
C204 H232 0.929 . S
C205 C204 1.368 . S
C205 C206 1.386 . S
C205 H233 0.929 . S
C206 C205 1.386 . S
C206 C207 1.373 . S
C207 C206 1.373 . S
C207 C208 1.409 . S
C207 H234 0.931 . S
C208 C203 1.356 . S
C208 C207 1.409 . S
C208 H235 0.930 . S
C209 O222 1.270 . S
C209 O223 1.248 . S
C210 O224 1.267 . S
C210 O225 1.278 . S
C211 Pr201 2.880 . S
C211 C212 1.491 . S
C211 O226 1.254 . S
C211 O227 1.225 . S
C212 C211 1.491 . S
C212 C213 1.392 . S
C212 C217 1.356 . S
C213 C212 1.392 . S
C213 C214 1.368 . S
C213 H236 0.929 . S
C214 C213 1.368 . S
C214 C215 1.386 . S
C214 H237 0.929 . S
C215 C214 1.386 . S
C215 C216 1.373 . S
C216 C215 1.373 . S
C216 C217 1.409 . S
C216 H238 0.931 . S
C217 C212 1.356 . S
C217 C216 1.409 . S
C217 H239 0.930 . S
C218 O228 1.270 . S
C218 O229 1.248 . S
C219 O230 1.267 . S
C219 O231 1.278 . S
O220 Pr200 2.562 . S
O220 C202 1.254 . S
O221 Pr200 2.490 . S
O221 C202 1.225 . S
O222 Pr200 2.695 . S
O222 Pr201 2.436 . S
O222 C209 1.270 . S
O223 Pr200 2.512 . S
O223 C209 1.248 . S
O224 Pr201 2.438 . S
O224 C210 1.267 . S
O225 Pr200 2.437 . S
O225 C210 1.278 . S
O226 Pr201 2.562 . S
O226 C211 1.254 . S
O227 Pr201 2.490 . S
O227 C211 1.225 . S
O228 Pr200 2.436 . S
O228 Pr201 2.695 . S
O228 C218 1.270 . S
O229 Pr201 2.512 . S
O229 C218 1.248 . S
O230 Pr200 2.438 . S
O230 C219 1.267 . S
O231 Pr201 2.437 . S
O231 C219 1.278 . S
H232 C204 0.929 . S
H233 C205 0.929 . S
H234 C207 0.931 . S
H235 C208 0.930 . S
H236 C213 0.929 . S
H237 C214 0.929 . S
H238 C216 0.931 . S
H239 C217 0.930 . S
Pr240 C242 2.880 . S
Pr240 O260 2.562 . S
Pr240 O261 2.490 . S
Pr240 O262 2.695 1_566 S
Pr240 O263 2.512 1_566 S
Pr240 O265 2.437 1_565 S
Pr240 O268 2.436 . S
Pr240 O270 2.438 1_556 S
Pr241 C251 2.880 . S
Pr241 O262 2.436 . S
Pr241 O264 2.438 1_554 S
Pr241 O266 2.562 . S
Pr241 O267 2.490 . S
Pr241 O268 2.695 1_544 S
Pr241 O269 2.512 1_544 S
Pr241 O271 2.437 1_545 S
C242 Pr240 2.880 . S
C242 C243 1.491 . S
C242 O260 1.254 . S
C242 O261 1.225 . S
C243 C242 1.491 . S
C243 C244 1.392 . S
C243 C248 1.356 . S
C244 C243 1.392 . S
C244 C245 1.368 . S
C244 H272 0.929 . S
C245 C244 1.368 . S
C245 C246 1.386 . S
C245 H273 0.929 . S
C246 C245 1.386 . S
C246 C247 1.373 . S
C247 C246 1.373 . S
C247 C248 1.409 . S
C247 H274 0.931 . S
C248 C243 1.356 . S
C248 C247 1.409 . S
C248 H275 0.930 . S
C249 O262 1.270 . S
C249 O263 1.248 . S
C250 O264 1.267 . S
C250 O265 1.278 . S
C251 Pr241 2.880 . S
C251 C252 1.491 . S
C251 O266 1.254 . S
C251 O267 1.225 . S
C252 C251 1.491 . S
C252 C253 1.392 . S
C252 C257 1.356 . S
C253 C252 1.392 . S
C253 C254 1.368 . S
C253 H276 0.929 . S
C254 C253 1.368 . S
C254 C255 1.386 . S
C254 H277 0.929 . S
C255 C254 1.386 . S
C255 C256 1.373 . S
C256 C255 1.373 . S
C256 C257 1.409 . S
C256 H278 0.931 . S
C257 C252 1.356 . S
C257 C256 1.409 . S
C257 H279 0.930 . S
C258 O268 1.270 . S
C258 O269 1.248 . S
C259 O270 1.267 . S
C259 O271 1.278 . S
O260 Pr240 2.562 . S
O260 C242 1.254 . S
O261 Pr240 2.490 . S
O261 C242 1.225 . S
O262 Pr240 2.695 1_544 S
O262 Pr241 2.436 . S
O262 C249 1.270 . S
O263 Pr240 2.512 1_544 S
O263 C249 1.248 . S
O264 Pr241 2.438 1_556 S
O264 C250 1.267 . S
O265 Pr240 2.437 1_545 S
O265 C250 1.278 . S
O266 Pr241 2.562 . S
O266 C251 1.254 . S
O267 Pr241 2.490 . S
O267 C251 1.225 . S
O268 Pr240 2.436 . S
O268 Pr241 2.695 1_566 S
O268 C258 1.270 . S
O269 Pr241 2.512 1_566 S
O269 C258 1.248 . S
O270 Pr240 2.438 1_554 S
O270 C259 1.267 . S
O271 Pr241 2.437 1_565 S
O271 C259 1.278 . S
H272 C244 0.929 . S
H273 C245 0.929 . S
H274 C247 0.931 . S
H275 C248 0.930 . S
H276 C253 0.929 . S
H277 C254 0.929 . S
H278 C256 0.931 . S
H279 C257 0.930 . S
Pr280 C282 2.880 . S
Pr280 O300 2.562 . S
Pr280 O301 2.490 . S
Pr280 O302 2.695 . S
Pr280 O303 2.512 . S
Pr280 O305 2.437 . S
Pr280 O308 2.436 . S
Pr280 O310 2.438 . S
Pr281 C291 2.880 . S
Pr281 O302 2.436 . S
Pr281 O304 2.438 . S
Pr281 O306 2.562 . S
Pr281 O307 2.490 . S
Pr281 O308 2.695 . S
Pr281 O309 2.512 . S
Pr281 O311 2.437 . S
C282 Pr280 2.880 . S
C282 C283 1.491 . S
C282 O300 1.254 . S
C282 O301 1.225 . S
C283 C282 1.491 . S
C283 C284 1.392 . S
C283 C288 1.356 . S
C284 C283 1.392 . S
C284 C285 1.368 . S
C284 H312 0.929 . S
C285 C284 1.368 . S
C285 C286 1.386 . S
C285 H313 0.929 . S
C286 C285 1.386 . S
C286 C287 1.373 . S
C287 C286 1.373 . S
C287 C288 1.409 . S
C287 H314 0.931 . S
C288 C283 1.356 . S
C288 C287 1.409 . S
C288 H315 0.930 . S
C289 O302 1.270 . S
C289 O303 1.248 . S
C290 O304 1.267 . S
C290 O305 1.278 . S
C291 Pr281 2.880 . S
C291 C292 1.491 . S
C291 O306 1.254 . S
C291 O307 1.225 . S
C292 C291 1.491 . S
C292 C293 1.392 . S
C292 C297 1.356 . S
C293 C292 1.392 . S
C293 C294 1.368 . S
C293 H316 0.929 . S
C294 C293 1.368 . S
C294 C295 1.386 . S
C294 H317 0.929 . S
C295 C294 1.386 . S
C295 C296 1.373 . S
C296 C295 1.373 . S
C296 C297 1.409 . S
C296 H318 0.931 . S
C297 C292 1.356 . S
C297 C296 1.409 . S
C297 H319 0.930 . S
C298 O308 1.270 . S
C298 O309 1.248 . S
C299 O310 1.267 . S
C299 O311 1.278 . S
O300 Pr280 2.562 . S
O300 C282 1.254 . S
O301 Pr280 2.490 . S
O301 C282 1.225 . S
O302 Pr280 2.695 . S
O302 Pr281 2.436 . S
O302 C289 1.270 . S
O303 Pr280 2.512 . S
O303 C289 1.248 . S
O304 Pr281 2.438 . S
O304 C290 1.267 . S
O305 Pr280 2.437 . S
O305 C290 1.278 . S
O306 Pr281 2.562 . S
O306 C291 1.254 . S
O307 Pr281 2.490 . S
O307 C291 1.225 . S
O308 Pr280 2.436 . S
O308 Pr281 2.695 . S
O308 C298 1.270 . S
O309 Pr281 2.512 . S
O309 C298 1.248 . S
O310 Pr280 2.438 . S
O310 C299 1.267 . S
O311 Pr281 2.437 . S
O311 C299 1.278 . S
H312 C284 0.929 . S
H313 C285 0.929 . S
H314 C287 0.931 . S
H315 C288 0.930 . S
H316 C293 0.929 . S
H317 C294 0.929 . S
H318 C296 0.931 . S
H319 C297 0.930 . S
Pr320 C322 2.880 1_554 S
Pr320 O340 2.562 1_554 S
Pr320 O341 2.490 . S
Pr320 O342 2.695 . S
Pr320 O343 2.512 . S
Pr320 O345 2.437 1_554 S
Pr320 O348 2.436 1_554 S
Pr320 O350 2.438 . S
Pr321 C331 2.880 1_556 S
Pr321 O342 2.436 1_556 S
Pr321 O344 2.438 . S
Pr321 O346 2.562 1_556 S
Pr321 O347 2.490 . S
Pr321 O348 2.695 . S
Pr321 O349 2.512 . S
Pr321 O351 2.437 1_556 S
C322 Pr320 2.880 1_556 S
C322 C323 1.491 . S
C322 O340 1.254 . S
C322 O341 1.225 1_556 S
C323 C322 1.491 . S
C323 C324 1.392 . S
C323 C328 1.356 . S
C324 C323 1.392 . S
C324 C325 1.368 . S
C324 H352 0.929 1_556 S
C325 C324 1.368 . S
C325 C326 1.386 . S
C325 H353 0.929 . S
C326 C325 1.386 . S
C326 C327 1.373 . S
C327 C326 1.373 . S
C327 C328 1.409 . S
C327 H354 0.931 . S
C328 C323 1.356 . S
C328 C327 1.409 . S
C328 H355 0.930 . S
C329 O342 1.270 . S
C329 O343 1.248 . S
C330 O344 1.267 . S
C330 O345 1.278 . S
C331 Pr321 2.880 1_554 S
C331 C332 1.491 . S
C331 O346 1.254 . S
C331 O347 1.225 1_554 S
C332 C331 1.491 . S
C332 C333 1.392 . S
C332 C337 1.356 . S
C333 C332 1.392 . S
C333 C334 1.368 . S
C333 H356 0.929 1_554 S
C334 C333 1.368 . S
C334 C335 1.386 . S
C334 H357 0.929 . S
C335 C334 1.386 . S
C335 C336 1.373 . S
C336 C335 1.373 . S
C336 C337 1.409 . S
C336 H358 0.931 . S
C337 C332 1.356 . S
C337 C336 1.409 . S
C337 H359 0.930 . S
C338 O348 1.270 . S
C338 O349 1.248 . S
C339 O350 1.267 . S
C339 O351 1.278 . S
O340 Pr320 2.562 1_556 S
O340 C322 1.254 . S
O341 Pr320 2.490 . S
O341 C322 1.225 1_554 S
O342 Pr320 2.695 . S
O342 Pr321 2.436 1_554 S
O342 C329 1.270 . S
O343 Pr320 2.512 . S
O343 C329 1.248 . S
O344 Pr321 2.438 . S
O344 C330 1.267 . S
O345 Pr320 2.437 1_556 S
O345 C330 1.278 . S
O346 Pr321 2.562 1_554 S
O346 C331 1.254 . S
O347 Pr321 2.490 . S
O347 C331 1.225 1_556 S
O348 Pr320 2.436 1_556 S
O348 Pr321 2.695 . S
O348 C338 1.270 . S
O349 Pr321 2.512 . S
O349 C338 1.248 . S
O350 Pr320 2.438 . S
O350 C339 1.267 . S
O351 Pr321 2.437 1_554 S
O351 C339 1.278 . S
H352 C324 0.929 1_554 S
H353 C325 0.929 . S
H354 C327 0.931 . S
H355 C328 0.930 . S
H356 C333 0.929 1_556 S
H357 C334 0.929 . S
H358 C336 0.931 . S
H359 C337 0.930 . S
Pr360 C362 2.880 . S
Pr360 O380 2.562 . S
Pr360 O381 2.490 . S
Pr360 O382 2.695 . S
Pr360 O383 2.512 . S
Pr360 O385 2.437 . S
Pr360 O388 2.436 . S
Pr360 O390 2.438 . S
Pr361 C371 2.880 . S
Pr361 O382 2.436 . S
Pr361 O384 2.438 . S
Pr361 O386 2.562 . S
Pr361 O387 2.490 . S
Pr361 O388 2.695 . S
Pr361 O389 2.512 . S
Pr361 O391 2.437 . S
C362 Pr360 2.880 . S
C362 C363 1.491 . S
C362 O380 1.254 . S
C362 O381 1.225 . S
C363 C362 1.491 . S
C363 C364 1.392 . S
C363 C368 1.356 . S
C364 C363 1.392 . S
C364 C365 1.368 . S
C364 H392 0.929 . S
C365 C364 1.368 . S
C365 C366 1.386 . S
C365 H393 0.929 . S
C366 C365 1.386 . S
C366 C367 1.373 . S
C367 C366 1.373 . S
C367 C368 1.409 . S
C367 H394 0.931 . S
C368 C363 1.356 . S
C368 C367 1.409 . S
C368 H395 0.930 . S
C369 O382 1.270 . S
C369 O383 1.248 . S
C370 O384 1.267 . S
C370 O385 1.278 . S
C371 Pr361 2.880 . S
C371 C372 1.491 . S
C371 O386 1.254 . S
C371 O387 1.225 . S
C372 C371 1.491 . S
C372 C373 1.392 . S
C372 C377 1.356 . S
C373 C372 1.392 . S
C373 C374 1.368 . S
C373 H396 0.929 . S
C374 C373 1.368 . S
C374 C375 1.386 . S
C374 H397 0.929 . S
C375 C374 1.386 . S
C375 C376 1.373 . S
C376 C375 1.373 . S
C376 C377 1.409 . S
C376 H398 0.931 . S
C377 C372 1.356 . S
C377 C376 1.409 . S
C377 H399 0.930 . S
C378 O388 1.270 . S
C378 O389 1.248 . S
C379 O390 1.267 . S
C379 O391 1.278 . S
O380 Pr360 2.562 . S
O380 C362 1.254 . S
O381 Pr360 2.490 . S
O381 C362 1.225 . S
O382 Pr360 2.695 . S
O382 Pr361 2.436 . S
O382 C369 1.270 . S
O383 Pr360 2.512 . S
O383 C369 1.248 . S
O384 Pr361 2.438 . S
O384 C370 1.267 . S
O385 Pr360 2.437 . S
O385 C370 1.278 . S
O386 Pr361 2.562 . S
O386 C371 1.254 . S
O387 Pr361 2.490 . S
O387 C371 1.225 . S
O388 Pr360 2.436 . S
O388 Pr361 2.695 . S
O388 C378 1.270 . S
O389 Pr361 2.512 . S
O389 C378 1.248 . S
O390 Pr360 2.438 . S
O390 C379 1.267 . S
O391 Pr361 2.437 . S
O391 C379 1.278 . S
H392 C364 0.929 . S
H393 C365 0.929 . S
H394 C367 0.931 . S
H395 C368 0.930 . S
H396 C373 0.929 . S
H397 C374 0.929 . S
H398 C376 0.931 . S
H399 C377 0.930 . S
Pr400 C402 2.880 . S
Pr400 O420 2.562 . S
Pr400 O421 2.490 . S
Pr400 O422 2.695 . S
Pr400 O423 2.512 . S
Pr400 O425 2.437 . S
Pr400 O428 2.436 1_455 S
Pr400 O430 2.438 1_455 S
Pr401 C411 2.880 . S
Pr401 O422 2.436 1_655 S
Pr401 O424 2.438 1_655 S
Pr401 O426 2.562 . S
Pr401 O427 2.490 . S
Pr401 O428 2.695 . S
Pr401 O429 2.512 . S
Pr401 O431 2.437 . S
C402 Pr400 2.880 . S
C402 C403 1.491 . S
C402 O420 1.254 . S
C402 O421 1.225 . S
C403 C402 1.491 . S
C403 C404 1.392 . S
C403 C408 1.356 . S
C404 C403 1.392 . S
C404 C405 1.368 . S
C404 H432 0.929 . S
C405 C404 1.368 . S
C405 C406 1.386 . S
C405 H433 0.929 . S
C406 C405 1.386 . S
C406 C407 1.373 . S
C407 C406 1.373 . S
C407 C408 1.409 . S
C407 H434 0.931 . S
C408 C403 1.356 . S
C408 C407 1.409 . S
C408 H435 0.930 . S
C409 O422 1.270 . S
C409 O423 1.248 . S
C410 O424 1.267 . S
C410 O425 1.278 . S
C411 Pr401 2.880 . S
C411 C412 1.491 . S
C411 O426 1.254 . S
C411 O427 1.225 . S
C412 C411 1.491 . S
C412 C413 1.392 . S
C412 C417 1.356 . S
C413 C412 1.392 . S
C413 C414 1.368 . S
C413 H436 0.929 . S
C414 C413 1.368 . S
C414 C415 1.386 . S
C414 H437 0.929 . S
C415 C414 1.386 . S
C415 C416 1.373 . S
C416 C415 1.373 . S
C416 C417 1.409 . S
C416 H438 0.931 . S
C417 C412 1.356 . S
C417 C416 1.409 . S
C417 H439 0.930 . S
C418 O428 1.270 . S
C418 O429 1.248 . S
C419 O430 1.267 . S
C419 O431 1.278 . S
O420 Pr400 2.562 . S
O420 C402 1.254 . S
O421 Pr400 2.490 . S
O421 C402 1.225 . S
O422 Pr400 2.695 . S
O422 Pr401 2.436 1_455 S
O422 C409 1.270 . S
O423 Pr400 2.512 . S
O423 C409 1.248 . S
O424 Pr401 2.438 1_455 S
O424 C410 1.267 . S
O425 Pr400 2.437 . S
O425 C410 1.278 . S
O426 Pr401 2.562 . S
O426 C411 1.254 . S
O427 Pr401 2.490 . S
O427 C411 1.225 . S
O428 Pr400 2.436 1_655 S
O428 Pr401 2.695 . S
O428 C418 1.270 . S
O429 Pr401 2.512 . S
O429 C418 1.248 . S
O430 Pr400 2.438 1_655 S
O430 C419 1.267 . S
O431 Pr401 2.437 . S
O431 C419 1.278 . S
H432 C404 0.929 . S
H433 C405 0.929 . S
H434 C407 0.931 . S
H435 C408 0.930 . S
H436 C413 0.929 . S
H437 C414 0.929 . S
H438 C416 0.931 . S
H439 C417 0.930 . S
Pr440 C442 2.880 . S
Pr440 O460 2.562 . S
Pr440 O461 2.490 . S
Pr440 O462 2.695 . S
Pr440 O463 2.512 . S
Pr440 O465 2.437 . S
Pr440 O468 2.436 . S
Pr440 O470 2.438 . S
Pr441 C451 2.880 . S
Pr441 O462 2.436 . S
Pr441 O464 2.438 . S
Pr441 O466 2.562 . S
Pr441 O467 2.490 . S
Pr441 O468 2.695 . S
Pr441 O469 2.512 . S
Pr441 O471 2.437 . S
C442 Pr440 2.880 . S
C442 C443 1.491 . S
C442 O460 1.254 . S
C442 O461 1.225 . S
C443 C442 1.491 . S
C443 C444 1.392 . S
C443 C448 1.356 . S
C444 C443 1.392 . S
C444 C445 1.368 . S
C444 H472 0.929 . S
C445 C444 1.368 . S
C445 C446 1.386 . S
C445 H473 0.929 . S
C446 C445 1.386 . S
C446 C447 1.373 . S
C447 C446 1.373 . S
C447 C448 1.409 . S
C447 H474 0.931 . S
C448 C443 1.356 . S
C448 C447 1.409 . S
C448 H475 0.930 . S
C449 O462 1.270 . S
C449 O463 1.248 . S
C450 O464 1.267 . S
C450 O465 1.278 . S
C451 Pr441 2.880 . S
C451 C452 1.491 . S
C451 O466 1.254 . S
C451 O467 1.225 . S
C452 C451 1.491 . S
C452 C453 1.392 . S
C452 C457 1.356 . S
C453 C452 1.392 . S
C453 C454 1.368 . S
C453 H476 0.929 . S
C454 C453 1.368 . S
C454 C455 1.386 . S
C454 H477 0.929 . S
C455 C454 1.386 . S
C455 C456 1.373 . S
C456 C455 1.373 . S
C456 C457 1.409 . S
C456 H478 0.931 . S
C457 C452 1.356 . S
C457 C456 1.409 . S
C457 H479 0.930 . S
C458 O468 1.270 . S
C458 O469 1.248 . S
C459 O470 1.267 . S
C459 O471 1.278 . S
O460 Pr440 2.562 . S
O460 C442 1.254 . S
O461 Pr440 2.490 . S
O461 C442 1.225 . S
O462 Pr440 2.695 . S
O462 Pr441 2.436 . S
O462 C449 1.270 . S
O463 Pr440 2.512 . S
O463 C449 1.248 . S
O464 Pr441 2.438 . S
O464 C450 1.267 . S
O465 Pr440 2.437 . S
O465 C450 1.278 . S
O466 Pr441 2.562 . S
O466 C451 1.254 . S
O467 Pr441 2.490 . S
O467 C451 1.225 . S
O468 Pr440 2.436 . S
O468 Pr441 2.695 . S
O468 C458 1.270 . S
O469 Pr441 2.512 . S
O469 C458 1.248 . S
O470 Pr440 2.438 . S
O470 C459 1.267 . S
O471 Pr441 2.437 . S
O471 C459 1.278 . S
H472 C444 0.929 . S
H473 C445 0.929 . S
H474 C447 0.931 . S
H475 C448 0.930 . S
H476 C453 0.929 . S
H477 C454 0.929 . S
H478 C456 0.931 . S
H479 C457 0.930 . S
Pr480 C482 2.880 . S
Pr480 O500 2.562 . S
Pr480 O501 2.490 . S
Pr480 O502 2.695 . S
Pr480 O503 2.512 . S
Pr480 O505 2.437 . S
Pr480 O508 2.436 . S
Pr480 O510 2.438 . S
Pr481 C491 2.880 . S
Pr481 O502 2.436 . S
Pr481 O504 2.438 . S
Pr481 O506 2.562 . S
Pr481 O507 2.490 . S
Pr481 O508 2.695 . S
Pr481 O509 2.512 . S
Pr481 O511 2.437 . S
C482 Pr480 2.880 . S
C482 C483 1.491 . S
C482 O500 1.254 . S
C482 O501 1.225 . S
C483 C482 1.491 . S
C483 C484 1.392 . S
C483 C488 1.356 . S
C484 C483 1.392 . S
C484 C485 1.368 . S
C484 H512 0.929 . S
C485 C484 1.368 . S
C485 C486 1.386 . S
C485 H513 0.929 . S
C486 C485 1.386 . S
C486 C487 1.373 . S
C487 C486 1.373 . S
C487 C488 1.409 . S
C487 H514 0.931 . S
C488 C483 1.356 . S
C488 C487 1.409 . S
C488 H515 0.930 . S
C489 O502 1.270 . S
C489 O503 1.248 . S
C490 O504 1.267 . S
C490 O505 1.278 . S
C491 Pr481 2.880 . S
C491 C492 1.491 . S
C491 O506 1.254 . S
C491 O507 1.225 . S
C492 C491 1.491 . S
C492 C493 1.392 . S
C492 C497 1.356 . S
C493 C492 1.392 . S
C493 C494 1.368 . S
C493 H516 0.929 . S
C494 C493 1.368 . S
C494 C495 1.386 . S
C494 H517 0.929 . S
C495 C494 1.386 . S
C495 C496 1.373 . S
C496 C495 1.373 . S
C496 C497 1.409 . S
C496 H518 0.931 . S
C497 C492 1.356 . S
C497 C496 1.409 . S
C497 H519 0.930 . S
C498 O508 1.270 . S
C498 O509 1.248 . S
C499 O510 1.267 . S
C499 O511 1.278 . S
O500 Pr480 2.562 . S
O500 C482 1.254 . S
O501 Pr480 2.490 . S
O501 C482 1.225 . S
O502 Pr480 2.695 . S
O502 Pr481 2.436 . S
O502 C489 1.270 . S
O503 Pr480 2.512 . S
O503 C489 1.248 . S
O504 Pr481 2.438 . S
O504 C490 1.267 . S
O505 Pr480 2.437 . S
O505 C490 1.278 . S
O506 Pr481 2.562 . S
O506 C491 1.254 . S
O507 Pr481 2.490 . S
O507 C491 1.225 . S
O508 Pr480 2.436 . S
O508 Pr481 2.695 . S
O508 C498 1.270 . S
O509 Pr481 2.512 . S
O509 C498 1.248 . S
O510 Pr480 2.438 . S
O510 C499 1.267 . S
O511 Pr481 2.437 . S
O511 C499 1.278 . S
H512 C484 0.929 . S
H513 C485 0.929 . S
H514 C487 0.931 . S
H515 C488 0.930 . S
H516 C493 0.929 . S
H517 C494 0.929 . S
H518 C496 0.931 . S
H519 C497 0.930 . S
Pr520 C522 2.880 . S
Pr520 O540 2.562 . S
Pr520 O541 2.490 . S
Pr520 O542 2.695 . S
Pr520 O543 2.512 . S
Pr520 O545 2.437 . S
Pr520 O548 2.436 . S
Pr520 O550 2.438 . S
Pr521 C531 2.880 . S
Pr521 O542 2.436 . S
Pr521 O544 2.438 . S
Pr521 O546 2.562 . S
Pr521 O547 2.490 . S
Pr521 O548 2.695 . S
Pr521 O549 2.512 . S
Pr521 O551 2.437 . S
C522 Pr520 2.880 . S
C522 C523 1.491 . S
C522 O540 1.254 . S
C522 O541 1.225 . S
C523 C522 1.491 . S
C523 C524 1.392 . S
C523 C528 1.356 . S
C524 C523 1.392 . S
C524 C525 1.368 . S
C524 H552 0.929 . S
C525 C524 1.368 . S
C525 C526 1.386 . S
C525 H553 0.929 . S
C526 C525 1.386 . S
C526 C527 1.373 . S
C527 C526 1.373 . S
C527 C528 1.409 . S
C527 H554 0.931 . S
C528 C523 1.356 . S
C528 C527 1.409 . S
C528 H555 0.930 . S
C529 O542 1.270 . S
C529 O543 1.248 . S
C530 O544 1.267 . S
C530 O545 1.278 . S
C531 Pr521 2.880 . S
C531 C532 1.491 . S
C531 O546 1.254 . S
C531 O547 1.225 . S
C532 C531 1.491 . S
C532 C533 1.392 . S
C532 C537 1.356 . S
C533 C532 1.392 . S
C533 C534 1.368 . S
C533 H556 0.929 . S
C534 C533 1.368 . S
C534 C535 1.386 . S
C534 H557 0.929 . S
C535 C534 1.386 . S
C535 C536 1.373 . S
C536 C535 1.373 . S
C536 C537 1.409 . S
C536 H558 0.931 . S
C537 C532 1.356 . S
C537 C536 1.409 . S
C537 H559 0.930 . S
C538 O548 1.270 . S
C538 O549 1.248 . S
C539 O550 1.267 . S
C539 O551 1.278 . S
O540 Pr520 2.562 . S
O540 C522 1.254 . S
O541 Pr520 2.490 . S
O541 C522 1.225 . S
O542 Pr520 2.695 . S
O542 Pr521 2.436 . S
O542 C529 1.270 . S
O543 Pr520 2.512 . S
O543 C529 1.248 . S
O544 Pr521 2.438 . S
O544 C530 1.267 . S
O545 Pr520 2.437 . S
O545 C530 1.278 . S
O546 Pr521 2.562 . S
O546 C531 1.254 . S
O547 Pr521 2.490 . S
O547 C531 1.225 . S
O548 Pr520 2.436 . S
O548 Pr521 2.695 . S
O548 C538 1.270 . S
O549 Pr521 2.512 . S
O549 C538 1.248 . S
O550 Pr520 2.438 . S
O550 C539 1.267 . S
O551 Pr521 2.437 . S
O551 C539 1.278 . S
H552 C524 0.929 . S
H553 C525 0.929 . S
H554 C527 0.931 . S
H555 C528 0.930 . S
H556 C533 0.929 . S
H557 C534 0.929 . S
H558 C536 0.931 . S
H559 C537 0.930 . S
Pr560 C562 2.880 . S
Pr560 O580 2.562 . S
Pr560 O581 2.490 . S
Pr560 O582 2.695 . S
Pr560 O583 2.512 . S
Pr560 O585 2.437 . S
Pr560 O588 2.436 . S
Pr560 O590 2.438 . S
Pr561 C571 2.880 . S
Pr561 O582 2.436 . S
Pr561 O584 2.438 . S
Pr561 O586 2.562 . S
Pr561 O587 2.490 . S
Pr561 O588 2.695 . S
Pr561 O589 2.512 . S
Pr561 O591 2.437 . S
C562 Pr560 2.880 . S
C562 C563 1.491 . S
C562 O580 1.254 . S
C562 O581 1.225 . S
C563 C562 1.491 . S
C563 C564 1.392 . S
C563 C568 1.356 . S
C564 C563 1.392 . S
C564 C565 1.368 . S
C564 H592 0.929 . S
C565 C564 1.368 . S
C565 C566 1.386 . S
C565 H593 0.929 . S
C566 C565 1.386 . S
C566 C567 1.373 . S
C567 C566 1.373 . S
C567 C568 1.409 . S
C567 H594 0.931 . S
C568 C563 1.356 . S
C568 C567 1.409 . S
C568 H595 0.930 . S
C569 O582 1.270 . S
C569 O583 1.248 . S
C570 O584 1.267 . S
C570 O585 1.278 . S
C571 Pr561 2.880 . S
C571 C572 1.491 . S
C571 O586 1.254 . S
C571 O587 1.225 . S
C572 C571 1.491 . S
C572 C573 1.392 . S
C572 C577 1.356 . S
C573 C572 1.392 . S
C573 C574 1.368 . S
C573 H596 0.929 . S
C574 C573 1.368 . S
C574 C575 1.386 . S
C574 H597 0.929 . S
C575 C574 1.386 . S
C575 C576 1.373 . S
C576 C575 1.373 . S
C576 C577 1.409 . S
C576 H598 0.931 . S
C577 C572 1.356 . S
C577 C576 1.409 . S
C577 H599 0.930 . S
C578 O588 1.270 . S
C578 O589 1.248 . S
C579 O590 1.267 . S
C579 O591 1.278 . S
O580 Pr560 2.562 . S
O580 C562 1.254 . S
O581 Pr560 2.490 . S
O581 C562 1.225 . S
O582 Pr560 2.695 . S
O582 Pr561 2.436 . S
O582 C569 1.270 . S
O583 Pr560 2.512 . S
O583 C569 1.248 . S
O584 Pr561 2.438 . S
O584 C570 1.267 . S
O585 Pr560 2.437 . S
O585 C570 1.278 . S
O586 Pr561 2.562 . S
O586 C571 1.254 . S
O587 Pr561 2.490 . S
O587 C571 1.225 . S
O588 Pr560 2.436 . S
O588 Pr561 2.695 . S
O588 C578 1.270 . S
O589 Pr561 2.512 . S
O589 C578 1.248 . S
O590 Pr560 2.438 . S
O590 C579 1.267 . S
O591 Pr561 2.437 . S
O591 C579 1.278 . S
H592 C564 0.929 . S
H593 C565 0.929 . S
H594 C567 0.931 . S
H595 C568 0.930 . S
H596 C573 0.929 . S
H597 C574 0.929 . S
H598 C576 0.931 . S
H599 C577 0.930 . S
Pr600 C602 2.871 1_455 S
Pr600 O620 2.562 1_455 S
Pr600 O621 2.490 . S
Pr600 O622 2.695 1_556 S
Pr600 O623 2.512 1_556 S
Pr600 O625 2.437 1_456 S
Pr600 O628 2.436 1_455 S
Pr600 O630 2.438 . S
Pr601 C611 2.880 1_655 S
Pr601 O622 2.436 1_655 S
Pr601 O624 2.438 . S
Pr601 O626 2.562 1_655 S
Pr601 O627 2.490 . S
Pr601 O628 2.695 1_554 S
Pr601 O629 2.512 1_554 S
Pr601 O631 2.437 1_654 S
C602 Pr600 2.871 1_655 S
C602 C603 1.500 . S
C602 O620 1.255 . S
C602 O621 1.215 1_655 S
C603 C602 1.500 . S
C603 C604 1.392 1_655 S
C603 C608 1.356 . S
C604 C603 1.392 1_455 S
C604 C605 1.368 . S
C604 H632 0.929 . S
C605 C604 1.368 . S
C605 C606 1.386 1_455 S
C605 H633 0.929 . S
C606 C605 1.386 1_655 S
C606 C607 1.373 . S
C607 C606 1.373 . S
C607 C608 1.409 . S
C607 H634 0.931 . S
C608 C603 1.356 . S
C608 C607 1.409 . S
C608 H635 0.930 . S
C609 O622 1.270 . S
C609 O623 1.248 . S
C610 O624 1.267 . S
C610 O625 1.278 . S
C611 Pr601 2.880 1_455 S
C611 C612 1.491 . S
C611 O626 1.254 . S
C611 O627 1.225 1_455 S
C612 C611 1.491 . S
C612 C613 1.392 1_455 S
C612 C617 1.356 . S
C613 C612 1.392 1_655 S
C613 C614 1.368 . S
C613 H636 0.929 . S
C614 C613 1.368 . S
C614 C615 1.386 1_655 S
C614 H637 0.929 . S
C615 C614 1.386 1_455 S
C615 C616 1.373 . S
C616 C615 1.373 . S
C616 C617 1.409 . S
C616 H638 0.931 . S
C617 C612 1.356 . S
C617 C616 1.409 . S
C617 H639 0.930 . S
C618 O628 1.270 . S
C618 O629 1.248 . S
C619 O630 1.267 . S
C619 O631 1.278 . S
O620 Pr600 2.562 1_655 S
O620 C602 1.255 . S
O621 Pr600 2.490 . S
O621 C602 1.215 1_455 S
O622 Pr600 2.695 1_554 S
O622 Pr601 2.436 1_455 S
O622 C609 1.270 . S
O623 Pr600 2.512 1_554 S
O623 C609 1.248 . S
O624 Pr601 2.438 . S
O624 C610 1.267 . S
O625 Pr600 2.437 1_654 S
O625 C610 1.278 . S
O626 Pr601 2.562 1_455 S
O626 C611 1.254 . S
O627 Pr601 2.490 . S
O627 C611 1.225 1_655 S
O628 Pr600 2.436 1_655 S
O628 Pr601 2.695 1_556 S
O628 C618 1.270 . S
O629 Pr601 2.512 1_556 S
O629 C618 1.248 . S
O630 Pr600 2.438 . S
O630 C619 1.267 . S
O631 Pr601 2.437 1_456 S
O631 C619 1.278 . S
H632 C604 0.929 . S
H633 C605 0.929 . S
H634 C607 0.931 . S
H635 C608 0.930 . S
H636 C613 0.929 . S
H637 C614 0.929 . S
H638 C616 0.931 . S
H639 C617 0.930 . S
C640 C641 1.391 . S
C640 C642 1.394 . S
C640 H656 0.931 . S
C641 C640 1.391 . S
C641 C645 1.376 . S
C642 C640 1.394 . S
C642 C643 1.369 . S
C642 C646 1.531 . S
C643 C642 1.369 . S
C643 C644 1.410 . S
C643 C651 1.503 . S
C644 C643 1.410 . S
C644 C645 1.392 . S
C644 C647 1.511 . S
C645 C641 1.376 . S
C645 C644 1.392 . S
C645 H657 0.929 . S
C646 C642 1.531 . S
C646 H658 0.960 . S
C646 H659 0.962 . S
C646 H660 0.960 . S
C647 C644 1.511 . S
C647 H661 0.961 . S
C647 H662 0.961 . S
C647 H663 0.961 . S
C648 C649 1.370 . S
C648 C650 1.363 . S
C648 H664 0.931 . S
C649 C648 1.370 . S
C649 C653 1.408 . S
C650 C648 1.363 . S
C650 C651 1.370 . S
C650 C654 1.524 . S
C651 C643 1.503 . S
C651 C650 1.370 . S
C651 C652 1.403 . S
C652 C651 1.403 . S
C652 C653 1.404 . S
C652 C655 1.539 . S
C653 C649 1.408 . S
C653 C652 1.404 . S
C653 H665 0.930 . S
C654 C650 1.524 . S
C654 H666 0.956 . S
C654 H667 0.961 . S
C654 H668 0.961 . S
C655 C652 1.539 . S
C655 H669 0.958 . S
C655 H670 0.961 . S
C655 H671 0.960 . S
H656 C640 0.931 . S
H657 C645 0.929 . S
H658 C646 0.960 . S
H659 C646 0.962 . S
H660 C646 0.960 . S
H661 C647 0.961 . S
H662 C647 0.961 . S
H663 C647 0.961 . S
H664 C648 0.931 . S
H665 C653 0.930 . S
H666 C654 0.956 . S
H667 C654 0.961 . S
H668 C654 0.961 . S
H669 C655 0.958 . S
H670 C655 0.961 . S
H671 C655 0.960 . S
C672 C673 1.391 . S
C672 C674 1.394 . S
C672 H688 0.931 . S
C673 C672 1.391 . S
C673 C677 1.376 . S
C674 C672 1.394 . S
C674 C675 1.369 . S
C674 C678 1.531 . S
C675 C674 1.369 . S
C675 C676 1.410 . S
C675 C683 1.503 . S
C676 C675 1.410 . S
C676 C677 1.392 . S
C676 C679 1.511 . S
C677 C673 1.376 . S
C677 C676 1.392 . S
C677 H689 0.929 . S
C678 C674 1.531 . S
C678 H690 0.960 . S
C678 H691 0.962 . S
C678 H692 0.960 . S
C679 C676 1.511 . S
C679 H693 0.961 . S
C679 H694 0.961 . S
C679 H695 0.961 . S
C680 C681 1.370 . S
C680 C682 1.363 . S
C680 H696 0.931 . S
C681 C680 1.370 . S
C681 C685 1.408 . S
C682 C680 1.363 . S
C682 C683 1.370 . S
C682 C686 1.524 . S
C683 C675 1.503 . S
C683 C682 1.370 . S
C683 C684 1.403 . S
C684 C683 1.403 . S
C684 C685 1.404 . S
C684 C687 1.539 . S
C685 C681 1.408 . S
C685 C684 1.404 . S
C685 H697 0.930 . S
C686 C682 1.524 . S
C686 H698 0.956 . S
C686 H699 0.961 . S
C686 H700 0.961 . S
C687 C684 1.539 . S
C687 H701 0.958 . S
C687 H702 0.961 . S
C687 H703 0.960 . S
H688 C672 0.931 . S
H689 C677 0.929 . S
H690 C678 0.960 . S
H691 C678 0.962 . S
H692 C678 0.960 . S
H693 C679 0.961 . S
H694 C679 0.961 . S
H695 C679 0.961 . S
H696 C680 0.931 . S
H697 C685 0.930 . S
H698 C686 0.956 . S
H699 C686 0.961 . S
H700 C686 0.961 . S
H701 C687 0.958 . S
H702 C687 0.961 . S
H703 C687 0.960 . S
C704 C705 1.391 . S
C704 C706 1.394 . S
C704 H720 0.931 . S
C705 C704 1.391 . S
C705 C709 1.376 . S
C706 C704 1.394 . S
C706 C707 1.369 . S
C706 C710 1.531 . S
C707 C706 1.369 . S
C707 C708 1.410 . S
C707 C715 1.503 . S
C708 C707 1.410 . S
C708 C709 1.392 . S
C708 C711 1.511 . S
C709 C705 1.376 . S
C709 C708 1.392 . S
C709 H721 0.929 . S
C710 C706 1.531 . S
C710 H722 0.960 . S
C710 H723 0.962 . S
C710 H724 0.960 . S
C711 C708 1.511 . S
C711 H725 0.961 . S
C711 H726 0.961 . S
C711 H727 0.961 . S
C712 C713 1.370 . S
C712 C714 1.363 . S
C712 H728 0.931 . S
C713 C712 1.370 . S
C713 C717 1.408 . S
C714 C712 1.363 . S
C714 C715 1.370 . S
C714 C718 1.524 . S
C715 C707 1.503 . S
C715 C714 1.370 . S
C715 C716 1.403 . S
C716 C715 1.403 . S
C716 C717 1.404 . S
C716 C719 1.539 . S
C717 C713 1.408 . S
C717 C716 1.404 . S
C717 H729 0.930 . S
C718 C714 1.524 . S
C718 H730 0.956 . S
C718 H731 0.961 . S
C718 H732 0.961 . S
C719 C716 1.539 . S
C719 H733 0.958 . S
C719 H734 0.961 . S
C719 H735 0.960 . S
H720 C704 0.931 . S
H721 C709 0.929 . S
H722 C710 0.960 . S
H723 C710 0.962 . S
H724 C710 0.960 . S
H725 C711 0.961 . S
H726 C711 0.961 . S
H727 C711 0.961 . S
H728 C712 0.931 . S
H729 C717 0.930 . S
H730 C718 0.956 . S
H731 C718 0.961 . S
H732 C718 0.961 . S
H733 C719 0.958 . S
H734 C719 0.961 . S
H735 C719 0.960 . S
C736 C737 1.391 . S
C736 C738 1.394 . S
C736 H752 0.931 . S
C737 C736 1.391 . S
C737 C741 1.376 . S
C738 C736 1.394 . S
C738 C739 1.369 . S
C738 C742 1.531 . S
C739 C738 1.369 . S
C739 C740 1.410 . S
C739 C747 1.503 . S
C740 C739 1.410 . S
C740 C741 1.392 . S
C740 C743 1.511 . S
C741 C737 1.376 . S
C741 C740 1.392 . S
C741 H753 0.929 . S
C742 C738 1.531 . S
C742 H754 0.960 . S
C742 H755 0.962 . S
C742 H756 0.960 . S
C743 C740 1.511 . S
C743 H757 0.961 . S
C743 H758 0.961 . S
C743 H759 0.961 . S
C744 C745 1.370 . S
C744 C746 1.363 . S
C744 H760 0.931 . S
C745 C744 1.370 . S
C745 C749 1.408 . S
C746 C744 1.363 . S
C746 C747 1.370 . S
C746 C750 1.524 . S
C747 C739 1.503 . S
C747 C746 1.370 . S
C747 C748 1.403 . S
C748 C747 1.403 . S
C748 C749 1.404 . S
C748 C751 1.539 . S
C749 C745 1.408 . S
C749 C748 1.404 . S
C749 H761 0.930 . S
C750 C746 1.524 . S
C750 H762 0.956 . S
C750 H763 0.961 . S
C750 H764 0.961 . S
C751 C748 1.539 . S
C751 H765 0.958 . S
C751 H766 0.961 . S
C751 H767 0.960 . S
H752 C736 0.931 . S
H753 C741 0.929 . S
H754 C742 0.960 . S
H755 C742 0.962 . S
H756 C742 0.960 . S
H757 C743 0.961 . S
H758 C743 0.961 . S
H759 C743 0.961 . S
H760 C744 0.931 . S
H761 C749 0.930 . S
H762 C750 0.956 . S
H763 C750 0.961 . S
H764 C750 0.961 . S
H765 C751 0.958 . S
H766 C751 0.961 . S
H767 C751 0.960 . S
C768 C769 1.391 . S
C768 C770 1.394 . S
C768 H784 0.931 . S
C769 C768 1.391 . S
C769 C773 1.376 . S
C770 C768 1.394 . S
C770 C771 1.369 . S
C770 C774 1.531 . S
C771 C770 1.369 . S
C771 C772 1.410 . S
C771 C779 1.503 . S
C772 C771 1.410 . S
C772 C773 1.392 . S
C772 C775 1.511 . S
C773 C769 1.376 . S
C773 C772 1.392 . S
C773 H785 0.929 . S
C774 C770 1.531 . S
C774 H786 0.960 . S
C774 H787 0.962 . S
C774 H788 0.960 . S
C775 C772 1.511 . S
C775 H789 0.961 1_565 S
C775 H790 0.961 . S
C775 H791 0.961 . S
C776 C777 1.370 . S
C776 C778 1.363 . S
C776 H792 0.931 . S
C777 C776 1.370 . S
C777 C781 1.408 . S
C778 C776 1.363 . S
C778 C779 1.370 . S
C778 C782 1.524 . S
C779 C771 1.503 . S
C779 C778 1.370 . S
C779 C780 1.403 . S
C780 C779 1.403 . S
C780 C781 1.404 . S
C780 C783 1.539 . S
C781 C777 1.408 . S
C781 C780 1.404 . S
C781 H793 0.930 . S
C782 C778 1.524 . S
C782 H794 0.956 . S
C782 H795 0.961 . S
C782 H796 0.961 . S
C783 C780 1.539 . S
C783 H797 0.958 . S
C783 H798 0.961 . S
C783 H799 0.960 . S
H784 C768 0.931 . S
H785 C773 0.929 . S
H786 C774 0.960 . S
H787 C774 0.962 . S
H788 C774 0.960 . S
H789 C775 0.961 1_545 S
H790 C775 0.961 . S
H791 C775 0.961 . S
H792 C776 0.931 . S
H793 C781 0.930 . S
H794 C782 0.956 . S
H795 C782 0.961 . S
H796 C782 0.961 . S
H797 C783 0.958 . S
H798 C783 0.961 . S
H799 C783 0.960 . S
C800 C801 1.391 . S
C800 C802 1.394 . S
C800 H816 0.931 . S
C801 C800 1.391 . S
C801 C805 1.376 . S
C802 C800 1.394 . S
C802 C803 1.369 . S
C802 C806 1.531 . S
C803 C802 1.369 . S
C803 C804 1.410 . S
C803 C811 1.503 . S
C804 C803 1.410 . S
C804 C805 1.392 . S
C804 C807 1.511 . S
C805 C801 1.376 . S
C805 C804 1.392 . S
C805 H817 0.929 . S
C806 C802 1.531 . S
C806 H818 0.960 . S
C806 H819 0.962 . S
C806 H820 0.960 . S
C807 C804 1.511 . S
C807 H821 0.961 . S
C807 H822 0.961 . S
C807 H823 0.961 . S
C808 C809 1.370 . S
C808 C810 1.363 . S
C808 H824 0.931 . S
C809 C808 1.370 . S
C809 C813 1.408 . S
C810 C808 1.363 . S
C810 C811 1.370 . S
C810 C814 1.524 . S
C811 C803 1.503 . S
C811 C810 1.370 . S
C811 C812 1.403 . S
C812 C811 1.403 . S
C812 C813 1.404 . S
C812 C815 1.539 . S
C813 C809 1.408 . S
C813 C812 1.404 . S
C813 H825 0.930 . S
C814 C810 1.524 . S
C814 H826 0.956 . S
C814 H827 0.961 . S
C814 H828 0.961 . S
C815 C812 1.539 . S
C815 H829 0.958 . S
C815 H830 0.961 . S
C815 H831 0.960 . S
H816 C800 0.931 . S
H817 C805 0.929 . S
H818 C806 0.960 . S
H819 C806 0.962 . S
H820 C806 0.960 . S
H821 C807 0.961 . S
H822 C807 0.961 . S
H823 C807 0.961 . S
H824 C808 0.931 . S
H825 C813 0.930 . S
H826 C814 0.956 . S
H827 C814 0.961 . S
H828 C814 0.961 . S
H829 C815 0.958 . S
H830 C815 0.961 . S
H831 C815 0.960 . S
C832 C833 1.391 . S
C832 C834 1.394 . S
C832 H848 0.931 . S
C833 C832 1.391 . S
C833 C837 1.376 . S
C834 C832 1.394 . S
C834 C835 1.369 . S
C834 C838 1.531 . S
C835 C834 1.369 . S
C835 C836 1.410 . S
C835 C843 1.503 . S
C836 C835 1.410 . S
C836 C837 1.392 . S
C836 C839 1.511 . S
C837 C833 1.376 . S
C837 C836 1.392 . S
C837 H849 0.929 . S
C838 C834 1.531 . S
C838 H850 0.960 . S
C838 H851 0.962 . S
C838 H852 0.960 . S
C839 C836 1.511 . S
C839 H853 0.961 . S
C839 H854 0.961 . S
C839 H855 0.961 . S
C840 C841 1.370 . S
C840 C842 1.363 . S
C840 H856 0.931 . S
C841 C840 1.370 . S
C841 C845 1.408 . S
C842 C840 1.363 . S
C842 C843 1.370 . S
C842 C846 1.524 . S
C843 C835 1.503 . S
C843 C842 1.370 . S
C843 C844 1.403 . S
C844 C843 1.403 . S
C844 C845 1.404 . S
C844 C847 1.539 . S
C845 C841 1.408 . S
C845 C844 1.404 . S
C845 H857 0.930 . S
C846 C842 1.524 . S
C846 H858 0.956 . S
C846 H859 0.961 . S
C846 H860 0.961 . S
C847 C844 1.539 . S
C847 H861 0.958 . S
C847 H862 0.961 . S
C847 H863 0.960 . S
H848 C832 0.931 . S
H849 C837 0.929 . S
H850 C838 0.960 . S
H851 C838 0.962 . S
H852 C838 0.960 . S
H853 C839 0.961 . S
H854 C839 0.961 . S
H855 C839 0.961 . S
H856 C840 0.931 . S
H857 C845 0.930 . S
H858 C846 0.956 . S
H859 C846 0.961 . S
H860 C846 0.961 . S
H861 C847 0.958 . S
H862 C847 0.961 . S
H863 C847 0.960 . S
C864 C865 1.391 . S
C864 C866 1.394 . S
C864 H880 0.931 . S
C865 C864 1.391 . S
C865 C869 1.376 . S
C866 C864 1.394 . S
C866 C867 1.369 . S
C866 C870 1.531 . S
C867 C866 1.369 . S
C867 C868 1.410 . S
C867 C875 1.503 . S
C868 C867 1.410 . S
C868 C869 1.392 . S
C868 C871 1.511 . S
C869 C865 1.376 . S
C869 C868 1.392 . S
C869 H881 0.929 . S
C870 C866 1.531 . S
C870 H882 0.960 . S
C870 H883 0.962 . S
C870 H884 0.960 . S
C871 C868 1.511 . S
C871 H885 0.961 . S
C871 H886 0.961 . S
C871 H887 0.961 . S
C872 C873 1.370 . S
C872 C874 1.363 . S
C872 H888 0.931 . S
C873 C872 1.370 . S
C873 C877 1.408 . S
C874 C872 1.363 . S
C874 C875 1.370 . S
C874 C878 1.524 . S
C875 C867 1.503 . S
C875 C874 1.370 . S
C875 C876 1.403 . S
C876 C875 1.403 . S
C876 C877 1.404 . S
C876 C879 1.539 . S
C877 C873 1.408 . S
C877 C876 1.404 . S
C877 H889 0.930 . S
C878 C874 1.524 . S
C878 H890 0.956 . S
C878 H891 0.961 . S
C878 H892 0.961 . S
C879 C876 1.539 . S
C879 H893 0.958 . S
C879 H894 0.961 . S
C879 H895 0.960 . S
H880 C864 0.931 . S
H881 C869 0.929 . S
H882 C870 0.960 . S
H883 C870 0.962 . S
H884 C870 0.960 . S
H885 C871 0.961 . S
H886 C871 0.961 . S
H887 C871 0.961 . S
H888 C872 0.931 . S
H889 C877 0.930 . S
H890 C878 0.956 . S
H891 C878 0.961 . S
H892 C878 0.961 . S
H893 C879 0.958 . S
H894 C879 0.961 . S
H895 C879 0.960 . S
C896 C897 1.391 . S
C896 C898 1.394 . S
C896 H912 0.931 . S
C897 C896 1.391 . S
C897 C901 1.376 . S
C898 C896 1.394 . S
C898 C899 1.369 . S
C898 C902 1.531 . S
C899 C898 1.369 . S
C899 C900 1.410 . S
C899 C907 1.503 . S
C900 C899 1.410 . S
C900 C901 1.392 . S
C900 C903 1.511 . S
C901 C897 1.376 . S
C901 C900 1.392 . S
C901 H913 0.929 . S
C902 C898 1.531 . S
C902 H914 0.960 . S
C902 H915 0.962 . S
C902 H916 0.960 . S
C903 C900 1.511 . S
C903 H917 0.961 . S
C903 H918 0.961 . S
C903 H919 0.961 . S
C904 C905 1.370 . S
C904 C906 1.363 . S
C904 H920 0.931 . S
C905 C904 1.370 . S
C905 C909 1.408 . S
C906 C904 1.363 . S
C906 C907 1.370 . S
C906 C910 1.524 . S
C907 C899 1.503 . S
C907 C906 1.370 . S
C907 C908 1.403 . S
C908 C907 1.403 . S
C908 C909 1.404 . S
C908 C911 1.539 . S
C909 C905 1.408 . S
C909 C908 1.404 . S
C909 H921 0.930 . S
C910 C906 1.524 . S
C910 H922 0.956 . S
C910 H923 0.961 . S
C910 H924 0.961 . S
C911 C908 1.539 . S
C911 H925 0.958 . S
C911 H926 0.961 . S
C911 H927 0.960 . S
H912 C896 0.931 . S
H913 C901 0.929 . S
H914 C902 0.960 . S
H915 C902 0.962 . S
H916 C902 0.960 . S
H917 C903 0.961 . S
H918 C903 0.961 . S
H919 C903 0.961 . S
H920 C904 0.931 . S
H921 C909 0.930 . S
H922 C910 0.956 . S
H923 C910 0.961 . S
H924 C910 0.961 . S
H925 C911 0.958 . S
H926 C911 0.961 . S
H927 C911 0.960 . S
C928 C929 1.391 . S
C928 C930 1.394 . S
C928 H944 0.931 . S
C929 C928 1.391 . S
C929 C933 1.376 . S
C930 C928 1.394 . S
C930 C931 1.369 . S
C930 C934 1.531 . S
C931 C930 1.369 . S
C931 C932 1.410 . S
C931 C939 1.503 . S
C932 C931 1.410 . S
C932 C933 1.392 . S
C932 C935 1.511 . S
C933 C929 1.376 . S
C933 C932 1.392 . S
C933 H945 0.929 . S
C934 C930 1.531 . S
C934 H946 0.960 . S
C934 H947 0.962 . S
C934 H948 0.960 . S
C935 C932 1.511 . S
C935 H949 0.961 . S
C935 H950 0.961 . S
C935 H951 0.961 . S
C936 C937 1.370 . S
C936 C938 1.363 . S
C936 H952 0.931 . S
C937 C936 1.370 . S
C937 C941 1.408 . S
C938 C936 1.363 . S
C938 C939 1.370 . S
C938 C942 1.524 . S
C939 C931 1.503 . S
C939 C938 1.370 . S
C939 C940 1.403 . S
C940 C939 1.403 . S
C940 C941 1.404 . S
C940 C943 1.539 . S
C941 C937 1.408 . S
C941 C940 1.404 . S
C941 H953 0.930 . S
C942 C938 1.524 . S
C942 H954 0.956 . S
C942 H955 0.961 . S
C942 H956 0.961 . S
C943 C940 1.539 . S
C943 H957 0.958 . S
C943 H958 0.961 . S
C943 H959 0.960 . S
H944 C928 0.931 . S
H945 C933 0.929 . S
H946 C934 0.960 . S
H947 C934 0.962 . S
H948 C934 0.960 . S
H949 C935 0.961 . S
H950 C935 0.961 . S
H951 C935 0.961 . S
H952 C936 0.931 . S
H953 C941 0.930 . S
H954 C942 0.956 . S
H955 C942 0.961 . S
H956 C942 0.961 . S
H957 C943 0.958 . S
H958 C943 0.961 . S
H959 C943 0.960 . S
C960 C961 1.391 . S
C960 C962 1.394 . S
C960 H976 0.931 . S
C961 C960 1.391 . S
C961 C965 1.376 . S
C962 C960 1.394 . S
C962 C963 1.369 . S
C962 C966 1.531 . S
C963 C962 1.369 . S
C963 C964 1.410 . S
C963 C971 1.503 . S
C964 C963 1.410 . S
C964 C965 1.392 . S
C964 C967 1.511 . S
C965 C961 1.376 . S
C965 C964 1.392 . S
C965 H977 0.929 . S
C966 C962 1.531 . S
C966 H978 0.960 . S
C966 H979 0.962 . S
C966 H980 0.960 . S
C967 C964 1.511 . S
C967 H981 0.961 . S
C967 H982 0.961 . S
C967 H983 0.961 . S
C968 C969 1.370 . S
C968 C970 1.363 . S
C968 H984 0.931 . S
C969 C968 1.370 . S
C969 C973 1.408 . S
C970 C968 1.363 . S
C970 C971 1.370 . S
C970 C974 1.524 . S
C971 C963 1.503 . S
C971 C970 1.370 . S
C971 C972 1.403 . S
C972 C971 1.403 . S
C972 C973 1.404 . S
C972 C975 1.539 . S
C973 C969 1.408 . S
C973 C972 1.404 . S
C973 H985 0.930 . S
C974 C970 1.524 . S
C974 H986 0.956 . S
C974 H987 0.961 . S
C974 H988 0.961 . S
C975 C972 1.539 . S
C975 H989 0.958 . S
C975 H990 0.961 . S
C975 H991 0.960 . S
H976 C960 0.931 . S
H977 C965 0.929 . S
H978 C966 0.960 . S
H979 C966 0.962 . S
H980 C966 0.960 . S
H981 C967 0.961 . S
H982 C967 0.961 . S
H983 C967 0.961 . S
H984 C968 0.931 . S
H985 C973 0.930 . S
H986 C974 0.956 . S
H987 C974 0.961 . S
H988 C974 0.961 . S
H989 C975 0.958 . S
H990 C975 0.961 . S
H991 C975 0.960 . S
C992 C993 1.391 . S
C992 C994 1.394 . S
C992 H1008 0.931 . S
C993 C992 1.391 . S
C993 C997 1.376 . S
C994 C992 1.394 . S
C994 C995 1.369 . S
C994 C998 1.531 . S
C995 C994 1.369 . S
C995 C996 1.410 . S
C995 C1003 1.503 . S
C996 C995 1.410 . S
C996 C997 1.392 . S
C996 C999 1.511 . S
C997 C993 1.376 . S
C997 C996 1.392 . S
C997 H1009 0.929 . S
C998 C994 1.531 . S
C998 H1010 0.960 . S
C998 H1011 0.962 . S
C998 H1012 0.960 . S
C999 C996 1.511 . S
C999 H1013 0.961 . S
C999 H1014 0.961 . S
C999 H1015 0.961 . S
C1000 C1001 1.370 . S
C1000 C1002 1.363 . S
C1000 H1016 0.931 . S
C1001 C1000 1.370 . S
C1001 C1005 1.408 . S
C1002 C1000 1.363 . S
C1002 C1003 1.370 . S
C1002 C1006 1.524 . S
C1003 C995 1.503 . S
C1003 C1002 1.370 . S
C1003 C1004 1.403 . S
C1004 C1003 1.403 . S
C1004 C1005 1.404 . S
C1004 C1007 1.539 . S
C1005 C1001 1.408 . S
C1005 C1004 1.404 . S
C1005 H1017 0.930 . S
C1006 C1002 1.524 . S
C1006 H1018 0.956 . S
C1006 H1019 0.961 . S
C1006 H1020 0.961 . S
C1007 C1004 1.539 . S
C1007 H1021 0.958 . S
C1007 H1022 0.961 . S
C1007 H1023 0.960 . S
H1008 C992 0.931 . S
H1009 C997 0.929 . S
H1010 C998 0.960 . S
H1011 C998 0.962 . S
H1012 C998 0.960 . S
H1013 C999 0.961 . S
H1014 C999 0.961 . S
H1015 C999 0.961 . S
H1016 C1000 0.931 . S
H1017 C1005 0.930 . S
H1018 C1006 0.956 . S
H1019 C1006 0.961 . S
H1020 C1006 0.961 . S
H1021 C1007 0.958 . S
H1022 C1007 0.961 . S
H1023 C1007 0.960 . S
C1024 C1025 1.391 . S
C1024 C1026 1.394 . S
C1024 H1040 0.931 . S
C1025 C1024 1.391 . S
C1025 C1029 1.376 . S
C1026 C1024 1.394 . S
C1026 C1027 1.369 . S
C1026 C1030 1.531 . S
C1027 C1026 1.369 . S
C1027 C1028 1.410 . S
C1027 C1035 1.503 . S
C1028 C1027 1.410 . S
C1028 C1029 1.392 . S
C1028 C1031 1.511 . S
C1029 C1025 1.376 . S
C1029 C1028 1.392 . S
C1029 H1041 0.929 . S
C1030 C1026 1.531 . S
C1030 H1042 0.960 . S
C1030 H1043 0.962 . S
C1030 H1044 0.960 . S
C1031 C1028 1.511 . S
C1031 H1045 0.961 . S
C1031 H1046 0.961 . S
C1031 H1047 0.961 . S
C1032 C1033 1.370 . S
C1032 C1034 1.363 . S
C1032 H1048 0.931 . S
C1033 C1032 1.370 . S
C1033 C1037 1.408 . S
C1034 C1032 1.363 . S
C1034 C1035 1.370 . S
C1034 C1038 1.524 . S
C1035 C1027 1.503 . S
C1035 C1034 1.370 . S
C1035 C1036 1.403 . S
C1036 C1035 1.403 . S
C1036 C1037 1.404 . S
C1036 C1039 1.539 . S
C1037 C1033 1.408 . S
C1037 C1036 1.404 . S
C1037 H1049 0.930 . S
C1038 C1034 1.524 . S
C1038 H1050 0.956 . S
C1038 H1051 0.961 . S
C1038 H1052 0.961 . S
C1039 C1036 1.539 . S
C1039 H1053 0.958 . S
C1039 H1054 0.961 . S
C1039 H1055 0.960 . S
H1040 C1024 0.931 . S
H1041 C1029 0.929 . S
H1042 C1030 0.960 . S
H1043 C1030 0.962 . S
H1044 C1030 0.960 . S
H1045 C1031 0.961 . S
H1046 C1031 0.961 . S
H1047 C1031 0.961 . S
H1048 C1032 0.931 . S
H1049 C1037 0.930 . S
H1050 C1038 0.956 . S
H1051 C1038 0.961 . S
H1052 C1038 0.961 . S
H1053 C1039 0.958 . S
H1054 C1039 0.961 . S
H1055 C1039 0.960 . S
C1056 C1057 1.391 . S
C1056 C1058 1.394 . S
C1056 H1072 0.931 . S
C1057 C1056 1.391 . S
C1057 C1061 1.376 . S
C1058 C1056 1.394 . S
C1058 C1059 1.369 . S
C1058 C1062 1.531 . S
C1059 C1058 1.369 . S
C1059 C1060 1.410 . S
C1059 C1067 1.503 . S
C1060 C1059 1.410 . S
C1060 C1061 1.392 . S
C1060 C1063 1.511 . S
C1061 C1057 1.376 . S
C1061 C1060 1.392 . S
C1061 H1073 0.929 . S
C1062 C1058 1.531 . S
C1062 H1074 0.960 . S
C1062 H1075 0.962 . S
C1062 H1076 0.960 . S
C1063 C1060 1.511 . S
C1063 H1077 0.961 . S
C1063 H1078 0.961 . S
C1063 H1079 0.961 . S
C1064 C1065 1.370 . S
C1064 C1066 1.363 . S
C1064 H1080 0.931 . S
C1065 C1064 1.370 . S
C1065 C1069 1.408 . S
C1066 C1064 1.363 . S
C1066 C1067 1.370 . S
C1066 C1070 1.524 . S
C1067 C1059 1.503 . S
C1067 C1066 1.370 . S
C1067 C1068 1.403 . S
C1068 C1067 1.403 . S
C1068 C1069 1.404 . S
C1068 C1071 1.539 . S
C1069 C1065 1.408 . S
C1069 C1068 1.404 . S
C1069 H1081 0.930 . S
C1070 C1066 1.524 . S
C1070 H1082 0.956 . S
C1070 H1083 0.961 . S
C1070 H1084 0.961 . S
C1071 C1068 1.539 . S
C1071 H1085 0.958 . S
C1071 H1086 0.961 . S
C1071 H1087 0.960 . S
H1072 C1056 0.931 . S
H1073 C1061 0.929 . S
H1074 C1062 0.960 . S
H1075 C1062 0.962 . S
H1076 C1062 0.960 . S
H1077 C1063 0.961 . S
H1078 C1063 0.961 . S
H1079 C1063 0.961 . S
H1080 C1064 0.931 . S
H1081 C1069 0.930 . S
H1082 C1070 0.956 . S
H1083 C1070 0.961 . S
H1084 C1070 0.961 . S
H1085 C1071 0.958 . S
H1086 C1071 0.961 . S
H1087 C1071 0.960 . S
C1088 C1089 1.391 . S
C1088 C1090 1.394 . S
C1088 H1104 0.931 . S
C1089 C1088 1.391 . S
C1089 C1093 1.376 . S
C1090 C1088 1.394 . S
C1090 C1091 1.369 . S
C1090 C1094 1.531 . S
C1091 C1090 1.369 . S
C1091 C1092 1.410 . S
C1091 C1099 1.503 . S
C1092 C1091 1.410 . S
C1092 C1093 1.392 . S
C1092 C1095 1.511 . S
C1093 C1089 1.376 . S
C1093 C1092 1.392 . S
C1093 H1105 0.929 . S
C1094 C1090 1.531 . S
C1094 H1106 0.960 . S
C1094 H1107 0.962 . S
C1094 H1108 0.960 . S
C1095 C1092 1.511 . S
C1095 H1109 0.961 . S
C1095 H1110 0.961 . S
C1095 H1111 0.961 . S
C1096 C1097 1.370 . S
C1096 C1098 1.363 . S
C1096 H1112 0.931 . S
C1097 C1096 1.370 . S
C1097 C1101 1.408 . S
C1098 C1096 1.363 . S
C1098 C1099 1.370 . S
C1098 C1102 1.524 . S
C1099 C1091 1.503 . S
C1099 C1098 1.370 . S
C1099 C1100 1.403 . S
C1100 C1099 1.403 . S
C1100 C1101 1.404 . S
C1100 C1103 1.539 . S
C1101 C1097 1.408 . S
C1101 C1100 1.404 . S
C1101 H1113 0.930 . S
C1102 C1098 1.524 . S
C1102 H1114 0.956 . S
C1102 H1115 0.961 . S
C1102 H1116 0.961 . S
C1103 C1100 1.539 . S
C1103 H1117 0.958 . S
C1103 H1118 0.961 . S
C1103 H1119 0.960 . S
H1104 C1088 0.931 . S
H1105 C1093 0.929 . S
H1106 C1094 0.960 . S
H1107 C1094 0.962 . S
H1108 C1094 0.960 . S
H1109 C1095 0.961 . S
H1110 C1095 0.961 . S
H1111 C1095 0.961 . S
H1112 C1096 0.931 . S
H1113 C1101 0.930 . S
H1114 C1102 0.956 . S
H1115 C1102 0.961 . S
H1116 C1102 0.961 . S
H1117 C1103 0.958 . S
H1118 C1103 0.961 . S
H1119 C1103 0.960 . S
C1120 C1121 1.391 . S
C1120 C1122 1.394 . S
C1120 H1136 0.931 . S
C1121 C1120 1.391 . S
C1121 C1125 1.376 . S
C1122 C1120 1.394 . S
C1122 C1123 1.369 . S
C1122 C1126 1.531 . S
C1123 C1122 1.369 . S
C1123 C1124 1.410 . S
C1123 C1131 1.503 . S
C1124 C1123 1.410 . S
C1124 C1125 1.392 . S
C1124 C1127 1.511 . S
C1125 C1121 1.376 . S
C1125 C1124 1.392 . S
C1125 H1137 0.929 . S
C1126 C1122 1.531 . S
C1126 H1138 0.960 . S
C1126 H1139 0.962 . S
C1126 H1140 0.960 . S
C1127 C1124 1.511 . S
C1127 H1141 0.961 . S
C1127 H1142 0.961 . S
C1127 H1143 0.961 . S
C1128 C1129 1.370 . S
C1128 C1130 1.363 . S
C1128 H1144 0.931 . S
C1129 C1128 1.370 . S
C1129 C1133 1.408 . S
C1130 C1128 1.363 . S
C1130 C1131 1.370 . S
C1130 C1134 1.524 . S
C1131 C1123 1.503 . S
C1131 C1130 1.370 . S
C1131 C1132 1.403 . S
C1132 C1131 1.403 . S
C1132 C1133 1.404 . S
C1132 C1135 1.539 . S
C1133 C1129 1.408 . S
C1133 C1132 1.404 . S
C1133 H1145 0.930 . S
C1134 C1130 1.524 . S
C1134 H1146 0.956 . S
C1134 H1147 0.961 . S
C1134 H1148 0.961 . S
C1135 C1132 1.539 . S
C1135 H1149 0.958 . S
C1135 H1150 0.961 . S
C1135 H1151 0.960 . S
H1136 C1120 0.931 . S
H1137 C1125 0.929 . S
H1138 C1126 0.960 . S
H1139 C1126 0.962 . S
H1140 C1126 0.960 . S
H1141 C1127 0.961 . S
H1142 C1127 0.961 . S
H1143 C1127 0.961 . S
H1144 C1128 0.931 . S
H1145 C1133 0.930 . S
H1146 C1134 0.956 . S
H1147 C1134 0.961 . S
H1148 C1134 0.961 . S
H1149 C1135 0.958 . S
H1150 C1135 0.961 . S
H1151 C1135 0.960 . S
C1152 C1153 1.391 . S
C1152 C1154 1.394 . S
C1152 H1168 0.931 . S
C1153 C1152 1.391 . S
C1153 C1157 1.376 . S
C1154 C1152 1.394 . S
C1154 C1155 1.369 . S
C1154 C1158 1.531 . S
C1155 C1154 1.369 . S
C1155 C1156 1.410 . S
C1155 C1163 1.503 . S
C1156 C1155 1.410 . S
C1156 C1157 1.392 . S
C1156 C1159 1.511 . S
C1157 C1153 1.376 . S
C1157 C1156 1.392 . S
C1157 H1169 0.929 . S
C1158 C1154 1.531 . S
C1158 H1170 0.960 . S
C1158 H1171 0.962 . S
C1158 H1172 0.960 . S
C1159 C1156 1.511 . S
C1159 H1173 0.961 . S
C1159 H1174 0.961 . S
C1159 H1175 0.961 . S
C1160 C1161 1.370 . S
C1160 C1162 1.363 . S
C1160 H1176 0.931 . S
C1161 C1160 1.370 . S
C1161 C1165 1.408 . S
C1162 C1160 1.363 . S
C1162 C1163 1.370 . S
C1162 C1166 1.524 . S
C1163 C1155 1.503 . S
C1163 C1162 1.370 . S
C1163 C1164 1.403 . S
C1164 C1163 1.403 . S
C1164 C1165 1.404 . S
C1164 C1167 1.539 . S
C1165 C1161 1.408 . S
C1165 C1164 1.404 . S
C1165 H1177 0.930 . S
C1166 C1162 1.524 . S
C1166 H1178 0.956 . S
C1166 H1179 0.961 . S
C1166 H1180 0.961 . S
C1167 C1164 1.539 . S
C1167 H1181 0.958 . S
C1167 H1182 0.961 . S
C1167 H1183 0.960 . S
H1168 C1152 0.931 . S
H1169 C1157 0.929 . S
H1170 C1158 0.960 . S
H1171 C1158 0.962 . S
H1172 C1158 0.960 . S
H1173 C1159 0.961 . S
H1174 C1159 0.961 . S
H1175 C1159 0.961 . S
H1176 C1160 0.931 . S
H1177 C1165 0.930 . S
H1178 C1166 0.956 . S
H1179 C1166 0.961 . S
H1180 C1166 0.961 . S
H1181 C1167 0.958 . S
H1182 C1167 0.961 . S
H1183 C1167 0.960 . S
C1184 C1185 1.391 . S
C1184 C1186 1.394 . S
C1184 H1200 0.931 . S
C1185 C1184 1.391 . S
C1185 C1189 1.376 . S
C1186 C1184 1.394 . S
C1186 C1187 1.369 . S
C1186 C1190 1.531 . S
C1187 C1186 1.369 . S
C1187 C1188 1.410 . S
C1187 C1195 1.503 . S
C1188 C1187 1.410 . S
C1188 C1189 1.392 . S
C1188 C1191 1.511 . S
C1189 C1185 1.376 . S
C1189 C1188 1.392 . S
C1189 H1201 0.929 . S
C1190 C1186 1.531 . S
C1190 H1202 0.960 . S
C1190 H1203 0.962 . S
C1190 H1204 0.960 . S
C1191 C1188 1.511 . S
C1191 H1205 0.961 . S
C1191 H1206 0.961 . S
C1191 H1207 0.961 . S
C1192 C1193 1.370 . S
C1192 C1194 1.363 . S
C1192 H1208 0.931 . S
C1193 C1192 1.370 . S
C1193 C1197 1.408 . S
C1194 C1192 1.363 . S
C1194 C1195 1.370 . S
C1194 C1198 1.524 . S
C1195 C1187 1.503 . S
C1195 C1194 1.370 . S
C1195 C1196 1.403 . S
C1196 C1195 1.403 . S
C1196 C1197 1.404 . S
C1196 C1199 1.539 . S
C1197 C1193 1.408 . S
C1197 C1196 1.404 . S
C1197 H1209 0.930 . S
C1198 C1194 1.524 . S
C1198 H1210 0.956 . S
C1198 H1211 0.961 . S
C1198 H1212 0.961 . S
C1199 C1196 1.539 . S
C1199 H1213 0.958 . S
C1199 H1214 0.961 . S
C1199 H1215 0.960 . S
H1200 C1184 0.931 . S
H1201 C1189 0.929 . S
H1202 C1190 0.960 . S
H1203 C1190 0.962 . S
H1204 C1190 0.960 . S
H1205 C1191 0.961 . S
H1206 C1191 0.961 . S
H1207 C1191 0.961 . S
H1208 C1192 0.931 . S
H1209 C1197 0.930 . S
H1210 C1198 0.956 . S
H1211 C1198 0.961 . S
H1212 C1198 0.961 . S
H1213 C1199 0.958 . S
H1214 C1199 0.961 . S
H1215 C1199 0.960 . S
C1216 C1217 1.391 . S
C1216 C1218 1.394 . S
C1216 H1232 0.931 . S
C1217 C1216 1.391 . S
C1217 C1221 1.376 . S
C1218 C1216 1.394 . S
C1218 C1219 1.369 . S
C1218 C1222 1.531 . S
C1219 C1218 1.369 . S
C1219 C1220 1.410 . S
C1219 C1227 1.503 . S
C1220 C1219 1.410 . S
C1220 C1221 1.392 . S
C1220 C1223 1.511 . S
C1221 C1217 1.376 . S
C1221 C1220 1.392 . S
C1221 H1233 0.929 . S
C1222 C1218 1.531 . S
C1222 H1234 0.960 . S
C1222 H1235 0.962 . S
C1222 H1236 0.960 . S
C1223 C1220 1.511 . S
C1223 H1237 0.961 . S
C1223 H1238 0.961 . S
C1223 H1239 0.961 . S
C1224 C1225 1.370 . S
C1224 C1226 1.363 . S
C1224 H1240 0.931 . S
C1225 C1224 1.370 . S
C1225 C1229 1.408 . S
C1226 C1224 1.363 . S
C1226 C1227 1.370 . S
C1226 C1230 1.524 . S
C1227 C1219 1.503 . S
C1227 C1226 1.370 . S
C1227 C1228 1.403 . S
C1228 C1227 1.403 . S
C1228 C1229 1.404 . S
C1228 C1231 1.539 . S
C1229 C1225 1.408 . S
C1229 C1228 1.404 . S
C1229 H1241 0.930 . S
C1230 C1226 1.524 . S
C1230 H1242 0.956 . S
C1230 H1243 0.961 . S
C1230 H1244 0.961 . S
C1231 C1228 1.539 . S
C1231 H1245 0.958 . S
C1231 H1246 0.961 . S
C1231 H1247 0.960 . S
H1232 C1216 0.931 . S
H1233 C1221 0.929 . S
H1234 C1222 0.960 . S
H1235 C1222 0.962 . S
H1236 C1222 0.960 . S
H1237 C1223 0.961 . S
H1238 C1223 0.961 . S
H1239 C1223 0.961 . S
H1240 C1224 0.931 . S
H1241 C1229 0.930 . S
H1242 C1230 0.956 . S
H1243 C1230 0.961 . S
H1244 C1230 0.961 . S
H1245 C1231 0.958 . S
H1246 C1231 0.961 . S
H1247 C1231 0.960 . S
C1248 C1249 1.391 . S
C1248 C1250 1.394 . S
C1248 H1264 0.931 . S
C1249 C1248 1.391 . S
C1249 C1253 1.376 . S
C1250 C1248 1.394 . S
C1250 C1251 1.369 . S
C1250 C1254 1.531 . S
C1251 C1250 1.369 . S
C1251 C1252 1.410 . S
C1251 C1259 1.503 . S
C1252 C1251 1.410 . S
C1252 C1253 1.392 . S
C1252 C1255 1.511 . S
C1253 C1249 1.376 . S
C1253 C1252 1.392 . S
C1253 H1265 0.929 . S
C1254 C1250 1.531 . S
C1254 H1266 0.960 . S
C1254 H1267 0.962 . S
C1254 H1268 0.960 . S
C1255 C1252 1.511 . S
C1255 H1269 0.961 . S
C1255 H1270 0.961 . S
C1255 H1271 0.961 . S
C1256 C1257 1.370 . S
C1256 C1258 1.363 . S
C1256 H1272 0.931 . S
C1257 C1256 1.370 . S
C1257 C1261 1.408 . S
C1258 C1256 1.363 . S
C1258 C1259 1.370 . S
C1258 C1262 1.524 . S
C1259 C1251 1.503 . S
C1259 C1258 1.370 . S
C1259 C1260 1.403 . S
C1260 C1259 1.403 . S
C1260 C1261 1.404 . S
C1260 C1263 1.539 . S
C1261 C1257 1.408 . S
C1261 C1260 1.404 . S
C1261 H1273 0.930 . S
C1262 C1258 1.524 . S
C1262 H1274 0.956 . S
C1262 H1275 0.961 . S
C1262 H1276 0.961 . S
C1263 C1260 1.539 . S
C1263 H1277 0.958 . S
C1263 H1278 0.961 . S
C1263 H1279 0.960 . S
H1264 C1248 0.931 . S
H1265 C1253 0.929 . S
H1266 C1254 0.960 . S
H1267 C1254 0.962 . S
H1268 C1254 0.960 . S
H1269 C1255 0.961 . S
H1270 C1255 0.961 . S
H1271 C1255 0.961 . S
H1272 C1256 0.931 . S
H1273 C1261 0.930 . S
H1274 C1262 0.956 . S
H1275 C1262 0.961 . S
H1276 C1262 0.961 . S
H1277 C1263 0.958 . S
H1278 C1263 0.961 . S
H1279 C1263 0.960 . S
C1280 C1281 1.391 . S
C1280 C1282 1.394 . S
C1280 H1296 0.931 . S
C1281 C1280 1.391 . S
C1281 C1285 1.376 . S
C1282 C1280 1.394 . S
C1282 C1283 1.369 . S
C1282 C1286 1.531 . S
C1283 C1282 1.369 . S
C1283 C1284 1.410 . S
C1283 C1291 1.503 . S
C1284 C1283 1.410 . S
C1284 C1285 1.392 . S
C1284 C1287 1.511 . S
C1285 C1281 1.376 . S
C1285 C1284 1.392 . S
C1285 H1297 0.929 . S
C1286 C1282 1.531 . S
C1286 H1298 0.960 . S
C1286 H1299 0.962 . S
C1286 H1300 0.960 . S
C1287 C1284 1.511 . S
C1287 H1301 0.961 . S
C1287 H1302 0.961 . S
C1287 H1303 0.961 . S
C1288 C1289 1.370 . S
C1288 C1290 1.363 . S
C1288 H1304 0.931 . S
C1289 C1288 1.370 . S
C1289 C1293 1.408 . S
C1290 C1288 1.363 . S
C1290 C1291 1.370 . S
C1290 C1294 1.524 . S
C1291 C1283 1.503 . S
C1291 C1290 1.370 . S
C1291 C1292 1.403 . S
C1292 C1291 1.403 . S
C1292 C1293 1.404 . S
C1292 C1295 1.539 . S
C1293 C1289 1.408 . S
C1293 C1292 1.404 . S
C1293 H1305 0.930 . S
C1294 C1290 1.524 . S
C1294 H1306 0.956 . S
C1294 H1307 0.961 . S
C1294 H1308 0.961 . S
C1295 C1292 1.539 . S
C1295 H1309 0.958 . S
C1295 H1310 0.961 . S
C1295 H1311 0.960 . S
H1296 C1280 0.931 . S
H1297 C1285 0.929 . S
H1298 C1286 0.960 . S
H1299 C1286 0.962 . S
H1300 C1286 0.960 . S
H1301 C1287 0.961 . S
H1302 C1287 0.961 . S
H1303 C1287 0.961 . S
H1304 C1288 0.931 . S
H1305 C1293 0.930 . S
H1306 C1294 0.956 . S
H1307 C1294 0.961 . S
H1308 C1294 0.961 . S
H1309 C1295 0.958 . S
H1310 C1295 0.961 . S
H1311 C1295 0.960 . S
C1312 C1313 1.391 . S
C1312 C1314 1.394 . S
C1312 H1328 0.931 . S
C1313 C1312 1.391 . S
C1313 C1317 1.376 . S
C1314 C1312 1.394 . S
C1314 C1315 1.369 . S
C1314 C1318 1.531 . S
C1315 C1314 1.369 . S
C1315 C1316 1.410 . S
C1315 C1323 1.503 . S
C1316 C1315 1.410 . S
C1316 C1317 1.392 . S
C1316 C1319 1.511 . S
C1317 C1313 1.376 . S
C1317 C1316 1.392 . S
C1317 H1329 0.929 . S
C1318 C1314 1.531 . S
C1318 H1330 0.960 . S
C1318 H1331 0.962 . S
C1318 H1332 0.960 . S
C1319 C1316 1.511 . S
C1319 H1333 0.961 . S
C1319 H1334 0.961 . S
C1319 H1335 0.961 . S
C1320 C1321 1.370 . S
C1320 C1322 1.363 . S
C1320 H1336 0.931 . S
C1321 C1320 1.370 . S
C1321 C1325 1.408 . S
C1322 C1320 1.363 . S
C1322 C1323 1.370 . S
C1322 C1326 1.524 . S
C1323 C1315 1.503 . S
C1323 C1322 1.370 . S
C1323 C1324 1.403 . S
C1324 C1323 1.403 . S
C1324 C1325 1.404 . S
C1324 C1327 1.539 . S
C1325 C1321 1.408 . S
C1325 C1324 1.404 . S
C1325 H1337 0.930 . S
C1326 C1322 1.524 . S
C1326 H1338 0.956 . S
C1326 H1339 0.961 . S
C1326 H1340 0.961 . S
C1327 C1324 1.539 . S
C1327 H1341 0.958 . S
C1327 H1342 0.961 . S
C1327 H1343 0.960 . S
H1328 C1312 0.931 . S
H1329 C1317 0.929 . S
H1330 C1318 0.960 . S
H1331 C1318 0.962 . S
H1332 C1318 0.960 . S
H1333 C1319 0.961 . S
H1334 C1319 0.961 . S
H1335 C1319 0.961 . S
H1336 C1320 0.931 . S
H1337 C1325 0.930 . S
H1338 C1326 0.956 . S
H1339 C1326 0.961 . S
H1340 C1326 0.961 . S
H1341 C1327 0.958 . S
H1342 C1327 0.961 . S
H1343 C1327 0.960 . S
C1344 C1345 1.391 . S
C1344 C1346 1.394 . S
C1344 H1360 0.931 . S
C1345 C1344 1.391 . S
C1345 C1349 1.376 . S
C1346 C1344 1.394 . S
C1346 C1347 1.369 . S
C1346 C1350 1.531 . S
C1347 C1346 1.369 . S
C1347 C1348 1.410 . S
C1347 C1355 1.503 . S
C1348 C1347 1.410 . S
C1348 C1349 1.392 . S
C1348 C1351 1.511 . S
C1349 C1345 1.376 . S
C1349 C1348 1.392 . S
C1349 H1361 0.929 . S
C1350 C1346 1.531 . S
C1350 H1362 0.960 . S
C1350 H1363 0.962 . S
C1350 H1364 0.960 . S
C1351 C1348 1.511 . S
C1351 H1365 0.961 . S
C1351 H1366 0.961 . S
C1351 H1367 0.961 . S
C1352 C1353 1.370 . S
C1352 C1354 1.363 . S
C1352 H1368 0.931 . S
C1353 C1352 1.370 . S
C1353 C1357 1.408 . S
C1354 C1352 1.363 . S
C1354 C1355 1.370 . S
C1354 C1358 1.524 . S
C1355 C1347 1.503 . S
C1355 C1354 1.370 . S
C1355 C1356 1.403 . S
C1356 C1355 1.403 . S
C1356 C1357 1.404 . S
C1356 C1359 1.539 . S
C1357 C1353 1.408 . S
C1357 C1356 1.404 . S
C1357 H1369 0.930 . S
C1358 C1354 1.524 . S
C1358 H1370 0.956 . S
C1358 H1371 0.961 . S
C1358 H1372 0.961 . S
C1359 C1356 1.539 . S
C1359 H1373 0.958 . S
C1359 H1374 0.961 . S
C1359 H1375 0.960 . S
H1360 C1344 0.931 . S
H1361 C1349 0.929 . S
H1362 C1350 0.960 . S
H1363 C1350 0.962 . S
H1364 C1350 0.960 . S
H1365 C1351 0.961 . S
H1366 C1351 0.961 . S
H1367 C1351 0.961 . S
H1368 C1352 0.931 . S
H1369 C1357 0.930 . S
H1370 C1358 0.956 . S
H1371 C1358 0.961 . S
H1372 C1358 0.961 . S
H1373 C1359 0.958 . S
H1374 C1359 0.961 . S
H1375 C1359 0.960 . S
C1376 C1377 1.391 . S
C1376 C1378 1.394 . S
C1376 H1392 0.931 . S
C1377 C1376 1.391 . S
C1377 C1381 1.376 . S
C1378 C1376 1.394 . S
C1378 C1379 1.369 . S
C1378 C1382 1.531 . S
C1379 C1378 1.369 . S
C1379 C1380 1.410 . S
C1379 C1387 1.503 . S
C1380 C1379 1.410 . S
C1380 C1381 1.392 . S
C1380 C1383 1.511 . S
C1381 C1377 1.376 . S
C1381 C1380 1.392 . S
C1381 H1393 0.929 . S
C1382 C1378 1.531 . S
C1382 H1394 0.960 . S
C1382 H1395 0.962 . S
C1382 H1396 0.960 . S
C1383 C1380 1.511 . S
C1383 H1397 0.961 . S
C1383 H1398 0.961 . S
C1383 H1399 0.961 . S
C1384 C1385 1.370 . S
C1384 C1386 1.363 . S
C1384 H1400 0.931 . S
C1385 C1384 1.370 . S
C1385 C1389 1.408 . S
C1386 C1384 1.363 . S
C1386 C1387 1.370 . S
C1386 C1390 1.524 . S
C1387 C1379 1.503 . S
C1387 C1386 1.370 . S
C1387 C1388 1.403 . S
C1388 C1387 1.403 . S
C1388 C1389 1.404 . S
C1388 C1391 1.539 . S
C1389 C1385 1.408 . S
C1389 C1388 1.404 . S
C1389 H1401 0.930 . S
C1390 C1386 1.524 . S
C1390 H1402 0.956 . S
C1390 H1403 0.961 . S
C1390 H1404 0.961 . S
C1391 C1388 1.539 . S
C1391 H1405 0.958 . S
C1391 H1406 0.961 . S
C1391 H1407 0.960 . S
H1392 C1376 0.931 . S
H1393 C1381 0.929 . S
H1394 C1382 0.960 . S
H1395 C1382 0.962 . S
H1396 C1382 0.960 . S
H1397 C1383 0.961 . S
H1398 C1383 0.961 . S
H1399 C1383 0.961 . S
H1400 C1384 0.931 . S
H1401 C1389 0.930 . S
H1402 C1390 0.956 . S
H1403 C1390 0.961 . S
H1404 C1390 0.961 . S
H1405 C1391 0.958 . S
H1406 C1391 0.961 . S
H1407 C1391 0.960 . S
C1408 C1409 1.391 . S
C1408 C1410 1.394 . S
C1408 H1424 0.931 1_565 S
C1409 C1408 1.391 . S
C1409 C1413 1.376 . S
C1410 C1408 1.394 . S
C1410 C1411 1.369 . S
C1410 C1414 1.531 . S
C1411 C1410 1.369 . S
C1411 C1412 1.410 . S
C1411 C1419 1.503 . S
C1412 C1411 1.410 . S
C1412 C1413 1.392 . S
C1412 C1415 1.511 . S
C1413 C1409 1.376 . S
C1413 C1412 1.392 . S
C1413 H1425 0.929 . S
C1414 C1410 1.531 . S
C1414 H1426 0.960 . S
C1414 H1427 0.962 . S
C1414 H1428 0.960 1_565 S
C1415 C1412 1.511 . S
C1415 H1429 0.961 . S
C1415 H1430 0.961 . S
C1415 H1431 0.961 . S
C1416 C1417 1.370 . S
C1416 C1418 1.363 . S
C1416 H1432 0.931 . S
C1417 C1416 1.370 . S
C1417 C1421 1.408 . S
C1418 C1416 1.363 . S
C1418 C1419 1.370 . S
C1418 C1422 1.524 . S
C1419 C1411 1.503 . S
C1419 C1418 1.370 . S
C1419 C1420 1.403 . S
C1420 C1419 1.403 . S
C1420 C1421 1.404 . S
C1420 C1423 1.539 . S
C1421 C1417 1.408 . S
C1421 C1420 1.404 . S
C1421 H1433 0.930 . S
C1422 C1418 1.524 . S
C1422 H1434 0.956 . S
C1422 H1435 0.961 . S
C1422 H1436 0.961 . S
C1423 C1420 1.539 . S
C1423 H1437 0.958 . S
C1423 H1438 0.961 . S
C1423 H1439 0.960 . S
H1424 C1408 0.931 1_545 S
H1425 C1413 0.929 . S
H1426 C1414 0.960 . S
H1427 C1414 0.962 . S
H1428 C1414 0.960 1_545 S
H1429 C1415 0.961 . S
H1430 C1415 0.961 . S
H1431 C1415 0.961 . S
H1432 C1416 0.931 . S
H1433 C1421 0.930 . S
H1434 C1422 0.956 . S
H1435 C1422 0.961 . S
H1436 C1422 0.961 . S
H1437 C1423 0.958 . S
H1438 C1423 0.961 . S
H1439 C1423 0.960 . S
C1440 C1441 1.391 . S
C1440 C1442 1.394 . S
C1440 H1456 0.931 . S
C1441 C1440 1.391 . S
C1441 C1445 1.376 . S
C1442 C1440 1.394 . S
C1442 C1443 1.369 . S
C1442 C1446 1.531 . S
C1443 C1442 1.369 . S
C1443 C1444 1.410 . S
C1443 C1451 1.503 . S
C1444 C1443 1.410 . S
C1444 C1445 1.392 . S
C1444 C1447 1.511 . S
C1445 C1441 1.376 . S
C1445 C1444 1.392 . S
C1445 H1457 0.929 . S
C1446 C1442 1.531 . S
C1446 H1458 0.960 . S
C1446 H1459 0.957 1_545 S
C1446 H1460 0.960 1_545 S
C1447 C1444 1.511 . S
C1447 H1461 0.961 . S
C1447 H1462 0.961 . S
C1447 H1463 0.961 . S
C1448 C1449 1.370 . S
C1448 C1450 1.363 . S
C1448 H1464 0.931 . S
C1449 C1448 1.370 . S
C1449 C1453 1.408 . S
C1450 C1448 1.363 . S
C1450 C1451 1.370 . S
C1450 C1454 1.524 . S
C1451 C1443 1.503 . S
C1451 C1450 1.370 . S
C1451 C1452 1.403 . S
C1452 C1451 1.403 . S
C1452 C1453 1.404 . S
C1452 C1455 1.539 . S
C1453 C1449 1.408 . S
C1453 C1452 1.404 . S
C1453 H1465 0.930 . S
C1454 C1450 1.524 . S
C1454 H1466 0.956 . S
C1454 H1467 0.961 . S
C1454 H1468 0.961 . S
C1455 C1452 1.539 . S
C1455 H1469 0.958 . S
C1455 H1470 0.961 . S
C1455 H1471 0.960 . S
H1456 C1440 0.931 . S
H1457 C1445 0.929 . S
H1458 C1446 0.960 . S
H1459 C1446 0.957 1_565 S
H1460 C1446 0.960 1_565 S
H1461 C1447 0.961 . S
H1462 C1447 0.961 . S
H1463 C1447 0.961 . S
H1464 C1448 0.931 . S
H1465 C1453 0.930 . S
H1466 C1454 0.956 . S
H1467 C1454 0.961 . S
H1468 C1454 0.961 . S
H1469 C1455 0.958 . S
H1470 C1455 0.961 . S
H1471 C1455 0.960 . S
C1472 C1473 1.391 . S
C1472 C1474 1.394 . S
C1472 H1488 0.931 . S
C1473 C1472 1.391 . S
C1473 C1477 1.376 . S
C1474 C1472 1.394 . S
C1474 C1475 1.369 . S
C1474 C1478 1.531 . S
C1475 C1474 1.369 . S
C1475 C1476 1.410 . S
C1475 C1483 1.503 . S
C1476 C1475 1.410 . S
C1476 C1477 1.392 . S
C1476 C1479 1.511 . S
C1477 C1473 1.376 . S
C1477 C1476 1.392 . S
C1477 H1489 0.929 . S
C1478 C1474 1.531 . S
C1478 H1490 0.960 . S
C1478 H1491 0.962 . S
C1478 H1492 0.960 . S
C1479 C1476 1.511 . S
C1479 H1493 0.961 . S
C1479 H1494 0.961 . S
C1479 H1495 0.961 . S
C1480 C1481 1.370 . S
C1480 C1482 1.363 . S
C1480 H1496 0.931 . S
C1481 C1480 1.370 . S
C1481 C1485 1.408 . S
C1482 C1480 1.363 . S
C1482 C1483 1.370 . S
C1482 C1486 1.524 . S
C1483 C1475 1.503 . S
C1483 C1482 1.370 . S
C1483 C1484 1.403 . S
C1484 C1483 1.403 . S
C1484 C1485 1.404 . S
C1484 C1487 1.539 . S
C1485 C1481 1.408 . S
C1485 C1484 1.404 . S
C1485 H1497 0.930 . S
C1486 C1482 1.524 . S
C1486 H1498 0.956 . S
C1486 H1499 0.961 . S
C1486 H1500 0.961 . S
C1487 C1484 1.539 . S
C1487 H1501 0.958 . S
C1487 H1502 0.961 . S
C1487 H1503 0.960 . S
H1488 C1472 0.931 . S
H1489 C1477 0.929 . S
H1490 C1478 0.960 . S
H1491 C1478 0.962 . S
H1492 C1478 0.960 . S
H1493 C1479 0.961 . S
H1494 C1479 0.961 . S
H1495 C1479 0.961 . S
H1496 C1480 0.931 . S
H1497 C1485 0.930 . S
H1498 C1486 0.956 . S
H1499 C1486 0.961 . S
H1500 C1486 0.961 . S
H1501 C1487 0.958 . S
H1502 C1487 0.961 . S
H1503 C1487 0.960 . S
C1504 C1505 1.391 . S
C1504 C1506 1.394 . S
C1504 H1520 0.931 . S
C1505 C1504 1.391 . S
C1505 C1509 1.376 . S
C1506 C1504 1.394 . S
C1506 C1507 1.369 . S
C1506 C1510 1.531 . S
C1507 C1506 1.369 . S
C1507 C1508 1.410 . S
C1507 C1515 1.503 . S
C1508 C1507 1.410 . S
C1508 C1509 1.392 . S
C1508 C1511 1.511 . S
C1509 C1505 1.376 . S
C1509 C1508 1.392 . S
C1509 H1521 0.929 . S
C1510 C1506 1.531 . S
C1510 H1522 0.960 . S
C1510 H1523 0.962 . S
C1510 H1524 0.960 . S
C1511 C1508 1.511 . S
C1511 H1525 0.961 . S
C1511 H1526 0.961 . S
C1511 H1527 0.961 . S
C1512 C1513 1.370 . S
C1512 C1514 1.363 . S
C1512 H1528 0.931 . S
C1513 C1512 1.370 . S
C1513 C1517 1.408 . S
C1514 C1512 1.363 . S
C1514 C1515 1.370 . S
C1514 C1518 1.524 . S
C1515 C1507 1.503 . S
C1515 C1514 1.370 . S
C1515 C1516 1.403 . S
C1516 C1515 1.403 . S
C1516 C1517 1.404 . S
C1516 C1519 1.539 . S
C1517 C1513 1.408 . S
C1517 C1516 1.404 . S
C1517 H1529 0.930 . S
C1518 C1514 1.524 . S
C1518 H1530 0.956 . S
C1518 H1531 0.961 . S
C1518 H1532 0.961 . S
C1519 C1516 1.539 . S
C1519 H1533 0.958 . S
C1519 H1534 0.961 . S
C1519 H1535 0.960 . S
H1520 C1504 0.931 . S
H1521 C1509 0.929 . S
H1522 C1510 0.960 . S
H1523 C1510 0.962 . S
H1524 C1510 0.960 . S
H1525 C1511 0.961 . S
H1526 C1511 0.961 . S
H1527 C1511 0.961 . S
H1528 C1512 0.931 . S
H1529 C1517 0.930 . S
H1530 C1518 0.956 . S
H1531 C1518 0.961 . S
H1532 C1518 0.961 . S
H1533 C1519 0.958 . S
H1534 C1519 0.961 . S
H1535 C1519 0.960 . S
C1536 C1537 1.391 . S
C1536 C1538 1.394 . S
C1536 H1552 0.931 . S
C1537 C1536 1.391 . S
C1537 C1541 1.376 . S
C1538 C1536 1.394 . S
C1538 C1539 1.369 . S
C1538 C1542 1.531 . S
C1539 C1538 1.369 . S
C1539 C1540 1.410 . S
C1539 C1547 1.503 . S
C1540 C1539 1.410 . S
C1540 C1541 1.392 . S
C1540 C1543 1.511 . S
C1541 C1537 1.376 . S
C1541 C1540 1.392 . S
C1541 H1553 0.929 . S
C1542 C1538 1.531 . S
C1542 H1554 0.960 . S
C1542 H1555 0.962 . S
C1542 H1556 0.960 . S
C1543 C1540 1.511 . S
C1543 H1557 0.961 . S
C1543 H1558 0.961 . S
C1543 H1559 0.961 . S
C1544 C1545 1.370 . S
C1544 C1546 1.363 . S
C1544 H1560 0.931 . S
C1545 C1544 1.370 . S
C1545 C1549 1.408 . S
C1546 C1544 1.363 . S
C1546 C1547 1.370 . S
C1546 C1550 1.524 . S
C1547 C1539 1.503 . S
C1547 C1546 1.370 . S
C1547 C1548 1.403 . S
C1548 C1547 1.403 . S
C1548 C1549 1.404 . S
C1548 C1551 1.539 . S
C1549 C1545 1.408 . S
C1549 C1548 1.404 . S
C1549 H1561 0.930 . S
C1550 C1546 1.524 . S
C1550 H1562 0.956 . S
C1550 H1563 0.961 . S
C1550 H1564 0.961 . S
C1551 C1548 1.539 . S
C1551 H1565 0.958 . S
C1551 H1566 0.961 . S
C1551 H1567 0.960 . S
H1552 C1536 0.931 . S
H1553 C1541 0.929 . S
H1554 C1542 0.960 . S
H1555 C1542 0.962 . S
H1556 C1542 0.960 . S
H1557 C1543 0.961 . S
H1558 C1543 0.961 . S
H1559 C1543 0.961 . S
H1560 C1544 0.931 . S
H1561 C1549 0.930 . S
H1562 C1550 0.956 . S
H1563 C1550 0.961 . S
H1564 C1550 0.961 . S
H1565 C1551 0.958 . S
H1566 C1551 0.961 . S
H1567 C1551 0.960 . S
C1568 C1569 1.391 . S
C1568 C1570 1.394 . S
C1568 H1584 0.931 . S
C1569 C1568 1.391 . S
C1569 C1573 1.376 . S
C1570 C1568 1.394 . S
C1570 C1571 1.369 . S
C1570 C1574 1.531 . S
C1571 C1570 1.369 . S
C1571 C1572 1.410 . S
C1571 C1579 1.503 . S
C1572 C1571 1.410 . S
C1572 C1573 1.392 . S
C1572 C1575 1.511 . S
C1573 C1569 1.376 . S
C1573 C1572 1.392 . S
C1573 H1585 0.929 . S
C1574 C1570 1.531 . S
C1574 H1586 0.960 . S
C1574 H1587 0.962 . S
C1574 H1588 0.960 . S
C1575 C1572 1.511 . S
C1575 H1589 0.961 . S
C1575 H1590 0.961 . S
C1575 H1591 0.961 . S
C1576 C1577 1.370 . S
C1576 C1578 1.363 . S
C1576 H1592 0.931 . S
C1577 C1576 1.370 . S
C1577 C1581 1.408 . S
C1578 C1576 1.363 . S
C1578 C1579 1.370 . S
C1578 C1582 1.524 . S
C1579 C1571 1.503 . S
C1579 C1578 1.370 . S
C1579 C1580 1.403 . S
C1580 C1579 1.403 . S
C1580 C1581 1.404 . S
C1580 C1583 1.539 . S
C1581 C1577 1.408 . S
C1581 C1580 1.404 . S
C1581 H1593 0.930 . S
C1582 C1578 1.524 . S
C1582 H1594 0.956 . S
C1582 H1595 0.961 . S
C1582 H1596 0.961 . S
C1583 C1580 1.539 . S
C1583 H1597 0.958 . S
C1583 H1598 0.961 . S
C1583 H1599 0.960 . S
H1584 C1568 0.931 . S
H1585 C1573 0.929 . S
H1586 C1574 0.960 . S
H1587 C1574 0.962 . S
H1588 C1574 0.960 . S
H1589 C1575 0.961 . S
H1590 C1575 0.961 . S
H1591 C1575 0.961 . S
H1592 C1576 0.931 . S
H1593 C1581 0.930 . S
H1594 C1582 0.956 . S
H1595 C1582 0.961 . S
H1596 C1582 0.961 . S
H1597 C1583 0.958 . S
H1598 C1583 0.961 . S
H1599 C1583 0.960 . S
C1600 C1601 1.391 . S
C1600 C1602 1.394 . S
C1600 H1616 0.931 . S
C1601 C1600 1.391 . S
C1601 C1605 1.376 . S
C1602 C1600 1.394 . S
C1602 C1603 1.369 . S
C1602 C1606 1.531 . S
C1603 C1602 1.369 . S
C1603 C1604 1.410 . S
C1603 C1611 1.503 . S
C1604 C1603 1.410 . S
C1604 C1605 1.392 . S
C1604 C1607 1.511 . S
C1605 C1601 1.376 . S
C1605 C1604 1.392 . S
C1605 H1617 0.929 . S
C1606 C1602 1.531 . S
C1606 H1618 0.960 . S
C1606 H1619 0.962 . S
C1606 H1620 0.960 . S
C1607 C1604 1.511 . S
C1607 H1621 0.961 . S
C1607 H1622 0.961 . S
C1607 H1623 0.961 . S
C1608 C1609 1.370 . S
C1608 C1610 1.363 . S
C1608 H1624 0.931 . S
C1609 C1608 1.370 . S
C1609 C1613 1.408 . S
C1610 C1608 1.363 . S
C1610 C1611 1.370 . S
C1610 C1614 1.524 . S
C1611 C1603 1.503 . S
C1611 C1610 1.370 . S
C1611 C1612 1.403 . S
C1612 C1611 1.403 . S
C1612 C1613 1.404 . S
C1612 C1615 1.539 . S
C1613 C1609 1.408 . S
C1613 C1612 1.404 . S
C1613 H1625 0.930 . S
C1614 C1610 1.524 . S
C1614 H1626 0.956 . S
C1614 H1627 0.961 . S
C1614 H1628 0.961 . S
C1615 C1612 1.539 . S
C1615 H1629 0.958 . S
C1615 H1630 0.961 . S
C1615 H1631 0.960 . S
H1616 C1600 0.931 . S
H1617 C1605 0.929 . S
H1618 C1606 0.960 . S
H1619 C1606 0.962 . S
H1620 C1606 0.960 . S
H1621 C1607 0.961 . S
H1622 C1607 0.961 . S
H1623 C1607 0.961 . S
H1624 C1608 0.931 . S
H1625 C1613 0.930 . S
H1626 C1614 0.956 . S
H1627 C1614 0.961 . S
H1628 C1614 0.961 . S
H1629 C1615 0.958 . S
H1630 C1615 0.961 . S
H1631 C1615 0.960 . S
C1632 C1633 1.391 . S
C1632 C1634 1.394 . S
C1632 H1648 0.931 . S
C1633 C1632 1.391 . S
C1633 C1637 1.376 . S
C1634 C1632 1.394 . S
C1634 C1635 1.369 . S
C1634 C1638 1.531 . S
C1635 C1634 1.369 . S
C1635 C1636 1.410 . S
C1635 C1643 1.503 . S
C1636 C1635 1.410 . S
C1636 C1637 1.392 . S
C1636 C1639 1.511 . S
C1637 C1633 1.376 . S
C1637 C1636 1.392 . S
C1637 H1649 0.929 . S
C1638 C1634 1.531 . S
C1638 H1650 0.960 . S
C1638 H1651 0.962 . S
C1638 H1652 0.960 . S
C1639 C1636 1.511 . S
C1639 H1653 0.961 . S
C1639 H1654 0.961 . S
C1639 H1655 0.961 . S
C1640 C1641 1.370 . S
C1640 C1642 1.363 . S
C1640 H1656 0.931 . S
C1641 C1640 1.370 . S
C1641 C1645 1.408 . S
C1642 C1640 1.363 . S
C1642 C1643 1.370 . S
C1642 C1646 1.524 . S
C1643 C1635 1.503 . S
C1643 C1642 1.370 . S
C1643 C1644 1.403 . S
C1644 C1643 1.403 . S
C1644 C1645 1.404 . S
C1644 C1647 1.539 . S
C1645 C1641 1.408 . S
C1645 C1644 1.404 . S
C1645 H1657 0.930 . S
C1646 C1642 1.524 . S
C1646 H1658 0.956 . S
C1646 H1659 0.961 . S
C1646 H1660 0.961 . S
C1647 C1644 1.539 . S
C1647 H1661 0.958 . S
C1647 H1662 0.961 . S
C1647 H1663 0.960 . S
H1648 C1632 0.931 . S
H1649 C1637 0.929 . S
H1650 C1638 0.960 . S
H1651 C1638 0.962 . S
H1652 C1638 0.960 . S
H1653 C1639 0.961 . S
H1654 C1639 0.961 . S
H1655 C1639 0.961 . S
H1656 C1640 0.931 . S
H1657 C1645 0.930 . S
H1658 C1646 0.956 . S
H1659 C1646 0.961 . S
H1660 C1646 0.961 . S
H1661 C1647 0.958 . S
H1662 C1647 0.961 . S
H1663 C1647 0.960 . S
C1664 C1665 1.391 . S
C1664 C1666 1.394 . S
C1664 H1680 0.931 . S
C1665 C1664 1.391 . S
C1665 C1669 1.376 . S
C1666 C1664 1.394 . S
C1666 C1667 1.369 . S
C1666 C1670 1.531 . S
C1667 C1666 1.369 . S
C1667 C1668 1.410 . S
C1667 C1675 1.503 . S
C1668 C1667 1.410 . S
C1668 C1669 1.392 . S
C1668 C1671 1.511 . S
C1669 C1665 1.376 . S
C1669 C1668 1.392 . S
C1669 H1681 0.929 . S
C1670 C1666 1.531 . S
C1670 H1682 0.960 . S
C1670 H1683 0.962 . S
C1670 H1684 0.960 . S
C1671 C1668 1.511 . S
C1671 H1685 0.961 . S
C1671 H1686 0.961 . S
C1671 H1687 0.961 . S
C1672 C1673 1.370 . S
C1672 C1674 1.363 . S
C1672 H1688 0.931 . S
C1673 C1672 1.370 . S
C1673 C1677 1.408 . S
C1674 C1672 1.363 . S
C1674 C1675 1.370 . S
C1674 C1678 1.524 . S
C1675 C1667 1.503 . S
C1675 C1674 1.370 . S
C1675 C1676 1.403 . S
C1676 C1675 1.403 . S
C1676 C1677 1.404 . S
C1676 C1679 1.539 . S
C1677 C1673 1.408 . S
C1677 C1676 1.404 . S
C1677 H1689 0.930 . S
C1678 C1674 1.524 . S
C1678 H1690 0.956 . S
C1678 H1691 0.961 . S
C1678 H1692 0.961 . S
C1679 C1676 1.539 . S
C1679 H1693 0.958 . S
C1679 H1694 0.961 . S
C1679 H1695 0.960 . S
H1680 C1664 0.931 . S
H1681 C1669 0.929 . S
H1682 C1670 0.960 . S
H1683 C1670 0.962 . S
H1684 C1670 0.960 . S
H1685 C1671 0.961 . S
H1686 C1671 0.961 . S
H1687 C1671 0.961 . S
H1688 C1672 0.931 . S
H1689 C1677 0.930 . S
H1690 C1678 0.956 . S
H1691 C1678 0.961 . S
H1692 C1678 0.961 . S
H1693 C1679 0.958 . S
H1694 C1679 0.961 . S
H1695 C1679 0.960 . S
C1696 C1697 1.391 . S
C1696 C1698 1.394 . S
C1696 H1712 0.931 . S
C1697 C1696 1.391 . S
C1697 C1701 1.376 . S
C1698 C1696 1.394 . S
C1698 C1699 1.369 . S
C1698 C1702 1.531 . S
C1699 C1698 1.369 . S
C1699 C1700 1.410 . S
C1699 C1707 1.503 . S
C1700 C1699 1.410 . S
C1700 C1701 1.392 . S
C1700 C1703 1.511 . S
C1701 C1697 1.376 . S
C1701 C1700 1.392 . S
C1701 H1713 0.929 . S
C1702 C1698 1.531 . S
C1702 H1714 0.960 . S
C1702 H1715 0.962 . S
C1702 H1716 0.960 . S
C1703 C1700 1.511 . S
C1703 H1717 0.961 . S
C1703 H1718 0.961 . S
C1703 H1719 0.961 . S
C1704 C1705 1.370 . S
C1704 C1706 1.363 . S
C1704 H1720 0.931 . S
C1705 C1704 1.370 . S
C1705 C1709 1.408 . S
C1706 C1704 1.363 . S
C1706 C1707 1.370 . S
C1706 C1710 1.524 . S
C1707 C1699 1.503 . S
C1707 C1706 1.370 . S
C1707 C1708 1.403 . S
C1708 C1707 1.403 . S
C1708 C1709 1.404 . S
C1708 C1711 1.539 . S
C1709 C1705 1.408 . S
C1709 C1708 1.404 . S
C1709 H1721 0.930 . S
C1710 C1706 1.524 . S
C1710 H1722 0.956 . S
C1710 H1723 0.961 . S
C1710 H1724 0.961 . S
C1711 C1708 1.539 . S
C1711 H1725 0.958 . S
C1711 H1726 0.961 . S
C1711 H1727 0.960 . S
H1712 C1696 0.931 . S
H1713 C1701 0.929 . S
H1714 C1702 0.960 . S
H1715 C1702 0.962 . S
H1716 C1702 0.960 . S
H1717 C1703 0.961 . S
H1718 C1703 0.961 . S
H1719 C1703 0.961 . S
H1720 C1704 0.931 . S
H1721 C1709 0.930 . S
H1722 C1710 0.956 . S
H1723 C1710 0.961 . S
H1724 C1710 0.961 . S
H1725 C1711 0.958 . S
H1726 C1711 0.961 . S
H1727 C1711 0.960 . S
C1728 C1729 1.391 . S
C1728 C1730 1.394 . S
C1728 H1744 0.931 . S
C1729 C1728 1.391 . S
C1729 C1733 1.376 . S
C1730 C1728 1.394 . S
C1730 C1731 1.369 . S
C1730 C1734 1.531 . S
C1731 C1730 1.369 . S
C1731 C1732 1.410 . S
C1731 C1739 1.503 . S
C1732 C1731 1.410 . S
C1732 C1733 1.392 . S
C1732 C1735 1.511 . S
C1733 C1729 1.376 . S
C1733 C1732 1.392 . S
C1733 H1745 0.929 . S
C1734 C1730 1.531 . S
C1734 H1746 0.960 . S
C1734 H1747 0.962 . S
C1734 H1748 0.960 . S
C1735 C1732 1.511 . S
C1735 H1749 0.961 . S
C1735 H1750 0.961 . S
C1735 H1751 0.961 . S
C1736 C1737 1.370 . S
C1736 C1738 1.363 . S
C1736 H1752 0.931 . S
C1737 C1736 1.370 . S
C1737 C1741 1.408 . S
C1738 C1736 1.363 . S
C1738 C1739 1.370 . S
C1738 C1742 1.524 . S
C1739 C1731 1.503 . S
C1739 C1738 1.370 . S
C1739 C1740 1.403 . S
C1740 C1739 1.403 . S
C1740 C1741 1.404 . S
C1740 C1743 1.539 . S
C1741 C1737 1.408 . S
C1741 C1740 1.404 . S
C1741 H1753 0.930 . S
C1742 C1738 1.524 . S
C1742 H1754 0.956 . S
C1742 H1755 0.961 . S
C1742 H1756 0.961 . S
C1743 C1740 1.539 . S
C1743 H1757 0.958 . S
C1743 H1758 0.961 . S
C1743 H1759 0.960 . S
H1744 C1728 0.931 . S
H1745 C1733 0.929 . S
H1746 C1734 0.960 . S
H1747 C1734 0.962 . S
H1748 C1734 0.960 . S
H1749 C1735 0.961 . S
H1750 C1735 0.961 . S
H1751 C1735 0.961 . S
H1752 C1736 0.931 . S
H1753 C1741 0.930 . S
H1754 C1742 0.956 . S
H1755 C1742 0.961 . S
H1756 C1742 0.961 . S
H1757 C1743 0.958 . S
H1758 C1743 0.961 . S
H1759 C1743 0.960 . S
C1760 C1761 1.391 . S
C1760 C1762 1.394 . S
C1760 H1776 0.931 . S
C1761 C1760 1.391 . S
C1761 C1765 1.376 . S
C1762 C1760 1.394 . S
C1762 C1763 1.369 . S
C1762 C1766 1.531 . S
C1763 C1762 1.369 . S
C1763 C1764 1.410 . S
C1763 C1771 1.503 . S
C1764 C1763 1.410 . S
C1764 C1765 1.392 . S
C1764 C1767 1.511 . S
C1765 C1761 1.376 . S
C1765 C1764 1.392 . S
C1765 H1777 0.929 . S
C1766 C1762 1.531 . S
C1766 H1778 0.960 . S
C1766 H1779 0.962 . S
C1766 H1780 0.960 . S
C1767 C1764 1.511 . S
C1767 H1781 0.961 . S
C1767 H1782 0.961 . S
C1767 H1783 0.961 . S
C1768 C1769 1.370 . S
C1768 C1770 1.363 . S
C1768 H1784 0.931 . S
C1769 C1768 1.370 . S
C1769 C1773 1.408 . S
C1770 C1768 1.363 . S
C1770 C1771 1.370 . S
C1770 C1774 1.524 . S
C1771 C1763 1.503 . S
C1771 C1770 1.370 . S
C1771 C1772 1.403 . S
C1772 C1771 1.403 . S
C1772 C1773 1.404 . S
C1772 C1775 1.539 . S
C1773 C1769 1.408 . S
C1773 C1772 1.404 . S
C1773 H1785 0.930 . S
C1774 C1770 1.524 . S
C1774 H1786 0.956 . S
C1774 H1787 0.961 . S
C1774 H1788 0.961 . S
C1775 C1772 1.539 . S
C1775 H1789 0.958 . S
C1775 H1790 0.961 . S
C1775 H1791 0.960 . S
H1776 C1760 0.931 . S
H1777 C1765 0.929 . S
H1778 C1766 0.960 . S
H1779 C1766 0.962 . S
H1780 C1766 0.960 . S
H1781 C1767 0.961 . S
H1782 C1767 0.961 . S
H1783 C1767 0.961 . S
H1784 C1768 0.931 . S
H1785 C1773 0.930 . S
H1786 C1774 0.956 . S
H1787 C1774 0.961 . S
H1788 C1774 0.961 . S
H1789 C1775 0.958 . S
H1790 C1775 0.961 . S
H1791 C1775 0.960 . S
C1792 C1793 1.391 . S
C1792 C1794 1.394 . S
C1792 H1808 0.931 1_655 S
C1793 C1792 1.391 . S
C1793 C1797 1.376 . S
C1794 C1792 1.394 . S
C1794 C1795 1.369 . S
C1794 C1798 1.531 . S
C1795 C1794 1.369 . S
C1795 C1796 1.410 . S
C1795 C1803 1.503 . S
C1796 C1795 1.410 . S
C1796 C1797 1.392 . S
C1796 C1799 1.511 . S
C1797 C1793 1.376 . S
C1797 C1796 1.392 . S
C1797 H1809 0.929 . S
C1798 C1794 1.531 . S
C1798 H1810 0.960 . S
C1798 H1811 0.962 . S
C1798 H1812 0.960 1_655 S
C1799 C1796 1.511 . S
C1799 H1813 0.961 . S
C1799 H1814 0.961 . S
C1799 H1815 0.961 . S
C1800 C1801 1.370 . S
C1800 C1802 1.363 . S
C1800 H1816 0.931 . S
C1801 C1800 1.370 . S
C1801 C1805 1.408 . S
C1802 C1800 1.363 . S
C1802 C1803 1.370 . S
C1802 C1806 1.524 . S
C1803 C1795 1.503 . S
C1803 C1802 1.370 . S
C1803 C1804 1.403 . S
C1804 C1803 1.403 . S
C1804 C1805 1.404 . S
C1804 C1807 1.539 . S
C1805 C1801 1.408 . S
C1805 C1804 1.404 . S
C1805 H1817 0.930 . S
C1806 C1802 1.524 . S
C1806 H1818 0.956 . S
C1806 H1819 0.961 . S
C1806 H1820 0.961 . S
C1807 C1804 1.539 . S
C1807 H1821 0.958 . S
C1807 H1822 0.961 . S
C1807 H1823 0.960 . S
H1808 C1792 0.931 1_455 S
H1809 C1797 0.929 . S
H1810 C1798 0.960 . S
H1811 C1798 0.962 . S
H1812 C1798 0.960 1_455 S
H1813 C1799 0.961 . S
H1814 C1799 0.961 . S
H1815 C1799 0.961 . S
H1816 C1800 0.931 . S
H1817 C1805 0.930 . S
H1818 C1806 0.956 . S
H1819 C1806 0.961 . S
H1820 C1806 0.961 . S
H1821 C1807 0.958 . S
H1822 C1807 0.961 . S
H1823 C1807 0.960 . S
C1824 C1825 1.391 . S
C1824 C1826 1.394 . S
C1824 H1840 0.931 . S
C1825 C1824 1.391 . S
C1825 C1829 1.376 . S
C1826 C1824 1.394 . S
C1826 C1827 1.369 . S
C1826 C1830 1.531 . S
C1827 C1826 1.369 . S
C1827 C1828 1.410 . S
C1827 C1835 1.503 . S
C1828 C1827 1.410 . S
C1828 C1829 1.392 . S
C1828 C1831 1.511 . S
C1829 C1825 1.376 . S
C1829 C1828 1.392 . S
C1829 H1841 0.929 . S
C1830 C1826 1.531 . S
C1830 H1842 0.960 . S
C1830 H1843 0.962 . S
C1830 H1844 0.960 . S
C1831 C1828 1.511 . S
C1831 H1845 0.961 . S
C1831 H1846 0.961 . S
C1831 H1847 0.961 . S
C1832 C1833 1.370 . S
C1832 C1834 1.363 . S
C1832 H1848 0.931 . S
C1833 C1832 1.370 . S
C1833 C1837 1.408 . S
C1834 C1832 1.363 . S
C1834 C1835 1.370 . S
C1834 C1838 1.524 . S
C1835 C1827 1.503 . S
C1835 C1834 1.370 . S
C1835 C1836 1.403 . S
C1836 C1835 1.403 . S
C1836 C1837 1.404 . S
C1836 C1839 1.539 . S
C1837 C1833 1.408 . S
C1837 C1836 1.404 . S
C1837 H1849 0.930 . S
C1838 C1834 1.524 . S
C1838 H1850 0.956 . S
C1838 H1851 0.961 . S
C1838 H1852 0.961 . S
C1839 C1836 1.539 . S
C1839 H1853 0.958 . S
C1839 H1854 0.961 . S
C1839 H1855 0.960 . S
H1840 C1824 0.931 . S
H1841 C1829 0.929 . S
H1842 C1830 0.960 . S
H1843 C1830 0.962 . S
H1844 C1830 0.960 . S
H1845 C1831 0.961 . S
H1846 C1831 0.961 . S
H1847 C1831 0.961 . S
H1848 C1832 0.931 . S
H1849 C1837 0.930 . S
H1850 C1838 0.956 . S
H1851 C1838 0.961 . S
H1852 C1838 0.961 . S
H1853 C1839 0.958 . S
H1854 C1839 0.961 . S
H1855 C1839 0.960 . S
C1856 C1857 1.391 . S
C1856 C1858 1.394 . S
C1856 H1872 0.931 . S
C1857 C1856 1.391 . S
C1857 C1861 1.376 . S
C1858 C1856 1.394 . S
C1858 C1859 1.369 . S
C1858 C1862 1.531 . S
C1859 C1858 1.369 . S
C1859 C1860 1.410 . S
C1859 C1867 1.503 . S
C1860 C1859 1.410 . S
C1860 C1861 1.392 . S
C1860 C1863 1.511 . S
C1861 C1857 1.376 . S
C1861 C1860 1.392 . S
C1861 H1873 0.929 . S
C1862 C1858 1.531 . S
C1862 H1874 0.960 . S
C1862 H1875 0.962 . S
C1862 H1876 0.960 . S
C1863 C1860 1.511 . S
C1863 H1877 0.961 . S
C1863 H1878 0.961 . S
C1863 H1879 0.961 . S
C1864 C1865 1.370 . S
C1864 C1866 1.363 . S
C1864 H1880 0.931 . S
C1865 C1864 1.370 . S
C1865 C1869 1.408 . S
C1866 C1864 1.363 . S
C1866 C1867 1.370 . S
C1866 C1870 1.524 . S
C1867 C1859 1.503 . S
C1867 C1866 1.370 . S
C1867 C1868 1.403 . S
C1868 C1867 1.403 . S
C1868 C1869 1.404 . S
C1868 C1871 1.539 . S
C1869 C1865 1.408 . S
C1869 C1868 1.404 . S
C1869 H1881 0.930 . S
C1870 C1866 1.524 . S
C1870 H1882 0.956 . S
C1870 H1883 0.961 . S
C1870 H1884 0.961 . S
C1871 C1868 1.539 . S
C1871 H1885 0.958 . S
C1871 H1886 0.961 . S
C1871 H1887 0.960 . S
H1872 C1856 0.931 . S
H1873 C1861 0.929 . S
H1874 C1862 0.960 . S
H1875 C1862 0.962 . S
H1876 C1862 0.960 . S
H1877 C1863 0.961 . S
H1878 C1863 0.961 . S
H1879 C1863 0.961 . S
H1880 C1864 0.931 . S
H1881 C1869 0.930 . S
H1882 C1870 0.956 . S
H1883 C1870 0.961 . S
H1884 C1870 0.961 . S
H1885 C1871 0.958 . S
H1886 C1871 0.961 . S
H1887 C1871 0.960 . S
C1888 C1889 1.391 . S
C1888 C1890 1.394 . S
C1888 H1904 0.931 . S
C1889 C1888 1.391 . S
C1889 C1893 1.376 . S
C1890 C1888 1.394 . S
C1890 C1891 1.369 . S
C1890 C1894 1.531 . S
C1891 C1890 1.369 . S
C1891 C1892 1.410 . S
C1891 C1899 1.503 . S
C1892 C1891 1.410 . S
C1892 C1893 1.392 . S
C1892 C1895 1.511 . S
C1893 C1889 1.376 . S
C1893 C1892 1.392 . S
C1893 H1905 0.929 . S
C1894 C1890 1.531 . S
C1894 H1906 0.960 . S
C1894 H1907 0.962 . S
C1894 H1908 0.960 . S
C1895 C1892 1.511 . S
C1895 H1909 0.961 . S
C1895 H1910 0.961 . S
C1895 H1911 0.961 . S
C1896 C1897 1.370 . S
C1896 C1898 1.363 . S
C1896 H1912 0.931 . S
C1897 C1896 1.370 . S
C1897 C1901 1.408 . S
C1898 C1896 1.363 . S
C1898 C1899 1.370 . S
C1898 C1902 1.524 . S
C1899 C1891 1.503 . S
C1899 C1898 1.370 . S
C1899 C1900 1.403 . S
C1900 C1899 1.403 . S
C1900 C1901 1.404 . S
C1900 C1903 1.539 . S
C1901 C1897 1.408 . S
C1901 C1900 1.404 . S
C1901 H1913 0.930 . S
C1902 C1898 1.524 . S
C1902 H1914 0.956 . S
C1902 H1915 0.961 . S
C1902 H1916 0.961 . S
C1903 C1900 1.539 . S
C1903 H1917 0.958 . S
C1903 H1918 0.961 . S
C1903 H1919 0.960 . S
H1904 C1888 0.931 . S
H1905 C1893 0.929 . S
H1906 C1894 0.960 . S
H1907 C1894 0.962 . S
H1908 C1894 0.960 . S
H1909 C1895 0.961 . S
H1910 C1895 0.961 . S
H1911 C1895 0.961 . S
H1912 C1896 0.931 . S
H1913 C1901 0.930 . S
H1914 C1902 0.956 . S
H1915 C1902 0.961 . S
H1916 C1902 0.961 . S
H1917 C1903 0.958 . S
H1918 C1903 0.961 . S
H1919 C1903 0.960 . S
C1920 C1921 1.391 . S
C1920 C1922 1.394 . S
C1920 H1936 0.931 . S
C1921 C1920 1.391 . S
C1921 C1925 1.376 . S
C1922 C1920 1.394 . S
C1922 C1923 1.369 . S
C1922 C1926 1.531 . S
C1923 C1922 1.369 . S
C1923 C1924 1.410 . S
C1923 C1931 1.503 . S
C1924 C1923 1.410 . S
C1924 C1925 1.392 . S
C1924 C1927 1.511 . S
C1925 C1921 1.376 . S
C1925 C1924 1.392 . S
C1925 H1937 0.929 . S
C1926 C1922 1.531 . S
C1926 H1938 0.960 . S
C1926 H1939 0.962 . S
C1926 H1940 0.960 . S
C1927 C1924 1.511 . S
C1927 H1941 0.961 . S
C1927 H1942 0.961 . S
C1927 H1943 0.961 . S
C1928 C1929 1.370 . S
C1928 C1930 1.363 . S
C1928 H1944 0.931 . S
C1929 C1928 1.370 . S
C1929 C1933 1.408 . S
C1930 C1928 1.363 . S
C1930 C1931 1.370 . S
C1930 C1934 1.524 . S
C1931 C1923 1.503 . S
C1931 C1930 1.370 . S
C1931 C1932 1.403 . S
C1932 C1931 1.403 . S
C1932 C1933 1.404 . S
C1932 C1935 1.539 . S
C1933 C1929 1.408 . S
C1933 C1932 1.404 . S
C1933 H1945 0.930 . S
C1934 C1930 1.524 . S
C1934 H1946 0.956 . S
C1934 H1947 0.961 . S
C1934 H1948 0.961 . S
C1935 C1932 1.539 . S
C1935 H1949 0.958 . S
C1935 H1950 0.961 . S
C1935 H1951 0.960 . S
H1936 C1920 0.931 . S
H1937 C1925 0.929 . S
H1938 C1926 0.960 . S
H1939 C1926 0.962 . S
H1940 C1926 0.960 . S
H1941 C1927 0.961 . S
H1942 C1927 0.961 . S
H1943 C1927 0.961 . S
H1944 C1928 0.931 . S
H1945 C1933 0.930 . S
H1946 C1934 0.956 . S
H1947 C1934 0.961 . S
H1948 C1934 0.961 . S
H1949 C1935 0.958 . S
H1950 C1935 0.961 . S
H1951 C1935 0.960 . S
C1952 C1953 1.391 . S
C1952 C1954 1.394 . S
C1952 H1968 0.931 . S
C1953 C1952 1.391 . S
C1953 C1957 1.376 . S
C1954 C1952 1.394 . S
C1954 C1955 1.369 . S
C1954 C1958 1.531 . S
C1955 C1954 1.369 . S
C1955 C1956 1.410 . S
C1955 C1963 1.503 . S
C1956 C1955 1.410 . S
C1956 C1957 1.392 . S
C1956 C1959 1.511 . S
C1957 C1953 1.376 . S
C1957 C1956 1.392 . S
C1957 H1969 0.929 . S
C1958 C1954 1.531 . S
C1958 H1970 0.960 . S
C1958 H1971 0.962 . S
C1958 H1972 0.960 . S
C1959 C1956 1.511 . S
C1959 H1973 0.961 . S
C1959 H1974 0.961 . S
C1959 H1975 0.961 . S
C1960 C1961 1.370 . S
C1960 C1962 1.363 . S
C1960 H1976 0.931 . S
C1961 C1960 1.370 . S
C1961 C1965 1.408 . S
C1962 C1960 1.363 . S
C1962 C1963 1.370 . S
C1962 C1966 1.524 . S
C1963 C1955 1.503 . S
C1963 C1962 1.370 . S
C1963 C1964 1.403 . S
C1964 C1963 1.403 . S
C1964 C1965 1.404 . S
C1964 C1967 1.539 . S
C1965 C1961 1.408 . S
C1965 C1964 1.404 . S
C1965 H1977 0.930 . S
C1966 C1962 1.524 . S
C1966 H1978 0.956 . S
C1966 H1979 0.961 . S
C1966 H1980 0.961 . S
C1967 C1964 1.539 . S
C1967 H1981 0.958 . S
C1967 H1982 0.961 . S
C1967 H1983 0.960 . S
H1968 C1952 0.931 . S
H1969 C1957 0.929 . S
H1970 C1958 0.960 . S
H1971 C1958 0.962 . S
H1972 C1958 0.960 . S
H1973 C1959 0.961 . S
H1974 C1959 0.961 . S
H1975 C1959 0.961 . S
H1976 C1960 0.931 . S
H1977 C1965 0.930 . S
H1978 C1966 0.956 . S
H1979 C1966 0.961 . S
H1980 C1966 0.961 . S
H1981 C1967 0.958 . S
H1982 C1967 0.961 . S
H1983 C1967 0.960 . S
C1984 C1985 1.391 . S
C1984 C1986 1.394 . S
C1984 H2000 0.931 . S
C1985 C1984 1.391 . S
C1985 C1989 1.376 . S
C1986 C1984 1.394 . S
C1986 C1987 1.369 . S
C1986 C1990 1.531 . S
C1987 C1986 1.369 . S
C1987 C1988 1.410 . S
C1987 C1995 1.503 . S
C1988 C1987 1.410 . S
C1988 C1989 1.392 . S
C1988 C1991 1.511 . S
C1989 C1985 1.376 . S
C1989 C1988 1.392 . S
C1989 H2001 0.929 . S
C1990 C1986 1.531 . S
C1990 H2002 0.960 . S
C1990 H2003 0.962 . S
C1990 H2004 0.960 . S
C1991 C1988 1.511 . S
C1991 H2005 0.961 . S
C1991 H2006 0.961 . S
C1991 H2007 0.961 . S
C1992 C1993 1.370 . S
C1992 C1994 1.363 . S
C1992 H2008 0.931 . S
C1993 C1992 1.370 . S
C1993 C1997 1.408 . S
C1994 C1992 1.363 . S
C1994 C1995 1.370 . S
C1994 C1998 1.524 . S
C1995 C1987 1.503 . S
C1995 C1994 1.370 . S
C1995 C1996 1.403 . S
C1996 C1995 1.403 . S
C1996 C1997 1.404 . S
C1996 C1999 1.539 . S
C1997 C1993 1.408 . S
C1997 C1996 1.404 . S
C1997 H2009 0.930 . S
C1998 C1994 1.524 . S
C1998 H2010 0.956 . S
C1998 H2011 0.961 . S
C1998 H2012 0.961 . S
C1999 C1996 1.539 . S
C1999 H2013 0.958 . S
C1999 H2014 0.961 . S
C1999 H2015 0.960 . S
H2000 C1984 0.931 . S
H2001 C1989 0.929 . S
H2002 C1990 0.960 . S
H2003 C1990 0.962 . S
H2004 C1990 0.960 . S
H2005 C1991 0.961 . S
H2006 C1991 0.961 . S
H2007 C1991 0.961 . S
H2008 C1992 0.931 . S
H2009 C1997 0.930 . S
H2010 C1998 0.956 . S
H2011 C1998 0.961 . S
H2012 C1998 0.961 . S
H2013 C1999 0.958 . S
H2014 C1999 0.961 . S
H2015 C1999 0.960 . S
C2016 C2017 1.391 . S
C2016 C2018 1.394 . S
C2016 H2032 0.931 . S
C2017 C2016 1.391 . S
C2017 C2021 1.376 . S
C2018 C2016 1.394 . S
C2018 C2019 1.369 . S
C2018 C2022 1.531 . S
C2019 C2018 1.369 . S
C2019 C2020 1.410 . S
C2019 C2027 1.503 . S
C2020 C2019 1.410 . S
C2020 C2021 1.392 . S
C2020 C2023 1.511 . S
C2021 C2017 1.376 . S
C2021 C2020 1.392 . S
C2021 H2033 0.929 . S
C2022 C2018 1.531 . S
C2022 H2034 0.960 . S
C2022 H2035 0.962 . S
C2022 H2036 0.960 . S
C2023 C2020 1.511 . S
C2023 H2037 0.961 . S
C2023 H2038 0.961 . S
C2023 H2039 0.961 . S
C2024 C2025 1.370 . S
C2024 C2026 1.363 . S
C2024 H2040 0.931 . S
C2025 C2024 1.370 . S
C2025 C2029 1.408 . S
C2026 C2024 1.363 . S
C2026 C2027 1.370 . S
C2026 C2030 1.524 . S
C2027 C2019 1.503 . S
C2027 C2026 1.370 . S
C2027 C2028 1.403 . S
C2028 C2027 1.403 . S
C2028 C2029 1.404 . S
C2028 C2031 1.539 . S
C2029 C2025 1.408 . S
C2029 C2028 1.404 . S
C2029 H2041 0.930 . S
C2030 C2026 1.524 . S
C2030 H2042 0.956 . S
C2030 H2043 0.961 . S
C2030 H2044 0.961 . S
C2031 C2028 1.539 . S
C2031 H2045 0.958 . S
C2031 H2046 0.961 . S
C2031 H2047 0.960 . S
H2032 C2016 0.931 . S
H2033 C2021 0.929 . S
H2034 C2022 0.960 . S
H2035 C2022 0.962 . S
H2036 C2022 0.960 . S
H2037 C2023 0.961 . S
H2038 C2023 0.961 . S
H2039 C2023 0.961 . S
H2040 C2024 0.931 . S
H2041 C2029 0.930 . S
H2042 C2030 0.956 . S
H2043 C2030 0.961 . S
H2044 C2030 0.961 . S
H2045 C2031 0.958 . S
H2046 C2031 0.961 . S
H2047 C2031 0.960 . S
C2048 C2049 1.391 . S
C2048 C2050 1.394 . S
C2048 H2064 0.931 . S
C2049 C2048 1.391 . S
C2049 C2053 1.376 . S
C2050 C2048 1.394 . S
C2050 C2051 1.369 . S
C2050 C2054 1.531 . S
C2051 C2050 1.369 . S
C2051 C2052 1.410 . S
C2051 C2059 1.503 . S
C2052 C2051 1.410 . S
C2052 C2053 1.392 . S
C2052 C2055 1.511 . S
C2053 C2049 1.376 . S
C2053 C2052 1.392 . S
C2053 H2065 0.929 . S
C2054 C2050 1.531 . S
C2054 H2066 0.960 . S
C2054 H2067 0.962 . S
C2054 H2068 0.960 . S
C2055 C2052 1.511 . S
C2055 H2069 0.961 . S
C2055 H2070 0.961 . S
C2055 H2071 0.961 . S
C2056 C2057 1.370 . S
C2056 C2058 1.363 . S
C2056 H2072 0.931 . S
C2057 C2056 1.370 . S
C2057 C2061 1.408 . S
C2058 C2056 1.363 . S
C2058 C2059 1.370 . S
C2058 C2062 1.524 . S
C2059 C2051 1.503 . S
C2059 C2058 1.370 . S
C2059 C2060 1.403 . S
C2060 C2059 1.403 . S
C2060 C2061 1.404 . S
C2060 C2063 1.539 . S
C2061 C2057 1.408 . S
C2061 C2060 1.404 . S
C2061 H2073 0.930 . S
C2062 C2058 1.524 . S
C2062 H2074 0.956 . S
C2062 H2075 0.961 . S
C2062 H2076 0.961 . S
C2063 C2060 1.539 . S
C2063 H2077 0.958 . S
C2063 H2078 0.961 . S
C2063 H2079 0.960 . S
H2064 C2048 0.931 . S
H2065 C2053 0.929 . S
H2066 C2054 0.960 . S
H2067 C2054 0.962 . S
H2068 C2054 0.960 . S
H2069 C2055 0.961 . S
H2070 C2055 0.961 . S
H2071 C2055 0.961 . S
H2072 C2056 0.931 . S
H2073 C2061 0.930 . S
H2074 C2062 0.956 . S
H2075 C2062 0.961 . S
H2076 C2062 0.961 . S
H2077 C2063 0.958 . S
H2078 C2063 0.961 . S
H2079 C2063 0.960 . S
C2080 C2081 1.391 . S
C2080 C2082 1.394 . S
C2080 H2096 0.931 . S
C2081 C2080 1.391 . S
C2081 C2085 1.376 . S
C2082 C2080 1.394 . S
C2082 C2083 1.369 . S
C2082 C2086 1.531 . S
C2083 C2082 1.369 . S
C2083 C2084 1.410 . S
C2083 C2091 1.503 . S
C2084 C2083 1.410 . S
C2084 C2085 1.392 . S
C2084 C2087 1.511 . S
C2085 C2081 1.376 . S
C2085 C2084 1.392 . S
C2085 H2097 0.929 . S
C2086 C2082 1.531 . S
C2086 H2098 0.960 . S
C2086 H2099 0.962 . S
C2086 H2100 0.960 . S
C2087 C2084 1.511 . S
C2087 H2101 0.961 . S
C2087 H2102 0.961 . S
C2087 H2103 0.961 . S
C2088 C2089 1.370 . S
C2088 C2090 1.363 . S
C2088 H2104 0.931 . S
C2089 C2088 1.370 . S
C2089 C2093 1.408 . S
C2090 C2088 1.363 . S
C2090 C2091 1.370 . S
C2090 C2094 1.524 . S
C2091 C2083 1.503 . S
C2091 C2090 1.370 . S
C2091 C2092 1.403 . S
C2092 C2091 1.403 . S
C2092 C2093 1.404 . S
C2092 C2095 1.539 . S
C2093 C2089 1.408 . S
C2093 C2092 1.404 . S
C2093 H2105 0.930 . S
C2094 C2090 1.524 . S
C2094 H2106 0.956 . S
C2094 H2107 0.961 . S
C2094 H2108 0.961 . S
C2095 C2092 1.539 . S
C2095 H2109 0.958 . S
C2095 H2110 0.961 . S
C2095 H2111 0.960 . S
H2096 C2080 0.931 . S
H2097 C2085 0.929 . S
H2098 C2086 0.960 . S
H2099 C2086 0.962 . S
H2100 C2086 0.960 . S
H2101 C2087 0.961 . S
H2102 C2087 0.961 . S
H2103 C2087 0.961 . S
H2104 C2088 0.931 . S
H2105 C2093 0.930 . S
H2106 C2094 0.956 . S
H2107 C2094 0.961 . S
H2108 C2094 0.961 . S
H2109 C2095 0.958 . S
H2110 C2095 0.961 . S
H2111 C2095 0.960 . S
C2112 C2113 1.391 . S
C2112 C2114 1.394 . S
C2112 H2128 0.931 . S
C2113 C2112 1.391 . S
C2113 C2117 1.376 . S
C2114 C2112 1.394 . S
C2114 C2115 1.369 . S
C2114 C2118 1.531 . S
C2115 C2114 1.369 . S
C2115 C2116 1.410 . S
C2115 C2123 1.503 . S
C2116 C2115 1.410 . S
C2116 C2117 1.392 . S
C2116 C2119 1.511 . S
C2117 C2113 1.376 . S
C2117 C2116 1.392 . S
C2117 H2129 0.929 . S
C2118 C2114 1.531 . S
C2118 H2130 0.960 . S
C2118 H2131 0.962 . S
C2118 H2132 0.960 . S
C2119 C2116 1.511 . S
C2119 H2133 0.961 . S
C2119 H2134 0.961 . S
C2119 H2135 0.961 . S
C2120 C2121 1.370 . S
C2120 C2122 1.363 . S
C2120 H2136 0.931 . S
C2121 C2120 1.370 . S
C2121 C2125 1.408 . S
C2122 C2120 1.363 . S
C2122 C2123 1.370 . S
C2122 C2126 1.524 . S
C2123 C2115 1.503 . S
C2123 C2122 1.370 . S
C2123 C2124 1.403 . S
C2124 C2123 1.403 . S
C2124 C2125 1.404 . S
C2124 C2127 1.539 . S
C2125 C2121 1.408 . S
C2125 C2124 1.404 . S
C2125 H2137 0.930 . S
C2126 C2122 1.524 . S
C2126 H2138 0.956 . S
C2126 H2139 0.961 . S
C2126 H2140 0.961 . S
C2127 C2124 1.539 . S
C2127 H2141 0.958 . S
C2127 H2142 0.961 . S
C2127 H2143 0.960 . S
H2128 C2112 0.931 . S
H2129 C2117 0.929 . S
H2130 C2118 0.960 . S
H2131 C2118 0.962 . S
H2132 C2118 0.960 . S
H2133 C2119 0.961 . S
H2134 C2119 0.961 . S
H2135 C2119 0.961 . S
H2136 C2120 0.931 . S
H2137 C2125 0.930 . S
H2138 C2126 0.956 . S
H2139 C2126 0.961 . S
H2140 C2126 0.961 . S
H2141 C2127 0.958 . S
H2142 C2127 0.961 . S
H2143 C2127 0.960 . S
C2144 C2145 1.391 . S
C2144 C2146 1.394 . S
C2144 H2160 0.931 . S
C2145 C2144 1.391 . S
C2145 C2149 1.376 . S
C2146 C2144 1.394 . S
C2146 C2147 1.369 . S
C2146 C2150 1.531 . S
C2147 C2146 1.369 . S
C2147 C2148 1.410 . S
C2147 C2155 1.503 . S
C2148 C2147 1.410 . S
C2148 C2149 1.392 . S
C2148 C2151 1.511 . S
C2149 C2145 1.376 . S
C2149 C2148 1.392 . S
C2149 H2161 0.929 . S
C2150 C2146 1.531 . S
C2150 H2162 0.960 . S
C2150 H2163 0.962 . S
C2150 H2164 0.960 . S
C2151 C2148 1.511 . S
C2151 H2165 0.961 . S
C2151 H2166 0.961 . S
C2151 H2167 0.961 . S
C2152 C2153 1.370 . S
C2152 C2154 1.363 . S
C2152 H2168 0.931 . S
C2153 C2152 1.370 . S
C2153 C2157 1.408 . S
C2154 C2152 1.363 . S
C2154 C2155 1.370 . S
C2154 C2158 1.524 . S
C2155 C2147 1.503 . S
C2155 C2154 1.370 . S
C2155 C2156 1.403 . S
C2156 C2155 1.403 . S
C2156 C2157 1.404 . S
C2156 C2159 1.539 . S
C2157 C2153 1.408 . S
C2157 C2156 1.404 . S
C2157 H2169 0.930 . S
C2158 C2154 1.524 . S
C2158 H2170 0.956 . S
C2158 H2171 0.961 . S
C2158 H2172 0.961 . S
C2159 C2156 1.539 . S
C2159 H2173 0.958 . S
C2159 H2174 0.961 . S
C2159 H2175 0.960 . S
H2160 C2144 0.931 . S
H2161 C2149 0.929 . S
H2162 C2150 0.960 . S
H2163 C2150 0.962 . S
H2164 C2150 0.960 . S
H2165 C2151 0.961 . S
H2166 C2151 0.961 . S
H2167 C2151 0.961 . S
H2168 C2152 0.931 . S
H2169 C2157 0.930 . S
H2170 C2158 0.956 . S
H2171 C2158 0.961 . S
H2172 C2158 0.961 . S
H2173 C2159 0.958 . S
H2174 C2159 0.961 . S
H2175 C2159 0.960 . S
C641 C139 1.228 . S
C649 C9 1.261 . S
C673 C6 1.386 . S
C681 C46 1.355 . S
C705 C98 1.366 . S
C713 C59 1.384 . S
C737 C126 1.133 . S
C745 C90 1.101 . S
C769 C175 1.355 . S
C777 C206 1.304 . S
C801 C209 1.506 . S
C809 C258 1.435 . S
C833 C255 1.075 . S
C841 C290 1.066 . S
C865 C178 1.355 . S
C873 C298 1.369 . S
C897 C379 3.904 . S
C905 C19 3.867 . S
C929 C410 1.262 . S
C937 C49 1.269 . S
C961 C95 1.263 . S
C969 C535 1.268 . S
C993 C330 1.339 . S
C1001 C129 1.300 . S
C1025 C449 1.256 . S
C1033 C170 1.320 . S
C1057 C579 3.870 . S
C1065 C219 3.907 . S
C1089 C250 1.238 . S
C1097 C489 1.265 . S
C1121 C615 1.242 . S
C1129 C295 1.267 . S
C1153 C338 1.374 . S
C1161 C538 1.383 . S
C1185 C366 1.335 . S
C1193 C335 1.343 . S
C1217 C418 1.480 . S
C1225 C369 1.516 . S
C1249 C569 1.246 . S
C1257 C459 1.264 . S
C1281 C499 1.364 . S
C1289 C618 1.383 . S
C1313 C450 1.239 . S
C1321 C18 1.272 . S
C1345 C495 1.387 . S
C1353 C15 1.347 . S
C1377 C490 1.365 . S
C1385 C89 1.383 . S
C1409 C99 1.116 . S
C1417 C455 1.109 . S
C1441 C375 1.307 . S
C1449 C166 1.341 . S
C1473 C378 1.514 . S
C1481 C249 1.464 . S
C1505 C539 1.094 . S
C1513 C246 1.070 . S
C1537 C169 1.384 . S
C1545 C529 1.376 . S
C1569 C210 3.897 . S
C1577 C10 3.871 . S
C1601 C419 1.272 . S
C1609 C498 1.279 . S
C1633 C86 1.266 . S
C1641 C286 1.274 . S
C1665 C339 1.308 . S
C1673 C458 1.276 . S
C1697 C138 1.297 . S
C1705 C179 1.335 . S
C1729 C370 3.900 . S
C1737 C570 3.873 . S
C1761 C259 1.208 . S
C1769 C58 1.266 . S
C1793 C606 1.229 . S
C1801 C526 1.271 . S
C1825 C329 1.387 . S
C1833 C289 1.373 . S
C1857 C326 1.343 . S
C1865 C215 1.311 . S
C1889 C409 1.480 . S
C1897 C218 1.517 . S
C1921 C130 1.251 . S
C1929 C578 1.272 . S
C1953 C50 1.382 . S
C1961 C609 1.377 . S
C1985 C486 1.353 . S
C1993 C566 1.364 . S
C2017 C446 1.082 . S
C2025 C610 1.120 . S
C2049 C415 1.099 . S
C2057 C530 1.074 . S
C2081 C575 1.321 . S
C2089 C55 1.379 . S
C2113 C135 1.065 . S
C2121 C619 1.121 . S
C2145 C299 1.094 . S
C2153 C406 1.069 . S
