# Generated by pormake.
# Topology rkf, (6)-cn, num edge types: 1
# Building blocks:
#     Node 0, Type 0, BuildingBlock: MIFKUJ_clean_sbu_0, # of connection points: 6
#     Node 1, Type 0, BuildingBlock: MIFKUJ_clean_sbu_0, # of connection points: 6
#     Node 2, Type 0, BuildingBlock: MIFKUJ_clean_sbu_0, # of connection points: 6
#     Node 3, Type 0, BuildingBlock: MIFKUJ_clean_sbu_0, # of connection points: 6
#     Node 4, Type 0, BuildingBlock: MIFKUJ_clean_sbu_0, # of connection points: 6
#     Node 5, Type 0, BuildingBlock: MIFKUJ_clean_sbu_0, # of connection points: 6
#     Edge 6, Type (0, 0), BuildingBlock: EZIPEK_clean_linker_0, # of connection points: 2
#     Edge 7, Type (0, 0), BuildingBlock: EZIPEK_clean_linker_0, # of connection points: 2
#     Edge 8, Type (0, 0), BuildingBlock: EZIPEK_clean_linker_0, # of connection points: 2
#     Edge 9, Type (0, 0), BuildingBlock: EZIPEK_clean_linker_0, # of connection points: 2
#     Edge 10, Type (0, 0), BuildingBlock: EZIPEK_clean_linker_0, # of connection points: 2
#     Edge 11, Type (0, 0), BuildingBlock: EZIPEK_clean_linker_0, # of connection points: 2
#     Edge 12, Type (0, 0), BuildingBlock: EZIPEK_clean_linker_0, # of connection points: 2
#     Edge 13, Type (0, 0), BuildingBlock: EZIPEK_clean_linker_0, # of connection points: 2
#     Edge 14, Type (0, 0), BuildingBlock: EZIPEK_clean_linker_0, # of connection points: 2
#     Edge 15, Type (0, 0), BuildingBlock: EZIPEK_clean_linker_0, # of connection points: 2
#     Edge 16, Type (0, 0), BuildingBlock: EZIPEK_clean_linker_0, # of connection points: 2
#     Edge 17, Type (0, 0), BuildingBlock: EZIPEK_clean_linker_0, # of connection points: 2
#     Edge 18, Type (0, 0), BuildingBlock: EZIPEK_clean_linker_0, # of connection points: 2
#     Edge 19, Type (0, 0), BuildingBlock: EZIPEK_clean_linker_0, # of connection points: 2
#     Edge 20, Type (0, 0), BuildingBlock: EZIPEK_clean_linker_0, # of connection points: 2
#     Edge 21, Type (0, 0), BuildingBlock: EZIPEK_clean_linker_0, # of connection points: 2
#     Edge 22, Type (0, 0), BuildingBlock: EZIPEK_clean_linker_0, # of connection points: 2
#     Edge 23, Type (0, 0), BuildingBlock: EZIPEK_clean_linker_0, # of connection points: 2
# Relax obj value: 0.328
# Max RMSD: 0.300
# Mean RMSD: 0.300
data_MOF--net-rkf--node1-MIFKUJ_clean_sbu_0--edge1-EZIPEK_clean_linker_0
_symmetry_space_group_name_H-M    P1
_symmetry_Int_Tables_number       1
_symmetry_cell_setting            triclinic
loop_
_symmetry_equiv_pos_as_xyz
'x, y, z'
_cell_length_a     16.478397
_cell_length_b     16.348447
_cell_length_c     34.929931
_cell_angle_alpha  90.143148
_cell_angle_beta   90.937144
_cell_angle_gamma 119.66041
loop_
_atom_site_label
_atom_site_type_symbol
_atom_site_fract_x
_atom_site_fract_y
_atom_site_fract_z
_atom_type_partial_charge
Zn0 Zn 0.27873 0.11469 0.983 0.0
Zn1 Zn 0.37482 0.08189 0.08982 0.0
C2 C 0.09035 0.94927 0.96752 0.0
O3 O 0.006 0.88601 0.97773 0.0
C4 C 0.56682 0.21178 0.12618 0.0
O5 O 0.52642 0.14832 0.09935 0.0
O6 O 0.27569 0.19497 0.93814 0.0
O7 O 0.34105 0.18672 0.03334 0.0
O8 O 0.33101 0.17863 0.09559 0.0
C9 C 0.20138 0.20015 0.93433 0.0
O10 O 0.13955 0.16426 0.96144 0.0
O11 O 0.1466 0.00811 0.99237 0.0
C12 C 0.30516 0.89715 0.1255 0.0
O13 O 0.35232 0.88288 0.09892 0.0
O14 O 0.30437 0.97456 0.12672 0.0
O15 O 0.33441 0.03408 0.03471 0.0
O16 O 0.36199 0.0575 0.9737 0.0
O17 O 0.52269 0.14863 0.10016 0.0
C18 C 0.30756 0.19961 0.06372 0.0
C19 C 0.38242 0.03653 1.00624 0.0
Zn20 Zn 0.29883 0.21931 0.41813 0.0
Zn21 Zn 0.27647 0.30521 0.30279 0.0
C22 C 0.24819 0.24685 0.48862 0.0
O23 O 0.3369 0.27288 0.49351 0.0
C24 C 0.34968 0.2876 0.23418 0.0
O25 O 0.26094 0.25316 0.2251 0.0
O26 O 0.34057 0.13541 0.44604 0.0
O27 O 0.241 0.17166 0.36578 0.0
O28 O 0.19789 0.16373 0.30541 0.0
C29 C 0.2834 0.04778 0.44915 0.0
O30 O 0.2072 0.01094 0.42757 0.0
O31 O 0.21205 0.22728 0.45508 0.0
C32 C 0.22351 0.43381 0.26388 0.0
O33 O 0.30959 0.50143 0.27064 0.0
O34 O 0.1961 0.35216 0.27723 0.0
O35 O 0.31607 0.34423 0.35842 0.0
O36 O 0.40518 0.34815 0.40649 0.0
O37 O 0.37915 0.32258 0.26749 0.0
C38 C 0.19818 0.1233 0.3364 0.0
C39 C 0.39675 0.37889 0.374 0.0
Zn40 Zn 0.81918 0.09354 0.63801 0.0
Zn41 Zn 0.83453 0.14444 0.75817 0.0
C42 C 0.98441 0.1684 0.60317 0.0
O43 O 0.93696 0.20354 0.58619 0.0
C44 C 0.67221 0.12527 0.79712 0.0
O45 O 0.62757 0.04665 0.77716 0.0
O46 O 0.75174 0.01502 0.58901 0.0
O47 O 0.75772 0.03667 0.68854 0.0
O48 O 0.77182 0.0034 0.74759 0.0
C49 C 0.76674 0.94601 0.58406 0.0
O50 O 0.80962 0.92662 0.61146 0.0
O51 O 0.94882 0.11402 0.63146 0.0
C52 C 0.00502 0.25278 0.80759 0.0
O53 O -0.0083 0.32484 0.80223 0.0
O54 O 0.95307 0.17578 0.78968 0.0
O55 O 0.85055 0.20444 0.70586 0.0
O56 O 0.85019 0.23096 0.64422 0.0
O57 O 0.75878 0.17811 0.79166 0.0
C58 C 0.76775 0.98358 0.71215 0.0
C59 C 0.87041 0.26204 0.67869 0.0
Zn60 Zn 0.89328 0.17697 0.09698 0.0
Zn61 Zn 0.8073 0.05503 0.98779 0.0
C62 C 0.91353 0.07465 0.15626 0.0
O63 O 0.88424 0.12573 0.17404 0.0
C64 C 0.7319 0.1581 0.94381 0.0
O65 O 0.81085 0.23441 0.95273 0.0
O66 O 0.96729 0.30025 0.12642 0.0
O67 O 0.91591 0.19874 0.04078 0.0
O68 O 0.94466 0.16024 0.9857 0.0
C69 C 0.94381 0.33288 0.15464 0.0
O70 O 0.85699 0.28568 0.16593 0.0
O71 O 0.92525 0.08307 0.12027 0.0
C72 C 0.75925 0.9 0.93324 0.0
O73 O 0.68801 0.91201 0.92463 0.0
O74 O 0.81205 0.9444 0.96188 0.0
O75 O 0.77575 0.04373 0.04553 0.0
O76 O 0.75247 0.11457 0.09428 0.0
O77 O 0.71964 0.08 0.95612 0.0
C78 C 0.9747 0.19821 1.01848 0.0
C79 C 0.72197 0.06542 0.06341 0.0
Zn80 Zn 0.95076 0.67234 0.29746 0.0
Zn81 Zn 0.86347 0.63942 0.41617 0.0
C82 C 0.93795 0.78968 0.24443 0.0
O83 O 0.89627 0.70664 0.22754 0.0
C84 C 0.89545 0.50915 0.46243 0.0
O85 O 0.98043 0.55699 0.44918 0.0
O86 O 0.01548 0.63386 0.25797 0.0
O87 O -0.01301 0.66916 0.35265 0.0
O88 O 0.00251 0.72517 0.4106 0.0
C89 C 0.09713 0.70033 0.25094 0.0
O90 O 0.13351 0.77468 0.27352 0.0
O91 O 0.96967 0.79747 0.27853 0.0
C92 C 0.74352 0.70718 0.45689 0.0
O93 O 0.66819 0.63212 0.44382 0.0
O94 O 0.82371 0.72205 0.44685 0.0
O95 O 0.81139 0.60048 0.36065 0.0
O96 O 0.81136 0.58848 0.29743 0.0
O97 O 0.83475 0.52956 0.45011 0.0
C98 C 0.027 0.73802 0.37588 0.0
C99 C 0.7674 0.57111 0.32877 0.0
Zn100 Zn 0.02818 0.77377 0.76174 0.0
Zn101 Zn 0.07297 0.71737 0.64526 0.0
C102 C 0.16514 0.88577 0.81532 0.0
O103 O 0.1685 0.80745 0.81894 0.0
C104 C 0.92635 0.54298 0.61147 0.0
O105 O 0.87329 0.57595 0.62396 0.0
O106 O 0.91327 0.74637 0.79293 0.0
O107 O 0.00103 0.77859 0.70599 0.0
O108 O 0.98347 0.76946 0.64391 0.0
C109 C 0.91146 0.73871 0.82926 0.0
O110 O 0.98162 0.73605 0.84637 0.0
O111 O 0.12777 0.89512 0.78491 0.0
C112 C 0.14745 0.81079 0.57693 0.0
O113 O 0.05818 0.75688 0.56867 0.0
O114 O 0.17774 0.8068 0.61038 0.0
O115 O 0.10835 0.71738 0.70241 0.0
O116 O 0.0588 0.66763 0.76044 0.0
O117 O 0.01322 0.58963 0.61957 0.0
C118 C 0.96672 0.79333 0.67612 0.0
C119 C 0.07319 0.65013 0.7263 0.0
C120 C 0.05396 0.11471 0.04574 0.0
C121 C 0.05788 0.20041 0.03518 0.0
C122 C 0.22416 0.28867 0.05136 0.0
C123 C 0.22054 0.20276 0.06083 0.0
N124 N 0.12989 0.03854 0.07747 0.0
N125 N 0.13768 0.36996 0.03756 0.0
C126 C 0.13451 0.11733 0.06177 0.0
C127 C 0.14015 0.28799 0.04131 0.0
N128 N 0.97447 0.03047 0.03906 0.0
N129 N 0.30831 0.37008 0.05083 0.0
H130 H 0.07726 0.37154 0.02941 0.0
H131 H 0.19323 0.43578 0.04526 0.0
H132 H 0.37053 0.37358 0.06008 0.0
H133 H 0.31721 0.43297 0.03971 0.0
H134 H 0.97088 0.9654 0.04179 0.0
H135 H 0.91268 0.02491 0.02845 0.0
H136 H 0.06735 0.97777 0.08323 0.0
H137 H 0.18795 0.03561 0.08782 0.0
C138 C 0.16018 0.87933 0.34762 0.0
C139 C 0.06763 0.83391 0.36113 0.0
C140 C 0.05678 0.9764 0.35215 0.0
C141 C 0.14897 0.02148 0.33891 0.0
N142 N 0.28442 0.01663 0.31717 0.0
N143 N 0.9204 0.83143 0.36798 0.0
C144 C 0.19932 0.97283 0.33422 0.0
C145 C 0.01367 0.88009 0.36094 0.0
N146 N 0.2113 0.83414 0.34897 0.0
N147 N 0.01204 0.02692 0.35809 0.0
H148 H 0.88634 0.76204 0.37647 0.0
H149 H 0.8753 0.85759 0.36237 0.0
H150 H 0.03951 0.09692 0.34992 0.0
H151 H 0.95021 0.0014 0.3731 0.0
H152 H 0.28223 0.86639 0.34326 0.0
H153 H 0.18364 0.76459 0.35778 0.0
H154 H 0.32115 0.98273 0.30947 0.0
H155 H 0.31555 0.0862 0.30805 0.0
C156 C 0.96336 0.93982 0.68495 0.0
C157 C 0.91306 0.84147 0.67922 0.0
C158 C 0.76554 0.83784 0.69007 0.0
C159 C 0.81706 0.93467 0.70004 0.0
N160 N 0.96538 0.07622 0.71194 0.0
N161 N 0.76923 0.69324 0.6789 0.0
C162 C 0.91612 0.98532 0.69889 0.0
C163 C 0.81471 0.78919 0.68221 0.0
N164 N 0.05611 0.98986 0.6763 0.0
N165 N 0.6702 0.7933 0.68759 0.0
H166 H 0.80341 0.65603 0.67204 0.0
H167 H 0.699 0.65019 0.68505 0.0
H168 H 0.63221 0.82699 0.69391 0.0
H169 H 0.62913 0.72534 0.67666 0.0
H170 H 0.09402 0.06311 0.67578 0.0
H171 H 0.09311 0.95835 0.6658 0.0
H172 H 0.03742 0.11189 0.71667 0.0
H173 H 0.93396 0.11486 0.72005 0.0
C174 C 0.19079 0.21845 0.8613 0.0
C175 C 0.17768 0.23954 0.89966 0.0
C176 C 0.05973 0.27891 0.87676 0.0
C177 C 0.0702 0.25588 0.83862 0.0
N178 N 0.16215 0.22798 0.79314 0.0
N179 N 0.13195 0.3291 0.93964 0.0
C180 C 0.14115 0.2333 0.83044 0.0
C181 C 0.12275 0.28287 0.90583 0.0
N182 N 0.24758 0.18162 0.85411 0.0
N183 N -0.01404 0.29082 0.8861 0.0
H184 H 0.18167 0.33743 0.96049 0.0
H185 H 0.0991 0.36844 0.94481 0.0
H186 H 0.93436 0.28341 0.86649 0.0
H187 H 0.9708 0.29855 0.91427 0.0
H188 H 0.25081 0.15428 0.82761 0.0
H189 H 0.2899 0.17477 0.87468 0.0
H190 H 0.21867 0.2208 0.78481 0.0
H191 H 0.12781 0.23948 0.7702 0.0
C192 C 0.184 0.45776 0.19637 0.0
C193 C 0.1616 0.44617 0.23589 0.0
C194 C 0.00261 0.41349 0.21949 0.0
C195 C 0.01998 0.40366 0.18065 0.0
N196 N 0.13468 0.47057 0.1318 0.0
N197 N 0.05609 0.42988 0.28592 0.0
C198 C 0.11366 0.44418 0.16898 0.0
C199 C 0.07313 0.43101 0.24773 0.0
N200 N 0.26911 0.47318 0.18464 0.0
N201 N 0.92108 0.41053 0.22876 0.0
H202 H 0.10838 0.44787 0.30683 0.0
H203 H -0.00939 0.40944 0.29697 0.0
H204 H 0.87444 0.40861 0.20773 0.0
H205 H 0.90484 0.42146 0.25627 0.0
H206 H 0.28427 0.46967 0.15605 0.0
H207 H 0.32318 0.48381 0.20345 0.0
H208 H 0.20269 0.50726 0.12185 0.0
H209 H 0.08379 0.46536 0.11216 0.0
C210 C 0.79053 0.92807 0.51353 0.0
C211 C 0.74219 0.88841 0.54793 0.0
C212 C 0.69181 0.72965 0.52223 0.0
C213 C 0.73669 0.76886 0.48711 0.0
N214 N 0.81046 0.9042 0.44643 0.0
N215 N 0.62836 0.75199 0.58108 0.0
C216 C 0.78036 0.86783 0.48189 0.0
C217 C 0.68648 0.78924 0.55078 0.0
N218 N 0.85037 0.02275 0.51166 0.0
N219 N 0.66031 0.63675 0.52972 0.0
H220 H 0.62253 0.79405 0.60218 0.0
H221 H 0.5794 0.68075 0.58315 0.0
H222 H 0.66609 0.59095 0.51062 0.0
H223 H 0.6368 0.60706 0.55645 0.0
H224 H 0.89726 0.05417 0.48957 0.0
H225 H 0.85735 0.06945 0.53346 0.0
H226 H 0.83508 0.97461 0.43984 0.0
H227 H 0.80215 0.86198 0.42261 0.0
C228 C 0.79698 0.87197 0.86655 0.0
C229 C 0.78646 0.84763 0.90592 0.0
C230 C 0.83295 0.72873 0.89244 0.0
C231 C 0.84544 0.7555 0.8532 0.0
N232 N 0.79071 0.81652 0.80194 0.0
N233 N 0.7751 0.73949 0.95498 0.0
C234 C 0.8121 0.8156 0.83981 0.0
C235 C 0.79889 0.77195 0.91854 0.0
N236 N 0.79827 0.95222 0.85465 0.0
N237 N 0.85197 0.66042 0.90444 0.0
H238 H 0.74895 0.76877 0.97442 0.0
H239 H 0.77474 0.67974 0.96535 0.0
H240 H 0.8617 0.6172 0.88521 0.0
H241 H 0.85792 0.64629 0.93306 0.0
H242 H 0.81562 0.97758 0.8269 0.0
H243 H 0.79319 -0.00066 0.87328 0.0
H244 H 0.76074 0.85541 0.79154 0.0
H245 H 0.78745 0.76707 0.78222 0.0
C246 C 0.09831 0.70899 0.17948 0.0
C247 C 0.14414 0.70823 0.21398 0.0
C248 C 0.29584 0.80196 0.18347 0.0
C249 C 0.24991 0.82215 0.15326 0.0
N250 N 0.10707 0.79193 0.1209 0.0
N251 N 0.28417 0.73617 0.24704 0.0
C252 C 0.15089 0.77379 0.15052 0.0
C253 C 0.24249 0.7477 0.21496 0.0
N254 N 0.0053 0.64719 0.17422 0.0
N255 N 0.39016 0.83654 0.18244 0.0
H256 H 0.24498 0.69158 0.26903 0.0
H257 H 0.35592 0.7708 0.25226 0.0
H258 H 0.43134 0.8789 0.16041 0.0
H259 H 0.42722 0.81909 0.20201 0.0
H260 H 0.96917 0.64008 0.14858 0.0
H261 H 0.96709 0.59462 0.1938 0.0
H262 H 0.03564 0.76835 0.12005 0.0
H263 H 0.14305 0.83506 0.09808 0.0
C264 C 0.25654 0.97308 0.55147 0.0
C265 C 0.20951 0.87373 0.54667 0.0
C266 C 0.24664 0.89281 0.47823 0.0
C267 C 0.28692 -0.00823 0.48265 0.0
N268 N 0.37201 0.12299 0.5263 0.0
N269 N 0.1817 0.73938 0.50831 0.0
C270 C 0.30561 0.03125 0.52018 0.0
C271 C 0.21201 0.8337 0.51085 0.0
N272 N 0.24968 0.0125 0.58492 0.0
N273 N 0.24119 0.85613 0.44254 0.0
H274 H 0.15812 0.69532 0.53198 0.0
H275 H 0.18635 0.70573 0.48382 0.0
H276 H 0.27577 0.8993 0.41953 0.0
H277 H 0.20311 0.78474 0.43567 0.0
H278 H 0.2727 0.08418 0.58796 0.0
H279 H 0.21427 0.97296 0.60858 0.0
H280 H 0.39176 0.15342 0.55354 0.0
H281 H 0.41712 0.16398 0.50498 0.0
C282 C 0.55524 0.13236 1.01546 0.0
C283 C 0.4734 0.04273 1.01318 0.0
C284 C 0.55711 0.96743 0.04062 0.0
C285 C 0.63832 0.05716 0.04399 0.0
N286 N 0.72119 0.22318 0.02998 0.0
N287 N 0.39922 0.87386 1.01507 0.0
C288 C 0.63946 0.13909 0.0298 0.0
C289 C 0.47536 0.95982 0.0231 0.0
N290 N 0.55073 0.21147 1.00644 0.0
N291 N 0.55685 0.8904 0.05601 0.0
H292 H 0.33784 0.86638 1.00275 0.0
H293 H 0.39885 0.8103 1.01777 0.0
H294 H 0.61601 0.89288 0.06846 0.0
H295 H 0.49697 0.82514 0.05874 0.0
H296 H 0.60382 0.27976 1.01241 0.0
H297 H 0.49148 0.20954 0.99451 0.0
H298 H 0.72958 0.28336 1.01641 0.0
H299 H 0.78362 0.23181 0.04143 0.0
C300 C 0.52441 0.52481 0.34718 0.0
C301 C 0.48017 0.42609 0.35068 0.0
C302 C 0.61498 0.42411 0.32372 0.0
C303 C 0.66546 0.52294 0.32835 0.0
N304 N 0.67054 0.67061 0.34048 0.0
N305 N 0.47704 0.27861 0.34006 0.0
C306 C 0.62036 0.57454 0.33823 0.0
C307 C 0.52292 0.3745 0.33752 0.0
N308 N 0.47474 0.57023 0.35295 0.0
N309 N 0.65575 0.37819 0.30691 0.0
H310 H 0.40788 0.23997 0.34837 0.0
H311 H 0.50803 0.23743 0.33542 0.0
H312 H 0.72424 0.41305 0.29734 0.0
H313 H 0.61976 0.30704 0.29946 0.0
H314 H 0.50083 0.64162 0.34807 0.0
H315 H 0.40399 0.53431 0.35958 0.0
H316 H 0.64523 0.7122 0.35199 0.0
H317 H 0.73965 0.70892 0.33179 0.0
C318 C 0.87321 0.41263 0.69289 0.0
C319 C 0.92227 0.3632 0.68745 0.0
C320 C 0.07058 0.50483 0.70298 0.0
C321 C 0.02095 0.55212 0.7121 0.0
N322 N 0.87349 0.54835 0.72071 0.0
N323 N 0.06394 0.35479 0.69485 0.0
C324 C 0.92168 0.50532 0.70851 0.0
C325 C 0.01999 0.40714 0.69453 0.0
N326 N 0.78045 0.37091 0.68303 0.0
N327 N 0.166 0.55316 0.70225 0.0
H328 H 0.03008 0.28322 0.68784 0.0
H329 H 0.13259 0.38087 0.70452 0.0
H330 H 0.20585 0.62445 0.70944 0.0
H331 H 0.20519 0.52436 0.69159 0.0
H332 H 0.74237 0.40615 0.68282 0.0
H333 H 0.74279 0.30237 0.67209 0.0
H334 H 0.80116 0.51403 0.72292 0.0
H335 H 0.90557 0.61687 0.73139 0.0
C336 C 0.52554 0.32388 0.15754 0.0
C337 C 0.51369 0.23193 0.15486 0.0
C338 C 0.39544 0.17733 0.20444 0.0
C339 C 0.40959 0.27007 0.20822 0.0
N340 N 0.49788 0.43499 0.19348 0.0
N341 N 0.45878 0.07961 0.18323 0.0
C342 C 0.47805 0.34459 0.18641 0.0
C343 C 0.45456 0.16083 0.18039 0.0
N344 N 0.57955 0.39035 0.13156 0.0
N345 N 0.32496 0.10461 0.22354 0.0
H346 H 0.5031 0.06594 0.16679 0.0
H347 H 0.42502 0.0297 0.20431 0.0
H348 H 0.28194 0.11372 0.24257 0.0
H349 H 0.30498 0.03422 0.21856 0.0
H350 H 0.5829 0.45538 0.12911 0.0
H351 H 0.61655 0.37807 0.11048 0.0
H352 H 0.55355 0.4937 0.18144 0.0
H353 H 0.46263 0.45205 0.21373 0.0
C354 C 0.20327 0.30024 0.54776 0.0
C355 C 0.18918 0.22605 0.5225 0.0
C356 C 0.072 0.11102 0.56515 0.0
C357 C 0.07206 0.18572 0.58546 0.0
N358 N 0.14293 0.35058 0.6003 0.0
N359 N 0.10833 0.05978 0.50633 0.0
C360 C 0.14072 0.28021 0.5784 0.0
C361 C 0.12359 0.13098 0.53112 0.0
N362 N 0.27467 0.38969 0.54186 0.0
N363 N 0.02311 0.02129 0.57846 0.0
H364 H 0.14596 0.07048 0.48154 0.0
H365 H 0.05361 0.99099 0.50882 0.0
H366 H -0.01189 0.00562 0.60422 0.0
H367 H 0.02686 0.96465 0.56673 0.0
H368 H 0.29461 0.44514 0.56123 0.0
H369 H 0.31779 0.40815 0.5182 0.0
H370 H 0.18399 0.42199 0.59476 0.0
H371 H 0.10048 0.33629 0.62395 0.0
C372 C 0.68095 0.23107 0.85033 0.0
C373 C 0.63452 0.14007 0.83333 0.0
C374 C 0.59724 0.07104 0.89686 0.0
C375 C 0.67023 0.15796 0.91184 0.0
N376 N 0.74129 0.32682 0.90741 0.0
N377 N 0.51144 0.98018 0.84012 0.0
C378 C 0.69779 0.24023 0.89021 0.0
C379 C 0.57892 0.06195 0.85662 0.0
N380 N 0.71349 0.30964 0.82864 0.0
N381 N 0.5465 -0.00093 0.92119 0.0
H382 H 0.48884 0.97781 0.81186 0.0
H383 H 0.4742 0.91699 0.85447 0.0
H384 H 0.55444 0.00881 0.95075 0.0
H385 H 0.49381 0.93252 0.91276 0.0
H386 H 0.70187 0.3071 0.79906 0.0
H387 H 0.70187 0.3071 0.79906 0.0
H388 H 0.76507 0.38883 0.89191 0.0
H389 H 0.74652 0.33487 0.93717 0.0
C390 C 0.84171 0.93118 0.19667 0.0
C391 C 0.92158 0.00109 0.17782 0.0
C392 C 0.01479 0.93361 0.20353 0.0
C393 C 0.93677 0.86908 0.22489 0.0
N394 N 0.781 0.81561 0.24705 0.0
N395 N 0.08737 0.07791 0.16702 0.0
C396 C 0.8518 0.87091 0.22309 0.0
C397 C 0.00914 0.00473 0.18212 0.0
N398 N 0.75528 0.91928 0.18784 0.0
N399 N 0.0932 0.92519 0.20284 0.0
H400 H 0.08581 0.13093 0.15103 0.0
H401 H 0.15469 0.0898 0.1725 0.0
H402 H 0.10148 0.87724 0.21973 0.0
H403 H 0.14721 0.96131 0.1838 0.0
H404 H 0.69335 0.86334 0.19764 0.0
H405 H 0.74438 0.95978 0.16756 0.0
H406 H 0.72106 0.82102 0.25004 0.0
H407 H 0.78586 0.76993 0.26656 0.0
C408 C 0.95324 0.4532 0.51838 0.0
C409 C 0.87896 0.45742 0.49936 0.0
C410 C 0.80512 0.44476 0.56088 0.0
C411 C 0.89325 0.47372 0.5788 0.0
N412 N 0.02743 0.45075 0.57744 0.0
N413 N 0.71348 0.39906 0.5012 0.0
C414 C 0.95889 0.45883 0.55873 0.0
C415 C 0.79717 0.43356 0.52026 0.0
N416 N 0.01816 0.44373 0.49814 0.0
N417 N 0.73107 0.42974 0.5826 0.0
H418 H 0.70696 0.38279 0.47198 0.0
H419 H 0.65023 0.37858 0.51437 0.0
H420 H 0.73405 0.42696 0.61239 0.0
H421 H 0.66715 0.41785 0.57147 0.0
H422 H 0.07512 0.44304 0.51138 0.0
H423 H 0.01087 0.43108 0.46863 0.0
H424 H 0.0316 0.4484 0.60725 0.0
H425 H 0.0316 0.4484 0.60725 0.0
C426 C 0.22024 0.92997 0.88252 0.0
C427 C 0.16863 0.93757 0.85141 0.0
C428 C 0.07822 0.97454 0.89705 0.0
C429 C 0.11934 0.94945 0.92759 0.0
N430 N 0.21493 0.88352 0.94819 0.0
N431 N 0.06159 0.9888 0.82858 0.0
C432 C 0.18735 0.92307 0.92013 0.0
C433 C 0.10189 0.96726 0.85847 0.0
N434 N 0.30091 0.92874 0.87582 0.0
N435 N 0.01796 0.00685 0.90509 0.0
H436 H 0.09189 0.00729 0.8018 0.0
H437 H 0.0017 -0.00549 0.83067 0.0
H438 H -0.00336 0.00958 0.93278 0.0
H439 H -0.0072 0.03611 0.88502 0.0
H440 H 0.34564 0.93097 0.89775 0.0
H441 H 0.3273 0.9365 0.84828 0.0
H442 H 0.25572 0.85251 0.9427 0.0
H443 H 0.19078 0.87465 0.97614 0.0
loop_
_geom_bond_atom_site_label_1
_geom_bond_atom_site_label_2
_geom_bond_distance
_geom_bond_site_symmetry_2
_ccdc_geom_bond_type
Zn0 O6 1.969 . S
Zn0 O7 1.965 . S
Zn0 O11 2.024 1_545 S
Zn0 O16 1.969 . S
Zn1 O8 1.969 . S
Zn1 O14 1.969 1_545 S
Zn1 O15 1.965 1_545 S
Zn1 O17 2.024 . S
C2 O3 1.229 . S
C2 O11 1.058 . S
O3 C2 1.229 . S
C4 O5 1.229 . S
C4 O17 1.058 . S
O5 C4 1.229 . S
O6 Zn0 1.969 . S
O6 C9 1.267 . S
O7 Zn0 1.965 . S
O7 C18 1.260 1_556 S
O8 Zn1 1.969 . S
O8 C18 1.258 . S
C9 O6 1.267 . S
C9 O10 1.228 . S
O10 C9 1.228 . S
O11 Zn0 2.024 1_565 S
O11 C2 1.058 . S
C12 O13 1.228 . S
C12 O14 1.267 . S
O13 C12 1.228 . S
O14 Zn1 1.969 1_565 S
O14 C12 1.267 . S
O15 Zn1 1.965 1_565 S
O15 C19 1.260 1_565 S
O16 Zn0 1.969 . S
O16 C19 1.258 1_556 S
O17 Zn1 2.024 . S
O17 C4 1.058 . S
C18 O7 1.260 1_554 S
C18 O8 1.258 . S
C19 O15 1.260 1_545 S
C19 O16 1.258 1_554 S
Zn20 O26 1.969 . S
Zn20 O27 1.965 . S
Zn20 O31 2.024 . S
Zn20 O36 1.969 . S
Zn21 O28 1.969 . S
Zn21 O34 1.969 . S
Zn21 O35 1.965 . S
Zn21 O37 2.024 . S
C22 O23 1.229 . S
C22 O31 1.058 . S
O23 C22 1.229 . S
C24 O25 1.229 . S
C24 O37 1.058 . S
O25 C24 1.229 . S
O26 Zn20 1.969 . S
O26 C29 1.267 . S
O27 Zn20 1.965 . S
O27 C38 1.260 . S
O28 Zn21 1.969 . S
O28 C38 1.258 . S
C29 O26 1.267 . S
C29 O30 1.228 . S
O30 C29 1.228 . S
O31 Zn20 2.024 . S
O31 C22 1.058 . S
C32 O33 1.228 . S
C32 O34 1.267 . S
O33 C32 1.228 . S
O34 Zn21 1.969 . S
O34 C32 1.267 . S
O35 Zn21 1.965 . S
O35 C39 1.260 . S
O36 Zn20 1.969 . S
O36 C39 1.258 . S
O37 Zn21 2.024 . S
O37 C24 1.058 . S
C38 O27 1.260 . S
C38 O28 1.258 . S
C39 O35 1.260 . S
C39 O36 1.258 . S
Zn40 O46 1.969 . S
Zn40 O47 1.965 . S
Zn40 O51 2.024 1_655 S
Zn40 O56 1.969 1_655 S
Zn41 O48 1.969 . S
Zn41 O54 1.969 . S
Zn41 O55 1.965 . S
Zn41 O57 2.024 1_455 S
C42 O43 1.229 . S
C42 O51 1.058 . S
O43 C42 1.229 . S
C44 O45 1.229 . S
C44 O57 1.058 . S
O45 C44 1.229 . S
O46 Zn40 1.969 . S
O46 C49 1.267 . S
O47 Zn40 1.965 . S
O47 C58 1.260 . S
O48 Zn41 1.969 . S
O48 C58 1.258 1_455 S
C49 O46 1.267 . S
C49 O50 1.228 . S
O50 C49 1.228 . S
O51 Zn40 2.024 1_455 S
O51 C42 1.058 . S
C52 O53 1.228 . S
C52 O54 1.267 . S
O53 C52 1.228 . S
O54 Zn41 1.969 . S
O54 C52 1.267 . S
O55 Zn41 1.965 . S
O55 C59 1.260 . S
O56 Zn40 1.969 1_455 S
O56 C59 1.258 . S
O57 Zn41 2.024 1_655 S
O57 C44 1.058 . S
C58 O47 1.260 . S
C58 O48 1.258 1_655 S
C59 O55 1.260 . S
C59 O56 1.258 . S
Zn60 O66 1.969 . S
Zn60 O67 1.965 . S
Zn60 O71 2.024 1_545 S
Zn60 O76 1.969 . S
Zn61 O68 1.969 . S
Zn61 O74 1.969 1_545 S
Zn61 O75 1.965 1_545 S
Zn61 O77 2.024 . S
C62 O63 1.229 . S
C62 O71 1.058 . S
O63 C62 1.229 . S
C64 O65 1.229 . S
C64 O77 1.058 . S
O65 C64 1.229 . S
O66 Zn60 1.969 . S
O66 C69 1.267 . S
O67 Zn60 1.965 . S
O67 C78 1.260 . S
O68 Zn61 1.969 . S
O68 C78 1.258 1_556 S
C69 O66 1.267 . S
C69 O70 1.228 . S
O70 C69 1.228 . S
O71 Zn60 2.024 1_565 S
O71 C62 1.058 . S
C72 O73 1.228 . S
C72 O74 1.267 . S
O73 C72 1.228 . S
O74 Zn61 1.969 1_565 S
O74 C72 1.267 . S
O75 Zn61 1.965 1_565 S
O75 C79 1.260 1_566 S
O76 Zn60 1.969 . S
O76 C79 1.258 . S
O77 Zn61 2.024 . S
O77 C64 1.058 . S
C78 O67 1.260 . S
C78 O68 1.258 1_554 S
C79 O75 1.260 1_544 S
C79 O76 1.258 . S
Zn80 O86 1.969 . S
Zn80 O87 1.965 . S
Zn80 O91 2.024 . S
Zn80 O96 1.969 . S
Zn81 O88 1.969 . S
Zn81 O94 1.969 . S
Zn81 O95 1.965 . S
Zn81 O97 2.024 . S
C82 O83 1.229 . S
C82 O91 1.058 . S
O83 C82 1.229 . S
C84 O85 1.229 . S
C84 O97 1.058 . S
O85 C84 1.229 . S
O86 Zn80 1.969 . S
O86 C89 1.267 . S
O87 Zn80 1.965 . S
O87 C98 1.260 . S
O88 Zn81 1.969 . S
O88 C98 1.258 . S
C89 O86 1.267 . S
C89 O90 1.228 . S
O90 C89 1.228 . S
O91 Zn80 2.024 . S
O91 C82 1.058 . S
C92 O93 1.228 . S
C92 O94 1.267 . S
O93 C92 1.228 . S
O94 Zn81 1.969 . S
O94 C92 1.267 . S
O95 Zn81 1.965 . S
O95 C99 1.260 . S
O96 Zn80 1.969 . S
O96 C99 1.258 . S
O97 Zn81 2.024 . S
O97 C84 1.058 . S
C98 O87 1.260 . S
C98 O88 1.258 . S
C99 O95 1.260 . S
C99 O96 1.258 . S
Zn100 O106 1.969 . S
Zn100 O107 1.965 . S
Zn100 O111 2.024 1_655 S
Zn100 O116 1.969 1_655 S
Zn101 O108 1.969 . S
Zn101 O114 1.969 . S
Zn101 O115 1.965 . S
Zn101 O117 2.024 1_455 S
C102 O103 1.229 . S
C102 O111 1.058 . S
O103 C102 1.229 . S
C104 O105 1.229 . S
C104 O117 1.058 . S
O105 C104 1.229 . S
O106 Zn100 1.969 . S
O106 C109 1.267 . S
O107 Zn100 1.965 . S
O107 C118 1.260 . S
O108 Zn101 1.969 . S
O108 C118 1.258 1_455 S
C109 O106 1.267 . S
C109 O110 1.228 . S
O110 C109 1.228 . S
O111 Zn100 2.024 1_455 S
O111 C102 1.058 . S
C112 O113 1.228 . S
C112 O114 1.267 . S
O113 C112 1.228 . S
O114 Zn101 1.969 . S
O114 C112 1.267 . S
O115 Zn101 1.965 . S
O115 C119 1.260 . S
O116 Zn100 1.969 1_455 S
O116 C119 1.258 . S
O117 Zn101 2.024 1_655 S
O117 C104 1.058 . S
C118 O107 1.260 . S
C118 O108 1.258 1_655 S
C119 O115 1.260 . S
C119 O116 1.258 . S
C120 C121 1.363 1_465 S
C120 C126 1.379 . S
C120 N128 1.356 1_455 S
C121 C120 1.363 1_645 S
C121 C127 1.363 1_654 S
C122 C123 1.363 1_556 S
C122 C127 1.379 . S
C122 N129 1.356 . S
C123 C122 1.363 1_554 S
C123 C126 1.363 1_545 S
N124 C126 1.356 . S
N124 H136 0.984 . S
N124 H137 0.985 . S
N125 C127 1.356 . S
N125 H130 0.984 1_455 S
N125 H131 0.985 . S
C126 C120 1.379 . S
C126 C123 1.363 1_565 S
C126 N124 1.356 . S
C127 C121 1.363 1_456 S
C127 C122 1.379 . S
C127 N125 1.356 . S
N128 C120 1.356 1_655 S
N128 H134 0.984 . S
N128 H135 0.984 . S
N129 C122 1.356 . S
N129 H132 0.984 . S
N129 H133 0.985 . S
H130 N125 0.984 1_655 S
H131 N125 0.985 . S
H132 N129 0.984 . S
H133 N129 0.985 . S
H134 N128 0.984 . S
H135 N128 0.984 . S
H136 N124 0.984 . S
H137 N124 0.985 . S
C138 C139 1.363 1_455 S
C138 C144 1.379 . S
C138 N146 1.356 . S
C139 C138 1.363 1_655 S
C139 C145 1.363 . S
C140 C141 1.363 . S
C140 C145 1.379 1_445 S
C140 N147 1.356 . S
C141 C140 1.363 . S
C141 C144 1.363 1_545 S
N142 C144 1.356 1_545 S
N142 H154 0.984 . S
N142 H155 0.985 . S
N143 C145 1.356 . S
N143 H148 0.984 . S
N143 H149 0.985 . S
C144 C138 1.379 . S
C144 C141 1.363 1_565 S
C144 N142 1.356 1_565 S
C145 C139 1.363 . S
C145 C140 1.379 1_665 S
C145 N143 1.356 . S
N146 C138 1.356 . S
N146 H152 0.984 . S
N146 H153 0.984 1_455 S
N147 C140 1.356 . S
N147 H150 0.984 . S
N147 H151 0.985 . S
H148 N143 0.984 . S
H149 N143 0.985 . S
H150 N147 0.984 . S
H151 N147 0.985 . S
H152 N146 0.984 . S
H153 N146 0.984 1_655 S
H154 N142 0.984 . S
H155 N142 0.985 . S
C156 C157 1.363 . S
C156 C162 1.379 1_565 S
C156 N164 1.356 . S
C157 C156 1.363 . S
C157 C163 1.363 1_455 S
C158 C159 1.362 1_665 S
C158 C163 1.380 . S
C158 N165 1.355 1_565 S
C159 C158 1.362 1_445 S
C159 C162 1.363 . S
N160 C162 1.356 . S
N160 H172 0.984 . S
N160 H173 0.985 . S
N161 C163 1.356 . S
N161 H166 0.984 . S
N161 H167 0.985 . S
C162 C156 1.379 1_545 S
C162 C159 1.363 . S
C162 N160 1.356 . S
C163 C157 1.363 1_655 S
C163 C158 1.380 . S
C163 N161 1.356 . S
N164 C156 1.356 . S
N164 H170 0.984 . S
N164 H171 0.984 . S
N165 C158 1.355 1_545 S
N165 H168 0.984 . S
N165 H169 0.985 . S
H166 N161 0.984 . S
H167 N161 0.985 . S
H168 N165 0.984 . S
H169 N165 0.985 . S
H170 N164 0.984 . S
H171 N164 0.984 . S
H172 N160 0.984 . S
H173 N160 0.985 . S
C174 C175 1.363 . S
C174 C180 1.379 . S
C174 N182 1.356 . S
C175 C174 1.363 . S
C175 C181 1.363 . S
C176 C177 1.363 . S
C176 C181 1.379 . S
C176 N183 1.356 . S
C177 C176 1.363 . S
C177 C180 1.363 . S
N178 C180 1.356 . S
N178 H190 0.984 . S
N178 H191 0.985 . S
N179 C181 1.356 . S
N179 H184 0.984 . S
N179 H185 0.985 . S
C180 C174 1.379 . S
C180 C177 1.363 . S
C180 N178 1.356 . S
C181 C175 1.363 . S
C181 C176 1.379 . S
C181 N179 1.356 . S
N182 C174 1.356 . S
N182 H188 0.984 . S
N182 H189 0.984 . S
N183 C176 1.356 . S
N183 H186 0.984 . S
N183 H187 0.985 . S
H184 N179 0.984 . S
H185 N179 0.985 . S
H186 N183 0.984 . S
H187 N183 0.985 . S
H188 N182 0.984 . S
H189 N182 0.984 . S
H190 N178 0.984 . S
H191 N178 0.985 . S
C192 C193 1.363 . S
C192 C198 1.379 . S
C192 N200 1.356 . S
C193 C192 1.363 . S
C193 C199 1.363 . S
C194 C195 1.363 . S
C194 C199 1.379 . S
C194 N201 1.356 1_455 S
C195 C194 1.363 . S
C195 C198 1.363 . S
N196 C198 1.356 . S
N196 H208 0.984 . S
N196 H209 0.985 1_455 S
N197 C199 1.356 . S
N197 H202 0.984 . S
N197 H203 0.985 . S
C198 C192 1.379 . S
C198 C195 1.363 . S
C198 N196 1.356 . S
C199 C193 1.363 . S
C199 C194 1.379 . S
C199 N197 1.356 . S
N200 C192 1.356 . S
N200 H206 0.984 . S
N200 H207 0.984 . S
N201 C194 1.356 1_655 S
N201 H204 0.984 . S
N201 H205 0.985 . S
H202 N197 0.984 . S
H203 N197 0.985 . S
H204 N201 0.984 . S
H205 N201 0.985 . S
H206 N200 0.984 . S
H207 N200 0.984 . S
H208 N196 0.984 . S
H209 N196 0.985 1_655 S
C210 C211 1.363 . S
C210 C216 1.379 1_545 S
C210 N218 1.356 . S
C211 C210 1.363 . S
C211 C217 1.363 1_545 S
C212 C213 1.363 . S
C212 C217 1.379 . S
C212 N219 1.356 . S
C213 C212 1.363 . S
C213 C216 1.363 . S
N214 C216 1.356 . S
N214 H226 0.984 . S
N214 H227 0.985 . S
N215 C217 1.356 . S
N215 H220 0.984 1_565 S
N215 H221 0.985 . S
C216 C210 1.379 1_565 S
C216 C213 1.363 . S
C216 N214 1.356 . S
C217 C211 1.363 1_565 S
C217 C212 1.379 . S
C217 N215 1.356 . S
N218 C210 1.356 . S
N218 H224 0.984 . S
N218 H225 0.984 . S
N219 C212 1.356 . S
N219 H222 0.984 . S
N219 H223 0.985 . S
H220 N215 0.984 1_545 S
H221 N215 0.985 . S
H222 N219 0.984 . S
H223 N219 0.985 . S
H224 N218 0.984 . S
H225 N218 0.984 . S
H226 N214 0.984 . S
H227 N214 0.985 . S
C228 C229 1.363 . S
C228 C234 1.379 . S
C228 N236 1.356 . S
C229 C228 1.363 . S
C229 C235 1.363 . S
C230 C231 1.363 . S
C230 C235 1.379 . S
C230 N237 1.356 . S
C231 C230 1.363 . S
C231 C234 1.363 . S
N232 C234 1.356 . S
N232 H244 0.984 . S
N232 H245 0.985 . S
N233 C235 1.356 . S
N233 H238 0.984 . S
N233 H239 0.985 . S
C234 C228 1.379 . S
C234 C231 1.363 . S
C234 N232 1.356 . S
C235 C229 1.363 . S
C235 C230 1.379 . S
C235 N233 1.356 . S
N236 C228 1.356 . S
N236 H242 0.984 . S
N236 H243 0.984 . S
N237 C230 1.356 . S
N237 H240 0.984 . S
N237 H241 0.985 . S
H238 N233 0.984 . S
H239 N233 0.985 . S
H240 N237 0.984 . S
H241 N237 0.985 . S
H242 N236 0.984 . S
H243 N236 0.984 . S
H244 N232 0.984 . S
H245 N232 0.985 . S
C246 C247 1.363 . S
C246 C252 1.379 . S
C246 N254 1.356 1_455 S
C247 C246 1.363 . S
C247 C253 1.363 . S
C248 C249 1.363 . S
C248 C253 1.379 . S
C248 N255 1.356 . S
C249 C248 1.363 . S
C249 C252 1.363 . S
N250 C252 1.356 . S
N250 H262 0.984 . S
N250 H263 0.985 . S
N251 C253 1.356 . S
N251 H256 0.984 . S
N251 H257 0.985 . S
C252 C246 1.379 . S
C252 C249 1.363 . S
C252 N250 1.356 . S
C253 C247 1.363 . S
C253 C248 1.379 . S
C253 N251 1.356 . S
N254 C246 1.356 1_655 S
N254 H260 0.984 . S
N254 H261 0.984 . S
N255 C248 1.356 . S
N255 H258 0.984 . S
N255 H259 0.985 . S
H256 N251 0.984 . S
H257 N251 0.985 . S
H258 N255 0.984 . S
H259 N255 0.985 . S
H260 N254 0.984 . S
H261 N254 0.984 . S
H262 N250 0.984 . S
H263 N250 0.985 . S
C264 C265 1.363 . S
C264 C270 1.379 1_565 S
C264 N272 1.356 . S
C265 C264 1.363 . S
C265 C271 1.363 . S
C266 C267 1.363 1_565 S
C266 C271 1.379 . S
C266 N273 1.356 . S
C267 C266 1.363 1_545 S
C267 C270 1.363 . S
N268 C270 1.356 . S
N268 H280 0.984 . S
N268 H281 0.985 . S
N269 C271 1.356 . S
N269 H274 0.984 . S
N269 H275 0.985 . S
C270 C264 1.379 1_545 S
C270 C267 1.363 . S
C270 N268 1.356 . S
C271 C265 1.363 . S
C271 C266 1.379 . S
C271 N269 1.356 . S
N272 C264 1.356 . S
N272 H278 0.984 . S
N272 H279 0.984 . S
N273 C266 1.356 . S
N273 H276 0.984 1_565 S
N273 H277 0.985 . S
H274 N269 0.984 . S
H275 N269 0.985 . S
H276 N273 0.984 1_545 S
H277 N273 0.985 . S
H278 N272 0.984 . S
H279 N272 0.984 . S
H280 N268 0.984 . S
H281 N268 0.985 . S
C282 C283 1.363 1_556 S
C282 C288 1.379 . S
C282 N290 1.356 . S
C283 C282 1.363 1_554 S
C283 C289 1.363 1_545 S
C284 C285 1.363 1_565 S
C284 C289 1.379 . S
C284 N291 1.356 . S
C285 C284 1.363 1_545 S
C285 C288 1.363 1_554 S
N286 C288 1.356 . S
N286 H298 0.984 . S
N286 H299 0.985 . S
N287 C289 1.356 . S
N287 H292 0.984 . S
N287 H293 0.985 . S
C288 C282 1.379 . S
C288 C285 1.363 1_556 S
C288 N286 1.356 . S
C289 C283 1.363 1_565 S
C289 C284 1.379 . S
C289 N287 1.356 . S
N290 C282 1.356 . S
N290 H296 0.984 . S
N290 H297 0.984 . S
N291 C284 1.356 . S
N291 H294 0.984 . S
N291 H295 0.985 . S
H292 N287 0.984 . S
H293 N287 0.985 . S
H294 N291 0.984 . S
H295 N291 0.985 . S
H296 N290 0.984 . S
H297 N290 0.984 . S
H298 N286 0.984 . S
H299 N286 0.985 . S
C300 C301 1.363 . S
C300 C306 1.379 . S
C300 N308 1.356 . S
C301 C300 1.363 . S
C301 C307 1.363 . S
C302 C303 1.363 . S
C302 C307 1.379 . S
C302 N309 1.356 . S
C303 C302 1.363 . S
C303 C306 1.363 . S
N304 C306 1.356 . S
N304 H316 0.984 . S
N304 H317 0.985 . S
N305 C307 1.356 . S
N305 H310 0.984 . S
N305 H311 0.985 . S
C306 C300 1.379 . S
C306 C303 1.363 . S
C306 N304 1.356 . S
C307 C301 1.363 . S
C307 C302 1.379 . S
C307 N305 1.356 . S
N308 C300 1.356 . S
N308 H314 0.984 . S
N308 H315 0.984 . S
N309 C302 1.356 . S
N309 H312 0.984 . S
N309 H313 0.985 . S
H310 N305 0.984 . S
H311 N305 0.985 . S
H312 N309 0.984 . S
H313 N309 0.985 . S
H314 N308 0.984 . S
H315 N308 0.984 . S
H316 N304 0.984 . S
H317 N304 0.985 . S
C318 C319 1.363 1_655 S
C318 C324 1.379 . S
C318 N326 1.356 . S
C319 C318 1.363 1_455 S
C319 C325 1.363 . S
C320 C321 1.363 . S
C320 C325 1.379 . S
C320 N327 1.356 . S
C321 C320 1.363 . S
C321 C324 1.363 1_455 S
N322 C324 1.356 . S
N322 H334 0.984 . S
N322 H335 0.985 . S
N323 C325 1.356 . S
N323 H328 0.984 . S
N323 H329 0.985 . S
C324 C318 1.379 . S
C324 C321 1.363 1_655 S
C324 N322 1.356 . S
C325 C319 1.363 . S
C325 C320 1.379 . S
C325 N323 1.356 . S
N326 C318 1.356 . S
N326 H332 0.984 . S
N326 H333 0.984 . S
N327 C320 1.356 . S
N327 H330 0.984 . S
N327 H331 0.985 . S
H328 N323 0.984 . S
H329 N323 0.985 . S
H330 N327 0.984 . S
H331 N327 0.985 . S
H332 N326 0.984 . S
H333 N326 0.984 . S
H334 N322 0.984 . S
H335 N322 0.985 . S
C336 C337 1.363 . S
C336 C342 1.379 . S
C336 N344 1.356 . S
C337 C336 1.363 . S
C337 C343 1.363 . S
C338 C339 1.363 . S
C338 C343 1.379 . S
C338 N345 1.356 . S
C339 C338 1.363 . S
C339 C342 1.363 . S
N340 C342 1.356 . S
N340 H352 0.984 . S
N340 H353 0.985 . S
N341 C343 1.356 . S
N341 H346 0.984 . S
N341 H347 0.985 . S
C342 C336 1.379 . S
C342 C339 1.363 . S
C342 N340 1.356 . S
C343 C337 1.363 . S
C343 C338 1.379 . S
C343 N341 1.356 . S
N344 C336 1.356 . S
N344 H350 0.984 . S
N344 H351 0.984 . S
N345 C338 1.356 . S
N345 H348 0.984 . S
N345 H349 0.985 1_545 S
H346 N341 0.984 . S
H347 N341 0.985 . S
H348 N345 0.984 . S
H349 N345 0.985 1_565 S
H350 N344 0.984 . S
H351 N344 0.984 . S
H352 N340 0.984 . S
H353 N340 0.985 . S
C354 C355 1.363 . S
C354 C360 1.379 . S
C354 N362 1.356 . S
C355 C354 1.363 . S
C355 C361 1.363 . S
C356 C357 1.363 . S
C356 C361 1.379 . S
C356 N363 1.356 . S
C357 C356 1.363 . S
C357 C360 1.363 . S
N358 C360 1.356 . S
N358 H370 0.984 . S
N358 H371 0.985 . S
N359 C361 1.356 . S
N359 H364 0.984 . S
N359 H365 0.985 . S
C360 C354 1.379 . S
C360 C357 1.363 . S
C360 N358 1.356 . S
C361 C355 1.363 . S
C361 C356 1.379 . S
C361 N359 1.356 . S
N362 C354 1.356 . S
N362 H368 0.984 . S
N362 H369 0.984 . S
N363 C356 1.356 . S
N363 H366 0.984 . S
N363 H367 0.985 1_455 S
H364 N359 0.984 . S
H365 N359 0.985 . S
H366 N363 0.984 . S
H367 N363 0.985 1_655 S
H368 N362 0.984 . S
H369 N362 0.984 . S
H370 N358 0.984 . S
H371 N358 0.985 . S
C372 C373 1.363 . S
C372 C378 1.379 . S
C372 N380 1.356 . S
C373 C372 1.363 . S
C373 C379 1.363 . S
C374 C375 1.363 . S
C374 C379 1.379 . S
C374 N381 1.356 . S
C375 C374 1.363 . S
C375 C378 1.363 . S
N376 C378 1.356 1_455 S
N376 H388 0.984 . S
N376 H389 0.985 . S
N377 C379 1.356 . S
N377 H382 0.984 . S
N377 H383 0.985 1_545 S
C378 C372 1.379 . S
C378 C375 1.363 . S
C378 N376 1.356 1_655 S
C379 C373 1.363 . S
C379 C374 1.379 . S
C379 N377 1.356 . S
N380 C372 1.356 . S
N380 H386 0.984 1_655 S
N380 H387 0.984 . S
N381 C374 1.356 . S
N381 H384 0.984 . S
N381 H385 0.985 . S
H382 N377 0.984 . S
H383 N377 0.985 1_565 S
H384 N381 0.984 . S
H385 N381 0.985 . S
H386 N380 0.984 1_455 S
H387 N380 0.984 . S
H388 N376 0.984 . S
H389 N376 0.985 . S
C390 C391 1.363 . S
C390 C396 1.379 . S
C390 N398 1.356 . S
C391 C390 1.363 . S
C391 C397 1.363 . S
C392 C393 1.363 . S
C392 C397 1.379 . S
C392 N399 1.356 . S
C393 C392 1.363 . S
C393 C396 1.363 . S
N394 C396 1.356 . S
N394 H406 0.984 . S
N394 H407 0.985 . S
N395 C397 1.356 . S
N395 H400 0.984 . S
N395 H401 0.985 1_565 S
C396 C390 1.379 . S
C396 C393 1.363 . S
C396 N394 1.356 . S
C397 C391 1.363 . S
C397 C392 1.379 . S
C397 N395 1.356 . S
N398 C390 1.356 . S
N398 H404 0.984 . S
N398 H405 0.984 . S
N399 C392 1.356 . S
N399 H402 0.984 . S
N399 H403 0.985 1_565 S
H400 N395 0.984 . S
H401 N395 0.985 1_545 S
H402 N399 0.984 . S
H403 N399 0.985 1_545 S
H404 N398 0.984 . S
H405 N398 0.984 . S
H406 N394 0.984 . S
H407 N394 0.985 . S
C408 C409 1.363 . S
C408 C414 1.379 . S
C408 N416 1.356 1_655 S
C409 C408 1.363 . S
C409 C415 1.363 . S
C410 C411 1.363 . S
C410 C415 1.379 . S
C410 N417 1.356 . S
C411 C410 1.363 . S
C411 C414 1.363 . S
N412 C414 1.356 . S
N412 H424 0.984 1_655 S
N412 H425 0.985 . S
N413 C415 1.356 . S
N413 H418 0.984 . S
N413 H419 0.985 . S
C414 C408 1.379 . S
C414 C411 1.363 . S
C414 N412 1.356 . S
C415 C409 1.363 . S
C415 C410 1.379 . S
C415 N413 1.356 . S
N416 C408 1.356 1_455 S
N416 H422 0.984 . S
N416 H423 0.984 . S
N417 C410 1.356 . S
N417 H420 0.984 . S
N417 H421 0.985 . S
H418 N413 0.984 . S
H419 N413 0.985 . S
H420 N417 0.984 . S
H421 N417 0.985 . S
H422 N416 0.984 . S
H423 N416 0.984 . S
H424 N412 0.984 1_455 S
H425 N412 0.985 . S
C426 C427 1.363 . S
C426 C432 1.379 . S
C426 N434 1.356 . S
C427 C426 1.363 . S
C427 C433 1.363 . S
C428 C429 1.363 . S
C428 C433 1.379 . S
C428 N435 1.356 1_565 S
C429 C428 1.363 . S
C429 C432 1.363 . S
N430 C432 1.356 . S
N430 H442 0.984 . S
N430 H443 0.985 . S
N431 C433 1.356 . S
N431 H436 0.984 . S
N431 H437 0.985 1_565 S
C432 C426 1.379 . S
C432 C429 1.363 . S
C432 N430 1.356 . S
C433 C427 1.363 . S
C433 C428 1.379 . S
C433 N431 1.356 . S
N434 C426 1.356 . S
N434 H440 0.984 . S
N434 H441 0.984 . S
N435 C428 1.356 1_545 S
N435 H438 0.984 1_545 S
N435 H439 0.985 . S
H436 N431 0.984 . S
H437 N431 0.985 1_545 S
H438 N435 0.984 1_565 S
H439 N435 0.985 . S
H440 N434 0.984 . S
H441 N434 0.984 . S
H442 N430 0.984 . S
H443 N430 0.985 . S
C121 C78 0.390 . S
C123 C18 0.390 . S
C139 C98 0.390 . S
C141 C38 0.390 . S
C157 C118 0.390 1_455 S
C159 C58 0.389 1_455 S
C175 C9 1.655 . S
C177 C52 1.738 . S
C193 C32 1.737 . S
C195 C69 1.655 1_455 S
C211 C49 1.655 . S
C213 C92 1.738 . S
C229 C72 1.737 . S
C231 C109 1.655 . S
C247 C89 1.654 1_455 S
C249 C12 1.737 . S
C265 C112 1.737 . S
C267 C29 1.655 . S
C283 C19 0.983 . S
C285 C79 0.983 . S
C301 C39 0.983 . S
C303 C99 0.983 . S
C319 C59 0.983 . S
C321 C119 0.983 . S
C337 C4 1.208 . S
C339 C24 1.208 . S
C355 C22 1.222 . S
C357 C42 1.222 . S
C373 C44 1.208 . S
C375 C64 1.209 . S
C391 C62 1.222 . S
C393 C82 1.222 . S
C409 C84 1.208 . S
C411 C104 1.209 . S
C427 C102 1.222 . S
C429 C2 1.222 . S
