# Generated by pormake.
# Topology mok, (4)-cn, num edge types: 1
# Building blocks:
#     Node 0, Type 0, BuildingBlock: TATPOV_clean_sbu_0, # of connection points: 4
#     Node 1, Type 0, BuildingBlock: TATPOV_clean_sbu_0, # of connection points: 4
#     Node 2, Type 0, BuildingBlock: TATPOV_clean_sbu_0, # of connection points: 4
#     Node 3, Type 0, BuildingBlock: TATPOV_clean_sbu_0, # of connection points: 4
#     Node 4, Type 0, BuildingBlock: TATPOV_clean_sbu_0, # of connection points: 4
#     Node 5, Type 0, BuildingBlock: TATPOV_clean_sbu_0, # of connection points: 4
#     Node 6, Type 0, BuildingBlock: TATPOV_clean_sbu_0, # of connection points: 4
#     Node 7, Type 0, BuildingBlock: TATPOV_clean_sbu_0, # of connection points: 4
#     Edge 8, Type (0, 0), BuildingBlock: FUNLAD_clean_linker_1, # of connection points: 2
#     Edge 9, Type (0, 0), BuildingBlock: FUNLAD_clean_linker_1, # of connection points: 2
#     Edge 10, Type (0, 0), BuildingBlock: FUNLAD_clean_linker_1, # of connection points: 2
#     Edge 11, Type (0, 0), BuildingBlock: FUNLAD_clean_linker_1, # of connection points: 2
#     Edge 12, Type (0, 0), BuildingBlock: FUNLAD_clean_linker_1, # of connection points: 2
#     Edge 13, Type (0, 0), BuildingBlock: FUNLAD_clean_linker_1, # of connection points: 2
#     Edge 14, Type (0, 0), BuildingBlock: FUNLAD_clean_linker_1, # of connection points: 2
#     Edge 15, Type (0, 0), BuildingBlock: FUNLAD_clean_linker_1, # of connection points: 2
#     Edge 16, Type (0, 0), BuildingBlock: FUNLAD_clean_linker_1, # of connection points: 2
#     Edge 17, Type (0, 0), BuildingBlock: FUNLAD_clean_linker_1, # of connection points: 2
#     Edge 18, Type (0, 0), BuildingBlock: FUNLAD_clean_linker_1, # of connection points: 2
#     Edge 19, Type (0, 0), BuildingBlock: FUNLAD_clean_linker_1, # of connection points: 2
#     Edge 20, Type (0, 0), BuildingBlock: FUNLAD_clean_linker_1, # of connection points: 2
#     Edge 21, Type (0, 0), BuildingBlock: FUNLAD_clean_linker_1, # of connection points: 2
#     Edge 22, Type (0, 0), BuildingBlock: FUNLAD_clean_linker_1, # of connection points: 2
#     Edge 23, Type (0, 0), BuildingBlock: FUNLAD_clean_linker_1, # of connection points: 2
# Relax obj value: 0.024
# Max RMSD: 0.042
# Mean RMSD: 0.042
data_MOF--net-mok--node1-TATPOV_clean_sbu_0--edge1-FUNLAD_clean_linker_1
_symmetry_space_group_name_H-M    P1
_symmetry_Int_Tables_number       1
_symmetry_cell_setting            triclinic
loop_
_symmetry_equiv_pos_as_xyz
'x, y, z'
_cell_length_a     48.392188
_cell_length_b     21.160402
_cell_length_c     27.550609
_cell_angle_alpha  89.875876
_cell_angle_beta   90.099414
_cell_angle_gamma 89.664788
loop_
_atom_site_label
_atom_site_type_symbol
_atom_site_fract_x
_atom_site_fract_y
_atom_site_fract_z
_atom_type_partial_charge
Zn0 Zn 0.62031 0.45121 0.01178 0.0
Zn1 Zn 0.59542 0.33486 0.00738 0.0
O2 O 0.57793 0.37651 0.06667 0.0
O3 O 0.59814 0.4692 0.07294 0.0
O4 O 0.57387 0.25383 0.00346 0.0
O5 O 0.60327 0.47222 0.94604 0.0
O6 O 0.58489 0.3772 0.94357 0.0
C7 C 0.58086 0.42906 0.08826 0.0
C8 C 0.65866 0.34424 0.01628 0.0
O9 O 0.63674 0.31116 0.01385 0.0
O10 O 0.6572 0.40412 0.01576 0.0
C11 C 0.58277 0.19748 0.00017 0.0
O12 O 0.60948 0.18612 -0.0007 0.0
C13 C 0.58884 0.43108 0.92446 0.0
Zn14 Zn 0.41344 0.55694 0.02126 0.0
Zn15 Zn 0.43981 0.6708 0.02632 0.0
O16 O 0.45551 0.61918 0.08275 0.0
O17 O 0.43414 0.52759 0.08113 0.0
O18 O 0.46181 0.75073 0.03263 0.0
O19 O 0.43075 0.54483 0.95502 0.0
O20 O 0.45037 0.63847 0.95921 0.0
C21 C 0.45164 0.5643 0.10018 0.0
C22 C 0.3765 0.66544 0.03188 0.0
O23 O 0.39885 0.69706 0.03241 0.0
O24 O 0.37719 0.60577 0.02758 0.0
C25 C 0.46232 0.79423 0.00088 0.0
O26 O 0.44686 0.78968 0.9618 0.0
C27 C 0.44561 0.58755 0.93635 0.0
Zn28 Zn 0.58788 0.57457 0.49909 0.0
Zn29 Zn 0.57429 0.69904 0.50121 0.0
O30 O 0.55805 0.66628 0.437 0.0
O31 O 0.56572 0.56354 0.43794 0.0
O32 O 0.56024 0.78885 0.5035 0.0
O33 O 0.56925 0.56063 0.56317 0.0
O34 O 0.56067 0.66288 0.56636 0.0
C35 C 0.55552 0.61206 0.41768 0.0
C36 C 0.63486 0.66188 0.49658 0.0
O37 O 0.6163 0.70471 0.49842 0.0
O38 O 0.62826 0.60388 0.49635 0.0
C39 C 0.56797 0.83086 0.47351 0.0
O40 O 0.58645 0.81656 0.44044 0.0
C41 C 0.55953 0.60807 0.58536 0.0
Zn42 Zn 0.39233 0.45793 0.51918 0.0
Zn43 Zn 0.40909 0.33838 0.51617 0.0
O44 O 0.42499 0.37697 0.45334 0.0
O45 O 0.40466 0.47044 0.45068 0.0
O46 O 0.42311 0.24848 0.51334 0.0
O47 O 0.41902 0.47402 0.574 0.0
O48 O 0.42669 0.37151 0.57895 0.0
C49 C 0.42014 0.4291 0.43172 0.0
C50 C 0.34732 0.37188 0.52668 0.0
O51 O 0.36632 0.33108 0.51859 0.0
O52 O 0.35327 0.42963 0.53166 0.0
C53 C 0.44911 0.24002 0.51126 0.0
O54 O 0.46547 0.28937 0.51111 0.0
C55 C 0.4303 0.4272 0.59494 0.0
Zn56 Zn 0.13312 0.91932 0.02657 0.0
Zn57 Zn 0.10507 0.80822 0.02166 0.0
O58 O 0.09169 0.84938 0.08516 0.0
O59 O 0.11202 0.94241 0.08672 0.0
O60 O 0.08052 0.73127 0.01808 0.0
O61 O 0.11653 0.94666 0.96317 0.0
O62 O 0.0946 0.85577 0.9587 0.0
C63 C 0.09541 0.90298 0.10489 0.0
C64 C 0.16825 0.80626 0.02704 0.0
O65 O 0.14546 0.77659 0.02376 0.0
O66 O 0.16841 0.86615 0.02918 0.0
C67 C 0.08641 0.67531 0.03148 0.0
O68 O 0.11113 0.66229 0.04872 0.0
C69 C 0.10019 0.90997 0.94121 0.0
Zn70 Zn 0.8933 0.06783 0.01712 0.0
Zn71 Zn 0.92821 0.16653 0.01352 0.0
O72 O 0.94103 0.11865 0.07493 0.0
O73 O 0.91179 0.03936 0.07906 0.0
O74 O 0.95546 0.23841 0.00915 0.0
O75 O 0.90762 0.03781 0.95245 0.0
O76 O 0.93638 0.1181 0.95044 0.0
C77 C 0.93223 0.06919 0.09612 0.0
C78 C 0.86464 0.18675 0.01882 0.0
O79 O 0.88912 0.20893 0.01689 0.0
O80 O 0.86088 0.12758 0.01939 0.0
C81 C 0.95439 0.28873 0.03413 0.0
O82 O 0.93407 0.29729 0.06503 0.0
C83 C 0.92656 0.06834 0.93131 0.0
Zn84 Zn 0.10993 0.07399 0.51546 0.0
Zn85 Zn 0.09093 0.19372 0.5152 0.0
O86 O 0.07408 0.15171 0.45429 0.0
O87 O 0.08879 0.05309 0.45536 0.0
O88 O 0.07329 0.28078 0.51264 0.0
O89 O 0.09314 0.06016 0.58098 0.0
O90 O 0.07872 0.15911 0.58185 0.0
C91 C 0.07489 0.09683 0.43543 0.0
C92 C 0.15318 0.16785 0.50938 0.0
O93 O 0.13322 0.20754 0.51128 0.0
O94 O 0.14855 0.10904 0.50998 0.0
C95 C 0.07357 0.31266 0.47343 0.0
O96 O 0.08692 0.29038 0.43567 0.0
C97 C 0.08102 0.10533 0.60238 0.0
Zn98 Zn 0.86769 0.90357 0.50392 0.0
Zn99 Zn 0.90411 0.80713 0.5097 0.0
O100 O 0.91633 0.85365 0.44733 0.0
O101 O 0.88687 0.93351 0.44367 0.0
O102 O 0.93195 0.73593 0.51726 0.0
O103 O 0.87954 0.93529 0.56909 0.0
O104 O 0.91024 0.85798 0.57268 0.0
C105 C 0.90732 0.90361 0.42654 0.0
C106 C 0.84139 0.78267 0.50103 0.0
O107 O 0.86613 0.76199 0.50493 0.0
O108 O 0.83667 0.84154 0.49943 0.0
C109 C 0.93646 0.69434 0.48499 0.0
O110 O 0.92252 0.69631 0.44404 0.0
C111 C 0.89892 0.90691 0.59108 0.0
H112 H 0.84367 0.28052 0.01969 0.0
C113 C 0.84034 0.22978 0.01972 0.0
H114 H 0.81101 0.15621 0.02121 0.0
H115 H 0.71038 0.30251 0.1083 0.0
H116 H 0.72576 0.24362 0.17902 0.0
H117 H 0.77025 0.18611 0.17856 0.0
H118 H 0.79973 0.18756 0.10745 0.0
C119 C 0.81438 0.20692 0.01985 0.0
C120 C 0.78916 0.24777 0.0214 0.0
C121 C 0.77198 0.24608 0.06306 0.0
C122 C 0.74614 0.2786 0.06312 0.0
C123 C 0.72985 0.27739 0.10577 0.0
C124 C 0.73852 0.24408 0.14677 0.0
C125 C 0.76357 0.21174 0.14653 0.0
C126 C 0.78023 0.21272 0.10536 0.0
H127 H 0.68647 0.26096 0.02049 0.0
C128 C 0.68592 0.31231 0.01935 0.0
H129 H 0.70961 0.39592 0.01744 0.0
H130 H 0.8166 0.25995 0.93489 0.0
H131 H 0.80155 0.32028 0.8648 0.0
H132 H 0.75713 0.378 0.86542 0.0
H133 H 0.72737 0.37527 0.9361 0.0
C134 C 0.70982 0.34469 0.02022 0.0
C135 C 0.73727 0.31213 0.0212 0.0
C136 C 0.75484 0.31557 0.98011 0.0
C137 C 0.78069 0.28293 0.98 0.0
C138 C 0.79712 0.28489 0.93753 0.0
C139 C 0.78865 0.31915 0.89686 0.0
C140 C 0.76363 0.35161 0.89719 0.0
C141 C 0.74679 0.34979 0.9381 0.0
H142 H 0.19397 0.71931 0.02551 0.0
C143 C 0.19465 0.77056 0.02776 0.0
H144 H 0.22015 0.85087 0.03414 0.0
H145 H 0.32346 0.70815 0.12198 0.0
H146 H 0.30636 0.76302 0.19307 0.0
H147 H 0.26157 0.81922 0.19112 0.0
H148 H 0.2335 0.82047 0.11811 0.0
C149 C 0.21926 0.79981 0.03043 0.0
C150 C 0.24599 0.76435 0.03143 0.0
C151 C 0.26242 0.76493 0.07412 0.0
C152 C 0.28847 0.73323 0.07506 0.0
C153 C 0.3039 0.73276 0.11879 0.0
C154 C 0.29424 0.76377 0.16001 0.0
C155 C 0.26901 0.79536 0.15892 0.0
C156 C 0.25315 0.79589 0.11668 0.0
H157 H 0.34962 0.75008 0.03826 0.0
C158 C 0.34961 0.69887 0.03521 0.0
H159 H 0.32513 0.61695 0.02872 0.0
H160 H 0.22083 0.75796 0.94229 0.0
H161 H 0.23789 0.70292 0.87134 0.0
H162 H 0.28262 0.64652 0.87338 0.0
H163 H 0.31067 0.64527 0.94636 0.0
C164 C 0.32539 0.66791 0.03344 0.0
C165 C 0.29827 0.7018 0.03298 0.0
C166 C 0.28178 0.70095 0.99035 0.0
C167 C 0.25575 0.73272 0.98939 0.0
C168 C 0.24036 0.73324 0.9456 0.0
C169 C 0.25 0.70214 0.90442 0.0
C170 C 0.27519 0.67044 0.90555 0.0
C171 C 0.29104 0.66993 0.94779 0.0
H172 H 0.82195 0.68774 0.49958 0.0
C173 C 0.8179 0.7383 0.49901 0.0
H174 H 0.78765 0.81054 0.49529 0.0
H175 H 0.68946 0.66722 0.40362 0.0
H176 H 0.70753 0.71883 0.33167 0.0
H177 H 0.75314 0.77035 0.33317 0.0
H178 H 0.78101 0.77025 0.40657 0.0
C179 C 0.79171 0.76003 0.49716 0.0
C180 C 0.76714 0.71837 0.49411 0.0
C181 C 0.75116 0.7186 0.45095 0.0
C182 C 0.72477 0.68948 0.4502 0.0
C183 C 0.70938 0.68989 0.40644 0.0
C184 C 0.71958 0.71899 0.36481 0.0
C185 C 0.74527 0.74796 0.36565 0.0
C186 C 0.76098 0.74783 0.40807 0.0
H187 H 0.66866 0.73099 0.49234 0.0
C188 C 0.66413 0.68076 0.49424 0.0
H189 H 0.68119 0.5885 0.49798 0.0
H190 H 0.7931 0.70594 0.58223 0.0
H191 H 0.7757 0.65077 0.65293 0.0
H192 H 0.73023 0.59872 0.65106 0.0
H193 H 0.70178 0.60198 0.57842 0.0
C194 C 0.68512 0.63881 0.49446 0.0
C195 C 0.71427 0.66079 0.49283 0.0
C196 C 0.73108 0.65642 0.5349 0.0
C197 C 0.75748 0.68577 0.53575 0.0
C198 C 0.77315 0.6836 0.57917 0.0
C199 C 0.76336 0.65221 0.62013 0.0
C200 C 0.73775 0.62294 0.61909 0.0
C201 C 0.72164 0.62512 0.57716 0.0
H202 H 0.19784 0.15191 0.50151 0.0
C203 C 0.18221 0.18837 0.50695 0.0
H204 H 0.17535 0.28535 0.52107 0.0
H205 H 0.29714 0.30041 0.61133 0.0
H206 H 0.26923 0.30592 0.68422 0.0
H207 H 0.21867 0.29261 0.68027 0.0
H208 H 0.19572 0.27338 0.60338 0.0
C209 C 0.19032 0.24832 0.51317 0.0
C210 C 0.22036 0.26342 0.51442 0.0
C211 C 0.23336 0.27645 0.5594 0.0
C212 C 0.26248 0.28528 0.56154 0.0
C213 C 0.27503 0.29529 0.60734 0.0
C214 C 0.25927 0.29807 0.64955 0.0
C215 C 0.23081 0.29047 0.64735 0.0
C216 C 0.2179 0.27952 0.60295 0.0
H217 H 0.30306 0.39101 0.53762 0.0
C218 C 0.31794 0.35393 0.52918 0.0
H219 H 0.32304 0.25833 0.50908 0.0
H220 H 0.20165 0.24412 0.42188 0.0
H221 H 0.22946 0.23909 0.34879 0.0
H222 H 0.27995 0.25393 0.35242 0.0
H223 H 0.30293 0.27398 0.4291 0.0
C224 C 0.30873 0.29552 0.51976 0.0
C225 C 0.27847 0.28262 0.51842 0.0
C226 C 0.26541 0.26996 0.47338 0.0
C227 C 0.23632 0.2608 0.47132 0.0
C228 C 0.22374 0.25003 0.42566 0.0
C229 C 0.23944 0.24743 0.38337 0.0
C230 C 0.26785 0.25585 0.38541 0.0
C231 C 0.28079 0.26722 0.42972 0.0
H232 H 0.54761 0.40987 0.14103 0.0
C233 C 0.56428 0.44205 0.13195 0.0
H234 H 0.58679 0.5225 0.15297 0.0
H235 H 0.50703 0.64591 0.30161 0.0
H236 H 0.50253 0.7192 0.23395 0.0
H237 H 0.52237 0.69329 0.1539 0.0
H238 H 0.54609 0.59338 0.14076 0.0
C239 C 0.57046 0.48954 0.1622 0.0
C240 C 0.5553 0.50059 0.20838 0.0
C241 C 0.54148 0.55909 0.21537 0.0
C242 C 0.5307 0.57486 0.26173 0.0
C243 C 0.51644 0.6329 0.26745 0.0
C244 C 0.51357 0.67507 0.22888 0.0
C245 C 0.52472 0.66046 0.18384 0.0
C246 C 0.5384 0.60306 0.17686 0.0
H247 H 0.55507 0.63892 0.34128 0.0
C248 C 0.54588 0.60678 0.36739 0.0
H249 H 0.52247 0.52579 0.37967 0.0
H250 H 0.58013 0.38282 0.20795 0.0
H251 H 0.58109 0.30744 0.27351 0.0
H252 H 0.56027 0.33292 0.35268 0.0
H253 H 0.53863 0.43389 0.36655 0.0
C254 C 0.5317 0.55602 0.3524 0.0
C255 C 0.53451 0.53296 0.30143 0.0
C256 C 0.54553 0.47152 0.29317 0.0
C257 C 0.5566 0.45583 0.24688 0.0
C258 C 0.57 0.39652 0.24115 0.0
C259 C 0.57107 0.35276 0.27888 0.0
C260 C 0.55947 0.3672 0.32347 0.0
C261 C 0.54712 0.4259 0.33092 0.0
H262 H 0.48134 0.57831 0.15973 0.0
C263 C 0.46581 0.54661 0.14552 0.0
H264 H 0.44154 0.46613 0.15893 0.0
H265 H 0.4881 0.33539 0.33786 0.0
H266 H 0.5057 0.26424 0.27569 0.0
H267 H 0.50628 0.29669 0.18955 0.0
H268 H 0.48849 0.39986 0.16486 0.0
C269 C 0.45689 0.49863 0.17302 0.0
C270 C 0.4658 0.48921 0.22417 0.0
C271 C 0.47732 0.43012 0.23804 0.0
C272 C 0.47773 0.41209 0.28774 0.0
C273 C 0.48751 0.35126 0.30053 0.0
C274 C 0.49776 0.31025 0.26526 0.0
C275 C 0.49809 0.32852 0.21673 0.0
C276 C 0.48779 0.38757 0.20301 0.0
H277 H 0.41794 0.46876 0.35902 0.0
C278 C 0.4313 0.44212 0.3835 0.0
H279 H 0.47148 0.40493 0.3951 0.0
H280 H 0.44392 0.61027 0.21243 0.0
H281 H 0.43625 0.68683 0.27565 0.0
H282 H 0.44563 0.6603 0.36142 0.0
H283 H 0.46144 0.55458 0.38403 0.0
C284 C 0.45766 0.43053 0.37083 0.0
C285 C 0.46773 0.45453 0.32315 0.0
C286 C 0.46217 0.51808 0.31 0.0
C287 C 0.45924 0.53466 0.26038 0.0
C288 C 0.44865 0.59557 0.24897 0.0
C289 C 0.44383 0.64019 0.28519 0.0
C290 C 0.44898 0.62522 0.33347 0.0
C291 C 0.45792 0.56472 0.34597 0.0
H292 H 0.46482 0.62212 0.86913 0.0
C293 C 0.45548 0.58122 0.88615 0.0
H294 H 0.44129 0.48793 0.87629 0.0
H295 H 0.42652 0.5956 0.65369 0.0
H296 H 0.3951 0.67273 0.68744 0.0
H297 H 0.38954 0.68305 0.77598 0.0
H298 H 0.41562 0.61701 0.83096 0.0
C299 C 0.45019 0.52965 0.85956 0.0
C300 C 0.45512 0.52797 0.8064 0.0
C301 C 0.43913 0.56671 0.77472 0.0
C302 C 0.44162 0.55929 0.72366 0.0
C303 C 0.42545 0.59853 0.69277 0.0
C304 C 0.40721 0.64318 0.71165 0.0
C305 C 0.40415 0.6491 0.76145 0.0
C306 C 0.41961 0.61111 0.79273 0.0
H307 H 0.44285 0.3998 0.66874 0.0
C308 C 0.44453 0.43676 0.64144 0.0
H309 H 0.45753 0.52902 0.6251 0.0
H310 H 0.49097 0.45185 0.85685 0.0
H311 H 0.52301 0.37533 0.82247 0.0
H312 H 0.52709 0.36256 0.73381 0.0
H313 H 0.49846 0.42501 0.67888 0.0
C314 C 0.45565 0.49281 0.65289 0.0
C315 C 0.45893 0.51106 0.70461 0.0
C316 C 0.47621 0.47545 0.73605 0.0
C317 C 0.47423 0.48377 0.78707 0.0
C318 C 0.49149 0.44703 0.81776 0.0
C319 C 0.51011 0.40336 0.79851 0.0
C320 C 0.51228 0.39586 0.74858 0.0
C321 C 0.49561 0.43151 0.7175 0.0
H322 H 0.56606 0.40589 0.85827 0.0
C323 C 0.57701 0.44395 0.87621 0.0
H324 H 0.59077 0.53829 0.87071 0.0
H325 H 0.57665 0.44972 0.64043 0.0
H326 H 0.61246 0.37321 0.65756 0.0
H327 H 0.63045 0.35909 0.74064 0.0
H328 H 0.61245 0.42118 0.80695 0.0
C329 C 0.58049 0.4991 0.85293 0.0
C330 C 0.57012 0.50844 0.80255 0.0
C331 C 0.58131 0.47231 0.76384 0.0
C332 C 0.57142 0.48167 0.71574 0.0
C333 C 0.5831 0.44498 0.6778 0.0
C334 C 0.60387 0.40077 0.68703 0.0
C335 C 0.61394 0.39272 0.73377 0.0
C336 C 0.6031 0.4283 0.77172 0.0
H337 H 0.55685 0.64 0.66087 0.0
C338 C 0.55181 0.60123 0.63666 0.0
H339 H 0.53913 0.50692 0.63017 0.0
H340 H 0.54461 0.58599 0.86829 0.0
H341 H 0.50911 0.66415 0.85096 0.0
H342 H 0.49044 0.67696 0.76806 0.0
H343 H 0.50859 0.61434 0.7014 0.0
C344 C 0.54444 0.54491 0.6549 0.0
C345 C 0.551 0.52863 0.70621 0.0
C346 C 0.53935 0.56351 0.74504 0.0
C347 C 0.54924 0.55412 0.79315 0.0
C348 C 0.53781 0.59097 0.83104 0.0
C349 C 0.51723 0.63564 0.82166 0.0
C350 C 0.50691 0.64327 0.77493 0.0
C351 C 0.51767 0.60751 0.73695 0.0
H352 H 0.08264 0.88427 0.1801 0.0
C353 C 0.08165 0.91857 0.15073 0.0
H354 H 0.06954 0.00908 0.12749 0.0
H355 H 0.03109 0.952 0.36056 0.0
H356 H 1.00378 0.86523 0.32908 0.0
H357 H 1.00223 0.84327 0.24114 0.0
H358 H 0.02865 0.90682 0.18443 0.0
C359 C 0.07072 0.97634 0.15786 0.0
C360 C 0.06511 0.00023 0.2077 0.0
C361 C 0.04781 0.9662 0.2398 0.0
C362 C 0.04803 0.98023 0.29019 0.0
C363 C 0.03175 0.94316 0.3219 0.0
C364 C 0.01583 0.89359 0.30427 0.0
C365 C 0.01499 0.88115 0.25479 0.0
C366 C 0.03046 0.91744 0.2227 0.0
H367 H 0.05164 0.12534 0.3696 0.0
C368 C 0.06276 0.08663 0.38697 0.0
H369 H 0.08042 0.99581 0.37837 0.0
H370 H 0.09691 0.08266 0.15443 0.0
H371 H 0.12422 0.1685 0.18553 0.0
H372 H 0.12563 0.19128 0.27316 0.0
H373 H 0.09957 0.12885 0.32981 0.0
C374 C 0.06944 0.03488 0.36123 0.0
C375 C 0.06477 0.02969 0.30811 0.0
C376 C 0.08029 0.0674 0.27534 0.0
C377 C 0.08006 0.05323 0.2249 0.0
C378 C 0.09618 0.09076 0.19308 0.0
C379 C 0.1121 0.14039 0.21044 0.0
C380 C 0.11285 0.15328 0.25972 0.0
C381 C 0.09744 0.11711 0.29194 0.0
H382 H 0.90915 0.9675 0.36428 0.0
C383 C 0.91946 0.92723 0.38118 0.0
H384 H 0.95149 0.85948 0.37404 0.0
H385 H 0.93749 0.89253 0.14484 0.0
H386 H 0.9331 0.77888 0.15555 0.0
H387 H 0.93573 0.7309 0.23718 0.0
H388 H 0.94319 0.79607 0.30847 0.0
C389 C 0.94129 0.90089 0.35883 0.0
C390 C 0.949 0.92452 0.30976 0.0
C391 C 0.94485 0.88564 0.26882 0.0
C392 C 0.9428 0.91346 0.222 0.0
C393 C 0.9386 0.87376 0.18139 0.0
C394 C 0.93619 0.80857 0.18702 0.0
C395 C 0.93769 0.78155 0.23298 0.0
C396 C 0.94185 0.81946 0.27361 0.0
H397 H 0.96688 0.06043 0.14861 0.0
C398 C 0.94581 0.04614 0.14085 0.0
H399 H 0.91118 0.99403 0.16287 0.0
H400 H 0.96845 0.00538 0.378 0.0
H401 H 0.97626 0.11835 0.36762 0.0
H402 H 0.96749 0.16996 0.28862 0.0
H403 H 0.95196 0.10946 0.21958 0.0
C404 C 0.9321 0.00857 0.17181 0.0
C405 C 0.94415 0.98007 0.21659 0.0
C406 C 0.95216 0.01779 0.25678 0.0
C407 C 0.9556 0.98906 0.30312 0.0
C408 C 0.96464 0.02612 0.34263 0.0
C409 C 0.96926 0.09059 0.33707 0.0
C410 C 0.96443 0.11956 0.29252 0.0
C411 C 0.9557 0.08397 0.25287 0.0
H412 H 0.89391 0.96618 0.65546 0.0
C413 C 0.90726 0.93078 0.63889 0.0
H414 H 0.94353 0.87563 0.64699 0.0
H415 H 0.92725 0.11475 0.80819 0.0
H416 H 0.93433 0.18425 0.73974 0.0
H417 H 0.94405 0.14123 0.65833 0.0
H418 H 0.94568 0.02763 0.645 0.0
C419 C 0.93009 0.91148 0.66257 0.0
C420 C 0.93567 0.93594 0.71227 0.0
C421 C 0.93717 0.00197 0.72038 0.0
C422 C 0.93361 0.02651 0.76795 0.0
C423 C 0.93171 0.09293 0.77372 0.0
C424 C 0.93547 0.13362 0.73447 0.0
C425 C 0.9408 0.10943 0.6886 0.0
C426 C 0.94152 0.04436 0.68138 0.0
H427 H 0.95616 0.06611 0.87009 0.0
C428 C 0.93688 0.04696 0.88375 0.0
H429 H 0.90301 0.98731 0.87061 0.0
H430 H 0.93861 0.80666 0.70997 0.0
H431 H 0.93862 0.73612 0.77948 0.0
H432 H 0.93601 0.77831 0.86278 0.0
H433 H 0.93302 0.89138 0.87698 0.0
C434 C 0.92209 0.00694 0.85642 0.0
C435 C 0.931 0.98426 0.80781 0.0
C436 C 0.93371 0.91822 0.80019 0.0
C437 C 0.93578 0.89392 0.75228 0.0
C438 C 0.93721 0.82767 0.74561 0.0
C439 C 0.93729 0.78664 0.78522 0.0
C440 C 0.93579 0.81038 0.83211 0.0
C441 C 0.93394 0.87533 0.83974 0.0
H442 H 0.08391 0.89277 0.86753 0.0
C443 C 0.08878 0.92922 0.89389 0.0
H444 H 0.09069 0.02663 0.90896 0.0
H445 H 0.12224 0.10139 0.69513 0.0
H446 H 0.16202 0.13548 0.74101 0.0
H447 H 0.16572 0.11334 0.82868 0.0
H448 H 0.12971 0.05686 0.87078 0.0
C449 C 0.08607 0.99063 0.88211 0.0
C450 C 0.08161 0.01112 0.83105 0.0
C451 C 0.10267 0.04582 0.8073 0.0
C452 C 0.10047 0.05891 0.75684 0.0
C453 C 0.12242 0.09109 0.73355 0.0
C454 C 0.14554 0.11076 0.75943 0.0
C455 C 0.14763 0.09828 0.80875 0.0
C456 C 0.12664 0.0659 0.83252 0.0
H457 H 0.0665 0.13931 0.67387 0.0
C458 C 0.07279 0.09769 0.65354 0.0
H459 H 0.0831 0.00048 0.65688 0.0
H460 H 0.03519 0.95499 0.86758 0.0
H461 H 0.9951 0.9211 0.82146 0.0
H462 H 0.99248 0.93946 0.73303 0.0
H463 H 0.02918 0.99406 0.69062 0.0
C464 C 0.07693 0.04253 0.67677 0.0
C465 C 0.07709 0.03782 0.73045 0.0
C466 C 0.05545 0.00602 0.75464 0.0
C467 C 0.05748 0.9935 0.80523 0.0
C468 C 0.03512 0.96357 0.82886 0.0
C469 C 0.01191 0.94442 0.8029 0.0
C470 C 0.01033 0.95504 0.75318 0.0
C471 C 0.03166 0.98594 0.72919 0.0
H472 H 0.49609 0.84437 0.03767 0.0
C473 C 0.48184 0.84676 0.00715 0.0
H474 H 0.46948 0.89804 0.94498 0.0
H475 H 0.54785 0.09088 0.08164 0.0
H476 H 0.51275 0.07997 0.14369 0.0
H477 H 0.47269 0.01028 0.13108 0.0
H478 H 0.46794 0.94988 0.05695 0.0
C479 C 0.48309 0.89595 0.97635 0.0
C480 C 0.50488 0.94509 0.98148 0.0
C481 C 0.50641 0.98296 0.02388 0.0
C482 C 0.52853 0.02623 0.02984 0.0
C483 C 0.53072 0.0598 0.07411 0.0
C484 C 0.51082 0.05361 0.11024 0.0
C485 C 0.48835 0.01415 0.10324 0.0
C486 C 0.48603 0.97925 0.06063 0.0
H487 H 0.54071 0.15902 -0.00334 0.0
C488 C 0.56248 0.14599 -0.00273 0.0
H489 H 0.59122 0.07052 -0.00502 0.0
H490 H 0.50826 0.87986 0.89574 0.0
H491 H 0.54197 0.89522 0.83197 0.0
H492 H 0.57857 0.97513 0.84018 0.0
H493 H 0.58188 0.03967 0.91254 0.0
C494 C 0.5696 0.08461 -0.00414 0.0
C495 C 0.548 0.03492 0.99195 0.0
C496 C 0.54619 0.99796 0.94922 0.0
C497 C 0.52473 0.95275 0.94409 0.0
C498 C 0.5238 0.91564 0.90135 0.0
C499 C 0.54308 0.92386 0.86443 0.0
C500 C 0.5637 0.96878 0.86907 0.0
C501 C 0.56536 0.0055 0.91086 0.0
H502 H 0.56353 0.92983 0.44899 0.0
C503 C 0.5557 0.89487 0.47437 0.0
H504 H 0.5272 0.87633 0.5306 0.0
H505 H 0.50935 0.16072 0.59138 0.0
H506 H 0.5351 0.12023 0.66048 0.0
H507 H 0.55558 0.01322 0.65897 0.0
H508 H 0.55035 0.94593 0.58844 0.0
C509 C 0.53482 0.91036 0.5043 0.0
C510 C 0.52253 0.97507 0.5046 0.0
C511 C 0.52591 0.01393 0.54602 0.0
C512 C 0.51439 0.07593 0.54666 0.0
C513 C 0.51791 0.1135 0.58871 0.0
C514 C 0.5326 0.09082 0.62868 0.0
C515 C 0.54411 0.03055 0.62785 0.0
C516 C 0.5409 0.99237 0.58713 0.0
H517 H 0.44638 0.13581 0.50886 0.0
C518 C 0.46061 0.17537 0.50888 0.0
H519 H 0.50246 0.20339 0.50831 0.0
H520 H 0.50919 0.91036 0.42169 0.0
H521 H 0.48468 0.95197 0.35171 0.0
H522 H 0.4676 0.06203 0.35057 0.0
H523 H 0.47445 0.13068 0.4198 0.0
C524 C 0.48798 0.16439 0.50673 0.0
C525 C 0.49953 0.09904 0.50587 0.0
C526 C 0.49624 0.06031 0.4643 0.0
C527 C 0.50723 0.99777 0.46408 0.0
C528 C 0.50231 0.95902 0.42313 0.0
C529 C 0.48809 0.98218 0.38279 0.0
C530 C 0.47839 0.04406 0.38221 0.0
C531 C 0.48235 0.08288 0.42236 0.0
H532 H 0.04389 0.64205 0.01957 0.0
C533 C 0.0646 0.62688 0.02986 0.0
H534 H 0.08957 0.55045 0.05294 0.0
H535 H 0.99332 0.38699 0.1404 0.0
H536 H 0.02048 0.4114 0.21184 0.0
H537 H 0.05924 0.48631 0.20737 0.0
H538 H 0.07128 0.53676 0.13136 0.0
C539 C 0.06915 0.56593 0.04135 0.0
C540 C 0.04597 0.51967 0.0433 0.0
C541 C 0.03896 0.49112 0.08824 0.0
C542 C 0.01621 0.44889 0.09104 0.0
C543 C 0.01007 0.4202 0.13626 0.0
C544 C 0.02553 0.43368 0.1776 0.0
C545 C 0.04738 0.47578 0.17507 0.0
C546 C 0.0541 0.50433 0.13108 0.0
H547 H 0.99388 0.32407 0.00525 0.0
C548 C 0.97666 0.33567 0.02898 0.0
H549 H 0.95984 0.40259 0.07749 0.0
H550 H 0.05628 0.55781 0.9499 0.0
H551 H 0.02782 0.53756 0.87923 0.0
H552 H 0.98557 0.47347 0.88585 0.0
H553 H 0.97198 0.42792 0.96289 0.0
C554 C 0.97653 0.39118 0.05259 0.0
C555 C 1.00023 0.4358 0.04907 0.0
C556 C 1.00705 0.46492 0.0042 0.0
C557 C 0.03046 0.50518 0.00099 0.0
C558 C 0.03793 0.52971 0.955 0.0
C559 C 0.02189 0.518 0.914 0.0
C560 C 0.99819 0.48167 0.91768 0.0
C561 C 0.99074 0.45537 0.96212 0.0
H562 H 0.05716 0.3948 0.43304 0.0
C563 C 0.05703 0.37121 0.46813 0.0
H564 H 0.03947 0.36901 0.53817 0.0
H565 H 0.00839 0.6576 0.45166 0.0
H566 H 0.05769 0.67744 0.45352 0.0
H567 H 0.09064 0.59284 0.4759 0.0
H568 H 0.07453 0.48764 0.49582 0.0
C569 C 0.04065 0.39364 0.50359 0.0
C570 C 0.02091 0.44686 0.49444 0.0
C571 C 0.03062 0.50874 0.48458 0.0
C572 C 0.01153 0.55822 0.4735 0.0
C573 C 0.02189 0.61879 0.46171 0.0
C574 C 0.05016 0.63077 0.46245 0.0
C575 C 0.06871 0.58309 0.4749 0.0
C576 C 0.05919 0.52276 0.48595 0.0
H577 H 0.9686 0.64571 0.5284 0.0
C578 C 0.9573 0.64444 0.49427 0.0
H579 H 0.95073 0.59439 0.42903 0.0
H580 H 0.99517 0.33413 0.51236 0.0
H581 H 0.94583 0.31548 0.51333 0.0
H582 H 0.91277 0.40205 0.49668 0.0
H583 H 0.92891 0.50784 0.4787 0.0
C584 C 0.9625 0.59773 0.46254 0.0
C585 C 0.98271 0.54631 0.47393 0.0
C586 C 0.97299 0.48481 0.48472 0.0
C587 C 0.99207 0.43508 0.49496 0.0
C588 C 0.98168 0.37393 0.50493 0.0
C589 C 0.95337 0.36247 0.50551 0.0
C590 C 0.93476 0.41119 0.49608 0.0
C591 C 0.94432 0.47169 0.48575 0.0
loop_
_geom_bond_atom_site_label_1
_geom_bond_atom_site_label_2
_geom_bond_distance
_geom_bond_site_symmetry_2
_ccdc_geom_bond_type
Zn0 O3 2.031 . S
Zn0 O5 2.049 1_554 S
Zn0 O10 2.068 . S
Zn1 O2 1.962 . S
Zn1 O4 1.986 1_554 S
Zn1 O6 1.996 1_554 S
Zn1 O9 1.943 . S
O2 Zn1 1.962 . S
O2 C7 1.254 . S
O3 Zn0 2.031 . S
O3 C7 1.269 . S
O4 Zn1 1.986 1_556 S
O4 C11 1.262 1_556 S
O5 Zn0 2.049 1_556 S
O5 C13 1.260 . S
O6 Zn1 1.996 1_556 S
O6 C13 1.257 . S
C7 O2 1.254 . S
C7 O3 1.269 . S
C8 O9 1.249 . S
C8 O10 1.273 . S
O9 Zn1 1.943 . S
O9 C8 1.249 . S
O10 Zn0 2.068 . S
O10 C8 1.273 . S
C11 O4 1.262 1_554 S
C11 O12 1.232 . S
O12 C11 1.232 . S
C13 O5 1.260 . S
C13 O6 1.257 . S
Zn14 O17 2.031 . S
Zn14 O19 2.049 1_554 S
Zn14 O24 2.068 . S
Zn15 O16 1.962 . S
Zn15 O18 1.986 1_554 S
Zn15 O20 1.996 1_554 S
Zn15 O23 1.943 . S
O16 Zn15 1.962 . S
O16 C21 1.254 . S
O17 Zn14 2.031 . S
O17 C21 1.269 . S
O18 Zn15 1.986 1_556 S
O18 C25 1.262 1_556 S
O19 Zn14 2.049 1_556 S
O19 C27 1.260 . S
O20 Zn15 1.996 1_556 S
O20 C27 1.257 . S
C21 O16 1.254 . S
C21 O17 1.269 . S
C22 O23 1.249 . S
C22 O24 1.273 . S
O23 Zn15 1.943 . S
O23 C22 1.249 . S
O24 Zn14 2.068 . S
O24 C22 1.273 . S
C25 O18 1.262 1_554 S
C25 O26 1.232 . S
O26 C25 1.232 . S
C27 O19 1.260 . S
C27 O20 1.257 . S
Zn28 O31 2.031 . S
Zn28 O33 2.049 . S
Zn28 O38 2.067 . S
Zn29 O30 1.962 . S
Zn29 O32 1.986 . S
Zn29 O34 1.996 . S
Zn29 O37 1.943 . S
O30 Zn29 1.962 . S
O30 C35 1.254 . S
O31 Zn28 2.031 . S
O31 C35 1.269 . S
O32 Zn29 1.986 . S
O32 C39 1.262 . S
O33 Zn28 2.049 . S
O33 C41 1.260 . S
O34 Zn29 1.996 . S
O34 C41 1.257 . S
C35 O30 1.254 . S
C35 O31 1.269 . S
C36 O37 1.249 . S
C36 O38 1.270 . S
O37 Zn29 1.943 . S
O37 C36 1.249 . S
O38 Zn28 2.067 . S
O38 C36 1.270 . S
C39 O32 1.262 . S
C39 O40 1.232 . S
O40 C39 1.232 . S
C41 O33 1.260 . S
C41 O34 1.257 . S
Zn42 O45 2.031 . S
Zn42 O47 2.049 . S
Zn42 O52 2.067 . S
Zn43 O44 1.962 . S
Zn43 O46 1.986 . S
Zn43 O48 1.996 . S
Zn43 O51 1.943 . S
O44 Zn43 1.962 . S
O44 C49 1.254 . S
O45 Zn42 2.031 . S
O45 C49 1.269 . S
O46 Zn43 1.986 . S
O46 C53 1.262 . S
O47 Zn42 2.049 . S
O47 C55 1.260 . S
O48 Zn43 1.996 . S
O48 C55 1.257 . S
C49 O44 1.254 . S
C49 O45 1.269 . S
C50 O51 1.249 . S
C50 O52 1.270 . S
O51 Zn43 1.943 . S
O51 C50 1.249 . S
O52 Zn42 2.067 . S
O52 C50 1.270 . S
C53 O46 1.262 . S
C53 O54 1.232 . S
O54 C53 1.232 . S
C55 O47 1.260 . S
C55 O48 1.257 . S
Zn56 O59 2.031 . S
Zn56 O61 2.049 1_554 S
Zn56 O66 2.068 . S
Zn57 O58 1.962 . S
Zn57 O60 1.986 1_554 S
Zn57 O62 1.996 1_554 S
Zn57 O65 1.943 . S
O58 Zn57 1.962 . S
O58 C63 1.254 . S
O59 Zn56 2.031 . S
O59 C63 1.269 . S
O60 Zn57 1.986 1_556 S
O60 C67 1.262 1_556 S
O61 Zn56 2.049 1_556 S
O61 C69 1.260 . S
O62 Zn57 1.996 1_556 S
O62 C69 1.257 . S
C63 O58 1.254 . S
C63 O59 1.269 . S
C64 O65 1.249 . S
C64 O66 1.273 . S
O65 Zn57 1.943 . S
O65 C64 1.249 . S
O66 Zn56 2.068 . S
O66 C64 1.273 . S
C67 O60 1.262 1_554 S
C67 O68 1.232 . S
O68 C67 1.232 . S
C69 O61 1.260 . S
C69 O62 1.257 . S
Zn70 O73 2.031 . S
Zn70 O75 2.049 1_554 S
Zn70 O80 2.068 . S
Zn71 O72 1.962 . S
Zn71 O74 1.986 1_554 S
Zn71 O76 1.996 1_554 S
Zn71 O79 1.943 . S
O72 Zn71 1.962 . S
O72 C77 1.254 . S
O73 Zn70 2.031 . S
O73 C77 1.269 . S
O74 Zn71 1.986 1_556 S
O74 C81 1.262 1_556 S
O75 Zn70 2.049 1_556 S
O75 C83 1.260 . S
O76 Zn71 1.996 1_556 S
O76 C83 1.257 . S
C77 O72 1.254 . S
C77 O73 1.269 . S
C78 O79 1.249 . S
C78 O80 1.273 . S
O79 Zn71 1.943 . S
O79 C78 1.249 . S
O80 Zn70 2.068 . S
O80 C78 1.273 . S
C81 O74 1.262 1_554 S
C81 O82 1.232 . S
O82 C81 1.232 . S
C83 O75 1.260 . S
C83 O76 1.257 . S
Zn84 O87 2.031 . S
Zn84 O89 2.049 . S
Zn84 O94 2.067 . S
Zn85 O86 1.962 . S
Zn85 O88 1.986 . S
Zn85 O90 1.996 . S
Zn85 O93 1.943 . S
O86 Zn85 1.962 . S
O86 C91 1.254 . S
O87 Zn84 2.031 . S
O87 C91 1.269 . S
O88 Zn85 1.986 . S
O88 C95 1.262 . S
O89 Zn84 2.049 . S
O89 C97 1.260 . S
O90 Zn85 1.996 . S
O90 C97 1.257 . S
C91 O86 1.254 . S
C91 O87 1.269 . S
C92 O93 1.249 . S
C92 O94 1.270 . S
O93 Zn85 1.943 . S
O93 C92 1.249 . S
O94 Zn84 2.067 . S
O94 C92 1.270 . S
C95 O88 1.262 . S
C95 O96 1.232 . S
O96 C95 1.232 . S
C97 O89 1.260 . S
C97 O90 1.257 . S
Zn98 O101 2.031 . S
Zn98 O103 2.049 . S
Zn98 O108 2.067 . S
Zn99 O100 1.962 . S
Zn99 O102 1.986 . S
Zn99 O104 1.996 . S
Zn99 O107 1.943 . S
O100 Zn99 1.962 . S
O100 C105 1.254 . S
O101 Zn98 2.031 . S
O101 C105 1.269 . S
O102 Zn99 1.986 . S
O102 C109 1.262 . S
O103 Zn98 2.049 . S
O103 C111 1.260 . S
O104 Zn99 1.996 . S
O104 C111 1.257 . S
C105 O100 1.254 . S
C105 O101 1.269 . S
C106 O107 1.249 . S
C106 O108 1.270 . S
O107 Zn99 1.943 . S
O107 C106 1.249 . S
O108 Zn98 2.067 . S
O108 C106 1.270 . S
C109 O102 1.262 . S
C109 O110 1.232 . S
O110 C109 1.232 . S
C111 O103 1.260 . S
C111 O104 1.257 . S
H112 C113 0.951 . S
C113 H112 0.951 . S
C113 C119 1.265 . S
H114 C119 0.950 . S
H115 C123 0.949 . S
H116 C124 0.950 . S
H117 C125 0.951 . S
H118 C126 0.951 . S
C119 C113 1.265 . S
C119 H114 0.950 . S
C119 C120 1.478 . S
C120 C119 1.478 . S
C120 C121 1.397 . S
C120 C137 1.394 1_554 S
C121 C120 1.397 . S
C121 C122 1.438 . S
C121 C126 1.429 . S
C122 C121 1.438 . S
C122 C123 1.428 . S
C122 C135 1.394 . S
C123 H115 0.949 . S
C123 C122 1.428 . S
C123 C124 1.345 . S
C124 H116 0.950 . S
C124 C123 1.345 . S
C124 C125 1.424 . S
C125 H117 0.951 . S
C125 C124 1.424 . S
C125 C126 1.347 . S
C126 H118 0.951 . S
C126 C121 1.429 . S
C126 C125 1.347 . S
H127 C128 0.951 . S
C128 H127 0.951 . S
C128 C134 1.265 . S
H129 C134 0.950 . S
H130 C138 0.949 . S
H131 C139 0.950 . S
H132 C140 0.951 . S
H133 C141 0.951 . S
C134 C128 1.265 . S
C134 H129 0.950 . S
C134 C135 1.478 . S
C135 C122 1.394 . S
C135 C134 1.478 . S
C135 C136 1.397 1_554 S
C136 C135 1.397 1_556 S
C136 C137 1.438 . S
C136 C141 1.429 . S
C137 C120 1.394 1_556 S
C137 C136 1.438 . S
C137 C138 1.428 . S
C138 H130 0.949 . S
C138 C137 1.428 . S
C138 C139 1.345 . S
C139 H131 0.950 . S
C139 C138 1.345 . S
C139 C140 1.424 . S
C140 H132 0.951 . S
C140 C139 1.424 . S
C140 C141 1.347 . S
C141 H133 0.951 . S
C141 C136 1.429 . S
C141 C140 1.347 . S
H142 C143 0.951 . S
C143 H142 0.951 . S
C143 C149 1.265 . S
H144 C149 0.950 . S
H145 C153 0.949 . S
H146 C154 0.950 . S
H147 C155 0.951 . S
H148 C156 0.951 . S
C149 C143 1.265 . S
C149 H144 0.950 . S
C149 C150 1.478 . S
C150 C149 1.478 . S
C150 C151 1.397 . S
C150 C167 1.394 1_554 S
C151 C150 1.397 . S
C151 C152 1.438 . S
C151 C156 1.429 . S
C152 C151 1.438 . S
C152 C153 1.428 . S
C152 C165 1.394 . S
C153 H145 0.949 . S
C153 C152 1.428 . S
C153 C154 1.345 . S
C154 H146 0.950 . S
C154 C153 1.345 . S
C154 C155 1.424 . S
C155 H147 0.951 . S
C155 C154 1.424 . S
C155 C156 1.347 . S
C156 H148 0.951 . S
C156 C151 1.429 . S
C156 C155 1.347 . S
H157 C158 0.951 . S
C158 H157 0.951 . S
C158 C164 1.265 . S
H159 C164 0.950 . S
H160 C168 0.949 . S
H161 C169 0.950 . S
H162 C170 0.951 . S
H163 C171 0.951 . S
C164 C158 1.265 . S
C164 H159 0.950 . S
C164 C165 1.478 . S
C165 C152 1.394 . S
C165 C164 1.478 . S
C165 C166 1.397 1_554 S
C166 C165 1.397 1_556 S
C166 C167 1.438 . S
C166 C171 1.429 . S
C167 C150 1.394 1_556 S
C167 C166 1.438 . S
C167 C168 1.428 . S
C168 H160 0.949 . S
C168 C167 1.428 . S
C168 C169 1.345 . S
C169 H161 0.950 . S
C169 C168 1.345 . S
C169 C170 1.424 . S
C170 H162 0.951 . S
C170 C169 1.424 . S
C170 C171 1.347 . S
C171 H163 0.951 . S
C171 C166 1.429 . S
C171 C170 1.347 . S
H172 C173 0.951 . S
C173 H172 0.951 . S
C173 C179 1.265 . S
H174 C179 0.950 . S
H175 C183 0.949 . S
H176 C184 0.950 . S
H177 C185 0.951 . S
H178 C186 0.951 . S
C179 C173 1.265 . S
C179 H174 0.950 . S
C179 C180 1.478 . S
C180 C179 1.478 . S
C180 C181 1.397 . S
C180 C197 1.394 . S
C181 C180 1.397 . S
C181 C182 1.438 . S
C181 C186 1.429 . S
C182 C181 1.438 . S
C182 C183 1.428 . S
C182 C195 1.394 . S
C183 H175 0.949 . S
C183 C182 1.428 . S
C183 C184 1.345 . S
C184 H176 0.950 . S
C184 C183 1.345 . S
C184 C185 1.424 . S
C185 H177 0.951 . S
C185 C184 1.424 . S
C185 C186 1.347 . S
C186 H178 0.951 . S
C186 C181 1.429 . S
C186 C185 1.347 . S
H187 C188 0.951 . S
C188 H187 0.951 . S
C188 C194 1.265 . S
H189 C194 0.950 . S
H190 C198 0.949 . S
H191 C199 0.950 . S
H192 C200 0.951 . S
H193 C201 0.951 . S
C194 C188 1.265 . S
C194 H189 0.950 . S
C194 C195 1.478 . S
C195 C182 1.394 . S
C195 C194 1.478 . S
C195 C196 1.397 . S
C196 C195 1.397 . S
C196 C197 1.438 . S
C196 C201 1.429 . S
C197 C180 1.394 . S
C197 C196 1.438 . S
C197 C198 1.428 . S
C198 H190 0.949 . S
C198 C197 1.428 . S
C198 C199 1.345 . S
C199 H191 0.950 . S
C199 C198 1.345 . S
C199 C200 1.424 . S
C200 H192 0.951 . S
C200 C199 1.424 . S
C200 C201 1.347 . S
C201 H193 0.951 . S
C201 C196 1.429 . S
C201 C200 1.347 . S
H202 C203 0.951 . S
C203 H202 0.951 . S
C203 C209 1.265 . S
H204 C209 0.950 . S
H205 C213 0.949 . S
H206 C214 0.950 . S
H207 C215 0.951 . S
H208 C216 0.951 . S
C209 C203 1.265 . S
C209 H204 0.950 . S
C209 C210 1.478 . S
C210 C209 1.478 . S
C210 C211 1.397 . S
C210 C227 1.394 . S
C211 C210 1.397 . S
C211 C212 1.438 . S
C211 C216 1.429 . S
C212 C211 1.438 . S
C212 C213 1.428 . S
C212 C225 1.394 . S
C213 H205 0.949 . S
C213 C212 1.428 . S
C213 C214 1.345 . S
C214 H206 0.950 . S
C214 C213 1.345 . S
C214 C215 1.424 . S
C215 H207 0.951 . S
C215 C214 1.424 . S
C215 C216 1.347 . S
C216 H208 0.951 . S
C216 C211 1.429 . S
C216 C215 1.347 . S
H217 C218 0.951 . S
C218 H217 0.951 . S
C218 C224 1.265 . S
H219 C224 0.950 . S
H220 C228 0.949 . S
H221 C229 0.950 . S
H222 C230 0.951 . S
H223 C231 0.951 . S
C224 C218 1.265 . S
C224 H219 0.950 . S
C224 C225 1.478 . S
C225 C212 1.394 . S
C225 C224 1.478 . S
C225 C226 1.397 . S
C226 C225 1.397 . S
C226 C227 1.438 . S
C226 C231 1.429 . S
C227 C210 1.394 . S
C227 C226 1.438 . S
C227 C228 1.428 . S
C228 H220 0.949 . S
C228 C227 1.428 . S
C228 C229 1.345 . S
C229 H221 0.950 . S
C229 C228 1.345 . S
C229 C230 1.424 . S
C230 H222 0.951 . S
C230 C229 1.424 . S
C230 C231 1.347 . S
C231 H223 0.951 . S
C231 C226 1.429 . S
C231 C230 1.347 . S
H232 C233 0.951 . S
C233 H232 0.951 . S
C233 C239 1.265 . S
H234 C239 0.950 . S
H235 C243 0.949 . S
H236 C244 0.950 . S
H237 C245 0.951 . S
H238 C246 0.951 . S
C239 C233 1.265 . S
C239 H234 0.950 . S
C239 C240 1.478 . S
C240 C239 1.478 . S
C240 C241 1.397 . S
C240 C257 1.394 . S
C241 C240 1.397 . S
C241 C242 1.438 . S
C241 C246 1.429 . S
C242 C241 1.438 . S
C242 C243 1.428 . S
C242 C255 1.394 . S
C243 H235 0.949 . S
C243 C242 1.428 . S
C243 C244 1.345 . S
C244 H236 0.950 . S
C244 C243 1.345 . S
C244 C245 1.424 . S
C245 H237 0.951 . S
C245 C244 1.424 . S
C245 C246 1.347 . S
C246 H238 0.951 . S
C246 C241 1.429 . S
C246 C245 1.347 . S
H247 C248 0.951 . S
C248 H247 0.951 . S
C248 C254 1.265 . S
H249 C254 0.950 . S
H250 C258 0.949 . S
H251 C259 0.950 . S
H252 C260 0.951 . S
H253 C261 0.951 . S
C254 C248 1.265 . S
C254 H249 0.950 . S
C254 C255 1.478 . S
C255 C242 1.394 . S
C255 C254 1.478 . S
C255 C256 1.397 . S
C256 C255 1.397 . S
C256 C257 1.438 . S
C256 C261 1.429 . S
C257 C240 1.394 . S
C257 C256 1.438 . S
C257 C258 1.428 . S
C258 H250 0.949 . S
C258 C257 1.428 . S
C258 C259 1.345 . S
C259 H251 0.950 . S
C259 C258 1.345 . S
C259 C260 1.424 . S
C260 H252 0.951 . S
C260 C259 1.424 . S
C260 C261 1.347 . S
C261 H253 0.951 . S
C261 C256 1.429 . S
C261 C260 1.347 . S
H262 C263 0.951 . S
C263 H262 0.951 . S
C263 C269 1.265 . S
H264 C269 0.950 . S
H265 C273 0.949 . S
H266 C274 0.950 . S
H267 C275 0.951 . S
H268 C276 0.951 . S
C269 C263 1.265 . S
C269 H264 0.950 . S
C269 C270 1.478 . S
C270 C269 1.478 . S
C270 C271 1.397 . S
C270 C287 1.394 . S
C271 C270 1.397 . S
C271 C272 1.438 . S
C271 C276 1.429 . S
C272 C271 1.438 . S
C272 C273 1.428 . S
C272 C285 1.394 . S
C273 H265 0.949 . S
C273 C272 1.428 . S
C273 C274 1.345 . S
C274 H266 0.950 . S
C274 C273 1.345 . S
C274 C275 1.424 . S
C275 H267 0.951 . S
C275 C274 1.424 . S
C275 C276 1.347 . S
C276 H268 0.951 . S
C276 C271 1.429 . S
C276 C275 1.347 . S
H277 C278 0.951 . S
C278 H277 0.951 . S
C278 C284 1.265 . S
H279 C284 0.950 . S
H280 C288 0.949 . S
H281 C289 0.950 . S
H282 C290 0.951 . S
H283 C291 0.951 . S
C284 C278 1.265 . S
C284 H279 0.950 . S
C284 C285 1.478 . S
C285 C272 1.394 . S
C285 C284 1.478 . S
C285 C286 1.397 . S
C286 C285 1.397 . S
C286 C287 1.438 . S
C286 C291 1.429 . S
C287 C270 1.394 . S
C287 C286 1.438 . S
C287 C288 1.428 . S
C288 H280 0.949 . S
C288 C287 1.428 . S
C288 C289 1.345 . S
C289 H281 0.950 . S
C289 C288 1.345 . S
C289 C290 1.424 . S
C290 H282 0.951 . S
C290 C289 1.424 . S
C290 C291 1.347 . S
C291 H283 0.951 . S
C291 C286 1.429 . S
C291 C290 1.347 . S
H292 C293 0.951 . S
C293 H292 0.951 . S
C293 C299 1.265 . S
H294 C299 0.950 . S
H295 C303 0.949 . S
H296 C304 0.950 . S
H297 C305 0.951 . S
H298 C306 0.951 . S
C299 C293 1.265 . S
C299 H294 0.950 . S
C299 C300 1.478 . S
C300 C299 1.478 . S
C300 C301 1.397 . S
C300 C317 1.394 . S
C301 C300 1.397 . S
C301 C302 1.438 . S
C301 C306 1.429 . S
C302 C301 1.438 . S
C302 C303 1.428 . S
C302 C315 1.394 . S
C303 H295 0.949 . S
C303 C302 1.428 . S
C303 C304 1.345 . S
C304 H296 0.950 . S
C304 C303 1.345 . S
C304 C305 1.424 . S
C305 H297 0.951 . S
C305 C304 1.424 . S
C305 C306 1.347 . S
C306 H298 0.951 . S
C306 C301 1.429 . S
C306 C305 1.347 . S
H307 C308 0.951 . S
C308 H307 0.951 . S
C308 C314 1.265 . S
H309 C314 0.950 . S
H310 C318 0.949 . S
H311 C319 0.950 . S
H312 C320 0.951 . S
H313 C321 0.951 . S
C314 C308 1.265 . S
C314 H309 0.950 . S
C314 C315 1.478 . S
C315 C302 1.394 . S
C315 C314 1.478 . S
C315 C316 1.397 . S
C316 C315 1.397 . S
C316 C317 1.438 . S
C316 C321 1.429 . S
C317 C300 1.394 . S
C317 C316 1.438 . S
C317 C318 1.428 . S
C318 H310 0.949 . S
C318 C317 1.428 . S
C318 C319 1.345 . S
C319 H311 0.950 . S
C319 C318 1.345 . S
C319 C320 1.424 . S
C320 H312 0.951 . S
C320 C319 1.424 . S
C320 C321 1.347 . S
C321 H313 0.951 . S
C321 C316 1.429 . S
C321 C320 1.347 . S
H322 C323 0.951 . S
C323 H322 0.951 . S
C323 C329 1.265 . S
H324 C329 0.950 . S
H325 C333 0.949 . S
H326 C334 0.950 . S
H327 C335 0.951 . S
H328 C336 0.951 . S
C329 C323 1.265 . S
C329 H324 0.950 . S
C329 C330 1.478 . S
C330 C329 1.478 . S
C330 C331 1.397 . S
C330 C347 1.394 . S
C331 C330 1.397 . S
C331 C332 1.438 . S
C331 C336 1.429 . S
C332 C331 1.438 . S
C332 C333 1.428 . S
C332 C345 1.394 . S
C333 H325 0.949 . S
C333 C332 1.428 . S
C333 C334 1.345 . S
C334 H326 0.950 . S
C334 C333 1.345 . S
C334 C335 1.424 . S
C335 H327 0.951 . S
C335 C334 1.424 . S
C335 C336 1.347 . S
C336 H328 0.951 . S
C336 C331 1.429 . S
C336 C335 1.347 . S
H337 C338 0.951 . S
C338 H337 0.951 . S
C338 C344 1.265 . S
H339 C344 0.950 . S
H340 C348 0.949 . S
H341 C349 0.950 . S
H342 C350 0.951 . S
H343 C351 0.951 . S
C344 C338 1.265 . S
C344 H339 0.950 . S
C344 C345 1.478 . S
C345 C332 1.394 . S
C345 C344 1.478 . S
C345 C346 1.397 . S
C346 C345 1.397 . S
C346 C347 1.438 . S
C346 C351 1.429 . S
C347 C330 1.394 . S
C347 C346 1.438 . S
C347 C348 1.428 . S
C348 H340 0.949 . S
C348 C347 1.428 . S
C348 C349 1.345 . S
C349 H341 0.950 . S
C349 C348 1.345 . S
C349 C350 1.424 . S
C350 H342 0.951 . S
C350 C349 1.424 . S
C350 C351 1.347 . S
C351 H343 0.951 . S
C351 C346 1.429 . S
C351 C350 1.347 . S
H352 C353 0.951 . S
C353 H352 0.951 . S
C353 C359 1.265 . S
H354 C359 0.950 . S
H355 C363 0.949 . S
H356 C364 0.950 . S
H357 C365 0.951 . S
H358 C366 0.951 . S
C359 C353 1.265 . S
C359 H354 0.950 . S
C359 C360 1.478 . S
C360 C359 1.478 . S
C360 C361 1.397 . S
C360 C377 1.394 1_565 S
C361 C360 1.397 . S
C361 C362 1.438 . S
C361 C366 1.429 . S
C362 C361 1.438 . S
C362 C363 1.428 . S
C362 C375 1.394 1_565 S
C363 H355 0.949 . S
C363 C362 1.428 . S
C363 C364 1.345 . S
C364 H356 0.950 . S
C364 C363 1.345 . S
C364 C365 1.424 . S
C365 H357 0.951 . S
C365 C364 1.424 . S
C365 C366 1.347 . S
C366 H358 0.951 . S
C366 C361 1.429 . S
C366 C365 1.347 . S
H367 C368 0.951 . S
C368 H367 0.951 . S
C368 C374 1.265 . S
H369 C374 0.950 . S
H370 C378 0.949 . S
H371 C379 0.950 . S
H372 C380 0.951 . S
H373 C381 0.951 . S
C374 C368 1.265 . S
C374 H369 0.950 . S
C374 C375 1.478 . S
C375 C362 1.394 1_545 S
C375 C374 1.478 . S
C375 C376 1.397 . S
C376 C375 1.397 . S
C376 C377 1.438 . S
C376 C381 1.429 . S
C377 C360 1.394 1_545 S
C377 C376 1.438 . S
C377 C378 1.428 . S
C378 H370 0.949 . S
C378 C377 1.428 . S
C378 C379 1.345 . S
C379 H371 0.950 . S
C379 C378 1.345 . S
C379 C380 1.424 . S
C380 H372 0.951 . S
C380 C379 1.424 . S
C380 C381 1.347 . S
C381 H373 0.951 . S
C381 C376 1.429 . S
C381 C380 1.347 . S
H382 C383 0.951 . S
C383 H382 0.951 . S
C383 C389 1.265 . S
H384 C389 0.950 . S
H385 C393 0.949 . S
H386 C394 0.950 . S
H387 C395 0.951 . S
H388 C396 0.951 . S
C389 C383 1.265 . S
C389 H384 0.950 . S
C389 C390 1.478 . S
C390 C389 1.478 . S
C390 C391 1.397 . S
C390 C407 1.394 1_565 S
C391 C390 1.397 . S
C391 C392 1.438 . S
C391 C396 1.429 . S
C392 C391 1.438 . S
C392 C393 1.428 . S
C392 C405 1.394 1_565 S
C393 H385 0.949 . S
C393 C392 1.428 . S
C393 C394 1.345 . S
C394 H386 0.950 . S
C394 C393 1.345 . S
C394 C395 1.424 . S
C395 H387 0.951 . S
C395 C394 1.424 . S
C395 C396 1.347 . S
C396 H388 0.951 . S
C396 C391 1.429 . S
C396 C395 1.347 . S
H397 C398 0.951 . S
C398 H397 0.951 . S
C398 C404 1.265 . S
H399 C404 0.950 . S
H400 C408 0.949 . S
H401 C409 0.950 . S
H402 C410 0.951 . S
H403 C411 0.951 . S
C404 C398 1.265 . S
C404 H399 0.950 . S
C404 C405 1.478 . S
C405 C392 1.394 1_545 S
C405 C404 1.478 . S
C405 C406 1.397 . S
C406 C405 1.397 . S
C406 C407 1.438 . S
C406 C411 1.429 . S
C407 C390 1.394 1_545 S
C407 C406 1.438 . S
C407 C408 1.428 . S
C408 H400 0.949 . S
C408 C407 1.428 . S
C408 C409 1.345 . S
C409 H401 0.950 . S
C409 C408 1.345 . S
C409 C410 1.424 . S
C410 H402 0.951 . S
C410 C409 1.424 . S
C410 C411 1.347 . S
C411 H403 0.951 . S
C411 C406 1.429 . S
C411 C410 1.347 . S
H412 C413 0.951 . S
C413 H412 0.951 . S
C413 C419 1.265 . S
H414 C419 0.950 . S
H415 C423 0.949 . S
H416 C424 0.950 . S
H417 C425 0.951 . S
H418 C426 0.951 . S
C419 C413 1.265 . S
C419 H414 0.950 . S
C419 C420 1.478 . S
C420 C419 1.478 . S
C420 C421 1.397 1_565 S
C420 C437 1.394 . S
C421 C420 1.397 1_545 S
C421 C422 1.438 . S
C421 C426 1.429 . S
C422 C421 1.438 . S
C422 C423 1.428 . S
C422 C435 1.394 . S
C423 H415 0.949 . S
C423 C422 1.428 . S
C423 C424 1.345 . S
C424 H416 0.950 . S
C424 C423 1.345 . S
C424 C425 1.424 . S
C425 H417 0.951 . S
C425 C424 1.424 . S
C425 C426 1.347 . S
C426 H418 0.951 . S
C426 C421 1.429 . S
C426 C425 1.347 . S
H427 C428 0.951 . S
C428 H427 0.951 . S
C428 C434 1.265 . S
H429 C434 0.950 . S
H430 C438 0.949 . S
H431 C439 0.950 . S
H432 C440 0.951 . S
H433 C441 0.951 . S
C434 C428 1.265 . S
C434 H429 0.950 . S
C434 C435 1.478 . S
C435 C422 1.394 . S
C435 C434 1.478 . S
C435 C436 1.397 1_545 S
C436 C435 1.397 1_565 S
C436 C437 1.438 . S
C436 C441 1.429 . S
C437 C420 1.394 . S
C437 C436 1.438 . S
C437 C438 1.428 . S
C438 H430 0.949 . S
C438 C437 1.428 . S
C438 C439 1.345 . S
C439 H431 0.950 . S
C439 C438 1.345 . S
C439 C440 1.424 . S
C440 H432 0.951 . S
C440 C439 1.424 . S
C440 C441 1.347 . S
C441 H433 0.951 . S
C441 C436 1.429 . S
C441 C440 1.347 . S
H442 C443 0.951 . S
C443 H442 0.951 . S
C443 C449 1.265 . S
H444 C449 0.950 . S
H445 C453 0.949 . S
H446 C454 0.950 . S
H447 C455 0.951 . S
H448 C456 0.951 . S
C449 C443 1.265 . S
C449 H444 0.950 . S
C449 C450 1.478 . S
C450 C449 1.478 . S
C450 C451 1.397 . S
C450 C467 1.394 . S
C451 C450 1.397 . S
C451 C452 1.438 1_565 S
C451 C456 1.429 . S
C452 C451 1.438 1_545 S
C452 C453 1.428 . S
C452 C465 1.394 . S
C453 H445 0.949 . S
C453 C452 1.428 . S
C453 C454 1.345 . S
C454 H446 0.950 . S
C454 C453 1.345 . S
C454 C455 1.424 1_545 S
C455 H447 0.951 . S
C455 C454 1.424 1_565 S
C455 C456 1.347 . S
C456 H448 0.951 . S
C456 C451 1.429 . S
C456 C455 1.347 . S
H457 C458 0.951 . S
C458 H457 0.951 . S
C458 C464 1.265 . S
H459 C464 0.950 . S
H460 C468 0.949 . S
H461 C469 0.950 . S
H462 C470 0.951 1_655 S
H463 C471 0.951 . S
C464 C458 1.265 . S
C464 H459 0.950 . S
C464 C465 1.478 . S
C465 C452 1.394 . S
C465 C464 1.478 . S
C465 C466 1.397 . S
C466 C465 1.397 . S
C466 C467 1.438 1_545 S
C466 C471 1.429 . S
C467 C450 1.394 . S
C467 C466 1.438 1_565 S
C467 C468 1.428 . S
C468 H460 0.949 . S
C468 C467 1.428 . S
C468 C469 1.345 . S
C469 H461 0.950 . S
C469 C468 1.345 . S
C469 C470 1.424 1_565 S
C470 H462 0.951 1_455 S
C470 C469 1.424 1_545 S
C470 C471 1.347 . S
C471 H463 0.951 . S
C471 C466 1.429 . S
C471 C470 1.347 . S
H472 C473 0.951 . S
C473 H472 0.951 . S
C473 C479 1.265 . S
H474 C479 0.950 . S
H475 C483 0.949 . S
H476 C484 0.950 . S
H477 C485 0.951 . S
H478 C486 0.951 . S
C479 C473 1.265 . S
C479 H474 0.950 . S
C479 C480 1.478 . S
C480 C479 1.478 . S
C480 C481 1.397 . S
C480 C497 1.394 1_554 S
C481 C480 1.397 . S
C481 C482 1.438 1_565 S
C481 C486 1.429 . S
C482 C481 1.438 1_545 S
C482 C483 1.428 . S
C482 C495 1.394 . S
C483 H475 0.949 . S
C483 C482 1.428 . S
C483 C484 1.345 . S
C484 H476 0.950 . S
C484 C483 1.345 . S
C484 C485 1.424 . S
C485 H477 0.951 . S
C485 C484 1.424 . S
C485 C486 1.347 1_545 S
C486 H478 0.951 . S
C486 C481 1.429 . S
C486 C485 1.347 1_565 S
H487 C488 0.951 . S
C488 H487 0.951 . S
C488 C494 1.265 . S
H489 C494 0.956 . S
H490 C498 0.949 . S
H491 C499 0.950 . S
H492 C500 0.951 . S
H493 C501 0.951 . S
C494 C488 1.265 . S
C494 H489 0.956 . S
C494 C495 1.478 . S
C495 C482 1.394 . S
C495 C494 1.478 . S
C495 C496 1.397 1_554 S
C496 C495 1.397 1_556 S
C496 C497 1.438 1_545 S
C496 C501 1.429 . S
C497 C480 1.394 1_556 S
C497 C496 1.438 1_565 S
C497 C498 1.428 . S
C498 H490 0.949 . S
C498 C497 1.428 . S
C498 C499 1.345 . S
C499 H491 0.950 . S
C499 C498 1.345 . S
C499 C500 1.424 . S
C500 H492 0.951 . S
C500 C499 1.424 . S
C500 C501 1.347 1_565 S
C501 H493 0.951 . S
C501 C496 1.429 . S
C501 C500 1.347 1_545 S
H502 C503 0.951 . S
C503 H502 0.951 . S
C503 C509 1.265 . S
H504 C509 0.950 . S
H505 C513 0.949 . S
H506 C514 0.950 . S
H507 C515 0.951 1_565 S
H508 C516 0.951 . S
C509 C503 1.265 . S
C509 H504 0.950 . S
C509 C510 1.478 . S
C510 C509 1.478 . S
C510 C511 1.397 . S
C510 C527 1.394 . S
C511 C510 1.397 . S
C511 C512 1.438 1_565 S
C511 C516 1.429 . S
C512 C511 1.438 1_545 S
C512 C513 1.428 . S
C512 C525 1.394 . S
C513 H505 0.949 . S
C513 C512 1.428 . S
C513 C514 1.345 . S
C514 H506 0.950 . S
C514 C513 1.345 . S
C514 C515 1.424 . S
C515 H507 0.951 1_545 S
C515 C514 1.424 . S
C515 C516 1.347 1_545 S
C516 H508 0.951 . S
C516 C511 1.429 . S
C516 C515 1.347 1_565 S
H517 C518 0.951 . S
C518 H517 0.951 . S
C518 C524 1.265 . S
H519 C524 0.950 . S
H520 C528 0.949 . S
H521 C529 0.950 . S
H522 C530 0.951 1_545 S
H523 C531 0.951 . S
C524 C518 1.265 . S
C524 H519 0.950 . S
C524 C525 1.478 . S
C525 C512 1.394 . S
C525 C524 1.478 . S
C525 C526 1.397 . S
C526 C525 1.397 . S
C526 C527 1.438 1_545 S
C526 C531 1.429 . S
C527 C510 1.394 . S
C527 C526 1.438 1_565 S
C527 C528 1.428 . S
C528 H520 0.949 . S
C528 C527 1.428 . S
C528 C529 1.345 . S
C529 H521 0.950 . S
C529 C528 1.345 . S
C529 C530 1.424 . S
C530 H522 0.951 1_565 S
C530 C529 1.424 . S
C530 C531 1.347 1_565 S
C531 H523 0.951 . S
C531 C526 1.429 . S
C531 C530 1.347 1_545 S
H532 C533 0.951 . S
C533 H532 0.951 . S
C533 C539 1.265 . S
H534 C539 0.950 . S
H535 C543 0.949 . S
H536 C544 0.950 . S
H537 C545 0.951 . S
H538 C546 0.951 . S
C539 C533 1.265 . S
C539 H534 0.950 . S
C539 C540 1.478 . S
C540 C539 1.478 . S
C540 C541 1.397 . S
C540 C557 1.394 1_554 S
C541 C540 1.397 . S
C541 C542 1.438 1_455 S
C541 C546 1.429 . S
C542 C541 1.438 1_655 S
C542 C543 1.428 . S
C542 C555 1.394 . S
C543 H535 0.949 . S
C543 C542 1.428 . S
C543 C544 1.345 1_655 S
C544 H536 0.950 . S
C544 C543 1.345 1_455 S
C544 C545 1.424 . S
C545 H537 0.951 . S
C545 C544 1.424 . S
C545 C546 1.347 . S
C546 H538 0.951 . S
C546 C541 1.429 . S
C546 C545 1.347 . S
H547 C548 0.951 . S
C548 H547 0.951 . S
C548 C554 1.265 . S
H549 C554 0.950 . S
H550 C558 0.949 . S
H551 C559 0.950 . S
H552 C560 0.951 . S
H553 C561 0.951 . S
C554 C548 1.265 . S
C554 H549 0.950 . S
C554 C555 1.478 . S
C555 C542 1.394 . S
C555 C554 1.478 . S
C555 C556 1.397 1_554 S
C556 C555 1.397 1_556 S
C556 C557 1.438 1_655 S
C556 C561 1.429 . S
C557 C540 1.394 1_556 S
C557 C556 1.438 1_455 S
C557 C558 1.428 . S
C558 H550 0.949 . S
C558 C557 1.428 . S
C558 C559 1.345 1_455 S
C559 H551 0.950 . S
C559 C558 1.345 1_655 S
C559 C560 1.424 . S
C560 H552 0.951 . S
C560 C559 1.424 . S
C560 C561 1.347 . S
C561 H553 0.951 . S
C561 C556 1.429 . S
C561 C560 1.347 . S
H562 C563 0.951 . S
C563 H562 0.951 . S
C563 C569 1.265 . S
H564 C569 0.950 . S
H565 C573 0.949 1_655 S
H566 C574 0.950 . S
H567 C575 0.951 . S
H568 C576 0.951 . S
C569 C563 1.265 . S
C569 H564 0.950 . S
C569 C570 1.478 . S
C570 C569 1.478 . S
C570 C571 1.397 . S
C570 C587 1.394 1_455 S
C571 C570 1.397 . S
C571 C572 1.438 . S
C571 C576 1.429 . S
C572 C571 1.438 . S
C572 C573 1.428 . S
C572 C585 1.394 1_455 S
C573 H565 0.949 1_455 S
C573 C572 1.428 . S
C573 C574 1.345 . S
C574 H566 0.950 . S
C574 C573 1.345 . S
C574 C575 1.424 . S
C575 H567 0.951 . S
C575 C574 1.424 . S
C575 C576 1.347 . S
C576 H568 0.951 . S
C576 C571 1.429 . S
C576 C575 1.347 . S
H577 C578 0.951 . S
C578 H577 0.951 . S
C578 C584 1.265 . S
H579 C584 0.950 . S
H580 C588 0.949 1_455 S
H581 C589 0.950 . S
H582 C590 0.951 . S
H583 C591 0.951 . S
C584 C578 1.265 . S
C584 H579 0.950 . S
C584 C585 1.478 . S
C585 C572 1.394 1_655 S
C585 C584 1.478 . S
C585 C586 1.397 . S
C586 C585 1.397 . S
C586 C587 1.438 . S
C586 C591 1.429 . S
C587 C570 1.394 1_655 S
C587 C586 1.438 . S
C587 C588 1.428 . S
C588 H580 0.949 1_655 S
C588 C587 1.428 . S
C588 C589 1.345 . S
C589 H581 0.950 . S
C589 C588 1.345 . S
C589 C590 1.424 . S
C590 H582 0.951 . S
C590 C589 1.424 . S
C590 C591 1.347 . S
C591 H583 0.951 . S
C591 C586 1.429 . S
C591 C590 1.347 . S
C113 C78 1.481 . S
C128 C8 1.489 . S
C143 C64 1.485 . S
C158 C22 1.486 . S
C173 C106 1.482 . S
C188 C36 1.489 . S
C203 C92 1.423 . S
C218 C50 1.408 . S
C233 C7 1.403 . S
C248 C35 1.377 . S
C263 C21 1.398 . S
C278 C49 1.370 . S
C293 C27 1.346 . S
C308 C55 1.258 . S
C323 C13 1.371 . S
C338 C41 1.281 . S
C353 C63 1.383 . S
C368 C91 1.405 . S
C383 C105 1.365 . S
C398 C77 1.388 . S
C413 C111 1.264 . S
C428 C83 1.355 . S
C443 C69 1.385 . S
C458 C97 1.345 . S
C473 C25 1.503 . S
C488 C11 1.496 . S
C503 C39 1.487 . S
C518 C53 1.506 . S
C533 C67 1.501 . S
C548 C81 1.499 . S
C563 C95 1.495 . S
C578 C109 1.504 . S
