# Generated by pormake.
# Topology ukk, (4)-cn, num edge types: 1
# Building blocks:
#     Node 0, Type 0, BuildingBlock: CEKHIL_clean_sbu_0, # of connection points: 4
#     Node 1, Type 0, BuildingBlock: CEKHIL_clean_sbu_0, # of connection points: 4
#     Node 2, Type 0, BuildingBlock: CEKHIL_clean_sbu_0, # of connection points: 4
#     Node 3, Type 0, BuildingBlock: CEKHIL_clean_sbu_0, # of connection points: 4
#     Node 4, Type 0, BuildingBlock: CEKHIL_clean_sbu_0, # of connection points: 4
#     Node 5, Type 0, BuildingBlock: CEKHIL_clean_sbu_0, # of connection points: 4
#     Node 6, Type 0, BuildingBlock: CEKHIL_clean_sbu_0, # of connection points: 4
#     Node 7, Type 0, BuildingBlock: CEKHIL_clean_sbu_0, # of connection points: 4
#     Node 8, Type 0, BuildingBlock: CEKHIL_clean_sbu_0, # of connection points: 4
#     Node 9, Type 0, BuildingBlock: CEKHIL_clean_sbu_0, # of connection points: 4
#     Node 10, Type 0, BuildingBlock: CEKHIL_clean_sbu_0, # of connection points: 4
#     Node 11, Type 0, BuildingBlock: CEKHIL_clean_sbu_0, # of connection points: 4
#     Node 12, Type 0, BuildingBlock: CEKHIL_clean_sbu_0, # of connection points: 4
#     Node 13, Type 0, BuildingBlock: CEKHIL_clean_sbu_0, # of connection points: 4
#     Node 14, Type 0, BuildingBlock: CEKHIL_clean_sbu_0, # of connection points: 4
#     Node 15, Type 0, BuildingBlock: CEKHIL_clean_sbu_0, # of connection points: 4
#     Edge 16, Type (0, 0), BuildingBlock: AJUNOK_clean_linker_0, # of connection points: 2
#     Edge 17, Type (0, 0), BuildingBlock: AJUNOK_clean_linker_0, # of connection points: 2
#     Edge 18, Type (0, 0), BuildingBlock: AJUNOK_clean_linker_0, # of connection points: 2
#     Edge 19, Type (0, 0), BuildingBlock: AJUNOK_clean_linker_0, # of connection points: 2
#     Edge 20, Type (0, 0), BuildingBlock: AJUNOK_clean_linker_0, # of connection points: 2
#     Edge 21, Type (0, 0), BuildingBlock: AJUNOK_clean_linker_0, # of connection points: 2
#     Edge 22, Type (0, 0), BuildingBlock: AJUNOK_clean_linker_0, # of connection points: 2
#     Edge 23, Type (0, 0), BuildingBlock: AJUNOK_clean_linker_0, # of connection points: 2
#     Edge 24, Type (0, 0), BuildingBlock: AJUNOK_clean_linker_0, # of connection points: 2
#     Edge 25, Type (0, 0), BuildingBlock: AJUNOK_clean_linker_0, # of connection points: 2
#     Edge 26, Type (0, 0), BuildingBlock: AJUNOK_clean_linker_0, # of connection points: 2
#     Edge 27, Type (0, 0), BuildingBlock: AJUNOK_clean_linker_0, # of connection points: 2
#     Edge 28, Type (0, 0), BuildingBlock: AJUNOK_clean_linker_0, # of connection points: 2
#     Edge 29, Type (0, 0), BuildingBlock: AJUNOK_clean_linker_0, # of connection points: 2
#     Edge 30, Type (0, 0), BuildingBlock: AJUNOK_clean_linker_0, # of connection points: 2
#     Edge 31, Type (0, 0), BuildingBlock: AJUNOK_clean_linker_0, # of connection points: 2
#     Edge 32, Type (0, 0), BuildingBlock: AJUNOK_clean_linker_0, # of connection points: 2
#     Edge 33, Type (0, 0), BuildingBlock: AJUNOK_clean_linker_0, # of connection points: 2
#     Edge 34, Type (0, 0), BuildingBlock: AJUNOK_clean_linker_0, # of connection points: 2
#     Edge 35, Type (0, 0), BuildingBlock: AJUNOK_clean_linker_0, # of connection points: 2
#     Edge 36, Type (0, 0), BuildingBlock: AJUNOK_clean_linker_0, # of connection points: 2
#     Edge 37, Type (0, 0), BuildingBlock: AJUNOK_clean_linker_0, # of connection points: 2
#     Edge 38, Type (0, 0), BuildingBlock: AJUNOK_clean_linker_0, # of connection points: 2
#     Edge 39, Type (0, 0), BuildingBlock: AJUNOK_clean_linker_0, # of connection points: 2
#     Edge 40, Type (0, 0), BuildingBlock: AJUNOK_clean_linker_0, # of connection points: 2
#     Edge 41, Type (0, 0), BuildingBlock: AJUNOK_clean_linker_0, # of connection points: 2
#     Edge 42, Type (0, 0), BuildingBlock: AJUNOK_clean_linker_0, # of connection points: 2
#     Edge 43, Type (0, 0), BuildingBlock: AJUNOK_clean_linker_0, # of connection points: 2
#     Edge 44, Type (0, 0), BuildingBlock: AJUNOK_clean_linker_0, # of connection points: 2
#     Edge 45, Type (0, 0), BuildingBlock: AJUNOK_clean_linker_0, # of connection points: 2
#     Edge 46, Type (0, 0), BuildingBlock: AJUNOK_clean_linker_0, # of connection points: 2
#     Edge 47, Type (0, 0), BuildingBlock: AJUNOK_clean_linker_0, # of connection points: 2
# Relax obj value: 0.118
# Max RMSD: 0.292
# Mean RMSD: 0.292
data_MOF--net-ukk--node1-CEKHIL_clean_sbu_0--edge1-AJUNOK_clean_linker_0
_symmetry_space_group_name_H-M    P1
_symmetry_Int_Tables_number       1
_symmetry_cell_setting            triclinic
loop_
_symmetry_equiv_pos_as_xyz
'x, y, z'
_cell_length_a     39.539
_cell_length_b     39.539
_cell_length_c     12.186
_cell_angle_alpha  90.0
_cell_angle_beta   90.0
_cell_angle_gamma 90.0
loop_
_atom_site_label
_atom_site_type_symbol
_atom_site_fract_x
_atom_site_fract_y
_atom_site_fract_z
_atom_type_partial_charge
Co0 Co 0.35763 0.10662 0.14935 0.0
O1 O 0.30948 0.10088 0.14797 0.0
O2 O 0.34118 0.10705 0.99974 0.0
C3 C 0.36925 0.06472 0.26816 0.0
O4 O 0.40839 0.11269 0.12221 0.0
Co5 Co 0.3891 0.13118 0.3646 0.0
O6 O 0.43201 0.1205 0.2886 0.0
C7 C 0.3577 0.18108 0.22029 0.0
C8 C 0.31112 0.10348 0.0423 0.0
C9 C 0.4343 0.11612 0.18534 0.0
O10 O 0.35188 0.15693 0.15305 0.0
O11 O 0.3707 0.17627 0.31517 0.0
O12 O 0.36468 0.0586 0.16477 0.0
O13 O 0.36211 0.09518 0.30033 0.0
Co14 Co 0.10806 0.64521 0.85495 0.0
O15 O 0.10237 0.69333 0.86054 0.0
O16 O 0.11086 0.6609 0.00559 0.0
C17 C 0.06374 0.63486 0.74347 0.0
O18 O 0.11426 0.5941 0.87731 0.0
Co19 Co 0.1284 0.61529 0.63399 0.0
O20 O 0.11796 0.57203 0.70733 0.0
C21 C 0.18145 0.64413 0.77217 0.0
C22 C 0.10623 0.69116 0.96561 0.0
C23 C 0.11583 0.56873 0.81102 0.0
O24 O 0.15834 0.65091 0.84241 0.0
O25 O 0.17482 0.63113 0.67849 0.0
O26 O 0.05982 0.63845 0.84831 0.0
O27 O 0.09361 0.64206 0.70582 0.0
Co28 Co 0.64093 0.89651 0.13467 0.0
O29 O 0.68899 0.90278 0.12935 0.0
O30 O 0.65655 0.89519 0.98378 0.0
C31 C 0.62976 0.93908 0.25067 0.0
O32 O 0.58992 0.89002 0.11244 0.0
Co33 Co 0.61048 0.87389 0.35524 0.0
O34 O 0.56767 0.88712 0.28249 0.0
C35 C 0.64131 0.82272 0.2129 0.0
C36 C 0.68679 0.89984 0.0239 0.0
C37 C 0.5645 0.88946 0.17875 0.0
O38 O 0.64703 0.84621 0.14292 0.0
O39 O 0.62852 0.82847 0.30761 0.0
O40 O 0.63368 0.94462 0.14663 0.0
O41 O 0.63712 0.90887 0.28447 0.0
Co42 Co 0.89314 0.35571 0.88547 0.0
O43 O 0.89787 0.30766 0.89844 0.0
O44 O 0.88724 0.34217 0.03715 0.0
C45 C 0.93924 0.36481 0.78266 0.0
O46 O 0.88738 0.40731 0.89895 0.0
Co47 Co 0.87677 0.38358 0.65668 0.0
O48 O 0.88957 0.42703 0.72555 0.0
C49 C 0.82121 0.357 0.79014 0.0
C50 C 0.89225 0.31139 0.00236 0.0
C51 C 0.88915 0.43178 0.82889 0.0
O52 O 0.84329 0.35059 0.86393 0.0
O53 O 0.82923 0.36916 0.69628 0.0
O54 O 0.94131 0.36138 0.88817 0.0
O55 O 0.91002 0.35771 0.73945 0.0
Co56 Co 0.35659 0.39339 0.11582 0.0
O57 O 0.30845 0.39927 0.11742 0.0
O58 O 0.34041 0.39358 0.26537 0.0
C59 C 0.36827 0.43452 0.99541 0.0
O60 O 0.40742 0.38765 0.14321 0.0
Co61 Co 0.38829 0.36768 0.90199 0.0
O62 O 0.43113 0.37885 0.97745 0.0
C63 C 0.35719 0.3184 0.04987 0.0
C64 C 0.31031 0.39725 0.22324 0.0
C65 C 0.43336 0.38391 0.08039 0.0
O66 O 0.35072 0.34308 0.11434 0.0
O67 O 0.37066 0.32274 0.95537 0.0
O68 O 0.36359 0.44126 0.09837 0.0
O69 O 0.3612 0.40391 0.96451 0.0
Co70 Co 0.39519 0.64362 0.87471 0.0
O71 O 0.40002 0.69173 0.86386 0.0
O72 O 0.39637 0.65694 0.72209 0.0
C73 C 0.43553 0.6351 0.00088 0.0
O74 O 0.39082 0.59234 0.857 0.0
Co75 Co 0.36875 0.61463 0.0927 0.0
O76 O 0.38437 0.57144 0.02772 0.0
C77 C 0.31988 0.64229 0.93586 0.0
C78 C 0.39912 0.68783 0.75834 0.0
C79 C 0.3893 0.56751 0.92522 0.0
O80 O 0.34473 0.64821 0.87134 0.0
O81 O 0.32389 0.63071 0.03315 0.0
O82 O 0.4431 0.63819 0.89787 0.0
O83 O 0.40445 0.64174 0.02736 0.0
Co84 Co 0.64334 0.60876 0.12343 0.0
O85 O 0.69149 0.60419 0.12846 0.0
O86 O 0.65863 0.60832 0.27468 0.0
C87 C 0.63405 0.56754 0.00063 0.0
O88 O 0.59216 0.61294 0.14619 0.0
Co89 Co 0.61223 0.6335 0.9069 0.0
O90 O 0.57001 0.61726 0.97641 0.0
C91 C 0.64152 0.68363 0.05656 0.0
C92 C 0.68904 0.60547 0.23421 0.0
C93 C 0.56683 0.61328 0.07961 0.0
O94 O 0.64784 0.65932 0.12286 0.0
O95 O 0.6289 0.67872 0.96108 0.0
O96 O 0.63792 0.56065 0.10382 0.0
O97 O 0.64024 0.59848 0.97169 0.0
Co98 Co 0.60657 0.35869 0.88538 0.0
O99 O 0.60152 0.31055 0.88258 0.0
O100 O 0.60499 0.34277 0.73482 0.0
C101 C 0.56608 0.36885 0.01083 0.0
O102 O 0.61121 0.40972 0.86052 0.0
Co103 Co 0.63335 0.38945 0.0992 0.0
O104 O 0.62048 0.43242 0.02756 0.0
C105 C 0.68195 0.36002 0.94564 0.0
C106 C 0.6022 0.31253 0.77672 0.0
C107 C 0.61469 0.43526 0.92518 0.0
O108 O 0.65709 0.35383 0.88143 0.0
O109 O 0.67798 0.37225 0.04202 0.0
O110 O 0.55869 0.36473 0.90814 0.0
O111 O 0.59708 0.36217 0.03817 0.0
Co112 Co 0.85156 0.60705 0.63472 0.0
O113 O 0.80377 0.59994 0.62065 0.0
O114 O 0.83881 0.60815 0.48158 0.0
C115 C 0.86163 0.56476 0.75315 0.0
O116 O 0.90269 0.61444 0.61965 0.0
Co117 Co 0.87798 0.63109 0.85821 0.0
O118 O 0.92284 0.62442 0.78963 0.0
C119 C 0.84768 0.68111 0.71087 0.0
C120 C 0.80797 0.6032 0.51575 0.0
C121 C 0.9272 0.61974 0.68722 0.0
O122 O 0.84413 0.65719 0.64107 0.0
O123 O 0.8591 0.67589 0.80774 0.0
O124 O 0.85948 0.55915 0.64858 0.0
O125 O 0.85329 0.5949 0.78553 0.0
Co126 Co 0.60545 0.1483 0.38287 0.0
O127 O 0.60208 0.19649 0.39487 0.0
O128 O 0.60414 0.16138 0.53602 0.0
C129 C 0.56501 0.14181 0.25534 0.0
O130 O 0.60811 0.09675 0.39815 0.0
Co131 Co 0.63113 0.11947 0.16327 0.0
O132 O 0.61361 0.07673 0.22586 0.0
C133 C 0.68071 0.14496 0.32246 0.0
C134 C 0.60224 0.1924 0.50026 0.0
C135 C 0.6086 0.07232 0.32812 0.0
O136 O 0.65611 0.15123 0.3877 0.0
O137 O 0.67623 0.13405 0.22453 0.0
O138 O 0.55737 0.14464 0.35831 0.0
O139 O 0.59639 0.14735 0.23006 0.0
Co140 Co 0.14916 0.39249 0.62773 0.0
O141 O 0.19676 0.39611 0.60714 0.0
O142 O 0.1599 0.39055 0.47181 0.0
C143 C 0.14444 0.4362 0.74455 0.0
O144 O 0.09716 0.38894 0.62695 0.0
Co145 Co 0.12827 0.37048 0.85996 0.0
O146 O 0.08348 0.38552 0.80649 0.0
C147 C 0.15154 0.31854 0.70699 0.0
C148 C 0.19134 0.3937 0.50298 0.0
C149 C 0.0753 0.38909 0.70594 0.0
O150 O 0.15316 0.34186 0.63425 0.0
O151 O 0.14418 0.32471 0.80733 0.0
O152 O 0.14517 0.44092 0.63949 0.0
O153 O 0.15127 0.40565 0.77709 0.0
Co154 Co 0.39121 0.85403 0.37376 0.0
O155 O 0.39652 0.80593 0.37617 0.0
O156 O 0.39217 0.83799 0.52411 0.0
C157 C 0.43231 0.86446 0.25081 0.0
O158 O 0.38644 0.90504 0.39927 0.0
Co159 Co 0.36563 0.88536 0.15849 0.0
O160 O 0.37841 0.92814 0.23208 0.0
C161 C 0.31645 0.85333 0.30513 0.0
C162 C 0.39557 0.80785 0.48207 0.0
C163 C 0.38363 0.93075 0.33489 0.0
O164 O 0.34057 0.84881 0.37389 0.0
O165 O 0.32128 0.86552 0.20906 0.0
O166 O 0.43927 0.86018 0.35375 0.0
O167 O 0.4014 0.85801 0.22196 0.0
Co168 Co 0.84928 0.89418 0.62195 0.0
O169 O 0.80139 0.89951 0.63768 0.0
O170 O 0.83705 0.89436 0.77642 0.0
C171 C 0.85652 0.93594 0.49886 0.0
O172 O 0.90094 0.8889 0.63213 0.0
Co173 Co 0.87419 0.86944 0.39644 0.0
O174 O 0.91878 0.88231 0.45757 0.0
C175 C 0.8467 0.81972 0.5505 0.0
C176 C 0.80595 0.89796 0.74265 0.0
C177 C 0.92461 0.88656 0.55951 0.0
O178 O 0.84392 0.84368 0.62069 0.0
O179 O 0.85624 0.82476 0.45143 0.0
O180 O 0.85501 0.94234 0.60299 0.0
O181 O 0.84935 0.90515 0.47038 0.0
Co182 Co 0.89235 0.1444 0.38466 0.0
O183 O 0.89825 0.19245 0.3807 0.0
O184 O 0.88698 0.16081 0.23563 0.0
C185 C 0.93808 0.13267 0.48677 0.0
O186 O 0.88527 0.0933 0.36145 0.0
Co187 Co 0.87486 0.11308 0.60723 0.0
O188 O 0.88604 0.0704 0.53076 0.0
C189 C 0.82016 0.14292 0.47773 0.0
C190 C 0.89243 0.19083 0.27639 0.0
C191 C 0.88583 0.06756 0.4267 0.0
O192 O 0.84258 0.15032 0.40601 0.0
O193 O 0.82764 0.12896 0.56938 0.0
O194 O 0.94039 0.13751 0.38188 0.0
O195 O 0.90894 0.1397 0.53063 0.0
Co196 Co 0.14844 0.10528 0.64234 0.0
O197 O 0.19598 0.09995 0.66156 0.0
O198 O 0.16012 0.10988 0.79692 0.0
C199 C 0.13992 0.05993 0.53581 0.0
O200 O 0.09655 0.11098 0.64385 0.0
Co201 Co 0.12871 0.12548 0.40864 0.0
O202 O 0.08341 0.11322 0.46366 0.0
C203 C 0.15277 0.17854 0.55391 0.0
C204 C 0.19126 0.10477 0.76522 0.0
C205 C 0.07486 0.11083 0.56421 0.0
O206 O 0.1545 0.1554 0.62693 0.0
O207 O 0.14447 0.17198 0.45467 0.0
O208 O 0.14224 0.0572 0.64136 0.0
O209 O 0.14882 0.08914 0.49551 0.0
Co210 Co 0.10363 0.85215 0.37335 0.0
O211 O 0.09791 0.80463 0.35231 0.0
O212 O 0.10752 0.84106 0.21826 0.0
C213 C 0.05897 0.86018 0.48409 0.0
O214 O 0.10984 0.90383 0.37146 0.0
Co215 Co 0.12453 0.87209 0.60655 0.0
O216 O 0.11246 0.91745 0.551 0.0
C217 C 0.17708 0.84771 0.45922 0.0
C218 C 0.10271 0.80977 0.24877 0.0
C219 C 0.11011 0.92573 0.45017 0.0
O220 O 0.1538 0.84567 0.38665 0.0
O221 O 0.17075 0.85627 0.55841 0.0
O222 O 0.05544 0.85901 0.37849 0.0
O223 O 0.08847 0.85116 0.52118 0.0
C224 C 0.3514 0.98113 0.38969 0.0
C225 C 0.38314 0.96545 0.37837 0.0
C226 C 0.34763 0.01602 0.37208 0.0
C227 C 0.37548 0.03612 0.34246 0.0
H228 H 0.32882 0.96581 0.39793 0.0
H229 H 0.32228 0.02635 0.36752 0.0
S230 S 0.4648 0.00839 0.32795 0.0
N231 N 0.44354 0.97355 0.35694 0.0
N232 N 0.43641 0.03902 0.32186 0.0
C233 C 0.40781 0.02153 0.34596 0.0
C234 C 0.41166 0.98609 0.36464 0.0
C235 C 0.01195 0.65971 0.66674 0.0
C236 C 0.0333 0.63141 0.67487 0.0
C237 C 0.97692 0.65579 0.65371 0.0
C238 C 0.96221 0.62347 0.64778 0.0
H239 H 0.02177 0.68476 0.68376 0.0
H240 H 0.96097 0.67798 0.66067 0.0
S241 S 0.00787 0.54183 0.64255 0.0
N242 N 0.03793 0.57044 0.65927 0.0
N243 N 0.97204 0.56313 0.63303 0.0
C244 C 0.98369 0.59532 0.64176 0.0
C245 C 0.01937 0.5993 0.65578 0.0
C246 C 0.58745 0.98181 0.30097 0.0
C247 C 0.6191 0.96704 0.32207 0.0
C248 C 0.58175 0.01618 0.32191 0.0
C249 C 0.60762 0.03682 0.36397 0.0
H250 H 0.56839 0.96778 0.25616 0.0
H251 H 0.55846 0.0274 0.29258 0.0
S252 S 0.6929 0.00881 0.4504 0.0
N253 N 0.67482 0.97421 0.40188 0.0
N254 N 0.66416 0.03903 0.44101 0.0
C255 C 0.63774 0.02133 0.39871 0.0
C256 C 0.64353 0.98626 0.37748 0.0
C257 C 0.02118 0.36673 0.62639 0.0
C258 C 0.03849 0.39203 0.68553 0.0
C259 C 0.98649 0.36038 0.64574 0.0
C260 C 0.96847 0.37935 0.72412 0.0
H261 H 0.03522 0.34936 0.5749 0.0
H262 H 0.97491 0.33832 0.60871 0.0
S263 S 0.00101 0.45097 0.88901 0.0
N264 N 0.03367 0.43814 0.81615 0.0
N265 N 0.96937 0.42655 0.85067 0.0
C266 C 0.98464 0.40696 0.77345 0.0
C267 C 0.0195 0.41323 0.75464 0.0
C268 C 0.40998 0.4763 0.93415 0.0
C269 C 0.37764 0.46218 0.92112 0.0
C270 C 0.41549 0.51095 0.91745 0.0
C271 C 0.38881 0.53235 0.88624 0.0
H272 H 0.43003 0.46142 0.97052 0.0
H273 H 0.43961 0.52157 0.94153 0.0
S274 S 0.30106 0.50644 0.82203 0.0
N275 N 0.31998 0.47104 0.85989 0.0
N276 N 0.33037 0.53619 0.82686 0.0
C277 C 0.35764 0.51766 0.85843 0.0
C278 C 0.35201 0.48241 0.87621 0.0
C279 C 0.47627 0.59261 0.06366 0.0
C280 C 0.4621 0.62488 0.07833 0.0
C281 C 0.51064 0.58676 0.08433 0.0
C282 C 0.53181 0.61307 0.1202 0.0
H283 H 0.46192 0.57309 0.02236 0.0
H284 H 0.52149 0.56292 0.05829 0.0
S285 S 0.50518 0.69992 0.19374 0.0
N286 N 0.47022 0.68162 0.14897 0.0
N287 N 0.53499 0.67067 0.18816 0.0
C288 C 0.51682 0.64388 0.15071 0.0
C289 C 0.48178 0.64982 0.12946 0.0
C290 C 0.58841 0.49141 0.90668 0.0
C291 C 0.61575 0.47 0.88243 0.0
C292 C 0.59362 0.5259 0.928 0.0
C293 C 0.62625 0.53993 0.92412 0.0
H294 H 0.56371 0.48075 0.92276 0.0
H295 H 0.57279 0.54058 0.96053 0.0
S296 S 0.70482 0.49591 0.8419 0.0
N297 N 0.67541 0.46624 0.83794 0.0
N298 N 0.68515 0.53119 0.87675 0.0
C299 C 0.6528 0.51984 0.8845 0.0
C300 C 0.64752 0.48473 0.86345 0.0
C301 C 0.48291 0.34989 0.13056 0.0
C302 C 0.46776 0.38203 0.12586 0.0
C303 C 0.51774 0.34592 0.11259 0.0
C304 C 0.53831 0.374 0.08926 0.0
H305 H 0.46721 0.32742 0.13323 0.0
H306 H 0.5276 0.32055 0.102 0.0
S307 S 0.51213 0.46386 0.09673 0.0
N308 N 0.47685 0.4426 0.11929 0.0
N309 N 0.54232 0.43519 0.0844 0.0
C310 C 0.5243 0.40641 0.10092 0.0
C311 C 0.48887 0.41043 0.11965 0.0
C312 C 0.91217 0.48976 0.8236 0.0
C313 C 0.88727 0.46752 0.86346 0.0
C314 C 0.90514 0.52402 0.80636 0.0
C315 C 0.87275 0.53715 0.82555 0.0
H316 H 0.93584 0.48004 0.79252 0.0
H317 H 0.92384 0.53926 0.76448 0.0
S318 S 0.80013 0.49092 0.94496 0.0
N319 N 0.83036 0.46216 0.93608 0.0
N320 N 0.81681 0.52665 0.89978 0.0
C321 C 0.84881 0.51629 0.87712 0.0
C322 C 0.85617 0.48134 0.89678 0.0
C323 C 0.52596 0.09985 0.17795 0.0
C324 C 0.5382 0.13321 0.1767 0.0
C325 C 0.49161 0.09298 0.15965 0.0
C326 C 0.46859 0.11933 0.13983 0.0
H327 H 0.54193 0.07958 0.20734 0.0
H328 H 0.48242 0.06765 0.17493 0.0
S329 S 0.48952 0.20991 0.10405 0.0
N330 N 0.52603 0.19188 0.13466 0.0
N331 N 0.4614 0.17901 0.10013 0.0
C332 C 0.4815 0.15195 0.12201 0.0
C333 C 0.51645 0.15893 0.14071 0.0
C334 C 0.09275 0.51144 0.80758 0.0
C335 C 0.11693 0.53359 0.85124 0.0
C336 C 0.10079 0.47772 0.78609 0.0
C337 C 0.13234 0.46408 0.81423 0.0
H338 H 0.06939 0.52131 0.77445 0.0
H339 H 0.08413 0.46371 0.73257 0.0
S340 S 0.20255 0.51009 0.94848 0.0
N341 N 0.17261 0.53893 0.93353 0.0
N342 N 0.18666 0.47434 0.90054 0.0
C343 C 0.15516 0.48474 0.87168 0.0
C344 C 0.14751 0.51977 0.88967 0.0
C345 C 0.47248 0.90641 0.17896 0.0
C346 C 0.45983 0.87325 0.17481 0.0
C347 C 0.50694 0.91302 0.16144 0.0
C348 C 0.52962 0.88664 0.13761 0.0
H349 H 0.45658 0.92662 0.20906 0.0
H350 H 0.51646 0.9381 0.17953 0.0
S351 S 0.50767 0.79652 0.09635 0.0
N352 N 0.47141 0.81471 0.12911 0.0
N353 N 0.53608 0.82716 0.09364 0.0
C354 C 0.51633 0.85427 0.11793 0.0
C355 C 0.48133 0.84752 0.13713 0.0
C356 C 0.8995 0.975 0.42915 0.0
C357 C 0.86608 0.96327 0.42305 0.0
C358 C 0.90721 0.00914 0.41131 0.0
C359 C 0.88179 0.0327 0.38552 0.0
H360 H 0.919 0.95879 0.4623 0.0
H361 H 0.93236 0.01769 0.432 0.0
S362 S 0.79117 0.0134 0.34103 0.0
N363 N 0.8081 0.97663 0.37484 0.0
N364 N 0.82267 0.04089 0.33926 0.0
C365 C 0.84908 0.02035 0.36475 0.0
C366 C 0.84117 0.98553 0.38409 0.0
C367 C 0.98522 0.1378 0.62381 0.0
C368 C 0.96761 0.11858 0.54496 0.0
C369 C 0.02008 0.13226 0.643 0.0
C370 C 0.03798 0.10763 0.58287 0.0
H371 H 0.97311 0.15943 0.6616 0.0
H372 H 0.03367 0.14972 0.69538 0.0
S373 S 0.0019 0.04849 0.37715 0.0
N374 N 0.96958 0.07174 0.41728 0.0
N375 N 0.03438 0.0621 0.44942 0.0
C376 C 0.01954 0.08629 0.51248 0.0
C377 C 0.98446 0.09158 0.4946 0.0
C378 C 0.13465 0.97925 0.37271 0.0
C379 C 0.10844 0.96259 0.4297 0.0
C380 C 0.14238 0.01352 0.39488 0.0
C381 C 0.12428 0.0316 0.4753 0.0
H382 H 0.15157 0.96486 0.32065 0.0
H383 H 0.16487 0.02449 0.3587 0.0
S384 S 0.05119 0.00024 0.6371 0.0
N385 N 0.0619 0.96819 0.55795 0.0
N386 N 0.0776 0.03092 0.60467 0.0
C387 C 0.09612 0.01597 0.52398 0.0
C388 C 0.0878 0.98188 0.49945 0.0
C389 C 0.98159 0.91041 0.53697 0.0
C390 C 0.96073 0.88688 0.59048 0.0
C391 C 0.01561 0.90325 0.51612 0.0
C392 C 0.03044 0.87277 0.55051 0.0
H393 H 0.97068 0.93255 0.49866 0.0
H394 H 0.0292 0.91984 0.46088 0.0
S395 S 0.98817 0.80507 0.70913 0.0
N396 N 0.95818 0.83355 0.68898 0.0
N397 N 0.02284 0.82065 0.65256 0.0
C398 C 0.01106 0.85086 0.61582 0.0
C399 C 0.97599 0.85789 0.63561 0.0
C400 C 0.35763 0.25545 0.02397 0.0
C401 C 0.3522 0.28345 0.09284 0.0
C402 C 0.3578 0.22244 0.06575 0.0
C403 C 0.35304 0.21598 0.1785 0.0
H404 H 0.36281 0.259 0.93745 0.0
H405 H 0.36324 0.20192 0.00954 0.0
S406 S 0.33398 0.27964 0.39269 0.0
N407 N 0.3387 0.30194 0.27921 0.0
N408 N 0.33995 0.23982 0.35682 0.0
C409 C 0.34611 0.24341 0.24772 0.0
C410 C 0.34537 0.2771 0.20511 0.0
C411 C 0.22441 0.65256 0.92114 0.0
C412 C 0.21725 0.64795 0.80847 0.0
C413 C 0.2576 0.6515 0.96154 0.0
C414 C 0.28517 0.64639 0.89093 0.0
H415 H 0.20412 0.65574 0.97999 0.0
H416 H 0.2616 0.65419 0.04905 0.0
S417 S 0.28076 0.63501 0.58815 0.0
N418 N 0.24098 0.63954 0.62645 0.0
N419 N 0.30331 0.63796 0.70167 0.0
C420 C 0.2786 0.64314 0.77745 0.0
C421 C 0.24472 0.64382 0.73647 0.0
C422 C 0.64226 0.77976 0.06273 0.0
C423 C 0.64592 0.78731 0.1752 0.0
C424 C 0.64217 0.74633 0.0246 0.0
C425 C 0.64619 0.71893 0.097 0.0
H426 H 0.63792 0.79978 0.00367 0.0
H427 H 0.63799 0.742 0.93788 0.0
S428 S 0.66088 0.72539 0.39825 0.0
N429 N 0.65636 0.76495 0.35747 0.0
N430 N 0.65693 0.70205 0.28668 0.0
C431 C 0.65179 0.72627 0.20924 0.0
C432 C 0.6514 0.76041 0.2481 0.0
C433 C 0.74374 0.34932 0.97336 0.0
C434 C 0.71669 0.35548 0.90173 0.0
C435 C 0.77709 0.34805 0.93485 0.0
C436 C 0.78504 0.35357 0.82308 0.0
H437 H 0.7392 0.34595 0.06037 0.0
H438 H 0.79689 0.34395 0.99482 0.0
S439 S 0.72296 0.36941 0.60056 0.0
N440 N 0.6997 0.36577 0.71242 0.0
N441 N 0.76248 0.36397 0.64058 0.0
C442 C 0.75805 0.35874 0.74986 0.0
C443 C 0.72392 0.35955 0.78898 0.0
C444 C 0.84937 0.74392 0.74154 0.0
C445 C 0.84193 0.71647 0.67214 0.0
C446 C 0.84934 0.77723 0.70214 0.0
C447 C 0.84221 0.7846 0.59131 0.0
H448 H 0.85654 0.73967 0.82621 0.0
H449 H 0.85649 0.79723 0.75831 0.0
S450 S 0.81632 0.72281 0.37857 0.0
N451 N 0.82334 0.69963 0.48888 0.0
N452 N 0.82417 0.76222 0.4154 0.0
C453 C 0.83298 0.75776 0.52224 0.0
C454 C 0.83253 0.72378 0.56253 0.0
C455 C 0.77652 0.15052 0.33123 0.0
C456 C 0.78421 0.14727 0.44401 0.0
C457 C 0.74312 0.15066 0.2931 0.0
C458 C 0.71575 0.14812 0.36592 0.0
H459 H 0.7965 0.15172 0.27054 0.0
H460 H 0.7388 0.15223 0.20545 0.0
S461 S 0.72167 0.14171 0.67006 0.0
N462 N 0.76139 0.14317 0.62859 0.0
N463 N 0.69847 0.14398 0.55765 0.0
C464 C 0.7229 0.14632 0.4795 0.0
C465 C 0.75708 0.14571 0.51826 0.0
C466 C 0.14943 0.27488 0.55769 0.0
C467 C 0.15567 0.28297 0.66871 0.0
C468 C 0.15001 0.24133 0.51993 0.0
C469 C 0.1572 0.21431 0.5913 0.0
H470 H 0.14273 0.29453 0.49964 0.0
H471 H 0.14366 0.23654 0.4349 0.0
S472 S 0.18004 0.22236 0.887 0.0
N473 N 0.17225 0.2615 0.84735 0.0
N474 N 0.17419 0.19861 0.77727 0.0
C475 C 0.16544 0.2223 0.70146 0.0
C476 C 0.1644 0.25649 0.74 0.0
C477 C 0.23985 0.85022 0.4937 0.0
C478 C 0.21285 0.84368 0.4215 0.0
C479 C 0.27337 0.85175 0.45587 0.0
C480 C 0.28133 0.84724 0.344 0.0
H481 H 0.23506 0.85545 0.57954 0.0
H482 H 0.29304 0.85808 0.51428 0.0
S483 S 0.22099 0.82466 0.12306 0.0
N484 N 0.19724 0.82871 0.23362 0.0
N485 N 0.26004 0.83258 0.16348 0.0
C486 C 0.25496 0.83894 0.27187 0.0
C487 C 0.22085 0.83684 0.31037 0.0
C488 C 0.25349 0.10164 0.79439 0.0
C489 C 0.22082 0.10469 0.83992 0.0
C490 C 0.28242 0.10124 0.86031 0.0
C491 C 0.27997 0.10365 0.97479 0.0
H492 H 0.25699 0.09959 0.70648 0.0
H493 H 0.30688 0.09888 0.82097 0.0
S494 S 0.20049 0.11278 0.13565 0.0
N495 N 0.18777 0.11071 0.00677 0.0
N496 N 0.24213 0.10977 0.1317 0.0
C497 C 0.24746 0.10681 0.02192 0.0
C498 C 0.21791 0.10741 0.9543 0.0
C499 C 0.10434 0.74752 0.21713 0.0
C500 C 0.10382 0.7805 0.17289 0.0
C501 C 0.10536 0.71889 0.14973 0.0
C502 C 0.10563 0.72196 0.03509 0.0
H503 H 0.1041 0.7436 0.3051 0.0
H504 H 0.10569 0.69417 0.18807 0.0
S505 S 0.10479 0.80256 0.87729 0.0
N506 N 0.10398 0.81455 0.00705 0.0
N507 N 0.10562 0.76082 0.8795 0.0
C508 C 0.10521 0.75481 0.98934 0.0
C509 C 0.1044 0.78404 0.05838 0.0
C510 C 0.71485 0.89607 0.84036 0.0
C511 C 0.7176 0.90054 0.95428 0.0
C512 C 0.74362 0.8955 0.77335 0.0
C513 C 0.7764 0.89919 0.8174 0.0
H514 H 0.69031 0.89273 0.80237 0.0
H515 H 0.74002 0.89174 0.68608 0.0
S516 S 0.79756 0.91303 0.11038 0.0
N517 N 0.75593 0.90983 0.10832 0.0
N518 N 0.80987 0.90845 0.98178 0.0
C519 C 0.77959 0.90401 0.93101 0.0
C520 C 0.75024 0.9048 0.9995 0.0
C521 C 0.89049 0.2197 0.09392 0.0
C522 C 0.8917 0.22199 0.20878 0.0
C523 C 0.89052 0.24882 0.02848 0.0
C524 C 0.89144 0.28143 0.07523 0.0
H525 H 0.88988 0.19523 0.05393 0.0
H526 H 0.88979 0.24562 0.94022 0.0
S527 S 0.89392 0.30143 0.37236 0.0
N528 N 0.89328 0.25972 0.36709 0.0
N529 N 0.8931 0.3143 0.24354 0.0
C530 C 0.89217 0.28416 0.18999 0.0
C531 C 0.89239 0.25449 0.25686 0.0
C532 C 0.25319 0.38938 0.4707 0.0
C533 C 0.22051 0.39424 0.42712 0.0
C534 C 0.28195 0.39078 0.40439 0.0
C535 C 0.27935 0.39719 0.29154 0.0
H536 H 0.25674 0.38429 0.5573 0.0
H537 H 0.3064 0.38656 0.44215 0.0
S538 S 0.19972 0.41261 0.13669 0.0
N539 N 0.18719 0.40618 0.26429 0.0
N540 N 0.24133 0.40902 0.13852 0.0
C541 C 0.24682 0.40223 0.24642 0.0
C542 C 0.21738 0.40065 0.3144 0.0
C543 C 0.39869 0.77939 0.66507 0.0
C544 C 0.39753 0.77686 0.55023 0.0
C545 C 0.39979 0.75042 0.73109 0.0
C546 C 0.39959 0.71771 0.68501 0.0
H547 H 0.39861 0.80393 0.70461 0.0
H548 H 0.40039 0.75383 0.81926 0.0
S549 S 0.39743 0.69709 0.3881 0.0
N550 N 0.39688 0.7388 0.39265 0.0
N551 N 0.39872 0.68451 0.51716 0.0
C552 C 0.3988 0.71475 0.57022 0.0
C553 C 0.39782 0.74427 0.50277 0.0
C554 C 0.7168 0.6012 0.41818 0.0
C555 C 0.71975 0.60441 0.30385 0.0
C556 C 0.74554 0.60034 0.48538 0.0
C557 C 0.77839 0.60288 0.44107 0.0
H558 H 0.69213 0.5993 0.4563 0.0
H559 H 0.74183 0.59795 0.5731 0.0
S560 S 0.80002 0.61196 0.14631 0.0
N561 N 0.75832 0.61019 0.14878 0.0
N562 N 0.81214 0.60879 0.27547 0.0
C563 C 0.78174 0.60607 0.32683 0.0
C564 C 0.75249 0.60678 0.25819 0.0
C565 C 0.60003 0.25495 0.52775 0.0
C566 C 0.60119 0.22224 0.57381 0.0
C567 C 0.60007 0.28395 0.59373 0.0
C568 C 0.60112 0.28147 0.70857 0.0
H569 H 0.59937 0.25835 0.43958 0.0
H570 H 0.59944 0.30848 0.55417 0.0
S571 S 0.60387 0.20172 0.87067 0.0
N572 N 0.60308 0.1891 0.74161 0.0
N573 N 0.60297 0.24343 0.86614 0.0
C574 C 0.60189 0.24887 0.75602 0.0
C575 C 0.60198 0.21932 0.68857 0.0
loop_
_geom_bond_atom_site_label_1
_geom_bond_atom_site_label_2
_geom_bond_distance
_geom_bond_site_symmetry_2
_ccdc_geom_bond_type
Co0 O1 2.216 . S
Co0 O2 2.091 1_554 S
Co0 O4 2.004 . S
Co0 O10 2.021 . S
Co0 O12 2.137 . S
Co0 O13 2.244 . S
O1 Co0 2.216 . S
O1 C8 1.247 1_554 S
O2 Co0 2.091 1_556 S
O2 C8 1.261 . S
C3 O12 1.247 . S
C3 O13 1.272 . S
O4 Co0 2.004 . S
O4 C9 1.259 . S
Co5 O6 2.061 . S
Co5 O11 2.052 . S
Co5 O13 2.135 . S
O6 Co5 2.061 . S
O6 C9 1.235 . S
C7 O10 1.238 . S
C7 O11 1.241 . S
C8 O1 1.247 1_556 S
C8 O2 1.261 . S
C9 O4 1.259 . S
C9 O6 1.235 . S
O10 Co0 2.021 . S
O10 C7 1.238 . S
O11 Co5 2.052 . S
O11 C7 1.241 . S
O12 Co0 2.137 . S
O12 C3 1.247 . S
O13 Co0 2.244 . S
O13 C3 1.272 . S
O13 Co5 2.135 . S
Co14 O15 2.216 . S
Co14 O16 2.091 1_556 S
Co14 O18 2.004 . S
Co14 O24 2.021 . S
Co14 O26 2.137 . S
Co14 O27 2.244 . S
O15 Co14 2.216 . S
O15 C22 1.247 1_556 S
O16 Co14 2.091 1_554 S
O16 C22 1.261 . S
C17 O26 1.247 . S
C17 O27 1.272 . S
O18 Co14 2.004 . S
O18 C23 1.259 . S
Co19 O20 2.061 . S
Co19 O25 2.052 . S
Co19 O27 2.135 . S
O20 Co19 2.061 . S
O20 C23 1.235 . S
C21 O24 1.238 . S
C21 O25 1.241 . S
C22 O15 1.247 1_554 S
C22 O16 1.261 . S
C23 O18 1.259 . S
C23 O20 1.235 . S
O24 Co14 2.021 . S
O24 C21 1.238 . S
O25 Co19 2.052 . S
O25 C21 1.241 . S
O26 Co14 2.137 . S
O26 C17 1.247 . S
O27 Co14 2.244 . S
O27 C17 1.272 . S
O27 Co19 2.135 . S
Co28 O29 2.216 . S
Co28 O30 2.091 1_554 S
Co28 O32 2.004 . S
Co28 O38 2.021 . S
Co28 O40 2.137 . S
Co28 O41 2.244 . S
O29 Co28 2.216 . S
O29 C36 1.247 1_554 S
O30 Co28 2.091 1_556 S
O30 C36 1.261 . S
C31 O40 1.247 . S
C31 O41 1.272 . S
O32 Co28 2.004 . S
O32 C37 1.259 . S
Co33 O34 2.061 . S
Co33 O39 2.052 . S
Co33 O41 2.135 . S
O34 Co33 2.061 . S
O34 C37 1.235 . S
C35 O38 1.238 . S
C35 O39 1.241 . S
C36 O29 1.247 1_556 S
C36 O30 1.261 . S
C37 O32 1.259 . S
C37 O34 1.235 . S
O38 Co28 2.021 . S
O38 C35 1.238 . S
O39 Co33 2.052 . S
O39 C35 1.241 . S
O40 Co28 2.137 . S
O40 C31 1.247 . S
O41 Co28 2.244 . S
O41 C31 1.272 . S
O41 Co33 2.135 . S
Co42 O43 2.216 . S
Co42 O44 2.091 1_556 S
Co42 O46 2.004 . S
Co42 O52 2.021 . S
Co42 O54 2.137 . S
Co42 O55 2.244 . S
O43 Co42 2.216 . S
O43 C50 1.247 1_556 S
O44 Co42 2.091 1_554 S
O44 C50 1.261 . S
C45 O54 1.247 . S
C45 O55 1.272 . S
O46 Co42 2.004 . S
O46 C51 1.259 . S
Co47 O48 2.061 . S
Co47 O53 2.052 . S
Co47 O55 2.135 . S
O48 Co47 2.061 . S
O48 C51 1.235 . S
C49 O52 1.238 . S
C49 O53 1.241 . S
C50 O43 1.247 1_554 S
C50 O44 1.261 . S
C51 O46 1.259 . S
C51 O48 1.235 . S
O52 Co42 2.021 . S
O52 C49 1.238 . S
O53 Co47 2.052 . S
O53 C49 1.241 . S
O54 Co42 2.137 . S
O54 C45 1.247 . S
O55 Co42 2.244 . S
O55 C45 1.272 . S
O55 Co47 2.135 . S
Co56 O57 2.216 . S
Co56 O58 2.091 . S
Co56 O60 2.004 . S
Co56 O66 2.021 . S
Co56 O68 2.137 . S
Co56 O69 2.244 1_554 S
O57 Co56 2.216 . S
O57 C64 1.247 . S
O58 Co56 2.091 . S
O58 C64 1.261 . S
C59 O68 1.255 . S
C59 O69 1.268 1_554 S
O60 Co56 2.004 . S
O60 C65 1.259 . S
Co61 O62 2.061 . S
Co61 O67 2.052 . S
Co61 O69 2.135 . S
O62 Co61 2.061 . S
O62 C65 1.235 1_556 S
C63 O66 1.238 . S
C63 O67 1.241 1_554 S
C64 O57 1.247 . S
C64 O58 1.261 . S
C65 O60 1.259 . S
C65 O62 1.235 1_554 S
O66 Co56 2.021 . S
O66 C63 1.238 . S
O67 Co61 2.052 . S
O67 C63 1.241 1_556 S
O68 Co56 2.137 . S
O68 C59 1.255 . S
O69 Co56 2.244 1_556 S
O69 C59 1.268 1_556 S
O69 Co61 2.135 . S
Co70 O71 2.216 . S
Co70 O72 2.091 . S
Co70 O74 2.004 . S
Co70 O80 2.021 . S
Co70 O82 2.137 . S
Co70 O83 2.244 1_556 S
O71 Co70 2.216 . S
O71 C78 1.247 . S
O72 Co70 2.091 . S
O72 C78 1.261 . S
C73 O82 1.255 . S
C73 O83 1.268 1_556 S
O74 Co70 2.004 . S
O74 C79 1.259 . S
Co75 O76 2.061 . S
Co75 O81 2.052 . S
Co75 O83 2.135 . S
O76 Co75 2.061 . S
O76 C79 1.235 1_554 S
C77 O80 1.238 . S
C77 O81 1.241 1_556 S
C78 O71 1.247 . S
C78 O72 1.261 . S
C79 O74 1.259 . S
C79 O76 1.235 1_556 S
O80 Co70 2.021 . S
O80 C77 1.238 . S
O81 Co75 2.052 . S
O81 C77 1.241 1_554 S
O82 Co70 2.137 . S
O82 C73 1.255 . S
O83 Co70 2.244 1_554 S
O83 C73 1.268 1_554 S
O83 Co75 2.135 . S
Co84 O85 2.216 . S
Co84 O86 2.091 . S
Co84 O88 2.004 . S
Co84 O94 2.021 . S
Co84 O96 2.137 . S
Co84 O97 2.244 1_554 S
O85 Co84 2.216 . S
O85 C92 1.247 . S
O86 Co84 2.091 . S
O86 C92 1.261 . S
C87 O96 1.255 . S
C87 O97 1.268 1_554 S
O88 Co84 2.004 . S
O88 C93 1.259 . S
Co89 O90 2.061 . S
Co89 O95 2.052 . S
Co89 O97 2.135 . S
O90 Co89 2.061 . S
O90 C93 1.235 1_556 S
C91 O94 1.238 . S
C91 O95 1.241 1_554 S
C92 O85 1.247 . S
C92 O86 1.261 . S
C93 O88 1.259 . S
C93 O90 1.235 1_554 S
O94 Co84 2.021 . S
O94 C91 1.238 . S
O95 Co89 2.052 . S
O95 C91 1.241 1_556 S
O96 Co84 2.137 . S
O96 C87 1.255 . S
O97 Co84 2.244 1_556 S
O97 C87 1.268 1_556 S
O97 Co89 2.135 . S
Co98 O99 2.216 . S
Co98 O100 2.091 . S
Co98 O102 2.004 . S
Co98 O108 2.021 . S
Co98 O110 2.137 . S
Co98 O111 2.244 1_556 S
O99 Co98 2.216 . S
O99 C106 1.247 . S
O100 Co98 2.091 . S
O100 C106 1.261 . S
C101 O110 1.255 . S
C101 O111 1.268 1_556 S
O102 Co98 2.004 . S
O102 C107 1.259 . S
Co103 O104 2.061 . S
Co103 O109 2.052 . S
Co103 O111 2.135 . S
O104 Co103 2.061 . S
O104 C107 1.235 1_554 S
C105 O108 1.238 . S
C105 O109 1.241 1_556 S
C106 O99 1.247 . S
C106 O100 1.261 . S
C107 O102 1.259 . S
C107 O104 1.235 1_556 S
O108 Co98 2.021 . S
O108 C105 1.238 . S
O109 Co103 2.052 . S
O109 C105 1.241 1_554 S
O110 Co98 2.137 . S
O110 C101 1.255 . S
O111 Co98 2.244 1_554 S
O111 C101 1.268 1_554 S
O111 Co103 2.135 . S
Co112 O113 2.216 . S
Co112 O114 2.091 . S
Co112 O116 2.004 . S
Co112 O122 2.021 . S
Co112 O124 2.137 . S
Co112 O125 2.244 . S
O113 Co112 2.216 . S
O113 C120 1.247 . S
O114 Co112 2.091 . S
O114 C120 1.261 . S
C115 O124 1.247 . S
C115 O125 1.272 . S
O116 Co112 2.004 . S
O116 C121 1.259 . S
Co117 O118 2.061 . S
Co117 O123 2.052 . S
Co117 O125 2.135 . S
O118 Co117 2.061 . S
O118 C121 1.235 . S
C119 O122 1.238 . S
C119 O123 1.241 . S
C120 O113 1.247 . S
C120 O114 1.261 . S
C121 O116 1.259 . S
C121 O118 1.235 . S
O122 Co112 2.021 . S
O122 C119 1.238 . S
O123 Co117 2.052 . S
O123 C119 1.241 . S
O124 Co112 2.137 . S
O124 C115 1.247 . S
O125 Co112 2.244 . S
O125 C115 1.272 . S
O125 Co117 2.135 . S
Co126 O127 2.216 . S
Co126 O128 2.091 . S
Co126 O130 2.004 . S
Co126 O136 2.021 . S
Co126 O138 2.137 . S
Co126 O139 2.244 . S
O127 Co126 2.216 . S
O127 C134 1.247 . S
O128 Co126 2.091 . S
O128 C134 1.261 . S
C129 O138 1.247 . S
C129 O139 1.272 . S
O130 Co126 2.004 . S
O130 C135 1.259 . S
Co131 O132 2.061 . S
Co131 O137 2.052 . S
Co131 O139 2.135 . S
O132 Co131 2.061 . S
O132 C135 1.235 . S
C133 O136 1.238 . S
C133 O137 1.241 . S
C134 O127 1.247 . S
C134 O128 1.261 . S
C135 O130 1.259 . S
C135 O132 1.235 . S
O136 Co126 2.021 . S
O136 C133 1.238 . S
O137 Co131 2.052 . S
O137 C133 1.241 . S
O138 Co126 2.137 . S
O138 C129 1.247 . S
O139 Co126 2.244 . S
O139 C129 1.272 . S
O139 Co131 2.135 . S
Co140 O141 2.216 . S
Co140 O142 2.091 . S
Co140 O144 2.004 . S
Co140 O150 2.021 . S
Co140 O152 2.137 . S
Co140 O153 2.244 . S
O141 Co140 2.216 . S
O141 C148 1.247 . S
O142 Co140 2.091 . S
O142 C148 1.261 . S
C143 O152 1.247 . S
C143 O153 1.272 . S
O144 Co140 2.004 . S
O144 C149 1.259 . S
Co145 O146 2.061 . S
Co145 O151 2.052 . S
Co145 O153 2.135 . S
O146 Co145 2.061 . S
O146 C149 1.235 . S
C147 O150 1.238 . S
C147 O151 1.241 . S
C148 O141 1.247 . S
C148 O142 1.261 . S
C149 O144 1.259 . S
C149 O146 1.235 . S
O150 Co140 2.021 . S
O150 C147 1.238 . S
O151 Co145 2.052 . S
O151 C147 1.241 . S
O152 Co140 2.137 . S
O152 C143 1.247 . S
O153 Co140 2.244 . S
O153 C143 1.272 . S
O153 Co145 2.135 . S
Co154 O155 2.216 . S
Co154 O156 2.091 . S
Co154 O158 2.004 . S
Co154 O164 2.021 . S
Co154 O166 2.137 . S
Co154 O167 2.244 . S
O155 Co154 2.216 . S
O155 C162 1.247 . S
O156 Co154 2.091 . S
O156 C162 1.261 . S
C157 O166 1.247 . S
C157 O167 1.272 . S
O158 Co154 2.004 . S
O158 C163 1.259 . S
Co159 O160 2.061 . S
Co159 O165 2.052 . S
Co159 O167 2.135 . S
O160 Co159 2.061 . S
O160 C163 1.235 . S
C161 O164 1.238 . S
C161 O165 1.241 . S
C162 O155 1.247 . S
C162 O156 1.261 . S
C163 O158 1.259 . S
C163 O160 1.235 . S
O164 Co154 2.021 . S
O164 C161 1.238 . S
O165 Co159 2.052 . S
O165 C161 1.241 . S
O166 Co154 2.137 . S
O166 C157 1.247 . S
O167 Co154 2.244 . S
O167 C157 1.272 . S
O167 Co159 2.135 . S
Co168 O169 2.216 . S
Co168 O170 2.091 . S
Co168 O172 2.004 . S
Co168 O178 2.021 . S
Co168 O180 2.137 . S
Co168 O181 2.244 . S
O169 Co168 2.216 . S
O169 C176 1.247 . S
O170 Co168 2.091 . S
O170 C176 1.261 . S
C171 O180 1.247 . S
C171 O181 1.272 . S
O172 Co168 2.004 . S
O172 C177 1.259 . S
Co173 O174 2.061 . S
Co173 O179 2.052 . S
Co173 O181 2.135 . S
O174 Co173 2.061 . S
O174 C177 1.235 . S
C175 O178 1.238 . S
C175 O179 1.241 . S
C176 O169 1.247 . S
C176 O170 1.261 . S
C177 O172 1.259 . S
C177 O174 1.235 . S
O178 Co168 2.021 . S
O178 C175 1.238 . S
O179 Co173 2.052 . S
O179 C175 1.241 . S
O180 Co168 2.137 . S
O180 C171 1.247 . S
O181 Co168 2.244 . S
O181 C171 1.272 . S
O181 Co173 2.135 . S
Co182 O183 2.216 . S
Co182 O184 2.091 . S
Co182 O186 2.004 . S
Co182 O192 2.021 . S
Co182 O194 2.137 . S
Co182 O195 2.244 . S
O183 Co182 2.216 . S
O183 C190 1.247 . S
O184 Co182 2.091 . S
O184 C190 1.261 . S
C185 O194 1.247 . S
C185 O195 1.272 . S
O186 Co182 2.004 . S
O186 C191 1.259 . S
Co187 O188 2.061 . S
Co187 O193 2.052 . S
Co187 O195 2.135 . S
O188 Co187 2.061 . S
O188 C191 1.235 . S
C189 O192 1.238 . S
C189 O193 1.241 . S
C190 O183 1.247 . S
C190 O184 1.261 . S
C191 O186 1.259 . S
C191 O188 1.235 . S
O192 Co182 2.021 . S
O192 C189 1.238 . S
O193 Co187 2.052 . S
O193 C189 1.241 . S
O194 Co182 2.137 . S
O194 C185 1.247 . S
O195 Co182 2.244 . S
O195 C185 1.272 . S
O195 Co187 2.135 . S
Co196 O197 2.216 . S
Co196 O198 2.091 . S
Co196 O200 2.004 . S
Co196 O206 2.021 . S
Co196 O208 2.137 . S
Co196 O209 2.244 . S
O197 Co196 2.216 . S
O197 C204 1.247 . S
O198 Co196 2.091 . S
O198 C204 1.261 . S
C199 O208 1.247 . S
C199 O209 1.272 . S
O200 Co196 2.004 . S
O200 C205 1.259 . S
Co201 O202 2.061 . S
Co201 O207 2.052 . S
Co201 O209 2.135 . S
O202 Co201 2.061 . S
O202 C205 1.235 . S
C203 O206 1.238 . S
C203 O207 1.241 . S
C204 O197 1.247 . S
C204 O198 1.261 . S
C205 O200 1.259 . S
C205 O202 1.235 . S
O206 Co196 2.021 . S
O206 C203 1.238 . S
O207 Co201 2.052 . S
O207 C203 1.241 . S
O208 Co196 2.137 . S
O208 C199 1.247 . S
O209 Co196 2.244 . S
O209 C199 1.272 . S
O209 Co201 2.135 . S
Co210 O211 2.216 . S
Co210 O212 2.091 . S
Co210 O214 2.004 . S
Co210 O220 2.021 . S
Co210 O222 2.137 . S
Co210 O223 2.244 . S
O211 Co210 2.216 . S
O211 C218 1.247 . S
O212 Co210 2.091 . S
O212 C218 1.261 . S
C213 O222 1.247 . S
C213 O223 1.272 . S
O214 Co210 2.004 . S
O214 C219 1.259 . S
Co215 O216 2.061 . S
Co215 O221 2.052 . S
Co215 O223 2.135 . S
O216 Co215 2.061 . S
O216 C219 1.235 . S
C217 O220 1.238 . S
C217 O221 1.241 . S
C218 O211 1.247 . S
C218 O212 1.261 . S
C219 O214 1.259 . S
C219 O216 1.235 . S
O220 Co210 2.021 . S
O220 C217 1.238 . S
O221 Co215 2.052 . S
O221 C217 1.241 . S
O222 Co210 2.137 . S
O222 C213 1.247 . S
O223 Co210 2.244 . S
O223 C213 1.272 . S
O223 Co215 2.135 . S
C224 C225 1.369 . S
C224 C226 1.419 1_565 S
C224 H228 0.930 . S
C225 C224 1.369 . S
C225 C234 1.429 . S
C226 C224 1.419 1_545 S
C226 C227 1.363 . S
C226 H229 0.929 . S
C227 C226 1.363 . S
C227 C233 1.428 . S
H228 C224 0.930 . S
H229 C226 0.929 . S
S230 N231 1.613 . S
S230 N232 1.610 1_565 S
N231 S230 1.613 . S
N231 C234 1.350 . S
N232 S230 1.610 1_545 S
N232 C233 1.351 . S
C233 C227 1.428 . S
C233 N232 1.351 . S
C233 C234 1.434 1_545 S
C234 C225 1.429 . S
C234 N231 1.350 . S
C234 C233 1.434 1_565 S
C235 C236 1.369 . S
C235 C237 1.419 1_455 S
C235 H239 0.930 . S
C236 C235 1.369 . S
C236 C245 1.429 . S
C237 C235 1.419 1_655 S
C237 C238 1.363 . S
C237 H240 0.929 . S
C238 C237 1.363 . S
C238 C244 1.428 . S
H239 C235 0.930 . S
H240 C237 0.929 . S
S241 N242 1.613 . S
S241 N243 1.610 1_455 S
N242 S241 1.613 . S
N242 C245 1.350 . S
N243 S241 1.610 1_655 S
N243 C244 1.351 . S
C244 C238 1.428 . S
C244 N243 1.351 . S
C244 C245 1.434 1_655 S
C245 C236 1.429 . S
C245 N242 1.350 . S
C245 C244 1.434 1_455 S
C246 C247 1.369 . S
C246 C248 1.419 1_565 S
C246 H250 0.930 . S
C247 C246 1.369 . S
C247 C256 1.429 . S
C248 C246 1.419 1_545 S
C248 C249 1.363 . S
C248 H251 0.929 . S
C249 C248 1.363 . S
C249 C255 1.428 . S
H250 C246 0.930 . S
H251 C248 0.929 . S
S252 N253 1.613 1_545 S
S252 N254 1.610 . S
N253 S252 1.613 1_565 S
N253 C256 1.350 . S
N254 S252 1.610 . S
N254 C255 1.351 . S
C255 C249 1.428 . S
C255 N254 1.351 . S
C255 C256 1.434 1_545 S
C256 C247 1.429 . S
C256 N253 1.350 . S
C256 C255 1.434 1_565 S
C257 C258 1.369 . S
C257 C259 1.419 1_455 S
C257 H261 0.930 . S
C258 C257 1.369 . S
C258 C267 1.429 . S
C259 C257 1.419 1_655 S
C259 C260 1.363 . S
C259 H262 0.929 . S
C260 C259 1.363 . S
C260 C266 1.428 . S
H261 C257 0.930 . S
H262 C259 0.929 . S
S263 N264 1.613 . S
S263 N265 1.610 1_455 S
N264 S263 1.613 . S
N264 C267 1.350 . S
N265 S263 1.610 1_655 S
N265 C266 1.351 . S
C266 C260 1.428 . S
C266 N265 1.351 . S
C266 C267 1.434 1_655 S
C267 C258 1.429 . S
C267 N264 1.350 . S
C267 C266 1.434 1_455 S
C268 C269 1.369 . S
C268 C270 1.419 . S
C268 H272 0.930 . S
C269 C268 1.369 . S
C269 C278 1.429 . S
C270 C268 1.419 . S
C270 C271 1.363 . S
C270 H273 0.929 . S
C271 C270 1.363 . S
C271 C277 1.428 . S
H272 C268 0.930 . S
H273 C270 0.929 . S
S274 N275 1.613 . S
S274 N276 1.610 . S
N275 S274 1.613 . S
N275 C278 1.350 . S
N276 S274 1.610 . S
N276 C277 1.351 . S
C277 C271 1.428 . S
C277 N276 1.351 . S
C277 C278 1.434 . S
C278 C269 1.429 . S
C278 N275 1.350 . S
C278 C277 1.434 . S
C279 C280 1.369 . S
C279 C281 1.419 . S
C279 H283 0.930 . S
C280 C279 1.369 . S
C280 C289 1.429 . S
C281 C279 1.419 . S
C281 C282 1.363 . S
C281 H284 0.929 . S
C282 C281 1.363 . S
C282 C288 1.428 . S
H283 C279 0.930 . S
H284 C281 0.929 . S
S285 N286 1.613 . S
S285 N287 1.610 . S
N286 S285 1.613 . S
N286 C289 1.350 . S
N287 S285 1.610 . S
N287 C288 1.351 . S
C288 C282 1.428 . S
C288 N287 1.351 . S
C288 C289 1.434 . S
C289 C280 1.429 . S
C289 N286 1.350 . S
C289 C288 1.434 . S
C290 C291 1.369 . S
C290 C292 1.419 . S
C290 H294 0.930 . S
C291 C290 1.369 . S
C291 C300 1.429 1_556 S
C292 C290 1.419 . S
C292 C293 1.363 . S
C292 H295 0.929 . S
C293 C292 1.363 . S
C293 C299 1.428 1_556 S
H294 C290 0.930 . S
H295 C292 0.929 . S
S296 N297 1.613 . S
S296 N298 1.610 . S
N297 S296 1.613 . S
N297 C300 1.350 . S
N298 S296 1.610 . S
N298 C299 1.351 . S
C299 C293 1.428 1_554 S
C299 N298 1.351 . S
C299 C300 1.434 . S
C300 C291 1.429 1_554 S
C300 N297 1.350 . S
C300 C299 1.434 . S
C301 C302 1.369 . S
C301 C303 1.419 . S
C301 H305 0.930 . S
C302 C301 1.369 . S
C302 C311 1.429 . S
C303 C301 1.419 . S
C303 C304 1.363 . S
C303 H306 0.929 . S
C304 C303 1.363 . S
C304 C310 1.428 . S
H305 C301 0.930 . S
H306 C303 0.929 . S
S307 N308 1.613 . S
S307 N309 1.610 . S
N308 S307 1.613 . S
N308 C311 1.350 . S
N309 S307 1.610 . S
N309 C310 1.351 . S
C310 C304 1.428 . S
C310 N309 1.351 . S
C310 C311 1.434 . S
C311 C302 1.429 . S
C311 N308 1.350 . S
C311 C310 1.434 . S
C312 C313 1.369 . S
C312 C314 1.419 . S
C312 H316 0.930 . S
C313 C312 1.369 . S
C313 C322 1.429 . S
C314 C312 1.419 . S
C314 C315 1.363 . S
C314 H317 0.929 . S
C315 C314 1.363 . S
C315 C321 1.428 . S
H316 C312 0.930 . S
H317 C314 0.929 . S
S318 N319 1.613 . S
S318 N320 1.610 1_554 S
N319 S318 1.613 . S
N319 C322 1.350 1_554 S
N320 S318 1.610 1_556 S
N320 C321 1.351 . S
C321 C315 1.428 . S
C321 N320 1.351 . S
C321 C322 1.434 . S
C322 C313 1.429 . S
C322 N319 1.350 1_556 S
C322 C321 1.434 . S
C323 C324 1.369 . S
C323 C325 1.419 . S
C323 H327 0.930 . S
C324 C323 1.369 . S
C324 C333 1.429 . S
C325 C323 1.419 . S
C325 C326 1.363 . S
C325 H328 0.929 . S
C326 C325 1.363 . S
C326 C332 1.428 . S
H327 C323 0.930 . S
H328 C325 0.929 . S
S329 N330 1.613 . S
S329 N331 1.610 . S
N330 S329 1.613 . S
N330 C333 1.350 . S
N331 S329 1.610 . S
N331 C332 1.351 . S
C332 C326 1.428 . S
C332 N331 1.351 . S
C332 C333 1.434 . S
C333 C324 1.429 . S
C333 N330 1.350 . S
C333 C332 1.434 . S
C334 C335 1.369 . S
C334 C336 1.419 . S
C334 H338 0.930 . S
C335 C334 1.369 . S
C335 C344 1.429 . S
C336 C334 1.419 . S
C336 C337 1.363 . S
C336 H339 0.929 . S
C337 C336 1.363 . S
C337 C343 1.428 . S
H338 C334 0.930 . S
H339 C336 0.929 . S
S340 N341 1.613 1_554 S
S340 N342 1.610 1_554 S
N341 S340 1.613 1_556 S
N341 C344 1.350 . S
N342 S340 1.610 1_556 S
N342 C343 1.351 . S
C343 C337 1.428 . S
C343 N342 1.351 . S
C343 C344 1.434 . S
C344 C335 1.429 . S
C344 N341 1.350 . S
C344 C343 1.434 . S
C345 C346 1.369 . S
C345 C347 1.419 . S
C345 H349 0.930 . S
C346 C345 1.369 . S
C346 C355 1.429 . S
C347 C345 1.419 . S
C347 C348 1.363 . S
C347 H350 0.929 . S
C348 C347 1.363 . S
C348 C354 1.428 . S
H349 C345 0.930 . S
H350 C347 0.929 . S
S351 N352 1.613 . S
S351 N353 1.610 . S
N352 S351 1.613 . S
N352 C355 1.350 . S
N353 S351 1.610 . S
N353 C354 1.351 . S
C354 C348 1.428 . S
C354 N353 1.351 . S
C354 C355 1.434 . S
C355 C346 1.429 . S
C355 N352 1.350 . S
C355 C354 1.434 . S
C356 C357 1.369 . S
C356 C358 1.419 1_565 S
C356 H360 0.930 . S
C357 C356 1.369 . S
C357 C366 1.429 . S
C358 C356 1.419 1_545 S
C358 C359 1.363 . S
C358 H361 0.929 . S
C359 C358 1.363 . S
C359 C365 1.428 . S
H360 C356 0.930 . S
H361 C358 0.929 . S
S362 N363 1.613 1_545 S
S362 N364 1.610 . S
N363 S362 1.613 1_565 S
N363 C366 1.350 . S
N364 S362 1.610 . S
N364 C365 1.351 . S
C365 C359 1.428 . S
C365 N364 1.351 . S
C365 C366 1.434 1_545 S
C366 C357 1.429 . S
C366 N363 1.350 . S
C366 C365 1.434 1_565 S
C367 C368 1.369 . S
C367 C369 1.419 1_655 S
C367 H371 0.930 . S
C368 C367 1.369 . S
C368 C377 1.429 . S
C369 C367 1.419 1_455 S
C369 C370 1.363 . S
C369 H372 0.929 . S
C370 C369 1.363 . S
C370 C376 1.428 . S
H371 C367 0.930 . S
H372 C369 0.929 . S
S373 N374 1.613 . S
S373 N375 1.610 1_655 S
N374 S373 1.613 . S
N374 C377 1.350 . S
N375 S373 1.610 1_455 S
N375 C376 1.351 . S
C376 C370 1.428 . S
C376 N375 1.351 . S
C376 C377 1.434 1_455 S
C377 C368 1.429 . S
C377 N374 1.350 . S
C377 C376 1.434 1_655 S
C378 C379 1.369 . S
C378 C380 1.419 1_565 S
C378 H382 0.930 . S
C379 C378 1.369 . S
C379 C388 1.429 . S
C380 C378 1.419 1_545 S
C380 C381 1.363 . S
C380 H383 0.929 . S
C381 C380 1.363 . S
C381 C387 1.428 . S
H382 C378 0.930 . S
H383 C380 0.929 . S
S384 N385 1.613 1_545 S
S384 N386 1.610 . S
N385 S384 1.613 1_565 S
N385 C388 1.350 . S
N386 S384 1.610 . S
N386 C387 1.351 . S
C387 C381 1.428 . S
C387 N386 1.351 . S
C387 C388 1.434 1_545 S
C388 C379 1.429 . S
C388 N385 1.350 . S
C388 C387 1.434 1_565 S
C389 C390 1.369 . S
C389 C391 1.419 1_655 S
C389 H393 0.930 . S
C390 C389 1.369 . S
C390 C399 1.429 . S
C391 C389 1.419 1_455 S
C391 C392 1.363 . S
C391 H394 0.929 . S
C392 C391 1.363 . S
C392 C398 1.428 . S
H393 C389 0.930 . S
H394 C391 0.929 . S
S395 N396 1.613 . S
S395 N397 1.610 1_655 S
N396 S395 1.613 . S
N396 C399 1.350 . S
N397 S395 1.610 1_455 S
N397 C398 1.351 . S
C398 C392 1.428 . S
C398 N397 1.351 . S
C398 C399 1.434 1_455 S
C399 C390 1.429 . S
C399 N396 1.350 . S
C399 C398 1.434 1_655 S
C400 C401 1.369 . S
C400 C402 1.419 . S
C400 H404 0.930 . S
C401 C400 1.369 . S
C401 C410 1.429 . S
C402 C400 1.419 . S
C402 C403 1.363 . S
C402 H405 0.929 . S
C403 C402 1.363 . S
C403 C409 1.428 . S
H404 C400 0.930 . S
H405 C402 0.929 . S
S406 N407 1.613 . S
S406 N408 1.610 . S
N407 S406 1.613 . S
N407 C410 1.350 . S
N408 S406 1.610 . S
N408 C409 1.351 . S
C409 C403 1.428 . S
C409 N408 1.351 . S
C409 C410 1.434 . S
C410 C401 1.429 . S
C410 N407 1.350 . S
C410 C409 1.434 . S
C411 C412 1.369 . S
C411 C413 1.419 . S
C411 H415 0.930 . S
C412 C411 1.369 . S
C412 C421 1.429 . S
C413 C411 1.419 . S
C413 C414 1.363 . S
C413 H416 0.929 . S
C414 C413 1.363 . S
C414 C420 1.428 . S
H415 C411 0.930 . S
H416 C413 0.929 . S
S417 N418 1.613 . S
S417 N419 1.610 . S
N418 S417 1.613 . S
N418 C421 1.350 . S
N419 S417 1.610 . S
N419 C420 1.351 . S
C420 C414 1.428 . S
C420 N419 1.351 . S
C420 C421 1.434 . S
C421 C412 1.429 . S
C421 N418 1.350 . S
C421 C420 1.434 . S
C422 C423 1.369 . S
C422 C424 1.419 . S
C422 H426 0.930 . S
C423 C422 1.369 . S
C423 C432 1.429 . S
C424 C422 1.419 . S
C424 C425 1.363 . S
C424 H427 0.929 1_554 S
C425 C424 1.363 . S
C425 C431 1.428 . S
H426 C422 0.930 . S
H427 C424 0.929 1_556 S
S428 N429 1.613 . S
S428 N430 1.610 . S
N429 S428 1.613 . S
N429 C432 1.350 . S
N430 S428 1.610 . S
N430 C431 1.351 . S
C431 C425 1.428 . S
C431 N430 1.351 . S
C431 C432 1.434 . S
C432 C423 1.429 . S
C432 N429 1.350 . S
C432 C431 1.434 . S
C433 C434 1.369 . S
C433 C435 1.419 . S
C433 H437 0.930 . S
C434 C433 1.369 . S
C434 C443 1.429 . S
C435 C433 1.419 . S
C435 C436 1.363 . S
C435 H438 0.929 . S
C436 C435 1.363 . S
C436 C442 1.428 . S
H437 C433 0.930 . S
H438 C435 0.929 . S
S439 N440 1.613 . S
S439 N441 1.610 . S
N440 S439 1.613 . S
N440 C443 1.350 . S
N441 S439 1.610 . S
N441 C442 1.351 . S
C442 C436 1.428 . S
C442 N441 1.351 . S
C442 C443 1.434 . S
C443 C434 1.429 . S
C443 N440 1.350 . S
C443 C442 1.434 . S
C444 C445 1.369 . S
C444 C446 1.419 . S
C444 H448 0.930 . S
C445 C444 1.369 . S
C445 C454 1.429 . S
C446 C444 1.419 . S
C446 C447 1.363 . S
C446 H449 0.929 . S
C447 C446 1.363 . S
C447 C453 1.428 . S
H448 C444 0.930 . S
H449 C446 0.929 . S
S450 N451 1.613 . S
S450 N452 1.610 . S
N451 S450 1.613 . S
N451 C454 1.350 . S
N452 S450 1.610 . S
N452 C453 1.351 . S
C453 C447 1.428 . S
C453 N452 1.351 . S
C453 C454 1.434 . S
C454 C445 1.429 . S
C454 N451 1.350 . S
C454 C453 1.434 . S
C455 C456 1.369 . S
C455 C457 1.419 . S
C455 H459 0.930 . S
C456 C455 1.369 . S
C456 C465 1.429 . S
C457 C455 1.419 . S
C457 C458 1.363 . S
C457 H460 0.929 . S
C458 C457 1.363 . S
C458 C464 1.428 . S
H459 C455 0.930 . S
H460 C457 0.929 . S
S461 N462 1.613 . S
S461 N463 1.610 . S
N462 S461 1.613 . S
N462 C465 1.350 . S
N463 S461 1.610 . S
N463 C464 1.351 . S
C464 C458 1.428 . S
C464 N463 1.351 . S
C464 C465 1.434 . S
C465 C456 1.429 . S
C465 N462 1.350 . S
C465 C464 1.434 . S
C466 C467 1.369 . S
C466 C468 1.419 . S
C466 H470 0.930 . S
C467 C466 1.369 . S
C467 C476 1.429 . S
C468 C466 1.419 . S
C468 C469 1.363 . S
C468 H471 0.929 . S
C469 C468 1.363 . S
C469 C475 1.428 . S
H470 C466 0.930 . S
H471 C468 0.929 . S
S472 N473 1.613 . S
S472 N474 1.610 . S
N473 S472 1.613 . S
N473 C476 1.350 . S
N474 S472 1.610 . S
N474 C475 1.351 . S
C475 C469 1.428 . S
C475 N474 1.351 . S
C475 C476 1.434 . S
C476 C467 1.429 . S
C476 N473 1.350 . S
C476 C475 1.434 . S
C477 C478 1.369 . S
C477 C479 1.419 . S
C477 H481 0.930 . S
C478 C477 1.369 . S
C478 C487 1.429 . S
C479 C477 1.419 . S
C479 C480 1.363 . S
C479 H482 0.929 . S
C480 C479 1.363 . S
C480 C486 1.428 . S
H481 C477 0.930 . S
H482 C479 0.929 . S
S483 N484 1.613 . S
S483 N485 1.610 . S
N484 S483 1.613 . S
N484 C487 1.350 . S
N485 S483 1.610 . S
N485 C486 1.351 . S
C486 C480 1.428 . S
C486 N485 1.351 . S
C486 C487 1.434 . S
C487 C478 1.429 . S
C487 N484 1.350 . S
C487 C486 1.434 . S
C488 C489 1.369 . S
C488 C490 1.419 . S
C488 H492 0.930 . S
C489 C488 1.369 . S
C489 C498 1.429 . S
C490 C488 1.419 . S
C490 C491 1.363 . S
C490 H493 0.929 . S
C491 C490 1.363 . S
C491 C497 1.428 . S
H492 C488 0.930 . S
H493 C490 0.929 . S
S494 N495 1.613 . S
S494 N496 1.610 . S
N495 S494 1.613 . S
N495 C498 1.350 1_554 S
N496 S494 1.610 . S
N496 C497 1.351 1_554 S
C497 C491 1.428 . S
C497 N496 1.351 1_556 S
C497 C498 1.434 . S
C498 C489 1.429 . S
C498 N495 1.350 1_556 S
C498 C497 1.434 . S
C499 C500 1.369 . S
C499 C501 1.419 . S
C499 H503 0.930 . S
C500 C499 1.369 . S
C500 C509 1.429 . S
C501 C499 1.419 . S
C501 C502 1.363 . S
C501 H504 0.929 . S
C502 C501 1.363 . S
C502 C508 1.428 . S
H503 C499 0.930 . S
H504 C501 0.929 . S
S505 N506 1.613 . S
S505 N507 1.610 . S
N506 S505 1.613 . S
N506 C509 1.350 1_556 S
N507 S505 1.610 . S
N507 C508 1.351 1_556 S
C508 C502 1.428 . S
C508 N507 1.351 1_554 S
C508 C509 1.434 . S
C509 C500 1.429 . S
C509 N506 1.350 1_554 S
C509 C508 1.434 . S
C510 C511 1.369 . S
C510 C512 1.419 . S
C510 H514 0.930 . S
C511 C510 1.369 . S
C511 C520 1.429 . S
C512 C510 1.419 . S
C512 C513 1.363 . S
C512 H515 0.929 . S
C513 C512 1.363 . S
C513 C519 1.428 . S
H514 C510 0.930 . S
H515 C512 0.929 . S
S516 N517 1.613 . S
S516 N518 1.610 1_554 S
N517 S516 1.613 . S
N517 C520 1.350 1_554 S
N518 S516 1.610 1_556 S
N518 C519 1.351 . S
C519 C513 1.428 . S
C519 N518 1.351 . S
C519 C520 1.434 . S
C520 C511 1.429 . S
C520 N517 1.350 1_556 S
C520 C519 1.434 . S
C521 C522 1.369 . S
C521 C523 1.419 . S
C521 H525 0.930 . S
C522 C521 1.369 . S
C522 C531 1.429 . S
C523 C521 1.419 . S
C523 C524 1.363 . S
C523 H526 0.929 1_554 S
C524 C523 1.363 . S
C524 C530 1.428 . S
H525 C521 0.930 . S
H526 C523 0.929 1_556 S
S527 N528 1.613 . S
S527 N529 1.610 . S
N528 S527 1.613 . S
N528 C531 1.350 . S
N529 S527 1.610 . S
N529 C530 1.351 . S
C530 C524 1.428 . S
C530 N529 1.351 . S
C530 C531 1.434 . S
C531 C522 1.429 . S
C531 N528 1.350 . S
C531 C530 1.434 . S
C532 C533 1.369 . S
C532 C534 1.419 . S
C532 H536 0.930 . S
C533 C532 1.369 . S
C533 C542 1.429 . S
C534 C532 1.419 . S
C534 C535 1.363 . S
C534 H537 0.929 . S
C535 C534 1.363 . S
C535 C541 1.428 . S
H536 C532 0.930 . S
H537 C534 0.929 . S
S538 N539 1.613 . S
S538 N540 1.610 . S
N539 S538 1.613 . S
N539 C542 1.350 . S
N540 S538 1.610 . S
N540 C541 1.351 . S
C541 C535 1.428 . S
C541 N540 1.351 . S
C541 C542 1.434 . S
C542 C533 1.429 . S
C542 N539 1.350 . S
C542 C541 1.434 . S
C543 C544 1.369 . S
C543 C545 1.419 . S
C543 H547 0.930 . S
C544 C543 1.369 . S
C544 C553 1.429 . S
C545 C543 1.419 . S
C545 C546 1.363 . S
C545 H548 0.929 . S
C546 C545 1.363 . S
C546 C552 1.428 . S
H547 C543 0.930 . S
H548 C545 0.929 . S
S549 N550 1.613 . S
S549 N551 1.610 . S
N550 S549 1.613 . S
N550 C553 1.350 . S
N551 S549 1.610 . S
N551 C552 1.351 . S
C552 C546 1.428 . S
C552 N551 1.351 . S
C552 C553 1.434 . S
C553 C544 1.429 . S
C553 N550 1.350 . S
C553 C552 1.434 . S
C554 C555 1.369 . S
C554 C556 1.419 . S
C554 H558 0.930 . S
C555 C554 1.369 . S
C555 C564 1.429 . S
C556 C554 1.419 . S
C556 C557 1.363 . S
C556 H559 0.929 . S
C557 C556 1.363 . S
C557 C563 1.428 . S
H558 C554 0.930 . S
H559 C556 0.929 . S
S560 N561 1.613 . S
S560 N562 1.610 . S
N561 S560 1.613 . S
N561 C564 1.350 . S
N562 S560 1.610 . S
N562 C563 1.351 . S
C563 C557 1.428 . S
C563 N562 1.351 . S
C563 C564 1.434 . S
C564 C555 1.429 . S
C564 N561 1.350 . S
C564 C563 1.434 . S
C565 C566 1.369 . S
C565 C567 1.419 . S
C565 H569 0.930 . S
C566 C565 1.369 . S
C566 C575 1.429 . S
C567 C565 1.419 . S
C567 C568 1.363 . S
C567 H570 0.929 . S
C568 C567 1.363 . S
C568 C574 1.428 . S
H569 C565 0.930 . S
H570 C567 0.929 . S
S571 N572 1.613 . S
S571 N573 1.610 . S
N572 S571 1.613 . S
N572 C575 1.350 . S
N573 S571 1.610 . S
N573 C574 1.351 . S
C574 C568 1.428 . S
C574 N573 1.351 . S
C574 C575 1.434 . S
C575 C566 1.429 . S
C575 N572 1.350 . S
C575 C574 1.434 . S
C225 C163 1.384 . S
C227 C3 1.357 . S
C236 C17 1.360 . S
C238 C121 1.388 . S
C247 C31 1.361 . S
C249 C135 1.383 . S
C258 C149 1.381 . S
C260 C45 1.358 . S
C269 C59 1.361 1_556 S
C271 C79 1.384 . S
C280 C73 1.360 1_554 S
C282 C93 1.384 . S
C291 C107 1.382 . S
C293 C87 1.354 1_556 S
C302 C65 1.387 . S
C304 C101 1.355 1_554 S
C313 C51 1.388 . S
C315 C115 1.365 . S
C324 C129 1.359 . S
C326 C9 1.383 . S
C335 C23 1.387 . S
C337 C143 1.365 . S
C346 C157 1.359 . S
C348 C37 1.383 . S
C357 C171 1.359 . S
C359 C191 1.382 . S
C368 C185 1.357 . S
C370 C205 1.386 . S
C379 C219 1.388 . S
C381 C199 1.358 . S
C390 C177 1.387 . S
C392 C213 1.365 . S
C401 C63 1.500 . S
C403 C7 1.505 . S
C412 C21 1.497 . S
C414 C77 1.499 . S
C423 C35 1.506 . S
C425 C91 1.501 . S
C434 C105 1.496 . S
C436 C49 1.502 . S
C445 C119 1.500 . S
C447 C175 1.505 . S
C456 C189 1.504 . S
C458 C133 1.498 . S
C467 C147 1.506 . S
C469 C203 1.498 . S
C478 C217 1.501 . S
C480 C161 1.505 . S
C489 C204 1.476 . S
C491 C8 1.471 . S
C500 C218 1.477 . S
C502 C22 1.470 . S
C511 C36 1.472 . S
C513 C176 1.475 . S
C522 C190 1.470 . S
C524 C50 1.476 . S
C533 C148 1.476 . S
C535 C64 1.472 . S
C544 C162 1.473 . S
C546 C78 1.475 . S
C555 C92 1.470 . S
C557 C120 1.476 . S
C566 C134 1.477 . S
C568 C106 1.471 . S
