# Generated by pormake.
# Topology mon, (4)-cn, num edge types: 1
# Building blocks:
#     Node 0, Type 0, BuildingBlock: TATPOV_clean_sbu_0, # of connection points: 4
#     Node 1, Type 0, BuildingBlock: TATPOV_clean_sbu_0, # of connection points: 4
#     Node 2, Type 0, BuildingBlock: TATPOV_clean_sbu_0, # of connection points: 4
#     Node 3, Type 0, BuildingBlock: TATPOV_clean_sbu_0, # of connection points: 4
#     Node 4, Type 0, BuildingBlock: TATPOV_clean_sbu_0, # of connection points: 4
#     Node 5, Type 0, BuildingBlock: TATPOV_clean_sbu_0, # of connection points: 4
#     Node 6, Type 0, BuildingBlock: TATPOV_clean_sbu_0, # of connection points: 4
#     Node 7, Type 0, BuildingBlock: TATPOV_clean_sbu_0, # of connection points: 4
#     Node 8, Type 0, BuildingBlock: TATPOV_clean_sbu_0, # of connection points: 4
#     Node 9, Type 0, BuildingBlock: TATPOV_clean_sbu_0, # of connection points: 4
#     Node 10, Type 0, BuildingBlock: TATPOV_clean_sbu_0, # of connection points: 4
#     Node 11, Type 0, BuildingBlock: TATPOV_clean_sbu_0, # of connection points: 4
#     Node 12, Type 0, BuildingBlock: TATPOV_clean_sbu_0, # of connection points: 4
#     Node 13, Type 0, BuildingBlock: TATPOV_clean_sbu_0, # of connection points: 4
#     Node 14, Type 0, BuildingBlock: TATPOV_clean_sbu_0, # of connection points: 4
#     Node 15, Type 0, BuildingBlock: TATPOV_clean_sbu_0, # of connection points: 4
#     Edge 16, Type (0, 0), BuildingBlock: OJICUG_clean_linker_0, # of connection points: 2
#     Edge 17, Type (0, 0), BuildingBlock: OJICUG_clean_linker_0, # of connection points: 2
#     Edge 18, Type (0, 0), BuildingBlock: OJICUG_clean_linker_0, # of connection points: 2
#     Edge 19, Type (0, 0), BuildingBlock: OJICUG_clean_linker_0, # of connection points: 2
#     Edge 20, Type (0, 0), BuildingBlock: OJICUG_clean_linker_0, # of connection points: 2
#     Edge 21, Type (0, 0), BuildingBlock: OJICUG_clean_linker_0, # of connection points: 2
#     Edge 22, Type (0, 0), BuildingBlock: OJICUG_clean_linker_0, # of connection points: 2
#     Edge 23, Type (0, 0), BuildingBlock: OJICUG_clean_linker_0, # of connection points: 2
#     Edge 24, Type (0, 0), BuildingBlock: OJICUG_clean_linker_0, # of connection points: 2
#     Edge 25, Type (0, 0), BuildingBlock: OJICUG_clean_linker_0, # of connection points: 2
#     Edge 26, Type (0, 0), BuildingBlock: OJICUG_clean_linker_0, # of connection points: 2
#     Edge 27, Type (0, 0), BuildingBlock: OJICUG_clean_linker_0, # of connection points: 2
#     Edge 28, Type (0, 0), BuildingBlock: OJICUG_clean_linker_0, # of connection points: 2
#     Edge 29, Type (0, 0), BuildingBlock: OJICUG_clean_linker_0, # of connection points: 2
#     Edge 30, Type (0, 0), BuildingBlock: OJICUG_clean_linker_0, # of connection points: 2
#     Edge 31, Type (0, 0), BuildingBlock: OJICUG_clean_linker_0, # of connection points: 2
#     Edge 32, Type (0, 0), BuildingBlock: OJICUG_clean_linker_0, # of connection points: 2
#     Edge 33, Type (0, 0), BuildingBlock: OJICUG_clean_linker_0, # of connection points: 2
#     Edge 34, Type (0, 0), BuildingBlock: OJICUG_clean_linker_0, # of connection points: 2
#     Edge 35, Type (0, 0), BuildingBlock: OJICUG_clean_linker_0, # of connection points: 2
#     Edge 36, Type (0, 0), BuildingBlock: OJICUG_clean_linker_0, # of connection points: 2
#     Edge 37, Type (0, 0), BuildingBlock: OJICUG_clean_linker_0, # of connection points: 2
#     Edge 38, Type (0, 0), BuildingBlock: OJICUG_clean_linker_0, # of connection points: 2
#     Edge 39, Type (0, 0), BuildingBlock: OJICUG_clean_linker_0, # of connection points: 2
#     Edge 40, Type (0, 0), BuildingBlock: OJICUG_clean_linker_0, # of connection points: 2
#     Edge 41, Type (0, 0), BuildingBlock: OJICUG_clean_linker_0, # of connection points: 2
#     Edge 42, Type (0, 0), BuildingBlock: OJICUG_clean_linker_0, # of connection points: 2
#     Edge 43, Type (0, 0), BuildingBlock: OJICUG_clean_linker_0, # of connection points: 2
#     Edge 44, Type (0, 0), BuildingBlock: OJICUG_clean_linker_0, # of connection points: 2
#     Edge 45, Type (0, 0), BuildingBlock: OJICUG_clean_linker_0, # of connection points: 2
#     Edge 46, Type (0, 0), BuildingBlock: OJICUG_clean_linker_0, # of connection points: 2
#     Edge 47, Type (0, 0), BuildingBlock: OJICUG_clean_linker_0, # of connection points: 2
# Relax obj value: 0.116
# Max RMSD: 0.121
# Mean RMSD: 0.121
data_MOF--net-mon--node1-TATPOV_clean_sbu_0--edge1-OJICUG_clean_linker_0
_symmetry_space_group_name_H-M    P1
_symmetry_Int_Tables_number       1
_symmetry_cell_setting            triclinic
loop_
_symmetry_equiv_pos_as_xyz
'x, y, z'
_cell_length_a     24.139018
_cell_length_b     24.342171
_cell_length_c     64.084018
_cell_angle_alpha  89.649042
_cell_angle_beta   89.89273
_cell_angle_gamma 90.741569
loop_
_atom_site_label
_atom_site_type_symbol
_atom_site_fract_x
_atom_site_fract_y
_atom_site_fract_z
_atom_type_partial_charge
Zn0 Zn 0.12215 0.98028 0.56087 0.0
Zn1 Zn 0.09993 0.08027 0.56667 0.0
O2 O 0.17781 0.06389 0.57887 0.0
O3 O 0.20429 0.98804 0.56391 0.0
O4 O 0.09801 0.16303 0.56585 0.0
O5 O 0.08821 0.9708 0.53293 0.0
O6 O 0.07498 0.0593 0.53671 0.0
C7 C 0.21497 0.02809 0.57574 0.0
C8 C 0.04204 1.0038 0.59451 0.0
O9 O 0.04206 0.05292 0.58761 0.0
O10 O 0.07399 0.96837 0.5867 0.0
C11 C 0.11329 0.19365 0.58083 0.0
O12 O 0.12859 0.17102 0.59854 0.0
C13 C 0.07039 0.01569 0.52583 0.0
Zn14 Zn 0.29953 0.69709 0.81777 0.0
Zn15 Zn 0.19829 0.72215 0.81768 0.0
O16 O 0.22624 0.78651 0.83575 0.0
O17 O 0.30929 0.75239 0.8409 0.0
O18 O 0.11459 0.72934 0.81605 0.0
O19 O 0.31683 0.71928 0.78876 0.0
O20 O 0.22662 0.72996 0.78673 0.0
C21 C 0.27317 0.78822 0.84476 0.0
C22 C 0.24148 0.60994 0.83387 0.0
O23 O 0.20551 0.64787 0.83384 0.0
O24 O 0.28698 0.61782 0.82451 0.0
C25 C 0.08604 0.74256 0.83194 0.0
O26 O 0.11163 0.75468 0.84942 0.0
C27 C 0.27451 0.73029 0.77806 0.0
Zn28 Zn 0.69665 0.08752 0.04448 0.0
Zn29 Zn 0.67983 0.98232 0.05723 0.0
O30 O 0.61907 0.01974 0.07367 0.0
O31 O 0.6293 0.10508 0.06227 0.0
O32 O 0.66954 0.90134 0.06298 0.0
O33 O 0.68326 0.07089 0.01451 0.0
O34 O 0.66618 0.98675 0.02575 0.0
C35 C 0.60375 0.06958 0.07336 0.0
C36 C 0.78796 0.04346 0.0678 0.0
O37 O 0.75618 1.00142 0.06914 0.0
O38 O 0.77317 0.08489 0.05722 0.0
C39 C 0.67588 0.87854 0.0807 0.0
O40 O 0.68989 0.90881 0.0968 0.0
C41 C 0.66802 0.02198 0.01097 0.0
Zn42 Zn 0.13159 0.22258 0.27989 0.0
Zn43 Zn 0.22188 0.22273 0.30626 0.0
O44 O 0.16932 0.17287 0.32337 0.0
O45 O 0.09567 0.1781 0.30299 0.0
O46 O 0.2985 0.22477 0.31953 0.0
O47 O 0.17397 0.18581 0.25701 0.0
O48 O 0.24432 0.19168 0.27855 0.0
C49 C 0.11859 0.16136 0.3196 0.0
C50 C 0.15894 0.32938 0.29516 0.0
O51 O 0.19426 0.30201 0.30557 0.0
O52 O 0.12854 0.30545 0.28182 0.0
C53 C 0.32808 0.26851 0.31926 0.0
O54 O 0.30576 0.31487 0.31324 0.0
C55 C 0.22457 0.17806 0.26098 0.0
Zn56 Zn 0.89422 0.06485 0.41433 0.0
Zn57 Zn 0.92514 0.96707 0.40525 0.0
O58 O 0.97946 0.0093 0.38645 0.0
O59 O 0.9418 0.09075 0.38995 0.0
O60 O 0.93833 0.88688 0.3991 0.0
O61 O 0.92744 0.06335 0.44259 0.0
O62 O 0.94734 0.97707 0.4363 0.0
C63 C 0.97706 0.05987 0.38143 0.0
C64 C 0.80487 0.01062 0.39823 0.0
O65 O 0.84451 0.97769 0.39475 0.0
O66 O 0.81315 0.05128 0.41004 0.0
C67 C 0.93981 0.87021 0.38032 0.0
O68 O 0.93407 0.90602 0.36507 0.0
C69 C 0.94811 0.01844 0.44847 0.0
Zn70 Zn 0.26567 0.80674 0.65017 0.0
Zn71 Zn 0.3751 0.80651 0.65072 0.0
O72 O 0.35679 0.88279 0.63819 0.0
O73 O 0.26571 0.88401 0.63933 0.0
O74 O 0.45938 0.80607 0.65044 0.0
O75 O 0.25839 0.79345 0.68028 0.0
O76 O 0.34954 0.79074 0.68178 0.0
C77 C 0.31139 0.9075 0.63504 0.0
C78 C 0.31128 0.72337 0.62424 0.0
O79 O 0.35714 0.7447 0.62995 0.0
O80 O 0.26589 0.74191 0.6309 0.0
C81 C 0.48475 0.82876 0.63512 0.0
O82 O 0.4559 0.85302 0.62045 0.0
C83 C 0.30208 0.78708 0.69076 0.0
Zn84 Zn 0.52864 0.90808 0.9004 0.0
Zn85 Zn 0.50649 0.01031 0.89203 0.0
O86 O 0.43065 0.97075 0.8867 0.0
O87 O 0.45035 0.88564 0.89548 0.0
O88 O 0.49034 0.09155 0.89127 0.0
O89 O 0.55582 0.91683 0.92893 0.0
O90 O 0.54396 1.00404 0.92119 0.0
C91 C 0.41577 0.92062 0.88921 0.0
C92 C 0.59057 0.95462 0.86546 0.0
O93 O 0.56121 0.99711 0.86803 0.0
O94 O 0.58439 0.91304 0.87723 0.0
C95 C 0.48294 0.12103 0.87509 0.0
O96 O 0.48383 0.09801 0.85661 0.0
C97 C 0.56068 0.96681 0.93373 0.0
Zn98 Zn 0.46136 0.22904 0.17103 0.0
Zn99 Zn 0.36398 0.23391 0.14805 0.0
O100 O 0.40874 0.18554 0.12857 0.0
O101 O 0.4838 0.17665 0.14808 0.0
O102 O 0.28369 0.236 0.13896 0.0
O103 O 0.42403 0.19767 0.19655 0.0
O104 O 0.35074 0.20038 0.17639 0.0
C105 C 0.45652 0.1654 0.13172 0.0
C106 C 0.43462 0.33775 0.15504 0.0
O107 O 0.39302 0.31268 0.14723 0.0
O108 O 0.46888 0.31175 0.16624 0.0
C109 C 0.25714 0.27968 0.13508 0.0
O110 O 0.28411 0.32668 0.13336 0.0
C111 C 0.37316 0.18761 0.1936 0.0
Zn112 Zn 0.81251 0.22483 0.15037 0.0
Zn113 Zn 0.9094 0.25197 0.15536 0.0
O114 O 0.88271 0.32102 0.13962 0.0
O115 O 0.80812 0.28051 0.12705 0.0
O116 O 0.99283 0.26219 0.15769 0.0
O117 O 0.78647 0.24332 0.17861 0.0
O118 O 0.87555 0.24478 0.18574 0.0
C119 C 0.84186 0.32072 0.12712 0.0
C120 C 0.87311 0.14317 0.13483 0.0
O121 O 0.90705 0.18351 0.13605 0.0
O122 O 0.82691 0.14609 0.14397 0.0
C123 C 0.01835 0.28248 0.14194 0.0
O124 O 0.98961 0.29966 0.12585 0.0
C125 C 0.82495 0.2453 0.1919 0.0
Zn126 Zn 0.92836 0.74133 0.65461 0.0
Zn127 Zn 0.82925 0.76464 0.63687 0.0
O128 O 0.86055 0.71282 0.61493 0.0
O129 O 0.93717 0.68791 0.63103 0.0
O130 O 0.74793 0.7744 0.63069 0.0
O131 O 0.89858 0.71411 0.68176 0.0
O132 O 0.82011 0.73208 0.66602 0.0
C133 C 0.90435 0.68426 0.61569 0.0
C134 C 0.91583 0.85546 0.64089 0.0
O135 O 0.86793 0.84001 0.63475 0.0
O136 O 0.94735 0.82175 0.65005 0.0
C137 C 0.72315 0.81904 0.62681 0.0
O138 O 0.75214 0.86448 0.62388 0.0
C139 C 0.84629 0.71409 0.6818 0.0
Zn140 Zn 0.77322 0.19323 0.31949 0.0
Zn141 Zn 0.67839 0.22153 0.31543 0.0
O142 O 0.70855 0.28763 0.33228 0.0
O143 O 0.78039 0.24321 0.34437 0.0
O144 O 0.59487 0.2317 0.31268 0.0
O145 O 0.80107 0.21902 0.29213 0.0
O146 O 0.71219 0.22265 0.28496 0.0
C147 C 0.7494 0.28475 0.34475 0.0
C148 C 0.71309 0.10834 0.33311 0.0
O149 O 0.68022 0.14896 0.33324 0.0
O150 O 0.75836 0.11308 0.32336 0.0
C151 C 0.56754 0.26613 0.32335 0.0
O152 O 0.59415 0.30027 0.33568 0.0
C153 C 0.76288 0.22531 0.27895 0.0
Zn154 Zn 0.64594 0.73677 0.78459 0.0
Zn155 Zn 0.74127 0.71947 0.80543 0.0
O156 O 0.69034 0.66569 0.82179 0.0
O157 O 0.61227 0.68423 0.80546 0.0
O158 O 0.82058 0.71115 0.81535 0.0
O159 O 0.6749 0.71025 0.75743 0.0
O160 O 0.7528 0.70186 0.77474 0.0
C161 C 0.6381 0.65896 0.81971 0.0
C162 C 0.6851 0.83287 0.80506 0.0
O163 O 0.72119 0.7993 0.81178 0.0
O164 O 0.64955 0.81717 0.79179 0.0
C165 C 0.84601 0.74228 0.82812 0.0
O166 O 0.81846 0.78032 0.83804 0.0
C167 C 0.72572 0.6986 0.75779 0.0
Zn168 Zn 0.60227 0.42942 0.06704 0.0
Zn169 Zn 0.61795 0.533 0.07279 0.0
O170 O 0.69442 0.49974 0.0805 0.0
O171 O 0.68153 0.41331 0.0717 0.0
O172 O 0.63144 0.61493 0.07281 0.0
O173 O 0.57366 0.43201 0.0385 0.0
O174 O 0.58554 0.52097 0.04277 0.0
C175 C 0.71282 0.45116 0.07848 0.0
C176 C 0.53835 0.47331 0.10113 0.0
O177 O 0.56181 0.51891 0.09652 0.0
O178 O 0.54894 0.43032 0.09095 0.0
C179 C 0.64439 0.64294 0.08879 0.0
O180 O 0.65007 0.61793 0.10687 0.0
C181 C 0.57014 0.48036 0.0315 0.0
Zn182 Zn 0.1414 0.63461 0.52878 0.0
Zn183 Zn 0.1381 0.52854 0.5421 0.0
O184 O 0.06725 0.55747 0.55465 0.0
O185 O 0.0671 0.64321 0.54339 0.0
O186 O 0.13519 0.44774 0.54914 0.0
O187 O 0.14156 0.61375 0.49879 0.0
O188 O 0.13702 0.52832 0.51018 0.0
C189 C 0.0443 0.60414 0.55355 0.0
C190 C 0.23001 0.60672 0.55691 0.0
O191 O 0.20543 0.56009 0.55755 0.0
O192 O 0.21253 0.64436 0.54497 0.0
C193 C 0.13546 0.42855 0.56763 0.0
O194 O 0.1398 0.46251 0.58342 0.0
C195 C 0.1379 0.56287 0.49516 0.0
Zn196 Zn 0.42262 0.55867 0.9162 0.0
Zn197 Zn 0.4511 0.45968 0.90625 0.0
O198 O 0.5069 0.50008 0.88741 0.0
O199 O 0.47228 0.5825 0.89214 0.0
O200 O 0.4632 0.37867 0.90156 0.0
O201 O 0.4532 0.55603 0.945 0.0
O202 O 0.46975 0.46971 0.93751 0.0
C203 C 0.50587 0.55108 0.88296 0.0
C204 C 0.33305 0.50591 0.89839 0.0
O205 O 0.37184 0.472 0.89498 0.0
O206 O 0.34171 0.54572 0.91061 0.0
C207 C 0.45636 0.3562 0.88386 0.0
O208 O 0.44216 0.38678 0.86782 0.0
C209 C 0.47088 0.50947 0.95041 0.0
Zn210 Zn 0.01435 0.42307 0.38622 0.0
Zn211 Zn 0.98476 0.52391 0.37689 0.0
O212 O 0.91009 0.4803 0.37503 0.0
O213 O 0.9354 0.39852 0.38601 0.0
O214 O 0.96376 0.60407 0.37681 0.0
O215 O 0.05195 0.43761 0.4128 0.0
O216 O 0.02878 0.52212 0.40465 0.0
C217 C 0.89795 0.43063 0.37987 0.0
C218 C 0.06198 0.46776 0.34771 0.0
O219 O 0.03399 0.51076 0.35115 0.0
O220 O 0.0595 0.42704 0.36007 0.0
C221 C 0.97147 0.6396 0.36245 0.0
O222 O 0.99225 0.62432 0.34447 0.0
C223 C 0.05266 0.48824 0.41685 0.0
C224 C 0.11016 0.27697 0.55777 0.0
C225 C 0.11738 0.25397 0.57774 0.0
H226 H 0.11065 0.3497 0.53891 0.0
C227 C 0.13026 0.28899 0.59447 0.0
H228 H 0.1004 0.25123 0.54452 0.0
C229 C 0.13593 0.34575 0.59126 0.0
C230 C 0.12933 0.36857 0.57122 0.0
H231 H 0.13611 0.27258 0.61005 0.0
H232 H 0.14592 0.37164 0.60445 0.0
C233 C 0.11629 0.33351 0.55454 0.0
C234 C 0.93849 0.71321 0.8144 0.0
C235 C 0.90729 0.7401 0.82974 0.0
H236 H 0.01919 0.69372 0.80284 0.0
C237 C 0.93543 0.76755 0.84587 0.0
H238 H 0.91819 0.69203 0.80166 0.0
C239 C 0.99343 0.7681 0.84664 0.0
C240 C 0.0246 0.74205 0.83108 0.0
H241 H 0.91265 0.78877 0.85789 0.0
H242 H 0.01384 0.78958 0.85928 0.0
C243 C 0.99645 0.71455 0.81497 0.0
C244 C 0.64579 0.72957 0.06751 0.0
C245 C 0.65258 0.70324 0.0869 0.0
H246 H 0.64771 0.80513 0.05036 0.0
C247 C 0.66704 0.73513 0.10434 0.0
H248 H 0.63462 0.70635 0.05374 0.0
C249 C 0.67459 0.79208 0.10239 0.0
C250 C 0.6678 0.81831 0.08297 0.0
H251 H 0.67257 0.71615 0.11951 0.0
H252 H 0.68576 0.81549 0.11611 0.0
C253 C 0.65329 0.78635 0.06557 0.0
C254 C 0.47614 0.21884 0.31677 0.0
C255 C 0.50612 0.26606 0.32277 0.0
H256 H 0.39614 0.18202 0.31159 0.0
C257 C 0.47681 0.31294 0.32878 0.0
H258 H 0.49753 0.18191 0.31225 0.0
C259 C 0.41885 0.3132 0.32817 0.0
C260 C 0.38888 0.26613 0.32207 0.0
H261 H 0.4987 0.34989 0.33355 0.0
H262 H 0.39746 0.35044 0.33231 0.0
C263 C 0.41808 0.21868 0.31665 0.0
C264 C 0.95695 0.79371 0.35509 0.0
C265 C 0.94708 0.81116 0.37564 0.0
H266 H 0.97248 0.72595 0.33477 0.0
C267 C 0.9439 0.77157 0.39166 0.0
H268 H 0.9596 0.82315 0.34238 0.0
C269 C 0.95066 0.71588 0.38726 0.0
C270 C 0.96135 0.69844 0.36676 0.0
H271 H 0.93608 0.78355 0.40764 0.0
H272 H 0.94834 0.68659 0.40003 0.0
C273 C 0.96431 0.73798 0.35072 0.0
C274 C 0.57461 0.86531 0.62082 0.0
C275 C 0.54579 0.82649 0.63322 0.0
H276 H 0.65341 0.89376 0.60922 0.0
C277 C 0.57564 0.78473 0.64315 0.0
H278 H 0.55268 0.89801 0.61298 0.0
C279 C 0.63307 0.78154 0.64056 0.0
C280 C 0.662 0.82077 0.62837 0.0
H281 H 0.55454 0.75405 0.65268 0.0
H282 H 0.65497 0.74891 0.64847 0.0
C283 C 0.63223 0.86289 0.61863 0.0
C284 C 0.47362 0.26279 0.89903 0.0
C285 C 0.46315 0.29607 0.88151 0.0
H286 H 0.4877 0.18179 0.91078 0.0
C287 C 0.45874 0.2712 0.86182 0.0
H288 H 0.47713 0.2805 0.91444 0.0
C289 C 0.46494 0.21438 0.85969 0.0
C290 C 0.47541 0.18115 0.87723 0.0
H291 H 0.45066 0.29562 0.84799 0.0
H292 H 0.46152 0.19655 0.84429 0.0
C293 C 0.47955 0.20606 0.89692 0.0
C294 C 0.16524 0.31946 0.12573 0.0
C295 C 0.19591 0.2791 0.13613 0.0
H296 H 0.08482 0.35178 0.1193 0.0
C297 C 0.16784 0.24052 0.14887 0.0
H298 H 0.18584 0.34991 0.11595 0.0
C299 C 0.11028 0.24265 0.15133 0.0
C300 C 0.07954 0.28255 0.14069 0.0
H301 H 0.19051 0.20943 0.15735 0.0
H302 H 0.08975 0.21242 0.16124 0.0
C303 C 0.10753 0.32066 0.12774 0.0
C304 C 1.0044 0.96856 0.47528 0.0
C305 C 0.97753 0.0164 0.46867 0.0
H306 H 0.05544 0.93095 0.49843 0.0
C307 C 0.9822 0.06411 0.48087 0.0
H308 H 1.00195 0.93128 0.46617 0.0
C309 C 0.01331 0.06417 0.49917 0.0
C310 C 0.04027 0.01645 0.50579 0.0
H311 H 0.96229 0.10185 0.47619 0.0
H312 H 0.01579 0.10159 0.5082 0.0
C313 C 0.03539 0.96856 0.49368 0.0
C314 C 0.23586 0.75813 0.7434 0.0
C315 C 0.28167 0.7448 0.75573 0.0
H316 H 0.2065 0.78224 0.71343 0.0
C317 C 0.33494 0.74644 0.74663 0.0
H318 H 0.19442 0.75752 0.7499 0.0
C319 C 0.34213 0.76084 0.72561 0.0
C320 C 0.29618 0.77381 0.71326 0.0
H321 H 0.37129 0.73657 0.75573 0.0
H322 H 0.38348 0.76135 0.71903 0.0
C323 C 0.24302 0.77244 0.72245 0.0
C324 C 0.62983 0.95294 -0.01382 0.0
C325 C 0.64519 0.00751 -0.00958 0.0
H326 H 0.5905 0.89749 0.96508 0.0
C327 C 0.63318 0.04879 0.97571 0.0
H328 H 0.63835 0.92025 -0.00278 0.0
C329 C 0.60502 0.03585 0.95736 0.0
C330 C 0.58883 0.98137 0.95333 0.0
H331 H 0.64416 0.09134 -0.02138 0.0
H332 H 0.59598 0.06848 0.94636 0.0
C333 C 0.60206 0.93999 0.96781 0.0
C334 C 0.35747 0.16707 0.23129 0.0
C335 C 0.33739 0.16842 0.21078 0.0
H336 H 0.33673 0.1677 0.26364 0.0
C337 C 0.28058 0.15936 0.20715 0.0
H338 H 0.40117 0.17282 0.23452 0.0
C339 C 0.24355 0.15666 0.22378 0.0
C340 C 0.26299 0.16284 0.24424 0.0
H341 H 0.26405 0.15874 0.19143 0.0
H342 H 0.1996 0.15439 0.22049 0.0
C343 C 0.32043 0.16413 0.24795 0.0
C344 C 0.85024 0.2409 0.22989 0.0
C345 C 0.80972 0.24449 0.21434 0.0
H346 H 0.86722 0.23218 0.26242 0.0
C347 C 0.75339 0.24433 0.2203 0.0
H348 H 0.89383 0.24096 0.22587 0.0
C349 C 0.73792 0.23906 0.24125 0.0
C350 C 0.7784 0.23392 0.25676 0.0
H351 H 0.7209 0.24724 0.20872 0.0
H352 H 0.6943 0.23813 0.24524 0.0
C353 C 0.83476 0.23571 0.25086 0.0
C354 C 0.84314 0.68876 0.71953 0.0
C355 C 0.81526 0.69828 0.70068 0.0
H356 H 0.83622 0.68049 0.75262 0.0
C357 C 0.75708 0.69793 0.70045 0.0
H358 H 0.88794 0.68801 0.72012 0.0
C359 C 0.7274 0.69347 0.71903 0.0
C360 C 0.75551 0.68944 0.73812 0.0
H361 H 0.73439 0.70412 0.68606 0.0
H362 H 0.68274 0.69666 0.71849 0.0
C363 C 0.81344 0.68437 0.73813 0.0
C364 C 0.51163 0.44995 0.97812 0.0
C365 C 0.49559 0.5022 0.97129 0.0
H366 H 0.54803 0.40228 0.00238 0.0
C367 C 0.50526 0.54778 -0.01573 0.0
H368 H 0.50499 0.41408 0.96848 0.0
C369 C 0.53051 0.54114 0.00371 0.0
C370 C 0.54611 0.48875 0.01058 0.0
H371 H 0.4937 0.58872 -0.02063 0.0
H372 H 0.53716 0.57686 0.01343 0.0
C373 C 0.53645 0.44328 -0.00243 0.0
C374 C 0.12158 0.48772 0.4696 0.0
C375 C 0.12541 0.54411 0.47387 0.0
H376 H 0.09548 0.42585 0.4482 0.0
C377 C 0.10976 0.58217 0.45844 0.0
H378 H 0.13355 0.45742 0.48114 0.0
C379 C 0.08722 0.56408 0.43965 0.0
C380 C 0.0805 0.50766 0.43589 0.0
H381 H 0.11225 0.62595 0.46126 0.0
H382 H 0.07373 0.59431 0.42833 0.0
C383 C 0.09949 0.46966 0.45075 0.0
C384 C 0.32965 0.9555 0.60172 0.0
C385 C 0.30954 0.95768 0.62225 0.0
H386 H 0.31476 0.97851 0.56994 0.0
C387 C 0.27208 0.99882 0.62766 0.0
H388 H 0.35852 0.92396 0.59722 0.0
C389 C 0.2482 0.03125 0.61213 0.0
C390 C 0.25999 0.02103 0.59103 0.0
H391 H 0.25616 1.0012 0.64345 0.0
H392 H 0.21435 0.05769 0.61648 0.0
C393 C 0.30454 0.98676 0.58609 0.0
C394 C 0.30342 0.88437 0.85144 0.0
C395 C 0.28847 0.83221 0.85925 0.0
H396 H 0.35598 0.95534 0.85544 0.0
C397 C 0.3043 0.81729 0.87949 0.0
H398 H 0.29221 0.89618 0.83569 0.0
C399 C 0.3404 0.85089 0.89075 0.0
C400 C 0.36178 0.89957 0.88179 0.0
H401 H 0.29349 0.77704 0.88571 0.0
H402 H 0.35629 0.83584 0.9055 0.0
C403 C 0.33992 0.91816 0.86274 0.0
C404 C 0.525 0.13167 0.08096 0.0
C405 C 0.55843 0.08749 0.08697 0.0
H406 H 0.46414 0.18988 0.09049 0.0
C407 C 0.55174 0.06411 0.10689 0.0
H408 H 0.52931 0.15012 0.0656 0.0
C409 C 0.5155 0.08757 0.12119 0.0
C410 C 0.48417 0.13346 0.11551 0.0
H411 H 0.57717 0.03012 0.11188 0.0
H412 H 0.5137 0.07138 0.13697 0.0
C413 C 0.48746 0.15404 0.09507 0.0
C414 C 0.99333 0.12355 0.35179 0.0
C415 C 0.01386 0.08316 0.36526 0.0
H416 H 0.01037 0.17899 0.32666 0.0
C417 C 0.06947 0.06731 0.36353 0.0
H418 H 0.95055 0.13631 0.35278 0.0
C419 C 0.10446 0.09292 0.3488 0.0
C420 C 0.08353 0.13322 0.33528 0.0
H421 H 0.08614 0.03635 0.37389 0.0
H422 H 0.14746 0.081 0.34787 0.0
C423 C 0.02756 0.14778 0.33679 0.0
C424 C 0.76391 0.99065 0.36354 0.0
C425 C 0.75767 0.01319 0.38354 0.0
H426 H 0.75246 1.00409 0.33083 0.0
C427 C 0.71675 0.05308 0.38655 0.0
H428 H 0.79393 0.95883 0.3607 0.0
C429 C 0.69233 0.07864 0.36933 0.0
C430 C 0.7091 0.06456 0.34909 0.0
H431 H 0.70975 0.07019 0.40189 0.0
H432 H 0.66766 0.11483 0.37196 0.0
C433 C 0.74002 0.01661 0.34633 0.0
C434 C 0.82811 0.02571 0.10273 0.0
C435 C 0.83325 0.05092 0.08301 0.0
H436 H 0.83836 0.03637 0.13561 0.0
C437 C 0.87059 0.09532 0.08057 0.0
H438 H 0.80042 0.99083 0.10508 0.0
C439 C 0.89346 0.12066 0.09812 0.0
C440 C 0.87816 0.10227 0.11815 0.0
H441 H 0.87622 0.11486 0.06547 0.0
H442 H 0.91569 0.15927 0.09603 0.0
C443 C 0.84995 0.05175 0.12029 0.0
C444 C 0.62849 0.91605 0.81192 0.0
C445 C 0.6755 0.88447 0.8165 0.0
H446 H 0.56424 0.96598 0.82456 0.0
C447 C 0.70382 0.89389 0.83529 0.0
H448 H 0.60637 0.91067 0.79737 0.0
C449 C 0.6795 0.92546 0.8508 0.0
C450 C 0.62741 0.94879 0.84747 0.0
H451 H 0.74083 0.87129 0.83914 0.0
H452 H 0.69799 0.92588 0.8662 0.0
C453 C 0.60447 0.9482 0.82742 0.0
C454 C 0.91572 0.93781 0.61719 0.0
C455 C 0.93984 0.90866 0.63382 0.0
H456 H 0.93027 0.99329 0.59153 0.0
C457 C 0.99329 0.924 0.64051 0.0
H458 H 0.87453 0.92722 0.61174 0.0
C459 C 0.02499 0.96141 0.62888 0.0
C460 C 1.0033 0.98502 0.61072 0.0
H461 H 0.0128 0.90304 0.65346 0.0
H462 H 0.06815 0.96785 0.63294 0.0
C463 C 0.94746 0.97586 0.60566 0.0
C464 C 0.82479 0.35523 0.09166 0.0
C465 C 0.83103 0.36673 0.11292 0.0
H466 H 0.78336 0.37599 0.06334 0.0
C467 C 0.81142 0.4165 0.12082 0.0
H468 H 0.8396 0.31692 0.08532 0.0
C469 C 0.77887 0.45049 0.10821 0.0
C470 C 0.76575 0.43438 0.08775 0.0
H471 H 0.81542 0.4257 0.13728 0.0
H472 H 0.75824 0.485 0.11528 0.0
C473 C 0.7927 0.38909 0.0791 0.0
C474 C 0.78955 0.32124 0.37726 0.0
C475 C 0.76739 0.33175 0.35746 0.0
H476 H 0.84754 0.34661 0.40049 0.0
C477 C 0.77688 0.38329 0.34803 0.0
H478 H 0.78249 0.28185 0.38485 0.0
C479 C 0.81483 0.42046 0.35691 0.0
C480 C 0.84317 0.40608 0.37525 0.0
H481 H 0.76039 0.39206 0.33267 0.0
H482 H 0.82667 0.45703 0.34818 0.0
C483 C 0.82686 0.3583 0.38616 0.0
C484 C 0.98655 0.58472 0.58497 0.0
C485 C 0.99559 0.61546 0.56663 0.0
H486 H 0.94918 0.58303 0.61528 0.0
C487 C 0.96335 0.66212 0.5628 0.0
H488 H 0.0106 0.54844 0.5883 0.0
C489 C 0.92695 0.68096 0.57806 0.0
C490 C 0.92347 0.65396 0.59742 0.0
H491 H 0.96914 0.68619 0.54867 0.0
H492 H 0.90622 0.71966 0.57555 0.0
C493 C 0.95126 0.6043 0.60039 0.0
C494 C 0.62875 0.58711 0.84822 0.0
C495 C 0.60513 0.62699 0.8351 0.0
H496 H 0.61503 0.53009 0.87362 0.0
C497 C 0.54861 0.63893 0.83734 0.0
H498 H 0.67218 0.57711 0.8468 0.0
C499 C 0.51686 0.61337 0.85275 0.0
C500 C 0.54031 0.57423 0.86604 0.0
H501 H 0.529 0.66957 0.82761 0.0
H502 H 0.47374 0.62455 0.85434 0.0
C503 C 0.59619 0.56021 0.86344 0.0
C504 C 0.24569 0.54994 0.88671 0.0
C505 C 0.28688 0.51056 0.88333 0.0
H506 H 0.19623 0.61245 0.87277 0.0
C507 C 0.29439 0.49045 0.86301 0.0
H508 H 0.23796 0.56533 0.90227 0.0
C509 C 0.271 0.51803 0.84607 0.0
C510 C 0.23896 0.56496 0.84938 0.0
H511 H 0.32485 0.45926 0.85986 0.0
H512 H 0.28417 0.50734 0.83045 0.0
C513 C 0.22153 0.57691 0.86975 0.0
C514 C 0.30581 0.66687 0.57051 0.0
C515 C 0.26884 0.62245 0.5736 0.0
H516 H 0.35045 0.73333 0.58484 0.0
C517 C 0.25833 0.60357 0.59401 0.0
H518 H 0.3145 0.68217 0.55492 0.0
C519 C 0.27751 0.63376 0.61103 0.0
C520 C 0.30916 0.68177 0.60783 0.0
H521 H 0.22975 0.56964 0.59686 0.0
H522 H 0.26363 0.62235 0.62658 0.0
C523 C 0.32641 0.69607 0.5876 0.0
C524 C 0.15092 0.44757 0.33143 0.0
C525 C 0.09501 0.4609 0.3288 0.0
H526 H 0.21656 0.39515 0.32207 0.0
C527 C 0.06752 0.44452 0.31059 0.0
H528 H 0.17279 0.45987 0.34544 0.0
C529 C 0.09229 0.40676 0.29725 0.0
C530 C 0.1445 0.38513 0.30222 0.0
H531 H 0.02422 0.45415 0.30835 0.0
H532 H 0.06753 0.3893 0.2848 0.0
C533 C 0.17571 0.40992 0.31815 0.0
C534 C 0.52785 0.45335 0.13841 0.0
C535 C 0.50258 0.46671 0.11941 0.0
H536 H 0.52489 0.40143 0.16541 0.0
C537 C 0.44727 0.45111 0.11605 0.0
H538 H 0.57074 0.46477 0.1412 0.0
C539 C 0.42083 0.41476 0.12985 0.0
C540 C 0.45012 0.39287 0.14688 0.0
H541 H 0.42721 0.46086 0.10139 0.0
H542 H 0.3805 0.39844 0.12558 0.0
C543 C 0.50169 0.41649 0.15215 0.0
loop_
_geom_bond_atom_site_label_1
_geom_bond_atom_site_label_2
_geom_bond_distance
_geom_bond_site_symmetry_2
_ccdc_geom_bond_type
Zn0 O3 2.031 . S
Zn0 O5 2.049 . S
Zn0 O10 2.067 1_455 S
Zn1 O2 1.962 . S
Zn1 O4 1.986 . S
Zn1 O6 1.996 . S
Zn1 O9 1.943 1_455 S
O2 Zn1 1.962 . S
O2 C7 1.254 1_545 S
O3 Zn0 2.031 . S
O3 C7 1.269 . S
O4 Zn1 1.986 . S
O4 C11 1.262 . S
O5 Zn0 2.049 . S
O5 C13 1.260 . S
O6 Zn1 1.996 . S
O6 C13 1.257 1_545 S
C7 O2 1.254 1_565 S
C7 O3 1.269 . S
C8 O9 1.249 1_565 S
C8 O10 1.270 . S
O9 Zn1 1.943 1_655 S
O9 C8 1.249 1_545 S
O10 Zn0 2.067 1_655 S
O10 C8 1.270 . S
C11 O4 1.262 . S
C11 O12 1.232 . S
O12 C11 1.232 . S
C13 O5 1.260 . S
C13 O6 1.257 1_565 S
Zn14 O17 2.031 . S
Zn14 O19 2.049 . S
Zn14 O24 2.067 . S
Zn15 O16 1.962 . S
Zn15 O18 1.986 . S
Zn15 O20 1.996 . S
Zn15 O23 1.943 . S
O16 Zn15 1.962 . S
O16 C21 1.254 . S
O17 Zn14 2.031 . S
O17 C21 1.269 . S
O18 Zn15 1.986 . S
O18 C25 1.262 . S
O19 Zn14 2.049 . S
O19 C27 1.260 . S
O20 Zn15 1.996 . S
O20 C27 1.257 . S
C21 O16 1.254 . S
C21 O17 1.269 . S
C22 O23 1.249 . S
C22 O24 1.270 . S
O23 Zn15 1.943 . S
O23 C22 1.249 . S
O24 Zn14 2.067 . S
O24 C22 1.270 . S
C25 O18 1.262 . S
C25 O26 1.232 . S
O26 C25 1.232 . S
C27 O19 1.260 . S
C27 O20 1.257 . S
Zn28 O31 2.031 . S
Zn28 O33 2.049 . S
Zn28 O38 2.067 . S
Zn29 O30 1.962 . S
Zn29 O32 1.986 . S
Zn29 O34 1.996 . S
Zn29 O37 1.943 . S
O30 Zn29 1.962 . S
O30 C35 1.254 1_565 S
O31 Zn28 2.031 . S
O31 C35 1.269 . S
O32 Zn29 1.986 . S
O32 C39 1.262 . S
O33 Zn28 2.049 . S
O33 C41 1.260 . S
O34 Zn29 1.996 . S
O34 C41 1.257 1_565 S
C35 O30 1.254 1_545 S
C35 O31 1.269 . S
C36 O37 1.249 1_545 S
C36 O38 1.270 . S
O37 Zn29 1.943 . S
O37 C36 1.249 1_565 S
O38 Zn28 2.067 . S
O38 C36 1.270 . S
C39 O32 1.262 . S
C39 O40 1.232 . S
O40 C39 1.232 . S
C41 O33 1.260 . S
C41 O34 1.257 1_545 S
Zn42 O45 2.031 . S
Zn42 O47 2.049 . S
Zn42 O52 2.067 . S
Zn43 O44 1.962 . S
Zn43 O46 1.986 . S
Zn43 O48 1.996 . S
Zn43 O51 1.943 . S
O44 Zn43 1.962 . S
O44 C49 1.254 . S
O45 Zn42 2.031 . S
O45 C49 1.269 . S
O46 Zn43 1.986 . S
O46 C53 1.262 . S
O47 Zn42 2.049 . S
O47 C55 1.260 . S
O48 Zn43 1.996 . S
O48 C55 1.257 . S
C49 O44 1.254 . S
C49 O45 1.269 . S
C50 O51 1.249 . S
C50 O52 1.270 . S
O51 Zn43 1.943 . S
O51 C50 1.249 . S
O52 Zn42 2.067 . S
O52 C50 1.270 . S
C53 O46 1.262 . S
C53 O54 1.232 . S
O54 C53 1.232 . S
C55 O47 1.260 . S
C55 O48 1.257 . S
Zn56 O59 2.031 . S
Zn56 O61 2.049 . S
Zn56 O66 2.067 1_455 S
Zn57 O58 1.962 . S
Zn57 O60 1.986 . S
Zn57 O62 1.996 . S
Zn57 O65 1.943 1_455 S
O58 Zn57 1.962 . S
O58 C63 1.254 1_565 S
O59 Zn56 2.031 . S
O59 C63 1.269 . S
O60 Zn57 1.986 . S
O60 C67 1.262 . S
O61 Zn56 2.049 . S
O61 C69 1.260 . S
O62 Zn57 1.996 . S
O62 C69 1.257 1_565 S
C63 O58 1.254 1_545 S
C63 O59 1.269 . S
C64 O65 1.249 1_545 S
C64 O66 1.270 . S
O65 Zn57 1.943 1_655 S
O65 C64 1.249 1_565 S
O66 Zn56 2.067 1_655 S
O66 C64 1.270 . S
C67 O60 1.262 . S
C67 O68 1.232 . S
O68 C67 1.232 . S
C69 O61 1.260 . S
C69 O62 1.257 1_545 S
Zn70 O73 2.031 . S
Zn70 O75 2.049 . S
Zn70 O80 2.067 . S
Zn71 O72 1.962 . S
Zn71 O74 1.986 . S
Zn71 O76 1.996 . S
Zn71 O79 1.943 . S
O72 Zn71 1.962 . S
O72 C77 1.254 . S
O73 Zn70 2.031 . S
O73 C77 1.269 . S
O74 Zn71 1.986 . S
O74 C81 1.262 . S
O75 Zn70 2.049 . S
O75 C83 1.260 . S
O76 Zn71 1.996 . S
O76 C83 1.257 . S
C77 O72 1.254 . S
C77 O73 1.269 . S
C78 O79 1.249 . S
C78 O80 1.270 . S
O79 Zn71 1.943 . S
O79 C78 1.249 . S
O80 Zn70 2.067 . S
O80 C78 1.270 . S
C81 O74 1.262 . S
C81 O82 1.232 . S
O82 C81 1.232 . S
C83 O75 1.260 . S
C83 O76 1.257 . S
Zn84 O87 2.031 . S
Zn84 O89 2.049 . S
Zn84 O94 2.067 . S
Zn85 O86 1.962 . S
Zn85 O88 1.986 . S
Zn85 O90 1.996 . S
Zn85 O93 1.943 . S
O86 Zn85 1.962 . S
O86 C91 1.254 1_545 S
O87 Zn84 2.031 . S
O87 C91 1.269 . S
O88 Zn85 1.986 . S
O88 C95 1.262 . S
O89 Zn84 2.049 . S
O89 C97 1.260 . S
O90 Zn85 1.996 . S
O90 C97 1.257 1_545 S
C91 O86 1.254 1_565 S
C91 O87 1.269 . S
C92 O93 1.249 1_565 S
C92 O94 1.270 . S
O93 Zn85 1.943 . S
O93 C92 1.249 1_545 S
O94 Zn84 2.067 . S
O94 C92 1.270 . S
C95 O88 1.262 . S
C95 O96 1.232 . S
O96 C95 1.232 . S
C97 O89 1.260 . S
C97 O90 1.257 1_565 S
Zn98 O101 2.031 . S
Zn98 O103 2.049 . S
Zn98 O108 2.067 . S
Zn99 O100 1.962 . S
Zn99 O102 1.986 . S
Zn99 O104 1.996 . S
Zn99 O107 1.943 . S
O100 Zn99 1.962 . S
O100 C105 1.254 . S
O101 Zn98 2.031 . S
O101 C105 1.269 . S
O102 Zn99 1.986 . S
O102 C109 1.262 . S
O103 Zn98 2.049 . S
O103 C111 1.260 . S
O104 Zn99 1.996 . S
O104 C111 1.257 . S
C105 O100 1.254 . S
C105 O101 1.269 . S
C106 O107 1.249 . S
C106 O108 1.270 . S
O107 Zn99 1.943 . S
O107 C106 1.249 . S
O108 Zn98 2.067 . S
O108 C106 1.270 . S
C109 O102 1.262 . S
C109 O110 1.232 . S
O110 C109 1.232 . S
C111 O103 1.260 . S
C111 O104 1.257 . S
Zn112 O115 2.031 . S
Zn112 O117 2.049 . S
Zn112 O122 2.067 . S
Zn113 O114 1.962 . S
Zn113 O116 1.986 . S
Zn113 O118 1.996 . S
Zn113 O121 1.943 . S
O114 Zn113 1.962 . S
O114 C119 1.254 . S
O115 Zn112 2.031 . S
O115 C119 1.269 . S
O116 Zn113 1.986 . S
O116 C123 1.262 . S
O117 Zn112 2.049 . S
O117 C125 1.260 . S
O118 Zn113 1.996 . S
O118 C125 1.257 . S
C119 O114 1.254 . S
C119 O115 1.269 . S
C120 O121 1.249 . S
C120 O122 1.270 . S
O121 Zn113 1.943 . S
O121 C120 1.249 . S
O122 Zn112 2.067 . S
O122 C120 1.270 . S
C123 O116 1.262 . S
C123 O124 1.232 . S
O124 C123 1.232 . S
C125 O117 1.260 . S
C125 O118 1.257 . S
Zn126 O129 2.031 . S
Zn126 O131 2.049 . S
Zn126 O136 2.067 . S
Zn127 O128 1.962 . S
Zn127 O130 1.986 . S
Zn127 O132 1.996 . S
Zn127 O135 1.943 . S
O128 Zn127 1.962 . S
O128 C133 1.254 . S
O129 Zn126 2.031 . S
O129 C133 1.269 . S
O130 Zn127 1.986 . S
O130 C137 1.262 . S
O131 Zn126 2.049 . S
O131 C139 1.260 . S
O132 Zn127 1.996 . S
O132 C139 1.257 . S
C133 O128 1.254 . S
C133 O129 1.269 . S
C134 O135 1.249 . S
C134 O136 1.270 . S
O135 Zn127 1.943 . S
O135 C134 1.249 . S
O136 Zn126 2.067 . S
O136 C134 1.270 . S
C137 O130 1.262 . S
C137 O138 1.232 . S
O138 C137 1.232 . S
C139 O131 1.260 . S
C139 O132 1.257 . S
Zn140 O143 2.031 . S
Zn140 O145 2.049 . S
Zn140 O150 2.067 . S
Zn141 O142 1.962 . S
Zn141 O144 1.986 . S
Zn141 O146 1.996 . S
Zn141 O149 1.943 . S
O142 Zn141 1.962 . S
O142 C147 1.254 . S
O143 Zn140 2.031 . S
O143 C147 1.269 . S
O144 Zn141 1.986 . S
O144 C151 1.262 . S
O145 Zn140 2.049 . S
O145 C153 1.260 . S
O146 Zn141 1.996 . S
O146 C153 1.257 . S
C147 O142 1.254 . S
C147 O143 1.269 . S
C148 O149 1.249 . S
C148 O150 1.270 . S
O149 Zn141 1.943 . S
O149 C148 1.249 . S
O150 Zn140 2.067 . S
O150 C148 1.270 . S
C151 O144 1.262 . S
C151 O152 1.232 . S
O152 C151 1.232 . S
C153 O145 1.260 . S
C153 O146 1.257 . S
Zn154 O157 2.031 . S
Zn154 O159 2.049 . S
Zn154 O164 2.067 . S
Zn155 O156 1.962 . S
Zn155 O158 1.986 . S
Zn155 O160 1.996 . S
Zn155 O163 1.943 . S
O156 Zn155 1.962 . S
O156 C161 1.254 . S
O157 Zn154 2.031 . S
O157 C161 1.269 . S
O158 Zn155 1.986 . S
O158 C165 1.262 . S
O159 Zn154 2.049 . S
O159 C167 1.260 . S
O160 Zn155 1.996 . S
O160 C167 1.257 . S
C161 O156 1.254 . S
C161 O157 1.269 . S
C162 O163 1.249 . S
C162 O164 1.270 . S
O163 Zn155 1.943 . S
O163 C162 1.249 . S
O164 Zn154 2.067 . S
O164 C162 1.270 . S
C165 O158 1.262 . S
C165 O166 1.232 . S
O166 C165 1.232 . S
C167 O159 1.260 . S
C167 O160 1.257 . S
Zn168 O171 2.031 . S
Zn168 O173 2.049 . S
Zn168 O178 2.067 . S
Zn169 O170 1.962 . S
Zn169 O172 1.986 . S
Zn169 O174 1.996 . S
Zn169 O177 1.943 . S
O170 Zn169 1.962 . S
O170 C175 1.254 . S
O171 Zn168 2.031 . S
O171 C175 1.269 . S
O172 Zn169 1.986 . S
O172 C179 1.262 . S
O173 Zn168 2.049 . S
O173 C181 1.260 . S
O174 Zn169 1.996 . S
O174 C181 1.257 . S
C175 O170 1.254 . S
C175 O171 1.269 . S
C176 O177 1.249 . S
C176 O178 1.270 . S
O177 Zn169 1.943 . S
O177 C176 1.249 . S
O178 Zn168 2.067 . S
O178 C176 1.270 . S
C179 O172 1.262 . S
C179 O180 1.232 . S
O180 C179 1.232 . S
C181 O173 1.260 . S
C181 O174 1.257 . S
Zn182 O185 2.031 . S
Zn182 O187 2.049 . S
Zn182 O192 2.067 . S
Zn183 O184 1.962 1_455 S
Zn183 O186 1.986 . S
Zn183 O188 1.996 . S
Zn183 O191 1.943 . S
O184 Zn183 1.962 1_655 S
O184 C189 1.254 . S
O185 Zn182 2.031 . S
O185 C189 1.269 1_455 S
O186 Zn183 1.986 . S
O186 C193 1.262 . S
O187 Zn182 2.049 . S
O187 C195 1.260 . S
O188 Zn183 1.996 . S
O188 C195 1.257 . S
C189 O184 1.254 . S
C189 O185 1.269 1_655 S
C190 O191 1.249 . S
C190 O192 1.270 . S
O191 Zn183 1.943 . S
O191 C190 1.249 . S
O192 Zn182 2.067 . S
O192 C190 1.270 . S
C193 O186 1.262 . S
C193 O194 1.232 . S
O194 C193 1.232 . S
C195 O187 1.260 . S
C195 O188 1.257 . S
Zn196 O199 2.031 . S
Zn196 O201 2.049 . S
Zn196 O206 2.067 . S
Zn197 O198 1.962 . S
Zn197 O200 1.986 . S
Zn197 O202 1.996 . S
Zn197 O205 1.943 . S
O198 Zn197 1.962 . S
O198 C203 1.254 . S
O199 Zn196 2.031 . S
O199 C203 1.269 . S
O200 Zn197 1.986 . S
O200 C207 1.262 . S
O201 Zn196 2.049 . S
O201 C209 1.260 . S
O202 Zn197 1.996 . S
O202 C209 1.257 . S
C203 O198 1.254 . S
C203 O199 1.269 . S
C204 O205 1.249 . S
C204 O206 1.270 . S
O205 Zn197 1.943 . S
O205 C204 1.249 . S
O206 Zn196 2.067 . S
O206 C204 1.270 . S
C207 O200 1.262 . S
C207 O208 1.232 . S
O208 C207 1.232 . S
C209 O201 1.260 . S
C209 O202 1.257 . S
Zn210 O213 2.031 . S
Zn210 O215 2.049 . S
Zn210 O220 2.067 . S
Zn211 O212 1.962 1_455 S
Zn211 O214 1.986 . S
Zn211 O216 1.996 . S
Zn211 O219 1.943 . S
O212 Zn211 1.962 1_655 S
O212 C217 1.254 . S
O213 Zn210 2.031 . S
O213 C217 1.269 1_455 S
O214 Zn211 1.986 . S
O214 C221 1.262 . S
O215 Zn210 2.049 . S
O215 C223 1.260 . S
O216 Zn211 1.996 . S
O216 C223 1.257 . S
C217 O212 1.254 . S
C217 O213 1.269 1_655 S
C218 O219 1.249 . S
C218 O220 1.270 . S
O219 Zn211 1.943 . S
O219 C218 1.249 . S
O220 Zn210 2.067 . S
O220 C218 1.270 . S
C221 O214 1.262 . S
C221 O222 1.232 . S
O222 C221 1.232 . S
C223 O215 1.260 . S
C223 O216 1.257 . S
C224 C225 1.387 . S
C224 H228 0.950 . S
C224 C233 1.390 . S
C225 C224 1.387 . S
C225 C227 1.387 . S
H226 C233 0.950 . S
C227 C225 1.387 . S
C227 C229 1.390 . S
C227 H231 0.950 . S
H228 C224 0.950 . S
C229 C227 1.390 . S
C229 C230 1.387 . S
C229 H232 0.950 . S
C230 C229 1.387 . S
C230 C233 1.387 . S
H231 C227 0.950 . S
H232 C229 0.950 . S
C233 C224 1.390 . S
C233 H226 0.950 . S
C233 C230 1.387 . S
C234 C235 1.387 1_455 S
C234 H238 0.950 1_455 S
C234 C243 1.390 . S
C235 C234 1.387 1_655 S
C235 C237 1.387 1_655 S
H236 C243 0.950 . S
C237 C235 1.387 1_455 S
C237 C239 1.390 . S
C237 H241 0.950 1_455 S
H238 C234 0.950 1_655 S
C239 C237 1.390 . S
C239 C240 1.387 . S
C239 H242 0.950 . S
C240 C239 1.387 . S
C240 C243 1.387 . S
H241 C237 0.950 1_655 S
H242 C239 0.950 . S
C243 C234 1.390 . S
C243 H236 0.950 . S
C243 C240 1.387 . S
C244 C245 1.387 . S
C244 H248 0.950 . S
C244 C253 1.390 . S
C245 C244 1.387 . S
C245 C247 1.387 . S
H246 C253 0.950 . S
C247 C245 1.387 . S
C247 C249 1.390 . S
C247 H251 0.950 . S
H248 C244 0.950 . S
C249 C247 1.390 . S
C249 C250 1.387 . S
C249 H252 0.950 . S
C250 C249 1.387 . S
C250 C253 1.387 . S
H251 C247 0.950 . S
H252 C249 0.950 . S
C253 C244 1.390 . S
C253 H246 0.950 . S
C253 C250 1.387 . S
C254 C255 1.387 . S
C254 H258 0.950 . S
C254 C263 1.390 . S
C255 C254 1.387 . S
C255 C257 1.387 . S
H256 C263 0.950 . S
C257 C255 1.387 . S
C257 C259 1.390 . S
C257 H261 0.950 . S
H258 C254 0.950 . S
C259 C257 1.390 . S
C259 C260 1.387 . S
C259 H262 0.950 . S
C260 C259 1.387 . S
C260 C263 1.387 . S
H261 C257 0.950 . S
H262 C259 0.950 . S
C263 C254 1.390 . S
C263 H256 0.950 . S
C263 C260 1.387 . S
C264 C265 1.387 . S
C264 H268 0.950 . S
C264 C273 1.390 . S
C265 C264 1.387 . S
C265 C267 1.387 . S
H266 C273 0.950 . S
C267 C265 1.387 . S
C267 C269 1.390 . S
C267 H271 0.950 . S
H268 C264 0.950 . S
C269 C267 1.390 . S
C269 C270 1.387 . S
C269 H272 0.950 . S
C270 C269 1.387 . S
C270 C273 1.387 . S
H271 C267 0.950 . S
H272 C269 0.950 . S
C273 C264 1.390 . S
C273 H266 0.950 . S
C273 C270 1.387 . S
C274 C275 1.387 . S
C274 H278 0.950 . S
C274 C283 1.390 . S
C275 C274 1.387 . S
C275 C277 1.387 . S
H276 C283 0.950 . S
C277 C275 1.387 . S
C277 C279 1.390 . S
C277 H281 0.950 . S
H278 C274 0.950 . S
C279 C277 1.390 . S
C279 C280 1.387 . S
C279 H282 0.950 . S
C280 C279 1.387 . S
C280 C283 1.387 . S
H281 C277 0.950 . S
H282 C279 0.950 . S
C283 C274 1.390 . S
C283 H276 0.950 . S
C283 C280 1.387 . S
C284 C285 1.387 . S
C284 H288 0.950 . S
C284 C293 1.390 . S
C285 C284 1.387 . S
C285 C287 1.387 . S
H286 C293 0.950 . S
C287 C285 1.387 . S
C287 C289 1.390 . S
C287 H291 0.950 . S
H288 C284 0.950 . S
C289 C287 1.390 . S
C289 C290 1.387 . S
C289 H292 0.950 . S
C290 C289 1.387 . S
C290 C293 1.387 . S
H291 C287 0.950 . S
H292 C289 0.950 . S
C293 C284 1.390 . S
C293 H286 0.950 . S
C293 C290 1.387 . S
C294 C295 1.387 . S
C294 H298 0.950 . S
C294 C303 1.390 . S
C295 C294 1.387 . S
C295 C297 1.387 . S
H296 C303 0.950 1_655 S
C297 C295 1.387 . S
C297 C299 1.390 . S
C297 H301 0.950 . S
H298 C294 0.950 . S
C299 C297 1.390 . S
C299 C300 1.387 1_455 S
C299 H302 0.950 1_455 S
C300 C299 1.387 1_655 S
C300 C303 1.387 1_655 S
H301 C297 0.950 . S
H302 C299 0.950 1_655 S
C303 C294 1.390 . S
C303 H296 0.950 1_455 S
C303 C300 1.387 1_455 S
C304 C305 1.387 1_655 S
C304 H308 0.950 . S
C304 C313 1.390 1_565 S
C305 C304 1.387 1_455 S
C305 C307 1.387 . S
H306 C313 0.950 . S
C307 C305 1.387 . S
C307 C309 1.390 1_565 S
C307 H311 0.950 . S
H308 C304 0.950 . S
C309 C307 1.390 1_545 S
C309 C310 1.387 . S
C309 H312 0.950 . S
C310 C309 1.387 . S
C310 C313 1.387 1_455 S
H311 C307 0.950 . S
H312 C309 0.950 . S
C313 C304 1.390 1_545 S
C313 H306 0.950 . S
C313 C310 1.387 1_655 S
C314 C315 1.387 . S
C314 H318 0.950 . S
C314 C323 1.390 . S
C315 C314 1.387 . S
C315 C317 1.387 . S
H316 C323 0.950 . S
C317 C315 1.387 . S
C317 C319 1.390 . S
C317 H321 0.950 . S
H318 C314 0.950 . S
C319 C317 1.390 . S
C319 C320 1.387 . S
C319 H322 0.950 . S
C320 C319 1.387 . S
C320 C323 1.387 . S
H321 C317 0.950 . S
H322 C319 0.950 . S
C323 C314 1.390 . S
C323 H316 0.950 . S
C323 C320 1.387 . S
C324 C325 1.387 . S
C324 H328 0.950 . S
C324 C333 1.390 1_564 S
C325 C324 1.387 . S
C325 C327 1.387 . S
H326 C333 0.950 . S
C327 C325 1.387 . S
C327 C329 1.390 1_564 S
C327 H331 0.950 . S
H328 C324 0.950 . S
C329 C327 1.390 1_546 S
C329 C330 1.387 . S
C329 H332 0.950 . S
C330 C329 1.387 . S
C330 C333 1.387 . S
H331 C327 0.950 . S
H332 C329 0.950 . S
C333 C324 1.390 1_546 S
C333 H326 0.950 . S
C333 C330 1.387 . S
C334 C335 1.387 . S
C334 H338 0.950 . S
C334 C343 1.390 . S
C335 C334 1.387 . S
C335 C337 1.387 . S
H336 C343 0.950 . S
C337 C335 1.387 . S
C337 C339 1.390 . S
C337 H341 0.950 . S
H338 C334 0.950 . S
C339 C337 1.390 . S
C339 C340 1.387 . S
C339 H342 0.950 . S
C340 C339 1.387 . S
C340 C343 1.387 . S
H341 C337 0.950 . S
H342 C339 0.950 . S
C343 C334 1.390 . S
C343 H336 0.950 . S
C343 C340 1.387 . S
C344 C345 1.387 . S
C344 H348 0.950 . S
C344 C353 1.390 . S
C345 C344 1.387 . S
C345 C347 1.387 . S
H346 C353 0.950 . S
C347 C345 1.387 . S
C347 C349 1.390 . S
C347 H351 0.950 . S
H348 C344 0.950 . S
C349 C347 1.390 . S
C349 C350 1.387 . S
C349 H352 0.950 . S
C350 C349 1.387 . S
C350 C353 1.387 . S
H351 C347 0.950 . S
H352 C349 0.950 . S
C353 C344 1.390 . S
C353 H346 0.950 . S
C353 C350 1.387 . S
C354 C355 1.387 . S
C354 H358 0.950 . S
C354 C363 1.390 . S
C355 C354 1.387 . S
C355 C357 1.387 . S
H356 C363 0.950 . S
C357 C355 1.387 . S
C357 C359 1.390 . S
C357 H361 0.950 . S
H358 C354 0.950 . S
C359 C357 1.390 . S
C359 C360 1.387 . S
C359 H362 0.950 . S
C360 C359 1.387 . S
C360 C363 1.387 . S
H361 C357 0.950 . S
H362 C359 0.950 . S
C363 C354 1.390 . S
C363 H356 0.950 . S
C363 C360 1.387 . S
C364 C365 1.387 . S
C364 H368 0.950 . S
C364 C373 1.390 1_556 S
C365 C364 1.387 . S
C365 C367 1.387 . S
H366 C373 0.950 . S
C367 C365 1.387 . S
C367 C369 1.390 1_556 S
C367 H371 0.950 . S
H368 C364 0.950 . S
C369 C367 1.390 1_554 S
C369 C370 1.387 . S
C369 H372 0.950 . S
C370 C369 1.387 . S
C370 C373 1.387 . S
H371 C367 0.950 . S
H372 C369 0.950 . S
C373 C364 1.390 1_554 S
C373 H366 0.950 . S
C373 C370 1.387 . S
C374 C375 1.387 . S
C374 H378 0.950 . S
C374 C383 1.390 . S
C375 C374 1.387 . S
C375 C377 1.387 . S
H376 C383 0.950 . S
C377 C375 1.387 . S
C377 C379 1.390 . S
C377 H381 0.950 1_455 S
H378 C374 0.950 . S
C379 C377 1.390 . S
C379 C380 1.387 . S
C379 H382 0.950 1_455 S
C380 C379 1.387 . S
C380 C383 1.387 . S
H381 C377 0.950 1_655 S
H382 C379 0.950 1_655 S
C383 C374 1.390 . S
C383 H376 0.950 . S
C383 C380 1.387 . S
C384 C385 1.387 . S
C384 H388 0.950 . S
C384 C393 1.390 . S
C385 C384 1.387 . S
C385 C387 1.387 . S
H386 C393 0.950 . S
C387 C385 1.387 . S
C387 C389 1.390 . S
C387 H391 0.950 . S
H388 C384 0.950 . S
C389 C387 1.390 . S
C389 C390 1.387 . S
C389 H392 0.950 . S
C390 C389 1.387 . S
C390 C393 1.387 . S
H391 C387 0.950 . S
H392 C389 0.950 . S
C393 C384 1.390 . S
C393 H386 0.950 . S
C393 C390 1.387 . S
C394 C395 1.387 . S
C394 H398 0.950 . S
C394 C403 1.390 . S
C395 C394 1.387 . S
C395 C397 1.387 . S
H396 C403 0.950 . S
C397 C395 1.387 . S
C397 C399 1.390 . S
C397 H401 0.950 . S
H398 C394 0.950 . S
C399 C397 1.390 . S
C399 C400 1.387 . S
C399 H402 0.950 . S
C400 C399 1.387 . S
C400 C403 1.387 . S
H401 C397 0.950 . S
H402 C399 0.950 . S
C403 C394 1.390 . S
C403 H396 0.950 . S
C403 C400 1.387 . S
C404 C405 1.387 . S
C404 H408 0.950 . S
C404 C413 1.390 . S
C405 C404 1.387 . S
C405 C407 1.387 . S
H406 C413 0.950 . S
C407 C405 1.387 . S
C407 C409 1.390 . S
C407 H411 0.950 . S
H408 C404 0.950 . S
C409 C407 1.390 . S
C409 C410 1.387 . S
C409 H412 0.950 . S
C410 C409 1.387 . S
C410 C413 1.387 . S
H411 C407 0.950 . S
H412 C409 0.950 . S
C413 C404 1.390 . S
C413 H406 0.950 . S
C413 C410 1.387 . S
C414 C415 1.387 . S
C414 H418 0.950 . S
C414 C423 1.390 . S
C415 C414 1.387 . S
C415 C417 1.387 . S
H416 C423 0.950 . S
C417 C415 1.387 . S
C417 C419 1.390 . S
C417 H421 0.950 . S
H418 C414 0.950 . S
C419 C417 1.390 . S
C419 C420 1.387 . S
C419 H422 0.950 . S
C420 C419 1.387 . S
C420 C423 1.387 . S
H421 C417 0.950 . S
H422 C419 0.950 . S
C423 C414 1.390 . S
C423 H416 0.950 . S
C423 C420 1.387 . S
C424 C425 1.387 . S
C424 H428 0.950 1_545 S
C424 C433 1.390 . S
C425 C424 1.387 . S
C425 C427 1.387 . S
H426 C433 0.950 . S
C427 C425 1.387 . S
C427 C429 1.390 . S
C427 H431 0.950 . S
H428 C424 0.950 1_565 S
C429 C427 1.390 . S
C429 C430 1.387 . S
C429 H432 0.950 . S
C430 C429 1.387 . S
C430 C433 1.387 . S
H431 C427 0.950 . S
H432 C429 0.950 . S
C433 C424 1.390 . S
C433 H426 0.950 . S
C433 C430 1.387 . S
C434 C435 1.387 . S
C434 H438 0.950 . S
C434 C443 1.390 . S
C435 C434 1.387 . S
C435 C437 1.387 . S
H436 C443 0.950 . S
C437 C435 1.387 . S
C437 C439 1.390 . S
C437 H441 0.950 . S
H438 C434 0.950 . S
C439 C437 1.390 . S
C439 C440 1.387 . S
C439 H442 0.950 . S
C440 C439 1.387 . S
C440 C443 1.387 . S
H441 C437 0.950 . S
H442 C439 0.950 . S
C443 C434 1.390 . S
C443 H436 0.950 . S
C443 C440 1.387 . S
C444 C445 1.387 . S
C444 H448 0.950 . S
C444 C453 1.390 . S
C445 C444 1.387 . S
C445 C447 1.387 . S
H446 C453 0.950 . S
C447 C445 1.387 . S
C447 C449 1.390 . S
C447 H451 0.950 . S
H448 C444 0.950 . S
C449 C447 1.390 . S
C449 C450 1.387 . S
C449 H452 0.950 . S
C450 C449 1.387 . S
C450 C453 1.387 . S
H451 C447 0.950 . S
H452 C449 0.950 . S
C453 C444 1.390 . S
C453 H446 0.950 . S
C453 C450 1.387 . S
C454 C455 1.387 . S
C454 H458 0.950 . S
C454 C463 1.390 . S
C455 C454 1.387 . S
C455 C457 1.387 . S
H456 C463 0.950 . S
C457 C455 1.387 . S
C457 C459 1.390 . S
C457 H461 0.950 . S
H458 C454 0.950 . S
C459 C457 1.390 . S
C459 C460 1.387 . S
C459 H462 0.950 . S
C460 C459 1.387 . S
C460 C463 1.387 . S
H461 C457 0.950 . S
H462 C459 0.950 . S
C463 C454 1.390 . S
C463 H456 0.950 . S
C463 C460 1.387 . S
C464 C465 1.387 . S
C464 H468 0.950 . S
C464 C473 1.390 . S
C465 C464 1.387 . S
C465 C467 1.387 . S
H466 C473 0.950 . S
C467 C465 1.387 . S
C467 C469 1.390 . S
C467 H471 0.950 . S
H468 C464 0.950 . S
C469 C467 1.390 . S
C469 C470 1.387 . S
C469 H472 0.950 . S
C470 C469 1.387 . S
C470 C473 1.387 . S
H471 C467 0.950 . S
H472 C469 0.950 . S
C473 C464 1.390 . S
C473 H466 0.950 . S
C473 C470 1.387 . S
C474 C475 1.387 . S
C474 H478 0.950 . S
C474 C483 1.390 . S
C475 C474 1.387 . S
C475 C477 1.387 . S
H476 C483 0.950 . S
C477 C475 1.387 . S
C477 C479 1.390 . S
C477 H481 0.950 . S
H478 C474 0.950 . S
C479 C477 1.390 . S
C479 C480 1.387 . S
C479 H482 0.950 . S
C480 C479 1.387 . S
C480 C483 1.387 . S
H481 C477 0.950 . S
H482 C479 0.950 . S
C483 C474 1.390 . S
C483 H476 0.950 . S
C483 C480 1.387 . S
C484 C485 1.387 . S
C484 H488 0.950 . S
C484 C493 1.390 . S
C485 C484 1.387 . S
C485 C487 1.387 . S
H486 C493 0.950 . S
C487 C485 1.387 . S
C487 C489 1.390 . S
C487 H491 0.950 . S
H488 C484 0.950 . S
C489 C487 1.390 . S
C489 C490 1.387 . S
C489 H492 0.950 . S
C490 C489 1.387 . S
C490 C493 1.387 . S
H491 C487 0.950 . S
H492 C489 0.950 . S
C493 C484 1.390 . S
C493 H486 0.950 . S
C493 C490 1.387 . S
C494 C495 1.387 . S
C494 H498 0.950 . S
C494 C503 1.390 . S
C495 C494 1.387 . S
C495 C497 1.387 . S
H496 C503 0.950 . S
C497 C495 1.387 . S
C497 C499 1.390 . S
C497 H501 0.950 . S
H498 C494 0.950 . S
C499 C497 1.390 . S
C499 C500 1.387 . S
C499 H502 0.950 . S
C500 C499 1.387 . S
C500 C503 1.387 . S
H501 C497 0.950 . S
H502 C499 0.950 . S
C503 C494 1.390 . S
C503 H496 0.950 . S
C503 C500 1.387 . S
C504 C505 1.387 . S
C504 H508 0.950 . S
C504 C513 1.390 . S
C505 C504 1.387 . S
C505 C507 1.387 . S
H506 C513 0.950 . S
C507 C505 1.387 . S
C507 C509 1.390 . S
C507 H511 0.950 . S
H508 C504 0.950 . S
C509 C507 1.390 . S
C509 C510 1.387 . S
C509 H512 0.950 . S
C510 C509 1.387 . S
C510 C513 1.387 . S
H511 C507 0.950 . S
H512 C509 0.950 . S
C513 C504 1.390 . S
C513 H506 0.950 . S
C513 C510 1.387 . S
C514 C515 1.387 . S
C514 H518 0.950 . S
C514 C523 1.390 . S
C515 C514 1.387 . S
C515 C517 1.387 . S
H516 C523 0.950 . S
C517 C515 1.387 . S
C517 C519 1.390 . S
C517 H521 0.950 . S
H518 C514 0.950 . S
C519 C517 1.390 . S
C519 C520 1.387 . S
C519 H522 0.950 . S
C520 C519 1.387 . S
C520 C523 1.387 . S
H521 C517 0.950 . S
H522 C519 0.950 . S
C523 C514 1.390 . S
C523 H516 0.950 . S
C523 C520 1.387 . S
C524 C525 1.387 . S
C524 H528 0.950 . S
C524 C533 1.390 . S
C525 C524 1.387 . S
C525 C527 1.387 . S
H526 C533 0.950 . S
C527 C525 1.387 . S
C527 C529 1.390 . S
C527 H531 0.950 . S
H528 C524 0.950 . S
C529 C527 1.390 . S
C529 C530 1.387 . S
C529 H532 0.950 . S
C530 C529 1.387 . S
C530 C533 1.387 . S
H531 C527 0.950 . S
H532 C529 0.950 . S
C533 C524 1.390 . S
C533 H526 0.950 . S
C533 C530 1.387 . S
C534 C535 1.387 . S
C534 H538 0.950 . S
C534 C543 1.390 . S
C535 C534 1.387 . S
C535 C537 1.387 . S
H536 C543 0.950 . S
C537 C535 1.387 . S
C537 C539 1.390 . S
C537 H541 0.950 . S
H538 C534 0.950 . S
C539 C537 1.390 . S
C539 C540 1.387 . S
C539 H542 0.950 . S
C540 C539 1.387 . S
C540 C543 1.387 . S
H541 C537 0.950 . S
H542 C539 0.950 . S
C543 C534 1.390 . S
C543 H536 0.950 . S
C543 C540 1.387 . S
C225 C11 1.188 . S
C230 C193 1.188 . S
C235 C165 1.188 . S
C240 C25 1.188 . S
C245 C179 1.188 . S
C250 C39 1.188 . S
C255 C151 1.188 . S
C260 C53 1.188 . S
C265 C67 1.190 . S
C270 C221 1.190 . S
C275 C81 1.190 . S
C280 C137 1.190 . S
C285 C207 1.188 . S
C290 C95 1.188 . S
C295 C109 1.189 . S
C300 C123 1.189 . S
C305 C69 1.468 1_565 S
C310 C13 1.468 1_545 S
C315 C27 1.471 . S
C320 C83 1.471 . S
C325 C41 1.471 1_565 S
C330 C97 1.471 1_545 S
C335 C111 1.467 . S
C340 C55 1.467 . S
C345 C125 1.471 . S
C350 C153 1.471 . S
C355 C139 1.471 . S
C360 C167 1.471 . S
C365 C209 1.467 . S
C370 C181 1.467 . S
C375 C195 1.467 . S
C380 C223 1.467 . S
C385 C77 1.431 . S
C390 C7 1.429 . S
C395 C21 1.428 . S
C400 C91 1.429 . S
C405 C35 1.429 . S
C410 C105 1.431 . S
C415 C63 1.431 . S
C420 C49 1.430 . S
C425 C64 1.315 . S
C430 C148 1.315 . S
C435 C36 1.313 . S
C440 C120 1.315 . S
C445 C162 1.314 . S
C450 C92 1.312 . S
C455 C134 1.312 . S
C460 C8 1.314 . S
C465 C119 1.431 . S
C470 C175 1.430 . S
C475 C147 1.431 . S
C480 C217 1.429 . S
C485 C189 1.429 . S
C490 C133 1.431 . S
C495 C161 1.431 . S
C500 C203 1.429 . S
C505 C204 1.313 . S
C510 C22 1.312 . S
C515 C190 1.313 . S
C520 C78 1.311 . S
C525 C218 1.315 . S
C530 C50 1.314 . S
C535 C176 1.313 . S
C540 C106 1.315 . S
