# Generated by pormake.
# Topology nfb, (4)-cn, num edge types: 1
# Building blocks:
#     Node 0, Type 0, BuildingBlock: QUQFOY_clean_sbu_1, # of connection points: 4
#     Node 1, Type 0, BuildingBlock: QUQFOY_clean_sbu_1, # of connection points: 4
#     Node 2, Type 0, BuildingBlock: QUQFOY_clean_sbu_1, # of connection points: 4
#     Node 3, Type 0, BuildingBlock: QUQFOY_clean_sbu_1, # of connection points: 4
#     Node 4, Type 0, BuildingBlock: QUQFOY_clean_sbu_1, # of connection points: 4
#     Node 5, Type 0, BuildingBlock: QUQFOY_clean_sbu_1, # of connection points: 4
#     Node 6, Type 0, BuildingBlock: QUQFOY_clean_sbu_1, # of connection points: 4
#     Node 7, Type 0, BuildingBlock: QUQFOY_clean_sbu_1, # of connection points: 4
#     Node 8, Type 0, BuildingBlock: QUQFOY_clean_sbu_1, # of connection points: 4
#     Node 9, Type 0, BuildingBlock: QUQFOY_clean_sbu_1, # of connection points: 4
#     Node 10, Type 0, BuildingBlock: QUQFOY_clean_sbu_1, # of connection points: 4
#     Node 11, Type 0, BuildingBlock: QUQFOY_clean_sbu_1, # of connection points: 4
#     Node 12, Type 0, BuildingBlock: QUQFOY_clean_sbu_1, # of connection points: 4
#     Node 13, Type 0, BuildingBlock: QUQFOY_clean_sbu_1, # of connection points: 4
#     Node 14, Type 0, BuildingBlock: QUQFOY_clean_sbu_1, # of connection points: 4
#     Node 15, Type 0, BuildingBlock: QUQFOY_clean_sbu_1, # of connection points: 4
#     Node 16, Type 0, BuildingBlock: QUQFOY_clean_sbu_1, # of connection points: 4
#     Node 17, Type 0, BuildingBlock: QUQFOY_clean_sbu_1, # of connection points: 4
#     Node 18, Type 0, BuildingBlock: QUQFOY_clean_sbu_1, # of connection points: 4
#     Node 19, Type 0, BuildingBlock: QUQFOY_clean_sbu_1, # of connection points: 4
#     Node 20, Type 0, BuildingBlock: QUQFOY_clean_sbu_1, # of connection points: 4
#     Node 21, Type 0, BuildingBlock: QUQFOY_clean_sbu_1, # of connection points: 4
#     Node 22, Type 0, BuildingBlock: QUQFOY_clean_sbu_1, # of connection points: 4
#     Node 23, Type 0, BuildingBlock: QUQFOY_clean_sbu_1, # of connection points: 4
#     Node 24, Type 0, BuildingBlock: QUQFOY_clean_sbu_1, # of connection points: 4
#     Node 25, Type 0, BuildingBlock: QUQFOY_clean_sbu_1, # of connection points: 4
#     Node 26, Type 0, BuildingBlock: QUQFOY_clean_sbu_1, # of connection points: 4
#     Node 27, Type 0, BuildingBlock: QUQFOY_clean_sbu_1, # of connection points: 4
#     Node 28, Type 0, BuildingBlock: QUQFOY_clean_sbu_1, # of connection points: 4
#     Node 29, Type 0, BuildingBlock: QUQFOY_clean_sbu_1, # of connection points: 4
#     Node 30, Type 0, BuildingBlock: QUQFOY_clean_sbu_1, # of connection points: 4
#     Node 31, Type 0, BuildingBlock: QUQFOY_clean_sbu_1, # of connection points: 4
#     Node 32, Type 0, BuildingBlock: QUQFOY_clean_sbu_1, # of connection points: 4
#     Node 33, Type 0, BuildingBlock: QUQFOY_clean_sbu_1, # of connection points: 4
#     Node 34, Type 0, BuildingBlock: QUQFOY_clean_sbu_1, # of connection points: 4
#     Node 35, Type 0, BuildingBlock: QUQFOY_clean_sbu_1, # of connection points: 4
#     Node 36, Type 0, BuildingBlock: QUQFOY_clean_sbu_1, # of connection points: 4
#     Node 37, Type 0, BuildingBlock: QUQFOY_clean_sbu_1, # of connection points: 4
#     Node 38, Type 0, BuildingBlock: QUQFOY_clean_sbu_1, # of connection points: 4
#     Node 39, Type 0, BuildingBlock: QUQFOY_clean_sbu_1, # of connection points: 4
#     Node 40, Type 0, BuildingBlock: QUQFOY_clean_sbu_1, # of connection points: 4
#     Node 41, Type 0, BuildingBlock: QUQFOY_clean_sbu_1, # of connection points: 4
#     Node 42, Type 0, BuildingBlock: QUQFOY_clean_sbu_1, # of connection points: 4
#     Node 43, Type 0, BuildingBlock: QUQFOY_clean_sbu_1, # of connection points: 4
#     Node 44, Type 0, BuildingBlock: QUQFOY_clean_sbu_1, # of connection points: 4
#     Node 45, Type 0, BuildingBlock: QUQFOY_clean_sbu_1, # of connection points: 4
#     Node 46, Type 0, BuildingBlock: QUQFOY_clean_sbu_1, # of connection points: 4
#     Node 47, Type 0, BuildingBlock: QUQFOY_clean_sbu_1, # of connection points: 4
#     Edge 48, Type (0, 0), BuildingBlock: TEMPAE_clean_linker_10, # of connection points: 2
#     Edge 49, Type (0, 0), BuildingBlock: TEMPAE_clean_linker_10, # of connection points: 2
#     Edge 50, Type (0, 0), BuildingBlock: TEMPAE_clean_linker_10, # of connection points: 2
#     Edge 51, Type (0, 0), BuildingBlock: TEMPAE_clean_linker_10, # of connection points: 2
#     Edge 52, Type (0, 0), BuildingBlock: TEMPAE_clean_linker_10, # of connection points: 2
#     Edge 53, Type (0, 0), BuildingBlock: TEMPAE_clean_linker_10, # of connection points: 2
#     Edge 54, Type (0, 0), BuildingBlock: TEMPAE_clean_linker_10, # of connection points: 2
#     Edge 55, Type (0, 0), BuildingBlock: TEMPAE_clean_linker_10, # of connection points: 2
#     Edge 56, Type (0, 0), BuildingBlock: TEMPAE_clean_linker_10, # of connection points: 2
#     Edge 57, Type (0, 0), BuildingBlock: TEMPAE_clean_linker_10, # of connection points: 2
#     Edge 58, Type (0, 0), BuildingBlock: TEMPAE_clean_linker_10, # of connection points: 2
#     Edge 59, Type (0, 0), BuildingBlock: TEMPAE_clean_linker_10, # of connection points: 2
#     Edge 60, Type (0, 0), BuildingBlock: TEMPAE_clean_linker_10, # of connection points: 2
#     Edge 61, Type (0, 0), BuildingBlock: TEMPAE_clean_linker_10, # of connection points: 2
#     Edge 62, Type (0, 0), BuildingBlock: TEMPAE_clean_linker_10, # of connection points: 2
#     Edge 63, Type (0, 0), BuildingBlock: TEMPAE_clean_linker_10, # of connection points: 2
#     Edge 64, Type (0, 0), BuildingBlock: TEMPAE_clean_linker_10, # of connection points: 2
#     Edge 65, Type (0, 0), BuildingBlock: TEMPAE_clean_linker_10, # of connection points: 2
#     Edge 66, Type (0, 0), BuildingBlock: TEMPAE_clean_linker_10, # of connection points: 2
#     Edge 67, Type (0, 0), BuildingBlock: TEMPAE_clean_linker_10, # of connection points: 2
#     Edge 68, Type (0, 0), BuildingBlock: TEMPAE_clean_linker_10, # of connection points: 2
#     Edge 69, Type (0, 0), BuildingBlock: TEMPAE_clean_linker_10, # of connection points: 2
#     Edge 70, Type (0, 0), BuildingBlock: TEMPAE_clean_linker_10, # of connection points: 2
#     Edge 71, Type (0, 0), BuildingBlock: TEMPAE_clean_linker_10, # of connection points: 2
#     Edge 72, Type (0, 0), BuildingBlock: TEMPAE_clean_linker_10, # of connection points: 2
#     Edge 73, Type (0, 0), BuildingBlock: TEMPAE_clean_linker_10, # of connection points: 2
#     Edge 74, Type (0, 0), BuildingBlock: TEMPAE_clean_linker_10, # of connection points: 2
#     Edge 75, Type (0, 0), BuildingBlock: TEMPAE_clean_linker_10, # of connection points: 2
#     Edge 76, Type (0, 0), BuildingBlock: TEMPAE_clean_linker_10, # of connection points: 2
#     Edge 77, Type (0, 0), BuildingBlock: TEMPAE_clean_linker_10, # of connection points: 2
#     Edge 78, Type (0, 0), BuildingBlock: TEMPAE_clean_linker_10, # of connection points: 2
#     Edge 79, Type (0, 0), BuildingBlock: TEMPAE_clean_linker_10, # of connection points: 2
#     Edge 80, Type (0, 0), BuildingBlock: TEMPAE_clean_linker_10, # of connection points: 2
#     Edge 81, Type (0, 0), BuildingBlock: TEMPAE_clean_linker_10, # of connection points: 2
#     Edge 82, Type (0, 0), BuildingBlock: TEMPAE_clean_linker_10, # of connection points: 2
#     Edge 83, Type (0, 0), BuildingBlock: TEMPAE_clean_linker_10, # of connection points: 2
#     Edge 84, Type (0, 0), BuildingBlock: TEMPAE_clean_linker_10, # of connection points: 2
#     Edge 85, Type (0, 0), BuildingBlock: TEMPAE_clean_linker_10, # of connection points: 2
#     Edge 86, Type (0, 0), BuildingBlock: TEMPAE_clean_linker_10, # of connection points: 2
#     Edge 87, Type (0, 0), BuildingBlock: TEMPAE_clean_linker_10, # of connection points: 2
#     Edge 88, Type (0, 0), BuildingBlock: TEMPAE_clean_linker_10, # of connection points: 2
#     Edge 89, Type (0, 0), BuildingBlock: TEMPAE_clean_linker_10, # of connection points: 2
#     Edge 90, Type (0, 0), BuildingBlock: TEMPAE_clean_linker_10, # of connection points: 2
#     Edge 91, Type (0, 0), BuildingBlock: TEMPAE_clean_linker_10, # of connection points: 2
#     Edge 92, Type (0, 0), BuildingBlock: TEMPAE_clean_linker_10, # of connection points: 2
#     Edge 93, Type (0, 0), BuildingBlock: TEMPAE_clean_linker_10, # of connection points: 2
#     Edge 94, Type (0, 0), BuildingBlock: TEMPAE_clean_linker_10, # of connection points: 2
#     Edge 95, Type (0, 0), BuildingBlock: TEMPAE_clean_linker_10, # of connection points: 2
#     Edge 96, Type (0, 0), BuildingBlock: TEMPAE_clean_linker_10, # of connection points: 2
#     Edge 97, Type (0, 0), BuildingBlock: TEMPAE_clean_linker_10, # of connection points: 2
#     Edge 98, Type (0, 0), BuildingBlock: TEMPAE_clean_linker_10, # of connection points: 2
#     Edge 99, Type (0, 0), BuildingBlock: TEMPAE_clean_linker_10, # of connection points: 2
#     Edge 100, Type (0, 0), BuildingBlock: TEMPAE_clean_linker_10, # of connection points: 2
#     Edge 101, Type (0, 0), BuildingBlock: TEMPAE_clean_linker_10, # of connection points: 2
#     Edge 102, Type (0, 0), BuildingBlock: TEMPAE_clean_linker_10, # of connection points: 2
#     Edge 103, Type (0, 0), BuildingBlock: TEMPAE_clean_linker_10, # of connection points: 2
#     Edge 104, Type (0, 0), BuildingBlock: TEMPAE_clean_linker_10, # of connection points: 2
#     Edge 105, Type (0, 0), BuildingBlock: TEMPAE_clean_linker_10, # of connection points: 2
#     Edge 106, Type (0, 0), BuildingBlock: TEMPAE_clean_linker_10, # of connection points: 2
#     Edge 107, Type (0, 0), BuildingBlock: TEMPAE_clean_linker_10, # of connection points: 2
#     Edge 108, Type (0, 0), BuildingBlock: TEMPAE_clean_linker_10, # of connection points: 2
#     Edge 109, Type (0, 0), BuildingBlock: TEMPAE_clean_linker_10, # of connection points: 2
#     Edge 110, Type (0, 0), BuildingBlock: TEMPAE_clean_linker_10, # of connection points: 2
#     Edge 111, Type (0, 0), BuildingBlock: TEMPAE_clean_linker_10, # of connection points: 2
#     Edge 112, Type (0, 0), BuildingBlock: TEMPAE_clean_linker_10, # of connection points: 2
#     Edge 113, Type (0, 0), BuildingBlock: TEMPAE_clean_linker_10, # of connection points: 2
#     Edge 114, Type (0, 0), BuildingBlock: TEMPAE_clean_linker_10, # of connection points: 2
#     Edge 115, Type (0, 0), BuildingBlock: TEMPAE_clean_linker_10, # of connection points: 2
#     Edge 116, Type (0, 0), BuildingBlock: TEMPAE_clean_linker_10, # of connection points: 2
#     Edge 117, Type (0, 0), BuildingBlock: TEMPAE_clean_linker_10, # of connection points: 2
#     Edge 118, Type (0, 0), BuildingBlock: TEMPAE_clean_linker_10, # of connection points: 2
#     Edge 119, Type (0, 0), BuildingBlock: TEMPAE_clean_linker_10, # of connection points: 2
#     Edge 120, Type (0, 0), BuildingBlock: TEMPAE_clean_linker_10, # of connection points: 2
#     Edge 121, Type (0, 0), BuildingBlock: TEMPAE_clean_linker_10, # of connection points: 2
#     Edge 122, Type (0, 0), BuildingBlock: TEMPAE_clean_linker_10, # of connection points: 2
#     Edge 123, Type (0, 0), BuildingBlock: TEMPAE_clean_linker_10, # of connection points: 2
#     Edge 124, Type (0, 0), BuildingBlock: TEMPAE_clean_linker_10, # of connection points: 2
#     Edge 125, Type (0, 0), BuildingBlock: TEMPAE_clean_linker_10, # of connection points: 2
#     Edge 126, Type (0, 0), BuildingBlock: TEMPAE_clean_linker_10, # of connection points: 2
#     Edge 127, Type (0, 0), BuildingBlock: TEMPAE_clean_linker_10, # of connection points: 2
#     Edge 128, Type (0, 0), BuildingBlock: TEMPAE_clean_linker_10, # of connection points: 2
#     Edge 129, Type (0, 0), BuildingBlock: TEMPAE_clean_linker_10, # of connection points: 2
#     Edge 130, Type (0, 0), BuildingBlock: TEMPAE_clean_linker_10, # of connection points: 2
#     Edge 131, Type (0, 0), BuildingBlock: TEMPAE_clean_linker_10, # of connection points: 2
#     Edge 132, Type (0, 0), BuildingBlock: TEMPAE_clean_linker_10, # of connection points: 2
#     Edge 133, Type (0, 0), BuildingBlock: TEMPAE_clean_linker_10, # of connection points: 2
#     Edge 134, Type (0, 0), BuildingBlock: TEMPAE_clean_linker_10, # of connection points: 2
#     Edge 135, Type (0, 0), BuildingBlock: TEMPAE_clean_linker_10, # of connection points: 2
#     Edge 136, Type (0, 0), BuildingBlock: TEMPAE_clean_linker_10, # of connection points: 2
#     Edge 137, Type (0, 0), BuildingBlock: TEMPAE_clean_linker_10, # of connection points: 2
#     Edge 138, Type (0, 0), BuildingBlock: TEMPAE_clean_linker_10, # of connection points: 2
#     Edge 139, Type (0, 0), BuildingBlock: TEMPAE_clean_linker_10, # of connection points: 2
#     Edge 140, Type (0, 0), BuildingBlock: TEMPAE_clean_linker_10, # of connection points: 2
#     Edge 141, Type (0, 0), BuildingBlock: TEMPAE_clean_linker_10, # of connection points: 2
#     Edge 142, Type (0, 0), BuildingBlock: TEMPAE_clean_linker_10, # of connection points: 2
#     Edge 143, Type (0, 0), BuildingBlock: TEMPAE_clean_linker_10, # of connection points: 2
# Relax obj value: 0.337
# Max RMSD: 0.150
# Mean RMSD: 0.117
data_MOF--net-nfb--node1-QUQFOY_clean_sbu_1--edge1-TEMPAE_clean_linker_10
_symmetry_space_group_name_H-M    P1
_symmetry_Int_Tables_number       1
_symmetry_cell_setting            triclinic
loop_
_symmetry_equiv_pos_as_xyz
'x, y, z'
_cell_length_a     61.060941
_cell_length_b     61.27193
_cell_length_c     61.472916
_cell_angle_alpha  91.387285
_cell_angle_beta   91.366616
_cell_angle_gamma 95.543123
loop_
_atom_site_label
_atom_site_type_symbol
_atom_site_fract_x
_atom_site_fract_y
_atom_site_fract_z
_atom_type_partial_charge
O0 O 0.15039 0.15425 0.40457 0.0
Cd1 Cd 0.18116 0.16872 0.41423 0.0
Cd2 Cd 0.1916 0.13694 0.38996 0.0
O3 O 0.16008 0.13869 0.37416 0.0
O4 O 0.17305 0.1933 0.43307 0.0
O5 O 0.19043 0.19853 0.40225 0.0
C6 C 0.18127 0.20663 0.41892 0.0
C7 C 0.22946 0.14556 0.38228 0.0
C8 C 0.14489 0.14446 0.38653 0.0
C9 C 0.19457 0.13157 0.43658 0.0
O10 O 0.18791 0.12125 0.41915 0.0
O11 O 0.19891 0.15222 0.43614 0.0
O12 O 0.21896 0.12698 0.37607 0.0
O13 O 0.2179 0.16019 0.39057 0.0
O14 O 0.35238 0.61799 0.89798 0.0
Cd15 Cd 0.34661 0.58526 0.90379 0.0
Cd16 Cd 0.36253 0.58105 0.86466 0.0
O17 O 0.37443 0.6153 0.87043 0.0
O18 O 0.34176 0.58424 0.93581 0.0
O19 O 0.37017 0.57118 0.92029 0.0
C20 C 0.35994 0.57529 0.93776 0.0
C21 C 0.37636 0.5457 0.86452 0.0
C22 C 0.3652 0.62727 0.88431 0.0
C23 C 0.3145 0.57144 0.86818 0.0
O24 O 0.32983 0.5779 0.85552 0.0
O25 O 0.31858 0.56991 0.88847 0.0
O26 O 0.3783 0.55796 0.84765 0.0
O27 O 0.36889 0.55446 0.88177 0.0
O28 O 0.88356 0.88162 0.41132 0.0
Cd29 Cd 0.85503 0.86497 0.42267 0.0
Cd30 Cd 0.84121 0.90026 0.40052 0.0
O31 O 0.87132 0.89948 0.38353 0.0
O32 O 0.86837 0.84709 0.44514 0.0
O33 O 0.85036 0.83241 0.41599 0.0
C34 C 0.86152 0.82986 0.43369 0.0
C35 C 0.80273 0.89348 0.39244 0.0
C36 C 0.88746 0.89284 0.39446 0.0
C37 C 0.84021 0.90005 0.44691 0.0
O38 O 0.84767 0.91225 0.43191 0.0
O39 O 0.83375 0.88027 0.44198 0.0
O40 O 0.81342 0.9124 0.38918 0.0
O41 O 0.8143 0.87775 0.39797 0.0
O42 O 0.67053 0.3942 0.89875 0.0
Cd43 Cd 0.67756 0.42719 0.90392 0.0
Cd44 Cd 0.65693 0.42946 0.86582 0.0
O45 O 0.64524 0.39583 0.87282 0.0
O46 O 0.68479 0.43073 0.93585 0.0
O47 O 0.65522 0.44244 0.92043 0.0
C48 C 0.66659 0.4396 0.93786 0.0
C49 C 0.64369 0.4651 0.86564 0.0
C50 C 0.65576 0.38447 0.88614 0.0
C51 C 0.70526 0.43842 0.8661 0.0
O52 O 0.68833 0.43145 0.85458 0.0
O53 O 0.70383 0.44112 0.88662 0.0
O54 O 0.63939 0.4514 0.84936 0.0
O55 O 0.65321 0.45769 0.8825 0.0
O56 O 0.20852 0.88496 0.61361 0.0
Cd57 Cd 0.17634 0.88066 0.60274 0.0
Cd58 Cd 0.16819 0.87209 0.645 0.0
O59 O 0.20318 0.88063 0.64873 0.0
O60 O 0.17704 0.89031 0.57204 0.0
O61 O 0.15767 0.90542 0.59713 0.0
C62 C 0.16306 0.90393 0.57708 0.0
C63 C 0.1355 0.88889 0.65266 0.0
C64 C 0.21633 0.88401 0.63287 0.0
C65 C 0.15747 0.83489 0.61379 0.0
O66 O 0.15997 0.84039 0.63382 0.0
O67 O 0.16226 0.84879 0.59924 0.0
O68 O 0.14535 0.87857 0.66759 0.0
O69 O 0.14564 0.89182 0.63464 0.0
O70 O 0.62351 0.68107 0.10922 0.0
Cd71 Cd 0.63361 0.68179 0.14143 0.0
Cd72 Cd 0.66837 0.66938 0.12513 0.0
O73 O 0.65796 0.68776 0.10012 0.0
O74 O 0.62076 0.70857 0.15428 0.0
O75 O 0.65602 0.70838 0.14731 0.0
C76 C 0.63982 0.71955 0.15234 0.0
C77 C 0.70523 0.67126 0.13614 0.0
C78 C 0.63759 0.68744 0.09529 0.0
C79 C 0.63911 0.63393 0.14435 0.0
O80 O 0.65197 0.63884 0.12892 0.0
O81 O 0.63171 0.64953 0.1555 0.0
O82 O 0.69848 0.66268 0.11754 0.0
O83 O 0.69112 0.67989 0.14817 0.0
O84 O 0.82849 0.13719 0.60661 0.0
Cd85 Cd 0.85951 0.14252 0.59444 0.0
Cd86 Cd 0.87139 0.15508 0.63618 0.0
O87 O 0.83686 0.14626 0.64106 0.0
O88 O 0.85736 0.13037 0.564 0.0
O89 O 0.88003 0.11928 0.58893 0.0
C90 C 0.87323 0.11883 0.56894 0.0
C91 C 0.90488 0.13949 0.64438 0.0
C92 C 0.8224 0.14038 0.62598 0.0
C93 C 0.87712 0.18988 0.60343 0.0
O94 O 0.87791 0.18584 0.6236 0.0
O95 O 0.87074 0.17475 0.58958 0.0
O96 O 0.89596 0.1514 0.65876 0.0
O97 O 0.89356 0.13454 0.62667 0.0
O98 O 0.40087 0.33613 0.10832 0.0
Cd99 Cd 0.39018 0.33694 0.1398 0.0
Cd100 Cd 0.35712 0.34979 0.12092 0.0
O101 O 0.36669 0.32992 0.09623 0.0
O102 O 0.40264 0.31065 0.15351 0.0
O103 O 0.36759 0.31062 0.14395 0.0
C104 C 0.3836 0.29963 0.15016 0.0
C105 C 0.32195 0.34971 0.13421 0.0
C106 C 0.38717 0.3297 0.09309 0.0
C107 C 0.38592 0.38533 0.1419 0.0
O108 O 0.37444 0.38003 0.12478 0.0
O109 O 0.39177 0.36998 0.15405 0.0
O110 O 0.32632 0.35606 0.11479 0.0
O111 O 0.33723 0.34166 0.14549 0.0
O112 O 0.40096 0.05642 0.13618 0.0
Cd113 Cd 0.40914 0.08822 0.14721 0.0
Cd114 Cd 0.38253 0.09721 0.11594 0.0
O115 O 0.37023 0.06304 0.11918 0.0
O116 O 0.42732 0.08637 0.17425 0.0
O117 O 0.39448 0.09881 0.17383 0.0
C118 C 0.41187 0.09463 0.18464 0.0
C119 C 0.37212 0.13256 0.1271 0.0
C120 C 0.38311 0.04923 0.12628 0.0
C121 C 0.42788 0.10968 0.10812 0.0
O122 O 0.41068 0.10152 0.09779 0.0
O123 O 0.42903 0.10894 0.12871 0.0
O124 O 0.36448 0.12297 0.10909 0.0
O125 O 0.38339 0.12112 0.13977 0.0
O126 O 0.39389 0.89468 0.65254 0.0
Cd127 Cd 0.42703 0.90375 0.65514 0.0
Cd128 Cd 0.42864 0.86483 0.63971 0.0
O129 O 0.39519 0.86741 0.62887 0.0
O130 O 0.4272 0.9354 0.66247 0.0
O131 O 0.4394 0.92311 0.63138 0.0
C132 C 0.43457 0.93943 0.6434 0.0
C133 C 0.46412 0.86558 0.62424 0.0
C134 C 0.3839 0.88056 0.63945 0.0
C135 C 0.43877 0.87194 0.68653 0.0
O136 O 0.43037 0.85803 0.67228 0.0
O137 O 0.4429 0.89188 0.68152 0.0
O138 O 0.45104 0.84763 0.62431 0.0
O139 O 0.4561 0.88337 0.63059 0.0
O140 O 0.621 0.96208 0.13913 0.0
Cd141 Cd 0.61345 0.9309 0.1504 0.0
Cd142 Cd 0.63825 0.92016 0.11903 0.0
O143 O 0.65069 0.95451 0.12192 0.0
O144 O 0.59654 0.93453 0.17726 0.0
O145 O 0.62927 0.92188 0.17728 0.0
C146 C 0.6124 0.92684 0.18789 0.0
C147 C 0.64943 0.88551 0.13022 0.0
C148 C 0.63821 0.96871 0.12902 0.0
C149 C 0.59248 0.90712 0.11149 0.0
O150 O 0.60905 0.91474 0.10104 0.0
O151 O 0.59255 0.90905 0.13207 0.0
O152 O 0.65597 0.89411 0.11215 0.0
O153 O 0.63889 0.89764 0.14295 0.0
O154 O 0.64542 0.12709 0.64574 0.0
Cd155 Cd 0.61229 0.11738 0.64501 0.0
Cd156 Cd 0.61023 0.1575 0.63641 0.0
O157 O 0.6435 0.1562 0.62591 0.0
O158 O 0.61193 0.08522 0.64755 0.0
O159 O 0.60118 0.10067 0.61749 0.0
C160 C 0.60538 0.08324 0.6275 0.0
C161 C 0.57453 0.15956 0.62064 0.0
C162 C 0.65513 0.14245 0.63504 0.0
C163 C 0.59989 0.14484 0.68089 0.0
O164 O 0.60877 0.16032 0.66973 0.0
O165 O 0.5957 0.12584 0.67219 0.0
O166 O 0.58815 0.17698 0.62377 0.0
O167 O 0.58217 0.14089 0.62387 0.0
O168 O 0.38374 0.84425 0.84607 0.0
Cd169 Cd 0.37201 0.84214 0.87714 0.0
Cd170 Cd 0.41332 0.83401 0.88849 0.0
O171 O 0.4178 0.83969 0.85611 0.0
O172 O 0.34956 0.86466 0.87963 0.0
O173 O 0.38227 0.86937 0.89592 0.0
C174 C 0.36419 0.87755 0.8905 0.0
C175 C 0.44458 0.84807 0.90878 0.0
C176 C 0.40375 0.84311 0.84138 0.0
C177 C 0.37902 0.79565 0.8921 0.0
O178 O 0.39892 0.80343 0.89513 0.0
O179 O 0.36458 0.80839 0.88615 0.0
O180 O 0.44412 0.83031 0.89719 0.0
O181 O 0.42657 0.85738 0.91015 0.0
O182 O 0.55946 0.91052 0.39749 0.0
Cd183 Cd 0.591 0.91765 0.38673 0.0
Cd184 Cd 0.60097 0.89515 0.42024 0.0
O185 O 0.56673 0.88244 0.41721 0.0
O186 O 0.58781 0.93301 0.3589 0.0
O187 O 0.60085 0.90065 0.36096 0.0
C188 C 0.59595 0.91681 0.34934 0.0
C189 C 0.63581 0.88324 0.41078 0.0
C190 C 0.55262 0.89415 0.40864 0.0
C191 C 0.61416 0.94101 0.42493 0.0
O192 O 0.60625 0.92533 0.43635 0.0
O193 O 0.61252 0.93955 0.40433 0.0
O194 O 0.62681 0.87796 0.42903 0.0
O195 O 0.62394 0.89283 0.39698 0.0
O196 O 0.641 0.16607 0.8491 0.0
Cd197 Cd 0.65059 0.16971 0.88139 0.0
Cd198 Cd 0.60872 0.17722 0.88767 0.0
O199 O 0.60589 0.16816 0.85526 0.0
O200 O 0.67261 0.14726 0.88677 0.0
O201 O 0.63885 0.14347 0.89899 0.0
C202 C 0.65716 0.13495 0.89585 0.0
C203 C 0.5775 0.16486 0.90678 0.0
C204 C 0.62116 0.1652 0.84219 0.0
C205 C 0.64202 0.21667 0.89426 0.0
O206 O 0.62206 0.20869 0.8942 0.0
O207 O 0.65718 0.20386 0.8911 0.0
O208 O 0.57754 0.18077 0.89356 0.0
O209 O 0.59571 0.15623 0.91001 0.0
O210 O 0.47347 0.13086 0.39397 0.0
Cd211 Cd 0.44178 0.1216 0.38317 0.0
Cd212 Cd 0.43192 0.14785 0.41488 0.0
O213 O 0.4661 0.16048 0.41238 0.0
O214 O 0.44438 0.10382 0.35605 0.0
O215 O 0.43002 0.13562 0.35669 0.0
C216 C 0.43512 0.11869 0.34578 0.0
C217 C 0.39686 0.15892 0.40416 0.0
C218 C 0.48024 0.14833 0.40463 0.0
C219 C 0.42054 0.1019 0.4221 0.0
O220 O 0.42691 0.11957 0.43255 0.0
O221 O 0.42247 0.10052 0.40165 0.0
O222 O 0.40652 0.16594 0.42234 0.0
O223 O 0.40818 0.14796 0.39105 0.0
O224 O 0.10817 0.43842 0.18552 0.0
Cd225 Cd 0.11971 0.40845 0.19003 0.0
Cd226 Cd 0.15397 0.42978 0.17459 0.0
O227 O 0.1408 0.45704 0.1871 0.0
O228 O 0.10624 0.39571 0.21801 0.0
O229 O 0.14091 0.40894 0.21631 0.0
C230 C 0.1249 0.40129 0.22812 0.0
C231 C 0.18848 0.41746 0.17999 0.0
C232 C 0.1199 0.45673 0.18601 0.0
C233 C 0.12709 0.40224 0.14196 0.0
O234 O 0.13971 0.41973 0.14533 0.0
O235 O 0.11948 0.39149 0.15838 0.0
O236 O 0.18632 0.43535 0.16978 0.0
O237 O 0.17126 0.40765 0.18854 0.0
O238 O 0.10517 0.60033 0.78288 0.0
Cd239 Cd 0.11327 0.58561 0.8114 0.0
Cd240 Cd 0.12622 0.62839 0.82663 0.0
O241 O 0.11733 0.63448 0.79314 0.0
O242 O 0.09854 0.55524 0.81499 0.0
O243 O 0.09459 0.58322 0.83739 0.0
C244 C 0.09156 0.56245 0.83324 0.0
C245 C 0.11439 0.63878 0.86215 0.0
C246 C 0.10967 0.62042 0.77825 0.0
C247 C 0.16076 0.59626 0.82434 0.0
O248 O 0.15607 0.61546 0.82939 0.0
O249 O 0.14605 0.58203 0.81645 0.0
O250 O 0.12792 0.65182 0.85148 0.0
O251 O 0.10567 0.62151 0.85171 0.0
O252 O 0.89766 0.66702 0.4552 0.0
Cd253 Cd 0.90249 0.63436 0.45328 0.0
Cd254 Cd 0.94163 0.6508 0.44501 0.0
O255 O 0.93268 0.67879 0.46048 0.0
O256 O 0.88328 0.61972 0.47667 0.0
O257 O 0.91937 0.62556 0.48018 0.0
C258 C 0.90077 0.61976 0.48903 0.0
C259 C 0.97345 0.63316 0.44839 0.0
C260 C 0.91251 0.68247 0.46008 0.0
C261 C 0.91566 0.63269 0.40617 0.0
O262 O 0.93074 0.6469 0.41336 0.0
O263 O 0.90292 0.62248 0.41977 0.0
O264 O 0.97408 0.65313 0.44205 0.0
O265 O 0.95515 0.62431 0.45575 0.0
O266 O 0.90992 0.42929 0.76608 0.0
Cd267 Cd 0.90097 0.44177 0.7958 0.0
Cd268 Cd 0.8935 0.39789 0.80685 0.0
O269 O 0.90308 0.394 0.7734 0.0
O270 O 0.91144 0.47356 0.80094 0.0
O271 O 0.92096 0.44712 0.82192 0.0
C272 C 0.92068 0.46777 0.81874 0.0
C273 C 0.90744 0.38951 0.84222 0.0
C274 C 0.9084 0.4092 0.75981 0.0
C275 C 0.85482 0.4248 0.80697 0.0
O276 O 0.86178 0.40615 0.80961 0.0
O277 O 0.86781 0.44093 0.80121 0.0
O278 O 0.89599 0.37467 0.83025 0.0
O279 O 0.9132 0.40781 0.83308 0.0
O280 O 0.11294 0.39936 0.47634 0.0
Cd281 Cd 0.10734 0.38515 0.44609 0.0
Cd282 Cd 0.1284 0.42047 0.432 0.0
O283 O 0.14184 0.4202 0.4653 0.0
O284 O 0.10335 0.35228 0.4468 0.0
O285 O 0.1334 0.37124 0.43535 0.0
C286 C 0.12288 0.35252 0.4391 0.0
C287 C 0.13889 0.41495 0.3949 0.0
C288 C 0.13012 0.41218 0.48093 0.0
C289 C 0.08195 0.41757 0.42409 0.0
O290 O 0.09782 0.43143 0.4302 0.0
O291 O 0.08363 0.39717 0.42621 0.0
O292 O 0.14423 0.43345 0.40528 0.0
O293 O 0.13025 0.39908 0.40624 0.0
O294 O 0.89402 0.60693 0.23262 0.0
Cd295 Cd 0.88439 0.5992 0.20104 0.0
Cd296 Cd 0.90254 0.64183 0.19259 0.0
O297 O 0.91342 0.63863 0.22623 0.0
O298 O 0.8814 0.56673 0.19335 0.0
O299 O 0.90841 0.59024 0.18273 0.0
C300 C 0.89892 0.57061 0.18215 0.0
C301 C 0.91786 0.64399 0.15681 0.0
C302 C 0.90638 0.6237 0.23954 0.0
C303 C 0.85413 0.63322 0.18734 0.0
O304 O 0.87026 0.64773 0.19042 0.0
O305 O 0.8568 0.61293 0.18889 0.0
O306 O 0.91837 0.66131 0.16939 0.0
O307 O 0.9109 0.62573 0.16528 0.0
O308 O 0.9307 0.38736 0.51078 0.0
Cd309 Cd 0.93823 0.37642 0.54085 0.0
Cd310 Cd 0.91583 0.4083 0.55629 0.0
O311 O 0.90279 0.40433 0.52272 0.0
O312 O 0.9448 0.34493 0.5403 0.0
O313 O 0.91459 0.35655 0.5538 0.0
C314 C 0.92636 0.3406 0.54994 0.0
C315 C 0.90489 0.4013 0.593 0.0
C316 C 0.91383 0.39734 0.50676 0.0
C317 C 0.96262 0.41564 0.56363 0.0
O318 O 0.94604 0.42601 0.55946 0.0
O319 O 0.9618 0.39511 0.55959 0.0
O320 O 0.89819 0.41769 0.58262 0.0
O321 O 0.91504 0.38759 0.58173 0.0
O322 O 0.08789 0.63419 0.52873 0.0
Cd323 Cd 0.08083 0.64646 0.55837 0.0
Cd324 Cd 0.1063 0.61842 0.57474 0.0
O325 O 0.11894 0.62334 0.54188 0.0
O326 O 0.07482 0.67811 0.55869 0.0
O327 O 0.10587 0.66623 0.57081 0.0
C328 C 0.09425 0.68236 0.56751 0.0
C329 C 0.11646 0.62685 0.61236 0.0
C330 C 0.10653 0.62735 0.52543 0.0
C331 C 0.06077 0.60709 0.58091 0.0
O332 O 0.07781 0.59797 0.57586 0.0
O333 O 0.0599 0.62743 0.57764 0.0
O334 O 0.1247 0.61115 0.60176 0.0
O335 O 0.10502 0.6393 0.60102 0.0
O336 O 0.96235 0.87137 0.62718 0.0
Cd337 Cd 0.9304 0.86421 0.61793 0.0
Cd338 Cd 0.92058 0.88407 0.65455 0.0
O339 O 0.95507 0.89685 0.65125 0.0
O340 O 0.92553 0.85878 0.58562 0.0
O341 O 0.91805 0.88905 0.603 0.0
C342 C 0.91755 0.87756 0.58521 0.0
C343 C 0.88375 0.89367 0.64741 0.0
C344 C 0.9692 0.88663 0.64072 0.0
C345 C 0.91346 0.83705 0.65531 0.0
O346 O 0.91864 0.85383 0.66755 0.0
O347 O 0.91391 0.8386 0.63465 0.0
O348 O 0.8945 0.90072 0.66504 0.0
O349 O 0.89434 0.88295 0.63364 0.0
O350 O 0.61332 0.43145 0.10071 0.0
Cd351 Cd 0.62248 0.43072 0.13343 0.0
Cd352 Cd 0.66057 0.42481 0.11337 0.0
O353 O 0.64574 0.44911 0.09781 0.0
O354 O 0.60737 0.45455 0.14926 0.0
O355 O 0.64287 0.45792 0.14277 0.0
C356 C 0.62578 0.46698 0.14925 0.0
C357 C 0.69713 0.4242 0.1034 0.0
C358 C 0.62641 0.44433 0.0902 0.0
C359 C 0.63407 0.38507 0.13182 0.0
O360 O 0.64591 0.39305 0.11668 0.0
O361 O 0.625 0.39812 0.14466 0.0
O362 O 0.68101 0.41839 0.09006 0.0
O363 O 0.69257 0.43067 0.12277 0.0
O364 O 0.07497 0.1455 0.61176 0.0
Cd365 Cd 0.10568 0.15288 0.60011 0.0
Cd366 Cd 0.11904 0.1458 0.64109 0.0
O367 O 0.08512 0.13151 0.64281 0.0
O368 O 0.10485 0.15116 0.56742 0.0
O369 O 0.12151 0.1284 0.58791 0.0
C370 C 0.11686 0.13501 0.56883 0.0
C371 C 0.1557 0.13523 0.63828 0.0
C372 C 0.0698 0.13631 0.62948 0.0
C373 C 0.12243 0.19183 0.62811 0.0
O374 O 0.1207 0.17914 0.64415 0.0
O375 O 0.11966 0.18416 0.60871 0.0
O376 O 0.14641 0.13575 0.65701 0.0
O377 O 0.14346 0.13832 0.62154 0.0
O378 O 0.41067 0.58586 0.10315 0.0
Cd379 Cd 0.4 0.58794 0.13487 0.0
Cd380 Cd 0.36318 0.59222 0.1134 0.0
O381 O 0.37806 0.56913 0.09576 0.0
O382 O 0.41454 0.56497 0.15211 0.0
O383 O 0.3795 0.56083 0.14188 0.0
C384 C 0.39633 0.55227 0.15007 0.0
C385 C 0.32513 0.59039 0.1078 0.0
C386 C 0.39797 0.57327 0.09071 0.0
C387 C 0.38803 0.63341 0.13231 0.0
O388 O 0.37682 0.62452 0.11622 0.0
O389 O 0.39677 0.62105 0.14592 0.0
O390 O 0.33858 0.59625 0.09279 0.0
O391 O 0.33327 0.58498 0.12624 0.0
O392 O 0.90277 0.1559 0.40979 0.0
Cd393 Cd 0.93513 0.16776 0.41231 0.0
Cd394 Cd 0.94179 0.13182 0.39195 0.0
O395 O 0.90815 0.13507 0.38099 0.0
O396 O 0.93707 0.20056 0.41503 0.0
O397 O 0.9462 0.18228 0.3856 0.0
C398 C 0.9435 0.20074 0.39515 0.0
C399 C 0.97786 0.13362 0.37709 0.0
C400 C 0.89493 0.14397 0.39376 0.0
C401 C 0.9499 0.13373 0.43934 0.0
O402 O 0.94279 0.12124 0.42338 0.0
O403 O 0.95272 0.15437 0.43683 0.0
O404 O 0.96439 0.11598 0.37483 0.0
O405 O 0.97011 0.15059 0.38568 0.0
O406 O 0.39081 0.37982 0.89509 0.0
Cd407 Cd 0.38067 0.35545 0.91577 0.0
Cd408 Cd 0.35915 0.33551 0.88164 0.0
O409 O 0.37177 0.36545 0.86638 0.0
O410 O 0.39798 0.36517 0.94258 0.0
O411 O 0.399 0.33233 0.92746 0.0
C412 C 0.40495 0.34605 0.94318 0.0
C413 C 0.36583 0.2974 0.88017 0.0
C414 C 0.38371 0.3816 0.87572 0.0
C415 C 0.33091 0.3509 0.91622 0.0
O416 O 0.33092 0.34117 0.8977 0.0
O417 O 0.34899 0.35718 0.92616 0.0
O418 O 0.35438 0.30579 0.86505 0.0
O419 O 0.37508 0.31097 0.89484 0.0
O420 O 0.12744 0.87569 0.40248 0.0
Cd421 Cd 0.09488 0.86762 0.40903 0.0
Cd422 Cd 0.09047 0.90758 0.39499 0.0
O423 O 0.12329 0.90521 0.38348 0.0
O424 O 0.09253 0.83525 0.41363 0.0
O425 O 0.07684 0.85025 0.38569 0.0
C426 C 0.08124 0.83285 0.39561 0.0
C427 C 0.05365 0.90607 0.38057 0.0
C428 C 0.13571 0.89116 0.39095 0.0
C429 C 0.08634 0.90188 0.44209 0.0
O430 O 0.09133 0.91568 0.42749 0.0
O431 O 0.08376 0.88146 0.4372 0.0
O432 O 0.06663 0.9241 0.38045 0.0
O433 O 0.06233 0.8887 0.38656 0.0
O434 O 0.641 0.63314 0.89363 0.0
Cd435 Cd 0.65232 0.66062 0.91158 0.0
Cd436 Cd 0.66312 0.6775 0.87352 0.0
O437 O 0.64796 0.64614 0.86111 0.0
O438 O 0.64258 0.65123 0.94065 0.0
O439 O 0.63216 0.68097 0.9256 0.0
C440 C 0.63164 0.66809 0.94187 0.0
C441 C 0.65426 0.7149 0.87514 0.0
C442 C 0.64118 0.63016 0.87318 0.0
C443 C 0.70069 0.66979 0.90261 0.0
O444 O 0.69516 0.67475 0.88343 0.0
O445 O 0.68603 0.66507 0.91654 0.0
O446 O 0.66187 0.7065 0.85765 0.0
O447 O 0.64964 0.70155 0.89072 0.0
O448 O 0.67118 0.92099 0.85247 0.0
Cd449 Cd 0.66277 0.92062 0.88448 0.0
Cd450 Cd 0.62484 0.92923 0.86946 0.0
O451 O 0.63634 0.91356 0.8425 0.0
O452 O 0.67721 0.8947 0.89759 0.0
O453 O 0.64213 0.89283 0.88806 0.0
C454 C 0.65874 0.88268 0.89408 0.0
C455 C 0.59079 0.91862 0.88418 0.0
C456 C 0.65664 0.91463 0.83797 0.0
C457 C 0.65153 0.96796 0.88881 0.0
O458 O 0.63676 0.96119 0.8747 0.0
O459 O 0.66246 0.95379 0.89838 0.0
O460 O 0.5922 0.92817 0.86571 0.0
O461 O 0.60876 0.91492 0.89423 0.0
O462 O 0.71636 0.12137 0.37995 0.0
Cd463 Cd 0.68306 0.11756 0.37337 0.0
Cd464 Cd 0.68134 0.13887 0.41089 0.0
O465 O 0.71549 0.14847 0.40411 0.0
O466 O 0.67831 0.10787 0.34213 0.0
O467 O 0.6707 0.14021 0.35501 0.0
C468 C 0.671 0.12659 0.33875 0.0
C469 C 0.64722 0.15513 0.40944 0.0
C470 C 0.72657 0.1363 0.39208 0.0
C471 C 0.66592 0.09268 0.41143 0.0
O472 O 0.67604 0.10788 0.42326 0.0
O473 O 0.66417 0.09489 0.39096 0.0
O474 O 0.66029 0.15799 0.4264 0.0
O475 O 0.65463 0.14529 0.39277 0.0
O476 O 0.35113 0.09143 0.84649 0.0
Cd477 Cd 0.35715 0.0916 0.87953 0.0
Cd478 Cd 0.39615 0.08258 0.86911 0.0
O479 O 0.3867 0.09773 0.84136 0.0
O480 O 0.34221 0.11769 0.89208 0.0
O481 O 0.37779 0.11914 0.88663 0.0
C482 C 0.36094 0.12951 0.8911 0.0
C483 C 0.43048 0.09299 0.88539 0.0
C484 C 0.36695 0.09735 0.83421 0.0
C485 C 0.36801 0.04429 0.88462 0.0
O486 O 0.38391 0.05075 0.8727 0.0
O487 O 0.35619 0.05865 0.89271 0.0
O488 O 0.42854 0.08213 0.86711 0.0
O489 O 0.41279 0.098 0.89455 0.0
O490 O 0.31283 0.91091 0.37677 0.0
Cd491 Cd 0.34576 0.91848 0.37131 0.0
Cd492 Cd 0.35087 0.90326 0.41169 0.0
O493 O 0.31642 0.89217 0.40672 0.0
O494 O 0.34842 0.92463 0.33956 0.0
O495 O 0.36128 0.89609 0.35498 0.0
C496 C 0.35844 0.90712 0.33774 0.0
C497 C 0.38532 0.88755 0.4119 0.0
C498 C 0.30411 0.8993 0.39173 0.0
C499 C 0.36235 0.95037 0.40756 0.0
O500 O 0.356 0.93579 0.42096 0.0
O501 O 0.36167 0.94587 0.38722 0.0
O502 O 0.3734 0.88732 0.42907 0.0
O503 O 0.37658 0.89435 0.39431 0.0
O504 O 0.61131 0.20822 0.14675 0.0
Cd505 Cd 0.60787 0.1758 0.15489 0.0
Cd506 Cd 0.62781 0.16982 0.11835 0.0
O507 O 0.63824 0.2045 0.12405 0.0
O508 O 0.60022 0.17392 0.18633 0.0
O509 O 0.63189 0.16537 0.17342 0.0
C510 C 0.6193 0.16707 0.18977 0.0
C511 C 0.64338 0.13533 0.12087 0.0
C512 C 0.62629 0.21694 0.13484 0.0
C513 C 0.5812 0.1555 0.11742 0.0
O514 O 0.59617 0.16427 0.10555 0.0
O515 O 0.58423 0.15541 0.13796 0.0
O516 O 0.64584 0.14706 0.10368 0.0
O517 O 0.63437 0.14422 0.13719 0.0
O518 O 0.40542 0.13492 0.63937 0.0
Cd519 Cd 0.37704 0.11409 0.63808 0.0
Cd520 Cd 0.36117 0.15185 0.63559 0.0
O521 O 0.39226 0.16088 0.62056 0.0
O522 O 0.39177 0.08716 0.64192 0.0
O523 O 0.37205 0.0927 0.61226 0.0
C524 C 0.38479 0.08079 0.62275 0.0
C525 C 0.32333 0.14837 0.62464 0.0
C526 C 0.40884 0.15196 0.62825 0.0
C527 C 0.35728 0.13029 0.67684 0.0
O528 O 0.36282 0.14903 0.66912 0.0
O529 O 0.35754 0.11329 0.66471 0.0
O530 O 0.33388 0.16737 0.62916 0.0
O531 O 0.33496 0.13179 0.62346 0.0
O532 O 0.41004 0.81119 0.14815 0.0
Cd533 Cd 0.41383 0.84416 0.15595 0.0
Cd534 Cd 0.39256 0.84761 0.11893 0.0
O535 O 0.38242 0.81333 0.12475 0.0
O536 O 0.42306 0.84807 0.18739 0.0
O537 O 0.39072 0.8558 0.1743 0.0
C538 C 0.40417 0.85515 0.19069 0.0
C539 C 0.37702 0.88217 0.12082 0.0
C540 C 0.39474 0.80164 0.13598 0.0
C541 C 0.43908 0.86204 0.11862 0.0
O542 O 0.42372 0.85243 0.1066 0.0
O543 O 0.43678 0.86348 0.13909 0.0
O544 O 0.37395 0.86937 0.10371 0.0
O545 O 0.38662 0.87433 0.13741 0.0
O546 O 0.63592 0.89716 0.64162 0.0
Cd547 Cd 0.66625 0.91501 0.64242 0.0
Cd548 Cd 0.67869 0.87726 0.63677 0.0
O549 O 0.64662 0.8704 0.62129 0.0
O550 O 0.65808 0.94538 0.64464 0.0
O551 O 0.67384 0.93245 0.61559 0.0
C552 C 0.6651 0.94825 0.62527 0.0
C553 C 0.71622 0.88094 0.62681 0.0
C554 C 0.63102 0.88026 0.62951 0.0
C555 C 0.68385 0.8956 0.68052 0.0
O556 O 0.67762 0.87775 0.67027 0.0
O557 O 0.68505 0.91344 0.67035 0.0
O558 O 0.70557 0.86183 0.6291 0.0
O559 O 0.70479 0.89769 0.62722 0.0
O560 O 0.89367 0.61322 0.98625 0.0
Cd561 Cd 0.88596 0.60234 0.95491 0.0
Cd562 Cd 0.90195 0.6423 0.94386 0.0
O563 O 0.91668 0.64112 0.97635 0.0
O564 O 0.88294 0.56941 0.95019 0.0
O565 O 0.91117 0.59119 0.93912 0.0
C566 C 0.90113 0.57179 0.93979 0.0
C567 C 0.91133 0.63934 0.90617 0.0
C568 C 0.90795 0.62915 0.99142 0.0
C569 C 0.85465 0.63468 0.94056 0.0
O570 O 0.87013 0.64957 0.94513 0.0
O571 O 0.85843 0.61456 0.94051 0.0
O572 O 0.91605 0.65757 0.91718 0.0
O573 O 0.90356 0.62277 0.91701 0.0
O574 O 0.90317 0.42329 0.01318 0.0
Cd575 Cd 0.89647 0.43545 0.04349 0.0
Cd576 Cd 0.89367 0.39247 0.05462 0.0
O577 O 0.90661 0.389 0.02225 0.0
O578 O 0.90279 0.4681 0.04521 0.0
O579 O 0.91962 0.44564 0.06598 0.0
C580 C 0.91576 0.46538 0.0616 0.0
C581 C 0.90598 0.3898 0.09166 0.0
C582 C 0.9069 0.40384 1.00774 0.0
C583 C 0.85221 0.41346 0.05542 0.0
O584 O 0.86037 0.39517 0.05463 0.0
O585 O 0.86428 0.43116 0.05263 0.0
O586 O 0.89922 0.3724 0.08008 0.0
O587 O 0.90834 0.408 0.08148 0.0
O588 O 0.11269 0.38811 0.7198 0.0
Cd589 Cd 0.10391 0.38199 0.68773 0.0
Cd590 Cd 0.12629 0.42168 0.68171 0.0
O591 O 0.13626 0.41729 0.71532 0.0
O592 O 0.09268 0.35031 0.6851 0.0
O593 O 0.12326 0.36423 0.67004 0.0
C594 C 0.10955 0.34743 0.67352 0.0
C595 C 0.14202 0.4203 0.64646 0.0
C596 C 0.12686 0.40284 0.7278 0.0
C597 C 0.07896 0.41929 0.67235 0.0
O598 O 0.09569 0.43244 0.67763 0.0
O599 O 0.07967 0.39869 0.67374 0.0
O600 O 0.14522 0.43782 0.6588 0.0
O601 O 0.13252 0.40306 0.65521 0.0
O602 O 0.11406 0.60487 0.03235 0.0
Cd603 Cd 0.11961 0.59293 0.06282 0.0
Cd604 Cd 0.12805 0.63635 0.07474 0.0
O605 O 0.1148 0.63998 0.04211 0.0
O606 O 0.11045 0.56065 0.06374 0.0
O607 O 0.09558 0.5853 0.08384 0.0
C608 C 0.09783 0.56501 0.07949 0.0
C609 C 0.11649 0.63869 0.11159 0.0
C610 C 0.11259 0.62471 0.02722 0.0
C611 C 0.16623 0.61093 0.0762 0.0
O612 O 0.16051 0.63028 0.07515 0.0
O613 O 0.15205 0.59447 0.07327 0.0
O614 O 0.12355 0.65624 0.10153 0.0
O615 O 0.11364 0.6208 0.09999 0.0
O616 O 0.89564 0.67103 0.70013 0.0
Cd617 Cd 0.89816 0.6378 0.70196 0.0
Cd618 Cd 0.93571 0.64982 0.68981 0.0
O619 O 0.93106 0.67819 0.70676 0.0
O620 O 0.88194 0.62766 0.72912 0.0
O621 O 0.91815 0.63174 0.72768 0.0
C622 C 0.90084 0.62837 0.73931 0.0
C623 C 0.96732 0.6317 0.69054 0.0
C624 C 0.912 0.68478 0.7052 0.0
C625 C 0.9055 0.63163 0.65462 0.0
O626 O 0.92068 0.64669 0.6595 0.0
O627 O 0.8954 0.62156 0.67013 0.0
O628 O 0.96742 0.65138 0.68354 0.0
O629 O 0.9496 0.62294 0.69911 0.0
O630 O 0.11005 0.43923 0.93849 0.0
Cd631 Cd 0.11949 0.40804 0.9403 0.0
Cd632 Cd 0.15852 0.42898 0.93169 0.0
O633 O 0.1434 0.45672 0.93989 0.0
O634 O 0.10214 0.39185 0.96437 0.0
O635 O 0.13735 0.40321 0.96782 0.0
C636 C 0.11971 0.39468 0.97674 0.0
C637 C 0.19332 0.42034 0.94316 0.0
C638 C 0.12255 0.45709 0.9391 0.0
C639 C 0.13567 0.40323 0.89403 0.0
O640 O 0.15086 0.41761 0.90063 0.0
O641 O 0.12188 0.39468 0.90767 0.0
O642 O 0.1911 0.43681 0.9309 0.0
O643 O 0.17572 0.40998 0.95041 0.0
O644 O 0.08015 0.63982 0.28311 0.0
Cd645 Cd 0.07169 0.64626 0.31441 0.0
Cd646 Cd 0.10207 0.6187 0.3249 0.0
O647 O 0.11106 0.62558 0.29145 0.0
O648 O 0.05504 0.67275 0.31558 0.0
O649 O 0.0885 0.67169 0.33004 0.0
C650 C 0.07166 0.68242 0.32652 0.0
C651 C 0.11749 0.62674 0.36058 0.0
C652 C 0.09794 0.63264 0.27707 0.0
C653 C 0.05713 0.6032 0.33491 0.0
O654 O 0.07523 0.59628 0.32952 0.0
O655 O 0.05362 0.62293 0.33152 0.0
O656 O 0.12405 0.61113 0.34853 0.0
O657 O 0.10481 0.63961 0.35125 0.0
O658 O 0.93472 0.37927 0.26583 0.0
Cd659 Cd 0.94412 0.3746 0.2974 0.0
Cd660 Cd 0.91841 0.40747 0.30662 0.0
O661 O 0.909 0.40143 0.27238 0.0
O662 O 0.95872 0.34684 0.29902 0.0
O663 O 0.92742 0.35183 0.31496 0.0
C664 C 0.94306 0.3396 0.31144 0.0
C665 C 0.90232 0.40173 0.34139 0.0
C666 C 0.91966 0.39042 0.25878 0.0
C667 C 0.96573 0.41768 0.31596 0.0
O668 O 0.94789 0.42628 0.31263 0.0
O669 O 0.9668 0.3974 0.31202 0.0
O670 O 0.89824 0.41839 0.3299 0.0
O671 O 0.91281 0.38701 0.33189 0.0
C672 C 0.1203 0.31185 0.43321 0.0
C673 C 0.13317 0.33204 0.43487 0.0
C674 C 0.13001 0.29232 0.42939 0.0
C675 C 0.15316 0.293 0.42765 0.0
C676 C 0.16622 0.31336 0.4292 0.0
C677 C 0.15603 0.33268 0.43258 0.0
C678 C 0.11549 0.27092 0.42747 0.0
C679 C 0.19097 0.31468 0.42784 0.0
C680 C 0.17551 0.23948 0.44171 0.0
C681 C 0.17812 0.2301 0.42104 0.0
C682 C 0.16861 0.26053 0.44408 0.0
C683 C 0.16367 0.27222 0.4253 0.0
C684 C 0.16726 0.26325 0.40438 0.0
C685 C 0.17471 0.24231 0.4025 0.0
C686 C 0.16554 0.26977 0.46669 0.0
C687 C 0.1619 0.27511 0.38398 0.0
H688 H 0.10262 0.31132 0.43479 0.0
H689 H 0.16607 0.34827 0.43393 0.0
H690 H 0.1187 0.26209 0.41208 0.0
H691 H 0.11938 0.26023 0.44106 0.0
H692 H 0.09771 0.27336 0.42783 0.0
H693 H 0.19868 0.33187 0.42857 0.0
H694 H 0.19783 0.3057 0.44148 0.0
H695 H 0.1957 0.30669 0.41251 0.0
H696 H 0.17826 0.23006 0.45606 0.0
H697 H 0.17651 0.23496 0.3865 0.0
H698 H 0.14775 0.27047 0.46952 0.0
H699 H 0.1736 0.28677 0.4684 0.0
H700 H 0.17239 0.2597 0.47951 0.0
H701 H 0.14383 0.27576 0.38245 0.0
H702 H 0.16752 0.26689 0.36909 0.0
H703 H 0.16958 0.29227 0.38486 0.0
C704 C 0.28669 0.5725 0.83784 0.0
C705 C 0.29145 0.56868 0.85979 0.0
C706 C 0.26503 0.57424 0.8305 0.0
C707 C 0.24777 0.57206 0.84547 0.0
C708 C 0.25224 0.5665 0.86723 0.0
C709 C 0.27405 0.56485 0.87415 0.0
C710 C 0.26087 0.57999 0.80711 0.0
C711 C 0.2342 0.56384 0.88362 0.0
C712 C 0.19979 0.60593 0.8368 0.0
C713 C 0.1833 0.59016 0.82861 0.0
C714 C 0.22089 0.60023 0.84208 0.0
C715 C 0.22564 0.5782 0.83912 0.0
C716 C 0.20923 0.56225 0.83053 0.0
C717 C 0.18822 0.56842 0.82535 0.0
C718 C 0.23803 0.61775 0.85113 0.0
C719 C 0.21375 0.53862 0.82716 0.0
H720 H 0.29999 0.57527 0.82656 0.0
H721 H 0.27754 0.5617 0.89109 0.0
H722 H 0.24658 0.56947 0.79994 0.0
H723 H 0.25685 0.59724 0.80644 0.0
H724 H 0.27541 0.57818 0.79693 0.0
H725 H 0.2399 0.55684 0.89903 0.0
H726 H 0.2284 0.58007 0.88745 0.0
H727 H 0.2199 0.55307 0.87684 0.0
H728 H 0.19616 0.62276 0.83934 0.0
H729 H 0.17557 0.55611 0.81906 0.0
H730 H 0.25275 0.61875 0.84084 0.0
H731 H 0.24342 0.61345 0.86772 0.0
H732 H 0.2318 0.63418 0.85204 0.0
H733 H 0.22822 0.53761 0.81674 0.0
H734 H 0.19948 0.52841 0.8195 0.0
H735 H 0.2178 0.53156 0.84304 0.0
C736 C 0.87593 0.80538 0.46136 0.0
C737 C 0.86746 0.80813 0.44028 0.0
C738 C 0.88331 0.78537 0.46746 0.0
C739 C 0.88249 0.76783 0.45198 0.0
C740 C 0.87361 0.7704 0.43079 0.0
C741 C 0.86603 0.79049 0.42525 0.0
C742 C 0.89227 0.78311 0.49032 0.0
C743 C 0.87262 0.7521 0.41378 0.0
C744 C 0.92081 0.72289 0.45642 0.0
C745 C 0.90617 0.70506 0.46221 0.0
C746 C 0.91353 0.74375 0.45392 0.0
C747 C 0.89122 0.74684 0.45768 0.0
C748 C 0.87684 0.72927 0.46514 0.0
C749 C 0.88444 0.70853 0.46713 0.0
C750 C 0.92933 0.76208 0.44582 0.0
C751 C 0.85309 0.73205 0.46983 0.0
H752 H 0.87698 0.81896 0.4731 0.0
H753 H 0.85961 0.79259 0.40891 0.0
H754 H 0.88337 0.76879 0.49805 0.0
H755 H 0.90987 0.78008 0.48986 0.0
H756 H 0.8908 0.79798 0.50068 0.0
H757 H 0.86519 0.75672 0.39809 0.0
H758 H 0.88946 0.74752 0.4108 0.0
H759 H 0.86284 0.73732 0.41969 0.0
H760 H 0.93758 0.72026 0.45249 0.0
H761 H 0.87313 0.6948 0.47179 0.0
H762 H 0.92898 0.77705 0.45626 0.0
H763 H 0.92421 0.76625 0.42911 0.0
H764 H 0.94651 0.75756 0.44547 0.0
H765 H 0.85191 0.74693 0.48022 0.0
H766 H 0.84489 0.71764 0.47806 0.0
H767 H 0.84395 0.73426 0.45435 0.0
C768 C 0.81772 0.41079 0.81993 0.0
C769 C 0.83192 0.42824 0.8125 0.0
C770 C 0.79682 0.41423 0.82746 0.0
C771 C 0.78993 0.43564 0.82755 0.0
C772 C 0.80383 0.4532 0.8194 0.0
C773 C 0.82468 0.4493 0.81196 0.0
C774 C 0.78237 0.39505 0.83595 0.0
C775 C 0.79696 0.47622 0.81917 0.0
C776 C 0.72858 0.43781 0.83327 0.0
C777 C 0.72701 0.4411 0.85584 0.0
C778 C 0.74908 0.43703 0.82364 0.0
C779 C 0.76844 0.43959 0.83691 0.0
C780 C 0.76707 0.44415 0.8595 0.0
C781 C 0.74634 0.44489 0.8687 0.0
C782 C 0.74992 0.43232 0.79946 0.0
C783 C 0.78741 0.44709 0.87414 0.0
H784 H 0.82313 0.39447 0.82038 0.0
H785 H 0.83553 0.4629 0.80625 0.0
H786 H 0.77938 0.39789 0.85347 0.0
H787 H 0.76613 0.39347 0.82727 0.0
H788 H 0.78984 0.37931 0.834 0.0
H789 H 0.80906 0.48777 0.81098 0.0
H790 H 0.78069 0.47632 0.81075 0.0
H791 H 0.79517 0.48233 0.83611 0.0
H792 H 0.71373 0.43504 0.82316 0.0
H793 H 0.7453 0.44753 0.88613 0.0
H794 H 0.75524 0.41571 0.7966 0.0
H795 H 0.76215 0.44419 0.79191 0.0
H796 H 0.73367 0.43307 0.79112 0.0
H797 H 0.79495 0.43136 0.87495 0.0
H798 H 0.7837 0.45242 0.89095 0.0
H799 H 0.79982 0.45938 0.86744 0.0
C800 C 0.08972 0.72225 0.57345 0.0
C801 C 0.10311 0.70493 0.574 0.0
C802 C 0.09806 0.74358 0.58014 0.0
C803 C 0.12032 0.74762 0.58734 0.0
C804 C 0.13392 0.73022 0.58779 0.0
C805 C 0.12513 0.70908 0.5812 0.0
C806 C 0.08306 0.76177 0.57959 0.0
C807 C 0.1578 0.73394 0.59517 0.0
C808 C 0.14842 0.80543 0.5853 0.0
C809 C 0.14827 0.81241 0.6072 0.0
C810 C 0.13927 0.78442 0.57861 0.0
C811 C 0.12957 0.7701 0.59415 0.0
C812 C 0.12928 0.77704 0.61627 0.0
C813 C 0.13874 0.7981 0.62256 0.0
C814 C 0.1401 0.77749 0.55491 0.0
C815 C 0.11896 0.76221 0.63327 0.0
H816 H 0.07267 0.71912 0.56799 0.0
H817 H 0.13561 0.69577 0.58163 0.0
H818 H 0.08227 0.76938 0.59609 0.0
H819 H 0.08974 0.77482 0.56869 0.0
H820 H 0.06609 0.75586 0.57385 0.0
H821 H 0.16617 0.71863 0.59448 0.0
H822 H 0.16674 0.74622 0.5848 0.0
H823 H 0.15907 0.74064 0.61213 0.0
H824 H 0.15578 0.81637 0.57333 0.0
H825 H 0.13842 0.80342 0.63949 0.0
H826 H 0.12321 0.77283 0.54826 0.0
H827 H 0.14933 0.76282 0.5533 0.0
H828 H 0.14809 0.79066 0.54485 0.0
H829 H 0.10151 0.75708 0.62866 0.0
H830 H 0.11961 0.77028 0.64968 0.0
H831 H 0.12756 0.7471 0.63418 0.0
C832 C 0.74358 0.66248 0.12963 0.0
C833 C 0.728 0.66937 0.14403 0.0
C834 C 0.76442 0.65785 0.13718 0.0
C835 C 0.76972 0.65996 0.15971 0.0
C836 C 0.75436 0.66763 0.17425 0.0
C837 C 0.73367 0.67236 0.16621 0.0
C838 C 0.78049 0.65002 0.12112 0.0
C839 C 0.75945 0.67002 0.1984 0.0
C840 C 0.81358 0.62491 0.17995 0.0
C841 C 0.83227 0.64014 0.18125 0.0
C842 C 0.79298 0.63128 0.17349 0.0
C843 C 0.79109 0.65336 0.16804 0.0
C844 C 0.8098 0.66888 0.16961 0.0
C845 C 0.83013 0.66211 0.17627 0.0
C846 C 0.77332 0.6143 0.17214 0.0
C847 C 0.80844 0.69252 0.16376 0.0
H848 H 0.73932 0.66024 0.11244 0.0
H849 H 0.72165 0.67757 0.17742 0.0
H850 H 0.79646 0.66029 0.12275 0.0
H851 H 0.78369 0.63292 0.12464 0.0
H852 H 0.7743 0.6505 0.10401 0.0
H853 H 0.74623 0.67733 0.20735 0.0
H854 H 0.76154 0.65368 0.20512 0.0
H855 H 0.77516 0.68043 0.20147 0.0
H856 H 0.81505 0.60795 0.18386 0.0
H857 H 0.84447 0.67402 0.17718 0.0
H858 H 0.76708 0.61223 0.15505 0.0
H859 H 0.75979 0.61986 0.18197 0.0
H860 H 0.77731 0.5981 0.17798 0.0
H861 H 0.80362 0.69342 0.14631 0.0
H862 H 0.82433 0.70273 0.16673 0.0
H863 H 0.79559 0.69967 0.17334 0.0
C864 C 0.89479 0.22821 0.61 0.0
C865 C 0.88409 0.21215 0.59577 0.0
C866 C 0.90205 0.24911 0.60261 0.0
C867 C 0.89833 0.25409 0.58053 0.0
C868 C 0.8874 0.23802 0.56614 0.0
C869 C 0.88049 0.21723 0.57391 0.0
C870 C 0.91376 0.26584 0.61839 0.0
C871 C 0.88295 0.2428 0.54254 0.0
C872 C 0.89821 0.31384 0.56593 0.0
C873 C 0.9191 0.31825 0.55709 0.0
C874 C 0.89125 0.29302 0.57359 0.0
C875 C 0.90557 0.27623 0.5725 0.0
C876 C 0.92666 0.28053 0.56355 0.0
C877 C 0.93315 0.3015 0.55586 0.0
C878 C 0.86857 0.28899 0.58285 0.0
C879 C 0.9424 0.26302 0.56224 0.0
H880 H 0.89773 0.22438 0.62688 0.0
H881 H 0.87218 0.20495 0.56279 0.0
H882 H 0.93034 0.2713 0.6124 0.0
H883 H 0.90453 0.28054 0.61954 0.0
H884 H 0.91561 0.25929 0.63495 0.0
H885 H 0.87422 0.2285 0.53348 0.0
H886 H 0.87284 0.25685 0.5414 0.0
H887 H 0.89867 0.24754 0.53442 0.0
H888 H 0.88725 0.32671 0.56694 0.0
H889 H 0.94935 0.30484 0.54915 0.0
H890 H 0.86986 0.28387 0.59998 0.0
H891 H 0.85888 0.27544 0.57358 0.0
H892 H 0.85938 0.30377 0.58238 0.0
H893 H 0.94581 0.25704 0.57876 0.0
H894 H 0.95827 0.26906 0.55498 0.0
H895 H 0.93485 0.24877 0.55231 0.0
C896 C 0.28284 0.35765 0.13074 0.0
C897 C 0.30111 0.35449 0.14408 0.0
C898 C 0.26435 0.3663 0.13933 0.0
C899 C 0.2644 0.37241 0.1617 0.0
C900 C 0.28236 0.36826 0.17546 0.0
C901 C 0.30046 0.35911 0.1665 0.0
C902 C 0.24525 0.36992 0.12421 0.0
C903 C 0.28313 0.3748 0.19932 0.0
C904 C 0.22856 0.41846 0.17231 0.0
C905 C 0.20922 0.40689 0.17934 0.0
C906 C 0.24722 0.40758 0.16788 0.0
C907 C 0.2463 0.38455 0.17013 0.0
C908 C 0.22724 0.373 0.17839 0.0
C909 C 0.20898 0.38437 0.1831 0.0
C910 C 0.26749 0.42056 0.15963 0.0
C911 C 0.22552 0.34843 0.18079 0.0
H912 H 0.28329 0.35401 0.11341 0.0
H913 H 0.31468 0.35692 0.17682 0.0
H914 H 0.22953 0.36304 0.13114 0.0
H915 H 0.24429 0.38778 0.12236 0.0
H916 H 0.24684 0.36231 0.10781 0.0
H917 H 0.29697 0.36819 0.20826 0.0
H918 H 0.28516 0.39296 0.20107 0.0
H919 H 0.2675 0.36901 0.20709 0.0
H920 H 0.22888 0.43589 0.16952 0.0
H921 H 0.19404 0.37529 0.18847 0.0
H922 H 0.26949 0.41631 0.14219 0.0
H923 H 0.28242 0.41635 0.16862 0.0
H924 H 0.26652 0.43854 0.16128 0.0
H925 H 0.22454 0.34033 0.1644 0.0
H926 H 0.21075 0.34232 0.18986 0.0
H927 H 0.24037 0.34341 0.18931 0.0
C928 C 0.39574 0.10128 0.22082 0.0
C929 C 0.41429 0.09947 0.20817 0.0
C930 C 0.39796 0.10525 0.24337 0.0
C931 C 0.41926 0.10795 0.25325 0.0
C932 C 0.43806 0.10683 0.2404 0.0
C933 C 0.43532 0.10233 0.21802 0.0
C934 C 0.37756 0.10592 0.25668 0.0
C935 C 0.46105 0.11008 0.25033 0.0
C936 C 0.42776 0.13443 0.30959 0.0
C937 C 0.43025 0.1161 0.32227 0.0
C938 C 0.42391 0.13205 0.28703 0.0
C939 C 0.422 0.11081 0.27718 0.0
C940 C 0.42378 0.09221 0.29007 0.0
C941 C 0.42816 0.09512 0.31245 0.0
C942 C 0.42253 0.15226 0.27367 0.0
C943 C 0.42136 0.06926 0.28017 0.0
H944 H 0.37946 0.09904 0.21318 0.0
H945 H 0.4497 0.10122 0.20819 0.0
H946 H 0.3767 0.09243 0.26845 0.0
H947 H 0.37827 0.12155 0.26626 0.0
H948 H 0.36225 0.10424 0.2464 0.0
H949 H 0.47391 0.11022 0.23784 0.0
H950 H 0.46338 0.12578 0.25987 0.0
H951 H 0.46352 0.09673 0.26174 0.0
H952 H 0.42942 0.15067 0.31721 0.0
H953 H 0.4298 0.0809 0.32231 0.0
H954 H 0.40687 0.15097 0.26402 0.0
H955 H 0.43612 0.15361 0.26196 0.0
H956 H 0.42362 0.16752 0.28393 0.0
H957 H 0.40567 0.06638 0.27059 0.0
H958 H 0.42165 0.05651 0.29269 0.0
H959 H 0.43492 0.06728 0.26882 0.0
C960 C 0.43316 0.84434 0.7156 0.0
C961 C 0.44001 0.86583 0.70961 0.0
C962 C 0.42959 0.83936 0.73744 0.0
C963 C 0.43294 0.85629 0.75357 0.0
C964 C 0.44152 0.87759 0.74784 0.0
C965 C 0.44504 0.8821 0.7259 0.0
C966 C 0.42077 0.81636 0.74302 0.0
C967 C 0.44546 0.89603 0.76465 0.0
C968 C 0.39655 0.85239 0.80264 0.0
C969 C 0.41101 0.84596 0.81877 0.0
C970 C 0.4035 0.85567 0.78131 0.0
C971 C 0.4254 0.85232 0.77599 0.0
C972 C 0.44001 0.84558 0.7921 0.0
C973 C 0.43265 0.84254 0.81334 0.0
C974 C 0.38749 0.86297 0.7645 0.0
C975 C 0.46341 0.84173 0.78695 0.0
H976 H 0.42945 0.83162 0.70313 0.0
H977 H 0.4505 0.89871 0.72144 0.0
H978 H 0.42994 0.81064 0.75725 0.0
H979 H 0.40327 0.81623 0.74752 0.0
H980 H 0.42181 0.80454 0.72917 0.0
H981 H 0.45447 0.9109 0.75796 0.0
H982 H 0.42942 0.90047 0.77063 0.0
H983 H 0.45496 0.89079 0.77888 0.0
H984 H 0.37983 0.8551 0.80672 0.0
H985 H 0.44393 0.83748 0.82569 0.0
H986 H 0.38555 0.85097 0.75062 0.0
H987 H 0.39398 0.87898 0.75799 0.0
H988 H 0.37101 0.86469 0.77125 0.0
H989 H 0.46353 0.82937 0.77348 0.0
H990 H 0.47251 0.83596 0.80123 0.0
H991 H 0.47235 0.85712 0.78137 0.0
C992 C 0.6301 0.92256 0.22436 0.0
C993 C 0.61101 0.9236 0.21147 0.0
C994 C 0.62885 0.92038 0.24697 0.0
C995 C 0.60799 0.91872 0.2567 0.0
C996 C 0.58865 0.91897 0.24362 0.0
C997 C 0.59041 0.92167 0.22117 0.0
C998 C 0.64983 0.92058 0.26051 0.0
C999 C 0.56609 0.9168 0.25339 0.0
C1000 C 0.60156 0.89758 0.31392 0.0
C1001 C 0.59987 0.91712 0.32581 0.0
C1002 C 0.60453 0.89781 0.29136 0.0
C1003 C 0.60632 0.9181 0.28069 0.0
C1004 C 0.60534 0.93791 0.29278 0.0
C1005 C 0.60187 0.93715 0.31518 0.0
C1006 C 0.60508 0.87636 0.27886 0.0
C1007 C 0.60763 0.95989 0.28202 0.0
H1008 H 0.64604 0.92407 0.21684 0.0
H1009 H 0.57561 0.92218 0.21117 0.0
H1010 H 0.65153 0.9352 0.27166 0.0
H1011 H 0.64928 0.90591 0.27077 0.0
H1012 H 0.66465 0.92096 0.25033 0.0
H1013 H 0.55267 0.9156 0.24076 0.0
H1014 H 0.56408 0.90203 0.26351 0.0
H1015 H 0.56423 0.93123 0.2642 0.0
H1016 H 0.59999 0.88208 0.32215 0.0
H1017 H 0.60086 0.9523 0.32441 0.0
H1018 H 0.62028 0.8766 0.26931 0.0
H1019 H 0.59093 0.87405 0.26709 0.0
H1020 H 0.60435 0.86209 0.28971 0.0
H1021 H 0.62291 0.96168 0.27254 0.0
H1022 H 0.60807 0.97381 0.294 0.0
H1023 H 0.5936 0.961 0.27043 0.0
C1024 C 0.59417 0.16272 0.81079 0.0
C1025 C 0.61572 0.16132 0.81876 0.0
C1026 C 0.5889 0.1599 0.78852 0.0
C1027 C 0.60555 0.1555 0.77392 0.0
C1028 C 0.62724 0.15368 0.78188 0.0
C1029 C 0.63208 0.15667 0.80421 0.0
C1030 C 0.56562 0.16199 0.78057 0.0
C1031 C 0.64541 0.14884 0.76675 0.0
C1032 C 0.59272 0.13003 0.71781 0.0
C1033 C 0.59745 0.14813 0.70457 0.0
C1034 C 0.59429 0.13234 0.74055 0.0
C1035 C 0.60059 0.15326 0.7502 0.0
C1036 C 0.60392 0.17182 0.73699 0.0
C1037 C 0.60235 0.16902 0.7143 0.0
C1038 C 0.59053 0.11219 0.75415 0.0
C1039 C 0.61037 0.19445 0.74675 0.0
H1040 H 0.58141 0.16631 0.82192 0.0
H1041 H 0.64874 0.15548 0.81024 0.0
H1042 H 0.56545 0.17588 0.76933 0.0
H1043 H 0.55905 0.14695 0.77126 0.0
H1044 H 0.55442 0.16477 0.79413 0.0
H1045 H 0.66124 0.14735 0.77562 0.0
H1046 H 0.64067 0.13334 0.75737 0.0
H1047 H 0.648 0.16211 0.75485 0.0
H1048 H 0.58885 0.11382 0.71043 0.0
H1049 H 0.60584 0.18312 0.70418 0.0
H1050 H 0.5793 0.11512 0.7676 0.0
H1051 H 0.60641 0.10845 0.76165 0.0
H1052 H 0.58348 0.0976 0.74436 0.0
H1053 H 0.59909 0.19816 0.75994 0.0
H1054 H 0.61016 0.20741 0.73444 0.0
H1055 H 0.6272 0.19513 0.75411 0.0
C1056 C 0.90578 0.81379 0.68766 0.0
C1057 C 0.90854 0.8154 0.66512 0.0
C1058 C 0.9037 0.7933 0.69751 0.0
C1059 C 0.90473 0.77409 0.68453 0.0
C1060 C 0.90647 0.77555 0.66166 0.0
C1061 C 0.90822 0.7962 0.65222 0.0
C1062 C 0.9014 0.79231 0.72187 0.0
C1063 C 0.90764 0.75539 0.64726 0.0
C1064 C 0.92834 0.72366 0.70536 0.0
C1065 C 0.90957 0.70854 0.70511 0.0
C1066 C 0.9268 0.74558 0.70009 0.0
C1067 C 0.90595 0.75255 0.69475 0.0
C1068 C 0.88674 0.73791 0.69654 0.0
C1069 C 0.88878 0.71599 0.70163 0.0
C1070 C 0.94769 0.76075 0.69845 0.0
C1071 C 0.86418 0.74491 0.69149 0.0
H1072 H 0.90577 0.82857 0.69771 0.0
H1073 H 0.91029 0.7973 0.63481 0.0
H1074 H 0.8882 0.77949 0.72605 0.0
H1075 H 0.91697 0.78783 0.72943 0.0
H1076 H 0.89766 0.80826 0.72915 0.0
H1077 H 0.90783 0.75926 0.62969 0.0
H1078 H 0.92278 0.74754 0.65143 0.0
H1079 H 0.89339 0.74322 0.65002 0.0
H1080 H 0.94446 0.71811 0.70824 0.0
H1081 H 0.87415 0.70446 0.7017 0.0
H1082 H 0.9461 0.77661 0.70706 0.0
H1083 H 0.95068 0.76429 0.68109 0.0
H1084 H 0.96226 0.75353 0.70535 0.0
H1085 H 0.8624 0.76132 0.69888 0.0
H1086 H 0.85089 0.73303 0.69742 0.0
H1087 H 0.86191 0.74614 0.67361 0.0
C1088 C 0.81625 0.39584 0.06816 0.0
C1089 C 0.82897 0.41453 0.06118 0.0
C1090 C 0.79476 0.39717 0.07529 0.0
C1091 C 0.78582 0.41764 0.07533 0.0
C1092 C 0.79842 0.43648 0.06797 0.0
C1093 C 0.81985 0.4347 0.061 0.0
C1094 C 0.7817 0.37675 0.08302 0.0
C1095 C 0.78934 0.45855 0.06762 0.0
C1096 C 0.72391 0.41803 0.07458 0.0
C1097 C 0.71995 0.42302 0.09645 0.0
C1098 C 0.74528 0.41619 0.06752 0.0
C1099 C 0.76311 0.41936 0.08272 0.0
C1100 C 0.75928 0.42448 0.10481 0.0
C1101 C 0.73768 0.42632 0.11143 0.0
C1102 C 0.74876 0.41087 0.0438 0.0
C1103 C 0.77798 0.42796 0.12143 0.0
H1104 H 0.82321 0.38023 0.06846 0.0
H1105 H 0.82955 0.44923 0.05562 0.0
H1106 H 0.777 0.37924 0.10016 0.0
H1107 H 0.76625 0.37343 0.07314 0.0
H1108 H 0.79105 0.3621 0.08197 0.0
H1109 H 0.80127 0.47157 0.06131 0.0
H1110 H 0.7741 0.4575 0.05731 0.0
H1111 H 0.78487 0.46349 0.08429 0.0
H1112 H 0.71028 0.41554 0.06288 0.0
H1113 H 0.73466 0.43012 0.12834 0.0
H1114 H 0.75679 0.39544 0.04222 0.0
H1115 H 0.75992 0.42405 0.03671 0.0
H1116 H 0.73309 0.40899 0.03407 0.0
H1117 H 0.78698 0.41309 0.12206 0.0
H1118 H 0.7722 0.43165 0.13799 0.0
H1119 H 0.78989 0.44171 0.11661 0.0
C1120 C 0.11938 0.23018 0.61637 0.0
C1121 C 0.12555 0.21577 0.63228 0.0
C1122 C 0.11877 0.25257 0.62138 0.0
C1123 C 0.12473 0.26064 0.64268 0.0
C1124 C 0.13248 0.24645 0.6583 0.0
C1125 C 0.13268 0.22413 0.65294 0.0
C1126 C 0.11036 0.26724 0.60432 0.0
C1127 C 0.13934 0.25455 0.68108 0.0
C1128 C 0.13322 0.32185 0.65518 0.0
C1129 C 0.11321 0.3255 0.66475 0.0
C1130 C 0.13715 0.30086 0.64756 0.0
C1131 C 0.1206 0.28324 0.64941 0.0
C1132 C 0.10019 0.28696 0.65857 0.0
C1133 C 0.09678 0.30803 0.66623 0.0
C1134 C 0.15916 0.29742 0.63803 0.0
C1135 C 0.08204 0.26858 0.6606 0.0
H1136 H 0.11386 0.22381 0.60036 0.0
H1137 H 0.13773 0.21309 0.66521 0.0
H1138 H 0.09386 0.27175 0.60883 0.0
H1139 H 0.12136 0.28267 0.60346 0.0
H1140 H 0.10895 0.25912 0.58793 0.0
H1141 H 0.14735 0.24207 0.69042 0.0
H1142 H 0.15087 0.26966 0.68059 0.0
H1143 H 0.12464 0.25878 0.68997 0.0
H1144 H 0.14598 0.33533 0.654 0.0
H1145 H 0.08124 0.3108 0.67346 0.0
H1146 H 0.15682 0.28952 0.6216 0.0
H1147 H 0.16782 0.2862 0.64837 0.0
H1148 H 0.16985 0.31304 0.63675 0.0
H1149 H 0.07803 0.26047 0.64447 0.0
H1150 H 0.06679 0.27443 0.66717 0.0
H1151 H 0.08763 0.25598 0.67155 0.0
C1152 C 0.19571 0.58587 0.08154 0.0
C1153 C 0.18932 0.60728 0.0815 0.0
C1154 C 0.21741 0.58197 0.08677 0.0
C1155 C 0.2331 0.59991 0.09214 0.0
C1156 C 0.22675 0.62153 0.09241 0.0
C1157 C 0.20492 0.62497 0.08703 0.0
C1158 C 0.22364 0.5587 0.08618 0.0
C1159 C 0.2431 0.64105 0.0981 0.0
C1160 C 0.28668 0.58995 0.12119 0.0
C1161 C 0.30127 0.591 0.10391 0.0
C1162 C 0.2643 0.59257 0.11761 0.0
C1163 C 0.25645 0.59616 0.09625 0.0
C1164 C 0.271 0.59657 0.07869 0.0
C1165 C 0.29323 0.59403 0.08274 0.0
C1166 C 0.24917 0.59205 0.1367 0.0
C1167 C 0.26318 0.60014 0.05565 0.0
H1168 H 0.18376 0.57207 0.07735 0.0
H1169 H 0.20009 0.64154 0.08718 0.0
H1170 H 0.23607 0.55686 0.07356 0.0
H1171 H 0.23124 0.55483 0.10202 0.0
H1172 H 0.20926 0.54651 0.08257 0.0
H1173 H 0.2353 0.6567 0.09855 0.0
H1174 H 0.25107 0.63889 0.11421 0.0
H1175 H 0.25628 0.64232 0.08596 0.0
H1176 H 0.29286 0.58768 0.13758 0.0
H1177 H 0.30441 0.59473 0.06928 0.0
H1178 H 0.23496 0.57956 0.13366 0.0
H1179 H 0.24248 0.60817 0.13872 0.0
H1180 H 0.25769 0.58831 0.15214 0.0
H1181 H 0.24943 0.58764 0.05086 0.0
H1182 H 0.27649 0.59926 0.04374 0.0
H1183 H 0.25682 0.61645 0.05462 0.0
C1184 C 0.9448 0.2202 0.36011 0.0
C1185 C 0.94595 0.22122 0.38293 0.0
C1186 C 0.94486 0.23931 0.34806 0.0
C1187 C 0.94664 0.25995 0.35909 0.0
C1188 C 0.94863 0.26115 0.3821 0.0
C1189 C 0.94798 0.24171 0.39379 0.0
C1190 C 0.94224 0.23736 0.32356 0.0
C1191 C 0.95108 0.28294 0.39436 0.0
C1192 C 0.96389 0.30984 0.32593 0.0
C1193 C 0.94376 0.31861 0.32254 0.0
C1194 C 0.96514 0.29089 0.33807 0.0
C1195 C 0.94569 0.28023 0.34652 0.0
C1196 C 0.92524 0.28876 0.34272 0.0
C1197 C 0.92456 0.30803 0.33099 0.0
C1198 C 0.98729 0.28252 0.34219 0.0
C1199 C 0.90409 0.27753 0.35106 0.0
H1200 H 0.94302 0.20438 0.35163 0.0
H1201 H 0.94894 0.24253 0.41143 0.0
H1202 H 0.92698 0.2444 0.31825 0.0
H1203 H 0.9562 0.24687 0.31581 0.0
H1204 H 0.94139 0.22007 0.31747 0.0
H1205 H 0.95396 0.28108 0.41211 0.0
H1206 H 0.965 0.29368 0.38795 0.0
H1207 H 0.93599 0.29142 0.39195 0.0
H1208 H 0.97881 0.31817 0.31966 0.0
H1209 H 0.90898 0.3148 0.32838 0.0
H1210 H 0.98724 0.26555 0.33547 0.0
H1211 H 0.99068 0.28192 0.35997 0.0
H1212 H 1.00089 0.29295 0.3348 0.0
H1213 H 0.90174 0.26028 0.34486 0.0
H1214 H 0.88948 0.2859 0.34609 0.0
H1215 H 0.90493 0.27712 0.36908 0.0
C1216 C 0.2334 0.42145 0.93564 0.0
C1217 C 0.21493 0.41157 0.94601 0.0
C1218 C 0.25269 0.41087 0.93407 0.0
C1219 C 0.25354 0.38993 0.94314 0.0
C1220 C 0.23558 0.38064 0.95507 0.0
C1221 C 0.21646 0.39158 0.95636 0.0
C1222 C 0.2716 0.42147 0.92142 0.0
C1223 C 0.23598 0.35849 0.96523 0.0
C1224 C 0.29046 0.35422 0.91256 0.0
C1225 C 0.31008 0.35756 0.92503 0.0
C1226 C 0.27158 0.36383 0.91889 0.0
C1227 C 0.2723 0.37702 0.93819 0.0
C1228 C 0.29158 0.37926 0.95159 0.0
C1229 C 0.31026 0.36952 0.94484 0.0
C1230 C 0.25125 0.3609 0.90423 0.0
C1231 C 0.29291 0.39296 0.97241 0.0
H1232 H 0.23241 0.43695 0.92771 0.0
H1233 H 0.2023 0.38386 0.96451 0.0
H1234 H 0.28726 0.42158 0.93095 0.0
H1235 H 0.27335 0.41181 0.90616 0.0
H1236 H 0.26915 0.43859 0.91711 0.0
H1237 H 0.22225 0.35507 0.97658 0.0
H1238 H 0.23456 0.34551 0.95223 0.0
H1239 H 0.2518 0.35738 0.9742 0.0
H1240 H 0.2901 0.34494 0.8973 0.0
H1241 H 0.32529 0.37209 0.9547 0.0
H1242 H 0.24828 0.37685 0.8971 0.0
H1243 H 0.2366 0.35541 0.91373 0.0
H1244 H 0.25276 0.34879 0.89073 0.0
H1245 H 0.29337 0.41057 0.96845 0.0
H1246 H 0.30783 0.39057 0.98243 0.0
H1247 H 0.27815 0.38893 0.98226 0.0
C1248 C 0.07185 0.80851 0.36304 0.0
C1249 C 0.07538 0.81088 0.38563 0.0
C1250 C 0.06953 0.78769 0.35281 0.0
C1251 C 0.07023 0.76885 0.36557 0.0
C1252 C 0.07246 0.77111 0.38851 0.0
C1253 C 0.0753 0.79216 0.39826 0.0
C1254 C 0.0676 0.78595 0.32827 0.0
C1255 C 0.07272 0.75134 0.40269 0.0
C1256 C 0.05105 0.71317 0.33971 0.0
C1257 C 0.07118 0.70488 0.33549 0.0
C1258 C 0.05043 0.73397 0.3496 0.0
C1259 C 0.07041 0.74691 0.35484 0.0
C1260 C 0.09076 0.73881 0.35008 0.0
C1261 C 0.09089 0.71775 0.34071 0.0
C1262 C 0.02846 0.74189 0.35491 0.0
C1263 C 0.11241 0.75233 0.35499 0.0
H1264 H 0.07205 0.82298 0.35321 0.0
H1265 H 0.07788 0.79396 0.41575 0.0
H1266 H 0.08254 0.77941 0.32178 0.0
H1267 H 0.0533 0.77431 0.32306 0.0
H1268 H 0.06578 0.80205 0.32085 0.0
H1269 H 0.07212 0.75579 0.42028 0.0
H1270 H 0.05853 0.73918 0.39835 0.0
H1271 H 0.08793 0.74324 0.39991 0.0
H1272 H 0.03578 0.70312 0.33588 0.0
H1273 H 0.10647 0.71138 0.33736 0.0
H1274 H 0.0266 0.7577 0.34698 0.0
H1275 H 0.0276 0.7449 0.37273 0.0
H1276 H 0.01443 0.72991 0.34958 0.0
H1277 H 0.11255 0.76845 0.34712 0.0
H1278 H 0.12671 0.74405 0.34928 0.0
H1279 H 0.1145 0.75558 0.37279 0.0
C1280 C 0.81543 0.62478 0.92838 0.0
C1281 C 0.83237 0.64085 0.93495 0.0
C1282 C 0.79431 0.63049 0.9229 0.0
C1283 C 0.79002 0.65279 0.92411 0.0
C1284 C 0.80704 0.66909 0.93068 0.0
C1285 C 0.82801 0.66293 0.93599 0.0
C1286 C 0.77656 0.61265 0.91589 0.0
C1287 C 0.80305 0.69302 0.93224 0.0
C1288 C 0.73998 0.66827 0.89229 0.0
C1289 C 0.72407 0.66768 0.90841 0.0
C1290 C 0.76167 0.6639 0.89724 0.0
C1291 C 0.76759 0.65895 0.91885 0.0
C1292 C 0.75183 0.65913 0.93534 0.0
C1293 C 0.73026 0.66344 0.92992 0.0
C1294 C 0.77805 0.66387 0.87923 0.0
C1295 C 0.75758 0.65413 0.95861 0.0
H1296 H 0.81864 0.6077 0.92745 0.0
H1297 H 0.84099 0.67548 0.94105 0.0
H1298 H 0.76269 0.61242 0.92724 0.0
H1299 H 0.76994 0.616 0.89948 0.0
H1300 H 0.78267 0.59615 0.91545 0.0
H1301 H 0.81811 0.7037 0.93739 0.0
H1302 H 0.79713 0.69848 0.91625 0.0
H1303 H 0.79 0.69535 0.94409 0.0
H1304 H 0.73535 0.67149 0.87562 0.0
H1305 H 0.71812 0.66306 0.94252 0.0
H1306 H 0.78326 0.64714 0.87687 0.0
H1307 H 0.79302 0.67494 0.8837 0.0
H1308 H 0.77117 0.66912 0.86353 0.0
H1309 H 0.76203 0.63704 0.95951 0.0
H1310 H 0.74376 0.65608 0.96971 0.0
H1311 H 0.77211 0.6651 0.96456 0.0
C1312 C 0.64754 0.90696 0.79865 0.0
C1313 C 0.66324 0.90896 0.81575 0.0
C1314 C 0.65366 0.90296 0.77724 0.0
C1315 C 0.67599 0.9006 0.77288 0.0
C1316 C 0.69179 0.90168 0.79017 0.0
C1317 C 0.68525 0.90604 0.81144 0.0
C1318 C 0.63634 0.90207 0.75918 0.0
C1319 C 0.71565 0.89884 0.78613 0.0
C1320 C 0.68279 0.87702 0.71634 0.0
C1321 C 0.68645 0.89626 0.70449 0.0
C1322 C 0.68103 0.87801 0.73905 0.0
C1323 C 0.68277 0.89872 0.74999 0.0
C1324 C 0.6882 0.91802 0.73831 0.0
C1325 C 0.69011 0.91654 0.71571 0.0
C1326 C 0.67576 0.85704 0.75107 0.0
C1327 C 0.69019 0.94043 0.74941 0.0
H1328 H 0.6305 0.90916 0.80188 0.0
H1329 H 0.69741 0.90731 0.82465 0.0
H1330 H 0.64032 0.91565 0.74788 0.0
H1331 H 0.63614 0.88646 0.74961 0.0
H1332 H 0.61959 0.90343 0.76542 0.0
H1333 H 0.72533 0.89767 0.80152 0.0
H1334 H 0.71703 0.88385 0.77595 0.0
H1335 H 0.72312 0.91298 0.77704 0.0
H1336 H 0.68023 0.86125 0.7078 0.0
H1337 H 0.69321 0.93148 0.70671 0.0
H1338 H 0.65816 0.85557 0.75545 0.0
H1339 H 0.68569 0.85717 0.76643 0.0
H1340 H 0.67879 0.84235 0.74105 0.0
H1341 H 0.67373 0.94428 0.75476 0.0
H1342 H 0.69678 0.95353 0.73848 0.0
H1343 H 0.70108 0.94072 0.76413 0.0
C1344 C 0.64888 0.15931 0.21626 0.0
C1345 C 0.62655 0.16117 0.21172 0.0
C1346 C 0.6561 0.15367 0.23699 0.0
C1347 C 0.64054 0.14941 0.25342 0.0
C1348 C 0.61793 0.15106 0.24889 0.0
C1349 C 0.61121 0.15714 0.2281 0.0
C1350 C 0.6804 0.15244 0.24136 0.0
C1351 C 0.60085 0.14626 0.26594 0.0
C1352 C 0.65795 0.11597 0.30083 0.0
C1353 C 0.66313 0.13233 0.31696 0.0
C1354 C 0.6502 0.12126 0.28014 0.0
C1355 C 0.64801 0.14346 0.27544 0.0
C1356 C 0.65332 0.16004 0.29164 0.0
C1357 C 0.66063 0.15424 0.3123 0.0
C1358 C 0.64432 0.10311 0.26334 0.0
C1359 C 0.65153 0.18393 0.28708 0.0
H1360 H 0.66079 0.1625 0.20364 0.0
H1361 H 0.59391 0.15841 0.22458 0.0
H1362 H 0.68626 0.16392 0.25498 0.0
H1363 H 0.68337 0.13569 0.2464 0.0
H1364 H 0.69038 0.15656 0.22689 0.0
H1365 H 0.58388 0.14778 0.25962 0.0
H1366 H 0.60166 0.1294 0.27191 0.0
H1367 H 0.60426 0.15772 0.28013 0.0
H1368 H 0.6597 0.09899 0.30444 0.0
H1369 H 0.66469 0.16694 0.32472 0.0
H1370 H 0.65492 0.10559 0.24903 0.0
H1371 H 0.62703 0.10351 0.2575 0.0
H1372 H 0.64627 0.08663 0.26983 0.0
H1373 H 0.66218 0.18903 0.27336 0.0
H1374 H 0.65643 0.19481 0.30144 0.0
H1375 H 0.63438 0.18639 0.28212 0.0
C1376 C 0.34676 0.10671 0.70805 0.0
C1377 C 0.35276 0.1277 0.7002 0.0
C1378 C 0.34593 0.10307 0.7304 0.0
C1379 C 0.35105 0.12089 0.74528 0.0
C1380 C 0.35534 0.14241 0.7375 0.0
C1381 C 0.35621 0.14557 0.71497 0.0
C1382 C 0.34129 0.07986 0.73803 0.0
C1383 C 0.36049 0.16186 0.75292 0.0
C1384 C 0.3416 0.10868 0.80478 0.0
C1385 C 0.36268 0.10403 0.8117 0.0
C1386 C 0.33763 0.11504 0.78335 0.0
C1387 C 0.35508 0.11642 0.76855 0.0
C1388 C 0.37642 0.11201 0.77557 0.0
C1389 C 0.37997 0.106 0.79707 0.0
C1390 C 0.31477 0.11996 0.77646 0.0
C1391 C 0.39543 0.11307 0.7602 0.0
H1392 H 0.34372 0.09283 0.69674 0.0
H1393 H 0.36061 0.16188 0.70902 0.0
H1394 H 0.35663 0.07424 0.74504 0.0
H1395 H 0.32897 0.0791 0.75101 0.0
H1396 H 0.33515 0.06828 0.72456 0.0
H1397 H 0.35969 0.17766 0.74458 0.0
H1398 H 0.3489 0.16118 0.76658 0.0
H1399 H 0.37732 0.16152 0.76003 0.0
H1400 H 0.32823 0.10742 0.8161 0.0
H1401 H 0.3963 0.10245 0.80231 0.0
H1402 H 0.30777 0.10751 0.76416 0.0
H1403 H 0.3154 0.13617 0.76871 0.0
H1404 H 0.3035 0.11996 0.79038 0.0
H1405 H 0.39178 0.10084 0.74666 0.0
H1406 H 0.41112 0.10976 0.76842 0.0
H1407 H 0.39774 0.12949 0.75292 0.0
C1408 C 0.41439 0.86899 0.22844 0.0
C1409 C 0.39808 0.86251 0.21254 0.0
C1410 C 0.40876 0.87667 0.24906 0.0
C1411 C 0.3863 0.87734 0.25395 0.0
C1412 C 0.36977 0.87049 0.23804 0.0
C1413 C 0.37588 0.86339 0.21742 0.0
C1414 C 0.42683 0.8843 0.26549 0.0
C1415 C 0.34563 0.87055 0.24283 0.0
C1416 C 0.37028 0.87779 0.31315 0.0
C1417 C 0.36619 0.89972 0.31652 0.0
C1418 C 0.37691 0.87029 0.29286 0.0
C1419 C 0.37999 0.88521 0.27573 0.0
C1420 C 0.37642 0.9075 0.27921 0.0
C1421 C 0.36929 0.91444 0.29953 0.0
C1422 C 0.38014 0.84631 0.2896 0.0
C1423 C 0.38001 0.92397 0.26144 0.0
H1424 H 0.43158 0.86849 0.22463 0.0
H1425 H 0.36324 0.85826 0.20517 0.0
H1426 H 0.4254 0.90161 0.27055 0.0
H1427 H 0.42513 0.87437 0.28031 0.0
H1428 H 0.44349 0.88309 0.25898 0.0
H1429 H 0.33483 0.86408 0.22887 0.0
H1430 H 0.34158 0.86043 0.25719 0.0
H1431 H 0.34181 0.88748 0.2469 0.0
H1432 H 0.3678 0.86635 0.32625 0.0
H1433 H 0.36632 0.93145 0.30217 0.0
H1434 H 0.39712 0.84449 0.28432 0.0
H1435 H 0.36873 0.83894 0.27651 0.0
H1436 H 0.37718 0.83688 0.30464 0.0
H1437 H 0.39691 0.92384 0.25522 0.0
H1438 H 0.37765 0.9409 0.26716 0.0
H1439 H 0.36839 0.91942 0.24757 0.0
C1440 C 0.14252 0.1105 0.552 0.0
C1441 C 0.12719 0.12602 0.54955 0.0
C1442 C 0.1555 0.10482 0.53462 0.0
C1443 C 0.15318 0.11508 0.51446 0.0
C1444 C 0.13659 0.1295 0.51148 0.0
C1445 C 0.12375 0.13474 0.52907 0.0
C1446 C 0.17262 0.08904 0.53845 0.0
C1447 C 0.13338 0.14065 0.49012 0.0
C1448 C 0.19812 0.13338 0.47687 0.0
C1449 C 0.1907 0.12152 0.4579 0.0
C1450 C 0.18766 0.12949 0.49661 0.0
C1451 C 0.16953 0.11329 0.49722 0.0
C1452 C 0.16452 0.09889 0.47909 0.0
C1453 C 0.17523 0.10317 0.45949 0.0
C1454 C 0.19409 0.14467 0.5159 0.0
C1455 C 0.14605 0.0807 0.47955 0.0
H1456 H 0.14518 0.10354 0.56778 0.0
H1457 H 0.1118 0.14657 0.52704 0.0
H1458 H 0.17591 0.07973 0.52336 0.0
H1459 H 0.18825 0.09838 0.54418 0.0
H1460 H 0.16745 0.07723 0.55122 0.0
H1461 H 0.11891 0.15033 0.49012 0.0
H1462 H 0.14825 0.15187 0.48682 0.0
H1463 H 0.13115 0.12831 0.47654 0.0
H1464 H 0.21054 0.14719 0.47584 0.0
H1465 H 0.16974 0.09359 0.44498 0.0
H1466 H 0.1947 0.13531 0.53107 0.0
H1467 H 0.18155 0.15649 0.51787 0.0
H1468 H 0.21035 0.1541 0.51386 0.0
H1469 H 0.14562 0.07274 0.49558 0.0
H1470 H 0.14766 0.06806 0.46657 0.0
H1471 H 0.1301 0.08764 0.47691 0.0
C1472 C 0.38934 0.56156 0.96147 0.0
C1473 C 0.36943 0.57114 0.95943 0.0
C1474 C 0.39917 0.55897 0.98203 0.0
C1475 C 0.38891 0.56633 1.00085 0.0
C1476 C 0.36866 0.57574 0.99886 0.0
C1477 C 0.35915 0.57794 0.97819 0.0
C1478 C 0.42064 0.54872 0.98356 0.0
C1479 C 0.35708 0.58376 0.01856 0.0
C1480 C 0.39361 0.54841 0.05837 0.0
C1481 C 0.40377 0.5677 0.06833 0.0
C1482 C 0.3912 0.54642 0.03569 0.0
C1483 C 0.39885 0.56432 0.02289 0.0
C1484 C 0.4118 0.58251 0.03275 0.0
C1485 C 0.41426 0.58392 0.05552 0.0
C1486 C 0.37788 0.52645 0.02579 0.0
C1487 C 0.42048 0.60183 0.01965 0.0
H1488 H 0.39739 0.55629 0.947 0.0
H1489 H 0.34381 0.58539 0.97674 0.0
H1490 H 0.43399 0.56129 0.9892 0.0
H1491 H 0.41966 0.53557 0.99569 0.0
H1492 H 0.42523 0.5417 0.96766 0.0
H1493 H 0.34156 0.59086 0.01414 0.0
H1494 H 0.35311 0.57001 0.02967 0.0
H1495 H 0.36805 0.59646 0.02773 0.0
H1496 H 0.38571 0.53575 0.06837 0.0
H1497 H 0.42212 0.59885 0.06324 0.0
H1498 H 0.3846 0.52156 0.00999 0.0
H1499 H 0.36071 0.53033 0.0227 0.0
H1500 H 0.37745 0.51232 0.03682 0.0
H1501 H 0.42681 0.59634 1.00388 0.0
H1502 H 0.4338 0.61221 0.02865 0.0
H1503 H 0.40687 0.61209 0.01607 0.0
C1504 C 0.83696 0.89264 0.48624 0.0
C1505 C 0.84685 0.90528 0.46979 0.0
C1506 C 0.84744 0.89157 0.50663 0.0
C1507 C 0.86835 0.9033 0.51047 0.0
C1508 C 0.87721 0.91797 0.4948 0.0
C1509 C 0.86622 0.91893 0.47461 0.0
C1510 C 0.83716 0.87619 0.52319 0.0
C1511 C 0.89937 0.93091 0.49842 0.0
C1512 C 0.8938 0.90302 0.56725 0.0
C1513 C 0.90652 0.88517 0.56558 0.0
C1514 C 0.88153 0.90942 0.54937 0.0
C1515 C 0.88216 0.89778 0.52932 0.0
C1516 C 0.89543 0.8801 0.52735 0.0
C1517 C 0.90739 0.87394 0.54558 0.0
C1518 C 0.8673 0.92808 0.55217 0.0
C1519 C 0.89656 0.86734 0.50612 0.0
H1520 H 0.82185 0.88224 0.48259 0.0
H1521 H 0.87395 0.92876 0.46196 0.0
H1522 H 0.84602 0.86122 0.5236 0.0
H1523 H 0.83857 0.88393 0.53973 0.0
H1524 H 0.81952 0.87118 0.51923 0.0
H1525 H 0.90225 0.94406 0.48639 0.0
H1526 H 0.9009 0.93843 0.51505 0.0
H1527 H 0.91251 0.91969 0.49686 0.0
H1528 H 0.89287 0.91166 0.58275 0.0
H1529 H 0.91718 0.86014 0.54423 0.0
H1530 H 0.8497 0.92161 0.55096 0.0
H1531 H 0.87022 0.94004 0.53904 0.0
H1532 H 0.87038 0.93684 0.56815 0.0
H1533 H 0.88006 0.85909 0.50154 0.0
H1534 H 0.90837 0.85467 0.50707 0.0
H1535 H 0.90154 0.87864 0.4929 0.0
C1536 C 0.66895 0.43842 0.97835 0.0
C1537 C 0.65805 0.44463 0.95952 0.0
C1538 C 0.65987 0.44083 0.99888 0.0
C1539 C 0.63944 0.44985 1.00064 0.0
C1540 C 0.62869 0.45685 0.9818 0.0
C1541 C 0.63809 0.45407 0.96141 0.0
C1542 C 0.67194 0.43322 0.01864 0.0
C1543 C 0.60706 0.46678 0.98311 0.0
C1544 C 0.61295 0.43233 0.05301 0.0
C1545 C 0.62233 0.44905 0.0672 0.0
C1546 C 0.61656 0.4333 0.03057 0.0
C1547 C 0.62955 0.45156 0.02237 0.0
C1548 C 0.63646 0.46973 0.03634 0.0
C1549 C 0.6329 0.46817 0.05869 0.0
C1550 C 0.60876 0.41366 0.01617 0.0
C1551 C 0.64984 0.48974 0.02818 0.0
H1552 H 0.68434 0.43108 0.97702 0.0
H1553 H 0.62958 0.45893 0.9469 0.0
H1554 H 0.67557 0.44704 0.03059 0.0
H1555 H 0.66142 0.42022 0.02675 0.0
H1556 H 0.68768 0.42664 0.01446 0.0
H1557 H 0.60186 0.47322 0.96725 0.0
H1558 H 0.59406 0.4542 0.98826 0.0
H1559 H 0.60825 0.48032 0.99552 0.0
H1560 H 0.60485 0.41749 0.05961 0.0
H1561 H 0.64001 0.48118 0.06973 0.0
H1562 H 0.62287 0.40403 0.01285 0.0
H1563 H 0.60228 0.41883 1.0003 0.0
H1564 H 0.59577 0.40277 0.02395 0.0
H1565 H 0.66707 0.48596 0.02601 0.0
H1566 H 0.64999 0.50392 0.03982 0.0
H1567 H 0.64334 0.49452 0.01217 0.0
C1568 C 0.13067 0.92239 0.56406 0.0
C1569 C 0.15105 0.91455 0.55986 0.0
C1570 C 0.11619 0.92649 0.54688 0.0
C1571 C 0.12233 0.92246 0.52521 0.0
C1572 C 0.14392 0.91707 0.52098 0.0
C1573 C 0.15804 0.91325 0.53841 0.0
C1574 C 0.09372 0.93312 0.55215 0.0
C1575 C 0.15137 0.913 0.49808 0.0
C1576 C 0.08644 0.89334 0.48146 0.0
C1577 C 0.08806 0.90906 0.46526 0.0
C1578 C 0.09523 0.89836 0.50241 0.0
C1579 C 0.10562 0.91967 0.50721 0.0
C1580 C 0.10405 0.93645 0.49204 0.0
C1581 C 0.09537 0.93092 0.47108 0.0
C1582 C 0.0959 0.8801 0.51842 0.0
C1583 C 0.11375 0.95965 0.49706 0.0
H1584 H 0.12526 0.92371 0.58067 0.0
H1585 H 0.17397 0.90762 0.53514 0.0
H1586 H 0.08671 0.94237 0.53879 0.0
H1587 H 0.0824 0.91819 0.55476 0.0
H1588 H 0.09443 0.94332 0.56739 0.0
H1589 H 0.16919 0.91073 0.49759 0.0
H1590 H 0.14194 0.89802 0.49095 0.0
H1591 H 0.14816 0.9269 0.48763 0.0
H1592 H 0.0802 0.87655 0.47729 0.0
H1593 H 0.09608 0.94338 0.45882 0.0
H1594 H 0.09118 0.88568 0.53479 0.0
H1595 H 0.11294 0.87528 0.51983 0.0
H1596 H 0.08476 0.86537 0.51329 0.0
H1597 H 0.11168 0.96424 0.51441 0.0
H1598 H 0.10606 0.97151 0.48663 0.0
H1599 H 0.13165 0.96103 0.49393 0.0
C1600 C 0.61672 0.6949 0.96756 0.0
C1601 C 0.62108 0.67337 0.96235 0.0
C1602 C 0.61268 0.70105 0.98914 0.0
C1603 C 0.61344 0.68534 1.00557 0.0
C1604 C 0.61479 0.66303 0.99976 0.0
C1605 C 0.6185 0.65731 0.97813 0.0
C1606 C 0.60988 0.72473 0.99459 0.0
C1607 C 0.61516 0.64557 0.01668 0.0
C1608 C 0.64668 0.6967 0.05725 0.0
C1609 C 0.63065 0.69213 0.07285 0.0
C1610 C 0.64092 0.69671 0.03513 0.0
C1611 C 0.61851 0.6924 0.0285 0.0
C1612 C 0.60204 0.69046 0.04431 0.0
C1613 C 0.60832 0.69009 0.06641 0.0
C1614 C 0.65912 0.69907 0.01884 0.0
C1615 C 0.57791 0.68703 0.03798 0.0
H1616 H 0.6182 0.7073 0.95525 0.0
H1617 H 0.62117 0.64049 0.97396 0.0
H1618 H 0.59901 0.7262 1.00866 0.0
H1619 H 0.62616 0.73358 0.99897 0.0
H1620 H 0.60292 0.73293 0.98043 0.0
H1621 H 0.61407 0.62878 1.00924 0.0
H1622 H 0.63071 0.64828 0.02654 0.0
H1623 H 0.60132 0.64648 0.0279 0.0
H1624 H 0.66394 0.69884 0.06215 0.0
H1625 H 0.59577 0.68711 0.07846 0.0
H1626 H 0.65576 0.71151 1.00671 0.0
H1627 H 0.65994 0.68322 0.0099 0.0
H1628 H 0.67548 0.70397 0.02672 0.0
H1629 H 0.57442 0.69458 0.0222 0.0
H1630 H 0.56777 0.69401 0.05069 0.0
H1631 H 0.57273 0.66919 0.03642 0.0
C1632 C 0.94386 0.10248 0.4646 0.0
C1633 C 0.94938 0.12498 0.46156 0.0
C1634 C 0.93558 0.09497 0.48446 0.0
C1635 C 0.93246 0.11039 0.50129 0.0
C1636 C 0.94118 0.13253 0.49939 0.0
C1637 C 0.94975 0.13953 0.47953 0.0
C1638 C 0.92793 0.07098 0.48649 0.0
C1639 C 0.93882 0.14945 0.51724 0.0
C1640 C 0.8789 0.11056 0.52992 0.0
C1641 C 0.88593 0.10921 0.55163 0.0
C1642 C 0.89357 0.10875 0.51299 0.0
C1643 C 0.91571 0.10514 0.51797 0.0
C1644 C 0.92201 0.10069 0.53958 0.0
C1645 C 0.90702 0.10291 0.55628 0.0
C1646 C 0.88593 0.11322 0.49009 0.0
C1647 C 0.94507 0.09567 0.54555 0.0
H1648 H 0.94419 0.09097 0.45097 0.0
H1649 H 0.95457 0.15685 0.47752 0.0
H1650 H 0.93013 0.06562 0.50345 0.0
H1651 H 0.91016 0.06816 0.482 0.0
H1652 H 0.93698 0.06064 0.47542 0.0
H1653 H 0.94859 0.16529 0.51421 0.0
H1654 H 0.92125 0.15249 0.51841 0.0
H1655 H 0.94419 0.14342 0.53317 0.0
H1656 H 0.86247 0.11496 0.52622 0.0
H1657 H 0.91249 0.10146 0.57305 0.0
H1658 H 0.89034 0.10023 0.47859 0.0
H1659 H 0.89426 0.12906 0.48483 0.0
H1660 H 0.86786 0.11411 0.48879 0.0
H1661 H 0.95315 0.08807 0.53169 0.0
H1662 H 0.94495 0.08451 0.55954 0.0
H1663 H 0.9551 0.1111 0.5506 0.0
C1664 C 0.41472 0.31695 0.96833 0.0
C1665 C 0.41573 0.33921 0.96325 0.0
C1666 C 0.41671 0.31073 0.99006 0.0
C1667 C 0.41931 0.32719 1.0067 0.0
C1668 C 0.42417 0.34939 1.00118 0.0
C1669 C 0.42244 0.35513 0.97939 0.0
C1670 C 0.41322 0.28676 0.99534 0.0
C1671 C 0.42789 0.36745 0.01841 0.0
C1672 C 0.38037 0.32449 0.05324 0.0
C1673 C 0.39493 0.32458 0.07117 0.0
C1674 C 0.38802 0.32374 0.03202 0.0
C1675 C 0.41077 0.32249 0.02865 0.0
C1676 C 0.42519 0.32031 0.04665 0.0
C1677 C 0.41715 0.32172 0.06779 0.0
C1678 C 0.37194 0.32611 0.01332 0.0
C1679 C 0.44931 0.31782 0.04386 0.0
H1680 H 0.41015 0.30449 0.95578 0.0
H1681 H 0.42401 0.37234 0.97535 0.0
H1682 H 0.42316 0.28321 0.00996 0.0
H1683 H 0.39563 0.28236 0.99884 0.0
H1684 H 0.4176 0.27623 0.98145 0.0
H1685 H 0.43406 0.38338 0.01144 0.0
H1686 H 0.41215 0.36956 0.02652 0.0
H1687 H 0.43989 0.36316 0.03102 0.0
H1688 H 0.36315 0.32644 0.05574 0.0
H1689 H 0.42842 0.32131 0.08164 0.0
H1690 H 0.37247 0.31245 1.00126 0.0
H1691 H 0.37653 0.34165 1.0049 0.0
H1692 H 0.35473 0.32625 0.01877 0.0
H1693 H 0.45264 0.31074 0.02762 0.0
H1694 H 0.45543 0.30721 0.05661 0.0
H1695 H 0.45883 0.33414 0.04579 0.0
C1696 C 0.54595 0.13206 0.12006 0.0
C1697 C 0.55971 0.14644 0.1079 0.0
C1698 C 0.52423 0.12577 0.1132 0.0
C1699 C 0.51597 0.13419 0.0937 0.0
C1700 C 0.53026 0.14733 0.08044 0.0
C1701 C 0.55208 0.15333 0.08772 0.0
C1702 C 0.50971 0.11138 0.12773 0.0
C1703 C 0.52224 0.15632 0.05939 0.0
C1704 C 0.45907 0.10608 0.08355 0.0
C1705 C 0.44731 0.11926 0.09698 0.0
C1706 C 0.4814 0.11216 0.07966 0.0
C1707 C 0.4918 0.13173 0.08952 0.0
C1708 C 0.47898 0.14645 0.10039 0.0
C1709 C 0.45687 0.13989 0.1042 0.0
C1710 C 0.49436 0.09638 0.06738 0.0
C1711 C 0.48923 0.16777 0.11066 0.0
H1712 H 0.55193 0.12632 0.13545 0.0
H1713 H 0.56273 0.16433 0.07817 0.0
H1714 H 0.49702 0.12102 0.13484 0.0
H1715 H 0.50103 0.09743 0.11817 0.0
H1716 H 0.51918 0.10471 0.14128 0.0
H1717 H 0.53605 0.1603 0.04826 0.0
H1718 H 0.50969 0.14458 0.05094 0.0
H1719 H 0.51453 0.17164 0.06293 0.0
H1720 H 0.45156 0.09009 0.07801 0.0
H1721 H 0.44758 0.15007 0.11449 0.0
H1722 H 0.50251 0.08612 0.07914 0.0
H1723 H 0.50738 0.10528 0.05778 0.0
H1724 H 0.48352 0.08531 0.05626 0.0
H1725 H 0.49865 0.16428 0.12564 0.0
H1726 H 0.47661 0.17885 0.11518 0.0
H1727 H 0.50086 0.17643 0.09945 0.0
C1728 C 0.4322 0.96462 0.61223 0.0
C1729 C 0.43407 0.96159 0.63473 0.0
C1730 C 0.42605 0.98447 0.60414 0.0
C1731 C 0.42169 1.00144 0.61896 0.0
C1732 C 0.42539 0.99903 0.64158 0.0
C1733 C 0.43158 0.97914 0.64916 0.0
C1734 C 0.42275 0.9866 0.57992 0.0
C1735 C 0.42132 0.01688 0.65799 0.0
C1736 C 0.41512 0.06071 0.61004 0.0
C1737 C 0.39254 0.06091 0.61335 0.0
C1738 C 0.42474 0.0409 0.60885 0.0
C1739 C 0.41141 0.02103 0.61157 0.0
C1740 C 0.3882 0.02112 0.61231 0.0
C1741 C 0.37899 0.04122 0.61323 0.0
C1742 C 0.44943 0.0415 0.60742 0.0
C1743 C 0.37339 1.00022 0.61496 0.0
H1744 H 0.4341 0.95106 0.601 0.0
H1745 H 0.43326 0.97692 0.66655 0.0
H1746 H 0.40496 0.98339 0.57562 0.0
H1747 H 0.42831 1.0034 0.57473 0.0
H1748 H 0.4317 0.97464 0.57062 0.0
H1749 H 0.42615 1.0128 0.67484 0.0
H1750 H 0.43065 0.03258 0.65382 0.0
H1751 H 0.40358 0.01949 0.65767 0.0
H1752 H 0.42553 0.07611 0.61024 0.0
H1753 H 0.36155 0.04153 0.61601 0.0
H1754 H 0.45414 0.02746 0.59743 0.0
H1755 H 0.45674 0.04029 0.624 0.0
H1756 H 0.45664 0.05702 0.60038 0.0
H1757 H 0.37818 0.98702 0.6039 0.0
H1758 H 0.35582 1.00259 0.61164 0.0
H1759 H 0.37509 0.99463 0.6319 0.0
C1760 C 0.47425 0.88595 0.12148 0.0
C1761 C 0.46022 0.87054 0.10938 0.0
C1762 C 0.49576 0.89183 0.11501 0.0
C1763 C 0.50352 0.88191 0.09599 0.0
C1764 C 0.4889 0.86766 0.08273 0.0
C1765 C 0.4673 0.86212 0.08959 0.0
C1766 C 0.51064 0.90743 0.12951 0.0
C1767 C 0.49638 0.85703 0.06217 0.0
C1768 C 0.56026 0.909 0.0864 0.0
C1769 C 0.57241 0.89687 0.10047 0.0
C1770 C 0.53776 0.90274 0.08225 0.0
C1771 C 0.52759 0.88404 0.09246 0.0
C1772 C 0.54068 0.87019 0.1041 0.0
C1773 C 0.56296 0.87694 0.10816 0.0
C1774 C 0.52446 0.91756 0.0692 0.0
C1775 C 0.53067 0.84978 0.11479 0.0
H1776 H 0.46868 0.89285 0.13654 0.0
H1777 H 0.45643 0.85031 0.08008 0.0
H1778 H 0.5235 0.89841 0.13732 0.0
H1779 H 0.5191 0.92057 0.11978 0.0
H1780 H 0.50149 0.91522 0.14253 0.0
H1781 H 0.48227 0.85196 0.05084 0.0
H1782 H 0.50855 0.8682 0.05367 0.0
H1783 H 0.5044 0.84215 0.06639 0.0
H1784 H 0.56768 0.92446 0.08049 0.0
H1785 H 0.57256 0.86755 0.11893 0.0
H1786 H 0.51675 0.92881 0.08046 0.0
H1787 H 0.51108 0.90794 0.05959 0.0
H1788 H 0.53499 0.92766 0.05801 0.0
H1789 H 0.52168 0.85455 0.12937 0.0
H1790 H 0.5434 0.83907 0.12002 0.0
H1791 H 0.51869 0.84021 0.10355 0.0
C1792 C 0.60049 0.04282 0.6266 0.0
C1793 C 0.60683 0.06221 0.61595 0.0
C1794 C 0.60904 0.02322 0.62062 0.0
C1795 C 0.62481 0.02334 0.60405 0.0
C1796 C 0.62909 0.04226 0.59148 0.0
C1797 C 0.61984 0.06157 0.59752 0.0
C1798 C 0.60333 1.00317 0.63394 0.0
C1799 C 0.64547 0.04299 0.57348 0.0
C1800 C 0.66774 0.98852 0.62444 0.0
C1801 C 0.66074 0.96836 0.61426 0.0
C1802 C 0.65783 1.00741 0.61913 0.0
C1803 C 0.63998 1.00579 0.60379 0.0
C1804 C 0.63444 0.9859 0.59184 0.0
C1805 C 0.64505 0.96731 0.59719 0.0
C1806 C 0.66479 0.02847 0.63181 0.0
C1807 C 0.61574 0.9835 0.57522 0.0
H1808 H 0.59033 0.04338 0.6408 0.0
H1809 H 0.62483 0.07668 0.58935 0.0
H1810 H 0.60065 0.98823 0.62331 0.0
H1811 H 0.6172 1.001 0.64543 0.0
H1812 H 0.58833 1.00464 0.64354 0.0
H1813 H 0.64245 0.05595 0.56174 0.0
H1814 H 0.66231 0.04677 0.58062 0.0
H1815 H 0.64492 0.02698 0.56457 0.0
H1816 H 0.67984 0.98916 0.63772 0.0
H1817 H 0.63949 0.95155 0.58953 0.0
H1818 H 0.65219 0.03141 0.64399 0.0
H1819 H 0.66613 0.04261 0.62084 0.0
H1820 H 0.68084 0.02786 0.64057 0.0
H1821 H 0.60003 0.97959 0.58365 0.0
H1822 H 0.61768 0.96995 0.56329 0.0
H1823 H 0.61451 0.99889 0.56633 0.0
C1824 C 0.48477 0.84767 0.91489 0.0
C1825 C 0.466 0.85901 0.91663 0.0
C1826 C 0.50579 0.85897 0.91474 0.0
C1827 C 0.50803 0.88212 0.91683 0.0
C1828 C 0.48945 0.89333 0.92174 0.0
C1829 C 0.4685 0.88161 0.92144 0.0
C1830 C 0.52516 0.8463 0.90964 0.0
C1831 C 0.49139 0.91791 0.92509 0.0
C1832 C 0.56723 0.90716 0.91542 0.0
C1833 C 0.5692 0.91146 0.8932 0.0
C1834 C 0.54696 0.89901 0.92382 0.0
C1835 C 0.52854 0.8944 0.90948 0.0
C1836 C 0.53034 0.89941 0.88715 0.0
C1837 C 0.5506 0.90814 0.87936 0.0
C1838 C 0.54555 0.89458 0.94781 0.0
C1839 C 0.51116 0.89448 0.87121 0.0
H1840 H 0.48295 0.8301 0.91165 0.0
H1841 H 0.45405 0.89045 0.92313 0.0
H1842 H 0.5302 0.84948 0.89268 0.0
H1843 H 0.53945 0.85172 0.92056 0.0
H1844 H 0.52117 0.82834 0.91123 0.0
H1845 H 0.47695 0.9234 0.93359 0.0
H1846 H 0.50659 0.92371 0.93462 0.0
H1847 H 0.49235 0.92581 0.90904 0.0
H1848 H 0.58157 0.91 0.92623 0.0
H1849 H 0.55208 0.91147 0.86219 0.0
H1850 H 0.54669 0.87688 0.95044 0.0
H1851 H 0.52961 0.89878 0.95425 0.0
H1852 H 0.55916 0.90401 0.95733 0.0
H1853 H 0.50621 0.87656 0.87041 0.0
H1854 H 0.51516 0.89995 0.85454 0.0
H1855 H 0.49678 0.90267 0.87672 0.0
C1856 C 0.6132 0.97498 0.44767 0.0
C1857 C 0.62502 0.96137 0.43476 0.0
C1858 C 0.62048 0.99736 0.4506 0.0
C1859 C 0.63989 1.00593 0.44036 0.0
C1860 C 0.65326 0.99148 0.42987 0.0
C1861 C 0.64551 0.96935 0.427 0.0
C1862 C 0.60608 1.01216 0.4624 0.0
C1863 C 0.67435 0.99978 0.41916 0.0
C1864 C 0.64127 0.05799 0.40893 0.0
C1865 C 0.65684 0.07193 0.42097 0.0
C1866 C 0.63441 0.037 0.41604 0.0
C1867 C 0.64345 0.02965 0.43568 0.0
C1868 C 0.658 0.04418 0.44873 0.0
C1869 C 0.66454 0.06526 0.4412 0.0
C1870 C 0.61856 0.02219 0.40171 0.0
C1871 C 0.66777 0.0371 0.46988 0.0
H1872 H 0.5973 0.9687 0.45362 0.0
H1873 H 0.65464 0.95864 0.41713 0.0
H1874 H 0.61614 0.02548 0.47164 0.0
H1875 H 0.59565 0.01988 0.45034 0.0
H1876 H 0.59507 1.00284 0.47378 0.0
H1877 H 0.68451 0.98624 0.415 0.0
H1878 H 0.67035 1.00808 0.40392 0.0
H1879 H 0.68428 1.01193 0.42992 0.0
H1880 H 0.63491 0.06324 0.39349 0.0
H1881 H 0.67647 0.07606 0.45067 0.0
H1882 H 0.60476 0.01483 0.41137 0.0
H1883 H 0.62719 1.00856 0.39483 0.0
H1884 H 0.61162 0.03105 0.388 0.0
H1885 H 0.65568 0.02619 0.47875 0.0
H1886 H 0.67363 0.05144 0.48062 0.0
H1887 H 0.68206 0.02781 0.4664 0.0
C1888 C 0.45498 0.10794 0.9166 0.0
C1889 C 0.45241 0.10047 0.89485 0.0
C1890 C 0.47562 0.11682 0.925 0.0
C1891 C 0.49377 0.11888 0.91106 0.0
C1892 C 0.49139 0.11044 0.88937 0.0
C1893 C 0.47079 0.1011 0.88164 0.0
C1894 C 0.47761 0.12487 0.94842 0.0
C1895 C 0.51025 0.11251 0.87382 0.0
C1896 C 0.53752 0.16607 0.91184 0.0
C1897 C 0.55641 0.15512 0.91511 0.0
C1898 C 0.51653 0.15489 0.91288 0.0
C1899 C 0.51446 0.13233 0.91766 0.0
C1900 C 0.5333 0.12209 0.92411 0.0
C1901 C 0.55423 0.13361 0.92259 0.0
C1902 C 0.49685 0.16657 0.90618 0.0
C1903 C 0.53156 0.09837 0.93044 0.0
H1904 H 0.44083 0.10717 0.92697 0.0
H1905 H 0.46888 0.09527 0.86485 0.0
H1906 H 0.49412 0.12284 0.9556 0.0
H1907 H 0.47517 0.14257 0.94929 0.0
H1908 H 0.4649 0.11604 0.95846 0.0
H1909 H 0.50581 0.1044 0.85774 0.0
H1910 H 0.51542 0.1301 0.87121 0.0
H1911 H 0.52464 0.10511 0.88079 0.0
H1912 H 0.53914 0.18291 0.90661 0.0
H1913 H 0.56879 0.12518 0.92553 0.0
H1914 H 0.48328 0.16325 0.91765 0.0
H1915 H 0.49072 0.16038 0.88981 0.0
H1916 H 0.50094 0.18461 0.90549 0.0
H1917 H 0.51675 0.09432 0.94024 0.0
H1918 H 0.54638 0.0945 0.93987 0.0
H1919 H 0.52996 0.08771 0.91553 0.0
C1920 C 0.36841 0.97941 0.43724 0.0
C1921 C 0.37068 0.97271 0.41546 0.0
C1922 C 0.37588 1.00083 0.44452 0.0
C1923 C 0.38586 0.01575 0.42966 0.0
C1924 C 0.38856 1.00889 0.40778 0.0
C1925 C 0.38089 0.98752 0.40098 0.0
C1926 C 0.37265 1.00761 0.4679 0.0
C1927 C 0.39931 0.02423 0.39139 0.0
C1928 C 0.38789 0.07703 0.42984 0.0
C1929 C 0.41051 0.0826 0.43292 0.0
C1930 C 0.37887 0.05526 0.43163 0.0
C1931 C 0.393 0.03886 0.43624 0.0
C1932 C 0.41539 0.04498 0.44205 0.0
C1933 C 0.42395 0.06692 0.4402 0.0
C1934 C 0.35485 0.04952 0.42564 0.0
C1935 C 0.43093 0.02805 0.44736 0.0
H1936 H 0.36052 0.96803 0.44854 0.0
H1937 H 0.38289 0.98244 0.38418 0.0
H1938 H 0.38812 0.01601 0.47517 0.0
H1939 H 0.36003 0.01946 0.46856 0.0
H1940 H 0.3672 0.9934 0.47799 0.0
H1941 H 0.40068 0.01609 0.3752 0.0
H1942 H 0.38962 0.03849 0.38932 0.0
H1943 H 0.41606 0.03064 0.39731 0.0
H1944 H 0.37763 0.08926 0.42397 0.0
H1945 H 0.44153 0.07133 0.44227 0.0
H1946 H 0.34736 0.03661 0.43626 0.0
H1947 H 0.35334 0.04301 0.40861 0.0
H1948 H 0.34538 0.06407 0.42686 0.0
H1949 H 0.42289 0.01499 0.45747 0.0
H1950 H 0.44607 0.03555 0.45608 0.0
H1951 H 0.43586 0.02019 0.43201 0.0
C1952 C 0.12302 0.49567 0.17442 0.0
C1953 C 0.10973 0.47636 0.17858 0.0
C1954 C 0.11558 0.51124 0.16037 0.0
C1955 C 0.09442 0.50729 0.15023 0.0
C1956 C 0.07994 0.48934 0.15661 0.0
C1957 C 0.08773 0.47414 0.17088 0.0
C1958 C 0.13126 0.53071 0.15462 0.0
C1959 C 0.05711 0.48469 0.14662 0.0
C1960 C 0.0809 0.55397 0.11466 0.0
C1961 C 0.09044 0.54798 0.09508 0.0
C1962 C 0.08027 0.54002 0.13248 0.0
C1963 C 0.08935 0.51971 0.13056 0.0
C1964 C 0.09663 0.51259 0.11009 0.0
C1965 C 0.09702 0.52681 0.09256 0.0
C1966 C 0.07109 0.54751 0.15367 0.0
C1967 C 0.10586 0.49073 0.10718 0.0
H1968 H 0.13989 0.49777 0.18061 0.0
H1969 H 0.07711 0.45947 0.17429 0.0
H1970 H 0.13732 0.52814 0.13796 0.0
H1971 H 0.12275 0.5459 0.15467 0.0
H1972 H 0.14569 0.53314 0.16608 0.0
H1973 H 0.04609 0.47475 0.15751 0.0
H1974 H 0.04966 0.50002 0.14292 0.0
H1975 H 0.05806 0.47523 0.1311 0.0
H1976 H 0.07538 0.57017 0.11661 0.0
H1977 H 0.10411 0.52193 0.0774 0.0
H1978 H 0.08323 0.54651 0.16724 0.0
H1979 H 0.05628 0.53649 0.15752 0.0
H1980 H 0.06641 0.56456 0.15304 0.0
H1981 H 0.12174 0.49102 0.11642 0.0
H1982 H 0.10879 0.48675 0.08982 0.0
H1983 H 0.09448 0.4774 0.1137 0.0
C1984 C 0.08109 0.55582 0.87172 0.0
C1985 C 0.08527 0.54732 0.85094 0.0
C1986 C 0.08239 0.54297 0.89023 0.0
C1987 C 0.08815 0.52125 0.88785 0.0
C1988 C 0.08991 0.51191 0.8667 0.0
C1989 C 0.08828 0.52504 0.84848 0.0
C1990 C 0.07959 0.55344 0.91234 0.0
C1991 C 0.09572 0.48866 0.86335 0.0
C1992 C 0.12678 0.49542 0.92591 0.0
C1993 C 0.11299 0.47753 0.93306 0.0
C1994 C 0.11842 0.51125 0.91278 0.0
C1995 C 0.0957 0.50925 0.90695 0.0
C1996 C 0.0813 0.49311 0.91671 0.0
C1997 C 0.09012 0.47735 0.92964 0.0
C1998 C 0.1343 0.52867 0.90323 0.0
C1999 C 0.05685 0.49113 0.91178 0.0
H2000 H 0.07847 0.57299 0.8738 0.0
H2001 H 0.09131 0.51829 0.83249 0.0
H2002 H 0.07311 0.54124 0.9242 0.0
H2003 H 0.09581 0.56103 0.91864 0.0
H2004 H 0.06833 0.56659 0.91131 0.0
H2005 H 0.09451 0.48327 0.84594 0.0
H2006 H 0.11284 0.48748 0.86938 0.0
H2007 H 0.08472 0.47715 0.87275 0.0
H2008 H 0.14441 0.49598 0.92878 0.0
H2009 H 0.07921 0.46387 0.93551 0.0
H2010 H 0.12803 0.545 0.90491 0.0
H2011 H 0.13591 0.52505 0.88559 0.0
H2012 H 0.15091 0.52949 0.91117 0.0
H2013 H 0.05067 0.50755 0.911 0.0
H2014 H 0.04756 0.48143 0.92419 0.0
H2015 H 0.05343 0.48274 0.89569 0.0
C2016 C 0.02107 0.59621 0.35201 0.0
C2017 C 0.04286 0.59119 0.35053 0.0
C2018 C 1.01028 0.59468 0.37182 0.0
C2019 C 0.02174 0.58815 0.39053 0.0
C2020 C 0.04211 0.57921 0.38807 0.0
C2021 C 0.05248 0.58074 0.36789 0.0
C2022 C 0.98796 0.60325 0.37324 0.0
C2023 C 0.05385 0.56959 0.40688 0.0
C2024 C 1.01031 0.6297 0.43323 0.0
C2025 C 0.99098 0.61948 0.44174 0.0
C2026 C 0.02253 0.61847 0.41841 0.0
C2027 C 0.0152 0.59651 0.41212 0.0
C2028 C 0.99816 0.58506 0.42365 0.0
C2029 C 0.98606 0.59675 0.43836 0.0
C2030 C 0.04146 0.63106 0.40735 0.0
C2031 C 0.99117 0.56117 0.41865 0.0
H2032 H 0.0134 0.60379 0.3384 0.0
H2033 H 0.06914 0.57622 0.36663 0.0
H2034 H 0.97721 0.59341 0.38437 0.0
H2035 H 0.99003 0.62043 0.37969 0.0
H2036 H 0.97952 0.60303 0.35703 0.0
H2037 H 0.07199 0.5729 0.40566 0.0
H2038 H 0.0488 0.57571 0.42293 0.0
H2039 H 0.04987 0.55152 0.4062 0.0
H2040 H 0.01459 0.64712 0.43628 0.0
H2041 H 0.97144 0.58853 0.44531 0.0
H2042 H 0.03599 0.63552 0.39083 0.0
H2043 H 0.05541 0.62089 0.4055 0.0
H2044 H 0.04745 0.6464 0.41656 0.0
H2045 H 0.98086 0.55958 0.40347 0.0
H2046 H 0.9814 0.55353 0.43198 0.0
H2047 H 1.00576 0.55204 0.41601 0.0
C2048 C 0.93026 0.55595 0.91827 0.0
C2049 C 0.90903 0.55366 0.92671 0.0
C2050 C 0.93663 0.54107 0.90245 0.0
C2051 C 0.92123 0.52379 0.89457 0.0
C2052 C 0.9003 0.52053 0.90413 0.0
C2053 C 0.89451 0.53543 0.92023 0.0
C2054 C 0.95936 0.54461 0.89327 0.0
C2055 C 0.88341 0.50225 0.89623 0.0
C2056 C 0.92041 0.50521 0.83533 0.0
C2057 C 0.92645 0.48382 0.83686 0.0
C2058 C 0.91975 0.51878 0.85395 0.0
C2059 C 0.92572 0.51096 0.87455 0.0
C2060 C 0.93386 0.49016 0.8759 0.0
C2061 C 0.93399 0.47675 0.85704 0.0
C2062 C 0.91097 0.54081 0.85174 0.0
C2063 C 0.94095 0.48133 0.89739 0.0
H2064 H 0.94167 0.56988 0.92339 0.0
H2065 H 0.87809 0.53356 0.92669 0.0
H2066 H 0.96682 0.52883 0.89184 0.0
H2067 H 0.95825 0.55123 0.87668 0.0
H2068 H 0.97047 0.55634 0.90349 0.0
H2069 H 0.86853 0.50101 0.90634 0.0
H2070 H 0.87832 0.50514 0.87917 0.0
H2071 H 0.89061 0.48631 0.89637 0.0
H2072 H 0.91462 0.51083 0.81983 0.0
H2073 H 0.93878 0.46024 0.85839 0.0
H2074 H 0.92271 0.55393 0.85927 0.0
H2075 H 0.89526 0.54091 0.86046 0.0
H2076 H 0.9079 0.5448 0.83447 0.0
H2077 H 0.94923 0.49454 0.90819 0.0
H2078 H 0.95227 0.46837 0.89505 0.0
H2079 H 0.92624 0.47398 0.90577 0.0
C2080 C 0.06473 0.4454 0.40191 0.0
C2081 C 0.06309 0.4248 0.41161 0.0
C2082 C 0.04879 0.45071 0.3866 0.0
C2083 C 0.03086 0.43507 0.381 0.0
C2084 C 0.0282 0.41503 0.39214 0.0
C2085 C 0.04441 0.41012 0.40724 0.0
C2086 C 0.05204 0.47235 0.37534 0.0
C2087 C 1.00902 0.39805 0.387 0.0
C2088 C 0.97963 0.4417 0.34735 0.0
C2089 C 0.98405 0.42959 0.3286 0.0
C2090 C 0.99569 0.44584 0.36406 0.0
C2091 C 0.01651 0.43785 0.36164 0.0
C2092 C 0.02188 0.42833 0.34147 0.0
C2093 C 1.00546 0.42415 0.32522 0.0
C2094 C 0.98944 0.45639 0.38516 0.0
C2095 C 0.04409 0.4201 0.33795 0.0
H2096 H 0.07911 0.4569 0.40528 0.0
H2097 H 0.0429 0.39432 0.41493 0.0
H2098 H 0.05914 0.46974 0.35914 0.0
H2099 H 0.03614 0.47938 0.37269 0.0
H2100 H 0.06347 0.48446 0.38479 0.0
H2101 H 1.0083 0.3843 0.39849 0.0
H2102 H 0.99327 0.40565 0.38758 0.0
H2103 H 1.01047 0.39121 0.37026 0.0
H2104 H 0.96301 0.44584 0.35003 0.0
H2105 H 1.00887 0.41491 0.31061 0.0
H2106 H 1.00358 0.46682 0.39273 0.0
H2107 H 0.98429 0.44338 0.39676 0.0
H2108 H 0.97548 0.46651 0.38268 0.0
H2109 H 0.05752 0.43238 0.344 0.0
H2110 H 0.0467 0.4163 0.3205 0.0
H2111 H 0.0453 0.40491 0.34721 0.0
C2112 C 0.91305 0.50355 0.07537 0.0
C2113 C 0.9221 0.48351 0.07749 0.0
C2114 C 0.91314 0.51841 0.09307 0.0
C2115 C 0.92273 0.51316 0.11325 0.0
C2116 C 0.93398 0.49411 0.11477 0.0
C2117 C 0.93347 0.47943 0.09686 0.0
C2118 C 0.90122 0.53875 0.09069 0.0
C2119 C 0.94497 0.4883 0.13582 0.0
C2120 C 0.92647 0.55894 0.15608 0.0
C2121 C 0.90683 0.55402 0.16719 0.0
C2122 C 0.9325 0.54521 0.13912 0.0
C2123 C 0.91853 0.52618 0.13313 0.0
C2124 C 0.89934 0.52048 0.1451 0.0
C2125 C 0.89375 0.53446 0.16207 0.0
C2126 C 0.95335 0.55151 0.12708 0.0
C2127 C 0.88403 0.50023 0.13919 0.0
H2128 H 0.90439 0.50692 0.06041 0.0
H2129 H 0.94069 0.46405 0.09859 0.0
H2130 H 0.88574 0.53684 0.09986 0.0
H2131 H 0.91134 0.55337 0.09765 0.0
H2132 H 0.89703 0.54182 0.07342 0.0
H2133 H 0.95643 0.47551 0.13323 0.0
H2134 H 0.95424 0.50297 0.14369 0.0
H2135 H 0.93222 0.48201 0.14726 0.0
H2136 H 0.93679 0.57396 0.16009 0.0
H2137 H 0.87858 0.53059 0.17059 0.0
H2138 H 0.94947 0.55352 0.10956 0.0
H2139 H 0.96442 0.53823 0.12815 0.0
H2140 H 0.96232 0.567 0.13365 0.0
H2141 H 0.87677 0.50182 0.12265 0.0
H2142 H 0.87043 0.49752 0.15081 0.0
H2143 H 0.89329 0.48552 0.13883 0.0
C2144 C 0.97755 0.44127 0.59364 0.0
C2145 C 0.98124 0.42611 0.57697 0.0
C2146 C 0.99332 0.44636 0.61045 0.0
C2147 C 0.01315 0.43617 0.61032 0.0
C2148 C 0.01788 0.42285 0.59219 0.0
C2149 C 1.00175 0.41783 0.57581 0.0
C2150 C 0.98776 0.46089 0.6293 0.0
C2151 C 0.0391 0.41209 0.5911 0.0
C2152 C 0.0626 0.44624 0.64856 0.0
C2153 C 0.05985 0.42738 0.66109 0.0
C2154 C 0.04645 0.45068 0.63308 0.0
C2155 C 0.02721 0.43596 0.63032 0.0
C2156 C 0.0233 0.41838 0.64472 0.0
C2157 C 0.03977 0.41422 0.65985 0.0
C2158 C 0.05097 0.46987 0.61839 0.0
C2159 C 1.00266 0.40266 0.64277 0.0
H2160 H 0.96164 0.44766 0.59461 0.0
H2161 H 1.00466 0.40628 0.56279 0.0
H2162 H 0.98084 0.4505 0.6425 0.0
H2163 H 1.00261 0.4709 0.63601 0.0
H2164 H 0.97528 0.47201 0.62441 0.0
H2165 H 0.04136 0.40454 0.57479 0.0
H2166 H 0.05343 0.42421 0.59498 0.0
H2167 H 0.03904 0.39907 0.60334 0.0
H2168 H 0.07808 0.45654 0.64953 0.0
H2169 H 0.03747 0.39984 0.6698 0.0
H2170 H 0.03572 0.47773 0.61473 0.0
H2171 H 0.05724 0.46398 0.60272 0.0
H2172 H 0.06354 0.4824 0.62573 0.0
H2173 H 0.98785 0.41177 0.64159 0.0
H2174 H 1.00093 0.39162 0.65682 0.0
H2175 H 1.00309 0.39241 0.62767 0.0
C2176 C 0.05266 0.58464 0.61329 0.0
C2177 C 0.04493 0.59637 0.59585 0.0
C2178 C 0.0406 0.5823 0.63238 0.0
C2179 C 0.0204 0.59173 0.63371 0.0
C2180 C 1.01103 0.60033 0.61479 0.0
C2181 C 0.02357 0.60273 0.5961 0.0
C2182 C 0.05098 0.5722 0.6517 0.0
C2183 C 0.98911 0.60985 0.61512 0.0
C2184 C 0.98007 0.59619 0.6783 0.0
C2185 C 0.9851 0.61841 0.6842 0.0
C2186 C 0.99337 0.58577 0.66376 0.0
C2187 C 1.01183 0.598 0.65513 0.0
C2188 C 0.01888 0.61914 0.66401 0.0
C2189 C 1.00534 0.62913 0.67849 0.0
C2190 C 0.98622 0.56269 0.65572 0.0
C2191 C 0.03908 0.63242 0.65599 0.0
H2192 H 0.06918 0.57954 0.6131 0.0
H2193 H 0.01751 0.61151 0.58244 0.0
H2194 H 0.06482 0.58372 0.65827 0.0
H2195 H 0.03921 0.56836 0.66485 0.0
H2196 H 0.05803 0.55692 0.64651 0.0
H2197 H 0.98287 0.613 0.59847 0.0
H2198 H 0.97663 0.59863 0.62314 0.0
H2199 H 0.9909 0.62562 0.62457 0.0
H2200 H 0.96457 0.58767 0.683 0.0
H2201 H 1.00949 0.64615 0.68351 0.0
H2202 H 1.00068 0.55357 0.65235 0.0
H2203 H 0.97646 0.56321 0.64031 0.0
H2204 H 0.97577 0.55361 0.66772 0.0
H2205 H 0.05333 0.62247 0.65592 0.0
H2206 H 0.04348 0.64749 0.66616 0.0
H2207 H 0.03602 0.63738 0.63902 0.0
C2208 C 0.01555 0.15398 0.37318 0.0
C2209 C 1.00203 0.13402 0.37248 0.0
C2210 C 0.03872 0.15466 0.37227 0.0
C2211 C 0.04903 0.13489 0.37088 0.0
C2212 C 0.03543 0.11471 0.36915 0.0
C2213 C 0.01222 0.11452 0.36987 0.0
C2214 C 0.05224 0.17662 0.37394 0.0
C2215 C 0.04542 0.09317 0.36782 0.0
C2216 C 0.11155 0.13874 0.36012 0.0
C2217 C 0.12062 0.13967 0.38139 0.0
C2218 C 0.08835 0.13676 0.35629 0.0
C2219 C 0.07379 0.13533 0.37408 0.0
C2220 C 0.08301 0.13536 0.39546 0.0
C2221 C 0.10603 0.13764 0.39879 0.0
C2222 C 0.07942 0.13695 0.33323 0.0
C2223 C 0.06851 0.13356 0.41504 0.0
H2224 H 1.00803 0.16921 0.37515 0.0
H2225 H 1.00211 0.09896 0.36944 0.0
H2226 H 0.06107 0.17837 0.38997 0.0
H2227 H 0.06484 0.17778 0.3612 0.0
H2228 H 0.04193 0.19049 0.37228 0.0
H2229 H 0.03289 0.07917 0.36386 0.0
H2230 H 0.05827 0.09368 0.35533 0.0
H2231 H 0.05352 0.09017 0.38367 0.0
H2232 H 0.12251 0.1404 0.34653 0.0
H2233 H 0.11268 0.13809 0.41532 0.0
H2234 H 0.071 0.15201 0.33088 0.0
H2235 H 0.06699 0.12273 0.33003 0.0
H2236 H 0.09258 0.13649 0.32111 0.0
H2237 H 0.05902 0.14808 0.41623 0.0
H2238 H 0.07812 0.13251 0.43049 0.0
H2239 H 0.05647 0.11883 0.41325 0.0
C2240 C 0.4042 0.41911 0.87303 0.0
C2241 C 0.38597 0.4043 0.86665 0.0
C2242 C 0.40428 0.44196 0.87023 0.0
C2243 C 0.38546 0.45067 0.86122 0.0
C2244 C 0.36748 0.43571 0.85361 0.0
C2245 C 0.36801 0.41282 0.85625 0.0
C2246 C 0.42408 0.4569 0.87822 0.0
C2247 C 0.34694 0.44398 0.84408 0.0
C2248 C 0.37427 0.50839 0.88145 0.0
C2249 C 0.38031 0.52174 0.86382 0.0
C2250 C 0.37575 0.4855 0.88068 0.0
C2251 C 0.38377 0.47527 0.8619 0.0
C2252 C 0.39033 0.48868 0.84418 0.0
C2253 C 0.38838 0.51159 0.84527 0.0
C2254 C 0.36838 0.47217 0.89998 0.0
C2255 C 0.39931 0.47878 0.82396 0.0
H2256 H 0.41812 0.41289 0.88126 0.0
H2257 H 0.35361 0.40176 0.85168 0.0
H2258 H 0.4289 0.46924 0.86586 0.0
H2259 H 0.4199 0.46596 0.89317 0.0
H2260 H 0.43842 0.44768 0.88206 0.0
H2261 H 0.33545 0.43049 0.83673 0.0
H2262 H 0.33829 0.45232 0.85708 0.0
H2263 H 0.35119 0.45622 0.83148 0.0
H2264 H 0.36785 0.51578 0.89585 0.0
H2265 H 0.39301 0.52153 0.83147 0.0
H2266 H 0.38227 0.46376 0.90663 0.0
H2267 H 0.35512 0.45929 0.89481 0.0
H2268 H 0.36217 0.4824 0.91322 0.0
H2269 H 0.41377 0.46994 0.82832 0.0
H2270 H 0.40433 0.49134 0.81184 0.0
H2271 H 0.3867 0.46656 0.81627 0.0
C2272 C 0.01858 0.92499 0.37666 0.0
C2273 C 0.02913 0.90556 0.37668 0.0
C2274 C 0.99533 0.92455 0.3767 0.0
C2275 C 0.98201 0.9042 0.37656 0.0
C2276 C 0.99258 0.88457 0.37532 0.0
C2277 C 0.01582 0.88548 0.37553 0.0
C2278 C 0.98508 0.94595 0.37819 0.0
C2279 C 0.97935 0.86244 0.37492 0.0
C2280 C 0.92724 0.89929 0.40604 0.0
C2281 C 0.91129 0.8982 0.38902 0.0
C2282 C 0.94998 0.90192 0.40216 0.0
C2283 C 0.9575 0.90328 0.38057 0.0
C2284 C 0.94155 0.9028 0.36322 0.0
C2285 C 0.91868 0.90044 0.36763 0.0
C2286 C 0.966 0.90266 0.42134 0.0
C2287 C 0.94866 0.90404 0.33993 0.0
H2288 H 0.02852 0.94064 0.37769 0.0
H2289 H 0.0236 0.87031 0.3755 0.0
H2290 H 0.97127 0.94602 0.36614 0.0
H2291 H 0.9782 0.9479 0.39459 0.0
H2292 H 0.99719 0.96027 0.37542 0.0
H2293 H 0.98963 0.84886 0.37129 0.0
H2294 H 0.97181 0.85962 0.39098 0.0
H2295 H 0.96576 0.86189 0.36256 0.0
H2296 H 0.9219 0.89782 0.42268 0.0
H2297 H 0.90665 0.89949 0.35431 0.0
H2298 H 0.97783 0.91756 0.42085 0.0
H2299 H 0.97565 0.88824 0.4205 0.0
H2300 H 0.95761 0.90267 0.43718 0.0
H2301 H 0.96077 0.91851 0.33793 0.0
H2302 H 0.93455 0.90507 0.32839 0.0
H2303 H 0.95696 0.88926 0.33558 0.0
C2304 C 0.62874 0.49763 0.84701 0.0
C2305 C 0.64009 0.48909 0.86458 0.0
C2306 C 0.62687 0.52048 0.84549 0.0
C2307 C 0.63694 0.53544 0.86165 0.0
C2308 C 0.64835 0.52684 0.87939 0.0
C2309 C 0.6496 0.50399 0.88071 0.0
C2310 C 0.61413 0.52863 0.82652 0.0
C2311 C 0.65961 0.54185 0.89697 0.0
C2312 C 0.65204 0.59705 0.85218 0.0
C2313 C 0.63664 0.60685 0.86487 0.0
C2314 C 0.65172 0.57389 0.85004 0.0
C2315 C 0.63539 0.56 0.8605 0.0
C2316 C 0.61885 0.56993 0.87192 0.0
C2317 C 0.61987 0.59303 0.87421 0.0
C2318 C 0.66991 0.56433 0.83794 0.0
C2319 C 0.60077 0.55614 0.88296 0.0
H2320 H 0.62137 0.48646 0.83436 0.0
H2321 H 0.6586 0.49784 0.8943 0.0
H2322 H 0.60082 0.53812 0.83256 0.0
H2323 H 0.62514 0.5399 0.81686 0.0
H2324 H 0.60671 0.51502 0.81564 0.0
H2325 H 0.66837 0.53278 0.90935 0.0
H2326 H 0.67165 0.55408 0.88962 0.0
H2327 H 0.64731 0.55106 0.9053 0.0
H2328 H 0.66542 0.60741 0.84537 0.0
H2329 H 0.60805 0.60031 0.8843 0.0
H2330 H 0.66306 0.551 0.8265 0.0
H2331 H 0.68097 0.55704 0.84974 0.0
H2332 H 0.67987 0.57691 0.82869 0.0
H2333 H 0.59347 0.54272 0.87183 0.0
H2334 H 0.58749 0.56602 0.88842 0.0
H2335 H 0.60772 0.54845 0.8974 0.0
C2336 C 1.00414 0.90858 0.65694 0.0
C2337 C 0.99384 0.89079 0.64443 0.0
C2338 C 0.02743 0.91145 0.66009 0.0
C2339 C 0.04083 0.89604 0.65084 0.0
C2340 C 0.03042 0.87808 0.63837 0.0
C2341 C 1.0074 0.8758 0.63526 0.0
C2342 C 0.03774 0.93102 0.67326 0.0
C2343 C 0.04363 0.86099 0.6283 0.0
C2344 C 0.10218 0.90609 0.63829 0.0
C2345 C 0.11213 0.89447 0.65469 0.0
C2346 C 0.0793 0.90817 0.63777 0.0
C2347 C 0.06567 0.89822 0.65388 0.0
C2348 C 0.07582 0.8875 0.67113 0.0
C2349 C 0.0988 0.88585 0.67138 0.0
C2350 C 0.06957 0.91993 0.61912 0.0
C2351 C 0.06218 0.87639 0.68859 0.0
H2352 H 0.99406 0.9203 0.66417 0.0
H2353 H 0.99998 0.86181 0.62569 0.0
H2354 H 0.04696 0.92546 0.68752 0.0
H2355 H 0.04976 0.94085 0.66328 0.0
H2356 H 0.0253 0.94173 0.6791 0.0
H2357 H 0.03309 0.84774 0.61939 0.0
H2358 H 0.05551 0.86878 0.61678 0.0
H2359 H 0.05328 0.85345 0.64114 0.0
H2360 H 0.11215 0.91287 0.62527 0.0
H2361 H 0.10611 0.87673 0.68409 0.0
H2362 H 0.05772 0.93115 0.62517 0.0
H2363 H 0.06039 0.90777 0.60777 0.0
H2364 H 0.08241 0.92954 0.60984 0.0
H2365 H 0.0504 0.88744 0.69507 0.0
H2366 H 0.07254 0.87126 0.70229 0.0
H2367 H 0.05241 0.86161 0.68147 0.0
C2368 C 0.64691 0.50464 0.15442 0.0
C2369 C 0.62673 0.49141 0.1538 0.0
C2370 C 0.64787 0.52784 0.15562 0.0
C2371 C 0.62819 0.53848 0.1559 0.0
C2372 C 0.6078 0.52519 0.15608 0.0
C2373 C 0.60732 0.502 0.15516 0.0
C2374 C 0.67006 0.54102 0.15566 0.0
C2375 C 0.58632 0.53546 0.15608 0.0
C2376 C 0.63184 0.60102 0.16902 0.0
C2377 C 0.63329 0.60987 0.14816 0.0
C2378 C 0.62986 0.57792 0.1719 0.0
C2379 C 0.62893 0.56319 0.15353 0.0
C2380 C 0.62944 0.57219 0.13249 0.0
C2381 C 0.6318 0.59513 0.13013 0.0
C2382 C 0.62964 0.56929 0.19466 0.0
C2383 C 0.62807 0.55752 0.1123 0.0
H2384 H 0.66207 0.49686 0.15335 0.0
H2385 H 0.59157 0.49217 0.15454 0.0
H2386 H 0.67213 0.54949 0.13998 0.0
H2387 H 0.67121 0.55385 0.16881 0.0
H2388 H 0.68381 0.5306 0.15791 0.0
H2389 H 0.57201 0.52319 0.15843 0.0
H2390 H 0.58661 0.54835 0.1691 0.0
H2391 H 0.58394 0.5435 0.14032 0.0
H2392 H 0.63328 0.61209 0.1831 0.0
H2393 H 0.63284 0.60165 0.1139 0.0
H2394 H 0.64467 0.56088 0.1977 0.0
H2395 H 0.61529 0.55698 0.1965 0.0
H2396 H 0.62901 0.58256 0.2072 0.0
H2397 H 0.64267 0.54808 0.11177 0.0
H2398 H 0.62731 0.56694 0.09712 0.0
H2399 H 0.61329 0.5455 0.11265 0.0
C2400 C 0.94294 0.14494 0.6623 0.0
C2401 C 0.92837 0.13409 0.64661 0.0
C2402 C 0.96587 0.14303 0.662 0.0
C2403 C 0.97469 0.12971 0.64579 0.0
C2404 C 0.95984 0.11764 0.63077 0.0
C2405 C 0.93706 0.12009 0.63126 0.0
C2406 C 0.98082 0.15653 0.67817 0.0
C2407 C 0.96813 0.10305 0.61329 0.0
C2408 C 0.03173 0.14774 0.62432 0.0
C2409 C 0.04566 0.1339 0.63468 0.0
C2410 C 1.00902 0.14665 0.62809 0.0
C2411 C 0.9993 0.13101 0.64244 0.0
C2412 C 0.01314 0.1169 0.65308 0.0
C2413 C 0.03616 0.11867 0.64931 0.0
C2414 C 0.99539 0.16242 0.61661 0.0
C2415 C 1.00353 0.09971 0.6682 0.0
H2416 H 0.93661 0.15593 0.67416 0.0
H2417 H 0.92612 0.11157 0.61901 0.0
H2418 H 0.99294 0.14638 0.6856 0.0
H2419 H 0.99022 0.17 0.66961 0.0
H2420 H 0.9715 0.16384 0.69134 0.0
H2421 H 0.95457 0.0922 0.60517 0.0
H2422 H 0.97645 0.11334 0.60074 0.0
H2423 H 0.9804 0.09274 0.62023 0.0
H2424 H 0.03868 0.15987 0.61322 0.0
H2425 H 0.04657 0.10789 0.65745 0.0
H2426 H 0.98662 0.17186 0.6287 0.0
H2427 H 0.98273 0.15319 0.60582 0.0
H2428 H 1.00552 0.1742 0.60661 0.0
H2429 H 0.99499 0.10754 0.6816 0.0
H2430 H 0.01629 0.09006 0.67535 0.0
H2431 H 0.99105 0.08832 0.65922 0.0
C2432 C 0.4149 0.51789 0.1582 0.0
C2433 C 0.39548 0.52802 0.1543 0.0
C2434 C 0.41479 0.49477 0.15888 0.0
C2435 C 0.39477 0.48108 0.15579 0.0
C2436 C 0.37498 0.49126 0.15292 0.0
C2437 C 0.37559 0.51441 0.15208 0.0
C2438 C 0.43637 0.48497 0.16179 0.0
C2439 C 0.35315 0.47763 0.14977 0.0
C2440 C 0.39453 0.42371 0.12918 0.0
C2441 C 0.39149 0.4095 0.14674 0.0
C2442 C 0.39634 0.44674 0.13207 0.0
C2443 C 0.39472 0.45633 0.15312 0.0
C2444 C 0.39229 0.44213 0.17111 0.0
C2445 C 0.39086 0.41896 0.16775 0.0
C2446 C 0.3993 0.46082 0.11232 0.0
C2447 C 0.39029 0.45141 0.19383 0.0
H2448 H 0.43044 0.52802 0.15981 0.0
H2449 H 0.36043 0.52181 0.14903 0.0
H2450 H 0.43514 0.47247 0.17457 0.0
H2451 H 0.44034 0.47655 0.14639 0.0
H2452 H 0.45016 0.49758 0.16624 0.0
H2453 H 0.33906 0.48782 0.15014 0.0
H2454 H 0.35269 0.46865 0.13385 0.0
H2455 H 0.35105 0.46522 0.16259 0.0
H2456 H 0.39506 0.41672 0.11284 0.0
H2457 H 0.38816 0.40828 0.18143 0.0
H2458 H 0.41376 0.47312 0.11486 0.0
H2459 H 0.38465 0.46994 0.10983 0.0
H2460 H 0.40164 0.451 0.09727 0.0
H2461 H 0.4041 0.46414 0.19772 0.0
H2462 H 0.39016 0.43855 0.20627 0.0
H2463 H 0.37482 0.45946 0.19487 0.0
C2464 C 0.35746 0.01349 0.12224 0.0
C2465 C 0.3787 0.02468 0.12286 0.0
C2466 C 0.35427 0.99015 0.12131 0.0
C2467 C 0.37268 0.97754 0.12051 0.0
C2468 C 0.39403 0.9889 0.12031 0.0
C2469 C 0.39673 1.01202 0.12168 0.0
C2470 C 0.33121 0.97895 0.12186 0.0
C2471 C 0.41426 0.97658 0.11904 0.0
C2472 C 0.37313 0.91847 0.14036 0.0
C2473 C 0.37225 0.90591 0.12082 0.0
C2474 C 0.37188 0.94143 0.14054 0.0
C2475 C 0.37011 0.95259 0.12067 0.0
C2476 C 0.36839 0.93989 0.10093 0.0
C2477 C 0.36931 0.91685 0.10125 0.0
C2478 C 0.37346 0.95391 0.16207 0.0
C2479 C 0.36681 0.9508 0.07928 0.0
H2480 H 0.34338 0.02292 0.1233 0.0
H2481 H 0.41325 0.0203 0.12194 0.0
H2482 H 0.32815 0.96712 0.10792 0.0
H2483 H 0.32926 0.96945 0.13695 0.0
H2484 H 0.31857 0.99082 0.12135 0.0
H2485 H 0.4296 0.98773 0.11772 0.0
H2486 H 0.41574 0.96668 0.13378 0.0
H2487 H 0.41279 0.96506 0.10476 0.0
H2488 H 0.37539 0.91039 0.15564 0.0
H2489 H 0.3688 0.90754 0.086 0.0
H2490 H 0.36033 0.96519 0.16301 0.0
H2491 H 0.3895 0.96408 0.16355 0.0
H2492 H 0.37208 0.9428 0.1761 0.0
H2493 H 0.35376 0.96219 0.07943 0.0
H2494 H 0.36328 0.93869 0.0656 0.0
H2495 H 0.3826 0.96068 0.07626 0.0
C2496 C 0.50168 0.88536 0.61777 0.0
C2497 C 0.48827 0.86555 0.61971 0.0
C2498 C 0.52485 0.8859 0.61674 0.0
C2499 C 0.53524 0.86619 0.61804 0.0
C2500 C 0.52173 0.84605 0.61913 0.0
C2501 C 0.49855 0.84596 0.61981 0.0
C2502 C 0.53829 0.90779 0.61524 0.0
C2503 C 0.53183 0.82461 0.62082 0.0
C2504 C 0.59719 0.86839 0.60544 0.0
C2505 C 0.60702 0.87274 0.62618 0.0
C2506 C 0.57392 0.86568 0.60247 0.0
C2507 C 0.56007 0.867 0.62068 0.0
C2508 C 0.5701 0.8703 0.6417 0.0
C2509 C 0.59321 0.87335 0.64411 0.0
C2510 C 0.56416 0.8625 0.57973 0.0
C2511 C 0.55636 0.87143 0.66174 0.0
H2512 H 0.49409 0.90064 0.61767 0.0
H2513 H 0.48853 0.83052 0.62147 0.0
H2514 H 0.54759 0.91173 0.63079 0.0
H2515 H 0.5505 0.90713 0.60221 0.0
H2516 H 0.52787 0.92127 0.61188 0.0
H2517 H 0.51928 0.81024 0.61925 0.0
H2518 H 0.5442 0.82318 0.60807 0.0
H2519 H 0.54054 0.8241 0.63683 0.0
H2520 H 0.60763 0.86831 0.59142 0.0
H2521 H 0.60059 0.8768 0.6602 0.0
H2522 H 0.55596 0.87722 0.57529 0.0
H2523 H 0.5514 0.8483 0.57891 0.0
H2524 H 0.57682 0.85983 0.56753 0.0
H2525 H 0.5471 0.88612 0.66123 0.0
H2526 H 0.56654 0.87232 0.67701 0.0
H2527 H 0.54412 0.85684 0.66217 0.0
C2528 C 0.65008 0.0993 0.1019 0.0
C2529 C 0.64818 0.11161 0.12128 0.0
C2530 C 0.65102 0.07625 0.10197 0.0
C2531 C 0.65041 0.06495 0.12192 0.0
C2532 C 0.64969 0.07751 0.14158 0.0
C2533 C 0.64837 0.10045 0.14102 0.0
C2534 C 0.65142 0.06382 0.08053 0.0
C2535 C 0.64935 0.06658 0.16332 0.0
C2536 C 0.62413 1.00552 0.124 0.0
C2537 C 0.64229 0.99304 0.12529 0.0
C2538 C 0.62663 0.02854 0.12224 0.0
C2539 C 0.64794 0.04 0.1222 0.0
C2540 C 0.66646 0.02754 0.12315 0.0
C2541 C 0.66344 1.00426 0.12444 0.0
C2542 C 0.60627 0.04066 0.1208 0.0
C2543 C 0.68951 0.03887 0.12349 0.0
H2544 H 0.64975 0.10752 0.08651 0.0
H2545 H 0.64692 0.10959 0.15614 0.0
H2546 H 0.66454 0.05251 0.08085 0.0
H2547 H 0.63551 0.05365 0.07771 0.0
H2548 H 0.65411 0.07494 0.06664 0.0
H2549 H 0.65147 0.07868 0.17715 0.0
H2550 H 0.63343 0.05648 0.16499 0.0
H2551 H 0.66258 0.05541 0.16444 0.0
H2552 H 0.60766 0.99719 0.12443 0.0
H2553 H 0.67764 0.99498 0.12559 0.0
H2554 H 0.60688 0.05119 0.10635 0.0
H2555 H 0.60555 0.05158 0.13538 0.0
H2556 H 0.5909 0.02936 0.11968 0.0
H2557 H 0.69175 0.04967 0.10933 0.0
H2558 H 0.70219 0.02703 0.1232 0.0
H2559 H 0.69224 0.04947 0.13838 0.0
C2560 C 0.54127 0.18126 0.61722 0.0
C2561 C 0.55028 0.16096 0.6164 0.0
C2562 C 0.51822 0.18255 0.6168 0.0
C2563 C 0.50351 0.16311 0.61547 0.0
C2564 C 0.51253 0.14265 0.61352 0.0
C2565 C 0.53562 0.14182 0.61406 0.0
C2566 C 0.50962 0.20475 0.61892 0.0
C2567 C 0.49775 0.12142 0.61191 0.0
C2568 C 0.44744 0.16003 0.64249 0.0
C2569 C 0.43245 0.16002 0.62478 0.0
C2570 C 0.47039 0.16207 0.63972 0.0
C2571 C 0.47901 0.16385 0.61855 0.0
C2572 C 0.464 0.16488 0.60059 0.0
C2573 C 0.44094 0.16301 0.6039 0.0
C2574 C 0.48541 0.16114 0.65949 0.0
C2575 C 0.47224 0.16671 0.57773 0.0
H2576 H 0.55224 0.19621 0.61912 0.0
H2577 H 0.54218 0.12601 0.61343 0.0
H2578 H 0.49649 0.20638 0.60645 0.0
H2579 H 0.50221 0.20647 0.63511 0.0
H2580 H 0.52281 0.21836 0.61724 0.0
H2581 H 0.50704 0.10709 0.60833 0.0
H2582 H 0.48924 0.1187 0.62751 0.0
H2583 H 0.48488 0.12227 0.599 0.0
H2584 H 0.4411 0.15748 0.65866 0.0
H2585 H 0.42959 0.1625 0.59003 0.0
H2586 H 0.49837 0.17515 0.65982 0.0
H2587 H 0.49378 0.14587 0.6587 0.0
H2588 H 0.47634 0.16148 0.67493 0.0
H2589 H 0.48588 0.17998 0.57694 0.0
H2590 H 0.459 0.16998 0.56589 0.0
H2591 H 0.47886 0.15116 0.57275 0.0
C2592 C 0.37272 1.00553 0.87267 0.0
C2593 C 0.36391 0.01981 0.88776 0.0
C2594 C 0.37099 0.98261 0.87505 0.0
C2595 C 0.36025 0.97305 0.89316 0.0
C2596 C 0.35091 0.9872 0.90839 0.0
C2597 C 0.35272 1.01032 0.90547 0.0
C2598 C 0.381 0.9686 0.8581 0.0
C2599 C 0.33939 0.97793 0.92802 0.0
C2600 C 0.34331 0.91107 0.88519 0.0
C2601 C 0.36142 0.90161 0.89432 0.0
C2602 C 0.34207 0.93407 0.8858 0.0
C2603 C 0.3593 0.94835 0.89587 0.0
C2604 C 0.37706 0.9388 0.90609 0.0
C2605 C 0.37795 0.91575 0.90512 0.0
C2606 C 0.32283 0.94315 0.87454 0.0
C2607 C 0.39581 0.95304 0.91715 0.0
H2608 H 0.38122 1.01234 0.85872 0.0
H2609 H 0.34588 0.02096 0.91732 0.0
H2610 H 0.39409 0.95978 0.86577 0.0
H2611 H 0.3683 0.95605 0.8511 0.0
H2612 H 0.38827 0.9784 0.84463 0.0
H2613 H 0.33228 0.99076 0.93795 0.0
H2614 H 0.32601 0.96517 0.92286 0.0
H2615 H 0.3512 0.96988 0.93839 0.0
H2616 H 0.33041 0.90055 0.87671 0.0
H2617 H 0.39208 0.90888 0.91226 0.0
H2618 H 0.32851 0.95166 0.85967 0.0
H2619 H 0.31587 0.95543 0.88525 0.0
H2620 H 0.30956 0.9301 0.86976 0.0
H2621 H 0.40555 0.96223 0.90474 0.0
H2622 H 0.40697 0.94329 0.92657 0.0
H2623 H 0.38938 0.96529 0.9283 0.0
C2624 C 0.51721 0.86911 0.41457 0.0
C2625 C 0.52813 0.89008 0.41173 0.0
C2626 C 0.49385 0.86583 0.4154 0.0
C2627 C 0.48099 0.88396 0.41383 0.0
C2628 C 0.49211 0.90518 0.41174 0.0
C2629 C 0.51524 0.9079 0.41052 0.0
C2630 C 0.48287 0.84287 0.41732 0.0
C2631 C 0.47952 0.92518 0.41045 0.0
C2632 C 0.4207 0.88052 0.3934 0.0
C2633 C 0.40913 0.88287 0.41271 0.0
C2634 C 0.44375 0.87941 0.39364 0.0
C2635 C 0.45599 0.88111 0.41367 0.0
C2636 C 0.44428 0.88263 0.43327 0.0
C2637 C 0.42113 0.88332 0.43257 0.0
C2638 C 0.45516 0.87742 0.37228 0.0
C2639 C 0.45637 0.88483 0.45502 0.0
H2640 H 0.52683 0.85517 0.41539 0.0
H2641 H 0.52333 0.92425 0.40855 0.0
H2642 H 0.47179 0.84204 0.43137 0.0
H2643 H 0.47253 0.83834 0.4025 0.0
H2644 H 0.49499 0.83062 0.41933 0.0
H2645 H 0.49057 0.94066 0.41008 0.0
H2646 H 0.4688 0.92398 0.39556 0.0
H2647 H 0.46868 0.92605 0.42462 0.0
H2648 H 0.41178 0.88013 0.37791 0.0
H2649 H 0.41258 0.88534 0.44763 0.0
H2650 H 0.46664 0.86446 0.37303 0.0
H2651 H 0.46507 0.89309 0.36905 0.0
H2652 H 0.4433 0.87351 0.35843 0.0
H2653 H 0.46797 0.87206 0.4565 0.0
H2654 H 0.44495 0.88351 0.46884 0.0
H2655 H 0.46625 0.90101 0.45634 0.0
C2656 C 0.64208 0.09755 0.90897 0.0
C2657 C 0.65939 0.11103 0.90004 0.0
C2658 C 0.64257 0.07451 0.91001 0.0
C2659 C 0.66072 0.0643 0.90178 0.0
C2660 C 0.67869 0.07795 0.89369 0.0
C2661 C 0.67784 0.10097 0.89297 0.0
C2662 C 0.62303 0.06095 0.91892 0.0
C2663 C 0.69837 0.06813 0.88458 0.0
C2664 C 0.66572 1.00253 0.91166 0.0
C2665 C 0.65554 0.99253 0.89269 0.0
C2666 C 0.66766 0.02576 0.91495 0.0
C2667 C 0.65951 0.03949 0.89883 0.0
C2668 C 0.64976 0.02939 0.87952 0.0
C2669 C 0.64786 1.00638 0.87679 0.0
C2670 C 0.67808 0.03563 0.93585 0.0
C2671 C 0.64104 0.04293 0.86162 0.0
H2672 H 0.62769 0.10491 0.9145 0.0
H2673 H 0.69134 0.11098 0.88596 0.0
H2674 H 0.61389 0.05144 0.90542 0.0
H2675 H 0.62855 0.04901 0.93065 0.0
H2676 H 0.61154 0.07126 0.92716 0.0
H2677 H 0.71209 0.08083 0.88139 0.0
H2678 H 0.70442 0.05613 0.89595 0.0
H2679 H 0.6935 0.05914 0.86906 0.0
H2680 H 0.67168 0.99223 0.92414 0.0
H2681 H 0.64017 0.99918 0.86188 0.0
H2682 H 0.66588 0.04435 0.94488 0.0
H2683 H 0.69198 0.04794 0.93226 0.0
H2684 H 0.68426 0.02304 0.9465 0.0
H2685 H 0.62773 0.05228 0.86789 0.0
H2686 H 0.63443 0.03272 0.84733 0.0
H2687 H 0.65431 0.05504 0.8561 0.0
C2688 C 0.51564 0.17435 0.40915 0.0
C2689 C 0.50475 0.15305 0.40828 0.0
C2690 C 0.53903 0.17784 0.4101 0.0
C2691 C 0.55192 0.15967 0.41064 0.0
C2692 C 0.54084 0.13825 0.41066 0.0
C2693 C 0.51767 0.13526 0.40929 0.0
C2694 C 0.54997 0.20095 0.40977 0.0
C2695 C 0.5535 0.11828 0.41164 0.0
C2696 C 0.6109 0.15973 0.39026 0.0
C2697 C 0.62359 0.16028 0.40971 0.0
C2698 C 0.5879 0.16104 0.3903 0.0
C2699 C 0.57688 0.16254 0.4103 0.0
C2700 C 0.58974 0.16406 0.42995 0.0
C2701 C 0.61283 0.16307 0.42942 0.0
C2702 C 0.57521 0.15969 0.36886 0.0
C2703 C 0.57896 0.16537 0.45171 0.0
H2704 H 0.50596 0.18823 0.40822 0.0
H2705 H 0.50958 0.1187 0.40884 0.0
H2706 H 0.56203 0.20394 0.42355 0.0
H2707 H 0.55922 0.20326 0.39454 0.0
H2708 H 0.53789 0.21337 0.41071 0.0
H2709 H 0.54252 0.10284 0.41289 0.0
H2710 H 0.56335 0.11706 0.39681 0.0
H2711 H 0.56516 0.11976 0.42584 0.0
H2712 H 0.61888 0.1576 0.37489 0.0
H2713 H 0.62227 0.16333 0.44459 0.0
H2714 H 0.56374 0.17266 0.36825 0.0
H2715 H 0.56517 0.14363 0.36721 0.0
H2716 H 0.58624 0.16141 0.35477 0.0
H2717 H 0.5673 0.17817 0.45174 0.0
H2718 H 0.5912 0.16902 0.46529 0.0
H2719 H 0.56932 0.14949 0.45475 0.0
C2720 C 0.13881 0.39418 0.01377 0.0
C2721 C 0.11941 0.39039 1.00085 0.0
C2722 C 0.13859 0.39299 0.03673 0.0
C2723 C 0.11846 0.38789 0.04747 0.0
C2724 C 0.09894 0.38312 0.03446 0.0
C2725 C 0.09963 0.38443 0.01147 0.0
C2726 C 0.15989 0.39821 0.04959 0.0
C2727 C 0.07707 0.37759 0.04491 0.0
C2728 C 0.12242 0.37566 0.10898 0.0
C2729 C 0.12082 0.39649 0.11855 0.0
C2730 C 0.12091 0.3723 0.08596 0.0
C2731 C 0.11764 0.39011 0.07212 0.0
C2732 C 0.11491 0.41081 0.08194 0.0
C2733 C 0.11662 0.41369 0.10476 0.0
C2734 C 0.12386 0.34993 0.07641 0.0
C2735 C 0.11121 0.43036 0.0683 0.0
H2736 H 0.15425 0.39879 1.00597 0.0
H2737 H 0.08448 0.38149 1.00186 0.0
H2738 H 0.15935 0.41383 0.05898 0.0
H2739 H 0.16213 0.38521 0.06147 0.0
H2740 H 0.1744 0.39984 0.03897 0.0
H2741 H 0.06389 0.37182 0.03276 0.0
H2742 H 0.0784 0.36473 0.05714 0.0
H2743 H 0.07214 0.39235 0.05361 0.0
H2744 H 0.12601 0.36232 0.11932 0.0
H2745 H 0.11539 0.42989 0.11189 0.0
H2746 H 0.13978 0.35052 0.06802 0.0
H2747 H 0.11066 0.34491 0.06407 0.0
H2748 H 0.12373 0.33727 0.08906 0.0
H2749 H 0.12609 0.43495 0.05877 0.0
H2750 H 0.10765 0.44483 0.07836 0.0
H2751 H 0.0973 0.42622 0.05652 0.0
C2752 C 0.1273 0.65357 0.89967 0.0
C2753 C 0.11119 0.64157 0.88628 0.0
C2754 C 0.12655 0.65302 0.92269 0.0
C2755 C 0.10895 0.64062 0.93289 0.0
C2756 C 0.09199 0.62951 0.91939 0.0
C2757 C 0.09347 0.62985 0.89645 0.0
C2758 C 0.1454 0.66462 0.93608 0.0
C2759 C 0.07261 0.6165 0.92922 0.0
C2760 C 0.11927 0.61495 0.98811 0.0
C2761 C 0.11102 0.62951 1.00326 0.0
C2762 C 0.11896 0.61861 0.96554 0.0
C2763 C 0.10959 0.63711 0.95729 0.0
C2764 C 0.10095 0.65185 0.97239 0.0
C2765 C 0.10209 0.64811 0.99514 0.0
C2766 C 0.12899 0.60266 0.95051 0.0
C2767 C 0.09023 0.67145 0.96447 0.0
H2768 H 0.14126 0.66242 0.89217 0.0
H2769 H 0.08092 0.62044 0.88642 0.0
H2770 H 0.13916 0.67498 0.94913 0.0
H2771 H 0.15479 0.65228 0.9441 0.0
H2772 H 0.15685 0.67508 0.92603 0.0
H2773 H 0.05973 0.61066 0.91679 0.0
H2774 H 0.0782 0.60204 0.93746 0.0
H2775 H 0.06519 0.62664 0.94174 0.0
H2776 H 0.12654 0.60067 0.99397 0.0
H2777 H 0.09564 0.65951 1.00651 0.0
H2778 H 0.1421 0.6115 0.94098 0.0
H2779 H 0.11632 0.59502 0.93872 0.0
H2780 H 0.13619 0.5894 0.95944 0.0
H2781 H 0.10224 0.68235 0.95551 0.0
H2782 H 0.08378 0.68107 0.97802 0.0
H2783 H 0.07645 0.66595 0.9529 0.0
C2784 C 0.87936 0.61608 0.5239 0.0
C2785 C 0.89948 0.61605 0.5132 0.0
C2786 C 0.87837 0.61613 0.54692 0.0
C2787 C 0.89792 0.61589 0.55989 0.0
C2788 C 0.91812 0.61469 0.54912 0.0
C2789 C 0.91868 0.61495 0.5261 0.0
C2790 C 0.85645 0.61766 0.55739 0.0
C2791 C 0.93942 0.61411 0.56198 0.0
C2792 C 0.90279 0.6444 0.61632 0.0
C2793 C 0.90037 0.62692 0.63077 0.0
C2794 C 0.9013 0.64102 0.59353 0.0
C2795 C 0.89769 0.61944 0.58444 0.0
C2796 C 0.89468 0.60164 0.59891 0.0
C2797 C 0.89587 0.60558 0.62185 0.0
C2798 C 0.90423 0.66067 0.57915 0.0
C2799 C 0.89106 0.57835 0.59016 0.0
H2800 H 0.86439 0.61709 0.51432 0.0
H2801 H 0.93437 0.61492 0.51822 0.0
H2802 H 0.8538 0.60516 0.57005 0.0
H2803 H 0.85632 0.63399 0.56557 0.0
H2804 H 0.84251 0.61542 0.54534 0.0
H2805 H 0.95327 0.61064 0.55144 0.0
H2806 H 0.94374 0.63015 0.57054 0.0
H2807 H 0.93757 0.60144 0.57457 0.0
H2808 H 0.90625 0.66099 0.62291 0.0
H2809 H 0.89431 0.59189 0.63273 0.0
H2810 H 0.89016 0.66046 0.56736 0.0
H2811 H 0.91936 0.66 0.56961 0.0
H2812 H 0.90555 0.67643 0.58863 0.0
H2813 H 0.87726 0.57661 0.57797 0.0
H2814 H 0.88743 0.56643 0.60324 0.0
H2815 H 0.906 0.57409 0.58173 0.0
C2816 C 0.92678 0.40163 0.87803 0.0
C2817 C 0.91121 0.38716 0.86634 0.0
C2818 C 0.92817 0.40206 0.90107 0.0
C2819 C 0.91322 0.38814 0.91309 0.0
C2820 C 0.89795 0.37298 0.90135 0.0
C2821 C 0.89732 0.37249 0.87827 0.0
C2822 C 0.94508 0.41821 0.91254 0.0
C2823 C 0.88121 0.35824 0.91314 0.0
C2824 C 0.92121 0.38239 0.97544 0.0
C2825 C 0.90886 0.39878 0.98374 0.0
C2826 C 0.92306 0.37882 0.95261 0.0
C2827 C 0.91173 0.39139 0.93759 0.0
C2828 C 0.89886 0.40752 0.94601 0.0
C2829 C 0.89785 0.41115 0.96869 0.0
C2830 C 0.9375 0.3619 0.94453 0.0
C2831 C 0.88596 0.42106 0.93104 0.0
H2832 H 0.93758 0.41313 0.86916 0.0
H2833 H 0.88499 0.36144 0.86959 0.0
H2834 H 0.93682 0.43184 0.91989 0.0
H2835 H 0.95351 0.4102 0.92594 0.0
H2836 H 0.95765 0.42528 0.90125 0.0
H2837 H 0.87185 0.34597 0.90199 0.0
H2838 H 0.88933 0.34945 0.92616 0.0
H2839 H 0.86938 0.36835 0.92108 0.0
H2840 H 0.92987 0.37275 0.98675 0.0
H2841 H 0.88798 0.42368 0.9747 0.0
H2842 H 0.95059 0.36985 0.93434 0.0
H2843 H 0.9277 0.34936 0.93409 0.0
H2844 H 0.94536 0.35356 0.95809 0.0
H2845 H 0.8974 0.43138 0.9209 0.0
H2846 H 0.87564 0.43197 0.94009 0.0
H2847 H 0.87512 0.41015 0.91982 0.0
C2848 C 0.14465 0.40082 0.60991 0.0
C2849 C 0.14617 0.42051 0.62235 0.0
C2850 C 0.145 0.40068 0.58688 0.0
C2851 C 0.14653 0.42072 0.57561 0.0
C2852 C 0.14894 0.44067 0.58811 0.0
C2853 C 0.14887 0.44033 0.61117 0.0
C2854 C 0.14271 0.37894 0.57457 0.0
C2855 C 0.15032 0.46248 0.57711 0.0
C2856 C 0.15694 0.41931 0.51361 0.0
C2857 C 0.1354 0.41726 0.50472 0.0
C2858 C 0.16096 0.42082 0.53653 0.0
C2859 C 0.14308 0.42068 0.55103 0.0
C2860 C 0.12142 0.41958 0.54196 0.0
C2861 C 0.1179 0.41769 0.5192 0.0
C2862 C 0.18431 0.42171 0.54528 0.0
C2863 C 0.10172 0.4198 0.55637 0.0
H2864 H 0.14252 0.38535 0.61817 0.0
H2865 H 0.14983 0.4557 0.62042 0.0
H2866 H 0.12636 0.37653 0.56613 0.0
H2867 H 0.15537 0.37874 0.56193 0.0
H2868 H 0.1443 0.36495 0.58547 0.0
H2869 H 0.15453 0.47645 0.58881 0.0
H2870 H 0.16281 0.46306 0.56428 0.0
H2871 H 0.13423 0.46462 0.56906 0.0
H2872 H 0.1706 0.41874 0.50274 0.0
H2873 H 0.10116 0.41623 0.51265 0.0
H2874 H 0.18651 0.40657 0.5543 0.0
H2875 H 0.18783 0.43576 0.55695 0.0
H2876 H 0.19649 0.4232 0.53213 0.0
H2877 H 0.10033 0.40491 0.56636 0.0
H2878 H 0.08608 0.42029 0.54686 0.0
H2879 H 0.10381 0.43422 0.56775 0.0
C2880 C 0.89545 0.62894 0.03005 0.0
C2881 C 0.91241 0.63416 0.01537 0.0
C2882 C 0.89855 0.63235 0.05273 0.0
C2883 C 0.91942 0.64076 0.06156 0.0
C2884 C 0.93669 0.64624 0.04688 0.0
C2885 C 0.93292 0.64318 0.02401 0.0
C2886 C 0.87937 0.6267 0.06731 0.0
C2887 C 0.95935 0.65474 0.05539 0.0
C2888 C 0.91901 0.66332 0.12069 0.0
C2889 C 0.92234 0.64471 0.13282 0.0
C2890 C 0.91901 0.66264 0.0976 0.0
C2891 C 0.92291 0.64301 0.08611 0.0
C2892 C 0.92763 0.62462 0.0984 0.0
C2893 C 0.927 0.6256 0.12139 0.0
C2894 C 0.91338 0.68256 0.08548 0.0
C2895 C 0.93231 0.6034 0.08726 0.0
H2896 H 0.87942 0.6222 0.02373 0.0
H2897 H 0.94621 0.6472 0.01299 0.0
H2898 H 0.88295 0.61302 0.07792 0.0
H2899 H 0.8768 0.64097 0.07809 0.0
H2900 H 0.86384 0.62175 0.05793 0.0
H2901 H 0.97089 0.65882 0.04207 0.0
H2902 H 0.95845 0.6696 0.06588 0.0
H2903 H 0.96612 0.6422 0.06565 0.0
H2904 H 0.91508 0.6781 0.12919 0.0
H2905 H 0.92958 0.61105 0.13045 0.0
H2906 H 0.89694 0.67905 0.07738 0.0
H2907 H 0.9254 0.68647 0.07256 0.0
H2908 H 0.91307 0.69719 0.09646 0.0
H2909 H 0.91687 0.5952 0.07977 0.0
H2910 H 0.93908 0.59196 0.09882 0.0
H2911 H 0.94415 0.60662 0.07403 0.0
C2912 C 0.89432 0.41998 0.3775 0.0
C2913 C 0.89814 0.40093 0.36548 0.0
C2914 C 0.8942 0.42041 0.40057 0.0
C2915 C 0.89767 0.40125 0.41225 0.0
C2916 C 0.90036 0.38168 0.40014 0.0
C2917 C 0.90077 0.38181 0.37711 0.0
C2918 C 0.89163 0.44179 0.41248 0.0
C2919 C 0.9038 0.3607 0.41155 0.0
C2920 C 0.92592 0.40556 0.46889 0.0
C2921 C 0.90846 0.40105 0.48315 0.0
C2922 C 0.92248 0.40642 0.44615 0.0
C2923 C 0.90096 0.40217 0.43688 0.0
C2924 C 0.88308 0.39809 0.4512 0.0
C2925 C 0.88699 0.39778 0.47411 0.0
C2926 C 0.94213 0.41137 0.43197 0.0
C2927 C 0.85989 0.39316 0.44223 0.0
H2928 H 0.89251 0.43497 0.36891 0.0
H2929 H 0.9038 0.36696 0.3682 0.0
H2930 H 0.87912 0.43936 0.42521 0.0
H2931 H 0.90746 0.44786 0.4208 0.0
H2932 H 0.88678 0.45459 0.40134 0.0
H2933 H 0.90305 0.34637 0.40004 0.0
H2934 H 0.92014 0.36238 0.42003 0.0
H2935 H 0.89119 0.35742 0.42406 0.0
H2936 H 0.94259 0.40817 0.47558 0.0
H2937 H 0.87338 0.39398 0.48482 0.0
H2938 H 0.93935 0.42508 0.4211 0.0
H2939 H 0.94441 0.39683 0.42145 0.0
H2940 H 0.95757 0.4158 0.44168 0.0
H2941 H 0.85569 0.40621 0.43111 0.0
H2942 H 0.84763 0.3917 0.45531 0.0
H2943 H 0.8586 0.37754 0.43256 0.0
C2944 C 0.09593 0.61637 0.4869 0.0
C2945 C 0.11261 0.62426 0.50206 0.0
C2946 C 0.09922 0.61643 0.46429 0.0
C2947 C 0.11968 0.62507 0.45608 0.0
C2948 C 0.1369 0.63254 0.4713 0.0
C2949 C 0.13325 0.6319 0.49407 0.0
C2950 C 0.08017 0.6082 0.44925 0.0
C2951 C 0.15888 0.64219 0.46351 0.0
C2952 C 0.12938 0.61029 0.39597 0.0
C2953 C 0.12154 0.62795 0.38492 0.0
C2954 C 0.12976 0.60954 0.419 0.0
C2955 C 0.1224 0.62699 0.43166 0.0
C2956 C 0.11537 0.64529 0.42059 0.0
C2957 C 0.11488 0.64547 0.39755 0.0
C2958 C 0.1367 0.58934 0.42975 0.0
C2959 C 0.10736 0.66435 0.43307 0.0
H2960 H 0.07986 0.61055 0.49277 0.0
H2961 H 0.14614 0.63843 0.50551 0.0
H2962 H 0.07206 0.62242 0.44333 0.0
H2963 H 0.08584 0.59921 0.43491 0.0
H2964 H 0.06769 0.59725 0.45765 0.0
H2965 H 0.17101 0.64607 0.47714 0.0
H2966 H 0.16566 0.63066 0.45184 0.0
H2967 H 0.15672 0.65748 0.45472 0.0
H2968 H 0.13427 0.59645 0.38658 0.0
H2969 H 0.10861 0.65916 0.3894 0.0
H2970 H 0.12214 0.58028 0.437 0.0
H2971 H 0.14885 0.59397 0.44317 0.0
H2972 H 0.14399 0.57816 0.41806 0.0
H2973 H 0.09114 0.65918 0.44003 0.0
H2974 H 0.1055 0.67859 0.42256 0.0
H2975 H 0.11891 0.66965 0.44682 0.0
C2976 C 0.35819 0.16231 0.41682 0.0
C2977 C 0.37276 0.16076 0.39961 0.0
C2978 C 0.3351 0.16073 0.41314 0.0
C2979 C 0.32606 0.15818 0.39161 0.0
C2980 C 0.34079 0.15759 0.37409 0.0
C2981 C 0.36378 0.15848 0.3783 0.0
C2982 C 0.32031 0.16083 0.43246 0.0
C2983 C 0.33223 0.1556 0.35083 0.0
C2984 C 0.2668 0.13097 0.38316 0.0
C2985 C 0.25423 0.14902 0.38237 0.0
C2986 C 0.28998 0.13372 0.38606 0.0
C2987 C 0.3013 0.1551 0.38758 0.0
C2988 C 0.28876 0.17339 0.38593 0.0
C2989 C 0.26549 0.17016 0.38376 0.0
C2990 C 0.30229 0.11365 0.3883 0.0
C2991 C 0.29992 0.19647 0.38673 0.0
H2992 H 0.36478 0.1637 0.43338 0.0
H2993 H 0.37476 0.15717 0.36483 0.0
H2994 H 0.30919 0.17402 0.43103 0.0
H2995 H 0.30978 0.14503 0.43281 0.0
H2996 H 0.32976 0.16325 0.44814 0.0
H2997 H 0.34569 0.15762 0.339 0.0
H2998 H 0.32299 0.13927 0.34785 0.0
H2999 H 0.32062 0.16812 0.34776 0.0
H3000 H 0.25841 0.11455 0.38245 0.0
H3001 H 0.25608 0.18427 0.38323 0.0
H3002 H 0.31105 0.11423 0.40437 0.0
H3003 H 0.31491 0.11333 0.37565 0.0
H3004 H 0.29121 0.09817 0.38684 0.0
H3005 H 0.30767 0.20024 0.40306 0.0
H3006 H 0.28822 0.20884 0.3833 0.0
H3007 H 0.31322 0.19808 0.37472 0.0
C3008 C 0.35741 0.66349 0.90129 0.0
C3009 C 0.36783 0.6521 0.88486 0.0
C3010 C 0.35805 0.68655 0.9022 0.0
C3011 C 0.36954 0.69919 0.88636 0.0
C3012 C 0.38024 0.68797 0.86971 0.0
C3013 C 0.37924 0.66466 0.86912 0.0
C3014 C 0.34644 0.69742 0.92034 0.0
C3015 C 0.3928 0.70065 0.85252 0.0
C3016 C 0.35689 0.75951 0.88065 0.0
C3017 C 0.37432 0.77103 0.89275 0.0
C3018 C 0.35517 0.73627 0.87825 0.0
C3019 C 0.37122 0.72405 0.88816 0.0
C3020 C 0.38845 0.73562 0.90086 0.0
C3021 C 0.38976 0.75869 0.90298 0.0
C3022 C 0.33637 0.72479 0.86472 0.0
C3023 C 0.40583 0.7236 0.91203 0.0
H3024 H 0.34846 0.65432 0.91366 0.0
H3025 H 0.38725 0.6563 0.85625 0.0
H3026 H 0.35854 0.70811 0.93051 0.0
H3027 H 0.33443 0.70804 0.91346 0.0
H3028 H 0.33758 0.68534 0.931 0.0
H3029 H 0.39979 0.68972 0.84038 0.0
H3030 H 0.38181 0.7112 0.84391 0.0
H3031 H 0.40643 0.71165 0.86028 0.0
H3032 H 0.34504 0.76868 0.87234 0.0
H3033 H 0.40338 0.7672 0.91236 0.0
H3034 H 0.32675 0.71256 0.87463 0.0
H3035 H 0.34292 0.71571 0.85087 0.0
H3036 H 0.32511 0.73641 0.85823 0.0
H3037 H 0.39805 0.71175 0.92356 0.0
H3038 H 0.41832 0.73491 0.92115 0.0
H3039 H 0.41435 0.71407 0.89983 0.0
C3040 C 0.66824 0.883 0.38572 0.0
C3041 C 0.65977 0.881 0.40675 0.0
C3042 C 0.69111 0.88357 0.38205 0.0
C3043 C 0.70627 0.88278 0.39985 0.0
C3044 C 0.69776 0.88042 0.42108 0.0
C3045 C 0.67477 0.87931 0.42421 0.0
C3046 C 0.69909 0.8855 0.35908 0.0
C3047 C 0.71303 0.87996 0.44069 0.0
C3048 C 0.76622 0.86963 0.39204 0.0
C3049 C 0.77791 0.89058 0.39219 0.0
C3050 C 0.74301 0.86684 0.39382 0.0
C3051 C 0.73095 0.8854 0.39647 0.0
C3052 C 0.74267 0.90659 0.39645 0.0
C3053 C 0.76578 0.9089 0.39407 0.0
C3054 C 0.73141 0.84395 0.39315 0.0
C3055 C 0.73086 0.92692 0.39964 0.0
H3056 H 0.65696 0.8844 0.37206 0.0
H3057 H 0.66861 0.87809 0.44057 0.0
H3058 H 0.70867 0.90164 0.35722 0.0
H3059 H 0.71024 0.87267 0.35551 0.0
H3060 H 0.6853 0.88392 0.34685 0.0
H3061 H 0.70397 0.87754 0.45604 0.0
H3062 H 0.7239 0.8666 0.4387 0.0
H3063 H 0.72379 0.89562 0.44217 0.0
H3064 H 0.77526 0.8553 0.39065 0.0
H3065 H 0.77447 0.92519 0.3945 0.0
H3066 H 0.71786 0.84263 0.38069 0.0
H3067 H 0.72391 0.84033 0.40907 0.0
H3068 H 0.74275 0.83131 0.3894 0.0
H3069 H 0.71786 0.92753 0.38682 0.0
H3070 H 0.74219 0.94221 0.3992 0.0
H3071 H 0.72263 0.92643 0.41554 0.0
C3072 C 0.66441 0.25262 0.88553 0.0
C3073 C 0.64628 0.24133 0.89539 0.0
C3074 C 0.66594 0.27575 0.88329 0.0
C3075 C 0.64902 0.28808 0.89113 0.0
C3076 C 0.63106 0.27677 0.90164 0.0
C3077 C 0.62993 0.2538 0.90359 0.0
C3078 C 0.68549 0.28696 0.8721 0.0
C3079 C 0.61275 0.28894 0.91061 0.0
C3080 C 0.66148 0.34943 0.90511 0.0
C3081 C 0.65226 0.35977 0.88729 0.0
C3082 C 0.66071 0.32643 0.90636 0.0
C3083 C 0.65042 0.31283 0.88938 0.0
C3084 C 0.64076 0.32301 0.87141 0.0
C3085 C 0.64175 0.34627 0.87058 0.0
C3086 C 0.67104 0.31667 0.92599 0.0
C3087 C 0.62953 0.30929 0.85294 0.0
H3088 H 0.67698 0.24332 0.87879 0.0
H3089 H 0.61576 0.24545 0.91122 0.0
H3090 H 0.67981 0.29535 0.8575 0.0
H3091 H 0.6942 0.29973 0.88312 0.0
H3092 H 0.69733 0.27528 0.867 0.0
H3093 H 0.59989 0.27784 0.91832 0.0
H3094 H 0.61952 0.30152 0.92289 0.0
H3095 H 0.60489 0.29765 0.89735 0.0
H3096 H 0.66961 0.35942 0.91828 0.0
H3097 H 0.63473 0.35385 0.85664 0.0
H3098 H 0.68384 0.30613 0.92076 0.0
H3099 H 0.6584 0.3061 0.93454 0.0
H3100 H 0.6787 0.32941 0.93771 0.0
H3101 H 0.64128 0.29869 0.8456 0.0
H3102 H 0.62302 0.31948 0.84003 0.0
H3103 H 0.61571 0.2983 0.85918 0.0
C3104 C 0.3455 0.86261 0.62807 0.0
C3105 C 0.35918 0.88022 0.63756 0.0
C3106 C 0.3222 0.86246 0.62795 0.0
C3107 C 0.31221 0.88036 0.63743 0.0
C3108 C 0.326 0.89818 0.6468 0.0
C3109 C 0.34903 0.89787 0.64676 0.0
C3110 C 0.30822 0.8431 0.61774 0.0
C3111 C 0.31644 0.91779 0.65685 0.0
C3112 C 0.25442 0.89264 0.61863 0.0
C3113 C 0.24098 0.88477 0.63562 0.0
C3114 C 0.27732 0.89105 0.61895 0.0
C3115 C 0.28749 0.88124 0.63668 0.0
C3116 C 0.27415 0.87355 0.65412 0.0
C3117 C 0.25116 0.87544 0.65342 0.0
C3118 C 0.29064 0.89987 0.60014 0.0
C3119 C 0.28417 0.86304 0.67341 0.0
H3120 H 0.35295 0.84881 0.62103 0.0
H3121 H 0.35917 0.91173 0.65409 0.0
H3122 H 0.29667 0.83578 0.62983 0.0
H3123 H 0.29813 0.84859 0.60404 0.0
H3124 H 0.31828 0.83023 0.61154 0.0
H3125 H 0.32933 0.93017 0.66388 0.0
H3126 H 0.30674 0.92578 0.64438 0.0
H3127 H 0.30505 0.91246 0.6699 0.0
H3128 H 0.24695 0.89988 0.60473 0.0
H3129 H 0.24107 0.869 0.66651 0.0
H3130 H 0.29934 0.88664 0.59261 0.0
H3131 H 0.30337 0.91294 0.60609 0.0
H3132 H 0.28029 0.90674 0.58739 0.0
H3133 H 0.29252 0.84868 0.66785 0.0
H3134 H 0.2717 0.85756 0.68549 0.0
H3135 H 0.29687 0.87482 0.68159 0.0
C3136 C 0.6239 0.7561 0.14952 0.0
C3137 C 0.64235 0.74434 0.15273 0.0
C3138 C 0.62604 0.77908 0.14665 0.0
C3139 C 0.64717 0.79108 0.14748 0.0
C3140 C 0.66581 0.77941 0.15155 0.0
C3141 C 0.66323 0.75631 0.15379 0.0
C3142 C 0.60564 0.7904 0.14192 0.0
C3143 C 0.68862 0.79131 0.1532 0.0
C3144 C 0.6543 0.84635 0.11831 0.0
C3145 C 0.65147 0.86174 0.13512 0.0
C3146 C 0.65319 0.82355 0.12212 0.0
C3147 C 0.64968 0.8156 0.14343 0.0
C3148 C 0.64769 0.83117 0.16062 0.0
C3149 C 0.64828 0.85383 0.15624 0.0
C3150 C 0.65493 0.80784 0.1031 0.0
C3151 C 0.64452 0.82384 0.18368 0.0
H3152 H 0.60768 0.74718 0.14831 0.0
H3153 H 0.67768 0.74757 0.15613 0.0
H3154 H 0.6042 0.80374 0.15417 0.0
H3155 H 0.60687 0.79807 0.12576 0.0
H3156 H 0.59039 0.77894 0.14196 0.0
H3157 H 0.70122 0.78036 0.1582 0.0
H3158 H 0.69313 0.79823 0.13723 0.0
H3159 H 0.68904 0.80524 0.16513 0.0
H3160 H 0.65645 0.85205 0.10188 0.0
H3161 H 0.64599 0.8654 0.16941 0.0
H3162 H 0.63945 0.79681 0.10112 0.0
H3163 H 0.66843 0.79734 0.10618 0.0
H3164 H 0.65803 0.81646 0.08762 0.0
H3165 H 0.62834 0.81409 0.18488 0.0
H3166 H 0.6452 0.83791 0.1955 0.0
H3167 H 0.65736 0.81307 0.18838 0.0
C3168 C 0.7893 0.15054 0.64726 0.0
C3169 C 0.79799 0.13952 0.6296 0.0
C3170 C 0.76635 0.1523 0.64862 0.0
C3171 C 0.75155 0.14279 0.63201 0.0
C3172 C 0.76025 0.13126 0.61445 0.0
C3173 C 0.78312 0.12981 0.61347 0.0
C3174 C 0.75795 0.16463 0.66773 0.0
C3175 C 0.74536 0.12052 0.59648 0.0
C3176 C 0.69089 0.12689 0.64389 0.0
C3177 C 0.6799 0.14344 0.63397 0.0
C3178 C 0.71395 0.12683 0.64373 0.0
C3179 C 0.72692 0.14374 0.63338 0.0
C3180 C 0.71609 0.16065 0.62342 0.0
C3181 C 0.69279 0.16031 0.62381 0.0
C3182 C 0.72441 0.10832 0.65444 0.0
C3183 C 0.72915 0.17902 0.61216 0.0
H3184 H 0.80047 0.15839 0.65968 0.0
H3185 H 0.78943 0.12125 0.59968 0.0
H3186 H 0.74918 0.17849 0.66185 0.0
H3187 H 0.74592 0.1537 0.67664 0.0
H3188 H 0.77141 0.17119 0.67926 0.0
H3189 H 0.75462 0.11238 0.5838 0.0
H3190 H 0.73321 0.10809 0.60336 0.0
H3191 H 0.73596 0.13295 0.58863 0.0
H3192 H 0.68141 0.11366 0.65185 0.0
H3193 H 0.68471 0.17323 0.61615 0.0
H3194 H 0.73701 0.11499 0.66677 0.0
H3195 H 0.73292 0.09894 0.6421 0.0
H3196 H 0.71218 0.0968 0.6625 0.0
H3197 H 0.74188 0.18728 0.62355 0.0
H3198 H 0.71859 0.19142 0.606 0.0
H3199 H 0.73786 0.17226 0.59827 0.0
C3200 C 0.36728 0.17121 0.11517 0.0
C3201 C 0.37041 0.1566 0.13202 0.0
C3202 C 0.36872 0.19421 0.11908 0.0
C3203 C 0.37283 0.20316 0.14051 0.0
C3204 C 0.37512 0.18839 0.15771 0.0
C3205 C 0.37424 0.1655 0.15324 0.0
C3206 C 0.36668 0.20904 0.10004 0.0
C3207 C 0.37889 0.1968 0.1809 0.0
C3208 C 0.39919 0.26282 0.14769 0.0
C3209 C 0.38089 0.27486 0.15034 0.0
C3210 C 0.39681 0.23971 0.14463 0.0
C3211 C 0.37561 0.22787 0.14472 0.0
C3212 C 0.35715 0.23987 0.14824 0.0
C3213 C 0.35995 0.26307 0.15064 0.0
C3214 C 0.41701 0.22802 0.14045 0.0
C3215 C 0.33429 0.22819 0.14914 0.0
H3216 H 0.36465 0.16473 0.09866 0.0
H3217 H 0.37677 0.15453 0.16645 0.0
H3218 H 0.35332 0.21977 0.10273 0.0
H3219 H 0.38219 0.21989 0.09858 0.0
H3220 H 0.3632 0.19969 0.08443 0.0
H3221 H 0.37837 0.18329 0.19266 0.0
H3222 H 0.39517 0.20649 0.18261 0.0
H3223 H 0.36625 0.20789 0.18526 0.0
H3224 H 0.41544 0.27159 0.14706 0.0
H3225 H 0.34562 0.27203 0.15254 0.0
H3226 H 0.41535 0.21957 0.12424 0.0
H3227 H 0.41866 0.21527 0.15272 0.0
H3228 H 0.43233 0.23941 0.14096 0.0
H3229 H 0.32938 0.22056 0.133 0.0
H3230 H 0.3219 0.23946 0.15382 0.0
H3231 H 0.33404 0.2148 0.161 0.0
C3232 C 0.14867 0.40307 0.26269 0.0
C3233 C 0.12759 0.40088 0.25261 0.0
C3234 C 0.15162 0.40469 0.28563 0.0
C3235 C 0.13312 0.40466 0.29921 0.0
C3236 C 0.11178 0.40228 0.28914 0.0
C3237 C 0.10929 0.40022 0.26614 0.0
C3238 C 0.17468 0.40669 0.29535 0.0
C3239 C 0.09149 0.40251 0.30265 0.0
C3240 C 0.13765 0.39155 0.36019 0.0
C3241 C 0.13997 0.41247 0.37045 0.0
C3242 C 0.13597 0.3888 0.33723 0.0
C3243 C 0.13606 0.40737 0.32383 0.0
C3244 C 0.13866 0.42855 0.33409 0.0
C3245 C 0.14077 0.43083 0.35709 0.0
C3246 C 0.13372 0.3659 0.32733 0.0
C3247 C 0.13852 0.4489 0.32077 0.0
H3248 H 0.163 0.40366 0.25258 0.0
H3249 H 0.09292 0.39882 0.25872 0.0
H3250 H 0.17815 0.42273 0.30412 0.0
H3251 H 0.17627 0.39372 0.30742 0.0
H3252 H 0.18731 0.40532 0.28281 0.0
H3253 H 0.07607 0.40032 0.29254 0.0
H3254 H 0.09107 0.38927 0.31467 0.0
H3255 H 0.09197 0.4183 0.31196 0.0
H3256 H 0.13688 0.37717 0.37018 0.0
H3257 H 0.14218 0.44708 0.36466 0.0
H3258 H 0.14649 0.36435 0.31499 0.0
H3259 H 0.11747 0.36257 0.31884 0.0
H3260 H 0.13527 0.3532 0.33972 0.0
H3261 H 0.15163 0.44925 0.30857 0.0
H3262 H 0.14102 0.46418 0.331 0.0
H3263 H 0.12256 0.44868 0.31169 0.0
C3264 C 0.12886 0.6148 0.64972 0.0
C3265 C 0.11761 0.62907 0.63692 0.0
C3266 C 0.12787 0.61529 0.67276 0.0
C3267 C 0.11514 0.63026 0.68362 0.0
C3268 C 0.10412 0.64499 0.6708 0.0
C3269 C 0.10554 0.64428 0.64783 0.0
C3270 C 0.1401 0.59935 0.68551 0.0
C3271 C 0.09037 0.66127 0.68135 0.0
C3272 C 0.09413 0.61352 0.74 0.0
C3273 C 0.10877 0.62606 0.7545 0.0
C3274 C 0.09556 0.61532 0.71717 0.0
C3275 C 0.11242 0.62968 0.70815 0.0
C3276 C 0.12685 0.64292 0.72271 0.0
C3277 C 0.12476 0.6411 0.74558 0.0
C3278 C 0.07932 0.60128 0.70265 0.0
C3279 C 0.14522 0.65831 0.71413 0.0
H3280 H 0.13812 0.60286 0.64169 0.0
H3281 H 0.09658 0.65534 0.63834 0.0
H3282 H 0.15072 0.60826 0.69839 0.0
H3283 H 0.12816 0.58768 0.69372 0.0
H3284 H 0.15051 0.58984 0.675 0.0
H3285 H 0.08216 0.67111 0.66921 0.0
H3286 H 0.0776 0.65257 0.69139 0.0
H3287 H 0.10087 0.67261 0.69244 0.0
H3288 H 0.08176 0.60175 0.74654 0.0
H3289 H 0.13647 0.65059 0.75645 0.0
H3290 H 0.08811 0.58952 0.69298 0.0
H3291 H 0.0712 0.61169 0.69103 0.0
H3292 H 0.06641 0.59188 0.71202 0.0
H3293 H 0.1571 0.64869 0.70565 0.0
H3294 H 0.15419 0.66851 0.7273 0.0
H3295 H 0.13866 0.66931 0.70203 0.0
C3296 C 0.90998 0.64558 0.27535 0.0
C3297 C 0.91091 0.62569 0.26371 0.0
C3298 C 0.91017 0.64641 0.29847 0.0
C3299 C 0.91179 0.62699 0.31042 0.0
C3300 C 0.91356 0.60706 0.29866 0.0
C3301 C 0.91279 0.60662 0.27566 0.0
C3302 C 0.90803 0.66801 0.31012 0.0
C3303 C 0.91603 0.58604 0.31039 0.0
C3304 C 0.93328 0.63271 0.36969 0.0
C3305 C 0.91409 0.62877 0.38186 0.0
C3306 C 0.93273 0.63208 0.34673 0.0
C3307 C 0.91241 0.62753 0.33514 0.0
C3308 C 0.89294 0.62314 0.34726 0.0
C3309 C 0.89401 0.62365 0.3704 0.0
C3310 C 0.95403 0.63642 0.33487 0.0
C3311 C 0.87084 0.61846 0.33574 0.0
H3312 H 0.90805 0.66033 0.26641 0.0
H3313 H 0.91338 0.59112 0.26693 0.0
H3314 H 0.89321 0.66659 0.32029 0.0
H3315 H 0.92246 0.67231 0.32122 0.0
H3316 H 0.90671 0.6816 0.29866 0.0
H3317 H 0.91788 0.57203 0.29898 0.0
H3318 H 0.93063 0.58819 0.3216 0.0
H3319 H 0.90144 0.58187 0.32043 0.0
H3320 H 0.94897 0.63657 0.37823 0.0
H3321 H 0.87904 0.62086 0.37948 0.0
H3322 H 0.95283 0.64983 0.32323 0.0
H3323 H 0.95724 0.62154 0.32527 0.0
H3324 H 0.9683 0.64099 0.34615 0.0
H3325 H 0.86754 0.63253 0.32551 0.0
H3326 H 0.85723 0.61548 0.34729 0.0
H3327 H 0.87092 0.60388 0.32469 0.0
C3328 C 0.89661 0.38729 0.72508 0.0
C3329 C 0.91016 0.40433 0.73574 0.0
C3330 C 0.89509 0.38534 0.702 0.0
C3331 C 0.90774 0.40049 0.68899 0.0
C3332 C 0.92222 0.41706 0.69974 0.0
C3333 C 0.923 0.41895 0.72275 0.0
C3334 C 0.87921 0.36755 0.69152 0.0
C3335 C 0.93659 0.43324 0.6869 0.0
C3336 C 0.9177 0.3865 0.62872 0.0
C3337 C 0.90371 0.3996 0.61744 0.0
C3338 C 0.91898 0.38642 0.65175 0.0
C3339 C 0.90562 0.3994 0.66425 0.0
C3340 C 0.89094 0.41215 0.65296 0.0
C3341 C 0.89037 0.41232 0.62987 0.0
C3342 C 0.93536 0.37304 0.66269 0.0
C3343 C 0.87606 0.42599 0.66534 0.0
H3344 H 0.88627 0.37612 0.73475 0.0
H3345 H 0.93348 0.43227 0.73064 0.0
H3346 H 0.86633 0.3751 0.68207 0.0
H3347 H 0.8879 0.3575 0.67992 0.0
H3348 H 0.87109 0.35658 0.70368 0.0
H3349 H 0.94807 0.44418 0.69754 0.0
H3350 H 0.94636 0.42442 0.67518 0.0
H3351 H 0.92615 0.44355 0.67731 0.0
H3352 H 0.92839 0.37681 0.61951 0.0
H3353 H 0.87958 0.42261 0.62153 0.0
H3354 H 0.92707 0.36211 0.67475 0.0
H3355 H 0.94807 0.38415 0.67169 0.0
H3356 H 0.9437 0.36286 0.65086 0.0
H3357 H 0.86646 0.41584 0.67718 0.0
H3358 H 0.86442 0.43365 0.6544 0.0
H3359 H 0.88611 0.43919 0.67476 0.0
C3360 C 0.7526 0.90472 0.6251 0.0
C3361 C 0.74104 0.88381 0.62663 0.0
C3362 C 0.77582 0.90797 0.62763 0.0
C3363 C 0.7881 0.88996 0.63207 0.0
C3364 C 0.77657 0.86876 0.63316 0.0
C3365 C 0.75338 0.86596 0.63038 0.0
C3366 C 0.78721 0.93081 0.62596 0.0
C3367 C 0.7887 0.84901 0.63785 0.0
C3368 C 0.85027 0.89199 0.62232 0.0
C3369 C 0.85962 0.89574 0.6434 0.0
C3370 C 0.8273 0.8909 0.6183 0.0
C3371 C 0.81288 0.89319 0.63581 0.0
C3372 C 0.82225 0.89761 0.65707 0.0
C3373 C 0.8454 0.89897 0.66057 0.0
C3374 C 0.81844 0.88662 0.5953 0.0
C3375 C 0.80774 0.90009 0.67632 0.0
H3376 H 0.74343 0.91873 0.62235 0.0
H3377 H 0.74483 0.84973 0.63181 0.0
H3378 H 0.79532 0.93614 0.64181 0.0
H3379 H 0.80028 0.93095 0.61372 0.0
H3380 H 0.77561 0.94292 0.62136 0.0
H3381 H 0.77752 0.83359 0.63792 0.0
H3382 H 0.80138 0.8472 0.62548 0.0
H3383 H 0.79738 0.8513 0.65393 0.0
H3384 H 0.86098 0.88949 0.60884 0.0
H3385 H 0.85227 0.90165 0.67694 0.0
H3386 H 0.80679 0.89875 0.59098 0.0
H3387 H 0.80919 0.87013 0.594 0.0
H3388 H 0.83175 0.88739 0.58324 0.0
H3389 H 0.7965 0.91292 0.67327 0.0
H3390 H 0.81742 0.90447 0.6916 0.0
H3391 H 0.79735 0.88448 0.67864 0.0
C3392 C 0.60921 0.25264 0.13536 0.0
C3393 C 0.62829 0.2416 0.1334 0.0
C3394 C 0.60994 0.27574 0.13556 0.0
C3395 C 0.63039 0.28868 0.13436 0.0
C3396 C 0.64982 0.27769 0.13242 0.0
C3397 C 0.64853 0.25437 0.13166 0.0
C3398 C 0.58865 0.28631 0.13686 0.0
C3399 C 0.67206 0.29061 0.13148 0.0
C3400 C 0.63045 0.34753 0.11396 0.0
C3401 C 0.63121 0.36044 0.13328 0.0
C3402 C 0.63006 0.32445 0.11413 0.0
C3403 C 0.63111 0.31355 0.13416 0.0
C3404 C 0.63185 0.32646 0.15382 0.0
C3405 C 0.63162 0.34963 0.15316 0.0
C3406 C 0.62847 0.31171 0.09273 0.0
C3407 C 0.63339 0.3158 0.17558 0.0
H3408 H 0.59341 0.24308 0.1366 0.0
H3409 H 0.66341 0.24617 0.1304 0.0
H3410 H 0.5889 0.29705 0.15166 0.0
H3411 H 0.58677 0.29682 0.12262 0.0
H3412 H 0.57405 0.27403 0.13729 0.0
H3413 H 0.68568 0.27985 0.13091 0.0
H3414 H 0.67275 0.30093 0.11689 0.0
H3415 H 0.67472 0.30185 0.14594 0.0
H3416 H 0.63015 0.35559 0.09846 0.0
H3417 H 0.6326 0.35933 0.16819 0.0
H3418 H 0.61382 0.29946 0.09242 0.0
H3419 H 0.64313 0.30254 0.09086 0.0
H3420 H 0.62721 0.32248 0.07856 0.0
H3421 H 0.61873 0.30395 0.17774 0.0
H3422 H 0.63458 0.32797 0.18935 0.0
H3423 H 0.64804 0.30641 0.17623 0.0
C3424 C 0.19459 0.1343 0.65393 0.0
C3425 C 0.18003 0.13368 0.63581 0.0
C3426 C 0.21772 0.13564 0.65146 0.0
C3427 C 0.22679 0.13649 0.63037 0.0
C3428 C 0.21211 0.1352 0.61203 0.0
C3429 C 0.18912 0.13382 0.61495 0.0
C3430 C 0.23251 0.13676 0.67155 0.0
C3431 C 0.22069 0.13596 0.5892 0.0
C3432 C 0.28607 0.16346 0.62527 0.0
C3433 C 0.2985 0.14534 0.62365 0.0
C3434 C 0.2629 0.16081 0.62708 0.0
C3435 C 0.25152 0.13948 0.62751 0.0
C3436 C 0.26392 0.12112 0.62542 0.0
C3437 C 0.28708 0.12424 0.62347 0.0
C3438 C 0.25059 0.18095 0.62899 0.0
C3439 C 0.25275 0.09807 0.62579 0.0
H3440 H 0.18796 0.13435 0.67012 0.0
H3441 H 0.17822 0.1334 0.60073 0.0
H3442 H 0.24401 0.12384 0.67058 0.0
H3443 H 0.24262 0.15281 0.67257 0.0
H3444 H 0.22307 0.13472 0.68671 0.0
H3445 H 0.20725 0.13345 0.57662 0.0
H3446 H 0.23007 0.1521 0.58673 0.0
H3447 H 0.23218 0.12322 0.58672 0.0
H3448 H 0.29453 0.17986 0.62557 0.0
H3449 H 0.29633 0.11004 0.62246 0.0
H3450 H 0.24237 0.18126 0.64488 0.0
H3451 H 0.23754 0.18045 0.61607 0.0
H3452 H 0.26159 0.19637 0.62765 0.0
H3453 H 0.24478 0.09532 0.64166 0.0
H3454 H 0.26446 0.08549 0.62328 0.0
H3455 H 0.2396 0.0957 0.61295 0.0
C3456 C 0.41191 0.76604 0.13778 0.0
C3457 C 0.3928 0.7769 0.13471 0.0
C3458 C 0.41125 0.74295 0.13792 0.0
C3459 C 0.39085 0.72987 0.13552 0.0
C3460 C 0.37139 0.74067 0.1325 0.0
C3461 C 0.37261 0.76395 0.13183 0.0
C3462 C 0.43258 0.73255 0.14041 0.0
C3463 C 0.34919 0.7276 0.13027 0.0
C3464 C 0.39125 0.67018 0.11481 0.0
C3465 C 0.3905 0.65811 0.13403 0.0
C3466 C 0.39145 0.69326 0.11513 0.0
C3467 C 0.39024 0.705 0.13515 0.0
C3468 C 0.38946 0.69294 0.1547 0.0
C3469 C 0.38989 0.66976 0.15394 0.0
C3470 C 0.39309 0.70509 0.09388 0.0
C3471 C 0.38774 0.70451 0.17643 0.0
H3472 H 0.42768 0.77572 0.13989 0.0
H3473 H 0.3577 0.77201 0.12968 0.0
H3474 H 0.43226 0.7224 0.15511 0.0
H3475 H 0.43461 0.72148 0.1262 0.0
H3476 H 0.44713 0.74492 0.14178 0.0
H3477 H 0.33553 0.73826 0.12906 0.0
H3478 H 0.34858 0.71672 0.11554 0.0
H3479 H 0.34655 0.71691 0.14448 0.0
H3480 H 0.39172 0.66147 0.09929 0.0
H3481 H 0.38893 0.6607 0.16887 0.0
H3482 H 0.4077 0.71738 0.09445 0.0
H3483 H 0.3784 0.71412 0.09125 0.0
H3484 H 0.39442 0.69373 0.07972 0.0
H3485 H 0.40236 0.7165 0.17951 0.0
H3486 H 0.38648 0.69292 0.19006 0.0
H3487 H 0.37307 0.71388 0.17628 0.0
C3488 C 0.76456 0.15759 0.39796 0.0
C3489 C 0.75139 0.13812 0.39224 0.0
C3490 C 0.78789 0.15882 0.39695 0.0
C3491 C 0.79848 0.14003 0.39059 0.0
C3492 C 0.78518 0.12034 0.38513 0.0
C3493 C 0.76206 0.11971 0.3858 0.0
C3494 C 0.80123 0.18029 0.40261 0.0
C3495 C 0.79541 0.09966 0.37892 0.0
C3496 C 0.85885 0.14433 0.37213 0.0
C3497 C 0.87031 0.1404 0.39149 0.0
C3498 C 0.83559 0.1446 0.37161 0.0
C3499 C 0.82336 0.14043 0.39077 0.0
C3500 C 0.83494 0.13577 0.41011 0.0
C3501 C 0.85808 0.13613 0.41028 0.0
C3502 C 0.82415 0.14998 0.35069 0.0
C3503 C 0.8229 0.13054 0.43081 0.0
H3504 H 0.75666 0.17196 0.40281 0.0
H3505 H 0.75225 0.10445 0.3815 0.0
H3506 H 0.81191 0.17843 0.41716 0.0
H3507 H 0.81219 0.18511 0.38903 0.0
H3508 H 0.79068 0.19371 0.40599 0.0
H3509 H 0.78287 0.08566 0.37501 0.0
H3510 H 0.80589 0.10251 0.36458 0.0
H3511 H 0.80619 0.09502 0.39248 0.0
H3512 H 0.86812 0.14816 0.35767 0.0
H3513 H 0.86676 0.13324 0.42538 0.0
H3514 H 0.81523 0.16474 0.3533 0.0
H3515 H 0.81173 0.1363 0.34557 0.0
H3516 H 0.83584 0.1531 0.33729 0.0
H3517 H 0.81412 0.1447 0.43607 0.0
H3518 H 0.83417 0.12658 0.44429 0.0
H3519 H 0.81033 0.11638 0.42787 0.0
C3520 C 0.37455 0.26384 0.90102 0.0
C3521 C 0.36683 0.27289 0.88178 0.0
C3522 C 0.37394 0.24085 0.9036 0.0
C3523 C 0.36573 0.22612 0.88644 0.0
C3524 C 0.35834 0.23518 0.8668 0.0
C3525 C 0.35878 0.25825 0.8648 0.0
C3526 C 0.38175 0.23231 0.92496 0.0
C3527 C 0.34982 0.22043 0.84783 0.0
C3528 C 0.38192 0.16667 0.88539 0.0
C3529 C 0.36272 0.15435 0.89217 0.0
C3530 C 0.38315 0.18978 0.8836 0.0
C3531 C 0.36487 0.20136 0.88899 0.0
C3532 C 0.34565 0.18909 0.89647 0.0
C3533 C 0.34474 0.16591 0.89775 0.0
C3534 C 0.40392 0.20177 0.87529 0.0
C3535 C 0.32584 0.20047 0.90283 0.0
H3536 H 0.38063 0.27477 0.91441 0.0
H3537 H 0.3527 0.26483 0.84986 0.0
H3538 H 0.36814 0.2219 0.93232 0.0
H3539 H 0.39531 0.22183 0.9222 0.0
H3540 H 0.38765 0.24573 0.93676 0.0
H3541 H 0.34541 0.22985 0.83342 0.0
H3542 H 0.36243 0.20945 0.84312 0.0
H3543 H 0.33504 0.20985 0.85262 0.0
H3544 H 0.39591 0.15815 0.88075 0.0
H3545 H 0.32974 0.15678 0.90289 0.0
H3546 H 0.41056 0.21474 0.88722 0.0
H3547 H 0.40015 0.20998 0.85994 0.0
H3548 H 0.41686 0.19062 0.87215 0.0
H3549 H 0.3307 0.21361 0.91523 0.0
H3550 H 0.31263 0.18896 0.90947 0.0
H3551 H 0.31907 0.20839 0.88844 0.0
C3552 C 0.17088 0.87326 0.38757 0.0
C3553 C 0.16018 0.89262 0.38779 0.0
C3554 C 0.19404 0.87368 0.38796 0.0
C3555 C 0.20732 0.894 0.3891 0.0
C3556 C 0.19666 0.91367 0.38896 0.0
C3557 C 0.17332 0.91277 0.38811 0.0
C3558 C 0.20432 0.85223 0.38745 0.0
C3559 C 0.20996 0.93574 0.39039 0.0
C3560 C 0.26734 0.89397 0.41069 0.0
C3561 C 0.27935 0.89552 0.39148 0.0
C3562 C 0.24404 0.89366 0.41022 0.0
C3563 C 0.23223 0.89451 0.39005 0.0
C3564 C 0.2443 0.89535 0.37062 0.0
C3565 C 0.26749 0.89606 0.3716 0.0
C3566 C 0.23207 0.89298 0.43141 0.0
C3567 C 0.23271 0.89568 0.34868 0.0
H3568 H 0.16101 0.85757 0.38739 0.0
H3569 H 0.16538 0.92783 0.38871 0.0
H3570 H 0.21581 0.85185 0.37376 0.0
H3571 H 0.21408 0.85066 0.40269 0.0
H3572 H 0.19183 0.83783 0.38564 0.0
H3573 H 0.19941 0.94952 0.39007 0.0
H3574 H 0.22012 0.93713 0.40566 0.0
H3575 H 0.22143 0.93739 0.37667 0.0
H3576 H 0.2762 0.89388 0.42617 0.0
H3577 H 0.27645 0.89725 0.35659 0.0
H3578 H 0.21992 0.87831 0.43151 0.0
H3579 H 0.22277 0.9076 0.43309 0.0
H3580 H 0.24345 0.89257 0.44573 0.0
H3581 H 0.22039 0.88119 0.34659 0.0
H3582 H 0.24431 0.89563 0.33503 0.0
H3583 H 0.22368 0.91049 0.34762 0.0
C3584 C 0.64733 0.74839 0.8983 0.0
C3585 C 0.65278 0.73932 0.87809 0.0
C3586 C 0.64779 0.77137 0.90201 0.0
C3587 C 0.65376 0.78607 0.88513 0.0
C3588 C 0.65887 0.777 0.86457 0.0
C3589 C 0.65841 0.75394 0.86135 0.0
C3590 C 0.64224 0.77994 0.92422 0.0
C3591 C 0.66513 0.79172 0.84594 0.0
C3592 C 0.63728 0.84537 0.88767 0.0
C3593 C 0.65705 0.85786 0.89419 0.0
C3594 C 0.63592 0.82223 0.88499 0.0
C3595 C 0.65473 0.81082 0.88895 0.0
C3596 C 0.67458 0.82325 0.89611 0.0
C3597 C 0.67552 0.84644 0.89855 0.0
C3598 C 0.61436 0.81002 0.87732 0.0
C3599 C 0.69508 0.81207 0.90077 0.0
H3600 H 0.6431 0.73749 0.91151 0.0
H3601 H 0.66277 0.74737 0.84568 0.0
H3602 H 0.6566 0.79035 0.93141 0.0
H3603 H 0.62846 0.79041 0.9228 0.0
H3604 H 0.63754 0.76653 0.93554 0.0
H3605 H 0.6681 0.78229 0.83081 0.0
H3606 H 0.65189 0.80246 0.84255 0.0
H3607 H 0.68026 0.80256 0.85042 0.0
H3608 H 0.62285 0.85377 0.88404 0.0
H3609 H 0.69096 0.85567 0.90344 0.0
H3610 H 0.6092 0.79698 0.88885 0.0
H3611 H 0.61644 0.80187 0.86129 0.0
H3612 H 0.601 0.82101 0.8757 0.0
H3613 H 0.69163 0.79906 0.9128 0.0
H3614 H 0.70894 0.82373 0.90715 0.0
H3615 H 0.70028 0.80402 0.88565 0.0
C3616 C 0.91732 0.65599 0.86889 0.0
C3617 C 0.91248 0.63752 0.88171 0.0
C3618 C 0.91599 0.65443 0.84581 0.0
C3619 C 0.90961 0.63392 0.83502 0.0
C3620 C 0.90495 0.61524 0.84792 0.0
C3621 C 0.90661 0.61721 0.87087 0.0
C3622 C 0.92086 0.6749 0.83294 0.0
C3623 C 0.89808 0.59301 0.83751 0.0
C3624 C 0.88465 0.63175 0.7767 0.0
C3625 C 0.9027 0.62794 0.7638 0.0
C3626 C 0.88673 0.63396 0.79966 0.0
C3627 C 0.9073 0.63198 0.81037 0.0
C3628 C 0.92544 0.62758 0.79747 0.0
C3629 C 0.92301 0.62588 0.77449 0.0
C3630 C 0.86687 0.63863 0.8125 0.0
C3631 C 0.94753 0.62475 0.80797 0.0
H3632 H 0.92166 0.67182 0.87689 0.0
H3633 H 0.90279 0.60273 0.88038 0.0
H3634 H 0.93403 0.67254 0.82123 0.0
H3635 H 0.90598 0.67817 0.82331 0.0
H3636 H 0.92608 0.6895 0.84354 0.0
H3637 H 0.89118 0.58118 0.84954 0.0
H3638 H 0.88554 0.5941 0.82434 0.0
H3639 H 0.91262 0.58655 0.83009 0.0
H3640 H 0.86893 0.63366 0.76878 0.0
H3641 H 0.93714 0.62303 0.76485 0.0
H3642 H 0.87054 0.65406 0.82229 0.0
H3643 H 0.86286 0.62527 0.82405 0.0
H3644 H 0.85216 0.64017 0.80187 0.0
H3645 H 0.95361 0.63978 0.81755 0.0
H3646 H 0.96002 0.6213 0.79583 0.0
H3647 H 0.94584 0.61103 0.81947 0.0
C3648 C 0.89799 0.39928 0.22417 0.0
C3649 C 0.91618 0.39091 0.23432 0.0
C3650 C 0.89549 0.39927 0.20108 0.0
C3651 C 0.91168 0.39104 0.18762 0.0
C3652 C 0.93013 0.38288 0.19785 0.0
C3653 C 0.93203 0.38277 0.22075 0.0
C3654 C 0.87545 0.40801 0.19104 0.0
C3655 C 0.94817 0.37442 0.18456 0.0
C3656 C 0.89988 0.37151 0.12797 0.0
C3657 C 0.90857 0.38957 0.11613 0.0
C3658 C 0.90018 0.37203 0.15105 0.0
C3659 C 0.90972 0.39092 0.16292 0.0
C3660 C 0.91879 0.40908 0.15103 0.0
C3661 C 0.91787 0.40829 0.12798 0.0
C3662 C 0.89013 0.3523 0.16277 0.0
C3663 C 0.92947 0.4295 0.16264 0.0
H3664 H 0.88561 0.40565 0.23424 0.0
H3665 H 0.94637 0.37644 0.22805 0.0
H3666 H 0.88055 0.42236 0.18104 0.0
H3667 H 0.8666 0.39533 0.18 0.0
H3668 H 0.86392 0.41306 0.2035 0.0
H3669 H 0.96165 0.36891 0.19488 0.0
H3670 H 0.94131 0.36044 0.17387 0.0
H3671 H 0.95525 0.38747 0.17385 0.0
H3672 H 0.89231 0.35707 0.11919 0.0
H3673 H 0.92443 0.42249 0.11919 0.0
H3674 H 0.87754 0.35729 0.17411 0.0
H3675 H 0.90299 0.34522 0.17267 0.0
H3676 H 0.88231 0.33934 0.15136 0.0
H3677 H 0.9167 0.43817 0.17083 0.0
H3678 H 0.93823 0.44091 0.15128 0.0
H3679 H 0.94139 0.42522 0.17538 0.0
C3680 C 0.15334 0.39875 0.85798 0.0
C3681 C 0.13394 0.39857 0.86991 0.0
C3682 C 0.15305 0.39907 0.83501 0.0
C3683 C 0.13286 0.39977 0.82328 0.0
C3684 C 0.1131 0.39908 0.83518 0.0
C3685 C 0.11384 0.39832 0.85826 0.0
C3686 C 0.17452 0.39919 0.82332 0.0
C3687 C 0.09119 0.40001 0.82357 0.0
C3688 C 0.1348 0.42197 0.76489 0.0
C3689 C 0.13124 0.40264 0.75201 0.0
C3690 C 0.13527 0.42134 0.78799 0.0
C3691 C 0.13252 0.4009 0.79863 0.0
C3692 C 0.12974 0.38138 0.7856 0.0
C3693 C 0.12892 0.3825 0.76269 0.0
C3694 C 0.13807 0.44263 0.80104 0.0
C3695 C 0.12732 0.35917 0.79588 0.0
H3696 H 0.16901 0.3992 0.86674 0.0
H3697 H 0.09881 0.39878 0.86722 0.0
H3698 H 0.17354 0.38563 0.81093 0.0
H3699 H 0.17776 0.41477 0.81461 0.0
H3700 H 0.18867 0.39743 0.83463 0.0
H3701 H 0.07728 0.39898 0.83495 0.0
H3702 H 0.09126 0.41558 0.8147 0.0
H3703 H 0.08834 0.38639 0.8113 0.0
H3704 H 0.13626 0.43763 0.75695 0.0
H3705 H 0.12615 0.36741 0.75302 0.0
H3706 H 0.15269 0.44297 0.81216 0.0
H3707 H 0.12354 0.44395 0.81133 0.0
H3708 H 0.14004 0.45714 0.79053 0.0
H3709 H 0.14159 0.35744 0.80701 0.0
H3710 H 0.12613 0.3455 0.78357 0.0
H3711 H 0.11233 0.35758 0.80579 0.0
C3712 C 0.12326 0.63085 0.2444 0.0
C3713 C 0.10235 0.63274 0.25297 0.0
C3714 C 0.12678 0.63214 0.22164 0.0
C3715 C 0.10901 0.63515 0.20692 0.0
C3716 C 0.0879 0.63667 0.21554 0.0
C3717 C 0.0849 0.63557 0.23817 0.0
C3718 C 0.14955 0.63025 0.2133 0.0
C3719 C 0.06827 0.63939 0.20078 0.0
C3720 C 0.11748 0.65737 0.14917 0.0
C3721 C 0.1139 0.63825 0.13593 0.0
C3722 C 0.11648 0.65658 0.17218 0.0
C3723 C 0.11202 0.63616 0.18251 0.0
C3724 C 0.10876 0.61681 0.1692 0.0
C3725 C 0.10951 0.6181 0.1463 0.0
C3726 C 0.12011 0.67768 0.18549 0.0
C3727 C 0.10407 0.59459 0.17904 0.0
H3728 H 0.13692 0.62871 0.25546 0.0
H3729 H 0.06856 0.63687 0.24428 0.0
H3730 H 0.14926 0.61596 0.20182 0.0
H3731 H 0.15509 0.64507 0.20414 0.0
H3732 H 0.16174 0.62829 0.22665 0.0
H3733 H 0.05295 0.64058 0.20994 0.0
H3734 H 0.07142 0.6544 0.19114 0.0
H3735 H 0.06557 0.62525 0.18909 0.0
H3736 H 0.12114 0.67302 0.14155 0.0
H3737 H 0.10691 0.60309 0.13648 0.0
H3738 H 0.13349 0.67658 0.19783 0.0
H3739 H 0.10498 0.68039 0.1944 0.0
H3740 H 0.12445 0.6921 0.17528 0.0
H3741 H 0.11405 0.59318 0.19417 0.0
H3742 H 0.10751 0.58122 0.1675 0.0
H3743 H 0.08646 0.59219 0.18331 0.0
loop_
_geom_bond_atom_site_label_1
_geom_bond_atom_site_label_2
_geom_bond_distance
_geom_bond_site_symmetry_2
_ccdc_geom_bond_type
O0 Cd1 2.223 . S
O0 C8 1.315 . S
Cd1 O0 2.223 . S
Cd1 O4 2.297 . S
Cd1 O5 2.439 . S
Cd1 O11 2.240 . S
Cd2 O3 2.240 . S
Cd2 O10 2.223 . S
Cd2 O12 2.297 . S
Cd2 O13 2.439 . S
O3 Cd2 2.240 . S
O3 C8 1.279 . S
O4 Cd1 2.297 . S
O4 C6 1.247 . S
O5 Cd1 2.439 . S
O5 C6 1.208 . S
C6 O4 1.247 . S
C6 O5 1.208 . S
C7 O12 1.247 . S
C7 O13 1.208 . S
C8 O0 1.315 . S
C8 O3 1.279 . S
C9 O10 1.315 . S
C9 O11 1.279 . S
O10 Cd2 2.223 . S
O10 C9 1.315 . S
O11 Cd1 2.240 . S
O11 C9 1.279 . S
O12 Cd2 2.297 . S
O12 C7 1.247 . S
O13 Cd2 2.439 . S
O13 C7 1.208 . S
O14 Cd15 2.223 . S
O14 C22 1.315 . S
Cd15 O14 2.223 . S
Cd15 O18 2.297 . S
Cd15 O19 2.439 . S
Cd15 O25 2.240 . S
Cd16 O17 2.240 . S
Cd16 O24 2.223 . S
Cd16 O26 2.297 . S
Cd16 O27 2.439 . S
O17 Cd16 2.240 . S
O17 C22 1.279 . S
O18 Cd15 2.297 . S
O18 C20 1.247 . S
O19 Cd15 2.439 . S
O19 C20 1.208 . S
C20 O18 1.247 . S
C20 O19 1.208 . S
C21 O26 1.247 . S
C21 O27 1.208 . S
C22 O14 1.315 . S
C22 O17 1.279 . S
C23 O24 1.315 . S
C23 O25 1.279 . S
O24 Cd16 2.223 . S
O24 C23 1.315 . S
O25 Cd15 2.240 . S
O25 C23 1.279 . S
O26 Cd16 2.297 . S
O26 C21 1.247 . S
O27 Cd16 2.439 . S
O27 C21 1.208 . S
O28 Cd29 2.223 . S
O28 C36 1.315 . S
Cd29 O28 2.223 . S
Cd29 O32 2.297 . S
Cd29 O33 2.439 . S
Cd29 O39 2.240 . S
Cd30 O31 2.240 . S
Cd30 O38 2.223 . S
Cd30 O40 2.297 . S
Cd30 O41 2.439 . S
O31 Cd30 2.240 . S
O31 C36 1.279 . S
O32 Cd29 2.297 . S
O32 C34 1.247 . S
O33 Cd29 2.439 . S
O33 C34 1.208 . S
C34 O32 1.247 . S
C34 O33 1.208 . S
C35 O40 1.247 . S
C35 O41 1.208 . S
C36 O28 1.315 . S
C36 O31 1.279 . S
C37 O38 1.315 . S
C37 O39 1.279 . S
O38 Cd30 2.223 . S
O38 C37 1.315 . S
O39 Cd29 2.240 . S
O39 C37 1.279 . S
O40 Cd30 2.297 . S
O40 C35 1.247 . S
O41 Cd30 2.439 . S
O41 C35 1.208 . S
O42 Cd43 2.223 . S
O42 C50 1.315 . S
Cd43 O42 2.223 . S
Cd43 O46 2.297 . S
Cd43 O47 2.439 . S
Cd43 O53 2.240 . S
Cd44 O45 2.240 . S
Cd44 O52 2.223 . S
Cd44 O54 2.297 . S
Cd44 O55 2.439 . S
O45 Cd44 2.240 . S
O45 C50 1.279 . S
O46 Cd43 2.297 . S
O46 C48 1.247 . S
O47 Cd43 2.439 . S
O47 C48 1.208 . S
C48 O46 1.247 . S
C48 O47 1.208 . S
C49 O54 1.247 . S
C49 O55 1.208 . S
C50 O42 1.315 . S
C50 O45 1.279 . S
C51 O52 1.315 . S
C51 O53 1.279 . S
O52 Cd44 2.223 . S
O52 C51 1.315 . S
O53 Cd43 2.240 . S
O53 C51 1.279 . S
O54 Cd44 2.297 . S
O54 C49 1.247 . S
O55 Cd44 2.439 . S
O55 C49 1.208 . S
O56 Cd57 2.223 . S
O56 C64 1.315 . S
Cd57 O56 2.223 . S
Cd57 O60 2.297 . S
Cd57 O61 2.439 . S
Cd57 O67 2.240 . S
Cd58 O59 2.240 . S
Cd58 O66 2.223 . S
Cd58 O68 2.297 . S
Cd58 O69 2.439 . S
O59 Cd58 2.240 . S
O59 C64 1.279 . S
O60 Cd57 2.297 . S
O60 C62 1.247 . S
O61 Cd57 2.439 . S
O61 C62 1.208 . S
C62 O60 1.247 . S
C62 O61 1.208 . S
C63 O68 1.247 . S
C63 O69 1.208 . S
C64 O56 1.315 . S
C64 O59 1.279 . S
C65 O66 1.315 . S
C65 O67 1.279 . S
O66 Cd58 2.223 . S
O66 C65 1.315 . S
O67 Cd57 2.240 . S
O67 C65 1.279 . S
O68 Cd58 2.297 . S
O68 C63 1.247 . S
O69 Cd58 2.439 . S
O69 C63 1.208 . S
O70 Cd71 2.223 . S
O70 C78 1.315 . S
Cd71 O70 2.223 . S
Cd71 O74 2.297 . S
Cd71 O75 2.439 . S
Cd71 O81 2.240 . S
Cd72 O73 2.240 . S
Cd72 O80 2.223 . S
Cd72 O82 2.297 . S
Cd72 O83 2.439 . S
O73 Cd72 2.240 . S
O73 C78 1.279 . S
O74 Cd71 2.297 . S
O74 C76 1.247 . S
O75 Cd71 2.439 . S
O75 C76 1.208 . S
C76 O74 1.247 . S
C76 O75 1.208 . S
C77 O82 1.247 . S
C77 O83 1.208 . S
C78 O70 1.315 . S
C78 O73 1.279 . S
C79 O80 1.315 . S
C79 O81 1.279 . S
O80 Cd72 2.223 . S
O80 C79 1.315 . S
O81 Cd71 2.240 . S
O81 C79 1.279 . S
O82 Cd72 2.297 . S
O82 C77 1.247 . S
O83 Cd72 2.439 . S
O83 C77 1.208 . S
O84 Cd85 2.223 . S
O84 C92 1.315 . S
Cd85 O84 2.223 . S
Cd85 O88 2.297 . S
Cd85 O89 2.439 . S
Cd85 O95 2.240 . S
Cd86 O87 2.240 . S
Cd86 O94 2.223 . S
Cd86 O96 2.297 . S
Cd86 O97 2.439 . S
O87 Cd86 2.240 . S
O87 C92 1.279 . S
O88 Cd85 2.297 . S
O88 C90 1.247 . S
O89 Cd85 2.439 . S
O89 C90 1.208 . S
C90 O88 1.247 . S
C90 O89 1.208 . S
C91 O96 1.247 . S
C91 O97 1.208 . S
C92 O84 1.315 . S
C92 O87 1.279 . S
C93 O94 1.315 . S
C93 O95 1.279 . S
O94 Cd86 2.223 . S
O94 C93 1.315 . S
O95 Cd85 2.240 . S
O95 C93 1.279 . S
O96 Cd86 2.297 . S
O96 C91 1.247 . S
O97 Cd86 2.439 . S
O97 C91 1.208 . S
O98 Cd99 2.223 . S
O98 C106 1.315 . S
Cd99 O98 2.223 . S
Cd99 O102 2.297 . S
Cd99 O103 2.439 . S
Cd99 O109 2.240 . S
Cd100 O101 2.240 . S
Cd100 O108 2.223 . S
Cd100 O110 2.297 . S
Cd100 O111 2.439 . S
O101 Cd100 2.240 . S
O101 C106 1.279 . S
O102 Cd99 2.297 . S
O102 C104 1.247 . S
O103 Cd99 2.439 . S
O103 C104 1.208 . S
C104 O102 1.247 . S
C104 O103 1.208 . S
C105 O110 1.247 . S
C105 O111 1.208 . S
C106 O98 1.315 . S
C106 O101 1.279 . S
C107 O108 1.315 . S
C107 O109 1.279 . S
O108 Cd100 2.223 . S
O108 C107 1.315 . S
O109 Cd99 2.240 . S
O109 C107 1.279 . S
O110 Cd100 2.297 . S
O110 C105 1.247 . S
O111 Cd100 2.439 . S
O111 C105 1.208 . S
O112 Cd113 2.223 . S
O112 C120 1.315 . S
Cd113 O112 2.223 . S
Cd113 O116 2.297 . S
Cd113 O117 2.439 . S
Cd113 O123 2.240 . S
Cd114 O115 2.240 . S
Cd114 O122 2.223 . S
Cd114 O124 2.297 . S
Cd114 O125 2.439 . S
O115 Cd114 2.240 . S
O115 C120 1.279 . S
O116 Cd113 2.297 . S
O116 C118 1.247 . S
O117 Cd113 2.439 . S
O117 C118 1.208 . S
C118 O116 1.247 . S
C118 O117 1.208 . S
C119 O124 1.247 . S
C119 O125 1.208 . S
C120 O112 1.315 . S
C120 O115 1.279 . S
C121 O122 1.315 . S
C121 O123 1.279 . S
O122 Cd114 2.223 . S
O122 C121 1.315 . S
O123 Cd113 2.240 . S
O123 C121 1.279 . S
O124 Cd114 2.297 . S
O124 C119 1.247 . S
O125 Cd114 2.439 . S
O125 C119 1.208 . S
O126 Cd127 2.223 . S
O126 C134 1.315 . S
Cd127 O126 2.223 . S
Cd127 O130 2.297 . S
Cd127 O131 2.439 . S
Cd127 O137 2.240 . S
Cd128 O129 2.240 . S
Cd128 O136 2.223 . S
Cd128 O138 2.297 . S
Cd128 O139 2.439 . S
O129 Cd128 2.240 . S
O129 C134 1.279 . S
O130 Cd127 2.297 . S
O130 C132 1.247 . S
O131 Cd127 2.439 . S
O131 C132 1.208 . S
C132 O130 1.247 . S
C132 O131 1.208 . S
C133 O138 1.247 . S
C133 O139 1.208 . S
C134 O126 1.315 . S
C134 O129 1.279 . S
C135 O136 1.315 . S
C135 O137 1.279 . S
O136 Cd128 2.223 . S
O136 C135 1.315 . S
O137 Cd127 2.240 . S
O137 C135 1.279 . S
O138 Cd128 2.297 . S
O138 C133 1.247 . S
O139 Cd128 2.439 . S
O139 C133 1.208 . S
O140 Cd141 2.223 . S
O140 C148 1.315 . S
Cd141 O140 2.223 . S
Cd141 O144 2.297 . S
Cd141 O145 2.439 . S
Cd141 O151 2.240 . S
Cd142 O143 2.240 . S
Cd142 O150 2.223 . S
Cd142 O152 2.297 . S
Cd142 O153 2.439 . S
O143 Cd142 2.240 . S
O143 C148 1.279 . S
O144 Cd141 2.297 . S
O144 C146 1.247 . S
O145 Cd141 2.439 . S
O145 C146 1.208 . S
C146 O144 1.247 . S
C146 O145 1.208 . S
C147 O152 1.247 . S
C147 O153 1.208 . S
C148 O140 1.315 . S
C148 O143 1.279 . S
C149 O150 1.315 . S
C149 O151 1.279 . S
O150 Cd142 2.223 . S
O150 C149 1.315 . S
O151 Cd141 2.240 . S
O151 C149 1.279 . S
O152 Cd142 2.297 . S
O152 C147 1.247 . S
O153 Cd142 2.439 . S
O153 C147 1.208 . S
O154 Cd155 2.223 . S
O154 C162 1.315 . S
Cd155 O154 2.223 . S
Cd155 O158 2.297 . S
Cd155 O159 2.439 . S
Cd155 O165 2.240 . S
Cd156 O157 2.240 . S
Cd156 O164 2.223 . S
Cd156 O166 2.297 . S
Cd156 O167 2.439 . S
O157 Cd156 2.240 . S
O157 C162 1.279 . S
O158 Cd155 2.297 . S
O158 C160 1.247 . S
O159 Cd155 2.439 . S
O159 C160 1.208 . S
C160 O158 1.247 . S
C160 O159 1.208 . S
C161 O166 1.247 . S
C161 O167 1.208 . S
C162 O154 1.315 . S
C162 O157 1.279 . S
C163 O164 1.315 . S
C163 O165 1.279 . S
O164 Cd156 2.223 . S
O164 C163 1.315 . S
O165 Cd155 2.240 . S
O165 C163 1.279 . S
O166 Cd156 2.297 . S
O166 C161 1.247 . S
O167 Cd156 2.439 . S
O167 C161 1.208 . S
O168 Cd169 2.223 . S
O168 C176 1.315 . S
Cd169 O168 2.223 . S
Cd169 O172 2.297 . S
Cd169 O173 2.439 . S
Cd169 O179 2.240 . S
Cd170 O171 2.240 . S
Cd170 O178 2.223 . S
Cd170 O180 2.297 . S
Cd170 O181 2.439 . S
O171 Cd170 2.240 . S
O171 C176 1.279 . S
O172 Cd169 2.297 . S
O172 C174 1.247 . S
O173 Cd169 2.439 . S
O173 C174 1.208 . S
C174 O172 1.247 . S
C174 O173 1.208 . S
C175 O180 1.247 . S
C175 O181 1.208 . S
C176 O168 1.315 . S
C176 O171 1.279 . S
C177 O178 1.315 . S
C177 O179 1.279 . S
O178 Cd170 2.223 . S
O178 C177 1.315 . S
O179 Cd169 2.240 . S
O179 C177 1.279 . S
O180 Cd170 2.297 . S
O180 C175 1.247 . S
O181 Cd170 2.439 . S
O181 C175 1.208 . S
O182 Cd183 2.223 . S
O182 C190 1.315 . S
Cd183 O182 2.223 . S
Cd183 O186 2.297 . S
Cd183 O187 2.439 . S
Cd183 O193 2.240 . S
Cd184 O185 2.240 . S
Cd184 O192 2.223 . S
Cd184 O194 2.297 . S
Cd184 O195 2.439 . S
O185 Cd184 2.240 . S
O185 C190 1.279 . S
O186 Cd183 2.297 . S
O186 C188 1.247 . S
O187 Cd183 2.439 . S
O187 C188 1.208 . S
C188 O186 1.247 . S
C188 O187 1.208 . S
C189 O194 1.247 . S
C189 O195 1.208 . S
C190 O182 1.315 . S
C190 O185 1.279 . S
C191 O192 1.315 . S
C191 O193 1.279 . S
O192 Cd184 2.223 . S
O192 C191 1.315 . S
O193 Cd183 2.240 . S
O193 C191 1.279 . S
O194 Cd184 2.297 . S
O194 C189 1.247 . S
O195 Cd184 2.439 . S
O195 C189 1.208 . S
O196 Cd197 2.223 . S
O196 C204 1.315 . S
Cd197 O196 2.223 . S
Cd197 O200 2.297 . S
Cd197 O201 2.439 . S
Cd197 O207 2.240 . S
Cd198 O199 2.240 . S
Cd198 O206 2.223 . S
Cd198 O208 2.297 . S
Cd198 O209 2.439 . S
O199 Cd198 2.240 . S
O199 C204 1.279 . S
O200 Cd197 2.297 . S
O200 C202 1.247 . S
O201 Cd197 2.439 . S
O201 C202 1.208 . S
C202 O200 1.247 . S
C202 O201 1.208 . S
C203 O208 1.247 . S
C203 O209 1.208 . S
C204 O196 1.315 . S
C204 O199 1.279 . S
C205 O206 1.315 . S
C205 O207 1.279 . S
O206 Cd198 2.223 . S
O206 C205 1.315 . S
O207 Cd197 2.240 . S
O207 C205 1.279 . S
O208 Cd198 2.297 . S
O208 C203 1.247 . S
O209 Cd198 2.439 . S
O209 C203 1.208 . S
O210 Cd211 2.223 . S
O210 C218 1.315 . S
Cd211 O210 2.223 . S
Cd211 O214 2.297 . S
Cd211 O215 2.439 . S
Cd211 O221 2.240 . S
Cd212 O213 2.240 . S
Cd212 O220 2.223 . S
Cd212 O222 2.297 . S
Cd212 O223 2.439 . S
O213 Cd212 2.240 . S
O213 C218 1.279 . S
O214 Cd211 2.297 . S
O214 C216 1.247 . S
O215 Cd211 2.439 . S
O215 C216 1.208 . S
C216 O214 1.247 . S
C216 O215 1.208 . S
C217 O222 1.247 . S
C217 O223 1.208 . S
C218 O210 1.315 . S
C218 O213 1.279 . S
C219 O220 1.315 . S
C219 O221 1.279 . S
O220 Cd212 2.223 . S
O220 C219 1.315 . S
O221 Cd211 2.240 . S
O221 C219 1.279 . S
O222 Cd212 2.297 . S
O222 C217 1.247 . S
O223 Cd212 2.439 . S
O223 C217 1.208 . S
O224 Cd225 2.223 . S
O224 C232 1.315 . S
Cd225 O224 2.223 . S
Cd225 O228 2.297 . S
Cd225 O229 2.439 . S
Cd225 O235 2.240 . S
Cd226 O227 2.240 . S
Cd226 O234 2.223 . S
Cd226 O236 2.297 . S
Cd226 O237 2.439 . S
O227 Cd226 2.240 . S
O227 C232 1.279 . S
O228 Cd225 2.297 . S
O228 C230 1.247 . S
O229 Cd225 2.439 . S
O229 C230 1.208 . S
C230 O228 1.247 . S
C230 O229 1.208 . S
C231 O236 1.247 . S
C231 O237 1.208 . S
C232 O224 1.315 . S
C232 O227 1.279 . S
C233 O234 1.315 . S
C233 O235 1.279 . S
O234 Cd226 2.223 . S
O234 C233 1.315 . S
O235 Cd225 2.240 . S
O235 C233 1.279 . S
O236 Cd226 2.297 . S
O236 C231 1.247 . S
O237 Cd226 2.439 . S
O237 C231 1.208 . S
O238 Cd239 2.223 . S
O238 C246 1.315 . S
Cd239 O238 2.223 . S
Cd239 O242 2.297 . S
Cd239 O243 2.439 . S
Cd239 O249 2.240 . S
Cd240 O241 2.240 . S
Cd240 O248 2.223 . S
Cd240 O250 2.297 . S
Cd240 O251 2.439 . S
O241 Cd240 2.240 . S
O241 C246 1.279 . S
O242 Cd239 2.297 . S
O242 C244 1.247 . S
O243 Cd239 2.439 . S
O243 C244 1.208 . S
C244 O242 1.247 . S
C244 O243 1.208 . S
C245 O250 1.247 . S
C245 O251 1.208 . S
C246 O238 1.315 . S
C246 O241 1.279 . S
C247 O248 1.315 . S
C247 O249 1.279 . S
O248 Cd240 2.223 . S
O248 C247 1.315 . S
O249 Cd239 2.240 . S
O249 C247 1.279 . S
O250 Cd240 2.297 . S
O250 C245 1.247 . S
O251 Cd240 2.439 . S
O251 C245 1.208 . S
O252 Cd253 2.223 . S
O252 C260 1.315 . S
Cd253 O252 2.223 . S
Cd253 O256 2.297 . S
Cd253 O257 2.439 . S
Cd253 O263 2.240 . S
Cd254 O255 2.240 . S
Cd254 O262 2.223 . S
Cd254 O264 2.297 . S
Cd254 O265 2.439 . S
O255 Cd254 2.240 . S
O255 C260 1.279 . S
O256 Cd253 2.297 . S
O256 C258 1.247 . S
O257 Cd253 2.439 . S
O257 C258 1.208 . S
C258 O256 1.247 . S
C258 O257 1.208 . S
C259 O264 1.247 . S
C259 O265 1.208 . S
C260 O252 1.315 . S
C260 O255 1.279 . S
C261 O262 1.315 . S
C261 O263 1.279 . S
O262 Cd254 2.223 . S
O262 C261 1.315 . S
O263 Cd253 2.240 . S
O263 C261 1.279 . S
O264 Cd254 2.297 . S
O264 C259 1.247 . S
O265 Cd254 2.439 . S
O265 C259 1.208 . S
O266 Cd267 2.223 . S
O266 C274 1.315 . S
Cd267 O266 2.223 . S
Cd267 O270 2.297 . S
Cd267 O271 2.439 . S
Cd267 O277 2.240 . S
Cd268 O269 2.240 . S
Cd268 O276 2.223 . S
Cd268 O278 2.297 . S
Cd268 O279 2.439 . S
O269 Cd268 2.240 . S
O269 C274 1.279 . S
O270 Cd267 2.297 . S
O270 C272 1.247 . S
O271 Cd267 2.439 . S
O271 C272 1.208 . S
C272 O270 1.247 . S
C272 O271 1.208 . S
C273 O278 1.247 . S
C273 O279 1.208 . S
C274 O266 1.315 . S
C274 O269 1.279 . S
C275 O276 1.315 . S
C275 O277 1.279 . S
O276 Cd268 2.223 . S
O276 C275 1.315 . S
O277 Cd267 2.240 . S
O277 C275 1.279 . S
O278 Cd268 2.297 . S
O278 C273 1.247 . S
O279 Cd268 2.439 . S
O279 C273 1.208 . S
O280 Cd281 2.223 . S
O280 C288 1.315 . S
Cd281 O280 2.223 . S
Cd281 O284 2.297 . S
Cd281 O285 2.439 . S
Cd281 O291 2.240 . S
Cd282 O283 2.240 . S
Cd282 O290 2.223 . S
Cd282 O292 2.297 . S
Cd282 O293 2.439 . S
O283 Cd282 2.240 . S
O283 C288 1.279 . S
O284 Cd281 2.297 . S
O284 C286 1.247 . S
O285 Cd281 2.439 . S
O285 C286 1.208 . S
C286 O284 1.247 . S
C286 O285 1.208 . S
C287 O292 1.247 . S
C287 O293 1.208 . S
C288 O280 1.315 . S
C288 O283 1.279 . S
C289 O290 1.315 . S
C289 O291 1.279 . S
O290 Cd282 2.223 . S
O290 C289 1.315 . S
O291 Cd281 2.240 . S
O291 C289 1.279 . S
O292 Cd282 2.297 . S
O292 C287 1.247 . S
O293 Cd282 2.439 . S
O293 C287 1.208 . S
O294 Cd295 2.223 . S
O294 C302 1.315 . S
Cd295 O294 2.223 . S
Cd295 O298 2.297 . S
Cd295 O299 2.439 . S
Cd295 O305 2.240 . S
Cd296 O297 2.240 . S
Cd296 O304 2.223 . S
Cd296 O306 2.297 . S
Cd296 O307 2.439 . S
O297 Cd296 2.240 . S
O297 C302 1.279 . S
O298 Cd295 2.297 . S
O298 C300 1.247 . S
O299 Cd295 2.439 . S
O299 C300 1.208 . S
C300 O298 1.247 . S
C300 O299 1.208 . S
C301 O306 1.247 . S
C301 O307 1.208 . S
C302 O294 1.315 . S
C302 O297 1.279 . S
C303 O304 1.315 . S
C303 O305 1.279 . S
O304 Cd296 2.223 . S
O304 C303 1.315 . S
O305 Cd295 2.240 . S
O305 C303 1.279 . S
O306 Cd296 2.297 . S
O306 C301 1.247 . S
O307 Cd296 2.439 . S
O307 C301 1.208 . S
O308 Cd309 2.223 . S
O308 C316 1.315 . S
Cd309 O308 2.223 . S
Cd309 O312 2.297 . S
Cd309 O313 2.439 . S
Cd309 O319 2.240 . S
Cd310 O311 2.240 . S
Cd310 O318 2.223 . S
Cd310 O320 2.297 . S
Cd310 O321 2.439 . S
O311 Cd310 2.240 . S
O311 C316 1.279 . S
O312 Cd309 2.297 . S
O312 C314 1.247 . S
O313 Cd309 2.439 . S
O313 C314 1.208 . S
C314 O312 1.247 . S
C314 O313 1.208 . S
C315 O320 1.247 . S
C315 O321 1.208 . S
C316 O308 1.315 . S
C316 O311 1.279 . S
C317 O318 1.315 . S
C317 O319 1.279 . S
O318 Cd310 2.223 . S
O318 C317 1.315 . S
O319 Cd309 2.240 . S
O319 C317 1.279 . S
O320 Cd310 2.297 . S
O320 C315 1.247 . S
O321 Cd310 2.439 . S
O321 C315 1.208 . S
O322 Cd323 2.223 . S
O322 C330 1.315 . S
Cd323 O322 2.223 . S
Cd323 O326 2.297 . S
Cd323 O327 2.439 . S
Cd323 O333 2.240 . S
Cd324 O325 2.240 . S
Cd324 O332 2.223 . S
Cd324 O334 2.297 . S
Cd324 O335 2.439 . S
O325 Cd324 2.240 . S
O325 C330 1.279 . S
O326 Cd323 2.297 . S
O326 C328 1.247 . S
O327 Cd323 2.439 . S
O327 C328 1.208 . S
C328 O326 1.247 . S
C328 O327 1.208 . S
C329 O334 1.247 . S
C329 O335 1.208 . S
C330 O322 1.315 . S
C330 O325 1.279 . S
C331 O332 1.315 . S
C331 O333 1.279 . S
O332 Cd324 2.223 . S
O332 C331 1.315 . S
O333 Cd323 2.240 . S
O333 C331 1.279 . S
O334 Cd324 2.297 . S
O334 C329 1.247 . S
O335 Cd324 2.439 . S
O335 C329 1.208 . S
O336 Cd337 2.223 . S
O336 C344 1.315 . S
Cd337 O336 2.223 . S
Cd337 O340 2.297 . S
Cd337 O341 2.439 . S
Cd337 O347 2.240 . S
Cd338 O339 2.240 . S
Cd338 O346 2.223 . S
Cd338 O348 2.297 . S
Cd338 O349 2.439 . S
O339 Cd338 2.240 . S
O339 C344 1.279 . S
O340 Cd337 2.297 . S
O340 C342 1.247 . S
O341 Cd337 2.439 . S
O341 C342 1.208 . S
C342 O340 1.247 . S
C342 O341 1.208 . S
C343 O348 1.247 . S
C343 O349 1.208 . S
C344 O336 1.315 . S
C344 O339 1.279 . S
C345 O346 1.315 . S
C345 O347 1.279 . S
O346 Cd338 2.223 . S
O346 C345 1.315 . S
O347 Cd337 2.240 . S
O347 C345 1.279 . S
O348 Cd338 2.297 . S
O348 C343 1.247 . S
O349 Cd338 2.439 . S
O349 C343 1.208 . S
O350 Cd351 2.223 . S
O350 C358 1.315 . S
Cd351 O350 2.223 . S
Cd351 O354 2.297 . S
Cd351 O355 2.439 . S
Cd351 O361 2.240 . S
Cd352 O353 2.240 . S
Cd352 O360 2.223 . S
Cd352 O362 2.297 . S
Cd352 O363 2.439 . S
O353 Cd352 2.240 . S
O353 C358 1.279 . S
O354 Cd351 2.297 . S
O354 C356 1.247 . S
O355 Cd351 2.439 . S
O355 C356 1.208 . S
C356 O354 1.247 . S
C356 O355 1.208 . S
C357 O362 1.247 . S
C357 O363 1.208 . S
C358 O350 1.315 . S
C358 O353 1.279 . S
C359 O360 1.315 . S
C359 O361 1.279 . S
O360 Cd352 2.223 . S
O360 C359 1.315 . S
O361 Cd351 2.240 . S
O361 C359 1.279 . S
O362 Cd352 2.297 . S
O362 C357 1.247 . S
O363 Cd352 2.439 . S
O363 C357 1.208 . S
O364 Cd365 2.223 . S
O364 C372 1.315 . S
Cd365 O364 2.223 . S
Cd365 O368 2.297 . S
Cd365 O369 2.439 . S
Cd365 O375 2.240 . S
Cd366 O367 2.240 . S
Cd366 O374 2.223 . S
Cd366 O376 2.297 . S
Cd366 O377 2.439 . S
O367 Cd366 2.240 . S
O367 C372 1.279 . S
O368 Cd365 2.297 . S
O368 C370 1.247 . S
O369 Cd365 2.439 . S
O369 C370 1.208 . S
C370 O368 1.247 . S
C370 O369 1.208 . S
C371 O376 1.247 . S
C371 O377 1.208 . S
C372 O364 1.315 . S
C372 O367 1.279 . S
C373 O374 1.315 . S
C373 O375 1.279 . S
O374 Cd366 2.223 . S
O374 C373 1.315 . S
O375 Cd365 2.240 . S
O375 C373 1.279 . S
O376 Cd366 2.297 . S
O376 C371 1.247 . S
O377 Cd366 2.439 . S
O377 C371 1.208 . S
O378 Cd379 2.223 . S
O378 C386 1.315 . S
Cd379 O378 2.223 . S
Cd379 O382 2.297 . S
Cd379 O383 2.439 . S
Cd379 O389 2.240 . S
Cd380 O381 2.240 . S
Cd380 O388 2.223 . S
Cd380 O390 2.297 . S
Cd380 O391 2.439 . S
O381 Cd380 2.240 . S
O381 C386 1.279 . S
O382 Cd379 2.297 . S
O382 C384 1.247 . S
O383 Cd379 2.439 . S
O383 C384 1.208 . S
C384 O382 1.247 . S
C384 O383 1.208 . S
C385 O390 1.247 . S
C385 O391 1.208 . S
C386 O378 1.315 . S
C386 O381 1.279 . S
C387 O388 1.315 . S
C387 O389 1.279 . S
O388 Cd380 2.223 . S
O388 C387 1.315 . S
O389 Cd379 2.240 . S
O389 C387 1.279 . S
O390 Cd380 2.297 . S
O390 C385 1.247 . S
O391 Cd380 2.439 . S
O391 C385 1.208 . S
O392 Cd393 2.223 . S
O392 C400 1.315 . S
Cd393 O392 2.223 . S
Cd393 O396 2.297 . S
Cd393 O397 2.439 . S
Cd393 O403 2.240 . S
Cd394 O395 2.240 . S
Cd394 O402 2.223 . S
Cd394 O404 2.297 . S
Cd394 O405 2.439 . S
O395 Cd394 2.240 . S
O395 C400 1.279 . S
O396 Cd393 2.297 . S
O396 C398 1.247 . S
O397 Cd393 2.439 . S
O397 C398 1.208 . S
C398 O396 1.247 . S
C398 O397 1.208 . S
C399 O404 1.247 . S
C399 O405 1.208 . S
C400 O392 1.315 . S
C400 O395 1.279 . S
C401 O402 1.315 . S
C401 O403 1.279 . S
O402 Cd394 2.223 . S
O402 C401 1.315 . S
O403 Cd393 2.240 . S
O403 C401 1.279 . S
O404 Cd394 2.297 . S
O404 C399 1.247 . S
O405 Cd394 2.439 . S
O405 C399 1.208 . S
O406 Cd407 2.223 . S
O406 C414 1.315 . S
Cd407 O406 2.223 . S
Cd407 O410 2.297 . S
Cd407 O411 2.439 . S
Cd407 O417 2.240 . S
Cd408 O409 2.240 . S
Cd408 O416 2.223 . S
Cd408 O418 2.297 . S
Cd408 O419 2.439 . S
O409 Cd408 2.240 . S
O409 C414 1.279 . S
O410 Cd407 2.297 . S
O410 C412 1.247 . S
O411 Cd407 2.439 . S
O411 C412 1.208 . S
C412 O410 1.247 . S
C412 O411 1.208 . S
C413 O418 1.247 . S
C413 O419 1.208 . S
C414 O406 1.315 . S
C414 O409 1.279 . S
C415 O416 1.315 . S
C415 O417 1.279 . S
O416 Cd408 2.223 . S
O416 C415 1.315 . S
O417 Cd407 2.240 . S
O417 C415 1.279 . S
O418 Cd408 2.297 . S
O418 C413 1.247 . S
O419 Cd408 2.439 . S
O419 C413 1.208 . S
O420 Cd421 2.223 . S
O420 C428 1.315 . S
Cd421 O420 2.223 . S
Cd421 O424 2.297 . S
Cd421 O425 2.439 . S
Cd421 O431 2.240 . S
Cd422 O423 2.240 . S
Cd422 O430 2.223 . S
Cd422 O432 2.297 . S
Cd422 O433 2.439 . S
O423 Cd422 2.240 . S
O423 C428 1.279 . S
O424 Cd421 2.297 . S
O424 C426 1.247 . S
O425 Cd421 2.439 . S
O425 C426 1.208 . S
C426 O424 1.247 . S
C426 O425 1.208 . S
C427 O432 1.247 . S
C427 O433 1.208 . S
C428 O420 1.315 . S
C428 O423 1.279 . S
C429 O430 1.315 . S
C429 O431 1.279 . S
O430 Cd422 2.223 . S
O430 C429 1.315 . S
O431 Cd421 2.240 . S
O431 C429 1.279 . S
O432 Cd422 2.297 . S
O432 C427 1.247 . S
O433 Cd422 2.439 . S
O433 C427 1.208 . S
O434 Cd435 2.223 . S
O434 C442 1.315 . S
Cd435 O434 2.223 . S
Cd435 O438 2.297 . S
Cd435 O439 2.439 . S
Cd435 O445 2.240 . S
Cd436 O437 2.240 . S
Cd436 O444 2.223 . S
Cd436 O446 2.297 . S
Cd436 O447 2.439 . S
O437 Cd436 2.240 . S
O437 C442 1.279 . S
O438 Cd435 2.297 . S
O438 C440 1.247 . S
O439 Cd435 2.439 . S
O439 C440 1.208 . S
C440 O438 1.247 . S
C440 O439 1.208 . S
C441 O446 1.247 . S
C441 O447 1.208 . S
C442 O434 1.315 . S
C442 O437 1.279 . S
C443 O444 1.315 . S
C443 O445 1.279 . S
O444 Cd436 2.223 . S
O444 C443 1.315 . S
O445 Cd435 2.240 . S
O445 C443 1.279 . S
O446 Cd436 2.297 . S
O446 C441 1.247 . S
O447 Cd436 2.439 . S
O447 C441 1.208 . S
O448 Cd449 2.223 . S
O448 C456 1.315 . S
Cd449 O448 2.223 . S
Cd449 O452 2.297 . S
Cd449 O453 2.439 . S
Cd449 O459 2.240 . S
Cd450 O451 2.240 . S
Cd450 O458 2.223 . S
Cd450 O460 2.297 . S
Cd450 O461 2.439 . S
O451 Cd450 2.240 . S
O451 C456 1.279 . S
O452 Cd449 2.297 . S
O452 C454 1.247 . S
O453 Cd449 2.439 . S
O453 C454 1.208 . S
C454 O452 1.247 . S
C454 O453 1.208 . S
C455 O460 1.247 . S
C455 O461 1.208 . S
C456 O448 1.315 . S
C456 O451 1.279 . S
C457 O458 1.315 . S
C457 O459 1.279 . S
O458 Cd450 2.223 . S
O458 C457 1.315 . S
O459 Cd449 2.240 . S
O459 C457 1.279 . S
O460 Cd450 2.297 . S
O460 C455 1.247 . S
O461 Cd450 2.439 . S
O461 C455 1.208 . S
O462 Cd463 2.223 . S
O462 C470 1.315 . S
Cd463 O462 2.223 . S
Cd463 O466 2.297 . S
Cd463 O467 2.439 . S
Cd463 O473 2.240 . S
Cd464 O465 2.240 . S
Cd464 O472 2.223 . S
Cd464 O474 2.297 . S
Cd464 O475 2.439 . S
O465 Cd464 2.240 . S
O465 C470 1.279 . S
O466 Cd463 2.297 . S
O466 C468 1.247 . S
O467 Cd463 2.439 . S
O467 C468 1.208 . S
C468 O466 1.247 . S
C468 O467 1.208 . S
C469 O474 1.247 . S
C469 O475 1.208 . S
C470 O462 1.315 . S
C470 O465 1.279 . S
C471 O472 1.315 . S
C471 O473 1.279 . S
O472 Cd464 2.223 . S
O472 C471 1.315 . S
O473 Cd463 2.240 . S
O473 C471 1.279 . S
O474 Cd464 2.297 . S
O474 C469 1.247 . S
O475 Cd464 2.439 . S
O475 C469 1.208 . S
O476 Cd477 2.223 . S
O476 C484 1.315 . S
Cd477 O476 2.223 . S
Cd477 O480 2.297 . S
Cd477 O481 2.439 . S
Cd477 O487 2.240 . S
Cd478 O479 2.240 . S
Cd478 O486 2.223 . S
Cd478 O488 2.297 . S
Cd478 O489 2.439 . S
O479 Cd478 2.240 . S
O479 C484 1.279 . S
O480 Cd477 2.297 . S
O480 C482 1.247 . S
O481 Cd477 2.439 . S
O481 C482 1.208 . S
C482 O480 1.247 . S
C482 O481 1.208 . S
C483 O488 1.247 . S
C483 O489 1.208 . S
C484 O476 1.315 . S
C484 O479 1.279 . S
C485 O486 1.315 . S
C485 O487 1.279 . S
O486 Cd478 2.223 . S
O486 C485 1.315 . S
O487 Cd477 2.240 . S
O487 C485 1.279 . S
O488 Cd478 2.297 . S
O488 C483 1.247 . S
O489 Cd478 2.439 . S
O489 C483 1.208 . S
O490 Cd491 2.223 . S
O490 C498 1.315 . S
Cd491 O490 2.223 . S
Cd491 O494 2.297 . S
Cd491 O495 2.439 . S
Cd491 O501 2.240 . S
Cd492 O493 2.240 . S
Cd492 O500 2.223 . S
Cd492 O502 2.297 . S
Cd492 O503 2.439 . S
O493 Cd492 2.240 . S
O493 C498 1.279 . S
O494 Cd491 2.297 . S
O494 C496 1.247 . S
O495 Cd491 2.439 . S
O495 C496 1.208 . S
C496 O494 1.247 . S
C496 O495 1.208 . S
C497 O502 1.247 . S
C497 O503 1.208 . S
C498 O490 1.315 . S
C498 O493 1.279 . S
C499 O500 1.315 . S
C499 O501 1.279 . S
O500 Cd492 2.223 . S
O500 C499 1.315 . S
O501 Cd491 2.240 . S
O501 C499 1.279 . S
O502 Cd492 2.297 . S
O502 C497 1.247 . S
O503 Cd492 2.439 . S
O503 C497 1.208 . S
O504 Cd505 2.223 . S
O504 C512 1.315 . S
Cd505 O504 2.223 . S
Cd505 O508 2.297 . S
Cd505 O509 2.439 . S
Cd505 O515 2.240 . S
Cd506 O507 2.240 . S
Cd506 O514 2.223 . S
Cd506 O516 2.297 . S
Cd506 O517 2.439 . S
O507 Cd506 2.240 . S
O507 C512 1.279 . S
O508 Cd505 2.297 . S
O508 C510 1.247 . S
O509 Cd505 2.439 . S
O509 C510 1.208 . S
C510 O508 1.247 . S
C510 O509 1.208 . S
C511 O516 1.247 . S
C511 O517 1.208 . S
C512 O504 1.315 . S
C512 O507 1.279 . S
C513 O514 1.315 . S
C513 O515 1.279 . S
O514 Cd506 2.223 . S
O514 C513 1.315 . S
O515 Cd505 2.240 . S
O515 C513 1.279 . S
O516 Cd506 2.297 . S
O516 C511 1.247 . S
O517 Cd506 2.439 . S
O517 C511 1.208 . S
O518 Cd519 2.223 . S
O518 C526 1.315 . S
Cd519 O518 2.223 . S
Cd519 O522 2.297 . S
Cd519 O523 2.439 . S
Cd519 O529 2.240 . S
Cd520 O521 2.240 . S
Cd520 O528 2.223 . S
Cd520 O530 2.297 . S
Cd520 O531 2.439 . S
O521 Cd520 2.240 . S
O521 C526 1.279 . S
O522 Cd519 2.297 . S
O522 C524 1.247 . S
O523 Cd519 2.439 . S
O523 C524 1.208 . S
C524 O522 1.247 . S
C524 O523 1.208 . S
C525 O530 1.247 . S
C525 O531 1.208 . S
C526 O518 1.315 . S
C526 O521 1.279 . S
C527 O528 1.315 . S
C527 O529 1.279 . S
O528 Cd520 2.223 . S
O528 C527 1.315 . S
O529 Cd519 2.240 . S
O529 C527 1.279 . S
O530 Cd520 2.297 . S
O530 C525 1.247 . S
O531 Cd520 2.439 . S
O531 C525 1.208 . S
O532 Cd533 2.223 . S
O532 C540 1.315 . S
Cd533 O532 2.223 . S
Cd533 O536 2.297 . S
Cd533 O537 2.439 . S
Cd533 O543 2.240 . S
Cd534 O535 2.240 . S
Cd534 O542 2.223 . S
Cd534 O544 2.297 . S
Cd534 O545 2.439 . S
O535 Cd534 2.240 . S
O535 C540 1.279 . S
O536 Cd533 2.297 . S
O536 C538 1.247 . S
O537 Cd533 2.439 . S
O537 C538 1.208 . S
C538 O536 1.247 . S
C538 O537 1.208 . S
C539 O544 1.247 . S
C539 O545 1.208 . S
C540 O532 1.315 . S
C540 O535 1.279 . S
C541 O542 1.315 . S
C541 O543 1.279 . S
O542 Cd534 2.223 . S
O542 C541 1.315 . S
O543 Cd533 2.240 . S
O543 C541 1.279 . S
O544 Cd534 2.297 . S
O544 C539 1.247 . S
O545 Cd534 2.439 . S
O545 C539 1.208 . S
O546 Cd547 2.223 . S
O546 C554 1.315 . S
Cd547 O546 2.223 . S
Cd547 O550 2.297 . S
Cd547 O551 2.439 . S
Cd547 O557 2.240 . S
Cd548 O549 2.240 . S
Cd548 O556 2.223 . S
Cd548 O558 2.297 . S
Cd548 O559 2.439 . S
O549 Cd548 2.240 . S
O549 C554 1.279 . S
O550 Cd547 2.297 . S
O550 C552 1.247 . S
O551 Cd547 2.439 . S
O551 C552 1.208 . S
C552 O550 1.247 . S
C552 O551 1.208 . S
C553 O558 1.247 . S
C553 O559 1.208 . S
C554 O546 1.315 . S
C554 O549 1.279 . S
C555 O556 1.315 . S
C555 O557 1.279 . S
O556 Cd548 2.223 . S
O556 C555 1.315 . S
O557 Cd547 2.240 . S
O557 C555 1.279 . S
O558 Cd548 2.297 . S
O558 C553 1.247 . S
O559 Cd548 2.439 . S
O559 C553 1.208 . S
O560 Cd561 2.223 . S
O560 C568 1.315 . S
Cd561 O560 2.223 . S
Cd561 O564 2.297 . S
Cd561 O565 2.439 . S
Cd561 O571 2.240 . S
Cd562 O563 2.240 . S
Cd562 O570 2.223 . S
Cd562 O572 2.297 . S
Cd562 O573 2.439 . S
O563 Cd562 2.240 . S
O563 C568 1.279 . S
O564 Cd561 2.297 . S
O564 C566 1.247 . S
O565 Cd561 2.439 . S
O565 C566 1.208 . S
C566 O564 1.247 . S
C566 O565 1.208 . S
C567 O572 1.247 . S
C567 O573 1.208 . S
C568 O560 1.315 . S
C568 O563 1.279 . S
C569 O570 1.315 . S
C569 O571 1.279 . S
O570 Cd562 2.223 . S
O570 C569 1.315 . S
O571 Cd561 2.240 . S
O571 C569 1.279 . S
O572 Cd562 2.297 . S
O572 C567 1.247 . S
O573 Cd562 2.439 . S
O573 C567 1.208 . S
O574 Cd575 2.223 . S
O574 C582 1.315 . S
Cd575 O574 2.223 . S
Cd575 O578 2.297 . S
Cd575 O579 2.439 . S
Cd575 O585 2.240 . S
Cd576 O577 2.240 . S
Cd576 O584 2.223 . S
Cd576 O586 2.297 . S
Cd576 O587 2.439 . S
O577 Cd576 2.240 . S
O577 C582 1.279 . S
O578 Cd575 2.297 . S
O578 C580 1.247 . S
O579 Cd575 2.439 . S
O579 C580 1.208 . S
C580 O578 1.247 . S
C580 O579 1.208 . S
C581 O586 1.247 . S
C581 O587 1.208 . S
C582 O574 1.315 . S
C582 O577 1.279 . S
C583 O584 1.315 . S
C583 O585 1.279 . S
O584 Cd576 2.223 . S
O584 C583 1.315 . S
O585 Cd575 2.240 . S
O585 C583 1.279 . S
O586 Cd576 2.297 . S
O586 C581 1.247 . S
O587 Cd576 2.439 . S
O587 C581 1.208 . S
O588 Cd589 2.223 . S
O588 C596 1.315 . S
Cd589 O588 2.223 . S
Cd589 O592 2.297 . S
Cd589 O593 2.439 . S
Cd589 O599 2.240 . S
Cd590 O591 2.240 . S
Cd590 O598 2.223 . S
Cd590 O600 2.297 . S
Cd590 O601 2.439 . S
O591 Cd590 2.240 . S
O591 C596 1.279 . S
O592 Cd589 2.297 . S
O592 C594 1.247 . S
O593 Cd589 2.439 . S
O593 C594 1.208 . S
C594 O592 1.247 . S
C594 O593 1.208 . S
C595 O600 1.247 . S
C595 O601 1.208 . S
C596 O588 1.315 . S
C596 O591 1.279 . S
C597 O598 1.315 . S
C597 O599 1.279 . S
O598 Cd590 2.223 . S
O598 C597 1.315 . S
O599 Cd589 2.240 . S
O599 C597 1.279 . S
O600 Cd590 2.297 . S
O600 C595 1.247 . S
O601 Cd590 2.439 . S
O601 C595 1.208 . S
O602 Cd603 2.223 . S
O602 C610 1.315 . S
Cd603 O602 2.223 . S
Cd603 O606 2.297 . S
Cd603 O607 2.439 . S
Cd603 O613 2.240 . S
Cd604 O605 2.240 . S
Cd604 O612 2.223 . S
Cd604 O614 2.297 . S
Cd604 O615 2.439 . S
O605 Cd604 2.240 . S
O605 C610 1.279 . S
O606 Cd603 2.297 . S
O606 C608 1.247 . S
O607 Cd603 2.439 . S
O607 C608 1.208 . S
C608 O606 1.247 . S
C608 O607 1.208 . S
C609 O614 1.247 . S
C609 O615 1.208 . S
C610 O602 1.315 . S
C610 O605 1.279 . S
C611 O612 1.315 . S
C611 O613 1.279 . S
O612 Cd604 2.223 . S
O612 C611 1.315 . S
O613 Cd603 2.240 . S
O613 C611 1.279 . S
O614 Cd604 2.297 . S
O614 C609 1.247 . S
O615 Cd604 2.439 . S
O615 C609 1.208 . S
O616 Cd617 2.223 . S
O616 C624 1.315 . S
Cd617 O616 2.223 . S
Cd617 O620 2.297 . S
Cd617 O621 2.439 . S
Cd617 O627 2.240 . S
Cd618 O619 2.240 . S
Cd618 O626 2.223 . S
Cd618 O628 2.297 . S
Cd618 O629 2.439 . S
O619 Cd618 2.240 . S
O619 C624 1.279 . S
O620 Cd617 2.297 . S
O620 C622 1.247 . S
O621 Cd617 2.439 . S
O621 C622 1.208 . S
C622 O620 1.247 . S
C622 O621 1.208 . S
C623 O628 1.247 . S
C623 O629 1.208 . S
C624 O616 1.315 . S
C624 O619 1.279 . S
C625 O626 1.315 . S
C625 O627 1.279 . S
O626 Cd618 2.223 . S
O626 C625 1.315 . S
O627 Cd617 2.240 . S
O627 C625 1.279 . S
O628 Cd618 2.297 . S
O628 C623 1.247 . S
O629 Cd618 2.439 . S
O629 C623 1.208 . S
O630 Cd631 2.223 . S
O630 C638 1.315 . S
Cd631 O630 2.223 . S
Cd631 O634 2.297 . S
Cd631 O635 2.439 . S
Cd631 O641 2.240 . S
Cd632 O633 2.240 . S
Cd632 O640 2.223 . S
Cd632 O642 2.297 . S
Cd632 O643 2.439 . S
O633 Cd632 2.240 . S
O633 C638 1.279 . S
O634 Cd631 2.297 . S
O634 C636 1.247 . S
O635 Cd631 2.439 . S
O635 C636 1.208 . S
C636 O634 1.247 . S
C636 O635 1.208 . S
C637 O642 1.247 . S
C637 O643 1.208 . S
C638 O630 1.315 . S
C638 O633 1.279 . S
C639 O640 1.315 . S
C639 O641 1.279 . S
O640 Cd632 2.223 . S
O640 C639 1.315 . S
O641 Cd631 2.240 . S
O641 C639 1.279 . S
O642 Cd632 2.297 . S
O642 C637 1.247 . S
O643 Cd632 2.439 . S
O643 C637 1.208 . S
O644 Cd645 2.223 . S
O644 C652 1.315 . S
Cd645 O644 2.223 . S
Cd645 O648 2.297 . S
Cd645 O649 2.439 . S
Cd645 O655 2.240 . S
Cd646 O647 2.240 . S
Cd646 O654 2.223 . S
Cd646 O656 2.297 . S
Cd646 O657 2.439 . S
O647 Cd646 2.240 . S
O647 C652 1.279 . S
O648 Cd645 2.297 . S
O648 C650 1.247 . S
O649 Cd645 2.439 . S
O649 C650 1.208 . S
C650 O648 1.247 . S
C650 O649 1.208 . S
C651 O656 1.247 . S
C651 O657 1.208 . S
C652 O644 1.315 . S
C652 O647 1.279 . S
C653 O654 1.315 . S
C653 O655 1.279 . S
O654 Cd646 2.223 . S
O654 C653 1.315 . S
O655 Cd645 2.240 . S
O655 C653 1.279 . S
O656 Cd646 2.297 . S
O656 C651 1.247 . S
O657 Cd646 2.439 . S
O657 C651 1.208 . S
O658 Cd659 2.223 . S
O658 C666 1.315 . S
Cd659 O658 2.223 . S
Cd659 O662 2.297 . S
Cd659 O663 2.439 . S
Cd659 O669 2.240 . S
Cd660 O661 2.240 . S
Cd660 O668 2.223 . S
Cd660 O670 2.297 . S
Cd660 O671 2.439 . S
O661 Cd660 2.240 . S
O661 C666 1.279 . S
O662 Cd659 2.297 . S
O662 C664 1.247 . S
O663 Cd659 2.439 . S
O663 C664 1.208 . S
C664 O662 1.247 . S
C664 O663 1.208 . S
C665 O670 1.247 . S
C665 O671 1.208 . S
C666 O658 1.315 . S
C666 O661 1.279 . S
C667 O668 1.315 . S
C667 O669 1.279 . S
O668 Cd660 2.223 . S
O668 C667 1.315 . S
O669 Cd659 2.240 . S
O669 C667 1.279 . S
O670 Cd660 2.297 . S
O670 C665 1.247 . S
O671 Cd660 2.439 . S
O671 C665 1.208 . S
C672 C673 1.391 . S
C672 C674 1.394 . S
C672 H688 0.931 . S
C673 C672 1.391 . S
C673 C677 1.376 . S
C674 C672 1.394 . S
C674 C675 1.369 . S
C674 C678 1.531 . S
C675 C674 1.369 . S
C675 C676 1.410 . S
C675 C683 1.503 . S
C676 C675 1.410 . S
C676 C677 1.392 . S
C676 C679 1.511 . S
C677 C673 1.376 . S
C677 C676 1.392 . S
C677 H689 0.929 . S
C678 C674 1.531 . S
C678 H690 0.960 . S
C678 H691 0.962 . S
C678 H692 0.960 . S
C679 C676 1.511 . S
C679 H693 0.961 . S
C679 H694 0.961 . S
C679 H695 0.961 . S
C680 C681 1.370 . S
C680 C682 1.363 . S
C680 H696 0.931 . S
C681 C680 1.370 . S
C681 C685 1.408 . S
C682 C680 1.363 . S
C682 C683 1.370 . S
C682 C686 1.524 . S
C683 C675 1.503 . S
C683 C682 1.370 . S
C683 C684 1.403 . S
C684 C683 1.403 . S
C684 C685 1.404 . S
C684 C687 1.539 . S
C685 C681 1.408 . S
C685 C684 1.404 . S
C685 H697 0.930 . S
C686 C682 1.524 . S
C686 H698 0.956 . S
C686 H699 0.961 . S
C686 H700 0.961 . S
C687 C684 1.539 . S
C687 H701 0.958 . S
C687 H702 0.961 . S
C687 H703 0.960 . S
H688 C672 0.931 . S
H689 C677 0.929 . S
H690 C678 0.960 . S
H691 C678 0.962 . S
H692 C678 0.960 . S
H693 C679 0.961 . S
H694 C679 0.961 . S
H695 C679 0.961 . S
H696 C680 0.931 . S
H697 C685 0.930 . S
H698 C686 0.956 . S
H699 C686 0.961 . S
H700 C686 0.961 . S
H701 C687 0.958 . S
H702 C687 0.961 . S
H703 C687 0.960 . S
C704 C705 1.391 . S
C704 C706 1.394 . S
C704 H720 0.931 . S
C705 C704 1.391 . S
C705 C709 1.376 . S
C706 C704 1.394 . S
C706 C707 1.369 . S
C706 C710 1.531 . S
C707 C706 1.369 . S
C707 C708 1.410 . S
C707 C715 1.503 . S
C708 C707 1.410 . S
C708 C709 1.392 . S
C708 C711 1.511 . S
C709 C705 1.376 . S
C709 C708 1.392 . S
C709 H721 0.929 . S
C710 C706 1.531 . S
C710 H722 0.960 . S
C710 H723 0.962 . S
C710 H724 0.960 . S
C711 C708 1.511 . S
C711 H725 0.961 . S
C711 H726 0.961 . S
C711 H727 0.961 . S
C712 C713 1.370 . S
C712 C714 1.363 . S
C712 H728 0.931 . S
C713 C712 1.370 . S
C713 C717 1.408 . S
C714 C712 1.363 . S
C714 C715 1.370 . S
C714 C718 1.524 . S
C715 C707 1.503 . S
C715 C714 1.370 . S
C715 C716 1.403 . S
C716 C715 1.403 . S
C716 C717 1.404 . S
C716 C719 1.539 . S
C717 C713 1.408 . S
C717 C716 1.404 . S
C717 H729 0.930 . S
C718 C714 1.524 . S
C718 H730 0.956 . S
C718 H731 0.961 . S
C718 H732 0.961 . S
C719 C716 1.539 . S
C719 H733 0.958 . S
C719 H734 0.961 . S
C719 H735 0.960 . S
H720 C704 0.931 . S
H721 C709 0.929 . S
H722 C710 0.960 . S
H723 C710 0.962 . S
H724 C710 0.960 . S
H725 C711 0.961 . S
H726 C711 0.961 . S
H727 C711 0.961 . S
H728 C712 0.931 . S
H729 C717 0.930 . S
H730 C718 0.956 . S
H731 C718 0.961 . S
H732 C718 0.961 . S
H733 C719 0.958 . S
H734 C719 0.961 . S
H735 C719 0.960 . S
C736 C737 1.391 . S
C736 C738 1.394 . S
C736 H752 0.931 . S
C737 C736 1.391 . S
C737 C741 1.376 . S
C738 C736 1.394 . S
C738 C739 1.369 . S
C738 C742 1.531 . S
C739 C738 1.369 . S
C739 C740 1.410 . S
C739 C747 1.503 . S
C740 C739 1.410 . S
C740 C741 1.392 . S
C740 C743 1.511 . S
C741 C737 1.376 . S
C741 C740 1.392 . S
C741 H753 0.929 . S
C742 C738 1.531 . S
C742 H754 0.960 . S
C742 H755 0.962 . S
C742 H756 0.960 . S
C743 C740 1.511 . S
C743 H757 0.961 . S
C743 H758 0.961 . S
C743 H759 0.961 . S
C744 C745 1.370 . S
C744 C746 1.363 . S
C744 H760 0.931 . S
C745 C744 1.370 . S
C745 C749 1.408 . S
C746 C744 1.363 . S
C746 C747 1.370 . S
C746 C750 1.524 . S
C747 C739 1.503 . S
C747 C746 1.370 . S
C747 C748 1.403 . S
C748 C747 1.403 . S
C748 C749 1.404 . S
C748 C751 1.539 . S
C749 C745 1.408 . S
C749 C748 1.404 . S
C749 H761 0.930 . S
C750 C746 1.524 . S
C750 H762 0.956 . S
C750 H763 0.961 . S
C750 H764 0.961 . S
C751 C748 1.539 . S
C751 H765 0.958 . S
C751 H766 0.961 . S
C751 H767 0.960 . S
H752 C736 0.931 . S
H753 C741 0.929 . S
H754 C742 0.960 . S
H755 C742 0.962 . S
H756 C742 0.960 . S
H757 C743 0.961 . S
H758 C743 0.961 . S
H759 C743 0.961 . S
H760 C744 0.931 . S
H761 C749 0.930 . S
H762 C750 0.956 . S
H763 C750 0.961 . S
H764 C750 0.961 . S
H765 C751 0.958 . S
H766 C751 0.961 . S
H767 C751 0.960 . S
C768 C769 1.391 . S
C768 C770 1.394 . S
C768 H784 0.931 . S
C769 C768 1.391 . S
C769 C773 1.376 . S
C770 C768 1.394 . S
C770 C771 1.369 . S
C770 C774 1.531 . S
C771 C770 1.369 . S
C771 C772 1.410 . S
C771 C779 1.503 . S
C772 C771 1.410 . S
C772 C773 1.392 . S
C772 C775 1.511 . S
C773 C769 1.376 . S
C773 C772 1.392 . S
C773 H785 0.929 . S
C774 C770 1.531 . S
C774 H786 0.960 . S
C774 H787 0.962 . S
C774 H788 0.960 . S
C775 C772 1.511 . S
C775 H789 0.961 . S
C775 H790 0.961 . S
C775 H791 0.961 . S
C776 C777 1.370 . S
C776 C778 1.363 . S
C776 H792 0.931 . S
C777 C776 1.370 . S
C777 C781 1.408 . S
C778 C776 1.363 . S
C778 C779 1.370 . S
C778 C782 1.524 . S
C779 C771 1.503 . S
C779 C778 1.370 . S
C779 C780 1.403 . S
C780 C779 1.403 . S
C780 C781 1.404 . S
C780 C783 1.539 . S
C781 C777 1.408 . S
C781 C780 1.404 . S
C781 H793 0.930 . S
C782 C778 1.524 . S
C782 H794 0.956 . S
C782 H795 0.961 . S
C782 H796 0.961 . S
C783 C780 1.539 . S
C783 H797 0.958 . S
C783 H798 0.961 . S
C783 H799 0.960 . S
H784 C768 0.931 . S
H785 C773 0.929 . S
H786 C774 0.960 . S
H787 C774 0.962 . S
H788 C774 0.960 . S
H789 C775 0.961 . S
H790 C775 0.961 . S
H791 C775 0.961 . S
H792 C776 0.931 . S
H793 C781 0.930 . S
H794 C782 0.956 . S
H795 C782 0.961 . S
H796 C782 0.961 . S
H797 C783 0.958 . S
H798 C783 0.961 . S
H799 C783 0.960 . S
C800 C801 1.391 . S
C800 C802 1.394 . S
C800 H816 0.931 . S
C801 C800 1.391 . S
C801 C805 1.376 . S
C802 C800 1.394 . S
C802 C803 1.369 . S
C802 C806 1.531 . S
C803 C802 1.369 . S
C803 C804 1.410 . S
C803 C811 1.503 . S
C804 C803 1.410 . S
C804 C805 1.392 . S
C804 C807 1.511 . S
C805 C801 1.376 . S
C805 C804 1.392 . S
C805 H817 0.929 . S
C806 C802 1.531 . S
C806 H818 0.960 . S
C806 H819 0.962 . S
C806 H820 0.960 . S
C807 C804 1.511 . S
C807 H821 0.961 . S
C807 H822 0.961 . S
C807 H823 0.961 . S
C808 C809 1.370 . S
C808 C810 1.363 . S
C808 H824 0.931 . S
C809 C808 1.370 . S
C809 C813 1.408 . S
C810 C808 1.363 . S
C810 C811 1.370 . S
C810 C814 1.524 . S
C811 C803 1.503 . S
C811 C810 1.370 . S
C811 C812 1.403 . S
C812 C811 1.403 . S
C812 C813 1.404 . S
C812 C815 1.539 . S
C813 C809 1.408 . S
C813 C812 1.404 . S
C813 H825 0.930 . S
C814 C810 1.524 . S
C814 H826 0.956 . S
C814 H827 0.961 . S
C814 H828 0.961 . S
C815 C812 1.539 . S
C815 H829 0.958 . S
C815 H830 0.961 . S
C815 H831 0.960 . S
H816 C800 0.931 . S
H817 C805 0.929 . S
H818 C806 0.960 . S
H819 C806 0.962 . S
H820 C806 0.960 . S
H821 C807 0.961 . S
H822 C807 0.961 . S
H823 C807 0.961 . S
H824 C808 0.931 . S
H825 C813 0.930 . S
H826 C814 0.956 . S
H827 C814 0.961 . S
H828 C814 0.961 . S
H829 C815 0.958 . S
H830 C815 0.961 . S
H831 C815 0.960 . S
C832 C833 1.391 . S
C832 C834 1.394 . S
C832 H848 0.931 . S
C833 C832 1.391 . S
C833 C837 1.376 . S
C834 C832 1.394 . S
C834 C835 1.369 . S
C834 C838 1.531 . S
C835 C834 1.369 . S
C835 C836 1.410 . S
C835 C843 1.503 . S
C836 C835 1.410 . S
C836 C837 1.392 . S
C836 C839 1.511 . S
C837 C833 1.376 . S
C837 C836 1.392 . S
C837 H849 0.929 . S
C838 C834 1.531 . S
C838 H850 0.960 . S
C838 H851 0.962 . S
C838 H852 0.960 . S
C839 C836 1.511 . S
C839 H853 0.961 . S
C839 H854 0.961 . S
C839 H855 0.961 . S
C840 C841 1.370 . S
C840 C842 1.363 . S
C840 H856 0.931 . S
C841 C840 1.370 . S
C841 C845 1.408 . S
C842 C840 1.363 . S
C842 C843 1.370 . S
C842 C846 1.524 . S
C843 C835 1.503 . S
C843 C842 1.370 . S
C843 C844 1.403 . S
C844 C843 1.403 . S
C844 C845 1.404 . S
C844 C847 1.539 . S
C845 C841 1.408 . S
C845 C844 1.404 . S
C845 H857 0.930 . S
C846 C842 1.524 . S
C846 H858 0.956 . S
C846 H859 0.961 . S
C846 H860 0.961 . S
C847 C844 1.539 . S
C847 H861 0.958 . S
C847 H862 0.961 . S
C847 H863 0.960 . S
H848 C832 0.931 . S
H849 C837 0.929 . S
H850 C838 0.960 . S
H851 C838 0.962 . S
H852 C838 0.960 . S
H853 C839 0.961 . S
H854 C839 0.961 . S
H855 C839 0.961 . S
H856 C840 0.931 . S
H857 C845 0.930 . S
H858 C846 0.956 . S
H859 C846 0.961 . S
H860 C846 0.961 . S
H861 C847 0.958 . S
H862 C847 0.961 . S
H863 C847 0.960 . S
C864 C865 1.391 . S
C864 C866 1.394 . S
C864 H880 0.931 . S
C865 C864 1.391 . S
C865 C869 1.376 . S
C866 C864 1.394 . S
C866 C867 1.369 . S
C866 C870 1.531 . S
C867 C866 1.369 . S
C867 C868 1.410 . S
C867 C875 1.503 . S
C868 C867 1.410 . S
C868 C869 1.392 . S
C868 C871 1.511 . S
C869 C865 1.376 . S
C869 C868 1.392 . S
C869 H881 0.929 . S
C870 C866 1.531 . S
C870 H882 0.960 . S
C870 H883 0.962 . S
C870 H884 0.960 . S
C871 C868 1.511 . S
C871 H885 0.961 . S
C871 H886 0.961 . S
C871 H887 0.961 . S
C872 C873 1.370 . S
C872 C874 1.363 . S
C872 H888 0.931 . S
C873 C872 1.370 . S
C873 C877 1.408 . S
C874 C872 1.363 . S
C874 C875 1.370 . S
C874 C878 1.524 . S
C875 C867 1.503 . S
C875 C874 1.370 . S
C875 C876 1.403 . S
C876 C875 1.403 . S
C876 C877 1.404 . S
C876 C879 1.539 . S
C877 C873 1.408 . S
C877 C876 1.404 . S
C877 H889 0.930 . S
C878 C874 1.524 . S
C878 H890 0.956 . S
C878 H891 0.961 . S
C878 H892 0.961 . S
C879 C876 1.539 . S
C879 H893 0.958 . S
C879 H894 0.961 . S
C879 H895 0.960 . S
H880 C864 0.931 . S
H881 C869 0.929 . S
H882 C870 0.960 . S
H883 C870 0.962 . S
H884 C870 0.960 . S
H885 C871 0.961 . S
H886 C871 0.961 . S
H887 C871 0.961 . S
H888 C872 0.931 . S
H889 C877 0.930 . S
H890 C878 0.956 . S
H891 C878 0.961 . S
H892 C878 0.961 . S
H893 C879 0.958 . S
H894 C879 0.961 . S
H895 C879 0.960 . S
C896 C897 1.391 . S
C896 C898 1.394 . S
C896 H912 0.931 . S
C897 C896 1.391 . S
C897 C901 1.376 . S
C898 C896 1.394 . S
C898 C899 1.369 . S
C898 C902 1.531 . S
C899 C898 1.369 . S
C899 C900 1.410 . S
C899 C907 1.503 . S
C900 C899 1.410 . S
C900 C901 1.392 . S
C900 C903 1.511 . S
C901 C897 1.376 . S
C901 C900 1.392 . S
C901 H913 0.929 . S
C902 C898 1.531 . S
C902 H914 0.960 . S
C902 H915 0.962 . S
C902 H916 0.960 . S
C903 C900 1.511 . S
C903 H917 0.961 . S
C903 H918 0.961 . S
C903 H919 0.961 . S
C904 C905 1.370 . S
C904 C906 1.363 . S
C904 H920 0.931 . S
C905 C904 1.370 . S
C905 C909 1.408 . S
C906 C904 1.363 . S
C906 C907 1.370 . S
C906 C910 1.524 . S
C907 C899 1.503 . S
C907 C906 1.370 . S
C907 C908 1.403 . S
C908 C907 1.403 . S
C908 C909 1.404 . S
C908 C911 1.539 . S
C909 C905 1.408 . S
C909 C908 1.404 . S
C909 H921 0.930 . S
C910 C906 1.524 . S
C910 H922 0.956 . S
C910 H923 0.961 . S
C910 H924 0.961 . S
C911 C908 1.539 . S
C911 H925 0.958 . S
C911 H926 0.961 . S
C911 H927 0.960 . S
H912 C896 0.931 . S
H913 C901 0.929 . S
H914 C902 0.960 . S
H915 C902 0.962 . S
H916 C902 0.960 . S
H917 C903 0.961 . S
H918 C903 0.961 . S
H919 C903 0.961 . S
H920 C904 0.931 . S
H921 C909 0.930 . S
H922 C910 0.956 . S
H923 C910 0.961 . S
H924 C910 0.961 . S
H925 C911 0.958 . S
H926 C911 0.961 . S
H927 C911 0.960 . S
C928 C929 1.391 . S
C928 C930 1.394 . S
C928 H944 0.931 . S
C929 C928 1.391 . S
C929 C933 1.376 . S
C930 C928 1.394 . S
C930 C931 1.369 . S
C930 C934 1.531 . S
C931 C930 1.369 . S
C931 C932 1.410 . S
C931 C939 1.503 . S
C932 C931 1.410 . S
C932 C933 1.392 . S
C932 C935 1.511 . S
C933 C929 1.376 . S
C933 C932 1.392 . S
C933 H945 0.929 . S
C934 C930 1.531 . S
C934 H946 0.960 . S
C934 H947 0.962 . S
C934 H948 0.960 . S
C935 C932 1.511 . S
C935 H949 0.961 . S
C935 H950 0.961 . S
C935 H951 0.961 . S
C936 C937 1.370 . S
C936 C938 1.363 . S
C936 H952 0.931 . S
C937 C936 1.370 . S
C937 C941 1.408 . S
C938 C936 1.363 . S
C938 C939 1.370 . S
C938 C942 1.524 . S
C939 C931 1.503 . S
C939 C938 1.370 . S
C939 C940 1.403 . S
C940 C939 1.403 . S
C940 C941 1.404 . S
C940 C943 1.539 . S
C941 C937 1.408 . S
C941 C940 1.404 . S
C941 H953 0.930 . S
C942 C938 1.524 . S
C942 H954 0.956 . S
C942 H955 0.961 . S
C942 H956 0.961 . S
C943 C940 1.539 . S
C943 H957 0.958 . S
C943 H958 0.961 . S
C943 H959 0.960 . S
H944 C928 0.931 . S
H945 C933 0.929 . S
H946 C934 0.960 . S
H947 C934 0.962 . S
H948 C934 0.960 . S
H949 C935 0.961 . S
H950 C935 0.961 . S
H951 C935 0.961 . S
H952 C936 0.931 . S
H953 C941 0.930 . S
H954 C942 0.956 . S
H955 C942 0.961 . S
H956 C942 0.961 . S
H957 C943 0.958 . S
H958 C943 0.961 . S
H959 C943 0.960 . S
C960 C961 1.391 . S
C960 C962 1.394 . S
C960 H976 0.931 . S
C961 C960 1.391 . S
C961 C965 1.376 . S
C962 C960 1.394 . S
C962 C963 1.369 . S
C962 C966 1.531 . S
C963 C962 1.369 . S
C963 C964 1.410 . S
C963 C971 1.503 . S
C964 C963 1.410 . S
C964 C965 1.392 . S
C964 C967 1.511 . S
C965 C961 1.376 . S
C965 C964 1.392 . S
C965 H977 0.929 . S
C966 C962 1.531 . S
C966 H978 0.960 . S
C966 H979 0.962 . S
C966 H980 0.960 . S
C967 C964 1.511 . S
C967 H981 0.961 . S
C967 H982 0.961 . S
C967 H983 0.961 . S
C968 C969 1.370 . S
C968 C970 1.363 . S
C968 H984 0.931 . S
C969 C968 1.370 . S
C969 C973 1.408 . S
C970 C968 1.363 . S
C970 C971 1.370 . S
C970 C974 1.524 . S
C971 C963 1.503 . S
C971 C970 1.370 . S
C971 C972 1.403 . S
C972 C971 1.403 . S
C972 C973 1.404 . S
C972 C975 1.539 . S
C973 C969 1.408 . S
C973 C972 1.404 . S
C973 H985 0.930 . S
C974 C970 1.524 . S
C974 H986 0.956 . S
C974 H987 0.961 . S
C974 H988 0.961 . S
C975 C972 1.539 . S
C975 H989 0.958 . S
C975 H990 0.961 . S
C975 H991 0.960 . S
H976 C960 0.931 . S
H977 C965 0.929 . S
H978 C966 0.960 . S
H979 C966 0.962 . S
H980 C966 0.960 . S
H981 C967 0.961 . S
H982 C967 0.961 . S
H983 C967 0.961 . S
H984 C968 0.931 . S
H985 C973 0.930 . S
H986 C974 0.956 . S
H987 C974 0.961 . S
H988 C974 0.961 . S
H989 C975 0.958 . S
H990 C975 0.961 . S
H991 C975 0.960 . S
C992 C993 1.391 . S
C992 C994 1.394 . S
C992 H1008 0.931 . S
C993 C992 1.391 . S
C993 C997 1.376 . S
C994 C992 1.394 . S
C994 C995 1.369 . S
C994 C998 1.531 . S
C995 C994 1.369 . S
C995 C996 1.410 . S
C995 C1003 1.503 . S
C996 C995 1.410 . S
C996 C997 1.392 . S
C996 C999 1.511 . S
C997 C993 1.376 . S
C997 C996 1.392 . S
C997 H1009 0.929 . S
C998 C994 1.531 . S
C998 H1010 0.960 . S
C998 H1011 0.962 . S
C998 H1012 0.960 . S
C999 C996 1.511 . S
C999 H1013 0.961 . S
C999 H1014 0.961 . S
C999 H1015 0.961 . S
C1000 C1001 1.370 . S
C1000 C1002 1.363 . S
C1000 H1016 0.931 . S
C1001 C1000 1.370 . S
C1001 C1005 1.408 . S
C1002 C1000 1.363 . S
C1002 C1003 1.370 . S
C1002 C1006 1.524 . S
C1003 C995 1.503 . S
C1003 C1002 1.370 . S
C1003 C1004 1.403 . S
C1004 C1003 1.403 . S
C1004 C1005 1.404 . S
C1004 C1007 1.539 . S
C1005 C1001 1.408 . S
C1005 C1004 1.404 . S
C1005 H1017 0.930 . S
C1006 C1002 1.524 . S
C1006 H1018 0.956 . S
C1006 H1019 0.961 . S
C1006 H1020 0.961 . S
C1007 C1004 1.539 . S
C1007 H1021 0.958 . S
C1007 H1022 0.961 . S
C1007 H1023 0.960 . S
H1008 C992 0.931 . S
H1009 C997 0.929 . S
H1010 C998 0.960 . S
H1011 C998 0.962 . S
H1012 C998 0.960 . S
H1013 C999 0.961 . S
H1014 C999 0.961 . S
H1015 C999 0.961 . S
H1016 C1000 0.931 . S
H1017 C1005 0.930 . S
H1018 C1006 0.956 . S
H1019 C1006 0.961 . S
H1020 C1006 0.961 . S
H1021 C1007 0.958 . S
H1022 C1007 0.961 . S
H1023 C1007 0.960 . S
C1024 C1025 1.391 . S
C1024 C1026 1.394 . S
C1024 H1040 0.931 . S
C1025 C1024 1.391 . S
C1025 C1029 1.376 . S
C1026 C1024 1.394 . S
C1026 C1027 1.369 . S
C1026 C1030 1.531 . S
C1027 C1026 1.369 . S
C1027 C1028 1.410 . S
C1027 C1035 1.503 . S
C1028 C1027 1.410 . S
C1028 C1029 1.392 . S
C1028 C1031 1.511 . S
C1029 C1025 1.376 . S
C1029 C1028 1.392 . S
C1029 H1041 0.929 . S
C1030 C1026 1.531 . S
C1030 H1042 0.960 . S
C1030 H1043 0.962 . S
C1030 H1044 0.960 . S
C1031 C1028 1.511 . S
C1031 H1045 0.961 . S
C1031 H1046 0.961 . S
C1031 H1047 0.961 . S
C1032 C1033 1.370 . S
C1032 C1034 1.363 . S
C1032 H1048 0.931 . S
C1033 C1032 1.370 . S
C1033 C1037 1.408 . S
C1034 C1032 1.363 . S
C1034 C1035 1.370 . S
C1034 C1038 1.524 . S
C1035 C1027 1.503 . S
C1035 C1034 1.370 . S
C1035 C1036 1.403 . S
C1036 C1035 1.403 . S
C1036 C1037 1.404 . S
C1036 C1039 1.539 . S
C1037 C1033 1.408 . S
C1037 C1036 1.404 . S
C1037 H1049 0.930 . S
C1038 C1034 1.524 . S
C1038 H1050 0.956 . S
C1038 H1051 0.961 . S
C1038 H1052 0.961 . S
C1039 C1036 1.539 . S
C1039 H1053 0.958 . S
C1039 H1054 0.961 . S
C1039 H1055 0.960 . S
H1040 C1024 0.931 . S
H1041 C1029 0.929 . S
H1042 C1030 0.960 . S
H1043 C1030 0.962 . S
H1044 C1030 0.960 . S
H1045 C1031 0.961 . S
H1046 C1031 0.961 . S
H1047 C1031 0.961 . S
H1048 C1032 0.931 . S
H1049 C1037 0.930 . S
H1050 C1038 0.956 . S
H1051 C1038 0.961 . S
H1052 C1038 0.961 . S
H1053 C1039 0.958 . S
H1054 C1039 0.961 . S
H1055 C1039 0.960 . S
C1056 C1057 1.391 . S
C1056 C1058 1.394 . S
C1056 H1072 0.931 . S
C1057 C1056 1.391 . S
C1057 C1061 1.376 . S
C1058 C1056 1.394 . S
C1058 C1059 1.369 . S
C1058 C1062 1.531 . S
C1059 C1058 1.369 . S
C1059 C1060 1.410 . S
C1059 C1067 1.503 . S
C1060 C1059 1.410 . S
C1060 C1061 1.392 . S
C1060 C1063 1.511 . S
C1061 C1057 1.376 . S
C1061 C1060 1.392 . S
C1061 H1073 0.929 . S
C1062 C1058 1.531 . S
C1062 H1074 0.960 . S
C1062 H1075 0.962 . S
C1062 H1076 0.960 . S
C1063 C1060 1.511 . S
C1063 H1077 0.961 . S
C1063 H1078 0.961 . S
C1063 H1079 0.961 . S
C1064 C1065 1.370 . S
C1064 C1066 1.363 . S
C1064 H1080 0.931 . S
C1065 C1064 1.370 . S
C1065 C1069 1.408 . S
C1066 C1064 1.363 . S
C1066 C1067 1.370 . S
C1066 C1070 1.524 . S
C1067 C1059 1.503 . S
C1067 C1066 1.370 . S
C1067 C1068 1.403 . S
C1068 C1067 1.403 . S
C1068 C1069 1.404 . S
C1068 C1071 1.539 . S
C1069 C1065 1.408 . S
C1069 C1068 1.404 . S
C1069 H1081 0.930 . S
C1070 C1066 1.524 . S
C1070 H1082 0.956 . S
C1070 H1083 0.961 . S
C1070 H1084 0.961 . S
C1071 C1068 1.539 . S
C1071 H1085 0.958 . S
C1071 H1086 0.961 . S
C1071 H1087 0.960 . S
H1072 C1056 0.931 . S
H1073 C1061 0.929 . S
H1074 C1062 0.960 . S
H1075 C1062 0.962 . S
H1076 C1062 0.960 . S
H1077 C1063 0.961 . S
H1078 C1063 0.961 . S
H1079 C1063 0.961 . S
H1080 C1064 0.931 . S
H1081 C1069 0.930 . S
H1082 C1070 0.956 . S
H1083 C1070 0.961 . S
H1084 C1070 0.961 . S
H1085 C1071 0.958 . S
H1086 C1071 0.961 . S
H1087 C1071 0.960 . S
C1088 C1089 1.391 . S
C1088 C1090 1.394 . S
C1088 H1104 0.931 . S
C1089 C1088 1.391 . S
C1089 C1093 1.376 . S
C1090 C1088 1.394 . S
C1090 C1091 1.369 . S
C1090 C1094 1.531 . S
C1091 C1090 1.369 . S
C1091 C1092 1.410 . S
C1091 C1099 1.503 . S
C1092 C1091 1.410 . S
C1092 C1093 1.392 . S
C1092 C1095 1.511 . S
C1093 C1089 1.376 . S
C1093 C1092 1.392 . S
C1093 H1105 0.929 . S
C1094 C1090 1.531 . S
C1094 H1106 0.960 . S
C1094 H1107 0.962 . S
C1094 H1108 0.960 . S
C1095 C1092 1.511 . S
C1095 H1109 0.961 . S
C1095 H1110 0.961 . S
C1095 H1111 0.961 . S
C1096 C1097 1.370 . S
C1096 C1098 1.363 . S
C1096 H1112 0.931 . S
C1097 C1096 1.370 . S
C1097 C1101 1.408 . S
C1098 C1096 1.363 . S
C1098 C1099 1.370 . S
C1098 C1102 1.524 . S
C1099 C1091 1.503 . S
C1099 C1098 1.370 . S
C1099 C1100 1.403 . S
C1100 C1099 1.403 . S
C1100 C1101 1.404 . S
C1100 C1103 1.539 . S
C1101 C1097 1.408 . S
C1101 C1100 1.404 . S
C1101 H1113 0.930 . S
C1102 C1098 1.524 . S
C1102 H1114 0.956 . S
C1102 H1115 0.961 . S
C1102 H1116 0.961 . S
C1103 C1100 1.539 . S
C1103 H1117 0.958 . S
C1103 H1118 0.961 . S
C1103 H1119 0.960 . S
H1104 C1088 0.931 . S
H1105 C1093 0.929 . S
H1106 C1094 0.960 . S
H1107 C1094 0.962 . S
H1108 C1094 0.960 . S
H1109 C1095 0.961 . S
H1110 C1095 0.961 . S
H1111 C1095 0.961 . S
H1112 C1096 0.931 . S
H1113 C1101 0.930 . S
H1114 C1102 0.956 . S
H1115 C1102 0.961 . S
H1116 C1102 0.961 . S
H1117 C1103 0.958 . S
H1118 C1103 0.961 . S
H1119 C1103 0.960 . S
C1120 C1121 1.391 . S
C1120 C1122 1.394 . S
C1120 H1136 0.931 . S
C1121 C1120 1.391 . S
C1121 C1125 1.376 . S
C1122 C1120 1.394 . S
C1122 C1123 1.369 . S
C1122 C1126 1.531 . S
C1123 C1122 1.369 . S
C1123 C1124 1.410 . S
C1123 C1131 1.503 . S
C1124 C1123 1.410 . S
C1124 C1125 1.392 . S
C1124 C1127 1.511 . S
C1125 C1121 1.376 . S
C1125 C1124 1.392 . S
C1125 H1137 0.929 . S
C1126 C1122 1.531 . S
C1126 H1138 0.960 . S
C1126 H1139 0.962 . S
C1126 H1140 0.960 . S
C1127 C1124 1.511 . S
C1127 H1141 0.961 . S
C1127 H1142 0.961 . S
C1127 H1143 0.961 . S
C1128 C1129 1.370 . S
C1128 C1130 1.363 . S
C1128 H1144 0.931 . S
C1129 C1128 1.370 . S
C1129 C1133 1.408 . S
C1130 C1128 1.363 . S
C1130 C1131 1.370 . S
C1130 C1134 1.524 . S
C1131 C1123 1.503 . S
C1131 C1130 1.370 . S
C1131 C1132 1.403 . S
C1132 C1131 1.403 . S
C1132 C1133 1.404 . S
C1132 C1135 1.539 . S
C1133 C1129 1.408 . S
C1133 C1132 1.404 . S
C1133 H1145 0.930 . S
C1134 C1130 1.524 . S
C1134 H1146 0.956 . S
C1134 H1147 0.961 . S
C1134 H1148 0.961 . S
C1135 C1132 1.539 . S
C1135 H1149 0.958 . S
C1135 H1150 0.961 . S
C1135 H1151 0.960 . S
H1136 C1120 0.931 . S
H1137 C1125 0.929 . S
H1138 C1126 0.960 . S
H1139 C1126 0.962 . S
H1140 C1126 0.960 . S
H1141 C1127 0.961 . S
H1142 C1127 0.961 . S
H1143 C1127 0.961 . S
H1144 C1128 0.931 . S
H1145 C1133 0.930 . S
H1146 C1134 0.956 . S
H1147 C1134 0.961 . S
H1148 C1134 0.961 . S
H1149 C1135 0.958 . S
H1150 C1135 0.961 . S
H1151 C1135 0.960 . S
C1152 C1153 1.391 . S
C1152 C1154 1.394 . S
C1152 H1168 0.931 . S
C1153 C1152 1.391 . S
C1153 C1157 1.376 . S
C1154 C1152 1.394 . S
C1154 C1155 1.369 . S
C1154 C1158 1.531 . S
C1155 C1154 1.369 . S
C1155 C1156 1.410 . S
C1155 C1163 1.503 . S
C1156 C1155 1.410 . S
C1156 C1157 1.392 . S
C1156 C1159 1.511 . S
C1157 C1153 1.376 . S
C1157 C1156 1.392 . S
C1157 H1169 0.929 . S
C1158 C1154 1.531 . S
C1158 H1170 0.960 . S
C1158 H1171 0.962 . S
C1158 H1172 0.960 . S
C1159 C1156 1.511 . S
C1159 H1173 0.961 . S
C1159 H1174 0.961 . S
C1159 H1175 0.961 . S
C1160 C1161 1.370 . S
C1160 C1162 1.363 . S
C1160 H1176 0.931 . S
C1161 C1160 1.370 . S
C1161 C1165 1.408 . S
C1162 C1160 1.363 . S
C1162 C1163 1.370 . S
C1162 C1166 1.524 . S
C1163 C1155 1.503 . S
C1163 C1162 1.370 . S
C1163 C1164 1.403 . S
C1164 C1163 1.403 . S
C1164 C1165 1.404 . S
C1164 C1167 1.539 . S
C1165 C1161 1.408 . S
C1165 C1164 1.404 . S
C1165 H1177 0.930 . S
C1166 C1162 1.524 . S
C1166 H1178 0.956 . S
C1166 H1179 0.961 . S
C1166 H1180 0.961 . S
C1167 C1164 1.539 . S
C1167 H1181 0.958 . S
C1167 H1182 0.961 . S
C1167 H1183 0.960 . S
H1168 C1152 0.931 . S
H1169 C1157 0.929 . S
H1170 C1158 0.960 . S
H1171 C1158 0.962 . S
H1172 C1158 0.960 . S
H1173 C1159 0.961 . S
H1174 C1159 0.961 . S
H1175 C1159 0.961 . S
H1176 C1160 0.931 . S
H1177 C1165 0.930 . S
H1178 C1166 0.956 . S
H1179 C1166 0.961 . S
H1180 C1166 0.961 . S
H1181 C1167 0.958 . S
H1182 C1167 0.961 . S
H1183 C1167 0.960 . S
C1184 C1185 1.391 . S
C1184 C1186 1.394 . S
C1184 H1200 0.931 . S
C1185 C1184 1.391 . S
C1185 C1189 1.376 . S
C1186 C1184 1.394 . S
C1186 C1187 1.369 . S
C1186 C1190 1.531 . S
C1187 C1186 1.369 . S
C1187 C1188 1.410 . S
C1187 C1195 1.503 . S
C1188 C1187 1.410 . S
C1188 C1189 1.392 . S
C1188 C1191 1.511 . S
C1189 C1185 1.376 . S
C1189 C1188 1.392 . S
C1189 H1201 0.929 . S
C1190 C1186 1.531 . S
C1190 H1202 0.960 . S
C1190 H1203 0.962 . S
C1190 H1204 0.960 . S
C1191 C1188 1.511 . S
C1191 H1205 0.961 . S
C1191 H1206 0.961 . S
C1191 H1207 0.961 . S
C1192 C1193 1.370 . S
C1192 C1194 1.363 . S
C1192 H1208 0.931 . S
C1193 C1192 1.370 . S
C1193 C1197 1.408 . S
C1194 C1192 1.363 . S
C1194 C1195 1.370 . S
C1194 C1198 1.524 . S
C1195 C1187 1.503 . S
C1195 C1194 1.370 . S
C1195 C1196 1.403 . S
C1196 C1195 1.403 . S
C1196 C1197 1.404 . S
C1196 C1199 1.539 . S
C1197 C1193 1.408 . S
C1197 C1196 1.404 . S
C1197 H1209 0.930 . S
C1198 C1194 1.524 . S
C1198 H1210 0.956 . S
C1198 H1211 0.961 . S
C1198 H1212 0.961 . S
C1199 C1196 1.539 . S
C1199 H1213 0.958 . S
C1199 H1214 0.961 . S
C1199 H1215 0.960 . S
H1200 C1184 0.931 . S
H1201 C1189 0.929 . S
H1202 C1190 0.960 . S
H1203 C1190 0.962 . S
H1204 C1190 0.960 . S
H1205 C1191 0.961 . S
H1206 C1191 0.961 . S
H1207 C1191 0.961 . S
H1208 C1192 0.931 . S
H1209 C1197 0.930 . S
H1210 C1198 0.956 . S
H1211 C1198 0.961 . S
H1212 C1198 0.961 . S
H1213 C1199 0.958 . S
H1214 C1199 0.961 . S
H1215 C1199 0.960 . S
C1216 C1217 1.391 . S
C1216 C1218 1.394 . S
C1216 H1232 0.931 . S
C1217 C1216 1.391 . S
C1217 C1221 1.376 . S
C1218 C1216 1.394 . S
C1218 C1219 1.369 . S
C1218 C1222 1.531 . S
C1219 C1218 1.369 . S
C1219 C1220 1.410 . S
C1219 C1227 1.503 . S
C1220 C1219 1.410 . S
C1220 C1221 1.392 . S
C1220 C1223 1.511 . S
C1221 C1217 1.376 . S
C1221 C1220 1.392 . S
C1221 H1233 0.929 . S
C1222 C1218 1.531 . S
C1222 H1234 0.960 . S
C1222 H1235 0.962 . S
C1222 H1236 0.960 . S
C1223 C1220 1.511 . S
C1223 H1237 0.961 . S
C1223 H1238 0.961 . S
C1223 H1239 0.961 . S
C1224 C1225 1.370 . S
C1224 C1226 1.363 . S
C1224 H1240 0.931 . S
C1225 C1224 1.370 . S
C1225 C1229 1.408 . S
C1226 C1224 1.363 . S
C1226 C1227 1.370 . S
C1226 C1230 1.524 . S
C1227 C1219 1.503 . S
C1227 C1226 1.370 . S
C1227 C1228 1.403 . S
C1228 C1227 1.403 . S
C1228 C1229 1.404 . S
C1228 C1231 1.539 . S
C1229 C1225 1.408 . S
C1229 C1228 1.404 . S
C1229 H1241 0.930 . S
C1230 C1226 1.524 . S
C1230 H1242 0.956 . S
C1230 H1243 0.961 . S
C1230 H1244 0.961 . S
C1231 C1228 1.539 . S
C1231 H1245 0.958 . S
C1231 H1246 0.961 . S
C1231 H1247 0.960 . S
H1232 C1216 0.931 . S
H1233 C1221 0.929 . S
H1234 C1222 0.960 . S
H1235 C1222 0.962 . S
H1236 C1222 0.960 . S
H1237 C1223 0.961 . S
H1238 C1223 0.961 . S
H1239 C1223 0.961 . S
H1240 C1224 0.931 . S
H1241 C1229 0.930 . S
H1242 C1230 0.956 . S
H1243 C1230 0.961 . S
H1244 C1230 0.961 . S
H1245 C1231 0.958 . S
H1246 C1231 0.961 . S
H1247 C1231 0.960 . S
C1248 C1249 1.391 . S
C1248 C1250 1.394 . S
C1248 H1264 0.931 . S
C1249 C1248 1.391 . S
C1249 C1253 1.376 . S
C1250 C1248 1.394 . S
C1250 C1251 1.369 . S
C1250 C1254 1.531 . S
C1251 C1250 1.369 . S
C1251 C1252 1.410 . S
C1251 C1259 1.503 . S
C1252 C1251 1.410 . S
C1252 C1253 1.392 . S
C1252 C1255 1.511 . S
C1253 C1249 1.376 . S
C1253 C1252 1.392 . S
C1253 H1265 0.929 . S
C1254 C1250 1.531 . S
C1254 H1266 0.960 . S
C1254 H1267 0.962 . S
C1254 H1268 0.960 . S
C1255 C1252 1.511 . S
C1255 H1269 0.961 . S
C1255 H1270 0.961 . S
C1255 H1271 0.961 . S
C1256 C1257 1.370 . S
C1256 C1258 1.363 . S
C1256 H1272 0.931 . S
C1257 C1256 1.370 . S
C1257 C1261 1.408 . S
C1258 C1256 1.363 . S
C1258 C1259 1.370 . S
C1258 C1262 1.524 . S
C1259 C1251 1.503 . S
C1259 C1258 1.370 . S
C1259 C1260 1.403 . S
C1260 C1259 1.403 . S
C1260 C1261 1.404 . S
C1260 C1263 1.539 . S
C1261 C1257 1.408 . S
C1261 C1260 1.404 . S
C1261 H1273 0.930 . S
C1262 C1258 1.524 . S
C1262 H1274 0.956 . S
C1262 H1275 0.961 . S
C1262 H1276 0.961 . S
C1263 C1260 1.539 . S
C1263 H1277 0.958 . S
C1263 H1278 0.961 . S
C1263 H1279 0.960 . S
H1264 C1248 0.931 . S
H1265 C1253 0.929 . S
H1266 C1254 0.960 . S
H1267 C1254 0.962 . S
H1268 C1254 0.960 . S
H1269 C1255 0.961 . S
H1270 C1255 0.961 . S
H1271 C1255 0.961 . S
H1272 C1256 0.931 . S
H1273 C1261 0.930 . S
H1274 C1262 0.956 . S
H1275 C1262 0.961 . S
H1276 C1262 0.961 . S
H1277 C1263 0.958 . S
H1278 C1263 0.961 . S
H1279 C1263 0.960 . S
C1280 C1281 1.391 . S
C1280 C1282 1.394 . S
C1280 H1296 0.931 . S
C1281 C1280 1.391 . S
C1281 C1285 1.376 . S
C1282 C1280 1.394 . S
C1282 C1283 1.369 . S
C1282 C1286 1.531 . S
C1283 C1282 1.369 . S
C1283 C1284 1.410 . S
C1283 C1291 1.503 . S
C1284 C1283 1.410 . S
C1284 C1285 1.392 . S
C1284 C1287 1.511 . S
C1285 C1281 1.376 . S
C1285 C1284 1.392 . S
C1285 H1297 0.929 . S
C1286 C1282 1.531 . S
C1286 H1298 0.960 . S
C1286 H1299 0.962 . S
C1286 H1300 0.960 . S
C1287 C1284 1.511 . S
C1287 H1301 0.961 . S
C1287 H1302 0.961 . S
C1287 H1303 0.961 . S
C1288 C1289 1.370 . S
C1288 C1290 1.363 . S
C1288 H1304 0.931 . S
C1289 C1288 1.370 . S
C1289 C1293 1.408 . S
C1290 C1288 1.363 . S
C1290 C1291 1.370 . S
C1290 C1294 1.524 . S
C1291 C1283 1.503 . S
C1291 C1290 1.370 . S
C1291 C1292 1.403 . S
C1292 C1291 1.403 . S
C1292 C1293 1.404 . S
C1292 C1295 1.539 . S
C1293 C1289 1.408 . S
C1293 C1292 1.404 . S
C1293 H1305 0.930 . S
C1294 C1290 1.524 . S
C1294 H1306 0.956 . S
C1294 H1307 0.961 . S
C1294 H1308 0.961 . S
C1295 C1292 1.539 . S
C1295 H1309 0.958 . S
C1295 H1310 0.961 . S
C1295 H1311 0.960 . S
H1296 C1280 0.931 . S
H1297 C1285 0.929 . S
H1298 C1286 0.960 . S
H1299 C1286 0.962 . S
H1300 C1286 0.960 . S
H1301 C1287 0.961 . S
H1302 C1287 0.961 . S
H1303 C1287 0.961 . S
H1304 C1288 0.931 . S
H1305 C1293 0.930 . S
H1306 C1294 0.956 . S
H1307 C1294 0.961 . S
H1308 C1294 0.961 . S
H1309 C1295 0.958 . S
H1310 C1295 0.961 . S
H1311 C1295 0.960 . S
C1312 C1313 1.391 . S
C1312 C1314 1.394 . S
C1312 H1328 0.931 . S
C1313 C1312 1.391 . S
C1313 C1317 1.376 . S
C1314 C1312 1.394 . S
C1314 C1315 1.369 . S
C1314 C1318 1.531 . S
C1315 C1314 1.369 . S
C1315 C1316 1.410 . S
C1315 C1323 1.503 . S
C1316 C1315 1.410 . S
C1316 C1317 1.392 . S
C1316 C1319 1.511 . S
C1317 C1313 1.376 . S
C1317 C1316 1.392 . S
C1317 H1329 0.929 . S
C1318 C1314 1.531 . S
C1318 H1330 0.960 . S
C1318 H1331 0.962 . S
C1318 H1332 0.960 . S
C1319 C1316 1.511 . S
C1319 H1333 0.961 . S
C1319 H1334 0.961 . S
C1319 H1335 0.961 . S
C1320 C1321 1.370 . S
C1320 C1322 1.363 . S
C1320 H1336 0.931 . S
C1321 C1320 1.370 . S
C1321 C1325 1.408 . S
C1322 C1320 1.363 . S
C1322 C1323 1.370 . S
C1322 C1326 1.524 . S
C1323 C1315 1.503 . S
C1323 C1322 1.370 . S
C1323 C1324 1.403 . S
C1324 C1323 1.403 . S
C1324 C1325 1.404 . S
C1324 C1327 1.539 . S
C1325 C1321 1.408 . S
C1325 C1324 1.404 . S
C1325 H1337 0.930 . S
C1326 C1322 1.524 . S
C1326 H1338 0.956 . S
C1326 H1339 0.961 . S
C1326 H1340 0.961 . S
C1327 C1324 1.539 . S
C1327 H1341 0.958 . S
C1327 H1342 0.961 . S
C1327 H1343 0.960 . S
H1328 C1312 0.931 . S
H1329 C1317 0.929 . S
H1330 C1318 0.960 . S
H1331 C1318 0.962 . S
H1332 C1318 0.960 . S
H1333 C1319 0.961 . S
H1334 C1319 0.961 . S
H1335 C1319 0.961 . S
H1336 C1320 0.931 . S
H1337 C1325 0.930 . S
H1338 C1326 0.956 . S
H1339 C1326 0.961 . S
H1340 C1326 0.961 . S
H1341 C1327 0.958 . S
H1342 C1327 0.961 . S
H1343 C1327 0.960 . S
C1344 C1345 1.391 . S
C1344 C1346 1.394 . S
C1344 H1360 0.931 . S
C1345 C1344 1.391 . S
C1345 C1349 1.376 . S
C1346 C1344 1.394 . S
C1346 C1347 1.369 . S
C1346 C1350 1.531 . S
C1347 C1346 1.369 . S
C1347 C1348 1.410 . S
C1347 C1355 1.503 . S
C1348 C1347 1.410 . S
C1348 C1349 1.392 . S
C1348 C1351 1.511 . S
C1349 C1345 1.376 . S
C1349 C1348 1.392 . S
C1349 H1361 0.929 . S
C1350 C1346 1.531 . S
C1350 H1362 0.960 . S
C1350 H1363 0.962 . S
C1350 H1364 0.960 . S
C1351 C1348 1.511 . S
C1351 H1365 0.961 . S
C1351 H1366 0.961 . S
C1351 H1367 0.961 . S
C1352 C1353 1.370 . S
C1352 C1354 1.363 . S
C1352 H1368 0.931 . S
C1353 C1352 1.370 . S
C1353 C1357 1.408 . S
C1354 C1352 1.363 . S
C1354 C1355 1.370 . S
C1354 C1358 1.524 . S
C1355 C1347 1.503 . S
C1355 C1354 1.370 . S
C1355 C1356 1.403 . S
C1356 C1355 1.403 . S
C1356 C1357 1.404 . S
C1356 C1359 1.539 . S
C1357 C1353 1.408 . S
C1357 C1356 1.404 . S
C1357 H1369 0.930 . S
C1358 C1354 1.524 . S
C1358 H1370 0.956 . S
C1358 H1371 0.961 . S
C1358 H1372 0.961 . S
C1359 C1356 1.539 . S
C1359 H1373 0.958 . S
C1359 H1374 0.961 . S
C1359 H1375 0.960 . S
H1360 C1344 0.931 . S
H1361 C1349 0.929 . S
H1362 C1350 0.960 . S
H1363 C1350 0.962 . S
H1364 C1350 0.960 . S
H1365 C1351 0.961 . S
H1366 C1351 0.961 . S
H1367 C1351 0.961 . S
H1368 C1352 0.931 . S
H1369 C1357 0.930 . S
H1370 C1358 0.956 . S
H1371 C1358 0.961 . S
H1372 C1358 0.961 . S
H1373 C1359 0.958 . S
H1374 C1359 0.961 . S
H1375 C1359 0.960 . S
C1376 C1377 1.391 . S
C1376 C1378 1.394 . S
C1376 H1392 0.931 . S
C1377 C1376 1.391 . S
C1377 C1381 1.376 . S
C1378 C1376 1.394 . S
C1378 C1379 1.369 . S
C1378 C1382 1.531 . S
C1379 C1378 1.369 . S
C1379 C1380 1.410 . S
C1379 C1387 1.503 . S
C1380 C1379 1.410 . S
C1380 C1381 1.392 . S
C1380 C1383 1.511 . S
C1381 C1377 1.376 . S
C1381 C1380 1.392 . S
C1381 H1393 0.929 . S
C1382 C1378 1.531 . S
C1382 H1394 0.960 . S
C1382 H1395 0.962 . S
C1382 H1396 0.960 . S
C1383 C1380 1.511 . S
C1383 H1397 0.961 . S
C1383 H1398 0.961 . S
C1383 H1399 0.961 . S
C1384 C1385 1.370 . S
C1384 C1386 1.363 . S
C1384 H1400 0.931 . S
C1385 C1384 1.370 . S
C1385 C1389 1.408 . S
C1386 C1384 1.363 . S
C1386 C1387 1.370 . S
C1386 C1390 1.524 . S
C1387 C1379 1.503 . S
C1387 C1386 1.370 . S
C1387 C1388 1.403 . S
C1388 C1387 1.403 . S
C1388 C1389 1.404 . S
C1388 C1391 1.539 . S
C1389 C1385 1.408 . S
C1389 C1388 1.404 . S
C1389 H1401 0.930 . S
C1390 C1386 1.524 . S
C1390 H1402 0.956 . S
C1390 H1403 0.961 . S
C1390 H1404 0.961 . S
C1391 C1388 1.539 . S
C1391 H1405 0.958 . S
C1391 H1406 0.961 . S
C1391 H1407 0.960 . S
H1392 C1376 0.931 . S
H1393 C1381 0.929 . S
H1394 C1382 0.960 . S
H1395 C1382 0.962 . S
H1396 C1382 0.960 . S
H1397 C1383 0.961 . S
H1398 C1383 0.961 . S
H1399 C1383 0.961 . S
H1400 C1384 0.931 . S
H1401 C1389 0.930 . S
H1402 C1390 0.956 . S
H1403 C1390 0.961 . S
H1404 C1390 0.961 . S
H1405 C1391 0.958 . S
H1406 C1391 0.961 . S
H1407 C1391 0.960 . S
C1408 C1409 1.391 . S
C1408 C1410 1.394 . S
C1408 H1424 0.931 . S
C1409 C1408 1.391 . S
C1409 C1413 1.376 . S
C1410 C1408 1.394 . S
C1410 C1411 1.369 . S
C1410 C1414 1.531 . S
C1411 C1410 1.369 . S
C1411 C1412 1.410 . S
C1411 C1419 1.503 . S
C1412 C1411 1.410 . S
C1412 C1413 1.392 . S
C1412 C1415 1.511 . S
C1413 C1409 1.376 . S
C1413 C1412 1.392 . S
C1413 H1425 0.929 . S
C1414 C1410 1.531 . S
C1414 H1426 0.960 . S
C1414 H1427 0.962 . S
C1414 H1428 0.960 . S
C1415 C1412 1.511 . S
C1415 H1429 0.961 . S
C1415 H1430 0.961 . S
C1415 H1431 0.961 . S
C1416 C1417 1.370 . S
C1416 C1418 1.363 . S
C1416 H1432 0.931 . S
C1417 C1416 1.370 . S
C1417 C1421 1.408 . S
C1418 C1416 1.363 . S
C1418 C1419 1.370 . S
C1418 C1422 1.524 . S
C1419 C1411 1.503 . S
C1419 C1418 1.370 . S
C1419 C1420 1.403 . S
C1420 C1419 1.403 . S
C1420 C1421 1.404 . S
C1420 C1423 1.539 . S
C1421 C1417 1.408 . S
C1421 C1420 1.404 . S
C1421 H1433 0.930 . S
C1422 C1418 1.524 . S
C1422 H1434 0.956 . S
C1422 H1435 0.961 . S
C1422 H1436 0.961 . S
C1423 C1420 1.539 . S
C1423 H1437 0.958 . S
C1423 H1438 0.961 . S
C1423 H1439 0.960 . S
H1424 C1408 0.931 . S
H1425 C1413 0.929 . S
H1426 C1414 0.960 . S
H1427 C1414 0.962 . S
H1428 C1414 0.960 . S
H1429 C1415 0.961 . S
H1430 C1415 0.961 . S
H1431 C1415 0.961 . S
H1432 C1416 0.931 . S
H1433 C1421 0.930 . S
H1434 C1422 0.956 . S
H1435 C1422 0.961 . S
H1436 C1422 0.961 . S
H1437 C1423 0.958 . S
H1438 C1423 0.961 . S
H1439 C1423 0.960 . S
C1440 C1441 1.391 . S
C1440 C1442 1.394 . S
C1440 H1456 0.931 . S
C1441 C1440 1.391 . S
C1441 C1445 1.376 . S
C1442 C1440 1.394 . S
C1442 C1443 1.369 . S
C1442 C1446 1.531 . S
C1443 C1442 1.369 . S
C1443 C1444 1.410 . S
C1443 C1451 1.503 . S
C1444 C1443 1.410 . S
C1444 C1445 1.392 . S
C1444 C1447 1.511 . S
C1445 C1441 1.376 . S
C1445 C1444 1.392 . S
C1445 H1457 0.929 . S
C1446 C1442 1.531 . S
C1446 H1458 0.960 . S
C1446 H1459 0.962 . S
C1446 H1460 0.960 . S
C1447 C1444 1.511 . S
C1447 H1461 0.961 . S
C1447 H1462 0.961 . S
C1447 H1463 0.961 . S
C1448 C1449 1.370 . S
C1448 C1450 1.363 . S
C1448 H1464 0.931 . S
C1449 C1448 1.370 . S
C1449 C1453 1.408 . S
C1450 C1448 1.363 . S
C1450 C1451 1.370 . S
C1450 C1454 1.524 . S
C1451 C1443 1.503 . S
C1451 C1450 1.370 . S
C1451 C1452 1.403 . S
C1452 C1451 1.403 . S
C1452 C1453 1.404 . S
C1452 C1455 1.539 . S
C1453 C1449 1.408 . S
C1453 C1452 1.404 . S
C1453 H1465 0.930 . S
C1454 C1450 1.524 . S
C1454 H1466 0.956 . S
C1454 H1467 0.961 . S
C1454 H1468 0.961 . S
C1455 C1452 1.539 . S
C1455 H1469 0.958 . S
C1455 H1470 0.961 . S
C1455 H1471 0.960 . S
H1456 C1440 0.931 . S
H1457 C1445 0.929 . S
H1458 C1446 0.960 . S
H1459 C1446 0.962 . S
H1460 C1446 0.960 . S
H1461 C1447 0.961 . S
H1462 C1447 0.961 . S
H1463 C1447 0.961 . S
H1464 C1448 0.931 . S
H1465 C1453 0.930 . S
H1466 C1454 0.956 . S
H1467 C1454 0.961 . S
H1468 C1454 0.961 . S
H1469 C1455 0.958 . S
H1470 C1455 0.961 . S
H1471 C1455 0.960 . S
C1472 C1473 1.391 . S
C1472 C1474 1.394 . S
C1472 H1488 0.931 . S
C1473 C1472 1.391 . S
C1473 C1477 1.376 . S
C1474 C1472 1.394 . S
C1474 C1475 1.369 . S
C1474 C1478 1.531 . S
C1475 C1474 1.369 . S
C1475 C1476 1.410 . S
C1475 C1483 1.503 1_556 S
C1476 C1475 1.410 . S
C1476 C1477 1.392 . S
C1476 C1479 1.511 . S
C1477 C1473 1.376 . S
C1477 C1476 1.392 . S
C1477 H1489 0.929 . S
C1478 C1474 1.531 . S
C1478 H1490 0.960 . S
C1478 H1491 0.962 . S
C1478 H1492 0.960 . S
C1479 C1476 1.511 . S
C1479 H1493 0.961 . S
C1479 H1494 0.961 . S
C1479 H1495 0.961 . S
C1480 C1481 1.370 . S
C1480 C1482 1.363 . S
C1480 H1496 0.931 . S
C1481 C1480 1.370 . S
C1481 C1485 1.408 . S
C1482 C1480 1.363 . S
C1482 C1483 1.370 . S
C1482 C1486 1.524 . S
C1483 C1475 1.503 1_554 S
C1483 C1482 1.370 . S
C1483 C1484 1.403 . S
C1484 C1483 1.403 . S
C1484 C1485 1.404 . S
C1484 C1487 1.539 . S
C1485 C1481 1.408 . S
C1485 C1484 1.404 . S
C1485 H1497 0.930 . S
C1486 C1482 1.524 . S
C1486 H1498 0.956 1_554 S
C1486 H1499 0.961 1_554 S
C1486 H1500 0.961 . S
C1487 C1484 1.539 . S
C1487 H1501 0.958 . S
C1487 H1502 0.961 . S
C1487 H1503 0.960 1_554 S
H1488 C1472 0.931 . S
H1489 C1477 0.929 . S
H1490 C1478 0.960 . S
H1491 C1478 0.962 . S
H1492 C1478 0.960 . S
H1493 C1479 0.961 . S
H1494 C1479 0.961 . S
H1495 C1479 0.961 . S
H1496 C1480 0.931 . S
H1497 C1485 0.930 . S
H1498 C1486 0.956 1_556 S
H1499 C1486 0.961 1_556 S
H1500 C1486 0.961 . S
H1501 C1487 0.958 . S
H1502 C1487 0.961 . S
H1503 C1487 0.960 1_556 S
C1504 C1505 1.391 . S
C1504 C1506 1.394 . S
C1504 H1520 0.931 . S
C1505 C1504 1.391 . S
C1505 C1509 1.376 . S
C1506 C1504 1.394 . S
C1506 C1507 1.369 . S
C1506 C1510 1.531 . S
C1507 C1506 1.369 . S
C1507 C1508 1.410 . S
C1507 C1515 1.503 . S
C1508 C1507 1.410 . S
C1508 C1509 1.392 . S
C1508 C1511 1.511 . S
C1509 C1505 1.376 . S
C1509 C1508 1.392 . S
C1509 H1521 0.929 . S
C1510 C1506 1.531 . S
C1510 H1522 0.960 . S
C1510 H1523 0.962 . S
C1510 H1524 0.960 . S
C1511 C1508 1.511 . S
C1511 H1525 0.961 . S
C1511 H1526 0.961 . S
C1511 H1527 0.961 . S
C1512 C1513 1.370 . S
C1512 C1514 1.363 . S
C1512 H1528 0.931 . S
C1513 C1512 1.370 . S
C1513 C1517 1.408 . S
C1514 C1512 1.363 . S
C1514 C1515 1.370 . S
C1514 C1518 1.524 . S
C1515 C1507 1.503 . S
C1515 C1514 1.370 . S
C1515 C1516 1.403 . S
C1516 C1515 1.403 . S
C1516 C1517 1.404 . S
C1516 C1519 1.539 . S
C1517 C1513 1.408 . S
C1517 C1516 1.404 . S
C1517 H1529 0.930 . S
C1518 C1514 1.524 . S
C1518 H1530 0.956 . S
C1518 H1531 0.961 . S
C1518 H1532 0.961 . S
C1519 C1516 1.539 . S
C1519 H1533 0.958 . S
C1519 H1534 0.961 . S
C1519 H1535 0.960 . S
H1520 C1504 0.931 . S
H1521 C1509 0.929 . S
H1522 C1510 0.960 . S
H1523 C1510 0.962 . S
H1524 C1510 0.960 . S
H1525 C1511 0.961 . S
H1526 C1511 0.961 . S
H1527 C1511 0.961 . S
H1528 C1512 0.931 . S
H1529 C1517 0.930 . S
H1530 C1518 0.956 . S
H1531 C1518 0.961 . S
H1532 C1518 0.961 . S
H1533 C1519 0.958 . S
H1534 C1519 0.961 . S
H1535 C1519 0.960 . S
C1536 C1537 1.391 . S
C1536 C1538 1.394 . S
C1536 H1552 0.931 . S
C1537 C1536 1.391 . S
C1537 C1541 1.376 . S
C1538 C1536 1.394 . S
C1538 C1539 1.369 1_556 S
C1538 C1542 1.531 1_556 S
C1539 C1538 1.369 1_554 S
C1539 C1540 1.410 1_554 S
C1539 C1547 1.503 . S
C1540 C1539 1.410 1_556 S
C1540 C1541 1.392 . S
C1540 C1543 1.511 1_556 S
C1541 C1537 1.376 . S
C1541 C1540 1.392 . S
C1541 H1553 0.929 . S
C1542 C1538 1.531 1_554 S
C1542 H1554 0.960 . S
C1542 H1555 0.962 . S
C1542 H1556 0.960 1_554 S
C1543 C1540 1.511 1_554 S
C1543 H1557 0.961 1_554 S
C1543 H1558 0.961 . S
C1543 H1559 0.961 . S
C1544 C1545 1.370 . S
C1544 C1546 1.363 . S
C1544 H1560 0.931 . S
C1545 C1544 1.370 . S
C1545 C1549 1.408 . S
C1546 C1544 1.363 . S
C1546 C1547 1.370 . S
C1546 C1550 1.524 . S
C1547 C1539 1.503 . S
C1547 C1546 1.370 . S
C1547 C1548 1.403 . S
C1548 C1547 1.403 . S
C1548 C1549 1.404 . S
C1548 C1551 1.539 . S
C1549 C1545 1.408 . S
C1549 C1548 1.404 . S
C1549 H1561 0.930 . S
C1550 C1546 1.524 . S
C1550 H1562 0.956 . S
C1550 H1563 0.961 . S
C1550 H1564 0.961 . S
C1551 C1548 1.539 . S
C1551 H1565 0.958 . S
C1551 H1566 0.961 . S
C1551 H1567 0.960 . S
H1552 C1536 0.931 . S
H1553 C1541 0.929 . S
H1554 C1542 0.960 . S
H1555 C1542 0.962 . S
H1556 C1542 0.960 1_556 S
H1557 C1543 0.961 1_556 S
H1558 C1543 0.961 . S
H1559 C1543 0.961 . S
H1560 C1544 0.931 . S
H1561 C1549 0.930 . S
H1562 C1550 0.956 . S
H1563 C1550 0.961 . S
H1564 C1550 0.961 . S
H1565 C1551 0.958 . S
H1566 C1551 0.961 . S
H1567 C1551 0.960 . S
C1568 C1569 1.391 . S
C1568 C1570 1.394 . S
C1568 H1584 0.931 . S
C1569 C1568 1.391 . S
C1569 C1573 1.376 . S
C1570 C1568 1.394 . S
C1570 C1571 1.369 . S
C1570 C1574 1.531 . S
C1571 C1570 1.369 . S
C1571 C1572 1.410 . S
C1571 C1579 1.503 . S
C1572 C1571 1.410 . S
C1572 C1573 1.392 . S
C1572 C1575 1.511 . S
C1573 C1569 1.376 . S
C1573 C1572 1.392 . S
C1573 H1585 0.929 . S
C1574 C1570 1.531 . S
C1574 H1586 0.960 . S
C1574 H1587 0.962 . S
C1574 H1588 0.960 . S
C1575 C1572 1.511 . S
C1575 H1589 0.961 . S
C1575 H1590 0.961 . S
C1575 H1591 0.961 . S
C1576 C1577 1.370 . S
C1576 C1578 1.363 . S
C1576 H1592 0.931 . S
C1577 C1576 1.370 . S
C1577 C1581 1.408 . S
C1578 C1576 1.363 . S
C1578 C1579 1.370 . S
C1578 C1582 1.524 . S
C1579 C1571 1.503 . S
C1579 C1578 1.370 . S
C1579 C1580 1.403 . S
C1580 C1579 1.403 . S
C1580 C1581 1.404 . S
C1580 C1583 1.539 . S
C1581 C1577 1.408 . S
C1581 C1580 1.404 . S
C1581 H1593 0.930 . S
C1582 C1578 1.524 . S
C1582 H1594 0.956 . S
C1582 H1595 0.961 . S
C1582 H1596 0.961 . S
C1583 C1580 1.539 . S
C1583 H1597 0.958 . S
C1583 H1598 0.961 . S
C1583 H1599 0.960 . S
H1584 C1568 0.931 . S
H1585 C1573 0.929 . S
H1586 C1574 0.960 . S
H1587 C1574 0.962 . S
H1588 C1574 0.960 . S
H1589 C1575 0.961 . S
H1590 C1575 0.961 . S
H1591 C1575 0.961 . S
H1592 C1576 0.931 . S
H1593 C1581 0.930 . S
H1594 C1582 0.956 . S
H1595 C1582 0.961 . S
H1596 C1582 0.961 . S
H1597 C1583 0.958 . S
H1598 C1583 0.961 . S
H1599 C1583 0.960 . S
C1600 C1601 1.391 . S
C1600 C1602 1.394 . S
C1600 H1616 0.931 . S
C1601 C1600 1.391 . S
C1601 C1605 1.376 . S
C1602 C1600 1.394 . S
C1602 C1603 1.369 . S
C1602 C1606 1.531 . S
C1603 C1602 1.369 . S
C1603 C1604 1.410 . S
C1603 C1611 1.503 1_556 S
C1604 C1603 1.410 . S
C1604 C1605 1.392 . S
C1604 C1607 1.511 . S
C1605 C1601 1.376 . S
C1605 C1604 1.392 . S
C1605 H1617 0.929 . S
C1606 C1602 1.531 . S
C1606 H1618 0.960 1_556 S
C1606 H1619 0.962 . S
C1606 H1620 0.960 . S
C1607 C1604 1.511 . S
C1607 H1621 0.961 . S
C1607 H1622 0.961 1_556 S
C1607 H1623 0.961 . S
C1608 C1609 1.370 . S
C1608 C1610 1.363 . S
C1608 H1624 0.931 . S
C1609 C1608 1.370 . S
C1609 C1613 1.408 . S
C1610 C1608 1.363 . S
C1610 C1611 1.370 . S
C1610 C1614 1.524 . S
C1611 C1603 1.503 1_554 S
C1611 C1610 1.370 . S
C1611 C1612 1.403 . S
C1612 C1611 1.403 . S
C1612 C1613 1.404 . S
C1612 C1615 1.539 . S
C1613 C1609 1.408 . S
C1613 C1612 1.404 . S
C1613 H1625 0.930 . S
C1614 C1610 1.524 . S
C1614 H1626 0.956 . S
C1614 H1627 0.979 . S
C1614 H1628 0.961 . S
C1615 C1612 1.539 . S
C1615 H1629 0.958 . S
C1615 H1630 0.961 . S
C1615 H1631 0.960 . S
H1616 C1600 0.931 . S
H1617 C1605 0.929 . S
H1618 C1606 0.960 1_554 S
H1619 C1606 0.962 . S
H1620 C1606 0.960 . S
H1621 C1607 0.961 . S
H1622 C1607 0.961 1_554 S
H1623 C1607 0.961 . S
H1624 C1608 0.931 . S
H1625 C1613 0.930 . S
H1626 C1614 0.956 . S
H1627 C1614 0.979 . S
H1628 C1614 0.961 . S
H1629 C1615 0.958 . S
H1630 C1615 0.961 . S
H1631 C1615 0.960 . S
C1632 C1633 1.391 . S
C1632 C1634 1.394 . S
C1632 H1648 0.931 . S
C1633 C1632 1.391 . S
C1633 C1637 1.376 . S
C1634 C1632 1.394 . S
C1634 C1635 1.369 . S
C1634 C1638 1.531 . S
C1635 C1634 1.369 . S
C1635 C1636 1.410 . S
C1635 C1643 1.503 . S
C1636 C1635 1.410 . S
C1636 C1637 1.392 . S
C1636 C1639 1.511 . S
C1637 C1633 1.376 . S
C1637 C1636 1.392 . S
C1637 H1649 0.929 . S
C1638 C1634 1.531 . S
C1638 H1650 0.960 . S
C1638 H1651 0.962 . S
C1638 H1652 0.960 . S
C1639 C1636 1.511 . S
C1639 H1653 0.961 . S
C1639 H1654 0.961 . S
C1639 H1655 0.961 . S
C1640 C1641 1.370 . S
C1640 C1642 1.363 . S
C1640 H1656 0.931 . S
C1641 C1640 1.370 . S
C1641 C1645 1.408 . S
C1642 C1640 1.363 . S
C1642 C1643 1.370 . S
C1642 C1646 1.524 . S
C1643 C1635 1.503 . S
C1643 C1642 1.370 . S
C1643 C1644 1.403 . S
C1644 C1643 1.403 . S
C1644 C1645 1.404 . S
C1644 C1647 1.539 . S
C1645 C1641 1.408 . S
C1645 C1644 1.404 . S
C1645 H1657 0.930 . S
C1646 C1642 1.524 . S
C1646 H1658 0.956 . S
C1646 H1659 0.961 . S
C1646 H1660 0.961 . S
C1647 C1644 1.539 . S
C1647 H1661 0.958 . S
C1647 H1662 0.961 . S
C1647 H1663 0.960 . S
H1648 C1632 0.931 . S
H1649 C1637 0.929 . S
H1650 C1638 0.960 . S
H1651 C1638 0.962 . S
H1652 C1638 0.960 . S
H1653 C1639 0.961 . S
H1654 C1639 0.961 . S
H1655 C1639 0.961 . S
H1656 C1640 0.931 . S
H1657 C1645 0.930 . S
H1658 C1646 0.956 . S
H1659 C1646 0.961 . S
H1660 C1646 0.961 . S
H1661 C1647 0.958 . S
H1662 C1647 0.961 . S
H1663 C1647 0.960 . S
C1664 C1665 1.391 . S
C1664 C1666 1.394 . S
C1664 H1680 0.931 . S
C1665 C1664 1.391 . S
C1665 C1669 1.376 . S
C1666 C1664 1.394 . S
C1666 C1667 1.369 . S
C1666 C1670 1.531 . S
C1667 C1666 1.369 . S
C1667 C1668 1.410 . S
C1667 C1675 1.503 . S
C1668 C1667 1.410 . S
C1668 C1669 1.392 . S
C1668 C1671 1.511 . S
C1669 C1665 1.376 . S
C1669 C1668 1.392 . S
C1669 H1681 0.929 . S
C1670 C1666 1.531 . S
C1670 H1682 0.960 . S
C1670 H1683 0.962 . S
C1670 H1684 0.960 . S
C1671 C1668 1.511 . S
C1671 H1685 0.961 . S
C1671 H1686 0.961 . S
C1671 H1687 0.961 . S
C1672 C1673 1.370 . S
C1672 C1674 1.363 . S
C1672 H1688 0.931 . S
C1673 C1672 1.370 . S
C1673 C1677 1.408 . S
C1674 C1672 1.363 . S
C1674 C1675 1.370 1_554 S
C1674 C1678 1.524 1_554 S
C1675 C1667 1.503 . S
C1675 C1674 1.370 1_556 S
C1675 C1676 1.403 1_556 S
C1676 C1675 1.403 1_554 S
C1676 C1677 1.404 . S
C1676 C1679 1.521 1_554 S
C1677 C1673 1.408 . S
C1677 C1676 1.404 . S
C1677 H1689 0.930 . S
C1678 C1674 1.524 1_556 S
C1678 H1690 0.956 . S
C1678 H1691 0.961 . S
C1678 H1692 0.961 1_556 S
C1679 C1676 1.521 1_556 S
C1679 H1693 0.965 . S
C1679 H1694 0.937 1_556 S
C1679 H1695 0.998 . S
H1680 C1664 0.931 . S
H1681 C1669 0.929 . S
H1682 C1670 0.960 . S
H1683 C1670 0.962 . S
H1684 C1670 0.960 . S
H1685 C1671 0.961 . S
H1686 C1671 0.961 . S
H1687 C1671 0.961 . S
H1688 C1672 0.931 . S
H1689 C1677 0.930 . S
H1690 C1678 0.956 . S
H1691 C1678 0.961 . S
H1692 C1678 0.961 1_554 S
H1693 C1679 0.965 . S
H1694 C1679 0.937 1_554 S
H1695 C1679 0.998 . S
C1696 C1697 1.391 . S
C1696 C1698 1.394 . S
C1696 H1712 0.931 . S
C1697 C1696 1.391 . S
C1697 C1701 1.376 . S
C1698 C1696 1.394 . S
C1698 C1699 1.369 . S
C1698 C1702 1.531 . S
C1699 C1698 1.369 . S
C1699 C1700 1.410 . S
C1699 C1707 1.503 . S
C1700 C1699 1.410 . S
C1700 C1701 1.392 . S
C1700 C1703 1.511 . S
C1701 C1697 1.376 . S
C1701 C1700 1.392 . S
C1701 H1713 0.929 . S
C1702 C1698 1.531 . S
C1702 H1714 0.960 . S
C1702 H1715 0.962 . S
C1702 H1716 0.960 . S
C1703 C1700 1.511 . S
C1703 H1717 0.961 . S
C1703 H1718 0.961 . S
C1703 H1719 0.961 . S
C1704 C1705 1.370 . S
C1704 C1706 1.363 . S
C1704 H1720 0.931 . S
C1705 C1704 1.370 . S
C1705 C1709 1.408 . S
C1706 C1704 1.363 . S
C1706 C1707 1.370 . S
C1706 C1710 1.524 . S
C1707 C1699 1.503 . S
C1707 C1706 1.370 . S
C1707 C1708 1.403 . S
C1708 C1707 1.403 . S
C1708 C1709 1.404 . S
C1708 C1711 1.539 . S
C1709 C1705 1.408 . S
C1709 C1708 1.404 . S
C1709 H1721 0.930 . S
C1710 C1706 1.524 . S
C1710 H1722 0.956 . S
C1710 H1723 0.961 . S
C1710 H1724 0.961 . S
C1711 C1708 1.539 . S
C1711 H1725 0.958 . S
C1711 H1726 0.961 . S
C1711 H1727 0.960 . S
H1712 C1696 0.931 . S
H1713 C1701 0.929 . S
H1714 C1702 0.960 . S
H1715 C1702 0.962 . S
H1716 C1702 0.960 . S
H1717 C1703 0.961 . S
H1718 C1703 0.961 . S
H1719 C1703 0.961 . S
H1720 C1704 0.931 . S
H1721 C1709 0.930 . S
H1722 C1710 0.956 . S
H1723 C1710 0.961 . S
H1724 C1710 0.961 . S
H1725 C1711 0.958 . S
H1726 C1711 0.961 . S
H1727 C1711 0.960 . S
C1728 C1729 1.391 . S
C1728 C1730 1.394 . S
C1728 H1744 0.931 . S
C1729 C1728 1.391 . S
C1729 C1733 1.376 . S
C1730 C1728 1.394 . S
C1730 C1731 1.369 . S
C1730 C1734 1.531 . S
C1731 C1730 1.369 . S
C1731 C1732 1.410 . S
C1731 C1739 1.503 1_565 S
C1732 C1731 1.410 . S
C1732 C1733 1.392 . S
C1732 C1735 1.511 . S
C1733 C1729 1.376 . S
C1733 C1732 1.392 . S
C1733 H1745 0.929 . S
C1734 C1730 1.531 . S
C1734 H1746 0.960 1_565 S
C1734 H1747 0.962 . S
C1734 H1748 0.960 . S
C1735 C1732 1.511 . S
C1735 H1749 0.961 . S
C1735 H1750 0.961 . S
C1735 H1751 0.961 . S
C1736 C1737 1.370 . S
C1736 C1738 1.363 . S
C1736 H1752 0.931 . S
C1737 C1736 1.370 . S
C1737 C1741 1.408 . S
C1738 C1736 1.363 . S
C1738 C1739 1.370 . S
C1738 C1742 1.524 . S
C1739 C1731 1.503 1_545 S
C1739 C1738 1.370 . S
C1739 C1740 1.403 . S
C1740 C1739 1.403 . S
C1740 C1741 1.404 . S
C1740 C1743 1.539 . S
C1741 C1737 1.408 . S
C1741 C1740 1.404 . S
C1741 H1753 0.930 . S
C1742 C1738 1.524 . S
C1742 H1754 0.955 1_545 S
C1742 H1755 0.961 1_545 S
C1742 H1756 0.961 . S
C1743 C1740 1.539 . S
C1743 H1757 0.958 . S
C1743 H1758 0.961 . S
C1743 H1759 0.960 1_545 S
H1744 C1728 0.931 . S
H1745 C1733 0.929 . S
H1746 C1734 0.960 1_545 S
H1747 C1734 0.962 . S
H1748 C1734 0.960 . S
H1749 C1735 0.961 . S
H1750 C1735 0.961 . S
H1751 C1735 0.961 . S
H1752 C1736 0.931 . S
H1753 C1741 0.930 . S
H1754 C1742 0.955 1_565 S
H1755 C1742 0.961 1_565 S
H1756 C1742 0.961 . S
H1757 C1743 0.958 . S
H1758 C1743 0.961 . S
H1759 C1743 0.960 1_565 S
C1760 C1761 1.391 . S
C1760 C1762 1.394 . S
C1760 H1776 0.931 . S
C1761 C1760 1.391 . S
C1761 C1765 1.376 . S
C1762 C1760 1.394 . S
C1762 C1763 1.369 . S
C1762 C1766 1.531 . S
C1763 C1762 1.369 . S
C1763 C1764 1.410 . S
C1763 C1771 1.503 . S
C1764 C1763 1.410 . S
C1764 C1765 1.392 . S
C1764 C1767 1.511 . S
C1765 C1761 1.376 . S
C1765 C1764 1.392 . S
C1765 H1777 0.929 . S
C1766 C1762 1.531 . S
C1766 H1778 0.960 . S
C1766 H1779 0.962 . S
C1766 H1780 0.960 . S
C1767 C1764 1.511 . S
C1767 H1781 0.961 . S
C1767 H1782 0.961 . S
C1767 H1783 0.961 . S
C1768 C1769 1.370 . S
C1768 C1770 1.363 . S
C1768 H1784 0.931 . S
C1769 C1768 1.370 . S
C1769 C1773 1.408 . S
C1770 C1768 1.363 . S
C1770 C1771 1.370 . S
C1770 C1774 1.524 . S
C1771 C1763 1.503 . S
C1771 C1770 1.370 . S
C1771 C1772 1.403 . S
C1772 C1771 1.403 . S
C1772 C1773 1.404 . S
C1772 C1775 1.539 . S
C1773 C1769 1.408 . S
C1773 C1772 1.404 . S
C1773 H1785 0.930 . S
C1774 C1770 1.524 . S
C1774 H1786 0.956 . S
C1774 H1787 0.961 . S
C1774 H1788 0.961 . S
C1775 C1772 1.539 . S
C1775 H1789 0.958 . S
C1775 H1790 0.961 . S
C1775 H1791 0.960 . S
H1776 C1760 0.931 . S
H1777 C1765 0.929 . S
H1778 C1766 0.960 . S
H1779 C1766 0.962 . S
H1780 C1766 0.960 . S
H1781 C1767 0.961 . S
H1782 C1767 0.961 . S
H1783 C1767 0.961 . S
H1784 C1768 0.931 . S
H1785 C1773 0.930 . S
H1786 C1774 0.956 . S
H1787 C1774 0.961 . S
H1788 C1774 0.961 . S
H1789 C1775 0.958 . S
H1790 C1775 0.961 . S
H1791 C1775 0.960 . S
C1792 C1793 1.391 . S
C1792 C1794 1.394 . S
C1792 H1808 0.931 . S
C1793 C1792 1.391 . S
C1793 C1797 1.376 . S
C1794 C1792 1.394 . S
C1794 C1795 1.369 . S
C1794 C1798 1.531 . S
C1795 C1794 1.369 . S
C1795 C1796 1.410 . S
C1795 C1803 1.503 1_545 S
C1796 C1795 1.410 . S
C1796 C1797 1.392 . S
C1796 C1799 1.511 . S
C1797 C1793 1.376 . S
C1797 C1796 1.392 . S
C1797 H1809 0.929 . S
C1798 C1794 1.531 . S
C1798 H1810 0.960 1_545 S
C1798 H1811 0.962 . S
C1798 H1812 0.960 . S
C1799 C1796 1.511 . S
C1799 H1813 0.961 . S
C1799 H1814 0.961 1_545 S
C1799 H1815 0.961 . S
C1800 C1801 1.370 . S
C1800 C1802 1.363 . S
C1800 H1816 0.931 . S
C1801 C1800 1.370 . S
C1801 C1805 1.408 . S
C1802 C1800 1.363 . S
C1802 C1803 1.370 . S
C1802 C1806 1.524 . S
C1803 C1795 1.503 1_565 S
C1803 C1802 1.370 . S
C1803 C1804 1.403 . S
C1804 C1803 1.403 . S
C1804 C1805 1.404 . S
C1804 C1807 1.539 . S
C1805 C1801 1.408 . S
C1805 C1804 1.404 . S
C1805 H1817 0.930 . S
C1806 C1802 1.524 . S
C1806 H1818 0.956 1_565 S
C1806 H1819 0.961 1_565 S
C1806 H1820 0.961 . S
C1807 C1804 1.539 . S
C1807 H1821 0.958 . S
C1807 H1822 0.961 . S
C1807 H1823 0.960 . S
H1808 C1792 0.931 . S
H1809 C1797 0.929 . S
H1810 C1798 0.960 1_565 S
H1811 C1798 0.962 . S
H1812 C1798 0.960 . S
H1813 C1799 0.961 . S
H1814 C1799 0.961 1_565 S
H1815 C1799 0.961 . S
H1816 C1800 0.931 . S
H1817 C1805 0.930 . S
H1818 C1806 0.956 1_545 S
H1819 C1806 0.961 1_545 S
H1820 C1806 0.961 . S
H1821 C1807 0.958 . S
H1822 C1807 0.961 . S
H1823 C1807 0.960 . S
C1824 C1825 1.391 . S
C1824 C1826 1.394 . S
C1824 H1840 0.931 . S
C1825 C1824 1.391 . S
C1825 C1829 1.376 . S
C1826 C1824 1.394 . S
C1826 C1827 1.369 . S
C1826 C1830 1.531 . S
C1827 C1826 1.369 . S
C1827 C1828 1.410 . S
C1827 C1835 1.503 . S
C1828 C1827 1.410 . S
C1828 C1829 1.392 . S
C1828 C1831 1.511 . S
C1829 C1825 1.376 . S
C1829 C1828 1.392 . S
C1829 H1841 0.929 . S
C1830 C1826 1.531 . S
C1830 H1842 0.960 . S
C1830 H1843 0.962 . S
C1830 H1844 0.960 . S
C1831 C1828 1.511 . S
C1831 H1845 0.961 . S
C1831 H1846 0.961 . S
C1831 H1847 0.961 . S
C1832 C1833 1.370 . S
C1832 C1834 1.363 . S
C1832 H1848 0.931 . S
C1833 C1832 1.370 . S
C1833 C1837 1.408 . S
C1834 C1832 1.363 . S
C1834 C1835 1.370 . S
C1834 C1838 1.524 . S
C1835 C1827 1.503 . S
C1835 C1834 1.370 . S
C1835 C1836 1.403 . S
C1836 C1835 1.403 . S
C1836 C1837 1.404 . S
C1836 C1839 1.539 . S
C1837 C1833 1.408 . S
C1837 C1836 1.404 . S
C1837 H1849 0.930 . S
C1838 C1834 1.524 . S
C1838 H1850 0.956 . S
C1838 H1851 0.961 . S
C1838 H1852 0.961 . S
C1839 C1836 1.539 . S
C1839 H1853 0.958 . S
C1839 H1854 0.961 . S
C1839 H1855 0.960 . S
H1840 C1824 0.931 . S
H1841 C1829 0.929 . S
H1842 C1830 0.960 . S
H1843 C1830 0.962 . S
H1844 C1830 0.960 . S
H1845 C1831 0.961 . S
H1846 C1831 0.961 . S
H1847 C1831 0.961 . S
H1848 C1832 0.931 . S
H1849 C1837 0.930 . S
H1850 C1838 0.956 . S
H1851 C1838 0.961 . S
H1852 C1838 0.961 . S
H1853 C1839 0.958 . S
H1854 C1839 0.961 . S
H1855 C1839 0.960 . S
C1856 C1857 1.391 . S
C1856 C1858 1.394 . S
C1856 H1872 0.931 . S
C1857 C1856 1.391 . S
C1857 C1861 1.376 . S
C1858 C1856 1.394 . S
C1858 C1859 1.369 1_565 S
C1858 C1862 1.543 . S
C1859 C1858 1.369 1_545 S
C1859 C1860 1.410 1_545 S
C1859 C1867 1.503 . S
C1860 C1859 1.410 1_565 S
C1860 C1861 1.392 . S
C1860 C1863 1.511 1_565 S
C1861 C1857 1.376 . S
C1861 C1860 1.392 . S
C1861 H1873 0.929 . S
C1862 C1858 1.543 . S
C1862 H1874 0.938 1_565 S
C1862 H1875 0.956 1_565 S
C1862 H1876 0.977 . S
C1863 C1860 1.511 1_545 S
C1863 H1877 0.961 . S
C1863 H1878 0.961 . S
C1863 H1879 0.961 . S
C1864 C1865 1.370 . S
C1864 C1866 1.363 . S
C1864 H1880 0.931 . S
C1865 C1864 1.370 . S
C1865 C1869 1.408 . S
C1866 C1864 1.363 . S
C1866 C1867 1.370 . S
C1866 C1870 1.524 . S
C1867 C1859 1.503 . S
C1867 C1866 1.370 . S
C1867 C1868 1.403 . S
C1868 C1867 1.403 . S
C1868 C1869 1.404 . S
C1868 C1871 1.539 . S
C1869 C1865 1.408 . S
C1869 C1868 1.404 . S
C1869 H1881 0.930 . S
C1870 C1866 1.524 . S
C1870 H1882 0.956 . S
C1870 H1883 0.961 . S
C1870 H1884 0.961 . S
C1871 C1868 1.539 . S
C1871 H1885 0.958 . S
C1871 H1886 0.961 . S
C1871 H1887 0.960 . S
H1872 C1856 0.931 . S
H1873 C1861 0.929 . S
H1874 C1862 0.938 1_545 S
H1875 C1862 0.956 1_545 S
H1876 C1862 0.977 . S
H1877 C1863 0.961 . S
H1878 C1863 0.961 . S
H1879 C1863 0.961 . S
H1880 C1864 0.931 . S
H1881 C1869 0.930 . S
H1882 C1870 0.956 . S
H1883 C1870 0.961 . S
H1884 C1870 0.961 . S
H1885 C1871 0.958 . S
H1886 C1871 0.961 . S
H1887 C1871 0.960 . S
C1888 C1889 1.391 . S
C1888 C1890 1.394 . S
C1888 H1904 0.931 . S
C1889 C1888 1.391 . S
C1889 C1893 1.376 . S
C1890 C1888 1.394 . S
C1890 C1891 1.369 . S
C1890 C1894 1.531 . S
C1891 C1890 1.369 . S
C1891 C1892 1.410 . S
C1891 C1899 1.503 . S
C1892 C1891 1.410 . S
C1892 C1893 1.392 . S
C1892 C1895 1.511 . S
C1893 C1889 1.376 . S
C1893 C1892 1.392 . S
C1893 H1905 0.929 . S
C1894 C1890 1.531 . S
C1894 H1906 0.960 . S
C1894 H1907 0.962 . S
C1894 H1908 0.960 . S
C1895 C1892 1.511 . S
C1895 H1909 0.961 . S
C1895 H1910 0.961 . S
C1895 H1911 0.961 . S
C1896 C1897 1.370 . S
C1896 C1898 1.363 . S
C1896 H1912 0.931 . S
C1897 C1896 1.370 . S
C1897 C1901 1.408 . S
C1898 C1896 1.363 . S
C1898 C1899 1.370 . S
C1898 C1902 1.524 . S
C1899 C1891 1.503 . S
C1899 C1898 1.370 . S
C1899 C1900 1.403 . S
C1900 C1899 1.403 . S
C1900 C1901 1.404 . S
C1900 C1903 1.539 . S
C1901 C1897 1.408 . S
C1901 C1900 1.404 . S
C1901 H1913 0.930 . S
C1902 C1898 1.524 . S
C1902 H1914 0.956 . S
C1902 H1915 0.961 . S
C1902 H1916 0.961 . S
C1903 C1900 1.539 . S
C1903 H1917 0.958 . S
C1903 H1918 0.961 . S
C1903 H1919 0.960 . S
H1904 C1888 0.931 . S
H1905 C1893 0.929 . S
H1906 C1894 0.960 . S
H1907 C1894 0.962 . S
H1908 C1894 0.960 . S
H1909 C1895 0.961 . S
H1910 C1895 0.961 . S
H1911 C1895 0.961 . S
H1912 C1896 0.931 . S
H1913 C1901 0.930 . S
H1914 C1902 0.956 . S
H1915 C1902 0.961 . S
H1916 C1902 0.961 . S
H1917 C1903 0.958 . S
H1918 C1903 0.961 . S
H1919 C1903 0.960 . S
C1920 C1921 1.391 . S
C1920 C1922 1.394 . S
C1920 H1936 0.931 . S
C1921 C1920 1.391 . S
C1921 C1925 1.376 . S
C1922 C1920 1.394 . S
C1922 C1923 1.369 . S
C1922 C1926 1.531 . S
C1923 C1922 1.369 . S
C1923 C1924 1.410 . S
C1923 C1931 1.503 1_565 S
C1924 C1923 1.410 . S
C1924 C1925 1.392 . S
C1924 C1927 1.511 . S
C1925 C1921 1.376 . S
C1925 C1924 1.392 . S
C1925 H1937 0.929 . S
C1926 C1922 1.531 . S
C1926 H1938 0.960 . S
C1926 H1939 0.962 . S
C1926 H1940 0.960 . S
C1927 C1924 1.511 . S
C1927 H1941 0.961 . S
C1927 H1942 0.961 . S
C1927 H1943 0.961 . S
C1928 C1929 1.370 . S
C1928 C1930 1.363 . S
C1928 H1944 0.931 . S
C1929 C1928 1.370 . S
C1929 C1933 1.408 . S
C1930 C1928 1.363 . S
C1930 C1931 1.370 . S
C1930 C1934 1.524 1_545 S
C1931 C1923 1.503 1_545 S
C1931 C1930 1.370 . S
C1931 C1932 1.403 . S
C1932 C1931 1.403 . S
C1932 C1933 1.404 . S
C1932 C1935 1.539 . S
C1933 C1929 1.408 . S
C1933 C1932 1.404 . S
C1933 H1945 0.930 . S
C1934 C1930 1.524 1_565 S
C1934 H1946 0.956 . S
C1934 H1947 0.961 . S
C1934 H1948 0.961 1_565 S
C1935 C1932 1.539 . S
C1935 H1949 0.958 . S
C1935 H1950 0.961 . S
C1935 H1951 0.960 1_545 S
H1936 C1920 0.931 . S
H1937 C1925 0.929 . S
H1938 C1926 0.960 . S
H1939 C1926 0.962 . S
H1940 C1926 0.960 . S
H1941 C1927 0.961 . S
H1942 C1927 0.961 . S
H1943 C1927 0.961 . S
H1944 C1928 0.931 . S
H1945 C1933 0.930 . S
H1946 C1934 0.956 . S
H1947 C1934 0.961 . S
H1948 C1934 0.961 1_545 S
H1949 C1935 0.958 . S
H1950 C1935 0.961 . S
H1951 C1935 0.960 1_565 S
C1952 C1953 1.391 . S
C1952 C1954 1.394 . S
C1952 H1968 0.931 . S
C1953 C1952 1.391 . S
C1953 C1957 1.376 . S
C1954 C1952 1.394 . S
C1954 C1955 1.369 . S
C1954 C1958 1.531 . S
C1955 C1954 1.369 . S
C1955 C1956 1.410 . S
C1955 C1963 1.503 . S
C1956 C1955 1.410 . S
C1956 C1957 1.392 . S
C1956 C1959 1.511 . S
C1957 C1953 1.376 . S
C1957 C1956 1.392 . S
C1957 H1969 0.929 . S
C1958 C1954 1.531 . S
C1958 H1970 0.960 . S
C1958 H1971 0.962 . S
C1958 H1972 0.960 . S
C1959 C1956 1.511 . S
C1959 H1973 0.961 . S
C1959 H1974 0.961 . S
C1959 H1975 0.961 . S
C1960 C1961 1.370 . S
C1960 C1962 1.363 . S
C1960 H1976 0.931 . S
C1961 C1960 1.370 . S
C1961 C1965 1.408 . S
C1962 C1960 1.363 . S
C1962 C1963 1.370 . S
C1962 C1966 1.524 . S
C1963 C1955 1.503 . S
C1963 C1962 1.370 . S
C1963 C1964 1.403 . S
C1964 C1963 1.403 . S
C1964 C1965 1.404 . S
C1964 C1967 1.539 . S
C1965 C1961 1.408 . S
C1965 C1964 1.404 . S
C1965 H1977 0.930 . S
C1966 C1962 1.524 . S
C1966 H1978 0.956 . S
C1966 H1979 0.961 . S
C1966 H1980 0.961 . S
C1967 C1964 1.539 . S
C1967 H1981 0.958 . S
C1967 H1982 0.961 . S
C1967 H1983 0.960 . S
H1968 C1952 0.931 . S
H1969 C1957 0.929 . S
H1970 C1958 0.960 . S
H1971 C1958 0.962 . S
H1972 C1958 0.960 . S
H1973 C1959 0.961 . S
H1974 C1959 0.961 . S
H1975 C1959 0.961 . S
H1976 C1960 0.931 . S
H1977 C1965 0.930 . S
H1978 C1966 0.956 . S
H1979 C1966 0.961 . S
H1980 C1966 0.961 . S
H1981 C1967 0.958 . S
H1982 C1967 0.961 . S
H1983 C1967 0.960 . S
C1984 C1985 1.391 . S
C1984 C1986 1.394 . S
C1984 H2000 0.931 . S
C1985 C1984 1.391 . S
C1985 C1989 1.376 . S
C1986 C1984 1.394 . S
C1986 C1987 1.369 . S
C1986 C1990 1.531 . S
C1987 C1986 1.369 . S
C1987 C1988 1.410 . S
C1987 C1995 1.503 . S
C1988 C1987 1.410 . S
C1988 C1989 1.392 . S
C1988 C1991 1.511 . S
C1989 C1985 1.376 . S
C1989 C1988 1.392 . S
C1989 H2001 0.929 . S
C1990 C1986 1.531 . S
C1990 H2002 0.960 . S
C1990 H2003 0.962 . S
C1990 H2004 0.960 . S
C1991 C1988 1.511 . S
C1991 H2005 0.961 . S
C1991 H2006 0.961 . S
C1991 H2007 0.961 . S
C1992 C1993 1.370 . S
C1992 C1994 1.363 . S
C1992 H2008 0.931 . S
C1993 C1992 1.370 . S
C1993 C1997 1.408 . S
C1994 C1992 1.363 . S
C1994 C1995 1.370 . S
C1994 C1998 1.524 . S
C1995 C1987 1.503 . S
C1995 C1994 1.370 . S
C1995 C1996 1.403 . S
C1996 C1995 1.403 . S
C1996 C1997 1.404 . S
C1996 C1999 1.539 . S
C1997 C1993 1.408 . S
C1997 C1996 1.404 . S
C1997 H2009 0.930 . S
C1998 C1994 1.524 . S
C1998 H2010 0.956 . S
C1998 H2011 0.961 . S
C1998 H2012 0.961 . S
C1999 C1996 1.539 . S
C1999 H2013 0.958 . S
C1999 H2014 0.961 . S
C1999 H2015 0.960 . S
H2000 C1984 0.931 . S
H2001 C1989 0.929 . S
H2002 C1990 0.960 . S
H2003 C1990 0.962 . S
H2004 C1990 0.960 . S
H2005 C1991 0.961 . S
H2006 C1991 0.961 . S
H2007 C1991 0.961 . S
H2008 C1992 0.931 . S
H2009 C1997 0.930 . S
H2010 C1998 0.956 . S
H2011 C1998 0.961 . S
H2012 C1998 0.961 . S
H2013 C1999 0.958 . S
H2014 C1999 0.961 . S
H2015 C1999 0.960 . S
C2016 C2017 1.391 . S
C2016 C2018 1.394 . S
C2016 H2032 0.931 . S
C2017 C2016 1.391 . S
C2017 C2021 1.376 . S
C2018 C2016 1.394 . S
C2018 C2019 1.369 . S
C2018 C2022 1.531 . S
C2019 C2018 1.369 . S
C2019 C2020 1.410 . S
C2019 C2027 1.503 . S
C2020 C2019 1.410 . S
C2020 C2021 1.392 . S
C2020 C2023 1.511 . S
C2021 C2017 1.376 . S
C2021 C2020 1.392 . S
C2021 H2033 0.929 . S
C2022 C2018 1.531 . S
C2022 H2034 0.960 . S
C2022 H2035 0.962 . S
C2022 H2036 0.960 . S
C2023 C2020 1.511 . S
C2023 H2037 0.961 . S
C2023 H2038 0.961 . S
C2023 H2039 0.961 . S
C2024 C2025 1.370 . S
C2024 C2026 1.363 1_655 S
C2024 H2040 0.931 . S
C2025 C2024 1.370 . S
C2025 C2029 1.408 . S
C2026 C2024 1.363 1_455 S
C2026 C2027 1.370 . S
C2026 C2030 1.524 . S
C2027 C2019 1.503 . S
C2027 C2026 1.370 . S
C2027 C2028 1.403 . S
C2028 C2027 1.403 . S
C2028 C2029 1.404 1_455 S
C2028 C2031 1.539 . S
C2029 C2025 1.408 . S
C2029 C2028 1.404 1_655 S
C2029 H2041 0.930 . S
C2030 C2026 1.524 . S
C2030 H2042 0.956 . S
C2030 H2043 0.961 . S
C2030 H2044 0.961 . S
C2031 C2028 1.539 . S
C2031 H2045 0.958 . S
C2031 H2046 0.961 . S
C2031 H2047 0.960 . S
H2032 C2016 0.931 . S
H2033 C2021 0.929 . S
H2034 C2022 0.960 . S
H2035 C2022 0.962 . S
H2036 C2022 0.960 . S
H2037 C2023 0.961 . S
H2038 C2023 0.961 . S
H2039 C2023 0.961 . S
H2040 C2024 0.931 . S
H2041 C2029 0.930 . S
H2042 C2030 0.956 . S
H2043 C2030 0.961 . S
H2044 C2030 0.961 . S
H2045 C2031 0.958 . S
H2046 C2031 0.961 . S
H2047 C2031 0.960 . S
C2048 C2049 1.391 . S
C2048 C2050 1.394 . S
C2048 H2064 0.931 . S
C2049 C2048 1.391 . S
C2049 C2053 1.376 . S
C2050 C2048 1.394 . S
C2050 C2051 1.369 . S
C2050 C2054 1.531 . S
C2051 C2050 1.369 . S
C2051 C2052 1.410 . S
C2051 C2059 1.503 . S
C2052 C2051 1.410 . S
C2052 C2053 1.392 . S
C2052 C2055 1.511 . S
C2053 C2049 1.376 . S
C2053 C2052 1.392 . S
C2053 H2065 0.929 . S
C2054 C2050 1.531 . S
C2054 H2066 0.960 . S
C2054 H2067 0.962 . S
C2054 H2068 0.960 . S
C2055 C2052 1.511 . S
C2055 H2069 0.961 . S
C2055 H2070 0.961 . S
C2055 H2071 0.961 . S
C2056 C2057 1.370 . S
C2056 C2058 1.363 . S
C2056 H2072 0.931 . S
C2057 C2056 1.370 . S
C2057 C2061 1.408 . S
C2058 C2056 1.363 . S
C2058 C2059 1.370 . S
C2058 C2062 1.524 . S
C2059 C2051 1.503 . S
C2059 C2058 1.370 . S
C2059 C2060 1.403 . S
C2060 C2059 1.403 . S
C2060 C2061 1.404 . S
C2060 C2063 1.539 . S
C2061 C2057 1.408 . S
C2061 C2060 1.404 . S
C2061 H2073 0.930 . S
C2062 C2058 1.524 . S
C2062 H2074 0.956 . S
C2062 H2075 0.961 . S
C2062 H2076 0.961 . S
C2063 C2060 1.539 . S
C2063 H2077 0.958 . S
C2063 H2078 0.961 . S
C2063 H2079 0.960 . S
H2064 C2048 0.931 . S
H2065 C2053 0.929 . S
H2066 C2054 0.960 . S
H2067 C2054 0.962 . S
H2068 C2054 0.960 . S
H2069 C2055 0.961 . S
H2070 C2055 0.961 . S
H2071 C2055 0.961 . S
H2072 C2056 0.931 . S
H2073 C2061 0.930 . S
H2074 C2062 0.956 . S
H2075 C2062 0.961 . S
H2076 C2062 0.961 . S
H2077 C2063 0.958 . S
H2078 C2063 0.961 . S
H2079 C2063 0.960 . S
C2080 C2081 1.391 . S
C2080 C2082 1.394 1_455 S
C2080 H2096 0.931 . S
C2081 C2080 1.391 . S
C2081 C2085 1.376 . S
C2082 C2080 1.394 1_655 S
C2082 C2083 1.369 . S
C2082 C2086 1.531 . S
C2083 C2082 1.369 . S
C2083 C2084 1.410 . S
C2083 C2091 1.503 . S
C2084 C2083 1.410 . S
C2084 C2085 1.392 1_655 S
C2084 C2087 1.511 . S
C2085 C2081 1.376 . S
C2085 C2084 1.392 1_455 S
C2085 H2097 0.929 . S
C2086 C2082 1.531 . S
C2086 H2098 0.960 . S
C2086 H2099 0.962 . S
C2086 H2100 0.960 . S
C2087 C2084 1.511 . S
C2087 H2101 0.961 . S
C2087 H2102 0.961 . S
C2087 H2103 0.961 . S
C2088 C2089 1.370 . S
C2088 C2090 1.363 . S
C2088 H2104 0.931 . S
C2089 C2088 1.370 . S
C2089 C2093 1.408 . S
C2090 C2088 1.363 . S
C2090 C2091 1.370 . S
C2090 C2094 1.524 . S
C2091 C2083 1.503 . S
C2091 C2090 1.370 . S
C2091 C2092 1.403 . S
C2092 C2091 1.403 . S
C2092 C2093 1.404 . S
C2092 C2095 1.539 . S
C2093 C2089 1.408 . S
C2093 C2092 1.404 . S
C2093 H2105 0.930 . S
C2094 C2090 1.524 . S
C2094 H2106 0.956 . S
C2094 H2107 0.961 . S
C2094 H2108 0.961 . S
C2095 C2092 1.539 . S
C2095 H2109 0.958 . S
C2095 H2110 0.961 . S
C2095 H2111 0.960 . S
H2096 C2080 0.931 . S
H2097 C2085 0.929 . S
H2098 C2086 0.960 . S
H2099 C2086 0.962 . S
H2100 C2086 0.960 . S
H2101 C2087 0.961 . S
H2102 C2087 0.961 . S
H2103 C2087 0.961 . S
H2104 C2088 0.931 . S
H2105 C2093 0.930 . S
H2106 C2094 0.956 . S
H2107 C2094 0.961 . S
H2108 C2094 0.961 . S
H2109 C2095 0.958 . S
H2110 C2095 0.961 . S
H2111 C2095 0.960 . S
C2112 C2113 1.391 . S
C2112 C2114 1.394 . S
C2112 H2128 0.931 . S
C2113 C2112 1.391 . S
C2113 C2117 1.376 . S
C2114 C2112 1.394 . S
C2114 C2115 1.369 . S
C2114 C2118 1.531 . S
C2115 C2114 1.369 . S
C2115 C2116 1.410 . S
C2115 C2123 1.503 . S
C2116 C2115 1.410 . S
C2116 C2117 1.392 . S
C2116 C2119 1.511 . S
C2117 C2113 1.376 . S
C2117 C2116 1.392 . S
C2117 H2129 0.929 . S
C2118 C2114 1.531 . S
C2118 H2130 0.960 . S
C2118 H2131 0.962 . S
C2118 H2132 0.960 . S
C2119 C2116 1.511 . S
C2119 H2133 0.961 . S
C2119 H2134 0.961 . S
C2119 H2135 0.961 . S
C2120 C2121 1.370 . S
C2120 C2122 1.363 . S
C2120 H2136 0.931 . S
C2121 C2120 1.370 . S
C2121 C2125 1.408 . S
C2122 C2120 1.363 . S
C2122 C2123 1.370 . S
C2122 C2126 1.524 . S
C2123 C2115 1.503 . S
C2123 C2122 1.370 . S
C2123 C2124 1.403 . S
C2124 C2123 1.403 . S
C2124 C2125 1.404 . S
C2124 C2127 1.539 . S
C2125 C2121 1.408 . S
C2125 C2124 1.404 . S
C2125 H2137 0.930 . S
C2126 C2122 1.524 . S
C2126 H2138 0.956 . S
C2126 H2139 0.961 . S
C2126 H2140 0.961 . S
C2127 C2124 1.539 . S
C2127 H2141 0.958 . S
C2127 H2142 0.961 . S
C2127 H2143 0.960 . S
H2128 C2112 0.931 . S
H2129 C2117 0.929 . S
H2130 C2118 0.960 . S
H2131 C2118 0.962 . S
H2132 C2118 0.960 . S
H2133 C2119 0.961 . S
H2134 C2119 0.961 . S
H2135 C2119 0.961 . S
H2136 C2120 0.931 . S
H2137 C2125 0.930 . S
H2138 C2126 0.956 . S
H2139 C2126 0.961 . S
H2140 C2126 0.961 . S
H2141 C2127 0.958 . S
H2142 C2127 0.961 . S
H2143 C2127 0.960 . S
C2144 C2145 1.391 . S
C2144 C2146 1.394 . S
C2144 H2160 0.931 . S
C2145 C2144 1.391 . S
C2145 C2149 1.376 . S
C2146 C2144 1.394 . S
C2146 C2147 1.369 . S
C2146 C2150 1.531 . S
C2147 C2146 1.369 . S
C2147 C2148 1.410 . S
C2147 C2155 1.503 1_655 S
C2148 C2147 1.410 . S
C2148 C2149 1.392 . S
C2148 C2151 1.511 . S
C2149 C2145 1.376 . S
C2149 C2148 1.392 . S
C2149 H2161 0.929 . S
C2150 C2146 1.531 . S
C2150 H2162 0.960 . S
C2150 H2163 0.962 . S
C2150 H2164 0.960 . S
C2151 C2148 1.511 . S
C2151 H2165 0.961 . S
C2151 H2166 0.961 . S
C2151 H2167 0.961 . S
C2152 C2153 1.370 . S
C2152 C2154 1.363 . S
C2152 H2168 0.931 . S
C2153 C2152 1.370 . S
C2153 C2157 1.408 . S
C2154 C2152 1.363 . S
C2154 C2155 1.370 . S
C2154 C2158 1.524 . S
C2155 C2147 1.503 1_455 S
C2155 C2154 1.370 . S
C2155 C2156 1.403 . S
C2156 C2155 1.403 . S
C2156 C2157 1.404 . S
C2156 C2159 1.545 . S
C2157 C2153 1.408 . S
C2157 C2156 1.404 . S
C2157 H2169 0.930 . S
C2158 C2154 1.524 . S
C2158 H2170 0.956 1_455 S
C2158 H2171 0.961 1_455 S
C2158 H2172 0.961 . S
C2159 C2156 1.545 . S
C2159 H2173 0.960 1_455 S
C2159 H2174 0.968 . S
C2159 H2175 0.947 1_455 S
H2160 C2144 0.931 . S
H2161 C2149 0.929 . S
H2162 C2150 0.960 . S
H2163 C2150 0.962 . S
H2164 C2150 0.960 . S
H2165 C2151 0.961 . S
H2166 C2151 0.961 . S
H2167 C2151 0.961 . S
H2168 C2152 0.931 . S
H2169 C2157 0.930 . S
H2170 C2158 0.956 1_655 S
H2171 C2158 0.961 1_655 S
H2172 C2158 0.961 . S
H2173 C2159 0.960 1_655 S
H2174 C2159 0.968 . S
H2175 C2159 0.947 1_655 S
C2176 C2177 1.391 . S
C2176 C2178 1.394 . S
C2176 H2192 0.931 . S
C2177 C2176 1.391 . S
C2177 C2181 1.376 . S
C2178 C2176 1.394 . S
C2178 C2179 1.369 . S
C2178 C2182 1.531 . S
C2179 C2178 1.369 . S
C2179 C2180 1.410 . S
C2179 C2187 1.503 . S
C2180 C2179 1.410 . S
C2180 C2181 1.392 . S
C2180 C2183 1.511 . S
C2181 C2177 1.376 . S
C2181 C2180 1.392 . S
C2181 H2193 0.929 . S
C2182 C2178 1.531 . S
C2182 H2194 0.960 . S
C2182 H2195 0.962 . S
C2182 H2196 0.960 . S
C2183 C2180 1.511 . S
C2183 H2197 0.961 . S
C2183 H2198 0.961 . S
C2183 H2199 0.961 . S
C2184 C2185 1.370 . S
C2184 C2186 1.363 1_655 S
C2184 H2200 0.931 . S
C2185 C2184 1.370 . S
C2185 C2189 1.408 . S
C2186 C2184 1.363 1_455 S
C2186 C2187 1.370 . S
C2186 C2190 1.524 . S
C2187 C2179 1.503 . S
C2187 C2186 1.370 . S
C2187 C2188 1.403 . S
C2188 C2187 1.403 . S
C2188 C2189 1.404 1_455 S
C2188 C2191 1.539 . S
C2189 C2185 1.408 . S
C2189 C2188 1.404 1_655 S
C2189 H2201 0.930 . S
C2190 C2186 1.524 . S
C2190 H2202 0.956 . S
C2190 H2203 0.961 . S
C2190 H2204 0.961 . S
C2191 C2188 1.539 . S
C2191 H2205 0.958 . S
C2191 H2206 0.961 . S
C2191 H2207 0.960 . S
H2192 C2176 0.931 . S
H2193 C2181 0.929 . S
H2194 C2182 0.960 . S
H2195 C2182 0.962 . S
H2196 C2182 0.960 . S
H2197 C2183 0.961 . S
H2198 C2183 0.961 . S
H2199 C2183 0.961 . S
H2200 C2184 0.931 . S
H2201 C2189 0.930 . S
H2202 C2190 0.956 . S
H2203 C2190 0.961 . S
H2204 C2190 0.961 . S
H2205 C2191 0.958 . S
H2206 C2191 0.961 . S
H2207 C2191 0.960 . S
C2208 C2209 1.391 . S
C2208 C2210 1.394 . S
C2208 H2224 0.931 . S
C2209 C2208 1.391 . S
C2209 C2213 1.376 . S
C2210 C2208 1.394 . S
C2210 C2211 1.369 . S
C2210 C2214 1.531 . S
C2211 C2210 1.369 . S
C2211 C2212 1.410 . S
C2211 C2219 1.503 . S
C2212 C2211 1.410 . S
C2212 C2213 1.392 . S
C2212 C2215 1.511 . S
C2213 C2209 1.376 . S
C2213 C2212 1.392 . S
C2213 H2225 0.929 . S
C2214 C2210 1.531 . S
C2214 H2226 0.960 . S
C2214 H2227 0.962 . S
C2214 H2228 0.960 . S
C2215 C2212 1.511 . S
C2215 H2229 0.961 . S
C2215 H2230 0.961 . S
C2215 H2231 0.961 . S
C2216 C2217 1.370 . S
C2216 C2218 1.363 . S
C2216 H2232 0.931 . S
C2217 C2216 1.370 . S
C2217 C2221 1.408 . S
C2218 C2216 1.363 . S
C2218 C2219 1.370 1_455 S
C2218 C2222 1.524 1_455 S
C2219 C2211 1.503 . S
C2219 C2218 1.370 1_655 S
C2219 C2220 1.403 1_655 S
C2220 C2219 1.403 1_455 S
C2220 C2221 1.404 . S
C2220 C2223 1.539 1_455 S
C2221 C2217 1.408 . S
C2221 C2220 1.404 . S
C2221 H2233 0.930 . S
C2222 C2218 1.524 1_655 S
C2222 H2234 0.956 . S
C2222 H2235 0.961 . S
C2222 H2236 0.960 1_655 S
C2223 C2220 1.539 1_655 S
C2223 H2237 0.958 . S
C2223 H2238 0.961 1_655 S
C2223 H2239 0.960 . S
H2224 C2208 0.931 . S
H2225 C2213 0.929 . S
H2226 C2214 0.960 . S
H2227 C2214 0.962 . S
H2228 C2214 0.960 . S
H2229 C2215 0.961 . S
H2230 C2215 0.961 . S
H2231 C2215 0.961 . S
H2232 C2216 0.931 . S
H2233 C2221 0.930 . S
H2234 C2222 0.956 . S
H2235 C2222 0.961 . S
H2236 C2222 0.960 1_455 S
H2237 C2223 0.958 . S
H2238 C2223 0.961 1_455 S
H2239 C2223 0.960 . S
C2240 C2241 1.391 . S
C2240 C2242 1.394 . S
C2240 H2256 0.931 . S
C2241 C2240 1.391 . S
C2241 C2245 1.376 . S
C2242 C2240 1.394 . S
C2242 C2243 1.369 . S
C2242 C2246 1.531 . S
C2243 C2242 1.369 . S
C2243 C2244 1.410 . S
C2243 C2251 1.503 . S
C2244 C2243 1.410 . S
C2244 C2245 1.392 . S
C2244 C2247 1.511 . S
C2245 C2241 1.376 . S
C2245 C2244 1.392 . S
C2245 H2257 0.929 . S
C2246 C2242 1.531 . S
C2246 H2258 0.960 . S
C2246 H2259 0.962 . S
C2246 H2260 0.960 . S
C2247 C2244 1.511 . S
C2247 H2261 0.961 . S
C2247 H2262 0.961 . S
C2247 H2263 0.961 . S
C2248 C2249 1.370 . S
C2248 C2250 1.363 . S
C2248 H2264 0.931 . S
C2249 C2248 1.370 . S
C2249 C2253 1.408 . S
C2250 C2248 1.363 . S
C2250 C2251 1.370 . S
C2250 C2254 1.524 . S
C2251 C2243 1.503 . S
C2251 C2250 1.370 . S
C2251 C2252 1.403 . S
C2252 C2251 1.403 . S
C2252 C2253 1.404 . S
C2252 C2255 1.539 . S
C2253 C2249 1.408 . S
C2253 C2252 1.404 . S
C2253 H2265 0.930 . S
C2254 C2250 1.524 . S
C2254 H2266 0.956 . S
C2254 H2267 0.961 . S
C2254 H2268 0.961 . S
C2255 C2252 1.539 . S
C2255 H2269 0.958 . S
C2255 H2270 0.961 . S
C2255 H2271 0.960 . S
H2256 C2240 0.931 . S
H2257 C2245 0.929 . S
H2258 C2246 0.960 . S
H2259 C2246 0.962 . S
H2260 C2246 0.960 . S
H2261 C2247 0.961 . S
H2262 C2247 0.961 . S
H2263 C2247 0.961 . S
H2264 C2248 0.931 . S
H2265 C2253 0.930 . S
H2266 C2254 0.956 . S
H2267 C2254 0.961 . S
H2268 C2254 0.961 . S
H2269 C2255 0.958 . S
H2270 C2255 0.961 . S
H2271 C2255 0.960 . S
C2272 C2273 1.391 . S
C2272 C2274 1.394 . S
C2272 H2288 0.931 . S
C2273 C2272 1.391 . S
C2273 C2277 1.376 . S
C2274 C2272 1.394 . S
C2274 C2275 1.369 . S
C2274 C2278 1.531 . S
C2275 C2274 1.369 . S
C2275 C2276 1.410 . S
C2275 C2283 1.503 . S
C2276 C2275 1.410 . S
C2276 C2277 1.392 . S
C2276 C2279 1.511 . S
C2277 C2273 1.376 . S
C2277 C2276 1.392 . S
C2277 H2289 0.929 . S
C2278 C2274 1.531 . S
C2278 H2290 0.960 . S
C2278 H2291 0.962 . S
C2278 H2292 0.960 . S
C2279 C2276 1.511 . S
C2279 H2293 0.961 . S
C2279 H2294 0.961 . S
C2279 H2295 0.961 . S
C2280 C2281 1.370 . S
C2280 C2282 1.363 . S
C2280 H2296 0.931 . S
C2281 C2280 1.370 . S
C2281 C2285 1.408 . S
C2282 C2280 1.363 . S
C2282 C2283 1.370 1_655 S
C2282 C2286 1.524 1_655 S
C2283 C2275 1.503 . S
C2283 C2282 1.370 1_455 S
C2283 C2284 1.403 1_455 S
C2284 C2283 1.403 1_655 S
C2284 C2285 1.404 . S
C2284 C2287 1.559 . S
C2285 C2281 1.408 . S
C2285 C2284 1.404 . S
C2285 H2297 0.930 . S
C2286 C2282 1.524 1_455 S
C2286 H2298 0.956 . S
C2286 H2299 0.961 . S
C2286 H2300 0.961 . S
C2287 C2284 1.559 . S
C2287 H2301 0.958 . S
C2287 H2302 0.982 . S
C2287 H2303 0.919 1_655 S
H2288 C2272 0.931 . S
H2289 C2277 0.929 . S
H2290 C2278 0.960 . S
H2291 C2278 0.962 . S
H2292 C2278 0.960 . S
H2293 C2279 0.961 . S
H2294 C2279 0.961 . S
H2295 C2279 0.961 . S
H2296 C2280 0.931 . S
H2297 C2285 0.930 . S
H2298 C2286 0.956 . S
H2299 C2286 0.961 . S
H2300 C2286 0.961 . S
H2301 C2287 0.958 . S
H2302 C2287 0.982 . S
H2303 C2287 0.919 1_455 S
C2304 C2305 1.391 . S
C2304 C2306 1.394 . S
C2304 H2320 0.931 . S
C2305 C2304 1.391 . S
C2305 C2309 1.376 . S
C2306 C2304 1.394 . S
C2306 C2307 1.369 . S
C2306 C2310 1.531 . S
C2307 C2306 1.369 . S
C2307 C2308 1.410 . S
C2307 C2315 1.503 . S
C2308 C2307 1.410 . S
C2308 C2309 1.392 . S
C2308 C2311 1.511 . S
C2309 C2305 1.376 . S
C2309 C2308 1.392 . S
C2309 H2321 0.929 . S
C2310 C2306 1.531 . S
C2310 H2322 0.960 . S
C2310 H2323 0.962 . S
C2310 H2324 0.960 . S
C2311 C2308 1.511 . S
C2311 H2325 0.961 . S
C2311 H2326 0.961 . S
C2311 H2327 0.961 . S
C2312 C2313 1.370 . S
C2312 C2314 1.363 . S
C2312 H2328 0.931 . S
C2313 C2312 1.370 . S
C2313 C2317 1.408 . S
C2314 C2312 1.363 . S
C2314 C2315 1.370 . S
C2314 C2318 1.524 . S
C2315 C2307 1.503 . S
C2315 C2314 1.370 . S
C2315 C2316 1.403 . S
C2316 C2315 1.403 . S
C2316 C2317 1.404 . S
C2316 C2319 1.539 . S
C2317 C2313 1.408 . S
C2317 C2316 1.404 . S
C2317 H2329 0.930 . S
C2318 C2314 1.524 . S
C2318 H2330 0.956 . S
C2318 H2331 0.961 . S
C2318 H2332 0.961 . S
C2319 C2316 1.539 . S
C2319 H2333 0.958 . S
C2319 H2334 0.961 . S
C2319 H2335 0.960 . S
H2320 C2304 0.931 . S
H2321 C2309 0.929 . S
H2322 C2310 0.960 . S
H2323 C2310 0.962 . S
H2324 C2310 0.960 . S
H2325 C2311 0.961 . S
H2326 C2311 0.961 . S
H2327 C2311 0.961 . S
H2328 C2312 0.931 . S
H2329 C2317 0.930 . S
H2330 C2318 0.956 . S
H2331 C2318 0.961 . S
H2332 C2318 0.961 . S
H2333 C2319 0.958 . S
H2334 C2319 0.961 . S
H2335 C2319 0.960 . S
C2336 C2337 1.391 . S
C2336 C2338 1.394 . S
C2336 H2352 0.931 . S
C2337 C2336 1.391 . S
C2337 C2341 1.376 . S
C2338 C2336 1.394 . S
C2338 C2339 1.369 1_655 S
C2338 C2342 1.531 1_655 S
C2339 C2338 1.369 1_455 S
C2339 C2340 1.410 1_455 S
C2339 C2347 1.503 . S
C2340 C2339 1.410 1_655 S
C2340 C2341 1.392 . S
C2340 C2343 1.511 1_655 S
C2341 C2337 1.376 . S
C2341 C2340 1.392 . S
C2341 H2353 0.929 . S
C2342 C2338 1.531 1_455 S
C2342 H2354 0.960 . S
C2342 H2355 0.962 . S
C2342 H2356 0.981 . S
C2343 C2340 1.511 1_455 S
C2343 H2357 0.961 . S
C2343 H2358 0.961 . S
C2343 H2359 0.961 . S
C2344 C2345 1.370 . S
C2344 C2346 1.363 . S
C2344 H2360 0.931 . S
C2345 C2344 1.370 . S
C2345 C2349 1.408 . S
C2346 C2344 1.363 . S
C2346 C2347 1.370 . S
C2346 C2350 1.524 . S
C2347 C2339 1.503 . S
C2347 C2346 1.370 . S
C2347 C2348 1.403 . S
C2348 C2347 1.403 . S
C2348 C2349 1.404 . S
C2348 C2351 1.539 . S
C2349 C2345 1.408 . S
C2349 C2348 1.404 . S
C2349 H2361 0.930 . S
C2350 C2346 1.524 . S
C2350 H2362 0.956 . S
C2350 H2363 0.961 . S
C2350 H2364 0.961 . S
C2351 C2348 1.539 . S
C2351 H2365 0.958 . S
C2351 H2366 0.961 . S
C2351 H2367 0.960 . S
H2352 C2336 0.931 . S
H2353 C2341 0.929 . S
H2354 C2342 0.960 . S
H2355 C2342 0.962 . S
H2356 C2342 0.981 . S
H2357 C2343 0.961 . S
H2358 C2343 0.961 . S
H2359 C2343 0.961 . S
H2360 C2344 0.931 . S
H2361 C2349 0.930 . S
H2362 C2350 0.956 . S
H2363 C2350 0.961 . S
H2364 C2350 0.961 . S
H2365 C2351 0.958 . S
H2366 C2351 0.961 . S
H2367 C2351 0.960 . S
C2368 C2369 1.391 . S
C2368 C2370 1.394 . S
C2368 H2384 0.931 . S
C2369 C2368 1.391 . S
C2369 C2373 1.376 . S
C2370 C2368 1.394 . S
C2370 C2371 1.369 . S
C2370 C2374 1.531 . S
C2371 C2370 1.369 . S
C2371 C2372 1.410 . S
C2371 C2379 1.503 . S
C2372 C2371 1.410 . S
C2372 C2373 1.392 . S
C2372 C2375 1.511 . S
C2373 C2369 1.376 . S
C2373 C2372 1.392 . S
C2373 H2385 0.929 . S
C2374 C2370 1.531 . S
C2374 H2386 0.960 . S
C2374 H2387 0.962 . S
C2374 H2388 0.960 . S
C2375 C2372 1.511 . S
C2375 H2389 0.961 . S
C2375 H2390 0.961 . S
C2375 H2391 0.961 . S
C2376 C2377 1.370 . S
C2376 C2378 1.363 . S
C2376 H2392 0.931 . S
C2377 C2376 1.370 . S
C2377 C2381 1.408 . S
C2378 C2376 1.363 . S
C2378 C2379 1.370 . S
C2378 C2382 1.524 . S
C2379 C2371 1.503 . S
C2379 C2378 1.370 . S
C2379 C2380 1.403 . S
C2380 C2379 1.403 . S
C2380 C2381 1.404 . S
C2380 C2383 1.539 . S
C2381 C2377 1.408 . S
C2381 C2380 1.404 . S
C2381 H2393 0.930 . S
C2382 C2378 1.524 . S
C2382 H2394 0.956 . S
C2382 H2395 0.961 . S
C2382 H2396 0.961 . S
C2383 C2380 1.539 . S
C2383 H2397 0.958 . S
C2383 H2398 0.961 . S
C2383 H2399 0.960 . S
H2384 C2368 0.931 . S
H2385 C2373 0.929 . S
H2386 C2374 0.960 . S
H2387 C2374 0.962 . S
H2388 C2374 0.960 . S
H2389 C2375 0.961 . S
H2390 C2375 0.961 . S
H2391 C2375 0.961 . S
H2392 C2376 0.931 . S
H2393 C2381 0.930 . S
H2394 C2382 0.956 . S
H2395 C2382 0.961 . S
H2396 C2382 0.961 . S
H2397 C2383 0.958 . S
H2398 C2383 0.961 . S
H2399 C2383 0.960 . S
C2400 C2401 1.391 . S
C2400 C2402 1.394 . S
C2400 H2416 0.931 . S
C2401 C2400 1.391 . S
C2401 C2405 1.376 . S
C2402 C2400 1.394 . S
C2402 C2403 1.369 . S
C2402 C2406 1.531 . S
C2403 C2402 1.369 . S
C2403 C2404 1.410 . S
C2403 C2411 1.503 1_655 S
C2404 C2403 1.410 . S
C2404 C2405 1.392 . S
C2404 C2407 1.511 . S
C2405 C2401 1.376 . S
C2405 C2404 1.392 . S
C2405 H2417 0.929 . S
C2406 C2402 1.531 . S
C2406 H2418 0.960 . S
C2406 H2419 0.962 . S
C2406 H2420 0.960 . S
C2407 C2404 1.511 . S
C2407 H2421 0.961 . S
C2407 H2422 0.961 . S
C2407 H2423 0.961 . S
C2408 C2409 1.370 . S
C2408 C2410 1.363 . S
C2408 H2424 0.931 . S
C2409 C2408 1.370 . S
C2409 C2413 1.408 . S
C2410 C2408 1.363 . S
C2410 C2411 1.370 . S
C2410 C2414 1.524 . S
C2411 C2403 1.503 1_455 S
C2411 C2410 1.370 . S
C2411 C2412 1.403 . S
C2412 C2411 1.403 . S
C2412 C2413 1.404 . S
C2412 C2415 1.539 . S
C2413 C2409 1.408 . S
C2413 C2412 1.404 . S
C2413 H2425 0.930 . S
C2414 C2410 1.524 . S
C2414 H2426 0.956 1_455 S
C2414 H2427 0.961 1_455 S
C2414 H2428 0.961 . S
C2415 C2412 1.539 . S
C2415 H2429 0.958 . S
C2415 H2430 0.961 . S
C2415 H2431 0.960 1_455 S
H2416 C2400 0.931 . S
H2417 C2405 0.929 . S
H2418 C2406 0.960 . S
H2419 C2406 0.962 . S
H2420 C2406 0.960 . S
H2421 C2407 0.961 . S
H2422 C2407 0.961 . S
H2423 C2407 0.961 . S
H2424 C2408 0.931 . S
H2425 C2413 0.930 . S
H2426 C2414 0.956 1_655 S
H2427 C2414 0.961 1_655 S
H2428 C2414 0.961 . S
H2429 C2415 0.958 . S
H2430 C2415 0.961 . S
H2431 C2415 0.960 1_655 S
C2432 C2433 1.391 . S
C2432 C2434 1.394 . S
C2432 H2448 0.931 . S
C2433 C2432 1.391 . S
C2433 C2437 1.376 . S
C2434 C2432 1.394 . S
C2434 C2435 1.369 . S
C2434 C2438 1.531 . S
C2435 C2434 1.369 . S
C2435 C2436 1.410 . S
C2435 C2443 1.503 . S
C2436 C2435 1.410 . S
C2436 C2437 1.392 . S
C2436 C2439 1.511 . S
C2437 C2433 1.376 . S
C2437 C2436 1.392 . S
C2437 H2449 0.929 . S
C2438 C2434 1.531 . S
C2438 H2450 0.960 . S
C2438 H2451 0.962 . S
C2438 H2452 0.960 . S
C2439 C2436 1.511 . S
C2439 H2453 0.961 . S
C2439 H2454 0.961 . S
C2439 H2455 0.961 . S
C2440 C2441 1.370 . S
C2440 C2442 1.363 . S
C2440 H2456 0.931 . S
C2441 C2440 1.370 . S
C2441 C2445 1.408 . S
C2442 C2440 1.363 . S
C2442 C2443 1.370 . S
C2442 C2446 1.524 . S
C2443 C2435 1.503 . S
C2443 C2442 1.370 . S
C2443 C2444 1.403 . S
C2444 C2443 1.403 . S
C2444 C2445 1.404 . S
C2444 C2447 1.539 . S
C2445 C2441 1.408 . S
C2445 C2444 1.404 . S
C2445 H2457 0.930 . S
C2446 C2442 1.524 . S
C2446 H2458 0.956 . S
C2446 H2459 0.961 . S
C2446 H2460 0.961 . S
C2447 C2444 1.539 . S
C2447 H2461 0.958 . S
C2447 H2462 0.961 . S
C2447 H2463 0.960 . S
H2448 C2432 0.931 . S
H2449 C2437 0.929 . S
H2450 C2438 0.960 . S
H2451 C2438 0.962 . S
H2452 C2438 0.960 . S
H2453 C2439 0.961 . S
H2454 C2439 0.961 . S
H2455 C2439 0.961 . S
H2456 C2440 0.931 . S
H2457 C2445 0.930 . S
H2458 C2446 0.956 . S
H2459 C2446 0.961 . S
H2460 C2446 0.961 . S
H2461 C2447 0.958 . S
H2462 C2447 0.961 . S
H2463 C2447 0.960 . S
C2464 C2465 1.391 . S
C2464 C2466 1.394 . S
C2464 H2480 0.931 . S
C2465 C2464 1.391 . S
C2465 C2469 1.376 . S
C2466 C2464 1.394 . S
C2466 C2467 1.369 . S
C2466 C2470 1.531 . S
C2467 C2466 1.369 . S
C2467 C2468 1.410 . S
C2467 C2475 1.540 . S
C2468 C2467 1.410 . S
C2468 C2469 1.392 . S
C2468 C2471 1.511 . S
C2469 C2465 1.376 . S
C2469 C2468 1.392 . S
C2469 H2481 0.929 . S
C2470 C2466 1.531 . S
C2470 H2482 0.960 . S
C2470 H2483 0.962 . S
C2470 H2484 0.960 . S
C2471 C2468 1.511 . S
C2471 H2485 0.961 . S
C2471 H2486 0.961 . S
C2471 H2487 0.961 . S
C2472 C2473 1.370 . S
C2472 C2474 1.363 . S
C2472 H2488 0.931 . S
C2473 C2472 1.370 . S
C2473 C2477 1.408 . S
C2474 C2472 1.363 . S
C2474 C2475 1.354 1_565 S
C2474 C2478 1.524 1_565 S
C2475 C2467 1.540 . S
C2475 C2474 1.354 1_545 S
C2475 C2476 1.383 1_545 S
C2476 C2475 1.383 1_565 S
C2476 C2477 1.404 . S
C2476 C2479 1.540 1_565 S
C2477 C2473 1.408 . S
C2477 C2476 1.404 . S
C2477 H2489 0.930 . S
C2478 C2474 1.524 1_545 S
C2478 H2490 0.956 . S
C2478 H2491 0.961 . S
C2478 H2492 0.961 1_545 S
C2479 C2476 1.540 1_545 S
C2479 H2493 0.957 . S
C2479 H2494 0.963 1_545 S
C2479 H2495 0.958 . S
H2480 C2464 0.931 . S
H2481 C2469 0.929 . S
H2482 C2470 0.960 . S
H2483 C2470 0.962 . S
H2484 C2470 0.960 . S
H2485 C2471 0.961 . S
H2486 C2471 0.961 . S
H2487 C2471 0.961 . S
H2488 C2472 0.931 . S
H2489 C2477 0.930 . S
H2490 C2478 0.956 . S
H2491 C2478 0.961 . S
H2492 C2478 0.961 1_565 S
H2493 C2479 0.957 . S
H2494 C2479 0.963 1_565 S
H2495 C2479 0.958 . S
C2496 C2497 1.391 . S
C2496 C2498 1.394 . S
C2496 H2512 0.931 . S
C2497 C2496 1.391 . S
C2497 C2501 1.376 . S
C2498 C2496 1.394 . S
C2498 C2499 1.369 . S
C2498 C2502 1.531 . S
C2499 C2498 1.369 . S
C2499 C2500 1.410 . S
C2499 C2507 1.503 . S
C2500 C2499 1.410 . S
C2500 C2501 1.392 . S
C2500 C2503 1.511 . S
C2501 C2497 1.376 . S
C2501 C2500 1.392 . S
C2501 H2513 0.929 . S
C2502 C2498 1.531 . S
C2502 H2514 0.960 . S
C2502 H2515 0.962 . S
C2502 H2516 0.960 . S
C2503 C2500 1.511 . S
C2503 H2517 0.961 . S
C2503 H2518 0.961 . S
C2503 H2519 0.961 . S
C2504 C2505 1.370 . S
C2504 C2506 1.363 . S
C2504 H2520 0.931 . S
C2505 C2504 1.370 . S
C2505 C2509 1.408 . S
C2506 C2504 1.363 . S
C2506 C2507 1.370 . S
C2506 C2510 1.524 . S
C2507 C2499 1.503 . S
C2507 C2506 1.370 . S
C2507 C2508 1.403 . S
C2508 C2507 1.403 . S
C2508 C2509 1.404 . S
C2508 C2511 1.539 . S
C2509 C2505 1.408 . S
C2509 C2508 1.404 . S
C2509 H2521 0.930 . S
C2510 C2506 1.524 . S
C2510 H2522 0.956 . S
C2510 H2523 0.961 . S
C2510 H2524 0.961 . S
C2511 C2508 1.539 . S
C2511 H2525 0.958 . S
C2511 H2526 0.961 . S
C2511 H2527 0.960 . S
H2512 C2496 0.931 . S
H2513 C2501 0.929 . S
H2514 C2502 0.960 . S
H2515 C2502 0.962 . S
H2516 C2502 0.960 . S
H2517 C2503 0.961 . S
H2518 C2503 0.961 . S
H2519 C2503 0.961 . S
H2520 C2504 0.931 . S
H2521 C2509 0.930 . S
H2522 C2510 0.956 . S
H2523 C2510 0.961 . S
H2524 C2510 0.961 . S
H2525 C2511 0.958 . S
H2526 C2511 0.961 . S
H2527 C2511 0.960 . S
C2528 C2529 1.391 . S
C2528 C2530 1.394 . S
C2528 H2544 0.931 . S
C2529 C2528 1.391 . S
C2529 C2533 1.376 . S
C2530 C2528 1.394 . S
C2530 C2531 1.369 . S
C2530 C2534 1.531 . S
C2531 C2530 1.369 . S
C2531 C2532 1.410 . S
C2531 C2539 1.503 1_545 S
C2532 C2531 1.410 . S
C2532 C2533 1.392 . S
C2532 C2535 1.511 . S
C2533 C2529 1.376 . S
C2533 C2532 1.392 . S
C2533 H2545 0.929 . S
C2534 C2530 1.531 . S
C2534 H2546 0.960 1_545 S
C2534 H2547 0.962 1_545 S
C2534 H2548 0.960 . S
C2535 C2532 1.511 . S
C2535 H2549 0.961 . S
C2535 H2550 0.961 1_545 S
C2535 H2551 0.961 . S
C2536 C2537 1.370 . S
C2536 C2538 1.363 . S
C2536 H2552 0.931 . S
C2537 C2536 1.370 . S
C2537 C2541 1.408 . S
C2538 C2536 1.363 . S
C2538 C2539 1.370 . S
C2538 C2542 1.524 . S
C2539 C2531 1.503 1_565 S
C2539 C2538 1.370 . S
C2539 C2540 1.403 . S
C2540 C2539 1.403 . S
C2540 C2541 1.404 . S
C2540 C2543 1.539 . S
C2541 C2537 1.408 . S
C2541 C2540 1.404 . S
C2541 H2553 0.930 . S
C2542 C2538 1.524 . S
C2542 H2554 0.956 . S
C2542 H2555 0.961 . S
C2542 H2556 0.961 . S
C2543 C2540 1.539 . S
C2543 H2557 0.958 . S
C2543 H2558 0.961 . S
C2543 H2559 0.960 . S
H2544 C2528 0.931 . S
H2545 C2533 0.929 . S
H2546 C2534 0.960 1_565 S
H2547 C2534 0.962 1_565 S
H2548 C2534 0.960 . S
H2549 C2535 0.961 . S
H2550 C2535 0.961 1_565 S
H2551 C2535 0.961 . S
H2552 C2536 0.931 . S
H2553 C2541 0.930 . S
H2554 C2542 0.956 . S
H2555 C2542 0.961 . S
H2556 C2542 0.961 . S
H2557 C2543 0.958 . S
H2558 C2543 0.961 . S
H2559 C2543 0.960 . S
C2560 C2561 1.391 . S
C2560 C2562 1.394 . S
C2560 H2576 0.931 . S
C2561 C2560 1.391 . S
C2561 C2565 1.376 . S
C2562 C2560 1.394 . S
C2562 C2563 1.369 . S
C2562 C2566 1.531 . S
C2563 C2562 1.369 . S
C2563 C2564 1.410 . S
C2563 C2571 1.503 . S
C2564 C2563 1.410 . S
C2564 C2565 1.392 . S
C2564 C2567 1.511 . S
C2565 C2561 1.376 . S
C2565 C2564 1.392 . S
C2565 H2577 0.929 . S
C2566 C2562 1.531 . S
C2566 H2578 0.960 . S
C2566 H2579 0.962 . S
C2566 H2580 0.960 . S
C2567 C2564 1.511 . S
C2567 H2581 0.961 . S
C2567 H2582 0.961 . S
C2567 H2583 0.961 . S
C2568 C2569 1.370 . S
C2568 C2570 1.363 . S
C2568 H2584 0.931 . S
C2569 C2568 1.370 . S
C2569 C2573 1.408 . S
C2570 C2568 1.363 . S
C2570 C2571 1.370 . S
C2570 C2574 1.524 . S
C2571 C2563 1.503 . S
C2571 C2570 1.370 . S
C2571 C2572 1.403 . S
C2572 C2571 1.403 . S
C2572 C2573 1.404 . S
C2572 C2575 1.539 . S
C2573 C2569 1.408 . S
C2573 C2572 1.404 . S
C2573 H2585 0.930 . S
C2574 C2570 1.524 . S
C2574 H2586 0.956 . S
C2574 H2587 0.961 . S
C2574 H2588 0.961 . S
C2575 C2572 1.539 . S
C2575 H2589 0.958 . S
C2575 H2590 0.961 . S
C2575 H2591 0.960 . S
H2576 C2560 0.931 . S
H2577 C2565 0.929 . S
H2578 C2566 0.960 . S
H2579 C2566 0.962 . S
H2580 C2566 0.960 . S
H2581 C2567 0.961 . S
H2582 C2567 0.961 . S
H2583 C2567 0.961 . S
H2584 C2568 0.931 . S
H2585 C2573 0.930 . S
H2586 C2574 0.956 . S
H2587 C2574 0.961 . S
H2588 C2574 0.961 . S
H2589 C2575 0.958 . S
H2590 C2575 0.961 . S
H2591 C2575 0.960 . S
C2592 C2593 1.391 . S
C2592 C2594 1.394 . S
C2592 H2608 0.931 . S
C2593 C2592 1.391 . S
C2593 C2597 1.376 . S
C2594 C2592 1.394 . S
C2594 C2595 1.369 . S
C2594 C2598 1.531 . S
C2595 C2594 1.369 . S
C2595 C2596 1.410 . S
C2595 C2603 1.503 1_545 S
C2596 C2595 1.410 . S
C2596 C2597 1.392 . S
C2596 C2599 1.511 . S
C2597 C2593 1.376 . S
C2597 C2596 1.392 . S
C2597 H2609 0.929 . S
C2598 C2594 1.531 . S
C2598 H2610 0.960 . S
C2598 H2611 0.962 . S
C2598 H2612 0.960 . S
C2599 C2596 1.511 . S
C2599 H2613 0.961 . S
C2599 H2614 0.961 . S
C2599 H2615 0.961 . S
C2600 C2601 1.370 . S
C2600 C2602 1.363 . S
C2600 H2616 0.931 . S
C2601 C2600 1.370 . S
C2601 C2605 1.408 . S
C2602 C2600 1.363 . S
C2602 C2603 1.370 . S
C2602 C2606 1.524 . S
C2603 C2595 1.503 1_565 S
C2603 C2602 1.370 . S
C2603 C2604 1.403 . S
C2604 C2603 1.403 . S
C2604 C2605 1.404 . S
C2604 C2607 1.539 . S
C2605 C2601 1.408 . S
C2605 C2604 1.404 . S
C2605 H2617 0.930 . S
C2606 C2602 1.524 . S
C2606 H2618 0.956 1_565 S
C2606 H2619 0.961 1_565 S
C2606 H2620 0.961 . S
C2607 C2604 1.539 . S
C2607 H2621 0.958 . S
C2607 H2622 0.961 . S
C2607 H2623 0.960 1_565 S
H2608 C2592 0.931 . S
H2609 C2597 0.929 . S
H2610 C2598 0.960 . S
H2611 C2598 0.962 . S
H2612 C2598 0.960 . S
H2613 C2599 0.961 . S
H2614 C2599 0.961 . S
H2615 C2599 0.961 . S
H2616 C2600 0.931 . S
H2617 C2605 0.930 . S
H2618 C2606 0.956 1_545 S
H2619 C2606 0.961 1_545 S
H2620 C2606 0.961 . S
H2621 C2607 0.958 . S
H2622 C2607 0.961 . S
H2623 C2607 0.960 1_545 S
C2624 C2625 1.391 . S
C2624 C2626 1.394 . S
C2624 H2640 0.931 . S
C2625 C2624 1.391 . S
C2625 C2629 1.376 . S
C2626 C2624 1.394 . S
C2626 C2627 1.369 . S
C2626 C2630 1.531 . S
C2627 C2626 1.369 . S
C2627 C2628 1.410 . S
C2627 C2635 1.503 . S
C2628 C2627 1.410 . S
C2628 C2629 1.392 . S
C2628 C2631 1.511 . S
C2629 C2625 1.376 . S
C2629 C2628 1.392 . S
C2629 H2641 0.929 . S
C2630 C2626 1.531 . S
C2630 H2642 0.960 . S
C2630 H2643 0.962 . S
C2630 H2644 0.960 . S
C2631 C2628 1.511 . S
C2631 H2645 0.961 . S
C2631 H2646 0.961 . S
C2631 H2647 0.961 . S
C2632 C2633 1.370 . S
C2632 C2634 1.363 . S
C2632 H2648 0.931 . S
C2633 C2632 1.370 . S
C2633 C2637 1.408 . S
C2634 C2632 1.363 . S
C2634 C2635 1.370 . S
C2634 C2638 1.524 . S
C2635 C2627 1.503 . S
C2635 C2634 1.370 . S
C2635 C2636 1.403 . S
C2636 C2635 1.403 . S
C2636 C2637 1.404 . S
C2636 C2639 1.539 . S
C2637 C2633 1.408 . S
C2637 C2636 1.404 . S
C2637 H2649 0.930 . S
C2638 C2634 1.524 . S
C2638 H2650 0.956 . S
C2638 H2651 0.961 . S
C2638 H2652 0.961 . S
C2639 C2636 1.539 . S
C2639 H2653 0.958 . S
C2639 H2654 0.961 . S
C2639 H2655 0.960 . S
H2640 C2624 0.931 . S
H2641 C2629 0.929 . S
H2642 C2630 0.960 . S
H2643 C2630 0.962 . S
H2644 C2630 0.960 . S
H2645 C2631 0.961 . S
H2646 C2631 0.961 . S
H2647 C2631 0.961 . S
H2648 C2632 0.931 . S
H2649 C2637 0.930 . S
H2650 C2638 0.956 . S
H2651 C2638 0.961 . S
H2652 C2638 0.961 . S
H2653 C2639 0.958 . S
H2654 C2639 0.961 . S
H2655 C2639 0.960 . S
C2656 C2657 1.391 . S
C2656 C2658 1.394 . S
C2656 H2672 0.931 . S
C2657 C2656 1.391 . S
C2657 C2661 1.376 . S
C2658 C2656 1.394 . S
C2658 C2659 1.369 1_545 S
C2658 C2662 1.531 1_545 S
C2659 C2658 1.369 1_565 S
C2659 C2660 1.410 1_565 S
C2659 C2667 1.503 . S
C2660 C2659 1.410 1_545 S
C2660 C2661 1.392 . S
C2660 C2663 1.511 1_545 S
C2661 C2657 1.376 . S
C2661 C2660 1.392 . S
C2661 H2673 0.929 . S
C2662 C2658 1.531 1_565 S
C2662 H2674 0.960 . S
C2662 H2675 0.962 . S
C2662 H2676 0.960 1_565 S
C2663 C2660 1.511 1_565 S
C2663 H2677 0.961 1_565 S
C2663 H2678 0.961 . S
C2663 H2679 0.961 . S
C2664 C2665 1.370 . S
C2664 C2666 1.363 . S
C2664 H2680 0.931 . S
C2665 C2664 1.370 . S
C2665 C2669 1.408 . S
C2666 C2664 1.363 . S
C2666 C2667 1.370 . S
C2666 C2670 1.524 . S
C2667 C2659 1.503 . S
C2667 C2666 1.370 . S
C2667 C2668 1.403 . S
C2668 C2667 1.403 . S
C2668 C2669 1.404 . S
C2668 C2671 1.539 . S
C2669 C2665 1.408 . S
C2669 C2668 1.404 . S
C2669 H2681 0.930 . S
C2670 C2666 1.524 . S
C2670 H2682 0.956 . S
C2670 H2683 0.961 . S
C2670 H2684 0.961 . S
C2671 C2668 1.539 . S
C2671 H2685 0.958 . S
C2671 H2686 0.961 . S
C2671 H2687 0.960 . S
H2672 C2656 0.931 . S
H2673 C2661 0.929 . S
H2674 C2662 0.960 . S
H2675 C2662 0.962 . S
H2676 C2662 0.960 1_545 S
H2677 C2663 0.961 1_545 S
H2678 C2663 0.961 . S
H2679 C2663 0.961 . S
H2680 C2664 0.931 . S
H2681 C2669 0.930 . S
H2682 C2670 0.956 . S
H2683 C2670 0.961 . S
H2684 C2670 0.961 . S
H2685 C2671 0.958 . S
H2686 C2671 0.961 . S
H2687 C2671 0.960 . S
C2688 C2689 1.391 . S
C2688 C2690 1.394 . S
C2688 H2704 0.931 . S
C2689 C2688 1.391 . S
C2689 C2693 1.376 . S
C2690 C2688 1.394 . S
C2690 C2691 1.369 . S
C2690 C2694 1.531 . S
C2691 C2690 1.369 . S
C2691 C2692 1.410 . S
C2691 C2699 1.503 . S
C2692 C2691 1.410 . S
C2692 C2693 1.392 . S
C2692 C2695 1.511 . S
C2693 C2689 1.376 . S
C2693 C2692 1.392 . S
C2693 H2705 0.929 . S
C2694 C2690 1.531 . S
C2694 H2706 0.960 . S
C2694 H2707 0.962 . S
C2694 H2708 0.960 . S
C2695 C2692 1.511 . S
C2695 H2709 0.961 . S
C2695 H2710 0.961 . S
C2695 H2711 0.961 . S
C2696 C2697 1.370 . S
C2696 C2698 1.363 . S
C2696 H2712 0.931 . S
C2697 C2696 1.370 . S
C2697 C2701 1.408 . S
C2698 C2696 1.363 . S
C2698 C2699 1.370 . S
C2698 C2702 1.524 . S
C2699 C2691 1.503 . S
C2699 C2698 1.370 . S
C2699 C2700 1.403 . S
C2700 C2699 1.403 . S
C2700 C2701 1.404 . S
C2700 C2703 1.539 . S
C2701 C2697 1.408 . S
C2701 C2700 1.404 . S
C2701 H2713 0.930 . S
C2702 C2698 1.524 . S
C2702 H2714 0.956 . S
C2702 H2715 0.961 . S
C2702 H2716 0.961 . S
C2703 C2700 1.539 . S
C2703 H2717 0.958 . S
C2703 H2718 0.961 . S
C2703 H2719 0.960 . S
H2704 C2688 0.931 . S
H2705 C2693 0.929 . S
H2706 C2694 0.960 . S
H2707 C2694 0.962 . S
H2708 C2694 0.960 . S
H2709 C2695 0.961 . S
H2710 C2695 0.961 . S
H2711 C2695 0.961 . S
H2712 C2696 0.931 . S
H2713 C2701 0.930 . S
H2714 C2702 0.956 . S
H2715 C2702 0.961 . S
H2716 C2702 0.961 . S
H2717 C2703 0.958 . S
H2718 C2703 0.961 . S
H2719 C2703 0.960 . S
C2720 C2721 1.391 . S
C2720 C2722 1.394 . S
C2720 H2736 0.931 . S
C2721 C2720 1.391 . S
C2721 C2725 1.376 . S
C2722 C2720 1.394 . S
C2722 C2723 1.369 . S
C2722 C2726 1.531 . S
C2723 C2722 1.369 . S
C2723 C2724 1.410 . S
C2723 C2731 1.503 1_556 S
C2724 C2723 1.410 . S
C2724 C2725 1.392 . S
C2724 C2727 1.511 . S
C2725 C2721 1.376 . S
C2725 C2724 1.392 . S
C2725 H2737 0.929 . S
C2726 C2722 1.531 . S
C2726 H2738 0.960 . S
C2726 H2739 0.962 . S
C2726 H2740 0.960 . S
C2727 C2724 1.511 . S
C2727 H2741 0.961 . S
C2727 H2742 0.959 1_556 S
C2727 H2743 0.961 . S
C2728 C2729 1.370 . S
C2728 C2730 1.363 . S
C2728 H2744 0.931 . S
C2729 C2728 1.370 . S
C2729 C2733 1.408 . S
C2730 C2728 1.363 . S
C2730 C2731 1.370 . S
C2730 C2734 1.524 . S
C2731 C2723 1.503 1_554 S
C2731 C2730 1.370 . S
C2731 C2732 1.403 . S
C2732 C2731 1.403 . S
C2732 C2733 1.404 . S
C2732 C2735 1.539 . S
C2733 C2729 1.408 . S
C2733 C2732 1.404 . S
C2733 H2745 0.930 . S
C2734 C2730 1.524 . S
C2734 H2746 0.956 . S
C2734 H2747 0.974 . S
C2734 H2748 0.961 . S
C2735 C2732 1.539 . S
C2735 H2749 0.958 . S
C2735 H2750 0.961 . S
C2735 H2751 0.960 1_554 S
H2736 C2720 0.931 . S
H2737 C2725 0.929 . S
H2738 C2726 0.960 . S
H2739 C2726 0.962 . S
H2740 C2726 0.960 . S
H2741 C2727 0.961 . S
H2742 C2727 0.959 1_554 S
H2743 C2727 0.961 . S
H2744 C2728 0.931 . S
H2745 C2733 0.930 . S
H2746 C2734 0.956 . S
H2747 C2734 0.974 . S
H2748 C2734 0.961 . S
H2749 C2735 0.958 . S
H2750 C2735 0.961 . S
H2751 C2735 0.960 1_556 S
C2752 C2753 1.391 . S
C2752 C2754 1.394 . S
C2752 H2768 0.931 . S
C2753 C2752 1.391 . S
C2753 C2757 1.376 . S
C2754 C2752 1.394 . S
C2754 C2755 1.369 . S
C2754 C2758 1.531 . S
C2755 C2754 1.369 . S
C2755 C2756 1.410 . S
C2755 C2763 1.503 1_556 S
C2756 C2755 1.410 . S
C2756 C2757 1.392 . S
C2756 C2759 1.511 . S
C2757 C2753 1.376 . S
C2757 C2756 1.392 . S
C2757 H2769 0.929 . S
C2758 C2754 1.531 . S
C2758 H2770 0.960 1_556 S
C2758 H2771 0.962 . S
C2758 H2772 0.960 . S
C2759 C2756 1.511 . S
C2759 H2773 0.961 . S
C2759 H2774 0.961 1_556 S
C2759 H2775 0.961 . S
C2760 C2761 1.370 . S
C2760 C2762 1.363 . S
C2760 H2776 0.931 . S
C2761 C2760 1.370 . S
C2761 C2765 1.408 . S
C2762 C2760 1.363 . S
C2762 C2763 1.370 . S
C2762 C2766 1.524 . S
C2763 C2755 1.503 1_554 S
C2763 C2762 1.370 . S
C2763 C2764 1.403 . S
C2764 C2763 1.403 . S
C2764 C2765 1.404 . S
C2764 C2767 1.539 . S
C2765 C2761 1.408 . S
C2765 C2764 1.404 . S
C2765 H2777 0.930 . S
C2766 C2762 1.524 . S
C2766 H2778 0.956 . S
C2766 H2779 0.961 . S
C2766 H2780 0.961 . S
C2767 C2764 1.539 . S
C2767 H2781 0.958 . S
C2767 H2782 0.961 . S
C2767 H2783 0.960 1_554 S
H2768 C2752 0.931 . S
H2769 C2757 0.929 . S
H2770 C2758 0.960 1_554 S
H2771 C2758 0.962 . S
H2772 C2758 0.960 . S
H2773 C2759 0.961 . S
H2774 C2759 0.961 1_554 S
H2775 C2759 0.961 . S
H2776 C2760 0.931 . S
H2777 C2765 0.930 . S
H2778 C2766 0.956 . S
H2779 C2766 0.961 . S
H2780 C2766 0.961 . S
H2781 C2767 0.958 . S
H2782 C2767 0.961 . S
H2783 C2767 0.960 1_556 S
C2784 C2785 1.391 . S
C2784 C2786 1.394 . S
C2784 H2800 0.931 . S
C2785 C2784 1.391 . S
C2785 C2789 1.376 . S
C2786 C2784 1.394 . S
C2786 C2787 1.369 . S
C2786 C2790 1.531 . S
C2787 C2786 1.369 . S
C2787 C2788 1.410 . S
C2787 C2795 1.503 . S
C2788 C2787 1.410 . S
C2788 C2789 1.392 . S
C2788 C2791 1.511 . S
C2789 C2785 1.376 . S
C2789 C2788 1.392 . S
C2789 H2801 0.929 . S
C2790 C2786 1.531 . S
C2790 H2802 0.960 . S
C2790 H2803 0.962 . S
C2790 H2804 0.960 . S
C2791 C2788 1.511 . S
C2791 H2805 0.961 . S
C2791 H2806 0.961 . S
C2791 H2807 0.961 . S
C2792 C2793 1.370 . S
C2792 C2794 1.363 . S
C2792 H2808 0.931 . S
C2793 C2792 1.370 . S
C2793 C2797 1.408 . S
C2794 C2792 1.363 . S
C2794 C2795 1.370 . S
C2794 C2798 1.524 . S
C2795 C2787 1.503 . S
C2795 C2794 1.370 . S
C2795 C2796 1.403 . S
C2796 C2795 1.403 . S
C2796 C2797 1.404 . S
C2796 C2799 1.539 . S
C2797 C2793 1.408 . S
C2797 C2796 1.404 . S
C2797 H2809 0.930 . S
C2798 C2794 1.524 . S
C2798 H2810 0.956 . S
C2798 H2811 0.961 . S
C2798 H2812 0.961 . S
C2799 C2796 1.539 . S
C2799 H2813 0.958 . S
C2799 H2814 0.961 . S
C2799 H2815 0.960 . S
H2800 C2784 0.931 . S
H2801 C2789 0.929 . S
H2802 C2790 0.960 . S
H2803 C2790 0.962 . S
H2804 C2790 0.960 . S
H2805 C2791 0.961 . S
H2806 C2791 0.961 . S
H2807 C2791 0.961 . S
H2808 C2792 0.931 . S
H2809 C2797 0.930 . S
H2810 C2798 0.956 . S
H2811 C2798 0.961 . S
H2812 C2798 0.961 . S
H2813 C2799 0.958 . S
H2814 C2799 0.961 . S
H2815 C2799 0.960 . S
C2816 C2817 1.391 . S
C2816 C2818 1.394 1_556 S
C2816 H2832 0.931 . S
C2817 C2816 1.391 . S
C2817 C2821 1.376 . S
C2818 C2816 1.394 1_554 S
C2818 C2819 1.369 . S
C2818 C2822 1.531 . S
C2819 C2818 1.369 . S
C2819 C2820 1.410 . S
C2819 C2827 1.503 . S
C2820 C2819 1.410 . S
C2820 C2821 1.392 1_554 S
C2820 C2823 1.511 . S
C2821 C2817 1.376 . S
C2821 C2820 1.392 1_556 S
C2821 H2833 0.929 . S
C2822 C2818 1.531 . S
C2822 H2834 0.960 . S
C2822 H2835 0.962 . S
C2822 H2836 0.960 . S
C2823 C2820 1.511 . S
C2823 H2837 0.961 . S
C2823 H2838 0.961 . S
C2823 H2839 0.961 . S
C2824 C2825 1.370 . S
C2824 C2826 1.363 . S
C2824 H2840 0.931 . S
C2825 C2824 1.370 . S
C2825 C2829 1.408 . S
C2826 C2824 1.363 . S
C2826 C2827 1.370 . S
C2826 C2830 1.524 . S
C2827 C2819 1.503 . S
C2827 C2826 1.370 . S
C2827 C2828 1.403 . S
C2828 C2827 1.403 . S
C2828 C2829 1.404 . S
C2828 C2831 1.539 . S
C2829 C2825 1.408 . S
C2829 C2828 1.404 . S
C2829 H2841 0.930 . S
C2830 C2826 1.524 . S
C2830 H2842 0.956 . S
C2830 H2843 0.961 . S
C2830 H2844 0.961 . S
C2831 C2828 1.539 . S
C2831 H2845 0.958 . S
C2831 H2846 0.961 . S
C2831 H2847 0.960 . S
H2832 C2816 0.931 . S
H2833 C2821 0.929 . S
H2834 C2822 0.960 . S
H2835 C2822 0.962 . S
H2836 C2822 0.960 . S
H2837 C2823 0.961 . S
H2838 C2823 0.961 . S
H2839 C2823 0.961 . S
H2840 C2824 0.931 . S
H2841 C2829 0.930 . S
H2842 C2830 0.956 . S
H2843 C2830 0.961 . S
H2844 C2830 0.961 . S
H2845 C2831 0.958 . S
H2846 C2831 0.961 . S
H2847 C2831 0.960 . S
C2848 C2849 1.391 . S
C2848 C2850 1.394 . S
C2848 H2864 0.931 . S
C2849 C2848 1.391 . S
C2849 C2853 1.376 . S
C2850 C2848 1.394 . S
C2850 C2851 1.369 . S
C2850 C2854 1.531 . S
C2851 C2850 1.369 . S
C2851 C2852 1.410 . S
C2851 C2859 1.503 . S
C2852 C2851 1.410 . S
C2852 C2853 1.392 . S
C2852 C2855 1.511 . S
C2853 C2849 1.376 . S
C2853 C2852 1.392 . S
C2853 H2865 0.929 . S
C2854 C2850 1.531 . S
C2854 H2866 0.960 . S
C2854 H2867 0.962 . S
C2854 H2868 0.960 . S
C2855 C2852 1.511 . S
C2855 H2869 0.961 . S
C2855 H2870 0.961 . S
C2855 H2871 0.961 . S
C2856 C2857 1.370 . S
C2856 C2858 1.363 . S
C2856 H2872 0.931 . S
C2857 C2856 1.370 . S
C2857 C2861 1.408 . S
C2858 C2856 1.363 . S
C2858 C2859 1.370 . S
C2858 C2862 1.524 . S
C2859 C2851 1.503 . S
C2859 C2858 1.370 . S
C2859 C2860 1.403 . S
C2860 C2859 1.403 . S
C2860 C2861 1.404 . S
C2860 C2863 1.539 . S
C2861 C2857 1.408 . S
C2861 C2860 1.404 . S
C2861 H2873 0.930 . S
C2862 C2858 1.524 . S
C2862 H2874 0.956 . S
C2862 H2875 0.961 . S
C2862 H2876 0.961 . S
C2863 C2860 1.539 . S
C2863 H2877 0.958 . S
C2863 H2878 0.961 . S
C2863 H2879 0.960 . S
H2864 C2848 0.931 . S
H2865 C2853 0.929 . S
H2866 C2854 0.960 . S
H2867 C2854 0.962 . S
H2868 C2854 0.960 . S
H2869 C2855 0.961 . S
H2870 C2855 0.961 . S
H2871 C2855 0.961 . S
H2872 C2856 0.931 . S
H2873 C2861 0.930 . S
H2874 C2862 0.956 . S
H2875 C2862 0.961 . S
H2876 C2862 0.961 . S
H2877 C2863 0.958 . S
H2878 C2863 0.961 . S
H2879 C2863 0.960 . S
C2880 C2881 1.391 . S
C2880 C2882 1.394 . S
C2880 H2896 0.931 . S
C2881 C2880 1.391 . S
C2881 C2885 1.376 . S
C2882 C2880 1.394 . S
C2882 C2883 1.369 . S
C2882 C2886 1.531 . S
C2883 C2882 1.369 . S
C2883 C2884 1.410 . S
C2883 C2891 1.503 1_556 S
C2884 C2883 1.410 . S
C2884 C2885 1.392 . S
C2884 C2887 1.511 . S
C2885 C2881 1.376 . S
C2885 C2884 1.392 . S
C2885 H2897 0.929 . S
C2886 C2882 1.531 . S
C2886 H2898 0.934 1_556 S
C2886 H2899 0.962 . S
C2886 H2900 0.960 . S
C2887 C2884 1.511 . S
C2887 H2901 0.961 . S
C2887 H2902 0.961 . S
C2887 H2903 0.961 . S
C2888 C2889 1.370 . S
C2888 C2890 1.363 . S
C2888 H2904 0.931 . S
C2889 C2888 1.370 . S
C2889 C2893 1.408 . S
C2890 C2888 1.363 . S
C2890 C2891 1.370 . S
C2890 C2894 1.524 . S
C2891 C2883 1.503 1_554 S
C2891 C2890 1.370 . S
C2891 C2892 1.403 . S
C2892 C2891 1.403 . S
C2892 C2893 1.404 . S
C2892 C2895 1.539 . S
C2893 C2889 1.408 . S
C2893 C2892 1.404 . S
C2893 H2905 0.930 . S
C2894 C2890 1.524 . S
C2894 H2906 0.965 . S
C2894 H2907 0.961 1_554 S
C2894 H2908 0.961 . S
C2895 C2892 1.539 . S
C2895 H2909 0.958 . S
C2895 H2910 0.961 . S
C2895 H2911 0.960 1_554 S
H2896 C2880 0.931 . S
H2897 C2885 0.929 . S
H2898 C2886 0.934 1_554 S
H2899 C2886 0.962 . S
H2900 C2886 0.960 . S
H2901 C2887 0.961 . S
H2902 C2887 0.961 . S
H2903 C2887 0.961 . S
H2904 C2888 0.931 . S
H2905 C2893 0.930 . S
H2906 C2894 0.965 . S
H2907 C2894 0.961 1_556 S
H2908 C2894 0.961 . S
H2909 C2895 0.958 . S
H2910 C2895 0.961 . S
H2911 C2895 0.960 1_556 S
C2912 C2913 1.391 . S
C2912 C2914 1.394 . S
C2912 H2928 0.931 . S
C2913 C2912 1.391 . S
C2913 C2917 1.376 . S
C2914 C2912 1.394 . S
C2914 C2915 1.369 . S
C2914 C2918 1.531 . S
C2915 C2914 1.369 . S
C2915 C2916 1.410 . S
C2915 C2923 1.503 . S
C2916 C2915 1.410 . S
C2916 C2917 1.392 . S
C2916 C2919 1.511 . S
C2917 C2913 1.376 . S
C2917 C2916 1.392 . S
C2917 H2929 0.929 . S
C2918 C2914 1.531 . S
C2918 H2930 0.960 . S
C2918 H2931 0.962 . S
C2918 H2932 0.960 . S
C2919 C2916 1.511 . S
C2919 H2933 0.961 . S
C2919 H2934 0.961 . S
C2919 H2935 0.961 . S
C2920 C2921 1.370 . S
C2920 C2922 1.363 . S
C2920 H2936 0.931 . S
C2921 C2920 1.370 . S
C2921 C2925 1.408 . S
C2922 C2920 1.363 . S
C2922 C2923 1.370 . S
C2922 C2926 1.524 . S
C2923 C2915 1.503 . S
C2923 C2922 1.370 . S
C2923 C2924 1.403 . S
C2924 C2923 1.403 . S
C2924 C2925 1.404 . S
C2924 C2927 1.539 . S
C2925 C2921 1.408 . S
C2925 C2924 1.404 . S
C2925 H2937 0.930 . S
C2926 C2922 1.524 . S
C2926 H2938 0.956 . S
C2926 H2939 0.961 . S
C2926 H2940 0.961 . S
C2927 C2924 1.539 . S
C2927 H2941 0.958 . S
C2927 H2942 0.961 . S
C2927 H2943 0.960 . S
H2928 C2912 0.931 . S
H2929 C2917 0.929 . S
H2930 C2918 0.960 . S
H2931 C2918 0.962 . S
H2932 C2918 0.960 . S
H2933 C2919 0.961 . S
H2934 C2919 0.961 . S
H2935 C2919 0.961 . S
H2936 C2920 0.931 . S
H2937 C2925 0.930 . S
H2938 C2926 0.956 . S
H2939 C2926 0.961 . S
H2940 C2926 0.961 . S
H2941 C2927 0.958 . S
H2942 C2927 0.961 . S
H2943 C2927 0.960 . S
C2944 C2945 1.391 . S
C2944 C2946 1.394 . S
C2944 H2960 0.931 . S
C2945 C2944 1.391 . S
C2945 C2949 1.376 . S
C2946 C2944 1.394 . S
C2946 C2947 1.369 . S
C2946 C2950 1.531 . S
C2947 C2946 1.369 . S
C2947 C2948 1.410 . S
C2947 C2955 1.503 . S
C2948 C2947 1.410 . S
C2948 C2949 1.392 . S
C2948 C2951 1.511 . S
C2949 C2945 1.376 . S
C2949 C2948 1.392 . S
C2949 H2961 0.929 . S
C2950 C2946 1.531 . S
C2950 H2962 0.960 . S
C2950 H2963 0.962 . S
C2950 H2964 0.960 . S
C2951 C2948 1.511 . S
C2951 H2965 0.961 . S
C2951 H2966 0.961 . S
C2951 H2967 0.961 . S
C2952 C2953 1.370 . S
C2952 C2954 1.363 . S
C2952 H2968 0.931 . S
C2953 C2952 1.370 . S
C2953 C2957 1.408 . S
C2954 C2952 1.363 . S
C2954 C2955 1.370 . S
C2954 C2958 1.524 . S
C2955 C2947 1.503 . S
C2955 C2954 1.370 . S
C2955 C2956 1.403 . S
C2956 C2955 1.403 . S
C2956 C2957 1.404 . S
C2956 C2959 1.539 . S
C2957 C2953 1.408 . S
C2957 C2956 1.404 . S
C2957 H2969 0.930 . S
C2958 C2954 1.524 . S
C2958 H2970 0.956 . S
C2958 H2971 0.961 . S
C2958 H2972 0.961 . S
C2959 C2956 1.539 . S
C2959 H2973 0.958 . S
C2959 H2974 0.961 . S
C2959 H2975 0.960 . S
H2960 C2944 0.931 . S
H2961 C2949 0.929 . S
H2962 C2950 0.960 . S
H2963 C2950 0.962 . S
H2964 C2950 0.960 . S
H2965 C2951 0.961 . S
H2966 C2951 0.961 . S
H2967 C2951 0.961 . S
H2968 C2952 0.931 . S
H2969 C2957 0.930 . S
H2970 C2958 0.956 . S
H2971 C2958 0.961 . S
H2972 C2958 0.961 . S
H2973 C2959 0.958 . S
H2974 C2959 0.961 . S
H2975 C2959 0.960 . S
C2976 C2977 1.391 . S
C2976 C2978 1.394 . S
C2976 H2992 0.931 . S
C2977 C2976 1.391 . S
C2977 C2981 1.376 . S
C2978 C2976 1.394 . S
C2978 C2979 1.369 . S
C2978 C2982 1.531 . S
C2979 C2978 1.369 . S
C2979 C2980 1.410 . S
C2979 C2987 1.503 . S
C2980 C2979 1.410 . S
C2980 C2981 1.392 . S
C2980 C2983 1.511 . S
C2981 C2977 1.376 . S
C2981 C2980 1.392 . S
C2981 H2993 0.929 . S
C2982 C2978 1.531 . S
C2982 H2994 0.960 . S
C2982 H2995 0.962 . S
C2982 H2996 0.960 . S
C2983 C2980 1.511 . S
C2983 H2997 0.961 . S
C2983 H2998 0.961 . S
C2983 H2999 0.961 . S
C2984 C2985 1.370 . S
C2984 C2986 1.363 . S
C2984 H3000 0.931 . S
C2985 C2984 1.370 . S
C2985 C2989 1.408 . S
C2986 C2984 1.363 . S
C2986 C2987 1.370 . S
C2986 C2990 1.524 . S
C2987 C2979 1.503 . S
C2987 C2986 1.370 . S
C2987 C2988 1.403 . S
C2988 C2987 1.403 . S
C2988 C2989 1.404 . S
C2988 C2991 1.539 . S
C2989 C2985 1.408 . S
C2989 C2988 1.404 . S
C2989 H3001 0.930 . S
C2990 C2986 1.524 . S
C2990 H3002 0.956 . S
C2990 H3003 0.961 . S
C2990 H3004 0.961 . S
C2991 C2988 1.539 . S
C2991 H3005 0.958 . S
C2991 H3006 0.961 . S
C2991 H3007 0.960 . S
H2992 C2976 0.931 . S
H2993 C2981 0.929 . S
H2994 C2982 0.960 . S
H2995 C2982 0.962 . S
H2996 C2982 0.960 . S
H2997 C2983 0.961 . S
H2998 C2983 0.961 . S
H2999 C2983 0.961 . S
H3000 C2984 0.931 . S
H3001 C2989 0.930 . S
H3002 C2990 0.956 . S
H3003 C2990 0.961 . S
H3004 C2990 0.961 . S
H3005 C2991 0.958 . S
H3006 C2991 0.961 . S
H3007 C2991 0.960 . S
C3008 C3009 1.391 . S
C3008 C3010 1.394 . S
C3008 H3024 0.931 . S
C3009 C3008 1.391 . S
C3009 C3013 1.376 . S
C3010 C3008 1.394 . S
C3010 C3011 1.369 . S
C3010 C3014 1.531 . S
C3011 C3010 1.369 . S
C3011 C3012 1.410 . S
C3011 C3019 1.503 . S
C3012 C3011 1.410 . S
C3012 C3013 1.392 . S
C3012 C3015 1.511 . S
C3013 C3009 1.376 . S
C3013 C3012 1.392 . S
C3013 H3025 0.929 . S
C3014 C3010 1.531 . S
C3014 H3026 0.960 . S
C3014 H3027 0.962 . S
C3014 H3028 0.960 . S
C3015 C3012 1.511 . S
C3015 H3029 0.961 . S
C3015 H3030 0.961 . S
C3015 H3031 0.961 . S
C3016 C3017 1.370 . S
C3016 C3018 1.363 . S
C3016 H3032 0.931 . S
C3017 C3016 1.370 . S
C3017 C3021 1.408 . S
C3018 C3016 1.363 . S
C3018 C3019 1.370 . S
C3018 C3022 1.524 . S
C3019 C3011 1.503 . S
C3019 C3018 1.370 . S
C3019 C3020 1.403 . S
C3020 C3019 1.403 . S
C3020 C3021 1.404 . S
C3020 C3023 1.539 . S
C3021 C3017 1.408 . S
C3021 C3020 1.404 . S
C3021 H3033 0.930 . S
C3022 C3018 1.524 . S
C3022 H3034 0.956 . S
C3022 H3035 0.961 . S
C3022 H3036 0.961 . S
C3023 C3020 1.539 . S
C3023 H3037 0.958 . S
C3023 H3038 0.961 . S
C3023 H3039 0.960 . S
H3024 C3008 0.931 . S
H3025 C3013 0.929 . S
H3026 C3014 0.960 . S
H3027 C3014 0.962 . S
H3028 C3014 0.960 . S
H3029 C3015 0.961 . S
H3030 C3015 0.961 . S
H3031 C3015 0.961 . S
H3032 C3016 0.931 . S
H3033 C3021 0.930 . S
H3034 C3022 0.956 . S
H3035 C3022 0.961 . S
H3036 C3022 0.961 . S
H3037 C3023 0.958 . S
H3038 C3023 0.961 . S
H3039 C3023 0.960 . S
C3040 C3041 1.391 . S
C3040 C3042 1.394 . S
C3040 H3056 0.931 . S
C3041 C3040 1.391 . S
C3041 C3045 1.376 . S
C3042 C3040 1.394 . S
C3042 C3043 1.369 . S
C3042 C3046 1.531 . S
C3043 C3042 1.369 . S
C3043 C3044 1.410 . S
C3043 C3051 1.503 . S
C3044 C3043 1.410 . S
C3044 C3045 1.392 . S
C3044 C3047 1.511 . S
C3045 C3041 1.376 . S
C3045 C3044 1.392 . S
C3045 H3057 0.929 . S
C3046 C3042 1.531 . S
C3046 H3058 0.960 . S
C3046 H3059 0.962 . S
C3046 H3060 0.960 . S
C3047 C3044 1.511 . S
C3047 H3061 0.961 . S
C3047 H3062 0.961 . S
C3047 H3063 0.961 . S
C3048 C3049 1.370 . S
C3048 C3050 1.363 . S
C3048 H3064 0.931 . S
C3049 C3048 1.370 . S
C3049 C3053 1.408 . S
C3050 C3048 1.363 . S
C3050 C3051 1.370 . S
C3050 C3054 1.524 . S
C3051 C3043 1.503 . S
C3051 C3050 1.370 . S
C3051 C3052 1.403 . S
C3052 C3051 1.403 . S
C3052 C3053 1.404 . S
C3052 C3055 1.539 . S
C3053 C3049 1.408 . S
C3053 C3052 1.404 . S
C3053 H3065 0.930 . S
C3054 C3050 1.524 . S
C3054 H3066 0.956 . S
C3054 H3067 0.961 . S
C3054 H3068 0.961 . S
C3055 C3052 1.539 . S
C3055 H3069 0.958 . S
C3055 H3070 0.961 . S
C3055 H3071 0.960 . S
H3056 C3040 0.931 . S
H3057 C3045 0.929 . S
H3058 C3046 0.960 . S
H3059 C3046 0.962 . S
H3060 C3046 0.960 . S
H3061 C3047 0.961 . S
H3062 C3047 0.961 . S
H3063 C3047 0.961 . S
H3064 C3048 0.931 . S
H3065 C3053 0.930 . S
H3066 C3054 0.956 . S
H3067 C3054 0.961 . S
H3068 C3054 0.961 . S
H3069 C3055 0.958 . S
H3070 C3055 0.961 . S
H3071 C3055 0.960 . S
C3072 C3073 1.391 . S
C3072 C3074 1.394 . S
C3072 H3088 0.931 . S
C3073 C3072 1.391 . S
C3073 C3077 1.376 . S
C3074 C3072 1.394 . S
C3074 C3075 1.369 . S
C3074 C3078 1.531 . S
C3075 C3074 1.369 . S
C3075 C3076 1.410 . S
C3075 C3083 1.503 . S
C3076 C3075 1.410 . S
C3076 C3077 1.392 . S
C3076 C3079 1.511 . S
C3077 C3073 1.376 . S
C3077 C3076 1.392 . S
C3077 H3089 0.929 . S
C3078 C3074 1.531 . S
C3078 H3090 0.960 . S
C3078 H3091 0.962 . S
C3078 H3092 0.960 . S
C3079 C3076 1.511 . S
C3079 H3093 0.961 . S
C3079 H3094 0.961 . S
C3079 H3095 0.961 . S
C3080 C3081 1.370 . S
C3080 C3082 1.363 . S
C3080 H3096 0.931 . S
C3081 C3080 1.370 . S
C3081 C3085 1.408 . S
C3082 C3080 1.363 . S
C3082 C3083 1.370 . S
C3082 C3086 1.524 . S
C3083 C3075 1.503 . S
C3083 C3082 1.370 . S
C3083 C3084 1.403 . S
C3084 C3083 1.403 . S
C3084 C3085 1.404 . S
C3084 C3087 1.539 . S
C3085 C3081 1.408 . S
C3085 C3084 1.404 . S
C3085 H3097 0.930 . S
C3086 C3082 1.524 . S
C3086 H3098 0.956 . S
C3086 H3099 0.961 . S
C3086 H3100 0.961 . S
C3087 C3084 1.539 . S
C3087 H3101 0.958 . S
C3087 H3102 0.961 . S
C3087 H3103 0.960 . S
H3088 C3072 0.931 . S
H3089 C3077 0.929 . S
H3090 C3078 0.960 . S
H3091 C3078 0.962 . S
H3092 C3078 0.960 . S
H3093 C3079 0.961 . S
H3094 C3079 0.961 . S
H3095 C3079 0.961 . S
H3096 C3080 0.931 . S
H3097 C3085 0.930 . S
H3098 C3086 0.956 . S
H3099 C3086 0.961 . S
H3100 C3086 0.961 . S
H3101 C3087 0.958 . S
H3102 C3087 0.961 . S
H3103 C3087 0.960 . S
C3104 C3105 1.391 . S
C3104 C3106 1.394 . S
C3104 H3120 0.931 . S
C3105 C3104 1.391 . S
C3105 C3109 1.376 . S
C3106 C3104 1.394 . S
C3106 C3107 1.369 . S
C3106 C3110 1.531 . S
C3107 C3106 1.369 . S
C3107 C3108 1.410 . S
C3107 C3115 1.503 . S
C3108 C3107 1.410 . S
C3108 C3109 1.392 . S
C3108 C3111 1.511 . S
C3109 C3105 1.376 . S
C3109 C3108 1.392 . S
C3109 H3121 0.929 . S
C3110 C3106 1.531 . S
C3110 H3122 0.960 . S
C3110 H3123 0.962 . S
C3110 H3124 0.960 . S
C3111 C3108 1.511 . S
C3111 H3125 0.961 . S
C3111 H3126 0.961 . S
C3111 H3127 0.961 . S
C3112 C3113 1.370 . S
C3112 C3114 1.363 . S
C3112 H3128 0.931 . S
C3113 C3112 1.370 . S
C3113 C3117 1.408 . S
C3114 C3112 1.363 . S
C3114 C3115 1.370 . S
C3114 C3118 1.524 . S
C3115 C3107 1.503 . S
C3115 C3114 1.370 . S
C3115 C3116 1.403 . S
C3116 C3115 1.403 . S
C3116 C3117 1.404 . S
C3116 C3119 1.539 . S
C3117 C3113 1.408 . S
C3117 C3116 1.404 . S
C3117 H3129 0.930 . S
C3118 C3114 1.524 . S
C3118 H3130 0.956 . S
C3118 H3131 0.961 . S
C3118 H3132 0.961 . S
C3119 C3116 1.539 . S
C3119 H3133 0.958 . S
C3119 H3134 0.961 . S
C3119 H3135 0.960 . S
H3120 C3104 0.931 . S
H3121 C3109 0.929 . S
H3122 C3110 0.960 . S
H3123 C3110 0.962 . S
H3124 C3110 0.960 . S
H3125 C3111 0.961 . S
H3126 C3111 0.961 . S
H3127 C3111 0.961 . S
H3128 C3112 0.931 . S
H3129 C3117 0.930 . S
H3130 C3118 0.956 . S
H3131 C3118 0.961 . S
H3132 C3118 0.961 . S
H3133 C3119 0.958 . S
H3134 C3119 0.961 . S
H3135 C3119 0.960 . S
C3136 C3137 1.391 . S
C3136 C3138 1.394 . S
C3136 H3152 0.931 . S
C3137 C3136 1.391 . S
C3137 C3141 1.376 . S
C3138 C3136 1.394 . S
C3138 C3139 1.369 . S
C3138 C3142 1.531 . S
C3139 C3138 1.369 . S
C3139 C3140 1.410 . S
C3139 C3147 1.503 . S
C3140 C3139 1.410 . S
C3140 C3141 1.392 . S
C3140 C3143 1.511 . S
C3141 C3137 1.376 . S
C3141 C3140 1.392 . S
C3141 H3153 0.929 . S
C3142 C3138 1.531 . S
C3142 H3154 0.960 . S
C3142 H3155 0.962 . S
C3142 H3156 0.960 . S
C3143 C3140 1.511 . S
C3143 H3157 0.961 . S
C3143 H3158 0.961 . S
C3143 H3159 0.961 . S
C3144 C3145 1.370 . S
C3144 C3146 1.363 . S
C3144 H3160 0.931 . S
C3145 C3144 1.370 . S
C3145 C3149 1.408 . S
C3146 C3144 1.363 . S
C3146 C3147 1.370 . S
C3146 C3150 1.524 . S
C3147 C3139 1.503 . S
C3147 C3146 1.370 . S
C3147 C3148 1.403 . S
C3148 C3147 1.403 . S
C3148 C3149 1.404 . S
C3148 C3151 1.539 . S
C3149 C3145 1.408 . S
C3149 C3148 1.404 . S
C3149 H3161 0.930 . S
C3150 C3146 1.524 . S
C3150 H3162 0.956 . S
C3150 H3163 0.961 . S
C3150 H3164 0.961 . S
C3151 C3148 1.539 . S
C3151 H3165 0.958 . S
C3151 H3166 0.961 . S
C3151 H3167 0.960 . S
H3152 C3136 0.931 . S
H3153 C3141 0.929 . S
H3154 C3142 0.960 . S
H3155 C3142 0.962 . S
H3156 C3142 0.960 . S
H3157 C3143 0.961 . S
H3158 C3143 0.961 . S
H3159 C3143 0.961 . S
H3160 C3144 0.931 . S
H3161 C3149 0.930 . S
H3162 C3150 0.956 . S
H3163 C3150 0.961 . S
H3164 C3150 0.961 . S
H3165 C3151 0.958 . S
H3166 C3151 0.961 . S
H3167 C3151 0.960 . S
C3168 C3169 1.391 . S
C3168 C3170 1.394 . S
C3168 H3184 0.931 . S
C3169 C3168 1.391 . S
C3169 C3173 1.376 . S
C3170 C3168 1.394 . S
C3170 C3171 1.369 . S
C3170 C3174 1.531 . S
C3171 C3170 1.369 . S
C3171 C3172 1.410 . S
C3171 C3179 1.503 . S
C3172 C3171 1.410 . S
C3172 C3173 1.392 . S
C3172 C3175 1.511 . S
C3173 C3169 1.376 . S
C3173 C3172 1.392 . S
C3173 H3185 0.929 . S
C3174 C3170 1.531 . S
C3174 H3186 0.960 . S
C3174 H3187 0.962 . S
C3174 H3188 0.960 . S
C3175 C3172 1.511 . S
C3175 H3189 0.961 . S
C3175 H3190 0.961 . S
C3175 H3191 0.961 . S
C3176 C3177 1.370 . S
C3176 C3178 1.363 . S
C3176 H3192 0.931 . S
C3177 C3176 1.370 . S
C3177 C3181 1.408 . S
C3178 C3176 1.363 . S
C3178 C3179 1.370 . S
C3178 C3182 1.524 . S
C3179 C3171 1.503 . S
C3179 C3178 1.370 . S
C3179 C3180 1.403 . S
C3180 C3179 1.403 . S
C3180 C3181 1.404 . S
C3180 C3183 1.539 . S
C3181 C3177 1.408 . S
C3181 C3180 1.404 . S
C3181 H3193 0.930 . S
C3182 C3178 1.524 . S
C3182 H3194 0.956 . S
C3182 H3195 0.961 . S
C3182 H3196 0.961 . S
C3183 C3180 1.539 . S
C3183 H3197 0.958 . S
C3183 H3198 0.961 . S
C3183 H3199 0.960 . S
H3184 C3168 0.931 . S
H3185 C3173 0.929 . S
H3186 C3174 0.960 . S
H3187 C3174 0.962 . S
H3188 C3174 0.960 . S
H3189 C3175 0.961 . S
H3190 C3175 0.961 . S
H3191 C3175 0.961 . S
H3192 C3176 0.931 . S
H3193 C3181 0.930 . S
H3194 C3182 0.956 . S
H3195 C3182 0.961 . S
H3196 C3182 0.961 . S
H3197 C3183 0.958 . S
H3198 C3183 0.961 . S
H3199 C3183 0.960 . S
C3200 C3201 1.391 . S
C3200 C3202 1.394 . S
C3200 H3216 0.931 . S
C3201 C3200 1.391 . S
C3201 C3205 1.376 . S
C3202 C3200 1.394 . S
C3202 C3203 1.369 . S
C3202 C3206 1.531 . S
C3203 C3202 1.369 . S
C3203 C3204 1.410 . S
C3203 C3211 1.503 . S
C3204 C3203 1.410 . S
C3204 C3205 1.392 . S
C3204 C3207 1.511 . S
C3205 C3201 1.376 . S
C3205 C3204 1.392 . S
C3205 H3217 0.929 . S
C3206 C3202 1.531 . S
C3206 H3218 0.960 . S
C3206 H3219 0.962 . S
C3206 H3220 0.960 . S
C3207 C3204 1.511 . S
C3207 H3221 0.961 . S
C3207 H3222 0.961 . S
C3207 H3223 0.961 . S
C3208 C3209 1.370 . S
C3208 C3210 1.363 . S
C3208 H3224 0.931 . S
C3209 C3208 1.370 . S
C3209 C3213 1.408 . S
C3210 C3208 1.363 . S
C3210 C3211 1.370 . S
C3210 C3214 1.524 . S
C3211 C3203 1.503 . S
C3211 C3210 1.370 . S
C3211 C3212 1.403 . S
C3212 C3211 1.403 . S
C3212 C3213 1.404 . S
C3212 C3215 1.539 . S
C3213 C3209 1.408 . S
C3213 C3212 1.404 . S
C3213 H3225 0.930 . S
C3214 C3210 1.524 . S
C3214 H3226 0.956 . S
C3214 H3227 0.961 . S
C3214 H3228 0.961 . S
C3215 C3212 1.539 . S
C3215 H3229 0.958 . S
C3215 H3230 0.961 . S
C3215 H3231 0.960 . S
H3216 C3200 0.931 . S
H3217 C3205 0.929 . S
H3218 C3206 0.960 . S
H3219 C3206 0.962 . S
H3220 C3206 0.960 . S
H3221 C3207 0.961 . S
H3222 C3207 0.961 . S
H3223 C3207 0.961 . S
H3224 C3208 0.931 . S
H3225 C3213 0.930 . S
H3226 C3214 0.956 . S
H3227 C3214 0.961 . S
H3228 C3214 0.961 . S
H3229 C3215 0.958 . S
H3230 C3215 0.961 . S
H3231 C3215 0.960 . S
C3232 C3233 1.391 . S
C3232 C3234 1.394 . S
C3232 H3248 0.931 . S
C3233 C3232 1.391 . S
C3233 C3237 1.376 . S
C3234 C3232 1.394 . S
C3234 C3235 1.369 . S
C3234 C3238 1.531 . S
C3235 C3234 1.369 . S
C3235 C3236 1.410 . S
C3235 C3243 1.503 . S
C3236 C3235 1.410 . S
C3236 C3237 1.392 . S
C3236 C3239 1.511 . S
C3237 C3233 1.376 . S
C3237 C3236 1.392 . S
C3237 H3249 0.929 . S
C3238 C3234 1.531 . S
C3238 H3250 0.960 . S
C3238 H3251 0.962 . S
C3238 H3252 0.960 . S
C3239 C3236 1.511 . S
C3239 H3253 0.961 . S
C3239 H3254 0.961 . S
C3239 H3255 0.961 . S
C3240 C3241 1.370 . S
C3240 C3242 1.363 . S
C3240 H3256 0.931 . S
C3241 C3240 1.370 . S
C3241 C3245 1.408 . S
C3242 C3240 1.363 . S
C3242 C3243 1.370 . S
C3242 C3246 1.524 . S
C3243 C3235 1.503 . S
C3243 C3242 1.370 . S
C3243 C3244 1.403 . S
C3244 C3243 1.403 . S
C3244 C3245 1.404 . S
C3244 C3247 1.539 . S
C3245 C3241 1.408 . S
C3245 C3244 1.404 . S
C3245 H3257 0.930 . S
C3246 C3242 1.524 . S
C3246 H3258 0.956 . S
C3246 H3259 0.961 . S
C3246 H3260 0.961 . S
C3247 C3244 1.539 . S
C3247 H3261 0.958 . S
C3247 H3262 0.961 . S
C3247 H3263 0.960 . S
H3248 C3232 0.931 . S
H3249 C3237 0.929 . S
H3250 C3238 0.960 . S
H3251 C3238 0.962 . S
H3252 C3238 0.960 . S
H3253 C3239 0.961 . S
H3254 C3239 0.961 . S
H3255 C3239 0.961 . S
H3256 C3240 0.931 . S
H3257 C3245 0.930 . S
H3258 C3246 0.956 . S
H3259 C3246 0.961 . S
H3260 C3246 0.961 . S
H3261 C3247 0.958 . S
H3262 C3247 0.961 . S
H3263 C3247 0.960 . S
C3264 C3265 1.391 . S
C3264 C3266 1.394 . S
C3264 H3280 0.931 . S
C3265 C3264 1.391 . S
C3265 C3269 1.376 . S
C3266 C3264 1.394 . S
C3266 C3267 1.369 . S
C3266 C3270 1.531 . S
C3267 C3266 1.369 . S
C3267 C3268 1.410 . S
C3267 C3275 1.503 . S
C3268 C3267 1.410 . S
C3268 C3269 1.392 . S
C3268 C3271 1.511 . S
C3269 C3265 1.376 . S
C3269 C3268 1.392 . S
C3269 H3281 0.929 . S
C3270 C3266 1.531 . S
C3270 H3282 0.960 . S
C3270 H3283 0.962 . S
C3270 H3284 0.960 . S
C3271 C3268 1.511 . S
C3271 H3285 0.961 . S
C3271 H3286 0.961 . S
C3271 H3287 0.961 . S
C3272 C3273 1.370 . S
C3272 C3274 1.363 . S
C3272 H3288 0.931 . S
C3273 C3272 1.370 . S
C3273 C3277 1.408 . S
C3274 C3272 1.363 . S
C3274 C3275 1.370 . S
C3274 C3278 1.524 . S
C3275 C3267 1.503 . S
C3275 C3274 1.370 . S
C3275 C3276 1.403 . S
C3276 C3275 1.403 . S
C3276 C3277 1.404 . S
C3276 C3279 1.539 . S
C3277 C3273 1.408 . S
C3277 C3276 1.404 . S
C3277 H3289 0.930 . S
C3278 C3274 1.524 . S
C3278 H3290 0.956 . S
C3278 H3291 0.961 . S
C3278 H3292 0.961 . S
C3279 C3276 1.539 . S
C3279 H3293 0.958 . S
C3279 H3294 0.961 . S
C3279 H3295 0.960 . S
H3280 C3264 0.931 . S
H3281 C3269 0.929 . S
H3282 C3270 0.960 . S
H3283 C3270 0.962 . S
H3284 C3270 0.960 . S
H3285 C3271 0.961 . S
H3286 C3271 0.961 . S
H3287 C3271 0.961 . S
H3288 C3272 0.931 . S
H3289 C3277 0.930 . S
H3290 C3278 0.956 . S
H3291 C3278 0.961 . S
H3292 C3278 0.961 . S
H3293 C3279 0.958 . S
H3294 C3279 0.961 . S
H3295 C3279 0.960 . S
C3296 C3297 1.391 . S
C3296 C3298 1.394 . S
C3296 H3312 0.931 . S
C3297 C3296 1.391 . S
C3297 C3301 1.376 . S
C3298 C3296 1.394 . S
C3298 C3299 1.369 . S
C3298 C3302 1.531 . S
C3299 C3298 1.369 . S
C3299 C3300 1.410 . S
C3299 C3307 1.503 . S
C3300 C3299 1.410 . S
C3300 C3301 1.392 . S
C3300 C3303 1.511 . S
C3301 C3297 1.376 . S
C3301 C3300 1.392 . S
C3301 H3313 0.929 . S
C3302 C3298 1.531 . S
C3302 H3314 0.960 . S
C3302 H3315 0.962 . S
C3302 H3316 0.960 . S
C3303 C3300 1.511 . S
C3303 H3317 0.961 . S
C3303 H3318 0.961 . S
C3303 H3319 0.961 . S
C3304 C3305 1.370 . S
C3304 C3306 1.363 . S
C3304 H3320 0.931 . S
C3305 C3304 1.370 . S
C3305 C3309 1.408 . S
C3306 C3304 1.363 . S
C3306 C3307 1.370 . S
C3306 C3310 1.524 . S
C3307 C3299 1.503 . S
C3307 C3306 1.370 . S
C3307 C3308 1.403 . S
C3308 C3307 1.403 . S
C3308 C3309 1.404 . S
C3308 C3311 1.539 . S
C3309 C3305 1.408 . S
C3309 C3308 1.404 . S
C3309 H3321 0.930 . S
C3310 C3306 1.524 . S
C3310 H3322 0.956 . S
C3310 H3323 0.961 . S
C3310 H3324 0.961 . S
C3311 C3308 1.539 . S
C3311 H3325 0.958 . S
C3311 H3326 0.961 . S
C3311 H3327 0.960 . S
H3312 C3296 0.931 . S
H3313 C3301 0.929 . S
H3314 C3302 0.960 . S
H3315 C3302 0.962 . S
H3316 C3302 0.960 . S
H3317 C3303 0.961 . S
H3318 C3303 0.961 . S
H3319 C3303 0.961 . S
H3320 C3304 0.931 . S
H3321 C3309 0.930 . S
H3322 C3310 0.956 . S
H3323 C3310 0.961 . S
H3324 C3310 0.961 . S
H3325 C3311 0.958 . S
H3326 C3311 0.961 . S
H3327 C3311 0.960 . S
C3328 C3329 1.391 . S
C3328 C3330 1.394 . S
C3328 H3344 0.931 . S
C3329 C3328 1.391 . S
C3329 C3333 1.376 . S
C3330 C3328 1.394 . S
C3330 C3331 1.369 . S
C3330 C3334 1.531 . S
C3331 C3330 1.369 . S
C3331 C3332 1.410 . S
C3331 C3339 1.503 . S
C3332 C3331 1.410 . S
C3332 C3333 1.392 . S
C3332 C3335 1.511 . S
C3333 C3329 1.376 . S
C3333 C3332 1.392 . S
C3333 H3345 0.929 . S
C3334 C3330 1.531 . S
C3334 H3346 0.960 . S
C3334 H3347 0.962 . S
C3334 H3348 0.960 . S
C3335 C3332 1.511 . S
C3335 H3349 0.961 . S
C3335 H3350 0.961 . S
C3335 H3351 0.961 . S
C3336 C3337 1.370 . S
C3336 C3338 1.363 . S
C3336 H3352 0.931 . S
C3337 C3336 1.370 . S
C3337 C3341 1.408 . S
C3338 C3336 1.363 . S
C3338 C3339 1.370 . S
C3338 C3342 1.524 . S
C3339 C3331 1.503 . S
C3339 C3338 1.370 . S
C3339 C3340 1.403 . S
C3340 C3339 1.403 . S
C3340 C3341 1.404 . S
C3340 C3343 1.539 . S
C3341 C3337 1.408 . S
C3341 C3340 1.404 . S
C3341 H3353 0.930 . S
C3342 C3338 1.524 . S
C3342 H3354 0.956 . S
C3342 H3355 0.961 . S
C3342 H3356 0.961 . S
C3343 C3340 1.539 . S
C3343 H3357 0.958 . S
C3343 H3358 0.961 . S
C3343 H3359 0.960 . S
H3344 C3328 0.931 . S
H3345 C3333 0.929 . S
H3346 C3334 0.960 . S
H3347 C3334 0.962 . S
H3348 C3334 0.960 . S
H3349 C3335 0.961 . S
H3350 C3335 0.961 . S
H3351 C3335 0.961 . S
H3352 C3336 0.931 . S
H3353 C3341 0.930 . S
H3354 C3342 0.956 . S
H3355 C3342 0.961 . S
H3356 C3342 0.961 . S
H3357 C3343 0.958 . S
H3358 C3343 0.961 . S
H3359 C3343 0.960 . S
C3360 C3361 1.391 . S
C3360 C3362 1.394 . S
C3360 H3376 0.931 . S
C3361 C3360 1.391 . S
C3361 C3365 1.376 . S
C3362 C3360 1.394 . S
C3362 C3363 1.369 . S
C3362 C3366 1.531 . S
C3363 C3362 1.369 . S
C3363 C3364 1.410 . S
C3363 C3371 1.503 . S
C3364 C3363 1.410 . S
C3364 C3365 1.392 . S
C3364 C3367 1.511 . S
C3365 C3361 1.376 . S
C3365 C3364 1.392 . S
C3365 H3377 0.929 . S
C3366 C3362 1.531 . S
C3366 H3378 0.960 . S
C3366 H3379 0.962 . S
C3366 H3380 0.960 . S
C3367 C3364 1.511 . S
C3367 H3381 0.961 . S
C3367 H3382 0.961 . S
C3367 H3383 0.961 . S
C3368 C3369 1.370 . S
C3368 C3370 1.363 . S
C3368 H3384 0.931 . S
C3369 C3368 1.370 . S
C3369 C3373 1.408 . S
C3370 C3368 1.363 . S
C3370 C3371 1.370 . S
C3370 C3374 1.524 . S
C3371 C3363 1.503 . S
C3371 C3370 1.370 . S
C3371 C3372 1.403 . S
C3372 C3371 1.403 . S
C3372 C3373 1.404 . S
C3372 C3375 1.539 . S
C3373 C3369 1.408 . S
C3373 C3372 1.404 . S
C3373 H3385 0.930 . S
C3374 C3370 1.524 . S
C3374 H3386 0.956 . S
C3374 H3387 0.961 . S
C3374 H3388 0.961 . S
C3375 C3372 1.539 . S
C3375 H3389 0.958 . S
C3375 H3390 0.961 . S
C3375 H3391 0.960 . S
H3376 C3360 0.931 . S
H3377 C3365 0.929 . S
H3378 C3366 0.960 . S
H3379 C3366 0.962 . S
H3380 C3366 0.960 . S
H3381 C3367 0.961 . S
H3382 C3367 0.961 . S
H3383 C3367 0.961 . S
H3384 C3368 0.931 . S
H3385 C3373 0.930 . S
H3386 C3374 0.956 . S
H3387 C3374 0.961 . S
H3388 C3374 0.961 . S
H3389 C3375 0.958 . S
H3390 C3375 0.961 . S
H3391 C3375 0.960 . S
C3392 C3393 1.391 . S
C3392 C3394 1.394 . S
C3392 H3408 0.931 . S
C3393 C3392 1.391 . S
C3393 C3397 1.376 . S
C3394 C3392 1.394 . S
C3394 C3395 1.369 . S
C3394 C3398 1.531 . S
C3395 C3394 1.369 . S
C3395 C3396 1.410 . S
C3395 C3403 1.503 . S
C3396 C3395 1.410 . S
C3396 C3397 1.392 . S
C3396 C3399 1.511 . S
C3397 C3393 1.376 . S
C3397 C3396 1.392 . S
C3397 H3409 0.929 . S
C3398 C3394 1.531 . S
C3398 H3410 0.960 . S
C3398 H3411 0.962 . S
C3398 H3412 0.960 . S
C3399 C3396 1.511 . S
C3399 H3413 0.961 . S
C3399 H3414 0.961 . S
C3399 H3415 0.961 . S
C3400 C3401 1.370 . S
C3400 C3402 1.363 . S
C3400 H3416 0.931 . S
C3401 C3400 1.370 . S
C3401 C3405 1.408 . S
C3402 C3400 1.363 . S
C3402 C3403 1.370 . S
C3402 C3406 1.524 . S
C3403 C3395 1.503 . S
C3403 C3402 1.370 . S
C3403 C3404 1.403 . S
C3404 C3403 1.403 . S
C3404 C3405 1.404 . S
C3404 C3407 1.539 . S
C3405 C3401 1.408 . S
C3405 C3404 1.404 . S
C3405 H3417 0.930 . S
C3406 C3402 1.524 . S
C3406 H3418 0.956 . S
C3406 H3419 0.961 . S
C3406 H3420 0.961 . S
C3407 C3404 1.539 . S
C3407 H3421 0.958 . S
C3407 H3422 0.961 . S
C3407 H3423 0.960 . S
H3408 C3392 0.931 . S
H3409 C3397 0.929 . S
H3410 C3398 0.960 . S
H3411 C3398 0.962 . S
H3412 C3398 0.960 . S
H3413 C3399 0.961 . S
H3414 C3399 0.961 . S
H3415 C3399 0.961 . S
H3416 C3400 0.931 . S
H3417 C3405 0.930 . S
H3418 C3406 0.956 . S
H3419 C3406 0.961 . S
H3420 C3406 0.961 . S
H3421 C3407 0.958 . S
H3422 C3407 0.961 . S
H3423 C3407 0.960 . S
C3424 C3425 1.391 . S
C3424 C3426 1.394 . S
C3424 H3440 0.931 . S
C3425 C3424 1.391 . S
C3425 C3429 1.376 . S
C3426 C3424 1.394 . S
C3426 C3427 1.369 . S
C3426 C3430 1.531 . S
C3427 C3426 1.369 . S
C3427 C3428 1.410 . S
C3427 C3435 1.503 . S
C3428 C3427 1.410 . S
C3428 C3429 1.392 . S
C3428 C3431 1.511 . S
C3429 C3425 1.376 . S
C3429 C3428 1.392 . S
C3429 H3441 0.929 . S
C3430 C3426 1.531 . S
C3430 H3442 0.960 . S
C3430 H3443 0.962 . S
C3430 H3444 0.960 . S
C3431 C3428 1.511 . S
C3431 H3445 0.961 . S
C3431 H3446 0.961 . S
C3431 H3447 0.961 . S
C3432 C3433 1.370 . S
C3432 C3434 1.363 . S
C3432 H3448 0.931 . S
C3433 C3432 1.370 . S
C3433 C3437 1.408 . S
C3434 C3432 1.363 . S
C3434 C3435 1.370 . S
C3434 C3438 1.524 . S
C3435 C3427 1.503 . S
C3435 C3434 1.370 . S
C3435 C3436 1.403 . S
C3436 C3435 1.403 . S
C3436 C3437 1.404 . S
C3436 C3439 1.539 . S
C3437 C3433 1.408 . S
C3437 C3436 1.404 . S
C3437 H3449 0.930 . S
C3438 C3434 1.524 . S
C3438 H3450 0.956 . S
C3438 H3451 0.961 . S
C3438 H3452 0.961 . S
C3439 C3436 1.539 . S
C3439 H3453 0.958 . S
C3439 H3454 0.961 . S
C3439 H3455 0.960 . S
H3440 C3424 0.931 . S
H3441 C3429 0.929 . S
H3442 C3430 0.960 . S
H3443 C3430 0.962 . S
H3444 C3430 0.960 . S
H3445 C3431 0.961 . S
H3446 C3431 0.961 . S
H3447 C3431 0.961 . S
H3448 C3432 0.931 . S
H3449 C3437 0.930 . S
H3450 C3438 0.956 . S
H3451 C3438 0.961 . S
H3452 C3438 0.961 . S
H3453 C3439 0.958 . S
H3454 C3439 0.961 . S
H3455 C3439 0.960 . S
C3456 C3457 1.391 . S
C3456 C3458 1.394 . S
C3456 H3472 0.931 . S
C3457 C3456 1.391 . S
C3457 C3461 1.376 . S
C3458 C3456 1.394 . S
C3458 C3459 1.369 . S
C3458 C3462 1.531 . S
C3459 C3458 1.369 . S
C3459 C3460 1.410 . S
C3459 C3467 1.503 . S
C3460 C3459 1.410 . S
C3460 C3461 1.392 . S
C3460 C3463 1.511 . S
C3461 C3457 1.376 . S
C3461 C3460 1.392 . S
C3461 H3473 0.929 . S
C3462 C3458 1.531 . S
C3462 H3474 0.960 . S
C3462 H3475 0.962 . S
C3462 H3476 0.960 . S
C3463 C3460 1.511 . S
C3463 H3477 0.961 . S
C3463 H3478 0.961 . S
C3463 H3479 0.961 . S
C3464 C3465 1.370 . S
C3464 C3466 1.363 . S
C3464 H3480 0.931 . S
C3465 C3464 1.370 . S
C3465 C3469 1.408 . S
C3466 C3464 1.363 . S
C3466 C3467 1.370 . S
C3466 C3470 1.524 . S
C3467 C3459 1.503 . S
C3467 C3466 1.370 . S
C3467 C3468 1.403 . S
C3468 C3467 1.403 . S
C3468 C3469 1.404 . S
C3468 C3471 1.539 . S
C3469 C3465 1.408 . S
C3469 C3468 1.404 . S
C3469 H3481 0.930 . S
C3470 C3466 1.524 . S
C3470 H3482 0.956 . S
C3470 H3483 0.961 . S
C3470 H3484 0.961 . S
C3471 C3468 1.539 . S
C3471 H3485 0.958 . S
C3471 H3486 0.961 . S
C3471 H3487 0.960 . S
H3472 C3456 0.931 . S
H3473 C3461 0.929 . S
H3474 C3462 0.960 . S
H3475 C3462 0.962 . S
H3476 C3462 0.960 . S
H3477 C3463 0.961 . S
H3478 C3463 0.961 . S
H3479 C3463 0.961 . S
H3480 C3464 0.931 . S
H3481 C3469 0.930 . S
H3482 C3470 0.956 . S
H3483 C3470 0.961 . S
H3484 C3470 0.961 . S
H3485 C3471 0.958 . S
H3486 C3471 0.961 . S
H3487 C3471 0.960 . S
C3488 C3489 1.391 . S
C3488 C3490 1.394 . S
C3488 H3504 0.931 . S
C3489 C3488 1.391 . S
C3489 C3493 1.376 . S
C3490 C3488 1.394 . S
C3490 C3491 1.369 . S
C3490 C3494 1.531 . S
C3491 C3490 1.369 . S
C3491 C3492 1.410 . S
C3491 C3499 1.503 . S
C3492 C3491 1.410 . S
C3492 C3493 1.392 . S
C3492 C3495 1.511 . S
C3493 C3489 1.376 . S
C3493 C3492 1.392 . S
C3493 H3505 0.929 . S
C3494 C3490 1.531 . S
C3494 H3506 0.960 . S
C3494 H3507 0.962 . S
C3494 H3508 0.960 . S
C3495 C3492 1.511 . S
C3495 H3509 0.961 . S
C3495 H3510 0.961 . S
C3495 H3511 0.961 . S
C3496 C3497 1.370 . S
C3496 C3498 1.363 . S
C3496 H3512 0.931 . S
C3497 C3496 1.370 . S
C3497 C3501 1.408 . S
C3498 C3496 1.363 . S
C3498 C3499 1.370 . S
C3498 C3502 1.524 . S
C3499 C3491 1.503 . S
C3499 C3498 1.370 . S
C3499 C3500 1.403 . S
C3500 C3499 1.403 . S
C3500 C3501 1.404 . S
C3500 C3503 1.539 . S
C3501 C3497 1.408 . S
C3501 C3500 1.404 . S
C3501 H3513 0.930 . S
C3502 C3498 1.524 . S
C3502 H3514 0.956 . S
C3502 H3515 0.961 . S
C3502 H3516 0.961 . S
C3503 C3500 1.539 . S
C3503 H3517 0.958 . S
C3503 H3518 0.961 . S
C3503 H3519 0.960 . S
H3504 C3488 0.931 . S
H3505 C3493 0.929 . S
H3506 C3494 0.960 . S
H3507 C3494 0.962 . S
H3508 C3494 0.960 . S
H3509 C3495 0.961 . S
H3510 C3495 0.961 . S
H3511 C3495 0.961 . S
H3512 C3496 0.931 . S
H3513 C3501 0.930 . S
H3514 C3502 0.956 . S
H3515 C3502 0.961 . S
H3516 C3502 0.961 . S
H3517 C3503 0.958 . S
H3518 C3503 0.961 . S
H3519 C3503 0.960 . S
C3520 C3521 1.391 . S
C3520 C3522 1.394 . S
C3520 H3536 0.931 . S
C3521 C3520 1.391 . S
C3521 C3525 1.376 . S
C3522 C3520 1.394 . S
C3522 C3523 1.369 . S
C3522 C3526 1.531 . S
C3523 C3522 1.369 . S
C3523 C3524 1.410 . S
C3523 C3531 1.503 . S
C3524 C3523 1.410 . S
C3524 C3525 1.392 . S
C3524 C3527 1.511 . S
C3525 C3521 1.376 . S
C3525 C3524 1.392 . S
C3525 H3537 0.929 . S
C3526 C3522 1.531 . S
C3526 H3538 0.960 . S
C3526 H3539 0.962 . S
C3526 H3540 0.960 . S
C3527 C3524 1.511 . S
C3527 H3541 0.961 . S
C3527 H3542 0.961 . S
C3527 H3543 0.961 . S
C3528 C3529 1.370 . S
C3528 C3530 1.363 . S
C3528 H3544 0.931 . S
C3529 C3528 1.370 . S
C3529 C3533 1.408 . S
C3530 C3528 1.363 . S
C3530 C3531 1.370 . S
C3530 C3534 1.524 . S
C3531 C3523 1.503 . S
C3531 C3530 1.370 . S
C3531 C3532 1.403 . S
C3532 C3531 1.403 . S
C3532 C3533 1.404 . S
C3532 C3535 1.539 . S
C3533 C3529 1.408 . S
C3533 C3532 1.404 . S
C3533 H3545 0.930 . S
C3534 C3530 1.524 . S
C3534 H3546 0.956 . S
C3534 H3547 0.961 . S
C3534 H3548 0.961 . S
C3535 C3532 1.539 . S
C3535 H3549 0.958 . S
C3535 H3550 0.961 . S
C3535 H3551 0.960 . S
H3536 C3520 0.931 . S
H3537 C3525 0.929 . S
H3538 C3526 0.960 . S
H3539 C3526 0.962 . S
H3540 C3526 0.960 . S
H3541 C3527 0.961 . S
H3542 C3527 0.961 . S
H3543 C3527 0.961 . S
H3544 C3528 0.931 . S
H3545 C3533 0.930 . S
H3546 C3534 0.956 . S
H3547 C3534 0.961 . S
H3548 C3534 0.961 . S
H3549 C3535 0.958 . S
H3550 C3535 0.961 . S
H3551 C3535 0.960 . S
C3552 C3553 1.391 . S
C3552 C3554 1.394 . S
C3552 H3568 0.931 . S
C3553 C3552 1.391 . S
C3553 C3557 1.376 . S
C3554 C3552 1.394 . S
C3554 C3555 1.369 . S
C3554 C3558 1.531 . S
C3555 C3554 1.369 . S
C3555 C3556 1.410 . S
C3555 C3563 1.503 . S
C3556 C3555 1.410 . S
C3556 C3557 1.392 . S
C3556 C3559 1.511 . S
C3557 C3553 1.376 . S
C3557 C3556 1.392 . S
C3557 H3569 0.929 . S
C3558 C3554 1.531 . S
C3558 H3570 0.960 . S
C3558 H3571 0.962 . S
C3558 H3572 0.960 . S
C3559 C3556 1.511 . S
C3559 H3573 0.961 . S
C3559 H3574 0.961 . S
C3559 H3575 0.961 . S
C3560 C3561 1.370 . S
C3560 C3562 1.363 . S
C3560 H3576 0.931 . S
C3561 C3560 1.370 . S
C3561 C3565 1.408 . S
C3562 C3560 1.363 . S
C3562 C3563 1.370 . S
C3562 C3566 1.524 . S
C3563 C3555 1.503 . S
C3563 C3562 1.370 . S
C3563 C3564 1.403 . S
C3564 C3563 1.403 . S
C3564 C3565 1.404 . S
C3564 C3567 1.539 . S
C3565 C3561 1.408 . S
C3565 C3564 1.404 . S
C3565 H3577 0.930 . S
C3566 C3562 1.524 . S
C3566 H3578 0.956 . S
C3566 H3579 0.961 . S
C3566 H3580 0.961 . S
C3567 C3564 1.539 . S
C3567 H3581 0.958 . S
C3567 H3582 0.961 . S
C3567 H3583 0.960 . S
H3568 C3552 0.931 . S
H3569 C3557 0.929 . S
H3570 C3558 0.960 . S
H3571 C3558 0.962 . S
H3572 C3558 0.960 . S
H3573 C3559 0.961 . S
H3574 C3559 0.961 . S
H3575 C3559 0.961 . S
H3576 C3560 0.931 . S
H3577 C3565 0.930 . S
H3578 C3566 0.956 . S
H3579 C3566 0.961 . S
H3580 C3566 0.961 . S
H3581 C3567 0.958 . S
H3582 C3567 0.961 . S
H3583 C3567 0.960 . S
C3584 C3585 1.391 . S
C3584 C3586 1.394 . S
C3584 H3600 0.931 . S
C3585 C3584 1.391 . S
C3585 C3589 1.376 . S
C3586 C3584 1.394 . S
C3586 C3587 1.369 . S
C3586 C3590 1.531 . S
C3587 C3586 1.369 . S
C3587 C3588 1.410 . S
C3587 C3595 1.503 . S
C3588 C3587 1.410 . S
C3588 C3589 1.392 . S
C3588 C3591 1.511 . S
C3589 C3585 1.376 . S
C3589 C3588 1.392 . S
C3589 H3601 0.929 . S
C3590 C3586 1.531 . S
C3590 H3602 0.960 . S
C3590 H3603 0.962 . S
C3590 H3604 0.960 . S
C3591 C3588 1.511 . S
C3591 H3605 0.961 . S
C3591 H3606 0.961 . S
C3591 H3607 0.961 . S
C3592 C3593 1.370 . S
C3592 C3594 1.363 . S
C3592 H3608 0.931 . S
C3593 C3592 1.370 . S
C3593 C3597 1.408 . S
C3594 C3592 1.363 . S
C3594 C3595 1.370 . S
C3594 C3598 1.524 . S
C3595 C3587 1.503 . S
C3595 C3594 1.370 . S
C3595 C3596 1.403 . S
C3596 C3595 1.403 . S
C3596 C3597 1.404 . S
C3596 C3599 1.539 . S
C3597 C3593 1.408 . S
C3597 C3596 1.404 . S
C3597 H3609 0.930 . S
C3598 C3594 1.524 . S
C3598 H3610 0.956 . S
C3598 H3611 0.961 . S
C3598 H3612 0.961 . S
C3599 C3596 1.539 . S
C3599 H3613 0.958 . S
C3599 H3614 0.961 . S
C3599 H3615 0.960 . S
H3600 C3584 0.931 . S
H3601 C3589 0.929 . S
H3602 C3590 0.960 . S
H3603 C3590 0.962 . S
H3604 C3590 0.960 . S
H3605 C3591 0.961 . S
H3606 C3591 0.961 . S
H3607 C3591 0.961 . S
H3608 C3592 0.931 . S
H3609 C3597 0.930 . S
H3610 C3598 0.956 . S
H3611 C3598 0.961 . S
H3612 C3598 0.961 . S
H3613 C3599 0.958 . S
H3614 C3599 0.961 . S
H3615 C3599 0.960 . S
C3616 C3617 1.391 . S
C3616 C3618 1.394 . S
C3616 H3632 0.931 . S
C3617 C3616 1.391 . S
C3617 C3621 1.376 . S
C3618 C3616 1.394 . S
C3618 C3619 1.369 . S
C3618 C3622 1.531 . S
C3619 C3618 1.369 . S
C3619 C3620 1.410 . S
C3619 C3627 1.503 . S
C3620 C3619 1.410 . S
C3620 C3621 1.392 . S
C3620 C3623 1.511 . S
C3621 C3617 1.376 . S
C3621 C3620 1.392 . S
C3621 H3633 0.929 . S
C3622 C3618 1.531 . S
C3622 H3634 0.960 . S
C3622 H3635 0.962 . S
C3622 H3636 0.960 . S
C3623 C3620 1.511 . S
C3623 H3637 0.961 . S
C3623 H3638 0.961 . S
C3623 H3639 0.961 . S
C3624 C3625 1.370 . S
C3624 C3626 1.363 . S
C3624 H3640 0.931 . S
C3625 C3624 1.370 . S
C3625 C3629 1.408 . S
C3626 C3624 1.363 . S
C3626 C3627 1.370 . S
C3626 C3630 1.524 . S
C3627 C3619 1.503 . S
C3627 C3626 1.370 . S
C3627 C3628 1.403 . S
C3628 C3627 1.403 . S
C3628 C3629 1.404 . S
C3628 C3631 1.539 . S
C3629 C3625 1.408 . S
C3629 C3628 1.404 . S
C3629 H3641 0.930 . S
C3630 C3626 1.524 . S
C3630 H3642 0.956 . S
C3630 H3643 0.961 . S
C3630 H3644 0.961 . S
C3631 C3628 1.539 . S
C3631 H3645 0.958 . S
C3631 H3646 0.961 . S
C3631 H3647 0.960 . S
H3632 C3616 0.931 . S
H3633 C3621 0.929 . S
H3634 C3622 0.960 . S
H3635 C3622 0.962 . S
H3636 C3622 0.960 . S
H3637 C3623 0.961 . S
H3638 C3623 0.961 . S
H3639 C3623 0.961 . S
H3640 C3624 0.931 . S
H3641 C3629 0.930 . S
H3642 C3630 0.956 . S
H3643 C3630 0.961 . S
H3644 C3630 0.961 . S
H3645 C3631 0.958 . S
H3646 C3631 0.961 . S
H3647 C3631 0.960 . S
C3648 C3649 1.391 . S
C3648 C3650 1.394 . S
C3648 H3664 0.931 . S
C3649 C3648 1.391 . S
C3649 C3653 1.376 . S
C3650 C3648 1.394 . S
C3650 C3651 1.369 . S
C3650 C3654 1.531 . S
C3651 C3650 1.369 . S
C3651 C3652 1.410 . S
C3651 C3659 1.503 . S
C3652 C3651 1.410 . S
C3652 C3653 1.392 . S
C3652 C3655 1.511 . S
C3653 C3649 1.376 . S
C3653 C3652 1.392 . S
C3653 H3665 0.929 . S
C3654 C3650 1.531 . S
C3654 H3666 0.960 . S
C3654 H3667 0.962 . S
C3654 H3668 0.960 . S
C3655 C3652 1.511 . S
C3655 H3669 0.961 . S
C3655 H3670 0.961 . S
C3655 H3671 0.961 . S
C3656 C3657 1.370 . S
C3656 C3658 1.363 . S
C3656 H3672 0.931 . S
C3657 C3656 1.370 . S
C3657 C3661 1.408 . S
C3658 C3656 1.363 . S
C3658 C3659 1.370 . S
C3658 C3662 1.524 . S
C3659 C3651 1.503 . S
C3659 C3658 1.370 . S
C3659 C3660 1.403 . S
C3660 C3659 1.403 . S
C3660 C3661 1.404 . S
C3660 C3663 1.539 . S
C3661 C3657 1.408 . S
C3661 C3660 1.404 . S
C3661 H3673 0.930 . S
C3662 C3658 1.524 . S
C3662 H3674 0.956 . S
C3662 H3675 0.961 . S
C3662 H3676 0.961 . S
C3663 C3660 1.539 . S
C3663 H3677 0.958 . S
C3663 H3678 0.961 . S
C3663 H3679 0.960 . S
H3664 C3648 0.931 . S
H3665 C3653 0.929 . S
H3666 C3654 0.960 . S
H3667 C3654 0.962 . S
H3668 C3654 0.960 . S
H3669 C3655 0.961 . S
H3670 C3655 0.961 . S
H3671 C3655 0.961 . S
H3672 C3656 0.931 . S
H3673 C3661 0.930 . S
H3674 C3662 0.956 . S
H3675 C3662 0.961 . S
H3676 C3662 0.961 . S
H3677 C3663 0.958 . S
H3678 C3663 0.961 . S
H3679 C3663 0.960 . S
C3680 C3681 1.391 . S
C3680 C3682 1.394 . S
C3680 H3696 0.931 . S
C3681 C3680 1.391 . S
C3681 C3685 1.376 . S
C3682 C3680 1.394 . S
C3682 C3683 1.369 . S
C3682 C3686 1.531 . S
C3683 C3682 1.369 . S
C3683 C3684 1.410 . S
C3683 C3691 1.503 . S
C3684 C3683 1.410 . S
C3684 C3685 1.392 . S
C3684 C3687 1.511 . S
C3685 C3681 1.376 . S
C3685 C3684 1.392 . S
C3685 H3697 0.929 . S
C3686 C3682 1.531 . S
C3686 H3698 0.960 . S
C3686 H3699 0.962 . S
C3686 H3700 0.960 . S
C3687 C3684 1.511 . S
C3687 H3701 0.961 . S
C3687 H3702 0.961 . S
C3687 H3703 0.961 . S
C3688 C3689 1.370 . S
C3688 C3690 1.363 . S
C3688 H3704 0.931 . S
C3689 C3688 1.370 . S
C3689 C3693 1.408 . S
C3690 C3688 1.363 . S
C3690 C3691 1.370 . S
C3690 C3694 1.524 . S
C3691 C3683 1.503 . S
C3691 C3690 1.370 . S
C3691 C3692 1.403 . S
C3692 C3691 1.403 . S
C3692 C3693 1.404 . S
C3692 C3695 1.539 . S
C3693 C3689 1.408 . S
C3693 C3692 1.404 . S
C3693 H3705 0.930 . S
C3694 C3690 1.524 . S
C3694 H3706 0.956 . S
C3694 H3707 0.961 . S
C3694 H3708 0.961 . S
C3695 C3692 1.539 . S
C3695 H3709 0.958 . S
C3695 H3710 0.961 . S
C3695 H3711 0.960 . S
H3696 C3680 0.931 . S
H3697 C3685 0.929 . S
H3698 C3686 0.960 . S
H3699 C3686 0.962 . S
H3700 C3686 0.960 . S
H3701 C3687 0.961 . S
H3702 C3687 0.961 . S
H3703 C3687 0.961 . S
H3704 C3688 0.931 . S
H3705 C3693 0.930 . S
H3706 C3694 0.956 . S
H3707 C3694 0.961 . S
H3708 C3694 0.961 . S
H3709 C3695 0.958 . S
H3710 C3695 0.961 . S
H3711 C3695 0.960 . S
C3712 C3713 1.391 . S
C3712 C3714 1.394 . S
C3712 H3728 0.931 . S
C3713 C3712 1.391 . S
C3713 C3717 1.376 . S
C3714 C3712 1.394 . S
C3714 C3715 1.369 . S
C3714 C3718 1.531 . S
C3715 C3714 1.369 . S
C3715 C3716 1.410 . S
C3715 C3723 1.503 . S
C3716 C3715 1.410 . S
C3716 C3717 1.392 . S
C3716 C3719 1.511 . S
C3717 C3713 1.376 . S
C3717 C3716 1.392 . S
C3717 H3729 0.929 . S
C3718 C3714 1.531 . S
C3718 H3730 0.960 . S
C3718 H3731 0.962 . S
C3718 H3732 0.960 . S
C3719 C3716 1.511 . S
C3719 H3733 0.961 . S
C3719 H3734 0.961 . S
C3719 H3735 0.961 . S
C3720 C3721 1.370 . S
C3720 C3722 1.363 . S
C3720 H3736 0.931 . S
C3721 C3720 1.370 . S
C3721 C3725 1.408 . S
C3722 C3720 1.363 . S
C3722 C3723 1.370 . S
C3722 C3726 1.524 . S
C3723 C3715 1.503 . S
C3723 C3722 1.370 . S
C3723 C3724 1.403 . S
C3724 C3723 1.403 . S
C3724 C3725 1.404 . S
C3724 C3727 1.539 . S
C3725 C3721 1.408 . S
C3725 C3724 1.404 . S
C3725 H3737 0.930 . S
C3726 C3722 1.524 . S
C3726 H3738 0.956 . S
C3726 H3739 0.961 . S
C3726 H3740 0.961 . S
C3727 C3724 1.539 . S
C3727 H3741 0.958 . S
C3727 H3742 0.961 . S
C3727 H3743 0.960 . S
H3728 C3712 0.931 . S
H3729 C3717 0.929 . S
H3730 C3718 0.960 . S
H3731 C3718 0.962 . S
H3732 C3718 0.960 . S
H3733 C3719 0.961 . S
H3734 C3719 0.961 . S
H3735 C3719 0.961 . S
H3736 C3720 0.931 . S
H3737 C3725 0.930 . S
H3738 C3726 0.956 . S
H3739 C3726 0.961 . S
H3740 C3726 0.961 . S
H3741 C3727 0.958 . S
H3742 C3727 0.961 . S
H3743 C3727 0.960 . S
C673 C286 1.583 . S
C681 C6 1.574 . S
C705 C23 1.816 . S
C713 C247 1.821 . S
C737 C34 1.692 . S
C745 C260 1.806 . S
C769 C275 1.799 . S
C777 C51 1.791 . S
C801 C328 1.569 . S
C809 C65 1.710 . S
C833 C77 1.740 . S
C841 C303 1.844 . S
C865 C93 1.691 . S
C873 C314 1.553 . S
C897 C105 1.641 . S
C905 C231 1.621 . S
C929 C118 1.614 . S
C937 C216 1.630 . S
C961 C135 1.824 . S
C969 C176 1.815 . S
C993 C146 1.478 . S
C1001 C188 1.504 . S
C1025 C204 1.812 . S
C1033 C163 1.810 . S
C1057 C345 1.864 . S
C1065 C624 1.888 . S
C1089 C583 1.634 . S
C1097 C357 1.531 . S
C1121 C373 1.794 . S
C1129 C594 1.649 . S
C1153 C611 1.721 . S
C1161 C385 1.595 . S
C1185 C398 1.213 . S
C1193 C664 1.272 . S
C1217 C637 1.611 . S
C1225 C415 1.750 . S
C1249 C426 1.221 . S
C1257 C650 1.184 . S
C1281 C569 1.851 . S
C1289 C443 1.851 . S
C1313 C456 1.701 . S
C1321 C555 1.679 . S
C1345 C510 1.502 . S
C1353 C468 1.524 . S
C1377 C527 1.606 . S
C1385 C484 1.589 . S
C1409 C538 1.539 . S
C1417 C496 1.500 . S
C1441 C370 1.126 . S
C1449 C9 1.192 . S
C1473 C20 1.015 . S
C1481 C386 1.101 . S
C1505 C37 1.166 . S
C1513 C342 1.108 . S
C1537 C48 1.066 . S
C1545 C358 1.101 . S
C1569 C62 1.234 . S
C1577 C429 1.263 . S
C1601 C440 1.080 . S
C1609 C78 1.155 . S
C1633 C401 1.247 . S
C1641 C90 1.206 . S
C1665 C412 1.111 . S
C1673 C106 1.190 . S
C1697 C513 1.349 . S
C1705 C121 1.348 . S
C1729 C132 0.979 . S
C1737 C524 0.965 . S
C1761 C541 1.321 . S
C1769 C149 1.314 . S
C1793 C160 0.924 . S
C1801 C552 0.927 . S
C1825 C175 1.010 . S
C1833 C455 1.045 . S
C1857 C191 1.171 . S
C1865 C471 1.176 . S
C1889 C483 1.115 . S
C1897 C203 1.087 . S
C1921 C499 1.207 . S
C1929 C219 1.215 . S
C1953 C232 1.261 . S
C1961 C608 1.181 . S
C1985 C244 1.105 . S
C1993 C638 1.131 . S
C2017 C653 1.145 . S
C2025 C259 1.109 . S
C2049 C566 0.954 . S
C2057 C272 0.960 . S
C2081 C289 1.190 . S
C2089 C667 1.201 . S
C2113 C580 1.098 . S
C2121 C300 1.111 . S
C2145 C317 1.313 . S
C2153 C597 1.308 . S
C2177 C331 1.203 . S
C2185 C623 1.138 . S
C2209 C399 1.862 . S
C2217 C8 1.801 . S
C2241 C414 1.795 . S
C2249 C21 1.876 . S
C2273 C427 1.973 . S
C2281 C36 1.910 . S
C2305 C49 1.906 . S
C2313 C442 1.827 . S
C2337 C344 1.813 . S
C2345 C63 1.878 . S
C2369 C356 2.000 . S
C2377 C79 1.938 . S
C2401 C91 1.838 . S
C2409 C372 1.750 . S
C2433 C384 1.914 . S
C2441 C107 1.819 . S
C2465 C120 1.852 . S
C2473 C539 1.904 . S
C2497 C133 1.935 . S
C2505 C554 1.852 . S
C2529 C511 1.893 . S
C2537 C148 1.810 . S
C2561 C161 1.953 . S
C2569 C526 1.860 . S
C2593 C485 1.843 . S
C2601 C174 1.970 . S
C2625 C190 1.786 . S
C2633 C497 1.846 . S
C2657 C202 1.950 . S
C2665 C457 1.886 . S
C2689 C218 1.799 . S
C2697 C469 1.865 . S
C2721 C636 1.915 . S
C2729 C233 1.852 . S
C2753 C245 1.928 . S
C2761 C610 1.834 . S
C2785 C258 1.814 . S
C2793 C625 1.733 . S
C2817 C273 1.894 . S
C2825 C582 1.797 . S
C2849 C595 1.845 . S
C2857 C288 1.770 . S
C2881 C568 1.790 . S
C2889 C301 1.905 . S
C2913 C665 1.959 . S
C2921 C316 1.898 . S
C2945 C330 1.835 . S
C2953 C651 1.947 . S
C2977 C217 1.656 . S
C2985 C7 1.643 . S
C3009 C22 1.374 . S
C3017 C177 1.380 . S
C3041 C189 1.643 . S
C3049 C35 1.613 . S
C3073 C205 1.297 . S
C3081 C50 1.403 . S
C3105 C134 1.262 . S
C3113 C64 1.363 . S
C3137 C76 1.662 . S
C3145 C147 1.667 . S
C3169 C92 1.328 . S
C3177 C162 1.343 . S
C3201 C119 1.664 . S
C3209 C104 1.642 . S
C3233 C230 1.550 . S
C3241 C287 1.572 . S
C3265 C329 1.588 . S
C3273 C246 1.441 . S
C3297 C302 1.328 . S
C3305 C261 1.401 . S
C3329 C274 1.387 . S
C3337 C315 1.547 . S
C3361 C553 1.469 . S
C3369 C343 1.497 . S
C3393 C512 1.267 . S
C3401 C359 1.314 . S
C3425 C371 1.548 . S
C3433 C525 1.567 . S
C3457 C540 1.252 . S
C3465 C387 1.311 . S
C3489 C470 1.355 . S
C3497 C400 1.283 . S
C3521 C413 1.550 . S
C3529 C482 1.576 . S
C3553 C428 1.286 . S
C3561 C498 1.294 . S
C3585 C441 1.461 . S
C3593 C454 1.498 . S
C3617 C567 1.512 . S
C3625 C622 1.487 . S
C3649 C666 1.345 . S
C3657 C581 1.524 . S
C3681 C639 1.310 . S
C3689 C596 1.229 . S
C3713 C652 1.399 . S
C3721 C609 1.551 . S
