# Generated by pormake.
# Topology vmr, (7)-cn, num edge types: 1
# Building blocks:
#     Node 0, Type 0, BuildingBlock: HICVOG_clean_sbu_0, # of connection points: 7
#     Node 1, Type 0, BuildingBlock: HICVOG_clean_sbu_0, # of connection points: 7
#     Node 2, Type 0, BuildingBlock: HICVOG_clean_sbu_0, # of connection points: 7
#     Node 3, Type 0, BuildingBlock: HICVOG_clean_sbu_0, # of connection points: 7
#     Edge 4, Type (0, 0), BuildingBlock: XUDNAN_clean_linker_2, # of connection points: 2
#     Edge 5, Type (0, 0), BuildingBlock: XUDNAN_clean_linker_2, # of connection points: 2
#     Edge 6, Type (0, 0), BuildingBlock: XUDNAN_clean_linker_2, # of connection points: 2
#     Edge 7, Type (0, 0), BuildingBlock: XUDNAN_clean_linker_2, # of connection points: 2
#     Edge 8, Type (0, 0), BuildingBlock: XUDNAN_clean_linker_2, # of connection points: 2
#     Edge 9, Type (0, 0), BuildingBlock: XUDNAN_clean_linker_2, # of connection points: 2
#     Edge 10, Type (0, 0), BuildingBlock: XUDNAN_clean_linker_2, # of connection points: 2
#     Edge 11, Type (0, 0), BuildingBlock: XUDNAN_clean_linker_2, # of connection points: 2
#     Edge 12, Type (0, 0), BuildingBlock: XUDNAN_clean_linker_2, # of connection points: 2
#     Edge 13, Type (0, 0), BuildingBlock: XUDNAN_clean_linker_2, # of connection points: 2
#     Edge 14, Type (0, 0), BuildingBlock: XUDNAN_clean_linker_2, # of connection points: 2
#     Edge 15, Type (0, 0), BuildingBlock: XUDNAN_clean_linker_2, # of connection points: 2
#     Edge 16, Type (0, 0), BuildingBlock: XUDNAN_clean_linker_2, # of connection points: 2
#     Edge 17, Type (0, 0), BuildingBlock: XUDNAN_clean_linker_2, # of connection points: 2
# Relax obj value: 0.077
# Max RMSD: 0.174
# Mean RMSD: 0.174
data_MOF--net-vmr--node1-HICVOG_clean_sbu_0--edge1-XUDNAN_clean_linker_2
_symmetry_space_group_name_H-M    P1
_symmetry_Int_Tables_number       1
_symmetry_cell_setting            triclinic
loop_
_symmetry_equiv_pos_as_xyz
'x, y, z'
_cell_length_a     25.589845
_cell_length_b     21.908999
_cell_length_c     35.879277
_cell_angle_alpha  90.081136
_cell_angle_beta   123.10794
_cell_angle_gamma 89.974827
loop_
_atom_site_label
_atom_site_type_symbol
_atom_site_fract_x
_atom_site_fract_y
_atom_site_fract_z
_atom_type_partial_charge
Zn0 Zn 0.23784 0.36731 0.17084 0.0
C1 C 0.09261 0.36857 0.18444 0.0
N2 N 0.06922 0.40905 0.15105 0.0
C3 C 0.10968 0.40568 0.13838 0.0
N4 N 0.15629 0.36562 0.16321 0.0
N5 N 0.14477 0.34146 0.19181 0.0
C6 C 0.20122 0.28241 0.31051 0.0
O7 O 0.24639 0.31834 0.31665 0.0
O8 O 0.2291 0.37273 0.11189 0.0
Zn9 Zn 0.17626 0.26419 0.22173 0.0
N10 N 0.28045 0.44186 0.20317 0.0
C11 C 0.29054 0.52241 0.25116 0.0
C12 C 0.26144 0.46908 0.22785 0.0
C13 C 0.32807 0.46582 0.20111 0.0
N14 N 0.33763 0.54648 0.24897 0.0
C15 C 0.35784 0.52019 0.22458 0.0
O16 O 0.26517 0.24352 0.24291 0.0
C17 C 0.30503 0.25504 0.23311 0.0
O18 O 0.29611 0.29695 0.20562 0.0
H19 H 0.22404 0.44943 0.22953 0.0
H20 H 0.34256 0.44193 0.18188 0.0
C21 C 0.09933 0.1568 0.19208 0.0
C22 C 0.0698 0.1059 0.16443 0.0
C23 C 0.09494 0.14405 0.11422 0.0
C24 C 0.12461 0.19427 0.14197 0.0
N25 N 0.12669 0.19938 0.18049 0.0
N26 N 0.06884 0.10076 0.12625 0.0
H27 H 0.1027 0.16124 0.22336 0.0
C28 C 0.22071 0.32813 0.0865 0.0
O29 O 0.21488 0.27272 0.09772 0.0
O30 O 0.16596 0.25698 0.27299 0.0
H31 H 0.14708 0.22824 0.13348 0.0
H32 H 0.27586 0.54458 0.27094 0.0
H33 H 0.0935 0.13903 0.08367 0.0
Zn34 Zn 0.84348 0.77154 0.28197 0.0
C35 C 0.92163 0.90504 0.37318 0.0
N36 N 0.95619 0.91153 0.35578 0.0
C37 C 0.92879 0.87371 0.3207 0.0
N38 N 0.87912 0.84536 0.31673 0.0
N39 N 0.87352 0.86603 0.34919 0.0
C40 C 0.81138 0.79862 0.41971 0.0
O41 O 0.80684 0.75546 0.39264 0.0
O42 O 0.84225 0.77965 0.2251 0.0
Zn43 Zn 0.79596 0.86716 0.3475 0.0
N44 N 0.90014 0.70576 0.31806 0.0
C45 C 0.9767 0.6688 0.39042 0.0
C46 C 0.93327 0.71292 0.36302 0.0
C47 C 0.90775 0.65506 0.29949 0.0
N48 N 0.98504 0.61879 0.37187 0.0
C49 C 0.95127 0.61024 0.32703 0.0
O50 O 0.73243 0.80205 0.30775 0.0
C51 C 0.72015 0.76065 0.27907 0.0
O52 O 0.75751 0.74825 0.26706 0.0
H53 H 0.92649 0.75286 0.37759 0.0
H54 H 0.88152 0.6503 0.26375 0.0
C55 C 0.70767 0.96801 0.32466 0.0
C56 C 0.68056 0.02509 0.30497 0.0
C57 C 0.75376 0.03528 0.28399 0.0
C58 C 0.77918 0.97884 0.30257 0.0
N59 N 0.75669 0.94655 0.32324 0.0
N60 N 0.70539 0.05676 0.28555 0.0
H61 H 0.68977 0.93999 0.33998 0.0
C62 C 0.81652 0.74271 0.19239 0.0
O63 O 0.78566 0.69549 0.19335 0.0
O64 O 0.81185 0.85408 0.40932 0.0
H65 H 0.8164 0.96086 0.30009 0.0
H66 H 1.00379 0.67437 0.42619 0.0
H67 H 0.77174 0.06158 0.26786 0.0
Zn68 Zn 0.8457 0.77856 0.77939 0.0
C69 C 0.92856 0.64282 0.86782 0.0
N70 N 0.96737 0.64447 0.85365 0.0
C71 C 0.93987 0.68459 0.82012 0.0
N72 N 0.88605 0.706 0.81361 0.0
N73 N 0.8783 0.67923 0.84343 0.0
C74 C 0.81588 0.73422 0.91812 0.0
O75 O 0.80202 0.78107 0.89156 0.0
O76 O 0.84692 0.78138 0.72322 0.0
Zn77 Zn 0.80076 0.67347 0.84184 0.0
N78 N 0.89053 0.84691 0.81806 0.0
C79 C 0.91278 0.90188 0.88246 0.0
C80 C 0.88594 0.85211 0.85387 0.0
C81 C 0.92243 0.88889 0.81013 0.0
N82 N 0.94371 0.9445 0.87426 0.0
C83 C 0.94982 0.93921 0.83903 0.0
O84 O 0.73389 0.73626 0.80271 0.0
C85 C 0.71973 0.77645 0.77297 0.0
O86 O 0.75707 0.79119 0.7615 0.0
H87 H 0.86086 0.81795 0.8596 0.0
H88 H 0.92503 0.88392 0.78116 0.0
C89 C 0.7144 0.57283 0.81772 0.0
C90 C 0.68819 0.51524 0.79886 0.0
C91 C 0.76436 0.50297 0.78084 0.0
C92 C 0.7893 0.55991 0.79897 0.0
N93 N 0.76457 0.59347 0.8176 0.0
N94 N 0.71472 0.48222 0.78115 0.0
H95 H 0.6949 0.60198 0.83143 0.0
C96 C 0.80693 0.74799 0.69116 0.0
O97 O 0.7699 0.7137 0.69706 0.0
O98 O 0.81836 0.68131 0.90447 0.0
H99 H 0.82778 0.57731 0.79773 0.0
H100 H 0.9088 0.90678 0.91083 0.0
H101 H 0.78385 0.47566 0.76616 0.0
Zn102 Zn 0.19115 0.27469 0.73132 0.0
C103 C 0.12206 0.13511 0.64782 0.0
N104 N 0.09195 0.12303 0.66797 0.0
C105 C 0.11914 0.16161 0.70277 0.0
N106 N 0.1639 0.19548 0.70384 0.0
N107 N 0.16688 0.17769 0.66981 0.0
C108 C 0.2384 0.2214 0.59457 0.0
O109 O 0.26832 0.2676 0.62124 0.0
O110 O 0.19783 0.27731 0.79008 0.0
Zn111 Zn 0.24409 0.17468 0.6718 0.0
N112 N 0.12746 0.33365 0.69139 0.0
C113 C 0.04154 0.35841 0.61855 0.0
C114 C 0.08992 0.3192 0.64747 0.0
C115 C 0.11914 0.38687 0.70723 0.0
N116 N 0.03259 0.41083 0.63455 0.0
C117 C 0.0705 0.42661 0.67817 0.0
O118 O 0.30514 0.24346 0.70682 0.0
C119 C 0.31316 0.28852 0.73193 0.0
O120 O 0.27377 0.3015 0.74192 0.0
H121 H 0.09685 0.27724 0.63494 0.0
H122 H 0.14866 0.39746 0.74223 0.0
C123 C 0.33041 0.07196 0.69613 0.0
C124 C 0.35831 1.01617 0.71791 0.0
C125 C 0.29358 1.01522 0.74655 0.0
C126 C 0.26687 0.07019 0.72541 0.0
N127 N 0.2851 0.09744 0.70027 0.0
N128 N 0.33837 0.98978 0.74237 0.0
H129 H 0.34488 0.09577 0.67688 0.0
C130 C 0.22885 0.32126 0.81601 0.0
O131 O 0.25709 0.3595 0.80446 0.0
O132 O 0.22362 0.17603 0.60902 0.0
H133 H 0.23209 0.09104 0.72941 0.0
H134 H 1.01099 0.34702 0.58366 0.0
H135 H 0.27919 0.99305 0.76647 0.0
H136 H 0.39599 0.25765 0.21447 0.0
H137 H 0.34264 0.16387 0.29538 0.0
H138 H 0.43393 0.09593 0.32446 0.0
H139 H 0.4452 0.12634 0.18405 0.0
H140 H 0.5094 0.16406 0.18622 0.0
H141 H 0.4418 0.20721 0.17372 0.0
H142 H 0.51198 0.28065 0.23924 0.0
H143 H 0.57988 0.23782 0.25185 0.0
H144 H 0.56365 0.24996 0.29427 0.0
H145 H 0.53092 0.03587 0.34331 0.0
H146 H 0.62352 0.99003 0.35009 0.0
H147 H 0.61041 0.12252 0.25505 0.0
C148 C 0.40368 0.2233 0.23865 0.0
C149 C 0.36197 0.21642 0.25264 0.0
C150 C 0.37383 0.17033 0.28411 0.0
C151 C 0.42564 0.13142 0.30088 0.0
C152 C 0.46536 0.13905 0.28595 0.0
C153 C 0.45497 0.18401 0.25562 0.0
C154 C 0.50352 0.18184 0.24395 0.0
C155 C 0.47315 0.16908 0.19403 0.0
C156 C 0.54204 0.24108 0.25819 0.0
C157 C 0.54248 0.12826 0.27206 0.0
C158 C 0.52013 0.10426 0.29627 0.0
C159 C 0.54873 0.05429 0.32438 0.0
C160 C 0.60145 0.02815 0.32774 0.0
C161 C 0.62499 0.05173 0.30281 0.0
C162 C 0.59455 0.10278 0.27484 0.0
H163 H 0.43976 0.60658 0.28263 0.0
H164 H 0.39535 0.50356 0.16505 0.0
H165 H 0.48167 0.55434 0.16602 0.0
H166 H 0.47657 0.74716 0.25035 0.0
H167 H 0.5389 0.76672 0.3062 0.0
H168 H 0.4744 0.72106 0.29712 0.0
H169 H 0.5512 0.63677 0.34845 0.0
H170 H 0.61589 0.68234 0.35783 0.0
H171 H 0.60616 0.60554 0.33693 0.0
H172 H 0.57491 0.61621 0.18035 0.0
H173 H 0.66575 0.68407 0.20664 0.0
H174 H 0.64613 0.74971 0.31262 0.0
C175 C 0.4478 0.59437 0.25691 0.0
C176 C 0.41046 0.54979 0.22423 0.0
C177 C 0.42338 0.53597 0.19132 0.0
C178 C 0.47232 0.56517 0.19128 0.0
C179 C 0.50793 0.60861 0.22405 0.0
C180 C 0.49612 0.62325 0.2562 0.0
C181 C 0.54085 0.67191 0.28758 0.0
C182 C 0.50556 0.73016 0.28514 0.0
C183 C 0.58089 0.64767 0.33553 0.0
C184 C 0.57987 0.6823 0.26813 0.0
C185 C 0.56028 0.64525 0.23156 0.0
C186 C 0.59034 0.64562 0.2088 0.0
C187 C 0.64196 0.6844 0.22401 0.0
C188 C 0.66298 0.72276 0.26151 0.0
C189 C 0.63088 0.72175 0.28349 0.0
H190 H 0.43838 0.92862 0.77473 0.0
H191 H 0.39422 0.03168 0.65743 0.0
H192 H 0.47894 0.97865 0.65724 0.0
H193 H 0.60306 0.92807 0.82803 0.0
H194 H 0.61246 0.85147 0.84906 0.0
H195 H 0.54799 0.89744 0.83962 0.0
H196 H 0.47081 0.81314 0.78838 0.0
H197 H 0.53509 0.76702 0.79748 0.0
H198 H 0.47283 0.78644 0.74163 0.0
H199 H 0.5713 0.91545 0.67124 0.0
H200 H 0.66332 0.84905 0.69871 0.0
H201 H 0.64372 0.78502 0.80493 0.0
C202 C 0.44592 0.94022 0.74869 0.0
C203 C 0.40936 0.98535 0.71644 0.0
C204 C 0.42176 0.99862 0.68325 0.0
C205 C 0.46965 0.96815 0.68256 0.0
C206 C 0.50453 0.92412 0.71496 0.0
C207 C 0.49308 0.91016 0.74735 0.0
C208 C 0.53749 0.86159 0.77878 0.0
C209 C 0.57762 0.88613 0.8267 0.0
C210 C 0.50191 0.80362 0.7764 0.0
C211 C 0.57632 0.85065 0.75931 0.0
C212 C 0.55655 0.88704 0.72245 0.0
C213 C 0.58681 0.8865 0.69987 0.0
C214 C 0.6391 0.84856 0.71576 0.0
C215 C 0.66067 0.81139 0.75385 0.0
C216 C 0.62803 0.81206 0.77537 0.0
H217 H 0.61503 0.42007 0.74703 0.0
H218 H 0.63352 0.55019 0.84533 0.0
H219 H 0.54035 0.50644 0.83854 0.0
H220 H 0.44878 0.41909 0.67751 0.0
H221 H 0.44361 0.33842 0.66607 0.0
H222 H 0.51155 0.3806 0.67814 0.0
H223 H 0.58224 0.30587 0.74236 0.0
H224 H 0.5145 0.26345 0.7305 0.0
H225 H 0.5678 0.29325 0.78562 0.0
H226 H 0.44347 0.44875 0.8204 0.0
H227 H 0.35264 0.38107 0.7933 0.0
H228 H 0.39998 0.28647 0.70913 0.0
C229 C 0.59998 0.43968 0.76737 0.0
C230 C 0.63201 0.48966 0.79621 0.0
C231 C 0.60989 0.51318 0.82207 0.0
C232 C 0.55692 0.48818 0.81876 0.0
C233 C 0.52666 0.43931 0.78983 0.0
C234 C 0.54761 0.41515 0.76474 0.0
C235 C 0.50722 0.36215 0.73643 0.0
C236 C 0.47594 0.37592 0.68659 0.0
C237 C 0.54522 0.30267 0.74953 0.0
C238 C 0.45989 0.36046 0.74928 0.0
C239 C 0.47187 0.40534 0.7801 0.0
C240 C 0.43386 0.41331 0.79641 0.0
C241 C 0.38224 0.37455 0.78074 0.0
C242 C 0.36899 0.32811 0.74912 0.0
C243 C 0.40881 0.32111 0.73347 0.0
H244 H 0.99181 0.11984 0.19361 0.0
H245 H 0.08589 0.98263 0.1639 0.0
H246 H 0.04731 0.90193 0.19154 0.0
H247 H 0.02349 0.05962 0.29265 0.0
H248 H 0.949 0.07855 0.28388 0.0
H249 H 0.97908 0.12313 0.25764 0.0
H250 H 0.87794 0.10216 0.18054 0.0
H251 H 0.84777 0.05703 0.20669 0.0
H252 H 0.85348 0.02452 0.16286 0.0
H253 H 1.01265 0.83926 0.235 0.0
H254 H 0.97948 0.80188 0.28458 0.0
H255 H 0.89916 0.97881 0.27703 0.0
C256 C 1.00354 0.07268 0.19239 0.0
C257 C 0.0422 0.05728 0.1771 0.0
C258 C 0.0562 0.99515 0.17554 0.0
C259 C 0.03446 0.94911 0.19111 0.0
C260 C 0.99732 0.96593 0.20691 0.0
C261 C 0.98104 0.02627 0.20673 0.0
C262 C 0.94288 0.03327 0.22698 0.0
C263 C 0.97558 0.07613 0.26769 0.0
C264 C 0.87658 0.05556 0.19218 0.0
C265 C 0.94233 0.96798 0.24033 0.0
C266 C 0.97387 0.9294 0.22864 0.0
C267 C 0.98612 0.86862 0.24304 0.0
C268 C 0.96687 0.8475 0.27086 0.0
C269 C 0.93506 0.88699 0.28313 0.0
C270 C 0.92131 0.94713 0.26657 0.0
H271 H 0.15143 0.40998 0.26852 0.0
H272 H 0.97791 0.33269 0.16181 0.0
H273 H 0.9238 0.37309 0.19621 0.0
H274 H 0.11584 0.39886 0.36055 0.0
H275 H 0.15179 0.47205 0.38288 0.0
H276 H 0.18212 0.42243 0.35898 0.0
H277 H 0.17081 0.50646 0.30548 0.0
H278 H 0.14067 0.55791 0.32825 0.0
H279 H 0.09599 0.54231 0.26934 0.0
H280 H 0.88422 0.44619 0.2278 0.0
H281 H 0.86447 0.53449 0.26147 0.0
H282 H 0.06356 0.5639 0.34964 0.0
C283 C 0.10321 0.3975 0.25459 0.0
C284 C 0.06912 0.36627 0.21363 0.0
C285 C 1.00501 0.35454 0.19412 0.0
C286 C 0.97389 0.37784 0.21328 0.0
C287 C 1.00777 0.41257 0.25204 0.0
C288 C 0.07156 0.42095 0.27332 0.0
C289 C 0.09517 0.46812 0.31013 0.0
C290 C 0.13874 0.43855 0.35585 0.0
C291 C 0.1275 0.52183 0.3028 0.0
C292 C 0.03435 0.48788 0.30421 0.0
C293 C 0.98454 0.45488 0.27086 0.0
C294 C 0.92299 0.47082 0.25505 0.0
C295 C 0.91213 0.52144 0.27394 0.0
C296 C 0.96257 0.5554 0.30834 0.0
C297 C 0.02431 0.53762 0.32411 0.0
H298 H 0.03748 0.92199 0.8193 0.0
H299 H 0.9391 0.06276 0.84212 0.0
H300 H 0.99015 0.14209 0.82331 0.0
H301 H 0.18474 1.01251 0.86169 0.0
H302 H 0.19536 0.97964 0.82018 0.0
H303 H 0.15875 0.93568 0.84232 0.0
H304 H 0.06215 0.91771 0.76241 0.0
H305 H 0.09879 0.96072 0.74026 0.0
H306 H 0.02257 0.98254 0.7271 0.0
H307 H 0.03505 0.2029 0.78679 0.0
H308 H 0.07122 0.23743 0.7385 0.0
H309 H 0.14817 0.05816 0.74772 0.0
C310 C 0.02752 0.96961 0.82098 0.0
C311 C 0.98401 0.98656 0.83151 0.0
C312 C 0.97241 0.04914 0.83396 0.0
C313 C 1.00136 0.09439 0.82356 0.0
C314 C 0.04311 0.07613 0.81216 0.0
C315 C 0.05694 1.01511 0.81168 0.0
C316 C 0.09922 1.0065 0.79497 0.0
C317 C 0.16333 0.98215 0.83202 0.0
C318 C 0.06883 0.96446 0.75375 0.0
C319 C 0.1038 0.07165 0.78332 0.0
C320 C 0.07198 0.11166 0.79393 0.0
C321 C 0.06202 0.17253 0.77978 0.0
C322 C 0.08294 0.19201 0.75268 0.0
C323 C 0.1138 0.15069 0.7408 0.0
C324 C 0.12647 0.09094 0.75785 0.0
H325 H 0.95883 0.46554 0.66151 0.0
H326 H 0.15447 0.51421 0.73256 0.0
H327 H 0.13341 0.60625 0.76242 0.0
H328 H 0.88959 0.62458 0.63959 0.0
H329 H 0.83256 0.5968 0.65026 0.0
H330 H 0.86312 0.54648 0.62699 0.0
H331 H 0.89311 0.47159 0.69267 0.0
H332 H 0.86453 0.52503 0.71541 0.0
H333 H 0.94395 0.49841 0.74905 0.0
H334 H 0.09468 0.6831 0.79307 0.0
H335 H 0.04599 0.72783 0.83022 0.0
H336 H 0.87562 0.6296 0.7404 0.0
C337 C 0.99677 0.4967 0.6823 0.0
C338 C 0.05805 0.48345 0.69435 0.0
C339 C 0.10713 0.52382 0.7229 0.0
C340 C 0.09541 0.57651 0.73955 0.0
C341 C 0.0344 0.58804 0.72749 0.0
C342 C 0.98602 0.54876 0.69989 0.0
C343 C 0.9272 0.56528 0.69806 0.0
C344 C 0.8751 0.58452 0.65088 0.0
C345 C 0.90603 0.51196 0.71482 0.0
C346 C 0.9503 0.61901 0.7299 0.0
C347 C 1.0119 0.63243 0.74567 0.0
C348 C 0.04598 0.67438 0.78002 0.0
C349 C 0.01781 0.70025 0.80064 0.0
C350 C 0.95631 0.68412 0.78682 0.0
C351 C 0.92132 0.64544 0.74968 0.0
H352 H 0.95181 0.66109 0.95112 0.0
H353 H 0.93277 0.52186 0.85862 0.0
H354 H 0.98293 0.44669 0.91952 0.0
H355 H 0.09907 0.6203 0.03822 0.0
H356 H 0.08706 0.63317 0.08265 0.0
H357 H 0.04181 0.67504 0.03139 0.0
H358 H 0.9392 0.63712 0.02117 0.0
H359 H 0.98362 0.59648 0.07305 0.0
H360 H 0.92693 0.55646 0.02298 0.0
H361 H 0.04627 0.39029 0.99107 0.0
H362 H 0.09937 0.34948 0.06758 0.0
H363 H 0.07865 0.52429 0.11454 0.0
C364 C 0.95536 0.61399 0.94353 0.0
C365 C 0.93708 0.59653 0.90018 0.0
C366 C 0.94511 0.53536 0.89156 0.0
C367 C 0.97429 0.49264 0.92599 0.0
C368 C 0.9951 0.51191 0.96889 0.0
C369 C 0.98445 0.57053 0.97771 0.0
C370 C 1.01339 0.57955 0.02716 0.0
C371 C 0.06329 0.63002 0.04593 0.0
C372 C 0.96276 0.59316 0.03664 0.0
C373 C 0.04265 0.51729 0.04457 0.0
C374 C 0.03217 0.47926 0.01041 0.0
C375 C 0.05485 0.41962 0.01816 0.0
C376 C 0.08637 0.39722 0.0618 0.0
C377 C 0.09535 0.43457 0.09695 0.0
C378 C 0.074 0.49556 0.08829 0.0
H379 H 0.96227 0.88048 0.45952 0.0
H380 H 0.90796 0.02664 0.36403 0.0
H381 H 0.95818 0.10186 0.42503 0.0
H382 H 0.94623 0.96836 0.54178 0.0
H383 H 1.01433 0.93367 0.58882 0.0
H384 H 0.96808 0.89155 0.53768 0.0
H385 H 0.06463 0.87228 0.53479 0.0
H386 H 0.11244 0.91467 0.5856 0.0
H387 H 0.11013 0.93613 0.53623 0.0
H388 H 0.02724 0.15907 0.49615 0.0
H389 H 0.09128 0.19793 0.57347 0.0
H390 H 0.09937 1.01584 0.62326 0.0
C391 C 0.95814 0.92865 0.4516 0.0
C392 C 0.92952 0.94822 0.40718 0.0
C393 C 0.92775 1.01123 0.39787 0.0
C394 C 0.9571 0.05414 0.43232 0.0
C395 C 0.98815 0.03319 0.47594 0.0
C396 C 0.98749 0.97223 0.48578 0.0
C397 C 0.02675 0.96174 0.5356 0.0
C398 C 0.98639 0.9375 0.55196 0.0
C399 C 0.08173 0.91864 0.5488 0.0
C400 C 0.04945 0.02606 0.55203 0.0
C401 C 0.02764 0.0664 0.51703 0.0
C402 C 0.04403 0.12804 0.52387 0.0
C403 C 0.08128 0.14954 0.56777 0.0
C404 C 0.10086 0.10955 0.60394 0.0
C405 C 0.08568 0.04696 0.59596 0.0
H406 H 0.19596 0.24281 0.86003 0.0
H407 H 0.26141 0.42691 0.86331 0.0
H408 H 0.26049 0.44929 0.93014 0.0
H409 H 0.09484 0.28064 0.89877 0.0
H410 H 0.11461 0.21322 0.93266 0.0
H411 H 0.11713 0.21166 0.88345 0.0
H412 H 0.23203 0.17589 0.93029 0.0
H413 H 0.23005 0.17701 0.97969 0.0
H414 H 0.28864 0.22015 0.97794 0.0
H415 H 0.25347 0.4526 0.99601 0.0
H416 H 0.24829 0.43439 0.06153 0.0
H417 H 0.19161 0.24685 0.01891 0.0
C418 C 0.20983 0.28785 0.87478 0.0
C419 C 0.22875 0.33316 0.85648 0.0
C420 C 0.24704 0.3914 0.87686 0.0
C421 C 0.24634 0.40472 0.91469 0.0
C422 C 0.22763 0.35923 0.93198 0.0
C423 C 0.21019 0.30179 0.91307 0.0
C424 C 0.19504 0.26051 0.93987 0.0
C425 C 0.12632 0.24034 0.91202 0.0
C426 C 0.23909 0.20513 0.95803 0.0
C427 C 0.20742 0.30373 0.97698 0.0
C428 C 0.2253 0.36061 0.97124 0.0
C429 C 0.23959 0.40828 1.001 0.0
C430 C 0.23646 0.39742 0.03812 0.0
C431 C 0.21988 0.3391 0.04552 0.0
C432 C 0.20463 0.29184 0.01424 0.0
H433 H 0.86462 0.82314 0.66201 0.0
H434 H 0.73666 0.67026 0.62198 0.0
H435 H 0.7275 0.66555 0.55014 0.0
H436 H 0.78481 0.89696 0.5549 0.0
H437 H 0.85538 0.9215 0.55951 0.0
H438 H 0.85429 0.91146 0.6089 0.0
H439 H 0.94764 0.83723 0.6403 0.0
H440 H 0.94883 0.84585 0.59092 0.0
H441 H 0.94185 0.77103 0.60833 0.0
H442 H 0.73362 0.67477 0.48376 0.0
H443 H 0.74694 0.70344 0.4231 0.0
H444 H 0.86306 0.85646 0.50134 0.0
C445 C 0.83478 0.78864 0.63813 0.0
C446 C 0.80188 0.7466 0.64795 0.0
C447 C 0.76263 0.70276 0.6155 0.0
C448 C 0.75717 0.69958 0.57453 0.0
C449 C 0.79029 0.74134 0.56596 0.0
C450 C 0.82765 0.78563 0.59645 0.0
C451 C 0.85651 0.82606 0.57794 0.0
C452 C 0.83652 0.89296 0.57515 0.0
C453 C 0.92793 0.81966 0.60604 0.0
C454 C 0.82838 0.79829 0.53194 0.0
C455 C 0.79149 0.74859 0.52636 0.0
C456 C 0.76205 0.71381 0.48758 0.0
C457 C 0.77008 0.73039 0.45336 0.0
C458 C 0.80611 0.78212 0.45755 0.0
C459 C 0.83534 0.81676 0.49733 0.0
H460 H 0.8003 0.65231 0.9697 0.0
H461 H 0.85412 0.83903 0.96642 0.0
H462 H 0.86478 0.8599 0.03782 0.0
H463 H 0.706 0.68813 0.01075 0.0
H464 H 0.72691 0.62169 0.0457 0.0
H465 H 0.72963 0.61895 0.99663 0.0
H466 H 0.84536 0.5855 0.04426 0.0
H467 H 0.84303 0.5878 0.09353 0.0
H468 H 0.9009 0.63143 0.09124 0.0
H469 H 0.86526 0.86243 0.1077 0.0
H470 H 0.85292 0.84674 0.17058 0.0
H471 H 0.79511 0.65965 0.12789 0.0
C472 C 0.81537 0.69721 0.98448 0.0
C473 C 0.82672 0.744 0.96266 0.0
C474 C 0.84519 0.80253 0.98256 0.0
C475 C 0.85157 0.8148 0.02319 0.0
C476 C 0.8389 0.76818 0.04347 0.0
C477 C 0.82116 0.71054 0.02488 0.0
C478 C 0.80654 0.66988 0.05226 0.0
C479 C 0.73821 0.64842 0.02468 0.0
C480 C 0.85167 0.61543 0.07146 0.0
C481 C 0.81798 0.71396 0.08866 0.0
C482 C 0.83736 0.77018 0.08323 0.0
C483 C 0.85035 0.8185 0.1124 0.0
C484 C 0.84334 0.80911 0.1481 0.0
C485 C 0.82318 0.75199 0.15426 0.0
C486 C 0.81032 0.70393 0.12399 0.0
H487 H 0.28142 0.30029 0.55826 0.0
H488 H 0.15885 0.14469 0.52628 0.0
H489 H 0.13022 0.14816 0.44849 0.0
H490 H 0.18734 0.38027 0.45284 0.0
H491 H 0.25427 0.40469 0.45241 0.0
H492 H 0.26099 0.3929 0.50454 0.0
H493 H 0.35216 0.31724 0.5289 0.0
H494 H 0.34559 0.32887 0.47686 0.0
H495 H 0.34065 0.25284 0.49384 0.0
H496 H 0.11592 0.16823 0.37446 0.0
H497 H 0.12386 0.19707 0.31132 0.0
H498 H 0.26125 0.33526 0.3933 0.0
C499 C 0.2481 0.26727 0.53482 0.0
C500 C 0.22163 0.22274 0.54814 0.0
C501 C 0.17913 0.17962 0.51667 0.0
C502 C 0.16252 0.18132 0.47241 0.0
C503 C 0.1894 0.22597 0.46038 0.0
C504 C 0.23176 0.26776 0.49077 0.0
C505 C 0.25694 0.30862 0.4701 0.0
C506 C 0.23878 0.37558 0.46996 0.0
C507 C 0.32804 0.30142 0.49383 0.0
C508 C 0.22284 0.28269 0.42346 0.0
C509 C 0.18326 0.23581 0.4183 0.0
C510 C 0.14682 0.20482 0.37813 0.0
C511 C 0.15166 0.22161 0.34246 0.0
C512 C 0.19337 0.26835 0.34744 0.0
C513 C 0.229 0.29939 0.38845 0.0
loop_
_geom_bond_atom_site_label_1
_geom_bond_atom_site_label_2
_geom_bond_distance
_geom_bond_site_symmetry_2
_ccdc_geom_bond_type
Zn0 N4 2.020 . S
Zn0 O8 2.019 . S
Zn0 N10 2.119 . S
Zn0 O18 1.975 . S
C1 N2 1.334 . S
C1 N5 1.336 . S
N2 C1 1.334 . S
N2 C3 1.334 . S
C3 N2 1.334 . S
C3 N4 1.336 . S
N4 Zn0 2.020 . S
N4 C3 1.336 . S
N4 N5 1.354 . S
N5 C1 1.336 . S
N5 N4 1.354 . S
N5 Zn9 2.020 . S
C6 O7 1.244 . S
C6 O30 1.257 . S
O7 C6 1.244 . S
O8 Zn0 2.019 . S
O8 C28 1.257 . S
Zn9 N5 2.020 . S
Zn9 O16 1.975 . S
Zn9 N25 2.119 . S
Zn9 O30 2.019 . S
N10 Zn0 2.119 . S
N10 C12 1.334 . S
N10 C13 1.328 . S
C11 C12 1.391 . S
C11 N14 1.329 . S
C11 H32 0.930 . S
C12 N10 1.334 . S
C12 C11 1.391 . S
C12 H19 0.930 . S
C13 N10 1.328 . S
C13 C15 1.392 . S
C13 H20 0.930 . S
N14 C11 1.329 . S
N14 C15 1.331 . S
C15 C13 1.392 . S
C15 N14 1.331 . S
O16 Zn9 1.975 . S
O16 C17 1.252 . S
C17 O16 1.252 . S
C17 O18 1.252 . S
O18 Zn0 1.975 . S
O18 C17 1.252 . S
H19 C12 0.930 . S
H20 C13 0.930 . S
C21 C22 1.392 . S
C21 N25 1.328 . S
C21 H27 0.930 . S
C22 C21 1.392 . S
C22 N26 1.331 . S
C23 C24 1.391 . S
C23 N26 1.329 . S
C23 H33 0.930 . S
C24 C23 1.391 . S
C24 N25 1.334 . S
C24 H31 0.930 . S
N25 Zn9 2.119 . S
N25 C21 1.328 . S
N25 C24 1.334 . S
N26 C22 1.331 . S
N26 C23 1.329 . S
H27 C21 0.930 . S
C28 O8 1.257 . S
C28 O29 1.244 . S
O29 C28 1.244 . S
O30 C6 1.257 . S
O30 Zn9 2.019 . S
H31 C24 0.930 . S
H32 C11 0.930 . S
H33 C23 0.930 . S
Zn34 N38 2.020 . S
Zn34 O42 2.019 . S
Zn34 N44 2.119 . S
Zn34 O52 1.975 . S
C35 N36 1.334 . S
C35 N39 1.336 . S
N36 C35 1.334 . S
N36 C37 1.334 . S
C37 N36 1.334 . S
C37 N38 1.336 . S
N38 Zn34 2.020 . S
N38 C37 1.336 . S
N38 N39 1.354 . S
N39 C35 1.336 . S
N39 N38 1.354 . S
N39 Zn43 2.020 . S
C40 O41 1.244 . S
C40 O64 1.257 . S
O41 C40 1.244 . S
O42 Zn34 2.019 . S
O42 C62 1.257 . S
Zn43 N39 2.020 . S
Zn43 O50 1.975 . S
Zn43 N59 2.119 . S
Zn43 O64 2.019 . S
N44 Zn34 2.119 . S
N44 C46 1.334 . S
N44 C47 1.328 . S
C45 C46 1.391 . S
C45 N48 1.329 . S
C45 H66 0.930 . S
C46 N44 1.334 . S
C46 C45 1.391 . S
C46 H53 0.930 . S
C47 N44 1.328 . S
C47 C49 1.392 . S
C47 H54 0.930 . S
N48 C45 1.329 . S
N48 C49 1.331 . S
C49 C47 1.392 . S
C49 N48 1.331 . S
O50 Zn43 1.975 . S
O50 C51 1.252 . S
C51 O50 1.252 . S
C51 O52 1.252 . S
O52 Zn34 1.975 . S
O52 C51 1.252 . S
H53 C46 0.930 . S
H54 C47 0.930 . S
C55 C56 1.392 . S
C55 N59 1.328 . S
C55 H61 0.930 . S
C56 C55 1.392 . S
C56 N60 1.331 . S
C57 C58 1.391 . S
C57 N60 1.329 . S
C57 H67 0.930 . S
C58 C57 1.391 . S
C58 N59 1.334 . S
C58 H65 0.930 . S
N59 Zn43 2.119 . S
N59 C55 1.328 . S
N59 C58 1.334 . S
N60 C56 1.331 . S
N60 C57 1.329 . S
H61 C55 0.930 . S
C62 O42 1.257 . S
C62 O63 1.244 . S
O63 C62 1.244 . S
O64 C40 1.257 . S
O64 Zn43 2.019 . S
H65 C58 0.930 . S
H66 C45 0.930 . S
H67 C57 0.930 . S
Zn68 N72 2.020 . S
Zn68 O76 2.019 . S
Zn68 N78 2.119 . S
Zn68 O86 1.975 . S
C69 N70 1.334 . S
C69 N73 1.336 . S
N70 C69 1.334 . S
N70 C71 1.334 . S
C71 N70 1.334 . S
C71 N72 1.336 . S
N72 Zn68 2.020 . S
N72 C71 1.336 . S
N72 N73 1.354 . S
N73 C69 1.336 . S
N73 N72 1.354 . S
N73 Zn77 2.020 . S
C74 O75 1.244 . S
C74 O98 1.257 . S
O75 C74 1.244 . S
O76 Zn68 2.019 . S
O76 C96 1.257 . S
Zn77 N73 2.020 . S
Zn77 O84 1.975 . S
Zn77 N93 2.119 . S
Zn77 O98 2.019 . S
N78 Zn68 2.119 . S
N78 C80 1.334 . S
N78 C81 1.328 . S
C79 C80 1.391 . S
C79 N82 1.329 . S
C79 H100 0.930 . S
C80 N78 1.334 . S
C80 C79 1.391 . S
C80 H87 0.930 . S
C81 N78 1.328 . S
C81 C83 1.392 . S
C81 H88 0.930 . S
N82 C79 1.329 . S
N82 C83 1.331 . S
C83 C81 1.392 . S
C83 N82 1.331 . S
O84 Zn77 1.975 . S
O84 C85 1.252 . S
C85 O84 1.252 . S
C85 O86 1.252 . S
O86 Zn68 1.975 . S
O86 C85 1.252 . S
H87 C80 0.930 . S
H88 C81 0.930 . S
C89 C90 1.392 . S
C89 N93 1.328 . S
C89 H95 0.930 . S
C90 C89 1.392 . S
C90 N94 1.331 . S
C91 C92 1.391 . S
C91 N94 1.329 . S
C91 H101 0.930 . S
C92 C91 1.391 . S
C92 N93 1.334 . S
C92 H99 0.930 . S
N93 Zn77 2.119 . S
N93 C89 1.328 . S
N93 C92 1.334 . S
N94 C90 1.331 . S
N94 C91 1.329 . S
H95 C89 0.930 . S
C96 O76 1.257 . S
C96 O97 1.244 . S
O97 C96 1.244 . S
O98 C74 1.257 . S
O98 Zn77 2.019 . S
H99 C92 0.930 . S
H100 C79 0.930 . S
H101 C91 0.930 . S
Zn102 N106 2.020 . S
Zn102 O110 2.019 . S
Zn102 N112 2.119 . S
Zn102 O120 1.975 . S
C103 N104 1.334 . S
C103 N107 1.336 . S
N104 C103 1.334 . S
N104 C105 1.334 . S
C105 N104 1.334 . S
C105 N106 1.336 . S
N106 Zn102 2.020 . S
N106 C105 1.336 . S
N106 N107 1.354 . S
N107 C103 1.336 . S
N107 N106 1.354 . S
N107 Zn111 2.020 . S
C108 O109 1.244 . S
C108 O132 1.257 . S
O109 C108 1.244 . S
O110 Zn102 2.019 . S
O110 C130 1.257 . S
Zn111 N107 2.020 . S
Zn111 O118 1.975 . S
Zn111 N127 2.119 . S
Zn111 O132 2.019 . S
N112 Zn102 2.119 . S
N112 C114 1.334 . S
N112 C115 1.328 . S
C113 C114 1.391 . S
C113 N116 1.329 . S
C113 H134 0.930 . S
C114 N112 1.334 . S
C114 C113 1.391 . S
C114 H121 0.930 . S
C115 N112 1.328 . S
C115 C117 1.392 . S
C115 H122 0.930 . S
N116 C113 1.329 . S
N116 C117 1.331 . S
C117 C115 1.392 . S
C117 N116 1.331 . S
O118 Zn111 1.975 . S
O118 C119 1.252 . S
C119 O118 1.252 . S
C119 O120 1.252 . S
O120 Zn102 1.975 . S
O120 C119 1.252 . S
H121 C114 0.930 . S
H122 C115 0.930 . S
C123 C124 1.392 . S
C123 N127 1.328 . S
C123 H129 0.930 . S
C124 C123 1.392 . S
C124 N128 1.331 . S
C125 C126 1.391 . S
C125 N128 1.329 . S
C125 H135 0.930 . S
C126 C125 1.391 . S
C126 N127 1.334 . S
C126 H133 0.930 . S
N127 Zn111 2.119 . S
N127 C123 1.328 . S
N127 C126 1.334 . S
N128 C124 1.331 . S
N128 C125 1.329 . S
H129 C123 0.930 . S
C130 O110 1.257 . S
C130 O131 1.244 . S
O131 C130 1.244 . S
O132 C108 1.257 . S
O132 Zn111 2.019 . S
H133 C126 0.930 . S
H134 C113 0.930 . S
H135 C125 0.930 . S
H136 C148 0.930 . S
H137 C150 0.930 . S
H138 C151 0.930 . S
H139 C155 0.959 . S
H140 C155 0.959 . S
H141 C155 0.961 . S
H142 C156 0.960 . S
H143 C156 0.961 1_565 S
H144 C156 0.959 1_565 S
H145 C159 0.929 . S
H146 C160 0.931 . S
H147 C162 0.930 . S
C148 H136 0.930 . S
C148 C149 1.399 . S
C148 C153 1.399 . S
C149 C148 1.399 . S
C149 C150 1.376 . S
C150 H137 0.930 . S
C150 C149 1.376 . S
C150 C151 1.388 . S
C151 H138 0.930 . S
C151 C150 1.388 . S
C151 C152 1.390 . S
C152 C151 1.390 . S
C152 C153 1.394 . S
C152 C158 1.465 . S
C153 C148 1.399 . S
C153 C152 1.394 . S
C153 C154 1.516 . S
C154 C153 1.516 . S
C154 C155 1.502 . S
C154 C156 1.561 . S
C154 C157 1.526 . S
C155 H139 0.959 . S
C155 H140 0.959 . S
C155 H141 0.961 . S
C155 C154 1.502 . S
C156 H142 0.960 . S
C156 H143 0.961 1_545 S
C156 H144 0.959 1_545 S
C156 C154 1.561 . S
C157 C154 1.526 . S
C157 C158 1.396 . S
C157 C162 1.390 1_545 S
C158 C152 1.465 . S
C158 C157 1.396 . S
C158 C159 1.399 1_545 S
C159 H145 0.929 . S
C159 C158 1.399 1_565 S
C159 C160 1.385 . S
C160 H146 0.931 . S
C160 C159 1.385 . S
C160 C161 1.389 . S
C161 C160 1.389 . S
C161 C162 1.387 . S
C162 H147 0.930 . S
C162 C157 1.390 1_565 S
C162 C161 1.387 . S
H163 C175 0.930 . S
H164 C177 0.930 . S
H165 C178 0.930 . S
H166 C182 0.959 . S
H167 C182 0.959 . S
H168 C182 0.961 . S
H169 C183 0.960 . S
H170 C183 0.961 . S
H171 C183 0.959 . S
H172 C186 0.929 . S
H173 C187 0.931 . S
H174 C189 0.930 . S
C175 H163 0.930 . S
C175 C176 1.399 . S
C175 C180 1.399 . S
C176 C175 1.399 . S
C176 C177 1.376 . S
C177 H164 0.930 . S
C177 C176 1.376 . S
C177 C178 1.388 . S
C178 H165 0.930 . S
C178 C177 1.388 . S
C178 C179 1.390 . S
C179 C178 1.390 . S
C179 C180 1.394 . S
C179 C185 1.465 . S
C180 C175 1.399 . S
C180 C179 1.394 . S
C180 C181 1.516 . S
C181 C180 1.516 . S
C181 C182 1.502 . S
C181 C183 1.561 . S
C181 C184 1.526 . S
C182 H166 0.959 . S
C182 H167 0.959 . S
C182 H168 0.961 . S
C182 C181 1.502 . S
C183 H169 0.960 . S
C183 H170 0.961 . S
C183 H171 0.959 . S
C183 C181 1.561 . S
C184 C181 1.526 . S
C184 C185 1.396 . S
C184 C189 1.390 . S
C185 C179 1.465 . S
C185 C184 1.396 . S
C185 C186 1.399 . S
C186 H172 0.929 . S
C186 C185 1.399 . S
C186 C187 1.385 . S
C187 H173 0.931 . S
C187 C186 1.385 . S
C187 C188 1.389 . S
C188 C187 1.389 . S
C188 C189 1.387 . S
C189 H174 0.930 . S
C189 C184 1.390 . S
C189 C188 1.387 . S
H190 C202 0.930 . S
H191 C204 0.930 . S
H192 C205 0.930 . S
H193 C209 0.959 . S
H194 C209 0.959 . S
H195 C209 0.961 . S
H196 C210 0.960 1_545 S
H197 C210 0.961 . S
H198 C210 0.959 . S
H199 C213 0.929 . S
H200 C214 0.931 . S
H201 C216 0.930 . S
C202 H190 0.930 . S
C202 C203 1.399 . S
C202 C207 1.399 1_545 S
C203 C202 1.399 . S
C203 C204 1.376 1_545 S
C204 H191 0.930 . S
C204 C203 1.376 1_565 S
C204 C205 1.388 . S
C205 H192 0.930 . S
C205 C204 1.388 . S
C205 C206 1.390 . S
C206 C205 1.390 . S
C206 C207 1.394 . S
C206 C212 1.465 . S
C207 C202 1.399 1_565 S
C207 C206 1.394 . S
C207 C208 1.516 . S
C208 C207 1.516 . S
C208 C209 1.502 1_565 S
C208 C210 1.561 . S
C208 C211 1.526 . S
C209 H193 0.959 . S
C209 H194 0.959 . S
C209 H195 0.961 . S
C209 C208 1.502 1_545 S
C210 H196 0.960 1_565 S
C210 H197 0.961 . S
C210 H198 0.959 . S
C210 C208 1.561 . S
C211 C208 1.526 . S
C211 C212 1.396 . S
C211 C216 1.390 . S
C212 C206 1.465 . S
C212 C211 1.396 . S
C212 C213 1.399 . S
C213 H199 0.929 . S
C213 C212 1.399 . S
C213 C214 1.385 . S
C214 H200 0.931 . S
C214 C213 1.385 . S
C214 C215 1.389 . S
C215 C214 1.389 . S
C215 C216 1.387 . S
C216 H201 0.930 . S
C216 C211 1.390 . S
C216 C215 1.387 . S
H217 C229 0.930 . S
H218 C231 0.930 . S
H219 C232 0.930 . S
H220 C236 0.959 . S
H221 C236 0.959 . S
H222 C236 0.961 . S
H223 C237 0.960 . S
H224 C237 0.961 . S
H225 C237 0.959 . S
H226 C240 0.929 . S
H227 C241 0.931 . S
H228 C243 0.930 . S
C229 H217 0.930 . S
C229 C230 1.399 . S
C229 C234 1.399 . S
C230 C229 1.399 . S
C230 C231 1.376 . S
C231 H218 0.930 . S
C231 C230 1.376 . S
C231 C232 1.388 . S
C232 H219 0.930 . S
C232 C231 1.388 . S
C232 C233 1.390 . S
C233 C232 1.390 . S
C233 C234 1.394 . S
C233 C239 1.465 . S
C234 C229 1.399 . S
C234 C233 1.394 . S
C234 C235 1.516 . S
C235 C234 1.516 . S
C235 C236 1.502 . S
C235 C237 1.561 . S
C235 C238 1.526 . S
C236 H220 0.959 . S
C236 H221 0.959 . S
C236 H222 0.961 . S
C236 C235 1.502 . S
C237 H223 0.960 . S
C237 H224 0.961 . S
C237 H225 0.959 . S
C237 C235 1.561 . S
C238 C235 1.526 . S
C238 C239 1.396 . S
C238 C243 1.390 . S
C239 C233 1.465 . S
C239 C238 1.396 . S
C239 C240 1.399 . S
C240 H226 0.929 . S
C240 C239 1.399 . S
C240 C241 1.385 . S
C241 H227 0.931 . S
C241 C240 1.385 . S
C241 C242 1.389 . S
C242 C241 1.389 . S
C242 C243 1.387 . S
C243 H228 0.930 . S
C243 C238 1.390 . S
C243 C242 1.387 . S
H244 C256 0.930 . S
H245 C258 0.930 . S
H246 C259 0.930 . S
H247 C263 0.959 1_565 S
H248 C263 0.959 . S
H249 C263 0.961 . S
H250 C264 0.960 . S
H251 C264 0.961 . S
H252 C264 0.959 . S
H253 C267 0.929 . S
H254 C268 0.931 . S
H255 C270 0.930 . S
C256 H244 0.930 . S
C256 C257 1.399 . S
C256 C261 1.399 . S
C257 C256 1.399 . S
C257 C258 1.376 . S
C258 H245 0.930 . S
C258 C257 1.376 . S
C258 C259 1.388 1_445 S
C259 H246 0.930 . S
C259 C258 1.388 1_665 S
C259 C260 1.390 . S
C260 C259 1.390 . S
C260 C261 1.394 1_665 S
C260 C266 1.465 . S
C261 C256 1.399 . S
C261 C260 1.394 1_445 S
C261 C262 1.516 1_455 S
C262 C261 1.516 1_655 S
C262 C263 1.502 1_655 S
C262 C264 1.561 . S
C262 C265 1.526 1_545 S
C263 H247 0.959 1_545 S
C263 H248 0.959 . S
C263 H249 0.961 . S
C263 C262 1.502 1_455 S
C264 H250 0.960 . S
C264 H251 0.961 . S
C264 H252 0.959 . S
C264 C262 1.561 . S
C265 C262 1.526 1_565 S
C265 C266 1.396 . S
C265 C270 1.390 . S
C266 C260 1.465 . S
C266 C265 1.396 . S
C266 C267 1.399 . S
C267 H253 0.929 . S
C267 C266 1.399 . S
C267 C268 1.385 . S
C268 H254 0.931 . S
C268 C267 1.385 . S
C268 C269 1.389 . S
C269 C268 1.389 . S
C269 C270 1.387 . S
C270 H255 0.930 . S
C270 C265 1.390 . S
C270 C269 1.387 . S
H271 C283 0.930 . S
H272 C285 0.930 . S
H273 C286 0.930 . S
H274 C290 0.959 . S
H275 C290 0.959 . S
H276 C290 0.961 . S
H277 C291 0.960 . S
H278 C291 0.961 . S
H279 C291 0.959 . S
H280 C294 0.929 . S
H281 C295 0.931 . S
H282 C297 0.930 . S
C283 H271 0.930 . S
C283 C284 1.399 . S
C283 C288 1.399 . S
C284 C283 1.399 . S
C284 C285 1.376 . S
C285 H272 0.930 . S
C285 C284 1.376 . S
C285 C286 1.388 1_455 S
C286 H273 0.930 . S
C286 C285 1.388 1_655 S
C286 C287 1.390 1_655 S
C287 C286 1.390 1_455 S
C287 C288 1.394 . S
C287 C293 1.465 1_455 S
C288 C283 1.399 . S
C288 C287 1.394 . S
C288 C289 1.516 . S
C289 C288 1.516 . S
C289 C290 1.502 . S
C289 C291 1.561 . S
C289 C292 1.526 . S
C290 H274 0.959 . S
C290 H275 0.959 . S
C290 H276 0.961 . S
C290 C289 1.502 . S
C291 H277 0.960 . S
C291 H278 0.961 . S
C291 H279 0.959 . S
C291 C289 1.561 . S
C292 C289 1.526 . S
C292 C293 1.396 1_455 S
C292 C297 1.390 . S
C293 C287 1.465 1_655 S
C293 C292 1.396 1_655 S
C293 C294 1.399 . S
C294 H280 0.929 . S
C294 C293 1.399 . S
C294 C295 1.385 . S
C295 H281 0.931 . S
C295 C294 1.385 . S
C295 C296 1.389 . S
C296 C295 1.389 . S
C296 C297 1.387 1_655 S
C297 H282 0.930 . S
C297 C292 1.390 . S
C297 C296 1.387 1_455 S
H298 C310 0.930 . S
H299 C312 0.930 1_545 S
H300 C313 0.930 . S
H301 C317 0.959 . S
H302 C317 0.959 . S
H303 C317 0.961 . S
H304 C318 0.960 . S
H305 C318 0.961 . S
H306 C318 0.946 1_545 S
H307 C321 0.929 . S
H308 C322 0.931 . S
H309 C324 0.930 . S
C310 H298 0.930 . S
C310 C311 1.399 . S
C310 C315 1.399 . S
C311 C310 1.399 . S
C311 C312 1.376 . S
C312 H299 0.930 1_565 S
C312 C311 1.376 . S
C312 C313 1.388 1_565 S
C313 H300 0.930 . S
C313 C312 1.388 1_545 S
C313 C314 1.390 . S
C314 C313 1.390 . S
C314 C315 1.394 1_545 S
C314 C320 1.465 1_655 S
C315 C310 1.399 . S
C315 C314 1.394 1_565 S
C315 C316 1.516 1_655 S
C316 C315 1.516 1_455 S
C316 C317 1.502 . S
C316 C318 1.561 1_455 S
C316 C319 1.526 1_565 S
C317 H301 0.959 . S
C317 H302 0.959 . S
C317 H303 0.961 . S
C317 C316 1.502 . S
C318 H304 0.960 . S
C318 H305 0.961 . S
C318 H306 0.946 1_565 S
C318 C316 1.561 1_655 S
C319 C316 1.526 1_545 S
C319 C320 1.396 . S
C319 C324 1.390 . S
C320 C314 1.465 1_455 S
C320 C319 1.396 . S
C320 C321 1.399 . S
C321 H307 0.929 . S
C321 C320 1.399 . S
C321 C322 1.385 . S
C322 H308 0.931 . S
C322 C321 1.385 . S
C322 C323 1.389 . S
C323 C322 1.389 . S
C323 C324 1.387 . S
C324 H309 0.930 . S
C324 C319 1.390 . S
C324 C323 1.387 . S
H325 C337 0.930 1_655 S
H326 C339 0.930 . S
H327 C340 0.930 . S
H328 C344 0.959 . S
H329 C344 0.959 . S
H330 C344 0.961 . S
H331 C345 0.960 . S
H332 C345 0.961 . S
H333 C345 0.959 . S
H334 C348 0.929 1_455 S
H335 C349 0.931 . S
H336 C351 0.930 . S
C337 H325 0.930 1_455 S
C337 C338 1.399 . S
C337 C342 1.399 1_455 S
C338 C337 1.399 . S
C338 C339 1.376 . S
C339 H326 0.930 . S
C339 C338 1.376 . S
C339 C340 1.388 . S
C340 H327 0.930 . S
C340 C339 1.388 . S
C340 C341 1.390 . S
C341 C340 1.390 . S
C341 C342 1.394 1_455 S
C341 C347 1.465 1_455 S
C342 C337 1.399 1_655 S
C342 C341 1.394 1_655 S
C342 C343 1.516 . S
C343 C342 1.516 . S
C343 C344 1.502 . S
C343 C345 1.561 . S
C343 C346 1.526 . S
C344 H328 0.959 . S
C344 H329 0.959 . S
C344 H330 0.961 . S
C344 C343 1.502 . S
C345 H331 0.960 . S
C345 H332 0.961 . S
C345 H333 0.959 . S
C345 C343 1.561 . S
C346 C343 1.526 . S
C346 C347 1.396 . S
C346 C351 1.390 . S
C347 C341 1.465 1_655 S
C347 C346 1.396 . S
C347 C348 1.399 . S
C348 H334 0.929 1_655 S
C348 C347 1.399 . S
C348 C349 1.385 . S
C349 H335 0.931 . S
C349 C348 1.385 . S
C349 C350 1.389 . S
C350 C349 1.389 . S
C350 C351 1.387 . S
C351 H336 0.930 . S
C351 C346 1.390 . S
C351 C350 1.387 . S
H352 C364 0.930 . S
H353 C366 0.930 . S
H354 C367 0.930 . S
H355 C371 0.959 . S
H356 C371 0.959 . S
H357 C371 0.961 1_655 S
H358 C372 0.960 . S
H359 C372 0.961 . S
H360 C372 0.959 . S
H361 C375 0.929 1_556 S
H362 C376 0.931 . S
H363 C378 0.930 . S
C364 H352 0.930 . S
C364 C365 1.399 . S
C364 C369 1.399 . S
C365 C364 1.399 . S
C365 C366 1.376 . S
C366 H353 0.930 . S
C366 C365 1.376 . S
C366 C367 1.388 . S
C367 H354 0.930 . S
C367 C366 1.388 . S
C367 C368 1.390 . S
C368 C367 1.390 . S
C368 C369 1.394 . S
C368 C374 1.465 1_656 S
C369 C364 1.399 . S
C369 C368 1.394 . S
C369 C370 1.516 1_556 S
C370 C369 1.516 1_554 S
C370 C371 1.502 1_655 S
C370 C372 1.561 . S
C370 C373 1.526 1_655 S
C371 H355 0.959 . S
C371 H356 0.959 . S
C371 H357 0.961 1_455 S
C371 C370 1.502 1_455 S
C372 H358 0.960 . S
C372 H359 0.961 . S
C372 H360 0.959 . S
C372 C370 1.561 . S
C373 C370 1.526 1_455 S
C373 C374 1.396 . S
C373 C378 1.390 . S
C374 C368 1.465 1_454 S
C374 C373 1.396 . S
C374 C375 1.399 . S
C375 H361 0.929 1_554 S
C375 C374 1.399 . S
C375 C376 1.385 . S
C376 H362 0.931 . S
C376 C375 1.385 . S
C376 C377 1.389 . S
C377 C376 1.389 . S
C377 C378 1.387 . S
C378 H363 0.930 . S
C378 C373 1.390 . S
C378 C377 1.387 . S
H379 C391 0.930 . S
H380 C393 0.930 . S
H381 C394 0.930 . S
H382 C398 0.959 1_655 S
H383 C398 0.959 . S
H384 C398 0.961 1_655 S
H385 C399 0.960 . S
H386 C399 0.961 . S
H387 C399 0.959 . S
H388 C402 0.929 . S
H389 C403 0.931 . S
H390 C405 0.929 1_565 S
C391 H379 0.930 . S
C391 C392 1.399 . S
C391 C396 1.399 . S
C392 C391 1.399 . S
C392 C393 1.376 . S
C393 H380 0.930 . S
C393 C392 1.376 . S
C393 C394 1.388 1_565 S
C394 H381 0.930 . S
C394 C393 1.388 1_545 S
C394 C395 1.390 . S
C395 C394 1.390 . S
C395 C396 1.394 1_545 S
C395 C401 1.465 1_655 S
C396 C391 1.399 . S
C396 C395 1.394 1_565 S
C396 C397 1.516 1_655 S
C397 C396 1.516 1_455 S
C397 C398 1.502 . S
C397 C399 1.561 . S
C397 C400 1.526 1_565 S
C398 H382 0.959 1_455 S
C398 H383 0.959 . S
C398 H384 0.961 1_455 S
C398 C397 1.502 . S
C399 H385 0.960 . S
C399 H386 0.961 . S
C399 H387 0.959 . S
C399 C397 1.561 . S
C400 C397 1.526 1_545 S
C400 C401 1.396 . S
C400 C405 1.390 . S
C401 C395 1.465 1_455 S
C401 C400 1.396 . S
C401 C402 1.399 . S
C402 H388 0.929 . S
C402 C401 1.399 . S
C402 C403 1.385 . S
C403 H389 0.931 . S
C403 C402 1.385 . S
C403 C404 1.389 . S
C404 C403 1.389 . S
C404 C405 1.387 . S
C405 H390 0.929 1_545 S
C405 C400 1.390 . S
C405 C404 1.387 . S
H406 C418 0.930 . S
H407 C420 0.930 . S
H408 C421 0.930 . S
H409 C425 0.959 . S
H410 C425 0.959 . S
H411 C425 0.961 . S
H412 C426 0.960 . S
H413 C426 0.961 1_554 S
H414 C426 0.958 1_554 S
H415 C429 0.941 . S
H416 C430 0.931 . S
H417 C432 0.930 . S
C418 H406 0.930 . S
C418 C419 1.399 . S
C418 C423 1.399 . S
C419 C418 1.399 . S
C419 C420 1.376 . S
C420 H407 0.930 . S
C420 C419 1.376 . S
C420 C421 1.388 . S
C421 H408 0.930 . S
C421 C420 1.388 . S
C421 C422 1.390 . S
C422 C421 1.390 . S
C422 C423 1.394 . S
C422 C428 1.465 . S
C423 C418 1.399 . S
C423 C422 1.394 . S
C423 C424 1.516 . S
C424 C423 1.516 . S
C424 C425 1.502 . S
C424 C426 1.561 . S
C424 C427 1.526 . S
C425 H409 0.959 . S
C425 H410 0.959 . S
C425 H411 0.961 . S
C425 C424 1.502 . S
C426 H412 0.960 . S
C426 H413 0.961 1_556 S
C426 H414 0.958 1_556 S
C426 C424 1.561 . S
C427 C424 1.526 . S
C427 C428 1.396 . S
C427 C432 1.390 1_556 S
C428 C422 1.465 . S
C428 C427 1.396 . S
C428 C429 1.417 . S
C429 H415 0.941 . S
C429 C428 1.417 . S
C429 C430 1.356 1_556 S
C430 H416 0.931 . S
C430 C429 1.356 1_554 S
C430 C431 1.389 . S
C431 C430 1.389 . S
C431 C432 1.387 . S
C432 H417 0.930 . S
C432 C427 1.390 1_554 S
C432 C431 1.387 . S
H433 C445 0.930 . S
H434 C447 0.930 . S
H435 C448 0.930 . S
H436 C452 0.959 . S
H437 C452 0.959 . S
H438 C452 0.961 . S
H439 C453 0.960 . S
H440 C453 0.961 . S
H441 C453 0.959 . S
H442 C456 0.929 . S
H443 C457 0.931 . S
H444 C459 0.930 . S
C445 H433 0.930 . S
C445 C446 1.399 . S
C445 C450 1.399 . S
C446 C445 1.399 . S
C446 C447 1.376 . S
C447 H434 0.930 . S
C447 C446 1.376 . S
C447 C448 1.388 . S
C448 H435 0.930 . S
C448 C447 1.388 . S
C448 C449 1.390 . S
C449 C448 1.390 . S
C449 C450 1.394 . S
C449 C455 1.465 . S
C450 C445 1.399 . S
C450 C449 1.394 . S
C450 C451 1.516 . S
C451 C450 1.516 . S
C451 C452 1.502 . S
C451 C453 1.561 . S
C451 C454 1.526 . S
C452 H436 0.959 . S
C452 H437 0.959 . S
C452 H438 0.961 . S
C452 C451 1.502 . S
C453 H439 0.960 . S
C453 H440 0.961 . S
C453 H441 0.959 . S
C453 C451 1.561 . S
C454 C451 1.526 . S
C454 C455 1.396 . S
C454 C459 1.390 . S
C455 C449 1.465 . S
C455 C454 1.396 . S
C455 C456 1.399 . S
C456 H442 0.929 . S
C456 C455 1.399 . S
C456 C457 1.385 . S
C457 H443 0.931 . S
C457 C456 1.385 . S
C457 C458 1.389 . S
C458 C457 1.389 . S
C458 C459 1.387 . S
C459 H444 0.930 . S
C459 C454 1.390 . S
C459 C458 1.387 . S
H460 C472 0.930 . S
H461 C474 0.930 . S
H462 C475 0.930 . S
H463 C479 0.959 1_556 S
H464 C479 0.959 . S
H465 C479 0.961 1_556 S
H466 C480 0.960 . S
H467 C480 0.961 . S
H468 C480 0.959 . S
H469 C483 0.929 . S
H470 C484 0.931 . S
H471 C486 0.930 . S
C472 H460 0.930 . S
C472 C473 1.399 . S
C472 C477 1.399 1_556 S
C473 C472 1.399 . S
C473 C474 1.376 . S
C474 H461 0.930 . S
C474 C473 1.376 . S
C474 C475 1.388 1_556 S
C475 H462 0.930 . S
C475 C474 1.388 1_554 S
C475 C476 1.390 . S
C476 C475 1.390 . S
C476 C477 1.394 . S
C476 C482 1.465 . S
C477 C472 1.399 1_554 S
C477 C476 1.394 . S
C477 C478 1.516 . S
C478 C477 1.516 . S
C478 C479 1.502 . S
C478 C480 1.561 . S
C478 C481 1.526 . S
C479 H463 0.959 1_554 S
C479 H464 0.959 . S
C479 H465 0.961 1_554 S
C479 C478 1.502 . S
C480 H466 0.960 . S
C480 H467 0.961 . S
C480 H468 0.959 . S
C480 C478 1.561 . S
C481 C478 1.526 . S
C481 C482 1.396 . S
C481 C486 1.390 . S
C482 C476 1.465 . S
C482 C481 1.396 . S
C482 C483 1.399 . S
C483 H469 0.929 . S
C483 C482 1.399 . S
C483 C484 1.385 . S
C484 H470 0.931 . S
C484 C483 1.385 . S
C484 C485 1.389 . S
C485 C484 1.389 . S
C485 C486 1.387 . S
C486 H471 0.930 . S
C486 C481 1.390 . S
C486 C485 1.387 . S
H487 C499 0.930 . S
H488 C501 0.930 . S
H489 C502 0.930 . S
H490 C506 0.959 . S
H491 C506 0.959 . S
H492 C506 0.961 . S
H493 C507 0.960 . S
H494 C507 0.961 . S
H495 C507 0.959 . S
H496 C510 0.929 . S
H497 C511 0.931 . S
H498 C513 0.930 . S
C499 H487 0.930 . S
C499 C500 1.399 . S
C499 C504 1.399 . S
C500 C499 1.399 . S
C500 C501 1.376 . S
C501 H488 0.930 . S
C501 C500 1.376 . S
C501 C502 1.388 . S
C502 H489 0.930 . S
C502 C501 1.388 . S
C502 C503 1.390 . S
C503 C502 1.390 . S
C503 C504 1.394 . S
C503 C509 1.465 . S
C504 C499 1.399 . S
C504 C503 1.394 . S
C504 C505 1.516 . S
C505 C504 1.516 . S
C505 C506 1.502 . S
C505 C507 1.561 . S
C505 C508 1.526 . S
C506 H490 0.959 . S
C506 H491 0.959 . S
C506 H492 0.961 . S
C506 C505 1.502 . S
C507 H493 0.960 . S
C507 H494 0.961 . S
C507 H495 0.959 . S
C507 C505 1.561 . S
C508 C505 1.526 . S
C508 C509 1.396 . S
C508 C513 1.390 . S
C509 C503 1.465 . S
C509 C508 1.396 . S
C509 C510 1.399 . S
C510 H496 0.929 . S
C510 C509 1.399 . S
C510 C511 1.385 . S
C511 H497 0.931 . S
C511 C510 1.385 . S
C511 C512 1.389 . S
C512 C511 1.389 . S
C512 C513 1.387 . S
C513 H498 0.930 . S
C513 C508 1.390 . S
C513 C512 1.387 . S
C149 C17 1.602 . S
C161 C56 1.449 . S
C176 C15 1.544 . S
C188 C51 1.610 . S
C203 C124 1.504 . S
C215 C85 1.604 . S
C230 C90 1.460 . S
C242 C119 1.601 . S
C257 C22 1.480 . S
C269 C37 1.443 . S
C284 C1 1.386 . S
C296 C49 1.499 . S
C311 C83 1.485 . S
C323 C105 1.446 . S
C338 C117 1.513 . S
C350 C71 1.353 . S
C365 C69 1.925 . S
C377 C3 1.950 . S
C392 C35 1.916 . S
C404 C103 1.936 . S
C419 C130 1.262 . S
C431 C28 1.254 . S
C446 C96 1.262 . S
C458 C40 1.263 . S
C473 C74 1.276 . S
C485 C62 1.238 . S
C500 C108 1.251 . S
C512 C6 1.253 . S
