# Generated by pormake.
# Topology afw, (4)-cn, num edge types: 1
# Building blocks:
#     Node 0, Type 0, BuildingBlock: ESEHIV_clean_sbu_0, # of connection points: 4
#     Node 1, Type 0, BuildingBlock: ESEHIV_clean_sbu_0, # of connection points: 4
#     Node 2, Type 0, BuildingBlock: ESEHIV_clean_sbu_0, # of connection points: 4
#     Node 3, Type 0, BuildingBlock: ESEHIV_clean_sbu_0, # of connection points: 4
#     Node 4, Type 0, BuildingBlock: ESEHIV_clean_sbu_0, # of connection points: 4
#     Node 5, Type 0, BuildingBlock: ESEHIV_clean_sbu_0, # of connection points: 4
#     Node 6, Type 0, BuildingBlock: ESEHIV_clean_sbu_0, # of connection points: 4
#     Node 7, Type 0, BuildingBlock: ESEHIV_clean_sbu_0, # of connection points: 4
#     Node 8, Type 0, BuildingBlock: ESEHIV_clean_sbu_0, # of connection points: 4
#     Edge 9, Type (0, 0), BuildingBlock: CIFDUS_clean_linker_0, # of connection points: 2
#     Edge 10, Type (0, 0), BuildingBlock: CIFDUS_clean_linker_0, # of connection points: 2
#     Edge 11, Type (0, 0), BuildingBlock: CIFDUS_clean_linker_0, # of connection points: 2
#     Edge 12, Type (0, 0), BuildingBlock: CIFDUS_clean_linker_0, # of connection points: 2
#     Edge 13, Type (0, 0), BuildingBlock: CIFDUS_clean_linker_0, # of connection points: 2
#     Edge 14, Type (0, 0), BuildingBlock: CIFDUS_clean_linker_0, # of connection points: 2
#     Edge 15, Type (0, 0), BuildingBlock: CIFDUS_clean_linker_0, # of connection points: 2
#     Edge 16, Type (0, 0), BuildingBlock: CIFDUS_clean_linker_0, # of connection points: 2
#     Edge 17, Type (0, 0), BuildingBlock: CIFDUS_clean_linker_0, # of connection points: 2
#     Edge 18, Type (0, 0), BuildingBlock: CIFDUS_clean_linker_0, # of connection points: 2
#     Edge 19, Type (0, 0), BuildingBlock: CIFDUS_clean_linker_0, # of connection points: 2
#     Edge 20, Type (0, 0), BuildingBlock: CIFDUS_clean_linker_0, # of connection points: 2
#     Edge 21, Type (0, 0), BuildingBlock: CIFDUS_clean_linker_0, # of connection points: 2
#     Edge 22, Type (0, 0), BuildingBlock: CIFDUS_clean_linker_0, # of connection points: 2
#     Edge 23, Type (0, 0), BuildingBlock: CIFDUS_clean_linker_0, # of connection points: 2
#     Edge 24, Type (0, 0), BuildingBlock: CIFDUS_clean_linker_0, # of connection points: 2
#     Edge 25, Type (0, 0), BuildingBlock: CIFDUS_clean_linker_0, # of connection points: 2
#     Edge 26, Type (0, 0), BuildingBlock: CIFDUS_clean_linker_0, # of connection points: 2
# Relax obj value: 0.055
# Max RMSD: 0.173
# Mean RMSD: 0.159
data_MOF--net-afw--node1-ESEHIV_clean_sbu_0--edge1-CIFDUS_clean_linker_0
_symmetry_space_group_name_H-M    P1
_symmetry_Int_Tables_number       1
_symmetry_cell_setting            triclinic
loop_
_symmetry_equiv_pos_as_xyz
'x, y, z'
_cell_length_a     43.140813
_cell_length_b     47.994222
_cell_length_c     19.139533
_cell_angle_alpha  97.516115
_cell_angle_beta   92.423511
_cell_angle_gamma 117.74309
loop_
_atom_site_label
_atom_site_type_symbol
_atom_site_fract_x
_atom_site_fract_y
_atom_site_fract_z
_atom_type_partial_charge
Cu0 Cu 0.03874 0.20464 0.04241 0.0
N1 N 1.0011 0.1632 0.02145 0.0
N2 N 0.97024 0.11123 0.02672 0.0
C3 C 1.00248 0.13697 0.03498 0.0
C4 C 0.94752 0.12164 0.00749 0.0
C5 C 0.96669 0.15381 0.00428 0.0
O6 O 0.08106 0.20084 0.06363 0.0
C7 C 0.0413 0.25739 0.13565 0.0
O8 O 0.07158 0.27483 0.1128 0.0
H9 H 1.02642 0.13717 0.05509 0.0
H10 H 0.95615 0.16956 -0.00612 0.0
N11 N 0.0454 0.22663 0.96646 0.0
N12 N 0.07329 0.26681 0.90713 0.0
C13 C 0.07669 0.25032 0.9561 0.0
C14 C 1.02121 0.22787 0.92209 0.0
C15 C 0.03839 0.25272 0.8853 0.0
C16 C 0.08786 0.18587 0.01165 0.0
O17 O 0.06751 0.17645 0.95104 0.0
H18 H 0.10112 0.25696 -0.01174 0.0
H19 H 0.99301 0.21313 0.91993 0.0
O20 O 1.02594 0.22716 0.11746 0.0
H21 H 0.91911 0.10728 -0.0017 0.0
H22 H 1.02604 0.26063 0.84777 0.0
Cu23 Cu 0.904 0.85847 0.08605 0.0
N24 N 0.9021 0.89431 0.13155 0.0
N25 N 0.9061 0.94289 0.14556 0.0
C26 C 0.91455 0.92222 0.1075 0.0
C27 C 0.88748 0.9273 0.19582 0.0
C28 C 0.88508 0.89727 0.18704 0.0
O29 O 0.95197 0.87298 0.06279 0.0
C30 C 0.85214 0.81271 0.97119 0.0
O31 O 0.86158 0.79171 -0.01303 0.0
H32 H 0.92803 0.92672 0.06066 0.0
H33 H 0.87096 0.87856 0.21734 0.0
N34 N 0.89497 0.82873 0.14681 0.0
N35 N 0.87168 0.78235 0.18747 0.0
C36 C 0.86602 0.80034 0.14502 0.0
C37 C 0.91936 0.82914 0.19366 0.0
C38 C 0.90513 0.80063 0.2188 0.0
C39 C 0.96401 0.88836 0.01241 0.0
O40 O 0.94233 0.89173 0.9682 0.0
H41 H 0.84204 0.7922 0.11001 0.0
H42 H 0.94628 0.84816 0.20559 0.0
O43 O 0.86841 0.84141 0.00385 0.0
H44 H 0.87598 0.9367 0.23531 0.0
H45 H 0.91887 0.79348 0.25522 0.0
Cu46 Cu 0.2341 0.03576 0.03212 0.0
N47 N 0.24437 1.01432 0.95627 0.0
N48 N 0.27321 0.99115 0.90157 0.0
C49 C 0.27574 0.015 0.95124 0.0
C50 C 0.23901 0.97497 0.87385 0.0
C51 C 0.22125 0.98938 0.90771 0.0
O52 O 0.27146 0.04733 0.10771 0.0
C53 C 0.17498 0.98032 0.06683 0.0
O54 O 0.19702 0.9692 0.07859 0.0
H55 H 0.29924 0.03087 -0.01253 0.0
H56 H 0.19309 0.98086 0.90125 0.0
N57 N 0.23455 0.07271 0.0103 0.0
N58 N 0.21374 0.10666 -0.0032 0.0
C59 C 0.20564 0.07591 -0.00344 0.0
C60 C 0.26198 0.10245 0.0187 0.0
C61 C 0.24914 0.12354 0.01081 0.0
C62 C 0.28193 0.07091 0.15801 0.0
O63 O 0.26294 0.08563 0.16856 0.0
H64 H 0.179 0.05633 -0.00907 0.0
H65 H 0.28914 0.10855 0.03353 0.0
O66 O 0.18651 1.00816 0.05141 0.0
H67 H 0.22743 0.9534 0.83446 0.0
H68 H 0.26445 0.14927 0.0166 0.0
Cu69 Cu 0.74254 0.52501 0.31424 0.0
N70 N 0.70068 0.48693 0.28794 0.0
N71 N 0.6611 0.43702 0.29611 0.0
C72 C 0.69566 0.45836 0.30125 0.0
C73 C 0.64369 0.45272 0.27831 0.0
C74 C 0.66818 0.48356 0.27376 0.0
O75 O 0.77984 0.51335 0.32368 0.0
C76 C 0.74513 0.57399 0.42365 0.0
O77 O 0.77003 0.59506 0.39295 0.0
H78 H 0.71677 0.45426 0.3212 0.0
H79 H 0.66259 0.50285 0.26698 0.0
N80 N 0.75063 0.55172 0.2464 0.0
N81 N 0.77446 0.59697 0.20132 0.0
C82 C 0.77955 0.58002 0.24736 0.0
C83 C 0.72687 0.55021 0.19611 0.0
C84 C 0.74143 0.57811 0.16838 0.0
C85 C 0.78823 0.50632 0.3808 0.0
O86 O 0.77419 0.51054 0.43816 0.0
H87 H 0.80278 0.5891 0.28533 0.0
H88 H 0.70014 0.53104 0.18316 0.0
O89 O 0.73393 0.54432 0.40206 0.0
H90 H 0.61534 0.4432 0.2731 0.0
H91 H 0.72819 0.58454 0.12925 0.0
Cu92 Cu 0.53834 0.18361 0.40469 0.0
N93 N 0.54569 0.2242 0.44324 0.0
N94 N 0.56222 0.27609 0.44847 0.0
C95 C 0.56498 0.25076 0.41621 0.0
C96 C 0.54025 0.26498 0.49814 0.0
C97 C 0.53005 0.23289 0.49471 0.0
O98 O 0.58248 0.1884 0.37333 0.0
C99 C 0.48687 0.14048 0.28751 0.0
O100 O 0.50711 0.12703 0.27692 0.0
H101 H 0.5792 0.25109 0.371 0.0
H102 H 0.51149 0.21679 0.52554 0.0
N103 N 0.52691 0.15683 0.47224 0.0
N104 N 0.50578 0.11115 0.51537 0.0
C105 C 0.5104 0.12477 0.45667 0.0
C106 C 0.5333 0.164 0.54345 0.0
C107 C 0.52024 0.1358 0.5703 0.0
C108 C 0.59674 0.20121 0.32106 0.0
O109 O 0.57857 0.20788 0.27548 0.0
H110 H 0.50255 0.1117 0.40306 0.0
H111 H 0.54656 0.18797 0.57362 0.0
O112 O 0.49754 0.16549 0.33396 0.0
H113 H 0.53152 0.27879 0.53329 0.0
H114 H 0.52101 0.1337 0.62587 0.0
Cu115 Cu 0.89895 0.35485 0.39472 0.0
N116 N 0.93172 0.37316 0.47527 0.0
N117 N 0.98356 0.39973 0.54306 0.0
C118 C 0.96692 0.38525 0.47713 0.0
C119 C 0.95779 0.39645 0.58419 0.0
C120 C 0.9258 0.37998 0.54217 0.0
O121 O 0.92231 0.34278 0.32115 0.0
C122 C 0.87046 0.38766 0.31862 0.0
O123 O 0.86581 0.36695 0.26174 0.0
H124 H 0.98013 0.38469 0.43054 0.0
H125 H 0.90011 0.37415 0.55865 0.0
N126 N 0.85996 0.31838 0.41301 0.0
N127 N 0.8047 0.27971 0.41274 0.0
C128 C 0.82553 0.30801 0.39257 0.0
C129 C 0.86102 0.296 0.44702 0.0
C130 C 0.82706 0.27218 0.44708 0.0
C131 C 0.90661 0.31648 0.278 0.0
O132 O 0.87221 0.29933 0.2746 0.0
H133 H 0.81605 0.32103 0.36376 0.0
H134 H 0.88495 0.29681 0.46932 0.0
O135 O 0.88457 0.3863 0.37684 0.0
H136 H 0.96184 0.40568 0.64041 0.0
H137 H 0.81953 0.2507 0.46961 0.0
Cu138 Cu 0.39839 0.86385 0.70643 0.0
N139 N 0.36046 0.82317 0.67846 0.0
N140 N 0.32725 0.77125 0.6808 0.0
C141 C 0.36027 0.79591 0.68873 0.0
C142 C 0.3058 0.78341 0.66459 0.0
C143 C 0.3264 0.81553 0.66341 0.0
O144 O 0.43979 0.85846 0.72578 0.0
C145 C 0.39466 0.91195 0.80644 0.0
O146 O 0.42354 0.93274 0.78445 0.0
H147 H 0.38355 0.79479 0.708 0.0
H148 H 0.31706 0.83256 0.65762 0.0
N149 N 0.4046 0.88867 0.63553 0.0
N150 N 0.42543 0.9332 0.58766 0.0
C151 C 0.4321 0.9177 0.63548 0.0
C152 C 0.38005 0.88506 0.58443 0.0
C153 C 0.39279 0.91241 0.55478 0.0
C154 C 0.45048 0.84866 0.67157 0.0
O155 O 0.43492 0.84563 0.60842 0.0
H156 H 0.4556 0.92789 0.67305 0.0
H157 H 0.35379 0.86499 0.57296 0.0
O158 O 0.3838 0.88223 0.78656 0.0
H159 H 0.27726 0.77042 0.65772 0.0
H160 H 0.37791 0.9174 0.51596 0.0
Cu161 Cu 0.24309 0.51752 0.74673 0.0
N162 N 0.24388 0.55413 0.79425 0.0
N163 N 0.25246 0.60418 0.80878 0.0
C164 C 0.25806 0.58187 0.76961 0.0
C165 C 0.23376 0.58979 0.86026 0.0
C166 C 0.22851 0.55875 0.85116 0.0
O167 O 0.28874 0.53128 0.71139 0.0
C168 C 0.19047 0.47247 0.6349 0.0
O169 O 0.2076 0.4559 0.63489 0.0
H170 H 0.27088 0.58505 0.72168 0.0
H171 H 0.21371 0.54063 0.8823 0.0
N172 N 0.2343 0.48715 0.80542 0.0
N173 N 0.20473 0.44167 0.84754 0.0
C174 C 0.20251 0.46219 0.80818 0.0
C175 C 0.25748 0.48251 0.84496 0.0
C176 C 0.23931 0.4545 0.87116 0.0
C177 C 0.31602 0.54923 0.75573 0.0
O178 O 0.31187 0.55552 0.82253 0.0
H179 H 0.17851 0.45829 0.7786 0.0
H180 H 0.28573 0.49762 0.85194 0.0
O181 O 0.2034 0.49984 0.67369 0.0
H182 H 0.22419 0.60072 0.90085 0.0
H183 H 0.25083 0.4441 0.90372 0.0
Cu184 Cu 0.58929 0.6963 0.70271 0.0
N185 N 0.59667 0.66764 0.6388 0.0
N186 N 0.62486 0.64348 0.58499 0.0
C187 C 0.6281 0.67074 0.62252 0.0
C188 C 0.59011 0.62256 0.57682 0.0
C189 C 0.57283 0.63746 0.61021 0.0
O190 O 0.62962 0.71553 0.77595 0.0
C191 C 0.51628 0.66055 0.69726 0.0
O192 O 0.51825 0.66589 0.63156 0.0
H193 H 0.65302 0.69187 0.64134 0.0
H194 H 0.54505 0.6264 0.61615 0.0
N195 N 0.58615 0.7273 0.65744 0.0
N196 N 0.56887 0.76204 0.62833 0.0
C197 C 0.56768 0.74287 0.67517 0.0
C198 C 0.59955 0.73693 0.59757 0.0
C199 C 0.58907 0.7584 0.57961 0.0
C200 C 0.65858 0.73888 0.76601 0.0
O201 O 0.65978 0.75195 0.70937 0.0
H202 H 0.55244 0.73906 0.71978 0.0
H203 H 0.61533 0.72846 0.56842 0.0
O204 O 0.54466 0.67232 0.73959 0.0
H205 H 0.57813 0.59799 0.55008 0.0
H206 H 0.59554 0.7701 0.53367 0.0
H207 H 0.21533 0.15813 0.07638 0.0
H208 H 0.15635 0.08149 0.90149 0.0
H209 H 0.11255 0.09996 0.88995 0.0
H210 H 0.09066 0.13708 0.93053 0.0
H211 H 0.14663 0.21211 0.11032 0.0
H212 H 0.19208 0.19513 0.11956 0.0
C213 C 0.19302 0.1458 0.03544 0.0
C214 C 0.18906 0.11868 -0.01071 0.0
C215 C 0.16747 0.15615 0.03042 0.0
C216 C 0.15977 0.10238 0.93736 0.0
C217 C 0.13482 0.11295 0.93083 0.0
C218 C 0.1129 0.14991 0.97159 0.0
C219 C 0.11548 0.17602 0.01929 0.0
C220 C 0.13833 0.13968 -0.02279 0.0
C221 C 0.14411 0.19196 0.07295 0.0
C222 C 0.17009 0.18229 0.07808 0.0
H223 H 0.96174 0.98279 0.0866 0.0
H224 H 0.86674 0.97295 0.17099 0.0
H225 H 0.8776 0.02428 0.13949 0.0
H226 H 0.91408 0.07186 0.08646 0.0
H227 H 1.00913 0.08124 0.00318 0.0
H228 H 0.99803 0.02993 0.03457 0.0
C229 C 0.94327 0.99175 0.0977 0.0
C230 C 0.91338 0.97394 0.13078 0.0
C231 C 0.9496 0.02111 0.07913 0.0
C232 C 0.89011 0.98628 0.14619 0.0
C233 C 0.89617 0.01551 0.12765 0.0
C234 C 0.93207 0.06242 0.07454 0.0
C235 C 0.9623 0.0802 0.04226 0.0
C236 C 0.92574 0.03306 0.09368 0.0
C237 C 0.9858 0.06803 0.02829 0.0
C238 C 0.97945 0.03872 0.04619 0.0
H239 H 1.01564 0.88143 0.08348 0.0
H240 H 0.99946 0.93636 0.93812 0.0
H241 H 0.06304 0.96993 0.94384 0.0
H242 H 0.12318 0.98485 -0.00745 0.0
H243 H 0.14028 0.9288 0.13316 0.0
H244 H 0.07642 0.89461 0.12716 0.0
C245 C 1.02604 0.90059 0.05261 0.0
C246 C 1.0027 0.90636 0.01056 0.0
C247 C 0.06279 0.9198 0.05581 0.0
C248 C 1.01669 0.93121 0.97065 0.0
C249 C 0.0531 0.95058 0.9742 0.0
C250 C 0.11295 0.96525 0.02222 0.0
C251 C 0.13642 0.95963 0.06407 0.0
C252 C 0.07636 0.94533 0.01719 0.0
C253 C 0.12276 0.93372 0.10092 0.0
C254 C 0.08626 0.91416 0.09741 0.0
H255 H 0.86702 0.42685 0.43084 0.0
H256 H 0.84371 0.40118 0.20288 0.0
H257 H 0.81888 0.43773 0.20153 0.0
H258 H 0.80081 0.47472 0.26579 0.0
H259 H 0.82162 0.49807 0.49422 0.0
H260 H 0.85069 0.4649 0.49451 0.0
C261 C 0.85678 0.42938 0.38067 0.0
C262 C 0.85721 0.41117 0.31702 0.0
C263 C 0.84205 0.45004 0.3804 0.0
C264 C 0.84365 0.41477 0.25269 0.0
C265 C 0.82944 0.43569 0.25187 0.0
C266 C 0.81217 0.47293 0.31558 0.0
C267 C 0.80911 0.48896 0.37995 0.0
C268 C 0.82812 0.45317 0.31549 0.0
C269 C 0.82357 0.48601 0.44398 0.0
C270 C 0.84014 0.46698 0.44419 0.0
H271 H 0.62142 0.30461 0.3861 0.0
H272 H 0.53591 0.31779 0.46388 0.0
H273 H 0.55875 0.36891 0.42194 0.0
H274 H 0.60257 0.40947 0.36142 0.0
H275 H 0.68753 0.39582 0.28251 0.0
H276 H 0.665 0.34491 0.32561 0.0
C277 C 0.6076 0.31851 0.39348 0.0
C278 C 0.57686 0.3072 0.42784 0.0
C279 C 0.62063 0.34767 0.36849 0.0
C280 C 0.55979 0.32598 0.43833 0.0
C281 C 0.57267 0.35511 0.41377 0.0
C282 C 0.61584 0.39514 0.35276 0.0
C283 C 0.64653 0.40627 0.31828 0.0
C284 C 0.60291 0.36606 0.37827 0.0
C285 C 0.66393 0.38777 0.30903 0.0
C286 C 0.65106 0.3587 0.33365 0.0
H287 H 0.64183 0.19528 0.41388 0.0
H288 H 0.63903 0.23731 0.2292 0.0
H289 H 0.70352 0.2649 0.24013 0.0
H290 H 0.76084 0.27949 0.3066 0.0
H291 H 0.76244 0.2385 0.4936 0.0
H292 H 0.69839 0.2081 0.47696 0.0
C293 C 0.6552 0.21017 0.37537 0.0
C294 C 0.63545 0.21424 0.32091 0.0
C295 C 0.69221 0.22642 0.38275 0.0
C296 C 0.65344 0.23364 0.2716 0.0
C297 C 0.69038 0.24961 0.27809 0.0
C298 C 0.74719 0.26404 0.34388 0.0
C299 C 0.76666 0.26145 0.40144 0.0
C300 C 0.71006 0.24668 0.33434 0.0
C301 C 0.74838 0.2408 0.44844 0.0
C302 C 0.71163 0.22346 0.43918 0.0
H303 H 0.48036 0.83081 0.56548 0.0
H304 H 0.47862 0.83916 0.79231 0.0
H305 H 0.51633 0.81384 0.79948 0.0
H306 H 0.54732 0.78679 0.73981 0.0
H307 H 0.54701 0.77786 0.51234 0.0
H308 H 0.51287 0.80615 0.50722 0.0
C309 C 0.48839 0.82736 0.61672 0.0
C310 C 0.47648 0.83675 0.67822 0.0
C311 C 0.50966 0.81253 0.62029 0.0
C312 C 0.48742 0.83223 0.74411 0.0
C313 C 0.50885 0.81759 0.74817 0.0
C314 C 0.53972 0.79097 0.68914 0.0
C315 C 0.54981 0.78005 0.62655 0.0
C316 C 0.51967 0.80716 0.68638 0.0
C317 C 0.54013 0.78621 0.5615 0.0
C318 C 0.52034 0.80227 0.55839 0.0
H319 H 0.27115 0.73595 0.74575 0.0
H320 H 0.36179 0.73721 0.65659 0.0
H321 H 0.34722 0.68562 0.69121 0.0
H322 H 0.30894 0.64051 0.74706 0.0
H323 H 0.21814 0.63878 0.83657 0.0
H324 H 0.23286 0.69062 0.80288 0.0
C325 C 0.28738 0.72468 0.73314 0.0
C326 C 0.31733 0.74015 0.69813 0.0
C327 C 0.27907 0.69524 0.75407 0.0
C328 C 0.33867 0.7257 0.68357 0.0
C329 C 0.33035 0.69627 0.70336 0.0
C330 C 0.29224 0.65137 0.75881 0.0
C331 C 0.26235 0.6357 0.7938 0.0
C332 C 0.30069 0.6809 0.73875 0.0
C333 C 0.24144 0.65046 0.81021 0.0
C334 C 0.24968 0.67995 0.7904 0.0
H335 H 0.37852 0.58392 0.83943 0.0
H336 H 0.33349 0.55217 0.61985 0.0
H337 H 0.39163 0.58369 0.58276 0.0
H338 H 0.45468 0.62187 0.61295 0.0
H339 H 0.4998 0.653 0.83246 0.0
H340 H 0.44201 0.62011 0.86936 0.0
C341 C 0.38139 0.5837 0.78337 0.0
C342 C 0.35159 0.56578 0.73249 0.0
C343 C 0.41484 0.60194 0.76249 0.0
C344 C 0.35593 0.56566 0.66012 0.0
C345 C 0.38915 0.58381 0.63891 0.0
C346 C 0.45192 0.6215 0.66892 0.0
C347 C 0.48151 0.64012 0.71995 0.0
C348 C 0.41869 0.60234 0.68967 0.0
C349 C 0.47749 0.639 0.79214 0.0
C350 C 0.44444 0.62019 0.81325 0.0
H351 H 0.06664 0.31721 0.87649 0.0
H352 H 0.14199 0.28306 0.90448 0.0
H353 H 0.18986 0.33468 0.88903 0.0
H354 H 0.21035 0.38973 0.86972 0.0
H355 H 0.1352 0.42434 0.84369 0.0
H356 H 0.08713 0.37221 0.85515 0.0
C357 C 0.09345 0.32091 0.87804 0.0
C358 C 0.10076 0.29632 0.89157 0.0
C359 C 0.12088 0.35078 0.86982 0.0
C360 C 0.13576 0.3017 0.89468 0.0
C361 C 0.16311 0.33119 0.88582 0.0
C362 C 0.18354 0.38604 0.86733 0.0
C363 C 0.17651 0.41106 0.85617 0.0
C364 C 0.15603 0.35602 0.8742 0.0
C365 C 0.1414 0.4055 0.8517 0.0
C366 C 0.11388 0.37569 0.85845 0.0
H367 H 0.79111 0.75726 0.96106 0.0
H368 H 0.83914 0.84583 0.8798 0.0
H369 H 0.78325 0.83097 0.80983 0.0
H370 H 0.7206 0.79324 0.77339 0.0
H371 H 0.6713 0.70616 0.86054 0.0
H372 H 0.72759 0.72021 0.92757 0.0
C373 C 0.78937 0.77303 0.92716 0.0
C374 C 0.81926 0.80233 0.92442 0.0
C375 C 0.75682 0.76484 0.88916 0.0
C376 C 0.81651 0.82302 0.88203 0.0
C377 C 0.78455 0.81461 0.84238 0.0
C378 C 0.7221 0.77738 0.8073 0.0
C379 C 0.69175 0.74868 0.81187 0.0
C380 C 0.75448 0.7857 0.84597 0.0
C381 C 0.69416 0.72851 0.85642 0.0
C382 C 0.72642 0.73641 0.89437 0.0
H383 H 0.40497 0.97291 0.84134 0.0
H384 H 0.3286 0.87444 0.84021 0.0
H385 H 0.28415 0.89043 0.86959 0.0
H386 H 0.26551 0.93185 0.88691 0.0
H387 H 0.3416 0.03029 0.89164 0.0
H388 H 0.38761 0.01492 0.86923 0.0
C389 C 0.37879 0.95498 0.84869 0.0
C390 C 0.37018 0.92247 0.83786 0.0
C391 C 0.35311 0.96429 0.86503 0.0
C392 C 0.33608 0.89962 0.84797 0.0
C393 C 0.31047 0.9087 0.8643 0.0
C394 C 0.29216 0.94983 0.88266 0.0
C395 C 0.30017 0.98204 0.88944 0.0
C396 C 0.31843 0.94083 0.87111 0.0
C397 C 0.33494 1.00533 0.88596 0.0
C398 C 0.36116 0.99653 0.87328 0.0
H399 H 0.43484 0.15482 0.32171 0.0
H400 H 0.45504 0.08903 0.1796 0.0
H401 H 0.39288 0.06047 0.1302 0.0
H402 H 0.33304 0.05452 0.12689 0.0
H403 H 0.3132 0.12046 0.26947 0.0
H404 H 0.37502 0.14825 0.32011 0.0
C405 C 0.4258 0.13437 0.27955 0.0
C406 C 0.44975 0.12427 0.25401 0.0
C407 C 0.39 0.11783 0.25215 0.0
C408 C 0.43731 0.09746 0.19998 0.0
C409 C 0.40172 0.08103 0.17195 0.0
C410 C 0.34207 0.07475 0.16963 0.0
C411 C 0.31836 0.08532 0.1944 0.0
C412 C 0.37782 0.09095 0.1978 0.0
C413 C 0.33075 0.11173 0.24945 0.0
C414 C 0.36617 0.12776 0.27819 0.0
H415 H 0.97055 0.23282 0.13011 0.0
H416 H 0.06818 0.31717 0.21509 0.0
H417 H 0.03522 0.34366 0.26445 0.0
H418 H 0.9784 0.34257 0.28337 0.0
H419 H 0.88123 0.25856 0.19262 0.0
H420 H 0.91437 0.2325 0.14454 0.0
C421 C 0.98467 0.25688 0.16016 0.0
C422 C 1.02177 0.27284 0.16999 0.0
C423 C 0.96561 0.2722 0.18641 0.0
C424 C 0.03963 0.30429 0.20743 0.0
C425 C 1.02079 0.31948 0.23531 0.0
C426 C 0.96447 0.31869 0.25244 0.0
C427 C 0.92728 0.30258 0.24186 0.0
C428 C 0.98374 0.30369 0.22485 0.0
C429 C 0.90976 0.27161 0.20165 0.0
C430 C 0.92869 0.25656 0.1744 0.0
H431 H 0.75428 0.64032 0.17419 0.0
H432 H 0.84563 0.6287 0.22318 0.0
H433 H 0.88408 0.68571 0.22534 0.0
H434 H 0.89164 0.73863 0.21284 0.0
H435 H 0.8003 0.75049 0.16484 0.0
H436 H 0.76188 0.69343 0.1618 0.0
C437 C 0.78261 0.65015 0.18429 0.0
C438 C 0.79708 0.6302 0.19813 0.0
C439 C 0.80451 0.68298 0.18591 0.0
C440 C 0.83385 0.64354 0.21271 0.0
C441 C 0.85582 0.67612 0.21389 0.0
C442 C 0.86333 0.72891 0.20274 0.0
C443 C 0.84893 0.74897 0.18942 0.0
C444 C 0.84142 0.69609 0.20099 0.0
C445 C 0.81213 0.73563 0.17481 0.0
C446 C 0.79014 0.703 0.17319 0.0
H447 H 0.14079 0.48927 0.6709 0.0
H448 H 0.15618 0.42024 0.52927 0.0
H449 H 0.09311 0.39206 0.48571 0.0
H450 H 0.03302 0.38573 0.49269 0.0
H451 H 1.01834 0.45335 0.64034 0.0
H452 H 0.08173 0.48328 0.67735 0.0
C453 C 0.13053 0.46832 0.62972 0.0
C454 C 0.15323 0.45703 0.60288 0.0
C455 C 0.09426 0.45177 0.60679 0.0
C456 C 0.13928 0.42949 0.55055 0.0
C457 C 0.10322 0.41333 0.52586 0.0
C458 C 0.04384 0.40715 0.53256 0.0
C459 C 1.02105 0.41727 0.56399 0.0
C460 C 0.08038 0.42402 0.55433 0.0
C461 C 0.03528 0.44485 0.61617 0.0
C462 C 0.07153 0.46208 0.63698 0.0
H463 H 0.75125 0.6335 0.45671 0.0
H464 H 0.69144 0.53666 0.49457 0.0
H465 H 0.64967 0.5503 0.55149 0.0
H466 H 0.62694 0.58821 0.58006 0.0
H467 H 0.68576 0.68471 0.54119 0.0
H468 H 0.73127 0.67282 0.4955 0.0
C469 C 0.72948 0.6155 0.47859 0.0
C470 C 0.72434 0.58399 0.47056 0.0
C471 C 0.70509 0.62334 0.51017 0.0
C472 C 0.69597 0.56104 0.4995 0.0
C473 C 0.67191 0.56877 0.53176 0.0
C474 C 0.64972 0.60659 0.56148 0.0
C475 C 0.65275 0.63712 0.56275 0.0
C476 C 0.67562 0.59954 0.53535 0.0
C477 C 0.68286 0.66101 0.54047 0.0
C478 C 0.70879 0.65419 0.51423 0.0
H479 H 0.42015 0.96172 0.47834 0.0
H480 H 0.47617 0.98095 0.68614 0.0
H481 H 0.50666 0.03766 0.68108 0.0
H482 H 0.51602 0.08241 0.6199 0.0
H483 H 0.45705 0.06329 0.41569 0.0
H484 H 0.42907 1.00624 0.41777 0.0
C485 C 0.43885 0.97821 0.52278 0.0
C486 C 0.44554 0.96666 0.58246 0.0
C487 C 0.45578 1.01108 0.5205 0.0
C488 C 0.47055 0.98867 0.63886 0.0
C489 C 0.48788 0.02135 0.63644 0.0
C490 C 0.49685 0.06583 0.57612 0.0
C491 C 0.48888 0.07735 0.5177 0.0
C492 C 0.4804 0.03288 0.57792 0.0
C493 C 0.46426 0.05529 0.46095 0.0
C494 C 0.44802 0.02255 0.46219 0.0
loop_
_geom_bond_atom_site_label_1
_geom_bond_atom_site_label_2
_geom_bond_distance
_geom_bond_site_symmetry_2
_ccdc_geom_bond_type
Cu0 N1 1.999 1_455 S
Cu0 O6 1.974 . S
Cu0 N11 1.985 . S
Cu0 O20 1.959 1_455 S
N1 Cu0 1.999 1_655 S
N1 C3 1.263 . S
N1 C5 1.389 . S
N2 C3 1.358 . S
N2 C4 1.400 . S
C3 N1 1.263 . S
C3 N2 1.358 . S
C3 H9 0.930 1_655 S
C4 N2 1.400 . S
C4 C5 1.351 . S
C4 H21 0.930 . S
C5 N1 1.389 . S
C5 C4 1.351 . S
C5 H10 0.930 . S
O6 Cu0 1.974 . S
O6 C16 1.282 . S
C7 O8 1.261 1_655 S
C7 O20 1.251 . S
O8 C7 1.261 1_455 S
H9 C3 0.930 1_455 S
H10 C5 0.930 . S
N11 Cu0 1.985 . S
N11 C13 1.335 . S
N11 C14 1.390 . S
N12 C13 1.345 . S
N12 C15 1.336 . S
C13 N11 1.335 . S
C13 N12 1.345 . S
C13 H18 0.930 . S
C14 N11 1.390 . S
C14 C15 1.346 . S
C14 H19 0.930 . S
C15 N12 1.336 . S
C15 C14 1.346 . S
C15 H22 0.929 . S
C16 O6 1.282 . S
C16 O17 1.216 . S
O17 C16 1.216 . S
H18 C13 0.930 . S
H19 C14 0.930 . S
O20 Cu0 1.959 1_655 S
O20 C7 1.251 . S
H21 C4 0.930 . S
H22 C15 0.929 . S
Cu23 N24 1.999 . S
Cu23 O29 1.974 . S
Cu23 N34 1.985 . S
Cu23 O43 1.959 . S
N24 Cu23 1.999 . S
N24 C26 1.263 . S
N24 C28 1.389 . S
N25 C26 1.358 . S
N25 C27 1.400 . S
C26 N24 1.263 . S
C26 N25 1.358 . S
C26 H32 0.930 . S
C27 N25 1.400 . S
C27 C28 1.351 . S
C27 H44 0.930 . S
C28 N24 1.389 . S
C28 C27 1.351 . S
C28 H33 0.930 . S
O29 Cu23 1.974 . S
O29 C39 1.282 . S
C30 O31 1.261 1_554 S
C30 O43 1.251 . S
O31 C30 1.261 1_556 S
H32 C26 0.930 . S
H33 C28 0.930 . S
N34 Cu23 1.985 . S
N34 C36 1.335 . S
N34 C37 1.390 . S
N35 C36 1.345 . S
N35 C38 1.336 . S
C36 N34 1.335 . S
C36 N35 1.345 . S
C36 H41 0.930 . S
C37 N34 1.390 . S
C37 C38 1.346 . S
C37 H42 0.930 . S
C38 N35 1.336 . S
C38 C37 1.346 . S
C38 H45 0.929 . S
C39 O29 1.282 . S
C39 O40 1.216 . S
O40 C39 1.216 . S
H41 C36 0.930 . S
H42 C37 0.930 . S
O43 Cu23 1.959 . S
O43 C30 1.251 . S
H44 C27 0.930 . S
H45 C38 0.929 . S
Cu46 N47 1.999 1_545 S
Cu46 O52 1.974 . S
Cu46 N57 1.985 . S
Cu46 O66 1.959 1_545 S
N47 Cu46 1.999 1_565 S
N47 C49 1.263 . S
N47 C51 1.389 1_554 S
N48 C49 1.358 1_556 S
N48 C50 1.400 . S
C49 N47 1.263 . S
C49 N48 1.358 1_554 S
C49 H55 0.930 . S
C50 N48 1.400 . S
C50 C51 1.351 . S
C50 H67 0.930 . S
C51 N47 1.389 1_556 S
C51 C50 1.351 . S
C51 H56 0.930 . S
O52 Cu46 1.974 . S
O52 C62 1.282 . S
C53 O54 1.261 . S
C53 O66 1.251 . S
O54 C53 1.261 . S
H55 C49 0.930 . S
H56 C51 0.930 . S
N57 Cu46 1.985 . S
N57 C59 1.335 . S
N57 C60 1.390 . S
N58 C59 1.345 . S
N58 C61 1.336 . S
C59 N57 1.335 . S
C59 N58 1.345 . S
C59 H64 0.930 . S
C60 N57 1.390 . S
C60 C61 1.346 . S
C60 H65 0.930 . S
C61 N58 1.336 . S
C61 C60 1.346 . S
C61 H68 0.929 . S
C62 O52 1.282 . S
C62 O63 1.216 . S
O63 C62 1.216 . S
H64 C59 0.930 . S
H65 C60 0.930 . S
O66 Cu46 1.959 1_565 S
O66 C53 1.251 . S
H67 C50 0.930 . S
H68 C61 0.929 . S
Cu69 N70 1.999 . S
Cu69 O75 1.974 . S
Cu69 N80 1.985 . S
Cu69 O89 1.959 . S
N70 Cu69 1.999 . S
N70 C72 1.263 . S
N70 C74 1.389 . S
N71 C72 1.358 . S
N71 C73 1.400 . S
C72 N70 1.263 . S
C72 N71 1.358 . S
C72 H78 0.930 . S
C73 N71 1.400 . S
C73 C74 1.351 . S
C73 H90 0.930 . S
C74 N70 1.389 . S
C74 C73 1.351 . S
C74 H79 0.930 . S
O75 Cu69 1.974 . S
O75 C85 1.282 . S
C76 O77 1.261 . S
C76 O89 1.251 . S
O77 C76 1.261 . S
H78 C72 0.930 . S
H79 C74 0.930 . S
N80 Cu69 1.985 . S
N80 C82 1.335 . S
N80 C83 1.390 . S
N81 C82 1.345 . S
N81 C84 1.336 . S
C82 N80 1.335 . S
C82 N81 1.345 . S
C82 H87 0.930 . S
C83 N80 1.390 . S
C83 C84 1.346 . S
C83 H88 0.930 . S
C84 N81 1.336 . S
C84 C83 1.346 . S
C84 H91 0.929 . S
C85 O75 1.282 . S
C85 O86 1.216 . S
O86 C85 1.216 . S
H87 C82 0.930 . S
H88 C83 0.930 . S
O89 Cu69 1.959 . S
O89 C76 1.251 . S
H90 C73 0.930 . S
H91 C84 0.929 . S
Cu92 N93 1.999 . S
Cu92 O98 1.974 . S
Cu92 N103 1.985 . S
Cu92 O112 1.959 . S
N93 Cu92 1.999 . S
N93 C95 1.263 . S
N93 C97 1.389 . S
N94 C95 1.358 . S
N94 C96 1.400 . S
C95 N93 1.263 . S
C95 N94 1.358 . S
C95 H101 0.930 . S
C96 N94 1.400 . S
C96 C97 1.351 . S
C96 H113 0.930 . S
C97 N93 1.389 . S
C97 C96 1.351 . S
C97 H102 0.930 . S
O98 Cu92 1.974 . S
O98 C108 1.282 . S
C99 O100 1.261 . S
C99 O112 1.251 . S
O100 C99 1.261 . S
H101 C95 0.930 . S
H102 C97 0.930 . S
N103 Cu92 1.985 . S
N103 C105 1.335 . S
N103 C106 1.390 . S
N104 C105 1.345 . S
N104 C107 1.336 . S
C105 N103 1.335 . S
C105 N104 1.345 . S
C105 H110 0.930 . S
C106 N103 1.390 . S
C106 C107 1.346 . S
C106 H111 0.930 . S
C107 N104 1.336 . S
C107 C106 1.346 . S
C107 H114 0.929 . S
C108 O98 1.282 . S
C108 O109 1.216 . S
O109 C108 1.216 . S
H110 C105 0.930 . S
H111 C106 0.930 . S
O112 Cu92 1.959 . S
O112 C99 1.251 . S
H113 C96 0.930 . S
H114 C107 0.929 . S
Cu115 N116 1.999 . S
Cu115 O121 1.974 . S
Cu115 N126 1.985 . S
Cu115 O135 1.959 . S
N116 Cu115 1.999 . S
N116 C118 1.263 . S
N116 C120 1.389 . S
N117 C118 1.358 . S
N117 C119 1.400 . S
C118 N116 1.263 . S
C118 N117 1.358 . S
C118 H124 0.930 . S
C119 N117 1.400 . S
C119 C120 1.351 . S
C119 H136 0.930 . S
C120 N116 1.389 . S
C120 C119 1.351 . S
C120 H125 0.930 . S
O121 Cu115 1.974 . S
O121 C131 1.282 . S
C122 O123 1.261 . S
C122 O135 1.251 . S
O123 C122 1.261 . S
H124 C118 0.930 . S
H125 C120 0.930 . S
N126 Cu115 1.985 . S
N126 C128 1.335 . S
N126 C129 1.390 . S
N127 C128 1.345 . S
N127 C130 1.336 . S
C128 N126 1.335 . S
C128 N127 1.345 . S
C128 H133 0.930 . S
C129 N126 1.390 . S
C129 C130 1.346 . S
C129 H134 0.930 . S
C130 N127 1.336 . S
C130 C129 1.346 . S
C130 H137 0.929 . S
C131 O121 1.282 . S
C131 O132 1.216 . S
O132 C131 1.216 . S
H133 C128 0.930 . S
H134 C129 0.930 . S
O135 Cu115 1.959 . S
O135 C122 1.251 . S
H136 C119 0.930 . S
H137 C130 0.929 . S
Cu138 N139 1.999 . S
Cu138 O144 1.974 . S
Cu138 N149 1.985 . S
Cu138 O158 1.959 . S
N139 Cu138 1.999 . S
N139 C141 1.263 . S
N139 C143 1.389 . S
N140 C141 1.358 . S
N140 C142 1.400 . S
C141 N139 1.263 . S
C141 N140 1.358 . S
C141 H147 0.930 . S
C142 N140 1.400 . S
C142 C143 1.351 . S
C142 H159 0.930 . S
C143 N139 1.389 . S
C143 C142 1.351 . S
C143 H148 0.930 . S
O144 Cu138 1.974 . S
O144 C154 1.282 . S
C145 O146 1.261 . S
C145 O158 1.251 . S
O146 C145 1.261 . S
H147 C141 0.930 . S
H148 C143 0.930 . S
N149 Cu138 1.985 . S
N149 C151 1.335 . S
N149 C152 1.390 . S
N150 C151 1.345 . S
N150 C153 1.336 . S
C151 N149 1.335 . S
C151 N150 1.345 . S
C151 H156 0.930 . S
C152 N149 1.390 . S
C152 C153 1.346 . S
C152 H157 0.930 . S
C153 N150 1.336 . S
C153 C152 1.346 . S
C153 H160 0.929 . S
C154 O144 1.282 . S
C154 O155 1.216 . S
O155 C154 1.216 . S
H156 C151 0.930 . S
H157 C152 0.930 . S
O158 Cu138 1.959 . S
O158 C145 1.251 . S
H159 C142 0.930 . S
H160 C153 0.929 . S
Cu161 N162 1.999 . S
Cu161 O167 1.974 . S
Cu161 N172 1.985 . S
Cu161 O181 1.959 . S
N162 Cu161 1.999 . S
N162 C164 1.263 . S
N162 C166 1.389 . S
N163 C164 1.358 . S
N163 C165 1.400 . S
C164 N162 1.263 . S
C164 N163 1.358 . S
C164 H170 0.930 . S
C165 N163 1.400 . S
C165 C166 1.351 . S
C165 H182 0.930 . S
C166 N162 1.389 . S
C166 C165 1.351 . S
C166 H171 0.930 . S
O167 Cu161 1.974 . S
O167 C177 1.282 . S
C168 O169 1.261 . S
C168 O181 1.251 . S
O169 C168 1.261 . S
H170 C164 0.930 . S
H171 C166 0.930 . S
N172 Cu161 1.985 . S
N172 C174 1.335 . S
N172 C175 1.390 . S
N173 C174 1.345 . S
N173 C176 1.336 . S
C174 N172 1.335 . S
C174 N173 1.345 . S
C174 H179 0.930 . S
C175 N172 1.390 . S
C175 C176 1.346 . S
C175 H180 0.930 . S
C176 N173 1.336 . S
C176 C175 1.346 . S
C176 H183 0.929 . S
C177 O167 1.282 . S
C177 O178 1.216 . S
O178 C177 1.216 . S
H179 C174 0.930 . S
H180 C175 0.930 . S
O181 Cu161 1.959 . S
O181 C168 1.251 . S
H182 C165 0.930 . S
H183 C176 0.929 . S
Cu184 N185 1.999 . S
Cu184 O190 1.974 . S
Cu184 N195 1.985 . S
Cu184 O204 1.959 . S
N185 Cu184 1.999 . S
N185 C187 1.263 . S
N185 C189 1.389 . S
N186 C187 1.358 . S
N186 C188 1.400 . S
C187 N185 1.263 . S
C187 N186 1.358 . S
C187 H193 0.930 . S
C188 N186 1.400 . S
C188 C189 1.351 . S
C188 H205 0.930 . S
C189 N185 1.389 . S
C189 C188 1.351 . S
C189 H194 0.930 . S
O190 Cu184 1.974 . S
O190 C200 1.282 . S
C191 O192 1.261 . S
C191 O204 1.251 . S
O192 C191 1.261 . S
H193 C187 0.930 . S
H194 C189 0.930 . S
N195 Cu184 1.985 . S
N195 C197 1.335 . S
N195 C198 1.390 . S
N196 C197 1.345 . S
N196 C199 1.336 . S
C197 N195 1.335 . S
C197 N196 1.345 . S
C197 H202 0.930 . S
C198 N195 1.390 . S
C198 C199 1.346 . S
C198 H203 0.930 . S
C199 N196 1.336 . S
C199 C198 1.346 . S
C199 H206 0.929 . S
C200 O190 1.282 . S
C200 O201 1.216 . S
O201 C200 1.216 . S
H202 C197 0.930 . S
H203 C198 0.930 . S
O204 Cu184 1.959 . S
O204 C191 1.251 . S
H205 C188 0.930 . S
H206 C199 0.929 . S
H207 C213 0.930 . S
H208 C216 0.930 . S
H209 C217 0.930 1_556 S
H210 C218 0.930 1_556 S
H211 C221 0.930 . S
H212 C222 0.930 . S
C213 H207 0.930 . S
C213 C214 1.355 . S
C213 C215 1.415 . S
C214 C213 1.355 . S
C214 C216 1.419 . S
C215 C213 1.415 . S
C215 C220 1.425 . S
C215 C222 1.409 . S
C216 H208 0.930 . S
C216 C214 1.419 . S
C216 C217 1.362 . S
C217 H209 0.930 1_554 S
C217 C216 1.362 . S
C217 C220 1.409 . S
C218 H210 0.930 1_554 S
C218 C219 1.355 . S
C218 C220 1.415 . S
C219 C218 1.355 . S
C219 C221 1.419 . S
C220 C215 1.425 . S
C220 C217 1.409 . S
C220 C218 1.415 . S
C221 H211 0.930 . S
C221 C219 1.419 . S
C221 C222 1.362 . S
C222 H212 0.930 . S
C222 C215 1.409 . S
C222 C221 1.362 . S
H223 C229 0.930 . S
H224 C232 0.930 . S
H225 C233 0.908 1_545 S
H226 C234 0.930 . S
H227 C237 0.930 . S
H228 C238 0.930 . S
C229 H223 0.930 . S
C229 C230 1.355 . S
C229 C231 1.415 1_565 S
C230 C229 1.355 . S
C230 C232 1.419 1_554 S
C231 C229 1.415 1_545 S
C231 C236 1.425 . S
C231 C238 1.409 . S
C232 H224 0.930 . S
C232 C230 1.419 1_556 S
C232 C233 1.362 . S
C233 H225 0.908 1_565 S
C233 C232 1.362 . S
C233 C236 1.409 1_566 S
C234 H226 0.930 . S
C234 C235 1.355 . S
C234 C236 1.415 . S
C235 C234 1.355 . S
C235 C237 1.419 . S
C236 C231 1.425 . S
C236 C233 1.409 1_544 S
C236 C234 1.415 . S
C237 H227 0.930 . S
C237 C235 1.419 . S
C237 C238 1.362 . S
C238 H228 0.930 . S
C238 C231 1.409 . S
C238 C237 1.362 . S
H239 C245 0.930 . S
H240 C248 0.930 . S
H241 C249 0.930 . S
H242 C250 0.930 . S
H243 C253 0.930 . S
H244 C254 0.930 . S
C245 H239 0.930 . S
C245 C246 1.355 . S
C245 C247 1.415 1_655 S
C246 C245 1.355 . S
C246 C248 1.419 . S
C247 C245 1.415 1_455 S
C247 C252 1.425 . S
C247 C254 1.409 . S
C248 H240 0.930 . S
C248 C246 1.419 . S
C248 C249 1.362 1_655 S
C249 H241 0.930 . S
C249 C248 1.362 1_455 S
C249 C252 1.409 . S
C250 H242 0.930 . S
C250 C251 1.355 . S
C250 C252 1.415 . S
C251 C250 1.355 . S
C251 C253 1.419 . S
C252 C247 1.425 . S
C252 C249 1.409 . S
C252 C250 1.415 . S
C253 H243 0.930 . S
C253 C251 1.419 . S
C253 C254 1.362 . S
C254 H244 0.930 . S
C254 C247 1.409 . S
C254 C253 1.362 . S
H255 C261 0.930 . S
H256 C264 0.930 . S
H257 C265 0.930 . S
H258 C266 0.930 . S
H259 C269 0.930 . S
H260 C270 0.930 . S
C261 H255 0.930 . S
C261 C262 1.355 . S
C261 C263 1.415 . S
C262 C261 1.355 . S
C262 C264 1.419 . S
C263 C261 1.415 . S
C263 C268 1.425 . S
C263 C270 1.409 . S
C264 H256 0.930 . S
C264 C262 1.419 . S
C264 C265 1.362 . S
C265 H257 0.930 . S
C265 C264 1.362 . S
C265 C268 1.409 . S
C266 H258 0.930 . S
C266 C267 1.355 . S
C266 C268 1.415 . S
C267 C266 1.355 . S
C267 C269 1.419 . S
C268 C263 1.425 . S
C268 C265 1.409 . S
C268 C266 1.415 . S
C269 H259 0.930 . S
C269 C267 1.419 . S
C269 C270 1.362 . S
C270 H260 0.930 . S
C270 C263 1.409 . S
C270 C269 1.362 . S
H271 C277 0.930 . S
H272 C280 0.930 . S
H273 C281 0.930 . S
H274 C282 0.930 . S
H275 C285 0.930 . S
H276 C286 0.930 . S
C277 H271 0.930 . S
C277 C278 1.355 . S
C277 C279 1.415 . S
C278 C277 1.355 . S
C278 C280 1.419 . S
C279 C277 1.415 . S
C279 C284 1.425 . S
C279 C286 1.409 . S
C280 H272 0.930 . S
C280 C278 1.419 . S
C280 C281 1.362 . S
C281 H273 0.930 . S
C281 C280 1.362 . S
C281 C284 1.409 . S
C282 H274 0.930 . S
C282 C283 1.355 . S
C282 C284 1.415 . S
C283 C282 1.355 . S
C283 C285 1.419 . S
C284 C279 1.425 . S
C284 C281 1.409 . S
C284 C282 1.415 . S
C285 H275 0.930 . S
C285 C283 1.419 . S
C285 C286 1.362 . S
C286 H276 0.930 . S
C286 C279 1.409 . S
C286 C285 1.362 . S
H287 C293 0.930 . S
H288 C296 0.930 . S
H289 C297 0.930 . S
H290 C298 0.930 . S
H291 C301 0.930 . S
H292 C302 0.930 . S
C293 H287 0.930 . S
C293 C294 1.355 . S
C293 C295 1.415 . S
C294 C293 1.355 . S
C294 C296 1.419 . S
C295 C293 1.415 . S
C295 C300 1.425 . S
C295 C302 1.409 . S
C296 H288 0.930 . S
C296 C294 1.419 . S
C296 C297 1.362 . S
C297 H289 0.930 . S
C297 C296 1.362 . S
C297 C300 1.409 . S
C298 H290 0.930 . S
C298 C299 1.355 . S
C298 C300 1.415 . S
C299 C298 1.355 . S
C299 C301 1.419 . S
C300 C295 1.425 . S
C300 C297 1.409 . S
C300 C298 1.415 . S
C301 H291 0.930 . S
C301 C299 1.419 . S
C301 C302 1.362 . S
C302 H292 0.930 . S
C302 C295 1.409 . S
C302 C301 1.362 . S
H303 C309 0.930 . S
H304 C312 0.930 . S
H305 C313 0.930 . S
H306 C314 0.930 . S
H307 C317 0.930 . S
H308 C318 0.930 . S
C309 H303 0.930 . S
C309 C310 1.355 . S
C309 C311 1.415 . S
C310 C309 1.355 . S
C310 C312 1.419 . S
C311 C309 1.415 . S
C311 C316 1.425 . S
C311 C318 1.409 . S
C312 H304 0.930 . S
C312 C310 1.419 . S
C312 C313 1.362 . S
C313 H305 0.930 . S
C313 C312 1.362 . S
C313 C316 1.409 . S
C314 H306 0.930 . S
C314 C315 1.355 . S
C314 C316 1.415 . S
C315 C314 1.355 . S
C315 C317 1.419 . S
C316 C311 1.425 . S
C316 C313 1.409 . S
C316 C314 1.415 . S
C317 H307 0.930 . S
C317 C315 1.419 . S
C317 C318 1.362 . S
C318 H308 0.930 . S
C318 C311 1.409 . S
C318 C317 1.362 . S
H319 C325 0.930 . S
H320 C328 0.930 . S
H321 C329 0.930 . S
H322 C330 0.930 . S
H323 C333 0.930 . S
H324 C334 0.930 . S
C325 H319 0.930 . S
C325 C326 1.355 . S
C325 C327 1.415 . S
C326 C325 1.355 . S
C326 C328 1.419 . S
C327 C325 1.415 . S
C327 C332 1.425 . S
C327 C334 1.409 . S
C328 H320 0.930 . S
C328 C326 1.419 . S
C328 C329 1.362 . S
C329 H321 0.930 . S
C329 C328 1.362 . S
C329 C332 1.409 . S
C330 H322 0.930 . S
C330 C331 1.355 . S
C330 C332 1.415 . S
C331 C330 1.355 . S
C331 C333 1.419 . S
C332 C327 1.425 . S
C332 C329 1.409 . S
C332 C330 1.415 . S
C333 H323 0.930 . S
C333 C331 1.419 . S
C333 C334 1.362 . S
C334 H324 0.930 . S
C334 C327 1.409 . S
C334 C333 1.362 . S
H335 C341 0.930 . S
H336 C344 0.930 . S
H337 C345 0.930 . S
H338 C346 0.930 . S
H339 C349 0.930 . S
H340 C350 0.930 . S
C341 H335 0.930 . S
C341 C342 1.355 . S
C341 C343 1.415 . S
C342 C341 1.355 . S
C342 C344 1.419 . S
C343 C341 1.415 . S
C343 C348 1.425 . S
C343 C350 1.409 . S
C344 H336 0.930 . S
C344 C342 1.419 . S
C344 C345 1.362 . S
C345 H337 0.930 . S
C345 C344 1.362 . S
C345 C348 1.409 . S
C346 H338 0.930 . S
C346 C347 1.355 . S
C346 C348 1.415 . S
C347 C346 1.355 . S
C347 C349 1.419 . S
C348 C343 1.425 . S
C348 C345 1.409 . S
C348 C346 1.415 . S
C349 H339 0.930 . S
C349 C347 1.419 . S
C349 C350 1.362 . S
C350 H340 0.930 . S
C350 C343 1.409 . S
C350 C349 1.362 . S
H351 C357 0.930 . S
H352 C360 0.930 . S
H353 C361 0.930 1_554 S
H354 C362 0.930 . S
H355 C365 0.930 . S
H356 C366 0.930 . S
C357 H351 0.930 . S
C357 C358 1.355 . S
C357 C359 1.415 . S
C358 C357 1.355 . S
C358 C360 1.419 1_556 S
C359 C357 1.415 . S
C359 C364 1.425 . S
C359 C366 1.409 . S
C360 H352 0.930 . S
C360 C358 1.419 1_554 S
C360 C361 1.362 1_554 S
C361 H353 0.930 1_556 S
C361 C360 1.362 1_556 S
C361 C364 1.409 . S
C362 H354 0.930 . S
C362 C363 1.355 . S
C362 C364 1.415 . S
C363 C362 1.355 . S
C363 C365 1.419 . S
C364 C359 1.425 . S
C364 C361 1.409 . S
C364 C362 1.415 . S
C365 H355 0.930 . S
C365 C363 1.419 . S
C365 C366 1.362 . S
C366 H356 0.930 . S
C366 C359 1.409 . S
C366 C365 1.362 . S
H367 C373 0.930 . S
H368 C376 0.930 . S
H369 C377 0.930 . S
H370 C378 0.930 . S
H371 C381 0.930 . S
H372 C382 0.930 . S
C373 H367 0.930 . S
C373 C374 1.355 . S
C373 C375 1.415 . S
C374 C373 1.355 . S
C374 C376 1.419 1_556 S
C375 C373 1.415 . S
C375 C380 1.425 . S
C375 C382 1.409 . S
C376 H368 0.930 . S
C376 C374 1.419 1_554 S
C376 C377 1.362 . S
C377 H369 0.930 . S
C377 C376 1.362 . S
C377 C380 1.409 1_554 S
C378 H370 0.930 . S
C378 C379 1.355 . S
C378 C380 1.415 . S
C379 C378 1.355 . S
C379 C381 1.419 . S
C380 C375 1.425 . S
C380 C377 1.409 1_556 S
C380 C378 1.415 . S
C381 H371 0.930 . S
C381 C379 1.419 . S
C381 C382 1.362 . S
C382 H372 0.930 . S
C382 C375 1.409 . S
C382 C381 1.362 . S
H383 C389 0.930 . S
H384 C392 0.930 . S
H385 C393 0.930 . S
H386 C394 0.930 . S
H387 C397 0.930 . S
H388 C398 0.930 1_554 S
C389 H383 0.930 . S
C389 C390 1.355 . S
C389 C391 1.415 . S
C390 C389 1.355 . S
C390 C392 1.419 . S
C391 C389 1.415 . S
C391 C396 1.425 . S
C391 C398 1.409 . S
C392 H384 0.930 . S
C392 C390 1.419 . S
C392 C393 1.362 . S
C393 H385 0.930 . S
C393 C392 1.362 . S
C393 C396 1.409 . S
C394 H386 0.930 . S
C394 C395 1.355 . S
C394 C396 1.415 . S
C395 C394 1.355 . S
C395 C397 1.419 1_556 S
C396 C391 1.425 . S
C396 C393 1.409 . S
C396 C394 1.415 . S
C397 H387 0.930 . S
C397 C395 1.419 1_554 S
C397 C398 1.362 1_554 S
C398 H388 0.930 1_556 S
C398 C391 1.409 . S
C398 C397 1.362 1_556 S
H399 C405 0.930 . S
H400 C408 0.930 . S
H401 C409 0.930 . S
H402 C410 0.930 . S
H403 C413 0.930 . S
H404 C414 0.930 . S
C405 H399 0.930 . S
C405 C406 1.355 . S
C405 C407 1.415 . S
C406 C405 1.355 . S
C406 C408 1.419 . S
C407 C405 1.415 . S
C407 C412 1.425 . S
C407 C414 1.409 . S
C408 H400 0.930 . S
C408 C406 1.419 . S
C408 C409 1.362 . S
C409 H401 0.930 . S
C409 C408 1.362 . S
C409 C412 1.409 . S
C410 H402 0.930 . S
C410 C411 1.355 . S
C410 C412 1.415 . S
C411 C410 1.355 . S
C411 C413 1.419 . S
C412 C407 1.425 . S
C412 C409 1.409 . S
C412 C410 1.415 . S
C413 H403 0.930 . S
C413 C411 1.419 . S
C413 C414 1.362 . S
C414 H404 0.930 . S
C414 C407 1.409 . S
C414 C413 1.362 . S
H415 C421 0.930 . S
H416 C424 0.930 1_455 S
H417 C425 0.930 . S
H418 C426 0.930 . S
H419 C429 0.930 . S
H420 C430 0.930 . S
C421 H415 0.930 . S
C421 C422 1.355 . S
C421 C423 1.415 . S
C422 C421 1.355 . S
C422 C424 1.419 . S
C423 C421 1.415 . S
C423 C428 1.425 . S
C423 C430 1.409 . S
C424 H416 0.930 1_655 S
C424 C422 1.419 . S
C424 C425 1.362 . S
C425 H417 0.930 . S
C425 C424 1.362 . S
C425 C428 1.409 . S
C426 H418 0.930 . S
C426 C427 1.355 . S
C426 C428 1.415 . S
C427 C426 1.355 . S
C427 C429 1.419 . S
C428 C423 1.425 . S
C428 C425 1.409 . S
C428 C426 1.415 . S
C429 H419 0.930 . S
C429 C427 1.419 . S
C429 C430 1.362 . S
C430 H420 0.930 . S
C430 C423 1.409 . S
C430 C429 1.362 . S
H431 C437 0.930 . S
H432 C440 0.930 . S
H433 C441 0.930 . S
H434 C442 0.930 . S
H435 C445 0.930 . S
H436 C446 0.930 . S
C437 H431 0.930 . S
C437 C438 1.355 . S
C437 C439 1.415 . S
C438 C437 1.355 . S
C438 C440 1.419 . S
C439 C437 1.415 . S
C439 C444 1.425 . S
C439 C446 1.409 . S
C440 H432 0.930 . S
C440 C438 1.419 . S
C440 C441 1.362 . S
C441 H433 0.930 . S
C441 C440 1.362 . S
C441 C444 1.409 . S
C442 H434 0.930 . S
C442 C443 1.355 . S
C442 C444 1.415 . S
C443 C442 1.355 . S
C443 C445 1.419 . S
C444 C439 1.425 . S
C444 C441 1.409 . S
C444 C442 1.415 . S
C445 H435 0.930 . S
C445 C443 1.419 . S
C445 C446 1.362 . S
C446 H436 0.930 . S
C446 C439 1.409 . S
C446 C445 1.362 . S
H447 C453 0.930 . S
H448 C456 0.930 . S
H449 C457 0.930 . S
H450 C458 0.930 . S
H451 C461 0.930 . S
H452 C462 0.930 . S
C453 H447 0.930 . S
C453 C454 1.355 . S
C453 C455 1.415 . S
C454 C453 1.355 . S
C454 C456 1.419 . S
C455 C453 1.415 . S
C455 C460 1.425 . S
C455 C462 1.409 . S
C456 H448 0.930 . S
C456 C454 1.419 . S
C456 C457 1.362 . S
C457 H449 0.930 . S
C457 C456 1.362 . S
C457 C460 1.409 . S
C458 H450 0.930 . S
C458 C459 1.355 . S
C458 C460 1.415 . S
C459 C458 1.355 . S
C459 C461 1.419 1_455 S
C460 C455 1.425 . S
C460 C457 1.409 . S
C460 C458 1.415 . S
C461 H451 0.930 . S
C461 C459 1.419 1_655 S
C461 C462 1.362 1_655 S
C462 H452 0.930 . S
C462 C455 1.409 . S
C462 C461 1.362 1_455 S
H463 C469 0.930 . S
H464 C472 0.930 . S
H465 C473 0.930 . S
H466 C474 0.930 . S
H467 C477 0.930 . S
H468 C478 0.930 . S
C469 H463 0.930 . S
C469 C470 1.355 . S
C469 C471 1.415 . S
C470 C469 1.355 . S
C470 C472 1.419 . S
C471 C469 1.415 . S
C471 C476 1.425 . S
C471 C478 1.409 . S
C472 H464 0.930 . S
C472 C470 1.419 . S
C472 C473 1.362 . S
C473 H465 0.930 . S
C473 C472 1.362 . S
C473 C476 1.409 . S
C474 H466 0.930 . S
C474 C475 1.355 . S
C474 C476 1.415 . S
C475 C474 1.355 . S
C475 C477 1.419 . S
C476 C471 1.425 . S
C476 C473 1.409 . S
C476 C474 1.415 . S
C477 H467 0.930 . S
C477 C475 1.419 . S
C477 C478 1.362 . S
C478 H468 0.930 . S
C478 C471 1.409 . S
C478 C477 1.362 . S
H479 C485 0.930 . S
H480 C488 0.930 . S
H481 C489 0.930 . S
H482 C490 0.930 . S
H483 C493 0.930 . S
H484 C494 0.930 . S
C485 H479 0.930 . S
C485 C486 1.355 . S
C485 C487 1.415 . S
C486 C485 1.355 . S
C486 C488 1.419 . S
C487 C485 1.415 . S
C487 C492 1.425 1_565 S
C487 C494 1.409 . S
C488 H480 0.930 . S
C488 C486 1.419 . S
C488 C489 1.362 1_565 S
C489 H481 0.930 . S
C489 C488 1.362 1_545 S
C489 C492 1.409 . S
C490 H482 0.930 . S
C490 C491 1.355 . S
C490 C492 1.415 . S
C491 C490 1.355 . S
C491 C493 1.419 . S
C492 C487 1.425 1_545 S
C492 C489 1.409 . S
C492 C490 1.415 . S
C493 H483 0.930 . S
C493 C491 1.419 . S
C493 C494 1.362 1_545 S
C494 H484 0.930 . S
C494 C487 1.409 . S
C494 C493 1.362 1_565 S
C214 N58 1.388 . S
C219 C16 1.332 . S
C230 N25 1.264 . S
C235 N2 1.318 . S
C246 C39 1.526 . S
C251 C53 1.550 . S
C262 C122 1.592 . S
C267 C85 1.546 . S
C278 N94 1.164 . S
C283 N71 1.140 . S
C294 C108 1.374 . S
C299 N127 1.385 . S
C310 C154 1.391 . S
C315 N196 1.408 . S
C326 N140 1.164 . S
C331 N163 1.093 . S
C342 C177 1.629 . S
C347 C191 1.655 . S
C358 N12 1.501 1_556 S
C363 N173 1.570 . S
C374 C30 1.587 1_556 S
C379 C200 1.563 . S
C390 C145 1.544 . S
C395 N48 1.485 . S
C406 C99 1.471 . S
C411 C62 1.442 . S
C422 C7 1.529 . S
C427 C131 1.502 . S
C438 N81 1.541 . S
C443 N35 1.569 . S
C454 C168 1.563 . S
C459 N117 1.446 1_455 S
C470 C76 1.572 . S
C475 N186 1.468 . S
C486 N150 1.502 . S
C491 N104 1.510 . S
