# Generated by pormake.
# Topology whw, (6)-cn, num edge types: 1
# Building blocks:
#     Node 0, Type 0, BuildingBlock: HISSIN_clean_sbu_0, # of connection points: 6
#     Node 1, Type 0, BuildingBlock: HISSIN_clean_sbu_0, # of connection points: 6
#     Node 2, Type 0, BuildingBlock: HISSIN_clean_sbu_0, # of connection points: 6
#     Node 3, Type 0, BuildingBlock: HISSIN_clean_sbu_0, # of connection points: 6
#     Node 4, Type 0, BuildingBlock: HISSIN_clean_sbu_0, # of connection points: 6
#     Node 5, Type 0, BuildingBlock: HISSIN_clean_sbu_0, # of connection points: 6
#     Node 6, Type 0, BuildingBlock: HISSIN_clean_sbu_0, # of connection points: 6
#     Node 7, Type 0, BuildingBlock: HISSIN_clean_sbu_0, # of connection points: 6
#     Node 8, Type 0, BuildingBlock: HISSIN_clean_sbu_0, # of connection points: 6
#     Node 9, Type 0, BuildingBlock: HISSIN_clean_sbu_0, # of connection points: 6
#     Node 10, Type 0, BuildingBlock: HISSIN_clean_sbu_0, # of connection points: 6
#     Node 11, Type 0, BuildingBlock: HISSIN_clean_sbu_0, # of connection points: 6
#     Node 12, Type 0, BuildingBlock: HISSIN_clean_sbu_0, # of connection points: 6
#     Node 13, Type 0, BuildingBlock: HISSIN_clean_sbu_0, # of connection points: 6
#     Node 14, Type 0, BuildingBlock: HISSIN_clean_sbu_0, # of connection points: 6
#     Node 15, Type 0, BuildingBlock: HISSIN_clean_sbu_0, # of connection points: 6
#     Edge 16, Type (0, 0), BuildingBlock: XUDNAN_clean_linker_2, # of connection points: 2
#     Edge 17, Type (0, 0), BuildingBlock: XUDNAN_clean_linker_2, # of connection points: 2
#     Edge 18, Type (0, 0), BuildingBlock: XUDNAN_clean_linker_2, # of connection points: 2
#     Edge 19, Type (0, 0), BuildingBlock: XUDNAN_clean_linker_2, # of connection points: 2
#     Edge 20, Type (0, 0), BuildingBlock: XUDNAN_clean_linker_2, # of connection points: 2
#     Edge 21, Type (0, 0), BuildingBlock: XUDNAN_clean_linker_2, # of connection points: 2
#     Edge 22, Type (0, 0), BuildingBlock: XUDNAN_clean_linker_2, # of connection points: 2
#     Edge 23, Type (0, 0), BuildingBlock: XUDNAN_clean_linker_2, # of connection points: 2
#     Edge 24, Type (0, 0), BuildingBlock: XUDNAN_clean_linker_2, # of connection points: 2
#     Edge 25, Type (0, 0), BuildingBlock: XUDNAN_clean_linker_2, # of connection points: 2
#     Edge 26, Type (0, 0), BuildingBlock: XUDNAN_clean_linker_2, # of connection points: 2
#     Edge 27, Type (0, 0), BuildingBlock: XUDNAN_clean_linker_2, # of connection points: 2
#     Edge 28, Type (0, 0), BuildingBlock: XUDNAN_clean_linker_2, # of connection points: 2
#     Edge 29, Type (0, 0), BuildingBlock: XUDNAN_clean_linker_2, # of connection points: 2
#     Edge 30, Type (0, 0), BuildingBlock: XUDNAN_clean_linker_2, # of connection points: 2
#     Edge 31, Type (0, 0), BuildingBlock: XUDNAN_clean_linker_2, # of connection points: 2
#     Edge 32, Type (0, 0), BuildingBlock: XUDNAN_clean_linker_2, # of connection points: 2
#     Edge 33, Type (0, 0), BuildingBlock: XUDNAN_clean_linker_2, # of connection points: 2
#     Edge 34, Type (0, 0), BuildingBlock: XUDNAN_clean_linker_2, # of connection points: 2
#     Edge 35, Type (0, 0), BuildingBlock: XUDNAN_clean_linker_2, # of connection points: 2
#     Edge 36, Type (0, 0), BuildingBlock: XUDNAN_clean_linker_2, # of connection points: 2
#     Edge 37, Type (0, 0), BuildingBlock: XUDNAN_clean_linker_2, # of connection points: 2
#     Edge 38, Type (0, 0), BuildingBlock: XUDNAN_clean_linker_2, # of connection points: 2
#     Edge 39, Type (0, 0), BuildingBlock: XUDNAN_clean_linker_2, # of connection points: 2
#     Edge 40, Type (0, 0), BuildingBlock: XUDNAN_clean_linker_2, # of connection points: 2
#     Edge 41, Type (0, 0), BuildingBlock: XUDNAN_clean_linker_2, # of connection points: 2
#     Edge 42, Type (0, 0), BuildingBlock: XUDNAN_clean_linker_2, # of connection points: 2
#     Edge 43, Type (0, 0), BuildingBlock: XUDNAN_clean_linker_2, # of connection points: 2
#     Edge 44, Type (0, 0), BuildingBlock: XUDNAN_clean_linker_2, # of connection points: 2
#     Edge 45, Type (0, 0), BuildingBlock: XUDNAN_clean_linker_2, # of connection points: 2
#     Edge 46, Type (0, 0), BuildingBlock: XUDNAN_clean_linker_2, # of connection points: 2
#     Edge 47, Type (0, 0), BuildingBlock: XUDNAN_clean_linker_2, # of connection points: 2
#     Edge 48, Type (0, 0), BuildingBlock: XUDNAN_clean_linker_2, # of connection points: 2
#     Edge 49, Type (0, 0), BuildingBlock: XUDNAN_clean_linker_2, # of connection points: 2
#     Edge 50, Type (0, 0), BuildingBlock: XUDNAN_clean_linker_2, # of connection points: 2
#     Edge 51, Type (0, 0), BuildingBlock: XUDNAN_clean_linker_2, # of connection points: 2
#     Edge 52, Type (0, 0), BuildingBlock: XUDNAN_clean_linker_2, # of connection points: 2
#     Edge 53, Type (0, 0), BuildingBlock: XUDNAN_clean_linker_2, # of connection points: 2
#     Edge 54, Type (0, 0), BuildingBlock: XUDNAN_clean_linker_2, # of connection points: 2
#     Edge 55, Type (0, 0), BuildingBlock: XUDNAN_clean_linker_2, # of connection points: 2
#     Edge 56, Type (0, 0), BuildingBlock: XUDNAN_clean_linker_2, # of connection points: 2
#     Edge 57, Type (0, 0), BuildingBlock: XUDNAN_clean_linker_2, # of connection points: 2
#     Edge 58, Type (0, 0), BuildingBlock: XUDNAN_clean_linker_2, # of connection points: 2
#     Edge 59, Type (0, 0), BuildingBlock: XUDNAN_clean_linker_2, # of connection points: 2
#     Edge 60, Type (0, 0), BuildingBlock: XUDNAN_clean_linker_2, # of connection points: 2
#     Edge 61, Type (0, 0), BuildingBlock: XUDNAN_clean_linker_2, # of connection points: 2
#     Edge 62, Type (0, 0), BuildingBlock: XUDNAN_clean_linker_2, # of connection points: 2
#     Edge 63, Type (0, 0), BuildingBlock: XUDNAN_clean_linker_2, # of connection points: 2
# Relax obj value: 0.831
# Max RMSD: 0.199
# Mean RMSD: 0.199
data_MOF--net-whw--node1-HISSIN_clean_sbu_0--edge1-XUDNAN_clean_linker_2
_symmetry_space_group_name_H-M    P1
_symmetry_Int_Tables_number       1
_symmetry_cell_setting            triclinic
loop_
_symmetry_equiv_pos_as_xyz
'x, y, z'
_cell_length_a     47.300084
_cell_length_b     47.273046
_cell_length_c     30.381823
_cell_angle_alpha  89.901661
_cell_angle_beta   90.291274
_cell_angle_gamma 90.048362
loop_
_atom_site_label
_atom_site_type_symbol
_atom_site_fract_x
_atom_site_fract_y
_atom_site_fract_z
_atom_type_partial_charge
Eu0 Eu 0.07006 0.12857 0.21696 0.0
Eu1 Eu 0.01207 0.10387 0.24538 0.0
C2 C 0.05211 0.06185 0.19238 0.0
C3 C 0.14408 0.12701 0.17185 0.0
C4 C 0.17321 0.13032 0.17905 0.0
C5 C 0.15371 0.09796 1.10825 0.0
C6 C 0.19263 0.11748 0.15074 0.0
C7 C 0.13446 0.11079 0.13632 0.0
C8 C 0.18302 0.10091 0.1153 0.0
C9 C 0.12368 0.13806 0.2035 0.0
O10 O 0.03143 0.11424 0.31802 0.0
O11 O 0.07027 0.13808 0.29428 0.0
C12 C 0.05449 0.12981 0.32855 0.0
O13 O 0.04252 0.16713 0.21177 0.0
O14 O 0.98321 0.07746 0.28354 0.0
O15 O 0.96708 0.10372 0.23043 0.0
O16 O 0.01675 0.14887 0.26518 0.0
C17 C 0.01909 0.16763 0.23427 0.0
O18 O 0.04734 0.13597 0.14953 0.0
O19 O 0.0041 0.11846 0.16939 0.0
O20 O 0.03431 0.06307 0.22521 0.0
O21 O 0.10358 0.15416 0.18769 0.0
O22 O 0.11412 0.11911 0.23098 0.0
O23 O 0.06602 0.0851 0.18162 0.0
C24 C 0.93533 0.09226 0.28651 0.0
C25 C 0.93631 0.10875 0.32469 0.0
C26 C 0.88433 0.08862 0.29275 0.0
C27 C 0.91134 0.11517 0.34681 0.0
C28 C 0.9093 0.08228 0.2706 0.0
C29 C 0.88515 0.10529 0.33083 0.0
C30 C 0.9609 0.08594 0.26168 0.0
C31 C 0.02052 0.13065 0.13836 0.0
H32 H 0.1809 0.14252 0.20679 0.0
H33 H 0.14555 0.08609 1.08047 0.0
H34 H 0.21505 0.1203 0.15668 0.0
H35 H 0.11203 0.10786 0.13051 0.0
H36 H 0.95626 0.11678 0.33715 0.0
H37 H 0.86441 0.08064 0.28012 0.0
H38 H 0.91251 0.12766 0.37662 0.0
H39 H 0.9083 0.06962 0.24093 0.0
Eu40 Eu 0.12891 0.78008 0.47119 0.0
Eu41 Eu 0.14451 0.71781 0.49803 0.0
C42 C 0.1941 0.75552 0.45287 0.0
C43 C 0.14377 0.85477 0.43605 0.0
C44 C 0.14057 0.88406 0.44116 0.0
C45 C 0.18341 0.86279 0.38754 0.0
C46 C 0.15834 0.90274 0.41846 0.0
C47 C 0.16552 0.84432 0.40961 0.0
C48 C 0.17976 0.89224 0.39096 0.0
C49 C 0.12585 0.83484 0.4602 0.0
O50 O 0.13727 0.73796 0.56965 0.0
O51 O 0.11653 0.77921 0.54815 0.0
C52 C 0.12338 0.76165 0.58132 0.0
O53 O 0.08717 0.75863 0.46012 0.0
O54 O 0.1656 0.686 0.53885 0.0
O55 O 0.14042 0.67306 0.48251 0.0
O56 O 0.09952 0.72847 0.51261 0.0
C57 C 0.08253 0.73467 0.48018 0.0
O58 O 0.12192 0.75785 0.40217 0.0
O59 O 0.13212 0.71217 0.42195 0.0
O60 O 0.18778 0.73441 0.47913 0.0
O61 O 0.11138 0.81679 0.43661 0.0
O62 O 0.13849 0.82272 0.49342 0.0
O63 O 0.17473 0.77492 0.44449 0.0
C64 C 0.14675 0.63935 0.53842 0.0
C65 C 0.13122 0.6407 0.57746 0.0
C66 C 0.14408 0.58809 0.54 0.0
C67 C 0.12214 0.61577 0.59767 0.0
C68 C 0.15303 0.613 0.51975 0.0
C69 C 0.12858 0.58924 0.57916 0.0
C70 C 0.15605 0.66487 0.51547 0.0
C71 C 0.12374 0.73048 0.3907 0.0
H72 H 0.12409 0.89244 0.46206 0.0
H73 H 0.19905 0.85385 0.36566 0.0
H74 H 0.15483 0.9253 0.42127 0.0
H75 H 0.16831 0.82181 0.40521 0.0
H76 H 0.12604 0.66091 0.59211 0.0
H77 H 0.14937 0.56794 0.52525 0.0
H78 H 0.11068 0.61722 0.62837 0.0
H79 H 0.1649 0.61172 0.4894 0.0
Eu80 Eu 0.49226 0.8618 0.72253 0.0
Eu81 Eu 0.53763 0.90033 0.74393 0.0
C82 C 0.48899 0.93033 0.69942 0.0
C83 C 0.41765 0.84874 0.68543 0.0
C84 C 0.39069 0.83804 0.69504 0.0
C85 C 0.39645 0.88424 0.63827 0.0
C86 C 0.36659 0.8504 0.67608 0.0
C87 C 0.42035 0.87172 0.65665 0.0
C88 C 0.3693 0.87398 0.64817 0.0
C89 C 0.44248 0.83916 0.71028 0.0
O90 O 0.52048 0.88955 0.81914 0.0
O91 O 0.48689 0.85822 0.79879 0.0
C92 C 0.49994 0.87111 0.83182 0.0
O93 O 0.5286 0.83403 0.75096 0.0
O94 O 0.55443 0.94183 0.76173 0.0
O95 O 0.58165 0.91087 0.73116 0.0
O96 O 0.55285 0.86852 0.78783 0.0
C97 C 0.54852 0.84234 0.77912 0.0
O98 O 0.51705 0.84372 0.66498 0.0
O99 O 0.54837 0.87973 0.67024 0.0
O100 O 0.50284 0.93177 0.736 0.0
O101 O 0.46477 0.83189 0.68764 0.0
O102 O 0.44885 0.85569 0.74315 0.0
O103 O 0.48652 0.90467 0.68249 0.0
C104 C 0.60306 0.94152 0.78252 0.0
C105 C 0.63097 0.93385 0.77244 0.0
C106 C 0.6187 0.95642 0.8551 0.0
C107 C 0.65235 0.93639 0.80401 0.0
C108 C 0.59727 0.95366 0.82366 0.0
C109 C 0.64623 0.947 0.84601 0.0
C110 C 0.58025 0.93538 0.75065 0.0
C111 C 0.53893 0.85669 0.64742 0.0
H112 H 0.38826 0.82057 0.71784 0.0
H113 H 0.39928 0.90177 0.6157 0.0
H114 H 0.34592 0.84183 0.68357 0.0
H115 H 0.44095 0.88038 0.64907 0.0
H116 H 0.63605 0.92482 0.7407 0.0
H117 H 0.61331 0.96432 0.88744 0.0
H118 H 0.67343 0.92905 0.79622 0.0
H119 H 0.57602 0.96001 0.83231 0.0
Eu120 Eu 0.41751 0.19261 0.96486 0.0
Eu121 Eu 0.40294 0.25422 0.99502 0.0
C122 C 0.35237 0.21717 0.94884 0.0
C123 C 0.39728 0.12235 0.92437 0.0
C124 C 0.3685 0.12424 0.93601 0.0
C125 C 0.38321 0.1072 0.85134 0.0
C126 C 0.34749 0.12023 0.9043 0.0
C127 C 0.40433 0.11146 0.88295 0.0
C128 C 0.355 0.11399 0.86096 0.0
C129 C 0.41863 0.13848 0.94962 0.0
O130 O 0.41511 0.2351 1.06654 0.0
O131 O 0.42981 0.19211 1.04173 0.0
C132 C 0.42684 0.20981 1.07608 0.0
O133 O 0.45929 0.2142 0.95386 0.0
O134 O 0.38064 0.28511 1.03526 0.0
O135 O 0.40681 0.29924 0.98068 0.0
O136 O 0.44799 0.24288 1.00845 0.0
C137 C 0.4645 0.2375 0.97543 0.0
O138 O 0.42386 0.21595 0.89688 0.0
O139 O 0.41494 0.26132 0.91914 0.0
O140 O 0.35924 0.23745 0.97641 0.0
O141 O 0.43345 0.15668 0.92694 0.0
O142 O 0.4098 0.14935 0.9865 0.0
O143 O 0.37149 0.19799 0.93879 0.0
C144 C 0.39443 0.33359 1.0336 0.0
C145 C 0.40839 0.3354 1.07419 0.0
C146 C 0.38591 0.38419 1.03457 0.0
C147 C 0.41094 0.36157 1.09501 0.0
C148 C 0.38375 0.3581 1.01348 0.0
C149 C 0.39916 0.38604 1.07577 0.0
C150 C 0.38954 0.30653 1.01186 0.0
C151 C 0.42249 0.24355 0.88685 0.0
H152 H 0.36218 0.13212 0.96792 0.0
H153 H 0.3894 0.10253 0.81784 0.0
H154 H 0.32582 0.12549 0.91225 0.0
H155 H 0.42627 0.10958 0.87328 0.0
H156 H 0.41681 0.31662 1.08998 0.0
H157 H 0.3765 0.40271 1.01942 0.0
H158 H 0.42081 0.36242 0.12725 0.0
H159 H 0.37296 0.35691 0.98198 0.0
Eu160 Eu 0.06904 0.81064 1.02401 0.0
Eu161 Eu 0.01005 0.82101 0.98712 0.0
C162 C 0.04306 0.87262 1.03512 0.0
C163 C 0.13973 0.82758 1.07535 0.0
C164 C 0.12739 0.83969 0.11261 0.0
C165 C 0.18246 0.85495 1.08864 0.0
C166 C 0.14244 0.85925 0.13772 0.0
C167 C 0.16737 0.83517 1.06359 0.0
C168 C 0.16998 0.8675 0.12566 0.0
C169 C 0.12257 0.81049 1.04518 0.0
O170 O 0.03268 0.82061 0.91677 0.0
O171 O 0.07624 0.81154 0.94528 0.0
C172 C 0.05991 0.81465 0.90904 0.0
O173 O 0.05437 0.76764 1.00423 0.0
O174 O 0.97222 0.84505 1.00383 0.0
O175 O 0.97175 0.81776 0.94698 0.0
O176 O 0.02015 0.77959 0.95541 0.0
C177 C 0.04126 0.76331 0.96687 0.0
O178 O 0.04439 0.7941 1.08661 0.0
O179 O 0.00121 0.79458 1.05301 0.0
O180 O 0.02977 0.86541 0.99853 0.0
O181 O 0.10416 0.79311 1.06246 0.0
O182 O 0.11198 0.82492 1.01249 0.0
O183 O 0.05621 0.85245 1.05633 0.0
C184 C 0.94917 0.86158 0.9397 0.0
C185 C 0.93012 0.85582 0.90554 0.0
C186 C 0.95905 0.90747 0.90698 0.0
C187 C 0.92703 0.87486 0.87078 0.0
C188 C 0.9624 0.88823 0.94154 0.0
C189 C 0.94296 0.90011 0.86969 0.0
C190 C 0.95899 0.83813 0.96772 0.0
C191 C 0.01682 0.78817 1.08876 0.0
H192 H 0.1059 0.83449 0.12181 0.0
H193 H 0.20361 0.86079 1.07861 0.0
H194 H 0.13244 0.86779 0.1668 0.0
H195 H 0.17696 0.8264 1.03433 0.0
H196 H 0.91964 0.83546 0.90363 0.0
H197 H 0.97111 0.92696 0.90766 0.0
H198 H 0.91452 0.86814 0.84275 0.0
H199 H 0.97707 0.89336 0.96782 0.0
Eu200 Eu 0.42827 0.82096 0.2718 0.0
Eu201 Eu 0.44224 0.76102 0.24041 0.0
C202 C 0.37932 0.7758 0.28802 0.0
C203 C 0.39416 0.88188 0.3272 0.0
C204 C 0.38682 0.86363 0.36161 0.0
C205 C 0.35846 0.91522 0.35177 0.0
C206 C 0.36587 0.87118 0.39116 0.0
C207 C 0.37977 0.90763 0.3221 0.0
C208 C 0.35124 0.89698 0.38662 0.0
C209 C 0.41487 0.87242 0.29471 0.0
O210 O 0.43825 0.78234 0.17033 0.0
O211 O 0.43948 0.82792 0.19353 0.0
C212 C 0.44127 0.80959 0.15943 0.0
O213 O 0.47306 0.81412 0.28548 0.0
O214 O 0.4283 0.72224 0.20773 0.0
O215 O 0.47129 0.7252 0.23657 0.0
O216 O 0.47834 0.79121 0.22269 0.0
C217 C 0.48731 0.81062 0.25019 0.0
O218 O 0.43905 0.79608 0.34041 0.0
O219 O 0.46121 0.75795 0.31044 0.0
O220 O 0.39869 0.75687 0.2766 0.0
O221 O 0.43685 0.85904 0.31027 0.0
O222 O 0.4039 0.85952 0.26092 0.0
O223 O 0.38482 0.80257 0.28243 0.0
C224 C 0.45815 0.68078 0.20273 0.0
C225 C 0.47452 0.67619 0.16535 0.0
C226 C 0.44613 0.63091 0.20508 0.0
C227 C 0.47557 0.64939 0.14656 0.0
C228 C 0.44485 0.65794 0.22362 0.0
C229 C 0.46032 0.62665 0.16507 0.0
C230 C 0.45235 0.70974 0.21645 0.0
C231 C 0.45483 0.7724 0.34634 0.0
H232 H 0.39734 0.84342 0.3657 0.0
H233 H 0.34771 0.93525 0.34749 0.0
H234 H 0.36176 0.85692 0.41832 0.0
H235 H 0.38486 0.9217 0.29509 0.0
H236 H 0.48479 0.69373 0.14887 0.0
H237 H 0.43438 0.61384 0.22028 0.0
H238 H 0.48627 0.64729 0.11531 0.0
H239 H 0.43229 0.66128 0.25287 0.0
Eu240 Eu 0.49354 0.18476 0.51056 0.0
Eu241 Eu 0.53699 0.14126 0.49545 0.0
C242 C 0.4863 0.11695 0.53903 0.0
C243 C 0.42265 0.20732 0.55248 0.0
C244 C 0.41732 0.17966 0.56695 0.0
C245 C 0.3806 0.22331 0.59083 0.0
C246 C 0.39368 0.17374 0.59224 0.0
C247 C 0.40427 0.22922 0.56469 0.0
C248 C 0.37491 0.19537 0.60415 0.0
C249 C 0.44657 0.21245 0.52288 0.0
O250 O 0.51651 0.14648 0.42135 0.0
O251 O 0.48633 0.18282 0.43399 0.0
C252 C 0.49753 0.16541 0.40475 0.0
O253 O 0.5295 0.20698 0.47173 0.0
O254 O 0.54778 0.09682 0.50518 0.0
O255 O 0.58062 0.12676 0.48916 0.0
O256 O 0.55552 0.16908 0.44763 0.0
C257 C 0.55004 0.19571 0.44753 0.0
O258 O 0.51911 0.20171 0.56998 0.0
O259 O 0.54928 0.1646 0.56512 0.0
O260 O 0.49935 0.11341 0.50232 0.0
O261 O 0.47055 0.21992 0.54108 0.0
O262 O 0.44987 0.19291 0.49304 0.0
O263 O 0.48528 0.14347 0.55311 0.0
C264 C 0.58472 0.08096 0.45905 0.0
C265 C 0.61166 0.08559 0.4413 0.0
C266 C 0.57514 0.04675 0.40132 0.0
C267 C 0.61948 0.0724 0.4022 0.0
C268 C 0.56724 0.06006 0.44032 0.0
C269 C 0.60049 0.05425 0.38038 0.0
C270 C 0.57403 0.10011 0.49346 0.0
C271 C 0.54068 0.18795 0.58741 0.0
H272 H 0.43131 0.16245 0.55825 0.0
H273 H 0.36669 0.2404 0.6004 0.0
H274 H 0.39042 0.15218 0.6033 0.0
H275 H 0.40815 0.25071 0.55387 0.0
H276 H 0.62578 0.10113 0.45571 0.0
H277 H 0.56031 0.03247 0.38552 0.0
H278 H 0.63915 0.07871 0.38695 0.0
H279 H 0.54662 0.05541 0.45391 0.0
Eu280 Eu 0.10232 0.18254 0.77004 0.0
Eu281 Eu 0.10613 0.24621 0.74153 0.0
C282 C 0.1613 0.21524 0.79208 0.0
C283 C 0.12331 0.10961 0.8079 0.0
C284 C 0.1506 0.10986 0.78967 0.0
C285 C 0.14 0.07813 0.86533 0.0
C286 C 0.17261 0.09489 0.80985 0.0
C287 C 0.11799 0.09281 0.84485 0.0
C288 C 0.16786 0.0798 0.84905 0.0
C289 C 0.1012 0.12902 0.79182 0.0
O290 O 0.10881 0.22333 0.6707 0.0
O291 O 0.10202 0.17727 0.69086 0.0
C292 C 0.10443 0.19624 0.65801 0.0
O293 O 0.05846 0.19544 0.75103 0.0
O294 O 0.13437 0.27937 0.71978 0.0
O295 O 0.0909 0.28991 0.73663 0.0
O296 O 0.06853 0.23111 0.70389 0.0
C297 C 0.05343 0.20894 0.71422 0.0
O298 O 0.08529 0.20661 0.83488 0.0
O299 O 0.07979 0.251 0.80663 0.0
O300 O 0.14729 0.23817 0.7804 0.0
O301 O 0.09414 0.14929 0.81859 0.0
O302 O 0.10389 0.13804 0.7516 0.0
O303 O 0.14938 0.19044 0.78585 0.0
C304 C 0.11588 0.32204 0.68967 0.0
C305 C 0.09866 0.34596 0.69513 0.0
C306 C 0.13815 0.34472 0.62712 0.0
C307 C 0.10099 0.36903 0.6665 0.0
C308 C 0.13568 0.32166 0.65542 0.0
C309 C 0.1209 0.36866 0.63237 0.0
C310 C 0.11531 0.29927 0.72278 0.0
C311 C 0.07644 0.23347 0.8406 0.0
H312 H 0.1553 0.12271 0.76106 0.0
H313 H 0.13538 0.06732 0.8959 0.0
H314 H 0.19364 0.09646 0.79614 0.0
H315 H 0.09714 0.0924 0.85946 0.0
H316 H 0.08361 0.34693 0.72184 0.0
H317 H 0.15312 0.34345 0.60033 0.0
H318 H 0.08727 0.38712 0.671 0.0
H319 H 0.14946 0.30366 0.65054 0.0
Eu320 Eu 0.92615 0.26648 0.77102 0.0
Eu321 Eu 0.893 0.21094 0.74685 0.0
C322 C 0.85875 0.25722 0.80444 0.0
C323 C 0.94589 0.33784 0.81971 0.0
C324 C 0.92076 0.33822 0.84387 0.0
C325 C 0.95572 0.38608 0.84283 0.0
C326 C 0.91275 0.36256 0.86626 0.0
C327 C 0.96357 0.3617 0.81974 0.0
C328 C 0.92983 0.38689 0.86518 0.0
C329 C 0.95118 0.31444 0.78934 0.0
O330 O 0.89928 0.23356 0.67436 0.0
O331 O 0.92103 0.27439 0.69511 0.0
C332 C 0.91147 0.25836 0.66219 0.0
O333 O 0.95205 0.24114 0.72207 0.0
O334 O 0.85371 0.18676 0.74178 0.0
O335 O 0.89289 0.168 0.72077 0.0
O336 O 0.93811 0.20089 0.75199 0.0
C337 C 0.95262 0.21349 0.72201 0.0
O338 O 0.94241 0.23644 0.82726 0.0
O339 O 0.91074 0.20001 0.8201 0.0
O340 O 0.85759 0.2341 0.78104 0.0
O341 O 0.95917 0.29025 0.80616 0.0
O342 O 0.93149 0.31135 0.75962 0.0
O343 O 0.88237 0.27246 0.80507 0.0
C344 C 0.85235 0.15985 0.67739 0.0
C345 C 0.86552 0.16878 0.63855 0.0
C346 C 0.81241 0.14275 0.63435 0.0
C347 C 0.85244 0.16455 0.59805 0.0
C348 C 0.82566 0.14692 0.67515 0.0
C349 C 0.82566 0.15164 0.59537 0.0
C350 C 0.86543 0.1662 0.72015 0.0
C351 C 0.93188 0.21234 0.8434 0.0
H352 H 0.9068 0.32004 0.844 0.0
H353 H 0.96936 0.40449 0.84216 0.0
H354 H 0.89303 0.36243 0.88428 0.0
H355 H 0.98291 0.36179 0.8008 0.0
H356 H 0.886 0.17908 0.63937 0.0
H357 H 0.79185 0.13265 0.63327 0.0
H358 H 0.86374 0.17088 0.56871 0.0
H359 H 0.81503 0.14029 0.70493 0.0
Eu360 Eu 0.61718 0.72323 0.2715 0.0
Eu361 Eu 0.65158 0.76965 0.24133 0.0
C362 C 0.68601 0.72594 0.29331 0.0
C363 C 0.59857 0.65053 0.31638 0.0
C364 C 0.62497 0.64794 0.3371 0.0
C365 C 0.58484 0.60475 0.34557 0.0
C366 C 0.63137 0.62386 0.36161 0.0
C367 C 0.57854 0.62885 0.32058 0.0
C368 C 0.61142 0.60198 0.36605 0.0
C369 C 0.59301 0.67464 0.28736 0.0
O370 O 0.64158 0.74761 0.16923 0.0
O371 O 0.61085 0.71524 0.195 0.0
C372 C 0.6234 0.72616 0.15968 0.0
O373 O 0.58998 0.76294 0.25543 0.0
O374 O 0.69203 0.78805 0.22272 0.0
O375 O 0.6567 0.81543 0.23814 0.0
O376 O 0.61589 0.77395 0.19751 0.0
C377 C 0.59339 0.77813 0.21933 0.0
O378 O 0.60456 0.74698 0.33343 0.0
O379 O 0.6331 0.78369 0.31527 0.0
O380 O 0.68528 0.73784 0.25489 0.0
O381 O 0.58497 0.69825 0.30577 0.0
O382 O 0.61229 0.67864 0.2574 0.0
O383 O 0.66096 0.71997 0.31033 0.0
C384 C 0.68931 0.83147 0.18579 0.0
C385 C 0.67619 0.82626 0.14521 0.0
C386 C 0.71497 0.87076 0.15365 0.0
C387 C 0.68234 0.8433 1.10902 0.0
C388 C 0.70883 0.85362 0.18987 0.0
C389 C 0.70171 0.8658 0.1129 0.0
C390 C 0.68265 0.81396 0.22398 0.0
C391 C 0.61463 0.77197 0.34467 0.0
H392 H 0.64072 0.66447 0.33401 0.0
H393 H 0.56902 0.58832 0.34893 0.0
H394 H 0.65171 0.62271 0.37806 0.0
H395 H 0.55816 0.63048 0.30434 0.0
H396 H 0.66097 0.80925 0.14171 0.0
H397 H 0.72998 0.88791 0.15749 0.0
H398 H 0.67131 0.83933 1.07831 0.0
H399 H 0.71915 0.85776 0.22113 0.0
Eu400 Eu 0.62698 0.32033 0.98003 0.0
Eu401 Eu 0.60855 0.26036 0.99629 0.0
C402 C 0.67561 0.27762 0.97399 0.0
C403 C 0.66486 0.38456 0.9305 0.0
C404 C 0.69259 0.37402 0.92831 0.0
C405 C 0.67613 0.4189 0.87403 0.0
C406 C 0.7118 0.38551 0.89836 0.0
C407 C 0.65711 0.40763 0.90425 0.0
C408 C 0.70345 0.40739 0.86964 0.0
C409 C 0.64339 0.37123 0.95849 0.0
O410 O 0.60003 0.27954 1.06815 0.0
O411 O 0.61312 0.32511 1.05605 0.0
C412 C 0.60256 0.30588 1.08426 0.0
O413 O 0.58296 0.32526 0.99966 0.0
O414 O 0.62297 0.21682 0.99835 0.0
O415 O 0.57966 0.22661 1.01649 0.0
O416 O 0.57293 0.28557 0.96351 0.0
C417 C 0.56639 0.31175 0.97371 0.0
O418 O 0.62057 0.29657 0.90728 0.0
O419 O 0.59563 0.25678 0.92386 0.0
O420 O 0.65479 0.25946 0.96666 0.0
O421 O 0.62296 0.35782 0.93822 0.0
O422 O 0.65266 0.35755 0.99296 0.0
O423 O 0.66892 0.30071 0.99451 0.0
C424 C 0.60028 0.18377 1.04404 0.0
C425 C 0.58784 0.18565 1.08572 0.0
C426 C 0.61646 0.13625 1.06122 0.0
C427 C 0.58972 0.16286 0.11496 0.0
C428 C 0.61444 0.15891 1.03198 0.0
C429 C 0.60412 0.13798 1.10297 0.0
C430 C 0.59879 0.20691 1.01186 0.0
C431 C 0.60609 0.27314 0.89294 0.0
H432 H 0.69914 0.35629 0.94855 0.0
H433 H 0.66859 0.43532 0.85206 0.0
H434 H 0.7327 0.3763 0.89617 0.0
H435 H 0.63586 0.41612 0.9057 0.0
H436 H 0.57687 0.20465 1.09576 0.0
H437 H 0.62749 0.11729 1.05106 0.0
H438 H 0.58035 0.16489 0.14727 0.0
H439 H 0.62401 0.15703 0.99977 0.0
Eu440 Eu 0.91532 0.65921 0.47341 0.0
Eu441 Eu 0.94009 0.7174 0.49276 0.0
C442 C 0.87168 0.70778 0.46312 0.0
C443 C 0.86677 0.60458 0.42648 0.0
C444 C 0.84242 0.62109 0.43239 0.0
C445 C 0.8467 0.58591 0.35899 0.0
C446 C 0.82134 0.62131 0.40041 0.0
C447 C 0.86802 0.58572 0.39101 0.0
C448 C 0.82415 0.60518 0.3621 0.0
C449 C 0.89246 0.61098 0.45186 0.0
O450 O 0.94398 0.69811 0.56534 0.0
O451 O 0.93065 0.65326 0.54845 0.0
C452 C 0.94109 0.6713 0.5787 0.0
O453 O 0.95886 0.64804 0.48992 0.0
O454 O 0.93138 0.76214 0.49993 0.0
O455 O 0.97429 0.74677 0.50983 0.0
O456 O 0.97336 0.68904 0.46055 0.0
C457 C 0.97711 0.66179 0.46731 0.0
O458 O 0.92635 0.68148 0.40155 0.0
O459 O 0.95161 0.72091 0.41993 0.0
O460 O 0.89491 0.72357 0.46102 0.0
O461 O 0.91285 0.62278 0.42942 0.0
O462 O 0.8885 0.62335 0.4897 0.0
O463 O 0.87416 0.68288 0.48097 0.0
C464 C 0.96181 0.79065 0.54246 0.0
C465 C 0.98037 0.813 0.53326 0.0
C466 C 0.94726 0.81442 0.60908 0.0
C467 C 0.9821 0.83622 0.5615 0.0
C468 C 0.94561 0.7912 0.58089 0.0
C469 C 0.96509 0.83741 0.59917 0.0
C470 C 0.95755 0.76871 0.5092 0.0
C471 C 0.94158 0.70461 0.38846 0.0
H472 H 0.84077 0.63582 0.45951 0.0
H473 H 0.84962 0.57343 0.32949 0.0
H474 H 0.80456 0.63648 0.4033 0.0
H475 H 0.88663 0.5728 0.38595 0.0
H476 H 0.99289 0.8129 0.50349 0.0
H477 H 0.93445 0.81445 0.63854 0.0
H478 H 0.99607 0.85358 0.55321 0.0
H479 H 0.93121 0.77406 0.58848 0.0
Eu480 Eu 0.57588 0.66008 0.72277 0.0
Eu481 Eu 0.51257 0.66584 0.7468 0.0
C482 C 0.53712 0.60788 0.69793 0.0
C483 C 0.64326 0.62663 0.68878 0.0
C484 C 0.63204 0.60025 0.70111 0.0
C485 C 0.67006 0.60371 0.63136 0.0
C486 C 0.63821 0.57614 0.67659 0.0
C487 C 0.66369 0.6279 0.6557 0.0
C488 C 0.65563 0.5782 0.6395 0.0
C489 C 0.62899 0.65267 0.70266 0.0
O490 O 0.53423 0.66131 0.81858 0.0
O491 O 0.58037 0.66794 0.80068 0.0
C492 C 0.5609 0.66661 0.8325 0.0
O493 O 0.56546 0.70569 0.72365 0.0
O494 O 0.47706 0.63851 0.75983 0.0
O495 O 0.47116 0.68408 0.76232 0.0
O496 O 0.53263 0.70437 0.77637 0.0
C497 C 0.55513 0.71611 0.7596 0.0
O498 O 0.55317 0.67536 0.65564 0.0
O499 O 0.51017 0.6907 0.68029 0.0
O500 O 0.51737 0.62753 0.69965 0.0
O501 O 0.61011 0.662 0.6749 0.0
O502 O 0.61974 0.65304 0.74292 0.0
O503 O 0.5616 0.61394 0.71578 0.0
C504 C 0.44594 0.65437 0.81179 0.0
C505 C 0.45967 0.66231 0.85079 0.0
C506 C 0.41772 0.62039 0.85242 0.0
C507 C 0.45348 0.64832 0.88991 0.0
C508 C 0.42385 0.63454 0.81321 0.0
C509 C 0.43375 0.62603 0.89035 0.0
C510 C 0.46001 0.65917 0.76982 0.0
C511 C 0.5284 0.68872 0.64726 0.0
H512 H 0.61633 0.59872 0.72681 0.0
H513 H 0.68341 0.60597 0.60269 0.0
H514 H 0.62684 0.55675 0.68347 0.0
H515 H 0.67253 0.64806 0.64572 0.0
H516 H 0.47698 0.67733 0.85029 0.0
H517 H 0.40222 0.60351 0.85215 0.0
H518 H 0.46554 0.6536 0.9192 0.0
H519 H 0.41333 0.62793 0.78316 0.0
Eu520 Eu 0.94197 0.3323 0.22252 0.0
Eu521 Eu 0.00359 0.32279 0.24106 0.0
C522 C 0.97985 0.38673 0.21353 0.0
C523 C 0.87914 0.3691 0.17461 0.0
C524 C 0.88695 0.39673 0.18705 0.0
C525 C 0.85849 0.38799 1.10763 0.0
C526 C 0.8821 0.4195 0.15878 0.0
C527 C 0.86366 0.36512 0.13572 0.0
C528 C 0.86902 0.41507 0.11792 0.0
C529 C 0.89033 0.34445 0.19889 0.0
O530 O 0.98496 0.32073 0.31435 0.0
O531 O 0.93814 0.31903 0.29888 0.0
C532 C 0.95864 0.31652 0.32934 0.0
O533 O 0.94209 0.29036 0.2521 0.0
O534 O 0.0479 0.33101 0.22699 0.0
O535 O 0.03683 0.30827 0.28614 0.0
O536 O 0.9827 0.28113 0.21839 0.0
C537 C 0.95731 0.27289 0.23066 0.0
O538 O 0.96498 0.32006 0.15175 0.0
O539 O 0.00881 0.30449 0.17162 0.0
O540 O 0.00094 0.36854 0.21093 0.0
O541 O 0.9064 0.32715 0.17661 0.0
O542 O 0.90082 0.34997 0.23765 0.0
O543 O 0.95626 0.37749 0.23021 0.0
C544 C 0.07104 0.34407 0.29144 0.0
C545 C 0.09683 0.33844 0.31241 0.0
C546 C 0.06989 0.39057 0.32514 0.0
C547 C 0.10873 0.35857 0.34072 0.0
C548 C 0.05804 0.37051 0.29709 0.0
C549 C 0.09484 0.38445 0.34835 0.0
C550 C 0.05645 0.32237 0.26547 0.0
C551 C 0.99038 0.30862 0.13959 0.0
H552 H 0.89849 0.40056 0.21728 0.0
H553 H 0.84871 0.38391 1.07594 0.0
H554 H 0.89049 0.44012 0.16729 0.0
H555 H 0.85732 0.34408 0.12559 0.0
H556 H 0.10711 0.31815 0.30834 0.0
H557 H 0.05876 0.41028 0.33055 0.0
H558 H 0.12774 0.3531 0.35884 0.0
H559 H 0.03807 0.37524 0.2811 0.0
Eu560 Eu 0.54593 0.3552 0.51966 0.0
Eu561 Eu 0.48287 0.36748 0.49143 0.0
C562 C 0.52153 0.41821 0.54075 0.0
C563 C 0.62435 0.35497 0.55618 0.0
C564 C 0.63811 0.37875 0.5383 0.0
C565 C 0.65891 0.3539 0.6153 0.0
C566 C 0.66191 0.39022 0.55917 0.0
C567 C 0.63532 0.34239 0.59434 0.0
C568 C 0.67241 0.37811 0.59822 0.0
C569 C 0.59902 0.34262 0.5352 0.0
O570 O 0.5049 0.36698 0.42014 0.0
O571 O 0.55063 0.35887 0.44062 0.0
C572 C 0.53181 0.36198 0.40767 0.0
O573 O 0.52137 0.31567 0.50549 0.0
O574 O 0.45202 0.40102 0.48392 0.0
O575 O 0.43867 0.35756 0.47575 0.0
O576 O 0.49246 0.32892 0.45169 0.0
C577 C 0.51134 0.31116 0.46613 0.0
O578 O 0.52196 0.33815 0.58313 0.0
O579 O 0.47622 0.34361 0.55948 0.0
O580 O 0.49994 0.41047 0.51574 0.0
O581 O 0.57834 0.33506 0.5608 0.0
O582 O 0.58996 0.35455 0.49921 0.0
O583 O 0.54197 0.39999 0.54862 0.0
C584 C 0.41835 0.39304 0.43039 0.0
C585 C 0.42894 0.38311 0.39037 0.0
C586 C 0.39227 0.42967 0.39144 0.0
C587 C 0.42187 0.39681 0.35132 0.0
C588 C 0.39935 0.41584 0.43069 0.0
C589 C 0.4044 0.4209 0.35172 0.0
C590 C 0.43174 0.38418 0.47156 0.0
C591 C 0.49422 0.335 0.5909 0.0
H592 H 0.63035 0.38874 0.5085 0.0
H593 H 0.66584 0.34437 0.64594 0.0
H594 H 0.67184 0.40878 0.54511 0.0
H595 H 0.62529 0.32389 0.60851 0.0
H596 H 0.44395 0.36581 0.3895 0.0
H597 H 0.37855 0.44799 0.39242 0.0
H598 H 0.43085 0.3891 0.32087 0.0
H599 H 0.39138 0.42401 0.46153 0.0
Eu600 Eu -0.00199 0.6401 1.0126 0.0
Eu601 Eu 0.05154 0.60485 0.99639 0.0
C602 C 0.00342 0.57287 1.05136 0.0
C603 C 0.92691 0.66654 1.05418 0.0
C604 C 0.9199 0.64026 1.07252 0.0
C605 C 0.88292 0.68608 1.08134 0.0
C606 C 0.89435 0.63674 1.09433 0.0
C607 C 0.90845 0.6895 1.05889 0.0
C608 C 0.87549 0.6595 1.09856 0.0
C609 C 0.95186 0.66904 1.02621 0.0
O610 O 0.02774 0.60755 0.92405 0.0
O611 O 0.99126 0.63766 0.93644 0.0
C612 C 0.00569 0.62274 0.90741 0.0
O613 O 0.02738 0.66217 0.96358 0.0
O614 O 0.07323 0.56416 0.99309 0.0
O615 O 0.09462 0.60199 0.97133 0.0
O616 O 0.06672 0.64851 0.99754 0.0
C617 C 0.05505 0.66286 0.96642 0.0
O618 O 0.02631 0.65659 1.07087 0.0
O619 O 0.0614 0.62346 1.069 0.0
O620 O 0.0293 0.57256 1.03715 0.0
O621 O 0.97594 0.67505 1.04528 0.0
O622 O 0.95423 0.64892 0.99722 0.0
O623 O 0.98723 0.59548 1.04354 0.0
C624 C 0.09876 0.56096 0.92794 0.0
C625 C 0.09072 0.57537 0.8895 0.0
C626 C 0.10734 0.51863 0.8846 0.0
C627 C 0.09076 0.56158 0.84923 0.0
C628 C 0.10729 0.53256 0.92528 0.0
C629 C 0.09851 0.53293 0.84636 0.0
C630 C 0.09434 0.57441 0.97087 0.0
C631 C 0.04923 0.64546 1.08991 0.0
H632 H 0.93394 0.62229 1.06918 0.0
H633 H 0.86888 0.70401 1.08488 0.0
H634 H 0.88954 0.61626 1.10854 0.0
H635 H 0.91357 0.70989 1.04463 0.0
H636 H 0.08375 0.59719 0.89056 0.0
H637 H 0.11371 0.49666 0.88314 0.0
H638 H 0.08475 0.57352 0.82018 0.0
H639 H 0.11315 0.52101 0.95477 0.0
H640 H 0.18062 0.04865 1.07902 0.0
H641 H 0.22878 0.12632 1.07721 0.0
H642 H 0.249 0.1132 1.00602 0.0
H643 H 0.2308 0.00631 0.99192 0.0
H644 H 0.19909 0.99093 0.96909 0.0
H645 H 0.20226 0.99616 1.02773 0.0
H646 H 0.15552 0.02433 1.02696 0.0
H647 H 0.15232 0.01937 0.96912 0.0
H648 H 0.15215 0.05477 0.99132 0.0
H649 H 0.24662 0.10489 0.92864 0.0
H650 H 0.21857 0.10686 0.86121 0.0
H651 H 0.17097 0.03357 0.90327 0.0
C652 C 0.1966 0.062 1.06429 0.0
C653 C 0.20285 0.08856 1.08296 0.0
C654 C 0.22381 0.10574 1.0636 0.0
C655 C 0.23548 0.0983 1.02297 0.0
C656 C 0.22601 0.07364 1.00217 0.0
C657 C 0.20746 0.05521 1.02288 0.0
C658 C 0.19422 0.03487 0.99017 0.0
C659 C 0.2074 0.00532 0.99501 0.0
C660 C 0.16167 0.03337 0.99464 0.0
C661 C 0.20342 0.04854 0.94742 0.0
C662 C 0.22375 0.06918 0.95497 0.0
C663 C 0.23114 0.08854 0.9223 0.0
C664 C 0.21507 0.0894 0.88357 0.0
C665 C 0.19189 0.07082 0.87769 0.0
C666 C 0.18823 0.04833 0.90771 0.0
H667 H 0.15577 0.93216 0.33987 0.0
H668 H 0.23574 0.89178 0.36737 0.0
H669 H 0.25088 0.90066 0.29162 0.0
H670 H 0.13873 0.90052 0.2633 0.0
H671 H 0.1235 0.92544 0.22515 0.0
H672 H 0.12508 0.93411 0.282 0.0
H673 H 0.15319 0.97963 0.26674 0.0
H674 H 0.15051 0.97228 0.20862 0.0
H675 H 0.18463 0.97846 0.23354 0.0
H676 H 0.2464 0.88888 0.21528 0.0
H677 H 0.22561 0.86487 0.15141 0.0
H678 H 0.14966 0.91491 0.16471 0.0
C679 C 0.17728 0.92734 0.33062 0.0
C680 C 0.19426 0.91067 0.35863 0.0
C681 C 0.22222 0.90425 0.34596 0.0
C682 C 0.23099 0.90931 0.30276 0.0
C683 C 0.21176 0.92133 0.27312 0.0
C684 C 0.18584 0.93175 0.28706 0.0
C685 C 0.16618 0.93689 0.24825 0.0
C686 C 0.13672 0.92337 0.25515 0.0
C687 C 0.1635 0.96871 0.23872 0.0
C688 C 0.18267 0.92239 0.21221 0.0
C689 C 0.20959 0.91503 0.22641 0.0
C690 C 0.22598 0.89564 0.20301 0.0
C691 C 0.21395 0.88193 0.16659 0.0
C692 C 0.18581 0.88778 0.15376 0.0
C693 C 0.17112 0.90995 0.17449 0.0
H694 H 0.31356 0.86354 0.42873 0.0
H695 H 0.3448 0.94926 0.42465 0.0
H696 H 0.32785 0.95698 0.49955 0.0
H697 H 0.25949 0.87416 0.53138 0.0
H698 H 0.27069 0.84 0.55128 0.0
H699 H 0.26615 0.84594 0.49299 0.0
H700 H 0.31716 0.82856 0.47996 0.0
H701 H 0.32173 0.82279 0.53729 0.0
H702 H 0.34605 0.84563 0.50845 0.0
H703 H 0.3304 0.95009 0.57709 0.0
H704 H 0.35581 0.92985 0.64017 0.0
H705 H 0.32925 0.84605 0.60183 0.0
C706 C 0.31539 0.88427 0.44318 0.0
C707 C 0.33101 0.90544 0.42146 0.0
C708 C 0.33288 0.93259 0.44051 0.0
C709 C 0.32322 0.93711 0.48344 0.0
C710 C 0.31214 0.91421 0.50704 0.0
C711 C 0.30761 0.88822 0.48704 0.0
C712 C 0.30444 0.86484 0.52095 0.0
C713 C 0.27334 0.85572 0.52437 0.0
C714 C 0.32354 0.83906 0.51107 0.0
C715 C 0.31365 0.88057 0.56201 0.0
C716 C 0.31529 0.90948 0.55409 0.0
C717 C 0.3285 0.9277 0.58391 0.0
C718 C 0.34308 0.91602 0.61969 0.0
C719 C 0.34469 0.88639 0.62495 0.0
C720 C 0.32776 0.86878 0.59839 0.0
H721 H 0.34838 0.16826 0.84229 0.0
H722 H 0.32607 0.0846 0.79703 0.0
H723 H 0.31035 0.1047 0.72582 0.0
H724 H 0.29643 0.21145 0.76506 0.0
H725 H 0.32373 0.23761 0.75737 0.0
H726 H 0.32007 0.22003 0.80977 0.0
H727 H 0.37231 0.20469 0.80714 0.0
H728 H 0.37642 0.22202 0.75538 0.0
H729 H 0.38487 0.18495 0.76038 0.0
H730 H 0.31193 0.12945 0.65601 0.0
H731 H 0.33645 0.15289 0.59488 0.0
H732 H 0.36247 0.22047 0.68184 0.0
C733 C 0.33849 0.15462 0.81806 0.0
C734 C 0.33749 0.12518 0.82497 0.0
C735 C 0.32606 0.10732 0.7924 0.0
C736 C 0.31704 0.11869 0.75203 0.0
C737 C 0.32018 0.14778 0.74475 0.0
C738 C 0.33065 0.16557 0.77717 0.0
C739 C 0.33924 0.19403 0.75852 0.0
C740 C 0.31862 0.21714 0.77354 0.0
C741 C 0.37001 0.20178 0.77103 0.0
C742 C 0.33582 0.18812 0.70981 0.0
C743 C 0.32285 0.16215 0.70278 0.0
C744 C 0.32139 0.15005 0.66103 0.0
C745 C 0.33548 0.16345 0.62645 0.0
C746 C 0.35139 0.18832 0.63409 0.0
C747 C 0.34984 0.20182 0.67528 0.0
H748 H 0.98214 0.74446 0.3537 0.0
H749 H 0.91984 0.68461 0.30623 0.0
H750 H 0.93125 0.69867 0.22941 0.0
H751 H 0.97013 0.79931 0.26912 0.0
H752 H 0.00686 0.80906 0.26487 0.0
H753 H 0.99346 0.79469 0.31568 0.0
H754 H 0.03106 0.75513 0.31408 0.0
H755 H 0.04458 0.77027 0.26395 0.0
H756 H 0.03412 0.73348 0.26555 0.0
H757 H 0.94978 0.72279 0.15163 0.0
H758 H 0.97305 0.74845 1.09068 0.0
H759 H 0.02705 0.7911 0.18496 0.0
C760 C 0.97068 0.73405 0.32741 0.0
C761 C 0.94948 0.71282 0.33864 0.0
C762 C 0.93595 0.70053 0.30107 0.0
C763 C 0.94246 0.7087 0.25634 0.0
C764 C 0.96322 0.72953 0.24692 0.0
C765 C 0.97726 0.74185 0.282 0.0
C766 C -0.00094 0.76341 0.26333 0.0
C767 C 0.99197 0.7934 0.27922 0.0
C768 C 0.02902 0.75506 0.27761 0.0
C769 C 0.99573 0.76138 0.21237 0.0
C770 C 0.97442 0.74197 0.20369 0.0
C771 C 0.96656 0.73759 0.15927 0.0
C772 C 0.9802 0.75267 0.12394 0.0
C773 C 0.00282 0.7724 0.13041 0.0
C774 C 0.01042 0.77629 0.17664 0.0
H775 H 0.91322 0.17606 0.92033 0.0
H776 H 0.98748 0.21731 0.86739 0.0
H777 H 0.0153 0.20096 0.93108 0.0
H778 H 0.92958 0.19171 1.03801 0.0
H779 H 0.91771 0.1583 1.05976 0.0
H780 H 0.90249 0.17198 1.00948 0.0
H781 H 0.91575 0.12608 0.96901 0.0
H782 H 0.93085 0.11216 1.01922 0.0
H783 H 0.9519 0.11407 0.97002 0.0
H784 H 0.03786 0.17816 1.00165 0.0
H785 H 0.05082 0.15787 1.07334 0.0
H786 H 0.96424 0.12986 1.09086 0.0
C787 C 0.9354 0.18161 0.92161 0.0
C788 C 0.94737 0.19879 0.886 0.0
C789 C 0.97673 0.20493 0.89214 0.0
C790 C 0.99314 0.19538 0.92903 0.0
C791 C 0.98097 0.17906 0.96276 0.0
C792 C 0.95256 0.17229 0.95979 0.0
C793 C 0.94519 0.15483 1.00228 0.0
C794 C 0.92236 0.1701 1.02896 0.0
C795 C 0.9353 0.12501 0.98938 0.0
C796 C 0.9735 0.15315 1.02931 0.0
C797 C 0.99378 0.16712 1.00489 0.0
C798 C 0.02165 0.16803 1.0211 0.0
C799 C 0.02903 0.15581 1.0628 0.0
C800 C 0.00937 0.14157 1.09086 0.0
C801 C 0.98072 0.14022 1.07223 0.0
H802 H 0.55822 0.27528 0.83036 0.0
H803 H 0.64354 0.24294 0.83988 0.0
H804 H 0.63687 0.21847 0.76847 0.0
H805 H 0.52557 0.21557 0.77815 0.0
H806 H 0.50389 0.23393 0.73861 0.0
H807 H 0.51338 0.25089 0.78969 0.0
H808 H 0.53481 0.29289 0.75039 0.0
H809 H 0.52547 0.27825 0.69756 0.0
H810 H 0.56151 0.28766 0.70905 0.0
H811 H 0.61821 0.1923 0.69236 0.0
H812 H 0.59407 0.17515 0.62483 0.0
H813 H 0.52176 0.2272 0.65628 0.0
C814 C 0.57602 0.26377 0.81723 0.0
C815 C 0.60226 0.26265 0.84284 0.0
C816 C 0.62365 0.24577 0.82263 0.0
C817 C 0.61979 0.2312 0.78127 0.0
C818 C 0.59408 0.23289 0.75734 0.0
C819 C 0.5727 0.24944 0.77457 0.0
C820 C 0.54747 0.2487 0.74128 0.0
C821 C 0.52099 0.2366 0.76336 0.0
C822 C 0.54194 0.27865 0.72357 0.0
C823 C 0.5573 0.22875 0.70341 0.0
C824 C 0.58431 0.21957 0.71371 0.0
C825 C 0.59723 0.20005 0.68475 0.0
C826 C 0.583 0.19007 0.64551 0.0
C827 C 0.55536 0.19914 0.63234 0.0
C828 C 0.54276 0.21924 0.66313 0.0
H829 H 0.57702 0.87655 0.5715 0.0
H830 H 0.52963 0.80326 0.61597 0.0
H831 H 0.54335 0.77771 0.54974 0.0
H832 H 0.55999 0.86621 0.45122 0.0
H833 H 0.59422 0.87641 0.43085 0.0
H834 H 0.5816 0.89055 0.48228 0.0
H835 H 0.62637 0.87228 0.52156 0.0
H836 H 0.63908 0.85813 0.47021 0.0
H837 H 0.63559 0.83538 0.51754 0.0
H838 H 0.56178 0.75731 0.47632 0.0
H839 H 0.58192 0.74467 0.40555 0.0
H840 H 0.62018 0.82802 0.39601 0.0
C841 C 0.56957 0.85504 0.5679 0.0
C842 C 0.55152 0.84286 0.60251 0.0
C843 C 0.54298 0.8144 0.59285 0.0
C844 C 0.55088 0.79915 0.55414 0.0
C845 C 0.56802 0.81148 0.52168 0.0
C846 C 0.57739 0.83893 0.52775 0.0
C847 C 0.5955 0.84643 0.48581 0.0
C848 C 0.58205 0.87141 0.46109 0.0
C849 C 0.62596 0.85351 0.4996 0.0
C850 C 0.59497 0.81914 0.45605 0.0
C851 C 0.57869 0.79952 0.47833 0.0
C852 C 0.57442 0.77285 0.45919 0.0
C853 C 0.58643 0.76574 0.41754 0.0
C854 C 0.60363 0.78439 0.3916 0.0
C855 C 0.60768 0.81216 0.41269 0.0
H856 H 0.57788 0.58223 0.43089 0.0
H857 H 0.65967 0.5702 0.371 0.0
H858 H 0.67566 0.54341 0.43596 0.0
H859 H 0.59806 0.60295 0.52219 0.0
H860 H 0.57302 0.5859 0.55819 0.0
H861 H 0.56395 0.5916 0.50191 0.0
H862 H 0.55466 0.53769 0.49083 0.0
H863 H 0.56245 0.53325 0.54839 0.0
H864 H 0.5811 0.51251 0.50821 0.0
H865 H 0.68849 0.53711 0.51238 0.0
H866 H 0.6958 0.55142 0.58954 0.0
H867 H 0.60593 0.56468 0.60335 0.0
C868 C 0.59848 0.57228 0.43051 0.0
C869 C 0.61758 0.57824 0.39635 0.0
C870 C 0.64476 0.56585 0.3971 0.0
C871 C 0.65391 0.55039 0.4338 0.0
C872 C 0.63551 0.5472 0.46923 0.0
C873 C 0.60794 0.55717 0.46736 0.0
C874 C 0.59445 0.55695 0.51241 0.0
C875 C 0.58173 0.58607 0.52431 0.0
C876 C 0.57187 0.53366 0.51508 0.0
C877 C 0.61996 0.54966 0.54059 0.0
C878 C 0.64309 0.54259 0.51503 0.0
C879 C 0.67037 0.54132 0.53294 0.0
C880 C 0.67444 0.54948 0.57685 0.0
C881 C 0.65132 0.5586 0.60229 0.0
C882 C 0.62372 0.55671 0.58483 0.0
H883 H 0.73313 0.37077 0.81915 0.0
H884 H 0.71009 0.45908 0.82875 0.0
H885 H 0.71829 0.46487 0.74957 0.0
H886 H 0.78275 0.38173 0.71074 0.0
H887 H 0.77091 0.34745 0.69239 0.0
H888 H 0.77801 0.35352 0.75001 0.0
H889 H 0.72788 0.33566 0.76837 0.0
H890 H 0.72033 0.33015 0.71158 0.0
H891 H 0.69763 0.3528 0.7435 0.0
H892 H 0.7061 0.4561 0.67363 0.0
H893 H 0.67997 0.43492 0.61219 0.0
H894 H 0.7148 0.35287 0.64495 0.0
C895 C 0.73184 0.39178 0.8052 0.0
C896 C 0.72027 0.41423 0.82978 0.0
C897 C 0.71834 0.44136 0.81028 0.0
C898 C 0.72325 0.44489 0.76522 0.0
C899 C 0.73093 0.42132 0.7404 0.0
C900 C 0.7366 0.39543 0.76012 0.0
C901 C 0.73846 0.37209 0.72609 0.0
C902 C 0.76937 0.36319 0.7194 0.0
C903 C 0.71992 0.34625 0.73812 0.0
C904 C 0.72743 0.38771 0.686 0.0
C905 C 0.7248 0.41643 0.69415 0.0
C906 C 0.70922 0.43397 0.66604 0.0
C907 C 0.69432 0.42169 0.63097 0.0
C908 C 0.69511 0.39211 0.62425 0.0
C909 C 0.71375 0.37551 0.64981 0.0
H910 H 0.91831 0.43699 1.09212 0.0
H911 H 0.82921 0.43618 1.0609 0.0
H912 H 0.83964 0.45123 0.98531 0.0
H913 H 0.94136 0.48999 0.99095 0.0
H914 H 0.9728 0.46874 0.98601 0.0
H915 H 0.95858 0.47659 1.03963 0.0
H916 H 0.95789 0.42273 1.05627 0.0
H917 H 0.97095 0.4152 1.0027 0.0
H918 H 0.9381 0.39951 1.02039 0.0
H919 H 0.85765 0.44386 0.91326 0.0
H920 H 0.87955 0.41408 0.85687 0.0
H921 H 0.95837 0.41491 0.92922 0.0
C922 C 0.90108 0.44208 1.0699 0.0
C923 C 0.87306 0.43562 1.08188 0.0
C924 C 0.85079 0.44136 1.05222 0.0
C925 C 0.85666 0.44999 1.00915 0.0
C926 C 0.88491 0.45238 0.99618 0.0
C927 C 0.90693 0.4493 1.02621 0.0
C928 C 0.93484 0.4446 1.0029 0.0
C929 C 0.95297 0.47158 1.00496 0.0
C930 C 0.9513 0.41897 1.02164 0.0
C931 C 0.92422 0.43957 0.95642 0.0
C932 C 0.89583 0.44666 0.95254 0.0
C933 C 0.87998 0.43912 0.91551 0.0
C934 C 0.89251 0.42199 0.88368 0.0
C935 C 0.92053 0.41232 0.88925 0.0
C936 C 0.93712 0.42277 0.92422 0.0
H937 H 0.82315 0.65805 0.33092 0.0
H938 H 0.79656 0.5728 0.30024 0.0
H939 H 0.7903 0.58637 0.22241 0.0
H940 H 0.78619 0.69764 0.23301 0.0
H941 H 0.81746 0.71901 0.22574 0.0
H942 H 0.80704 0.7081 0.28013 0.0
H943 H 0.85551 0.68651 0.29508 0.0
H944 H 0.8671 0.69709 0.24178 0.0
H945 H 0.8693 0.66038 0.25766 0.0
H946 H 0.80355 0.60228 0.14959 0.0
H947 H 0.8363 0.6173 1.09132 0.0
H948 H 0.85835 0.69167 0.16673 0.0
C949 C 0.81413 0.64285 0.3082 0.0
C950 C 0.80987 0.61456 0.32134 0.0
C951 C 0.79942 0.5947 0.29071 0.0
C952 C 0.7958 0.60235 0.24645 0.0
C953 C 0.80311 0.62978 0.23344 0.0
C954 C 0.81186 0.6499 0.26374 0.0
C955 C 0.82619 0.67471 0.24143 0.0
C956 C 0.80808 0.70147 0.2452 0.0
C957 C 0.85627 0.67988 0.26005 0.0
C958 C 0.82684 0.66414 0.19455 0.0
C959 C 0.81217 0.63888 0.19016 0.0
C960 C 0.81424 0.62246 0.15221 0.0
C961 C 0.83301 0.63103 0.11934 0.0
C962 C 0.84964 0.65564 0.12487 0.0
C963 C 0.84518 0.67323 0.16147 0.0
H964 H 0.47386 0.35234 0.67861 0.0
H965 H 0.48761 0.27693 0.60106 0.0
H966 H 0.47008 0.24767 0.66289 0.0
H967 H 0.49438 0.32248 0.7854 0.0
H968 H 0.46757 0.34071 0.8166 0.0
H969 H 0.48049 0.35573 0.76602 0.0
H970 H 0.42936 0.35764 0.73641 0.0
H971 H 0.41663 0.34222 0.78693 0.0
H972 H 0.40851 0.32571 0.73494 0.0
H973 H 0.45108 0.22449 0.73829 0.0
H974 H 0.43512 0.21158 0.81272 0.0
H975 H 0.43139 0.30039 0.8471 0.0
C976 C 0.47337 0.32964 0.67432 0.0
C977 C 0.48299 0.31769 0.63276 0.0
C978 C 0.48106 0.28755 0.63086 0.0
C979 C 0.47082 0.27042 0.6666 0.0
C980 C 0.46205 0.2827 0.70663 0.0
C981 C 0.46308 0.31184 0.71054 0.0
C982 C 0.4521 0.31956 0.75739 0.0
C983 C 0.47502 0.33562 0.78294 0.0
C984 C 0.42505 0.33736 0.7537 0.0
C985 C 0.44561 0.29053 0.77981 0.0
C986 C 0.4513 0.26958 0.74933 0.0
C987 C 0.44693 0.24116 0.76175 0.0
C988 C 0.43756 0.23383 0.80519 0.0
C989 C 0.43148 0.2542 0.83857 0.0
C990 C 0.43548 0.28343 0.82415 0.0
H991 H 0.48084 0.72291 0.61366 0.0
H992 H 0.55829 0.68383 0.56861 0.0
H993 H 0.54836 0.70126 0.49343 0.0
H994 H 0.43832 0.70961 0.51367 0.0
H995 H 0.42017 0.74312 0.51389 0.0
H996 H 0.43292 0.72806 0.56482 0.0
H997 H 0.4612 0.77362 0.58078 0.0
H998 H 0.44834 0.78879 0.52997 0.0
H999 H 0.48581 0.7866 0.5404 0.0
H1000 H 0.52932 0.72251 0.41853 0.0
H1001 H 0.50507 0.74452 0.35577 0.0
H1002 H 0.43833 0.77314 0.4423 0.0
C1003 C 0.49592 0.71792 0.58818 0.0
C1004 C 0.5209 0.70119 0.59954 0.0
C1005 C 0.53924 0.69606 0.56324 0.0
C1006 C 0.53361 0.7061 0.51945 0.0
C1007 C 0.5092 0.72213 0.50973 0.0
C1008 C 0.49061 0.72821 0.54332 0.0
C1009 C 0.46598 0.74623 0.52321 0.0
C1010 C 0.43765 0.73085 0.52928 0.0
C1011 C 0.46527 0.77555 0.5449 0.0
C1012 C 0.47323 0.74899 0.47325 0.0
C1013 C 0.49847 0.73477 0.46679 0.0
C1014 C 0.50966 0.7336 0.42412 0.0
C1015 C 0.4953 0.74651 0.38777 0.0
C1016 C 0.46911 0.76151 0.39136 0.0
C1017 C 0.45824 0.76264 0.43625 0.0
H1018 H 0.11824 0.67424 0.34685 0.0
H1019 H 0.10647 0.7635 0.31973 0.0
H1020 H 0.08955 0.7517 0.24519 0.0
H1021 H 0.14055 0.65564 0.23187 0.0
H1022 H 0.12298 0.6218 0.23089 0.0
H1023 H 0.13517 0.63641 0.28243 0.0
H1024 H 0.08485 0.63234 0.31429 0.0
H1025 H 0.07291 0.61725 0.26295 0.0
H1026 H 0.05573 0.64816 0.28466 0.0
H1027 H 0.06615 0.72999 0.17283 0.0
H1028 H 0.04951 0.70241 1.10906 0.0
H1029 H 0.07737 0.62528 0.17316 0.0
C1030 C 0.11205 0.69154 0.32554 0.0
C1031 C 0.11414 0.72055 0.34213 0.0
C1032 C 0.1055 0.74139 0.3107 0.0
C1033 C 0.09533 0.73471 0.26735 0.0
C1034 C 0.09254 0.70649 0.25309 0.0
C1035 C 0.10125 0.68509 0.28109 0.0
C1036 C 0.09704 0.6565 0.25585 0.0
C1037 C 0.12564 0.64169 0.24993 0.0
C1038 C 0.07643 0.63739 0.28099 0.0
C1039 C 0.08422 0.66501 0.21006 0.0
C1040 C 0.08158 0.69418 0.20992 0.0
C1041 C 0.06894 0.70726 0.17306 0.0
C1042 C 0.05926 0.691 0.13608 0.0
C1043 C 0.06197 0.66091 0.13293 0.0
C1044 C 0.07503 0.64803 0.17188 0.0
H1045 H 0.09038 0.23696 0.9365 0.0
H1046 H 0.02328 0.25804 0.84491 0.0
H1047 H 0.99512 0.27732 0.90625 0.0
H1048 H 0.04676 0.22101 1.03794 0.0
H1049 H 0.0719 0.23837 1.0731 0.0
H1050 H 0.08341 0.2231 1.02184 0.0
H1051 H 0.1042 0.27326 1.00401 0.0
H1052 H 0.08955 0.28758 1.05393 0.0
H1053 H 0.08054 0.3031 1.00152 0.0
H1054 H 0.97133 0.29496 0.98371 0.0
H1055 H 0.95907 0.31044 1.05932 0.0
H1056 H 0.04147 0.2827 1.1044 0.0
C1057 C 0.06954 0.24511 0.92902 0.0
C1058 C 0.05949 0.24439 0.88339 0.0
C1059 C 0.03225 0.25707 0.87774 0.0
C1060 C 0.01572 0.26841 0.91332 0.0
C1061 C 0.02596 0.26853 0.95708 0.0
C1062 C 0.05269 0.25752 0.96489 0.0
C1063 C 0.05967 0.26263 1.01464 0.0
C1064 C 0.06587 0.23457 1.0382 0.0
C1065 C 0.08501 0.28283 1.01879 0.0
C1066 C 0.03253 0.27667 1.03396 0.0
C1067 C 0.0133 0.27998 0.99993 0.0
C1068 C 0.98675 0.29229 1.00981 0.0
C1069 C 0.97972 0.30126 1.05391 0.0
C1070 C -0.00138 0.29855 1.09054 0.0
C1071 C 0.02572 0.28572 1.07888 0.0
H1072 H 0.91883 0.23663 0.26149 0.0
H1073 H 0.95258 0.26853 0.1406 0.0
H1074 H 0.9304 0.23 1.10064 0.0
H1075 H 0.93431 0.19462 0.28998 0.0
H1076 H 0.91711 0.16095 0.29139 0.0
H1077 H 0.89621 0.19255 0.29074 0.0
H1078 H 0.86959 0.16997 0.22513 0.0
H1079 H 0.8933 0.14013 0.22596 0.0
H1080 H 0.88818 0.15994 0.1761 0.0
H1081 H 0.97087 0.19881 1.11067 0.0
H1082 H 0.01401 0.19155 0.15258 0.0
H1083 H 0.9655 0.15872 0.26135 0.0
C1084 C 0.92175 0.23437 0.22637 0.0
C1085 C 0.94093 0.25246 0.20507 0.0
C1086 C 0.94124 0.25276 0.15887 0.0
C1087 C 0.92763 0.23122 0.13594 0.0
C1088 C 0.92125 0.2069 0.16016 0.0
C1089 C 0.91225 0.20987 0.20406 0.0
C1090 C 0.91454 0.18142 0.22664 0.0
C1091 C 0.91571 0.18259 0.27766 0.0
C1092 C 0.89001 0.16176 0.21248 0.0
C1093 C 0.94161 0.17246 0.20482 0.0
C1094 C 0.94313 0.18493 0.16312 0.0
C1095 C 0.96942 0.18894 0.14278 0.0
C1096 C 0.99405 0.18571 0.16739 0.0
C1097 C 0.99294 0.1746 0.21021 0.0
C1098 C 0.96662 0.1669 0.2281 0.0
H1099 H 0.01519 0.6216 0.4872 0.0
H1100 H 0.97481 0.66113 0.37694 0.0
H1101 H 0.01656 0.65435 0.33259 0.0
H1102 H 0.05447 0.64136 0.51891 0.0
H1103 H 0.09011 0.62898 0.51632 0.0
H1104 H 0.06174 0.60419 0.51053 0.0
H1105 H 0.08748 0.58853 0.43953 0.0
H1106 H 0.11325 0.61642 0.44536 0.0
H1107 H 0.09322 0.61321 0.39535 0.0
H1108 H 0.04297 0.69686 0.35287 0.0
H1109 H 0.05526 0.7369 0.40014 0.0
H1110 H 0.0877 0.67907 0.49831 0.0
C1111 C 0.01585 0.62781 0.45294 0.0
C1112 C 0.99438 0.6454 0.43689 0.0
C1113 C 0.99281 0.6508 0.39154 0.0
C1114 C 0.01647 0.64605 0.3658 0.0
C1115 C 0.04178 0.64112 0.38835 0.0
C1116 C 0.04122 0.62623 0.42867 0.0
C1117 C 0.06928 0.63041 0.45185 0.0
C1118 C 0.0687 0.62604 0.50239 0.0
C1119 C 0.09209 0.61104 0.43174 0.0
C1120 C 0.07395 0.6605 0.43743 0.0
C1121 C 0.06039 0.66528 0.39737 0.0
C1122 C 0.05435 0.69296 0.38329 0.0
C1123 C 0.06036 0.71568 0.4111 0.0
C1124 C 0.07275 0.71093 0.45269 0.0
C1125 C 0.07939 0.68314 0.46569 0.0
H1126 H 0.6079 0.73386 0.74085 0.0
H1127 H 0.54833 0.72683 0.84727 0.0
H1128 H 0.58029 0.75249 0.895 0.0
H1129 H 0.66617 0.78214 0.83272 0.0
H1130 H 0.67407 0.80346 0.7853 0.0
H1131 H 0.67678 0.76546 0.78239 0.0
H1132 H 0.64552 0.7656 0.71505 0.0
H1133 H 0.64191 0.80341 0.7178 0.0
H1134 H 0.61094 0.78132 0.7157 0.0
H1135 H 0.58485 0.80233 0.90434 0.0
H1136 H 0.54806 0.82851 0.86439 0.0
H1137 H 0.59697 0.82441 0.74615 0.0
C1138 C 0.60199 0.73813 0.77455 0.0
C1139 C 0.57499 0.73035 0.78948 0.0
C1140 C 0.56827 0.73409 0.834 0.0
C1141 C 0.58702 0.74807 0.86172 0.0
C1142 C 0.60935 0.76319 0.84269 0.0
C1143 C 0.61877 0.75617 0.80029 0.0
C1144 C 0.63328 0.78151 0.78033 0.0
C1145 C 0.66433 0.78325 0.79626 0.0
C1146 C 0.63275 0.78304 0.72924 0.0
C1147 C 0.6156 0.80357 0.80311 0.0
C1148 C 0.60927 0.79411 0.84573 0.0
C1149 C 0.58799 0.80745 0.86996 0.0
C1150 C 0.5664 0.82086 0.84679 0.0
C1151 C 0.56846 0.82402 0.801 0.0
C1152 C 0.59438 0.81865 0.78041 0.0
H1153 H 0.52791 0.35141 0.99328 0.0
H1154 H 0.57093 0.31526 0.88361 0.0
H1155 H 0.53045 0.3239 0.83663 0.0
H1156 H 0.48853 0.33073 1.0215 0.0
H1157 H 0.45257 0.342 1.01713 0.0
H1158 H 0.48027 0.36779 1.01438 0.0
H1159 H 0.45567 0.38436 0.94229 0.0
H1160 H 0.43055 0.35573 0.94572 0.0
H1161 H 0.45122 0.36038 0.89688 0.0
H1162 H 0.50413 0.2801 0.85207 0.0
H1163 H 0.49193 0.23813 0.89564 0.0
H1164 H 0.45859 0.29229 0.99718 0.0
C1165 C 0.528 0.34612 0.95866 0.0
C1166 C 0.54974 0.32884 0.94308 0.0
C1167 C 0.55253 0.32504 0.89758 0.0
C1168 C 0.52957 0.33082 0.87048 0.0
C1169 C 0.50367 0.33463 0.89151 0.0
C1170 C 0.50315 0.34829 0.93284 0.0
C1171 C 0.4748 0.34275 0.95397 0.0
C1172 C 0.47416 0.34595 1.00474 0.0
C1173 C 0.45177 0.36189 0.9334 0.0
C1174 C 0.47143 0.31293 0.93766 0.0
C1175 C 0.48558 0.30974 0.89799 0.0
C1176 C 0.49236 0.28266 0.8822 0.0
C1177 C 0.48647 0.25889 0.90797 0.0
C1178 C 0.47398 0.26211 0.9496 0.0
C1179 C 0.46684 0.28936 0.96439 0.0
H1180 H 0.09769 0.75485 0.96522 0.0
H1181 H 0.02291 0.74994 0.88389 0.0
H1182 H 0.05069 0.72892 0.82493 0.0
H1183 H 0.14626 0.72474 0.84306 0.0
H1184 H 0.17028 0.70914 0.88207 0.0
H1185 H 0.16169 0.74624 0.88535 0.0
H1186 H 0.1498 0.73999 0.96463 0.0
H1187 H 0.15671 0.70256 0.96255 0.0
H1188 H 0.12355 0.71544 0.98298 0.0
H1189 H 0.06448 0.67948 0.81724 0.0
H1190 H 0.03827 0.66188 0.87931 0.0
H1191 H 0.11149 0.67159 0.96181 0.0
C1192 C 0.08747 0.74897 0.93466 0.0
C1193 C 0.05783 0.75117 0.93052 0.0
C1194 C 0.04526 0.74623 0.88922 0.0
C1195 C 0.06138 0.7354 0.85487 0.0
C1196 C 0.08917 0.72647 0.86385 0.0
C1197 C 0.1035 0.7368 0.90084 0.0
C1198 C 0.12845 0.71795 0.91002 0.0
C1199 C 0.153 0.72488 0.87817 0.0
C1200 C 0.14015 0.71898 0.95788 0.0
C1201 C 0.11396 0.69069 0.89678 0.0
C1202 C 0.09713 0.69641 0.85915 0.0
C1203 C 0.0752 0.67773 0.84872 0.0
C1204 C 0.05994 0.66755 0.88443 0.0
C1205 C 0.07214 0.66807 0.92668 0.0
C1206 C 0.10122 0.6741 0.93016 0.0
H1207 H 0.59005 0.81744 0.28364 0.0
H1208 H 0.58415 0.80544 0.14364 0.0
H1209 H 0.57285 0.85533 0.1336 0.0
H1210 H 0.55398 0.83629 0.32517 0.0
H1211 H 0.54906 0.87102 0.34783 0.0
H1212 H 0.58412 0.85721 0.34034 0.0
H1213 H 0.59791 0.90084 0.29777 0.0
H1214 H 0.56289 0.91499 0.30538 0.0
H1215 H 0.57773 0.91295 0.25123 0.0
H1216 H 0.5245 0.86949 0.14315 0.0
H1217 H 0.49497 0.82994 0.16529 0.0
H1218 H 0.51013 0.85071 0.30105 0.0
C1219 C 0.58581 0.82592 0.2512 0.0
C1220 C 0.58423 0.80743 0.21509 0.0
C1221 C 0.5823 0.81887 0.17237 0.0
C1222 C 0.57742 0.84758 0.16644 0.0
C1223 C 0.57069 0.86375 0.20345 0.0
C1224 C 0.57952 0.85487 0.24534 0.0
C1225 C 0.56367 0.87176 0.27911 0.0
C1226 C 0.56256 0.85816 0.32571 0.0
C1227 C 0.57627 0.90187 0.28344 0.0
C1228 C 0.536 0.87282 0.25396 0.0
C1229 C 0.54185 0.87491 0.20853 0.0
C1230 C 0.52149 0.86567 0.17795 0.0
C1231 C 0.50486 0.84271 0.19038 0.0
C1232 C 0.5027 0.83573 0.23507 0.0
C1233 C 0.51406 0.85448 0.26647 0.0
H1234 H 0.59838 0.22373 0.45992 0.0
H1235 H 0.53998 0.19788 0.35973 0.0
H1236 H 0.55867 0.23377 0.30976 0.0
H1237 H 0.59695 0.26767 0.49055 0.0
H1238 H 0.61972 0.29753 0.48195 0.0
H1239 H 0.63329 0.26235 0.47544 0.0
H1240 H 0.65148 0.27995 0.40235 0.0
H1241 H 0.63349 0.31354 0.40527 0.0
H1242 H 0.628 0.29043 0.35906 0.0
H1243 H 0.53149 0.27578 0.32763 0.0
H1244 H 0.49846 0.29374 0.38273 0.0
H1245 H 0.5676 0.30561 0.47367 0.0
C1246 C 0.5901 0.22644 0.42692 0.0
C1247 C 0.5655 0.21188 0.41509 0.0
C1248 C 0.55675 0.21167 0.37095 0.0
C1249 C 0.56812 0.23147 0.34211 0.0
C1250 C 0.58344 0.25375 0.36095 0.0
C1251 C 0.59929 0.24878 0.39974 0.0
C1252 C 0.60669 0.27687 0.42026 0.0
C1253 C 0.61446 0.27597 0.46999 0.0
C1254 C 0.63126 0.29105 0.39518 0.0
C1255 C 0.57906 0.29111 0.40927 0.0
C1256 C 0.56846 0.28035 0.36967 0.0
C1257 C 0.53976 0.28371 0.35854 0.0
C1258 C 0.5208 0.29274 0.3906 0.0
C1259 C 0.53065 0.29967 0.43289 0.0
C1260 C 0.5599 0.29979 0.44143 0.0
H1261 H 0.04305 0.2285 0.63223 0.0
H1262 H 0.04017 0.1525 0.71019 0.0
H1263 H 0.0142 0.12867 0.65162 0.0
H1264 H 0.00297 0.25162 0.61347 0.0
H1265 H 0.98259 0.25289 0.56356 0.0
H1266 H 0.02039 0.24933 0.56151 0.0
H1267 H 0.97973 0.21247 0.51209 0.0
H1268 H 0.99241 0.17799 0.5257 0.0
H1269 H 0.0172 0.20566 0.51345 0.0
H1270 H 0.96246 0.13136 0.64176 0.0
H1271 H 0.94647 0.15674 0.70647 0.0
H1272 H 0.96339 0.23578 0.64154 0.0
C1273 C 0.03641 0.20677 0.63632 0.0
C1274 C 0.04028 0.1934 0.67734 0.0
C1275 C 0.03477 0.16425 0.6807 0.0
C1276 C 0.02099 0.15029 0.6464 0.0
C1277 C 0.00888 0.16668 0.6127 0.0
C1278 C 0.01995 0.19364 0.60351 0.0
C1279 C -0.00216 0.21017 0.5787 0.0
C1280 C 0.00111 0.24286 0.57974 0.0
C1281 C 0.99674 0.20092 0.52979 0.0
C1282 C 0.97299 0.19824 0.60377 0.0
C1283 C 0.97777 0.1691 0.60982 0.0
C1284 C 0.96148 0.15423 0.64047 0.0
C1285 C 0.95311 0.16879 0.67801 0.0
C1286 C 0.95622 0.19837 0.67982 0.0
C1287 C 0.9624 0.21304 0.64062 0.0
H1288 H 0.04635 0.00335 0.2134 0.0
H1289 H 0.06013 0.0599 1.10315 0.0
H1290 H 0.05814 0.01922 1.05223 0.0
H1291 H 0.09144 0.94636 0.16829 0.0
H1292 H 0.06988 0.91819 0.18996 0.0
H1293 H 0.07143 0.95177 0.21792 0.0
H1294 H 0.01698 0.95574 0.21305 0.0
H1295 H 0.01528 0.92227 0.18486 0.0
H1296 H -0.00023 0.9533 0.16009 0.0
H1297 H 0.05043 0.97143 1.01108 0.0
H1298 H 0.04584 0.92175 0.986 0.0
H1299 H 0.04348 0.8939 0.12183 0.0
C1300 C 0.04913 0.00721 0.17856 0.0
C1301 C 0.05333 0.03551 0.16284 0.0
C1302 C 0.05705 0.03893 0.11673 0.0
C1303 C 0.05575 0.01573 1.08723 0.0
C1304 C 0.05138 0.98836 1.1036 0.0
C1305 C 0.04885 0.9839 0.14843 0.0
C1306 C 0.04603 0.95202 0.15744 0.0
C1307 C 0.07117 0.94146 0.18507 0.0
C1308 C 0.01784 0.94545 0.18022 0.0
C1309 C 0.04673 0.93935 1.11091 0.0
C1310 C 0.04934 0.96082 1.08027 0.0
C1311 C 0.04889 0.95459 1.03512 0.0
C1312 C 0.04615 0.92608 1.02098 0.0
C1313 C 0.0446 0.90331 1.05141 0.0
C1314 C 0.04498 0.91044 1.09726 0.0
H1315 H 0.2221 0.79703 0.3991 0.0
H1316 H 0.23322 0.71299 0.45441 0.0
H1317 H 0.27887 0.70879 0.41709 0.0
H1318 H 0.25547 0.78282 0.29285 0.0
H1319 H 0.2732 0.81651 0.28928 0.0
H1320 H 0.24062 0.81344 0.31946 0.0
H1321 H 0.265 0.83387 0.38849 0.0
H1322 H 0.29775 0.83703 0.35873 0.0
H1323 H 0.29656 0.81714 0.40938 0.0
H1324 H 0.32387 0.71208 0.3713 0.0
H1325 H 0.36589 0.72491 0.32751 0.0
H1326 H 0.32985 0.80789 0.30351 0.0
C1327 C 0.23413 0.77776 0.40355 0.0
C1328 C 0.22323 0.75534 0.43048 0.0
C1329 C 0.24034 0.7307 0.43472 0.0
C1330 C 0.2666 0.72796 0.41321 0.0
C1331 C 0.27656 0.75007 0.38701 0.0
C1332 C 0.26104 0.77471 0.3824 0.0
C1333 C 0.27754 0.79553 0.35323 0.0
C1334 C 0.2607 0.80249 0.31121 0.0
C1335 C 0.28461 0.82253 0.37896 0.0
C1336 C 0.30454 0.77876 0.34244 0.0
C1337 C 0.30319 0.75239 0.36189 0.0
C1338 C 0.32509 0.73279 0.3562 0.0
C1339 C 0.34906 0.74024 0.33084 0.0
C1340 C 0.35182 0.7674 0.31134 0.0
C1341 C 0.32883 0.78684 0.31751 0.0
H1342 H 0.49765 0.05992 0.52191 0.0
H1343 H 0.46214 0.11413 0.62241 0.0
H1344 H 0.4559 0.0722 0.67071 0.0
H1345 H 0.45272 -0.00231 0.5423 0.0
H1346 H 0.48079 0.97272 0.53272 0.0
H1347 H 0.48103 0.00654 0.50522 0.0
H1348 H 0.53088 0.01684 0.53651 0.0
H1349 H 0.53085 0.98302 0.56393 0.0
H1350 H 0.53681 0.0149 0.5951 0.0
H1351 H 0.45606 0.02365 0.7106 0.0
H1352 H 0.46296 0.97493 0.73803 0.0
H1353 H 0.49808 0.9506 0.61232 0.0
C1354 C 0.48814 0.0631 0.55385 0.0
C1355 C 0.48014 0.09096 0.5677 0.0
C1356 C 0.46827 0.09351 0.61032 0.0
C1357 C 0.46469 0.06958 0.63816 0.0
C1358 C 0.47303 0.04267 0.62355 0.0
C1359 C 0.48451 0.03934 0.58222 0.0
C1360 C 0.49273 0.00826 0.575 0.0
C1361 C 0.47581 0.99555 0.53651 0.0
C1362 C 0.52471 0.00561 0.56717 0.0
C1363 C 0.48429 0.99448 0.61874 0.0
C1364 C 0.47289 0.01483 0.64618 0.0
C1365 C 0.46464 0.00771 0.68892 0.0
C1366 C 0.46851 0.97968 0.70426 0.0
C1367 C 0.48029 0.95814 0.67741 0.0
C1368 C 0.48803 0.96591 0.63357 0.0
H1369 H 0.31125 0.17519 0.92158 0.0
H1370 H 0.32827 0.26533 0.91889 0.0
H1371 H 0.28391 0.27328 0.8783 0.0
H1372 H 0.27563 0.16903 0.81424 0.0
H1373 H 0.2483 0.1454 0.83238 0.0
H1374 H 0.28209 0.14538 0.86 0.0
H1375 H 0.25789 0.15521 0.93455 0.0
H1376 H 0.22393 0.15454 0.90712 0.0
H1377 H 0.23421 0.18483 0.93929 0.0
H1378 H 0.23769 0.2727 0.83688 0.0
H1379 H 0.19165 0.2641 0.80187 0.0
H1380 H 0.19913 0.17452 0.83167 0.0
C1381 C 0.30573 0.19656 0.9122 0.0
C1382 C 0.32406 0.21966 0.92393 0.0
C1383 C 0.31517 0.24719 0.91113 0.0
C1384 C 0.28979 0.25197 0.88763 0.0
C1385 C 0.27229 0.22915 0.87697 0.0
C1386 C 0.27956 0.20193 0.8892 0.0
C1387 C 0.25539 0.18173 0.87554 0.0
C1388 C 0.26604 0.15901 0.84367 0.0
C1389 C 0.24206 0.16824 0.91654 0.0
C1390 C 0.23417 0.20169 0.85248 0.0
C1391 C 0.24464 0.22896 0.85403 0.0
C1392 C 0.22938 0.25138 0.83567 0.0
C1393 C 0.20288 0.24616 0.81558 0.0
C1394 C 0.19086 0.2186 0.81323 0.0
C1395 C 0.20721 0.19595 0.83221 0.0
H1396 H 0.69883 0.24123 0.90753 0.0
H1397 H 0.72113 0.31049 0.99468 0.0
H1398 H 0.76796 0.3135 0.96068 0.0
H1399 H 0.76995 0.20835 0.90759 0.0
H1400 H 0.76846 0.1985 0.85034 0.0
H1401 H 0.73633 0.2011 0.88173 0.0
H1402 H 0.71616 0.23642 0.82463 0.0
H1403 H 0.74831 0.23404 0.79325 0.0
H1404 H 0.73582 0.26802 0.81166 0.0
H1405 H 0.81334 0.31085 0.9152 0.0
H1406 H 0.85347 0.3001 0.86607 0.0
H1407 H 0.80484 0.23171 0.80797 0.0
C1408 C 0.7137 0.2567 0.92006 0.0
C1409 C 0.70553 0.27551 0.95468 0.0
C1410 C 0.7261 0.29563 0.96877 0.0
C1411 C 0.75311 0.29765 0.94937 0.0
C1412 C 0.7603 0.27931 0.91528 0.0
C1413 C 0.74133 0.25895 0.90093 0.0
C1414 C 0.7549 0.24192 0.86355 0.0
C1415 C 0.75756 0.2106 0.87658 0.0
C1416 C 0.73777 0.2453 0.82074 0.0
C1417 C 0.7842 0.25582 0.8594 0.0
C1418 C 0.78669 0.27753 0.88946 0.0
C1419 C 0.81151 0.29375 0.89172 0.0
C1420 C 0.83439 0.28753 0.86332 0.0
C1421 C 0.83299 0.26504 0.83248 0.0
C1422 C 0.80711 0.24914 0.83078 0.0
H1423 H 0.81409 0.68981 0.47381 0.0
H1424 H 0.86736 0.74191 0.39068 0.0
H1425 H 0.8267 0.75104 0.34174 0.0
H1426 H 0.76455 0.65973 0.38907 0.0
H1427 H 0.73493 0.66385 0.42495 0.0
H1428 H 0.76969 0.65944 0.44838 0.0
H1429 H 0.75849 0.70657 0.49124 0.0
H1430 H 0.72554 0.71065 0.46176 0.0
H1431 H 0.7517 0.73834 0.46001 0.0
H1432 H 0.78143 0.75307 0.29843 0.0
H1433 H 0.73465 0.75025 0.26523 0.0
H1434 H 0.70476 0.70089 0.37657 0.0
C1435 C 0.81715 0.70339 0.44552 0.0
C1436 C 0.84469 0.71526 0.43688 0.0
C1437 C 0.84708 0.73282 0.39915 0.0
C1438 C 0.82388 0.73799 0.37068 0.0
C1439 C 0.79743 0.72613 0.37999 0.0
C1440 C 0.79359 0.70953 0.41688 0.0
C1441 C 0.76191 0.70128 0.4199 0.0
C1442 C 0.75766 0.66912 0.42071 0.0
C1443 C 0.74862 0.71502 0.46066 0.0
C1444 C 0.74929 0.71397 0.37739 0.0
C1445 C 0.77043 0.72844 0.35552 0.0
C1446 C 0.7649 0.74167 0.31544 0.0
C1447 C 0.73773 0.73974 0.29656 0.0
C1448 C 0.71495 0.72513 0.31723 0.0
C1449 C 0.72113 0.71218 0.35904 0.0
H1450 H 0.56579 0.55419 0.69893 0.0
H1451 H 0.49683 0.59892 0.63486 0.0
H1452 H 0.48704 0.55709 0.58926 0.0
H1453 H 0.59014 0.51064 0.60424 0.0
H1454 H 0.59583 0.48008 0.63812 0.0
H1455 H 0.59844 0.51489 0.66186 0.0
H1456 H 0.56139 0.49792 0.7197 0.0
H1457 H 0.55808 0.46426 0.69231 0.0
H1458 H 0.52725 0.48588 0.70086 0.0
H1459 H 0.48427 0.51062 0.54831 0.0
H1460 H 0.48709 0.46252 0.51817 0.0
H1461 H 0.55621 0.4435 0.60795 0.0
C1462 C 0.54867 0.55524 0.67522 0.0
C1463 C 0.53215 0.58067 0.6711 0.0
C1464 C 0.50986 0.58033 0.63955 0.0
C1465 C 0.50412 0.55643 0.61307 0.0
C1466 C 0.52041 0.53196 0.61807 0.0
C1467 C 0.54217 0.53092 0.64859 0.0
C1468 C 0.55511 0.50093 0.64839 0.0
C1469 C 0.58677 0.50176 0.63755 0.0
C1470 C 0.55017 0.48639 0.69297 0.0
C1471 C 0.53823 0.48599 0.61162 0.0
C1472 C 0.51817 0.50446 0.59511 0.0
C1473 C 0.49987 0.49607 0.5613 0.0
C1474 C 0.50173 0.46836 0.54412 0.0
C1475 C 0.52189 0.4484 0.55988 0.0
C1476 C 0.54056 0.4578 0.59439 0.0
H1477 H 0.03201 0.5219 1.06469 0.0
H1478 H 0.95327 0.56346 1.09802 0.0
H1479 H 0.93986 0.52156 0.14287 0.0
H1480 H 0.00405 0.45007 1.05631 0.0
H1481 H 0.03511 0.43398 1.07984 0.0
H1482 H 0.03797 0.46688 1.0501 0.0
H1483 H 0.06214 0.48965 0.11781 0.0
H1484 H 0.05896 0.4569 0.14782 0.0
H1485 H 0.04448 0.48901 0.17025 0.0
H1486 H 0.9361 0.47491 0.18788 0.0
H1487 H 0.94013 0.42833 0.22333 0.0
H1488 H 0.02064 0.41471 0.15919 0.0
C1489 C 0.01178 0.52236 1.08117 0.0
C1490 C 0.99376 0.54669 1.07726 0.0
C1491 C 0.96758 0.54563 1.09982 0.0
C1492 C 0.95984 0.52173 0.12568 0.0
C1493 C 0.97828 0.49849 0.12908 0.0
C1494 C 0.00367 0.49857 1.10699 0.0
C1495 C 0.01977 0.47091 0.11596 0.0
C1496 C 0.0245 0.4545 1.073 0.0
C1497 C 0.04801 0.47699 0.13934 0.0
C1498 C -0.00048 0.455 0.1465 0.0
C1499 C 0.97583 0.47152 0.15382 0.0
C1500 C 0.95449 0.46193 0.18171 0.0
C1501 C 0.95702 0.43504 0.20186 0.0
C1502 C 0.98054 0.41689 0.1944 0.0
C1503 C 0.00228 0.42754 0.16623 0.0
H1504 H 0.05209 0.10697 0.42273 0.0
H1505 H 0.07598 0.18242 0.3509 0.0
H1506 H 0.0896 0.20525 0.42068 0.0
H1507 H 0.026 0.14183 0.52446 0.0
H1508 H 0.04131 0.11716 0.56298 0.0
H1509 H 0.03226 0.10585 0.50799 0.0
H1510 H 0.08306 0.08887 0.49578 0.0
H1511 H 0.09235 0.0998 0.55087 0.0
H1512 H 0.11209 0.11298 0.50456 0.0
H1513 H 0.10122 0.22271 0.50395 0.0
H1514 H 0.1107 0.23017 0.58298 0.0
H1515 H 0.08349 0.14437 0.6095 0.0
C1516 C 0.05993 0.12844 0.42113 0.0
C1517 C 0.06199 0.14225 0.37766 0.0
C1518 C 0.07338 0.17032 0.3809 0.0
C1519 C 0.0814 0.18388 0.42165 0.0
C1520 C 0.0792 0.16998 0.46273 0.0
C1521 C 0.06897 0.1425 0.46278 0.0
C1522 C 0.07032 0.13212 0.5121 0.0
C1523 C 0.04071 0.12371 0.52785 0.0
C1524 C 0.09064 0.10692 0.51607 0.0
C1525 C 0.08196 0.15791 0.53963 0.0
C1526 C 0.08689 0.17951 0.50984 0.0
C1527 C 0.0974 0.20543 0.52656 0.0
C1528 C 0.103 0.2096 0.57292 0.0
C1529 C 0.09886 0.18841 0.60608 0.0
C1530 C 0.08785 0.16177 0.58739 0.0
H1531 H 0.07309 0.78516 0.62943 0.0
H1532 H 0.15792 0.75506 0.65572 0.0
H1533 H 0.15166 0.76617 0.73457 0.0
H1534 H 0.06984 0.84199 0.71308 0.0
H1535 H 0.03418 0.83491 0.73064 0.0
H1536 H 0.04498 0.82583 0.67562 0.0
H1537 H 0.02934 0.77432 0.68848 0.0
H1538 H 0.01842 0.78333 0.74349 0.0
H1539 H 0.04326 0.75502 0.735 0.0
H1540 H 0.13679 0.78397 0.81654 0.0
H1541 H 0.11476 0.79903 0.88588 0.0
H1542 H 0.03594 0.81353 0.81629 0.0
C1543 C 0.09065 0.78089 0.6514 0.0
C1544 C 0.11681 0.76908 0.63281 0.0
C1545 C 0.13789 0.76392 0.66585 0.0
C1546 C 0.1344 0.77041 0.712 0.0
C1547 C 0.10896 0.7819 0.72864 0.0
C1548 C 0.08704 0.78653 0.69912 0.0
C1549 C 0.06118 0.79739 0.72684 0.0
C1550 C 0.05198 0.82677 0.71056 0.0
C1551 C 0.03658 0.77627 0.7232 0.0
C1552 C 0.072 0.79902 0.77584 0.0
C1553 C 0.0999 0.79011 0.77556 0.0
C1554 C 0.11487 0.79052 0.81595 0.0
C1555 C 0.10179 0.79944 0.85644 0.0
C1556 C 0.07278 0.80788 0.86023 0.0
C1557 C 0.05799 0.80752 0.81744 0.0
H1558 H 0.46427 0.86172 0.11181 0.0
H1559 H 0.43675 0.77597 1.08497 0.0
H1560 H 0.44846 0.7826 1.00692 0.0
H1561 H 0.4399 0.89316 1.00428 0.0
H1562 H 0.46995 0.91616 0.99725 0.0
H1563 H 0.45902 0.90583 1.05179 0.0
H1564 H 0.50891 0.88714 1.06768 0.0
H1565 H 0.52012 0.89688 1.01305 0.0
H1566 H 0.52419 0.86093 1.03195 0.0
H1567 H 0.46323 0.79817 0.92569 0.0
H1568 H 0.47903 0.81929 0.85638 0.0
H1569 H 0.50081 0.89652 0.92551 0.0
C1570 C 0.46034 0.84416 1.08983 0.0
C1571 C 0.44859 0.81774 1.10823 0.0
C1572 C 0.44505 0.79636 1.07521 0.0
C1573 C 0.45191 0.80002 1.02937 0.0
C1574 C 0.46324 0.82559 1.013 0.0
C1575 C 0.4676 0.84747 1.04245 0.0
C1576 C 0.48074 0.87259 1.01501 0.0
C1577 C 0.46126 0.8985 1.01724 0.0
C1578 C 0.51025 0.87984 1.03301 0.0
C1579 C 0.4829 0.86168 0.96607 0.0
C1580 C 0.47239 0.83433 0.96644 0.0
C1581 C 0.47141 0.81955 0.92619 0.0
C1582 C 0.48073 0.83221 0.88566 0.0
C1583 C 0.49203 0.8603 0.88163 0.0
C1584 C 0.493 0.87502 0.92443 0.0
H1585 H 0.46738 0.20957 0.35328 0.0
H1586 H 0.507 0.12818 0.33293 0.0
H1587 H 0.49363 0.13067 0.25398 0.0
H1588 H 0.4084 0.20088 0.27353 0.0
H1589 H 0.40908 0.2368 0.25358 0.0
H1590 H 0.42119 0.22886 0.30863 0.0
H1591 H 0.46905 0.25239 0.29192 0.0
H1592 H 0.45707 0.26046 0.23684 0.0
H1593 H 0.48923 0.24069 0.24523 0.0
H1594 H 0.47463 0.14231 0.17034 0.0
H1595 H 0.45492 0.16029 1.10057 0.0
H1596 H 0.42735 0.23624 0.16733 0.0
C1597 C 0.47343 0.19201 0.33258 0.0
C1598 C 0.48876 0.16817 0.35282 0.0
C1599 C 0.49565 0.14668 0.32149 0.0
C1600 C 0.48797 0.14805 0.27529 0.0
C1601 C 0.47316 0.17145 0.25707 0.0
C1602 C 0.46613 0.19329 0.28517 0.0
C1603 C 0.45056 0.21638 0.25668 0.0
C1604 C 0.42052 0.22103 0.27417 0.0
C1605 C 0.46746 0.24414 0.25775 0.0
C1606 C 0.44942 0.20428 0.20853 0.0
C1607 C 0.46274 0.17817 0.20995 0.0
C1608 C 0.46436 0.16276 0.17019 0.0
C1609 C 0.4527 0.1735 0.12941 0.0
C1610 C 0.43865 0.20027 0.12476 0.0
C1611 C 0.43743 0.21571 0.16679 0.0
H1612 H 0.92039 0.86452 0.63582 0.0
H1613 H 0.01181 0.86537 0.62998 0.0
H1614 H 0.0133 0.90045 0.6897 0.0
H1615 H 0.91168 0.94226 0.68124 0.0
H1616 H 0.88298 0.93028 0.71534 0.0
H1617 H 0.88807 0.91509 0.66153 0.0
H1618 H 0.88982 0.86496 0.69614 0.0
H1619 H 0.88447 0.87994 0.74934 0.0
H1620 H 0.91489 0.85784 0.73973 0.0
H1621 H 0.00651 0.9213 0.76138 0.0
H1622 H 0.99331 0.92033 0.83877 0.0
H1623 H 0.9054 0.90905 0.80208 0.0
C1624 C 0.94062 0.873 0.6462 0.0
C1625 C 0.96595 0.86232 0.62855 0.0
C1626 C 0.99212 0.87359 0.64272 0.0
C1627 C 0.99311 0.89371 0.67648 0.0
C1628 C 0.96775 0.90265 0.69524 0.0
C1629 C 0.94186 0.89289 0.68012 0.0
C1630 C 0.91827 0.90056 0.71142 0.0
C1631 C 0.89913 0.92342 0.69117 0.0
C1632 C 0.90092 0.87426 0.72497 0.0
C1633 C 0.93539 0.91247 0.74937 0.0
C1634 C 0.96367 0.9151 0.73829 0.0
C1635 C 0.98437 0.92024 0.77008 0.0
C1636 C 0.97655 0.91982 0.81439 0.0
C1637 C 0.94825 0.914 0.82655 0.0
C1638 C 0.92718 0.91326 0.79352 0.0
H1639 H 0.82565 0.18569 0.52317 0.0
H1640 H 0.79988 0.10275 0.56825 0.0
H1641 H 0.79586 0.08676 0.49171 0.0
H1642 H 0.79112 0.18105 0.40312 0.0
H1643 H 0.82195 0.19863 0.38165 0.0
H1644 H 0.80832 0.20831 0.43489 0.0
H1645 H 0.85749 0.19916 0.46923 0.0
H1646 H 0.87115 0.18919 0.41689 0.0
H1647 H 0.87385 0.16495 0.46264 0.0
H1648 H 0.81196 0.07431 0.41876 0.0
H1649 H 0.84669 0.06682 0.35983 0.0
H1650 H 0.8667 0.15609 0.36023 0.0
C1651 C 0.81789 0.16457 0.51655 0.0
C1652 C 0.81345 0.14537 0.55143 0.0
C1653 C 0.80317 0.11795 0.54206 0.0
C1654 C 0.80082 0.10868 0.49844 0.0
C1655 C 0.80876 0.12709 0.46467 0.0
C1656 C 0.81658 0.15483 0.47322 0.0
C1657 C 0.83115 0.16809 0.43394 0.0
C1658 C 0.81197 0.19033 0.4121 0.0
C1659 C 0.86011 0.18101 0.44646 0.0
C1660 C 0.83411 0.14237 0.40482 0.0
C1661 C 0.81943 0.11943 0.42167 0.0
C1662 C 0.8227 0.09229 0.40442 0.0
C1663 C 0.84255 0.08816 0.37101 0.0
C1664 C 0.85921 0.11097 0.35597 0.0
C1665 C 0.85385 0.13852 0.3713 0.0
H1666 H 0.56294 0.11559 0.15473 0.0
H1667 H 0.65182 0.10782 0.12319 0.0
H1668 H 0.65775 0.07299 0.18316 0.0
H1669 H 0.57149 0.11934 0.2636 0.0
H1670 H 0.53996 0.10008 0.27805 0.0
H1671 H 0.54186 0.11799 0.22614 0.0
H1672 H 0.53003 0.07059 0.18678 0.0
H1673 H 0.52898 0.05256 0.23911 0.0
H1674 H 0.55206 0.04006 0.19631 0.0
H1675 H 0.65655 0.04892 0.25581 0.0
H1676 H 0.64855 0.03956 0.3348 0.0
H1677 H 0.56033 0.06192 0.31828 0.0
C1678 C 0.58345 0.1059 0.15976 0.0
C1679 C 0.60689 0.11427 0.13448 0.0
C1680 C 0.63348 0.10136 0.14191 0.0
C1681 C 0.63701 0.08148 0.17579 0.0
C1682 C 0.61363 0.07441 0.20134 0.0
C1683 C 0.58725 0.08606 0.19332 0.0
C1684 C 0.56661 0.07869 0.22931 0.0
C1685 C 0.5543 0.10561 0.25053 0.0
C1686 C 0.54303 0.05931 0.21181 0.0
C1687 C 0.58599 0.06293 0.26054 0.0
C1688 C 0.61285 0.05992 0.24338 0.0
C1689 C 0.63542 0.05028 0.2691 0.0
C1690 C 0.63073 0.04504 0.31395 0.0
C1691 C 0.60374 0.04968 0.33248 0.0
C1692 C 0.58091 0.05715 0.30477 0.0
H1693 H 0.67623 0.90024 0.86699 0.0
H1694 H 0.66058 0.98636 0.90853 0.0
H1695 H 0.6855 0.97681 0.97865 0.0
H1696 H 0.65774 0.87018 0.95851 0.0
H1697 H 0.68327 0.8419 0.95997 0.0
H1698 H 0.67344 0.85743 0.90833 0.0
H1699 H 0.72582 0.86923 0.89195 0.0
H1700 H 0.73602 0.85326 0.94359 0.0
H1701 H 0.74634 0.88912 0.93136 0.0
H1702 H 0.70042 0.95525 1.04907 0.0
H1703 H 0.70309 0.92363 0.11355 0.0
H1704 H 0.70915 0.85113 1.02698 0.0
C1705 C 0.67951 0.9175 0.88983 0.0
C1706 C 0.66693 0.94411 0.8823 0.0
C1707 C 0.67036 0.9659 0.9137 0.0
C1708 C 0.68463 0.96069 0.95343 0.0
C1709 C 0.69543 0.93365 0.96102 0.0
C1710 C 0.69334 0.91246 0.92976 0.0
C1711 C 0.70164 0.884 0.94864 0.0
C1712 C 0.67759 0.86214 0.94358 0.0
C1713 C 0.7291 0.87328 0.92764 0.0
C1714 C 0.70639 0.89204 0.99623 0.0
C1715 C 0.70372 0.92089 1.00247 0.0
C1716 C 0.70347 0.93276 1.04446 0.0
C1717 C 0.705 0.91464 1.08094 0.0
C1718 C 0.70634 0.88498 1.07509 0.0
C1719 C 0.70824 0.87376 1.03224 0.0
H1720 H 0.61159 0.68989 0.88083 0.0
H1721 H 0.52673 0.6601 0.90725 0.0
H1722 H 0.53369 0.67104 0.98599 0.0
H1723 H 0.64439 0.66563 0.9868 0.0
H1724 H 0.66673 0.69618 0.99411 0.0
H1725 H 0.65617 0.68538 0.93951 0.0
H1726 H 0.63581 0.73498 0.92477 0.0
H1727 H 0.64655 0.74579 0.97921 0.0
H1728 H 0.61022 0.74956 0.9623 0.0
H1729 H 0.55037 0.68532 1.06861 0.0
H1730 H 0.57213 0.70173 0.13757 0.0
H1731 H 0.6469 0.72716 1.06575 0.0
C1732 C 0.59428 0.68535 0.90288 0.0
C1733 C 0.56807 0.67323 0.88431 0.0
C1734 C 0.54695 0.66877 0.91727 0.0
C1735 C 0.55083 0.67522 0.96342 0.0
C1736 C 0.57626 0.68713 0.97991 0.0
C1737 C 0.59771 0.69242 0.95023 0.0
C1738 C 0.62278 0.70607 0.97729 0.0
C1739 C 0.6491 0.68721 0.97422 0.0
C1740 C 0.62923 0.73587 0.9598 0.0
C1741 C 0.61232 0.70769 1.02634 0.0
C1742 C 0.58535 0.69621 1.02659 0.0
C1743 C 0.57137 0.69439 1.06746 0.0
C1744 C 0.58437 0.70406 1.10777 0.0
C1745 C 0.61195 0.71667 1.11081 0.0
C1746 C 0.62585 0.7183 1.06754 0.0
H1747 H 0.58596 0.35814 0.35515 0.0
H1748 H 0.49553 0.34879 0.33758 0.0
H1749 H 0.50331 0.33373 0.2609 0.0
H1750 H 0.59689 0.38746 0.23953 0.0
H1751 H 0.63103 0.37122 0.23248 0.0
H1752 H 0.61898 0.3805 0.28682 0.0
H1753 H 0.62734 0.32974 0.31145 0.0
H1754 H 0.63829 0.31924 0.25718 0.0
H1755 H 0.60957 0.30092 0.28369 0.0
H1756 H 0.52186 0.31486 0.18054 0.0
H1757 H 0.54643 0.30264 0.11148 0.0
H1758 H 0.62578 0.32877 0.17015 0.0
C1759 C 0.56748 0.35327 0.33544 0.0
C1760 C 0.53943 0.35518 0.35613 0.0
C1761 C 0.5171 0.34821 0.32586 0.0
C1762 C 0.52148 0.33919 0.28094 0.0
C1763 C 0.5488 0.33735 0.26234 0.0
C1764 C 0.57153 0.34503 0.28867 0.0
C1765 C 0.59861 0.34291 0.25893 0.0
C1766 C 0.61221 0.37226 0.25418 0.0
C1767 C 0.61972 0.32192 0.27904 0.0
C1768 C 0.58802 0.33206 0.21278 0.0
C1769 C 0.55901 0.32877 0.21602 0.0
C1770 C 0.54448 0.31802 0.17872 0.0
C1771 C 0.55902 0.31087 0.13844 0.0
C1772 C 0.58879 0.31441 0.13178 0.0
C1773 C 0.60315 0.32557 0.17124 0.0
H1774 H 0.9192 0.27762 0.3785 0.0
H1775 H 0.98509 0.33927 0.4035 0.0
H1776 H 0.97911 0.3319 0.4834 0.0
H1777 H 0.87438 0.29233 0.47702 0.0
H1778 H 0.86642 0.25585 0.48919 0.0
H1779 H 0.87416 0.26646 0.43348 0.0
H1780 H 0.9127 0.22901 0.43053 0.0
H1781 H 0.90705 0.21871 0.48706 0.0
H1782 H 0.94154 0.22997 0.46931 0.0
H1783 H 0.96432 0.31948 0.56638 0.0
H1784 H 0.9481 0.3007 0.63695 0.0
H1785 H 0.89373 0.24136 0.56812 0.0
C1786 C 0.93237 0.28995 0.40048 0.0
C1787 C 0.95272 0.31007 0.38129 0.0
C1788 C 0.96926 0.32422 0.41414 0.0
C1789 C 0.96587 0.32004 0.46089 0.0
C1790 C 0.94599 0.30061 0.47812 0.0
C1791 C 0.92974 0.28528 0.44864 0.0
C1792 C 0.91118 0.26437 0.47694 0.0
C1793 C 0.87965 0.27008 0.46864 0.0
C1794 C 0.91851 0.23367 0.46526 0.0
C1795 C 0.91898 0.27061 0.52648 0.0
C1796 C 0.93895 0.29207 0.52563 0.0
C1797 C 0.94888 0.30258 0.56624 0.0
C1798 C 0.93909 0.29141 0.60753 0.0
C1799 C 0.91898 0.2688 0.61204 0.0
C1800 C 0.90902 0.25838 0.56894 0.0
H1801 H 0.98288 0.6695 0.85379 0.0
H1802 H 0.01014 0.58282 0.83757 0.0
H1803 H 0.99647 0.58538 0.75865 0.0
H1804 H 0.92378 0.67022 0.77495 0.0
H1805 H 0.93107 0.70486 0.75285 0.0
H1806 H 0.94181 0.69616 0.80828 0.0
H1807 H 0.99315 0.70979 0.7901 0.0
H1808 H 0.98257 0.71867 0.73465 0.0
H1809 H 0.01047 0.6934 0.74404 0.0
H1810 H 0.97595 0.59743 0.67521 0.0
H1811 H 0.95833 0.61718 0.6049 0.0
H1812 H 0.94868 0.69888 0.66715 0.0
C1813 C 0.98606 0.65078 0.834 0.0
C1814 C -0.00226 0.6254 0.85532 0.0
C1815 C 0.00146 0.60248 0.82518 0.0
C1816 C 0.99354 0.60386 0.77906 0.0
C1817 C 0.98217 0.62881 0.75979 0.0
C1818 C 0.9791 0.65219 0.78664 0.0
C1819 C 0.96798 0.67709 0.75704 0.0
C1820 C 0.93947 0.68774 0.77433 0.0
C1821 C 0.98982 0.70119 0.75644 0.0
C1822 C 0.96436 0.66421 0.70981 0.0
C1823 C 0.97248 0.63608 0.71253 0.0
C1824 C 0.97002 0.61952 0.67393 0.0
C1825 C 0.9596 0.63122 0.63295 0.0
C1826 C 0.95147 0.66021 0.62706 0.0
C1827 C 0.95439 0.67673 0.66776 0.0
H1828 H 0.44402 0.43676 0.2933 0.0
H1829 H 0.35405 0.43905 0.31689 0.0
H1830 H 0.34569 0.45158 0.23926 0.0
H1831 H 0.44343 0.48737 0.18648 0.0
H1832 H 0.46998 0.46484 0.16268 0.0
H1833 H 0.47056 0.47213 0.22096 0.0
H1834 H 0.47049 0.41835 0.23707 0.0
H1835 H 0.46986 0.41106 0.1796 0.0
H1836 H 0.4426 0.39664 0.21442 0.0
H1837 H 0.34506 0.44444 0.16089 0.0
H1838 H 0.35139 0.41494 1.09532 0.0
H1839 H 0.4416 0.41348 0.11786 0.0
C1840 C 0.42272 0.44125 0.28214 0.0
C1841 C 0.39966 0.43665 0.31037 0.0
C1842 C 0.372 0.44264 0.2956 0.0
C1843 C 0.36715 0.44993 0.25148 0.0
C1844 C 0.39019 0.45122 0.22285 0.0
C1845 C 0.41768 0.44756 0.23793 0.0
C1846 C 0.43787 0.44211 0.20037 0.0
C1847 C 0.45655 0.46817 0.19213 0.0
C1848 C 0.45617 0.41545 0.20836 0.0
C1849 C 0.41689 0.43821 0.16316 0.0
C1850 C 0.3898 0.44586 0.17587 0.0
C1851 C 0.3662 0.4393 0.15007 0.0
C1852 C 0.36995 0.42248 0.11274 0.0
C1853 C 0.39703 0.41204 1.10219 0.0
C1854 C 0.42086 0.42172 0.12555 0.0
H1855 H 0.49622 0.59814 1.11102 0.0
H1856 H 0.40929 0.60044 0.15408 0.0
H1857 H 0.394 0.57981 1.08453 0.0
H1858 H 0.4886 0.6297 1.02682 0.0
H1859 H 0.51114 0.6117 0.98825 0.0
H1860 H 0.51801 0.6085 1.04572 0.0
H1861 H 0.51475 0.55399 1.04076 0.0
H1862 H 0.50831 0.55701 0.98235 0.0
H1863 H 0.484 0.53759 1.0165 0.0
H1864 H 0.38554 0.58475 1.00692 0.0
H1865 H 0.38648 0.60747 0.9338 0.0
H1866 H 0.47779 0.60304 0.9341 0.0
C1867 C 0.47422 0.59254 1.10642 0.0
C1868 C 0.45396 0.60166 0.13715 0.0
C1869 C 0.42535 0.59381 0.13104 0.0
C1870 C 0.41638 0.58209 1.09114 0.0
C1871 C 0.43626 0.57817 1.05797 0.0
C1872 C 0.465 0.58198 1.06577 0.0
C1873 C 0.48121 0.58375 1.02291 0.0
C1874 C 0.50079 0.60998 1.02087 0.0
C1875 C 0.49804 0.55645 1.01517 0.0
C1876 C 0.4568 0.58588 0.99075 0.0
C1877 C 0.43112 0.58091 1.01104 0.0
C1878 C 0.4055 0.58747 0.99018 0.0
C1879 C 0.40614 0.60061 0.94879 0.0
C1880 C 0.43225 0.60727 0.92911 0.0
C1881 C 0.45762 0.59822 0.94907 0.0
H1882 H 0.07823 0.57561 0.61608 0.0
H1883 H 0.16358 0.54516 0.59837 0.0
H1884 H 0.15637 0.50987 0.65665 0.0
H1885 H 0.07934 0.58227 0.71685 0.0
H1886 H 0.0446 0.5703 0.7324 0.0
H1887 H 0.05046 0.58266 0.67775 0.0
H1888 H 0.0322 0.53542 0.64579 0.0
H1889 H 0.02572 0.52279 0.70089 0.0
H1890 H 0.04739 0.50243 0.66399 0.0
H1891 H 0.14858 0.49454 0.73138 0.0
H1892 H 0.1405 0.50061 0.81064 0.0
H1893 H 0.05822 0.53647 0.78307 0.0
C1894 C 0.09474 0.5604 0.62322 0.0
C1895 C 0.1214 0.56307 0.60327 0.0
C1896 C 0.14285 0.54324 0.61309 0.0
C1897 C 0.13886 0.523 0.64615 0.0
C1898 C 0.11314 0.52258 0.66848 0.0
C1899 C 0.09098 0.54022 0.6564 0.0
C1900 C 0.06803 0.54027 0.69095 0.0
C1901 C 0.06025 0.57065 0.70532 0.0
C1902 C 0.04179 0.52426 0.67441 0.0
C1903 C 0.08279 0.52384 0.72718 0.0
C1904 C 0.10814 0.5125 0.71288 0.0
C1905 C 0.12832 0.5022 0.74263 0.0
C1906 C 0.12359 0.50569 0.78779 0.0
C1907 C 0.09887 0.51934 0.80255 0.0
C1908 C 0.07729 0.52602 0.77212 0.0
H1909 H 0.06056 0.40258 0.41256 0.0
H1910 H 0.14788 0.40323 0.37134 0.0
H1911 H 0.16239 0.41897 0.44537 0.0
H1912 H 0.06872 0.45919 0.50952 0.0
H1913 H 0.04445 0.43831 0.54161 0.0
H1914 H 0.03947 0.44159 0.4829 0.0
H1915 H 0.03919 0.38704 0.47609 0.0
H1916 H 0.04429 0.38365 0.534 0.0
H1917 H 0.06894 0.36713 0.49694 0.0
H1918 H 0.169 0.41717 0.52424 0.0
H1919 H 0.16747 0.39426 0.59689 0.0
H1920 H 0.07615 0.39213 0.59033 0.0
C1921 C 0.08251 0.40787 0.41854 0.0
C1922 C 0.1031 0.40204 0.38646 0.0
C1923 C 0.13181 0.40784 0.39556 0.0
C1924 C 0.14014 0.41704 0.43748 0.0
C1925 C 0.11951 0.42019 0.4699 0.0
C1926 C 0.09106 0.41617 0.46063 0.0
C1927 C 0.07391 0.41329 0.5024 0.0
C1928 C 0.05557 0.43968 0.50952 0.0
C1929 C 0.05561 0.38616 0.50231 0.0
C1930 C 0.09754 0.41197 0.53609 0.0
C1931 C 0.12348 0.41798 0.51714 0.0
C1932 C 0.1488 0.41324 0.53969 0.0
C1933 C 0.14779 0.40001 0.58087 0.0
C1934 C 0.12164 0.39127 0.59869 0.0
C1935 C 0.09628 0.3992 0.57759 0.0
loop_
_geom_bond_atom_site_label_1
_geom_bond_atom_site_label_2
_geom_bond_distance
_geom_bond_site_symmetry_2
_ccdc_geom_bond_type
Eu0 C9 2.828 . S
Eu0 O11 2.392 . S
Eu0 O13 2.418 . S
Eu0 O18 2.373 . S
Eu0 O21 2.488 . S
Eu0 O22 2.471 . S
Eu0 O23 2.349 . S
Eu1 O10 2.360 1_655 S
Eu1 O14 2.495 . S
Eu1 O15 2.475 . S
Eu1 O16 2.339 1_655 S
Eu1 O19 2.394 . S
Eu1 O20 2.414 1_655 S
Eu1 C30 2.834 . S
C2 O20 1.244 . S
C2 O23 1.265 . S
C3 C4 1.379 . S
C3 C7 1.373 . S
C3 C9 1.505 1_556 S
C4 C3 1.379 . S
C4 C6 1.369 . S
C4 H32 0.930 . S
C5 C7 1.383 . S
C5 C8 1.382 . S
C5 H33 0.930 . S
C6 C4 1.369 . S
C6 C8 1.392 . S
C6 H34 0.930 . S
C7 C3 1.373 . S
C7 C5 1.383 . S
C7 H35 0.931 . S
C8 C5 1.382 . S
C8 C6 1.392 . S
C9 Eu0 2.828 . S
C9 C3 1.505 1_554 S
C9 O21 1.249 . S
C9 O22 1.244 . S
O10 Eu1 2.360 1_455 S
O10 C12 1.258 . S
O11 Eu0 2.392 . S
O11 C12 1.242 . S
C12 O10 1.258 . S
C12 O11 1.242 . S
O13 Eu0 2.418 . S
O13 C17 1.244 . S
O14 Eu1 2.495 . S
O14 C30 1.249 . S
O15 Eu1 2.475 . S
O15 C30 1.244 . S
O16 Eu1 2.339 1_455 S
O16 C17 1.265 . S
C17 O13 1.244 . S
C17 O16 1.265 . S
O18 Eu0 2.373 . S
O18 C31 1.258 . S
O19 Eu1 2.394 . S
O19 C31 1.242 1_655 S
O20 Eu1 2.414 1_455 S
O20 C2 1.244 . S
O21 Eu0 2.488 . S
O21 C9 1.249 . S
O22 Eu0 2.471 . S
O22 C9 1.244 . S
O23 Eu0 2.349 . S
O23 C2 1.265 . S
C24 C25 1.379 . S
C24 C28 1.373 . S
C24 C30 1.505 . S
C25 C24 1.379 . S
C25 C27 1.369 . S
C25 H36 0.930 . S
C26 C28 1.383 . S
C26 C29 1.382 . S
C26 H37 0.930 . S
C27 C25 1.369 . S
C27 C29 1.392 . S
C27 H38 0.930 . S
C28 C24 1.373 . S
C28 C26 1.383 . S
C28 H39 0.931 . S
C29 C26 1.382 . S
C29 C27 1.392 . S
C30 Eu1 2.834 . S
C30 O14 1.249 . S
C30 O15 1.244 . S
C30 C24 1.505 . S
C31 O18 1.258 . S
C31 O19 1.242 1_455 S
H32 C4 0.930 . S
H33 C5 0.930 . S
H34 C6 0.930 . S
H35 C7 0.931 . S
H36 C25 0.930 . S
H37 C26 0.930 . S
H38 C27 0.930 . S
H39 C28 0.931 . S
Eu40 C49 2.828 . S
Eu40 O51 2.392 . S
Eu40 O53 2.418 . S
Eu40 O58 2.373 . S
Eu40 O61 2.488 . S
Eu40 O62 2.471 . S
Eu40 O63 2.349 . S
Eu41 O50 2.373 . S
Eu41 O54 2.488 . S
Eu41 O55 2.471 . S
Eu41 O56 2.349 . S
Eu41 O59 2.392 . S
Eu41 O60 2.418 . S
Eu41 C70 2.828 . S
C42 O60 1.244 . S
C42 O63 1.265 . S
C43 C44 1.379 . S
C43 C47 1.373 . S
C43 C49 1.505 . S
C44 C43 1.379 . S
C44 C46 1.369 . S
C44 H72 0.930 . S
C45 C47 1.383 . S
C45 C48 1.382 . S
C45 H73 0.930 . S
C46 C44 1.369 . S
C46 C48 1.392 . S
C46 H74 0.930 . S
C47 C43 1.373 . S
C47 C45 1.383 . S
C47 H75 0.931 . S
C48 C45 1.382 . S
C48 C46 1.392 . S
C49 Eu40 2.828 . S
C49 C43 1.505 . S
C49 O61 1.249 . S
C49 O62 1.244 . S
O50 Eu41 2.373 . S
O50 C52 1.258 . S
O51 Eu40 2.392 . S
O51 C52 1.242 . S
C52 O50 1.258 . S
C52 O51 1.242 . S
O53 Eu40 2.418 . S
O53 C57 1.244 . S
O54 Eu41 2.488 . S
O54 C70 1.249 . S
O55 Eu41 2.471 . S
O55 C70 1.244 . S
O56 Eu41 2.349 . S
O56 C57 1.265 . S
C57 O53 1.244 . S
C57 O56 1.265 . S
O58 Eu40 2.373 . S
O58 C71 1.258 . S
O59 Eu41 2.392 . S
O59 C71 1.242 . S
O60 Eu41 2.418 . S
O60 C42 1.244 . S
O61 Eu40 2.488 . S
O61 C49 1.249 . S
O62 Eu40 2.471 . S
O62 C49 1.244 . S
O63 Eu40 2.349 . S
O63 C42 1.265 . S
C64 C65 1.379 . S
C64 C68 1.373 . S
C64 C70 1.505 . S
C65 C64 1.379 . S
C65 C67 1.369 . S
C65 H76 0.930 . S
C66 C68 1.383 . S
C66 C69 1.382 . S
C66 H77 0.930 . S
C67 C65 1.369 . S
C67 C69 1.392 . S
C67 H78 0.930 . S
C68 C64 1.373 . S
C68 C66 1.383 . S
C68 H79 0.931 . S
C69 C66 1.382 . S
C69 C67 1.392 . S
C70 Eu41 2.828 . S
C70 O54 1.249 . S
C70 O55 1.244 . S
C70 C64 1.505 . S
C71 O58 1.258 . S
C71 O59 1.242 . S
H72 C44 0.930 . S
H73 C45 0.930 . S
H74 C46 0.930 . S
H75 C47 0.931 . S
H76 C65 0.930 . S
H77 C66 0.930 . S
H78 C67 0.930 . S
H79 C68 0.931 . S
Eu80 C89 2.828 . S
Eu80 O91 2.392 . S
Eu80 O93 2.418 . S
Eu80 O98 2.373 . S
Eu80 O101 2.488 . S
Eu80 O102 2.471 . S
Eu80 O103 2.349 . S
Eu81 O90 2.373 . S
Eu81 O94 2.488 . S
Eu81 O95 2.471 . S
Eu81 O96 2.349 . S
Eu81 O99 2.392 . S
Eu81 O100 2.418 . S
Eu81 C110 2.828 . S
C82 O100 1.244 . S
C82 O103 1.265 . S
C83 C84 1.379 . S
C83 C87 1.373 . S
C83 C89 1.505 . S
C84 C83 1.379 . S
C84 C86 1.369 . S
C84 H112 0.930 . S
C85 C87 1.383 . S
C85 C88 1.382 . S
C85 H113 0.930 . S
C86 C84 1.369 . S
C86 C88 1.392 . S
C86 H114 0.930 . S
C87 C83 1.373 . S
C87 C85 1.383 . S
C87 H115 0.931 . S
C88 C85 1.382 . S
C88 C86 1.392 . S
C89 Eu80 2.828 . S
C89 C83 1.505 . S
C89 O101 1.249 . S
C89 O102 1.244 . S
O90 Eu81 2.373 . S
O90 C92 1.258 . S
O91 Eu80 2.392 . S
O91 C92 1.242 . S
C92 O90 1.258 . S
C92 O91 1.242 . S
O93 Eu80 2.418 . S
O93 C97 1.244 . S
O94 Eu81 2.488 . S
O94 C110 1.249 . S
O95 Eu81 2.471 . S
O95 C110 1.244 . S
O96 Eu81 2.349 . S
O96 C97 1.265 . S
C97 O93 1.244 . S
C97 O96 1.265 . S
O98 Eu80 2.373 . S
O98 C111 1.258 . S
O99 Eu81 2.392 . S
O99 C111 1.242 . S
O100 Eu81 2.418 . S
O100 C82 1.244 . S
O101 Eu80 2.488 . S
O101 C89 1.249 . S
O102 Eu80 2.471 . S
O102 C89 1.244 . S
O103 Eu80 2.349 . S
O103 C82 1.265 . S
C104 C105 1.379 . S
C104 C108 1.373 . S
C104 C110 1.505 . S
C105 C104 1.379 . S
C105 C107 1.369 . S
C105 H116 0.930 . S
C106 C108 1.383 . S
C106 C109 1.382 . S
C106 H117 0.930 . S
C107 C105 1.369 . S
C107 C109 1.392 . S
C107 H118 0.930 . S
C108 C104 1.373 . S
C108 C106 1.383 . S
C108 H119 0.931 . S
C109 C106 1.382 . S
C109 C107 1.392 . S
C110 Eu81 2.828 . S
C110 O94 1.249 . S
C110 O95 1.244 . S
C110 C104 1.505 . S
C111 O98 1.258 . S
C111 O99 1.242 . S
H112 C84 0.930 . S
H113 C85 0.930 . S
H114 C86 0.930 . S
H115 C87 0.931 . S
H116 C105 0.930 . S
H117 C106 0.930 . S
H118 C107 0.930 . S
H119 C108 0.931 . S
Eu120 C129 2.828 . S
Eu120 O131 2.392 . S
Eu120 O133 2.418 . S
Eu120 O138 2.373 . S
Eu120 O141 2.488 . S
Eu120 O142 2.471 . S
Eu120 O143 2.349 . S
Eu121 O130 2.373 . S
Eu121 O134 2.488 . S
Eu121 O135 2.471 . S
Eu121 O136 2.349 . S
Eu121 O139 2.392 . S
Eu121 O140 2.418 . S
Eu121 C150 2.828 . S
C122 O140 1.244 . S
C122 O143 1.265 . S
C123 C124 1.379 . S
C123 C127 1.373 . S
C123 C129 1.505 . S
C124 C123 1.379 . S
C124 C126 1.369 . S
C124 H152 0.930 . S
C125 C127 1.383 . S
C125 C128 1.382 . S
C125 H153 0.930 . S
C126 C124 1.369 . S
C126 C128 1.392 . S
C126 H154 0.930 . S
C127 C123 1.373 . S
C127 C125 1.383 . S
C127 H155 0.931 . S
C128 C125 1.382 . S
C128 C126 1.392 . S
C129 Eu120 2.828 . S
C129 C123 1.505 . S
C129 O141 1.249 . S
C129 O142 1.244 . S
O130 Eu121 2.373 . S
O130 C132 1.258 . S
O131 Eu120 2.392 . S
O131 C132 1.242 . S
C132 O130 1.258 . S
C132 O131 1.242 . S
O133 Eu120 2.418 . S
O133 C137 1.244 . S
O134 Eu121 2.488 . S
O134 C150 1.249 . S
O135 Eu121 2.471 . S
O135 C150 1.244 . S
O136 Eu121 2.349 . S
O136 C137 1.265 . S
C137 O133 1.244 . S
C137 O136 1.265 . S
O138 Eu120 2.373 . S
O138 C151 1.258 . S
O139 Eu121 2.392 . S
O139 C151 1.242 . S
O140 Eu121 2.418 . S
O140 C122 1.244 . S
O141 Eu120 2.488 . S
O141 C129 1.249 . S
O142 Eu120 2.471 . S
O142 C129 1.244 . S
O143 Eu120 2.349 . S
O143 C122 1.265 . S
C144 C145 1.379 1_556 S
C144 C148 1.373 1_556 S
C144 C150 1.505 . S
C145 C144 1.379 1_554 S
C145 C147 1.369 . S
C145 H156 0.930 . S
C146 C148 1.383 . S
C146 C149 1.382 . S
C146 H157 0.930 . S
C147 C145 1.369 . S
C147 C149 1.392 . S
C147 H158 0.930 . S
C148 C144 1.373 1_554 S
C148 C146 1.383 . S
C148 H159 0.931 1_554 S
C149 C146 1.382 . S
C149 C147 1.392 . S
C150 Eu121 2.828 . S
C150 O134 1.249 . S
C150 O135 1.244 . S
C150 C144 1.505 . S
C151 O138 1.258 . S
C151 O139 1.242 . S
H152 C124 0.930 . S
H153 C125 0.930 . S
H154 C126 0.930 . S
H155 C127 0.931 . S
H156 C145 0.930 . S
H157 C146 0.930 . S
H158 C147 0.930 . S
H159 C148 0.931 1_556 S
Eu160 C169 2.828 . S
Eu160 O171 2.392 . S
Eu160 O173 2.418 . S
Eu160 O178 2.373 . S
Eu160 O181 2.488 . S
Eu160 O182 2.471 . S
Eu160 O183 2.349 . S
Eu161 O170 2.360 1_655 S
Eu161 O174 2.495 . S
Eu161 O175 2.475 . S
Eu161 O176 2.339 1_655 S
Eu161 O179 2.394 . S
Eu161 O180 2.414 1_655 S
Eu161 C190 2.834 . S
C162 O180 1.244 . S
C162 O183 1.265 . S
C163 C164 1.379 . S
C163 C167 1.373 . S
C163 C169 1.505 1_554 S
C164 C163 1.379 . S
C164 C166 1.369 . S
C164 H192 0.930 . S
C165 C167 1.383 . S
C165 C168 1.382 . S
C165 H193 0.930 . S
C166 C164 1.369 . S
C166 C168 1.392 . S
C166 H194 0.930 . S
C167 C163 1.373 . S
C167 C165 1.383 . S
C167 H195 0.931 . S
C168 C165 1.382 . S
C168 C166 1.392 . S
C169 Eu160 2.828 . S
C169 C163 1.505 1_556 S
C169 O181 1.249 . S
C169 O182 1.244 . S
O170 Eu161 2.360 1_455 S
O170 C172 1.258 . S
O171 Eu160 2.392 . S
O171 C172 1.242 . S
C172 O170 1.258 . S
C172 O171 1.242 . S
O173 Eu160 2.418 . S
O173 C177 1.244 . S
O174 Eu161 2.495 . S
O174 C190 1.249 . S
O175 Eu161 2.475 . S
O175 C190 1.244 . S
O176 Eu161 2.339 1_455 S
O176 C177 1.265 . S
C177 O173 1.244 . S
C177 O176 1.265 . S
O178 Eu160 2.373 . S
O178 C191 1.258 . S
O179 Eu161 2.394 . S
O179 C191 1.242 1_655 S
O180 Eu161 2.414 1_455 S
O180 C162 1.244 . S
O181 Eu160 2.488 . S
O181 C169 1.249 . S
O182 Eu160 2.471 . S
O182 C169 1.244 . S
O183 Eu160 2.349 . S
O183 C162 1.265 . S
C184 C185 1.379 . S
C184 C188 1.373 . S
C184 C190 1.505 . S
C185 C184 1.379 . S
C185 C187 1.369 . S
C185 H196 0.930 . S
C186 C188 1.383 . S
C186 C189 1.382 . S
C186 H197 0.930 . S
C187 C185 1.369 . S
C187 C189 1.392 . S
C187 H198 0.930 . S
C188 C184 1.373 . S
C188 C186 1.383 . S
C188 H199 0.931 . S
C189 C186 1.382 . S
C189 C187 1.392 . S
C190 Eu161 2.834 . S
C190 O174 1.249 . S
C190 O175 1.244 . S
C190 C184 1.505 . S
C191 O178 1.258 . S
C191 O179 1.242 1_455 S
H192 C164 0.930 . S
H193 C165 0.930 . S
H194 C166 0.930 . S
H195 C167 0.931 . S
H196 C185 0.930 . S
H197 C186 0.930 . S
H198 C187 0.930 . S
H199 C188 0.931 . S
Eu200 C209 2.828 . S
Eu200 O211 2.392 . S
Eu200 O213 2.418 . S
Eu200 O218 2.373 . S
Eu200 O221 2.488 . S
Eu200 O222 2.471 . S
Eu200 O223 2.349 . S
Eu201 O210 2.373 . S
Eu201 O214 2.488 . S
Eu201 O215 2.471 . S
Eu201 O216 2.349 . S
Eu201 O219 2.392 . S
Eu201 O220 2.418 . S
Eu201 C230 2.828 . S
C202 O220 1.244 . S
C202 O223 1.265 . S
C203 C204 1.379 . S
C203 C207 1.373 . S
C203 C209 1.505 . S
C204 C203 1.379 . S
C204 C206 1.369 . S
C204 H232 0.930 . S
C205 C207 1.383 . S
C205 C208 1.382 . S
C205 H233 0.930 . S
C206 C204 1.369 . S
C206 C208 1.392 . S
C206 H234 0.930 . S
C207 C203 1.373 . S
C207 C205 1.383 . S
C207 H235 0.931 . S
C208 C205 1.382 . S
C208 C206 1.392 . S
C209 Eu200 2.828 . S
C209 C203 1.505 . S
C209 O221 1.249 . S
C209 O222 1.244 . S
O210 Eu201 2.373 . S
O210 C212 1.258 . S
O211 Eu200 2.392 . S
O211 C212 1.242 . S
C212 O210 1.258 . S
C212 O211 1.242 . S
O213 Eu200 2.418 . S
O213 C217 1.244 . S
O214 Eu201 2.488 . S
O214 C230 1.249 . S
O215 Eu201 2.471 . S
O215 C230 1.244 . S
O216 Eu201 2.349 . S
O216 C217 1.265 . S
C217 O213 1.244 . S
C217 O216 1.265 . S
O218 Eu200 2.373 . S
O218 C231 1.258 . S
O219 Eu201 2.392 . S
O219 C231 1.242 . S
O220 Eu201 2.418 . S
O220 C202 1.244 . S
O221 Eu200 2.488 . S
O221 C209 1.249 . S
O222 Eu200 2.471 . S
O222 C209 1.244 . S
O223 Eu200 2.349 . S
O223 C202 1.265 . S
C224 C225 1.379 1_554 S
C224 C228 1.373 1_554 S
C224 C230 1.505 . S
C225 C224 1.379 1_556 S
C225 C227 1.369 . S
C225 H236 0.930 . S
C226 C228 1.383 . S
C226 C229 1.382 . S
C226 H237 0.930 . S
C227 C225 1.369 . S
C227 C229 1.392 . S
C227 H238 0.930 . S
C228 C224 1.373 1_556 S
C228 C226 1.383 . S
C228 H239 0.931 1_556 S
C229 C226 1.382 . S
C229 C227 1.392 . S
C230 Eu201 2.828 . S
C230 O214 1.249 . S
C230 O215 1.244 . S
C230 C224 1.505 . S
C231 O218 1.258 . S
C231 O219 1.242 . S
H232 C204 0.930 . S
H233 C205 0.930 . S
H234 C206 0.930 . S
H235 C207 0.931 . S
H236 C225 0.930 . S
H237 C226 0.930 . S
H238 C227 0.930 . S
H239 C228 0.931 1_554 S
Eu240 C249 2.828 . S
Eu240 O251 2.392 . S
Eu240 O253 2.418 . S
Eu240 O258 2.373 . S
Eu240 O261 2.488 . S
Eu240 O262 2.471 . S
Eu240 O263 2.349 . S
Eu241 O250 2.373 . S
Eu241 O254 2.488 . S
Eu241 O255 2.471 . S
Eu241 O256 2.349 . S
Eu241 O259 2.392 . S
Eu241 O260 2.418 . S
Eu241 C270 2.828 . S
C242 O260 1.244 . S
C242 O263 1.265 . S
C243 C244 1.379 . S
C243 C247 1.373 . S
C243 C249 1.505 . S
C244 C243 1.379 . S
C244 C246 1.369 . S
C244 H272 0.930 . S
C245 C247 1.383 . S
C245 C248 1.382 . S
C245 H273 0.930 . S
C246 C244 1.369 . S
C246 C248 1.392 . S
C246 H274 0.930 . S
C247 C243 1.373 . S
C247 C245 1.383 . S
C247 H275 0.931 . S
C248 C245 1.382 . S
C248 C246 1.392 . S
C249 Eu240 2.828 . S
C249 C243 1.505 . S
C249 O261 1.249 . S
C249 O262 1.244 . S
O250 Eu241 2.373 . S
O250 C252 1.258 . S
O251 Eu240 2.392 . S
O251 C252 1.242 . S
C252 O250 1.258 . S
C252 O251 1.242 . S
O253 Eu240 2.418 . S
O253 C257 1.244 . S
O254 Eu241 2.488 . S
O254 C270 1.249 . S
O255 Eu241 2.471 . S
O255 C270 1.244 . S
O256 Eu241 2.349 . S
O256 C257 1.265 . S
C257 O253 1.244 . S
C257 O256 1.265 . S
O258 Eu240 2.373 . S
O258 C271 1.258 . S
O259 Eu241 2.392 . S
O259 C271 1.242 . S
O260 Eu241 2.418 . S
O260 C242 1.244 . S
O261 Eu240 2.488 . S
O261 C249 1.249 . S
O262 Eu240 2.471 . S
O262 C249 1.244 . S
O263 Eu240 2.349 . S
O263 C242 1.265 . S
C264 C265 1.379 . S
C264 C268 1.373 . S
C264 C270 1.505 . S
C265 C264 1.379 . S
C265 C267 1.369 . S
C265 H276 0.930 . S
C266 C268 1.383 . S
C266 C269 1.382 . S
C266 H277 0.930 . S
C267 C265 1.369 . S
C267 C269 1.392 . S
C267 H278 0.930 . S
C268 C264 1.373 . S
C268 C266 1.383 . S
C268 H279 0.931 . S
C269 C266 1.382 . S
C269 C267 1.392 . S
C270 Eu241 2.828 . S
C270 O254 1.249 . S
C270 O255 1.244 . S
C270 C264 1.505 . S
C271 O258 1.258 . S
C271 O259 1.242 . S
H272 C244 0.930 . S
H273 C245 0.930 . S
H274 C246 0.930 . S
H275 C247 0.931 . S
H276 C265 0.930 . S
H277 C266 0.930 . S
H278 C267 0.930 . S
H279 C268 0.931 . S
Eu280 C289 2.828 . S
Eu280 O291 2.392 . S
Eu280 O293 2.418 . S
Eu280 O298 2.373 . S
Eu280 O301 2.488 . S
Eu280 O302 2.471 . S
Eu280 O303 2.349 . S
Eu281 O290 2.373 . S
Eu281 O294 2.488 . S
Eu281 O295 2.471 . S
Eu281 O296 2.349 . S
Eu281 O299 2.392 . S
Eu281 O300 2.418 . S
Eu281 C310 2.828 . S
C282 O300 1.244 . S
C282 O303 1.265 . S
C283 C284 1.379 . S
C283 C287 1.373 . S
C283 C289 1.505 . S
C284 C283 1.379 . S
C284 C286 1.369 . S
C284 H312 0.930 . S
C285 C287 1.383 . S
C285 C288 1.382 . S
C285 H313 0.930 . S
C286 C284 1.369 . S
C286 C288 1.392 . S
C286 H314 0.930 . S
C287 C283 1.373 . S
C287 C285 1.383 . S
C287 H315 0.931 . S
C288 C285 1.382 . S
C288 C286 1.392 . S
C289 Eu280 2.828 . S
C289 C283 1.505 . S
C289 O301 1.249 . S
C289 O302 1.244 . S
O290 Eu281 2.373 . S
O290 C292 1.258 . S
O291 Eu280 2.392 . S
O291 C292 1.242 . S
C292 O290 1.258 . S
C292 O291 1.242 . S
O293 Eu280 2.418 . S
O293 C297 1.244 . S
O294 Eu281 2.488 . S
O294 C310 1.249 . S
O295 Eu281 2.471 . S
O295 C310 1.244 . S
O296 Eu281 2.349 . S
O296 C297 1.265 . S
C297 O293 1.244 . S
C297 O296 1.265 . S
O298 Eu280 2.373 . S
O298 C311 1.258 . S
O299 Eu281 2.392 . S
O299 C311 1.242 . S
O300 Eu281 2.418 . S
O300 C282 1.244 . S
O301 Eu280 2.488 . S
O301 C289 1.249 . S
O302 Eu280 2.471 . S
O302 C289 1.244 . S
O303 Eu280 2.349 . S
O303 C282 1.265 . S
C304 C305 1.379 . S
C304 C308 1.373 . S
C304 C310 1.505 . S
C305 C304 1.379 . S
C305 C307 1.369 . S
C305 H316 0.930 . S
C306 C308 1.383 . S
C306 C309 1.382 . S
C306 H317 0.930 . S
C307 C305 1.369 . S
C307 C309 1.392 . S
C307 H318 0.930 . S
C308 C304 1.373 . S
C308 C306 1.383 . S
C308 H319 0.931 . S
C309 C306 1.382 . S
C309 C307 1.392 . S
C310 Eu281 2.828 . S
C310 O294 1.249 . S
C310 O295 1.244 . S
C310 C304 1.505 . S
C311 O298 1.258 . S
C311 O299 1.242 . S
H312 C284 0.930 . S
H313 C285 0.930 . S
H314 C286 0.930 . S
H315 C287 0.931 . S
H316 C305 0.930 . S
H317 C306 0.930 . S
H318 C307 0.930 . S
H319 C308 0.931 . S
Eu320 C329 2.828 . S
Eu320 O331 2.392 . S
Eu320 O333 2.418 . S
Eu320 O338 2.373 . S
Eu320 O341 2.488 . S
Eu320 O342 2.471 . S
Eu320 O343 2.349 . S
Eu321 O330 2.373 . S
Eu321 O334 2.488 . S
Eu321 O335 2.471 . S
Eu321 O336 2.349 . S
Eu321 O339 2.392 . S
Eu321 O340 2.418 . S
Eu321 C350 2.828 . S
C322 O340 1.244 . S
C322 O343 1.265 . S
C323 C324 1.379 . S
C323 C327 1.373 . S
C323 C329 1.505 . S
C324 C323 1.379 . S
C324 C326 1.369 . S
C324 H352 0.930 . S
C325 C327 1.383 . S
C325 C328 1.382 . S
C325 H353 0.930 . S
C326 C324 1.369 . S
C326 C328 1.392 . S
C326 H354 0.930 . S
C327 C323 1.373 . S
C327 C325 1.383 . S
C327 H355 0.931 . S
C328 C325 1.382 . S
C328 C326 1.392 . S
C329 Eu320 2.828 . S
C329 C323 1.505 . S
C329 O341 1.249 . S
C329 O342 1.244 . S
O330 Eu321 2.373 . S
O330 C332 1.258 . S
O331 Eu320 2.392 . S
O331 C332 1.242 . S
C332 O330 1.258 . S
C332 O331 1.242 . S
O333 Eu320 2.418 . S
O333 C337 1.244 . S
O334 Eu321 2.488 . S
O334 C350 1.249 . S
O335 Eu321 2.471 . S
O335 C350 1.244 . S
O336 Eu321 2.349 . S
O336 C337 1.265 . S
C337 O333 1.244 . S
C337 O336 1.265 . S
O338 Eu320 2.373 . S
O338 C351 1.258 . S
O339 Eu321 2.392 . S
O339 C351 1.242 . S
O340 Eu321 2.418 . S
O340 C322 1.244 . S
O341 Eu320 2.488 . S
O341 C329 1.249 . S
O342 Eu320 2.471 . S
O342 C329 1.244 . S
O343 Eu320 2.349 . S
O343 C322 1.265 . S
C344 C345 1.379 . S
C344 C348 1.373 . S
C344 C350 1.505 . S
C345 C344 1.379 . S
C345 C347 1.369 . S
C345 H356 0.930 . S
C346 C348 1.383 . S
C346 C349 1.382 . S
C346 H357 0.930 . S
C347 C345 1.369 . S
C347 C349 1.392 . S
C347 H358 0.930 . S
C348 C344 1.373 . S
C348 C346 1.383 . S
C348 H359 0.931 . S
C349 C346 1.382 . S
C349 C347 1.392 . S
C350 Eu321 2.828 . S
C350 O334 1.249 . S
C350 O335 1.244 . S
C350 C344 1.505 . S
C351 O338 1.258 . S
C351 O339 1.242 . S
H352 C324 0.930 . S
H353 C325 0.930 . S
H354 C326 0.930 . S
H355 C327 0.931 . S
H356 C345 0.930 . S
H357 C346 0.930 . S
H358 C347 0.930 . S
H359 C348 0.931 . S
Eu360 C369 2.828 . S
Eu360 O371 2.392 . S
Eu360 O373 2.418 . S
Eu360 O378 2.373 . S
Eu360 O381 2.488 . S
Eu360 O382 2.471 . S
Eu360 O383 2.349 . S
Eu361 O370 2.373 . S
Eu361 O374 2.488 . S
Eu361 O375 2.471 . S
Eu361 O376 2.349 . S
Eu361 O379 2.392 . S
Eu361 O380 2.418 . S
Eu361 C390 2.828 . S
C362 O380 1.244 . S
C362 O383 1.265 . S
C363 C364 1.379 . S
C363 C367 1.373 . S
C363 C369 1.505 . S
C364 C363 1.379 . S
C364 C366 1.369 . S
C364 H392 0.930 . S
C365 C367 1.383 . S
C365 C368 1.382 . S
C365 H393 0.930 . S
C366 C364 1.369 . S
C366 C368 1.392 . S
C366 H394 0.930 . S
C367 C363 1.373 . S
C367 C365 1.383 . S
C367 H395 0.931 . S
C368 C365 1.382 . S
C368 C366 1.392 . S
C369 Eu360 2.828 . S
C369 C363 1.505 . S
C369 O381 1.249 . S
C369 O382 1.244 . S
O370 Eu361 2.373 . S
O370 C372 1.258 . S
O371 Eu360 2.392 . S
O371 C372 1.242 . S
C372 O370 1.258 . S
C372 O371 1.242 . S
O373 Eu360 2.418 . S
O373 C377 1.244 . S
O374 Eu361 2.488 . S
O374 C390 1.249 . S
O375 Eu361 2.471 . S
O375 C390 1.244 . S
O376 Eu361 2.349 . S
O376 C377 1.265 . S
C377 O373 1.244 . S
C377 O376 1.265 . S
O378 Eu360 2.373 . S
O378 C391 1.258 . S
O379 Eu361 2.392 . S
O379 C391 1.242 . S
O380 Eu361 2.418 . S
O380 C362 1.244 . S
O381 Eu360 2.488 . S
O381 C369 1.249 . S
O382 Eu360 2.471 . S
O382 C369 1.244 . S
O383 Eu360 2.349 . S
O383 C362 1.265 . S
C384 C385 1.379 1_554 S
C384 C388 1.373 1_554 S
C384 C390 1.505 . S
C385 C384 1.379 1_556 S
C385 C387 1.369 . S
C385 H396 0.930 . S
C386 C388 1.383 . S
C386 C389 1.382 . S
C386 H397 0.930 . S
C387 C385 1.369 . S
C387 C389 1.392 . S
C387 H398 0.930 . S
C388 C384 1.373 1_556 S
C388 C386 1.383 . S
C388 H399 0.931 1_556 S
C389 C386 1.382 . S
C389 C387 1.392 . S
C390 Eu361 2.828 . S
C390 O374 1.249 . S
C390 O375 1.244 . S
C390 C384 1.505 . S
C391 O378 1.258 . S
C391 O379 1.242 . S
H392 C364 0.930 . S
H393 C365 0.930 . S
H394 C366 0.930 . S
H395 C367 0.931 . S
H396 C385 0.930 . S
H397 C386 0.930 . S
H398 C387 0.930 . S
H399 C388 0.931 1_554 S
Eu400 C409 2.828 . S
Eu400 O411 2.392 . S
Eu400 O413 2.418 . S
Eu400 O418 2.373 . S
Eu400 O421 2.488 . S
Eu400 O422 2.471 . S
Eu400 O423 2.349 . S
Eu401 O410 2.373 . S
Eu401 O414 2.488 . S
Eu401 O415 2.471 . S
Eu401 O416 2.349 . S
Eu401 O419 2.392 . S
Eu401 O420 2.418 . S
Eu401 C430 2.828 . S
C402 O420 1.244 . S
C402 O423 1.265 . S
C403 C404 1.379 . S
C403 C407 1.373 . S
C403 C409 1.505 . S
C404 C403 1.379 . S
C404 C406 1.369 . S
C404 H432 0.930 . S
C405 C407 1.383 . S
C405 C408 1.382 . S
C405 H433 0.930 . S
C406 C404 1.369 . S
C406 C408 1.392 . S
C406 H434 0.930 . S
C407 C403 1.373 . S
C407 C405 1.383 . S
C407 H435 0.931 . S
C408 C405 1.382 . S
C408 C406 1.392 . S
C409 Eu400 2.828 . S
C409 C403 1.505 . S
C409 O421 1.249 . S
C409 O422 1.244 . S
O410 Eu401 2.373 . S
O410 C412 1.258 . S
O411 Eu400 2.392 . S
O411 C412 1.242 . S
C412 O410 1.258 . S
C412 O411 1.242 . S
O413 Eu400 2.418 . S
O413 C417 1.244 . S
O414 Eu401 2.488 . S
O414 C430 1.249 . S
O415 Eu401 2.471 . S
O415 C430 1.244 . S
O416 Eu401 2.349 . S
O416 C417 1.265 . S
C417 O413 1.244 . S
C417 O416 1.265 . S
O418 Eu400 2.373 . S
O418 C431 1.258 . S
O419 Eu401 2.392 . S
O419 C431 1.242 . S
O420 Eu401 2.418 . S
O420 C402 1.244 . S
O421 Eu400 2.488 . S
O421 C409 1.249 . S
O422 Eu400 2.471 . S
O422 C409 1.244 . S
O423 Eu400 2.349 . S
O423 C402 1.265 . S
C424 C425 1.379 1_556 S
C424 C428 1.373 1_556 S
C424 C430 1.505 . S
C425 C424 1.379 1_554 S
C425 C427 1.369 . S
C425 H436 0.930 . S
C426 C428 1.383 . S
C426 C429 1.382 . S
C426 H437 0.930 . S
C427 C425 1.369 . S
C427 C429 1.392 . S
C427 H438 0.930 . S
C428 C424 1.373 1_554 S
C428 C426 1.383 . S
C428 H439 0.931 1_554 S
C429 C426 1.382 . S
C429 C427 1.392 . S
C430 Eu401 2.828 . S
C430 O414 1.249 . S
C430 O415 1.244 . S
C430 C424 1.505 . S
C431 O418 1.258 . S
C431 O419 1.242 . S
H432 C404 0.930 . S
H433 C405 0.930 . S
H434 C406 0.930 . S
H435 C407 0.931 . S
H436 C425 0.930 . S
H437 C426 0.930 . S
H438 C427 0.930 . S
H439 C428 0.931 1_556 S
Eu440 C449 2.828 . S
Eu440 O451 2.392 . S
Eu440 O453 2.418 . S
Eu440 O458 2.373 . S
Eu440 O461 2.488 . S
Eu440 O462 2.471 . S
Eu440 O463 2.349 . S
Eu441 O450 2.373 . S
Eu441 O454 2.488 . S
Eu441 O455 2.471 . S
Eu441 O456 2.349 . S
Eu441 O459 2.392 . S
Eu441 O460 2.418 . S
Eu441 C470 2.828 . S
C442 O460 1.244 . S
C442 O463 1.265 . S
C443 C444 1.379 . S
C443 C447 1.373 . S
C443 C449 1.505 . S
C444 C443 1.379 . S
C444 C446 1.369 . S
C444 H472 0.930 . S
C445 C447 1.383 . S
C445 C448 1.382 . S
C445 H473 0.930 . S
C446 C444 1.369 . S
C446 C448 1.392 . S
C446 H474 0.930 . S
C447 C443 1.373 . S
C447 C445 1.383 . S
C447 H475 0.931 . S
C448 C445 1.382 . S
C448 C446 1.392 . S
C449 Eu440 2.828 . S
C449 C443 1.505 . S
C449 O461 1.249 . S
C449 O462 1.244 . S
O450 Eu441 2.373 . S
O450 C452 1.258 . S
O451 Eu440 2.392 . S
O451 C452 1.242 . S
C452 O450 1.258 . S
C452 O451 1.242 . S
O453 Eu440 2.418 . S
O453 C457 1.244 . S
O454 Eu441 2.488 . S
O454 C470 1.249 . S
O455 Eu441 2.471 . S
O455 C470 1.244 . S
O456 Eu441 2.349 . S
O456 C457 1.265 . S
C457 O453 1.244 . S
C457 O456 1.265 . S
O458 Eu440 2.373 . S
O458 C471 1.258 . S
O459 Eu441 2.392 . S
O459 C471 1.242 . S
O460 Eu441 2.418 . S
O460 C442 1.244 . S
O461 Eu440 2.488 . S
O461 C449 1.249 . S
O462 Eu440 2.471 . S
O462 C449 1.244 . S
O463 Eu440 2.349 . S
O463 C442 1.265 . S
C464 C465 1.379 . S
C464 C468 1.373 . S
C464 C470 1.505 . S
C465 C464 1.379 . S
C465 C467 1.369 . S
C465 H476 0.930 . S
C466 C468 1.383 . S
C466 C469 1.382 . S
C466 H477 0.930 . S
C467 C465 1.369 . S
C467 C469 1.392 . S
C467 H478 0.930 . S
C468 C464 1.373 . S
C468 C466 1.383 . S
C468 H479 0.931 . S
C469 C466 1.382 . S
C469 C467 1.392 . S
C470 Eu441 2.828 . S
C470 O454 1.249 . S
C470 O455 1.244 . S
C470 C464 1.505 . S
C471 O458 1.258 . S
C471 O459 1.242 . S
H472 C444 0.930 . S
H473 C445 0.930 . S
H474 C446 0.930 . S
H475 C447 0.931 . S
H476 C465 0.930 . S
H477 C466 0.930 . S
H478 C467 0.930 . S
H479 C468 0.931 . S
Eu480 C489 2.828 . S
Eu480 O491 2.392 . S
Eu480 O493 2.418 . S
Eu480 O498 2.373 . S
Eu480 O501 2.488 . S
Eu480 O502 2.471 . S
Eu480 O503 2.349 . S
Eu481 O490 2.373 . S
Eu481 O494 2.488 . S
Eu481 O495 2.471 . S
Eu481 O496 2.349 . S
Eu481 O499 2.392 . S
Eu481 O500 2.418 . S
Eu481 C510 2.828 . S
C482 O500 1.244 . S
C482 O503 1.265 . S
C483 C484 1.379 . S
C483 C487 1.373 . S
C483 C489 1.505 . S
C484 C483 1.379 . S
C484 C486 1.369 . S
C484 H512 0.930 . S
C485 C487 1.383 . S
C485 C488 1.382 . S
C485 H513 0.930 . S
C486 C484 1.369 . S
C486 C488 1.392 . S
C486 H514 0.930 . S
C487 C483 1.373 . S
C487 C485 1.383 . S
C487 H515 0.931 . S
C488 C485 1.382 . S
C488 C486 1.392 . S
C489 Eu480 2.828 . S
C489 C483 1.505 . S
C489 O501 1.249 . S
C489 O502 1.244 . S
O490 Eu481 2.373 . S
O490 C492 1.258 . S
O491 Eu480 2.392 . S
O491 C492 1.242 . S
C492 O490 1.258 . S
C492 O491 1.242 . S
O493 Eu480 2.418 . S
O493 C497 1.244 . S
O494 Eu481 2.488 . S
O494 C510 1.249 . S
O495 Eu481 2.471 . S
O495 C510 1.244 . S
O496 Eu481 2.349 . S
O496 C497 1.265 . S
C497 O493 1.244 . S
C497 O496 1.265 . S
O498 Eu480 2.373 . S
O498 C511 1.258 . S
O499 Eu481 2.392 . S
O499 C511 1.242 . S
O500 Eu481 2.418 . S
O500 C482 1.244 . S
O501 Eu480 2.488 . S
O501 C489 1.249 . S
O502 Eu480 2.471 . S
O502 C489 1.244 . S
O503 Eu480 2.349 . S
O503 C482 1.265 . S
C504 C505 1.379 . S
C504 C508 1.373 . S
C504 C510 1.505 . S
C505 C504 1.379 . S
C505 C507 1.369 . S
C505 H516 0.930 . S
C506 C508 1.383 . S
C506 C509 1.382 . S
C506 H517 0.930 . S
C507 C505 1.369 . S
C507 C509 1.392 . S
C507 H518 0.930 . S
C508 C504 1.373 . S
C508 C506 1.383 . S
C508 H519 0.931 . S
C509 C506 1.382 . S
C509 C507 1.392 . S
C510 Eu481 2.828 . S
C510 O494 1.249 . S
C510 O495 1.244 . S
C510 C504 1.505 . S
C511 O498 1.258 . S
C511 O499 1.242 . S
H512 C484 0.930 . S
H513 C485 0.930 . S
H514 C486 0.930 . S
H515 C487 0.931 . S
H516 C505 0.930 . S
H517 C506 0.930 . S
H518 C507 0.930 . S
H519 C508 0.931 . S
Eu520 C529 2.828 . S
Eu520 O531 2.392 . S
Eu520 O533 2.418 . S
Eu520 O538 2.373 1_655 S
Eu520 O541 2.488 . S
Eu520 O542 2.471 . S
Eu520 O543 2.330 1_655 S
Eu521 O530 2.373 . S
Eu521 O534 2.488 . S
Eu521 O535 2.471 . S
Eu521 O536 2.349 . S
Eu521 O539 2.392 . S
Eu521 O540 2.418 . S
Eu521 C550 2.828 . S
C522 O540 1.244 . S
C522 O543 1.279 . S
C523 C524 1.379 . S
C523 C527 1.373 . S
C523 C529 1.505 1_556 S
C524 C523 1.379 . S
C524 C526 1.369 . S
C524 H552 0.930 . S
C525 C527 1.383 . S
C525 C528 1.382 . S
C525 H553 0.930 . S
C526 C524 1.369 . S
C526 C528 1.392 . S
C526 H554 0.930 . S
C527 C523 1.373 . S
C527 C525 1.383 . S
C527 H555 0.931 . S
C528 C525 1.382 . S
C528 C526 1.392 . S
C529 Eu520 2.828 . S
C529 C523 1.505 1_554 S
C529 O541 1.249 . S
C529 O542 1.244 . S
O530 Eu521 2.373 . S
O530 C532 1.258 1_455 S
O531 Eu520 2.392 . S
O531 C532 1.242 . S
C532 O530 1.258 1_655 S
C532 O531 1.242 . S
O533 Eu520 2.418 . S
O533 C537 1.244 1_655 S
O534 Eu521 2.488 . S
O534 C550 1.249 . S
O535 Eu521 2.471 . S
O535 C550 1.244 . S
O536 Eu521 2.349 . S
O536 C537 1.265 . S
C537 O533 1.244 1_455 S
C537 O536 1.265 . S
O538 Eu520 2.373 1_455 S
O538 C551 1.258 . S
O539 Eu521 2.392 . S
O539 C551 1.242 . S
O540 Eu521 2.418 . S
O540 C522 1.244 . S
O541 Eu520 2.488 . S
O541 C529 1.249 . S
O542 Eu520 2.471 . S
O542 C529 1.244 . S
O543 Eu520 2.330 1_455 S
O543 C522 1.279 . S
C544 C545 1.379 . S
C544 C548 1.373 . S
C544 C550 1.505 . S
C545 C544 1.379 . S
C545 C547 1.369 . S
C545 H556 0.930 . S
C546 C548 1.383 . S
C546 C549 1.382 . S
C546 H557 0.930 . S
C547 C545 1.369 . S
C547 C549 1.392 . S
C547 H558 0.930 . S
C548 C544 1.373 . S
C548 C546 1.383 . S
C548 H559 0.931 . S
C549 C546 1.382 . S
C549 C547 1.392 . S
C550 Eu521 2.828 . S
C550 O534 1.249 . S
C550 O535 1.244 . S
C550 C544 1.505 . S
C551 O538 1.258 . S
C551 O539 1.242 . S
H552 C524 0.930 . S
H553 C525 0.930 . S
H554 C526 0.930 . S
H555 C527 0.931 . S
H556 C545 0.930 . S
H557 C546 0.930 . S
H558 C547 0.930 . S
H559 C548 0.931 . S
Eu560 C569 2.828 . S
Eu560 O571 2.392 . S
Eu560 O573 2.418 . S
Eu560 O578 2.373 . S
Eu560 O581 2.488 . S
Eu560 O582 2.471 . S
Eu560 O583 2.349 . S
Eu561 O570 2.373 . S
Eu561 O574 2.488 . S
Eu561 O575 2.471 . S
Eu561 O576 2.349 . S
Eu561 O579 2.392 . S
Eu561 O580 2.418 . S
Eu561 C590 2.828 . S
C562 O580 1.244 . S
C562 O583 1.265 . S
C563 C564 1.379 . S
C563 C567 1.373 . S
C563 C569 1.505 . S
C564 C563 1.379 . S
C564 C566 1.369 . S
C564 H592 0.930 . S
C565 C567 1.383 . S
C565 C568 1.382 . S
C565 H593 0.930 . S
C566 C564 1.369 . S
C566 C568 1.392 . S
C566 H594 0.930 . S
C567 C563 1.373 . S
C567 C565 1.383 . S
C567 H595 0.931 . S
C568 C565 1.382 . S
C568 C566 1.392 . S
C569 Eu560 2.828 . S
C569 C563 1.505 . S
C569 O581 1.249 . S
C569 O582 1.244 . S
O570 Eu561 2.373 . S
O570 C572 1.258 . S
O571 Eu560 2.392 . S
O571 C572 1.242 . S
C572 O570 1.258 . S
C572 O571 1.242 . S
O573 Eu560 2.418 . S
O573 C577 1.244 . S
O574 Eu561 2.488 . S
O574 C590 1.249 . S
O575 Eu561 2.471 . S
O575 C590 1.244 . S
O576 Eu561 2.349 . S
O576 C577 1.265 . S
C577 O573 1.244 . S
C577 O576 1.265 . S
O578 Eu560 2.373 . S
O578 C591 1.258 . S
O579 Eu561 2.392 . S
O579 C591 1.242 . S
O580 Eu561 2.418 . S
O580 C562 1.244 . S
O581 Eu560 2.488 . S
O581 C569 1.249 . S
O582 Eu560 2.471 . S
O582 C569 1.244 . S
O583 Eu560 2.349 . S
O583 C562 1.265 . S
C584 C585 1.379 . S
C584 C588 1.373 . S
C584 C590 1.505 . S
C585 C584 1.379 . S
C585 C587 1.369 . S
C585 H596 0.930 . S
C586 C588 1.383 . S
C586 C589 1.382 . S
C586 H597 0.930 . S
C587 C585 1.369 . S
C587 C589 1.392 . S
C587 H598 0.930 . S
C588 C584 1.373 . S
C588 C586 1.383 . S
C588 H599 0.931 . S
C589 C586 1.382 . S
C589 C587 1.392 . S
C590 Eu561 2.828 . S
C590 O574 1.249 . S
C590 O575 1.244 . S
C590 C584 1.505 . S
C591 O578 1.258 . S
C591 O579 1.242 . S
H592 C564 0.930 . S
H593 C565 0.930 . S
H594 C566 0.930 . S
H595 C567 0.931 . S
H596 C585 0.930 . S
H597 C586 0.930 . S
H598 C587 0.930 . S
H599 C588 0.931 . S
Eu600 C609 2.828 . S
Eu600 O611 2.392 . S
Eu600 O613 2.418 . S
Eu600 O618 2.373 1_655 S
Eu600 O621 2.488 . S
Eu600 O622 2.471 . S
Eu600 O623 2.330 1_655 S
Eu601 O610 2.373 . S
Eu601 O614 2.488 . S
Eu601 O615 2.471 . S
Eu601 O616 2.349 . S
Eu601 O619 2.392 . S
Eu601 O620 2.418 . S
Eu601 C630 2.828 . S
C602 O620 1.244 . S
C602 O623 1.279 . S
C603 C604 1.379 . S
C603 C607 1.373 . S
C603 C609 1.505 1_554 S
C604 C603 1.379 . S
C604 C606 1.369 . S
C604 H632 0.930 . S
C605 C607 1.383 . S
C605 C608 1.382 . S
C605 H633 0.930 . S
C606 C604 1.369 . S
C606 C608 1.392 . S
C606 H634 0.930 . S
C607 C603 1.373 . S
C607 C605 1.383 . S
C607 H635 0.931 . S
C608 C605 1.382 . S
C608 C606 1.392 . S
C609 Eu600 2.828 . S
C609 C603 1.505 1_556 S
C609 O621 1.249 . S
C609 O622 1.244 . S
O610 Eu601 2.373 . S
O610 C612 1.258 1_455 S
O611 Eu600 2.392 . S
O611 C612 1.242 . S
C612 O610 1.258 1_655 S
C612 O611 1.242 . S
O613 Eu600 2.418 . S
O613 C617 1.244 1_655 S
O614 Eu601 2.488 . S
O614 C630 1.249 . S
O615 Eu601 2.471 . S
O615 C630 1.244 . S
O616 Eu601 2.349 . S
O616 C617 1.265 . S
C617 O613 1.244 1_455 S
C617 O616 1.265 . S
O618 Eu600 2.373 1_455 S
O618 C631 1.258 . S
O619 Eu601 2.392 . S
O619 C631 1.242 . S
O620 Eu601 2.418 . S
O620 C602 1.244 . S
O621 Eu600 2.488 . S
O621 C609 1.249 . S
O622 Eu600 2.471 . S
O622 C609 1.244 . S
O623 Eu600 2.330 1_455 S
O623 C602 1.279 . S
C624 C625 1.379 . S
C624 C628 1.373 . S
C624 C630 1.505 . S
C625 C624 1.379 . S
C625 C627 1.369 . S
C625 H636 0.930 . S
C626 C628 1.383 . S
C626 C629 1.382 . S
C626 H637 0.930 . S
C627 C625 1.369 . S
C627 C629 1.392 . S
C627 H638 0.930 . S
C628 C624 1.373 . S
C628 C626 1.383 . S
C628 H639 0.931 . S
C629 C626 1.382 . S
C629 C627 1.392 . S
C630 Eu601 2.828 . S
C630 O614 1.249 . S
C630 O615 1.244 . S
C630 C624 1.505 . S
C631 O618 1.258 . S
C631 O619 1.242 . S
H632 C604 0.930 . S
H633 C605 0.930 . S
H634 C606 0.930 . S
H635 C607 0.931 . S
H636 C625 0.930 . S
H637 C626 0.930 . S
H638 C627 0.930 . S
H639 C628 0.931 . S
H640 C652 0.930 . S
H641 C654 0.930 . S
H642 C655 0.930 . S
H643 C659 0.959 . S
H644 C659 0.959 . S
H645 C659 0.961 . S
H646 C660 0.960 . S
H647 C660 0.961 . S
H648 C660 0.959 . S
H649 C663 0.929 . S
H650 C664 0.931 . S
H651 C666 0.930 . S
C652 H640 0.930 . S
C652 C653 1.399 . S
C652 C657 1.399 . S
C653 C652 1.399 . S
C653 C654 1.376 . S
C654 H641 0.930 . S
C654 C653 1.376 . S
C654 C655 1.388 . S
C655 H642 0.930 . S
C655 C654 1.388 . S
C655 C656 1.390 . S
C656 C655 1.390 . S
C656 C657 1.394 . S
C656 C662 1.465 . S
C657 C652 1.399 . S
C657 C656 1.394 . S
C657 C658 1.516 . S
C658 C657 1.516 . S
C658 C659 1.502 . S
C658 C660 1.561 . S
C658 C661 1.526 . S
C659 H643 0.959 . S
C659 H644 0.959 . S
C659 H645 0.961 . S
C659 C658 1.502 . S
C660 H646 0.960 . S
C660 H647 0.961 . S
C660 H648 0.959 . S
C660 C658 1.561 . S
C661 C658 1.526 . S
C661 C662 1.396 . S
C661 C666 1.390 . S
C662 C656 1.465 . S
C662 C661 1.396 . S
C662 C663 1.399 . S
C663 H649 0.929 . S
C663 C662 1.399 . S
C663 C664 1.385 . S
C664 H650 0.931 . S
C664 C663 1.385 . S
C664 C665 1.389 . S
C665 C664 1.389 . S
C665 C666 1.387 . S
C666 H651 0.930 . S
C666 C661 1.390 . S
C666 C665 1.387 . S
H667 C679 0.930 . S
H668 C681 0.930 . S
H669 C682 0.930 . S
H670 C686 0.959 . S
H671 C686 0.959 . S
H672 C686 0.961 . S
H673 C687 0.960 . S
H674 C687 0.961 . S
H675 C687 0.959 . S
H676 C690 0.929 . S
H677 C691 0.931 . S
H678 C693 0.930 . S
C679 H667 0.930 . S
C679 C680 1.399 . S
C679 C684 1.399 . S
C680 C679 1.399 . S
C680 C681 1.376 . S
C681 H668 0.930 . S
C681 C680 1.376 . S
C681 C682 1.388 . S
C682 H669 0.930 . S
C682 C681 1.388 . S
C682 C683 1.390 . S
C683 C682 1.390 . S
C683 C684 1.394 . S
C683 C689 1.465 . S
C684 C679 1.399 . S
C684 C683 1.394 . S
C684 C685 1.516 . S
C685 C684 1.516 . S
C685 C686 1.502 . S
C685 C687 1.561 . S
C685 C688 1.526 . S
C686 H670 0.959 . S
C686 H671 0.959 . S
C686 H672 0.961 . S
C686 C685 1.502 . S
C687 H673 0.960 . S
C687 H674 0.961 . S
C687 H675 0.959 . S
C687 C685 1.561 . S
C688 C685 1.526 . S
C688 C689 1.396 . S
C688 C693 1.390 . S
C689 C683 1.465 . S
C689 C688 1.396 . S
C689 C690 1.399 . S
C690 H676 0.929 . S
C690 C689 1.399 . S
C690 C691 1.385 . S
C691 H677 0.931 . S
C691 C690 1.385 . S
C691 C692 1.389 . S
C692 C691 1.389 . S
C692 C693 1.387 . S
C693 H678 0.930 . S
C693 C688 1.390 . S
C693 C692 1.387 . S
H694 C706 0.930 . S
H695 C708 0.930 . S
H696 C709 0.930 . S
H697 C713 0.959 . S
H698 C713 0.959 . S
H699 C713 0.961 . S
H700 C714 0.960 . S
H701 C714 0.961 . S
H702 C714 0.959 . S
H703 C717 0.929 . S
H704 C718 0.931 . S
H705 C720 0.930 . S
C706 H694 0.930 . S
C706 C707 1.399 . S
C706 C711 1.399 . S
C707 C706 1.399 . S
C707 C708 1.376 . S
C708 H695 0.930 . S
C708 C707 1.376 . S
C708 C709 1.388 . S
C709 H696 0.930 . S
C709 C708 1.388 . S
C709 C710 1.390 . S
C710 C709 1.390 . S
C710 C711 1.394 . S
C710 C716 1.465 . S
C711 C706 1.399 . S
C711 C710 1.394 . S
C711 C712 1.516 . S
C712 C711 1.516 . S
C712 C713 1.502 . S
C712 C714 1.561 . S
C712 C715 1.526 . S
C713 H697 0.959 . S
C713 H698 0.959 . S
C713 H699 0.961 . S
C713 C712 1.502 . S
C714 H700 0.960 . S
C714 H701 0.961 . S
C714 H702 0.959 . S
C714 C712 1.561 . S
C715 C712 1.526 . S
C715 C716 1.396 . S
C715 C720 1.390 . S
C716 C710 1.465 . S
C716 C715 1.396 . S
C716 C717 1.399 . S
C717 H703 0.929 . S
C717 C716 1.399 . S
C717 C718 1.385 . S
C718 H704 0.931 . S
C718 C717 1.385 . S
C718 C719 1.389 . S
C719 C718 1.389 . S
C719 C720 1.387 . S
C720 H705 0.930 . S
C720 C715 1.390 . S
C720 C719 1.387 . S
H721 C733 0.930 . S
H722 C735 0.930 . S
H723 C736 0.930 . S
H724 C740 0.959 . S
H725 C740 0.959 . S
H726 C740 0.961 . S
H727 C741 0.960 . S
H728 C741 0.961 . S
H729 C741 0.959 . S
H730 C744 0.929 . S
H731 C745 0.931 . S
H732 C747 0.930 . S
C733 H721 0.930 . S
C733 C734 1.399 . S
C733 C738 1.399 . S
C734 C733 1.399 . S
C734 C735 1.376 . S
C735 H722 0.930 . S
C735 C734 1.376 . S
C735 C736 1.388 . S
C736 H723 0.930 . S
C736 C735 1.388 . S
C736 C737 1.390 . S
C737 C736 1.390 . S
C737 C738 1.394 . S
C737 C743 1.465 . S
C738 C733 1.399 . S
C738 C737 1.394 . S
C738 C739 1.516 . S
C739 C738 1.516 . S
C739 C740 1.502 . S
C739 C741 1.561 . S
C739 C742 1.526 . S
C740 H724 0.959 . S
C740 H725 0.959 . S
C740 H726 0.961 . S
C740 C739 1.502 . S
C741 H727 0.960 . S
C741 H728 0.961 . S
C741 H729 0.959 . S
C741 C739 1.561 . S
C742 C739 1.526 . S
C742 C743 1.396 . S
C742 C747 1.390 . S
C743 C737 1.465 . S
C743 C742 1.396 . S
C743 C744 1.399 . S
C744 H730 0.929 . S
C744 C743 1.399 . S
C744 C745 1.385 . S
C745 H731 0.931 . S
C745 C744 1.385 . S
C745 C746 1.389 . S
C746 C745 1.389 . S
C746 C747 1.387 . S
C747 H732 0.930 . S
C747 C742 1.390 . S
C747 C746 1.387 . S
H748 C760 0.930 . S
H749 C762 0.930 . S
H750 C763 0.930 . S
H751 C767 0.959 1_455 S
H752 C767 0.959 1_455 S
H753 C767 0.961 . S
H754 C768 0.960 . S
H755 C768 0.961 . S
H756 C768 0.959 . S
H757 C771 0.929 . S
H758 C772 0.931 . S
H759 C774 0.930 . S
C760 H748 0.930 . S
C760 C761 1.399 . S
C760 C765 1.399 . S
C761 C760 1.399 . S
C761 C762 1.376 . S
C762 H749 0.930 . S
C762 C761 1.376 . S
C762 C763 1.388 . S
C763 H750 0.930 . S
C763 C762 1.388 . S
C763 C764 1.390 . S
C764 C763 1.390 . S
C764 C765 1.394 . S
C764 C770 1.465 . S
C765 C760 1.399 . S
C765 C764 1.394 . S
C765 C766 1.516 . S
C766 C765 1.516 . S
C766 C767 1.502 . S
C766 C768 1.561 . S
C766 C769 1.526 . S
C767 H751 0.959 1_655 S
C767 H752 0.959 1_655 S
C767 H753 0.961 . S
C767 C766 1.502 . S
C768 H754 0.960 . S
C768 H755 0.961 . S
C768 H756 0.959 . S
C768 C766 1.561 . S
C769 C766 1.526 . S
C769 C770 1.396 . S
C769 C774 1.390 . S
C770 C764 1.465 . S
C770 C769 1.396 . S
C770 C771 1.399 . S
C771 H757 0.929 . S
C771 C770 1.399 . S
C771 C772 1.385 . S
C772 H758 0.931 . S
C772 C771 1.385 . S
C772 C773 1.389 . S
C773 C772 1.389 . S
C773 C774 1.387 . S
C774 H759 0.930 . S
C774 C769 1.390 . S
C774 C773 1.387 . S
H775 C787 0.930 . S
H776 C789 0.930 . S
H777 C790 0.930 . S
H778 C794 0.959 . S
H779 C794 0.959 . S
H780 C794 0.961 . S
H781 C795 0.960 . S
H782 C795 0.961 . S
H783 C795 0.959 . S
H784 C798 0.952 . S
H785 C799 0.931 1_455 S
H786 C801 0.930 . S
C787 H775 0.930 . S
C787 C788 1.399 . S
C787 C792 1.399 . S
C788 C787 1.399 . S
C788 C789 1.376 . S
C789 H776 0.930 . S
C789 C788 1.376 . S
C789 C790 1.388 . S
C790 H777 0.930 . S
C790 C789 1.388 . S
C790 C791 1.390 . S
C791 C790 1.390 . S
C791 C792 1.394 . S
C791 C797 1.465 . S
C792 C787 1.399 . S
C792 C791 1.394 . S
C792 C793 1.516 . S
C793 C792 1.516 . S
C793 C794 1.502 . S
C793 C795 1.561 . S
C793 C796 1.526 . S
C794 H778 0.959 . S
C794 H779 0.959 . S
C794 H780 0.961 . S
C794 C793 1.502 . S
C795 H781 0.960 . S
C795 H782 0.961 . S
C795 H783 0.959 . S
C795 C793 1.561 . S
C796 C793 1.526 . S
C796 C797 1.396 . S
C796 C801 1.390 . S
C797 C791 1.465 . S
C797 C796 1.396 . S
C797 C798 1.399 . S
C798 H784 0.952 . S
C798 C797 1.399 . S
C798 C799 1.385 . S
C799 H785 0.931 1_655 S
C799 C798 1.385 . S
C799 C800 1.389 . S
C800 C799 1.389 . S
C800 C801 1.387 . S
C801 H786 0.930 . S
C801 C796 1.390 . S
C801 C800 1.387 . S
H802 C814 0.930 . S
H803 C816 0.930 . S
H804 C817 0.930 . S
H805 C821 0.959 . S
H806 C821 0.959 . S
H807 C821 0.961 . S
H808 C822 0.960 . S
H809 C822 0.961 . S
H810 C822 0.959 . S
H811 C825 0.929 . S
H812 C826 0.931 . S
H813 C828 0.930 . S
C814 H802 0.930 . S
C814 C815 1.399 . S
C814 C819 1.399 . S
C815 C814 1.399 . S
C815 C816 1.376 . S
C816 H803 0.930 . S
C816 C815 1.376 . S
C816 C817 1.388 . S
C817 H804 0.930 . S
C817 C816 1.388 . S
C817 C818 1.390 . S
C818 C817 1.390 . S
C818 C819 1.394 . S
C818 C824 1.465 . S
C819 C814 1.399 . S
C819 C818 1.394 . S
C819 C820 1.516 . S
C820 C819 1.516 . S
C820 C821 1.502 . S
C820 C822 1.561 . S
C820 C823 1.526 . S
C821 H805 0.959 . S
C821 H806 0.959 . S
C821 H807 0.961 . S
C821 C820 1.502 . S
C822 H808 0.960 . S
C822 H809 0.961 . S
C822 H810 0.959 . S
C822 C820 1.561 . S
C823 C820 1.526 . S
C823 C824 1.396 . S
C823 C828 1.390 . S
C824 C818 1.465 . S
C824 C823 1.396 . S
C824 C825 1.399 . S
C825 H811 0.929 . S
C825 C824 1.399 . S
C825 C826 1.385 . S
C826 H812 0.931 . S
C826 C825 1.385 . S
C826 C827 1.389 . S
C827 C826 1.389 . S
C827 C828 1.387 . S
C828 H813 0.930 . S
C828 C823 1.390 . S
C828 C827 1.387 . S
H829 C841 0.930 . S
H830 C843 0.930 . S
H831 C844 0.930 . S
H832 C848 0.959 . S
H833 C848 0.959 . S
H834 C848 0.961 . S
H835 C849 0.960 . S
H836 C849 0.961 . S
H837 C849 0.959 . S
H838 C852 0.929 . S
H839 C853 0.931 . S
H840 C855 0.930 . S
C841 H829 0.930 . S
C841 C842 1.399 . S
C841 C846 1.399 . S
C842 C841 1.399 . S
C842 C843 1.376 . S
C843 H830 0.930 . S
C843 C842 1.376 . S
C843 C844 1.388 . S
C844 H831 0.930 . S
C844 C843 1.388 . S
C844 C845 1.390 . S
C845 C844 1.390 . S
C845 C846 1.394 . S
C845 C851 1.465 . S
C846 C841 1.399 . S
C846 C845 1.394 . S
C846 C847 1.516 . S
C847 C846 1.516 . S
C847 C848 1.502 . S
C847 C849 1.561 . S
C847 C850 1.526 . S
C848 H832 0.959 . S
C848 H833 0.959 . S
C848 H834 0.961 . S
C848 C847 1.502 . S
C849 H835 0.960 . S
C849 H836 0.961 . S
C849 H837 0.959 . S
C849 C847 1.561 . S
C850 C847 1.526 . S
C850 C851 1.396 . S
C850 C855 1.390 . S
C851 C845 1.465 . S
C851 C850 1.396 . S
C851 C852 1.399 . S
C852 H838 0.929 . S
C852 C851 1.399 . S
C852 C853 1.385 . S
C853 H839 0.931 . S
C853 C852 1.385 . S
C853 C854 1.389 . S
C854 C853 1.389 . S
C854 C855 1.387 . S
C855 H840 0.930 . S
C855 C850 1.390 . S
C855 C854 1.387 . S
H856 C868 0.930 . S
H857 C870 0.930 . S
H858 C871 0.930 . S
H859 C875 0.959 . S
H860 C875 0.959 . S
H861 C875 0.961 . S
H862 C876 0.960 . S
H863 C876 0.961 . S
H864 C876 0.959 . S
H865 C879 0.929 . S
H866 C880 0.931 . S
H867 C882 0.930 . S
C868 H856 0.930 . S
C868 C869 1.399 . S
C868 C873 1.399 . S
C869 C868 1.399 . S
C869 C870 1.376 . S
C870 H857 0.930 . S
C870 C869 1.376 . S
C870 C871 1.388 . S
C871 H858 0.930 . S
C871 C870 1.388 . S
C871 C872 1.390 . S
C872 C871 1.390 . S
C872 C873 1.394 . S
C872 C878 1.465 . S
C873 C868 1.399 . S
C873 C872 1.394 . S
C873 C874 1.516 . S
C874 C873 1.516 . S
C874 C875 1.502 . S
C874 C876 1.561 . S
C874 C877 1.526 . S
C875 H859 0.959 . S
C875 H860 0.959 . S
C875 H861 0.961 . S
C875 C874 1.502 . S
C876 H862 0.960 . S
C876 H863 0.961 . S
C876 H864 0.959 . S
C876 C874 1.561 . S
C877 C874 1.526 . S
C877 C878 1.396 . S
C877 C882 1.390 . S
C878 C872 1.465 . S
C878 C877 1.396 . S
C878 C879 1.399 . S
C879 H865 0.929 . S
C879 C878 1.399 . S
C879 C880 1.385 . S
C880 H866 0.931 . S
C880 C879 1.385 . S
C880 C881 1.389 . S
C881 C880 1.389 . S
C881 C882 1.387 . S
C882 H867 0.930 . S
C882 C877 1.390 . S
C882 C881 1.387 . S
H883 C895 0.930 . S
H884 C897 0.930 . S
H885 C898 0.930 . S
H886 C902 0.959 . S
H887 C902 0.959 . S
H888 C902 0.961 . S
H889 C903 0.960 . S
H890 C903 0.961 . S
H891 C903 0.959 . S
H892 C906 0.929 . S
H893 C907 0.931 . S
H894 C909 0.930 . S
C895 H883 0.930 . S
C895 C896 1.399 . S
C895 C900 1.399 . S
C896 C895 1.399 . S
C896 C897 1.376 . S
C897 H884 0.930 . S
C897 C896 1.376 . S
C897 C898 1.388 . S
C898 H885 0.930 . S
C898 C897 1.388 . S
C898 C899 1.390 . S
C899 C898 1.390 . S
C899 C900 1.394 . S
C899 C905 1.465 . S
C900 C895 1.399 . S
C900 C899 1.394 . S
C900 C901 1.516 . S
C901 C900 1.516 . S
C901 C902 1.502 . S
C901 C903 1.561 . S
C901 C904 1.526 . S
C902 H886 0.959 . S
C902 H887 0.959 . S
C902 H888 0.961 . S
C902 C901 1.502 . S
C903 H889 0.960 . S
C903 H890 0.961 . S
C903 H891 0.959 . S
C903 C901 1.561 . S
C904 C901 1.526 . S
C904 C905 1.396 . S
C904 C909 1.390 . S
C905 C899 1.465 . S
C905 C904 1.396 . S
C905 C906 1.399 . S
C906 H892 0.929 . S
C906 C905 1.399 . S
C906 C907 1.385 . S
C907 H893 0.931 . S
C907 C906 1.385 . S
C907 C908 1.389 . S
C908 C907 1.389 . S
C908 C909 1.387 . S
C909 H894 0.930 . S
C909 C904 1.390 . S
C909 C908 1.387 . S
H910 C922 0.930 . S
H911 C924 0.930 . S
H912 C925 0.930 . S
H913 C929 0.959 . S
H914 C929 0.959 . S
H915 C929 0.961 . S
H916 C930 0.960 . S
H917 C930 0.961 . S
H918 C930 0.959 . S
H919 C933 0.929 . S
H920 C934 0.931 . S
H921 C936 0.930 . S
C922 H910 0.930 . S
C922 C923 1.399 . S
C922 C927 1.399 . S
C923 C922 1.399 . S
C923 C924 1.376 . S
C924 H911 0.930 . S
C924 C923 1.376 . S
C924 C925 1.388 . S
C925 H912 0.930 . S
C925 C924 1.388 . S
C925 C926 1.390 . S
C926 C925 1.390 . S
C926 C927 1.394 . S
C926 C932 1.465 . S
C927 C922 1.399 . S
C927 C926 1.394 . S
C927 C928 1.516 . S
C928 C927 1.516 . S
C928 C929 1.502 . S
C928 C930 1.561 . S
C928 C931 1.526 . S
C929 H913 0.959 . S
C929 H914 0.959 . S
C929 H915 0.961 . S
C929 C928 1.502 . S
C930 H916 0.960 . S
C930 H917 0.961 . S
C930 H918 0.959 . S
C930 C928 1.561 . S
C931 C928 1.526 . S
C931 C932 1.396 . S
C931 C936 1.390 . S
C932 C926 1.465 . S
C932 C931 1.396 . S
C932 C933 1.399 . S
C933 H919 0.929 . S
C933 C932 1.399 . S
C933 C934 1.385 . S
C934 H920 0.931 . S
C934 C933 1.385 . S
C934 C935 1.389 . S
C935 C934 1.389 . S
C935 C936 1.387 . S
C936 H921 0.930 . S
C936 C931 1.390 . S
C936 C935 1.387 . S
H937 C949 0.930 . S
H938 C951 0.930 . S
H939 C952 0.930 . S
H940 C956 0.959 . S
H941 C956 0.959 . S
H942 C956 0.961 . S
H943 C957 0.960 . S
H944 C957 0.961 . S
H945 C957 0.959 . S
H946 C960 0.929 . S
H947 C961 0.931 . S
H948 C963 0.930 . S
C949 H937 0.930 . S
C949 C950 1.399 . S
C949 C954 1.399 . S
C950 C949 1.399 . S
C950 C951 1.376 . S
C951 H938 0.930 . S
C951 C950 1.376 . S
C951 C952 1.388 . S
C952 H939 0.930 . S
C952 C951 1.388 . S
C952 C953 1.390 . S
C953 C952 1.390 . S
C953 C954 1.394 . S
C953 C959 1.465 . S
C954 C949 1.399 . S
C954 C953 1.394 . S
C954 C955 1.516 . S
C955 C954 1.516 . S
C955 C956 1.502 . S
C955 C957 1.561 . S
C955 C958 1.526 . S
C956 H940 0.959 . S
C956 H941 0.959 . S
C956 H942 0.961 . S
C956 C955 1.502 . S
C957 H943 0.960 . S
C957 H944 0.961 . S
C957 H945 0.959 . S
C957 C955 1.561 . S
C958 C955 1.526 . S
C958 C959 1.396 . S
C958 C963 1.390 . S
C959 C953 1.465 . S
C959 C958 1.396 . S
C959 C960 1.399 . S
C960 H946 0.929 . S
C960 C959 1.399 . S
C960 C961 1.385 . S
C961 H947 0.931 . S
C961 C960 1.385 . S
C961 C962 1.389 . S
C962 C961 1.389 . S
C962 C963 1.387 . S
C963 H948 0.930 . S
C963 C958 1.390 . S
C963 C962 1.387 . S
H964 C976 0.930 . S
H965 C978 0.930 . S
H966 C979 0.930 . S
H967 C983 0.959 . S
H968 C983 0.959 . S
H969 C983 0.961 . S
H970 C984 0.960 . S
H971 C984 0.961 . S
H972 C984 0.959 . S
H973 C987 0.929 . S
H974 C988 0.931 . S
H975 C990 0.930 . S
C976 H964 0.930 . S
C976 C977 1.399 . S
C976 C981 1.399 . S
C977 C976 1.399 . S
C977 C978 1.376 . S
C978 H965 0.930 . S
C978 C977 1.376 . S
C978 C979 1.388 . S
C979 H966 0.930 . S
C979 C978 1.388 . S
C979 C980 1.390 . S
C980 C979 1.390 . S
C980 C981 1.394 . S
C980 C986 1.465 . S
C981 C976 1.399 . S
C981 C980 1.394 . S
C981 C982 1.516 . S
C982 C981 1.516 . S
C982 C983 1.502 . S
C982 C984 1.561 . S
C982 C985 1.526 . S
C983 H967 0.959 . S
C983 H968 0.959 . S
C983 H969 0.961 . S
C983 C982 1.502 . S
C984 H970 0.960 . S
C984 H971 0.961 . S
C984 H972 0.959 . S
C984 C982 1.561 . S
C985 C982 1.526 . S
C985 C986 1.396 . S
C985 C990 1.390 . S
C986 C980 1.465 . S
C986 C985 1.396 . S
C986 C987 1.399 . S
C987 H973 0.929 . S
C987 C986 1.399 . S
C987 C988 1.385 . S
C988 H974 0.931 . S
C988 C987 1.385 . S
C988 C989 1.389 . S
C989 C988 1.389 . S
C989 C990 1.387 . S
C990 H975 0.930 . S
C990 C985 1.390 . S
C990 C989 1.387 . S
H991 C1003 0.930 . S
H992 C1005 0.930 . S
H993 C1006 0.930 . S
H994 C1010 0.959 . S
H995 C1010 0.959 . S
H996 C1010 0.961 . S
H997 C1011 0.960 . S
H998 C1011 0.961 . S
H999 C1011 0.959 . S
H1000 C1014 0.929 . S
H1001 C1015 0.931 . S
H1002 C1017 0.930 . S
C1003 H991 0.930 . S
C1003 C1004 1.399 . S
C1003 C1008 1.399 . S
C1004 C1003 1.399 . S
C1004 C1005 1.376 . S
C1005 H992 0.930 . S
C1005 C1004 1.376 . S
C1005 C1006 1.388 . S
C1006 H993 0.930 . S
C1006 C1005 1.388 . S
C1006 C1007 1.390 . S
C1007 C1006 1.390 . S
C1007 C1008 1.394 . S
C1007 C1013 1.465 . S
C1008 C1003 1.399 . S
C1008 C1007 1.394 . S
C1008 C1009 1.516 . S
C1009 C1008 1.516 . S
C1009 C1010 1.502 . S
C1009 C1011 1.561 . S
C1009 C1012 1.526 . S
C1010 H994 0.959 . S
C1010 H995 0.959 . S
C1010 H996 0.961 . S
C1010 C1009 1.502 . S
C1011 H997 0.960 . S
C1011 H998 0.961 . S
C1011 H999 0.959 . S
C1011 C1009 1.561 . S
C1012 C1009 1.526 . S
C1012 C1013 1.396 . S
C1012 C1017 1.390 . S
C1013 C1007 1.465 . S
C1013 C1012 1.396 . S
C1013 C1014 1.399 . S
C1014 H1000 0.929 . S
C1014 C1013 1.399 . S
C1014 C1015 1.385 . S
C1015 H1001 0.931 . S
C1015 C1014 1.385 . S
C1015 C1016 1.389 . S
C1016 C1015 1.389 . S
C1016 C1017 1.387 . S
C1017 H1002 0.930 . S
C1017 C1012 1.390 . S
C1017 C1016 1.387 . S
H1018 C1030 0.930 . S
H1019 C1032 0.930 . S
H1020 C1033 0.930 . S
H1021 C1037 0.959 . S
H1022 C1037 0.959 . S
H1023 C1037 0.961 . S
H1024 C1038 0.960 . S
H1025 C1038 0.961 . S
H1026 C1038 0.959 . S
H1027 C1041 0.929 . S
H1028 C1042 0.931 . S
H1029 C1044 0.930 . S
C1030 H1018 0.930 . S
C1030 C1031 1.399 . S
C1030 C1035 1.399 . S
C1031 C1030 1.399 . S
C1031 C1032 1.376 . S
C1032 H1019 0.930 . S
C1032 C1031 1.376 . S
C1032 C1033 1.388 . S
C1033 H1020 0.930 . S
C1033 C1032 1.388 . S
C1033 C1034 1.390 . S
C1034 C1033 1.390 . S
C1034 C1035 1.394 . S
C1034 C1040 1.465 . S
C1035 C1030 1.399 . S
C1035 C1034 1.394 . S
C1035 C1036 1.516 . S
C1036 C1035 1.516 . S
C1036 C1037 1.502 . S
C1036 C1038 1.561 . S
C1036 C1039 1.526 . S
C1037 H1021 0.959 . S
C1037 H1022 0.959 . S
C1037 H1023 0.961 . S
C1037 C1036 1.502 . S
C1038 H1024 0.960 . S
C1038 H1025 0.961 . S
C1038 H1026 0.959 . S
C1038 C1036 1.561 . S
C1039 C1036 1.526 . S
C1039 C1040 1.396 . S
C1039 C1044 1.390 . S
C1040 C1034 1.465 . S
C1040 C1039 1.396 . S
C1040 C1041 1.399 . S
C1041 H1027 0.929 . S
C1041 C1040 1.399 . S
C1041 C1042 1.385 . S
C1042 H1028 0.931 . S
C1042 C1041 1.385 . S
C1042 C1043 1.389 . S
C1043 C1042 1.389 . S
C1043 C1044 1.387 . S
C1044 H1029 0.930 . S
C1044 C1039 1.390 . S
C1044 C1043 1.387 . S
H1045 C1057 0.930 . S
H1046 C1059 0.930 . S
H1047 C1060 0.930 . S
H1048 C1064 0.959 . S
H1049 C1064 0.959 . S
H1050 C1064 0.961 . S
H1051 C1065 0.960 . S
H1052 C1065 0.961 . S
H1053 C1065 0.959 . S
H1054 C1068 0.929 . S
H1055 C1069 0.931 . S
H1056 C1071 0.930 . S
C1057 H1045 0.930 . S
C1057 C1058 1.399 . S
C1057 C1062 1.399 . S
C1058 C1057 1.399 . S
C1058 C1059 1.376 . S
C1059 H1046 0.930 . S
C1059 C1058 1.376 . S
C1059 C1060 1.388 . S
C1060 H1047 0.930 . S
C1060 C1059 1.388 . S
C1060 C1061 1.390 . S
C1061 C1060 1.390 . S
C1061 C1062 1.394 . S
C1061 C1067 1.465 . S
C1062 C1057 1.399 . S
C1062 C1061 1.394 . S
C1062 C1063 1.516 . S
C1063 C1062 1.516 . S
C1063 C1064 1.502 . S
C1063 C1065 1.561 . S
C1063 C1066 1.526 . S
C1064 H1048 0.959 . S
C1064 H1049 0.959 . S
C1064 H1050 0.961 . S
C1064 C1063 1.502 . S
C1065 H1051 0.960 . S
C1065 H1052 0.961 . S
C1065 H1053 0.959 . S
C1065 C1063 1.561 . S
C1066 C1063 1.526 . S
C1066 C1067 1.396 . S
C1066 C1071 1.390 . S
C1067 C1061 1.465 . S
C1067 C1066 1.396 . S
C1067 C1068 1.399 . S
C1068 H1054 0.929 . S
C1068 C1067 1.399 . S
C1068 C1069 1.385 . S
C1069 H1055 0.931 . S
C1069 C1068 1.385 . S
C1069 C1070 1.389 . S
C1070 C1069 1.389 . S
C1070 C1071 1.387 . S
C1071 H1056 0.930 . S
C1071 C1066 1.390 . S
C1071 C1070 1.387 . S
H1072 C1084 0.930 . S
H1073 C1086 0.929 1_655 S
H1074 C1087 0.930 . S
H1075 C1091 0.959 . S
H1076 C1091 0.959 . S
H1077 C1091 0.961 . S
H1078 C1092 0.958 1_655 S
H1079 C1092 0.961 . S
H1080 C1092 0.959 1_655 S
H1081 C1095 0.929 . S
H1082 C1096 0.931 . S
H1083 C1098 0.930 . S
C1084 H1072 0.930 . S
C1084 C1085 1.399 . S
C1084 C1089 1.399 . S
C1085 C1084 1.399 . S
C1085 C1086 1.376 . S
C1086 H1073 0.929 1_455 S
C1086 C1085 1.376 . S
C1086 C1087 1.388 . S
C1087 H1074 0.930 . S
C1087 C1086 1.388 . S
C1087 C1088 1.390 . S
C1088 C1087 1.390 . S
C1088 C1089 1.394 . S
C1088 C1094 1.465 . S
C1089 C1084 1.399 . S
C1089 C1088 1.394 . S
C1089 C1090 1.516 . S
C1090 C1089 1.516 . S
C1090 C1091 1.502 . S
C1090 C1092 1.561 . S
C1090 C1093 1.526 . S
C1091 H1075 0.959 . S
C1091 H1076 0.959 . S
C1091 H1077 0.961 . S
C1091 C1090 1.502 . S
C1092 H1078 0.958 1_455 S
C1092 H1079 0.961 . S
C1092 H1080 0.959 1_455 S
C1092 C1090 1.561 . S
C1093 C1090 1.526 . S
C1093 C1094 1.396 . S
C1093 C1098 1.390 . S
C1094 C1088 1.465 . S
C1094 C1093 1.396 . S
C1094 C1095 1.399 . S
C1095 H1081 0.929 . S
C1095 C1094 1.399 . S
C1095 C1096 1.385 . S
C1096 H1082 0.931 . S
C1096 C1095 1.385 . S
C1096 C1097 1.389 . S
C1097 C1096 1.389 . S
C1097 C1098 1.387 . S
C1098 H1083 0.930 . S
C1098 C1093 1.390 . S
C1098 C1097 1.387 . S
H1099 C1111 0.930 . S
H1100 C1113 0.930 . S
H1101 C1114 0.943 . S
H1102 C1118 0.959 . S
H1103 C1118 0.959 . S
H1104 C1118 0.964 1_655 S
H1105 C1119 0.960 . S
H1106 C1119 0.961 . S
H1107 C1119 0.959 . S
H1108 C1122 0.929 . S
H1109 C1123 0.931 . S
H1110 C1125 0.930 . S
C1111 H1099 0.930 . S
C1111 C1112 1.399 . S
C1111 C1116 1.399 . S
C1112 C1111 1.399 . S
C1112 C1113 1.376 . S
C1113 H1100 0.930 . S
C1113 C1112 1.376 . S
C1113 C1114 1.388 . S
C1114 H1101 0.943 . S
C1114 C1113 1.388 . S
C1114 C1115 1.390 1_655 S
C1115 C1114 1.390 1_455 S
C1115 C1116 1.394 1_455 S
C1115 C1121 1.465 . S
C1116 C1111 1.399 . S
C1116 C1115 1.394 1_655 S
C1116 C1117 1.516 1_655 S
C1117 C1116 1.516 1_455 S
C1117 C1118 1.502 . S
C1117 C1119 1.561 . S
C1117 C1120 1.526 . S
C1118 H1102 0.959 . S
C1118 H1103 0.959 . S
C1118 H1104 0.964 1_455 S
C1118 C1117 1.502 . S
C1119 H1105 0.960 . S
C1119 H1106 0.961 . S
C1119 H1107 0.959 . S
C1119 C1117 1.561 . S
C1120 C1117 1.526 . S
C1120 C1121 1.396 . S
C1120 C1125 1.390 . S
C1121 C1115 1.465 . S
C1121 C1120 1.396 . S
C1121 C1122 1.399 . S
C1122 H1108 0.929 . S
C1122 C1121 1.399 . S
C1122 C1123 1.385 . S
C1123 H1109 0.931 . S
C1123 C1122 1.385 . S
C1123 C1124 1.389 . S
C1124 C1123 1.389 . S
C1124 C1125 1.387 . S
C1125 H1110 0.930 . S
C1125 C1120 1.390 . S
C1125 C1124 1.387 . S
H1126 C1138 0.930 . S
H1127 C1140 0.930 . S
H1128 C1141 0.930 . S
H1129 C1145 0.959 . S
H1130 C1145 0.959 . S
H1131 C1145 0.961 . S
H1132 C1146 0.960 . S
H1133 C1146 0.961 . S
H1134 C1146 0.959 . S
H1135 C1149 0.929 . S
H1136 C1150 0.931 . S
H1137 C1152 0.930 . S
C1138 H1126 0.930 . S
C1138 C1139 1.399 . S
C1138 C1143 1.399 . S
C1139 C1138 1.399 . S
C1139 C1140 1.376 . S
C1140 H1127 0.930 . S
C1140 C1139 1.376 . S
C1140 C1141 1.388 . S
C1141 H1128 0.930 . S
C1141 C1140 1.388 . S
C1141 C1142 1.390 . S
C1142 C1141 1.390 . S
C1142 C1143 1.394 . S
C1142 C1148 1.465 . S
C1143 C1138 1.399 . S
C1143 C1142 1.394 . S
C1143 C1144 1.516 . S
C1144 C1143 1.516 . S
C1144 C1145 1.502 . S
C1144 C1146 1.561 . S
C1144 C1147 1.526 . S
C1145 H1129 0.959 . S
C1145 H1130 0.959 . S
C1145 H1131 0.961 . S
C1145 C1144 1.502 . S
C1146 H1132 0.960 . S
C1146 H1133 0.961 . S
C1146 H1134 0.959 . S
C1146 C1144 1.561 . S
C1147 C1144 1.526 . S
C1147 C1148 1.396 . S
C1147 C1152 1.390 . S
C1148 C1142 1.465 . S
C1148 C1147 1.396 . S
C1148 C1149 1.399 . S
C1149 H1135 0.929 . S
C1149 C1148 1.399 . S
C1149 C1150 1.385 . S
C1150 H1136 0.931 . S
C1150 C1149 1.385 . S
C1150 C1151 1.389 . S
C1151 C1150 1.389 . S
C1151 C1152 1.387 . S
C1152 H1137 0.930 . S
C1152 C1147 1.390 . S
C1152 C1151 1.387 . S
H1153 C1165 0.930 . S
H1154 C1167 0.930 . S
H1155 C1168 0.930 . S
H1156 C1172 0.959 . S
H1157 C1172 0.959 . S
H1158 C1172 0.961 . S
H1159 C1173 0.960 . S
H1160 C1173 0.961 . S
H1161 C1173 0.959 . S
H1162 C1176 0.929 . S
H1163 C1177 0.931 . S
H1164 C1179 0.930 . S
C1165 H1153 0.930 . S
C1165 C1166 1.399 . S
C1165 C1170 1.399 . S
C1166 C1165 1.399 . S
C1166 C1167 1.376 . S
C1167 H1154 0.930 . S
C1167 C1166 1.376 . S
C1167 C1168 1.388 . S
C1168 H1155 0.930 . S
C1168 C1167 1.388 . S
C1168 C1169 1.390 . S
C1169 C1168 1.390 . S
C1169 C1170 1.394 . S
C1169 C1175 1.465 . S
C1170 C1165 1.399 . S
C1170 C1169 1.394 . S
C1170 C1171 1.516 . S
C1171 C1170 1.516 . S
C1171 C1172 1.502 . S
C1171 C1173 1.561 . S
C1171 C1174 1.526 . S
C1172 H1156 0.959 . S
C1172 H1157 0.959 . S
C1172 H1158 0.961 . S
C1172 C1171 1.502 . S
C1173 H1159 0.960 . S
C1173 H1160 0.961 . S
C1173 H1161 0.959 . S
C1173 C1171 1.561 . S
C1174 C1171 1.526 . S
C1174 C1175 1.396 . S
C1174 C1179 1.390 . S
C1175 C1169 1.465 . S
C1175 C1174 1.396 . S
C1175 C1176 1.399 . S
C1176 H1162 0.929 . S
C1176 C1175 1.399 . S
C1176 C1177 1.385 . S
C1177 H1163 0.931 . S
C1177 C1176 1.385 . S
C1177 C1178 1.389 . S
C1178 C1177 1.389 . S
C1178 C1179 1.387 . S
C1179 H1164 0.930 . S
C1179 C1174 1.390 . S
C1179 C1178 1.387 . S
H1180 C1192 0.930 . S
H1181 C1194 0.930 1_655 S
H1182 C1195 0.930 . S
H1183 C1199 0.959 . S
H1184 C1199 0.959 . S
H1185 C1199 0.961 . S
H1186 C1200 0.960 . S
H1187 C1200 0.961 . S
H1188 C1200 0.959 . S
H1189 C1203 0.929 . S
H1190 C1204 0.931 . S
H1191 C1206 0.930 . S
C1192 H1180 0.930 . S
C1192 C1193 1.399 . S
C1192 C1197 1.399 . S
C1193 C1192 1.399 . S
C1193 C1194 1.376 . S
C1194 H1181 0.930 1_455 S
C1194 C1193 1.376 . S
C1194 C1195 1.388 1_455 S
C1195 H1182 0.930 . S
C1195 C1194 1.388 1_655 S
C1195 C1196 1.390 1_655 S
C1196 C1195 1.390 1_455 S
C1196 C1197 1.394 . S
C1196 C1202 1.465 . S
C1197 C1192 1.399 . S
C1197 C1196 1.394 . S
C1197 C1198 1.516 . S
C1198 C1197 1.516 . S
C1198 C1199 1.502 . S
C1198 C1200 1.561 . S
C1198 C1201 1.526 . S
C1199 H1183 0.959 . S
C1199 H1184 0.959 . S
C1199 H1185 0.961 . S
C1199 C1198 1.502 . S
C1200 H1186 0.960 . S
C1200 H1187 0.961 . S
C1200 H1188 0.959 . S
C1200 C1198 1.561 . S
C1201 C1198 1.526 . S
C1201 C1202 1.396 . S
C1201 C1206 1.390 . S
C1202 C1196 1.465 . S
C1202 C1201 1.396 . S
C1202 C1203 1.399 1_455 S
C1203 H1189 0.929 . S
C1203 C1202 1.399 1_655 S
C1203 C1204 1.385 . S
C1204 H1190 0.931 . S
C1204 C1203 1.385 . S
C1204 C1205 1.389 1_655 S
C1205 C1204 1.389 1_455 S
C1205 C1206 1.387 . S
C1206 H1191 0.930 . S
C1206 C1201 1.390 . S
C1206 C1205 1.387 . S
H1207 C1219 0.930 . S
H1208 C1221 0.930 . S
H1209 C1222 0.930 . S
H1210 C1226 0.959 . S
H1211 C1226 0.959 . S
H1212 C1226 0.961 . S
H1213 C1227 0.960 . S
H1214 C1227 0.961 . S
H1215 C1227 0.959 . S
H1216 C1230 0.929 . S
H1217 C1231 0.931 . S
H1218 C1233 0.930 . S
C1219 H1207 0.930 . S
C1219 C1220 1.399 . S
C1219 C1224 1.399 . S
C1220 C1219 1.399 . S
C1220 C1221 1.376 . S
C1221 H1208 0.930 . S
C1221 C1220 1.376 . S
C1221 C1222 1.388 . S
C1222 H1209 0.930 . S
C1222 C1221 1.388 . S
C1222 C1223 1.390 . S
C1223 C1222 1.390 . S
C1223 C1224 1.394 . S
C1223 C1229 1.465 . S
C1224 C1219 1.399 . S
C1224 C1223 1.394 . S
C1224 C1225 1.516 . S
C1225 C1224 1.516 . S
C1225 C1226 1.502 . S
C1225 C1227 1.561 . S
C1225 C1228 1.526 . S
C1226 H1210 0.959 . S
C1226 H1211 0.959 . S
C1226 H1212 0.961 . S
C1226 C1225 1.502 . S
C1227 H1213 0.960 . S
C1227 H1214 0.961 . S
C1227 H1215 0.959 . S
C1227 C1225 1.561 . S
C1228 C1225 1.526 . S
C1228 C1229 1.396 . S
C1228 C1233 1.390 . S
C1229 C1223 1.465 . S
C1229 C1228 1.396 . S
C1229 C1230 1.399 . S
C1230 H1216 0.929 . S
C1230 C1229 1.399 . S
C1230 C1231 1.385 . S
C1231 H1217 0.931 . S
C1231 C1230 1.385 . S
C1231 C1232 1.389 . S
C1232 C1231 1.389 . S
C1232 C1233 1.387 . S
C1233 H1218 0.930 . S
C1233 C1228 1.390 . S
C1233 C1232 1.387 . S
H1234 C1246 0.930 . S
H1235 C1248 0.930 . S
H1236 C1249 0.930 . S
H1237 C1253 0.959 . S
H1238 C1253 0.959 . S
H1239 C1253 0.961 . S
H1240 C1254 0.960 . S
H1241 C1254 0.961 . S
H1242 C1254 0.959 . S
H1243 C1257 0.929 . S
H1244 C1258 0.931 . S
H1245 C1260 0.930 . S
C1246 H1234 0.930 . S
C1246 C1247 1.399 . S
C1246 C1251 1.399 . S
C1247 C1246 1.399 . S
C1247 C1248 1.376 . S
C1248 H1235 0.930 . S
C1248 C1247 1.376 . S
C1248 C1249 1.388 . S
C1249 H1236 0.930 . S
C1249 C1248 1.388 . S
C1249 C1250 1.390 . S
C1250 C1249 1.390 . S
C1250 C1251 1.394 . S
C1250 C1256 1.465 . S
C1251 C1246 1.399 . S
C1251 C1250 1.394 . S
C1251 C1252 1.516 . S
C1252 C1251 1.516 . S
C1252 C1253 1.502 . S
C1252 C1254 1.561 . S
C1252 C1255 1.526 . S
C1253 H1237 0.959 . S
C1253 H1238 0.959 . S
C1253 H1239 0.961 . S
C1253 C1252 1.502 . S
C1254 H1240 0.960 . S
C1254 H1241 0.961 . S
C1254 H1242 0.959 . S
C1254 C1252 1.561 . S
C1255 C1252 1.526 . S
C1255 C1256 1.396 . S
C1255 C1260 1.390 . S
C1256 C1250 1.465 . S
C1256 C1255 1.396 . S
C1256 C1257 1.399 . S
C1257 H1243 0.929 . S
C1257 C1256 1.399 . S
C1257 C1258 1.385 . S
C1258 H1244 0.931 . S
C1258 C1257 1.385 . S
C1258 C1259 1.389 . S
C1259 C1258 1.389 . S
C1259 C1260 1.387 . S
C1260 H1245 0.930 . S
C1260 C1255 1.390 . S
C1260 C1259 1.387 . S
H1261 C1273 0.930 . S
H1262 C1275 0.930 . S
H1263 C1276 0.930 . S
H1264 C1280 0.959 . S
H1265 C1280 0.959 . S
H1266 C1280 0.961 . S
H1267 C1281 0.960 . S
H1268 C1281 0.961 . S
H1269 C1281 0.959 . S
H1270 C1284 0.929 . S
H1271 C1285 0.931 . S
H1272 C1287 0.930 . S
C1273 H1261 0.930 . S
C1273 C1274 1.399 . S
C1273 C1278 1.399 . S
C1274 C1273 1.399 . S
C1274 C1275 1.376 . S
C1275 H1262 0.930 . S
C1275 C1274 1.376 . S
C1275 C1276 1.388 . S
C1276 H1263 0.930 . S
C1276 C1275 1.388 . S
C1276 C1277 1.390 . S
C1277 C1276 1.390 . S
C1277 C1278 1.394 . S
C1277 C1283 1.465 . S
C1278 C1273 1.399 . S
C1278 C1277 1.394 . S
C1278 C1279 1.516 . S
C1279 C1278 1.516 . S
C1279 C1280 1.502 . S
C1279 C1281 1.561 . S
C1279 C1282 1.495 1_455 S
C1280 H1264 0.959 . S
C1280 H1265 0.959 . S
C1280 H1266 0.961 . S
C1280 C1279 1.502 . S
C1281 H1267 0.960 . S
C1281 H1268 0.961 . S
C1281 H1269 0.959 . S
C1281 C1279 1.561 . S
C1282 C1279 1.495 1_655 S
C1282 C1283 1.386 1_655 S
C1282 C1287 1.427 . S
C1283 C1277 1.465 . S
C1283 C1282 1.386 1_455 S
C1283 C1284 1.399 1_455 S
C1284 H1270 0.929 . S
C1284 C1283 1.399 1_655 S
C1284 C1285 1.385 . S
C1285 H1271 0.931 . S
C1285 C1284 1.385 . S
C1285 C1286 1.389 . S
C1286 C1285 1.389 . S
C1286 C1287 1.387 . S
C1287 H1272 0.930 . S
C1287 C1282 1.427 . S
C1287 C1286 1.387 . S
H1288 C1300 0.929 1_565 S
H1289 C1302 0.930 . S
H1290 C1303 0.930 . S
H1291 C1307 0.959 . S
H1292 C1307 0.959 . S
H1293 C1307 0.961 . S
H1294 C1308 0.960 . S
H1295 C1308 0.961 . S
H1296 C1308 0.959 . S
H1297 C1311 0.929 . S
H1298 C1312 0.931 . S
H1299 C1314 0.930 . S
C1300 H1288 0.929 1_545 S
C1300 C1301 1.399 . S
C1300 C1305 1.408 . S
C1301 C1300 1.399 . S
C1301 C1302 1.376 . S
C1302 H1289 0.930 . S
C1302 C1301 1.376 . S
C1302 C1303 1.388 . S
C1303 H1290 0.930 . S
C1303 C1302 1.388 . S
C1303 C1304 1.390 . S
C1304 C1303 1.390 . S
C1304 C1305 1.409 . S
C1304 C1310 1.465 1_554 S
C1305 C1300 1.408 . S
C1305 C1304 1.409 . S
C1305 C1306 1.493 1_545 S
C1306 C1305 1.493 1_565 S
C1306 C1307 1.502 . S
C1306 C1308 1.561 . S
C1306 C1309 1.526 1_554 S
C1307 H1291 0.959 . S
C1307 H1292 0.959 . S
C1307 H1293 0.961 . S
C1307 C1306 1.502 . S
C1308 H1294 0.960 . S
C1308 H1295 0.961 . S
C1308 H1296 0.959 . S
C1308 C1306 1.561 . S
C1309 C1306 1.526 1_556 S
C1309 C1310 1.396 1_565 S
C1309 C1314 1.390 . S
C1310 C1304 1.465 1_556 S
C1310 C1309 1.396 1_545 S
C1310 C1311 1.399 . S
C1311 H1297 0.929 . S
C1311 C1310 1.399 . S
C1311 C1312 1.385 1_545 S
C1312 H1298 0.931 . S
C1312 C1311 1.385 1_565 S
C1312 C1313 1.389 . S
C1313 C1312 1.389 . S
C1313 C1314 1.387 . S
C1314 H1299 0.930 . S
C1314 C1309 1.390 . S
C1314 C1313 1.387 . S
H1315 C1327 0.930 . S
H1316 C1329 0.930 . S
H1317 C1330 0.930 . S
H1318 C1334 0.959 . S
H1319 C1334 0.959 . S
H1320 C1334 0.961 . S
H1321 C1335 0.960 . S
H1322 C1335 0.961 . S
H1323 C1335 0.959 . S
H1324 C1338 0.929 . S
H1325 C1339 0.931 . S
H1326 C1341 0.930 . S
C1327 H1315 0.930 . S
C1327 C1328 1.399 . S
C1327 C1332 1.399 . S
C1328 C1327 1.399 . S
C1328 C1329 1.376 . S
C1329 H1316 0.930 . S
C1329 C1328 1.376 . S
C1329 C1330 1.388 . S
C1330 H1317 0.930 . S
C1330 C1329 1.388 . S
C1330 C1331 1.390 . S
C1331 C1330 1.390 . S
C1331 C1332 1.394 . S
C1331 C1337 1.465 . S
C1332 C1327 1.399 . S
C1332 C1331 1.394 . S
C1332 C1333 1.516 . S
C1333 C1332 1.516 . S
C1333 C1334 1.502 . S
C1333 C1335 1.561 . S
C1333 C1336 1.526 . S
C1334 H1318 0.959 . S
C1334 H1319 0.959 . S
C1334 H1320 0.961 . S
C1334 C1333 1.502 . S
C1335 H1321 0.960 . S
C1335 H1322 0.961 . S
C1335 H1323 0.959 . S
C1335 C1333 1.561 . S
C1336 C1333 1.526 . S
C1336 C1337 1.396 . S
C1336 C1341 1.390 . S
C1337 C1331 1.465 . S
C1337 C1336 1.396 . S
C1337 C1338 1.399 . S
C1338 H1324 0.929 . S
C1338 C1337 1.399 . S
C1338 C1339 1.385 . S
C1339 H1325 0.931 . S
C1339 C1338 1.385 . S
C1339 C1340 1.389 . S
C1340 C1339 1.389 . S
C1340 C1341 1.387 . S
C1341 H1326 0.930 . S
C1341 C1336 1.390 . S
C1341 C1340 1.387 . S
H1342 C1354 0.930 1_565 S
H1343 C1356 0.930 . S
H1344 C1357 0.930 . S
H1345 C1361 0.959 . S
H1346 C1361 0.959 . S
H1347 C1361 0.961 . S
H1348 C1362 0.960 . S
H1349 C1362 0.961 . S
H1350 C1362 0.959 . S
H1351 C1365 0.929 . S
H1352 C1366 0.931 1_545 S
H1353 C1368 0.930 . S
C1354 H1342 0.930 1_545 S
C1354 C1355 1.399 . S
C1354 C1359 1.400 . S
C1355 C1354 1.399 . S
C1355 C1356 1.376 . S
C1356 H1343 0.930 . S
C1356 C1355 1.376 . S
C1356 C1357 1.388 . S
C1357 H1344 0.930 . S
C1357 C1356 1.388 . S
C1357 C1358 1.390 . S
C1358 C1357 1.390 . S
C1358 C1359 1.396 . S
C1358 C1364 1.465 . S
C1359 C1354 1.400 . S
C1359 C1358 1.396 . S
C1359 C1360 1.513 1_545 S
C1360 C1359 1.513 1_565 S
C1360 C1361 1.502 . S
C1360 C1362 1.561 . S
C1360 C1363 1.526 . S
C1361 H1345 0.959 . S
C1361 H1346 0.959 . S
C1361 H1347 0.961 . S
C1361 C1360 1.502 . S
C1362 H1348 0.960 . S
C1362 H1349 0.961 . S
C1362 H1350 0.959 . S
C1362 C1360 1.561 . S
C1363 C1360 1.526 . S
C1363 C1364 1.396 1_565 S
C1363 C1368 1.390 . S
C1364 C1358 1.465 . S
C1364 C1363 1.396 1_545 S
C1364 C1365 1.399 . S
C1365 H1351 0.929 . S
C1365 C1364 1.399 . S
C1365 C1366 1.385 1_545 S
C1366 H1352 0.931 1_565 S
C1366 C1365 1.385 1_565 S
C1366 C1367 1.389 . S
C1367 C1366 1.389 . S
C1367 C1368 1.387 . S
C1368 H1353 0.930 . S
C1368 C1363 1.390 . S
C1368 C1367 1.387 . S
H1369 C1381 0.930 . S
H1370 C1383 0.930 . S
H1371 C1384 0.930 . S
H1372 C1388 0.959 . S
H1373 C1388 0.959 . S
H1374 C1388 0.961 . S
H1375 C1389 0.960 . S
H1376 C1389 0.961 . S
H1377 C1389 0.959 . S
H1378 C1392 0.929 . S
H1379 C1393 0.931 . S
H1380 C1395 0.930 . S
C1381 H1369 0.930 . S
C1381 C1382 1.399 . S
C1381 C1386 1.399 . S
C1382 C1381 1.399 . S
C1382 C1383 1.376 . S
C1383 H1370 0.930 . S
C1383 C1382 1.376 . S
C1383 C1384 1.388 . S
C1384 H1371 0.930 . S
C1384 C1383 1.388 . S
C1384 C1385 1.390 . S
C1385 C1384 1.390 . S
C1385 C1386 1.394 . S
C1385 C1391 1.465 . S
C1386 C1381 1.399 . S
C1386 C1385 1.394 . S
C1386 C1387 1.516 . S
C1387 C1386 1.516 . S
C1387 C1388 1.502 . S
C1387 C1389 1.561 . S
C1387 C1390 1.526 . S
C1388 H1372 0.959 . S
C1388 H1373 0.959 . S
C1388 H1374 0.961 . S
C1388 C1387 1.502 . S
C1389 H1375 0.960 . S
C1389 H1376 0.961 . S
C1389 H1377 0.959 . S
C1389 C1387 1.561 . S
C1390 C1387 1.526 . S
C1390 C1391 1.396 . S
C1390 C1395 1.390 . S
C1391 C1385 1.465 . S
C1391 C1390 1.396 . S
C1391 C1392 1.399 . S
C1392 H1378 0.929 . S
C1392 C1391 1.399 . S
C1392 C1393 1.385 . S
C1393 H1379 0.931 . S
C1393 C1392 1.385 . S
C1393 C1394 1.389 . S
C1394 C1393 1.389 . S
C1394 C1395 1.387 . S
C1395 H1380 0.930 . S
C1395 C1390 1.390 . S
C1395 C1394 1.387 . S
H1396 C1408 0.930 . S
H1397 C1410 0.930 . S
H1398 C1411 0.930 . S
H1399 C1415 0.959 . S
H1400 C1415 0.959 . S
H1401 C1415 0.961 . S
H1402 C1416 0.960 . S
H1403 C1416 0.961 . S
H1404 C1416 0.959 . S
H1405 C1419 0.929 . S
H1406 C1420 0.931 . S
H1407 C1422 0.930 . S
C1408 H1396 0.930 . S
C1408 C1409 1.399 . S
C1408 C1413 1.399 . S
C1409 C1408 1.399 . S
C1409 C1410 1.376 . S
C1410 H1397 0.930 . S
C1410 C1409 1.376 . S
C1410 C1411 1.388 . S
C1411 H1398 0.930 . S
C1411 C1410 1.388 . S
C1411 C1412 1.390 . S
C1412 C1411 1.390 . S
C1412 C1413 1.394 . S
C1412 C1418 1.465 . S
C1413 C1408 1.399 . S
C1413 C1412 1.394 . S
C1413 C1414 1.516 . S
C1414 C1413 1.516 . S
C1414 C1415 1.502 . S
C1414 C1416 1.561 . S
C1414 C1417 1.526 . S
C1415 H1399 0.959 . S
C1415 H1400 0.959 . S
C1415 H1401 0.961 . S
C1415 C1414 1.502 . S
C1416 H1402 0.960 . S
C1416 H1403 0.961 . S
C1416 H1404 0.959 . S
C1416 C1414 1.561 . S
C1417 C1414 1.526 . S
C1417 C1418 1.396 . S
C1417 C1422 1.390 . S
C1418 C1412 1.465 . S
C1418 C1417 1.396 . S
C1418 C1419 1.399 . S
C1419 H1405 0.929 . S
C1419 C1418 1.399 . S
C1419 C1420 1.385 . S
C1420 H1406 0.931 . S
C1420 C1419 1.385 . S
C1420 C1421 1.389 . S
C1421 C1420 1.389 . S
C1421 C1422 1.387 . S
C1422 H1407 0.930 . S
C1422 C1417 1.390 . S
C1422 C1421 1.387 . S
H1423 C1435 0.930 . S
H1424 C1437 0.930 . S
H1425 C1438 0.930 . S
H1426 C1442 0.959 . S
H1427 C1442 0.959 . S
H1428 C1442 0.961 . S
H1429 C1443 0.960 . S
H1430 C1443 0.961 . S
H1431 C1443 0.959 . S
H1432 C1446 0.929 . S
H1433 C1447 0.931 . S
H1434 C1449 0.930 . S
C1435 H1423 0.930 . S
C1435 C1436 1.399 . S
C1435 C1440 1.399 . S
C1436 C1435 1.399 . S
C1436 C1437 1.376 . S
C1437 H1424 0.930 . S
C1437 C1436 1.376 . S
C1437 C1438 1.388 . S
C1438 H1425 0.930 . S
C1438 C1437 1.388 . S
C1438 C1439 1.390 . S
C1439 C1438 1.390 . S
C1439 C1440 1.394 . S
C1439 C1445 1.465 . S
C1440 C1435 1.399 . S
C1440 C1439 1.394 . S
C1440 C1441 1.516 . S
C1441 C1440 1.516 . S
C1441 C1442 1.502 . S
C1441 C1443 1.561 . S
C1441 C1444 1.526 . S
C1442 H1426 0.959 . S
C1442 H1427 0.959 . S
C1442 H1428 0.961 . S
C1442 C1441 1.502 . S
C1443 H1429 0.960 . S
C1443 H1430 0.961 . S
C1443 H1431 0.959 . S
C1443 C1441 1.561 . S
C1444 C1441 1.526 . S
C1444 C1445 1.396 . S
C1444 C1449 1.390 . S
C1445 C1439 1.465 . S
C1445 C1444 1.396 . S
C1445 C1446 1.399 . S
C1446 H1432 0.929 . S
C1446 C1445 1.399 . S
C1446 C1447 1.385 . S
C1447 H1433 0.931 . S
C1447 C1446 1.385 . S
C1447 C1448 1.389 . S
C1448 C1447 1.389 . S
C1448 C1449 1.387 . S
C1449 H1434 0.930 . S
C1449 C1444 1.390 . S
C1449 C1448 1.387 . S
H1450 C1462 0.930 . S
H1451 C1464 0.930 . S
H1452 C1465 0.930 . S
H1453 C1469 0.959 . S
H1454 C1469 0.959 . S
H1455 C1469 0.961 . S
H1456 C1470 0.960 . S
H1457 C1470 0.961 . S
H1458 C1470 0.959 . S
H1459 C1473 0.929 . S
H1460 C1474 0.931 . S
H1461 C1476 0.930 . S
C1462 H1450 0.930 . S
C1462 C1463 1.399 . S
C1462 C1467 1.399 . S
C1463 C1462 1.399 . S
C1463 C1464 1.376 . S
C1464 H1451 0.930 . S
C1464 C1463 1.376 . S
C1464 C1465 1.388 . S
C1465 H1452 0.930 . S
C1465 C1464 1.388 . S
C1465 C1466 1.390 . S
C1466 C1465 1.390 . S
C1466 C1467 1.394 . S
C1466 C1472 1.465 . S
C1467 C1462 1.399 . S
C1467 C1466 1.394 . S
C1467 C1468 1.516 . S
C1468 C1467 1.516 . S
C1468 C1469 1.502 . S
C1468 C1470 1.561 . S
C1468 C1471 1.526 . S
C1469 H1453 0.959 . S
C1469 H1454 0.959 . S
C1469 H1455 0.961 . S
C1469 C1468 1.502 . S
C1470 H1456 0.960 . S
C1470 H1457 0.961 . S
C1470 H1458 0.959 . S
C1470 C1468 1.561 . S
C1471 C1468 1.526 . S
C1471 C1472 1.396 . S
C1471 C1476 1.390 . S
C1472 C1466 1.465 . S
C1472 C1471 1.396 . S
C1472 C1473 1.399 . S
C1473 H1459 0.929 . S
C1473 C1472 1.399 . S
C1473 C1474 1.385 . S
C1474 H1460 0.931 . S
C1474 C1473 1.385 . S
C1474 C1475 1.389 . S
C1475 C1474 1.389 . S
C1475 C1476 1.387 . S
C1476 H1461 0.930 . S
C1476 C1471 1.390 . S
C1476 C1475 1.387 . S
H1477 C1489 0.930 . S
H1478 C1491 0.930 . S
H1479 C1492 0.930 . S
H1480 C1496 0.959 . S
H1481 C1496 0.959 . S
H1482 C1496 0.961 . S
H1483 C1497 0.960 . S
H1484 C1497 0.961 . S
H1485 C1497 0.959 . S
H1486 C1500 0.929 1_556 S
H1487 C1501 0.931 . S
H1488 C1503 0.930 . S
C1489 H1477 0.930 . S
C1489 C1490 1.399 . S
C1489 C1494 1.399 . S
C1490 C1489 1.399 . S
C1490 C1491 1.376 1_455 S
C1491 H1478 0.930 . S
C1491 C1490 1.376 1_655 S
C1491 C1492 1.388 . S
C1492 H1479 0.930 . S
C1492 C1491 1.388 . S
C1492 C1493 1.397 . S
C1493 C1492 1.397 . S
C1493 C1494 1.385 1_655 S
C1493 C1499 1.465 1_556 S
C1494 C1489 1.399 . S
C1494 C1493 1.385 1_455 S
C1494 C1495 1.516 1_556 S
C1495 C1494 1.516 1_554 S
C1495 C1496 1.502 . S
C1495 C1497 1.561 1_455 S
C1495 C1498 1.526 . S
C1496 H1480 0.959 . S
C1496 H1481 0.959 . S
C1496 H1482 0.961 . S
C1496 C1495 1.502 . S
C1497 H1483 0.960 . S
C1497 H1484 0.961 . S
C1497 H1485 0.959 . S
C1497 C1495 1.561 1_655 S
C1498 C1495 1.526 . S
C1498 C1499 1.393 1_455 S
C1498 C1503 1.390 . S
C1499 C1493 1.465 1_554 S
C1499 C1498 1.393 1_655 S
C1499 C1500 1.401 . S
C1500 H1486 0.929 1_554 S
C1500 C1499 1.401 . S
C1500 C1501 1.385 . S
C1501 H1487 0.931 . S
C1501 C1500 1.385 . S
C1501 C1502 1.389 1_655 S
C1502 C1501 1.389 1_455 S
C1502 C1503 1.387 . S
C1503 H1488 0.930 . S
C1503 C1498 1.390 . S
C1503 C1502 1.387 . S
H1504 C1516 0.930 . S
H1505 C1518 0.930 . S
H1506 C1519 0.930 . S
H1507 C1523 0.959 . S
H1508 C1523 0.959 . S
H1509 C1523 0.961 . S
H1510 C1524 0.960 . S
H1511 C1524 0.961 . S
H1512 C1524 0.959 . S
H1513 C1527 0.929 . S
H1514 C1528 0.931 . S
H1515 C1530 0.930 . S
C1516 H1504 0.930 . S
C1516 C1517 1.399 . S
C1516 C1521 1.399 . S
C1517 C1516 1.399 . S
C1517 C1518 1.376 . S
C1518 H1505 0.930 . S
C1518 C1517 1.376 . S
C1518 C1519 1.388 . S
C1519 H1506 0.930 . S
C1519 C1518 1.388 . S
C1519 C1520 1.390 . S
C1520 C1519 1.390 . S
C1520 C1521 1.394 . S
C1520 C1526 1.465 . S
C1521 C1516 1.399 . S
C1521 C1520 1.394 . S
C1521 C1522 1.516 . S
C1522 C1521 1.516 . S
C1522 C1523 1.502 . S
C1522 C1524 1.561 . S
C1522 C1525 1.526 . S
C1523 H1507 0.959 . S
C1523 H1508 0.959 . S
C1523 H1509 0.961 . S
C1523 C1522 1.502 . S
C1524 H1510 0.960 . S
C1524 H1511 0.961 . S
C1524 H1512 0.959 . S
C1524 C1522 1.561 . S
C1525 C1522 1.526 . S
C1525 C1526 1.396 . S
C1525 C1530 1.390 . S
C1526 C1520 1.465 . S
C1526 C1525 1.396 . S
C1526 C1527 1.399 . S
C1527 H1513 0.929 . S
C1527 C1526 1.399 . S
C1527 C1528 1.385 . S
C1528 H1514 0.931 . S
C1528 C1527 1.385 . S
C1528 C1529 1.389 . S
C1529 C1528 1.389 . S
C1529 C1530 1.387 . S
C1530 H1515 0.930 . S
C1530 C1525 1.390 . S
C1530 C1529 1.387 . S
H1531 C1543 0.930 . S
H1532 C1545 0.930 . S
H1533 C1546 0.930 . S
H1534 C1550 0.959 . S
H1535 C1550 0.959 . S
H1536 C1550 0.961 . S
H1537 C1551 0.960 . S
H1538 C1551 0.961 . S
H1539 C1551 0.959 . S
H1540 C1554 0.929 . S
H1541 C1555 0.931 . S
H1542 C1557 0.930 . S
C1543 H1531 0.930 . S
C1543 C1544 1.399 . S
C1543 C1548 1.399 . S
C1544 C1543 1.399 . S
C1544 C1545 1.376 . S
C1545 H1532 0.930 . S
C1545 C1544 1.376 . S
C1545 C1546 1.388 . S
C1546 H1533 0.930 . S
C1546 C1545 1.388 . S
C1546 C1547 1.390 . S
C1547 C1546 1.390 . S
C1547 C1548 1.394 . S
C1547 C1553 1.465 . S
C1548 C1543 1.399 . S
C1548 C1547 1.394 . S
C1548 C1549 1.516 . S
C1549 C1548 1.516 . S
C1549 C1550 1.502 . S
C1549 C1551 1.561 . S
C1549 C1552 1.526 . S
C1550 H1534 0.959 . S
C1550 H1535 0.959 . S
C1550 H1536 0.961 . S
C1550 C1549 1.502 . S
C1551 H1537 0.960 . S
C1551 H1538 0.961 . S
C1551 H1539 0.959 . S
C1551 C1549 1.561 . S
C1552 C1549 1.526 . S
C1552 C1553 1.396 . S
C1552 C1557 1.390 . S
C1553 C1547 1.465 . S
C1553 C1552 1.396 . S
C1553 C1554 1.399 . S
C1554 H1540 0.929 . S
C1554 C1553 1.399 . S
C1554 C1555 1.385 . S
C1555 H1541 0.931 . S
C1555 C1554 1.385 . S
C1555 C1556 1.389 . S
C1556 C1555 1.389 . S
C1556 C1557 1.387 . S
C1557 H1542 0.930 . S
C1557 C1552 1.390 . S
C1557 C1556 1.387 . S
H1558 C1570 0.930 . S
H1559 C1572 0.930 . S
H1560 C1573 0.930 . S
H1561 C1577 0.959 . S
H1562 C1577 0.959 . S
H1563 C1577 0.961 . S
H1564 C1578 0.960 . S
H1565 C1578 0.961 . S
H1566 C1578 0.959 . S
H1567 C1581 0.929 . S
H1568 C1582 0.931 . S
H1569 C1584 0.930 . S
C1570 H1558 0.930 . S
C1570 C1571 1.399 . S
C1570 C1575 1.399 . S
C1571 C1570 1.399 . S
C1571 C1572 1.376 . S
C1572 H1559 0.930 . S
C1572 C1571 1.376 . S
C1572 C1573 1.388 . S
C1573 H1560 0.930 . S
C1573 C1572 1.388 . S
C1573 C1574 1.390 . S
C1574 C1573 1.390 . S
C1574 C1575 1.394 . S
C1574 C1580 1.465 . S
C1575 C1570 1.399 . S
C1575 C1574 1.394 . S
C1575 C1576 1.516 . S
C1576 C1575 1.516 . S
C1576 C1577 1.502 . S
C1576 C1578 1.561 . S
C1576 C1579 1.526 . S
C1577 H1561 0.959 . S
C1577 H1562 0.959 . S
C1577 H1563 0.961 . S
C1577 C1576 1.502 . S
C1578 H1564 0.960 . S
C1578 H1565 0.961 . S
C1578 H1566 0.959 . S
C1578 C1576 1.561 . S
C1579 C1576 1.526 . S
C1579 C1580 1.396 . S
C1579 C1584 1.390 . S
C1580 C1574 1.465 . S
C1580 C1579 1.396 . S
C1580 C1581 1.399 . S
C1581 H1567 0.929 . S
C1581 C1580 1.399 . S
C1581 C1582 1.385 . S
C1582 H1568 0.931 . S
C1582 C1581 1.385 . S
C1582 C1583 1.389 . S
C1583 C1582 1.389 . S
C1583 C1584 1.387 . S
C1584 H1569 0.930 . S
C1584 C1579 1.390 . S
C1584 C1583 1.387 . S
H1585 C1597 0.930 . S
H1586 C1599 0.930 . S
H1587 C1600 0.930 . S
H1588 C1604 0.959 . S
H1589 C1604 0.959 . S
H1590 C1604 0.961 . S
H1591 C1605 0.960 . S
H1592 C1605 0.961 . S
H1593 C1605 0.959 . S
H1594 C1608 0.929 . S
H1595 C1609 0.931 . S
H1596 C1611 0.930 . S
C1597 H1585 0.930 . S
C1597 C1598 1.399 . S
C1597 C1602 1.399 . S
C1598 C1597 1.399 . S
C1598 C1599 1.376 . S
C1599 H1586 0.930 . S
C1599 C1598 1.376 . S
C1599 C1600 1.388 . S
C1600 H1587 0.930 . S
C1600 C1599 1.388 . S
C1600 C1601 1.390 . S
C1601 C1600 1.390 . S
C1601 C1602 1.394 . S
C1601 C1607 1.465 . S
C1602 C1597 1.399 . S
C1602 C1601 1.394 . S
C1602 C1603 1.516 . S
C1603 C1602 1.516 . S
C1603 C1604 1.502 . S
C1603 C1605 1.561 . S
C1603 C1606 1.526 . S
C1604 H1588 0.959 . S
C1604 H1589 0.959 . S
C1604 H1590 0.961 . S
C1604 C1603 1.502 . S
C1605 H1591 0.960 . S
C1605 H1592 0.961 . S
C1605 H1593 0.959 . S
C1605 C1603 1.561 . S
C1606 C1603 1.526 . S
C1606 C1607 1.396 . S
C1606 C1611 1.390 . S
C1607 C1601 1.465 . S
C1607 C1606 1.396 . S
C1607 C1608 1.399 . S
C1608 H1594 0.929 . S
C1608 C1607 1.399 . S
C1608 C1609 1.385 . S
C1609 H1595 0.931 . S
C1609 C1608 1.385 . S
C1609 C1610 1.389 . S
C1610 C1609 1.389 . S
C1610 C1611 1.387 . S
C1611 H1596 0.930 . S
C1611 C1606 1.390 . S
C1611 C1610 1.387 . S
H1612 C1624 0.930 . S
H1613 C1626 0.930 . S
H1614 C1627 0.930 . S
H1615 C1631 0.959 . S
H1616 C1631 0.959 . S
H1617 C1631 0.961 . S
H1618 C1632 0.960 . S
H1619 C1632 0.961 . S
H1620 C1632 0.959 . S
H1621 C1635 0.929 . S
H1622 C1636 0.931 . S
H1623 C1638 0.930 . S
C1624 H1612 0.930 . S
C1624 C1625 1.399 . S
C1624 C1629 1.399 . S
C1625 C1624 1.399 . S
C1625 C1626 1.376 . S
C1626 H1613 0.930 . S
C1626 C1625 1.376 . S
C1626 C1627 1.388 . S
C1627 H1614 0.930 . S
C1627 C1626 1.388 . S
C1627 C1628 1.390 . S
C1628 C1627 1.390 . S
C1628 C1629 1.394 . S
C1628 C1634 1.465 . S
C1629 C1624 1.399 . S
C1629 C1628 1.394 . S
C1629 C1630 1.516 . S
C1630 C1629 1.516 . S
C1630 C1631 1.502 . S
C1630 C1632 1.561 . S
C1630 C1633 1.526 . S
C1631 H1615 0.959 . S
C1631 H1616 0.959 . S
C1631 H1617 0.961 . S
C1631 C1630 1.502 . S
C1632 H1618 0.960 . S
C1632 H1619 0.961 . S
C1632 H1620 0.959 . S
C1632 C1630 1.561 . S
C1633 C1630 1.526 . S
C1633 C1634 1.396 . S
C1633 C1638 1.390 . S
C1634 C1628 1.465 . S
C1634 C1633 1.396 . S
C1634 C1635 1.399 . S
C1635 H1621 0.929 . S
C1635 C1634 1.399 . S
C1635 C1636 1.385 . S
C1636 H1622 0.931 . S
C1636 C1635 1.385 . S
C1636 C1637 1.389 . S
C1637 C1636 1.389 . S
C1637 C1638 1.387 . S
C1638 H1623 0.930 . S
C1638 C1633 1.390 . S
C1638 C1637 1.387 . S
H1639 C1651 0.930 . S
H1640 C1653 0.930 . S
H1641 C1654 0.930 . S
H1642 C1658 0.959 . S
H1643 C1658 0.959 . S
H1644 C1658 0.961 . S
H1645 C1659 0.960 . S
H1646 C1659 0.961 . S
H1647 C1659 0.959 . S
H1648 C1662 0.929 . S
H1649 C1663 0.931 . S
H1650 C1665 0.930 . S
C1651 H1639 0.930 . S
C1651 C1652 1.399 . S
C1651 C1656 1.399 . S
C1652 C1651 1.399 . S
C1652 C1653 1.376 . S
C1653 H1640 0.930 . S
C1653 C1652 1.376 . S
C1653 C1654 1.388 . S
C1654 H1641 0.930 . S
C1654 C1653 1.388 . S
C1654 C1655 1.390 . S
C1655 C1654 1.390 . S
C1655 C1656 1.394 . S
C1655 C1661 1.465 . S
C1656 C1651 1.399 . S
C1656 C1655 1.394 . S
C1656 C1657 1.516 . S
C1657 C1656 1.516 . S
C1657 C1658 1.502 . S
C1657 C1659 1.561 . S
C1657 C1660 1.526 . S
C1658 H1642 0.959 . S
C1658 H1643 0.959 . S
C1658 H1644 0.961 . S
C1658 C1657 1.502 . S
C1659 H1645 0.960 . S
C1659 H1646 0.961 . S
C1659 H1647 0.959 . S
C1659 C1657 1.561 . S
C1660 C1657 1.526 . S
C1660 C1661 1.396 . S
C1660 C1665 1.390 . S
C1661 C1655 1.465 . S
C1661 C1660 1.396 . S
C1661 C1662 1.399 . S
C1662 H1648 0.929 . S
C1662 C1661 1.399 . S
C1662 C1663 1.385 . S
C1663 H1649 0.931 . S
C1663 C1662 1.385 . S
C1663 C1664 1.389 . S
C1664 C1663 1.389 . S
C1664 C1665 1.387 . S
C1665 H1650 0.930 . S
C1665 C1660 1.390 . S
C1665 C1664 1.387 . S
H1666 C1678 0.930 . S
H1667 C1680 0.930 . S
H1668 C1681 0.930 . S
H1669 C1685 0.959 . S
H1670 C1685 0.959 . S
H1671 C1685 0.961 . S
H1672 C1686 0.960 . S
H1673 C1686 0.961 . S
H1674 C1686 0.959 . S
H1675 C1689 0.929 . S
H1676 C1690 0.931 . S
H1677 C1692 0.930 . S
C1678 H1666 0.930 . S
C1678 C1679 1.399 . S
C1678 C1683 1.399 . S
C1679 C1678 1.399 . S
C1679 C1680 1.376 . S
C1680 H1667 0.930 . S
C1680 C1679 1.376 . S
C1680 C1681 1.388 . S
C1681 H1668 0.930 . S
C1681 C1680 1.388 . S
C1681 C1682 1.390 . S
C1682 C1681 1.390 . S
C1682 C1683 1.394 . S
C1682 C1688 1.465 . S
C1683 C1678 1.399 . S
C1683 C1682 1.394 . S
C1683 C1684 1.516 . S
C1684 C1683 1.516 . S
C1684 C1685 1.502 . S
C1684 C1686 1.561 . S
C1684 C1687 1.526 . S
C1685 H1669 0.959 . S
C1685 H1670 0.959 . S
C1685 H1671 0.961 . S
C1685 C1684 1.502 . S
C1686 H1672 0.960 . S
C1686 H1673 0.961 . S
C1686 H1674 0.959 . S
C1686 C1684 1.561 . S
C1687 C1684 1.526 . S
C1687 C1688 1.396 . S
C1687 C1692 1.390 . S
C1688 C1682 1.465 . S
C1688 C1687 1.396 . S
C1688 C1689 1.399 . S
C1689 H1675 0.929 . S
C1689 C1688 1.399 . S
C1689 C1690 1.385 . S
C1690 H1676 0.931 . S
C1690 C1689 1.385 . S
C1690 C1691 1.389 . S
C1691 C1690 1.389 . S
C1691 C1692 1.387 . S
C1692 H1677 0.930 . S
C1692 C1687 1.390 . S
C1692 C1691 1.387 . S
H1693 C1705 0.930 . S
H1694 C1707 0.930 . S
H1695 C1708 0.930 . S
H1696 C1712 0.959 . S
H1697 C1712 0.959 . S
H1698 C1712 0.961 . S
H1699 C1713 0.960 . S
H1700 C1713 0.961 . S
H1701 C1713 0.959 . S
H1702 C1716 0.929 . S
H1703 C1717 0.931 . S
H1704 C1719 0.930 . S
C1705 H1693 0.930 . S
C1705 C1706 1.399 . S
C1705 C1710 1.399 . S
C1706 C1705 1.399 . S
C1706 C1707 1.376 . S
C1707 H1694 0.930 . S
C1707 C1706 1.376 . S
C1707 C1708 1.388 . S
C1708 H1695 0.930 . S
C1708 C1707 1.388 . S
C1708 C1709 1.390 . S
C1709 C1708 1.390 . S
C1709 C1710 1.394 . S
C1709 C1715 1.465 . S
C1710 C1705 1.399 . S
C1710 C1709 1.394 . S
C1710 C1711 1.516 . S
C1711 C1710 1.516 . S
C1711 C1712 1.502 . S
C1711 C1713 1.561 . S
C1711 C1714 1.526 . S
C1712 H1696 0.959 . S
C1712 H1697 0.959 . S
C1712 H1698 0.961 . S
C1712 C1711 1.502 . S
C1713 H1699 0.960 . S
C1713 H1700 0.961 . S
C1713 H1701 0.959 . S
C1713 C1711 1.561 . S
C1714 C1711 1.526 . S
C1714 C1715 1.396 . S
C1714 C1719 1.390 . S
C1715 C1709 1.465 . S
C1715 C1714 1.396 . S
C1715 C1716 1.399 . S
C1716 H1702 0.929 . S
C1716 C1715 1.399 . S
C1716 C1717 1.385 . S
C1717 H1703 0.931 . S
C1717 C1716 1.385 . S
C1717 C1718 1.389 . S
C1718 C1717 1.389 . S
C1718 C1719 1.387 . S
C1719 H1704 0.930 . S
C1719 C1714 1.390 . S
C1719 C1718 1.387 . S
H1720 C1732 0.930 . S
H1721 C1734 0.930 . S
H1722 C1735 0.930 . S
H1723 C1739 0.959 . S
H1724 C1739 0.959 . S
H1725 C1739 0.961 . S
H1726 C1740 0.960 . S
H1727 C1740 0.961 . S
H1728 C1740 0.959 . S
H1729 C1743 0.929 . S
H1730 C1744 0.931 . S
H1731 C1746 0.930 . S
C1732 H1720 0.930 . S
C1732 C1733 1.399 . S
C1732 C1737 1.399 . S
C1733 C1732 1.399 . S
C1733 C1734 1.376 . S
C1734 H1721 0.930 . S
C1734 C1733 1.376 . S
C1734 C1735 1.388 . S
C1735 H1722 0.930 . S
C1735 C1734 1.388 . S
C1735 C1736 1.390 . S
C1736 C1735 1.390 . S
C1736 C1737 1.394 . S
C1736 C1742 1.465 . S
C1737 C1732 1.399 . S
C1737 C1736 1.394 . S
C1737 C1738 1.516 . S
C1738 C1737 1.516 . S
C1738 C1739 1.502 . S
C1738 C1740 1.561 . S
C1738 C1741 1.526 . S
C1739 H1723 0.959 . S
C1739 H1724 0.959 . S
C1739 H1725 0.961 . S
C1739 C1738 1.502 . S
C1740 H1726 0.960 . S
C1740 H1727 0.961 . S
C1740 H1728 0.959 . S
C1740 C1738 1.561 . S
C1741 C1738 1.526 . S
C1741 C1742 1.396 . S
C1741 C1746 1.390 . S
C1742 C1736 1.465 . S
C1742 C1741 1.396 . S
C1742 C1743 1.399 . S
C1743 H1729 0.929 . S
C1743 C1742 1.399 . S
C1743 C1744 1.385 . S
C1744 H1730 0.931 . S
C1744 C1743 1.385 . S
C1744 C1745 1.389 . S
C1745 C1744 1.389 . S
C1745 C1746 1.387 . S
C1746 H1731 0.930 . S
C1746 C1741 1.390 . S
C1746 C1745 1.387 . S
H1747 C1759 0.930 . S
H1748 C1761 0.930 . S
H1749 C1762 0.930 . S
H1750 C1766 0.959 . S
H1751 C1766 0.959 . S
H1752 C1766 0.961 . S
H1753 C1767 0.960 . S
H1754 C1767 0.961 . S
H1755 C1767 0.959 . S
H1756 C1770 0.929 . S
H1757 C1771 0.931 . S
H1758 C1773 0.930 . S
C1759 H1747 0.930 . S
C1759 C1760 1.399 . S
C1759 C1764 1.399 . S
C1760 C1759 1.399 . S
C1760 C1761 1.376 . S
C1761 H1748 0.930 . S
C1761 C1760 1.376 . S
C1761 C1762 1.388 . S
C1762 H1749 0.930 . S
C1762 C1761 1.388 . S
C1762 C1763 1.390 . S
C1763 C1762 1.390 . S
C1763 C1764 1.394 . S
C1763 C1769 1.465 . S
C1764 C1759 1.399 . S
C1764 C1763 1.394 . S
C1764 C1765 1.516 . S
C1765 C1764 1.516 . S
C1765 C1766 1.502 . S
C1765 C1767 1.561 . S
C1765 C1768 1.526 . S
C1766 H1750 0.959 . S
C1766 H1751 0.959 . S
C1766 H1752 0.961 . S
C1766 C1765 1.502 . S
C1767 H1753 0.960 . S
C1767 H1754 0.961 . S
C1767 H1755 0.959 . S
C1767 C1765 1.561 . S
C1768 C1765 1.526 . S
C1768 C1769 1.396 . S
C1768 C1773 1.390 . S
C1769 C1763 1.465 . S
C1769 C1768 1.396 . S
C1769 C1770 1.399 . S
C1770 H1756 0.929 . S
C1770 C1769 1.399 . S
C1770 C1771 1.385 . S
C1771 H1757 0.931 . S
C1771 C1770 1.385 . S
C1771 C1772 1.389 . S
C1772 C1771 1.389 . S
C1772 C1773 1.387 . S
C1773 H1758 0.930 . S
C1773 C1768 1.390 . S
C1773 C1772 1.387 . S
H1774 C1786 0.930 . S
H1775 C1788 0.930 . S
H1776 C1789 0.930 . S
H1777 C1793 0.959 . S
H1778 C1793 0.959 . S
H1779 C1793 0.961 . S
H1780 C1794 0.960 . S
H1781 C1794 0.961 . S
H1782 C1794 0.959 . S
H1783 C1797 0.929 . S
H1784 C1798 0.931 . S
H1785 C1800 0.930 . S
C1786 H1774 0.930 . S
C1786 C1787 1.399 . S
C1786 C1791 1.399 . S
C1787 C1786 1.399 . S
C1787 C1788 1.376 . S
C1788 H1775 0.930 . S
C1788 C1787 1.376 . S
C1788 C1789 1.388 . S
C1789 H1776 0.930 . S
C1789 C1788 1.388 . S
C1789 C1790 1.390 . S
C1790 C1789 1.390 . S
C1790 C1791 1.394 . S
C1790 C1796 1.465 . S
C1791 C1786 1.399 . S
C1791 C1790 1.394 . S
C1791 C1792 1.516 . S
C1792 C1791 1.516 . S
C1792 C1793 1.502 . S
C1792 C1794 1.561 . S
C1792 C1795 1.526 . S
C1793 H1777 0.959 . S
C1793 H1778 0.959 . S
C1793 H1779 0.961 . S
C1793 C1792 1.502 . S
C1794 H1780 0.960 . S
C1794 H1781 0.961 . S
C1794 H1782 0.959 . S
C1794 C1792 1.561 . S
C1795 C1792 1.526 . S
C1795 C1796 1.396 . S
C1795 C1800 1.390 . S
C1796 C1790 1.465 . S
C1796 C1795 1.396 . S
C1796 C1797 1.399 . S
C1797 H1783 0.929 . S
C1797 C1796 1.399 . S
C1797 C1798 1.385 . S
C1798 H1784 0.931 . S
C1798 C1797 1.385 . S
C1798 C1799 1.389 . S
C1799 C1798 1.389 . S
C1799 C1800 1.387 . S
C1800 H1785 0.930 . S
C1800 C1795 1.390 . S
C1800 C1799 1.387 . S
H1801 C1813 0.930 . S
H1802 C1815 0.930 . S
H1803 C1816 0.930 . S
H1804 C1820 0.959 . S
H1805 C1820 0.959 . S
H1806 C1820 0.961 . S
H1807 C1821 0.960 . S
H1808 C1821 0.961 . S
H1809 C1821 0.959 . S
H1810 C1824 0.929 . S
H1811 C1825 0.931 . S
H1812 C1827 0.930 . S
C1813 H1801 0.930 . S
C1813 C1814 1.399 . S
C1813 C1818 1.399 . S
C1814 C1813 1.399 . S
C1814 C1815 1.376 . S
C1815 H1802 0.930 . S
C1815 C1814 1.376 . S
C1815 C1816 1.388 . S
C1816 H1803 0.930 . S
C1816 C1815 1.388 . S
C1816 C1817 1.390 . S
C1817 C1816 1.390 . S
C1817 C1818 1.394 . S
C1817 C1823 1.465 . S
C1818 C1813 1.399 . S
C1818 C1817 1.394 . S
C1818 C1819 1.516 . S
C1819 C1818 1.516 . S
C1819 C1820 1.502 . S
C1819 C1821 1.561 . S
C1819 C1822 1.526 . S
C1820 H1804 0.959 . S
C1820 H1805 0.959 . S
C1820 H1806 0.961 . S
C1820 C1819 1.502 . S
C1821 H1807 0.960 . S
C1821 H1808 0.961 . S
C1821 H1809 0.959 . S
C1821 C1819 1.561 . S
C1822 C1819 1.526 . S
C1822 C1823 1.396 . S
C1822 C1827 1.390 . S
C1823 C1817 1.465 . S
C1823 C1822 1.396 . S
C1823 C1824 1.399 . S
C1824 H1810 0.929 . S
C1824 C1823 1.399 . S
C1824 C1825 1.385 . S
C1825 H1811 0.931 . S
C1825 C1824 1.385 . S
C1825 C1826 1.389 . S
C1826 C1825 1.389 . S
C1826 C1827 1.387 . S
C1827 H1812 0.930 . S
C1827 C1822 1.390 . S
C1827 C1826 1.387 . S
H1828 C1840 0.930 . S
H1829 C1842 0.930 . S
H1830 C1843 0.930 . S
H1831 C1847 0.959 . S
H1832 C1847 0.959 . S
H1833 C1847 0.961 . S
H1834 C1848 0.960 . S
H1835 C1848 0.961 . S
H1836 C1848 0.959 . S
H1837 C1851 0.929 . S
H1838 C1852 0.931 . S
H1839 C1854 0.930 . S
C1840 H1828 0.930 . S
C1840 C1841 1.399 . S
C1840 C1845 1.399 . S
C1841 C1840 1.399 . S
C1841 C1842 1.376 . S
C1842 H1829 0.930 . S
C1842 C1841 1.376 . S
C1842 C1843 1.388 . S
C1843 H1830 0.930 . S
C1843 C1842 1.388 . S
C1843 C1844 1.390 . S
C1844 C1843 1.390 . S
C1844 C1845 1.394 . S
C1844 C1850 1.465 . S
C1845 C1840 1.399 . S
C1845 C1844 1.394 . S
C1845 C1846 1.516 . S
C1846 C1845 1.516 . S
C1846 C1847 1.502 . S
C1846 C1848 1.561 . S
C1846 C1849 1.526 . S
C1847 H1831 0.959 . S
C1847 H1832 0.959 . S
C1847 H1833 0.961 . S
C1847 C1846 1.502 . S
C1848 H1834 0.960 . S
C1848 H1835 0.961 . S
C1848 H1836 0.959 . S
C1848 C1846 1.561 . S
C1849 C1846 1.526 . S
C1849 C1850 1.396 . S
C1849 C1854 1.390 . S
C1850 C1844 1.465 . S
C1850 C1849 1.396 . S
C1850 C1851 1.399 . S
C1851 H1837 0.929 . S
C1851 C1850 1.399 . S
C1851 C1852 1.385 . S
C1852 H1838 0.931 . S
C1852 C1851 1.385 . S
C1852 C1853 1.389 . S
C1853 C1852 1.389 . S
C1853 C1854 1.387 . S
C1854 H1839 0.930 . S
C1854 C1849 1.390 . S
C1854 C1853 1.387 . S
H1855 C1867 0.930 . S
H1856 C1869 0.930 . S
H1857 C1870 0.930 . S
H1858 C1874 0.959 . S
H1859 C1874 0.959 . S
H1860 C1874 0.961 . S
H1861 C1875 0.960 . S
H1862 C1875 0.961 . S
H1863 C1875 0.959 . S
H1864 C1878 0.929 . S
H1865 C1879 0.931 . S
H1866 C1881 0.930 . S
C1867 H1855 0.930 . S
C1867 C1868 1.399 . S
C1867 C1872 1.399 . S
C1868 C1867 1.399 . S
C1868 C1869 1.376 . S
C1869 H1856 0.930 . S
C1869 C1868 1.376 . S
C1869 C1870 1.388 . S
C1870 H1857 0.930 . S
C1870 C1869 1.388 . S
C1870 C1871 1.390 . S
C1871 C1870 1.390 . S
C1871 C1872 1.394 . S
C1871 C1877 1.465 . S
C1872 C1867 1.399 . S
C1872 C1871 1.394 . S
C1872 C1873 1.516 . S
C1873 C1872 1.516 . S
C1873 C1874 1.502 . S
C1873 C1875 1.561 . S
C1873 C1876 1.526 . S
C1874 H1858 0.959 . S
C1874 H1859 0.959 . S
C1874 H1860 0.961 . S
C1874 C1873 1.502 . S
C1875 H1861 0.960 . S
C1875 H1862 0.961 . S
C1875 H1863 0.959 . S
C1875 C1873 1.561 . S
C1876 C1873 1.526 . S
C1876 C1877 1.396 . S
C1876 C1881 1.390 . S
C1877 C1871 1.465 . S
C1877 C1876 1.396 . S
C1877 C1878 1.399 . S
C1878 H1864 0.929 . S
C1878 C1877 1.399 . S
C1878 C1879 1.385 . S
C1879 H1865 0.931 . S
C1879 C1878 1.385 . S
C1879 C1880 1.389 . S
C1880 C1879 1.389 . S
C1880 C1881 1.387 . S
C1881 H1866 0.930 . S
C1881 C1876 1.390 . S
C1881 C1880 1.387 . S
H1882 C1894 0.930 . S
H1883 C1896 0.930 . S
H1884 C1897 0.930 . S
H1885 C1901 0.959 . S
H1886 C1901 0.959 . S
H1887 C1901 0.961 . S
H1888 C1902 0.960 . S
H1889 C1902 0.961 . S
H1890 C1902 0.959 . S
H1891 C1905 0.929 . S
H1892 C1906 0.931 . S
H1893 C1908 0.930 . S
C1894 H1882 0.930 . S
C1894 C1895 1.399 . S
C1894 C1899 1.399 . S
C1895 C1894 1.399 . S
C1895 C1896 1.376 . S
C1896 H1883 0.930 . S
C1896 C1895 1.376 . S
C1896 C1897 1.388 . S
C1897 H1884 0.930 . S
C1897 C1896 1.388 . S
C1897 C1898 1.390 . S
C1898 C1897 1.390 . S
C1898 C1899 1.394 . S
C1898 C1904 1.465 . S
C1899 C1894 1.399 . S
C1899 C1898 1.394 . S
C1899 C1900 1.516 . S
C1900 C1899 1.516 . S
C1900 C1901 1.502 . S
C1900 C1902 1.561 . S
C1900 C1903 1.526 . S
C1901 H1885 0.959 . S
C1901 H1886 0.959 . S
C1901 H1887 0.961 . S
C1901 C1900 1.502 . S
C1902 H1888 0.960 . S
C1902 H1889 0.961 . S
C1902 H1890 0.959 . S
C1902 C1900 1.561 . S
C1903 C1900 1.526 . S
C1903 C1904 1.396 . S
C1903 C1908 1.390 . S
C1904 C1898 1.465 . S
C1904 C1903 1.396 . S
C1904 C1905 1.399 . S
C1905 H1891 0.929 . S
C1905 C1904 1.399 . S
C1905 C1906 1.385 . S
C1906 H1892 0.931 . S
C1906 C1905 1.385 . S
C1906 C1907 1.389 . S
C1907 C1906 1.389 . S
C1907 C1908 1.387 . S
C1908 H1893 0.930 . S
C1908 C1903 1.390 . S
C1908 C1907 1.387 . S
H1909 C1921 0.930 . S
H1910 C1923 0.930 . S
H1911 C1924 0.930 . S
H1912 C1928 0.959 . S
H1913 C1928 0.959 . S
H1914 C1928 0.961 . S
H1915 C1929 0.960 . S
H1916 C1929 0.961 . S
H1917 C1929 0.959 . S
H1918 C1932 0.929 . S
H1919 C1933 0.931 . S
H1920 C1935 0.930 . S
C1921 H1909 0.930 . S
C1921 C1922 1.399 . S
C1921 C1926 1.399 . S
C1922 C1921 1.399 . S
C1922 C1923 1.376 . S
C1923 H1910 0.930 . S
C1923 C1922 1.376 . S
C1923 C1924 1.388 . S
C1924 H1911 0.930 . S
C1924 C1923 1.388 . S
C1924 C1925 1.390 . S
C1925 C1924 1.390 . S
C1925 C1926 1.394 . S
C1925 C1931 1.465 . S
C1926 C1921 1.399 . S
C1926 C1925 1.394 . S
C1926 C1927 1.516 . S
C1927 C1926 1.516 . S
C1927 C1928 1.502 . S
C1927 C1929 1.561 . S
C1927 C1930 1.526 . S
C1928 H1912 0.959 . S
C1928 H1913 0.959 . S
C1928 H1914 0.961 . S
C1928 C1927 1.502 . S
C1929 H1915 0.960 . S
C1929 H1916 0.961 . S
C1929 H1917 0.959 . S
C1929 C1927 1.561 . S
C1930 C1927 1.526 . S
C1930 C1931 1.396 . S
C1930 C1935 1.390 . S
C1931 C1925 1.465 . S
C1931 C1930 1.396 . S
C1931 C1932 1.399 . S
C1932 H1918 0.929 . S
C1932 C1931 1.399 . S
C1932 C1933 1.385 . S
C1933 H1919 0.931 . S
C1933 C1932 1.385 . S
C1933 C1934 1.389 . S
C1934 C1933 1.389 . S
C1934 C1935 1.387 . S
C1935 H1920 0.930 . S
C1935 C1930 1.390 . S
C1935 C1934 1.387 . S
C653 C8 1.954 . S
C665 C288 2.033 . S
C680 C48 1.962 . S
C692 C168 2.018 . S
C707 C208 1.958 . S
C719 C88 2.024 . S
C734 C128 1.958 . S
C746 C248 2.034 . S
C761 C471 4.086 . S
C773 C191 4.086 1_654 S
C788 C351 4.073 . S
C800 C31 4.074 1_656 S
C815 C431 4.086 . S
C827 C271 4.086 . S
C842 C111 4.075 . S
C854 C391 4.081 . S
C869 C368 2.016 . S
C881 C488 1.985 . S
C896 C408 1.955 . S
C908 C568 2.029 . S
C923 C528 1.960 . S
C935 C328 2.033 . S
C950 C448 1.962 . S
C962 C608 2.032 . S
C977 C591 4.074 . S
C989 C151 4.080 . S
C1004 C511 4.084 . S
C1016 C231 4.079 . S
C1031 C71 4.080 . S
C1043 C631 4.085 1_554 S
C1058 C311 4.077 . S
C1070 C551 4.083 1_556 S
C1085 C537 0.456 . S
C1097 C17 0.508 . S
C1112 C457 0.460 . S
C1124 C57 0.535 . S
C1139 C497 0.623 . S
C1151 C97 0.542 . S
C1166 C417 0.460 . S
C1178 C137 0.533 . S
C1193 C177 0.618 . S
C1205 C617 0.534 . S
C1220 C377 0.639 . S
C1232 C217 0.597 . S
C1247 C257 0.639 . S
C1259 C577 0.598 . S
C1274 C297 0.459 . S
C1286 C337 0.529 . S
C1301 C2 1.451 . S
C1313 C162 1.518 . S
C1328 C42 1.508 . S
C1340 C202 1.455 . S
C1355 C242 1.449 . S
C1367 C82 1.533 . S
C1382 C122 1.502 . S
C1394 C282 1.459 . S
C1409 C402 1.491 . S
C1421 C322 1.545 . S
C1436 C442 1.501 . S
C1448 C362 1.459 . S
C1463 C482 1.449 . S
C1475 C562 1.531 . S
C1490 C602 1.550 . S
C1502 C522 1.472 . S
C1517 C12 4.584 . S
C1529 C292 4.591 . S
C1544 C52 4.597 . S
C1556 C172 4.593 . S
C1571 C212 4.590 1_556 S
C1583 C92 4.584 . S
C1598 C252 4.597 . S
C1610 C132 4.592 1_554 S
C1625 C469 0.653 . S
C1637 C189 0.697 . S
C1652 C349 0.566 . S
C1664 C29 0.791 . S
C1679 C429 0.792 . S
C1691 C269 0.573 . S
C1706 C109 0.644 . S
C1718 C389 0.746 . S
C1733 C492 4.577 . S
C1745 C372 4.579 1_556 S
C1760 C572 4.577 . S
C1772 C412 4.578 1_554 S
C1787 C532 4.592 . S
C1799 C332 4.586 . S
C1814 C612 4.591 . S
C1826 C452 4.585 . S
C1841 C589 0.565 . S
C1853 C149 0.782 . S
C1868 C229 0.792 . S
C1880 C509 0.564 . S
C1895 C69 0.772 . S
C1907 C629 0.611 . S
C1922 C549 0.659 . S
C1934 C309 0.734 . S
