# Generated by pormake.
# Topology wir, (6)-cn, num edge types: 1
# Building blocks:
#     Node 0, Type 0, BuildingBlock: FUNLAD_clean_sbu_0, # of connection points: 6
#     Node 1, Type 0, BuildingBlock: FUNLAD_clean_sbu_0, # of connection points: 6
#     Node 2, Type 0, BuildingBlock: FUNLAD_clean_sbu_0, # of connection points: 6
#     Node 3, Type 0, BuildingBlock: FUNLAD_clean_sbu_0, # of connection points: 6
#     Node 4, Type 0, BuildingBlock: FUNLAD_clean_sbu_0, # of connection points: 6
#     Node 5, Type 0, BuildingBlock: FUNLAD_clean_sbu_0, # of connection points: 6
#     Node 6, Type 0, BuildingBlock: FUNLAD_clean_sbu_0, # of connection points: 6
#     Node 7, Type 0, BuildingBlock: FUNLAD_clean_sbu_0, # of connection points: 6
#     Node 8, Type 0, BuildingBlock: FUNLAD_clean_sbu_0, # of connection points: 6
#     Node 9, Type 0, BuildingBlock: FUNLAD_clean_sbu_0, # of connection points: 6
#     Node 10, Type 0, BuildingBlock: FUNLAD_clean_sbu_0, # of connection points: 6
#     Node 11, Type 0, BuildingBlock: FUNLAD_clean_sbu_0, # of connection points: 6
#     Node 12, Type 0, BuildingBlock: FUNLAD_clean_sbu_0, # of connection points: 6
#     Node 13, Type 0, BuildingBlock: FUNLAD_clean_sbu_0, # of connection points: 6
#     Node 14, Type 0, BuildingBlock: FUNLAD_clean_sbu_0, # of connection points: 6
#     Node 15, Type 0, BuildingBlock: FUNLAD_clean_sbu_0, # of connection points: 6
#     Node 16, Type 0, BuildingBlock: FUNLAD_clean_sbu_0, # of connection points: 6
#     Node 17, Type 0, BuildingBlock: FUNLAD_clean_sbu_0, # of connection points: 6
#     Node 18, Type 0, BuildingBlock: FUNLAD_clean_sbu_0, # of connection points: 6
#     Node 19, Type 0, BuildingBlock: FUNLAD_clean_sbu_0, # of connection points: 6
#     Node 20, Type 0, BuildingBlock: FUNLAD_clean_sbu_0, # of connection points: 6
#     Node 21, Type 0, BuildingBlock: FUNLAD_clean_sbu_0, # of connection points: 6
#     Node 22, Type 0, BuildingBlock: FUNLAD_clean_sbu_0, # of connection points: 6
#     Node 23, Type 0, BuildingBlock: FUNLAD_clean_sbu_0, # of connection points: 6
#     Node 24, Type 0, BuildingBlock: FUNLAD_clean_sbu_0, # of connection points: 6
#     Node 25, Type 0, BuildingBlock: FUNLAD_clean_sbu_0, # of connection points: 6
#     Node 26, Type 0, BuildingBlock: FUNLAD_clean_sbu_0, # of connection points: 6
#     Node 27, Type 0, BuildingBlock: FUNLAD_clean_sbu_0, # of connection points: 6
#     Node 28, Type 0, BuildingBlock: FUNLAD_clean_sbu_0, # of connection points: 6
#     Node 29, Type 0, BuildingBlock: FUNLAD_clean_sbu_0, # of connection points: 6
#     Node 30, Type 0, BuildingBlock: FUNLAD_clean_sbu_0, # of connection points: 6
#     Node 31, Type 0, BuildingBlock: FUNLAD_clean_sbu_0, # of connection points: 6
#     Edge 32, Type (0, 0), BuildingBlock: XIVTED_clean_linker_0, # of connection points: 2
#     Edge 33, Type (0, 0), BuildingBlock: XIVTED_clean_linker_0, # of connection points: 2
#     Edge 34, Type (0, 0), BuildingBlock: XIVTED_clean_linker_0, # of connection points: 2
#     Edge 35, Type (0, 0), BuildingBlock: XIVTED_clean_linker_0, # of connection points: 2
#     Edge 36, Type (0, 0), BuildingBlock: XIVTED_clean_linker_0, # of connection points: 2
#     Edge 37, Type (0, 0), BuildingBlock: XIVTED_clean_linker_0, # of connection points: 2
#     Edge 38, Type (0, 0), BuildingBlock: XIVTED_clean_linker_0, # of connection points: 2
#     Edge 39, Type (0, 0), BuildingBlock: XIVTED_clean_linker_0, # of connection points: 2
#     Edge 40, Type (0, 0), BuildingBlock: XIVTED_clean_linker_0, # of connection points: 2
#     Edge 41, Type (0, 0), BuildingBlock: XIVTED_clean_linker_0, # of connection points: 2
#     Edge 42, Type (0, 0), BuildingBlock: XIVTED_clean_linker_0, # of connection points: 2
#     Edge 43, Type (0, 0), BuildingBlock: XIVTED_clean_linker_0, # of connection points: 2
#     Edge 44, Type (0, 0), BuildingBlock: XIVTED_clean_linker_0, # of connection points: 2
#     Edge 45, Type (0, 0), BuildingBlock: XIVTED_clean_linker_0, # of connection points: 2
#     Edge 46, Type (0, 0), BuildingBlock: XIVTED_clean_linker_0, # of connection points: 2
#     Edge 47, Type (0, 0), BuildingBlock: XIVTED_clean_linker_0, # of connection points: 2
#     Edge 48, Type (0, 0), BuildingBlock: XIVTED_clean_linker_0, # of connection points: 2
#     Edge 49, Type (0, 0), BuildingBlock: XIVTED_clean_linker_0, # of connection points: 2
#     Edge 50, Type (0, 0), BuildingBlock: XIVTED_clean_linker_0, # of connection points: 2
#     Edge 51, Type (0, 0), BuildingBlock: XIVTED_clean_linker_0, # of connection points: 2
#     Edge 52, Type (0, 0), BuildingBlock: XIVTED_clean_linker_0, # of connection points: 2
#     Edge 53, Type (0, 0), BuildingBlock: XIVTED_clean_linker_0, # of connection points: 2
#     Edge 54, Type (0, 0), BuildingBlock: XIVTED_clean_linker_0, # of connection points: 2
#     Edge 55, Type (0, 0), BuildingBlock: XIVTED_clean_linker_0, # of connection points: 2
#     Edge 56, Type (0, 0), BuildingBlock: XIVTED_clean_linker_0, # of connection points: 2
#     Edge 57, Type (0, 0), BuildingBlock: XIVTED_clean_linker_0, # of connection points: 2
#     Edge 58, Type (0, 0), BuildingBlock: XIVTED_clean_linker_0, # of connection points: 2
#     Edge 59, Type (0, 0), BuildingBlock: XIVTED_clean_linker_0, # of connection points: 2
#     Edge 60, Type (0, 0), BuildingBlock: XIVTED_clean_linker_0, # of connection points: 2
#     Edge 61, Type (0, 0), BuildingBlock: XIVTED_clean_linker_0, # of connection points: 2
#     Edge 62, Type (0, 0), BuildingBlock: XIVTED_clean_linker_0, # of connection points: 2
#     Edge 63, Type (0, 0), BuildingBlock: XIVTED_clean_linker_0, # of connection points: 2
#     Edge 64, Type (0, 0), BuildingBlock: XIVTED_clean_linker_0, # of connection points: 2
#     Edge 65, Type (0, 0), BuildingBlock: XIVTED_clean_linker_0, # of connection points: 2
#     Edge 66, Type (0, 0), BuildingBlock: XIVTED_clean_linker_0, # of connection points: 2
#     Edge 67, Type (0, 0), BuildingBlock: XIVTED_clean_linker_0, # of connection points: 2
#     Edge 68, Type (0, 0), BuildingBlock: XIVTED_clean_linker_0, # of connection points: 2
#     Edge 69, Type (0, 0), BuildingBlock: XIVTED_clean_linker_0, # of connection points: 2
#     Edge 70, Type (0, 0), BuildingBlock: XIVTED_clean_linker_0, # of connection points: 2
#     Edge 71, Type (0, 0), BuildingBlock: XIVTED_clean_linker_0, # of connection points: 2
#     Edge 72, Type (0, 0), BuildingBlock: XIVTED_clean_linker_0, # of connection points: 2
#     Edge 73, Type (0, 0), BuildingBlock: XIVTED_clean_linker_0, # of connection points: 2
#     Edge 74, Type (0, 0), BuildingBlock: XIVTED_clean_linker_0, # of connection points: 2
#     Edge 75, Type (0, 0), BuildingBlock: XIVTED_clean_linker_0, # of connection points: 2
#     Edge 76, Type (0, 0), BuildingBlock: XIVTED_clean_linker_0, # of connection points: 2
#     Edge 77, Type (0, 0), BuildingBlock: XIVTED_clean_linker_0, # of connection points: 2
#     Edge 78, Type (0, 0), BuildingBlock: XIVTED_clean_linker_0, # of connection points: 2
#     Edge 79, Type (0, 0), BuildingBlock: XIVTED_clean_linker_0, # of connection points: 2
#     Edge 80, Type (0, 0), BuildingBlock: XIVTED_clean_linker_0, # of connection points: 2
#     Edge 81, Type (0, 0), BuildingBlock: XIVTED_clean_linker_0, # of connection points: 2
#     Edge 82, Type (0, 0), BuildingBlock: XIVTED_clean_linker_0, # of connection points: 2
#     Edge 83, Type (0, 0), BuildingBlock: XIVTED_clean_linker_0, # of connection points: 2
#     Edge 84, Type (0, 0), BuildingBlock: XIVTED_clean_linker_0, # of connection points: 2
#     Edge 85, Type (0, 0), BuildingBlock: XIVTED_clean_linker_0, # of connection points: 2
#     Edge 86, Type (0, 0), BuildingBlock: XIVTED_clean_linker_0, # of connection points: 2
#     Edge 87, Type (0, 0), BuildingBlock: XIVTED_clean_linker_0, # of connection points: 2
#     Edge 88, Type (0, 0), BuildingBlock: XIVTED_clean_linker_0, # of connection points: 2
#     Edge 89, Type (0, 0), BuildingBlock: XIVTED_clean_linker_0, # of connection points: 2
#     Edge 90, Type (0, 0), BuildingBlock: XIVTED_clean_linker_0, # of connection points: 2
#     Edge 91, Type (0, 0), BuildingBlock: XIVTED_clean_linker_0, # of connection points: 2
#     Edge 92, Type (0, 0), BuildingBlock: XIVTED_clean_linker_0, # of connection points: 2
#     Edge 93, Type (0, 0), BuildingBlock: XIVTED_clean_linker_0, # of connection points: 2
#     Edge 94, Type (0, 0), BuildingBlock: XIVTED_clean_linker_0, # of connection points: 2
#     Edge 95, Type (0, 0), BuildingBlock: XIVTED_clean_linker_0, # of connection points: 2
#     Edge 96, Type (0, 0), BuildingBlock: XIVTED_clean_linker_0, # of connection points: 2
#     Edge 97, Type (0, 0), BuildingBlock: XIVTED_clean_linker_0, # of connection points: 2
#     Edge 98, Type (0, 0), BuildingBlock: XIVTED_clean_linker_0, # of connection points: 2
#     Edge 99, Type (0, 0), BuildingBlock: XIVTED_clean_linker_0, # of connection points: 2
#     Edge 100, Type (0, 0), BuildingBlock: XIVTED_clean_linker_0, # of connection points: 2
#     Edge 101, Type (0, 0), BuildingBlock: XIVTED_clean_linker_0, # of connection points: 2
#     Edge 102, Type (0, 0), BuildingBlock: XIVTED_clean_linker_0, # of connection points: 2
#     Edge 103, Type (0, 0), BuildingBlock: XIVTED_clean_linker_0, # of connection points: 2
#     Edge 104, Type (0, 0), BuildingBlock: XIVTED_clean_linker_0, # of connection points: 2
#     Edge 105, Type (0, 0), BuildingBlock: XIVTED_clean_linker_0, # of connection points: 2
#     Edge 106, Type (0, 0), BuildingBlock: XIVTED_clean_linker_0, # of connection points: 2
#     Edge 107, Type (0, 0), BuildingBlock: XIVTED_clean_linker_0, # of connection points: 2
#     Edge 108, Type (0, 0), BuildingBlock: XIVTED_clean_linker_0, # of connection points: 2
#     Edge 109, Type (0, 0), BuildingBlock: XIVTED_clean_linker_0, # of connection points: 2
#     Edge 110, Type (0, 0), BuildingBlock: XIVTED_clean_linker_0, # of connection points: 2
#     Edge 111, Type (0, 0), BuildingBlock: XIVTED_clean_linker_0, # of connection points: 2
#     Edge 112, Type (0, 0), BuildingBlock: XIVTED_clean_linker_0, # of connection points: 2
#     Edge 113, Type (0, 0), BuildingBlock: XIVTED_clean_linker_0, # of connection points: 2
#     Edge 114, Type (0, 0), BuildingBlock: XIVTED_clean_linker_0, # of connection points: 2
#     Edge 115, Type (0, 0), BuildingBlock: XIVTED_clean_linker_0, # of connection points: 2
#     Edge 116, Type (0, 0), BuildingBlock: XIVTED_clean_linker_0, # of connection points: 2
#     Edge 117, Type (0, 0), BuildingBlock: XIVTED_clean_linker_0, # of connection points: 2
#     Edge 118, Type (0, 0), BuildingBlock: XIVTED_clean_linker_0, # of connection points: 2
#     Edge 119, Type (0, 0), BuildingBlock: XIVTED_clean_linker_0, # of connection points: 2
#     Edge 120, Type (0, 0), BuildingBlock: XIVTED_clean_linker_0, # of connection points: 2
#     Edge 121, Type (0, 0), BuildingBlock: XIVTED_clean_linker_0, # of connection points: 2
#     Edge 122, Type (0, 0), BuildingBlock: XIVTED_clean_linker_0, # of connection points: 2
#     Edge 123, Type (0, 0), BuildingBlock: XIVTED_clean_linker_0, # of connection points: 2
#     Edge 124, Type (0, 0), BuildingBlock: XIVTED_clean_linker_0, # of connection points: 2
#     Edge 125, Type (0, 0), BuildingBlock: XIVTED_clean_linker_0, # of connection points: 2
#     Edge 126, Type (0, 0), BuildingBlock: XIVTED_clean_linker_0, # of connection points: 2
#     Edge 127, Type (0, 0), BuildingBlock: XIVTED_clean_linker_0, # of connection points: 2
# Relax obj value: 0.764
# Max RMSD: 0.213
# Mean RMSD: 0.213
data_MOF--net-wir--node1-FUNLAD_clean_sbu_0--edge1-XIVTED_clean_linker_0
_symmetry_space_group_name_H-M    P1
_symmetry_Int_Tables_number       1
_symmetry_cell_setting            triclinic
loop_
_symmetry_equiv_pos_as_xyz
'x, y, z'
_cell_length_a     47.579493
_cell_length_b     47.599345
_cell_length_c     69.548923
_cell_angle_alpha  89.930098
_cell_angle_beta   89.934887
_cell_angle_gamma 90.009548
loop_
_atom_site_label
_atom_site_type_symbol
_atom_site_fract_x
_atom_site_fract_y
_atom_site_fract_z
_atom_type_partial_charge
C0 C 0.16367 0.11563 0.30303 0.0
N1 N 0.20733 0.14512 0.35126 0.0
C2 C 0.20892 0.11729 0.35541 0.0
C3 C 0.23409 0.106 0.36197 0.0
C4 C 0.25747 0.12366 0.36427 0.0
C5 C 0.25438 0.15266 0.36179 0.0
C6 C 0.22887 0.16304 0.35516 0.0
Zn7 Zn 0.17666 0.15908 0.33397 0.0
C8 C 0.20266 0.19452 0.3017 0.0
N9 N 0.11673 0.19104 0.29498 0.0
C10 C 0.09891 0.17368 0.28535 0.0
C11 C 0.11939 0.21853 0.29006 0.0
C12 C 0.10406 0.22956 0.27484 0.0
C13 C 0.08596 0.21212 0.26425 0.0
C14 C 0.0833 0.18382 0.2698 0.0
Zn15 Zn 0.14514 0.1759 0.31411 0.0
O16 O 0.17911 0.12024 0.3176 0.0
C17 C 0.11849 0.14617 0.34792 0.0
O18 O 0.14756 0.13551 0.29743 0.0
H19 H 0.13406 0.23187 0.29761 0.0
H20 H 0.1914 0.10357 0.35228 0.0
H21 H 0.09732 0.1518 0.28938 0.0
O22 O 0.14414 0.14108 0.35197 0.0
O23 O 0.11279 0.15908 0.33233 0.0
H24 H 0.2271 0.1851 0.35165 0.0
O25 O 0.14294 0.21486 0.33167 0.0
O26 O 0.17378 0.19564 0.35087 0.0
O27 O 0.1771 0.19495 0.29661 0.0
O28 O 0.20918 0.17971 0.31629 0.0
C29 C 0.15767 0.21607 0.347 0.0
H30 H 0.23571 0.08353 0.36422 0.0
H31 H 0.27202 0.16683 0.36352 0.0
H32 H 0.1062 0.25172 0.27164 0.0
H33 H 0.06957 0.16959 0.26213 0.0
C34 C 0.17186 0.91766 0.5555 0.0
N35 N 0.13429 0.96019 0.603 0.0
C36 C 0.15861 0.95925 0.61315 0.0
C37 C 0.164 0.97953 0.62708 0.0
C38 C 0.14416 1.00086 0.63038 0.0
C39 C 0.11927 1.00128 0.61974 0.0
C40 C 0.11467 0.98052 0.6061 0.0
Zn41 Zn 0.12471 0.93001 0.58398 0.0
C42 C 0.09227 0.95326 0.55131 0.0
N43 N 0.10006 0.86655 0.54539 0.0
C44 C 0.11842 0.84883 0.53654 0.0
C45 C 0.07297 0.86882 0.53944 0.0
C46 C 0.06341 0.85325 0.52392 0.0
C47 C 0.08183 0.83505 0.51424 0.0
C48 C 0.10964 0.83267 0.52085 0.0
Zn49 Zn 0.11242 0.89518 0.56527 0.0
O50 O 0.16606 0.93355 0.56976 0.0
C51 C 0.13939 0.87145 0.59981 0.0
O52 O 0.15301 0.90033 0.54998 0.0
H53 H 0.05879 0.88327 0.54647 0.0
H54 H 0.17374 0.94276 0.61046 0.0
H55 H 0.13997 0.84763 0.54139 0.0
O56 O 0.14011 0.89768 0.60357 0.0
O57 O 0.13068 0.86364 0.58334 0.0
H58 H 0.09522 0.98058 0.5981 0.0
O59 O 0.07327 0.88949 0.58162 0.0
O60 O 0.08498 0.92676 0.59802 0.0
O61 O 0.09183 0.9271 0.54766 0.0
O62 O 0.10721 0.96158 0.56529 0.0
C63 C 0.06762 0.90716 0.59482 0.0
H64 H 0.18373 0.97895 0.63483 0.0
H65 H 0.10358 1.01744 0.62196 0.0
H66 H 0.04154 0.8551 0.51981 0.0
H67 H 0.12442 0.81865 0.51392 0.0
C68 C 0.37144 0.91968 0.80406 0.0
N69 N 0.32584 0.88654 0.85083 0.0
C70 C 0.32519 0.91388 0.85635 0.0
C71 C 0.3002 0.92556 0.86286 0.0
C72 C 0.27597 0.9088 0.86372 0.0
C73 C 0.2779 0.88004 0.85984 0.0
C74 C 0.30332 0.86924 0.85327 0.0
Zn75 Zn 0.35737 0.87366 0.83388 0.0
C76 C 0.33465 0.84029 0.8008 0.0
N77 N 0.42122 0.8469 0.79619 0.0
C78 C 0.43835 0.86493 0.78649 0.0
C79 C 0.4197 0.81929 0.79138 0.0
C80 C 0.43529 0.80889 0.77609 0.0
C81 C 0.45252 0.82705 0.76535 0.0
C82 C 0.45428 0.85538 0.77089 0.0
Zn83 Zn 0.39166 0.86076 0.81498 0.0
O84 O 0.35659 0.91461 0.81892 0.0
C85 C 0.41482 0.88859 0.84982 0.0
O86 O 0.38737 0.90005 0.79795 0.0
H87 H 0.40559 0.80539 0.79901 0.0
H88 H 0.34346 0.92708 0.85435 0.0
H89 H 0.43901 0.88688 0.79042 0.0
O90 O 0.38864 0.88901 0.85381 0.0
O91 O 0.42254 0.88008 0.83324 0.0
H92 H 0.30441 0.84756 0.84873 0.0
O93 O 0.396 0.82272 0.83286 0.0
O94 O 0.3583 0.8347 0.84892 0.0
O95 O 0.36085 0.83937 0.79737 0.0
O96 O 0.32631 0.85579 0.81454 0.0
C97 C 0.3781 0.81735 0.84605 0.0
H98 H 0.29942 0.94779 0.86618 0.0
H99 H 0.25955 0.86659 0.86048 0.0
H100 H 0.43396 0.78668 0.77289 0.0
H101 H 0.46745 0.87008 0.76312 0.0
C102 C 0.36637 0.12036 0.05446 0.0
N103 N 0.40047 0.07826 0.10308 0.0
C104 C 0.3756 0.07909 0.11263 0.0
C105 C 0.36991 0.05926 0.12684 0.0
C106 C 0.39005 0.03856 0.13109 0.0
C107 C 0.41547 0.03825 0.12103 0.0
C108 C 0.42032 0.05847 0.10705 0.0
Zn109 Zn 0.41115 0.10811 0.08406 0.0
C110 C 0.4457 0.08345 0.05204 0.0
N111 N 0.44018 0.16984 0.04528 0.0
C112 C 0.4223 0.18732 0.03577 0.0
C113 C 0.46757 0.16748 0.03998 0.0
C114 C 0.47797 0.18283 0.02456 0.0
C115 C 0.46006 0.20071 1.01417 0.0
C116 C 0.43186 0.20305 1.02006 0.0
Zn117 Zn 0.42659 0.14156 0.06511 0.0
O118 O 0.37128 0.10398 0.0686 0.0
C119 C 0.39714 0.16668 0.09877 0.0
O120 O 0.38574 0.13758 0.04952 0.0
H121 H 0.48134 0.15309 0.04743 0.0
H122 H 0.36033 0.0952 0.10929 0.0
H123 H 0.4005 0.18861 0.04008 0.0
O124 O 0.39396 0.14063 0.10252 0.0
O125 O 0.40883 0.17371 0.08298 0.0
H126 H 0.44022 0.05854 0.09956 0.0
O127 O 0.4661 0.1457 0.08184 0.0
O128 O 0.4489 0.11228 0.09977 0.0
O129 O 0.44634 0.10936 0.04769 0.0
O130 O 0.43063 0.07603 0.06627 0.0
C131 C 0.46842 0.12969 0.09647 0.0
H132 H 0.34978 0.05972 0.13413 0.0
H133 H 0.43142 0.0226 0.12398 0.0
H134 H 0.50008 0.18095 1.02108 0.0
H135 H 0.41732 0.21667 1.01255 0.0
C136 C 0.16353 0.91928 0.24233 0.0
N137 N 0.20896 0.89036 0.19425 0.0
C138 C 0.21012 0.91839 0.19071 0.0
C139 C 0.23534 0.9305 0.18494 0.0
C140 C 0.25914 0.9134 0.1827 0.0
C141 C 0.25651 0.88425 0.18433 0.0
C142 C 0.23098 0.87306 0.19026 0.0
Zn143 Zn 0.17877 0.87523 0.21151 0.0
C144 C 0.20524 0.84234 0.24395 0.0
N145 N 0.11952 0.84185 0.2505 0.0
C146 C 0.09766 0.85578 0.25867 0.0
C147 C 0.12736 0.81599 0.25684 0.0
C148 C 0.11426 0.80378 0.27256 0.0
C149 C 0.0912 0.81713 0.28124 0.0
C150 C 0.08278 0.84351 0.2739 0.0
Zn151 Zn 0.14663 0.8594 0.23134 0.0
O152 O 0.17935 0.91443 0.22793 0.0
C153 C 0.11996 0.88732 0.19729 0.0
O154 O 0.14735 0.89947 0.24802 0.0
H155 H 0.14467 0.80502 0.25015 0.0
H156 H 0.19224 0.93162 0.19389 0.0
H157 H 0.09196 0.87646 0.25352 0.0
O158 O 0.14585 0.89138 0.19333 0.0
O159 O 0.11353 0.87548 0.21319 0.0
H160 H 0.22961 0.85084 0.19334 0.0
O161 O 0.14583 0.82031 0.21392 0.0
O162 O 0.17756 0.8384 0.19489 0.0
O163 O 0.17963 0.84219 0.24884 0.0
O164 O 0.212 0.85637 0.2291 0.0
C165 C 0.16121 0.81825 0.19893 0.0
H166 H 0.23667 0.95311 0.18333 0.0
H167 H 0.27451 0.87054 0.18261 0.0
H168 H 0.12245 0.78399 0.27774 0.0
H169 H 0.06474 0.85454 0.2796 0.0
C170 C 0.36669 0.91692 0.49203 0.0
N171 N 0.40161 0.95903 0.44361 0.0
C172 C 0.3768 0.95821 0.43402 0.0
C173 C 0.37097 0.97837 0.42007 0.0
C174 C 0.39081 0.99949 0.41624 0.0
C175 C 0.41614 0.9999 0.42636 0.0
C176 C 0.42127 0.97915 0.43995 0.0
Zn177 Zn 0.4119 0.92867 0.46237 0.0
C178 C 0.44673 0.95194 0.49465 0.0
N179 N 0.43883 0.86557 0.50073 0.0
C180 C 0.42027 0.84832 0.50984 0.0
C181 C 0.46608 0.86724 0.5064 0.0
C182 C 0.47561 0.85149 0.52188 0.0
C183 C 0.45693 0.83389 0.5319 0.0
C184 C 0.42893 0.83219 0.52558 0.0
Zn185 Zn 0.4262 0.89452 0.48113 0.0
O186 O 0.37199 0.93341 0.47801 0.0
C187 C 0.39648 0.87067 0.44724 0.0
O188 O 0.38562 0.89916 0.49677 0.0
H189 H 0.48041 0.88142 0.4992 0.0
H190 H 0.36166 0.94188 0.43713 0.0
H191 H 0.39859 0.84755 0.50521 0.0
O192 O 0.39404 0.89685 0.4437 0.0
O193 O 0.4078 0.86308 0.46301 0.0
H194 H 0.44116 0.97901 0.44743 0.0
O195 O 0.46556 0.88973 0.46441 0.0
O196 O 0.44972 0.9239 0.44653 0.0
O197 O 0.44662 0.92596 0.49884 0.0
O198 O 0.43209 0.95996 0.48039 0.0
C199 C 0.4686 0.90578 0.44985 0.0
H200 H 0.35094 0.97787 0.41268 0.0
H201 H 0.43177 1.01601 0.42372 0.0
H202 H 0.49762 0.85284 0.52571 0.0
H203 H 0.41385 0.81876 0.53278 0.0
C204 C 0.37126 0.11591 0.74277 0.0
N205 N 0.32606 0.14618 0.69507 0.0
C206 C 0.32403 0.1183 0.69121 0.0
C207 C 0.29844 0.1071 0.68539 0.0
C208 C 0.27515 0.12493 0.68341 0.0
C209 C 0.27857 0.15392 0.68553 0.0
C210 C 0.30445 0.1642 0.69154 0.0
Zn211 Zn 0.35753 0.15995 0.71177 0.0
C212 C 0.33329 0.19492 0.74439 0.0
N213 N 0.41956 0.19038 0.7498 0.0
C214 C 0.43717 0.17306 0.75968 0.0
C215 C 0.41738 0.21807 0.75428 0.0
C216 C 0.43285 0.2293 0.76933 0.0
C217 C 0.45059 0.21191 0.78024 0.0
C218 C 0.45295 0.18345 0.77508 0.0
Zn219 Zn 0.39044 0.1753 0.73113 0.0
O220 O 0.35604 0.12047 0.72806 0.0
C221 C 0.41513 0.14577 0.69676 0.0
O222 O 0.38739 0.13575 0.74834 0.0
H223 H 0.40286 0.2314 0.74657 0.0
H224 H 0.34159 0.10448 0.69404 0.0
H225 H 0.43837 0.15102 0.75603 0.0
O226 O 0.38911 0.14294 0.6928 0.0
O227 O 0.42203 0.15681 0.7128 0.0
H228 H 0.30652 0.18628 0.69488 0.0
O229 O 0.39322 0.21378 0.71314 0.0
O230 O 0.35949 0.19706 0.69519 0.0
O231 O 0.35917 0.19557 0.7487 0.0
O232 O 0.32587 0.17977 0.73022 0.0
C233 C 0.3771 0.2164 0.69857 0.0
H234 H 0.29647 0.0846 0.68344 0.0
H235 H 0.26095 0.16817 0.68401 0.0
H236 H 0.43099 0.25157 0.77223 0.0
H237 H 0.46646 0.16927 0.783 0.0
C238 C 0.1708 0.12086 0.99232 0.0
N239 N 0.13566 0.07877 0.94409 0.0
C240 C 0.16037 0.08014 0.93435 0.0
C241 C 0.1666 0.06003 0.92046 0.0
C242 C 0.14723 0.03841 0.9168 0.0
C243 C 0.12191 0.03759 0.92697 0.0
C244 C 0.11643 0.05823 0.94054 0.0
Zn245 Zn 0.12488 0.1084 0.96327 0.0
C246 C 0.0918 0.08366 0.99566 0.0
N247 N 0.09708 0.17011 1.00248 0.0
C248 C 0.11474 0.18784 1.01194 0.0
C249 C 0.06972 0.16747 1.00779 0.0
C250 C 0.05906 0.1829 0.02305 0.0
C251 C 0.0767 0.20116 0.03333 0.0
C252 C 0.10493 0.20367 0.02752 0.0
Zn253 Zn 0.11064 0.14216 0.98243 0.0
O254 O 0.16527 0.10464 0.97823 0.0
C255 C 0.1383 0.16759 0.94844 0.0
O256 O 0.1518 0.13826 0.99758 0.0
H257 H 0.05611 0.15285 1.00043 0.0
H258 H 0.17518 0.09679 0.93738 0.0
H259 H 0.13655 0.18933 1.00765 0.0
O260 O 0.14155 0.14155 0.94463 0.0
O261 O 0.12715 0.17448 0.96441 0.0
H262 H 0.09663 0.05786 0.94816 0.0
O263 O 0.07128 0.14644 0.9662 0.0
O264 O 0.08589 0.11176 0.94829 0.0
O265 O 0.09148 0.10958 0.99998 0.0
O266 O 0.10636 0.07612 0.98124 0.0
C267 C 0.06718 0.12983 0.95213 0.0
H268 H 0.1866 0.06091 0.91302 0.0
H269 H 0.10657 0.02119 0.92444 0.0
H270 H 0.03695 0.18083 0.02645 0.0
H271 H 0.11929 0.21754 0.03496 0.0
C272 C 0.87938 0.81927 0.69931 0.0
N273 N 0.92217 0.84447 0.75043 0.0
C274 C 0.91921 0.81711 0.75564 0.0
C275 C 0.93453 0.80622 0.77091 0.0
C276 C 0.95285 0.82367 0.7813 0.0
C277 C 0.95589 0.85178 0.77542 0.0
C278 C 0.94035 0.86177 0.75979 0.0
Zn279 Zn 0.89336 0.85967 0.73157 0.0
C280 C 0.91869 0.88925 0.69755 0.0
N281 N 0.82975 0.89058 0.69572 0.0
C282 C 0.80804 0.87287 0.6918 0.0
C283 C 0.82825 0.9185 0.6919 0.0
C284 C 0.80306 0.9301 0.68567 0.0
C285 C 0.77952 0.91265 0.68338 0.0
C286 C 0.78246 0.88358 0.68551 0.0
Zn287 Zn 0.86072 0.87638 0.71262 0.0
O288 O 0.89417 0.82044 0.71459 0.0
C289 C 0.83589 0.84122 0.74492 0.0
O290 O 0.8637 0.83999 0.69527 0.0
H291 H 0.8459 0.93204 0.69505 0.0
H292 H 0.90423 0.80382 0.74834 0.0
H293 H 0.80978 0.85072 0.69502 0.0
O294 O 0.86154 0.84151 0.74991 0.0
O295 O 0.82891 0.85528 0.73013 0.0
H296 H 0.9422 0.88354 0.75554 0.0
O297 O 0.8576 0.91464 0.72986 0.0
O298 O 0.89258 0.90043 0.74757 0.0
O299 O 0.8929 0.89518 0.69448 0.0
O300 O 0.92512 0.87546 0.71264 0.0
C301 C 0.87487 0.91964 0.74337 0.0
H302 H 0.9321 0.78416 0.77435 0.0
H303 H 0.96979 0.86604 0.78292 0.0
H304 H 0.80156 0.95263 0.68367 0.0
H305 H 0.76471 0.86956 0.68374 0.0
C306 C 0.96813 0.12741 0.44967 0.0
N307 N 0.93995 0.17081 0.49961 0.0
C308 C 0.96769 0.16903 0.50405 0.0
C309 C 0.9787 0.18452 0.51917 0.0
C310 C 0.96102 0.20188 0.53015 0.0
C311 C 0.93252 0.20388 0.525 0.0
C312 C 0.92236 0.18806 0.50955 0.0
Zn313 Zn 0.92536 0.14149 0.48091 0.0
C314 C 0.8972 0.16495 0.4463 0.0
N315 N 0.89838 0.07597 0.44537 0.0
C316 C 0.91563 0.05345 0.44291 0.0
C317 C 0.87091 0.07525 0.44015 0.0
C318 C 0.85906 0.05016 0.434 0.0
C319 C 0.8758 0.02591 0.43324 0.0
C320 C 0.90467 0.02793 0.43675 0.0
Zn321 Zn 0.91175 0.10733 0.46221 0.0
O322 O 0.96314 0.14552 0.46275 0.0
C323 C 0.94537 0.0842 0.49494 0.0
O324 O 0.95051 0.10782 0.447 0.0
H325 H 0.85775 0.09354 0.44216 0.0
H326 H 0.98125 0.15481 0.49627 0.0
H327 H 0.93742 0.05457 0.44723 0.0
O328 O 0.94675 0.11037 0.49829 0.0
O329 O 0.92942 0.07603 0.48142 0.0
H330 H 0.90029 0.18891 0.50592 0.0
O331 O 0.87108 0.1069 0.4774 0.0
O332 O 0.88631 0.13742 0.49828 0.0
O333 O 0.8965 0.13879 0.44236 0.0
O334 O 0.906 0.17262 0.4628 0.0
C335 C 0.86644 0.12167 0.49233 0.0
H336 H 1.001 0.18297 0.52207 0.0
H337 H 0.91816 0.21713 0.53297 0.0
H338 H 0.83676 0.04933 0.43093 0.0
H339 H 0.91813 1.0096 0.43619 0.0
C340 C 0.65795 0.21721 0.20054 0.0
N341 N 0.61797 0.18628 0.25109 0.0
C342 C 0.61931 0.21354 0.25677 0.0
C343 C 0.60319 0.22294 0.27211 0.0
C344 C 0.58557 0.20411 0.282 0.0
C345 C 0.5844 0.17605 0.27576 0.0
C346 C 0.60086 0.16754 0.26015 0.0
Zn347 Zn 0.64668 0.17398 0.23123 0.0
C348 C 0.62193 0.14589 0.19677 0.0
N349 N 0.71025 0.15029 0.19274 0.0
C350 C 0.73048 0.17005 0.18966 0.0
C351 C 0.70916 0.12626 0.18226 0.0
C352 C 0.72916 0.12139 0.16801 0.0
C353 C 0.75035 0.1414 0.16475 0.0
C354 C 0.75097 0.16591 0.17574 0.0
Zn355 Zn 0.68008 0.15991 0.21184 0.0
O356 O 0.64129 0.21348 0.2147 0.0
C357 C 0.70426 0.19361 0.24453 0.0
O358 O 0.67635 0.19863 0.19726 0.0
H359 H 0.69272 0.11104 0.1849 0.0
H360 H 0.63339 0.228 0.24962 0.0
H361 H 0.73057 0.18935 0.19782 0.0
O362 O 0.67825 0.19439 0.24856 0.0
O363 O 0.71202 0.17835 0.23049 0.0
H364 H 0.60037 0.14587 0.25552 0.0
O365 O 0.6834 0.11889 0.22602 0.0
O366 O 0.65233 0.13337 0.24698 0.0
O367 O 0.64801 0.14413 0.19273 0.0
O368 O 0.61476 0.15557 0.21315 0.0
C369 C 0.66854 0.11385 0.24092 0.0
H370 H 0.60419 0.24497 0.27588 0.0
H371 H 0.57105 0.16083 0.28289 0.0
H372 H 0.72847 0.10194 0.15995 0.0
H373 H 0.76707 0.1817 0.17355 0.0
C374 C 0.56836 0.90615 0.94978 0.0
N375 N 0.59739 0.86621 1.00085 0.0
C376 C 0.57001 0.86834 1.00621 0.0
C377 C 0.55979 0.85284 1.02162 0.0
C378 C 0.5779 0.83508 0.03196 0.0
C379 C 0.6061 0.83305 0.02604 0.0
C380 C 0.61546 0.84889 1.01032 0.0
Zn381 Zn 0.61065 0.89445 0.98088 0.0
C382 C 0.63974 0.86921 0.94714 0.0
N383 N 0.636 0.95771 0.94254 0.0
C384 C 0.61633 0.97782 0.93893 0.0
C385 C 0.66058 0.95664 0.93264 0.0
C386 C 0.66619 0.9766 0.91849 0.0
C387 C 0.64632 0.99773 0.91474 0.0
C388 C 0.62118 0.99827 0.9251 0.0
Zn389 Zn 0.6256 0.92789 0.96171 0.0
O390 O 0.57103 0.89004 0.96433 0.0
C391 C 0.59145 0.95258 0.9939 0.0
O392 O 0.5877 0.92371 0.94638 0.0
H393 H 0.67572 0.94029 0.93569 0.0
H394 H 0.55608 0.88262 0.99879 0.0
H395 H 0.5966 0.9779 0.94664 0.0
O396 O 0.59088 0.92668 0.99829 0.0
O397 O 0.60639 0.96 0.97961 0.0
H398 H 0.63725 0.84778 1.00597 0.0
O399 O 0.66559 0.93214 0.97683 0.0
O400 O 0.65162 0.89875 0.99627 0.0
O401 O 0.64255 0.89525 0.94321 0.0
O402 O 0.62842 0.86226 0.96307 0.0
C403 C 0.6708 0.916 0.99104 0.0
H404 H 0.53767 0.8545 0.02512 0.0
H405 H 0.6208 0.81956 0.03351 0.0
H406 H 0.68609 0.97598 0.91092 0.0
H407 H 0.60548 1.01433 0.92252 0.0
C408 C 0.87886 0.21586 0.84845 0.0
N409 N 0.92106 0.19086 0.79696 0.0
C410 C 0.91819 0.21819 0.79168 0.0
C411 C 0.9333 0.22884 0.7762 0.0
C412 C 0.95132 0.21117 0.7657 0.0
C413 C 0.95432 0.18311 0.7717 0.0
C414 C 0.93901 0.17338 0.78752 0.0
Zn415 Zn 0.8923 0.17581 0.81594 0.0
C416 C 0.91781 0.14592 0.84977 0.0
N417 N 0.82883 0.14489 0.85198 0.0
C418 C 0.80739 0.16288 0.85598 0.0
C419 C 0.82683 0.11693 0.85557 0.0
C420 C 0.80136 0.10564 0.86157 0.0
C421 C 0.77808 0.12344 0.86387 0.0
C422 C 0.78155 0.1525 0.86205 0.0
Zn423 Zn 0.85982 0.15891 0.83497 0.0
O424 O 0.89351 0.21497 0.83306 0.0
C425 C 0.83477 0.19445 0.80287 0.0
O426 O 0.86314 0.19512 0.85237 0.0
H427 H 0.84428 0.10316 0.85234 0.0
H428 H 0.90341 0.23162 0.79907 0.0
H429 H 0.8095 0.18506 0.85292 0.0
O430 O 0.8604 0.19431 0.79778 0.0
O431 O 0.82794 0.18018 0.81762 0.0
H432 H 0.94081 0.15163 0.79184 0.0
O433 O 0.85639 0.1208 0.81772 0.0
O434 O 0.8912 0.13505 0.79982 0.0
O435 O 0.89205 0.13991 0.85295 0.0
O436 O 0.92412 0.15979 0.83468 0.0
C437 C 0.8735 0.11584 0.80409 0.0
H438 H 0.93094 0.25087 0.77268 0.0
H439 H 0.96801 0.16871 0.76413 0.0
H440 H 0.79945 0.08311 0.86336 0.0
H441 H 0.76402 0.16678 0.86383 0.0
C442 C 0.5683 0.12971 0.59611 0.0
N443 N 0.59721 0.1692 0.54483 0.0
C444 C 0.57005 0.16696 0.53903 0.0
C445 C 0.56034 0.18257 0.52351 0.0
C446 C 0.57876 0.20053 0.51355 0.0
C447 C 0.60674 0.20256 0.5199 0.0
C448 C 0.61555 0.18666 0.5357 0.0
Zn449 Zn 0.6103 0.14113 0.56488 0.0
C450 C 0.63902 0.1676 0.59877 0.0
N451 N 0.63714 0.07949 0.60388 0.0
C452 C 0.61767 0.05923 0.60766 0.0
C453 C 0.66187 0.08074 0.61355 0.0
C454 C 0.66788 0.0608 0.62762 0.0
C455 C 0.64825 0.03948 0.63152 0.0
C456 C 0.62293 0.03877 0.62141 0.0
Zn457 Zn 0.62643 0.10902 0.58461 0.0
O458 O 0.57038 0.14492 0.58107 0.0
C459 C 0.59233 0.08324 0.55222 0.0
O460 O 0.58833 0.11319 0.60005 0.0
H461 H 0.67686 0.09719 0.61035 0.0
H462 H 0.55593 0.15257 0.5462 0.0
H463 H 0.59784 0.05899 0.60011 0.0
O464 O 0.59168 0.10897 0.5475 0.0
O465 O 0.60703 0.07632 0.56676 0.0
H466 H 0.63716 0.18786 0.54042 0.0
O467 O 0.66658 0.10528 0.56975 0.0
O468 O 0.65148 0.13694 0.54943 0.0
O469 O 0.64351 0.14182 0.6027 0.0
O470 O 0.62673 0.17378 0.58305 0.0
C471 C 0.67124 0.12068 0.55508 0.0
H472 H 0.53836 0.18087 0.51968 0.0
H473 H 0.62169 0.21615 0.51272 0.0
H474 H 0.6879 0.06157 0.63501 0.0
H475 H 0.60742 0.02257 0.62412 0.0
C476 C 0.6597 0.81461 0.34395 0.0
N477 N 0.62037 0.84436 0.29368 0.0
C478 C 0.62774 0.81888 0.28645 0.0
C479 C 0.61426 0.80799 0.27046 0.0
C480 C 0.59105 0.82204 0.26255 0.0
C481 C 0.58331 0.84815 0.27066 0.0
C482 C 0.59871 0.85923 0.28605 0.0
Zn483 Zn 0.64699 0.85941 0.31415 0.0
C484 C 0.62034 0.88473 0.34829 0.0
N485 N 0.70893 0.88337 0.35372 0.0
C486 C 0.72988 0.86457 0.35723 0.0
C487 C 0.7065 0.90753 0.36395 0.0
C488 C 0.72598 0.91367 0.37828 0.0
C489 C 0.74801 0.89473 0.38192 0.0
C490 C 0.7498 0.8699 0.3713 0.0
Zn491 Zn 0.68032 0.8724 0.33392 0.0
O492 O 0.64243 0.81995 0.33044 0.0
C493 C 0.70655 0.84208 0.30148 0.0
O494 O 0.67856 0.83252 0.34768 0.0
H495 H 0.68951 0.92198 0.36095 0.0
H496 H 0.64462 0.80693 0.29283 0.0
H497 H 0.73114 0.84521 0.34918 0.0
O498 O 0.68063 0.84127 0.29745 0.0
O499 O 0.71408 0.85658 0.31588 0.0
H500 H 0.59332 0.87956 0.29193 0.0
O501 O 0.68179 0.91413 0.32009 0.0
O502 O 0.65131 0.89994 0.2986 0.0
O503 O 0.64634 0.88591 0.35268 0.0
O504 O 0.61351 0.87619 0.33155 0.0
C505 C 0.66716 0.91945 0.30511 0.0
H506 H 0.62211 0.78845 0.26469 0.0
H507 H 0.56526 0.85978 0.2656 0.0
H508 H 0.72433 0.93333 0.38602 0.0
H509 H 0.76651 0.85487 0.37378 0.0
C510 C 0.96531 0.90816 0.09835 0.0
N511 N 0.94026 0.86547 0.04708 0.0
C512 C 0.96793 0.86785 0.04253 0.0
C513 C 0.97922 0.85252 0.02741 0.0
C514 C 0.96189 0.83473 1.01653 0.0
C515 C 0.93347 0.83208 1.02181 0.0
C516 C 0.92303 0.84772 0.03727 0.0
Zn517 Zn 0.92505 0.89481 0.06557 0.0
C518 C 0.89422 0.87103 0.09945 0.0
N519 N 0.89565 0.96015 0.10068 0.0
C520 C 0.91393 0.98145 0.10443 0.0
C521 C 0.86769 0.96264 0.10418 0.0
C522 C 0.85675 0.98837 0.1099 0.0
C523 C 0.87489 1.01143 0.11204 0.0
C524 C 0.9039 1.00752 0.11023 0.0
Zn525 Zn 0.90941 0.92845 0.08425 0.0
O526 O 0.96345 0.89251 0.08351 0.0
C527 C 0.94542 0.95182 0.05209 0.0
O528 O 0.94563 0.92542 0.10169 0.0
H529 H 0.85368 0.94531 0.10116 0.0
H530 H 0.98119 0.88247 0.05018 0.0
H531 H 0.93609 0.97897 0.10142 0.0
O532 O 0.9453 0.92597 0.04761 0.0
O533 O 0.93069 0.95945 0.0664 0.0
H534 H 0.901 0.84636 0.04099 0.0
O535 O 0.87104 0.93144 0.06684 0.0
O536 O 0.88537 0.89696 0.0487 0.0
O537 O 0.89061 0.89714 0.10286 0.0
O538 O 0.90669 0.86375 0.084 0.0
C539 C 0.86621 0.91466 0.053 0.0
H540 H 1.00146 0.85458 0.02442 0.0
H541 H 0.91936 0.81849 1.01392 0.0
H542 H 0.83424 0.99061 0.11169 0.0
H543 H 0.91844 0.02487 0.11188 0.0
C544 C 0.66633 0.61577 0.80279 0.0
N545 N 0.71174 0.64587 0.85036 0.0
C546 C 0.71368 0.61801 0.85429 0.0
C547 C 0.73912 0.6068 0.86037 0.0
C548 C 0.76247 0.62458 0.86242 0.0
C549 C 0.75913 0.65358 0.86013 0.0
C550 C 0.73332 0.66388 0.85397 0.0
Zn551 Zn 0.68017 0.65953 0.83375 0.0
C552 C 0.70362 0.69496 0.80134 0.0
N553 N 0.61714 0.68964 0.7964 0.0
C554 C 0.59933 0.67212 0.78689 0.0
C555 C 0.61942 0.71717 0.79148 0.0
C556 C 0.60389 0.72801 0.7763 0.0
C557 C 0.58599 0.71035 0.76574 0.0
C558 C 0.58352 0.68207 0.77138 0.0
Zn559 Zn 0.64648 0.67486 0.81502 0.0
O560 O 0.68312 0.62076 0.81662 0.0
C561 C 0.62259 0.64484 0.84926 0.0
O562 O 0.6486 0.63488 0.79844 0.0
H563 H 0.63408 0.73067 0.79892 0.0
H564 H 0.69613 0.60422 0.85137 0.0
H565 H 0.59803 0.65021 0.79092 0.0
O566 O 0.64873 0.64121 0.85258 0.0
O567 O 0.61525 0.65695 0.83368 0.0
H568 H 0.73125 0.68598 0.85064 0.0
O569 O 0.64428 0.71359 0.83257 0.0
O570 O 0.67732 0.69618 0.85086 0.0
O571 O 0.67776 0.6948 0.79688 0.0
O572 O 0.71126 0.6804 0.81574 0.0
C573 C 0.66006 0.71581 0.84733 0.0
H574 H 0.74092 0.58432 0.86251 0.0
H575 H 0.77672 0.66783 0.8617 0.0
H576 H 0.60583 0.75017 0.77304 0.0
H577 H 0.56989 0.6677 0.76375 0.0
C578 C 0.67062 0.41513 0.05491 0.0
N579 N 0.63358 0.4579 0.10211 0.0
C580 C 0.65859 0.45793 0.1115 0.0
C581 C 0.66598 0.48084 0.12283 0.0
C582 C 0.64747 0.50367 0.12416 0.0
C583 C 0.62145 0.50268 0.11501 0.0
C584 C 0.61472 0.47923 0.10413 0.0
Zn585 Zn 0.62355 0.42711 0.08374 0.0
C586 C 0.59102 0.45034 0.05069 0.0
N587 N 0.59879 0.36401 0.04507 0.0
C588 C 0.61723 0.3472 0.0355 0.0
C589 C 0.57129 0.36535 0.03994 0.0
C590 C 0.56137 0.34978 0.02452 0.0
C591 C 0.57987 0.33266 1.01403 0.0
C592 C 0.60813 0.33117 1.01983 0.0
Zn593 Zn 0.61141 0.39299 0.06465 0.0
O594 O 0.66527 0.42929 0.07005 0.0
C595 C 0.63861 0.36925 0.09939 0.0
O596 O 0.65123 0.39922 0.04838 0.0
H597 H 0.55705 0.37919 0.04747 0.0
H598 H 0.67312 0.44067 0.10964 0.0
H599 H 0.63911 0.34673 0.03968 0.0
O600 O 0.6382 0.39531 0.10364 0.0
O601 O 0.63096 0.36177 0.08258 0.0
H602 H 0.59476 0.47855 0.09676 0.0
O603 O 0.57287 0.38678 0.08184 0.0
O604 O 0.58372 0.42494 0.09755 0.0
O605 O 0.58981 0.42416 0.04733 0.0
O606 O 0.60664 0.45856 0.06437 0.0
C607 C 0.56682 0.40482 0.09474 0.0
H608 H 0.68647 0.48146 0.12961 0.0
H609 H 0.60699 0.52024 0.11572 0.0
H610 H 0.5392 0.35093 1.02109 0.0
H611 H 0.62305 0.31805 1.01225 0.0
C612 C 0.87038 0.4209 0.30478 0.0
N613 N 0.82692 0.38543 0.35241 0.0
C614 C 0.8278 0.40987 0.36243 0.0
C615 C 0.80752 0.41531 0.37639 0.0
C616 C 0.78625 0.39545 0.37979 0.0
C617 C 0.78579 0.37054 0.36924 0.0
C618 C 0.80661 0.3658 0.35564 0.0
Zn619 Zn 0.8575 0.3753 0.33375 0.0
C620 C 0.83433 0.34117 0.30112 0.0
N621 N 0.92093 0.34819 0.29569 0.0
C622 C 0.93841 0.36678 0.28681 0.0
C623 C 0.91917 0.32105 0.28982 0.0
C624 C 0.93508 0.31166 0.27436 0.0
C625 C 0.9529 0.33039 0.26456 0.0
C626 C 0.95467 0.35827 0.27109 0.0
Zn627 Zn 0.89182 0.36079 0.3152 0.0
O628 O 0.85363 0.41551 0.31864 0.0
C629 C 0.9155 0.38942 0.34954 0.0
O630 O 0.88789 0.40182 0.29988 0.0
H631 H 0.90481 0.30671 0.29682 0.0
H632 H 0.84429 0.42498 0.35968 0.0
H633 H 0.93927 0.38837 0.29159 0.0
O634 O 0.88929 0.39216 0.35292 0.0
O635 O 0.92319 0.37845 0.33368 0.0
H636 H 0.8067 0.34618 0.34785 0.0
O637 O 0.8959 0.32107 0.33164 0.0
O638 O 0.86138 0.33725 0.34905 0.0
O639 O 0.8604 0.34095 0.29716 0.0
O640 O 0.82622 0.35598 0.31527 0.0
C641 C 0.87929 0.31814 0.34592 0.0
H642 H 0.80808 0.43504 0.38413 0.0
H643 H 0.7696 0.35488 0.37156 0.0
H644 H 0.93364 0.28973 0.27037 0.0
H645 H 0.96824 0.37339 0.26406 0.0
C646 C 0.86706 0.62251 0.55351 0.0
N647 N 0.89876 0.57681 0.60065 0.0
C648 C 0.87113 0.5756 0.60545 0.0
C649 C 0.85965 0.55047 0.61193 0.0
C650 C 0.87693 0.52668 0.6135 0.0
C651 C 0.90584 0.52925 0.61031 0.0
C652 C 0.91642 0.55477 0.60376 0.0
Zn653 Zn 0.91212 0.60819 0.58369 0.0
C654 C 0.94625 0.58509 0.55116 0.0
N655 N 0.94048 0.67187 0.54617 0.0
C656 C 0.92296 0.68944 0.53643 0.0
C657 C 0.96813 0.66984 0.5415 0.0
C658 C 0.97914 0.68543 0.52639 0.0
C659 C 0.96154 0.70319 0.51565 0.0
C660 C 0.93311 0.70537 0.52099 0.0
Zn661 Zn 0.92588 0.64265 0.56499 0.0
O662 O 0.87221 0.60637 0.56769 0.0
C663 C 0.89693 0.66613 0.5992 0.0
O664 O 0.88636 0.63954 0.54832 0.0
H665 H 0.98163 0.65538 0.54913 0.0
H666 H 0.85762 0.59349 0.60291 0.0
H667 H 0.90095 0.69053 0.54024 0.0
O668 O 0.89546 0.63994 0.60309 0.0
O669 O 0.90706 0.67372 0.58303 0.0
H670 H 0.93832 0.55625 0.59974 0.0
O671 O 0.96388 0.64631 0.58281 0.0
O672 O 0.95033 0.60975 0.59952 0.0
O673 O 0.9469 0.61119 0.54732 0.0
O674 O 0.93096 0.57704 0.56509 0.0
C675 C 0.96834 0.62888 0.59642 0.0
H676 H 0.83727 0.54922 0.61471 0.0
H677 H 0.9197 0.51128 0.61147 0.0
H678 H 1.00139 0.68371 0.52335 0.0
H679 H 0.9188 0.71889 0.5132 0.0
C680 C 0.66775 0.42019 0.74088 0.0
N681 N 0.70975 0.38335 0.69296 0.0
C682 C 0.70822 0.40767 0.6828 0.0
C683 C 0.72839 0.4136 0.66886 0.0
C684 C 0.75027 0.39437 0.66561 0.0
C685 C 0.75128 0.36945 0.67621 0.0
C686 C 0.73054 0.36422 0.68981 0.0
Zn687 Zn 0.6799 0.37327 0.7122 0.0
C688 C 0.7039 0.34051 0.74468 0.0
N689 N 0.61716 0.34802 0.75133 0.0
C690 C 0.60005 0.36632 0.76077 0.0
C691 C 0.61892 0.32064 0.75671 0.0
C692 C 0.60326 0.31064 0.77211 0.0
C693 C 0.58566 0.32898 0.78239 0.0
C694 C 0.58401 0.35719 0.77646 0.0
Zn695 Zn 0.64549 0.36075 0.73128 0.0
O696 O 0.68333 0.41452 0.72643 0.0
C697 C 0.62095 0.38811 0.69711 0.0
O698 O 0.65079 0.40117 0.7467 0.0
H699 H 0.633 0.30651 0.74929 0.0
H700 H 0.69139 0.4224 0.68553 0.0
H701 H 0.59923 0.38811 0.75639 0.0
O702 O 0.64708 0.38869 0.69294 0.0
O703 O 0.61359 0.3793 0.71368 0.0
H704 H 0.73103 0.34474 0.6978 0.0
O705 O 0.63962 0.32188 0.71466 0.0
O706 O 0.67676 0.33373 0.69806 0.0
O707 O 0.67778 0.33984 0.74854 0.0
O708 O 0.71189 0.3557 0.73068 0.0
C709 C 0.65714 0.31638 0.7013 0.0
H710 H 0.72737 0.43333 0.6611 0.0
H711 H 0.76793 0.35426 0.67402 0.0
H712 H 0.60461 0.28852 0.77562 0.0
H713 H 0.57063 0.37204 0.78388 0.0
C714 C 0.8655 0.41697 0.99142 0.0
N715 N 0.90271 0.45857 0.9433 0.0
C716 C 0.87883 0.45694 0.9327 0.0
C717 C 0.87349 0.47699 0.91857 0.0
C718 C 0.8929 0.49881 0.91555 0.0
C719 C 0.91736 0.4999 0.92662 0.0
C720 C 0.92196 0.47934 0.94042 0.0
Zn721 Zn 0.91254 0.42879 0.96264 0.0
C722 C 0.94498 0.45298 0.99504 0.0
N723 N 0.93792 0.36663 1.00198 0.0
C724 C 0.91988 0.34976 1.01189 0.0
C725 C 0.9655 0.36838 1.00685 0.0
C726 C 0.97598 0.35304 1.02222 0.0
C727 C 0.95795 0.33575 0.033 0.0
C728 C 0.92954 0.33397 0.02755 0.0
Zn729 Zn 0.92487 0.3948 0.98191 0.0
O730 O 0.87073 0.43112 0.97621 0.0
C731 C 0.89775 0.37012 0.94777 0.0
O732 O 0.88502 0.40123 0.99802 0.0
H733 H 0.97943 0.38228 0.99907 0.0
H734 H 0.864 0.4401 0.93521 0.0
H735 H 0.89792 0.34898 1.00793 0.0
O736 O 0.89808 0.39613 0.94336 0.0
O737 O 0.90554 0.36284 0.9646 0.0
H738 H 0.94113 0.47992 0.94873 0.0
O739 O 0.96335 0.38823 0.96483 0.0
O740 O 0.95259 0.42629 0.94895 0.0
O741 O 0.94627 0.42683 0.99858 0.0
O742 O 0.92918 0.46103 0.98139 0.0
C743 C 0.96945 0.40615 0.95186 0.0
H744 H 0.8541 0.4759 0.91046 0.0
H745 H 0.9327 0.51648 0.92462 0.0
H746 H 0.99822 0.35445 0.02536 0.0
H747 H 0.91494 0.32075 0.03537 0.0
C748 C 0.87398 0.61629 0.24237 0.0
N749 N 0.83098 0.64699 0.19344 0.0
C750 C 0.83011 0.62022 0.18675 0.0
C751 C 0.80714 0.61133 0.17591 0.0
C752 C 0.78515 0.63026 0.17234 0.0
C753 C 0.78725 0.65801 0.17857 0.0
C754 C 0.81063 0.66605 0.18904 0.0
Zn755 Zn 0.86034 0.66009 0.21207 0.0
C756 C 0.83298 0.69281 0.24418 0.0
N757 N 0.9182 0.69361 0.2517 0.0
C758 C 0.9406 0.67971 0.25916 0.0
C759 C 0.90948 0.71845 0.25926 0.0
C760 C 0.92214 0.72944 0.27553 0.0
C761 C 0.94584 0.71623 0.28351 0.0
C762 C 0.95516 0.69098 0.27485 0.0
Zn763 Zn 0.89169 0.67708 0.23174 0.0
O764 O 0.85669 0.62141 0.22882 0.0
C765 C 0.9196 0.64954 0.19807 0.0
O766 O 0.89176 0.63546 0.24673 0.0
H767 H 0.89184 0.72951 0.25308 0.0
H768 H 0.8466 0.60555 0.19048 0.0
H769 H 0.94704 0.65984 0.25304 0.0
O770 O 0.89417 0.64236 0.19482 0.0
O771 O 0.92508 0.66379 0.21314 0.0
H772 H 0.81183 0.68733 0.19436 0.0
O773 O 0.8917 0.71754 0.21589 0.0
O774 O 0.86417 0.69679 0.19531 0.0
O775 O 0.85824 0.69181 0.24975 0.0
O776 O 0.82678 0.68021 0.22868 0.0
C777 C 0.87828 0.71822 0.20003 0.0
H778 H 0.80576 0.58962 0.17135 0.0
H779 H 0.7705 0.67296 0.17597 0.0
H780 H 0.91303 0.74824 0.28155 0.0
H781 H 0.97367 0.68 0.27979 0.0
C782 C 0.6707 0.62217 0.4931 0.0
N783 N 0.64149 0.57735 0.44536 0.0
C784 C 0.66945 0.57487 0.4419 0.0
C785 C 0.68033 0.54931 0.43577 0.0
C786 C 0.66211 0.52642 0.43319 0.0
C787 C 0.63311 0.53036 0.43501 0.0
C788 C 0.62314 0.55626 0.44123 0.0
Zn789 Zn 0.62774 0.60875 0.46207 0.0
C790 C 0.59169 0.58462 0.49426 0.0
N791 N 0.59625 0.67079 0.49952 0.0
C792 C 0.61368 0.6889 0.50885 0.0
C793 C 0.56884 0.66811 0.50468 0.0
C794 C 0.55802 0.68358 0.51989 0.0
C795 C 0.57559 0.70183 0.53025 0.0
C796 C 0.60375 0.70465 0.52439 0.0
Zn797 Zn 0.61122 0.64163 0.48086 0.0
O798 O 0.66554 0.6049 0.47962 0.0
C799 C 0.6417 0.6663 0.44694 0.0
O800 O 0.65181 0.64032 0.49709 0.0
H801 H 0.55544 0.65321 0.49739 0.0
H802 H 0.68352 0.59203 0.44523 0.0
H803 H 0.6355 0.69051 0.50465 0.0
O804 O 0.6475 0.64045 0.44401 0.0
O805 O 0.62772 0.67295 0.4619 0.0
H806 H 0.60098 0.55874 0.4442 0.0
O807 O 0.57219 0.64304 0.4636 0.0
O808 O 0.59186 0.61255 0.44435 0.0
O809 O 0.59236 0.61025 0.49925 0.0
O810 O 0.60569 0.57745 0.47948 0.0
C811 C 0.57129 0.62851 0.44819 0.0
H812 H 0.70284 0.54704 0.43401 0.0
H813 H 0.61852 0.51314 0.43302 0.0
H814 H 0.53593 0.68133 0.52333 0.0
H815 H 0.61806 0.71853 0.53187 0.0
C816 C 0.3781 0.31917 0.19933 0.0
N817 N 0.42011 0.34424 0.2508 0.0
C818 C 0.41672 0.31692 0.25599 0.0
C819 C 0.43209 0.30567 0.2711 0.0
C820 C 0.4511 0.32267 0.28123 0.0
C821 C 0.45458 0.35075 0.27541 0.0
C822 C 0.43875 0.36118 0.26004 0.0
Zn823 Zn 0.39157 0.3597 0.23188 0.0
C824 C 0.41774 0.38885 0.19762 0.0
N825 N 0.32887 0.39066 0.19516 0.0
C826 C 0.3072 0.37288 0.19128 0.0
C827 C 0.32723 0.41859 0.19134 0.0
C828 C 0.30194 0.4301 0.18521 0.0
C829 C 0.27852 0.41252 0.18289 0.0
C830 C 0.28159 0.38347 0.18498 0.0
Zn831 Zn 0.35975 0.37641 0.2122 0.0
O832 O 0.393 0.32061 0.21456 0.0
C833 C 0.33403 0.3415 0.24474 0.0
O834 O 0.36211 0.33964 0.19531 0.0
H835 H 0.34484 0.43221 0.19444 0.0
H836 H 0.40143 0.30391 0.24874 0.0
H837 H 0.30897 0.35075 0.19457 0.0
O838 O 0.35964 0.34115 0.24976 0.0
O839 O 0.3274 0.35609 0.23009 0.0
H840 H 0.44086 0.38295 0.25582 0.0
O841 O 0.35787 0.41537 0.22862 0.0
O842 O 0.38995 0.40024 0.24844 0.0
O843 O 0.39201 0.39413 0.19393 0.0
O844 O 0.42381 0.37598 0.21317 0.0
C845 C 0.37369 0.42009 0.24298 0.0
H846 H 0.42932 0.28366 0.27458 0.0
H847 H 0.46911 0.36457 0.28274 0.0
H848 H 0.30026 0.45263 0.18329 0.0
H849 H 0.26388 0.36941 0.1832 0.0
C850 C 0.46852 0.62885 0.94934 0.0
N851 N 0.44132 0.66857 1.00092 0.0
C852 C 0.46863 0.6659 1.00629 0.0
C853 C 0.47915 0.6813 1.02161 0.0
C854 C 0.46139 0.69949 0.03189 0.0
C855 C 0.43323 0.70201 0.02599 0.0
C856 C 0.42359 0.6863 1.01033 0.0
Zn857 Zn 0.4274 0.64052 0.98109 0.0
C858 C 0.39777 0.66684 0.94769 0.0
N859 N 0.39948 0.57849 0.9429 0.0
C860 C 0.41912 0.55871 0.93847 0.0
C861 C 0.37395 0.57901 0.9342 0.0
C862 C 0.36731 0.55875 0.9205 0.0
C863 C 0.38714 0.53792 0.91594 0.0
C864 C 0.41329 0.53802 0.92503 0.0
Zn865 Zn 0.41085 0.60808 0.96189 0.0
O866 O 0.46733 0.64343 0.9647 0.0
C867 C 0.44576 0.58255 0.99375 0.0
O868 O 0.44795 0.613 0.94543 0.0
H869 H 0.35883 0.59508 0.93792 0.0
H870 H 0.48227 0.65125 0.99896 0.0
H871 H 0.43951 0.55901 0.94529 0.0
O872 O 0.44569 0.60817 0.99875 0.0
O873 O 0.43154 0.57566 0.97902 0.0
H874 H 0.40183 0.68784 1.00599 0.0
O875 O 0.37192 0.60307 0.97805 0.0
O876 O 0.38597 0.63751 0.99647 0.0
O877 O 0.39225 0.64109 0.94425 0.0
O878 O 0.41138 0.67299 0.96287 0.0
C879 C 0.36687 0.61976 0.99194 0.0
H880 H 0.50122 0.67922 0.02508 0.0
H881 H 0.41875 0.71578 0.03342 0.0
H882 H 0.34669 0.55894 0.91392 0.0
H883 H 0.42903 0.52228 0.92177 0.0
C884 C 0.15662 0.71777 0.70016 0.0
N885 N 0.11755 0.689 0.75172 0.0
C886 C 0.11984 0.71621 0.75737 0.0
C887 C 0.10455 0.72603 0.77299 0.0
C888 C 0.08685 0.70768 0.78322 0.0
C889 C 0.08469 0.67966 0.777 0.0
C890 C 0.10028 0.67073 0.76108 0.0
Zn891 Zn 0.14545 0.67585 0.73156 0.0
C892 C 0.11874 0.64694 0.69789 0.0
N893 N 0.20696 0.64906 0.69244 0.0
C894 C 0.22686 0.66881 0.68846 0.0
C895 C 0.20624 0.62408 0.68307 0.0
C896 C 0.22642 0.61809 0.66913 0.0
C897 C 0.24736 0.63805 0.66501 0.0
C898 C 0.24744 0.66366 0.67478 0.0
Zn899 Zn 0.17745 0.65971 0.71175 0.0
O900 O 0.14146 0.71583 0.71524 0.0
C901 C 0.20343 0.69399 0.74398 0.0
O902 O 0.1731 0.69769 0.6963 0.0
H903 H 0.19008 0.60886 0.68643 0.0
H904 H 0.13409 0.73028 0.75002 0.0
H905 H 0.22674 0.68879 0.69582 0.0
O906 O 0.17772 0.69457 0.74879 0.0
O907 O 0.21028 0.67924 0.72946 0.0
H908 H 0.09903 0.64908 0.75648 0.0
O909 O 0.18132 0.61964 0.72657 0.0
O910 O 0.14974 0.63454 0.74703 0.0
O911 O 0.14449 0.64249 0.69379 0.0
O912 O 0.11274 0.65932 0.7136 0.0
C913 C 0.16596 0.61481 0.74124 0.0
H914 H 0.1063 0.74804 0.77672 0.0
H915 H 0.07126 0.66478 0.78438 0.0
H916 H 0.22609 0.59785 0.66204 0.0
H917 H 0.26325 0.6795 0.67188 0.0
C918 C 0.06827 0.40726 0.44999 0.0
N919 N 0.09756 0.36773 0.50104 0.0
C920 C 0.07016 0.36981 0.50635 0.0
C921 C 0.05994 0.35436 0.52178 0.0
C922 C 0.07807 0.33668 0.53218 0.0
C923 C 0.10631 0.33476 0.52633 0.0
C924 C 0.11567 0.35056 0.51059 0.0
Zn925 Zn 0.1108 0.39567 0.48088 0.0
C926 C 0.1391 0.36982 0.44686 0.0
N927 N 0.13619 0.45792 0.44198 0.0
C928 C 0.11653 0.4781 0.43853 0.0
C929 C 0.16026 0.45629 0.43155 0.0
C930 C 0.16532 0.47571 0.41697 0.0
C931 C 0.1454 0.49684 0.41329 0.0
C932 C 0.12079 0.49794 0.42421 0.0
Zn933 Zn 0.126 0.42845 0.4614 0.0
O934 O 0.07128 0.39072 0.46427 0.0
C935 C 0.09237 0.45397 0.49366 0.0
O936 O 0.0874 0.42511 0.44675 0.0
H937 H 0.17537 0.43986 0.43448 0.0
H938 H 0.0562 0.38397 0.49885 0.0
H939 H 0.0972 0.47863 0.44668 0.0
O940 O 0.09085 0.42805 0.49783 0.0
O941 O 0.10807 0.46114 0.47967 0.0
H942 H 0.13748 0.34951 0.50627 0.0
O943 O 0.1669 0.43134 0.47556 0.0
O944 O 0.15151 0.40084 0.49665 0.0
O945 O 0.14145 0.3958 0.44272 0.0
O946 O 0.1288 0.36302 0.46316 0.0
C947 C 0.17148 0.41654 0.49054 0.0
H948 H 0.0378 0.35593 0.52522 0.0
H949 H 0.12103 0.32134 0.53385 0.0
H950 H 0.18488 0.47468 0.40901 0.0
H951 H 0.10506 0.51399 0.42172 0.0
C952 C 0.37538 0.71725 0.34766 0.0
N953 N 0.41707 0.6947 0.29583 0.0
C954 C 0.40864 0.72044 0.28963 0.0
C955 C 0.4211 0.73296 0.27378 0.0
C956 C 0.44435 0.72026 0.26484 0.0
C957 C 0.45351 0.69405 0.27217 0.0
C958 C 0.43911 0.68133 0.28746 0.0
Zn959 Zn 0.3902 0.67659 0.31499 0.0
C960 C 0.41707 0.64855 0.34888 0.0
N961 N 0.32811 0.64494 0.35198 0.0
C962 C 0.3061 0.66226 0.35595 0.0
C963 C 0.32701 0.61695 0.35568 0.0
C964 C 0.30187 0.6049 0.36169 0.0
C965 C 0.27802 0.62198 0.36386 0.0
C966 C 0.28062 0.65112 0.36199 0.0
Zn967 Zn 0.35815 0.66026 0.33472 0.0
O968 O 0.39069 0.71566 0.3326 0.0
C969 C 0.33142 0.69322 0.30243 0.0
O970 O 0.35925 0.69686 0.35153 0.0
H971 H 0.34489 0.60372 0.3525 0.0
H972 H 0.39125 0.73104 0.2965 0.0
H973 H 0.30742 0.68445 0.35277 0.0
O974 O 0.35702 0.69352 0.29755 0.0
O975 O 0.32473 0.6791 0.31725 0.0
H976 H 0.44533 0.66074 0.2925 0.0
O977 O 0.35773 0.62121 0.31816 0.0
O978 O 0.38978 0.63647 0.29821 0.0
O979 O 0.39121 0.64412 0.35275 0.0
O980 O 0.42345 0.66072 0.33309 0.0
C981 C 0.37365 0.61653 0.30379 0.0
H982 H 0.41208 0.75244 0.26878 0.0
H983 H 0.4717 0.68335 0.26643 0.0
H984 H 0.30066 0.58232 0.36352 0.0
H985 H 0.26265 0.66488 0.36361 0.0
C986 C 0.06817 0.62996 0.09498 0.0
N987 N 0.09935 0.67056 0.04499 0.0
C988 C 0.07192 0.66879 0.03977 0.0
C989 C 0.06183 0.68429 0.02434 0.0
C990 C 0.08013 0.70175 1.01389 0.0
C991 C 0.10836 0.70353 1.01972 0.0
C992 C 0.1176 0.68762 0.03543 0.0
Zn993 Zn 0.11225 0.642 0.06482 0.0
C994 C 0.14031 0.66578 0.09876 0.0
N995 N 0.13521 0.57709 0.10241 0.0
C996 C 0.11583 0.55659 0.10576 0.0
C997 C 0.15978 0.57823 0.11227 0.0
C998 C 0.16569 0.55798 0.12614 0.0
C999 C 0.14613 0.53646 0.12969 0.0
C1000 C 0.12098 0.53584 0.11935 0.0
Zn1001 Zn 0.12505 0.60721 0.08345 0.0
O1002 O 0.07351 0.64772 0.08175 0.0
C1003 C 0.09186 0.58394 0.05117 0.0
O1004 O 0.0856 0.6103 0.09792 0.0
H1005 H 0.17471 0.59485 0.10938 0.0
H1006 H 0.05783 0.65475 0.04729 0.0
H1007 H 0.09619 0.55638 0.09798 0.0
O1008 O 0.0912 0.61012 0.04757 0.0
O1009 O 0.10719 0.57559 0.06496 0.0
H1010 H 0.13944 0.68844 0.03968 0.0
O1011 O 0.16613 0.60389 0.06891 0.0
O1012 O 0.15244 0.63685 0.04911 0.0
O1013 O 0.14088 0.63961 0.10274 0.0
O1014 O 0.1311 0.67348 0.08239 0.0
C1015 C 0.17157 0.6198 0.05458 0.0
H1016 H 0.03969 0.68289 1.02092 0.0
H1017 H 0.12316 0.71686 1.01217 0.0
H1018 H 0.18561 0.55872 0.13365 0.0
H1019 H 0.1055 0.51951 0.12176 0.0
C1020 C 0.15629 0.31733 0.84617 0.0
N1021 N 0.1145 0.34616 0.79556 0.0
C1022 C 0.11649 0.31875 0.79031 0.0
C1023 C 0.10119 0.30864 0.77481 0.0
C1024 C 0.08381 0.32691 0.76428 0.0
C1025 C 0.08168 0.35504 0.77024 0.0
C1026 C 0.09726 0.36426 0.78605 0.0
Zn1027 Zn 0.1434 0.36005 0.81475 0.0
C1028 C 0.1186 0.38837 0.84922 0.0
N1029 N 0.2077 0.3874 0.85144 0.0
C1030 C 0.22983 0.36982 0.85449 0.0
C1031 C 0.20883 0.41504 0.85616 0.0
C1032 C 0.23404 0.42667 0.86227 0.0
C1033 C 0.25791 0.4095 0.86364 0.0
C1034 C 0.25542 0.38056 0.86075 0.0
Zn1035 Zn 0.17665 0.37426 0.8342 0.0
O1036 O 0.13954 0.3215 0.83213 0.0
C1037 C 0.20087 0.34039 0.80138 0.0
O1038 O 0.17475 0.33578 0.84983 0.0
H1039 H 0.19086 0.42847 0.85369 0.0
H1040 H 0.13069 0.30481 0.7978 0.0
H1041 H 0.22839 0.34791 0.85054 0.0
O1042 O 0.17493 0.33986 0.79716 0.0
O1043 O 0.20843 0.35532 0.81561 0.0
H1044 H 0.09621 0.38606 0.79034 0.0
O1045 O 0.1785 0.41445 0.81873 0.0
O1046 O 0.14724 0.40007 0.79811 0.0
O1047 O 0.14463 0.39099 0.85327 0.0
O1048 O 0.11172 0.37778 0.83306 0.0
C1049 C 0.16349 0.41958 0.80401 0.0
H1050 H 0.10283 0.28655 0.77129 0.0
H1051 H 0.06843 0.36984 0.76265 0.0
H1052 H 0.23533 0.4491 0.8648 0.0
H1053 H 0.27352 0.36683 0.86182 0.0
C1054 C 0.46754 0.40781 0.59694 0.0
N1055 N 0.44086 0.36587 0.54561 0.0
C1056 C 0.46843 0.36783 0.54071 0.0
C1057 C 0.47909 0.35219 0.52552 0.0
C1058 C 0.46121 0.33448 0.51497 0.0
C1059 C 0.43288 0.3324 0.52057 0.0
C1060 C 0.4231 0.34834 0.53607 0.0
Zn1061 Zn 0.42624 0.39496 0.56443 0.0
C1062 C 0.3964 0.37009 0.59864 0.0
N1063 N 0.39731 0.45895 0.60079 0.0
C1064 C 0.41498 0.48089 0.60415 0.0
C1065 C 0.36946 0.46042 0.60491 0.0
C1066 C 0.35782 0.48578 0.61071 0.0
C1067 C 0.3752 0.50946 0.61241 0.0
C1068 C 0.40425 0.50662 0.61012 0.0
Zn1069 Zn 0.41106 0.42774 0.58391 0.0
O1070 O 0.46479 0.39174 0.58236 0.0
C1071 C 0.44612 0.45213 0.55135 0.0
O1072 O 0.44828 0.42551 0.60039 0.0
H1073 H 0.35594 0.44258 0.60222 0.0
H1074 H 0.48209 0.38224 0.54822 0.0
H1075 H 0.43706 0.47919 0.60066 0.0
O1076 O 0.44675 0.42627 0.54698 0.0
O1077 O 0.43096 0.45948 0.56556 0.0
H1078 H 0.40117 0.3473 0.54009 0.0
O1079 O 0.3715 0.42961 0.56769 0.0
O1080 O 0.38674 0.3985 0.54724 0.0
O1081 O 0.39388 0.39607 0.60275 0.0
O1082 O 0.40744 0.36329 0.58257 0.0
C1083 C 0.36694 0.41463 0.55288 0.0
H1084 H 0.50129 0.35384 0.52226 0.0
H1085 H 0.41835 0.31894 0.51293 0.0
H1086 H 0.3353 0.48731 0.61281 0.0
H1087 H 0.41815 0.52455 0.61145 0.0
H1088 H 0.17358 0.2153 0.38457 0.0
H1089 H 0.14385 0.37688 0.40776 0.0
H1090 H 0.13674 0.27044 0.34227 0.0
H1091 H 0.14605 0.31266 0.45153 0.0
H1092 H 0.14808 0.34034 0.38304 0.0
H1093 H 0.17025 0.2526 0.40841 0.0
C1094 C 0.16487 0.23533 0.38019 0.0
C1095 C 0.15546 0.23958 0.36122 0.0
C1096 C 0.14778 0.33429 0.39805 0.0
C1097 C 0.15182 0.2829 0.38881 0.0
C1098 C 0.14565 0.35515 0.41223 0.0
C1099 C 0.14476 0.34796 0.43188 0.0
C1100 C 0.14957 0.30591 0.40346 0.0
C1101 C 0.14675 0.31932 0.43665 0.0
C1102 C 0.16288 0.25664 0.39393 0.0
C1103 C 0.14421 0.2661 0.35666 0.0
N1104 N 0.14921 0.29947 0.4226 0.0
N1105 N 0.1429 0.28681 0.3703 0.0
H1106 H 0.04282 0.8588 0.60837 0.0
H1107 H 0.92042 0.93044 0.66941 0.0
H1108 H 0.0363 0.94901 0.61119 0.0
H1109 H 0.96594 0.85842 0.6905 0.0
H1110 H 0.95514 0.93504 0.64318 0.0
H1111 H 1.0061 0.85514 0.63327 0.0
C1112 C 0.03324 0.8778 0.6139 0.0
C1113 C 0.04259 0.90425 0.60762 0.0
C1114 C 0.95748 0.91833 0.65363 0.0
C1115 C 1.00048 0.9002 0.63601 0.0
C1116 C 0.93776 0.91574 0.66862 0.0
C1117 C 0.94043 0.89426 0.68239 0.0
C1118 C 0.97945 0.89869 0.65197 0.0
C1119 C 0.96322 0.87559 0.68045 0.0
C1120 C 1.01252 0.87571 0.62823 0.0
C1121 C 0.02971 0.9282 0.61559 0.0
N1122 N 0.98156 0.87802 0.66547 0.0
N1123 N 1.00925 0.92563 0.62925 0.0
H1124 H 0.42652 0.7926 0.85939 0.0
H1125 H 0.35638 0.66888 0.91975 0.0
H1126 H 0.3363 0.78639 0.86306 0.0
H1127 H 0.42793 0.71472 0.94117 0.0
H1128 H 0.35114 0.7043 0.89403 0.0
H1129 H 0.43048 0.75573 0.88413 0.0
C1130 C 0.40757 0.78312 0.86511 0.0
C1131 C 0.38104 0.79258 0.85909 0.0
C1132 C 0.36788 0.70656 0.90445 0.0
C1133 C 0.38544 0.7502 0.88727 0.0
C1134 C 0.37084 0.68643 0.91915 0.0
C1135 C 0.39238 0.68898 0.93286 0.0
C1136 C 0.38722 0.72883 0.90301 0.0
C1137 C 0.41073 0.71207 0.93116 0.0
C1138 C 0.40984 0.76228 0.87934 0.0
C1139 C 0.35717 0.77975 0.86727 0.0
N1140 N 0.40796 0.73081 0.91644 0.0
N1141 N 0.35991 0.75913 0.8808 0.0
H1142 H 0.6292 0.14367 0.15756 0.0
H1143 H 0.46847 0.11102 0.13343 0.0
H1144 H 0.56498 0.13712 0.20114 0.0
H1145 H 0.52206 0.15297 0.09237 0.0
H1146 H 0.50579 0.11378 0.15728 0.0
H1147 H 0.59274 0.1402 0.13268 0.0
C1148 C 0.6075 0.14105 0.16195 0.0
C1149 C 0.60028 0.14049 0.1816 0.0
C1150 C 0.50949 0.1224 0.14308 0.0
C1151 C 0.55833 0.13657 0.153 0.0
C1152 C 0.48817 0.12076 0.12932 0.0
C1153 C 0.49197 0.13177 0.1107 0.0
C1154 C 0.53534 0.13472 0.13831 0.0
C1155 C 0.51807 0.14426 0.10649 0.0
C1156 C 0.58668 0.13937 0.14768 0.0
C1157 C 0.57167 0.13753 0.18626 0.0
N1158 N 0.53883 0.14521 0.12013 0.0
N1159 N 0.55188 0.13553 0.17213 0.0
H1160 H 0.1361 0.76587 0.20395 0.0
H1161 H 0.15375 0.72141 0.09373 0.0
H1162 H 0.18183 0.81544 0.16241 0.0
H1163 H 0.14074 0.65942 0.13812 0.0
H1164 H 0.15972 0.75733 0.11859 0.0
H1165 H 0.13296 0.72765 0.18007 0.0
C1166 C 0.14552 0.76874 0.1899 0.0
C1167 C 0.15931 0.794 0.18529 0.0
C1168 C 0.15578 0.73583 0.12292 0.0
C1169 C 0.15542 0.75055 0.15781 0.0
C1170 C 0.15243 0.71527 0.1087 0.0
C1171 C 0.14698 0.68722 0.11377 0.0
C1172 C 0.15307 0.7286 0.14247 0.0
C1173 C 0.14525 0.68068 0.1335 0.0
C1174 C 0.14378 0.7469 0.17629 0.0
C1175 C 0.17108 0.79642 0.16677 0.0
N1176 N 0.14797 0.7012 0.1471 0.0
N1177 N 0.16866 0.77522 0.15377 0.0
H1178 H 0.56394 0.89596 0.34332 0.0
H1179 H 0.52045 0.87919 0.4541 0.0
H1180 H 0.62629 0.88478 0.38762 0.0
H1181 H 0.47068 0.92545 0.41306 0.0
H1182 H 0.55803 0.87517 0.4297 0.0
H1183 H 0.52787 0.90121 0.36833 0.0
C1184 C 0.57012 0.8948 0.35829 0.0
C1185 C 0.59835 0.89019 0.36328 0.0
C1186 C 0.53886 0.88626 0.42613 0.0
C1187 C 0.55683 0.89544 0.39214 0.0
C1188 C 0.51738 0.88848 0.44004 0.0
C1189 C 0.4923 0.90281 0.43576 0.0
C1190 C 0.53501 0.89786 0.40765 0.0
C1191 C 0.48961 0.91438 0.41718 0.0
C1192 C 0.54948 0.89776 0.37259 0.0
C1193 C 0.60491 0.88864 0.38302 0.0
N1194 N 0.51044 0.91147 0.40389 0.0
N1195 N 0.58436 0.89099 0.39667 0.0
H1196 H 0.38642 0.31374 0.5931 0.0
H1197 H 0.40163 0.269 0.70347 0.0
H1198 H 0.39354 0.3758 0.63794 0.0
H1199 H 0.35788 0.2184 0.6617 0.0
H1200 H 0.40455 0.30722 0.6795 0.0
H1201 H 0.38121 0.2772 0.61777 0.0
C1202 C 0.3866 0.31975 0.60812 0.0
C1203 C 0.39012 0.34802 0.61337 0.0
C1204 C 0.39424 0.28773 0.67567 0.0
C1205 C 0.38501 0.30599 0.64183 0.0
C1206 C 0.39266 0.26589 0.68933 0.0
C1207 C 0.37938 0.24039 0.68471 0.0
C1208 C 0.38304 0.28384 0.65711 0.0
C1209 C 0.36816 0.23765 0.66606 0.0
C1210 C 0.38369 0.29885 0.62222 0.0
C1211 C 0.39048 0.35439 0.63316 0.0
N1212 N 0.37045 0.25887 0.653 0.0
N1213 N 0.38829 0.33358 0.64663 0.0
H1214 H 0.04006 0.17756 0.93975 0.0
H1215 H 0.9206 0.10408 0.87745 0.0
H1216 H 0.03827 0.08738 0.93453 0.0
H1217 H 0.9642 0.17778 0.85711 0.0
H1218 H 0.95553 0.09973 0.90355 0.0
H1219 H 1.00324 0.18071 0.91492 0.0
C1220 C 0.0315 0.15843 0.9337 0.0
C1221 C 0.0422 0.13217 0.93928 0.0
C1222 C 0.95739 0.11676 0.89329 0.0
C1223 C 0.99994 0.13561 0.91102 0.0
C1224 C 0.93756 0.1192 0.87838 0.0
C1225 C 0.93966 0.14108 0.86485 0.0
C1226 C 0.97884 0.13693 0.89513 0.0
C1227 C 0.96195 0.16029 0.86696 0.0
C1228 C 1.01071 0.16024 0.91942 0.0
C1229 C 0.03061 0.10805 0.93067 0.0
N1230 N 0.98038 0.15799 0.88188 0.0
N1231 N 1.01002 0.11031 0.9171 0.0
H1232 H 0.90206 0.76589 0.70448 0.0
H1233 H 0.88516 0.72209 0.59404 0.0
H1234 H 0.86021 0.81767 0.66237 0.0
H1235 H 0.89527 0.65984 0.63858 0.0
H1236 H 0.88 0.75828 0.61879 0.0
H1237 H 0.90418 0.7276 0.6806 0.0
C1238 C 0.89331 0.76925 0.69029 0.0
C1239 C 0.88089 0.79514 0.68553 0.0
C1240 C 0.8831 0.73667 0.62319 0.0
C1241 C 0.88356 0.75154 0.65807 0.0
C1242 C 0.88598 0.71595 0.60903 0.0
C1243 C 0.8904 0.68774 0.61415 0.0
C1244 C 0.88527 0.72944 0.64276 0.0
C1245 C 0.89154 0.68122 0.63391 0.0
C1246 C 0.89444 0.74735 0.67669 0.0
C1247 C 0.8699 0.79815 0.66684 0.0
N1248 N 0.8893 0.70188 0.64745 0.0
N1249 N 0.87169 0.77684 0.65386 0.0
H1250 H 0.99972 0.08481 0.43452 0.0
H1251 H 0.06959 0.17546 0.35235 0.0
H1252 H 0.99209 0.17501 0.43431 0.0
H1253 H 0.11623 0.10686 0.37729 0.0
H1254 H 0.03486 0.17131 0.37826 0.0
H1255 H 0.03713 0.08839 0.41017 0.0
C1256 C 1.00612 0.10539 0.42949 0.0
C1257 C 0.99292 0.12968 0.43662 0.0
C1258 C 0.05262 0.15707 0.37799 0.0
C1259 C 0.03497 0.13378 0.40821 0.0
C1260 C 0.07232 0.15918 0.36308 0.0
C1261 C 0.09587 0.14133 0.36249 0.0
C1262 C 0.05589 0.13648 0.39226 0.0
C1263 C 0.0984 0.12098 0.37709 0.0
C1264 C 0.02744 0.10738 0.4156 0.0
C1265 C 1.00192 0.15578 0.42943 0.0
N1266 N 0.07853 0.1189 0.39125 0.0
N1267 N 0.02202 0.15712 0.41542 0.0
H1268 H 0.6532 0.31373 0.09476 0.0
H1269 H 0.62954 0.26822 0.20447 0.0
H1270 H 0.6359 0.37521 0.13869 0.0
H1271 H 0.68049 0.22092 0.16465 0.0
H1272 H 0.62622 0.30622 0.18031 0.0
H1273 H 0.65814 0.2778 0.11983 0.0
C1274 C 0.65069 0.31976 0.10967 0.0
C1275 C 0.64442 0.34769 0.11455 0.0
C1276 C 0.63819 0.2875 0.17698 0.0
C1277 C 0.64927 0.30629 0.14345 0.0
C1278 C 0.64002 0.26579 0.19075 0.0
C1279 C 0.65542 0.24127 0.18673 0.0
C1280 C 0.65132 0.28441 0.15892 0.0
C1281 C 0.66852 0.23939 0.16858 0.0
C1282 C 0.65345 0.2992 0.12401 0.0
C1283 C 0.64112 0.35407 0.13422 0.0
N1284 N 0.66599 0.2604 0.15542 0.0
N1285 N 0.6433 0.33355 0.1479 0.0
H1286 H 0.40754 0.8884 0.88907 0.0
H1287 H 0.56705 0.92659 0.9133 0.0
H1288 H 0.47115 0.90037 0.84561 0.0
H1289 H 0.51552 0.88105 0.95381 0.0
H1290 H 0.52954 0.92363 0.88966 0.0
H1291 H 0.44394 0.89232 0.91398 0.0
C1292 C 0.42906 0.8923 0.88474 0.0
C1293 C 0.43617 0.89425 0.86511 0.0
C1294 C 0.52632 0.91427 0.9037 0.0
C1295 C 0.47801 0.89867 0.8937 0.0
C1296 C 0.54775 0.91602 0.91733 0.0
C1297 C 0.54461 0.90405 0.93574 0.0
C1298 C 0.501 0.90082 0.90835 0.0
C1299 C 0.519 0.89052 0.93985 0.0
C1300 C 0.44986 0.89424 0.899 0.0
C1301 C 0.46456 0.89885 0.86047 0.0
N1302 N 0.49811 0.88943 0.92632 0.0
N1303 N 0.4843 0.90104 0.8746 0.0
H1304 H 0.86044 0.21621 0.88557 0.0
H1305 H 0.89659 0.37683 0.9085 0.0
H1306 H 0.90131 0.26956 0.84385 0.0
H1307 H 0.8865 0.3137 0.95251 0.0
H1308 H 0.89188 0.3402 0.88389 0.0
H1309 H 0.86355 0.25381 0.90921 0.0
C1310 C 0.86999 0.23591 0.88128 0.0
C1311 C 0.88064 0.23956 0.86254 0.0
C1312 C 0.89054 0.33441 0.89893 0.0
C1313 C 0.88407 0.2832 0.88989 0.0
C1314 C 0.89298 0.35535 0.91304 0.0
C1315 C 0.89181 0.34847 0.93273 0.0
C1316 C 0.88644 0.30631 0.90444 0.0
C1317 C 0.88746 0.32012 0.93759 0.0
C1318 C 0.87184 0.25739 0.8949 0.0
C1319 C 0.89288 0.26568 0.85807 0.0
N1320 N 0.88483 0.30021 0.9236 0.0
N1321 N 0.89412 0.28653 0.87159 0.0
H1322 H 0.51474 0.15244 0.59103 0.0
H1323 H 0.47176 0.13699 0.70189 0.0
H1324 H 0.56713 0.11159 0.63323 0.0
H1325 H 0.40887 0.14283 0.65748 0.0
H1326 H 0.50805 0.13277 0.67701 0.0
H1327 H 0.47657 0.15462 0.61515 0.0
C1328 C 0.51826 0.14397 0.60528 0.0
C1329 C 0.54426 0.13172 0.60998 0.0
C1330 C 0.48628 0.13476 0.67268 0.0
C1331 C 0.50088 0.1345 0.63771 0.0
C1332 C 0.46551 0.13708 0.68692 0.0
C1333 C 0.43709 0.13995 0.68186 0.0
C1334 C 0.47884 0.13597 0.65311 0.0
C1335 C 0.43043 0.14025 0.66211 0.0
C1336 C 0.49646 0.14512 0.61902 0.0
C1337 C 0.54751 0.12109 0.62877 0.0
N1338 N 0.4511 0.13859 0.6485 0.0
N1339 N 0.52632 0.12292 0.64187 0.0
H1340 H 0.61148 0.78887 0.35684 0.0
H1341 H 0.68327 0.66785 0.419 0.0
H1342 H 0.70174 0.78392 0.36066 0.0
H1343 H 0.6108 0.7133 0.43946 0.0
H1344 H 0.68799 0.70227 0.39258 0.0
H1345 H 0.60787 0.75217 0.38175 0.0
C1346 C 0.63051 0.77961 0.36257 0.0
C1347 C 0.65695 0.78941 0.35658 0.0
C1348 C 0.67116 0.70465 0.40295 0.0
C1349 C 0.65297 0.74734 0.38499 0.0
C1350 C 0.6685 0.68511 0.41804 0.0
C1351 C 0.64686 0.68786 0.43169 0.0
C1352 C 0.65142 0.72649 0.40106 0.0
C1353 C 0.6281 0.71053 0.42952 0.0
C1354 C 0.62845 0.75891 0.37692 0.0
C1355 C 0.68094 0.77696 0.36482 0.0
N1356 N 0.6306 0.72867 0.41444 0.0
N1357 N 0.67841 0.75651 0.37849 0.0
H1358 H 0.12653 0.89353 0.15827 0.0
H1359 H 0.96504 0.92449 0.13588 0.0
H1360 H 0.06278 0.8933 0.20239 0.0
H1361 H 0.01907 0.88614 0.09355 0.0
H1362 H 1.00255 0.92048 0.15964 0.0
H1363 H 0.08962 0.89832 0.13382 0.0
C1364 C 0.10482 0.8949 0.16288 0.0
C1365 C 0.09786 0.89317 0.18253 0.0
C1366 C 1.00627 0.91295 0.14517 0.0
C1367 C 0.05541 0.89869 0.15445 0.0
C1368 C 0.98487 0.91533 0.1315 0.0
C1369 C 0.98878 0.90566 0.11256 0.0
C1370 C 0.03226 0.90131 0.13996 0.0
C1371 C 1.01502 0.89381 0.10794 0.0
C1372 C 0.08375 0.89736 0.14886 0.0
C1373 C 0.06924 0.89464 0.18749 0.0
N1374 N 0.03582 0.89218 0.12148 0.0
N1375 N 0.04918 0.89749 0.17361 0.0
H1376 H 0.64969 0.81289 0.95268 0.0
H1377 H 0.63606 0.7686 0.84222 0.0
H1378 H 0.64318 0.87517 0.90783 0.0
H1379 H 0.67883 0.71764 0.88435 0.0
H1380 H 0.633 0.80679 0.86614 0.0
H1381 H 0.6553 0.77647 0.92805 0.0
C1382 C 0.64972 0.81897 0.93766 0.0
C1383 C 0.64623 0.84726 0.9324 0.0
C1384 C 0.64313 0.78723 0.87005 0.0
C1385 C 0.65183 0.80536 0.90397 0.0
C1386 C 0.64479 0.7654 0.85643 0.0
C1387 C 0.65782 0.7398 0.86118 0.0
C1388 C 0.654 0.78324 0.8887 0.0
C1389 C 0.66874 0.73697 0.8799 0.0
C1390 C 0.65287 0.79814 0.92358 0.0
C1391 C 0.64618 0.85373 0.91262 0.0
N1392 N 0.66638 0.75819 0.89292 0.0
N1393 N 0.6486 0.83297 0.89916 0.0
H1394 H 0.41943 0.42879 0.16876 0.0
H1395 H 0.54372 0.35655 0.10983 0.0
H1396 H 0.46583 0.35859 0.19173 0.0
H1397 H 0.5342 0.44658 0.10991 0.0
H1398 H 0.50729 0.3533 0.13498 0.0
H1399 H 0.45431 0.43268 0.14262 0.0
C1400 C 0.43703 0.41436 0.16842 0.0
C1401 C 0.43986 0.39359 0.18267 0.0
C1402 C 0.513 0.37372 0.1293 0.0
C1403 C 0.47913 0.39718 0.15234 0.0
C1404 C 0.53354 0.37555 0.11481 0.0
C1405 C 0.54194 0.40186 0.10767 0.0
C1406 C 0.5002 0.39829 0.13637 0.0
C1407 C 0.52834 0.42586 0.11497 0.0
C1408 C 0.45684 0.41654 0.15347 0.0
C1409 C 0.46298 0.37523 0.18129 0.0
N1410 N 0.50807 0.42351 0.12878 0.0
N1411 N 0.48145 0.37723 0.16633 0.0
H1412 H 0.89722 0.15764 0.40708 0.0
H1413 H 0.85824 0.31668 0.38225 0.0
H1414 H 0.88554 0.22131 0.45041 0.0
H1415 H 0.90494 0.26558 0.34219 0.0
H1416 H 0.86134 0.27928 0.40603 0.0
H1417 H 0.8932 0.19396 0.38208 0.0
C1418 C 0.89336 0.17916 0.41137 0.0
C1419 C 0.89152 0.1863 0.43098 0.0
C1420 C 0.87091 0.27614 0.39206 0.0
C1421 C 0.88696 0.22806 0.40229 0.0
C1422 C 0.86907 0.29749 0.37834 0.0
C1423 C 0.88134 0.29443 0.36002 0.0
C1424 C 0.88473 0.25098 0.38757 0.0
C1425 C 0.89522 0.26898 0.35607 0.0
C1426 C 0.89137 0.19991 0.39705 0.0
C1427 C 0.88698 0.21469 0.43556 0.0
N1428 N 0.89637 0.24816 0.36968 0.0
N1429 N 0.88471 0.23439 0.42138 0.0
H1430 H 0.99354 0.67702 0.60974 0.0
H1431 H 0.11663 0.60621 0.66965 0.0
H1432 H 0.99839 0.58678 0.61368 0.0
H1433 H 0.07052 0.67689 0.69214 0.0
H1434 H 0.08105 0.60136 0.64407 0.0
H1435 H 0.03021 0.6806 0.63462 0.0
C1436 C 1.00269 0.65798 0.61555 0.0
C1437 C 0.99293 0.63156 0.60957 0.0
C1438 C 0.07875 0.61781 0.6547 0.0
C1439 C 0.03504 0.63552 0.63787 0.0
C1440 C 0.09896 0.62054 0.66931 0.0
C1441 C 0.09637 0.64173 0.68327 0.0
C1442 C 0.05639 0.63705 0.65357 0.0
C1443 C 0.07316 0.65995 0.68192 0.0
C1444 C 0.02339 0.66004 0.62986 0.0
C1445 C 1.00529 0.60757 0.61787 0.0
N1446 N 0.05434 0.65744 0.66725 0.0
N1447 N 0.02582 0.61009 0.63145 0.0
H1448 H 0.67915 0.16888 0.6274 0.0
H1449 H 0.60861 0.29288 0.68706 0.0
H1450 H 0.60935 0.21604 0.60463 0.0
H1451 H 0.69875 0.2844 0.68529 0.0
H1452 H 0.60486 0.25658 0.66193 0.0
H1453 H 0.68368 0.20377 0.65341 0.0
C1454 C 0.66495 0.18665 0.62777 0.0
C1455 C 0.64411 0.18971 0.6136 0.0
C1456 C 0.62541 0.26249 0.66724 0.0
C1457 C 0.6484 0.22896 0.6438 0.0
C1458 C 0.62755 0.28295 0.68172 0.0
C1459 C 0.65402 0.29159 0.68838 0.0
C1460 C 0.64987 0.24999 0.65973 0.0
C1461 C 0.67792 0.27832 0.68062 0.0
C1462 C 0.66749 0.20647 0.64263 0.0
C1463 C 0.62603 0.21304 0.615 0.0
N1464 N 0.67529 0.2581 0.66684 0.0
N1465 N 0.62836 0.2315 0.62991 0.0
H1466 H 0.11884 0.42676 0.87901 0.0
H1467 H 0.99186 0.3577 0.93674 0.0
H1468 H 0.06908 0.36027 0.85435 0.0
H1469 H 1.00276 0.44758 0.93678 0.0
H1470 H 0.02841 0.35404 0.9117 0.0
H1471 H 0.0839 0.43119 0.90509 0.0
C1472 C 0.10051 0.41326 0.87899 0.0
C1473 C 0.09671 0.39341 0.86426 0.0
C1474 C 0.02298 0.37451 0.91739 0.0
C1475 C 0.05739 0.39753 0.89451 0.0
C1476 C 1.00237 0.37658 0.93181 0.0
C1477 C 0.99433 0.40297 0.93896 0.0
C1478 C 0.03624 0.39891 0.91042 0.0
C1479 C 1.00835 0.42681 0.93173 0.0
C1480 C 0.08066 0.41574 0.89389 0.0
C1481 C 0.07267 0.37621 0.86517 0.0
N1482 N 0.02871 0.42422 0.91799 0.0
N1483 N 0.05419 0.37841 0.8801 0.0
H1484 H 0.88599 0.81448 0.09451 0.0
H1485 H 0.89767 0.77293 0.20576 0.0
H1486 H 0.88913 0.87795 0.13863 0.0
H1487 H 0.86193 0.71867 0.16256 0.0
H1488 H 0.89926 0.81121 0.18173 0.0
H1489 H 0.88132 0.77846 0.11946 0.0
C1490 C 0.88534 0.82091 0.10944 0.0
C1491 C 0.88766 0.8494 0.1144 0.0
C1492 C 0.89098 0.7909 0.17763 0.0
C1493 C 0.88313 0.80795 0.14326 0.0
C1494 C 0.89017 0.76903 0.19132 0.0
C1495 C 0.87961 0.74243 0.18629 0.0
C1496 C 0.88167 0.78597 0.15869 0.0
C1497 C 0.87016 0.73872 0.16727 0.0
C1498 C 0.88277 0.80029 0.12372 0.0
C1499 C 0.887 0.85631 0.13409 0.0
N1500 N 0.87161 0.76001 0.15425 0.0
N1501 N 0.88512 0.83577 0.14779 0.0
H1502 H 0.57253 0.61418 0.41031 0.0
H1503 H 0.41025 0.64094 0.38778 0.0
H1504 H 0.51664 0.6482 0.45325 0.0
H1505 H 0.47442 0.64408 0.34398 0.0
H1506 H 0.44702 0.63626 0.41233 0.0
H1507 H 0.53513 0.61792 0.38647 0.0
C1508 C 0.55231 0.62234 0.41481 0.0
C1509 C 0.54785 0.63086 0.43394 0.0
C1510 C 0.45301 0.63784 0.39735 0.0
C1511 C 0.5045 0.63492 0.40643 0.0
C1512 C 0.43203 0.64023 0.38326 0.0
C1513 C 0.43915 0.64275 0.36367 0.0
C1514 C 0.48143 0.6374 0.39187 0.0
C1515 C 0.46784 0.64212 0.35883 0.0
C1516 C 0.53097 0.62457 0.40109 0.0
C1517 C 0.52113 0.64143 0.43871 0.0
N1518 N 0.48782 0.63935 0.37277 0.0
N1519 N 0.50041 0.64296 0.4251 0.0
H1520 H 0.40017 0.2655 0.20459 0.0
H1521 H 0.38841 0.22326 0.09358 0.0
H1522 H 0.36054 0.31824 0.16204 0.0
H1523 H 0.39269 0.16013 0.13799 0.0
H1524 H 0.38308 0.25937 0.11843 0.0
H1525 H 0.40285 0.22749 0.18049 0.0
C1526 C 0.39204 0.26912 0.19026 0.0
C1527 C 0.38002 0.29519 0.18545 0.0
C1528 C 0.38496 0.23759 0.12276 0.0
C1529 C 0.38341 0.25197 0.15773 0.0
C1530 C 0.38794 0.21693 0.10855 0.0
C1531 C 0.39073 0.18849 0.11362 0.0
C1532 C 0.38543 0.23003 0.14233 0.0
C1533 C 0.39024 0.1817 0.13335 0.0
C1534 C 0.39348 0.2474 0.17653 0.0
C1535 C 0.36984 0.29857 0.16657 0.0
N1536 N 0.38797 0.20228 0.14695 0.0
N1537 N 0.37198 0.27744 0.15347 0.0
H1538 H 0.46782 0.61284 0.91184 0.0
H1539 H 0.63021 0.63941 0.88836 0.0
H1540 H 0.52335 0.64881 0.95417 0.0
H1541 H 0.56556 0.63797 0.84498 0.0
H1542 H 0.59369 0.63569 0.91333 0.0
H1543 H 0.50543 0.61505 0.88815 0.0
C1544 C 0.488 0.62116 0.91625 0.0
C1545 C 0.49224 0.63067 0.93518 0.0
C1546 C 0.58757 0.636 0.89834 0.0
C1547 C 0.53599 0.63298 0.90774 0.0
C1548 C 0.60841 0.6378 0.88403 0.0
C1549 C 0.60106 0.63879 0.86443 0.0
C1550 C 0.55909 0.63467 0.89307 0.0
C1551 C 0.57235 0.63715 0.85982 0.0
C1552 C 0.50951 0.62248 0.90259 0.0
C1553 C 0.519 0.64133 0.93979 0.0
N1554 N 0.55255 0.63505 0.87396 0.0
N1555 N 0.53991 0.64202 0.92622 0.0
H1556 H 0.17591 0.71871 0.66335 0.0
H1557 H 0.13989 0.87894 0.6391 0.0
H1558 H 0.13301 0.7713 0.70447 0.0
H1559 H 0.15047 0.815 0.59582 0.0
H1560 H 0.14383 0.84261 0.66414 0.0
H1561 H 0.1731 0.75626 0.63971 0.0
C1562 C 0.16595 0.73824 0.66752 0.0
C1563 C 0.15467 0.74163 0.68611 0.0
C1564 C 0.14544 0.8366 0.64917 0.0
C1565 C 0.1516 0.78535 0.65867 0.0
C1566 C 0.14349 0.85736 0.63482 0.0
C1567 C 0.14504 0.85015 0.61521 0.0
C1568 C 0.14948 0.80837 0.64396 0.0
C1569 C 0.14926 0.82169 0.61067 0.0
C1570 C 0.16428 0.75972 0.65388 0.0
C1571 C 0.14194 0.76759 0.69038 0.0
N1572 N 0.15145 0.802 0.62486 0.0
N1573 N 0.14089 0.7885 0.67682 0.0
H1574 H 0.06734 0.42721 0.4134 0.0
H1575 H 0.90748 0.39191 0.38871 0.0
H1576 H 1.01515 0.38267 0.45405 0.0
H1577 H 0.97221 0.3989 0.34552 0.0
H1578 H 0.94365 0.39587 0.41383 0.0
H1579 H 0.02996 0.42422 0.38966 0.0
C1580 C 0.04791 0.41687 0.41745 0.0
C1581 C 0.04455 0.40518 0.43591 0.0
C1582 C 0.94986 0.3967 0.39886 0.0
C1583 C 1.00109 0.40195 0.40842 0.0
C1584 C 0.92921 0.39476 0.38447 0.0
C1585 C 0.93672 0.39529 0.36488 0.0
C1586 C 0.97824 0.39977 0.39367 0.0
C1587 C 0.96533 0.39851 0.36036 0.0
C1588 C 0.02656 0.4151 0.40375 0.0
C1589 C 0.01879 0.39192 0.44004 0.0
N1590 N 0.98491 0.40079 0.37459 0.0
N1591 N 0.99797 0.39084 0.42645 0.0
H1592 H 0.3919 0.87838 0.40815 0.0
H1593 H 0.35701 0.71784 0.38473 0.0
H1594 H 0.38709 0.814 0.4517 0.0
H1595 H 0.39787 0.771 0.3429 0.0
H1596 H 0.36045 0.75539 0.40836 0.0
H1597 H 0.38655 0.84207 0.38328 0.0
C1598 C 0.38924 0.85669 0.41253 0.0
C1599 C 0.38977 0.84934 0.43215 0.0
C1600 C 0.36863 0.75895 0.39403 0.0
C1601 C 0.38368 0.80763 0.40363 0.0
C1602 C 0.36659 0.73751 0.3804 0.0
C1603 C 0.37717 0.7411 0.36165 0.0
C1604 C 0.38095 0.7847 0.38899 0.0
C1605 C 0.38948 0.76718 0.35714 0.0
C1606 C 0.38649 0.83596 0.39828 0.0
C1607 C 0.3867 0.82077 0.43684 0.0
N1608 N 0.39088 0.78803 0.37066 0.0
N1609 N 0.38365 0.80109 0.42275 0.0
H1610 H 0.96694 0.6809 0.1919 0.0
H1611 H 0.03664 0.58778 0.11073 0.0
H1612 H 0.92267 0.60886 0.16971 0.0
H1613 H 0.04418 0.67798 0.1098 0.0
H1614 H 0.99972 0.59181 0.13535 0.0
H1615 H 1.00103 0.67673 0.16558 0.0
C1616 C 0.96459 0.6639 0.18168 0.0
C1617 C 0.9419 0.64506 0.18319 0.0
C1618 C 1.00925 0.61072 0.12961 0.0
C1619 C 0.98116 0.64019 0.15292 0.0
C1620 C 0.03028 0.60847 0.11554 0.0
C1621 C 0.04335 0.63261 0.108 0.0
C1622 C 1.00181 0.63726 0.13678 0.0
C1623 C 0.03443 0.65885 0.11496 0.0
C1624 C 0.98393 0.66177 0.16653 0.0
C1625 C 0.93983 0.62378 0.16922 0.0
N1626 N 1.01458 0.66045 0.12915 0.0
N1627 N 0.95933 0.62174 0.15482 0.0
H1628 H 0.10809 0.29185 0.85932 0.0
H1629 H 0.17817 0.1684 0.91944 0.0
H1630 H 0.19833 0.28708 0.86334 0.0
H1631 H 0.10877 0.21595 0.94244 0.0
H1632 H 0.18297 0.20357 0.89349 0.0
H1633 H 0.10442 0.25503 0.88417 0.0
C1634 C 0.12711 0.28266 0.86512 0.0
C1635 C 0.15355 0.2925 0.85918 0.0
C1636 C 0.1668 0.20625 0.9043 0.0
C1637 C 0.14949 0.2502 0.88744 0.0
C1638 C 0.16409 0.18627 0.91912 0.0
C1639 C 0.14332 0.18942 0.93335 0.0
C1640 C 0.14791 0.22893 0.90325 0.0
C1641 C 0.1254 0.21288 0.93201 0.0
C1642 C 0.125 0.26187 0.87941 0.0
C1643 C 0.17752 0.2801 0.86747 0.0
N1644 N 0.12786 0.23145 0.91715 0.0
N1645 N 0.17495 0.25949 0.88104 0.0
H1646 H 0.5195 0.38161 0.59232 0.0
H1647 H 0.56519 0.40136 0.70227 0.0
H1648 H 0.47049 0.42857 0.63342 0.0
H1649 H 0.62667 0.38755 0.65768 0.0
H1650 H 0.52889 0.40664 0.67753 0.0
H1651 H 0.55776 0.37849 0.61621 0.0
C1652 C 0.51673 0.39125 0.60629 0.0
C1653 C 0.49164 0.40546 0.61074 0.0
C1654 C 0.55036 0.40266 0.67312 0.0
C1655 C 0.53519 0.4016 0.63827 0.0
C1656 C 0.57115 0.3997 0.68728 0.0
C1657 C 0.59919 0.39427 0.68214 0.0
C1658 C 0.55734 0.39953 0.65357 0.0
C1659 C 0.60545 0.39208 0.66237 0.0
C1660 C 0.53862 0.38954 0.61991 0.0
C1661 C 0.48939 0.41752 0.62918 0.0
N1662 N 0.58472 0.39442 0.64886 0.0
N1663 N 0.51062 0.41513 0.64219 0.0
H1664 H 0.03138 0.19886 0.25504 0.0
H1665 H 1.00769 0.34489 0.257 0.0
H1666 H 0.09936 0.25379 0.23823 0.0
H1667 H 0.94102 0.29109 0.23668 0.0
H1668 H 0.04158 0.31515 0.24085 0.0
H1669 H 0.99858 0.22985 0.23901 0.0
C1670 C 0.03966 0.21691 0.24743 0.0
C1671 C 0.06803 0.22459 0.249 0.0
C1672 C 0.01945 0.3103 0.23929 0.0
C1673 C 0.03026 0.26082 0.23124 0.0
C1674 C 0.99997 0.32742 0.24857 0.0
C1675 C 0.97158 0.31951 0.24917 0.0
C1676 C 1.0105 0.28472 0.23128 0.0
C1677 C 0.96297 0.29691 0.2376 0.0
C1678 C 0.02078 0.23475 0.23821 0.0
C1679 C 0.07735 0.24803 0.23845 0.0
N1680 N 0.98246 0.27954 0.22977 0.0
N1681 N 0.05837 0.26602 0.23068 0.0
H1682 H 0.94827 0.75772 0.50648 0.0
H1683 H 0.0446 0.84827 0.48539 0.0
H1684 H 1.00324 0.68985 0.48973 0.0
H1685 H 0.09299 0.77928 0.50828 0.0
H1686 H 1.01253 0.81452 0.47053 0.0
H1687 H 0.97914 0.79053 0.49035 0.0
C1688 C 0.96624 0.74947 0.49877 0.0
C1689 C 0.97395 0.72114 0.50036 0.0
C1690 C 0.03071 0.80685 0.47828 0.0
C1691 C 1.00991 0.75885 0.48216 0.0
C1692 C 0.04898 0.82603 0.48681 0.0
C1693 C 0.07047 0.81648 0.49904 0.0
C1694 C 0.03408 0.77815 0.48219 0.0
C1695 C 0.07611 0.7876 0.49956 0.0
C1696 C 0.98398 0.76835 0.48941 0.0
C1697 C 0.99739 0.71183 0.48981 0.0
N1698 N 0.05746 0.76936 0.49173 0.0
N1699 N 1.01525 0.73079 0.48186 0.0
H1700 H 0.43924 0.78602 0.73904 0.0
H1701 H 0.59968 0.75168 0.73959 0.0
H1702 H 0.50681 0.84124 0.75593 0.0
H1703 H 0.53155 0.69681 0.75623 0.0
H1704 H 0.56572 0.78282 0.72411 0.0
H1705 H 0.47356 0.75508 0.72373 0.0
C1706 C 0.46117 0.79213 0.73902 0.0
C1707 C 0.47043 0.81528 0.74985 0.0
C1708 C 0.55847 0.76331 0.73044 0.0
C1709 C 0.50933 0.7806 0.73185 0.0
C1710 C 0.57772 0.7457 0.73953 0.0
C1711 C 0.5682 0.72255 0.75031 0.0
C1712 C 0.52972 0.75742 0.73202 0.0
C1713 C 0.53983 0.71493 0.74872 0.0
C1714 C 0.48063 0.77464 0.73006 0.0
C1715 C 0.49877 0.82308 0.74837 0.0
N1716 N 0.52141 0.73279 0.74022 0.0
N1717 N 0.51741 0.80529 0.74004 0.0
H1718 H 0.44686 0.2555 1.00563 0.0
H1719 H 0.59367 0.278 1.00583 0.0
H1720 H 0.50071 0.18755 0.98741 0.0
H1721 H 0.53983 0.34551 0.9869 0.0
H1722 H 0.56288 0.24466 0.99001 0.0
H1723 H 0.47792 0.28849 0.9897 0.0
C1724 C 0.46465 0.2473 0.9977 0.0
C1725 C 0.47207 0.21884 0.99883 0.0
C1726 C 0.55824 0.26686 0.98866 0.0
C1727 C 0.50835 0.25673 0.98119 0.0
C1728 C 0.57596 0.286 0.99773 0.0
C1729 C 0.56841 0.31443 0.99863 0.0
C1730 C 0.53248 0.27624 0.98112 0.0
C1731 C 0.54547 0.32349 0.98752 0.0
C1732 C 0.48253 0.26627 0.98856 0.0
C1733 C 0.49517 0.20959 0.98791 0.0
N1734 N 0.52758 0.30434 0.97988 0.0
N1735 N 0.51322 0.2286 0.98021 0.0
H1736 H 0.94466 0.77244 0.29509 0.0
H1737 H 0.05754 0.83945 0.3102 0.0
H1738 H 0.98493 0.69341 0.30912 0.0
H1739 H 0.08675 0.75989 0.28764 0.0
H1740 H 0.02057 0.81423 0.32748 0.0
H1741 H 0.98063 0.79674 0.31179 0.0
C1742 C 0.96045 0.75966 0.30197 0.0
C1743 C 0.96244 0.7304 0.29905 0.0
C1744 C 0.03569 0.80243 0.3191 0.0
C1745 C 1.00517 0.75933 0.31803 0.0
C1746 C 0.05659 0.81682 0.30896 0.0
C1747 C 0.07441 0.80221 0.29626 0.0
C1748 C 0.03263 0.77336 0.31637 0.0
C1749 C 0.07331 0.77265 0.29657 0.0
C1750 C 0.98131 0.774 0.31186 0.0
C1751 C 0.98357 0.71607 0.30927 0.0
N1752 N 0.05239 0.75935 0.30608 0.0
N1753 N 1.00484 0.73074 0.31755 0.0
H1754 H 0.4426 0.77914 0.53959 0.0
H1755 H 0.58861 0.75649 0.53936 0.0
H1756 H 0.49651 0.84592 0.55956 0.0
H1757 H 0.5348 0.68796 0.5568 0.0
H1758 H 0.5579 0.78889 0.55602 0.0
H1759 H 0.4729 0.7453 0.5553 0.0
C1760 C 0.46022 0.78688 0.54788 0.0
C1761 C 0.46798 0.81529 0.54726 0.0
C1762 C 0.55321 0.76665 0.55682 0.0
C1763 C 0.50341 0.77647 0.56463 0.0
C1764 C 0.57088 0.74801 0.54723 0.0
C1765 C 0.56338 0.71961 0.54568 0.0
C1766 C 0.52747 0.75691 0.56419 0.0
C1767 C 0.54037 0.71001 0.55657 0.0
C1768 C 0.47766 0.76743 0.5569 0.0
C1769 C 0.49077 0.82395 0.55866 0.0
N1770 N 0.5225 0.72876 0.56471 0.0
N1771 N 0.50845 0.80451 0.56622 0.0
H1772 H 0.59746 0.28797 0.80916 0.0
H1773 H 0.43665 0.25389 0.80573 0.0
H1774 H 0.53101 0.34342 0.79055 0.0
H1775 H 0.50496 0.1987 0.79011 0.0
H1776 H 0.47039 0.2852 0.82125 0.0
H1777 H 0.56222 0.25697 0.82345 0.0
C1778 C 0.57557 0.29414 0.8086 0.0
C1779 C 0.56699 0.31738 0.79757 0.0
C1780 C 0.47772 0.2656 0.81512 0.0
C1781 C 0.52701 0.28265 0.81446 0.0
C1782 C 0.45861 0.24789 0.80602 0.0
C1783 C 0.46825 0.22452 0.79556 0.0
C1784 C 0.50647 0.25959 0.81392 0.0
C1785 C 0.49661 0.21693 0.7974 0.0
C1786 C 0.55557 0.27658 0.81697 0.0
C1787 C 0.53859 0.32522 0.7983 0.0
N1788 N 0.51489 0.23487 0.80594 0.0
N1789 N 0.51946 0.30741 0.80611 0.0
H1790 H 0.03541 0.18826 0.05972 0.0
H1791 H 0.99917 0.34888 0.0592 0.0
H1792 H 0.08964 0.25612 0.04167 0.0
H1793 H 0.94449 0.28112 0.04189 0.0
H1794 H 0.03076 0.31458 0.0739 0.0
H1795 H 1.00363 0.22261 0.07417 0.0
C1796 C 0.04113 0.21027 0.05928 0.0
C1797 C 0.06433 0.21948 0.0484 0.0
C1798 C 1.0112 0.30744 0.06761 0.0
C1799 C 0.02876 0.25845 0.0656 0.0
C1800 C 0.99329 0.3269 0.05903 0.0
C1801 C 0.97004 0.31765 0.04828 0.0
C1802 C 1.00548 0.27874 0.06563 0.0
C1803 C 0.96265 0.28917 0.04944 0.0
C1804 C 0.02314 0.22975 0.06776 0.0
C1805 C 0.07155 0.24803 0.04932 0.0
N1806 N 0.98079 0.27056 0.05747 0.0
N1807 N 0.05337 0.26664 0.05729 0.0
H1808 H 0.09934 0.74828 0.81012 0.0
H1809 H 0.93879 0.78245 0.80751 0.0
H1810 H 0.03238 0.69312 0.79199 0.0
H1811 H 1.00731 0.83698 0.79104 0.0
H1812 H 0.97246 0.75142 0.82338 0.0
H1813 H 0.06445 0.77909 0.82494 0.0
C1814 C 0.07743 0.74213 0.80976 0.0
C1815 C 0.06856 0.71908 0.79867 0.0
C1816 C 0.97984 0.77085 0.81699 0.0
C1817 C 0.02902 0.75356 0.81619 0.0
C1818 C 0.96076 0.78837 0.80765 0.0
C1819 C 0.97047 0.8114 0.79682 0.0
C1820 C 1.00861 0.77672 0.81565 0.0
C1821 C 0.99885 0.81897 0.79858 0.0
C1822 C 0.05764 0.75955 0.81846 0.0
C1823 C 0.04019 0.7112 0.79973 0.0
N1824 N 1.01709 0.80122 0.80735 0.0
N1825 N 0.02125 0.72891 0.80783 0.0
H1826 H 1.00282 0.18808 0.5558 0.0
H1827 H 0.03671 0.34881 0.55866 0.0
H1828 H 0.94743 0.25612 0.54 0.0
H1829 H 0.09232 0.28211 0.54071 0.0
H1830 H 1.00555 0.31378 0.57304 0.0
H1831 H 0.03393 0.22193 0.57139 0.0
C1832 C 0.99673 0.21 0.55608 0.0
C1833 C 0.97338 0.21955 0.54555 0.0
C1834 C 0.02523 0.30704 0.56668 0.0
C1835 C 1.00826 0.2579 0.56393 0.0
C1836 C 0.04288 0.32692 0.55825 0.0
C1837 C 0.06623 0.31819 0.54738 0.0
C1838 C 0.03131 0.27846 0.56439 0.0
C1839 C 0.07405 0.28981 0.54833 0.0
C1840 C 1.01433 0.22918 0.56521 0.0
C1841 C 0.96567 0.24786 0.54735 0.0
N1842 N 0.05615 0.2708 0.55619 0.0
N1843 N 0.98353 0.26623 0.55589 0.0
H1844 H 0.53096 0.18873 0.28921 0.0
H1845 H 0.43667 0.28304 0.30841 0.0
H1846 H 0.59607 0.24452 0.30939 0.0
H1847 H 0.50678 0.33295 0.28866 0.0
H1848 H 0.46971 0.25058 0.32367 0.0
H1849 H 0.49616 0.21815 0.30457 0.0
C1850 C 0.53815 0.20653 0.29754 0.0
C1851 C 0.56638 0.215 0.2971 0.0
C1852 C 0.47771 0.26914 0.31649 0.0
C1853 C 0.5264 0.24932 0.31438 0.0
C1854 C 0.45895 0.28759 0.30768 0.0
C1855 C 0.4691 0.30979 0.29625 0.0
C1856 C 0.50664 0.27307 0.31374 0.0
C1857 C 0.49798 0.31561 0.29673 0.0
C1858 C 0.51812 0.22344 0.30645 0.0
C1859 C 0.57428 0.23814 0.30842 0.0
N1860 N 0.51583 0.29687 0.30488 0.0
N1861 N 0.55427 0.25525 0.31589 0.0
H1862 H 0.5368 0.84759 0.05854 0.0
H1863 H 0.50272 0.68665 0.05823 0.0
H1864 H 0.592 0.78051 0.04066 0.0
H1865 H 0.44772 0.75414 0.04072 0.0
H1866 H 0.53389 0.72114 0.07309 0.0
H1867 H 0.5058 0.81284 0.0734 0.0
C1868 C 0.54291 0.82568 0.05823 0.0
C1869 C 0.5661 0.81675 0.04727 0.0
C1870 C 0.51434 0.72814 0.06671 0.0
C1871 C 0.53141 0.77735 0.06486 0.0
C1872 C 0.49671 0.70859 0.05798 0.0
C1873 C 0.47349 0.7177 0.04712 0.0
C1874 C 0.50835 0.75681 0.06479 0.0
C1875 C 0.46585 0.74612 0.04832 0.0
C1876 C 0.52537 0.80597 0.06695 0.0
C1877 C 0.57386 0.78836 0.04835 0.0
N1878 N 0.48369 0.76481 0.05652 0.0
N1879 N 0.55608 0.76951 0.05651 0.0
H1880 H 0.09717 0.28628 0.73763 0.0
H1881 H 0.93698 0.25208 0.73937 0.0
H1882 H 0.0296 0.34137 0.75483 0.0
H1883 H 1.00555 0.19753 0.75555 0.0
H1884 H 0.97055 0.28298 0.72323 0.0
H1885 H 0.06284 0.25555 0.7222 0.0
C1886 C 0.07525 0.29242 0.73767 0.0
C1887 C 0.06599 0.31542 0.74865 0.0
C1888 C 0.97796 0.26357 0.72961 0.0
C1889 C 0.02708 0.28098 0.7305 0.0
C1890 C 0.95894 0.24612 0.73909 0.0
C1891 C 0.96872 0.22317 0.74996 0.0
C1892 C 1.00675 0.25774 0.73088 0.0
C1893 C 0.99706 0.21552 0.74802 0.0
C1894 C 0.05578 0.27505 0.72861 0.0
C1895 C 0.03766 0.3233 0.74719 0.0
N1896 N 1.01525 0.23323 0.73914 0.0
N1897 N 0.01902 0.30561 0.73878 0.0
H1898 H 0.44724 0.28006 0.50593 0.0
H1899 H 0.59342 0.25518 0.50562 0.0
H1900 H 0.50247 0.34749 0.4886 0.0
H1901 H 0.53834 0.18891 0.4863 0.0
H1902 H 0.56339 0.28922 0.48996 0.0
H1903 H 0.47752 0.24699 0.48948 0.0
C1904 C 0.4652 0.28815 0.49812 0.0
C1905 C 0.4732 0.31642 0.49962 0.0
C1906 C 0.55828 0.26715 0.48852 0.0
C1907 C 0.50858 0.27838 0.48135 0.0
C1908 C 0.57558 0.24755 0.49751 0.0
C1909 C 0.56747 0.21924 0.4983 0.0
C1910 C 0.53231 0.25841 0.481 0.0
C1911 C 0.54436 0.2108 0.48712 0.0
C1912 C 0.48261 0.26914 0.48865 0.0
C1913 C 0.49648 0.32555 0.48882 0.0
N1914 N 0.52684 0.23042 0.4796 0.0
N1915 N 0.51405 0.30643 0.48078 0.0
H1916 H 0.55447 0.84562 0.23568 0.0
H1917 H 0.4436 0.77743 0.25576 0.0
H1918 H 0.58672 0.76507 0.2545 0.0
H1919 H 0.48186 0.69929 0.23744 0.0
H1920 H 0.47805 0.80272 0.23821 0.0
H1921 H 0.51559 0.82105 0.22017 0.0
C1922 C 0.5538 0.82293 0.23649 0.0
C1923 C 0.57311 0.80783 0.24782 0.0
C1924 C 0.47855 0.78002 0.23739 0.0
C1925 C 0.5291 0.77973 0.22964 0.0
C1926 C 0.45856 0.76508 0.24775 0.0
C1927 C 0.46043 0.73561 0.24952 0.0
C1928 C 0.50154 0.7657 0.22951 0.0
C1929 C 0.48063 0.72193 0.23806 0.0
C1930 C 0.53175 0.80893 0.22733 0.0
C1931 C 0.57218 0.77827 0.24677 0.0
N1932 N 0.50114 0.7371 0.22925 0.0
N1933 N 0.55017 0.76532 0.23829 0.0
H1934 H 1.00342 0.84942 0.99082 0.0
H1935 H 0.03936 0.68926 0.98718 0.0
H1936 H 0.94919 0.78032 1.0065 0.0
H1937 H 0.09414 0.7564 1.00545 0.0
H1938 H 1.00798 0.72404 0.97281 0.0
H1939 H 0.035 0.81623 0.97497 0.0
C1940 C 0.99769 0.82741 0.99047 0.0
C1941 C 0.97454 0.81738 1.00105 0.0
C1942 C 0.02753 0.73095 0.97922 0.0
C1943 C 1.00991 0.77979 0.98232 0.0
C1944 C 0.04531 0.71122 0.98763 0.0
C1945 C 0.06845 0.72013 0.99861 0.0
C1946 C 0.03326 0.75959 0.98167 0.0
C1947 C 0.076 0.74859 0.99776 0.0
C1948 C 1.01555 0.80861 0.98118 0.0
C1949 C 0.96727 0.78896 0.99912 0.0
N1950 N 0.05796 0.76746 0.98994 0.0
N1951 N 0.98536 0.77099 0.99041 0.0
H1952 H 0.25822 0.20467 0.31136 0.0
H1953 H 0.27842 0.33146 0.23532 0.0
H1954 H 0.19424 0.23043 0.27115 0.0
H1955 H 0.34263 0.30561 0.27532 0.0
H1956 H 0.24716 0.29521 0.24855 0.0
H1957 H 0.28952 0.24097 0.29819 0.0
C1958 C 0.25082 0.21763 0.2996 0.0
C1959 C 0.22343 0.21413 0.29235 0.0
C1960 C 0.26803 0.29756 0.25454 0.0
C1961 C 0.25928 0.25644 0.27731 0.0
C1962 C 0.28588 0.31849 0.24706 0.0
C1963 C 0.31332 0.32195 0.25422 0.0
C1964 C 0.27751 0.27967 0.26934 0.0
C1965 C 0.3217 0.30403 0.26933 0.0
C1966 C 0.2687 0.23858 0.29215 0.0
C1967 C 0.21513 0.23204 0.27721 0.0
N1968 N 0.30402 0.28378 0.27628 0.0
N1969 N 0.23282 0.2523 0.2703 0.0
H1970 H 0.98351 0.09539 0.52367 0.0
H1971 H 0.05426 0.94166 0.52246 0.0
H1972 H 0.95363 0.02761 0.48802 0.0
H1973 H 0.08374 1.00975 0.55798 0.0
H1974 H 1.0179 0.97274 0.50937 0.0
H1975 H 0.01975 0.06417 0.53661 0.0
C1976 C 0.98426 0.07383 0.51872 0.0
C1977 C 0.96516 0.06423 0.50475 0.0
C1978 C 0.03243 0.98098 0.51993 0.0
C1979 C 1.00736 0.02819 0.5194 0.0
C1980 C 0.05341 0.96324 0.52734 0.0
C1981 C 0.07242 0.97299 0.54133 0.0
C1982 C 0.03014 1.00883 0.52653 0.0
C1983 C 0.06983 1.0012 0.54716 0.0
C1984 C 1.00518 0.05601 0.52605 0.0
C1985 C 0.96761 0.03603 0.49884 0.0
N1986 N 0.04914 0.01797 0.53982 0.0
N1987 N 0.98828 0.01915 0.50611 0.0
H1988 H 0.346 0.80356 0.77115 0.0
H1989 H 0.19422 0.72895 0.77475 0.0
H1990 H 0.27844 0.83054 0.80817 0.0
H1991 H 0.25912 0.70477 0.7347 0.0
H1992 H 0.22547 0.76495 0.78775 0.0
H1993 H 0.31509 0.76729 0.7578 0.0
C1994 C 0.32456 0.80218 0.77633 0.0
C1995 C 0.31491 0.82048 0.7908 0.0
C1996 C 0.23303 0.75171 0.7762 0.0
C1997 C 0.27931 0.77824 0.77568 0.0
C1998 C 0.21519 0.73089 0.76881 0.0
C1999 C 0.22393 0.71345 0.75358 0.0
C2000 C 0.26006 0.75546 0.76841 0.0
C2001 C 0.2514 0.71743 0.7465 0.0
C2002 C 0.30693 0.78125 0.76874 0.0
C2003 C 0.2869 0.81722 0.79697 0.0
N2004 N 0.26836 0.73796 0.75391 0.0
N2005 N 0.27026 0.79655 0.78948 0.0
H2006 H 0.45375 0.02711 0.05984 0.0
H2007 H 0.58338 1.00892 0.98611 0.0
H2008 H 0.48338 0.09339 1.02265 0.0
H2009 H 0.55384 0.94265 0.02334 0.0
H2010 H 0.54746 0.0402 0.99957 0.0
H2011 H 0.48969 0.99582 0.04641 0.0
C2012 C 0.46752 0.03504 0.04868 0.0
C2013 C 0.46521 0.06305 0.04236 0.0
C2014 C 0.54892 0.01888 1.0049 0.0
C2015 C 0.50709 0.02717 0.02703 0.0
C2016 C 0.56964 1.00098 0.99729 0.0
C2017 C 0.57196 0.97298 1.00361 0.0
C2018 C 0.5301 1.00886 1.01897 0.0
C2019 C 0.55313 0.96402 1.01803 0.0
C2020 C 0.48824 1.01715 0.04108 0.0
C2021 C 0.48407 0.07201 0.02796 0.0
N2022 N 0.53308 0.98178 0.02512 0.0
N2023 N 0.50413 0.05426 1.02088 0.0
H2024 H 0.27633 0.70541 0.3122 0.0
H2025 H 0.26032 0.83011 0.23424 0.0
H2026 H 0.34059 0.72695 0.27094 0.0
H2027 H 0.19592 0.80852 0.27539 0.0
H2028 H 0.29026 0.79306 0.2478 0.0
H2029 H 0.24633 0.74244 0.29865 0.0
C2030 C 0.28401 0.71756 0.30011 0.0
C2031 C 0.3111 0.71274 0.2927 0.0
C2032 C 0.26965 0.79655 0.25397 0.0
C2033 C 0.27688 0.75586 0.27726 0.0
C2034 C 0.25259 0.81794 0.24631 0.0
C2035 C 0.22548 0.82277 0.25368 0.0
C2036 C 0.25965 0.77961 0.26914 0.0
C2037 C 0.21665 0.80585 0.26922 0.0
C2038 C 0.26692 0.73894 0.29246 0.0
C2039 C 0.31988 0.72963 0.27714 0.0
N2040 N 0.23354 0.78511 0.27632 0.0
N2041 N 0.30297 0.75035 0.27005 0.0
H2042 H 0.55798 0.09234 0.52111 0.0
H2043 H 0.48248 0.94104 0.52495 0.0
H2044 H 0.58136 0.02763 0.56151 0.0
H2045 H 0.45753 1.00771 0.48656 0.0
H2046 H 0.51864 0.97194 0.53845 0.0
H2047 H 0.52223 0.06104 0.50783 0.0
C2048 C 0.55591 0.0714 0.52707 0.0
C2049 C 0.57304 0.06273 0.54248 0.0
C2050 C 0.50516 0.97991 0.52716 0.0
C2051 C 0.53134 0.02655 0.52733 0.0
C2052 C 0.4843 0.96228 0.51949 0.0
C2053 C 0.46659 0.97168 0.50459 0.0
C2054 C 0.50868 1.00729 0.5199 0.0
C2055 C 0.47039 0.99945 0.49808 0.0
C2056 C 0.53525 0.05353 0.51951 0.0
C2057 C 0.56893 0.0353 0.54958 0.0
N2058 N 0.49096 1.0161 0.50568 0.0
N2059 N 0.54854 0.01832 0.54202 0.0
H2060 H 0.3432 0.23095 0.77457 0.0
H2061 H 0.19076 0.30438 0.77118 0.0
H2062 H 0.27731 0.20494 0.73595 0.0
H2063 H 0.25688 0.33042 0.8096 0.0
H2064 H 0.22212 0.26848 0.75791 0.0
H2065 H 0.31181 0.26684 0.78776 0.0
C2066 C 0.32201 0.23247 0.76899 0.0
C2067 C 0.31301 0.21454 0.75412 0.0
C2068 C 0.22989 0.28213 0.76915 0.0
C2069 C 0.27674 0.25638 0.76912 0.0
C2070 C 0.21199 0.30286 0.7767 0.0
C2071 C 0.22107 0.3208 0.79154 0.0
C2072 C 0.25727 0.27897 0.77646 0.0
C2073 C 0.24886 0.31737 0.79811 0.0
C2074 C 0.30409 0.2532 0.77649 0.0
C2075 C 0.28526 0.21799 0.74747 0.0
N2076 N 0.26581 0.29692 0.79061 0.0
N2077 N 0.26827 0.23844 0.75493 0.0
H2078 H 0.05569 0.09374 0.02587 0.0
H2079 H 0.98198 0.94148 1.02215 0.0
H2080 H 0.08196 0.02773 0.98741 0.0
H2081 H 0.95555 1.00763 0.06045 0.0
H2082 H 0.01822 0.97274 1.00912 0.0
H2083 H 0.01964 0.06238 0.03902 0.0
C2084 C 0.05421 0.07253 1.02033 0.0
C2085 C 0.07223 0.06348 1.00551 0.0
C2086 C 1.00442 0.98053 1.02029 0.0
C2087 C 0.03025 0.0273 1.02042 0.0
C2088 C 0.9835 0.96269 0.02769 0.0
C2089 C 0.96536 0.97183 0.04242 0.0
C2090 C 1.00754 1.00788 0.02764 0.0
C2091 C 0.96878 0.99957 0.04905 0.0
C2092 C 0.03339 0.05464 0.0278 0.0
C2093 C 0.06884 0.03573 0.99889 0.0
N2094 N 0.9894 1.01647 0.04169 0.0
N2095 N 0.04831 0.01878 1.00631 0.0
H2096 H 0.69345 0.73105 0.77107 0.0
H2097 H 0.84514 0.80598 0.77571 0.0
H2098 H 0.75934 0.70546 0.80985 0.0
H2099 H 0.78036 0.83042 0.73573 0.0
H2100 H 0.81368 0.76999 0.78877 0.0
H2101 H 0.72473 0.76723 0.75792 0.0
C2102 C 0.7146 0.73273 0.77669 0.0
C2103 C 0.72366 0.71484 0.79159 0.0
C2104 C 0.80622 0.78331 0.77723 0.0
C2105 C 0.75973 0.75696 0.77668 0.0
C2106 C 0.82417 0.8041 0.76981 0.0
C2107 C 0.81551 0.82161 0.75459 0.0
C2108 C 0.77918 0.77966 0.76944 0.0
C2109 C 0.78805 0.8177 0.74752 0.0
C2110 C 0.73245 0.75361 0.76922 0.0
C2111 C 0.75134 0.71848 0.79831 0.0
N2112 N 0.77101 0.79721 0.75492 0.0
N2113 N 0.76823 0.73906 0.7909 0.0
H2114 H 0.84557 0.30457 0.27139 0.0
H2115 H 0.69369 0.22991 0.27444 0.0
H2116 H 0.77824 0.33104 0.30877 0.0
H2117 H 0.76032 0.20377 0.23637 0.0
H2118 H 0.7246 0.26628 0.28747 0.0
H2119 H 0.81482 0.26805 0.25822 0.0
C2120 C 0.82421 0.30302 0.27668 0.0
C2121 C 0.81459 0.32125 0.29121 0.0
C2122 C 0.7326 0.25251 0.27636 0.0
C2123 C 0.77913 0.27874 0.27629 0.0
C2124 C 0.71495 0.2315 0.26896 0.0
C2125 C 0.7243 0.21339 0.25428 0.0
C2126 C 0.76 0.2558 0.26908 0.0
C2127 C 0.75212 0.21694 0.24774 0.0
C2128 C 0.80666 0.28194 0.26921 0.0
C2129 C 0.78667 0.31777 0.29753 0.0
N2130 N 0.76884 0.23767 0.2551 0.0
N2131 N 0.77008 0.29699 0.29012 0.0
H2132 H 0.76042 0.33269 0.73759 0.0
H2133 H 0.77867 0.20322 0.81146 0.0
H2134 H 0.6933 0.30232 0.77378 0.0
H2135 H 0.84402 0.23151 0.77303 0.0
H2136 H 0.74722 0.23916 0.7981 0.0
H2137 H 0.79151 0.29673 0.75112 0.0
C2138 C 0.75224 0.31875 0.74857 0.0
C2139 C 0.72405 0.32088 0.75456 0.0
C2140 C 0.76838 0.23741 0.79249 0.0
C2141 C 0.75979 0.27892 0.77005 0.0
C2142 C 0.78637 0.21669 0.80005 0.0
C2143 C 0.81417 0.21398 0.79334 0.0
C2144 C 0.77812 0.25589 0.77812 0.0
C2145 C 0.82282 0.23248 0.77864 0.0
C2146 C 0.77004 0.29799 0.75622 0.0
C2147 C 0.71482 0.30177 0.76873 0.0
N2148 N 0.80501 0.25255 0.77164 0.0
N2149 N 0.73252 0.28169 0.7759 0.0
H2150 H 0.69667 0.80998 0.2694 0.0
H2151 H 0.84134 0.72353 0.27704 0.0
H2152 H 0.76122 0.82824 0.31106 0.0
H2153 H 0.77922 0.70817 0.23316 0.0
H2154 H 0.81161 0.76068 0.29021 0.0
H2155 H 0.72634 0.77287 0.256 0.0
C2156 C 0.71728 0.80653 0.27559 0.0
C2157 C 0.72641 0.82258 0.29139 0.0
C2158 C 0.80432 0.7491 0.27778 0.0
C2159 C 0.7605 0.77931 0.2762 0.0
C2160 C 0.82123 0.72761 0.2703 0.0
C2161 C 0.81284 0.71237 0.25394 0.0
C2162 C 0.77862 0.7557 0.26893 0.0
C2163 C 0.78658 0.71906 0.24585 0.0
C2164 C 0.73417 0.78511 0.26796 0.0
C2165 C 0.75329 0.81673 0.2988 0.0
N2166 N 0.77053 0.74021 0.25335 0.0
N2167 N 0.76923 0.79556 0.29124 0.0
H2168 H 0.55412 0.43938 1.0211 0.0
H2169 H 0.4811 0.59187 0.02434 0.0
H2170 H 0.58196 0.50661 0.05799 0.0
H2171 H 0.45615 0.52688 0.9847 0.0
H2172 H 0.51695 0.56038 0.03742 0.0
H2173 H 0.51817 0.47067 1.00774 0.0
C2174 C 0.55299 0.46082 0.02624 0.0
C2175 C 0.57142 0.47028 0.04068 0.0
C2176 C 0.50356 0.55288 0.02594 0.0
C2177 C 0.52958 0.50632 0.02556 0.0
C2178 C 0.48285 0.57084 1.01851 0.0
C2179 C 0.46525 0.56213 1.00339 0.0
C2180 C 0.507 0.52577 1.01827 0.0
C2181 C 0.46896 0.5346 0.99642 0.0
C2182 C 0.53225 0.47868 1.01865 0.0
C2183 C 0.56851 0.49831 0.04681 0.0
N2184 N 0.48936 0.51753 1.00385 0.0
N2185 N 0.54802 0.51518 0.03932 0.0
H2186 H 0.95338 0.52844 0.55786 0.0
H2187 H 0.08516 0.51056 0.48589 0.0
H2188 H 0.98532 0.59596 0.52267 0.0
H2189 H 0.05417 0.44446 0.52271 0.0
H2190 H 0.04923 0.54218 0.4991 0.0
H2191 H 0.98947 0.49734 0.54454 0.0
C2192 C 0.9677 0.53671 0.54714 0.0
C2193 C 0.96598 0.565 0.54136 0.0
C2194 C 0.0504 0.52081 0.50439 0.0
C2195 C 1.00808 0.52926 0.52615 0.0
C2196 C 0.07112 0.50274 0.49693 0.0
C2197 C 0.07303 0.47467 0.50321 0.0
C2198 C 0.03117 0.51089 0.51824 0.0
C2199 C 0.0538 0.46585 0.51743 0.0
C2200 C 0.98853 0.5189 0.53962 0.0
C2201 C 0.98555 0.57435 0.52753 0.0
N2202 N 0.03378 0.48375 0.52434 0.0
N2203 N 1.0057 0.55664 0.52048 0.0
H2204 H 0.05379 0.59554 1.02236 0.0
H2205 H 0.9828 0.44194 0.02399 0.0
H2206 H 0.08326 0.52746 0.05802 0.0
H2207 H 0.95347 0.50949 0.98781 0.0
H2208 H 0.01901 0.47316 0.03691 0.0
H2209 H 1.01743 0.56446 1.00934 0.0
C2210 C 0.05293 0.57396 0.0273 0.0
C2211 C 0.07194 0.56421 0.0413 0.0
C2212 C 1.00457 0.48127 0.02624 0.0
C2213 C 0.02965 0.52838 0.02656 0.0
C2214 C 0.98366 0.46345 1.01891 0.0
C2215 C 0.96473 0.47299 1.0048 0.0
C2216 C 1.00689 0.50903 1.01945 0.0
C2217 C 0.96733 0.50112 0.99875 0.0
C2218 C 0.03195 0.55623 1.01992 0.0
C2219 C 0.06935 0.53601 0.04718 0.0
N2220 N 0.98797 0.51801 1.00602 0.0
N2221 N 0.04865 0.51924 0.03987 0.0
H2222 H 0.48171 0.44253 0.52082 0.0
H2223 H 0.55639 0.59429 0.52501 0.0
H2224 H 0.45649 0.50791 0.56009 0.0
H2225 H 0.58065 0.52912 0.48529 0.0
H2226 H 0.52042 0.56294 0.5383 0.0
H2227 H 0.51752 0.47399 0.50754 0.0
C2228 C 0.4834 0.46362 0.52654 0.0
C2229 C 0.46571 0.47246 0.54161 0.0
C2230 C 0.5337 0.55539 0.52676 0.0
C2231 C 0.50746 0.5088 0.52651 0.0
C2232 C 0.55447 0.57328 0.5192 0.0
C2233 C 0.57193 0.56445 0.504 0.0
C2234 C 0.53004 0.52828 0.51912 0.0
C2235 C 0.56797 0.53694 0.49705 0.0
C2236 C 0.50408 0.48159 0.51898 0.0
C2237 C 0.46935 0.50009 0.54842 0.0
N2238 N 0.54752 0.51999 0.50459 0.0
N2239 N 0.48976 0.51712 0.5409 0.0
H2240 H 0.29763 0.14016 0.39007 0.0
H2241 H 0.37249 0.99495 0.37936 0.0
H2242 H 0.28114 0.08041 0.34488 0.0
H2243 H 0.39305 0.05555 0.42317 0.0
H2244 H 0.34965 0.03198 0.36082 0.0
H2245 H 0.34182 0.11589 0.397 0.0
C2246 C 0.30355 0.12213 0.38148 0.0
C2247 C 0.28542 0.11147 0.36743 0.0
C2248 C 0.3597 0.03741 0.37427 0.0
C2249 C 0.33556 0.08383 0.37511 0.0
C2250 C 0.37266 1.01627 0.38481 0.0
C2251 C 0.3838 0.02229 0.40293 0.0
C2252 C 0.35719 0.06438 0.38231 0.0
C2253 C 0.3842 0.05017 0.40932 0.0
C2254 C 0.32877 0.10838 0.38535 0.0
C2255 C 0.29412 0.08848 0.35639 0.0
N2256 N 0.37031 0.07017 0.39923 0.0
N2257 N 0.31839 0.07512 0.36068 0.0
H2258 H 0.25083 0.08406 0.70478 0.0
H2259 H 0.13892 0.05706 0.62398 0.0
H2260 H 0.23552 0.13938 0.65677 0.0
H2261 H 0.16427 0.99674 0.66694 0.0
H2262 H 0.16073 0.09434 0.64286 0.0
H2263 H 0.20685 0.05973 0.69797 0.0
C2264 C 0.23799 0.09112 0.69285 0.0
C2265 C 0.24706 0.11291 0.68082 0.0
C2266 C 0.16088 0.07306 0.64841 0.0
C2267 C 0.19704 0.08536 0.67294 0.0
C2268 C 0.14837 0.05183 0.63769 0.0
C2269 C 0.15069 0.02382 0.64372 0.0
C2270 C 0.17589 0.066 0.66508 0.0
C2271 C 0.16291 0.01806 0.66158 0.0
C2272 C 0.21283 0.07746 0.68909 0.0
C2273 C 0.22938 0.12215 0.66605 0.0
N2274 N 0.1756 0.03896 0.67149 0.0
N2275 N 0.20539 0.10785 0.66221 0.0
H2276 H 0.16706 0.04286 0.88019 0.0
H2277 H 0.23449 0.89305 0.88882 0.0
H2278 H 0.14413 0.98228 0.92363 0.0
H2279 H 0.25493 0.95389 0.84499 0.0
H2280 H 0.19184 0.91974 0.89633 0.0
H2281 H 0.18881 1.00535 0.8615 0.0
C2282 C 0.16623 0.0215 0.88557 0.0
C2283 C 0.1546 1.01558 0.90359 0.0
C2284 C 0.20539 0.92697 0.88483 0.0
C2285 C 0.17981 0.97284 0.88272 0.0
C2286 C 0.22969 0.91181 0.88063 0.0
C2287 C 0.24852 0.92204 0.86682 0.0
C2288 C 0.20024 0.95242 0.87515 0.0
C2289 C 0.24133 0.94604 0.85627 0.0
C2290 C 0.17852 1.00008 0.87493 0.0
C2291 C 0.15332 0.98762 0.90985 0.0
N2292 N 0.21795 0.9607 0.86087 0.0
N2293 N 0.16647 0.96728 0.89962 0.0
H2294 H 0.28148 0.9551 0.20429 0.0
H2295 H 0.39761 0.98234 0.1262 0.0
H2296 H 0.30029 0.89979 0.15691 0.0
H2297 H 0.36748 0.04366 0.16695 0.0
H2298 H 0.37585 0.94522 0.14531 0.0
H2299 H 0.32542 0.98009 0.19842 0.0
C2300 C 0.29503 0.94822 0.19268 0.0
C2301 C 0.28697 0.92622 0.18052 0.0
C2302 C 0.37464 0.96671 0.15034 0.0
C2303 C 0.33702 0.95441 0.17382 0.0
C2304 C 0.38711 0.98787 0.1395 0.0
C2305 C 0.38341 1.01604 0.14478 0.0
C2306 C 0.35824 0.97401 0.16635 0.0
C2307 C 0.36988 0.02217 0.16213 0.0
C2308 C 0.32018 0.96222 0.18948 0.0
C2309 C 0.3056 0.91717 0.16625 0.0
N2310 N 0.35722 1.0013 0.17214 0.0
N2311 N 0.3296 0.93177 0.16298 0.0
H2312 H 0.73906 0.89711 0.65754 0.0
H2313 H 0.66802 0.04403 0.66811 0.0
H2314 H 0.7564 0.95573 0.70328 0.0
H2315 H 0.64491 0.98338 0.62491 0.0
H2316 H 0.69024 1.00665 0.68667 0.0
H2317 H 0.69547 0.92242 0.65063 0.0
C2318 C 0.73342 0.91509 0.66627 0.0
C2319 C 0.75166 0.92515 0.68045 0.0
C2320 C 0.67977 1.00131 0.67334 0.0
C2321 C 0.70225 0.95404 0.67275 0.0
C2322 C 0.6672 0.02267 0.66278 0.0
C2323 C 0.65547 1.0167 0.64482 0.0
C2324 C 0.68125 0.97413 0.66552 0.0
C2325 C 0.65421 0.98874 0.63863 0.0
C2326 C 0.70855 0.92946 0.66241 0.0
C2327 C 0.74333 0.94811 0.69166 0.0
N2328 N 0.66768 0.9685 0.64875 0.0
N2329 N 0.71943 0.9621 0.68735 0.0
H2330 H 0.89215 0.98325 0.40937 0.0
H2331 H 0.74274 0.91518 0.41837 0.0
H2332 H 0.83016 1.00571 0.45197 0.0
H2333 H 0.80434 0.89146 0.37581 0.0
H2334 H 0.7798 0.93772 0.43703 0.0
H2335 H 0.86605 0.93997 0.4029 0.0
C2336 C 0.87323 0.97881 0.4175 0.0
C2337 C 0.86255 0.99835 0.43063 0.0
C2338 C 0.78537 0.92705 0.42382 0.0
C2339 C 0.8328 0.94932 0.42347 0.0
C2340 C 0.76421 0.91431 0.41319 0.0
C2341 C 0.77052 0.90229 0.39536 0.0
C2342 C 0.81274 0.92832 0.41623 0.0
C2343 C 0.79864 0.90093 0.38941 0.0
C2344 C 0.85841 0.95414 0.4139 0.0
C2345 C 0.83836 0.99157 0.44114 0.0
N2346 N 0.8187 0.91449 0.39962 0.0
N2347 N 0.824 0.9678 0.43709 0.0
H2348 H 0.89169 0.05191 0.13747 0.0
H2349 H 0.74569 0.12398 0.12759 0.0
H2350 H 0.8325 0.03551 0.0919 0.0
H2351 H 0.80652 0.1451 0.17117 0.0
H2352 H 0.78309 0.10294 0.10841 0.0
H2353 H 0.86746 0.09611 0.14421 0.0
C2354 C 0.87384 0.05789 0.12872 0.0
C2355 C 0.86324 0.03972 0.11468 0.0
C2356 C 0.78846 0.11275 0.12195 0.0
C2357 C 0.83553 0.08982 0.12223 0.0
C2358 C 0.7671 0.12465 0.13288 0.0
C2359 C 0.7731 0.13535 0.15113 0.0
C2360 C 0.81567 0.11086 0.12971 0.0
C2361 C 0.80111 0.13652 0.15724 0.0
C2362 C 0.86008 0.08311 0.13249 0.0
C2363 C 0.84048 0.04851 0.10343 0.0
N2364 N 0.82135 0.12365 0.14677 0.0
N2365 N 0.82703 0.07274 0.10769 0.0
H2366 H 0.66563 0.9933 0.878 0.0
H2367 H 0.73726 0.13935 0.8894 0.0
H2368 H 0.64245 0.05381 0.9213 0.0
H2369 H 0.75466 0.08107 0.84345 0.0
H2370 H 0.6931 0.1147 0.89575 0.0
H2371 H 0.6876 0.03081 0.85938 0.0
C2372 C 0.66472 1.01467 0.88333 0.0
C2373 C 0.65311 0.02055 0.90135 0.0
C2374 C 0.70632 0.1076 0.88404 0.0
C2375 C 0.67864 0.06324 0.8806 0.0
C2376 C 0.73152 0.12159 0.8805 0.0
C2377 C 0.74994 0.11138 0.86645 0.0
C2378 C 0.69988 0.08323 0.87351 0.0
C2379 C 0.74146 0.08875 0.855 0.0
C2380 C 0.67715 0.03609 0.87273 0.0
C2381 C 0.6517 0.0485 0.90755 0.0
N2382 N 0.71724 0.07508 0.85901 0.0
N2383 N 0.66507 0.06881 0.8974 0.0
H2384 H 0.80273 0.64102 0.88813 0.0
H2385 H 0.87525 0.49452 0.87841 0.0
H2386 H 0.78613 0.58145 0.84285 0.0
H2387 H 0.89533 0.55491 0.92249 0.0
H2388 H 0.85357 0.53189 0.85953 0.0
H2389 H 0.84648 0.61618 0.89539 0.0
C2390 C 0.80858 0.62295 0.87957 0.0
C2391 C 0.79049 0.61247 0.86543 0.0
C2392 C 0.86327 0.53717 0.87313 0.0
C2393 C 0.84007 0.58411 0.87352 0.0
C2394 C 0.87553 0.51582 0.88388 0.0
C2395 C 0.88622 0.52168 0.90217 0.0
C2396 C 0.86104 0.56423 0.88107 0.0
C2397 C 0.88684 0.54959 0.90853 0.0
C2398 C 0.83353 0.60884 0.88362 0.0
C2399 C 0.79909 0.5894 0.85442 0.0
N2400 N 0.87368 0.5698 0.89819 0.0
N2401 N 0.82306 0.57566 0.85893 0.0
H2402 H 0.65697 0.51517 0.16186 0.0
H2403 H 0.73447 0.63081 0.18984 0.0
H2404 H 0.66143 0.55053 0.10486 0.0
H2405 H 0.77611 0.6069 0.13724 0.0
H2406 H 0.69147 0.60749 0.17857 0.0
H2407 H 0.6835 0.55558 0.17411 0.0
C2408 C 0.66282 0.53199 0.15213 0.0
C2409 C 0.65731 0.52994 0.13247 0.0
C2410 C 0.7099 0.60793 0.16942 0.0
C2411 C 0.68762 0.57525 0.14602 0.0
C2412 C 0.73423 0.62115 0.17574 0.0
C2413 C 0.7586 0.62022 0.16443 0.0
C2414 C 0.71021 0.59417 0.15165 0.0
C2415 C 0.75764 0.60759 0.14634 0.0
C2416 C 0.67768 0.555 0.15906 0.0
C2417 C 0.66542 0.55176 0.12017 0.0
N2418 N 0.7337 0.59483 0.14048 0.0
N2419 N 0.68102 0.57328 0.12707 0.0
H2420 H 0.79066 0.41283 0.41692 0.0
H2421 H 0.64557 0.48706 0.40687 0.0
H2422 H 0.73015 0.3929 0.37289 0.0
H2423 H 0.70407 0.50139 0.45318 0.0
H2424 H 0.66966 0.44296 0.39955 0.0
H2425 H 0.75335 0.4344 0.4359 0.0
C2426 C 0.76932 0.41255 0.41149 0.0
C2427 C 0.76339 0.40197 0.3932 0.0
C2428 C 0.67691 0.45548 0.41155 0.0
C2429 C 0.72094 0.42709 0.41437 0.0
C2430 C 0.66324 0.48064 0.41565 0.0
C2431 C 0.67368 0.4982 0.4301 0.0
C2432 C 0.7012 0.4482 0.42192 0.0
C2433 C 0.6962 0.48886 0.44136 0.0
C2434 C 0.74801 0.42476 0.4223 0.0
C2435 C 0.73548 0.40136 0.38686 0.0
N2436 N 0.70956 0.4647 0.43681 0.0
N2437 N 0.71529 0.41452 0.39723 0.0
H2438 H 0.74624 0.41291 0.62866 0.0
H2439 H 0.89326 0.48584 0.63889 0.0
H2440 H 0.80631 0.39269 0.67295 0.0
H2441 H 0.83261 0.50428 0.59459 0.0
H2442 H 0.86794 0.44226 0.64611 0.0
H2443 H 0.78352 0.43576 0.61029 0.0
C2444 C 0.76748 0.41284 0.63428 0.0
C2445 C 0.77326 0.40173 0.65247 0.0
C2446 C 0.86045 0.45561 0.63458 0.0
C2447 C 0.81567 0.42826 0.63198 0.0
C2448 C 0.87482 0.48045 0.63055 0.0
C2449 C 0.86425 0.49895 0.61667 0.0
C2450 C 0.83544 0.44955 0.62466 0.0
C2451 C 0.84069 0.49097 0.60594 0.0
C2452 C 0.78876 0.4258 0.62383 0.0
C2453 C 0.80107 0.40146 0.65904 0.0
N2454 N 0.82679 0.46704 0.61038 0.0
N2455 N 0.82122 0.41527 0.649 0.0
H2456 H 0.25434 0.45378 0.20391 0.0
H2457 H 0.14153 0.48022 0.12334 0.0
H2458 H 0.2391 0.39835 0.15604 0.0
H2459 H 0.16691 0.54078 0.16604 0.0
H2460 H 0.16416 0.44319 0.14207 0.0
H2461 H 0.21047 0.47821 0.19692 0.0
C2462 C 0.24156 0.44673 0.19196 0.0
C2463 C 0.2506 0.42484 0.18004 0.0
C2464 C 0.16415 0.46445 0.14759 0.0
C2465 C 0.20067 0.45248 0.17198 0.0
C2466 C 0.15117 0.48555 0.13697 0.0
C2467 C 0.15322 0.51357 0.14297 0.0
C2468 C 0.17934 0.47168 0.16415 0.0
C2469 C 0.16572 0.51945 0.16071 0.0
C2470 C 0.21646 0.46045 0.18809 0.0
C2471 C 0.23299 0.41564 0.16524 0.0
N2472 N 0.17884 0.4987 0.17053 0.0
N2473 N 0.20903 0.42997 0.16132 0.0
H2474 H 0.39412 0.4818 0.92174 0.0
H2475 H 0.28048 0.45115 0.84221 0.0
H2476 H 0.36315 0.54209 0.88053 0.0
H2477 H 0.29828 0.3964 0.8901 0.0
H2478 H 0.32337 0.47736 0.849 0.0
H2479 H 0.37237 0.4441 0.90315 0.0
C2480 C 0.38337 0.48697 0.90848 0.0
C2481 C 0.37963 0.515 0.90283 0.0
C2482 C 0.31818 0.45935 0.85786 0.0
C2483 C 0.35466 0.47234 0.88178 0.0
C2484 C 0.29368 0.44459 0.85409 0.0
C2485 C 0.2856 0.42241 0.86611 0.0
C2486 C 0.33432 0.45213 0.87399 0.0
C2487 C 0.30367 0.41389 0.88085 0.0
C2488 C 0.37093 0.4655 0.89793 0.0
C2489 C 0.36572 0.52071 0.88557 0.0
N2490 N 0.32702 0.42925 0.88469 0.0
N2491 N 0.35327 0.49955 0.87579 0.0
H2492 H 0.33398 0.53246 0.59079 0.0
H2493 H 0.3035 0.64514 0.67077 0.0
H2494 H 0.38846 0.54974 0.63885 0.0
H2495 H 0.2433 0.61522 0.6292 0.0
H2496 H 0.34124 0.62393 0.65193 0.0
H2497 H 0.30811 0.57559 0.59751 0.0
C2498 C 0.34056 0.54558 0.60269 0.0
C2499 C 0.36254 0.53728 0.61479 0.0
C2500 C 0.31985 0.62262 0.64668 0.0
C2501 C 0.33323 0.58628 0.62256 0.0
C2502 C 0.29835 0.63476 0.65738 0.0
C2503 C 0.27031 0.6311 0.65172 0.0
C2504 C 0.31307 0.60667 0.63039 0.0
C2505 C 0.26467 0.61768 0.63428 0.0
C2506 C 0.326 0.57023 0.60641 0.0
C2507 C 0.37111 0.55529 0.62953 0.0
N2508 N 0.28588 0.60545 0.62437 0.0
N2509 N 0.35595 0.57877 0.63332 0.0
H2510 H 0.165 0.4916 0.37659 0.0
H2511 H 0.23566 0.63802 0.38813 0.0
H2512 H 0.14045 0.55307 0.41892 0.0
H2513 H 0.25658 0.57798 0.34393 0.0
H2514 H 0.19118 0.61355 0.39337 0.0
H2515 H 0.18745 0.52874 0.35789 0.0
C2516 C 0.16385 0.51308 0.38168 0.0
C2517 C 0.15184 0.51932 0.39953 0.0
C2518 C 0.20529 0.60598 0.3823 0.0
C2519 C 0.17785 0.56157 0.37869 0.0
C2520 C 0.23069 0.61985 0.37941 0.0
C2521 C 0.25013 0.60921 0.36616 0.0
C2522 C 0.19963 0.58123 0.37199 0.0
C2523 C 0.2426 0.58602 0.35492 0.0
C2524 C 0.17655 0.53429 0.37103 0.0
C2525 C 0.15004 0.54743 0.40534 0.0
N2526 N 0.21811 0.57248 0.35833 0.0
N2527 N 0.16367 0.56751 0.39518 0.0
H2528 H 0.17604 0.06478 0.31979 0.0
H2529 H 0.17609 0.97003 0.22541 0.0
H2530 H 0.15047 0.09976 0.2654 0.0
H2531 H 0.15002 0.93541 0.27983 0.0
H2532 H 0.17505 1.01733 0.2396 0.0
H2533 H 0.17489 1.01758 0.30552 0.0
C2534 C 0.17033 0.06267 0.30479 0.0
C2535 C 0.16338 0.08669 0.29388 0.0
C2536 C 0.16955 0.99942 0.24846 0.0
C2537 C 0.16256 0.03198 0.27719 0.0
C2538 C 0.17027 0.97225 0.24039 0.0
C2539 C 0.16314 0.9483 0.25135 0.0
C2540 C 0.16248 1.00308 0.26793 0.0
C2541 C 0.15563 0.95299 0.27071 0.0
C2542 C 0.16954 0.03554 0.29668 0.0
C2543 C 0.15597 0.08212 0.27449 0.0
N2544 N 0.15587 0.97958 0.27839 0.0
N2545 N 0.15613 0.05555 0.26677 0.0
H2546 H 0.20978 0.96186 0.5529 0.0
H2547 H 0.33929 0.87373 0.51094 0.0
H2548 H 0.20008 0.87525 0.53631 0.0
H2549 H 0.32865 0.96089 0.49592 0.0
H2550 H 0.29226 0.87401 0.52579 0.0
H2551 H 0.25658 0.96225 0.53758 0.0
C2552 C 0.2174 0.94288 0.54608 0.0
C2553 C 0.20053 0.91852 0.54591 0.0
C2554 C 0.30024 0.89312 0.51931 0.0
C2555 C 0.25499 0.91865 0.52865 0.0
C2556 C 0.32726 0.89304 0.51089 0.0
C2557 C 0.33832 0.91733 0.50205 0.0
C2558 C 0.28404 0.91789 0.51955 0.0
C2559 C 0.32125 0.9416 0.50245 0.0
C2560 C 0.2442 0.94317 0.53727 0.0
C2561 C 0.21196 0.89463 0.53677 0.0
N2562 N 0.29533 0.94134 0.51116 0.0
N2563 N 0.23836 0.89521 0.5288 0.0
H2564 H 0.38442 0.10147 0.78054 0.0
H2565 H 0.38359 0.93449 0.76631 0.0
H2566 H 0.35805 0.06441 0.72705 0.0
H2567 H 0.35885 0.97117 0.82032 0.0
H2568 H 0.3831 0.98174 0.75166 0.0
H2569 H 0.38391 0.0543 0.79542 0.0
C2570 C 0.37858 0.08351 0.77187 0.0
C2571 C 0.37108 0.08729 0.75244 0.0
C2572 C 0.37777 0.97945 0.76672 0.0
C2573 C 0.37123 0.03266 0.7694 0.0
C2574 C 0.3781 0.9524 0.77514 0.0
C2575 C 0.37105 0.94847 0.79465 0.0
C2576 C 0.37125 1.00325 0.77792 0.0
C2577 C 0.3642 0.97286 0.80523 0.0
C2578 C 0.37823 0.05652 0.78042 0.0
C2579 C 0.36377 0.06285 0.74207 0.0
N2580 N 0.36479 0.99898 0.79686 0.0
N2581 N 0.36435 0.03682 0.75054 0.0
H2582 H 0.20816 0.07648 0.99544 0.0
H2583 H 0.33946 0.16379 0.03539 0.0
H2584 H 0.19952 0.16361 1.011 0.0
H2585 H 0.32761 0.07705 0.05113 0.0
H2586 H 0.29214 0.16405 1.02098 0.0
H2587 H 0.2551 0.076 1.01041 0.0
C2588 C 0.21604 0.09555 1.00198 0.0
C2589 C 0.19941 0.12008 1.00197 0.0
C2590 C 0.29992 0.14492 0.02752 0.0
C2591 C 0.2541 0.11984 1.01879 0.0
C2592 C 0.32712 0.14468 0.03568 0.0
C2593 C 0.33792 0.12033 0.04458 0.0
C2594 C 0.2833 0.12041 0.02764 0.0
C2595 C 0.32044 0.09636 0.04452 0.0
C2596 C 0.24293 0.09522 1.01058 0.0
C2597 C 0.2112 0.14409 1.01072 0.0
N2598 N 0.29437 0.09692 0.03608 0.0
N2599 N 0.23772 0.14346 1.01849 0.0
H2600 H 0.91871 0.94718 0.76179 0.0
H2601 H 0.82948 0.07862 0.79995 0.0
H2602 H 0.83143 0.95783 0.74708 0.0
H2603 H 0.9173 0.08738 0.78608 0.0
H2604 H 0.82983 0.03151 0.78546 0.0
H2605 H 0.91882 0.99489 0.77567 0.0
C2606 C 0.89946 0.95933 0.76164 0.0
C2607 C 0.87499 0.94808 0.7532 0.0
C2608 C 0.84903 0.04373 0.78551 0.0
C2609 C 0.87493 1.00311 0.76942 0.0
C2610 C 0.84887 0.07076 0.79381 0.0
C2611 C 0.87334 0.08746 0.79418 0.0
C2612 C 0.87406 0.03249 0.77793 0.0
C2613 C 0.89781 0.07565 0.78601 0.0
C2614 C 0.89962 0.98674 0.76946 0.0
C2615 C 0.85084 0.96532 0.75337 0.0
N2616 N 0.89762 0.04897 0.77849 0.0
N2617 N 0.85136 0.99158 0.76144 0.0
H2618 H 0.6852 0.13384 0.5173 0.0
H2619 H 0.85242 0.13361 0.53025 0.0
H2620 H 0.72304 0.10758 0.57061 0.0
H2621 H 0.81465 0.10915 0.47656 0.0
H2622 H 0.80546 0.13284 0.54536 0.0
H2623 H 0.73214 0.13356 0.50215 0.0
C2624 C 0.70329 0.12806 0.52587 0.0
C2625 C 0.69979 0.12052 0.54534 0.0
C2626 C 0.80746 0.12764 0.53027 0.0
C2627 C 0.75419 0.12095 0.52804 0.0
C2628 C 0.83434 0.12813 0.52159 0.0
C2629 C 0.83786 0.12126 0.50203 0.0
C2630 C 0.78344 0.12111 0.51929 0.0
C2631 C 0.81327 0.11439 0.49167 0.0
C2632 C 0.73016 0.12785 0.51717 0.0
C2633 C 0.72439 0.11331 0.55557 0.0
N2634 N 0.78733 0.11481 0.5003 0.0
N2635 N 0.75032 0.11402 0.54694 0.0
H2636 H 0.67972 0.97082 0.32158 0.0
H2637 H 0.6821 0.06245 0.22498 0.0
H2638 H 0.65628 0.93454 0.26721 0.0
H2639 H 0.65608 0.09907 0.27873 0.0
H2640 H 0.68146 1.01572 0.24022 0.0
H2641 H 0.6798 1.01767 0.30646 0.0
C2642 C 0.67477 0.97257 0.30643 0.0
C2643 C 0.66796 0.94831 0.29577 0.0
C2644 C 0.67597 0.03397 0.24872 0.0
C2645 C 0.6686 1.00249 0.27811 0.0
C2646 C 0.67646 0.06081 0.24004 0.0
C2647 C 0.66915 0.08513 0.25048 0.0
C2648 C 0.6689 0.03105 0.26828 0.0
C2649 C 0.66184 0.08118 0.26998 0.0
C2650 C 0.67469 0.99947 0.29781 0.0
C2651 C 0.66158 0.95237 0.27614 0.0
N2652 N 0.66222 0.05494 0.27823 0.0
N2653 N 0.66238 0.97865 0.26798 0.0
H2654 H 0.83883 0.87117 0.03429 0.0
H2655 H 0.70864 0.95994 0.99392 0.0
H2656 H 0.82836 0.95845 0.04893 0.0
H2657 H 0.6989 0.87304 1.00994 0.0
H2658 H 0.75568 0.95988 1.0087 0.0
H2659 H 0.79146 0.87132 1.01991 0.0
C2660 C 0.8268 0.89048 0.03431 0.0
C2661 C 0.83798 0.91486 0.04289 0.0
C2662 C 0.74325 0.94082 1.00902 0.0
C2663 C 0.78335 0.91524 0.02605 0.0
C2664 C 0.71629 0.94081 1.00055 0.0
C2665 C 0.69934 0.91651 1.00072 0.0
C2666 C 0.75413 0.9161 1.0173 0.0
C2667 C 0.71084 0.89239 1.00955 0.0
C2668 C 0.79958 0.89048 0.02619 0.0
C2669 C 0.82089 0.93911 0.04254 0.0
N2670 N 0.73742 0.89271 1.01721 0.0
N2671 N 0.79481 0.93875 0.03416 0.0
H2672 H 0.62282 0.58809 0.78431 0.0
H2673 H 0.71151 0.45863 0.74272 0.0
H2674 H 0.71037 0.57817 0.79844 0.0
H2675 H 0.62528 0.44821 0.76023 0.0
H2676 H 0.71156 0.50574 0.75747 0.0
H2677 H 0.62315 0.54085 0.76978 0.0
C2678 C 0.64223 0.57621 0.7842 0.0
C2679 C 0.66662 0.58751 0.79269 0.0
C2680 C 0.69263 0.49314 0.7581 0.0
C2681 C 0.66722 0.53301 0.77563 0.0
C2682 C 0.69255 0.46616 0.74963 0.0
C2683 C 0.66842 0.44898 0.75025 0.0
C2684 C 0.66811 0.50381 0.76682 0.0
C2685 C 0.64451 0.46032 0.75947 0.0
C2686 C 0.64233 0.54906 0.77598 0.0
C2687 C 0.69101 0.5706 0.79215 0.0
N2688 N 0.64487 0.4869 0.7671 0.0
N2689 N 0.69075 0.54458 0.78366 0.0
H2690 H 0.81414 0.42965 0.97494 0.0
H2691 H 0.72175 0.42866 0.07132 0.0
H2692 H 0.85038 0.40581 0.02929 0.0
H2693 H 0.68591 0.40409 1.01704 0.0
H2694 H 0.76864 0.42907 0.05629 0.0
H2695 H 0.76721 0.42909 0.98995 0.0
C2696 C 0.81237 0.42452 0.99007 0.0
C2697 C 0.83664 0.41779 1.00076 0.0
C2698 C 0.75053 0.42366 0.04764 0.0
C2699 C 0.78235 0.41761 1.01828 0.0
C2700 C 0.7236 0.42355 0.0562 0.0
C2701 C 0.69945 0.41632 0.04554 0.0
C2702 C 0.7537 0.41729 0.02798 0.0
C2703 C 0.70366 0.40974 0.02596 0.0
C2704 C 0.78543 0.42406 0.99862 0.0
C2705 C 0.83254 0.41112 1.02036 0.0
N2706 N 0.72998 0.41068 1.01784 0.0
N2707 N 0.8062 0.4115 0.02845 0.0
H2708 H 0.82687 0.45927 0.30159 0.0
H2709 H 0.91758 0.5882 0.2607 0.0
H2710 H 0.91391 0.44862 0.28616 0.0
H2711 H 0.8299 0.57892 0.24672 0.0
H2712 H 0.91693 0.54088 0.27525 0.0
H2713 H 0.82764 0.50625 0.28669 0.0
C2714 C 0.84618 0.46671 0.29508 0.0
C2715 C 0.8703 0.44951 0.29511 0.0
C2716 C 0.89781 0.54925 0.26905 0.0
C2717 C 0.87153 0.50424 0.27835 0.0
C2718 C 0.8981 0.57643 0.26082 0.0
C2719 C 0.87375 0.58793 0.25237 0.0
C2720 C 0.87278 0.53339 0.26945 0.0
C2721 C 0.84925 0.57119 0.25296 0.0
C2722 C 0.84658 0.49364 0.28653 0.0
C2723 C 0.89468 0.46075 0.28641 0.0
N2724 N 0.84933 0.54516 0.26144 0.0
N2725 N 0.89475 0.48729 0.27865 0.0
H2726 H 0.70681 0.57745 0.49832 0.0
H2727 H 0.8403 0.66541 0.53377 0.0
H2728 H 0.70003 0.66596 0.51026 0.0
H2729 H 0.82767 0.5797 0.55176 0.0
H2730 H 0.79252 0.66567 0.52008 0.0
H2731 H 0.75387 0.57734 0.51295 0.0
C2732 C 0.71509 0.5969 0.50407 0.0
C2733 C 0.69898 0.62171 0.50311 0.0
C2734 C 0.80023 0.64677 0.52697 0.0
C2735 C 0.75387 0.62187 0.51951 0.0
C2736 C 0.82769 0.64652 0.53469 0.0
C2737 C 0.83841 0.62246 0.54398 0.0
C2738 C 0.78327 0.62255 0.52795 0.0
C2739 C 0.82058 0.59877 0.54479 0.0
C2740 C 0.74208 0.59679 0.51245 0.0
C2741 C 0.7113 0.64623 0.5108 0.0
N2742 N 0.79426 0.59933 0.53677 0.0
N2743 N 0.73794 0.64575 0.51838 0.0
H2744 H 0.3616 0.56564 0.32068 0.0
H2745 H 0.36104 0.47093 0.22627 0.0
H2746 H 0.38703 0.60052 0.26619 0.0
H2747 H 0.38744 0.43608 0.2805 0.0
H2748 H 0.36224 0.51816 0.24053 0.0
H2749 H 0.36277 0.51839 0.30644 0.0
C2750 C 0.36731 0.56349 0.30567 0.0
C2751 C 0.37422 0.58751 0.29472 0.0
C2752 C 0.36776 0.50022 0.24934 0.0
C2753 C 0.37502 0.53274 0.27807 0.0
C2754 C 0.36695 0.47308 0.24123 0.0
C2755 C 0.37412 0.44907 0.2521 0.0
C2756 C 0.37498 0.50383 0.26878 0.0
C2757 C 0.38177 0.45369 0.27144 0.0
C2758 C 0.3681 0.53634 0.29757 0.0
C2759 C 0.3816 0.5829 0.27532 0.0
N2760 N 0.38163 0.48027 0.27916 0.0
N2761 N 0.38143 0.55631 0.26762 0.0
H2762 H 0.33034 0.57507 0.9966 0.0
H2763 H 0.19841 0.66265 0.03498 0.0
H2764 H 0.3381 0.663 1.01014 0.0
H2765 H 0.21092 0.57672 0.05247 0.0
H2766 H 0.24583 0.6628 1.02072 0.0
H2767 H 0.28365 0.57468 1.01196 0.0
C2768 C 0.32233 0.59434 1.00281 0.0
C2769 C 0.33862 0.61907 1.00209 0.0
C2770 C 0.2382 0.64388 0.02763 0.0
C2771 C 0.2842 0.61891 1.01936 0.0
C2772 C 0.21095 0.64369 0.03571 0.0
C2773 C 0.20027 0.61961 0.04503 0.0
C2774 C 0.25502 0.61955 0.02825 0.0
C2775 C 0.21799 0.59582 0.04553 0.0
C2776 C 0.29558 0.59405 1.01163 0.0
C2777 C 0.32669 0.64333 1.01043 0.0
N2778 N 0.24412 0.5963 0.03713 0.0
N2779 N 0.30028 0.64272 1.01842 0.0
H2780 H 0.17857 0.5636 0.72489 0.0
H2781 H 0.17698 0.47049 0.82045 0.0
H2782 H 0.153 0.59956 0.77895 0.0
H2783 H 0.15116 0.43517 0.76628 0.0
H2784 H 0.17694 0.51751 0.80568 0.0
H2785 H 0.1773 0.51662 0.73968 0.0
C2786 C 0.17289 0.56175 0.73992 0.0
C2787 C 0.16593 0.58597 0.75059 0.0
C2788 C 0.17132 0.49949 0.797 0.0
C2789 C 0.16496 0.53157 0.76787 0.0
C2790 C 0.17146 0.47249 0.80541 0.0
C2791 C 0.16406 0.44844 0.7947 0.0
C2792 C 0.16455 0.50286 0.77744 0.0
C2793 C 0.15697 0.45283 0.77522 0.0
C2794 C 0.17202 0.53477 0.74833 0.0
C2795 C 0.15852 0.58176 0.77004 0.0
N2796 N 0.15773 0.47924 0.76724 0.0
N2797 N 0.15858 0.55535 0.77804 0.0
H2798 H 0.18553 0.40461 0.52845 0.0
H2799 H 0.35282 0.40176 0.51505 0.0
H2800 H 0.22345 0.42825 0.47455 0.0
H2801 H 0.31531 0.42829 0.56841 0.0
H2802 H 0.30586 0.40278 0.49996 0.0
H2803 H 0.23255 0.40462 0.54339 0.0
C2804 C 0.20365 0.40977 0.51971 0.0
C2805 C 0.20014 0.41666 0.50014 0.0
C2806 C 0.30792 0.40839 0.51497 0.0
C2807 C 0.25467 0.41589 0.5172 0.0
C2808 C 0.33481 0.40775 0.52364 0.0
C2809 C 0.33841 0.41513 0.54311 0.0
C2810 C 0.28398 0.41558 0.52589 0.0
C2811 C 0.3139 0.42264 0.55338 0.0
C2812 C 0.23058 0.40982 0.52829 0.0
C2813 C 0.2248 0.42306 0.48968 0.0
N2814 N 0.28796 0.42235 0.54478 0.0
N2815 N 0.25079 0.42221 0.49821 0.0
loop_
_geom_bond_atom_site_label_1
_geom_bond_atom_site_label_2
_geom_bond_distance
_geom_bond_site_symmetry_2
_ccdc_geom_bond_type
C0 O16 1.251 . S
C0 O18 1.254 . S
N1 C2 1.333 . S
N1 C6 1.307 . S
N1 Zn7 2.020 . S
C2 N1 1.333 . S
C2 C3 1.379 . S
C2 H20 0.952 . S
C3 C2 1.379 . S
C3 C4 1.390 . S
C3 H30 0.949 . S
C4 C3 1.390 . S
C4 C5 1.357 . S
C5 C4 1.357 . S
C5 C6 1.370 . S
C5 H31 0.950 . S
C6 N1 1.307 . S
C6 C5 1.370 . S
C6 H24 0.948 . S
Zn7 N1 2.020 . S
Zn7 O16 2.039 . S
Zn7 O22 2.034 . S
Zn7 O26 2.025 . S
Zn7 O28 2.024 . S
C8 O27 1.246 . S
C8 O28 1.249 . S
N9 C10 1.307 . S
N9 C11 1.333 . S
N9 Zn15 2.020 . S
C10 N9 1.307 . S
C10 C14 1.370 . S
C10 H21 0.948 . S
C11 N9 1.333 . S
C11 C12 1.379 . S
C11 H19 0.952 . S
C12 C11 1.379 . S
C12 C13 1.390 . S
C12 H32 0.949 . S
C13 C12 1.390 . S
C13 C14 1.357 . S
C14 C10 1.370 . S
C14 C13 1.357 . S
C14 H33 0.950 . S
Zn15 N9 2.020 . S
Zn15 O18 2.025 . S
Zn15 O23 2.024 . S
Zn15 O25 2.039 . S
Zn15 O27 2.034 . S
O16 C0 1.251 . S
O16 Zn7 2.039 . S
C17 O22 1.246 . S
C17 O23 1.249 . S
O18 C0 1.254 . S
O18 Zn15 2.025 . S
H19 C11 0.952 . S
H20 C2 0.952 . S
H21 C10 0.948 . S
O22 Zn7 2.034 . S
O22 C17 1.246 . S
O23 Zn15 2.024 . S
O23 C17 1.249 . S
H24 C6 0.948 . S
O25 Zn15 2.039 . S
O25 C29 1.251 . S
O26 Zn7 2.025 . S
O26 C29 1.254 . S
O27 C8 1.246 . S
O27 Zn15 2.034 . S
O28 Zn7 2.024 . S
O28 C8 1.249 . S
C29 O25 1.251 . S
C29 O26 1.254 . S
H30 C3 0.949 . S
H31 C5 0.950 . S
H32 C12 0.949 . S
H33 C14 0.950 . S
C34 O50 1.251 . S
C34 O52 1.254 . S
N35 C36 1.333 . S
N35 C40 1.307 . S
N35 Zn41 2.020 . S
C36 N35 1.333 . S
C36 C37 1.379 . S
C36 H54 0.952 . S
C37 C36 1.379 . S
C37 C38 1.390 . S
C37 H64 0.949 . S
C38 C37 1.390 . S
C38 C39 1.357 . S
C39 C38 1.357 . S
C39 C40 1.370 . S
C39 H65 0.981 . S
C40 N35 1.307 . S
C40 C39 1.370 . S
C40 H58 0.948 . S
Zn41 N35 2.020 . S
Zn41 O50 2.039 . S
Zn41 O56 2.034 . S
Zn41 O60 2.025 . S
Zn41 O62 2.024 . S
C42 O61 1.246 . S
C42 O62 1.249 . S
N43 C44 1.307 . S
N43 C45 1.333 . S
N43 Zn49 2.020 . S
C44 N43 1.307 . S
C44 C48 1.370 . S
C44 H55 0.948 . S
C45 N43 1.333 . S
C45 C46 1.379 . S
C45 H53 0.952 . S
C46 C45 1.379 . S
C46 C47 1.390 . S
C46 H66 0.949 . S
C47 C46 1.390 . S
C47 C48 1.357 . S
C48 C44 1.370 . S
C48 C47 1.357 . S
C48 H67 0.950 . S
Zn49 N43 2.020 . S
Zn49 O52 2.025 . S
Zn49 O57 2.024 . S
Zn49 O59 2.039 . S
Zn49 O61 2.034 . S
O50 C34 1.251 . S
O50 Zn41 2.039 . S
C51 O56 1.246 . S
C51 O57 1.249 . S
O52 C34 1.254 . S
O52 Zn49 2.025 . S
H53 C45 0.952 . S
H54 C36 0.952 . S
H55 C44 0.948 . S
O56 Zn41 2.034 . S
O56 C51 1.246 . S
O57 Zn49 2.024 . S
O57 C51 1.249 . S
H58 C40 0.948 . S
O59 Zn49 2.039 . S
O59 C63 1.251 . S
O60 Zn41 2.025 . S
O60 C63 1.254 . S
O61 C42 1.246 . S
O61 Zn49 2.034 . S
O62 Zn41 2.024 . S
O62 C42 1.249 . S
C63 O59 1.251 . S
C63 O60 1.254 . S
H64 C37 0.949 . S
H65 C39 0.981 . S
H66 C46 0.949 . S
H67 C48 0.950 . S
C68 O84 1.251 . S
C68 O86 1.254 . S
N69 C70 1.333 . S
N69 C74 1.307 . S
N69 Zn75 2.020 . S
C70 N69 1.333 . S
C70 C71 1.379 . S
C70 H88 0.952 . S
C71 C70 1.379 . S
C71 C72 1.390 . S
C71 H98 0.949 . S
C72 C71 1.390 . S
C72 C73 1.357 . S
C73 C72 1.357 . S
C73 C74 1.370 . S
C73 H99 0.950 . S
C74 N69 1.307 . S
C74 C73 1.370 . S
C74 H92 0.948 . S
Zn75 N69 2.020 . S
Zn75 O84 2.039 . S
Zn75 O90 2.034 . S
Zn75 O94 2.025 . S
Zn75 O96 2.024 . S
C76 O95 1.246 . S
C76 O96 1.249 . S
N77 C78 1.307 . S
N77 C79 1.333 . S
N77 Zn83 2.020 . S
C78 N77 1.307 . S
C78 C82 1.370 . S
C78 H89 0.948 . S
C79 N77 1.333 . S
C79 C80 1.379 . S
C79 H87 0.952 . S
C80 C79 1.379 . S
C80 C81 1.390 . S
C80 H100 0.949 . S
C81 C80 1.390 . S
C81 C82 1.357 . S
C82 C78 1.370 . S
C82 C81 1.357 . S
C82 H101 0.950 . S
Zn83 N77 2.020 . S
Zn83 O86 2.025 . S
Zn83 O91 2.024 . S
Zn83 O93 2.039 . S
Zn83 O95 2.034 . S
O84 C68 1.251 . S
O84 Zn75 2.039 . S
C85 O90 1.246 . S
C85 O91 1.249 . S
O86 C68 1.254 . S
O86 Zn83 2.025 . S
H87 C79 0.952 . S
H88 C70 0.952 . S
H89 C78 0.948 . S
O90 Zn75 2.034 . S
O90 C85 1.246 . S
O91 Zn83 2.024 . S
O91 C85 1.249 . S
H92 C74 0.948 . S
O93 Zn83 2.039 . S
O93 C97 1.251 . S
O94 Zn75 2.025 . S
O94 C97 1.254 . S
O95 C76 1.246 . S
O95 Zn83 2.034 . S
O96 Zn75 2.024 . S
O96 C76 1.249 . S
C97 O93 1.251 . S
C97 O94 1.254 . S
H98 C71 0.949 . S
H99 C73 0.950 . S
H100 C80 0.949 . S
H101 C82 0.950 . S
C102 O118 1.251 . S
C102 O120 1.254 . S
N103 C104 1.333 . S
N103 C108 1.307 . S
N103 Zn109 2.020 . S
C104 N103 1.333 . S
C104 C105 1.379 . S
C104 H122 0.952 . S
C105 C104 1.379 . S
C105 C106 1.390 . S
C105 H132 0.949 . S
C106 C105 1.390 . S
C106 C107 1.357 . S
C107 C106 1.357 . S
C107 C108 1.370 . S
C107 H133 0.981 . S
C108 N103 1.307 . S
C108 C107 1.370 . S
C108 H126 0.948 . S
Zn109 N103 2.020 . S
Zn109 O118 2.039 . S
Zn109 O124 2.034 . S
Zn109 O128 2.025 . S
Zn109 O130 2.024 . S
C110 O129 1.246 . S
C110 O130 1.249 . S
N111 C112 1.307 . S
N111 C113 1.333 . S
N111 Zn117 2.020 . S
C112 N111 1.307 . S
C112 C116 1.370 . S
C112 H123 0.948 . S
C113 N111 1.333 . S
C113 C114 1.379 . S
C113 H121 0.952 . S
C114 C113 1.379 . S
C114 C115 1.390 . S
C114 H134 0.949 . S
C115 C114 1.390 . S
C115 C116 1.357 . S
C116 C112 1.370 . S
C116 C115 1.357 . S
C116 H135 0.950 . S
Zn117 N111 2.020 . S
Zn117 O120 2.025 . S
Zn117 O125 2.024 . S
Zn117 O127 2.039 . S
Zn117 O129 2.034 . S
O118 C102 1.251 . S
O118 Zn109 2.039 . S
C119 O124 1.246 . S
C119 O125 1.249 . S
O120 C102 1.254 . S
O120 Zn117 2.025 . S
H121 C113 0.952 . S
H122 C104 0.952 . S
H123 C112 0.948 . S
O124 Zn109 2.034 . S
O124 C119 1.246 . S
O125 Zn117 2.024 . S
O125 C119 1.249 . S
H126 C108 0.948 . S
O127 Zn117 2.039 . S
O127 C131 1.251 . S
O128 Zn109 2.025 . S
O128 C131 1.254 . S
O129 C110 1.246 . S
O129 Zn117 2.034 . S
O130 Zn109 2.024 . S
O130 C110 1.249 . S
C131 O127 1.251 . S
C131 O128 1.254 . S
H132 C105 0.949 . S
H133 C107 0.981 . S
H134 C114 0.949 . S
H135 C116 0.950 . S
C136 O152 1.251 . S
C136 O154 1.254 . S
N137 C138 1.333 . S
N137 C142 1.307 . S
N137 Zn143 2.020 . S
C138 N137 1.333 . S
C138 C139 1.379 . S
C138 H156 0.952 . S
C139 C138 1.379 . S
C139 C140 1.390 . S
C139 H166 0.949 . S
C140 C139 1.390 . S
C140 C141 1.357 . S
C141 C140 1.357 . S
C141 C142 1.370 . S
C141 H167 0.950 . S
C142 N137 1.307 . S
C142 C141 1.370 . S
C142 H160 0.948 . S
Zn143 N137 2.020 . S
Zn143 O152 2.039 . S
Zn143 O158 2.034 . S
Zn143 O162 2.025 . S
Zn143 O164 2.024 . S
C144 O163 1.246 . S
C144 O164 1.249 . S
N145 C146 1.307 . S
N145 C147 1.333 . S
N145 Zn151 2.020 . S
C146 N145 1.307 . S
C146 C150 1.370 . S
C146 H157 0.948 . S
C147 N145 1.333 . S
C147 C148 1.379 . S
C147 H155 0.952 . S
C148 C147 1.379 . S
C148 C149 1.390 . S
C148 H168 0.949 . S
C149 C148 1.390 . S
C149 C150 1.357 . S
C150 C146 1.370 . S
C150 C149 1.357 . S
C150 H169 0.950 . S
Zn151 N145 2.020 . S
Zn151 O154 2.025 . S
Zn151 O159 2.024 . S
Zn151 O161 2.039 . S
Zn151 O163 2.034 . S
O152 C136 1.251 . S
O152 Zn143 2.039 . S
C153 O158 1.246 . S
C153 O159 1.249 . S
O154 C136 1.254 . S
O154 Zn151 2.025 . S
H155 C147 0.952 . S
H156 C138 0.952 . S
H157 C146 0.948 . S
O158 Zn143 2.034 . S
O158 C153 1.246 . S
O159 Zn151 2.024 . S
O159 C153 1.249 . S
H160 C142 0.948 . S
O161 Zn151 2.039 . S
O161 C165 1.251 . S
O162 Zn143 2.025 . S
O162 C165 1.254 . S
O163 C144 1.246 . S
O163 Zn151 2.034 . S
O164 Zn143 2.024 . S
O164 C144 1.249 . S
C165 O161 1.251 . S
C165 O162 1.254 . S
H166 C139 0.949 . S
H167 C141 0.950 . S
H168 C148 0.949 . S
H169 C150 0.950 . S
C170 O186 1.251 . S
C170 O188 1.254 . S
N171 C172 1.333 . S
N171 C176 1.307 . S
N171 Zn177 2.020 . S
C172 N171 1.333 . S
C172 C173 1.379 . S
C172 H190 0.952 . S
C173 C172 1.379 . S
C173 C174 1.390 . S
C173 H200 0.949 . S
C174 C173 1.390 . S
C174 C175 1.357 . S
C175 C174 1.357 . S
C175 C176 1.370 . S
C175 H201 0.981 . S
C176 N171 1.307 . S
C176 C175 1.370 . S
C176 H194 0.948 . S
Zn177 N171 2.020 . S
Zn177 O186 2.039 . S
Zn177 O192 2.034 . S
Zn177 O196 2.025 . S
Zn177 O198 2.024 . S
C178 O197 1.246 . S
C178 O198 1.249 . S
N179 C180 1.307 . S
N179 C181 1.333 . S
N179 Zn185 2.020 . S
C180 N179 1.307 . S
C180 C184 1.370 . S
C180 H191 0.948 . S
C181 N179 1.333 . S
C181 C182 1.379 . S
C181 H189 0.952 . S
C182 C181 1.379 . S
C182 C183 1.390 . S
C182 H202 0.949 . S
C183 C182 1.390 . S
C183 C184 1.357 . S
C184 C180 1.370 . S
C184 C183 1.357 . S
C184 H203 0.950 . S
Zn185 N179 2.020 . S
Zn185 O188 2.025 . S
Zn185 O193 2.024 . S
Zn185 O195 2.039 . S
Zn185 O197 2.034 . S
O186 C170 1.251 . S
O186 Zn177 2.039 . S
C187 O192 1.246 . S
C187 O193 1.249 . S
O188 C170 1.254 . S
O188 Zn185 2.025 . S
H189 C181 0.952 . S
H190 C172 0.952 . S
H191 C180 0.948 . S
O192 Zn177 2.034 . S
O192 C187 1.246 . S
O193 Zn185 2.024 . S
O193 C187 1.249 . S
H194 C176 0.948 . S
O195 Zn185 2.039 . S
O195 C199 1.251 . S
O196 Zn177 2.025 . S
O196 C199 1.254 . S
O197 C178 1.246 . S
O197 Zn185 2.034 . S
O198 Zn177 2.024 . S
O198 C178 1.249 . S
C199 O195 1.251 . S
C199 O196 1.254 . S
H200 C173 0.949 . S
H201 C175 0.981 . S
H202 C182 0.949 . S
H203 C184 0.950 . S
C204 O220 1.251 . S
C204 O222 1.254 . S
N205 C206 1.333 . S
N205 C210 1.307 . S
N205 Zn211 2.020 . S
C206 N205 1.333 . S
C206 C207 1.379 . S
C206 H224 0.952 . S
C207 C206 1.379 . S
C207 C208 1.390 . S
C207 H234 0.949 . S
C208 C207 1.390 . S
C208 C209 1.357 . S
C209 C208 1.357 . S
C209 C210 1.370 . S
C209 H235 0.950 . S
C210 N205 1.307 . S
C210 C209 1.370 . S
C210 H228 0.948 . S
Zn211 N205 2.020 . S
Zn211 O220 2.039 . S
Zn211 O226 2.034 . S
Zn211 O230 2.025 . S
Zn211 O232 2.024 . S
C212 O231 1.246 . S
C212 O232 1.249 . S
N213 C214 1.307 . S
N213 C215 1.333 . S
N213 Zn219 2.020 . S
C214 N213 1.307 . S
C214 C218 1.370 . S
C214 H225 0.948 . S
C215 N213 1.333 . S
C215 C216 1.379 . S
C215 H223 0.952 . S
C216 C215 1.379 . S
C216 C217 1.390 . S
C216 H236 0.949 . S
C217 C216 1.390 . S
C217 C218 1.357 . S
C218 C214 1.370 . S
C218 C217 1.357 . S
C218 H237 0.950 . S
Zn219 N213 2.020 . S
Zn219 O222 2.025 . S
Zn219 O227 2.024 . S
Zn219 O229 2.039 . S
Zn219 O231 2.034 . S
O220 C204 1.251 . S
O220 Zn211 2.039 . S
C221 O226 1.246 . S
C221 O227 1.249 . S
O222 C204 1.254 . S
O222 Zn219 2.025 . S
H223 C215 0.952 . S
H224 C206 0.952 . S
H225 C214 0.948 . S
O226 Zn211 2.034 . S
O226 C221 1.246 . S
O227 Zn219 2.024 . S
O227 C221 1.249 . S
H228 C210 0.948 . S
O229 Zn219 2.039 . S
O229 C233 1.251 . S
O230 Zn211 2.025 . S
O230 C233 1.254 . S
O231 C212 1.246 . S
O231 Zn219 2.034 . S
O232 Zn211 2.024 . S
O232 C212 1.249 . S
C233 O229 1.251 . S
C233 O230 1.254 . S
H234 C207 0.949 . S
H235 C209 0.950 . S
H236 C216 0.949 . S
H237 C218 0.950 . S
C238 O254 1.251 . S
C238 O256 1.254 . S
N239 C240 1.333 . S
N239 C244 1.307 . S
N239 Zn245 2.020 . S
C240 N239 1.333 . S
C240 C241 1.379 . S
C240 H258 0.952 . S
C241 C240 1.379 . S
C241 C242 1.390 . S
C241 H268 0.949 . S
C242 C241 1.390 . S
C242 C243 1.357 . S
C243 C242 1.357 . S
C243 C244 1.370 . S
C243 H269 0.981 . S
C244 N239 1.307 . S
C244 C243 1.370 . S
C244 H262 0.948 . S
Zn245 N239 2.020 . S
Zn245 O254 2.039 . S
Zn245 O260 2.034 . S
Zn245 O264 2.025 . S
Zn245 O266 2.024 . S
C246 O265 1.246 . S
C246 O266 1.249 . S
N247 C248 1.307 . S
N247 C249 1.333 . S
N247 Zn253 2.020 . S
C248 N247 1.307 . S
C248 C252 1.370 . S
C248 H259 0.948 . S
C249 N247 1.333 . S
C249 C250 1.379 . S
C249 H257 0.952 . S
C250 C249 1.379 . S
C250 C251 1.390 . S
C250 H270 0.949 . S
C251 C250 1.390 . S
C251 C252 1.357 . S
C252 C248 1.370 . S
C252 C251 1.357 . S
C252 H271 0.950 . S
Zn253 N247 2.020 . S
Zn253 O256 2.025 . S
Zn253 O261 2.024 . S
Zn253 O263 2.039 . S
Zn253 O265 2.034 . S
O254 C238 1.251 . S
O254 Zn245 2.039 . S
C255 O260 1.246 . S
C255 O261 1.249 . S
O256 C238 1.254 . S
O256 Zn253 2.025 . S
H257 C249 0.952 . S
H258 C240 0.952 . S
H259 C248 0.948 . S
O260 Zn245 2.034 . S
O260 C255 1.246 . S
O261 Zn253 2.024 . S
O261 C255 1.249 . S
H262 C244 0.948 . S
O263 Zn253 2.039 . S
O263 C267 1.251 . S
O264 Zn245 2.025 . S
O264 C267 1.254 . S
O265 C246 1.246 . S
O265 Zn253 2.034 . S
O266 Zn245 2.024 . S
O266 C246 1.249 . S
C267 O263 1.251 . S
C267 O264 1.254 . S
H268 C241 0.949 . S
H269 C243 0.981 . S
H270 C250 0.949 . S
H271 C252 0.950 . S
C272 O288 1.251 . S
C272 O290 1.254 . S
N273 C274 1.333 . S
N273 C278 1.307 . S
N273 Zn279 2.020 . S
C274 N273 1.333 . S
C274 C275 1.379 . S
C274 H292 0.952 . S
C275 C274 1.379 . S
C275 C276 1.390 . S
C275 H302 0.949 . S
C276 C275 1.390 . S
C276 C277 1.357 . S
C277 C276 1.357 . S
C277 C278 1.370 . S
C277 H303 0.950 . S
C278 N273 1.307 . S
C278 C277 1.370 . S
C278 H296 0.948 . S
Zn279 N273 2.020 . S
Zn279 O288 2.039 . S
Zn279 O294 2.034 . S
Zn279 O298 2.025 . S
Zn279 O300 2.024 . S
C280 O299 1.246 . S
C280 O300 1.249 . S
N281 C282 1.307 . S
N281 C283 1.333 . S
N281 Zn287 2.020 . S
C282 N281 1.307 . S
C282 C286 1.370 . S
C282 H293 0.948 . S
C283 N281 1.333 . S
C283 C284 1.379 . S
C283 H291 0.952 . S
C284 C283 1.379 . S
C284 C285 1.390 . S
C284 H304 0.949 . S
C285 C284 1.390 . S
C285 C286 1.357 . S
C286 C282 1.370 . S
C286 C285 1.357 . S
C286 H305 0.950 . S
Zn287 N281 2.020 . S
Zn287 O290 2.025 . S
Zn287 O295 2.024 . S
Zn287 O297 2.039 . S
Zn287 O299 2.034 . S
O288 C272 1.251 . S
O288 Zn279 2.039 . S
C289 O294 1.246 . S
C289 O295 1.249 . S
O290 C272 1.254 . S
O290 Zn287 2.025 . S
H291 C283 0.952 . S
H292 C274 0.952 . S
H293 C282 0.948 . S
O294 Zn279 2.034 . S
O294 C289 1.246 . S
O295 Zn287 2.024 . S
O295 C289 1.249 . S
H296 C278 0.948 . S
O297 Zn287 2.039 . S
O297 C301 1.251 . S
O298 Zn279 2.025 . S
O298 C301 1.254 . S
O299 C280 1.246 . S
O299 Zn287 2.034 . S
O300 Zn279 2.024 . S
O300 C280 1.249 . S
C301 O297 1.251 . S
C301 O298 1.254 . S
H302 C275 0.949 . S
H303 C277 0.950 . S
H304 C284 0.949 . S
H305 C286 0.950 . S
C306 O322 1.251 . S
C306 O324 1.254 . S
N307 C308 1.333 . S
N307 C312 1.307 . S
N307 Zn313 2.020 . S
C308 N307 1.333 . S
C308 C309 1.379 . S
C308 H326 0.952 . S
C309 C308 1.379 . S
C309 C310 1.390 . S
C309 H336 0.949 . S
C310 C309 1.390 . S
C310 C311 1.357 . S
C311 C310 1.357 . S
C311 C312 1.370 . S
C311 H337 0.950 . S
C312 N307 1.307 . S
C312 C311 1.370 . S
C312 H330 0.948 . S
Zn313 N307 2.020 . S
Zn313 O322 2.039 . S
Zn313 O328 2.034 . S
Zn313 O332 2.025 . S
Zn313 O334 2.024 . S
C314 O333 1.246 . S
C314 O334 1.249 . S
N315 C316 1.307 . S
N315 C317 1.333 . S
N315 Zn321 2.020 . S
C316 N315 1.307 . S
C316 C320 1.370 . S
C316 H327 0.948 . S
C317 N315 1.333 . S
C317 C318 1.379 . S
C317 H325 0.952 . S
C318 C317 1.379 . S
C318 C319 1.390 . S
C318 H338 0.949 . S
C319 C318 1.390 . S
C319 C320 1.357 . S
C320 C316 1.370 . S
C320 C319 1.357 . S
C320 H339 0.981 . S
Zn321 N315 2.020 . S
Zn321 O324 2.025 . S
Zn321 O329 2.024 . S
Zn321 O331 2.039 . S
Zn321 O333 2.034 . S
O322 C306 1.251 . S
O322 Zn313 2.039 . S
C323 O328 1.246 . S
C323 O329 1.249 . S
O324 C306 1.254 . S
O324 Zn321 2.025 . S
H325 C317 0.952 . S
H326 C308 0.952 . S
H327 C316 0.948 . S
O328 Zn313 2.034 . S
O328 C323 1.246 . S
O329 Zn321 2.024 . S
O329 C323 1.249 . S
H330 C312 0.948 . S
O331 Zn321 2.039 . S
O331 C335 1.251 . S
O332 Zn313 2.025 . S
O332 C335 1.254 . S
O333 C314 1.246 . S
O333 Zn321 2.034 . S
O334 Zn313 2.024 . S
O334 C314 1.249 . S
C335 O331 1.251 . S
C335 O332 1.254 . S
H336 C309 0.949 . S
H337 C311 0.950 . S
H338 C318 0.949 . S
H339 C320 0.981 . S
C340 O356 1.251 . S
C340 O358 1.254 . S
N341 C342 1.333 . S
N341 C346 1.307 . S
N341 Zn347 2.020 . S
C342 N341 1.333 . S
C342 C343 1.379 . S
C342 H360 0.952 . S
C343 C342 1.379 . S
C343 C344 1.390 . S
C343 H370 0.949 . S
C344 C343 1.390 . S
C344 C345 1.357 . S
C345 C344 1.357 . S
C345 C346 1.370 . S
C345 H371 0.950 . S
C346 N341 1.307 . S
C346 C345 1.370 . S
C346 H364 0.948 . S
Zn347 N341 2.020 . S
Zn347 O356 2.039 . S
Zn347 O362 2.034 . S
Zn347 O366 2.025 . S
Zn347 O368 2.024 . S
C348 O367 1.246 . S
C348 O368 1.249 . S
N349 C350 1.307 . S
N349 C351 1.333 . S
N349 Zn355 2.020 . S
C350 N349 1.307 . S
C350 C354 1.370 . S
C350 H361 0.948 . S
C351 N349 1.333 . S
C351 C352 1.379 . S
C351 H359 0.952 . S
C352 C351 1.379 . S
C352 C353 1.390 . S
C352 H372 0.949 . S
C353 C352 1.390 . S
C353 C354 1.357 . S
C354 C350 1.370 . S
C354 C353 1.357 . S
C354 H373 0.950 . S
Zn355 N349 2.020 . S
Zn355 O358 2.025 . S
Zn355 O363 2.024 . S
Zn355 O365 2.039 . S
Zn355 O367 2.034 . S
O356 C340 1.251 . S
O356 Zn347 2.039 . S
C357 O362 1.246 . S
C357 O363 1.249 . S
O358 C340 1.254 . S
O358 Zn355 2.025 . S
H359 C351 0.952 . S
H360 C342 0.952 . S
H361 C350 0.948 . S
O362 Zn347 2.034 . S
O362 C357 1.246 . S
O363 Zn355 2.024 . S
O363 C357 1.249 . S
H364 C346 0.948 . S
O365 Zn355 2.039 . S
O365 C369 1.251 . S
O366 Zn347 2.025 . S
O366 C369 1.254 . S
O367 C348 1.246 . S
O367 Zn355 2.034 . S
O368 Zn347 2.024 . S
O368 C348 1.249 . S
C369 O365 1.251 . S
C369 O366 1.254 . S
H370 C343 0.949 . S
H371 C345 0.950 . S
H372 C352 0.949 . S
H373 C354 0.950 . S
C374 O390 1.251 . S
C374 O392 1.254 . S
N375 C376 1.333 . S
N375 C380 1.307 . S
N375 Zn381 2.020 . S
C376 N375 1.333 . S
C376 C377 1.379 . S
C376 H394 0.952 . S
C377 C376 1.379 . S
C377 C378 1.390 . S
C377 H404 0.949 . S
C378 C377 1.390 . S
C378 C379 1.357 . S
C379 C378 1.357 . S
C379 C380 1.370 . S
C379 H405 0.950 . S
C380 N375 1.307 . S
C380 C379 1.370 . S
C380 H398 0.948 . S
Zn381 N375 2.020 . S
Zn381 O390 2.039 . S
Zn381 O396 2.034 . S
Zn381 O400 2.025 . S
Zn381 O402 2.024 . S
C382 O401 1.246 . S
C382 O402 1.249 . S
N383 C384 1.307 . S
N383 C385 1.333 . S
N383 Zn389 2.020 . S
C384 N383 1.307 . S
C384 C388 1.370 . S
C384 H395 0.948 . S
C385 N383 1.333 . S
C385 C386 1.379 . S
C385 H393 0.952 . S
C386 C385 1.379 . S
C386 C387 1.390 . S
C386 H406 0.949 . S
C387 C386 1.390 . S
C387 C388 1.357 . S
C388 C384 1.370 . S
C388 C387 1.357 . S
C388 H407 0.981 . S
Zn389 N383 2.020 . S
Zn389 O392 2.025 . S
Zn389 O397 2.024 . S
Zn389 O399 2.039 . S
Zn389 O401 2.034 . S
O390 C374 1.251 . S
O390 Zn381 2.039 . S
C391 O396 1.246 . S
C391 O397 1.249 . S
O392 C374 1.254 . S
O392 Zn389 2.025 . S
H393 C385 0.952 . S
H394 C376 0.952 . S
H395 C384 0.948 . S
O396 Zn381 2.034 . S
O396 C391 1.246 . S
O397 Zn389 2.024 . S
O397 C391 1.249 . S
H398 C380 0.948 . S
O399 Zn389 2.039 . S
O399 C403 1.251 . S
O400 Zn381 2.025 . S
O400 C403 1.254 . S
O401 C382 1.246 . S
O401 Zn389 2.034 . S
O402 Zn381 2.024 . S
O402 C382 1.249 . S
C403 O399 1.251 . S
C403 O400 1.254 . S
H404 C377 0.949 . S
H405 C379 0.950 . S
H406 C386 0.949 . S
H407 C388 0.981 . S
C408 O424 1.251 . S
C408 O426 1.254 . S
N409 C410 1.333 . S
N409 C414 1.307 . S
N409 Zn415 2.020 . S
C410 N409 1.333 . S
C410 C411 1.379 . S
C410 H428 0.952 . S
C411 C410 1.379 . S
C411 C412 1.390 . S
C411 H438 0.949 . S
C412 C411 1.390 . S
C412 C413 1.357 . S
C413 C412 1.357 . S
C413 C414 1.370 . S
C413 H439 0.950 . S
C414 N409 1.307 . S
C414 C413 1.370 . S
C414 H432 0.948 . S
Zn415 N409 2.020 . S
Zn415 O424 2.039 . S
Zn415 O430 2.034 . S
Zn415 O434 2.025 . S
Zn415 O436 2.024 . S
C416 O435 1.246 . S
C416 O436 1.249 . S
N417 C418 1.307 . S
N417 C419 1.333 . S
N417 Zn423 2.020 . S
C418 N417 1.307 . S
C418 C422 1.370 . S
C418 H429 0.948 . S
C419 N417 1.333 . S
C419 C420 1.379 . S
C419 H427 0.952 . S
C420 C419 1.379 . S
C420 C421 1.390 . S
C420 H440 0.949 . S
C421 C420 1.390 . S
C421 C422 1.357 . S
C422 C418 1.370 . S
C422 C421 1.357 . S
C422 H441 0.950 . S
Zn423 N417 2.020 . S
Zn423 O426 2.025 . S
Zn423 O431 2.024 . S
Zn423 O433 2.039 . S
Zn423 O435 2.034 . S
O424 C408 1.251 . S
O424 Zn415 2.039 . S
C425 O430 1.246 . S
C425 O431 1.249 . S
O426 C408 1.254 . S
O426 Zn423 2.025 . S
H427 C419 0.952 . S
H428 C410 0.952 . S
H429 C418 0.948 . S
O430 Zn415 2.034 . S
O430 C425 1.246 . S
O431 Zn423 2.024 . S
O431 C425 1.249 . S
H432 C414 0.948 . S
O433 Zn423 2.039 . S
O433 C437 1.251 . S
O434 Zn415 2.025 . S
O434 C437 1.254 . S
O435 C416 1.246 . S
O435 Zn423 2.034 . S
O436 Zn415 2.024 . S
O436 C416 1.249 . S
C437 O433 1.251 . S
C437 O434 1.254 . S
H438 C411 0.949 . S
H439 C413 0.950 . S
H440 C420 0.949 . S
H441 C422 0.950 . S
C442 O458 1.251 . S
C442 O460 1.254 . S
N443 C444 1.333 . S
N443 C448 1.307 . S
N443 Zn449 2.020 . S
C444 N443 1.333 . S
C444 C445 1.379 . S
C444 H462 0.952 . S
C445 C444 1.379 . S
C445 C446 1.390 . S
C445 H472 0.949 . S
C446 C445 1.390 . S
C446 C447 1.357 . S
C447 C446 1.357 . S
C447 C448 1.370 . S
C447 H473 0.950 . S
C448 N443 1.307 . S
C448 C447 1.370 . S
C448 H466 0.948 . S
Zn449 N443 2.020 . S
Zn449 O458 2.039 . S
Zn449 O464 2.034 . S
Zn449 O468 2.025 . S
Zn449 O470 2.024 . S
C450 O469 1.246 . S
C450 O470 1.249 . S
N451 C452 1.307 . S
N451 C453 1.333 . S
N451 Zn457 2.020 . S
C452 N451 1.307 . S
C452 C456 1.370 . S
C452 H463 0.948 . S
C453 N451 1.333 . S
C453 C454 1.379 . S
C453 H461 0.952 . S
C454 C453 1.379 . S
C454 C455 1.390 . S
C454 H474 0.949 . S
C455 C454 1.390 . S
C455 C456 1.357 . S
C456 C452 1.370 . S
C456 C455 1.357 . S
C456 H475 0.981 . S
Zn457 N451 2.020 . S
Zn457 O460 2.025 . S
Zn457 O465 2.024 . S
Zn457 O467 2.039 . S
Zn457 O469 2.034 . S
O458 C442 1.251 . S
O458 Zn449 2.039 . S
C459 O464 1.246 . S
C459 O465 1.249 . S
O460 C442 1.254 . S
O460 Zn457 2.025 . S
H461 C453 0.952 . S
H462 C444 0.952 . S
H463 C452 0.948 . S
O464 Zn449 2.034 . S
O464 C459 1.246 . S
O465 Zn457 2.024 . S
O465 C459 1.249 . S
H466 C448 0.948 . S
O467 Zn457 2.039 . S
O467 C471 1.251 . S
O468 Zn449 2.025 . S
O468 C471 1.254 . S
O469 C450 1.246 . S
O469 Zn457 2.034 . S
O470 Zn449 2.024 . S
O470 C450 1.249 . S
C471 O467 1.251 . S
C471 O468 1.254 . S
H472 C445 0.949 . S
H473 C447 0.950 . S
H474 C454 0.949 . S
H475 C456 0.981 . S
C476 O492 1.251 . S
C476 O494 1.254 . S
N477 C478 1.333 . S
N477 C482 1.307 . S
N477 Zn483 2.020 . S
C478 N477 1.333 . S
C478 C479 1.379 . S
C478 H496 0.952 . S
C479 C478 1.379 . S
C479 C480 1.390 . S
C479 H506 0.949 . S
C480 C479 1.390 . S
C480 C481 1.357 . S
C481 C480 1.357 . S
C481 C482 1.370 . S
C481 H507 0.950 . S
C482 N477 1.307 . S
C482 C481 1.370 . S
C482 H500 0.948 . S
Zn483 N477 2.020 . S
Zn483 O492 2.039 . S
Zn483 O498 2.034 . S
Zn483 O502 2.025 . S
Zn483 O504 2.024 . S
C484 O503 1.246 . S
C484 O504 1.249 . S
N485 C486 1.307 . S
N485 C487 1.333 . S
N485 Zn491 2.020 . S
C486 N485 1.307 . S
C486 C490 1.370 . S
C486 H497 0.948 . S
C487 N485 1.333 . S
C487 C488 1.379 . S
C487 H495 0.952 . S
C488 C487 1.379 . S
C488 C489 1.390 . S
C488 H508 0.949 . S
C489 C488 1.390 . S
C489 C490 1.357 . S
C490 C486 1.370 . S
C490 C489 1.357 . S
C490 H509 0.950 . S
Zn491 N485 2.020 . S
Zn491 O494 2.025 . S
Zn491 O499 2.024 . S
Zn491 O501 2.039 . S
Zn491 O503 2.034 . S
O492 C476 1.251 . S
O492 Zn483 2.039 . S
C493 O498 1.246 . S
C493 O499 1.249 . S
O494 C476 1.254 . S
O494 Zn491 2.025 . S
H495 C487 0.952 . S
H496 C478 0.952 . S
H497 C486 0.948 . S
O498 Zn483 2.034 . S
O498 C493 1.246 . S
O499 Zn491 2.024 . S
O499 C493 1.249 . S
H500 C482 0.948 . S
O501 Zn491 2.039 . S
O501 C505 1.251 . S
O502 Zn483 2.025 . S
O502 C505 1.254 . S
O503 C484 1.246 . S
O503 Zn491 2.034 . S
O504 Zn483 2.024 . S
O504 C484 1.249 . S
C505 O501 1.251 . S
C505 O502 1.254 . S
H506 C479 0.949 . S
H507 C481 0.950 . S
H508 C488 0.949 . S
H509 C490 0.950 . S
C510 O526 1.251 . S
C510 O528 1.254 . S
N511 C512 1.333 . S
N511 C516 1.307 . S
N511 Zn517 2.020 . S
C512 N511 1.333 . S
C512 C513 1.379 . S
C512 H530 0.952 . S
C513 C512 1.379 . S
C513 C514 1.390 . S
C513 H540 0.949 . S
C514 C513 1.390 . S
C514 C515 1.357 . S
C515 C514 1.357 . S
C515 C516 1.370 . S
C515 H541 0.950 . S
C516 N511 1.307 . S
C516 C515 1.370 . S
C516 H534 0.948 . S
Zn517 N511 2.020 . S
Zn517 O526 2.039 . S
Zn517 O532 2.034 . S
Zn517 O536 2.025 . S
Zn517 O538 2.024 . S
C518 O537 1.246 . S
C518 O538 1.249 . S
N519 C520 1.307 . S
N519 C521 1.333 . S
N519 Zn525 2.020 . S
C520 N519 1.307 . S
C520 C524 1.370 . S
C520 H531 0.948 . S
C521 N519 1.333 . S
C521 C522 1.379 . S
C521 H529 0.952 . S
C522 C521 1.379 . S
C522 C523 1.390 . S
C522 H542 0.949 . S
C523 C522 1.390 . S
C523 C524 1.357 . S
C524 C520 1.370 . S
C524 C523 1.357 . S
C524 H543 0.981 . S
Zn525 N519 2.020 . S
Zn525 O528 2.025 . S
Zn525 O533 2.024 . S
Zn525 O535 2.039 . S
Zn525 O537 2.034 . S
O526 C510 1.251 . S
O526 Zn517 2.039 . S
C527 O532 1.246 . S
C527 O533 1.249 . S
O528 C510 1.254 . S
O528 Zn525 2.025 . S
H529 C521 0.952 . S
H530 C512 0.952 . S
H531 C520 0.948 . S
O532 Zn517 2.034 . S
O532 C527 1.246 . S
O533 Zn525 2.024 . S
O533 C527 1.249 . S
H534 C516 0.948 . S
O535 Zn525 2.039 . S
O535 C539 1.251 . S
O536 Zn517 2.025 . S
O536 C539 1.254 . S
O537 C518 1.246 . S
O537 Zn525 2.034 . S
O538 Zn517 2.024 . S
O538 C518 1.249 . S
C539 O535 1.251 . S
C539 O536 1.254 . S
H540 C513 0.949 . S
H541 C515 0.950 . S
H542 C522 0.949 . S
H543 C524 0.981 . S
C544 O560 1.251 . S
C544 O562 1.254 . S
N545 C546 1.333 . S
N545 C550 1.307 . S
N545 Zn551 2.020 . S
C546 N545 1.333 . S
C546 C547 1.379 . S
C546 H564 0.952 . S
C547 C546 1.379 . S
C547 C548 1.390 . S
C547 H574 0.949 . S
C548 C547 1.390 . S
C548 C549 1.357 . S
C549 C548 1.357 . S
C549 C550 1.370 . S
C549 H575 0.950 . S
C550 N545 1.307 . S
C550 C549 1.370 . S
C550 H568 0.948 . S
Zn551 N545 2.020 . S
Zn551 O560 2.039 . S
Zn551 O566 2.034 . S
Zn551 O570 2.025 . S
Zn551 O572 2.024 . S
C552 O571 1.246 . S
C552 O572 1.249 . S
N553 C554 1.307 . S
N553 C555 1.333 . S
N553 Zn559 2.020 . S
C554 N553 1.307 . S
C554 C558 1.370 . S
C554 H565 0.948 . S
C555 N553 1.333 . S
C555 C556 1.379 . S
C555 H563 0.952 . S
C556 C555 1.379 . S
C556 C557 1.390 . S
C556 H576 0.949 . S
C557 C556 1.390 . S
C557 C558 1.357 . S
C558 C554 1.370 . S
C558 C557 1.357 . S
C558 H577 0.950 . S
Zn559 N553 2.020 . S
Zn559 O562 2.025 . S
Zn559 O567 2.024 . S
Zn559 O569 2.039 . S
Zn559 O571 2.034 . S
O560 C544 1.251 . S
O560 Zn551 2.039 . S
C561 O566 1.246 . S
C561 O567 1.249 . S
O562 C544 1.254 . S
O562 Zn559 2.025 . S
H563 C555 0.952 . S
H564 C546 0.952 . S
H565 C554 0.948 . S
O566 Zn551 2.034 . S
O566 C561 1.246 . S
O567 Zn559 2.024 . S
O567 C561 1.249 . S
H568 C550 0.948 . S
O569 Zn559 2.039 . S
O569 C573 1.251 . S
O570 Zn551 2.025 . S
O570 C573 1.254 . S
O571 C552 1.246 . S
O571 Zn559 2.034 . S
O572 Zn551 2.024 . S
O572 C552 1.249 . S
C573 O569 1.251 . S
C573 O570 1.254 . S
H574 C547 0.949 . S
H575 C549 0.950 . S
H576 C556 0.949 . S
H577 C558 0.950 . S
C578 O594 1.251 . S
C578 O596 1.254 . S
N579 C580 1.333 . S
N579 C584 1.307 . S
N579 Zn585 2.020 . S
C580 N579 1.333 . S
C580 C581 1.379 . S
C580 H598 0.952 . S
C581 C580 1.379 . S
C581 C582 1.390 . S
C581 H608 0.949 . S
C582 C581 1.390 . S
C582 C583 1.357 . S
C583 C582 1.357 . S
C583 C584 1.370 . S
C583 H609 0.950 . S
C584 N579 1.307 . S
C584 C583 1.370 . S
C584 H602 0.948 . S
Zn585 N579 2.020 . S
Zn585 O594 2.039 . S
Zn585 O600 2.034 . S
Zn585 O604 2.025 . S
Zn585 O606 2.024 . S
C586 O605 1.246 . S
C586 O606 1.249 . S
N587 C588 1.307 . S
N587 C589 1.333 . S
N587 Zn593 2.020 . S
C588 N587 1.307 . S
C588 C592 1.370 . S
C588 H599 0.948 . S
C589 N587 1.333 . S
C589 C590 1.379 . S
C589 H597 0.952 . S
C590 C589 1.379 . S
C590 C591 1.390 . S
C590 H610 0.949 . S
C591 C590 1.390 . S
C591 C592 1.357 . S
C592 C588 1.370 . S
C592 C591 1.357 . S
C592 H611 0.950 . S
Zn593 N587 2.020 . S
Zn593 O596 2.025 . S
Zn593 O601 2.024 . S
Zn593 O603 2.039 . S
Zn593 O605 2.034 . S
O594 C578 1.251 . S
O594 Zn585 2.039 . S
C595 O600 1.246 . S
C595 O601 1.249 . S
O596 C578 1.254 . S
O596 Zn593 2.025 . S
H597 C589 0.952 . S
H598 C580 0.952 . S
H599 C588 0.948 . S
O600 Zn585 2.034 . S
O600 C595 1.246 . S
O601 Zn593 2.024 . S
O601 C595 1.249 . S
H602 C584 0.948 . S
O603 Zn593 2.039 . S
O603 C607 1.251 . S
O604 Zn585 2.025 . S
O604 C607 1.254 . S
O605 C586 1.246 . S
O605 Zn593 2.034 . S
O606 Zn585 2.024 . S
O606 C586 1.249 . S
C607 O603 1.251 . S
C607 O604 1.254 . S
H608 C581 0.949 . S
H609 C583 0.950 . S
H610 C590 0.949 . S
H611 C592 0.950 . S
C612 O628 1.251 . S
C612 O630 1.254 . S
N613 C614 1.333 . S
N613 C618 1.307 . S
N613 Zn619 2.020 . S
C614 N613 1.333 . S
C614 C615 1.379 . S
C614 H632 0.952 . S
C615 C614 1.379 . S
C615 C616 1.390 . S
C615 H642 0.949 . S
C616 C615 1.390 . S
C616 C617 1.357 . S
C617 C616 1.357 . S
C617 C618 1.370 . S
C617 H643 0.950 . S
C618 N613 1.307 . S
C618 C617 1.370 . S
C618 H636 0.948 . S
Zn619 N613 2.020 . S
Zn619 O628 2.039 . S
Zn619 O634 2.034 . S
Zn619 O638 2.025 . S
Zn619 O640 2.024 . S
C620 O639 1.246 . S
C620 O640 1.249 . S
N621 C622 1.307 . S
N621 C623 1.333 . S
N621 Zn627 2.020 . S
C622 N621 1.307 . S
C622 C626 1.370 . S
C622 H633 0.948 . S
C623 N621 1.333 . S
C623 C624 1.379 . S
C623 H631 0.952 . S
C624 C623 1.379 . S
C624 C625 1.390 . S
C624 H644 0.949 . S
C625 C624 1.390 . S
C625 C626 1.357 . S
C626 C622 1.370 . S
C626 C625 1.357 . S
C626 H645 0.950 . S
Zn627 N621 2.020 . S
Zn627 O630 2.025 . S
Zn627 O635 2.024 . S
Zn627 O637 2.039 . S
Zn627 O639 2.034 . S
O628 C612 1.251 . S
O628 Zn619 2.039 . S
C629 O634 1.246 . S
C629 O635 1.249 . S
O630 C612 1.254 . S
O630 Zn627 2.025 . S
H631 C623 0.952 . S
H632 C614 0.952 . S
H633 C622 0.948 . S
O634 Zn619 2.034 . S
O634 C629 1.246 . S
O635 Zn627 2.024 . S
O635 C629 1.249 . S
H636 C618 0.948 . S
O637 Zn627 2.039 . S
O637 C641 1.251 . S
O638 Zn619 2.025 . S
O638 C641 1.254 . S
O639 C620 1.246 . S
O639 Zn627 2.034 . S
O640 Zn619 2.024 . S
O640 C620 1.249 . S
C641 O637 1.251 . S
C641 O638 1.254 . S
H642 C615 0.949 . S
H643 C617 0.950 . S
H644 C624 0.949 . S
H645 C626 0.950 . S
C646 O662 1.251 . S
C646 O664 1.254 . S
N647 C648 1.333 . S
N647 C652 1.307 . S
N647 Zn653 2.020 . S
C648 N647 1.333 . S
C648 C649 1.379 . S
C648 H666 0.952 . S
C649 C648 1.379 . S
C649 C650 1.390 . S
C649 H676 0.949 . S
C650 C649 1.390 . S
C650 C651 1.357 . S
C651 C650 1.357 . S
C651 C652 1.370 . S
C651 H677 0.950 . S
C652 N647 1.307 . S
C652 C651 1.370 . S
C652 H670 0.948 . S
Zn653 N647 2.020 . S
Zn653 O662 2.039 . S
Zn653 O668 2.034 . S
Zn653 O672 2.025 . S
Zn653 O674 2.024 . S
C654 O673 1.246 . S
C654 O674 1.249 . S
N655 C656 1.307 . S
N655 C657 1.333 . S
N655 Zn661 2.020 . S
C656 N655 1.307 . S
C656 C660 1.370 . S
C656 H667 0.948 . S
C657 N655 1.333 . S
C657 C658 1.379 . S
C657 H665 0.952 . S
C658 C657 1.379 . S
C658 C659 1.390 . S
C658 H678 0.949 . S
C659 C658 1.390 . S
C659 C660 1.357 . S
C660 C656 1.370 . S
C660 C659 1.357 . S
C660 H679 0.950 . S
Zn661 N655 2.020 . S
Zn661 O664 2.025 . S
Zn661 O669 2.024 . S
Zn661 O671 2.039 . S
Zn661 O673 2.034 . S
O662 C646 1.251 . S
O662 Zn653 2.039 . S
C663 O668 1.246 . S
C663 O669 1.249 . S
O664 C646 1.254 . S
O664 Zn661 2.025 . S
H665 C657 0.952 . S
H666 C648 0.952 . S
H667 C656 0.948 . S
O668 Zn653 2.034 . S
O668 C663 1.246 . S
O669 Zn661 2.024 . S
O669 C663 1.249 . S
H670 C652 0.948 . S
O671 Zn661 2.039 . S
O671 C675 1.251 . S
O672 Zn653 2.025 . S
O672 C675 1.254 . S
O673 C654 1.246 . S
O673 Zn661 2.034 . S
O674 Zn653 2.024 . S
O674 C654 1.249 . S
C675 O671 1.251 . S
C675 O672 1.254 . S
H676 C649 0.949 . S
H677 C651 0.950 . S
H678 C658 0.949 . S
H679 C660 0.950 . S
C680 O696 1.251 . S
C680 O698 1.254 . S
N681 C682 1.333 . S
N681 C686 1.307 . S
N681 Zn687 2.020 . S
C682 N681 1.333 . S
C682 C683 1.379 . S
C682 H700 0.952 . S
C683 C682 1.379 . S
C683 C684 1.390 . S
C683 H710 0.949 . S
C684 C683 1.390 . S
C684 C685 1.357 . S
C685 C684 1.357 . S
C685 C686 1.370 . S
C685 H711 0.950 . S
C686 N681 1.307 . S
C686 C685 1.370 . S
C686 H704 0.948 . S
Zn687 N681 2.020 . S
Zn687 O696 2.039 . S
Zn687 O702 2.034 . S
Zn687 O706 2.025 . S
Zn687 O708 2.024 . S
C688 O707 1.246 . S
C688 O708 1.249 . S
N689 C690 1.307 . S
N689 C691 1.333 . S
N689 Zn695 2.020 . S
C690 N689 1.307 . S
C690 C694 1.370 . S
C690 H701 0.948 . S
C691 N689 1.333 . S
C691 C692 1.379 . S
C691 H699 0.952 . S
C692 C691 1.379 . S
C692 C693 1.390 . S
C692 H712 0.949 . S
C693 C692 1.390 . S
C693 C694 1.357 . S
C694 C690 1.370 . S
C694 C693 1.357 . S
C694 H713 0.950 . S
Zn695 N689 2.020 . S
Zn695 O698 2.025 . S
Zn695 O703 2.024 . S
Zn695 O705 2.039 . S
Zn695 O707 2.034 . S
O696 C680 1.251 . S
O696 Zn687 2.039 . S
C697 O702 1.246 . S
C697 O703 1.249 . S
O698 C680 1.254 . S
O698 Zn695 2.025 . S
H699 C691 0.952 . S
H700 C682 0.952 . S
H701 C690 0.948 . S
O702 Zn687 2.034 . S
O702 C697 1.246 . S
O703 Zn695 2.024 . S
O703 C697 1.249 . S
H704 C686 0.948 . S
O705 Zn695 2.039 . S
O705 C709 1.251 . S
O706 Zn687 2.025 . S
O706 C709 1.254 . S
O707 C688 1.246 . S
O707 Zn695 2.034 . S
O708 Zn687 2.024 . S
O708 C688 1.249 . S
C709 O705 1.251 . S
C709 O706 1.254 . S
H710 C683 0.949 . S
H711 C685 0.950 . S
H712 C692 0.949 . S
H713 C694 0.950 . S
C714 O730 1.251 . S
C714 O732 1.254 . S
N715 C716 1.333 . S
N715 C720 1.307 . S
N715 Zn721 2.020 . S
C716 N715 1.333 . S
C716 C717 1.379 . S
C716 H734 0.952 . S
C717 C716 1.379 . S
C717 C718 1.390 . S
C717 H744 0.949 . S
C718 C717 1.390 . S
C718 C719 1.357 . S
C719 C718 1.357 . S
C719 C720 1.370 . S
C719 H745 0.950 . S
C720 N715 1.307 . S
C720 C719 1.370 . S
C720 H738 0.948 . S
Zn721 N715 2.020 . S
Zn721 O730 2.039 . S
Zn721 O736 2.034 . S
Zn721 O740 2.025 . S
Zn721 O742 2.024 . S
C722 O741 1.246 . S
C722 O742 1.249 . S
N723 C724 1.307 . S
N723 C725 1.333 . S
N723 Zn729 2.020 . S
C724 N723 1.307 . S
C724 C728 1.370 . S
C724 H735 0.948 . S
C725 N723 1.333 . S
C725 C726 1.379 . S
C725 H733 0.952 . S
C726 C725 1.379 . S
C726 C727 1.390 . S
C726 H746 0.949 . S
C727 C726 1.390 . S
C727 C728 1.357 . S
C728 C724 1.370 . S
C728 C727 1.357 . S
C728 H747 0.950 . S
Zn729 N723 2.020 . S
Zn729 O732 2.025 . S
Zn729 O737 2.024 . S
Zn729 O739 2.039 . S
Zn729 O741 2.034 . S
O730 C714 1.251 . S
O730 Zn721 2.039 . S
C731 O736 1.246 . S
C731 O737 1.249 . S
O732 C714 1.254 . S
O732 Zn729 2.025 . S
H733 C725 0.952 . S
H734 C716 0.952 . S
H735 C724 0.948 . S
O736 Zn721 2.034 . S
O736 C731 1.246 . S
O737 Zn729 2.024 . S
O737 C731 1.249 . S
H738 C720 0.948 . S
O739 Zn729 2.039 . S
O739 C743 1.251 . S
O740 Zn721 2.025 . S
O740 C743 1.254 . S
O741 C722 1.246 . S
O741 Zn729 2.034 . S
O742 Zn721 2.024 . S
O742 C722 1.249 . S
C743 O739 1.251 . S
C743 O740 1.254 . S
H744 C717 0.949 . S
H745 C719 0.950 . S
H746 C726 0.949 . S
H747 C728 0.950 . S
C748 O764 1.251 . S
C748 O766 1.254 . S
N749 C750 1.333 . S
N749 C754 1.307 . S
N749 Zn755 2.020 . S
C750 N749 1.333 . S
C750 C751 1.379 . S
C750 H768 0.952 . S
C751 C750 1.379 . S
C751 C752 1.390 . S
C751 H778 0.949 . S
C752 C751 1.390 . S
C752 C753 1.357 . S
C753 C752 1.357 . S
C753 C754 1.370 . S
C753 H779 0.950 . S
C754 N749 1.307 . S
C754 C753 1.370 . S
C754 H772 0.948 . S
Zn755 N749 2.020 . S
Zn755 O764 2.039 . S
Zn755 O770 2.034 . S
Zn755 O774 2.025 . S
Zn755 O776 2.024 . S
C756 O775 1.246 . S
C756 O776 1.249 . S
N757 C758 1.307 . S
N757 C759 1.333 . S
N757 Zn763 2.020 . S
C758 N757 1.307 . S
C758 C762 1.370 . S
C758 H769 0.948 . S
C759 N757 1.333 . S
C759 C760 1.379 . S
C759 H767 0.952 . S
C760 C759 1.379 . S
C760 C761 1.390 . S
C760 H780 0.949 . S
C761 C760 1.390 . S
C761 C762 1.357 . S
C762 C758 1.370 . S
C762 C761 1.357 . S
C762 H781 0.950 . S
Zn763 N757 2.020 . S
Zn763 O766 2.025 . S
Zn763 O771 2.024 . S
Zn763 O773 2.039 . S
Zn763 O775 2.034 . S
O764 C748 1.251 . S
O764 Zn755 2.039 . S
C765 O770 1.246 . S
C765 O771 1.249 . S
O766 C748 1.254 . S
O766 Zn763 2.025 . S
H767 C759 0.952 . S
H768 C750 0.952 . S
H769 C758 0.948 . S
O770 Zn755 2.034 . S
O770 C765 1.246 . S
O771 Zn763 2.024 . S
O771 C765 1.249 . S
H772 C754 0.948 . S
O773 Zn763 2.039 . S
O773 C777 1.251 . S
O774 Zn755 2.025 . S
O774 C777 1.254 . S
O775 C756 1.246 . S
O775 Zn763 2.034 . S
O776 Zn755 2.024 . S
O776 C756 1.249 . S
C777 O773 1.251 . S
C777 O774 1.254 . S
H778 C751 0.949 . S
H779 C753 0.950 . S
H780 C760 0.949 . S
H781 C762 0.950 . S
C782 O798 1.251 . S
C782 O800 1.254 . S
N783 C784 1.333 . S
N783 C788 1.307 . S
N783 Zn789 2.020 . S
C784 N783 1.333 . S
C784 C785 1.379 . S
C784 H802 0.952 . S
C785 C784 1.379 . S
C785 C786 1.390 . S
C785 H812 0.949 . S
C786 C785 1.390 . S
C786 C787 1.357 . S
C787 C786 1.357 . S
C787 C788 1.370 . S
C787 H813 0.950 . S
C788 N783 1.307 . S
C788 C787 1.370 . S
C788 H806 0.948 . S
Zn789 N783 2.020 . S
Zn789 O798 2.039 . S
Zn789 O804 2.034 . S
Zn789 O808 2.025 . S
Zn789 O810 2.024 . S
C790 O809 1.246 . S
C790 O810 1.249 . S
N791 C792 1.307 . S
N791 C793 1.333 . S
N791 Zn797 2.020 . S
C792 N791 1.307 . S
C792 C796 1.370 . S
C792 H803 0.948 . S
C793 N791 1.333 . S
C793 C794 1.379 . S
C793 H801 0.952 . S
C794 C793 1.379 . S
C794 C795 1.390 . S
C794 H814 0.949 . S
C795 C794 1.390 . S
C795 C796 1.357 . S
C796 C792 1.370 . S
C796 C795 1.357 . S
C796 H815 0.950 . S
Zn797 N791 2.020 . S
Zn797 O800 2.025 . S
Zn797 O805 2.024 . S
Zn797 O807 2.039 . S
Zn797 O809 2.034 . S
O798 C782 1.251 . S
O798 Zn789 2.039 . S
C799 O804 1.246 . S
C799 O805 1.249 . S
O800 C782 1.254 . S
O800 Zn797 2.025 . S
H801 C793 0.952 . S
H802 C784 0.952 . S
H803 C792 0.948 . S
O804 Zn789 2.034 . S
O804 C799 1.246 . S
O805 Zn797 2.024 . S
O805 C799 1.249 . S
H806 C788 0.948 . S
O807 Zn797 2.039 . S
O807 C811 1.251 . S
O808 Zn789 2.025 . S
O808 C811 1.254 . S
O809 C790 1.246 . S
O809 Zn797 2.034 . S
O810 Zn789 2.024 . S
O810 C790 1.249 . S
C811 O807 1.251 . S
C811 O808 1.254 . S
H812 C785 0.949 . S
H813 C787 0.950 . S
H814 C794 0.949 . S
H815 C796 0.950 . S
C816 O832 1.251 . S
C816 O834 1.254 . S
N817 C818 1.333 . S
N817 C822 1.307 . S
N817 Zn823 2.020 . S
C818 N817 1.333 . S
C818 C819 1.379 . S
C818 H836 0.952 . S
C819 C818 1.379 . S
C819 C820 1.390 . S
C819 H846 0.949 . S
C820 C819 1.390 . S
C820 C821 1.357 . S
C821 C820 1.357 . S
C821 C822 1.370 . S
C821 H847 0.950 . S
C822 N817 1.307 . S
C822 C821 1.370 . S
C822 H840 0.948 . S
Zn823 N817 2.020 . S
Zn823 O832 2.039 . S
Zn823 O838 2.034 . S
Zn823 O842 2.025 . S
Zn823 O844 2.024 . S
C824 O843 1.246 . S
C824 O844 1.249 . S
N825 C826 1.307 . S
N825 C827 1.333 . S
N825 Zn831 2.020 . S
C826 N825 1.307 . S
C826 C830 1.370 . S
C826 H837 0.948 . S
C827 N825 1.333 . S
C827 C828 1.379 . S
C827 H835 0.952 . S
C828 C827 1.379 . S
C828 C829 1.390 . S
C828 H848 0.949 . S
C829 C828 1.390 . S
C829 C830 1.357 . S
C830 C826 1.370 . S
C830 C829 1.357 . S
C830 H849 0.950 . S
Zn831 N825 2.020 . S
Zn831 O834 2.025 . S
Zn831 O839 2.024 . S
Zn831 O841 2.039 . S
Zn831 O843 2.034 . S
O832 C816 1.251 . S
O832 Zn823 2.039 . S
C833 O838 1.246 . S
C833 O839 1.249 . S
O834 C816 1.254 . S
O834 Zn831 2.025 . S
H835 C827 0.952 . S
H836 C818 0.952 . S
H837 C826 0.948 . S
O838 Zn823 2.034 . S
O838 C833 1.246 . S
O839 Zn831 2.024 . S
O839 C833 1.249 . S
H840 C822 0.948 . S
O841 Zn831 2.039 . S
O841 C845 1.251 . S
O842 Zn823 2.025 . S
O842 C845 1.254 . S
O843 C824 1.246 . S
O843 Zn831 2.034 . S
O844 Zn823 2.024 . S
O844 C824 1.249 . S
C845 O841 1.251 . S
C845 O842 1.254 . S
H846 C819 0.949 . S
H847 C821 0.950 . S
H848 C828 0.949 . S
H849 C830 0.950 . S
C850 O866 1.251 . S
C850 O868 1.254 . S
N851 C852 1.333 . S
N851 C856 1.307 . S
N851 Zn857 2.020 . S
C852 N851 1.333 . S
C852 C853 1.379 . S
C852 H870 0.952 . S
C853 C852 1.379 . S
C853 C854 1.390 . S
C853 H880 0.949 . S
C854 C853 1.390 . S
C854 C855 1.357 . S
C855 C854 1.357 . S
C855 C856 1.370 . S
C855 H881 0.950 . S
C856 N851 1.307 . S
C856 C855 1.370 . S
C856 H874 0.948 . S
Zn857 N851 2.020 . S
Zn857 O866 2.039 . S
Zn857 O872 2.034 . S
Zn857 O876 2.025 . S
Zn857 O878 2.024 . S
C858 O877 1.246 . S
C858 O878 1.249 . S
N859 C860 1.307 . S
N859 C861 1.333 . S
N859 Zn865 2.020 . S
C860 N859 1.307 . S
C860 C864 1.370 . S
C860 H871 0.948 . S
C861 N859 1.333 . S
C861 C862 1.379 . S
C861 H869 0.952 . S
C862 C861 1.379 . S
C862 C863 1.390 . S
C862 H882 0.949 . S
C863 C862 1.390 . S
C863 C864 1.357 . S
C864 C860 1.370 . S
C864 C863 1.357 . S
C864 H883 0.950 . S
Zn865 N859 2.020 . S
Zn865 O868 2.025 . S
Zn865 O873 2.024 . S
Zn865 O875 2.039 . S
Zn865 O877 2.034 . S
O866 C850 1.251 . S
O866 Zn857 2.039 . S
C867 O872 1.246 . S
C867 O873 1.249 . S
O868 C850 1.254 . S
O868 Zn865 2.025 . S
H869 C861 0.952 . S
H870 C852 0.952 . S
H871 C860 0.948 . S
O872 Zn857 2.034 . S
O872 C867 1.246 . S
O873 Zn865 2.024 . S
O873 C867 1.249 . S
H874 C856 0.948 . S
O875 Zn865 2.039 . S
O875 C879 1.251 . S
O876 Zn857 2.025 . S
O876 C879 1.254 . S
O877 C858 1.246 . S
O877 Zn865 2.034 . S
O878 Zn857 2.024 . S
O878 C858 1.249 . S
C879 O875 1.251 . S
C879 O876 1.254 . S
H880 C853 0.949 . S
H881 C855 0.950 . S
H882 C862 0.949 . S
H883 C864 0.950 . S
C884 O900 1.251 . S
C884 O902 1.254 . S
N885 C886 1.333 . S
N885 C890 1.307 . S
N885 Zn891 2.020 . S
C886 N885 1.333 . S
C886 C887 1.379 . S
C886 H904 0.952 . S
C887 C886 1.379 . S
C887 C888 1.390 . S
C887 H914 0.949 . S
C888 C887 1.390 . S
C888 C889 1.357 . S
C889 C888 1.357 . S
C889 C890 1.370 . S
C889 H915 0.950 . S
C890 N885 1.307 . S
C890 C889 1.370 . S
C890 H908 0.948 . S
Zn891 N885 2.020 . S
Zn891 O900 2.039 . S
Zn891 O906 2.034 . S
Zn891 O910 2.025 . S
Zn891 O912 2.024 . S
C892 O911 1.246 . S
C892 O912 1.249 . S
N893 C894 1.307 . S
N893 C895 1.333 . S
N893 Zn899 2.020 . S
C894 N893 1.307 . S
C894 C898 1.370 . S
C894 H905 0.948 . S
C895 N893 1.333 . S
C895 C896 1.379 . S
C895 H903 0.952 . S
C896 C895 1.379 . S
C896 C897 1.390 . S
C896 H916 0.949 . S
C897 C896 1.390 . S
C897 C898 1.357 . S
C898 C894 1.370 . S
C898 C897 1.357 . S
C898 H917 0.950 . S
Zn899 N893 2.020 . S
Zn899 O902 2.025 . S
Zn899 O907 2.024 . S
Zn899 O909 2.039 . S
Zn899 O911 2.034 . S
O900 C884 1.251 . S
O900 Zn891 2.039 . S
C901 O906 1.246 . S
C901 O907 1.249 . S
O902 C884 1.254 . S
O902 Zn899 2.025 . S
H903 C895 0.952 . S
H904 C886 0.952 . S
H905 C894 0.948 . S
O906 Zn891 2.034 . S
O906 C901 1.246 . S
O907 Zn899 2.024 . S
O907 C901 1.249 . S
H908 C890 0.948 . S
O909 Zn899 2.039 . S
O909 C913 1.251 . S
O910 Zn891 2.025 . S
O910 C913 1.254 . S
O911 C892 1.246 . S
O911 Zn899 2.034 . S
O912 Zn891 2.024 . S
O912 C892 1.249 . S
C913 O909 1.251 . S
C913 O910 1.254 . S
H914 C887 0.949 . S
H915 C889 0.950 . S
H916 C896 0.949 . S
H917 C898 0.950 . S
C918 O934 1.251 . S
C918 O936 1.254 . S
N919 C920 1.333 . S
N919 C924 1.307 . S
N919 Zn925 2.020 . S
C920 N919 1.333 . S
C920 C921 1.379 . S
C920 H938 0.952 . S
C921 C920 1.379 . S
C921 C922 1.390 . S
C921 H948 0.949 . S
C922 C921 1.390 . S
C922 C923 1.357 . S
C923 C922 1.357 . S
C923 C924 1.370 . S
C923 H949 0.950 . S
C924 N919 1.307 . S
C924 C923 1.370 . S
C924 H942 0.948 . S
Zn925 N919 2.020 . S
Zn925 O934 2.039 . S
Zn925 O940 2.034 . S
Zn925 O944 2.025 . S
Zn925 O946 2.024 . S
C926 O945 1.246 . S
C926 O946 1.249 . S
N927 C928 1.307 . S
N927 C929 1.333 . S
N927 Zn933 2.020 . S
C928 N927 1.307 . S
C928 C932 1.370 . S
C928 H939 0.948 . S
C929 N927 1.333 . S
C929 C930 1.379 . S
C929 H937 0.952 . S
C930 C929 1.379 . S
C930 C931 1.390 . S
C930 H950 0.949 . S
C931 C930 1.390 . S
C931 C932 1.357 . S
C932 C928 1.370 . S
C932 C931 1.357 . S
C932 H951 0.950 . S
Zn933 N927 2.020 . S
Zn933 O936 2.025 . S
Zn933 O941 2.024 . S
Zn933 O943 2.039 . S
Zn933 O945 2.034 . S
O934 C918 1.251 . S
O934 Zn925 2.039 . S
C935 O940 1.246 . S
C935 O941 1.249 . S
O936 C918 1.254 . S
O936 Zn933 2.025 . S
H937 C929 0.952 . S
H938 C920 0.952 . S
H939 C928 0.948 . S
O940 Zn925 2.034 . S
O940 C935 1.246 . S
O941 Zn933 2.024 . S
O941 C935 1.249 . S
H942 C924 0.948 . S
O943 Zn933 2.039 . S
O943 C947 1.251 . S
O944 Zn925 2.025 . S
O944 C947 1.254 . S
O945 C926 1.246 . S
O945 Zn933 2.034 . S
O946 Zn925 2.024 . S
O946 C926 1.249 . S
C947 O943 1.251 . S
C947 O944 1.254 . S
H948 C921 0.949 . S
H949 C923 0.950 . S
H950 C930 0.949 . S
H951 C932 0.950 . S
C952 O968 1.251 . S
C952 O970 1.254 . S
N953 C954 1.333 . S
N953 C958 1.307 . S
N953 Zn959 2.020 . S
C954 N953 1.333 . S
C954 C955 1.379 . S
C954 H972 0.952 . S
C955 C954 1.379 . S
C955 C956 1.390 . S
C955 H982 0.949 . S
C956 C955 1.390 . S
C956 C957 1.357 . S
C957 C956 1.357 . S
C957 C958 1.370 . S
C957 H983 0.950 . S
C958 N953 1.307 . S
C958 C957 1.370 . S
C958 H976 0.948 . S
Zn959 N953 2.020 . S
Zn959 O968 2.039 . S
Zn959 O974 2.034 . S
Zn959 O978 2.025 . S
Zn959 O980 2.024 . S
C960 O979 1.246 . S
C960 O980 1.249 . S
N961 C962 1.307 . S
N961 C963 1.333 . S
N961 Zn967 2.020 . S
C962 N961 1.307 . S
C962 C966 1.370 . S
C962 H973 0.948 . S
C963 N961 1.333 . S
C963 C964 1.379 . S
C963 H971 0.952 . S
C964 C963 1.379 . S
C964 C965 1.390 . S
C964 H984 0.949 . S
C965 C964 1.390 . S
C965 C966 1.357 . S
C966 C962 1.370 . S
C966 C965 1.357 . S
C966 H985 0.950 . S
Zn967 N961 2.020 . S
Zn967 O970 2.025 . S
Zn967 O975 2.024 . S
Zn967 O977 2.039 . S
Zn967 O979 2.034 . S
O968 C952 1.251 . S
O968 Zn959 2.039 . S
C969 O974 1.246 . S
C969 O975 1.249 . S
O970 C952 1.254 . S
O970 Zn967 2.025 . S
H971 C963 0.952 . S
H972 C954 0.952 . S
H973 C962 0.948 . S
O974 Zn959 2.034 . S
O974 C969 1.246 . S
O975 Zn967 2.024 . S
O975 C969 1.249 . S
H976 C958 0.948 . S
O977 Zn967 2.039 . S
O977 C981 1.251 . S
O978 Zn959 2.025 . S
O978 C981 1.254 . S
O979 C960 1.246 . S
O979 Zn967 2.034 . S
O980 Zn959 2.024 . S
O980 C960 1.249 . S
C981 O977 1.251 . S
C981 O978 1.254 . S
H982 C955 0.949 . S
H983 C957 0.950 . S
H984 C964 0.949 . S
H985 C966 0.950 . S
C986 O1002 1.251 . S
C986 O1004 1.254 . S
N987 C988 1.333 . S
N987 C992 1.307 . S
N987 Zn993 2.020 . S
C988 N987 1.333 . S
C988 C989 1.379 . S
C988 H1006 0.952 . S
C989 C988 1.379 . S
C989 C990 1.390 . S
C989 H1016 0.949 . S
C990 C989 1.390 . S
C990 C991 1.357 . S
C991 C990 1.357 . S
C991 C992 1.370 . S
C991 H1017 0.950 . S
C992 N987 1.307 . S
C992 C991 1.370 . S
C992 H1010 0.948 . S
Zn993 N987 2.020 . S
Zn993 O1002 2.039 . S
Zn993 O1008 2.034 . S
Zn993 O1012 2.025 . S
Zn993 O1014 2.024 . S
C994 O1013 1.246 . S
C994 O1014 1.249 . S
N995 C996 1.307 . S
N995 C997 1.333 . S
N995 Zn1001 2.020 . S
C996 N995 1.307 . S
C996 C1000 1.370 . S
C996 H1007 0.948 . S
C997 N995 1.333 . S
C997 C998 1.379 . S
C997 H1005 0.952 . S
C998 C997 1.379 . S
C998 C999 1.390 . S
C998 H1018 0.949 . S
C999 C998 1.390 . S
C999 C1000 1.357 . S
C1000 C996 1.370 . S
C1000 C999 1.357 . S
C1000 H1019 0.950 . S
Zn1001 N995 2.020 . S
Zn1001 O1004 2.025 . S
Zn1001 O1009 2.024 . S
Zn1001 O1011 2.039 . S
Zn1001 O1013 2.034 . S
O1002 C986 1.251 . S
O1002 Zn993 2.039 . S
C1003 O1008 1.246 . S
C1003 O1009 1.249 . S
O1004 C986 1.254 . S
O1004 Zn1001 2.025 . S
H1005 C997 0.952 . S
H1006 C988 0.952 . S
H1007 C996 0.948 . S
O1008 Zn993 2.034 . S
O1008 C1003 1.246 . S
O1009 Zn1001 2.024 . S
O1009 C1003 1.249 . S
H1010 C992 0.948 . S
O1011 Zn1001 2.039 . S
O1011 C1015 1.251 . S
O1012 Zn993 2.025 . S
O1012 C1015 1.254 . S
O1013 C994 1.246 . S
O1013 Zn1001 2.034 . S
O1014 Zn993 2.024 . S
O1014 C994 1.249 . S
C1015 O1011 1.251 . S
C1015 O1012 1.254 . S
H1016 C989 0.949 . S
H1017 C991 0.950 . S
H1018 C998 0.949 . S
H1019 C1000 0.950 . S
C1020 O1036 1.251 . S
C1020 O1038 1.254 . S
N1021 C1022 1.333 . S
N1021 C1026 1.307 . S
N1021 Zn1027 2.020 . S
C1022 N1021 1.333 . S
C1022 C1023 1.379 . S
C1022 H1040 0.952 . S
C1023 C1022 1.379 . S
C1023 C1024 1.390 . S
C1023 H1050 0.949 . S
C1024 C1023 1.390 . S
C1024 C1025 1.357 . S
C1025 C1024 1.357 . S
C1025 C1026 1.370 . S
C1025 H1051 0.950 . S
C1026 N1021 1.307 . S
C1026 C1025 1.370 . S
C1026 H1044 0.948 . S
Zn1027 N1021 2.020 . S
Zn1027 O1036 2.039 . S
Zn1027 O1042 2.034 . S
Zn1027 O1046 2.025 . S
Zn1027 O1048 2.024 . S
C1028 O1047 1.246 . S
C1028 O1048 1.249 . S
N1029 C1030 1.307 . S
N1029 C1031 1.333 . S
N1029 Zn1035 2.020 . S
C1030 N1029 1.307 . S
C1030 C1034 1.370 . S
C1030 H1041 0.948 . S
C1031 N1029 1.333 . S
C1031 C1032 1.379 . S
C1031 H1039 0.952 . S
C1032 C1031 1.379 . S
C1032 C1033 1.390 . S
C1032 H1052 0.949 . S
C1033 C1032 1.390 . S
C1033 C1034 1.357 . S
C1034 C1030 1.370 . S
C1034 C1033 1.357 . S
C1034 H1053 0.950 . S
Zn1035 N1029 2.020 . S
Zn1035 O1038 2.025 . S
Zn1035 O1043 2.024 . S
Zn1035 O1045 2.039 . S
Zn1035 O1047 2.034 . S
O1036 C1020 1.251 . S
O1036 Zn1027 2.039 . S
C1037 O1042 1.246 . S
C1037 O1043 1.249 . S
O1038 C1020 1.254 . S
O1038 Zn1035 2.025 . S
H1039 C1031 0.952 . S
H1040 C1022 0.952 . S
H1041 C1030 0.948 . S
O1042 Zn1027 2.034 . S
O1042 C1037 1.246 . S
O1043 Zn1035 2.024 . S
O1043 C1037 1.249 . S
H1044 C1026 0.948 . S
O1045 Zn1035 2.039 . S
O1045 C1049 1.251 . S
O1046 Zn1027 2.025 . S
O1046 C1049 1.254 . S
O1047 C1028 1.246 . S
O1047 Zn1035 2.034 . S
O1048 Zn1027 2.024 . S
O1048 C1028 1.249 . S
C1049 O1045 1.251 . S
C1049 O1046 1.254 . S
H1050 C1023 0.949 . S
H1051 C1025 0.950 . S
H1052 C1032 0.949 . S
H1053 C1034 0.950 . S
C1054 O1070 1.251 . S
C1054 O1072 1.254 . S
N1055 C1056 1.333 . S
N1055 C1060 1.307 . S
N1055 Zn1061 2.020 . S
C1056 N1055 1.333 . S
C1056 C1057 1.379 . S
C1056 H1074 0.952 . S
C1057 C1056 1.379 . S
C1057 C1058 1.390 . S
C1057 H1084 0.949 . S
C1058 C1057 1.390 . S
C1058 C1059 1.357 . S
C1059 C1058 1.357 . S
C1059 C1060 1.370 . S
C1059 H1085 0.950 . S
C1060 N1055 1.307 . S
C1060 C1059 1.370 . S
C1060 H1078 0.948 . S
Zn1061 N1055 2.020 . S
Zn1061 O1070 2.039 . S
Zn1061 O1076 2.034 . S
Zn1061 O1080 2.025 . S
Zn1061 O1082 2.024 . S
C1062 O1081 1.246 . S
C1062 O1082 1.249 . S
N1063 C1064 1.307 . S
N1063 C1065 1.333 . S
N1063 Zn1069 2.020 . S
C1064 N1063 1.307 . S
C1064 C1068 1.370 . S
C1064 H1075 0.948 . S
C1065 N1063 1.333 . S
C1065 C1066 1.379 . S
C1065 H1073 0.952 . S
C1066 C1065 1.379 . S
C1066 C1067 1.390 . S
C1066 H1086 0.949 . S
C1067 C1066 1.390 . S
C1067 C1068 1.357 . S
C1068 C1064 1.370 . S
C1068 C1067 1.357 . S
C1068 H1087 0.950 . S
Zn1069 N1063 2.020 . S
Zn1069 O1072 2.025 . S
Zn1069 O1077 2.024 . S
Zn1069 O1079 2.039 . S
Zn1069 O1081 2.034 . S
O1070 C1054 1.251 . S
O1070 Zn1061 2.039 . S
C1071 O1076 1.246 . S
C1071 O1077 1.249 . S
O1072 C1054 1.254 . S
O1072 Zn1069 2.025 . S
H1073 C1065 0.952 . S
H1074 C1056 0.952 . S
H1075 C1064 0.948 . S
O1076 Zn1061 2.034 . S
O1076 C1071 1.246 . S
O1077 Zn1069 2.024 . S
O1077 C1071 1.249 . S
H1078 C1060 0.948 . S
O1079 Zn1069 2.039 . S
O1079 C1083 1.251 . S
O1080 Zn1061 2.025 . S
O1080 C1083 1.254 . S
O1081 C1062 1.246 . S
O1081 Zn1069 2.034 . S
O1082 Zn1061 2.024 . S
O1082 C1062 1.249 . S
C1083 O1079 1.251 . S
C1083 O1080 1.254 . S
H1084 C1057 0.949 . S
H1085 C1059 0.950 . S
H1086 C1066 0.949 . S
H1087 C1068 0.950 . S
H1088 C1094 0.930 . S
H1089 C1098 0.930 . S
H1090 C1103 0.929 . S
H1091 C1101 0.929 . S
H1092 C1096 0.929 . S
H1093 C1102 0.929 . S
C1094 H1088 0.930 . S
C1094 C1095 1.367 . S
C1094 C1102 1.378 . S
C1095 C1094 1.367 . S
C1095 C1103 1.433 . S
C1096 H1092 0.929 . S
C1096 C1098 1.378 . S
C1096 C1100 1.350 . S
C1097 C1100 1.463 . S
C1097 C1102 1.350 . S
C1097 N1105 1.427 . S
C1098 H1089 0.930 . S
C1098 C1096 1.378 . S
C1098 C1099 1.367 . S
C1099 C1098 1.367 . S
C1099 C1101 1.433 . S
C1100 C1096 1.350 . S
C1100 C1097 1.463 . S
C1100 N1104 1.427 . S
C1101 H1091 0.929 . S
C1101 C1099 1.433 . S
C1101 N1104 1.384 . S
C1102 H1093 0.929 . S
C1102 C1094 1.378 . S
C1102 C1097 1.350 . S
C1103 H1090 0.929 . S
C1103 C1095 1.433 . S
C1103 N1105 1.384 . S
N1104 C1100 1.427 . S
N1104 C1101 1.384 . S
N1105 C1097 1.427 . S
N1105 C1103 1.384 . S
H1106 C1112 0.930 . S
H1107 C1116 0.930 . S
H1108 C1121 0.929 . S
H1109 C1119 0.929 . S
H1110 C1114 0.929 . S
H1111 C1120 0.929 . S
C1112 H1106 0.930 . S
C1112 C1113 1.367 . S
C1112 C1120 1.378 1_455 S
C1113 C1112 1.367 . S
C1113 C1121 1.433 . S
C1114 H1110 0.929 . S
C1114 C1116 1.378 . S
C1114 C1118 1.350 . S
C1115 C1118 1.463 . S
C1115 C1120 1.350 . S
C1115 N1123 1.427 . S
C1116 H1107 0.930 . S
C1116 C1114 1.378 . S
C1116 C1117 1.367 . S
C1117 C1116 1.367 . S
C1117 C1119 1.433 . S
C1118 C1114 1.350 . S
C1118 C1115 1.463 . S
C1118 N1122 1.427 . S
C1119 H1109 0.929 . S
C1119 C1117 1.433 . S
C1119 N1122 1.384 . S
C1120 H1111 0.929 . S
C1120 C1112 1.378 1_655 S
C1120 C1115 1.350 . S
C1121 H1108 0.929 . S
C1121 C1113 1.433 . S
C1121 N1123 1.384 1_455 S
N1122 C1118 1.427 . S
N1122 C1119 1.384 . S
N1123 C1115 1.427 . S
N1123 C1121 1.384 1_655 S
H1124 C1130 0.930 . S
H1125 C1134 0.930 . S
H1126 C1139 0.929 . S
H1127 C1137 0.929 . S
H1128 C1132 0.929 . S
H1129 C1138 0.929 . S
C1130 H1124 0.930 . S
C1130 C1131 1.367 . S
C1130 C1138 1.378 . S
C1131 C1130 1.367 . S
C1131 C1139 1.433 . S
C1132 H1128 0.929 . S
C1132 C1134 1.378 . S
C1132 C1136 1.350 . S
C1133 C1136 1.463 . S
C1133 C1138 1.350 . S
C1133 N1141 1.427 . S
C1134 H1125 0.930 . S
C1134 C1132 1.378 . S
C1134 C1135 1.367 . S
C1135 C1134 1.367 . S
C1135 C1137 1.433 . S
C1136 C1132 1.350 . S
C1136 C1133 1.463 . S
C1136 N1140 1.427 . S
C1137 H1127 0.929 . S
C1137 C1135 1.433 . S
C1137 N1140 1.384 . S
C1138 H1129 0.929 . S
C1138 C1130 1.378 . S
C1138 C1133 1.350 . S
C1139 H1126 0.929 . S
C1139 C1131 1.433 . S
C1139 N1141 1.384 . S
N1140 C1136 1.427 . S
N1140 C1137 1.384 . S
N1141 C1133 1.427 . S
N1141 C1139 1.384 . S
H1142 C1148 0.930 . S
H1143 C1152 0.930 . S
H1144 C1157 0.929 . S
H1145 C1155 0.929 . S
H1146 C1150 0.929 . S
H1147 C1156 0.929 . S
C1148 H1142 0.930 . S
C1148 C1149 1.367 . S
C1148 C1156 1.378 . S
C1149 C1148 1.367 . S
C1149 C1157 1.433 . S
C1150 H1146 0.929 . S
C1150 C1152 1.378 . S
C1150 C1154 1.350 . S
C1151 C1154 1.463 . S
C1151 C1156 1.350 . S
C1151 N1159 1.427 . S
C1152 H1143 0.930 . S
C1152 C1150 1.378 . S
C1152 C1153 1.367 . S
C1153 C1152 1.367 . S
C1153 C1155 1.433 . S
C1154 C1150 1.350 . S
C1154 C1151 1.463 . S
C1154 N1158 1.427 . S
C1155 H1145 0.929 . S
C1155 C1153 1.433 . S
C1155 N1158 1.384 . S
C1156 H1147 0.929 . S
C1156 C1148 1.378 . S
C1156 C1151 1.350 . S
C1157 H1144 0.929 . S
C1157 C1149 1.433 . S
C1157 N1159 1.384 . S
N1158 C1154 1.427 . S
N1158 C1155 1.384 . S
N1159 C1151 1.427 . S
N1159 C1157 1.384 . S
H1160 C1166 0.930 . S
H1161 C1170 0.930 . S
H1162 C1175 0.929 . S
H1163 C1173 0.929 . S
H1164 C1168 0.929 . S
H1165 C1174 0.929 . S
C1166 H1160 0.930 . S
C1166 C1167 1.367 . S
C1166 C1174 1.378 . S
C1167 C1166 1.367 . S
C1167 C1175 1.433 . S
C1168 H1164 0.929 . S
C1168 C1170 1.378 . S
C1168 C1172 1.350 . S
C1169 C1172 1.463 . S
C1169 C1174 1.350 . S
C1169 N1177 1.427 . S
C1170 H1161 0.930 . S
C1170 C1168 1.378 . S
C1170 C1171 1.367 . S
C1171 C1170 1.367 . S
C1171 C1173 1.433 . S
C1172 C1168 1.350 . S
C1172 C1169 1.463 . S
C1172 N1176 1.427 . S
C1173 H1163 0.929 . S
C1173 C1171 1.433 . S
C1173 N1176 1.384 . S
C1174 H1165 0.929 . S
C1174 C1166 1.378 . S
C1174 C1169 1.350 . S
C1175 H1162 0.929 . S
C1175 C1167 1.433 . S
C1175 N1177 1.384 . S
N1176 C1172 1.427 . S
N1176 C1173 1.384 . S
N1177 C1169 1.427 . S
N1177 C1175 1.384 . S
H1178 C1184 0.930 . S
H1179 C1188 0.930 . S
H1180 C1193 0.929 . S
H1181 C1191 0.929 . S
H1182 C1186 0.929 . S
H1183 C1192 0.929 . S
C1184 H1178 0.930 . S
C1184 C1185 1.367 . S
C1184 C1192 1.378 . S
C1185 C1184 1.367 . S
C1185 C1193 1.433 . S
C1186 H1182 0.929 . S
C1186 C1188 1.378 . S
C1186 C1190 1.350 . S
C1187 C1190 1.463 . S
C1187 C1192 1.350 . S
C1187 N1195 1.427 . S
C1188 H1179 0.930 . S
C1188 C1186 1.378 . S
C1188 C1189 1.367 . S
C1189 C1188 1.367 . S
C1189 C1191 1.433 . S
C1190 C1186 1.350 . S
C1190 C1187 1.463 . S
C1190 N1194 1.427 . S
C1191 H1181 0.929 . S
C1191 C1189 1.433 . S
C1191 N1194 1.384 . S
C1192 H1183 0.929 . S
C1192 C1184 1.378 . S
C1192 C1187 1.350 . S
C1193 H1180 0.929 . S
C1193 C1185 1.433 . S
C1193 N1195 1.384 . S
N1194 C1190 1.427 . S
N1194 C1191 1.384 . S
N1195 C1187 1.427 . S
N1195 C1193 1.384 . S
H1196 C1202 0.930 . S
H1197 C1206 0.930 . S
H1198 C1211 0.929 . S
H1199 C1209 0.929 . S
H1200 C1204 0.929 . S
H1201 C1210 0.929 . S
C1202 H1196 0.930 . S
C1202 C1203 1.367 . S
C1202 C1210 1.378 . S
C1203 C1202 1.367 . S
C1203 C1211 1.433 . S
C1204 H1200 0.929 . S
C1204 C1206 1.378 . S
C1204 C1208 1.350 . S
C1205 C1208 1.463 . S
C1205 C1210 1.350 . S
C1205 N1213 1.427 . S
C1206 H1197 0.930 . S
C1206 C1204 1.378 . S
C1206 C1207 1.367 . S
C1207 C1206 1.367 . S
C1207 C1209 1.433 . S
C1208 C1204 1.350 . S
C1208 C1205 1.463 . S
C1208 N1212 1.427 . S
C1209 H1199 0.929 . S
C1209 C1207 1.433 . S
C1209 N1212 1.384 . S
C1210 H1201 0.929 . S
C1210 C1202 1.378 . S
C1210 C1205 1.350 . S
C1211 H1198 0.929 . S
C1211 C1203 1.433 . S
C1211 N1213 1.384 . S
N1212 C1208 1.427 . S
N1212 C1209 1.384 . S
N1213 C1205 1.427 . S
N1213 C1211 1.384 . S
H1214 C1220 0.930 . S
H1215 C1224 0.930 . S
H1216 C1229 0.929 . S
H1217 C1227 0.929 . S
H1218 C1222 0.929 . S
H1219 C1228 0.929 . S
C1220 H1214 0.930 . S
C1220 C1221 1.367 . S
C1220 C1228 1.378 1_455 S
C1221 C1220 1.367 . S
C1221 C1229 1.433 . S
C1222 H1218 0.929 . S
C1222 C1224 1.378 . S
C1222 C1226 1.350 . S
C1223 C1226 1.463 . S
C1223 C1228 1.350 . S
C1223 N1231 1.427 . S
C1224 H1215 0.930 . S
C1224 C1222 1.378 . S
C1224 C1225 1.367 . S
C1225 C1224 1.367 . S
C1225 C1227 1.433 . S
C1226 C1222 1.350 . S
C1226 C1223 1.463 . S
C1226 N1230 1.427 . S
C1227 H1217 0.929 . S
C1227 C1225 1.433 . S
C1227 N1230 1.384 . S
C1228 H1219 0.929 . S
C1228 C1220 1.378 1_655 S
C1228 C1223 1.350 . S
C1229 H1216 0.929 . S
C1229 C1221 1.433 . S
C1229 N1231 1.384 1_455 S
N1230 C1226 1.427 . S
N1230 C1227 1.384 . S
N1231 C1223 1.427 . S
N1231 C1229 1.384 1_655 S
H1232 C1238 0.930 . S
H1233 C1242 0.930 . S
H1234 C1247 0.929 . S
H1235 C1245 0.929 . S
H1236 C1240 0.929 . S
H1237 C1246 0.929 . S
C1238 H1232 0.930 . S
C1238 C1239 1.367 . S
C1238 C1246 1.378 . S
C1239 C1238 1.367 . S
C1239 C1247 1.433 . S
C1240 H1236 0.929 . S
C1240 C1242 1.378 . S
C1240 C1244 1.350 . S
C1241 C1244 1.463 . S
C1241 C1246 1.350 . S
C1241 N1249 1.427 . S
C1242 H1233 0.930 . S
C1242 C1240 1.378 . S
C1242 C1243 1.367 . S
C1243 C1242 1.367 . S
C1243 C1245 1.433 . S
C1244 C1240 1.350 . S
C1244 C1241 1.463 . S
C1244 N1248 1.427 . S
C1245 H1235 0.929 . S
C1245 C1243 1.433 . S
C1245 N1248 1.384 . S
C1246 H1237 0.929 . S
C1246 C1238 1.378 . S
C1246 C1241 1.350 . S
C1247 H1234 0.929 . S
C1247 C1239 1.433 . S
C1247 N1249 1.384 . S
N1248 C1244 1.427 . S
N1248 C1245 1.384 . S
N1249 C1241 1.427 . S
N1249 C1247 1.384 . S
H1250 C1256 0.930 . S
H1251 C1260 0.930 . S
H1252 C1265 0.929 . S
H1253 C1263 0.929 . S
H1254 C1258 0.929 . S
H1255 C1264 0.929 . S
C1256 H1250 0.930 . S
C1256 C1257 1.367 . S
C1256 C1264 1.378 1_655 S
C1257 C1256 1.367 . S
C1257 C1265 1.433 . S
C1258 H1254 0.929 . S
C1258 C1260 1.378 . S
C1258 C1262 1.350 . S
C1259 C1262 1.463 . S
C1259 C1264 1.350 . S
C1259 N1267 1.427 1_455 S
C1260 H1251 0.930 . S
C1260 C1258 1.378 . S
C1260 C1261 1.367 . S
C1261 C1260 1.367 . S
C1261 C1263 1.433 . S
C1262 C1258 1.350 . S
C1262 C1259 1.463 . S
C1262 N1266 1.427 . S
C1263 H1253 0.929 . S
C1263 C1261 1.433 . S
C1263 N1266 1.384 . S
C1264 H1255 0.929 . S
C1264 C1256 1.378 1_455 S
C1264 C1259 1.350 . S
C1265 H1252 0.929 . S
C1265 C1257 1.433 . S
C1265 N1267 1.384 . S
N1266 C1262 1.427 . S
N1266 C1263 1.384 . S
N1267 C1259 1.427 1_655 S
N1267 C1265 1.384 . S
H1268 C1274 0.930 . S
H1269 C1278 0.930 . S
H1270 C1283 0.929 . S
H1271 C1281 0.929 . S
H1272 C1276 0.929 . S
H1273 C1282 0.929 . S
C1274 H1268 0.930 . S
C1274 C1275 1.367 . S
C1274 C1282 1.378 . S
C1275 C1274 1.367 . S
C1275 C1283 1.433 . S
C1276 H1272 0.929 . S
C1276 C1278 1.378 . S
C1276 C1280 1.350 . S
C1277 C1280 1.463 . S
C1277 C1282 1.350 . S
C1277 N1285 1.427 . S
C1278 H1269 0.930 . S
C1278 C1276 1.378 . S
C1278 C1279 1.367 . S
C1279 C1278 1.367 . S
C1279 C1281 1.433 . S
C1280 C1276 1.350 . S
C1280 C1277 1.463 . S
C1280 N1284 1.427 . S
C1281 H1271 0.929 . S
C1281 C1279 1.433 . S
C1281 N1284 1.384 . S
C1282 H1273 0.929 . S
C1282 C1274 1.378 . S
C1282 C1277 1.350 . S
C1283 H1270 0.929 . S
C1283 C1275 1.433 . S
C1283 N1285 1.384 . S
N1284 C1280 1.427 . S
N1284 C1281 1.384 . S
N1285 C1277 1.427 . S
N1285 C1283 1.384 . S
H1286 C1292 0.930 . S
H1287 C1296 0.930 . S
H1288 C1301 0.929 . S
H1289 C1299 0.929 . S
H1290 C1294 0.929 . S
H1291 C1300 0.929 . S
C1292 H1286 0.930 . S
C1292 C1293 1.367 . S
C1292 C1300 1.378 . S
C1293 C1292 1.367 . S
C1293 C1301 1.433 . S
C1294 H1290 0.929 . S
C1294 C1296 1.378 . S
C1294 C1298 1.350 . S
C1295 C1298 1.463 . S
C1295 C1300 1.350 . S
C1295 N1303 1.427 . S
C1296 H1287 0.930 . S
C1296 C1294 1.378 . S
C1296 C1297 1.367 . S
C1297 C1296 1.367 . S
C1297 C1299 1.433 . S
C1298 C1294 1.350 . S
C1298 C1295 1.463 . S
C1298 N1302 1.427 . S
C1299 H1289 0.929 . S
C1299 C1297 1.433 . S
C1299 N1302 1.384 . S
C1300 H1291 0.929 . S
C1300 C1292 1.378 . S
C1300 C1295 1.350 . S
C1301 H1288 0.929 . S
C1301 C1293 1.433 . S
C1301 N1303 1.384 . S
N1302 C1298 1.427 . S
N1302 C1299 1.384 . S
N1303 C1295 1.427 . S
N1303 C1301 1.384 . S
H1304 C1310 0.930 . S
H1305 C1314 0.930 . S
H1306 C1319 0.929 . S
H1307 C1317 0.929 . S
H1308 C1312 0.929 . S
H1309 C1318 0.929 . S
C1310 H1304 0.930 . S
C1310 C1311 1.367 . S
C1310 C1318 1.378 . S
C1311 C1310 1.367 . S
C1311 C1319 1.433 . S
C1312 H1308 0.929 . S
C1312 C1314 1.378 . S
C1312 C1316 1.350 . S
C1313 C1316 1.463 . S
C1313 C1318 1.350 . S
C1313 N1321 1.427 . S
C1314 H1305 0.930 . S
C1314 C1312 1.378 . S
C1314 C1315 1.367 . S
C1315 C1314 1.367 . S
C1315 C1317 1.433 . S
C1316 C1312 1.350 . S
C1316 C1313 1.463 . S
C1316 N1320 1.427 . S
C1317 H1307 0.929 . S
C1317 C1315 1.433 . S
C1317 N1320 1.384 . S
C1318 H1309 0.929 . S
C1318 C1310 1.378 . S
C1318 C1313 1.350 . S
C1319 H1306 0.929 . S
C1319 C1311 1.433 . S
C1319 N1321 1.384 . S
N1320 C1316 1.427 . S
N1320 C1317 1.384 . S
N1321 C1313 1.427 . S
N1321 C1319 1.384 . S
H1322 C1328 0.930 . S
H1323 C1332 0.930 . S
H1324 C1337 0.929 . S
H1325 C1335 0.929 . S
H1326 C1330 0.929 . S
H1327 C1336 0.929 . S
C1328 H1322 0.930 . S
C1328 C1329 1.367 . S
C1328 C1336 1.378 . S
C1329 C1328 1.367 . S
C1329 C1337 1.433 . S
C1330 H1326 0.929 . S
C1330 C1332 1.378 . S
C1330 C1334 1.350 . S
C1331 C1334 1.463 . S
C1331 C1336 1.350 . S
C1331 N1339 1.427 . S
C1332 H1323 0.930 . S
C1332 C1330 1.378 . S
C1332 C1333 1.367 . S
C1333 C1332 1.367 . S
C1333 C1335 1.433 . S
C1334 C1330 1.350 . S
C1334 C1331 1.463 . S
C1334 N1338 1.427 . S
C1335 H1325 0.929 . S
C1335 C1333 1.433 . S
C1335 N1338 1.384 . S
C1336 H1327 0.929 . S
C1336 C1328 1.378 . S
C1336 C1331 1.350 . S
C1337 H1324 0.929 . S
C1337 C1329 1.433 . S
C1337 N1339 1.384 . S
N1338 C1334 1.427 . S
N1338 C1335 1.384 . S
N1339 C1331 1.427 . S
N1339 C1337 1.384 . S
H1340 C1346 0.930 . S
H1341 C1350 0.930 . S
H1342 C1355 0.929 . S
H1343 C1353 0.929 . S
H1344 C1348 0.929 . S
H1345 C1354 0.929 . S
C1346 H1340 0.930 . S
C1346 C1347 1.367 . S
C1346 C1354 1.378 . S
C1347 C1346 1.367 . S
C1347 C1355 1.433 . S
C1348 H1344 0.929 . S
C1348 C1350 1.378 . S
C1348 C1352 1.350 . S
C1349 C1352 1.463 . S
C1349 C1354 1.350 . S
C1349 N1357 1.427 . S
C1350 H1341 0.930 . S
C1350 C1348 1.378 . S
C1350 C1351 1.367 . S
C1351 C1350 1.367 . S
C1351 C1353 1.433 . S
C1352 C1348 1.350 . S
C1352 C1349 1.463 . S
C1352 N1356 1.427 . S
C1353 H1343 0.929 . S
C1353 C1351 1.433 . S
C1353 N1356 1.384 . S
C1354 H1345 0.929 . S
C1354 C1346 1.378 . S
C1354 C1349 1.350 . S
C1355 H1342 0.929 . S
C1355 C1347 1.433 . S
C1355 N1357 1.384 . S
N1356 C1352 1.427 . S
N1356 C1353 1.384 . S
N1357 C1349 1.427 . S
N1357 C1355 1.384 . S
H1358 C1364 0.930 . S
H1359 C1368 0.930 . S
H1360 C1373 0.929 . S
H1361 C1371 0.929 . S
H1362 C1366 0.929 . S
H1363 C1372 0.929 . S
C1364 H1358 0.930 . S
C1364 C1365 1.367 . S
C1364 C1372 1.378 . S
C1365 C1364 1.367 . S
C1365 C1373 1.433 . S
C1366 H1362 0.929 . S
C1366 C1368 1.378 . S
C1366 C1370 1.350 1_655 S
C1367 C1370 1.463 . S
C1367 C1372 1.350 . S
C1367 N1375 1.427 . S
C1368 H1359 0.930 . S
C1368 C1366 1.378 . S
C1368 C1369 1.367 . S
C1369 C1368 1.367 . S
C1369 C1371 1.433 . S
C1370 C1366 1.350 1_455 S
C1370 C1367 1.463 . S
C1370 N1374 1.427 . S
C1371 H1361 0.929 . S
C1371 C1369 1.433 . S
C1371 N1374 1.384 1_655 S
C1372 H1363 0.929 . S
C1372 C1364 1.378 . S
C1372 C1367 1.350 . S
C1373 H1360 0.929 . S
C1373 C1365 1.433 . S
C1373 N1375 1.384 . S
N1374 C1370 1.427 . S
N1374 C1371 1.384 1_455 S
N1375 C1367 1.427 . S
N1375 C1373 1.384 . S
H1376 C1382 0.930 . S
H1377 C1386 0.930 . S
H1378 C1391 0.929 . S
H1379 C1389 0.929 . S
H1380 C1384 0.929 . S
H1381 C1390 0.929 . S
C1382 H1376 0.930 . S
C1382 C1383 1.367 . S
C1382 C1390 1.378 . S
C1383 C1382 1.367 . S
C1383 C1391 1.433 . S
C1384 H1380 0.929 . S
C1384 C1386 1.378 . S
C1384 C1388 1.350 . S
C1385 C1388 1.463 . S
C1385 C1390 1.350 . S
C1385 N1393 1.427 . S
C1386 H1377 0.930 . S
C1386 C1384 1.378 . S
C1386 C1387 1.367 . S
C1387 C1386 1.367 . S
C1387 C1389 1.433 . S
C1388 C1384 1.350 . S
C1388 C1385 1.463 . S
C1388 N1392 1.427 . S
C1389 H1379 0.929 . S
C1389 C1387 1.433 . S
C1389 N1392 1.384 . S
C1390 H1381 0.929 . S
C1390 C1382 1.378 . S
C1390 C1385 1.350 . S
C1391 H1378 0.929 . S
C1391 C1383 1.433 . S
C1391 N1393 1.384 . S
N1392 C1388 1.427 . S
N1392 C1389 1.384 . S
N1393 C1385 1.427 . S
N1393 C1391 1.384 . S
H1394 C1400 0.930 . S
H1395 C1404 0.930 . S
H1396 C1409 0.929 . S
H1397 C1407 0.929 . S
H1398 C1402 0.929 . S
H1399 C1408 0.929 . S
C1400 H1394 0.930 . S
C1400 C1401 1.367 . S
C1400 C1408 1.378 . S
C1401 C1400 1.367 . S
C1401 C1409 1.433 . S
C1402 H1398 0.929 . S
C1402 C1404 1.378 . S
C1402 C1406 1.350 . S
C1403 C1406 1.463 . S
C1403 C1408 1.350 . S
C1403 N1411 1.427 . S
C1404 H1395 0.930 . S
C1404 C1402 1.378 . S
C1404 C1405 1.367 . S
C1405 C1404 1.367 . S
C1405 C1407 1.433 . S
C1406 C1402 1.350 . S
C1406 C1403 1.463 . S
C1406 N1410 1.427 . S
C1407 H1397 0.929 . S
C1407 C1405 1.433 . S
C1407 N1410 1.384 . S
C1408 H1399 0.929 . S
C1408 C1400 1.378 . S
C1408 C1403 1.350 . S
C1409 H1396 0.929 . S
C1409 C1401 1.433 . S
C1409 N1411 1.384 . S
N1410 C1406 1.427 . S
N1410 C1407 1.384 . S
N1411 C1403 1.427 . S
N1411 C1409 1.384 . S
H1412 C1418 0.930 . S
H1413 C1422 0.930 . S
H1414 C1427 0.929 . S
H1415 C1425 0.929 . S
H1416 C1420 0.929 . S
H1417 C1426 0.929 . S
C1418 H1412 0.930 . S
C1418 C1419 1.367 . S
C1418 C1426 1.378 . S
C1419 C1418 1.367 . S
C1419 C1427 1.433 . S
C1420 H1416 0.929 . S
C1420 C1422 1.378 . S
C1420 C1424 1.350 . S
C1421 C1424 1.463 . S
C1421 C1426 1.350 . S
C1421 N1429 1.427 . S
C1422 H1413 0.930 . S
C1422 C1420 1.378 . S
C1422 C1423 1.367 . S
C1423 C1422 1.367 . S
C1423 C1425 1.433 . S
C1424 C1420 1.350 . S
C1424 C1421 1.463 . S
C1424 N1428 1.427 . S
C1425 H1415 0.929 . S
C1425 C1423 1.433 . S
C1425 N1428 1.384 . S
C1426 H1417 0.929 . S
C1426 C1418 1.378 . S
C1426 C1421 1.350 . S
C1427 H1414 0.929 . S
C1427 C1419 1.433 . S
C1427 N1429 1.384 . S
N1428 C1424 1.427 . S
N1428 C1425 1.384 . S
N1429 C1421 1.427 . S
N1429 C1427 1.384 . S
H1430 C1436 0.930 . S
H1431 C1440 0.930 . S
H1432 C1445 0.929 . S
H1433 C1443 0.929 . S
H1434 C1438 0.929 . S
H1435 C1444 0.929 . S
C1436 H1430 0.930 . S
C1436 C1437 1.367 . S
C1436 C1444 1.378 1_655 S
C1437 C1436 1.367 . S
C1437 C1445 1.433 . S
C1438 H1434 0.929 . S
C1438 C1440 1.378 . S
C1438 C1442 1.350 . S
C1439 C1442 1.463 . S
C1439 C1444 1.350 . S
C1439 N1447 1.427 . S
C1440 H1431 0.930 . S
C1440 C1438 1.378 . S
C1440 C1441 1.367 . S
C1441 C1440 1.367 . S
C1441 C1443 1.433 . S
C1442 C1438 1.350 . S
C1442 C1439 1.463 . S
C1442 N1446 1.427 . S
C1443 H1433 0.929 . S
C1443 C1441 1.433 . S
C1443 N1446 1.384 . S
C1444 H1435 0.929 . S
C1444 C1436 1.378 1_455 S
C1444 C1439 1.350 . S
C1445 H1432 0.929 . S
C1445 C1437 1.433 . S
C1445 N1447 1.384 1_655 S
N1446 C1442 1.427 . S
N1446 C1443 1.384 . S
N1447 C1439 1.427 . S
N1447 C1445 1.384 1_455 S
H1448 C1454 0.930 . S
H1449 C1458 0.930 . S
H1450 C1463 0.929 . S
H1451 C1461 0.929 . S
H1452 C1456 0.929 . S
H1453 C1462 0.929 . S
C1454 H1448 0.930 . S
C1454 C1455 1.367 . S
C1454 C1462 1.378 . S
C1455 C1454 1.367 . S
C1455 C1463 1.433 . S
C1456 H1452 0.929 . S
C1456 C1458 1.378 . S
C1456 C1460 1.350 . S
C1457 C1460 1.463 . S
C1457 C1462 1.350 . S
C1457 N1465 1.427 . S
C1458 H1449 0.930 . S
C1458 C1456 1.378 . S
C1458 C1459 1.367 . S
C1459 C1458 1.367 . S
C1459 C1461 1.433 . S
C1460 C1456 1.350 . S
C1460 C1457 1.463 . S
C1460 N1464 1.427 . S
C1461 H1451 0.929 . S
C1461 C1459 1.433 . S
C1461 N1464 1.384 . S
C1462 H1453 0.929 . S
C1462 C1454 1.378 . S
C1462 C1457 1.350 . S
C1463 H1450 0.929 . S
C1463 C1455 1.433 . S
C1463 N1465 1.384 . S
N1464 C1460 1.427 . S
N1464 C1461 1.384 . S
N1465 C1457 1.427 . S
N1465 C1463 1.384 . S
H1466 C1472 0.930 . S
H1467 C1476 0.930 . S
H1468 C1481 0.929 . S
H1469 C1479 0.929 . S
H1470 C1474 0.929 . S
H1471 C1480 0.929 . S
C1472 H1466 0.930 . S
C1472 C1473 1.367 . S
C1472 C1480 1.378 . S
C1473 C1472 1.367 . S
C1473 C1481 1.433 . S
C1474 H1470 0.929 . S
C1474 C1476 1.378 1_455 S
C1474 C1478 1.350 . S
C1475 C1478 1.463 . S
C1475 C1480 1.350 . S
C1475 N1483 1.427 . S
C1476 H1467 0.930 . S
C1476 C1474 1.378 1_655 S
C1476 C1477 1.367 . S
C1477 C1476 1.367 . S
C1477 C1479 1.433 . S
C1478 C1474 1.350 . S
C1478 C1475 1.463 . S
C1478 N1482 1.427 . S
C1479 H1469 0.929 . S
C1479 C1477 1.433 . S
C1479 N1482 1.384 1_655 S
C1480 H1471 0.929 . S
C1480 C1472 1.378 . S
C1480 C1475 1.350 . S
C1481 H1468 0.929 . S
C1481 C1473 1.433 . S
C1481 N1483 1.384 . S
N1482 C1478 1.427 . S
N1482 C1479 1.384 1_455 S
N1483 C1475 1.427 . S
N1483 C1481 1.384 . S
H1484 C1490 0.930 . S
H1485 C1494 0.930 . S
H1486 C1499 0.929 . S
H1487 C1497 0.929 . S
H1488 C1492 0.929 . S
H1489 C1498 0.929 . S
C1490 H1484 0.930 . S
C1490 C1491 1.367 . S
C1490 C1498 1.378 . S
C1491 C1490 1.367 . S
C1491 C1499 1.433 . S
C1492 H1488 0.929 . S
C1492 C1494 1.378 . S
C1492 C1496 1.350 . S
C1493 C1496 1.463 . S
C1493 C1498 1.350 . S
C1493 N1501 1.427 . S
C1494 H1485 0.930 . S
C1494 C1492 1.378 . S
C1494 C1495 1.367 . S
C1495 C1494 1.367 . S
C1495 C1497 1.433 . S
C1496 C1492 1.350 . S
C1496 C1493 1.463 . S
C1496 N1500 1.427 . S
C1497 H1487 0.929 . S
C1497 C1495 1.433 . S
C1497 N1500 1.384 . S
C1498 H1489 0.929 . S
C1498 C1490 1.378 . S
C1498 C1493 1.350 . S
C1499 H1486 0.929 . S
C1499 C1491 1.433 . S
C1499 N1501 1.384 . S
N1500 C1496 1.427 . S
N1500 C1497 1.384 . S
N1501 C1493 1.427 . S
N1501 C1499 1.384 . S
H1502 C1508 0.930 . S
H1503 C1512 0.930 . S
H1504 C1517 0.929 . S
H1505 C1515 0.929 . S
H1506 C1510 0.929 . S
H1507 C1516 0.929 . S
C1508 H1502 0.930 . S
C1508 C1509 1.367 . S
C1508 C1516 1.378 . S
C1509 C1508 1.367 . S
C1509 C1517 1.433 . S
C1510 H1506 0.929 . S
C1510 C1512 1.378 . S
C1510 C1514 1.350 . S
C1511 C1514 1.463 . S
C1511 C1516 1.350 . S
C1511 N1519 1.427 . S
C1512 H1503 0.930 . S
C1512 C1510 1.378 . S
C1512 C1513 1.367 . S
C1513 C1512 1.367 . S
C1513 C1515 1.433 . S
C1514 C1510 1.350 . S
C1514 C1511 1.463 . S
C1514 N1518 1.427 . S
C1515 H1505 0.929 . S
C1515 C1513 1.433 . S
C1515 N1518 1.384 . S
C1516 H1507 0.929 . S
C1516 C1508 1.378 . S
C1516 C1511 1.350 . S
C1517 H1504 0.929 . S
C1517 C1509 1.433 . S
C1517 N1519 1.384 . S
N1518 C1514 1.427 . S
N1518 C1515 1.384 . S
N1519 C1511 1.427 . S
N1519 C1517 1.384 . S
H1520 C1526 0.930 . S
H1521 C1530 0.930 . S
H1522 C1535 0.929 . S
H1523 C1533 0.929 . S
H1524 C1528 0.929 . S
H1525 C1534 0.929 . S
C1526 H1520 0.930 . S
C1526 C1527 1.367 . S
C1526 C1534 1.378 . S
C1527 C1526 1.367 . S
C1527 C1535 1.433 . S
C1528 H1524 0.929 . S
C1528 C1530 1.378 . S
C1528 C1532 1.350 . S
C1529 C1532 1.463 . S
C1529 C1534 1.350 . S
C1529 N1537 1.427 . S
C1530 H1521 0.930 . S
C1530 C1528 1.378 . S
C1530 C1531 1.367 . S
C1531 C1530 1.367 . S
C1531 C1533 1.433 . S
C1532 C1528 1.350 . S
C1532 C1529 1.463 . S
C1532 N1536 1.427 . S
C1533 H1523 0.929 . S
C1533 C1531 1.433 . S
C1533 N1536 1.384 . S
C1534 H1525 0.929 . S
C1534 C1526 1.378 . S
C1534 C1529 1.350 . S
C1535 H1522 0.929 . S
C1535 C1527 1.433 . S
C1535 N1537 1.384 . S
N1536 C1532 1.427 . S
N1536 C1533 1.384 . S
N1537 C1529 1.427 . S
N1537 C1535 1.384 . S
H1538 C1544 0.930 . S
H1539 C1548 0.930 . S
H1540 C1553 0.929 . S
H1541 C1551 0.929 . S
H1542 C1546 0.929 . S
H1543 C1552 0.929 . S
C1544 H1538 0.930 . S
C1544 C1545 1.367 . S
C1544 C1552 1.378 . S
C1545 C1544 1.367 . S
C1545 C1553 1.433 . S
C1546 H1542 0.929 . S
C1546 C1548 1.378 . S
C1546 C1550 1.350 . S
C1547 C1550 1.463 . S
C1547 C1552 1.350 . S
C1547 N1555 1.427 . S
C1548 H1539 0.930 . S
C1548 C1546 1.378 . S
C1548 C1549 1.367 . S
C1549 C1548 1.367 . S
C1549 C1551 1.433 . S
C1550 C1546 1.350 . S
C1550 C1547 1.463 . S
C1550 N1554 1.427 . S
C1551 H1541 0.929 . S
C1551 C1549 1.433 . S
C1551 N1554 1.384 . S
C1552 H1543 0.929 . S
C1552 C1544 1.378 . S
C1552 C1547 1.350 . S
C1553 H1540 0.929 . S
C1553 C1545 1.433 . S
C1553 N1555 1.384 . S
N1554 C1550 1.427 . S
N1554 C1551 1.384 . S
N1555 C1547 1.427 . S
N1555 C1553 1.384 . S
H1556 C1562 0.930 . S
H1557 C1566 0.930 . S
H1558 C1571 0.929 . S
H1559 C1569 0.929 . S
H1560 C1564 0.929 . S
H1561 C1570 0.929 . S
C1562 H1556 0.930 . S
C1562 C1563 1.367 . S
C1562 C1570 1.378 . S
C1563 C1562 1.367 . S
C1563 C1571 1.433 . S
C1564 H1560 0.929 . S
C1564 C1566 1.378 . S
C1564 C1568 1.350 . S
C1565 C1568 1.463 . S
C1565 C1570 1.350 . S
C1565 N1573 1.427 . S
C1566 H1557 0.930 . S
C1566 C1564 1.378 . S
C1566 C1567 1.367 . S
C1567 C1566 1.367 . S
C1567 C1569 1.433 . S
C1568 C1564 1.350 . S
C1568 C1565 1.463 . S
C1568 N1572 1.427 . S
C1569 H1559 0.929 . S
C1569 C1567 1.433 . S
C1569 N1572 1.384 . S
C1570 H1561 0.929 . S
C1570 C1562 1.378 . S
C1570 C1565 1.350 . S
C1571 H1558 0.929 . S
C1571 C1563 1.433 . S
C1571 N1573 1.384 . S
N1572 C1568 1.427 . S
N1572 C1569 1.384 . S
N1573 C1565 1.427 . S
N1573 C1571 1.384 . S
H1574 C1580 0.930 . S
H1575 C1584 0.930 . S
H1576 C1589 0.929 . S
H1577 C1587 0.929 . S
H1578 C1582 0.929 . S
H1579 C1588 0.929 . S
C1580 H1574 0.930 . S
C1580 C1581 1.367 . S
C1580 C1588 1.378 . S
C1581 C1580 1.367 . S
C1581 C1589 1.433 . S
C1582 H1578 0.929 . S
C1582 C1584 1.378 . S
C1582 C1586 1.350 . S
C1583 C1586 1.463 . S
C1583 C1588 1.350 1_655 S
C1583 N1591 1.427 . S
C1584 H1575 0.930 . S
C1584 C1582 1.378 . S
C1584 C1585 1.367 . S
C1585 C1584 1.367 . S
C1585 C1587 1.433 . S
C1586 C1582 1.350 . S
C1586 C1583 1.463 . S
C1586 N1590 1.427 . S
C1587 H1577 0.929 . S
C1587 C1585 1.433 . S
C1587 N1590 1.384 . S
C1588 H1579 0.929 . S
C1588 C1580 1.378 . S
C1588 C1583 1.350 1_455 S
C1589 H1576 0.929 . S
C1589 C1581 1.433 . S
C1589 N1591 1.384 1_455 S
N1590 C1586 1.427 . S
N1590 C1587 1.384 . S
N1591 C1583 1.427 . S
N1591 C1589 1.384 1_655 S
H1592 C1598 0.930 . S
H1593 C1602 0.930 . S
H1594 C1607 0.929 . S
H1595 C1605 0.929 . S
H1596 C1600 0.929 . S
H1597 C1606 0.929 . S
C1598 H1592 0.930 . S
C1598 C1599 1.367 . S
C1598 C1606 1.378 . S
C1599 C1598 1.367 . S
C1599 C1607 1.433 . S
C1600 H1596 0.929 . S
C1600 C1602 1.378 . S
C1600 C1604 1.350 . S
C1601 C1604 1.463 . S
C1601 C1606 1.350 . S
C1601 N1609 1.427 . S
C1602 H1593 0.930 . S
C1602 C1600 1.378 . S
C1602 C1603 1.367 . S
C1603 C1602 1.367 . S
C1603 C1605 1.433 . S
C1604 C1600 1.350 . S
C1604 C1601 1.463 . S
C1604 N1608 1.427 . S
C1605 H1595 0.929 . S
C1605 C1603 1.433 . S
C1605 N1608 1.384 . S
C1606 H1597 0.929 . S
C1606 C1598 1.378 . S
C1606 C1601 1.350 . S
C1607 H1594 0.929 . S
C1607 C1599 1.433 . S
C1607 N1609 1.384 . S
N1608 C1604 1.427 . S
N1608 C1605 1.384 . S
N1609 C1601 1.427 . S
N1609 C1607 1.384 . S
H1610 C1616 0.930 . S
H1611 C1620 0.930 . S
H1612 C1625 0.929 . S
H1613 C1623 0.929 . S
H1614 C1618 0.929 . S
H1615 C1624 0.929 . S
C1616 H1610 0.930 . S
C1616 C1617 1.367 . S
C1616 C1624 1.378 . S
C1617 C1616 1.367 . S
C1617 C1625 1.433 . S
C1618 H1614 0.929 . S
C1618 C1620 1.378 1_655 S
C1618 C1622 1.350 . S
C1619 C1622 1.463 . S
C1619 C1624 1.350 . S
C1619 N1627 1.427 . S
C1620 H1611 0.930 . S
C1620 C1618 1.378 1_455 S
C1620 C1621 1.367 . S
C1621 C1620 1.367 . S
C1621 C1623 1.433 . S
C1622 C1618 1.350 . S
C1622 C1619 1.463 . S
C1622 N1626 1.427 . S
C1623 H1613 0.929 . S
C1623 C1621 1.433 . S
C1623 N1626 1.384 1_455 S
C1624 H1615 0.929 . S
C1624 C1616 1.378 . S
C1624 C1619 1.350 . S
C1625 H1612 0.929 . S
C1625 C1617 1.433 . S
C1625 N1627 1.384 . S
N1626 C1622 1.427 . S
N1626 C1623 1.384 1_655 S
N1627 C1619 1.427 . S
N1627 C1625 1.384 . S
H1628 C1634 0.930 . S
H1629 C1638 0.930 . S
H1630 C1643 0.929 . S
H1631 C1641 0.929 . S
H1632 C1636 0.929 . S
H1633 C1642 0.929 . S
C1634 H1628 0.930 . S
C1634 C1635 1.367 . S
C1634 C1642 1.378 . S
C1635 C1634 1.367 . S
C1635 C1643 1.433 . S
C1636 H1632 0.929 . S
C1636 C1638 1.378 . S
C1636 C1640 1.350 . S
C1637 C1640 1.463 . S
C1637 C1642 1.350 . S
C1637 N1645 1.427 . S
C1638 H1629 0.930 . S
C1638 C1636 1.378 . S
C1638 C1639 1.367 . S
C1639 C1638 1.367 . S
C1639 C1641 1.433 . S
C1640 C1636 1.350 . S
C1640 C1637 1.463 . S
C1640 N1644 1.427 . S
C1641 H1631 0.929 . S
C1641 C1639 1.433 . S
C1641 N1644 1.384 . S
C1642 H1633 0.929 . S
C1642 C1634 1.378 . S
C1642 C1637 1.350 . S
C1643 H1630 0.929 . S
C1643 C1635 1.433 . S
C1643 N1645 1.384 . S
N1644 C1640 1.427 . S
N1644 C1641 1.384 . S
N1645 C1637 1.427 . S
N1645 C1643 1.384 . S
H1646 C1652 0.930 . S
H1647 C1656 0.930 . S
H1648 C1661 0.929 . S
H1649 C1659 0.929 . S
H1650 C1654 0.929 . S
H1651 C1660 0.929 . S
C1652 H1646 0.930 . S
C1652 C1653 1.367 . S
C1652 C1660 1.378 . S
C1653 C1652 1.367 . S
C1653 C1661 1.433 . S
C1654 H1650 0.929 . S
C1654 C1656 1.378 . S
C1654 C1658 1.350 . S
C1655 C1658 1.463 . S
C1655 C1660 1.350 . S
C1655 N1663 1.427 . S
C1656 H1647 0.930 . S
C1656 C1654 1.378 . S
C1656 C1657 1.367 . S
C1657 C1656 1.367 . S
C1657 C1659 1.433 . S
C1658 C1654 1.350 . S
C1658 C1655 1.463 . S
C1658 N1662 1.427 . S
C1659 H1649 0.929 . S
C1659 C1657 1.433 . S
C1659 N1662 1.384 . S
C1660 H1651 0.929 . S
C1660 C1652 1.378 . S
C1660 C1655 1.350 . S
C1661 H1648 0.929 . S
C1661 C1653 1.433 . S
C1661 N1663 1.384 . S
N1662 C1658 1.427 . S
N1662 C1659 1.384 . S
N1663 C1655 1.427 . S
N1663 C1661 1.384 . S
H1664 C1670 0.930 . S
H1665 C1674 0.930 . S
H1666 C1679 0.929 . S
H1667 C1677 0.929 . S
H1668 C1672 0.929 . S
H1669 C1678 0.929 . S
C1670 H1664 0.930 . S
C1670 C1671 1.367 . S
C1670 C1678 1.378 . S
C1671 C1670 1.367 . S
C1671 C1679 1.433 . S
C1672 H1668 0.929 . S
C1672 C1674 1.378 . S
C1672 C1676 1.350 . S
C1673 C1676 1.463 1_455 S
C1673 C1678 1.350 . S
C1673 N1681 1.427 . S
C1674 H1665 0.930 . S
C1674 C1672 1.378 . S
C1674 C1675 1.367 . S
C1675 C1674 1.367 . S
C1675 C1677 1.433 . S
C1676 C1672 1.350 . S
C1676 C1673 1.463 1_655 S
C1676 N1680 1.427 . S
C1677 H1667 0.929 . S
C1677 C1675 1.433 . S
C1677 N1680 1.384 . S
C1678 H1669 0.929 . S
C1678 C1670 1.378 . S
C1678 C1673 1.350 . S
C1679 H1666 0.929 . S
C1679 C1671 1.433 . S
C1679 N1681 1.384 . S
N1680 C1676 1.427 . S
N1680 C1677 1.384 . S
N1681 C1673 1.427 . S
N1681 C1679 1.384 . S
H1682 C1688 0.930 . S
H1683 C1692 0.930 . S
H1684 C1697 0.929 . S
H1685 C1695 0.929 . S
H1686 C1690 0.929 . S
H1687 C1696 0.929 . S
C1688 H1682 0.930 . S
C1688 C1689 1.367 . S
C1688 C1696 1.378 . S
C1689 C1688 1.367 . S
C1689 C1697 1.433 . S
C1690 H1686 0.929 . S
C1690 C1692 1.378 . S
C1690 C1694 1.350 . S
C1691 C1694 1.463 1_655 S
C1691 C1696 1.350 . S
C1691 N1699 1.427 . S
C1692 H1683 0.930 . S
C1692 C1690 1.378 . S
C1692 C1693 1.367 . S
C1693 C1692 1.367 . S
C1693 C1695 1.433 . S
C1694 C1690 1.350 . S
C1694 C1691 1.463 1_455 S
C1694 N1698 1.427 . S
C1695 H1685 0.929 . S
C1695 C1693 1.433 . S
C1695 N1698 1.384 . S
C1696 H1687 0.929 . S
C1696 C1688 1.378 . S
C1696 C1691 1.350 . S
C1697 H1684 0.929 . S
C1697 C1689 1.433 . S
C1697 N1699 1.384 . S
N1698 C1694 1.427 . S
N1698 C1695 1.384 . S
N1699 C1691 1.427 . S
N1699 C1697 1.384 . S
H1700 C1706 0.930 . S
H1701 C1710 0.930 . S
H1702 C1715 0.929 . S
H1703 C1713 0.929 . S
H1704 C1708 0.929 . S
H1705 C1714 0.929 . S
C1706 H1700 0.930 . S
C1706 C1707 1.367 . S
C1706 C1714 1.378 . S
C1707 C1706 1.367 . S
C1707 C1715 1.433 . S
C1708 H1704 0.929 . S
C1708 C1710 1.378 . S
C1708 C1712 1.350 . S
C1709 C1712 1.463 . S
C1709 C1714 1.350 . S
C1709 N1717 1.427 . S
C1710 H1701 0.930 . S
C1710 C1708 1.378 . S
C1710 C1711 1.367 . S
C1711 C1710 1.367 . S
C1711 C1713 1.433 . S
C1712 C1708 1.350 . S
C1712 C1709 1.463 . S
C1712 N1716 1.427 . S
C1713 H1703 0.929 . S
C1713 C1711 1.433 . S
C1713 N1716 1.384 . S
C1714 H1705 0.929 . S
C1714 C1706 1.378 . S
C1714 C1709 1.350 . S
C1715 H1702 0.929 . S
C1715 C1707 1.433 . S
C1715 N1717 1.384 . S
N1716 C1712 1.427 . S
N1716 C1713 1.384 . S
N1717 C1709 1.427 . S
N1717 C1715 1.384 . S
H1718 C1724 0.936 . S
H1719 C1728 0.930 . S
H1720 C1733 0.929 . S
H1721 C1731 0.943 . S
H1722 C1726 0.929 . S
H1723 C1732 0.934 . S
C1724 H1718 0.936 . S
C1724 C1725 1.361 1_556 S
C1724 C1732 1.378 . S
C1725 C1724 1.361 1_554 S
C1725 C1733 1.433 . S
C1726 H1722 0.929 . S
C1726 C1728 1.378 . S
C1726 C1730 1.350 . S
C1727 C1730 1.463 . S
C1727 C1732 1.344 1_554 S
C1727 N1735 1.427 . S
C1728 H1719 0.930 . S
C1728 C1726 1.378 . S
C1728 C1729 1.367 . S
C1729 C1728 1.367 . S
C1729 C1731 1.420 1_554 S
C1730 C1726 1.350 . S
C1730 C1727 1.463 . S
C1730 N1734 1.420 1_554 S
C1731 H1721 0.943 . S
C1731 C1729 1.420 1_556 S
C1731 N1734 1.384 . S
C1732 H1723 0.934 . S
C1732 C1724 1.378 . S
C1732 C1727 1.344 1_556 S
C1733 H1720 0.929 . S
C1733 C1725 1.433 . S
C1733 N1735 1.384 . S
N1734 C1730 1.420 1_556 S
N1734 C1731 1.384 . S
N1735 C1727 1.427 . S
N1735 C1733 1.384 . S
H1736 C1742 0.930 . S
H1737 C1746 0.930 . S
H1738 C1751 0.929 . S
H1739 C1749 0.929 . S
H1740 C1744 0.929 . S
H1741 C1750 0.929 . S
C1742 H1736 0.930 . S
C1742 C1743 1.367 . S
C1742 C1750 1.378 . S
C1743 C1742 1.367 . S
C1743 C1751 1.433 . S
C1744 H1740 0.929 . S
C1744 C1746 1.378 . S
C1744 C1748 1.350 . S
C1745 C1748 1.463 1_655 S
C1745 C1750 1.350 . S
C1745 N1753 1.427 . S
C1746 H1737 0.930 . S
C1746 C1744 1.378 . S
C1746 C1747 1.367 . S
C1747 C1746 1.367 . S
C1747 C1749 1.433 . S
C1748 C1744 1.350 . S
C1748 C1745 1.463 1_455 S
C1748 N1752 1.427 . S
C1749 H1739 0.929 . S
C1749 C1747 1.433 . S
C1749 N1752 1.384 . S
C1750 H1741 0.929 . S
C1750 C1742 1.378 . S
C1750 C1745 1.350 . S
C1751 H1738 0.929 . S
C1751 C1743 1.433 . S
C1751 N1753 1.384 . S
N1752 C1748 1.427 . S
N1752 C1749 1.384 . S
N1753 C1745 1.427 . S
N1753 C1751 1.384 . S
H1754 C1760 0.930 . S
H1755 C1764 0.930 . S
H1756 C1769 0.929 . S
H1757 C1767 0.929 . S
H1758 C1762 0.929 . S
H1759 C1768 0.929 . S
C1760 H1754 0.930 . S
C1760 C1761 1.367 . S
C1760 C1768 1.378 . S
C1761 C1760 1.367 . S
C1761 C1769 1.433 . S
C1762 H1758 0.929 . S
C1762 C1764 1.378 . S
C1762 C1766 1.350 . S
C1763 C1766 1.463 . S
C1763 C1768 1.350 . S
C1763 N1771 1.427 . S
C1764 H1755 0.930 . S
C1764 C1762 1.378 . S
C1764 C1765 1.367 . S
C1765 C1764 1.367 . S
C1765 C1767 1.433 . S
C1766 C1762 1.350 . S
C1766 C1763 1.463 . S
C1766 N1770 1.427 . S
C1767 H1757 0.929 . S
C1767 C1765 1.433 . S
C1767 N1770 1.384 . S
C1768 H1759 0.929 . S
C1768 C1760 1.378 . S
C1768 C1763 1.350 . S
C1769 H1756 0.929 . S
C1769 C1761 1.433 . S
C1769 N1771 1.384 . S
N1770 C1766 1.427 . S
N1770 C1767 1.384 . S
N1771 C1763 1.427 . S
N1771 C1769 1.384 . S
H1772 C1778 0.930 . S
H1773 C1782 0.930 . S
H1774 C1787 0.929 . S
H1775 C1785 0.929 . S
H1776 C1780 0.929 . S
H1777 C1786 0.929 . S
C1778 H1772 0.930 . S
C1778 C1779 1.367 . S
C1778 C1786 1.378 . S
C1779 C1778 1.367 . S
C1779 C1787 1.433 . S
C1780 H1776 0.929 . S
C1780 C1782 1.378 . S
C1780 C1784 1.350 . S
C1781 C1784 1.463 . S
C1781 C1786 1.350 . S
C1781 N1789 1.427 . S
C1782 H1773 0.930 . S
C1782 C1780 1.378 . S
C1782 C1783 1.367 . S
C1783 C1782 1.367 . S
C1783 C1785 1.433 . S
C1784 C1780 1.350 . S
C1784 C1781 1.463 . S
C1784 N1788 1.427 . S
C1785 H1775 0.929 . S
C1785 C1783 1.433 . S
C1785 N1788 1.384 . S
C1786 H1777 0.929 . S
C1786 C1778 1.378 . S
C1786 C1781 1.350 . S
C1787 H1774 0.929 . S
C1787 C1779 1.433 . S
C1787 N1789 1.384 . S
N1788 C1784 1.427 . S
N1788 C1785 1.384 . S
N1789 C1781 1.427 . S
N1789 C1787 1.384 . S
H1790 C1796 0.930 . S
H1791 C1800 0.930 . S
H1792 C1805 0.929 . S
H1793 C1803 0.929 . S
H1794 C1798 0.929 1_455 S
H1795 C1804 0.929 1_655 S
C1796 H1790 0.930 . S
C1796 C1797 1.367 . S
C1796 C1804 1.378 . S
C1797 C1796 1.367 . S
C1797 C1805 1.433 1_556 S
C1798 H1794 0.929 1_655 S
C1798 C1800 1.378 . S
C1798 C1802 1.350 1_554 S
C1799 C1802 1.463 1_455 S
C1799 C1804 1.350 . S
C1799 N1807 1.427 1_556 S
C1800 H1791 0.930 . S
C1800 C1798 1.378 . S
C1800 C1801 1.367 1_554 S
C1801 C1800 1.367 1_556 S
C1801 C1803 1.433 . S
C1802 C1798 1.350 1_556 S
C1802 C1799 1.463 1_655 S
C1802 N1806 1.427 . S
C1803 H1793 0.929 . S
C1803 C1801 1.433 . S
C1803 N1806 1.384 . S
C1804 H1795 0.929 1_455 S
C1804 C1796 1.378 . S
C1804 C1799 1.350 . S
C1805 H1792 0.929 . S
C1805 C1797 1.433 1_554 S
C1805 N1807 1.384 . S
N1806 C1802 1.427 . S
N1806 C1803 1.384 . S
N1807 C1799 1.427 1_554 S
N1807 C1805 1.384 . S
H1808 C1814 0.930 . S
H1809 C1818 0.930 . S
H1810 C1823 0.929 . S
H1811 C1821 0.929 . S
H1812 C1816 0.929 . S
H1813 C1822 0.929 . S
C1814 H1808 0.930 . S
C1814 C1815 1.367 . S
C1814 C1822 1.378 . S
C1815 C1814 1.367 . S
C1815 C1823 1.433 . S
C1816 H1812 0.929 . S
C1816 C1818 1.378 . S
C1816 C1820 1.350 . S
C1817 C1820 1.463 1_455 S
C1817 C1822 1.350 . S
C1817 N1825 1.427 . S
C1818 H1809 0.930 . S
C1818 C1816 1.378 . S
C1818 C1819 1.367 . S
C1819 C1818 1.367 . S
C1819 C1821 1.433 . S
C1820 C1816 1.350 . S
C1820 C1817 1.463 1_655 S
C1820 N1824 1.427 . S
C1821 H1811 0.929 . S
C1821 C1819 1.433 . S
C1821 N1824 1.384 . S
C1822 H1813 0.929 . S
C1822 C1814 1.378 . S
C1822 C1817 1.350 . S
C1823 H1810 0.929 . S
C1823 C1815 1.433 . S
C1823 N1825 1.384 . S
N1824 C1820 1.427 . S
N1824 C1821 1.384 . S
N1825 C1817 1.427 . S
N1825 C1823 1.384 . S
H1826 C1832 0.930 . S
H1827 C1836 0.930 . S
H1828 C1841 0.929 . S
H1829 C1839 0.929 . S
H1830 C1834 0.929 . S
H1831 C1840 0.929 . S
C1832 H1826 0.930 . S
C1832 C1833 1.367 . S
C1832 C1840 1.378 1_655 S
C1833 C1832 1.367 . S
C1833 C1841 1.433 . S
C1834 H1830 0.929 . S
C1834 C1836 1.378 1_655 S
C1834 C1838 1.350 1_655 S
C1835 C1838 1.463 1_655 S
C1835 C1840 1.350 1_655 S
C1835 N1843 1.427 . S
C1836 H1827 0.930 . S
C1836 C1834 1.378 1_455 S
C1836 C1837 1.367 . S
C1837 C1836 1.367 . S
C1837 C1839 1.433 . S
C1838 C1834 1.350 1_455 S
C1838 C1835 1.463 1_455 S
C1838 N1842 1.427 . S
C1839 H1829 0.929 . S
C1839 C1837 1.433 . S
C1839 N1842 1.384 . S
C1840 H1831 0.929 . S
C1840 C1832 1.378 1_455 S
C1840 C1835 1.350 1_455 S
C1841 H1828 0.929 . S
C1841 C1833 1.433 . S
C1841 N1843 1.384 . S
N1842 C1838 1.427 . S
N1842 C1839 1.384 . S
N1843 C1835 1.427 . S
N1843 C1841 1.384 . S
H1844 C1850 0.930 . S
H1845 C1854 0.930 . S
H1846 C1859 0.929 . S
H1847 C1857 0.929 . S
H1848 C1852 0.929 . S
H1849 C1858 0.929 . S
C1850 H1844 0.930 . S
C1850 C1851 1.367 . S
C1850 C1858 1.378 . S
C1851 C1850 1.367 . S
C1851 C1859 1.433 . S
C1852 H1848 0.929 . S
C1852 C1854 1.378 . S
C1852 C1856 1.350 . S
C1853 C1856 1.463 . S
C1853 C1858 1.350 . S
C1853 N1861 1.427 . S
C1854 H1845 0.930 . S
C1854 C1852 1.378 . S
C1854 C1855 1.367 . S
C1855 C1854 1.367 . S
C1855 C1857 1.433 . S
C1856 C1852 1.350 . S
C1856 C1853 1.463 . S
C1856 N1860 1.427 . S
C1857 H1847 0.929 . S
C1857 C1855 1.433 . S
C1857 N1860 1.384 . S
C1858 H1849 0.929 . S
C1858 C1850 1.378 . S
C1858 C1853 1.350 . S
C1859 H1846 0.929 . S
C1859 C1851 1.433 . S
C1859 N1861 1.384 . S
N1860 C1856 1.427 . S
N1860 C1857 1.384 . S
N1861 C1853 1.427 . S
N1861 C1859 1.384 . S
H1862 C1868 0.941 . S
H1863 C1872 0.930 . S
H1864 C1877 0.929 . S
H1865 C1875 0.948 . S
H1866 C1870 0.929 . S
H1867 C1876 0.940 . S
C1868 H1862 0.941 . S
C1868 C1869 1.356 1_554 S
C1868 C1876 1.378 . S
C1869 C1868 1.356 1_556 S
C1869 C1877 1.433 . S
C1870 H1866 0.929 . S
C1870 C1872 1.378 . S
C1870 C1874 1.350 . S
C1871 C1874 1.463 . S
C1871 C1876 1.339 1_556 S
C1871 N1879 1.427 . S
C1872 H1863 0.930 . S
C1872 C1870 1.378 . S
C1872 C1873 1.367 . S
C1873 C1872 1.367 . S
C1873 C1875 1.414 1_556 S
C1874 C1870 1.350 . S
C1874 C1871 1.463 . S
C1874 N1878 1.414 1_556 S
C1875 H1865 0.948 . S
C1875 C1873 1.414 1_554 S
C1875 N1878 1.384 . S
C1876 H1867 0.940 . S
C1876 C1868 1.378 . S
C1876 C1871 1.339 1_554 S
C1877 H1864 0.929 . S
C1877 C1869 1.433 . S
C1877 N1879 1.384 . S
N1878 C1874 1.414 1_554 S
N1878 C1875 1.384 . S
N1879 C1871 1.427 . S
N1879 C1877 1.384 . S
H1880 C1886 0.930 . S
H1881 C1890 0.930 . S
H1882 C1895 0.929 . S
H1883 C1893 0.929 . S
H1884 C1888 0.929 . S
H1885 C1894 0.929 . S
C1886 H1880 0.930 . S
C1886 C1887 1.367 . S
C1886 C1894 1.378 . S
C1887 C1886 1.367 . S
C1887 C1895 1.433 . S
C1888 H1884 0.929 . S
C1888 C1890 1.378 . S
C1888 C1892 1.350 . S
C1889 C1892 1.463 1_455 S
C1889 C1894 1.350 . S
C1889 N1897 1.427 . S
C1890 H1881 0.930 . S
C1890 C1888 1.378 . S
C1890 C1891 1.367 . S
C1891 C1890 1.367 . S
C1891 C1893 1.433 . S
C1892 C1888 1.350 . S
C1892 C1889 1.463 1_655 S
C1892 N1896 1.427 . S
C1893 H1883 0.929 . S
C1893 C1891 1.433 . S
C1893 N1896 1.384 . S
C1894 H1885 0.929 . S
C1894 C1886 1.378 . S
C1894 C1889 1.350 . S
C1895 H1882 0.929 . S
C1895 C1887 1.433 . S
C1895 N1897 1.384 . S
N1896 C1892 1.427 . S
N1896 C1893 1.384 . S
N1897 C1889 1.427 . S
N1897 C1895 1.384 . S
H1898 C1904 0.930 . S
H1899 C1908 0.930 . S
H1900 C1913 0.929 . S
H1901 C1911 0.929 . S
H1902 C1906 0.929 . S
H1903 C1912 0.929 . S
C1904 H1898 0.930 . S
C1904 C1905 1.367 . S
C1904 C1912 1.378 . S
C1905 C1904 1.367 . S
C1905 C1913 1.433 . S
C1906 H1902 0.929 . S
C1906 C1908 1.378 . S
C1906 C1910 1.350 . S
C1907 C1910 1.463 . S
C1907 C1912 1.350 . S
C1907 N1915 1.427 . S
C1908 H1899 0.930 . S
C1908 C1906 1.378 . S
C1908 C1909 1.367 . S
C1909 C1908 1.367 . S
C1909 C1911 1.433 . S
C1910 C1906 1.350 . S
C1910 C1907 1.463 . S
C1910 N1914 1.427 . S
C1911 H1901 0.929 . S
C1911 C1909 1.433 . S
C1911 N1914 1.384 . S
C1912 H1903 0.929 . S
C1912 C1904 1.378 . S
C1912 C1907 1.350 . S
C1913 H1900 0.929 . S
C1913 C1905 1.433 . S
C1913 N1915 1.384 . S
N1914 C1910 1.427 . S
N1914 C1911 1.384 . S
N1915 C1907 1.427 . S
N1915 C1913 1.384 . S
H1916 C1922 0.930 . S
H1917 C1926 0.930 . S
H1918 C1931 0.929 . S
H1919 C1929 0.929 . S
H1920 C1924 0.929 . S
H1921 C1930 0.929 . S
C1922 H1916 0.930 . S
C1922 C1923 1.367 . S
C1922 C1930 1.378 . S
C1923 C1922 1.367 . S
C1923 C1931 1.433 . S
C1924 H1920 0.929 . S
C1924 C1926 1.378 . S
C1924 C1928 1.350 . S
C1925 C1928 1.463 . S
C1925 C1930 1.350 . S
C1925 N1933 1.427 . S
C1926 H1917 0.930 . S
C1926 C1924 1.378 . S
C1926 C1927 1.367 . S
C1927 C1926 1.367 . S
C1927 C1929 1.433 . S
C1928 C1924 1.350 . S
C1928 C1925 1.463 . S
C1928 N1932 1.427 . S
C1929 H1919 0.929 . S
C1929 C1927 1.433 . S
C1929 N1932 1.384 . S
C1930 H1921 0.929 . S
C1930 C1922 1.378 . S
C1930 C1925 1.350 . S
C1931 H1918 0.929 . S
C1931 C1923 1.433 . S
C1931 N1933 1.384 . S
N1932 C1928 1.427 . S
N1932 C1929 1.384 . S
N1933 C1925 1.427 . S
N1933 C1931 1.384 . S
H1934 C1940 0.930 . S
H1935 C1944 0.930 . S
H1936 C1949 0.929 . S
H1937 C1947 0.929 . S
H1938 C1942 0.941 . S
H1939 C1948 0.941 . S
C1940 H1934 0.930 . S
C1940 C1941 1.367 1_556 S
C1940 C1948 1.370 1_655 S
C1941 C1940 1.367 1_554 S
C1941 C1949 1.433 . S
C1942 H1938 0.941 . S
C1942 C1944 1.370 1_655 S
C1942 C1946 1.346 1_655 S
C1943 C1946 1.463 1_655 S
C1943 C1948 1.346 1_654 S
C1943 N1951 1.427 . S
C1944 H1935 0.930 . S
C1944 C1942 1.370 1_455 S
C1944 C1945 1.367 . S
C1945 C1944 1.367 . S
C1945 C1947 1.433 1_554 S
C1946 C1942 1.346 1_455 S
C1946 C1943 1.463 1_455 S
C1946 N1950 1.427 1_554 S
C1947 H1937 0.929 . S
C1947 C1945 1.433 1_556 S
C1947 N1950 1.384 . S
C1948 H1939 0.941 . S
C1948 C1940 1.370 1_455 S
C1948 C1943 1.346 1_456 S
C1949 H1936 0.929 . S
C1949 C1941 1.433 . S
C1949 N1951 1.384 . S
N1950 C1946 1.427 1_556 S
N1950 C1947 1.384 . S
N1951 C1943 1.427 . S
N1951 C1949 1.384 . S
H1952 C1958 0.930 . S
H1953 C1962 0.930 . S
H1954 C1967 0.929 . S
H1955 C1965 0.929 . S
H1956 C1960 0.929 . S
H1957 C1966 0.929 . S
C1958 H1952 0.930 . S
C1958 C1959 1.367 . S
C1958 C1966 1.378 . S
C1959 C1958 1.367 . S
C1959 C1967 1.433 . S
C1960 H1956 0.929 . S
C1960 C1962 1.378 . S
C1960 C1964 1.350 . S
C1961 C1964 1.463 . S
C1961 C1966 1.350 . S
C1961 N1969 1.427 . S
C1962 H1953 0.930 . S
C1962 C1960 1.378 . S
C1962 C1963 1.367 . S
C1963 C1962 1.367 . S
C1963 C1965 1.433 . S
C1964 C1960 1.350 . S
C1964 C1961 1.463 . S
C1964 N1968 1.427 . S
C1965 H1955 0.929 . S
C1965 C1963 1.433 . S
C1965 N1968 1.384 . S
C1966 H1957 0.929 . S
C1966 C1958 1.378 . S
C1966 C1961 1.350 . S
C1967 H1954 0.929 . S
C1967 C1959 1.433 . S
C1967 N1969 1.384 . S
N1968 C1964 1.427 . S
N1968 C1965 1.384 . S
N1969 C1961 1.427 . S
N1969 C1967 1.384 . S
H1970 C1976 0.930 . S
H1971 C1980 0.930 . S
H1972 C1985 0.929 . S
H1973 C1983 0.929 . S
H1974 C1978 0.929 . S
H1975 C1984 0.929 . S
C1976 H1970 0.930 . S
C1976 C1977 1.367 . S
C1976 C1984 1.378 . S
C1977 C1976 1.367 . S
C1977 C1985 1.433 . S
C1978 H1974 0.929 . S
C1978 C1980 1.378 . S
C1978 C1982 1.350 . S
C1979 C1982 1.463 1_645 S
C1979 C1984 1.350 . S
C1979 N1987 1.427 . S
C1980 H1971 0.930 . S
C1980 C1978 1.378 . S
C1980 C1981 1.367 . S
C1981 C1980 1.367 . S
C1981 C1983 1.433 . S
C1982 C1978 1.350 . S
C1982 C1979 1.463 1_465 S
C1982 N1986 1.427 . S
C1983 H1973 0.929 . S
C1983 C1981 1.433 . S
C1983 N1986 1.384 . S
C1984 H1975 0.929 . S
C1984 C1976 1.378 . S
C1984 C1979 1.350 . S
C1985 H1972 0.929 . S
C1985 C1977 1.433 . S
C1985 N1987 1.384 . S
N1986 C1982 1.427 . S
N1986 C1983 1.384 . S
N1987 C1979 1.427 . S
N1987 C1985 1.384 . S
H1988 C1994 0.930 . S
H1989 C1998 0.930 . S
H1990 C2003 0.929 . S
H1991 C2001 0.929 . S
H1992 C1996 0.929 . S
H1993 C2002 0.929 . S
C1994 H1988 0.930 . S
C1994 C1995 1.367 . S
C1994 C2002 1.378 . S
C1995 C1994 1.367 . S
C1995 C2003 1.433 . S
C1996 H1992 0.929 . S
C1996 C1998 1.378 . S
C1996 C2000 1.350 . S
C1997 C2000 1.463 . S
C1997 C2002 1.350 . S
C1997 N2005 1.427 . S
C1998 H1989 0.930 . S
C1998 C1996 1.378 . S
C1998 C1999 1.367 . S
C1999 C1998 1.367 . S
C1999 C2001 1.433 . S
C2000 C1996 1.350 . S
C2000 C1997 1.463 . S
C2000 N2004 1.427 . S
C2001 H1991 0.929 . S
C2001 C1999 1.433 . S
C2001 N2004 1.384 . S
C2002 H1993 0.929 . S
C2002 C1994 1.378 . S
C2002 C1997 1.350 . S
C2003 H1990 0.929 . S
C2003 C1995 1.433 . S
C2003 N2005 1.384 . S
N2004 C2000 1.427 . S
N2004 C2001 1.384 . S
N2005 C1997 1.427 . S
N2005 C2003 1.384 . S
H2006 C2012 0.930 . S
H2007 C2016 0.930 . S
H2008 C2021 0.929 . S
H2009 C2019 0.929 . S
H2010 C2014 0.906 1_554 S
H2011 C2020 0.906 1_556 S
C2012 H2006 0.930 . S
C2012 C2013 1.367 . S
C2012 C2020 1.379 1_545 S
C2013 C2012 1.367 . S
C2013 C2021 1.433 . S
C2014 H2010 0.906 1_556 S
C2014 C2016 1.379 1_545 S
C2014 C2018 1.350 1_545 S
C2015 C2018 1.463 1_544 S
C2015 C2020 1.350 1_545 S
C2015 N2023 1.427 . S
C2016 H2007 0.930 . S
C2016 C2014 1.379 1_565 S
C2016 C2017 1.367 . S
C2017 C2016 1.367 . S
C2017 C2019 1.433 . S
C2018 C2014 1.350 1_565 S
C2018 C2015 1.463 1_566 S
C2018 N2022 1.427 . S
C2019 H2009 0.929 . S
C2019 C2017 1.433 . S
C2019 N2022 1.384 . S
C2020 H2011 0.906 1_554 S
C2020 C2012 1.379 1_565 S
C2020 C2015 1.350 1_565 S
C2021 H2008 0.929 . S
C2021 C2013 1.433 . S
C2021 N2023 1.384 . S
N2022 C2018 1.427 . S
N2022 C2019 1.384 . S
N2023 C2015 1.427 . S
N2023 C2021 1.384 . S
H2024 C2030 0.930 . S
H2025 C2034 0.930 . S
H2026 C2039 0.929 . S
H2027 C2037 0.929 . S
H2028 C2032 0.929 . S
H2029 C2038 0.929 . S
C2030 H2024 0.930 . S
C2030 C2031 1.367 . S
C2030 C2038 1.378 . S
C2031 C2030 1.367 . S
C2031 C2039 1.433 . S
C2032 H2028 0.929 . S
C2032 C2034 1.378 . S
C2032 C2036 1.350 . S
C2033 C2036 1.463 . S
C2033 C2038 1.350 . S
C2033 N2041 1.427 . S
C2034 H2025 0.930 . S
C2034 C2032 1.378 . S
C2034 C2035 1.367 . S
C2035 C2034 1.367 . S
C2035 C2037 1.433 . S
C2036 C2032 1.350 . S
C2036 C2033 1.463 . S
C2036 N2040 1.427 . S
C2037 H2027 0.929 . S
C2037 C2035 1.433 . S
C2037 N2040 1.384 . S
C2038 H2029 0.929 . S
C2038 C2030 1.378 . S
C2038 C2033 1.350 . S
C2039 H2026 0.929 . S
C2039 C2031 1.433 . S
C2039 N2041 1.384 . S
N2040 C2036 1.427 . S
N2040 C2037 1.384 . S
N2041 C2033 1.427 . S
N2041 C2039 1.384 . S
H2042 C2048 0.930 . S
H2043 C2052 0.930 . S
H2044 C2057 0.929 . S
H2045 C2055 0.929 . S
H2046 C2050 0.929 . S
H2047 C2056 0.929 . S
C2048 H2042 0.930 . S
C2048 C2049 1.367 . S
C2048 C2056 1.378 . S
C2049 C2048 1.367 . S
C2049 C2057 1.433 . S
C2050 H2046 0.929 . S
C2050 C2052 1.378 . S
C2050 C2054 1.350 . S
C2051 C2054 1.463 1_545 S
C2051 C2056 1.350 . S
C2051 N2059 1.427 . S
C2052 H2043 0.930 . S
C2052 C2050 1.378 . S
C2052 C2053 1.367 . S
C2053 C2052 1.367 . S
C2053 C2055 1.433 . S
C2054 C2050 1.350 . S
C2054 C2051 1.463 1_565 S
C2054 N2058 1.427 . S
C2055 H2045 0.929 . S
C2055 C2053 1.433 . S
C2055 N2058 1.384 . S
C2056 H2047 0.929 . S
C2056 C2048 1.378 . S
C2056 C2051 1.350 . S
C2057 H2044 0.929 . S
C2057 C2049 1.433 . S
C2057 N2059 1.384 . S
N2058 C2054 1.427 . S
N2058 C2055 1.384 . S
N2059 C2051 1.427 . S
N2059 C2057 1.384 . S
H2060 C2066 0.930 . S
H2061 C2070 0.930 . S
H2062 C2075 0.929 . S
H2063 C2073 0.929 . S
H2064 C2068 0.929 . S
H2065 C2074 0.929 . S
C2066 H2060 0.930 . S
C2066 C2067 1.367 . S
C2066 C2074 1.378 . S
C2067 C2066 1.367 . S
C2067 C2075 1.433 . S
C2068 H2064 0.929 . S
C2068 C2070 1.378 . S
C2068 C2072 1.350 . S
C2069 C2072 1.463 . S
C2069 C2074 1.350 . S
C2069 N2077 1.427 . S
C2070 H2061 0.930 . S
C2070 C2068 1.378 . S
C2070 C2071 1.367 . S
C2071 C2070 1.367 . S
C2071 C2073 1.433 . S
C2072 C2068 1.350 . S
C2072 C2069 1.463 . S
C2072 N2076 1.427 . S
C2073 H2063 0.929 . S
C2073 C2071 1.433 . S
C2073 N2076 1.384 . S
C2074 H2065 0.929 . S
C2074 C2066 1.378 . S
C2074 C2069 1.350 . S
C2075 H2062 0.929 . S
C2075 C2067 1.433 . S
C2075 N2077 1.384 . S
N2076 C2072 1.427 . S
N2076 C2073 1.384 . S
N2077 C2069 1.427 . S
N2077 C2075 1.384 . S
H2078 C2084 0.930 . S
H2079 C2088 0.930 . S
H2080 C2093 0.929 . S
H2081 C2091 0.929 . S
H2082 C2086 0.929 . S
H2083 C2092 0.929 . S
C2084 H2078 0.930 . S
C2084 C2085 1.367 1_554 S
C2084 C2092 1.378 . S
C2085 C2084 1.367 1_556 S
C2085 C2093 1.433 . S
C2086 H2082 0.929 . S
C2086 C2088 1.378 . S
C2086 C2090 1.350 1_556 S
C2087 C2090 1.463 1_446 S
C2087 C2092 1.350 1_556 S
C2087 N2095 1.427 . S
C2088 H2079 0.930 . S
C2088 C2086 1.378 . S
C2088 C2089 1.367 1_556 S
C2089 C2088 1.367 1_554 S
C2089 C2091 1.433 . S
C2090 C2086 1.350 1_554 S
C2090 C2087 1.463 1_664 S
C2090 N2094 1.427 . S
C2091 H2081 0.929 . S
C2091 C2089 1.433 . S
C2091 N2094 1.384 . S
C2092 H2083 0.929 . S
C2092 C2084 1.378 . S
C2092 C2087 1.350 1_554 S
C2093 H2080 0.929 . S
C2093 C2085 1.433 . S
C2093 N2095 1.384 . S
N2094 C2090 1.427 . S
N2094 C2091 1.384 . S
N2095 C2087 1.427 . S
N2095 C2093 1.384 . S
H2096 C2102 0.930 . S
H2097 C2106 0.930 . S
H2098 C2111 0.929 . S
H2099 C2109 0.929 . S
H2100 C2104 0.929 . S
H2101 C2110 0.929 . S
C2102 H2096 0.930 . S
C2102 C2103 1.367 . S
C2102 C2110 1.378 . S
C2103 C2102 1.367 . S
C2103 C2111 1.433 . S
C2104 H2100 0.929 . S
C2104 C2106 1.378 . S
C2104 C2108 1.350 . S
C2105 C2108 1.463 . S
C2105 C2110 1.350 . S
C2105 N2113 1.427 . S
C2106 H2097 0.930 . S
C2106 C2104 1.378 . S
C2106 C2107 1.367 . S
C2107 C2106 1.367 . S
C2107 C2109 1.433 . S
C2108 C2104 1.350 . S
C2108 C2105 1.463 . S
C2108 N2112 1.427 . S
C2109 H2099 0.929 . S
C2109 C2107 1.433 . S
C2109 N2112 1.384 . S
C2110 H2101 0.929 . S
C2110 C2102 1.378 . S
C2110 C2105 1.350 . S
C2111 H2098 0.929 . S
C2111 C2103 1.433 . S
C2111 N2113 1.384 . S
N2112 C2108 1.427 . S
N2112 C2109 1.384 . S
N2113 C2105 1.427 . S
N2113 C2111 1.384 . S
H2114 C2120 0.930 . S
H2115 C2124 0.930 . S
H2116 C2129 0.929 . S
H2117 C2127 0.929 . S
H2118 C2122 0.929 . S
H2119 C2128 0.929 . S
C2120 H2114 0.930 . S
C2120 C2121 1.367 . S
C2120 C2128 1.378 . S
C2121 C2120 1.367 . S
C2121 C2129 1.433 . S
C2122 H2118 0.929 . S
C2122 C2124 1.378 . S
C2122 C2126 1.350 . S
C2123 C2126 1.463 . S
C2123 C2128 1.350 . S
C2123 N2131 1.427 . S
C2124 H2115 0.930 . S
C2124 C2122 1.378 . S
C2124 C2125 1.367 . S
C2125 C2124 1.367 . S
C2125 C2127 1.433 . S
C2126 C2122 1.350 . S
C2126 C2123 1.463 . S
C2126 N2130 1.427 . S
C2127 H2117 0.929 . S
C2127 C2125 1.433 . S
C2127 N2130 1.384 . S
C2128 H2119 0.929 . S
C2128 C2120 1.378 . S
C2128 C2123 1.350 . S
C2129 H2116 0.929 . S
C2129 C2121 1.433 . S
C2129 N2131 1.384 . S
N2130 C2126 1.427 . S
N2130 C2127 1.384 . S
N2131 C2123 1.427 . S
N2131 C2129 1.384 . S
H2132 C2138 0.930 . S
H2133 C2142 0.930 . S
H2134 C2147 0.929 . S
H2135 C2145 0.929 . S
H2136 C2140 0.929 . S
H2137 C2146 0.929 . S
C2138 H2132 0.930 . S
C2138 C2139 1.367 . S
C2138 C2146 1.378 . S
C2139 C2138 1.367 . S
C2139 C2147 1.433 . S
C2140 H2136 0.929 . S
C2140 C2142 1.378 . S
C2140 C2144 1.350 . S
C2141 C2144 1.463 . S
C2141 C2146 1.350 . S
C2141 N2149 1.427 . S
C2142 H2133 0.930 . S
C2142 C2140 1.378 . S
C2142 C2143 1.367 . S
C2143 C2142 1.367 . S
C2143 C2145 1.433 . S
C2144 C2140 1.350 . S
C2144 C2141 1.463 . S
C2144 N2148 1.427 . S
C2145 H2135 0.929 . S
C2145 C2143 1.433 . S
C2145 N2148 1.384 . S
C2146 H2137 0.929 . S
C2146 C2138 1.378 . S
C2146 C2141 1.350 . S
C2147 H2134 0.929 . S
C2147 C2139 1.433 . S
C2147 N2149 1.384 . S
N2148 C2144 1.427 . S
N2148 C2145 1.384 . S
N2149 C2141 1.427 . S
N2149 C2147 1.384 . S
H2150 C2156 0.930 . S
H2151 C2160 0.930 . S
H2152 C2165 0.929 . S
H2153 C2163 0.929 . S
H2154 C2158 0.929 . S
H2155 C2164 0.929 . S
C2156 H2150 0.930 . S
C2156 C2157 1.367 . S
C2156 C2164 1.378 . S
C2157 C2156 1.367 . S
C2157 C2165 1.433 . S
C2158 H2154 0.929 . S
C2158 C2160 1.378 . S
C2158 C2162 1.350 . S
C2159 C2162 1.463 . S
C2159 C2164 1.350 . S
C2159 N2167 1.427 . S
C2160 H2151 0.930 . S
C2160 C2158 1.378 . S
C2160 C2161 1.367 . S
C2161 C2160 1.367 . S
C2161 C2163 1.433 . S
C2162 C2158 1.350 . S
C2162 C2159 1.463 . S
C2162 N2166 1.427 . S
C2163 H2153 0.929 . S
C2163 C2161 1.433 . S
C2163 N2166 1.384 . S
C2164 H2155 0.929 . S
C2164 C2156 1.378 . S
C2164 C2159 1.350 . S
C2165 H2152 0.929 . S
C2165 C2157 1.433 . S
C2165 N2167 1.384 . S
N2166 C2162 1.427 . S
N2166 C2163 1.384 . S
N2167 C2159 1.427 . S
N2167 C2165 1.384 . S
H2168 C2174 0.930 . S
H2169 C2178 0.930 . S
H2170 C2183 0.929 . S
H2171 C2181 0.929 . S
H2172 C2176 0.929 . S
H2173 C2182 0.929 . S
C2174 H2168 0.930 . S
C2174 C2175 1.367 . S
C2174 C2182 1.378 . S
C2175 C2174 1.367 . S
C2175 C2183 1.433 . S
C2176 H2172 0.929 . S
C2176 C2178 1.378 . S
C2176 C2180 1.350 . S
C2177 C2180 1.463 1_554 S
C2177 C2182 1.350 . S
C2177 N2185 1.427 . S
C2178 H2169 0.930 . S
C2178 C2176 1.378 . S
C2178 C2179 1.367 . S
C2179 C2178 1.367 . S
C2179 C2181 1.433 . S
C2180 C2176 1.350 . S
C2180 C2177 1.463 1_556 S
C2180 N2184 1.427 . S
C2181 H2171 0.929 . S
C2181 C2179 1.433 . S
C2181 N2184 1.384 . S
C2182 H2173 0.929 . S
C2182 C2174 1.378 . S
C2182 C2177 1.350 . S
C2183 H2170 0.929 . S
C2183 C2175 1.433 . S
C2183 N2185 1.384 . S
N2184 C2180 1.427 . S
N2184 C2181 1.384 . S
N2185 C2177 1.427 . S
N2185 C2183 1.384 . S
H2186 C2192 0.930 . S
H2187 C2196 0.930 . S
H2188 C2201 0.929 . S
H2189 C2199 0.929 . S
H2190 C2194 0.929 . S
H2191 C2200 0.929 . S
C2192 H2186 0.930 . S
C2192 C2193 1.367 . S
C2192 C2200 1.378 . S
C2193 C2192 1.367 . S
C2193 C2201 1.433 . S
C2194 H2190 0.929 . S
C2194 C2196 1.378 . S
C2194 C2198 1.350 . S
C2195 C2198 1.463 1_655 S
C2195 C2200 1.350 . S
C2195 N2203 1.427 . S
C2196 H2187 0.930 . S
C2196 C2194 1.378 . S
C2196 C2197 1.367 . S
C2197 C2196 1.367 . S
C2197 C2199 1.433 . S
C2198 C2194 1.350 . S
C2198 C2195 1.463 1_455 S
C2198 N2202 1.427 . S
C2199 H2189 0.929 . S
C2199 C2197 1.433 . S
C2199 N2202 1.384 . S
C2200 H2191 0.929 . S
C2200 C2192 1.378 . S
C2200 C2195 1.350 . S
C2201 H2188 0.929 . S
C2201 C2193 1.433 . S
C2201 N2203 1.384 . S
N2202 C2198 1.427 . S
N2202 C2199 1.384 . S
N2203 C2195 1.427 . S
N2203 C2201 1.384 . S
H2204 C2210 0.930 . S
H2205 C2214 0.930 . S
H2206 C2219 0.929 . S
H2207 C2217 0.929 . S
H2208 C2212 0.929 1_454 S
H2209 C2218 0.929 1_656 S
C2210 H2204 0.930 . S
C2210 C2211 1.367 . S
C2210 C2218 1.378 . S
C2211 C2210 1.367 . S
C2211 C2219 1.433 . S
C2212 H2208 0.929 1_656 S
C2212 C2214 1.378 . S
C2212 C2216 1.350 . S
C2213 C2216 1.463 1_454 S
C2213 C2218 1.350 . S
C2213 N2221 1.427 . S
C2214 H2205 0.930 . S
C2214 C2212 1.378 . S
C2214 C2215 1.367 . S
C2215 C2214 1.367 . S
C2215 C2217 1.433 . S
C2216 C2212 1.350 . S
C2216 C2213 1.463 1_656 S
C2216 N2220 1.427 . S
C2217 H2207 0.929 . S
C2217 C2215 1.433 . S
C2217 N2220 1.384 . S
C2218 H2209 0.929 1_454 S
C2218 C2210 1.378 . S
C2218 C2213 1.350 . S
C2219 H2206 0.929 . S
C2219 C2211 1.433 . S
C2219 N2221 1.384 . S
N2220 C2216 1.427 . S
N2220 C2217 1.384 . S
N2221 C2213 1.427 . S
N2221 C2219 1.384 . S
H2222 C2228 0.930 . S
H2223 C2232 0.930 . S
H2224 C2237 0.929 . S
H2225 C2235 0.929 . S
H2226 C2230 0.929 . S
H2227 C2236 0.929 . S
C2228 H2222 0.930 . S
C2228 C2229 1.367 . S
C2228 C2236 1.378 . S
C2229 C2228 1.367 . S
C2229 C2237 1.433 . S
C2230 H2226 0.929 . S
C2230 C2232 1.378 . S
C2230 C2234 1.350 . S
C2231 C2234 1.463 . S
C2231 C2236 1.350 . S
C2231 N2239 1.427 . S
C2232 H2223 0.930 . S
C2232 C2230 1.378 . S
C2232 C2233 1.367 . S
C2233 C2232 1.367 . S
C2233 C2235 1.433 . S
C2234 C2230 1.350 . S
C2234 C2231 1.463 . S
C2234 N2238 1.427 . S
C2235 H2225 0.929 . S
C2235 C2233 1.433 . S
C2235 N2238 1.384 . S
C2236 H2227 0.929 . S
C2236 C2228 1.378 . S
C2236 C2231 1.350 . S
C2237 H2224 0.929 . S
C2237 C2229 1.433 . S
C2237 N2239 1.384 . S
N2238 C2234 1.427 . S
N2238 C2235 1.384 . S
N2239 C2231 1.427 . S
N2239 C2237 1.384 . S
H2240 C2246 0.930 . S
H2241 C2250 0.930 . S
H2242 C2255 0.929 . S
H2243 C2253 0.929 . S
H2244 C2248 0.929 . S
H2245 C2254 0.929 . S
C2246 H2240 0.930 . S
C2246 C2247 1.367 . S
C2246 C2254 1.378 . S
C2247 C2246 1.367 . S
C2247 C2255 1.433 . S
C2248 H2244 0.929 . S
C2248 C2250 1.378 . S
C2248 C2252 1.350 1_565 S
C2249 C2252 1.463 . S
C2249 C2254 1.350 . S
C2249 N2257 1.427 . S
C2250 H2241 0.930 . S
C2250 C2248 1.378 . S
C2250 C2251 1.367 . S
C2251 C2250 1.367 . S
C2251 C2253 1.433 1_565 S
C2252 C2248 1.350 1_545 S
C2252 C2249 1.463 . S
C2252 N2256 1.427 . S
C2253 H2243 0.929 . S
C2253 C2251 1.433 1_545 S
C2253 N2256 1.384 . S
C2254 H2245 0.929 . S
C2254 C2246 1.378 . S
C2254 C2249 1.350 . S
C2255 H2242 0.929 . S
C2255 C2247 1.433 . S
C2255 N2257 1.384 . S
N2256 C2252 1.427 . S
N2256 C2253 1.384 . S
N2257 C2249 1.427 . S
N2257 C2255 1.384 . S
H2258 C2264 0.930 . S
H2259 C2268 0.930 . S
H2260 C2273 0.929 . S
H2261 C2271 0.929 . S
H2262 C2266 0.929 . S
H2263 C2272 0.929 . S
C2264 H2258 0.930 . S
C2264 C2265 1.367 . S
C2264 C2272 1.378 . S
C2265 C2264 1.367 . S
C2265 C2273 1.433 . S
C2266 H2262 0.929 . S
C2266 C2268 1.378 . S
C2266 C2270 1.350 . S
C2267 C2270 1.463 . S
C2267 C2272 1.350 . S
C2267 N2275 1.427 . S
C2268 H2259 0.930 . S
C2268 C2266 1.378 . S
C2268 C2269 1.367 1_545 S
C2269 C2268 1.367 1_565 S
C2269 C2271 1.433 . S
C2270 C2266 1.350 . S
C2270 C2267 1.463 . S
C2270 N2274 1.427 . S
C2271 H2261 0.929 . S
C2271 C2269 1.433 . S
C2271 N2274 1.384 1_565 S
C2272 H2263 0.929 . S
C2272 C2264 1.378 . S
C2272 C2267 1.350 . S
C2273 H2260 0.929 . S
C2273 C2265 1.433 . S
C2273 N2275 1.384 . S
N2274 C2270 1.427 . S
N2274 C2271 1.384 1_545 S
N2275 C2267 1.427 . S
N2275 C2273 1.384 . S
H2276 C2282 0.930 . S
H2277 C2286 0.930 . S
H2278 C2291 0.929 . S
H2279 C2289 0.929 . S
H2280 C2284 0.929 . S
H2281 C2290 0.938 . S
C2282 H2276 0.930 . S
C2282 C2283 1.367 . S
C2282 C2290 1.393 . S
C2283 C2282 1.367 . S
C2283 C2291 1.433 1_545 S
C2284 H2280 0.929 . S
C2284 C2286 1.378 . S
C2284 C2288 1.350 . S
C2285 C2288 1.463 . S
C2285 C2290 1.325 1_565 S
C2285 N2293 1.427 . S
C2286 H2277 0.930 . S
C2286 C2284 1.378 . S
C2286 C2287 1.367 . S
C2287 C2286 1.367 . S
C2287 C2289 1.433 . S
C2288 C2284 1.350 . S
C2288 C2285 1.463 . S
C2288 N2292 1.427 . S
C2289 H2279 0.929 . S
C2289 C2287 1.433 . S
C2289 N2292 1.384 . S
C2290 H2281 0.938 . S
C2290 C2282 1.393 . S
C2290 C2285 1.325 1_545 S
C2291 H2278 0.929 . S
C2291 C2283 1.433 1_565 S
C2291 N2293 1.384 . S
N2292 C2288 1.427 . S
N2292 C2289 1.384 . S
N2293 C2285 1.427 . S
N2293 C2291 1.384 . S
H2294 C2300 0.930 . S
H2295 C2304 0.930 . S
H2296 C2309 0.929 . S
H2297 C2307 0.929 . S
H2298 C2302 0.929 . S
H2299 C2308 0.929 . S
C2300 H2294 0.930 . S
C2300 C2301 1.367 . S
C2300 C2308 1.378 . S
C2301 C2300 1.367 . S
C2301 C2309 1.433 . S
C2302 H2298 0.929 . S
C2302 C2304 1.378 . S
C2302 C2306 1.350 . S
C2303 C2306 1.463 . S
C2303 C2308 1.350 . S
C2303 N2311 1.427 . S
C2304 H2295 0.930 . S
C2304 C2302 1.378 . S
C2304 C2305 1.367 1_565 S
C2305 C2304 1.367 1_545 S
C2305 C2307 1.433 . S
C2306 C2302 1.350 . S
C2306 C2303 1.463 . S
C2306 N2310 1.460 . S
C2307 H2297 0.929 . S
C2307 C2305 1.433 . S
C2307 N2310 1.363 1_545 S
C2308 H2299 0.929 . S
C2308 C2300 1.378 . S
C2308 C2303 1.350 . S
C2309 H2296 0.929 . S
C2309 C2301 1.433 . S
C2309 N2311 1.384 . S
N2310 C2306 1.460 . S
N2310 C2307 1.363 1_565 S
N2311 C2303 1.427 . S
N2311 C2309 1.384 . S
H2312 C2318 0.930 . S
H2313 C2322 0.930 . S
H2314 C2327 0.929 . S
H2315 C2325 0.929 . S
H2316 C2320 0.929 . S
H2317 C2326 0.929 . S
C2318 H2312 0.930 . S
C2318 C2319 1.367 . S
C2318 C2326 1.378 . S
C2319 C2318 1.367 . S
C2319 C2327 1.433 . S
C2320 H2316 0.929 . S
C2320 C2322 1.378 . S
C2320 C2324 1.350 1_545 S
C2321 C2324 1.463 . S
C2321 C2326 1.350 . S
C2321 N2329 1.427 . S
C2322 H2313 0.930 . S
C2322 C2320 1.378 . S
C2322 C2323 1.367 . S
C2323 C2322 1.367 . S
C2323 C2325 1.433 1_545 S
C2324 C2320 1.350 1_565 S
C2324 C2321 1.463 . S
C2324 N2328 1.427 . S
C2325 H2315 0.929 . S
C2325 C2323 1.433 1_565 S
C2325 N2328 1.384 . S
C2326 H2317 0.929 . S
C2326 C2318 1.378 . S
C2326 C2321 1.350 . S
C2327 H2314 0.929 . S
C2327 C2319 1.433 . S
C2327 N2329 1.384 . S
N2328 C2324 1.427 . S
N2328 C2325 1.384 . S
N2329 C2321 1.427 . S
N2329 C2327 1.384 . S
H2330 C2336 0.930 . S
H2331 C2340 0.930 . S
H2332 C2345 0.929 . S
H2333 C2343 0.929 . S
H2334 C2338 0.929 . S
H2335 C2344 0.929 . S
C2336 H2330 0.930 . S
C2336 C2337 1.367 1_565 S
C2336 C2344 1.378 . S
C2337 C2336 1.367 1_545 S
C2337 C2345 1.433 . S
C2338 H2334 0.929 . S
C2338 C2340 1.378 . S
C2338 C2342 1.350 . S
C2339 C2342 1.463 . S
C2339 C2344 1.350 . S
C2339 N2347 1.427 . S
C2340 H2331 0.930 . S
C2340 C2338 1.378 . S
C2340 C2341 1.367 . S
C2341 C2340 1.367 . S
C2341 C2343 1.433 . S
C2342 C2338 1.350 . S
C2342 C2339 1.463 . S
C2342 N2346 1.427 . S
C2343 H2333 0.929 . S
C2343 C2341 1.433 . S
C2343 N2346 1.384 . S
C2344 H2335 0.929 . S
C2344 C2336 1.378 . S
C2344 C2339 1.350 . S
C2345 H2332 0.929 . S
C2345 C2337 1.433 . S
C2345 N2347 1.384 1_545 S
N2346 C2342 1.427 . S
N2346 C2343 1.384 . S
N2347 C2339 1.427 . S
N2347 C2345 1.384 1_565 S
H2348 C2354 0.930 . S
H2349 C2358 0.930 . S
H2350 C2363 0.929 . S
H2351 C2361 0.929 . S
H2352 C2356 0.929 . S
H2353 C2362 0.929 . S
C2354 H2348 0.930 . S
C2354 C2355 1.367 . S
C2354 C2362 1.378 1_565 S
C2355 C2354 1.367 . S
C2355 C2363 1.433 1_565 S
C2356 H2352 0.929 . S
C2356 C2358 1.378 . S
C2356 C2360 1.350 . S
C2357 C2360 1.463 . S
C2357 C2362 1.350 . S
C2357 N2365 1.427 . S
C2358 H2349 0.930 . S
C2358 C2356 1.378 . S
C2358 C2359 1.367 . S
C2359 C2358 1.367 . S
C2359 C2361 1.433 . S
C2360 C2356 1.350 . S
C2360 C2357 1.463 . S
C2360 N2364 1.427 . S
C2361 H2351 0.929 . S
C2361 C2359 1.433 . S
C2361 N2364 1.384 . S
C2362 H2353 0.929 . S
C2362 C2354 1.378 1_545 S
C2362 C2357 1.350 . S
C2363 H2350 0.929 . S
C2363 C2355 1.433 1_545 S
C2363 N2365 1.384 . S
N2364 C2360 1.427 . S
N2364 C2361 1.384 . S
N2365 C2357 1.427 . S
N2365 C2363 1.384 . S
H2366 C2372 0.930 . S
H2367 C2376 0.930 . S
H2368 C2381 0.929 . S
H2369 C2379 0.929 . S
H2370 C2374 0.929 . S
H2371 C2380 0.929 . S
C2372 H2366 0.930 . S
C2372 C2373 1.367 . S
C2372 C2380 1.378 1_565 S
C2373 C2372 1.367 . S
C2373 C2381 1.433 1_565 S
C2374 H2370 0.929 . S
C2374 C2376 1.378 . S
C2374 C2378 1.350 . S
C2375 C2378 1.463 . S
C2375 C2380 1.350 . S
C2375 N2383 1.427 . S
C2376 H2367 0.930 . S
C2376 C2374 1.378 . S
C2376 C2377 1.367 . S
C2377 C2376 1.367 . S
C2377 C2379 1.433 . S
C2378 C2374 1.350 . S
C2378 C2375 1.463 . S
C2378 N2382 1.427 . S
C2379 H2369 0.929 . S
C2379 C2377 1.433 . S
C2379 N2382 1.384 . S
C2380 H2371 0.929 . S
C2380 C2372 1.378 1_545 S
C2380 C2375 1.350 . S
C2381 H2368 0.929 . S
C2381 C2373 1.433 1_545 S
C2381 N2383 1.384 . S
N2382 C2378 1.427 . S
N2382 C2379 1.384 . S
N2383 C2375 1.427 . S
N2383 C2381 1.384 . S
H2384 C2390 0.930 . S
H2385 C2394 0.930 . S
H2386 C2399 0.929 . S
H2387 C2397 0.929 . S
H2388 C2392 0.929 . S
H2389 C2398 0.929 . S
C2390 H2384 0.930 . S
C2390 C2391 1.367 . S
C2390 C2398 1.378 . S
C2391 C2390 1.367 . S
C2391 C2399 1.433 . S
C2392 H2388 0.929 . S
C2392 C2394 1.378 . S
C2392 C2396 1.350 . S
C2393 C2396 1.463 . S
C2393 C2398 1.350 . S
C2393 N2401 1.427 . S
C2394 H2385 0.930 . S
C2394 C2392 1.378 . S
C2394 C2395 1.367 . S
C2395 C2394 1.367 . S
C2395 C2397 1.433 . S
C2396 C2392 1.350 . S
C2396 C2393 1.463 . S
C2396 N2400 1.427 . S
C2397 H2387 0.929 . S
C2397 C2395 1.433 . S
C2397 N2400 1.384 . S
C2398 H2389 0.929 . S
C2398 C2390 1.378 . S
C2398 C2393 1.350 . S
C2399 H2386 0.929 . S
C2399 C2391 1.433 . S
C2399 N2401 1.384 . S
N2400 C2396 1.427 . S
N2400 C2397 1.384 . S
N2401 C2393 1.427 . S
N2401 C2399 1.384 . S
H2402 C2408 0.930 . S
H2403 C2412 0.930 . S
H2404 C2417 0.929 . S
H2405 C2415 0.929 . S
H2406 C2410 0.929 . S
H2407 C2416 0.929 . S
C2408 H2402 0.930 . S
C2408 C2409 1.367 . S
C2408 C2416 1.378 . S
C2409 C2408 1.367 . S
C2409 C2417 1.433 . S
C2410 H2406 0.929 . S
C2410 C2412 1.378 . S
C2410 C2414 1.350 . S
C2411 C2414 1.463 . S
C2411 C2416 1.350 . S
C2411 N2419 1.427 . S
C2412 H2403 0.930 . S
C2412 C2410 1.378 . S
C2412 C2413 1.367 . S
C2413 C2412 1.367 . S
C2413 C2415 1.433 . S
C2414 C2410 1.350 . S
C2414 C2411 1.463 . S
C2414 N2418 1.427 . S
C2415 H2405 0.929 . S
C2415 C2413 1.433 . S
C2415 N2418 1.384 . S
C2416 H2407 0.929 . S
C2416 C2408 1.378 . S
C2416 C2411 1.350 . S
C2417 H2404 0.929 . S
C2417 C2409 1.433 . S
C2417 N2419 1.384 . S
N2418 C2414 1.427 . S
N2418 C2415 1.384 . S
N2419 C2411 1.427 . S
N2419 C2417 1.384 . S
H2420 C2426 0.930 . S
H2421 C2430 0.930 . S
H2422 C2435 0.929 . S
H2423 C2433 0.929 . S
H2424 C2428 0.929 . S
H2425 C2434 0.929 . S
C2426 H2420 0.930 . S
C2426 C2427 1.367 . S
C2426 C2434 1.378 . S
C2427 C2426 1.367 . S
C2427 C2435 1.433 . S
C2428 H2424 0.929 . S
C2428 C2430 1.378 . S
C2428 C2432 1.350 . S
C2429 C2432 1.463 . S
C2429 C2434 1.350 . S
C2429 N2437 1.427 . S
C2430 H2421 0.930 . S
C2430 C2428 1.378 . S
C2430 C2431 1.367 . S
C2431 C2430 1.367 . S
C2431 C2433 1.433 . S
C2432 C2428 1.350 . S
C2432 C2429 1.463 . S
C2432 N2436 1.427 . S
C2433 H2423 0.929 . S
C2433 C2431 1.433 . S
C2433 N2436 1.384 . S
C2434 H2425 0.929 . S
C2434 C2426 1.378 . S
C2434 C2429 1.350 . S
C2435 H2422 0.929 . S
C2435 C2427 1.433 . S
C2435 N2437 1.384 . S
N2436 C2432 1.427 . S
N2436 C2433 1.384 . S
N2437 C2429 1.427 . S
N2437 C2435 1.384 . S
H2438 C2444 0.930 . S
H2439 C2448 0.930 . S
H2440 C2453 0.929 . S
H2441 C2451 0.929 . S
H2442 C2446 0.929 . S
H2443 C2452 0.929 . S
C2444 H2438 0.930 . S
C2444 C2445 1.367 . S
C2444 C2452 1.378 . S
C2445 C2444 1.367 . S
C2445 C2453 1.433 . S
C2446 H2442 0.929 . S
C2446 C2448 1.378 . S
C2446 C2450 1.350 . S
C2447 C2450 1.463 . S
C2447 C2452 1.350 . S
C2447 N2455 1.427 . S
C2448 H2439 0.930 . S
C2448 C2446 1.378 . S
C2448 C2449 1.367 . S
C2449 C2448 1.367 . S
C2449 C2451 1.433 . S
C2450 C2446 1.350 . S
C2450 C2447 1.463 . S
C2450 N2454 1.427 . S
C2451 H2441 0.929 . S
C2451 C2449 1.433 . S
C2451 N2454 1.384 . S
C2452 H2443 0.929 . S
C2452 C2444 1.378 . S
C2452 C2447 1.350 . S
C2453 H2440 0.929 . S
C2453 C2445 1.433 . S
C2453 N2455 1.384 . S
N2454 C2450 1.427 . S
N2454 C2451 1.384 . S
N2455 C2447 1.427 . S
N2455 C2453 1.384 . S
H2456 C2462 0.930 . S
H2457 C2466 0.930 . S
H2458 C2471 0.929 . S
H2459 C2469 0.929 . S
H2460 C2464 0.929 . S
H2461 C2470 0.929 . S
C2462 H2456 0.930 . S
C2462 C2463 1.367 . S
C2462 C2470 1.378 . S
C2463 C2462 1.367 . S
C2463 C2471 1.433 . S
C2464 H2460 0.929 . S
C2464 C2466 1.378 . S
C2464 C2468 1.350 . S
C2465 C2468 1.463 . S
C2465 C2470 1.350 . S
C2465 N2473 1.427 . S
C2466 H2457 0.930 . S
C2466 C2464 1.378 . S
C2466 C2467 1.367 . S
C2467 C2466 1.367 . S
C2467 C2469 1.433 . S
C2468 C2464 1.350 . S
C2468 C2465 1.463 . S
C2468 N2472 1.427 . S
C2469 H2459 0.929 . S
C2469 C2467 1.433 . S
C2469 N2472 1.384 . S
C2470 H2461 0.929 . S
C2470 C2462 1.378 . S
C2470 C2465 1.350 . S
C2471 H2458 0.929 . S
C2471 C2463 1.433 . S
C2471 N2473 1.384 . S
N2472 C2468 1.427 . S
N2472 C2469 1.384 . S
N2473 C2465 1.427 . S
N2473 C2471 1.384 . S
H2474 C2480 0.930 . S
H2475 C2484 0.930 . S
H2476 C2489 0.929 . S
H2477 C2487 0.929 . S
H2478 C2482 0.929 . S
H2479 C2488 0.929 . S
C2480 H2474 0.930 . S
C2480 C2481 1.367 . S
C2480 C2488 1.378 . S
C2481 C2480 1.367 . S
C2481 C2489 1.433 . S
C2482 H2478 0.929 . S
C2482 C2484 1.378 . S
C2482 C2486 1.350 . S
C2483 C2486 1.463 . S
C2483 C2488 1.350 . S
C2483 N2491 1.427 . S
C2484 H2475 0.930 . S
C2484 C2482 1.378 . S
C2484 C2485 1.367 . S
C2485 C2484 1.367 . S
C2485 C2487 1.433 . S
C2486 C2482 1.350 . S
C2486 C2483 1.463 . S
C2486 N2490 1.427 . S
C2487 H2477 0.929 . S
C2487 C2485 1.433 . S
C2487 N2490 1.384 . S
C2488 H2479 0.929 . S
C2488 C2480 1.378 . S
C2488 C2483 1.350 . S
C2489 H2476 0.929 . S
C2489 C2481 1.433 . S
C2489 N2491 1.384 . S
N2490 C2486 1.427 . S
N2490 C2487 1.384 . S
N2491 C2483 1.427 . S
N2491 C2489 1.384 . S
H2492 C2498 0.930 . S
H2493 C2502 0.930 . S
H2494 C2507 0.929 . S
H2495 C2505 0.929 . S
H2496 C2500 0.929 . S
H2497 C2506 0.929 . S
C2498 H2492 0.930 . S
C2498 C2499 1.367 . S
C2498 C2506 1.378 . S
C2499 C2498 1.367 . S
C2499 C2507 1.433 . S
C2500 H2496 0.929 . S
C2500 C2502 1.378 . S
C2500 C2504 1.350 . S
C2501 C2504 1.463 . S
C2501 C2506 1.350 . S
C2501 N2509 1.427 . S
C2502 H2493 0.930 . S
C2502 C2500 1.378 . S
C2502 C2503 1.367 . S
C2503 C2502 1.367 . S
C2503 C2505 1.433 . S
C2504 C2500 1.350 . S
C2504 C2501 1.463 . S
C2504 N2508 1.427 . S
C2505 H2495 0.929 . S
C2505 C2503 1.433 . S
C2505 N2508 1.384 . S
C2506 H2497 0.929 . S
C2506 C2498 1.378 . S
C2506 C2501 1.350 . S
C2507 H2494 0.929 . S
C2507 C2499 1.433 . S
C2507 N2509 1.384 . S
N2508 C2504 1.427 . S
N2508 C2505 1.384 . S
N2509 C2501 1.427 . S
N2509 C2507 1.384 . S
H2510 C2516 0.930 . S
H2511 C2520 0.930 . S
H2512 C2525 0.929 . S
H2513 C2523 0.929 . S
H2514 C2518 0.929 . S
H2515 C2524 0.929 . S
C2516 H2510 0.930 . S
C2516 C2517 1.367 . S
C2516 C2524 1.378 . S
C2517 C2516 1.367 . S
C2517 C2525 1.433 . S
C2518 H2514 0.929 . S
C2518 C2520 1.378 . S
C2518 C2522 1.350 . S
C2519 C2522 1.463 . S
C2519 C2524 1.350 . S
C2519 N2527 1.427 . S
C2520 H2511 0.930 . S
C2520 C2518 1.378 . S
C2520 C2521 1.367 . S
C2521 C2520 1.367 . S
C2521 C2523 1.433 . S
C2522 C2518 1.350 . S
C2522 C2519 1.463 . S
C2522 N2526 1.427 . S
C2523 H2513 0.929 . S
C2523 C2521 1.433 . S
C2523 N2526 1.384 . S
C2524 H2515 0.929 . S
C2524 C2516 1.378 . S
C2524 C2519 1.350 . S
C2525 H2512 0.929 . S
C2525 C2517 1.433 . S
C2525 N2527 1.384 . S
N2526 C2522 1.427 . S
N2526 C2523 1.384 . S
N2527 C2519 1.427 . S
N2527 C2525 1.384 . S
H2528 C2534 0.930 . S
H2529 C2538 0.930 . S
H2530 C2543 0.929 . S
H2531 C2541 0.929 . S
H2532 C2536 0.929 . S
H2533 C2542 0.929 . S
C2534 H2528 0.930 . S
C2534 C2535 1.367 . S
C2534 C2542 1.378 . S
C2535 C2534 1.367 . S
C2535 C2543 1.433 . S
C2536 H2532 0.929 . S
C2536 C2538 1.378 . S
C2536 C2540 1.350 . S
C2537 C2540 1.463 1_545 S
C2537 C2542 1.350 . S
C2537 N2545 1.427 . S
C2538 H2529 0.930 . S
C2538 C2536 1.378 . S
C2538 C2539 1.367 . S
C2539 C2538 1.367 . S
C2539 C2541 1.433 . S
C2540 C2536 1.350 . S
C2540 C2537 1.463 1_565 S
C2540 N2544 1.427 . S
C2541 H2531 0.929 . S
C2541 C2539 1.433 . S
C2541 N2544 1.384 . S
C2542 H2533 0.929 . S
C2542 C2534 1.378 . S
C2542 C2537 1.350 . S
C2543 H2530 0.929 . S
C2543 C2535 1.433 . S
C2543 N2545 1.384 . S
N2544 C2540 1.427 . S
N2544 C2541 1.384 . S
N2545 C2537 1.427 . S
N2545 C2543 1.384 . S
H2546 C2552 0.930 . S
H2547 C2556 0.930 . S
H2548 C2561 0.929 . S
H2549 C2559 0.929 . S
H2550 C2554 0.929 . S
H2551 C2560 0.929 . S
C2552 H2546 0.930 . S
C2552 C2553 1.367 . S
C2552 C2560 1.378 . S
C2553 C2552 1.367 . S
C2553 C2561 1.433 . S
C2554 H2550 0.929 . S
C2554 C2556 1.378 . S
C2554 C2558 1.350 . S
C2555 C2558 1.463 . S
C2555 C2560 1.350 . S
C2555 N2563 1.427 . S
C2556 H2547 0.930 . S
C2556 C2554 1.378 . S
C2556 C2557 1.367 . S
C2557 C2556 1.367 . S
C2557 C2559 1.433 . S
C2558 C2554 1.350 . S
C2558 C2555 1.463 . S
C2558 N2562 1.427 . S
C2559 H2549 0.929 . S
C2559 C2557 1.433 . S
C2559 N2562 1.384 . S
C2560 H2551 0.929 . S
C2560 C2552 1.378 . S
C2560 C2555 1.350 . S
C2561 H2548 0.929 . S
C2561 C2553 1.433 . S
C2561 N2563 1.384 . S
N2562 C2558 1.427 . S
N2562 C2559 1.384 . S
N2563 C2555 1.427 . S
N2563 C2561 1.384 . S
H2564 C2570 0.930 . S
H2565 C2574 0.930 . S
H2566 C2579 0.929 . S
H2567 C2577 0.929 . S
H2568 C2572 0.929 . S
H2569 C2578 0.929 . S
C2570 H2564 0.930 . S
C2570 C2571 1.367 . S
C2570 C2578 1.378 . S
C2571 C2570 1.367 . S
C2571 C2579 1.433 . S
C2572 H2568 0.929 . S
C2572 C2574 1.378 . S
C2572 C2576 1.350 . S
C2573 C2576 1.463 1_545 S
C2573 C2578 1.350 . S
C2573 N2581 1.427 . S
C2574 H2565 0.930 . S
C2574 C2572 1.378 . S
C2574 C2575 1.367 . S
C2575 C2574 1.367 . S
C2575 C2577 1.433 . S
C2576 C2572 1.350 . S
C2576 C2573 1.463 1_565 S
C2576 N2580 1.427 . S
C2577 H2567 0.929 . S
C2577 C2575 1.433 . S
C2577 N2580 1.384 . S
C2578 H2569 0.929 . S
C2578 C2570 1.378 . S
C2578 C2573 1.350 . S
C2579 H2566 0.929 . S
C2579 C2571 1.433 . S
C2579 N2581 1.384 . S
N2580 C2576 1.427 . S
N2580 C2577 1.384 . S
N2581 C2573 1.427 . S
N2581 C2579 1.384 . S
H2582 C2588 0.930 . S
H2583 C2592 0.930 . S
H2584 C2597 0.929 1_554 S
H2585 C2595 0.929 1_556 S
H2586 C2590 0.929 . S
H2587 C2596 0.929 . S
C2588 H2582 0.930 . S
C2588 C2589 1.367 . S
C2588 C2596 1.378 . S
C2589 C2588 1.367 . S
C2589 C2597 1.433 . S
C2590 H2586 0.929 . S
C2590 C2592 1.378 . S
C2590 C2594 1.350 . S
C2591 C2594 1.463 1_556 S
C2591 C2596 1.350 . S
C2591 N2599 1.427 1_556 S
C2592 H2583 0.930 . S
C2592 C2590 1.378 . S
C2592 C2593 1.367 . S
C2593 C2592 1.367 . S
C2593 C2595 1.433 . S
C2594 C2590 1.350 . S
C2594 C2591 1.463 1_554 S
C2594 N2598 1.427 1_554 S
C2595 H2585 0.929 1_554 S
C2595 C2593 1.433 . S
C2595 N2598 1.384 1_554 S
C2596 H2587 0.929 . S
C2596 C2588 1.378 . S
C2596 C2591 1.350 . S
C2597 H2584 0.929 1_556 S
C2597 C2589 1.433 . S
C2597 N2599 1.384 1_556 S
N2598 C2594 1.427 1_556 S
N2598 C2595 1.384 1_556 S
N2599 C2591 1.427 1_554 S
N2599 C2597 1.384 1_554 S
H2600 C2606 0.930 . S
H2601 C2610 0.930 . S
H2602 C2615 0.929 . S
H2603 C2613 0.929 . S
H2604 C2608 0.929 . S
H2605 C2614 0.929 . S
C2606 H2600 0.930 . S
C2606 C2607 1.367 . S
C2606 C2614 1.378 . S
C2607 C2606 1.367 . S
C2607 C2615 1.433 . S
C2608 H2604 0.929 . S
C2608 C2610 1.378 . S
C2608 C2612 1.350 . S
C2609 C2612 1.463 1_565 S
C2609 C2614 1.350 . S
C2609 N2617 1.427 . S
C2610 H2601 0.930 . S
C2610 C2608 1.378 . S
C2610 C2611 1.367 . S
C2611 C2610 1.367 . S
C2611 C2613 1.433 . S
C2612 C2608 1.350 . S
C2612 C2609 1.463 1_545 S
C2612 N2616 1.427 . S
C2613 H2603 0.929 . S
C2613 C2611 1.433 . S
C2613 N2616 1.384 . S
C2614 H2605 0.929 . S
C2614 C2606 1.378 . S
C2614 C2609 1.350 . S
C2615 H2602 0.929 . S
C2615 C2607 1.433 . S
C2615 N2617 1.384 . S
N2616 C2612 1.427 . S
N2616 C2613 1.384 . S
N2617 C2609 1.427 . S
N2617 C2615 1.384 . S
H2618 C2624 0.930 . S
H2619 C2628 0.930 . S
H2620 C2633 0.929 . S
H2621 C2631 0.929 . S
H2622 C2626 0.929 . S
H2623 C2632 0.929 . S
C2624 H2618 0.930 . S
C2624 C2625 1.367 . S
C2624 C2632 1.378 . S
C2625 C2624 1.367 . S
C2625 C2633 1.433 . S
C2626 H2622 0.929 . S
C2626 C2628 1.378 . S
C2626 C2630 1.350 . S
C2627 C2630 1.463 . S
C2627 C2632 1.350 . S
C2627 N2635 1.427 . S
C2628 H2619 0.930 . S
C2628 C2626 1.378 . S
C2628 C2629 1.367 . S
C2629 C2628 1.367 . S
C2629 C2631 1.433 . S
C2630 C2626 1.350 . S
C2630 C2627 1.463 . S
C2630 N2634 1.427 . S
C2631 H2621 0.929 . S
C2631 C2629 1.433 . S
C2631 N2634 1.384 . S
C2632 H2623 0.929 . S
C2632 C2624 1.378 . S
C2632 C2627 1.350 . S
C2633 H2620 0.929 . S
C2633 C2625 1.433 . S
C2633 N2635 1.384 . S
N2634 C2630 1.427 . S
N2634 C2631 1.384 . S
N2635 C2627 1.427 . S
N2635 C2633 1.384 . S
H2636 C2642 0.930 . S
H2637 C2646 0.930 . S
H2638 C2651 0.929 . S
H2639 C2649 0.929 . S
H2640 C2644 0.929 . S
H2641 C2650 0.929 . S
C2642 H2636 0.930 . S
C2642 C2643 1.367 . S
C2642 C2650 1.378 . S
C2643 C2642 1.367 . S
C2643 C2651 1.433 . S
C2644 H2640 0.929 . S
C2644 C2646 1.378 . S
C2644 C2648 1.350 . S
C2645 C2648 1.463 1_565 S
C2645 C2650 1.350 . S
C2645 N2653 1.427 . S
C2646 H2637 0.930 . S
C2646 C2644 1.378 . S
C2646 C2647 1.367 . S
C2647 C2646 1.367 . S
C2647 C2649 1.433 . S
C2648 C2644 1.350 . S
C2648 C2645 1.463 1_545 S
C2648 N2652 1.427 . S
C2649 H2639 0.929 . S
C2649 C2647 1.433 . S
C2649 N2652 1.384 . S
C2650 H2641 0.929 . S
C2650 C2642 1.378 . S
C2650 C2645 1.350 . S
C2651 H2638 0.929 . S
C2651 C2643 1.433 . S
C2651 N2653 1.384 . S
N2652 C2648 1.427 . S
N2652 C2649 1.384 . S
N2653 C2645 1.427 . S
N2653 C2651 1.384 . S
H2654 C2660 0.930 . S
H2655 C2664 0.930 . S
H2656 C2669 0.929 . S
H2657 C2667 0.929 . S
H2658 C2662 0.929 . S
H2659 C2668 0.929 . S
C2660 H2654 0.930 . S
C2660 C2661 1.367 . S
C2660 C2668 1.378 . S
C2661 C2660 1.367 . S
C2661 C2669 1.433 . S
C2662 H2658 0.929 . S
C2662 C2664 1.378 . S
C2662 C2666 1.350 . S
C2663 C2666 1.463 1_554 S
C2663 C2668 1.350 . S
C2663 N2671 1.422 1_554 S
C2664 H2655 0.930 . S
C2664 C2662 1.378 . S
C2664 C2665 1.367 . S
C2665 C2664 1.367 . S
C2665 C2667 1.433 . S
C2666 C2662 1.350 . S
C2666 C2663 1.463 1_556 S
C2666 N2670 1.422 1_556 S
C2667 H2657 0.929 . S
C2667 C2665 1.433 . S
C2667 N2670 1.375 1_556 S
C2668 H2659 0.929 . S
C2668 C2660 1.378 . S
C2668 C2663 1.350 . S
C2669 H2656 0.929 . S
C2669 C2661 1.433 . S
C2669 N2671 1.375 1_554 S
N2670 C2666 1.422 1_554 S
N2670 C2667 1.375 1_554 S
N2671 C2663 1.422 1_556 S
N2671 C2669 1.375 1_556 S
H2672 C2678 0.930 . S
H2673 C2682 0.930 . S
H2674 C2687 0.929 . S
H2675 C2685 0.929 . S
H2676 C2680 0.929 . S
H2677 C2686 0.929 . S
C2678 H2672 0.930 . S
C2678 C2679 1.367 . S
C2678 C2686 1.378 . S
C2679 C2678 1.367 . S
C2679 C2687 1.433 . S
C2680 H2676 0.929 . S
C2680 C2682 1.378 . S
C2680 C2684 1.350 . S
C2681 C2684 1.463 . S
C2681 C2686 1.350 . S
C2681 N2689 1.427 . S
C2682 H2673 0.930 . S
C2682 C2680 1.378 . S
C2682 C2683 1.367 . S
C2683 C2682 1.367 . S
C2683 C2685 1.433 . S
C2684 C2680 1.350 . S
C2684 C2681 1.463 . S
C2684 N2688 1.427 . S
C2685 H2675 0.929 . S
C2685 C2683 1.433 . S
C2685 N2688 1.384 . S
C2686 H2677 0.929 . S
C2686 C2678 1.378 . S
C2686 C2681 1.350 . S
C2687 H2674 0.929 . S
C2687 C2679 1.433 . S
C2687 N2689 1.384 . S
N2688 C2684 1.427 . S
N2688 C2685 1.384 . S
N2689 C2681 1.427 . S
N2689 C2687 1.384 . S
H2690 C2696 0.930 . S
H2691 C2700 0.930 . S
H2692 C2705 0.923 1_554 S
H2693 C2703 0.923 1_556 S
H2694 C2698 0.929 . S
H2695 C2704 0.929 . S
C2696 H2690 0.930 . S
C2696 C2697 1.367 . S
C2696 C2704 1.378 . S
C2697 C2696 1.367 . S
C2697 C2705 1.444 . S
C2698 H2694 0.929 . S
C2698 C2700 1.378 . S
C2698 C2702 1.350 . S
C2699 C2702 1.463 1_556 S
C2699 C2704 1.350 . S
C2699 N2707 1.427 1_556 S
C2700 H2691 0.930 . S
C2700 C2698 1.378 . S
C2700 C2701 1.367 . S
C2701 C2700 1.367 . S
C2701 C2703 1.444 . S
C2702 C2698 1.350 . S
C2702 C2699 1.463 1_554 S
C2702 N2706 1.427 1_554 S
C2703 H2693 0.923 1_554 S
C2703 C2701 1.444 . S
C2703 N2706 1.379 1_554 S
C2704 H2695 0.929 . S
C2704 C2696 1.378 . S
C2704 C2699 1.350 . S
C2705 H2692 0.923 1_556 S
C2705 C2697 1.444 . S
C2705 N2707 1.379 1_556 S
N2706 C2702 1.427 1_556 S
N2706 C2703 1.379 1_556 S
N2707 C2699 1.427 1_554 S
N2707 C2705 1.379 1_554 S
H2708 C2714 0.930 . S
H2709 C2718 0.930 . S
H2710 C2723 0.929 . S
H2711 C2721 0.929 . S
H2712 C2716 0.929 . S
H2713 C2722 0.929 . S
C2714 H2708 0.930 . S
C2714 C2715 1.367 . S
C2714 C2722 1.378 . S
C2715 C2714 1.367 . S
C2715 C2723 1.433 . S
C2716 H2712 0.929 . S
C2716 C2718 1.378 . S
C2716 C2720 1.350 . S
C2717 C2720 1.463 . S
C2717 C2722 1.350 . S
C2717 N2725 1.427 . S
C2718 H2709 0.930 . S
C2718 C2716 1.378 . S
C2718 C2719 1.367 . S
C2719 C2718 1.367 . S
C2719 C2721 1.433 . S
C2720 C2716 1.350 . S
C2720 C2717 1.463 . S
C2720 N2724 1.427 . S
C2721 H2711 0.929 . S
C2721 C2719 1.433 . S
C2721 N2724 1.384 . S
C2722 H2713 0.929 . S
C2722 C2714 1.378 . S
C2722 C2717 1.350 . S
C2723 H2710 0.929 . S
C2723 C2715 1.433 . S
C2723 N2725 1.384 . S
N2724 C2720 1.427 . S
N2724 C2721 1.384 . S
N2725 C2717 1.427 . S
N2725 C2723 1.384 . S
H2726 C2732 0.930 . S
H2727 C2736 0.930 . S
H2728 C2741 0.929 . S
H2729 C2739 0.929 . S
H2730 C2734 0.929 . S
H2731 C2740 0.929 . S
C2732 H2726 0.930 . S
C2732 C2733 1.367 . S
C2732 C2740 1.378 . S
C2733 C2732 1.367 . S
C2733 C2741 1.433 . S
C2734 H2730 0.929 . S
C2734 C2736 1.378 . S
C2734 C2738 1.350 . S
C2735 C2738 1.463 . S
C2735 C2740 1.350 . S
C2735 N2743 1.427 . S
C2736 H2727 0.930 . S
C2736 C2734 1.378 . S
C2736 C2737 1.367 . S
C2737 C2736 1.367 . S
C2737 C2739 1.433 . S
C2738 C2734 1.350 . S
C2738 C2735 1.463 . S
C2738 N2742 1.427 . S
C2739 H2729 0.929 . S
C2739 C2737 1.433 . S
C2739 N2742 1.384 . S
C2740 H2731 0.929 . S
C2740 C2732 1.378 . S
C2740 C2735 1.350 . S
C2741 H2728 0.929 . S
C2741 C2733 1.433 . S
C2741 N2743 1.384 . S
N2742 C2738 1.427 . S
N2742 C2739 1.384 . S
N2743 C2735 1.427 . S
N2743 C2741 1.384 . S
H2744 C2750 0.930 . S
H2745 C2754 0.930 . S
H2746 C2759 0.929 . S
H2747 C2757 0.929 . S
H2748 C2752 0.929 . S
H2749 C2758 0.929 . S
C2750 H2744 0.930 . S
C2750 C2751 1.367 . S
C2750 C2758 1.378 . S
C2751 C2750 1.367 . S
C2751 C2759 1.433 . S
C2752 H2748 0.929 . S
C2752 C2754 1.378 . S
C2752 C2756 1.350 . S
C2753 C2756 1.463 . S
C2753 C2758 1.350 . S
C2753 N2761 1.427 . S
C2754 H2745 0.930 . S
C2754 C2752 1.378 . S
C2754 C2755 1.367 . S
C2755 C2754 1.367 . S
C2755 C2757 1.433 . S
C2756 C2752 1.350 . S
C2756 C2753 1.463 . S
C2756 N2760 1.427 . S
C2757 H2747 0.929 . S
C2757 C2755 1.433 . S
C2757 N2760 1.384 . S
C2758 H2749 0.929 . S
C2758 C2750 1.378 . S
C2758 C2753 1.350 . S
C2759 H2746 0.929 . S
C2759 C2751 1.433 . S
C2759 N2761 1.384 . S
N2760 C2756 1.427 . S
N2760 C2757 1.384 . S
N2761 C2753 1.427 . S
N2761 C2759 1.384 . S
H2762 C2768 0.930 . S
H2763 C2772 0.930 . S
H2764 C2777 0.929 . S
H2765 C2775 0.929 . S
H2766 C2770 0.929 . S
H2767 C2776 0.929 . S
C2768 H2762 0.930 . S
C2768 C2769 1.367 . S
C2768 C2776 1.378 . S
C2769 C2768 1.367 . S
C2769 C2777 1.433 . S
C2770 H2766 0.929 . S
C2770 C2772 1.378 . S
C2770 C2774 1.350 . S
C2771 C2774 1.463 1_556 S
C2771 C2776 1.350 . S
C2771 N2779 1.427 . S
C2772 H2763 0.930 . S
C2772 C2770 1.378 . S
C2772 C2773 1.367 . S
C2773 C2772 1.367 . S
C2773 C2775 1.433 . S
C2774 C2770 1.350 . S
C2774 C2771 1.463 1_554 S
C2774 N2778 1.427 . S
C2775 H2765 0.929 . S
C2775 C2773 1.433 . S
C2775 N2778 1.384 . S
C2776 H2767 0.929 . S
C2776 C2768 1.378 . S
C2776 C2771 1.350 . S
C2777 H2764 0.929 . S
C2777 C2769 1.433 . S
C2777 N2779 1.384 . S
N2778 C2774 1.427 . S
N2778 C2775 1.384 . S
N2779 C2771 1.427 . S
N2779 C2777 1.384 . S
H2780 C2786 0.930 . S
H2781 C2790 0.930 . S
H2782 C2795 0.929 . S
H2783 C2793 0.929 . S
H2784 C2788 0.929 . S
H2785 C2794 0.929 . S
C2786 H2780 0.930 . S
C2786 C2787 1.367 . S
C2786 C2794 1.378 . S
C2787 C2786 1.367 . S
C2787 C2795 1.433 . S
C2788 H2784 0.929 . S
C2788 C2790 1.378 . S
C2788 C2792 1.350 . S
C2789 C2792 1.463 . S
C2789 C2794 1.350 . S
C2789 N2797 1.427 . S
C2790 H2781 0.930 . S
C2790 C2788 1.378 . S
C2790 C2791 1.367 . S
C2791 C2790 1.367 . S
C2791 C2793 1.433 . S
C2792 C2788 1.350 . S
C2792 C2789 1.463 . S
C2792 N2796 1.427 . S
C2793 H2783 0.929 . S
C2793 C2791 1.433 . S
C2793 N2796 1.384 . S
C2794 H2785 0.929 . S
C2794 C2786 1.378 . S
C2794 C2789 1.350 . S
C2795 H2782 0.929 . S
C2795 C2787 1.433 . S
C2795 N2797 1.384 . S
N2796 C2792 1.427 . S
N2796 C2793 1.384 . S
N2797 C2789 1.427 . S
N2797 C2795 1.384 . S
H2798 C2804 0.930 . S
H2799 C2808 0.930 . S
H2800 C2813 0.929 . S
H2801 C2811 0.929 . S
H2802 C2806 0.929 . S
H2803 C2812 0.929 . S
C2804 H2798 0.930 . S
C2804 C2805 1.367 . S
C2804 C2812 1.378 . S
C2805 C2804 1.367 . S
C2805 C2813 1.433 . S
C2806 H2802 0.929 . S
C2806 C2808 1.378 . S
C2806 C2810 1.350 . S
C2807 C2810 1.463 . S
C2807 C2812 1.350 . S
C2807 N2815 1.427 . S
C2808 H2799 0.930 . S
C2808 C2806 1.378 . S
C2808 C2809 1.367 . S
C2809 C2808 1.367 . S
C2809 C2811 1.433 . S
C2810 C2806 1.350 . S
C2810 C2807 1.463 . S
C2810 N2814 1.427 . S
C2811 H2801 0.929 . S
C2811 C2809 1.433 . S
C2811 N2814 1.384 . S
C2812 H2803 0.929 . S
C2812 C2804 1.378 . S
C2812 C2807 1.350 . S
C2813 H2800 0.929 . S
C2813 C2805 1.433 . S
C2813 N2815 1.384 . S
N2814 C2810 1.427 . S
N2814 C2811 1.384 . S
N2815 C2807 1.427 . S
N2815 C2813 1.384 . S
C1095 C29 2.055 . S
C1099 C926 2.043 . S
C1113 C63 2.054 . S
C1117 C280 2.043 . S
C1131 C97 2.054 . S
C1135 C858 2.044 . S
C1149 C348 2.041 . S
C1153 C131 2.056 . S
C1167 C165 2.055 . S
C1171 C994 2.040 . S
C1185 C484 2.042 . S
C1189 C199 2.054 . S
C1203 C1062 2.040 . S
C1207 C233 2.054 . S
C1221 C267 2.054 . S
C1225 C416 2.043 . S
C1239 C272 2.056 . S
C1243 C663 2.038 . S
C1257 C306 2.056 . S
C1261 C17 2.038 . S
C1275 C595 2.040 . S
C1279 C340 2.054 . S
C1293 C85 2.043 . S
C1297 C374 2.055 . S
C1311 C408 2.055 . S
C1315 C731 2.044 . S
C1329 C442 2.054 . S
C1333 C221 2.041 . S
C1347 C476 2.054 . S
C1351 C799 2.043 . S
C1365 C153 2.044 . S
C1369 C510 2.055 . S
C1383 C382 2.038 . S
C1387 C573 2.055 . S
C1401 C824 2.043 . S
C1405 C607 2.054 . S
C1419 C314 2.044 . S
C1423 C641 2.055 . S
C1437 C675 2.054 . S
C1441 C892 2.043 . S
C1455 C450 2.044 . S
C1459 C709 2.054 . S
C1473 C1028 2.043 . S
C1477 C743 2.054 . S
C1491 C518 2.039 . S
C1495 C777 2.055 . S
C1509 C811 2.055 . S
C1513 C960 2.044 . S
C1527 C816 2.055 . S
C1531 C119 2.039 . S
C1545 C850 2.057 . S
C1549 C561 2.040 . S
C1563 C884 2.055 . S
C1567 C51 2.043 . S
C1581 C918 2.056 . S
C1585 C629 2.041 . S
C1599 C187 2.040 . S
C1603 C952 2.056 . S
C1617 C765 2.039 . S
C1621 C986 2.057 . S
C1635 C1020 2.054 . S
C1639 C255 2.043 . S
C1653 C1054 2.054 . S
C1657 C697 2.043 . S
C1671 C13 0.479 . S
C1675 C625 0.509 . S
C1689 C659 0.512 . S
C1693 C47 0.480 . S
C1707 C81 0.513 . S
C1711 C557 0.494 . S
C1725 C115 0.501 . S
C1729 C591 0.481 . S
C1743 C761 0.481 . S
C1747 C149 0.513 . S
C1761 C183 0.500 . S
C1765 C795 0.482 . S
C1779 C693 0.488 . S
C1783 C217 0.515 . S
C1797 C251 0.486 . S
C1801 C727 0.515 . S
C1815 C888 0.508 . S
C1819 C276 0.501 . S
C1833 C310 0.514 . S
C1837 C922 0.492 . S
C1851 C344 0.509 . S
C1855 C820 0.479 . S
C1869 C378 0.513 . S
C1873 C854 0.493 . S
C1887 C1024 0.511 . S
C1891 C412 0.496 . S
C1905 C1058 0.481 . S
C1909 C446 0.501 . S
C1923 C480 0.514 . S
C1927 C956 0.483 . S
C1941 C514 0.514 . S
C1945 C990 0.490 . S
C1959 C8 2.293 . S
C1963 C833 2.293 . S
C1977 C323 2.299 . S
C1981 C42 2.299 . S
C1995 C76 2.301 . S
C1999 C901 2.301 . S
C2013 C110 2.300 . S
C2017 C391 2.300 . S
C2031 C969 2.300 . S
C2035 C144 2.300 . S
C2049 C459 2.302 . S
C2053 C178 2.302 . S
C2067 C212 2.298 . S
C2071 C1037 2.298 . S
C2085 C246 2.301 . S
C2089 C527 2.301 . S
C2103 C552 2.300 . S
C2107 C289 2.300 . S
C2121 C620 2.298 . S
C2125 C357 2.298 . S
C2139 C688 2.294 . S
C2143 C425 2.294 . S
C2157 C493 2.301 . S
C2161 C756 2.301 . S
C2175 C586 2.295 . S
C2179 C867 2.295 . S
C2193 C654 2.298 . S
C2197 C935 2.298 . S
C2211 C1003 2.296 . S
C2215 C722 2.296 . S
C2229 C1071 2.302 . S
C2233 C790 2.302 . S
C2247 C4 0.740 . S
C2251 C174 0.737 . S
C2265 C208 0.748 . S
C2269 C38 0.748 . S
C2283 C242 0.736 . S
C2287 C72 0.738 . S
C2301 C140 0.746 . S
C2305 C106 0.748 . S
C2319 C285 0.740 . S
C2323 C455 0.736 . S
C2337 C319 0.740 . S
C2341 C489 0.737 . S
C2355 C523 0.736 . S
C2359 C353 0.735 . S
C2373 C387 0.735 . S
C2377 C421 0.736 . S
C2391 C548 0.741 . S
C2395 C718 0.737 . S
C2409 C582 0.742 . S
C2413 C752 0.746 . S
C2427 C616 0.735 . S
C2431 C786 0.736 . S
C2445 C684 0.737 . S
C2449 C650 0.741 . S
C2463 C829 0.743 . S
C2467 C999 0.747 . S
C2481 C863 0.747 . S
C2485 C1033 0.744 . S
C2499 C1067 0.743 . S
C2503 C897 0.747 . S
C2517 C931 0.735 . S
C2521 C965 0.736 . S
C2535 C0 2.489 . S
C2539 C136 2.489 . S
C2553 C34 2.491 . S
C2557 C170 2.491 . S
C2571 C204 2.495 . S
C2575 C68 2.495 . S
C2589 C238 2.490 . S
C2593 C102 2.490 . S
C2607 C301 2.495 . S
C2611 C437 2.495 . S
C2625 C471 2.495 . S
C2629 C335 2.495 . S
C2643 C505 2.489 . S
C2647 C369 2.490 . S
C2661 C539 2.491 . S
C2665 C403 2.491 . S
C2679 C544 2.490 . S
C2683 C680 2.490 . S
C2697 C714 2.490 . S
C2701 C578 2.490 . S
C2715 C612 2.494 . S
C2719 C748 2.494 . S
C2733 C782 2.491 . S
C2737 C646 2.492 . S
C2751 C981 2.489 . S
C2755 C845 2.489 . S
C2769 C879 2.491 . S
C2773 C1015 2.492 . S
C2787 C913 2.490 . S
C2791 C1049 2.490 . S
C2805 C947 2.495 . S
C2809 C1083 2.495 . S
