# Generated by pormake.
# Topology mon, (4)-cn, num edge types: 1
# Building blocks:
#     Node 0, Type 0, BuildingBlock: ICAMEG_clean_sbu_1, # of connection points: 4
#     Node 1, Type 0, BuildingBlock: ICAMEG_clean_sbu_1, # of connection points: 4
#     Node 2, Type 0, BuildingBlock: ICAMEG_clean_sbu_1, # of connection points: 4
#     Node 3, Type 0, BuildingBlock: ICAMEG_clean_sbu_1, # of connection points: 4
#     Node 4, Type 0, BuildingBlock: ICAMEG_clean_sbu_1, # of connection points: 4
#     Node 5, Type 0, BuildingBlock: ICAMEG_clean_sbu_1, # of connection points: 4
#     Node 6, Type 0, BuildingBlock: ICAMEG_clean_sbu_1, # of connection points: 4
#     Node 7, Type 0, BuildingBlock: ICAMEG_clean_sbu_1, # of connection points: 4
#     Node 8, Type 0, BuildingBlock: ICAMEG_clean_sbu_1, # of connection points: 4
#     Node 9, Type 0, BuildingBlock: ICAMEG_clean_sbu_1, # of connection points: 4
#     Node 10, Type 0, BuildingBlock: ICAMEG_clean_sbu_1, # of connection points: 4
#     Node 11, Type 0, BuildingBlock: ICAMEG_clean_sbu_1, # of connection points: 4
#     Node 12, Type 0, BuildingBlock: ICAMEG_clean_sbu_1, # of connection points: 4
#     Node 13, Type 0, BuildingBlock: ICAMEG_clean_sbu_1, # of connection points: 4
#     Node 14, Type 0, BuildingBlock: ICAMEG_clean_sbu_1, # of connection points: 4
#     Node 15, Type 0, BuildingBlock: ICAMEG_clean_sbu_1, # of connection points: 4
#     Edge 16, Type (0, 0), BuildingBlock: OJICUG_clean_linker_0, # of connection points: 2
#     Edge 17, Type (0, 0), BuildingBlock: OJICUG_clean_linker_0, # of connection points: 2
#     Edge 18, Type (0, 0), BuildingBlock: OJICUG_clean_linker_0, # of connection points: 2
#     Edge 19, Type (0, 0), BuildingBlock: OJICUG_clean_linker_0, # of connection points: 2
#     Edge 20, Type (0, 0), BuildingBlock: OJICUG_clean_linker_0, # of connection points: 2
#     Edge 21, Type (0, 0), BuildingBlock: OJICUG_clean_linker_0, # of connection points: 2
#     Edge 22, Type (0, 0), BuildingBlock: OJICUG_clean_linker_0, # of connection points: 2
#     Edge 23, Type (0, 0), BuildingBlock: OJICUG_clean_linker_0, # of connection points: 2
#     Edge 24, Type (0, 0), BuildingBlock: OJICUG_clean_linker_0, # of connection points: 2
#     Edge 25, Type (0, 0), BuildingBlock: OJICUG_clean_linker_0, # of connection points: 2
#     Edge 26, Type (0, 0), BuildingBlock: OJICUG_clean_linker_0, # of connection points: 2
#     Edge 27, Type (0, 0), BuildingBlock: OJICUG_clean_linker_0, # of connection points: 2
#     Edge 28, Type (0, 0), BuildingBlock: OJICUG_clean_linker_0, # of connection points: 2
#     Edge 29, Type (0, 0), BuildingBlock: OJICUG_clean_linker_0, # of connection points: 2
#     Edge 30, Type (0, 0), BuildingBlock: OJICUG_clean_linker_0, # of connection points: 2
#     Edge 31, Type (0, 0), BuildingBlock: OJICUG_clean_linker_0, # of connection points: 2
#     Edge 32, Type (0, 0), BuildingBlock: OJICUG_clean_linker_0, # of connection points: 2
#     Edge 33, Type (0, 0), BuildingBlock: OJICUG_clean_linker_0, # of connection points: 2
#     Edge 34, Type (0, 0), BuildingBlock: OJICUG_clean_linker_0, # of connection points: 2
#     Edge 35, Type (0, 0), BuildingBlock: OJICUG_clean_linker_0, # of connection points: 2
#     Edge 36, Type (0, 0), BuildingBlock: OJICUG_clean_linker_0, # of connection points: 2
#     Edge 37, Type (0, 0), BuildingBlock: OJICUG_clean_linker_0, # of connection points: 2
#     Edge 38, Type (0, 0), BuildingBlock: OJICUG_clean_linker_0, # of connection points: 2
#     Edge 39, Type (0, 0), BuildingBlock: OJICUG_clean_linker_0, # of connection points: 2
#     Edge 40, Type (0, 0), BuildingBlock: OJICUG_clean_linker_0, # of connection points: 2
#     Edge 41, Type (0, 0), BuildingBlock: OJICUG_clean_linker_0, # of connection points: 2
#     Edge 42, Type (0, 0), BuildingBlock: OJICUG_clean_linker_0, # of connection points: 2
#     Edge 43, Type (0, 0), BuildingBlock: OJICUG_clean_linker_0, # of connection points: 2
#     Edge 44, Type (0, 0), BuildingBlock: OJICUG_clean_linker_0, # of connection points: 2
#     Edge 45, Type (0, 0), BuildingBlock: OJICUG_clean_linker_0, # of connection points: 2
#     Edge 46, Type (0, 0), BuildingBlock: OJICUG_clean_linker_0, # of connection points: 2
#     Edge 47, Type (0, 0), BuildingBlock: OJICUG_clean_linker_0, # of connection points: 2
# Relax obj value: 0.223
# Max RMSD: 0.232
# Mean RMSD: 0.232
data_MOF--net-mon--node1-ICAMEG_clean_sbu_1--edge1-OJICUG_clean_linker_0
_symmetry_space_group_name_H-M    P1
_symmetry_Int_Tables_number       1
_symmetry_cell_setting            triclinic
loop_
_symmetry_equiv_pos_as_xyz
'x, y, z'
_cell_length_a     25.734136
_cell_length_b     25.722168
_cell_length_c     69.56772
_cell_angle_alpha  89.999326
_cell_angle_beta   90.001567
_cell_angle_gamma 89.935339
loop_
_atom_site_label
_atom_site_type_symbol
_atom_site_fract_x
_atom_site_fract_y
_atom_site_fract_z
_atom_type_partial_charge
Co0 Co 0.99494 0.95265 0.58485 0.0
Co1 Co 0.01647 0.03662 0.62252 0.0
O2 O 0.01452 0.02162 0.59467 0.0
C3 C 0.07843 0.99311 0.5578 0.0
O4 O 0.09384 0.02704 0.57062 0.0
C5 C 0.98681 0.13764 0.6029 0.0
O6 O 0.97888 0.11406 0.58646 0.0
O7 O 0.94172 0.01645 0.62476 0.0
O8 O 0.94216 0.94483 0.60612 0.0
H9 H 0.98656 0.99707 0.69254 0.0
H10 H 0.98949 0.0454 0.55903 0.0
O11 O 0.04473 0.95878 0.56233 0.0
H12 H 0.81614 0.96501 0.55566 0.0
H13 H 0.95754 0.81648 0.53447 0.0
H14 H 0.97478 0.85166 0.60384 0.0
H15 H 0.88459 0.92697 0.57605 0.0
H16 H 0.9767 0.90499 0.54604 0.0
O17 O 0.99734 0.11158 0.61798 0.0
H18 H 0.98598 0.9787 0.65782 0.0
H19 H 0.05254 0.12643 0.64634 0.0
H20 H 0.95496 0.7627 0.59288 0.0
H21 H 0.92289 0.08395 0.53808 0.0
H22 H 0.94657 0.74456 0.55796 0.0
H23 H 0.83527 0.04384 0.53629 0.0
O24 O 0.05011 0.92015 0.60126 0.0
H25 H 0.17305 0.12544 0.59369 0.0
H26 H 0.11119 0.00805 0.64474 0.0
H27 H 0.20434 0.02853 0.64256 0.0
H28 H 0.23592 0.08794 0.61698 0.0
H29 H 0.08062 0.10288 0.59605 0.0
H30 H 0.05356 0.14655 0.68093 0.0
H31 H 0.02043 0.08164 0.70434 0.0
O32 O 0.03634 0.96357 0.62861 0.0
C33 C 0.92114 0.97399 0.61889 0.0
C34 C 1.00068 0.0259 0.68248 0.0
C35 C 0.03822 0.10977 0.67596 0.0
N36 N 0.01782 0.05187 0.64992 0.0
C37 C 1.00015 0.0158 0.66276 0.0
C38 C 0.03709 0.09829 0.65635 0.0
C39 C 0.01972 0.07331 0.68909 0.0
C40 C 0.95173 0.02747 0.55836 0.0
N41 N 0.94105 0.98404 0.56896 0.0
C42 C 0.914 0.04964 0.54647 0.0
C43 C 0.86485 0.02717 0.54549 0.0
C44 C 0.85407 0.98303 0.55637 0.0
C45 C 0.89284 0.96192 0.56807 0.0
C46 C 0.96117 0.82388 0.54972 0.0
C47 C 0.9707 0.84424 0.58863 0.0
C48 C 0.97225 0.87392 0.55637 0.0
N49 N 0.97684 0.88361 0.57563 0.0
C50 C 0.9596 0.79372 0.5825 0.0
C51 C 0.95493 0.78356 0.56291 0.0
C52 C 0.05511 0.92517 0.61945 0.0
C53 C 0.15976 0.09968 0.60497 0.0
C54 C 0.12444 0.03354 0.63342 0.0
C55 C 0.17735 0.0452 0.63234 0.0
C56 C 0.19503 0.07856 0.618 0.0
N57 N 0.08992 0.05434 0.62057 0.0
C58 C 0.10714 0.08703 0.60648 0.0
Co59 Co 0.3077 0.73638 0.83585 0.0
Co60 Co 0.22308 0.76057 0.87315 0.0
O61 O 0.23869 0.75682 0.84538 0.0
C62 C 0.26874 0.8199 0.80849 0.0
O63 O 0.23561 0.83675 0.82135 0.0
C64 C 0.12294 0.72885 0.8534 0.0
O65 O 0.14752 0.71801 0.8374 0.0
O66 O 0.24352 0.68587 0.8762 0.0
O67 O 0.31504 0.68467 0.85752 0.0
H68 H 0.26101 0.73577 0.94356 0.0
H69 H 0.21597 0.73067 0.80964 0.0
O70 O 0.30207 0.78514 0.81301 0.0
H71 H 0.29451 0.55601 0.80804 0.0
H72 H 0.44422 0.69541 0.78599 0.0
H73 H 0.40829 0.71649 0.85517 0.0
H74 H 0.33259 0.62521 0.82806 0.0
H75 H 0.35575 0.71601 0.79727 0.0
O76 O 0.14817 0.74128 0.86849 0.0
H77 H 0.28021 0.7327 0.90893 0.0
H78 H 0.13271 0.7984 0.89631 0.0
H79 H 0.4972 0.69527 0.84451 0.0
H80 H 0.17743 0.66329 0.78903 0.0
H81 H 0.5157 0.6849 0.80969 0.0
H82 H 0.21659 0.57502 0.78815 0.0
O83 O 0.34019 0.79214 0.85193 0.0
H84 H 0.13393 0.91495 0.84272 0.0
H85 H 0.25127 0.85695 0.89443 0.0
H86 H 0.2304 0.94992 0.89133 0.0
H87 H 0.17101 0.97956 0.86541 0.0
H88 H 0.15693 0.8227 0.84597 0.0
H89 H 0.11175 0.80193 0.9308 0.0
H90 H 0.17612 0.77049 0.95475 0.0
O91 O 0.29598 0.78088 0.87926 0.0
C92 C 0.286 0.66474 0.87054 0.0
C93 C 0.2324 0.74912 0.93328 0.0
C94 C 0.14865 0.78619 0.92611 0.0
N95 N 0.20717 0.76385 0.90048 0.0
C96 C 0.24296 0.74714 0.9136 0.0
C97 C 0.1606 0.78362 0.90655 0.0
C98 C 0.18481 0.76865 0.93954 0.0
C99 C 0.23348 0.6926 0.80935 0.0
N100 N 0.27635 0.68194 0.82026 0.0
C101 C 0.21132 0.65445 0.79765 0.0
C102 C 0.23326 0.60494 0.79718 0.0
C103 C 0.27689 0.59423 0.80836 0.0
C104 C 0.298 0.63341 0.81985 0.0
C105 C 0.43665 0.69986 0.80121 0.0
C106 C 0.41587 0.71155 0.84 0.0
C107 C 0.38663 0.71174 0.80768 0.0
N108 N 0.37673 0.71737 0.82689 0.0
C109 C 0.46635 0.69967 0.83405 0.0
C110 C 0.47672 0.69388 0.81451 0.0
C111 C 0.33481 0.79844 0.87005 0.0
C112 C 0.15967 0.90251 0.85414 0.0
C113 C 0.22581 0.86935 0.88297 0.0
C114 C 0.21391 0.92216 0.88136 0.0
C115 C 0.18056 0.93875 0.86684 0.0
N116 N 0.20522 0.83387 0.87045 0.0
C117 C 0.17253 0.85002 0.85617 0.0
Co118 Co 0.52579 0.0553 0.08477 0.0
Co119 Co 0.50474 0.97167 0.12257 0.0
O120 O 0.50636 0.9864 0.09471 0.0
C121 C 0.44215 0.01449 0.05786 0.0
O122 O 0.42693 0.98058 0.07073 0.0
C123 C 0.53448 0.8706 0.10303 0.0
O124 O 0.54274 0.8942 0.08662 0.0
O125 O 0.57951 0.99186 0.12466 0.0
O126 O 0.57873 0.06339 0.10598 0.0
H127 H 0.53565 0.0119 0.19248 0.0
H128 H 0.53111 0.96236 0.05904 0.0
O129 O 0.4758 0.04893 0.06232 0.0
H130 H 0.70434 0.04291 0.05538 0.0
H131 H 0.56258 0.19105 0.03418 0.0
H132 H 0.54595 0.1565 0.10361 0.0
H133 H 0.63606 0.08098 0.07584 0.0
H134 H 0.54366 0.10262 0.04589 0.0
O135 O 0.52377 0.89667 0.1181 0.0
H136 H 0.53583 0.0299 0.15773 0.0
H137 H 0.46888 0.88214 0.14658 0.0
H138 H 0.56551 0.2454 0.09251 0.0
H139 H 0.59754 0.92378 0.03803 0.0
H140 H 0.57359 0.26322 0.05756 0.0
H141 H 0.6851 0.96396 0.0361 0.0
O142 O 0.47072 0.08787 0.10122 0.0
H143 H 0.34791 0.88252 0.09409 0.0
H144 H 0.41023 1.00044 0.1449 0.0
H145 H 0.31706 0.97992 0.14287 0.0
H146 H 0.28525 0.92025 0.1174 0.0
H147 H 0.44038 0.90512 0.0963 0.0
H148 H 0.46828 0.86239 0.18121 0.0
H149 H 0.5018 0.9275 0.20446 0.0
O150 O 0.48494 0.04479 0.1286 0.0
C151 C 0.59994 0.03434 0.11874 0.0
C152 C 0.52135 0.98299 0.18249 0.0
C153 C 0.4836 0.8991 0.17616 0.0
N154 N 0.50373 0.9567 0.15 0.0
C155 C 0.52163 0.99288 0.16275 0.0
C156 C 0.48449 0.91037 0.15652 0.0
C157 C 0.50232 0.93568 0.1892 0.0
C158 C 0.56884 0.98033 0.05831 0.0
N159 N 0.57957 0.02383 0.06885 0.0
C160 C 0.60648 0.95813 0.04638 0.0
C161 C 0.65559 0.98065 0.04532 0.0
C162 C 0.66643 0.02486 0.05616 0.0
C163 C 0.62775 0.04598 0.06789 0.0
C164 C 0.55908 0.18379 0.04945 0.0
C165 C 0.5499 0.16379 0.08839 0.0
C166 C 0.54815 0.13379 0.05617 0.0
N167 N 0.54372 0.12428 0.07545 0.0
C168 C 0.56084 0.21426 0.08219 0.0
C169 C 0.56535 0.22424 0.06257 0.0
C170 C 0.46595 0.08303 0.11942 0.0
C171 C 0.3613 0.9084 0.10531 0.0
C172 C 0.39687 0.97485 0.13363 0.0
C173 C 0.34396 0.96316 0.13263 0.0
C174 C 0.32615 0.92965 0.11836 0.0
N175 N 0.43128 0.95392 0.12076 0.0
C176 C 0.41393 0.92108 0.10674 0.0
Co177 Co 0.21274 0.27092 0.33581 0.0
Co178 Co 0.29734 0.24648 0.37309 0.0
O179 O 0.28175 0.25041 0.34532 0.0
C180 C 0.25176 0.18767 0.30835 0.0
O181 O 0.28492 0.17075 0.32119 0.0
C182 C 0.39754 0.27818 0.35339 0.0
O183 O 0.37301 0.28899 0.33737 0.0
O184 O 0.27692 0.32116 0.3762 0.0
O185 O 0.2054 0.32248 0.35753 0.0
H186 H 0.25938 0.2708 0.44353 0.0
H187 H 0.30452 0.27685 0.30962 0.0
O188 O 0.21838 0.22233 0.31292 0.0
H189 H 0.22594 0.45151 0.30819 0.0
H190 H 0.07624 0.31229 0.28598 0.0
H191 H 0.11214 0.29068 0.35514 0.0
H192 H 0.18783 0.38214 0.32812 0.0
H193 H 0.1647 0.29159 0.29725 0.0
O194 O 0.37226 0.26577 0.36846 0.0
H195 H 0.2402 0.27411 0.40889 0.0
H196 H 0.38769 0.20847 0.39622 0.0
H197 H 0.02324 0.312 0.3445 0.0
H198 H 0.3431 0.3444 0.28911 0.0
H199 H 0.00476 0.32264 0.30969 0.0
H200 H 0.30393 0.43267 0.28832 0.0
O201 O 0.18024 0.21504 0.35184 0.0
H202 H 0.38638 0.09221 0.34254 0.0
H203 H 0.2691 0.14999 0.3943 0.0
H204 H 0.2899 0.05702 0.39113 0.0
H205 H 0.34927 0.0275 0.36518 0.0
H206 H 0.36345 0.18445 0.34586 0.0
H207 H 0.40864 0.2047 0.43072 0.0
H208 H 0.34426 0.23599 0.45468 0.0
O209 O 0.22443 0.22617 0.37918 0.0
C210 C 0.23445 0.34233 0.37056 0.0
C211 C 0.288 0.25752 0.43323 0.0
C212 C 0.37174 0.22047 0.42604 0.0
N213 N 0.31324 0.24301 0.40042 0.0
C214 C 0.27744 0.25963 0.41356 0.0
C215 C 0.3598 0.22319 0.40648 0.0
C216 C 0.33558 0.23793 0.43948 0.0
C217 C 0.28701 0.31492 0.30937 0.0
N218 N 0.2441 0.32548 0.32028 0.0
C219 C 0.30919 0.35317 0.29773 0.0
C220 C 0.28724 0.40268 0.29731 0.0
C221 C 0.24357 0.41329 0.30848 0.0
C222 C 0.22244 0.374 0.31992 0.0
C223 C 0.08381 0.30772 0.3012 0.0
C224 C 0.10456 0.29573 0.33998 0.0
C225 C 0.13382 0.29578 0.30766 0.0
N226 N 0.14371 0.29 0.32686 0.0
C227 C 0.05409 0.30767 0.33404 0.0
C228 C 0.04373 0.31361 0.3145 0.0
C229 C 0.1856 0.20866 0.36995 0.0
C230 C 0.36066 0.1046 0.35397 0.0
C231 C 0.29455 0.13764 0.38283 0.0
C232 C 0.30641 0.08483 0.38118 0.0
C233 C 0.33975 0.0683 0.36664 0.0
N234 N 0.31516 0.17318 0.37033 0.0
C235 C 0.34783 0.15709 0.35604 0.0
Co236 Co 0.98945 0.03722 0.44654 0.0
Co237 Co 0.0079 0.96647 0.40573 0.0
O238 O 0.00866 0.97249 0.4338 0.0
C239 C 0.07093 0.04747 0.4775 0.0
O240 O 0.08005 0.09554 0.47208 0.0
C241 C 0.97468 0.86345 0.42178 0.0
O242 O 0.95339 0.88668 0.43659 0.0
O243 O 0.93257 0.98581 0.40549 0.0
O244 O 0.93664 0.05365 0.42591 0.0
H245 H 0.96767 0.02549 0.33838 0.0
H246 H 0.98645 0.9393 0.46924 0.0
O247 O 0.04016 0.01908 0.46768 0.0
H248 H 0.80943 0.01166 0.47359 0.0
H249 H 0.94546 0.1521 0.50318 0.0
H250 H 0.97465 0.14536 0.43318 0.0
H251 H 0.87715 0.05678 0.45497 0.0
H252 H 0.96549 0.06893 0.48721 0.0
O253 O 0.99234 0.89004 0.40781 0.0
H254 H 0.97016 0.03302 0.37364 0.0
H255 H 0.04388 0.88563 0.37784 0.0
H256 H 0.95504 0.22943 0.44861 0.0
H257 H 0.92042 0.89368 0.4885 0.0
H258 H 0.94052 0.23322 0.48387 0.0
H259 H 0.83103 0.92972 0.49072 0.0
O260 O 0.04479 0.07413 0.43139 0.0
H261 H 0.1685 0.87748 0.43079 0.0
H262 H 0.09995 1.00181 0.38316 0.0
H263 H 0.1939 0.98344 0.38405 0.0
H264 H 0.22876 0.92064 0.40793 0.0
H265 H 0.07496 0.89757 0.42961 0.0
H266 H 0.04173 0.87629 0.34262 0.0
H267 H 1.00354 0.94658 0.3226 0.0
O268 O 0.02534 0.04142 0.40249 0.0
C269 C 0.91387 0.02802 0.41251 0.0
C270 C 0.98423 0.99447 0.34693 0.0
C271 C 0.0257 0.91072 0.34932 0.0
N272 N 0.00645 0.95956 0.37789 0.0
C273 C 0.98567 0.99848 0.36695 0.0
C274 C 0.02645 0.91609 0.3693 0.0
C275 C 0.00435 0.9502 0.3381 0.0
C276 C 0.94785 0.95559 0.47025 0.0
N277 N 0.93575 1.00069 0.46087 0.0
C278 C 0.9105 0.92937 0.48111 0.0
C279 C 0.86034 0.94955 0.48232 0.0
C280 C 0.84817 0.99544 0.47267 0.0
C281 C 0.88656 0.02058 0.46196 0.0
C282 C 0.95183 0.15099 0.48781 0.0
C283 C 0.96841 0.14665 0.44853 0.0
C284 C 0.96314 0.10397 0.47867 0.0
N285 N 0.97165 0.10226 0.45926 0.0
C286 C 0.95723 0.19437 0.45718 0.0
C287 C 0.94905 0.19647 0.47697 0.0
C288 C 0.04742 0.07523 0.41301 0.0
C289 C 0.15374 0.90468 0.42024 0.0
C290 C 0.11472 0.97443 0.39361 0.0
C291 C 0.16801 0.96417 0.39403 0.0
C292 C 0.18754 0.92896 0.40743 0.0
N293 N 0.0817 0.95026 0.40615 0.0
C294 C 0.10069 0.91601 0.41943 0.0
Co295 Co 0.225 0.73139 0.69745 0.0
Co296 Co 0.29612 0.74722 0.65661 0.0
O297 O 0.28992 0.74963 0.68467 0.0
C298 C 0.21503 0.81374 0.72814 0.0
O299 O 0.16699 0.82303 0.72272 0.0
C300 C 0.40053 0.71843 0.673 0.0
O301 O 0.37895 0.70346 0.68913 0.0
O302 O 0.27675 0.672 0.65703 0.0
O303 O 0.20842 0.6779 0.67713 0.0
H304 H 0.23689 0.70257 0.58968 0.0
H305 H 0.32248 0.72843 0.72041 0.0
O306 O 0.24331 0.78276 0.71834 0.0
H307 H 0.24921 0.55201 0.72539 0.0
H308 H 0.10957 0.68986 0.75417 0.0
H309 H 0.11687 0.71717 0.68407 0.0
H310 H 0.20473 0.61948 0.70639 0.0
H311 H 0.19288 0.70888 0.7382 0.0
O312 O 0.37252 0.73115 0.65865 0.0
H313 H 0.2295 0.70748 0.62491 0.0
H314 H 0.37683 0.7812 0.62835 0.0
H315 H 0.03264 0.69866 0.6995 0.0
H316 H 0.36752 0.66264 0.74003 0.0
H317 H 0.02857 0.68503 0.73481 0.0
H318 H 0.33101 0.57356 0.74258 0.0
O319 O 0.18859 0.78644 0.68194 0.0
H320 H 0.38426 0.90955 0.68051 0.0
H321 H 0.26152 0.83779 0.63305 0.0
H322 H 0.27989 0.93174 0.63308 0.0
H323 H 0.34192 0.96822 0.65685 0.0
H324 H 0.36414 0.81604 0.68021 0.0
H325 H 0.38603 0.77661 0.59315 0.0
H326 H 0.31569 0.7372 0.57353 0.0
O327 O 0.22127 0.76488 0.65324 0.0
C328 C 0.23433 0.65404 0.66405 0.0
C329 C 0.26792 0.71967 0.59806 0.0
C330 C 0.35163 0.76113 0.60002 0.0
N331 N 0.30292 0.74397 0.62879 0.0
C332 C 0.26399 0.7225 0.61806 0.0
C333 C 0.34634 0.76327 0.61999 0.0
C334 C 0.31212 0.73909 0.58902 0.0
C335 C 0.30606 0.68993 0.72152 0.0
N336 N 0.26105 0.67788 0.71211 0.0
C337 C 0.33192 0.65273 0.7326 0.0
C338 C 0.31147 0.60275 0.734 0.0
C339 C 0.26567 0.59061 0.72433 0.0
C340 C 0.24089 0.62885 0.7134 0.0
C341 C 0.1108 0.69585 0.73878 0.0
C342 C 0.11546 0.71138 0.69945 0.0
C343 C 0.15791 0.70658 0.72964 0.0
N344 N 0.15978 0.71458 0.7102 0.0
C345 C 0.06764 0.7008 0.7081 0.0
C346 C 0.06539 0.69313 0.72791 0.0
C347 C 0.18766 0.78807 0.66353 0.0
C348 C 0.35746 0.89406 0.66998 0.0
C349 C 0.28862 0.85323 0.64344 0.0
C350 C 0.29886 0.90653 0.64338 0.0
C351 C 0.33363 0.92698 0.65673 0.0
N352 N 0.31243 0.82104 0.6564 0.0
C353 C 0.34615 0.84097 0.66966 0.0
Co354 Co 0.53103 0.9697 0.94666 0.0
Co355 Co 0.5127 0.04045 0.90585 0.0
O356 O 0.51189 0.03444 0.93393 0.0
C357 C 0.44952 0.95957 0.97763 0.0
O358 O 0.44039 0.91148 0.97223 0.0
C359 C 0.54579 0.14352 0.92192 0.0
O360 O 0.56693 0.12033 0.93676 0.0
O361 O 0.58802 0.02109 0.90564 0.0
O362 O 0.58384 0.95321 0.92604 0.0
H363 H 0.55311 0.98137 0.83853 0.0
H364 H 0.53413 0.06758 0.96938 0.0
O365 O 0.48032 0.9879 0.96779 0.0
H366 H 0.71108 0.99503 0.97372 0.0
H367 H 0.57489 0.85478 1.00332 0.0
H368 H 0.54572 0.86153 0.93331 0.0
H369 H 0.64333 0.95004 0.95507 0.0
H370 H 0.55494 0.93796 0.98734 0.0
O371 O 0.52827 0.11689 0.90793 0.0
H372 H 0.55053 0.97388 0.87379 0.0
H373 H 0.47676 0.12126 0.87794 0.0
H374 H 0.56523 0.77745 0.94874 0.0
H375 H 0.6002 0.11308 0.98867 0.0
H376 H 0.57975 0.77365 0.984 0.0
H377 H 0.68955 0.07695 0.99089 0.0
O378 O 0.47565 0.93285 0.93152 0.0
H379 H 0.35205 0.12944 0.93087 0.0
H380 H 0.42068 0.00515 0.88325 0.0
H381 H 0.32674 0.02353 0.88412 0.0
H382 H 0.29184 0.08631 0.90799 0.0
H383 H 0.44559 0.10934 0.92972 0.0
H384 H 0.47901 0.13056 0.84272 0.0
H385 H 0.51726 0.06026 0.82272 0.0
O386 O 0.49522 0.9655 0.90262 0.0
C387 C 0.60666 0.97884 0.91265 0.0
C388 C 0.53652 0.0124 0.84707 0.0
C389 C 0.49503 0.09614 0.84943 0.0
N390 N 0.51421 0.04734 0.87802 0.0
C391 C 0.53502 0.00841 0.86708 0.0
C392 C 0.49422 0.09079 0.86941 0.0
C393 C 0.51641 0.05665 0.83822 0.0
C394 C 0.57272 0.05125 0.9704 0.0
N395 N 0.58477 0.00616 0.961 0.0
C396 C 0.61009 0.0774 0.98127 0.0
C397 C 0.66022 0.05717 0.98248 0.0
C398 C 0.67235 0.0113 0.97281 0.0
C399 C 0.63394 0.98622 0.96209 0.0
C400 C 0.56852 0.8559 0.98794 0.0
C401 C 0.55196 0.86025 0.94866 0.0
C402 C 0.55726 0.90292 0.9788 0.0
N403 N 0.54875 0.90464 0.95939 0.0
C404 C 0.56308 0.81251 0.95732 0.0
C405 C 0.57126 0.81041 0.9771 0.0
C406 C 0.47306 0.93173 0.91314 0.0
C407 C 0.36683 0.10225 0.92033 0.0
C408 C 0.4059 0.03252 0.8937 0.0
C409 C 0.35261 0.04279 0.8941 0.0
C410 C 0.33305 0.07799 0.9075 0.0
N411 N 0.43889 0.05668 0.90626 0.0
C412 C 0.41988 0.09091 0.91954 0.0
Co413 Co 0.29565 0.27678 0.19732 0.0
Co414 Co 0.22486 0.26088 0.15641 0.0
O415 O 0.23083 0.25845 0.18448 0.0
C416 C 0.30559 0.19441 0.228 0.0
O417 O 0.35366 0.18518 0.2226 0.0
C418 C 0.12068 0.29061 0.17265 0.0
O419 O 0.1425 0.30695 0.18856 0.0
O420 O 0.24406 0.33613 0.15685 0.0
O421 O 0.31226 0.33033 0.17701 0.0
H422 H 0.28444 0.30566 0.08953 0.0
H423 H 0.19796 0.27958 0.22015 0.0
O424 O 0.27731 0.22537 0.21819 0.0
H425 H 0.27096 0.45608 0.22527 0.0
H426 H 0.41069 0.31844 0.25414 0.0
H427 H 0.40383 0.29119 0.18403 0.0
H428 H 0.31569 0.38872 0.2063 0.0
H429 H 0.3275 0.29931 0.2381 0.0
O430 O 0.14847 0.27675 0.1584 0.0
H431 H 0.29159 0.30079 0.12477 0.0
H432 H 0.14441 0.22672 0.12807 0.0
H433 H 0.48794 0.30982 0.19953 0.0
H434 H 0.15268 0.34526 0.23974 0.0
H435 H 0.49178 0.32342 0.23484 0.0
H436 H 0.18905 0.43438 0.24236 0.0
O437 O 0.33225 0.2218 0.18183 0.0
H438 H 0.13649 0.09857 0.18017 0.0
H439 H 0.25991 0.17029 0.13293 0.0
H440 H 0.24166 0.0763 0.13298 0.0
H441 H 0.1793 0.03985 0.15664 0.0
H442 H 0.15649 0.19214 0.17985 0.0
H443 H 0.13545 0.23128 0.09286 0.0
H444 H 0.20583 0.27083 0.07331 0.0
O445 O 0.29976 0.24339 0.1531 0.0
C446 C 0.2864 0.35416 0.16392 0.0
C447 C 0.25339 0.28849 0.09789 0.0
C448 C 0.16976 0.24684 0.09976 0.0
N449 N 0.21824 0.26412 0.12858 0.0
C450 C 0.25719 0.28568 0.11788 0.0
C451 C 0.17493 0.24472 0.11974 0.0
C452 C 0.20929 0.26896 0.0888 0.0
C453 C 0.21434 0.31809 0.2213 0.0
N454 N 0.25941 0.33022 0.21195 0.0
C455 C 0.18834 0.35523 0.23236 0.0
C456 C 0.20871 0.40523 0.2338 0.0
C457 C 0.25458 0.41746 0.22418 0.0
C458 C 0.2795 0.37927 0.21327 0.0
C459 C 0.40955 0.31247 0.23874 0.0
C460 C 0.40514 0.29697 0.1994 0.0
C461 C 0.36252 0.30167 0.22956 0.0
N462 N 0.36076 0.29369 0.21012 0.0
C463 C 0.45289 0.30762 0.2081 0.0
C464 C 0.45502 0.31527 0.22791 0.0
C465 C 0.33331 0.2202 0.16343 0.0
C466 C 0.16347 0.11404 0.1697 0.0
C467 C 0.23269 0.15484 0.14329 0.0
C468 C 0.2225 0.10153 0.14323 0.0
C469 C 0.18755 0.0811 0.15651 0.0
N470 N 0.20866 0.18705 0.15618 0.0
C471 C 0.17472 0.16715 0.16937 0.0
Co472 Co 0.7285 0.23587 0.19497 0.0
Co473 Co 0.80159 0.26087 0.15506 0.0
O474 O 0.79371 0.25691 0.18305 0.0
C475 C 0.71588 0.3139 0.22707 0.0
O476 O 0.66815 0.32362 0.2214 0.0
C477 C 0.90496 0.22778 0.17131 0.0
O478 O 0.88245 0.20894 0.18669 0.0
O479 O 0.78197 0.18582 0.15285 0.0
O480 O 0.7141 0.18534 0.1734 0.0
H481 H 0.74665 0.23484 0.08626 0.0
H482 H 0.82548 0.23079 0.21816 0.0
O483 O 0.74492 0.28416 0.21705 0.0
H484 H 0.7539 0.05319 0.21958 0.0
H485 H 0.61059 0.18497 0.24993 0.0
H486 H 0.62158 0.22113 0.18045 0.0
H487 H 0.70872 0.12308 0.20203 0.0
H488 H 0.69446 0.20761 0.23502 0.0
O489 O 0.87781 0.24416 0.15726 0.0
H490 H 0.73666 0.2308 0.12142 0.0
H491 H 0.88471 0.3007 0.12889 0.0
H492 H 0.53687 0.19887 0.1948 0.0
H493 H 0.8712 0.16262 0.23642 0.0
H494 H 0.53093 0.18083 0.2298 0.0
H495 H 0.83562 0.07291 0.23712 0.0
O496 O 0.69165 0.29265 0.1805 0.0
H497 H 0.88872 0.4166 0.18478 0.0
H498 H 0.76805 0.35683 0.13439 0.0
H499 H 0.78656 0.45036 0.13761 0.0
H500 H 0.84754 0.48082 0.16288 0.0
H501 H 0.86854 0.32358 0.18127 0.0
H502 H 0.89651 0.30505 0.09382 0.0
H503 H 0.82715 0.27209 0.0722 0.0
O504 O 0.72705 0.27923 0.15156 0.0
C505 C 0.74029 0.16523 0.15955 0.0
C506 C 0.77733 0.24903 0.09552 0.0
C507 C 0.86143 0.28835 0.09976 0.0
N508 N 0.8104 0.26443 0.1273 0.0
C509 C 0.77194 0.24667 0.11548 0.0
C510 C 0.85467 0.28534 0.11965 0.0
C511 C 0.82247 0.26994 0.08764 0.0
C512 C 0.80951 0.19198 0.21846 0.0
N513 N 0.76475 0.18083 0.20874 0.0
C514 C 0.83572 0.15346 0.22879 0.0
C515 C 0.81579 0.10314 0.22915 0.0
C516 C 0.77005 0.09202 0.21927 0.0
C517 C 0.74493 0.13158 0.20912 0.0
C518 C 0.61263 0.19289 0.23467 0.0
C519 C 0.61936 0.21335 0.19569 0.0
C520 C 0.66005 0.20572 0.22613 0.0
N521 N 0.66293 0.21612 0.20687 0.0
C522 C 0.57127 0.20069 0.20373 0.0
C523 C 0.56797 0.19054 0.22337 0.0
C524 C 0.6917 0.2982 0.16221 0.0
C525 C 0.86239 0.40377 0.17361 0.0
C526 C 0.79472 0.36964 0.14541 0.0
C527 C 0.80503 0.42273 0.14716 0.0
C528 C 0.83922 0.43979 0.16134 0.0
N529 N 0.81794 0.33441 0.15739 0.0
C530 C 0.85107 0.35099 0.17147 0.0
Co531 Co 0.79162 0.77212 0.69488 0.0
Co532 Co 0.71943 0.7476 0.65472 0.0
O533 O 0.72667 0.75108 0.68275 0.0
C534 C 0.80393 0.69387 0.7269 0.0
O535 O 0.8517 0.68423 0.72125 0.0
C536 C 0.61614 0.78144 0.67068 0.0
O537 O 0.63881 0.80177 0.68576 0.0
O538 O 0.73881 0.82275 0.65275 0.0
O539 O 0.8064 0.82286 0.67342 0.0
H540 H 0.77572 0.77519 0.58617 0.0
H541 H 0.69415 0.77679 0.71778 0.0
O542 O 0.77491 0.7236 0.71686 0.0
H543 H 0.76529 0.95453 0.71964 0.0
H544 H 0.90835 0.82284 0.75021 0.0
H545 H 0.89882 0.78707 0.68067 0.0
H546 H 0.81095 0.88495 0.70209 0.0
H547 H 0.82481 0.80018 0.73504 0.0
O548 O 0.64316 0.76393 0.65678 0.0
H549 H 0.78493 0.77864 0.62136 0.0
H550 H 0.63705 0.70793 0.62822 0.0
H551 H 0.98321 0.80935 0.69528 0.0
H552 H 0.64795 0.84466 0.73603 0.0
H553 H 0.9884 0.8272 0.7303 0.0
H554 H 0.68331 0.93444 0.73695 0.0
O555 O 0.8288 0.71552 0.68042 0.0
H556 H 0.6318 0.59126 0.68374 0.0
H557 H 0.75387 0.65204 0.63399 0.0
H558 H 0.73555 0.5584 0.63697 0.0
H559 H 0.67387 0.52744 0.66192 0.0
H560 H 0.6518 0.68441 0.68048 0.0
H561 H 0.62603 0.70415 0.5931 0.0
H562 H 0.69571 0.73782 0.57177 0.0
O563 O 0.79412 0.72957 0.6514 0.0
C564 C 0.78042 0.84321 0.65956 0.0
C565 C 0.74492 0.76068 0.5953 0.0
C566 C 0.66091 0.7209 0.59919 0.0
N567 N 0.71124 0.74452 0.62694 0.0
C568 C 0.74986 0.76269 0.61527 0.0
C569 C 0.66722 0.72356 0.6191 0.0
C570 C 0.70004 0.7397 0.58723 0.0
C571 C 0.71007 0.81561 0.7182 0.0
N572 N 0.755 0.82696 0.70862 0.0
C573 C 0.68357 0.85397 0.72851 0.0
C574 C 0.70337 0.90434 0.72899 0.0
C575 C 0.74926 0.91567 0.71924 0.0
C576 C 0.77466 0.87627 0.7091 0.0
C577 C 0.90662 0.81501 0.73493 0.0
C578 C 0.90071 0.79476 0.69592 0.0
C579 C 0.8594 0.80217 0.72625 0.0
N580 N 0.85692 0.79187 0.70698 0.0
C581 C 0.94862 0.80744 0.70411 0.0
C582 C 0.95151 0.81748 0.72376 0.0
C583 C 0.82914 0.71027 0.66212 0.0
C584 C 0.65846 0.6043 0.67272 0.0
C585 C 0.72693 0.63899 0.64488 0.0
C586 C 0.71671 0.58585 0.64649 0.0
C587 C 0.68214 0.56851 0.66049 0.0
N588 N 0.70327 0.67398 0.65684 0.0
C589 C 0.66971 0.65714 0.67072 0.0
Co590 Co 0.80342 0.23582 0.33621 0.0
Co591 Co 0.71758 0.26314 0.37286 0.0
O592 O 0.73405 0.25683 0.34522 0.0
C593 C 0.76559 0.31758 0.30794 0.0
O594 O 0.7327 0.33584 0.32063 0.0
C595 C 0.61763 0.23026 0.35315 0.0
O596 O 0.64208 0.22012 0.33705 0.0
O597 O 0.73839 0.18887 0.37701 0.0
O598 O 0.81027 0.18609 0.35852 0.0
H599 H 0.75321 0.24588 0.44376 0.0
H600 H 0.71258 0.22757 0.30974 0.0
O601 O 0.79822 0.28249 0.31278 0.0
H602 H 0.79084 0.05273 0.31097 0.0
H603 H 0.94143 0.19056 0.28743 0.0
H604 H 0.90345 0.21773 0.35616 0.0
H605 H 0.82886 0.12411 0.32994 0.0
H606 H 0.85266 0.21229 0.29808 0.0
O607 O 0.64294 0.24281 0.36821 0.0
H608 H 0.77369 0.2397 0.40928 0.0
H609 H 0.62608 0.30249 0.39507 0.0
H610 H 0.99262 0.19539 0.34613 0.0
H611 H 0.67399 0.15788 0.2902 0.0
H612 H 0.01215 0.18193 0.31153 0.0
H613 H 0.71298 0.06951 0.29077 0.0
O614 O 0.83535 0.29309 0.3517 0.0
H615 H 0.6286 0.41439 0.3402 0.0
H616 H 0.74478 0.36146 0.39301 0.0
H617 H 0.72339 0.45398 0.38879 0.0
H618 H 0.66455 0.48107 0.36231 0.0
H619 H 0.65209 0.32267 0.34457 0.0
H620 H 0.6038 0.3092 0.42938 0.0
H621 H 0.66757 0.28079 0.45405 0.0
O622 O 0.79021 0.28439 0.37896 0.0
C623 C 0.78093 0.16727 0.37166 0.0
C624 C 0.72484 0.25787 0.43316 0.0
C625 C 0.64102 0.29336 0.42509 0.0
N626 N 0.70068 0.26903 0.40006 0.0
C627 C 0.73613 0.25404 0.41358 0.0
C628 C 0.65372 0.28897 0.40563 0.0
C629 C 0.67684 0.27751 0.43892 0.0
C630 C 0.72995 0.18943 0.31008 0.0
N631 N 0.77265 0.17992 0.32122 0.0
C632 C 0.70781 0.14999 0.29898 0.0
C633 C 0.72967 0.10043 0.29932 0.0
C634 C 0.77327 0.09097 0.31067 0.0
C635 C 0.79435 0.13141 0.32155 0.0
C636 C 0.9334 0.19636 0.30255 0.0
C637 C 0.91148 0.21147 0.34109 0.0
C638 C 0.88322 0.20889 0.30867 0.0
N639 N 0.87274 0.2162 0.32775 0.0
C640 C 0.96211 0.19895 0.3355 0.0
C641 C 0.97305 0.19143 0.31608 0.0
C642 C 0.82943 0.30094 0.3697 0.0
C643 C 0.65403 0.40306 0.35187 0.0
C644 C 0.71952 0.37273 0.38132 0.0
C645 C 0.70735 0.4253 0.37907 0.0
C646 C 0.67431 0.44047 0.36424 0.0
N647 N 0.69945 0.33607 0.36915 0.0
C648 C 0.66714 0.35085 0.35455 0.0
Co649 Co 0.71684 0.77151 0.83618 0.0
Co650 Co 0.8028 0.74379 0.87275 0.0
O651 O 0.78623 0.75036 0.84513 0.0
C652 C 0.75443 0.68993 0.80779 0.0
O653 O 0.7873 0.67148 0.82045 0.0
C654 C 0.90279 0.7766 0.85303 0.0
O655 O 0.87838 0.78662 0.83692 0.0
O656 O 0.78206 0.81804 0.877 0.0
O657 O 0.71011 0.82104 0.85855 0.0
H658 H 0.76747 0.76043 0.94369 0.0
H659 H 0.80759 0.77991 0.80968 0.0
O660 O 0.7219 0.72506 0.81268 0.0
H661 H 0.72951 0.95483 0.81117 0.0
H662 H 0.57867 0.81735 0.78752 0.0
H663 H 0.6169 0.78948 0.8562 0.0
H664 H 0.69147 0.8833 0.83006 0.0
H665 H 0.66747 0.79546 0.79811 0.0
O666 O 0.87745 0.76412 0.86809 0.0
H667 H 0.74687 0.76695 0.90922 0.0
H668 H 0.89435 0.70416 0.89486 0.0
H669 H 0.5277 0.812 0.84625 0.0
H670 H 0.84621 0.84976 0.79022 0.0
H671 H 0.50805 0.82581 0.81168 0.0
H672 H 0.80731 0.93816 0.79093 0.0
O673 O 0.68492 0.71412 0.85161 0.0
H674 H 0.89146 0.5927 0.83986 0.0
H675 H 0.77561 0.64534 0.8928 0.0
H676 H 0.79689 0.55283 0.88847 0.0
H677 H 0.85556 0.52589 0.86192 0.0
H678 H 0.86807 0.68441 0.84434 0.0
H679 H 0.91677 0.69711 0.92915 0.0
H680 H 0.85312 0.72535 0.95389 0.0
O681 O 0.73018 0.72255 0.87886 0.0
C682 C 0.73951 0.83972 0.87171 0.0
C683 C 0.7958 0.74852 0.93306 0.0
C684 C 0.87955 0.71302 0.9249 0.0
N685 N 0.8198 0.73764 0.89993 0.0
C686 C 0.78443 0.75254 0.91349 0.0
C687 C 0.86677 0.71761 0.90546 0.0
C688 C 0.8438 0.72878 0.93877 0.0
C689 C 0.79027 0.81807 0.81008 0.0
N690 N 0.7476 0.82751 0.82124 0.0
C691 C 0.81242 0.8576 0.79903 0.0
C692 C 0.79061 0.90718 0.79944 0.0
C693 C 0.74705 0.91657 0.81082 0.0
C694 C 0.72595 0.87604 0.82165 0.0
C695 C 0.58675 0.8114 0.80263 0.0
C696 C 0.60881 0.7959 0.84114 0.0
C697 C 0.63695 0.79877 0.80871 0.0
N698 N 0.64749 0.79127 0.82778 0.0
C699 C 0.55817 0.80852 0.83559 0.0
C700 C 0.54716 0.81624 0.81619 0.0
C701 C 0.6909 0.70612 0.8696 0.0
C702 C 0.8661 0.60397 0.85156 0.0
C703 C 0.80081 0.63414 0.88109 0.0
C704 C 0.81291 0.58157 0.87878 0.0
C705 C 0.84586 0.56649 0.8639 0.0
N706 N 0.82085 0.67087 0.86894 0.0
C707 C 0.85306 0.65618 0.8543 0.0
Co708 Co 0.49158 0.46863 0.08759 0.0
Co709 Co 0.52103 0.55099 0.12478 0.0
O710 O 0.51339 0.53627 0.0973 0.0
C711 C 0.56798 0.4498 0.05519 0.0
O712 O 0.5771 0.4025 0.06149 0.0
C713 C 0.48622 0.65099 0.1058 0.0
O714 O 0.47124 0.62614 0.09034 0.0
O715 O 0.44687 0.53021 0.12917 0.0
O716 O 0.44234 0.4595 0.10991 0.0
H717 H 0.50694 0.51252 0.19558 0.0
H718 H 0.48528 0.56017 0.06147 0.0
O719 O 0.53879 0.48029 0.06482 0.0
H720 H 0.30772 0.48883 0.06379 0.0
H721 H 0.4376 0.33911 0.03675 0.0
H722 H 0.47654 0.36547 0.10545 0.0
H723 H 0.37874 0.44744 0.08203 0.0
H724 H 0.46167 0.42588 0.04888 0.0
O725 O 0.5015 0.62603 0.12059 0.0
H726 H 0.49904 0.49351 0.16102 0.0
H727 H 0.562 0.64124 0.14724 0.0
H728 H 0.45252 0.27809 0.09392 0.0
H729 H 0.41596 0.60193 0.04253 0.0
H730 H 0.43317 0.2644 0.05933 0.0
H731 H 0.32627 0.56649 0.04371 0.0
O732 O 0.54876 0.43425 0.1026 0.0
H733 H 0.67036 0.63337 0.08918 0.0
H734 H 0.62036 0.52514 0.14464 0.0
H735 H 0.71276 0.54495 0.13911 0.0
H736 H 0.73832 0.59975 0.11129 0.0
H737 H 0.57861 0.61199 0.09503 0.0
H738 H 0.57042 0.66207 0.18163 0.0
H739 H 0.54281 0.59749 0.20611 0.0
O740 O 0.54204 0.47807 0.13026 0.0
C741 C 0.42457 0.48825 0.1235 0.0
C742 C 0.51858 0.54125 0.18506 0.0
C743 C 0.55416 0.62515 0.17723 0.0
N744 N 0.52835 0.56667 0.15203 0.0
C745 C 0.51377 0.53079 0.16544 0.0
C746 C 0.54878 0.61328 0.15774 0.0
C747 C 0.53876 0.58887 0.19096 0.0
C748 C 0.44645 0.54438 0.06206 0.0
N749 N 0.4359 0.50197 0.07321 0.0
C750 C 0.40729 0.5683 0.05131 0.0
C751 C 0.35698 0.54843 0.05199 0.0
C752 C 0.34652 0.50498 0.0633 0.0
C753 C 0.3867 0.4821 0.07383 0.0
C754 C 0.4461 0.34455 0.05185 0.0
C755 C 0.46811 0.35989 0.09037 0.0
C756 C 0.45979 0.3936 0.05881 0.0
N757 N 0.47095 0.40075 0.07785 0.0
C758 C 0.45447 0.31031 0.08393 0.0
C759 C 0.44357 0.30266 0.06452 0.0
C760 C 0.55744 0.43902 0.12063 0.0
C761 C 0.65967 0.60988 0.10147 0.0
C762 C 0.631 0.54917 0.13252 0.0
C763 C 0.68348 0.56021 0.12946 0.0
C764 C 0.69779 0.59092 0.11385 0.0
N765 N 0.59367 0.56841 0.12045 0.0
C766 C 0.60757 0.59796 0.10495 0.0
Co767 Co 0.02924 0.53959 0.58762 0.0
Co768 Co 0.99977 0.45719 0.6248 0.0
O769 O 0.00749 0.47192 0.59732 0.0
C770 C 0.95284 0.55821 0.55518 0.0
O771 O 0.94364 0.60554 0.56144 0.0
C772 C 0.03488 0.35728 0.60584 0.0
O773 O 0.05006 0.38219 0.59042 0.0
O774 O 0.07389 0.47807 0.62922 0.0
O775 O 0.07841 0.54879 0.60996 0.0
H776 H 0.01353 0.49568 0.6956 0.0
H777 H 0.03575 0.44806 0.5615 0.0
O778 O 0.9821 0.52783 0.56484 0.0
H779 H 0.21318 0.51969 0.56389 0.0
H780 H 0.08307 0.6692 0.53678 0.0
H781 H 0.0441 0.64277 0.60548 0.0
H782 H 0.14205 0.56095 0.5821 0.0
H783 H 0.05913 0.58239 0.54891 0.0
O784 O 0.0194 0.38218 0.62061 0.0
H785 H 0.02155 0.51471 0.66105 0.0
H786 H 0.95882 0.36691 0.64723 0.0
H787 H 0.068 0.73019 0.59396 0.0
H788 H 0.10519 0.40642 0.54259 0.0
H789 H 0.08736 0.74392 0.55936 0.0
H790 H 0.19482 0.44201 0.5438 0.0
O791 O 0.97197 0.57391 0.60261 0.0
H792 H 0.85071 0.37462 0.5891 0.0
H793 H 0.90032 0.48293 0.64459 0.0
H794 H 0.80797 0.46302 0.639 0.0
H795 H 0.7826 0.40818 0.61116 0.0
H796 H 0.94241 0.3961 0.59501 0.0
H797 H 0.95028 0.34606 0.68161 0.0
H798 H 0.97772 0.41067 0.70611 0.0
O799 O 0.97865 0.53008 0.63026 0.0
C800 C 0.09617 0.52005 0.62355 0.0
C801 C 1.00197 0.46694 0.68507 0.0
C802 C 0.96651 0.383 0.67722 0.0
N803 N 0.99237 0.4415 0.65204 0.0
C804 C 0.00685 0.47741 0.66546 0.0
C805 C 0.97196 0.39488 0.65774 0.0
C806 C 0.98182 0.41929 0.69096 0.0
C807 C 0.07456 0.46391 0.5621 0.0
N808 N 0.085 0.50634 0.57326 0.0
C809 C 0.11378 0.44007 0.55137 0.0
C810 C 0.16406 0.46002 0.55207 0.0
C811 C 0.17442 0.50348 0.56338 0.0
C812 C 0.13416 0.52629 0.57389 0.0
C813 C 0.07457 0.66374 0.55188 0.0
C814 C 0.05254 0.64836 0.5904 0.0
C815 C 0.06094 0.61466 0.55884 0.0
N816 N 0.04978 0.6075 0.57788 0.0
C817 C 0.06611 0.69797 0.58397 0.0
C818 C 0.07702 0.70564 0.56456 0.0
C819 C 0.96325 0.56913 0.62063 0.0
C820 C 0.86131 0.39813 0.60139 0.0
C821 C 0.88976 0.45888 0.63246 0.0
C822 C 0.83731 0.44778 0.62937 0.0
C823 C 0.82311 0.41705 0.61375 0.0
N824 N 0.92717 0.43968 0.62042 0.0
C825 C 0.91338 0.41011 0.60492 0.0
Co826 Co 0.49157 0.54246 0.94669 0.0
Co827 Co 0.51259 0.46358 0.90771 0.0
O828 O 0.51054 0.47461 0.9358 0.0
C829 C 0.57176 0.4965 0.97412 0.0
O830 O 0.58454 0.46071 0.96157 0.0
C831 C 0.4845 0.36005 0.92565 0.0
O832 O 0.4746 0.38214 0.94222 0.0
O833 O 0.43765 0.48378 0.90591 0.0
O834 O 0.44006 0.55408 0.92517 0.0
H835 H 0.48175 0.51254 0.83856 0.0
H836 H 0.48254 0.44654 0.97081 0.0
O837 O 0.54024 0.53278 0.9694 0.0
H838 H 0.31051 0.53012 0.97388 0.0
H839 H 0.45392 0.67283 0.9991 0.0
H840 H 0.47448 0.64617 0.92933 0.0
H841 H 0.38126 0.56952 0.95505 0.0
H842 H 0.47191 0.58547 0.98612 0.0
O843 O 0.49463 0.38765 0.9109 0.0
H844 H 0.48066 0.52584 0.87359 0.0
H845 H 0.54954 0.37753 0.88219 0.0
H846 H 0.45608 0.73413 0.94171 0.0
H847 H 0.41355 0.40644 0.99017 0.0
H848 H 0.44599 0.74796 0.97684 0.0
H849 H 0.32656 0.44811 0.99179 0.0
O850 O 0.54835 0.57541 0.93124 0.0
H851 H 0.67057 0.37347 0.93505 0.0
H852 H 0.60676 0.49576 0.88588 0.0
H853 H 0.70021 0.47614 0.88769 0.0
H854 H 0.73278 0.41433 0.91234 0.0
H855 H 0.57778 0.39497 0.93303 0.0
H856 H 0.55095 0.36245 0.84725 0.0
H857 H 0.51699 0.43025 0.82513 0.0
O858 O 0.53161 0.5377 0.90299 0.0
C859 C 0.41829 0.52662 0.91206 0.0
C860 C 0.49635 0.48253 0.84804 0.0
C861 C 0.5351 0.3983 0.85292 0.0
N862 N 0.51392 0.45216 0.88005 0.0
C863 C 0.49565 0.48978 0.86793 0.0
C864 C 0.53377 0.40693 0.87274 0.0
C865 C 0.51613 0.43638 0.84052 0.0
C866 C 0.44513 0.46522 0.97143 0.0
N867 N 0.43613 0.51034 0.96161 0.0
C868 C 0.40601 0.44215 0.98242 0.0
C869 C 0.35722 0.46549 0.9833 0.0
C870 C 0.34817 0.51142 0.97324 0.0
C871 C 0.38828 0.53335 0.96242 0.0
C872 C 0.45832 0.66732 0.98376 0.0
C873 C 0.46971 0.65175 0.94462 0.0
C874 C 0.4687 0.61793 0.97632 0.0
N875 N 0.47425 0.61063 0.95696 0.0
C876 C 0.45941 0.70169 0.95155 0.0
C877 C 0.45379 0.70944 0.97127 0.0
C878 C 0.55258 0.57338 0.91296 0.0
C879 C 0.65686 0.4003 0.92419 0.0
C880 C 0.62043 0.46907 0.89676 0.0
C881 C 0.67351 0.45797 0.89765 0.0
C882 C 0.69175 0.42329 0.91147 0.0
N883 N 0.58626 0.44637 0.90928 0.0
C884 C 0.60405 0.41242 0.92288 0.0
Co885 Co 0.02885 0.46462 0.44677 0.0
Co886 Co 0.00789 0.54337 0.40775 0.0
O887 O 0.00991 0.53244 0.43585 0.0
C888 C 0.94871 0.51074 0.47417 0.0
O889 O 0.93589 0.54642 0.46159 0.0
C890 C 0.03595 0.64696 0.42565 0.0
O891 O 0.04583 0.62492 0.44224 0.0
O892 O 0.08282 0.52317 0.40599 0.0
O893 O 0.08033 0.45288 0.42524 0.0
H894 H 0.03884 0.49414 0.33864 0.0
H895 H 0.03798 0.5606 0.47084 0.0
O896 O 0.98022 0.47443 0.46948 0.0
H897 H 0.20995 0.4769 0.47393 0.0
H898 H 0.06646 0.33439 0.49923 0.0
H899 H 0.04583 0.36083 0.42945 0.0
H900 H 0.13915 0.4375 0.45512 0.0
H901 H 0.04852 0.42172 0.48621 0.0
O902 O 0.02584 0.6193 0.41091 0.0
H903 H 0.0399 0.48099 0.37368 0.0
H904 H 0.97095 0.6293 0.38218 0.0
H905 H 0.06416 0.2729 0.44187 0.0
H906 H 0.10701 0.60071 0.49018 0.0
H907 H 0.07429 0.25918 0.477 0.0
H908 H 0.19398 0.55898 0.4918 0.0
O909 O 0.97202 0.43167 0.43134 0.0
H910 H 0.84986 0.63357 0.43502 0.0
H911 H 0.91374 0.5111 0.38592 0.0
H912 H 0.82028 0.53072 0.38771 0.0
H913 H 0.78768 0.59261 0.41232 0.0
H914 H 0.94266 0.61207 0.43302 0.0
H915 H 0.96957 0.64424 0.34723 0.0
H916 H 1.00359 0.57636 0.32516 0.0
O917 O 0.98887 0.46923 0.40308 0.0
C918 C 0.10215 0.48032 0.41214 0.0
C919 C 0.02422 0.52419 0.3481 0.0
C920 C 0.98542 0.60842 0.35293 0.0
N921 N 0.00659 0.55467 0.38009 0.0
C922 C 0.02489 0.51702 0.368 0.0
C923 C 0.98673 0.59987 0.37275 0.0
C924 C 0.00442 0.5703 0.34055 0.0
C925 C 0.07537 0.54189 0.47147 0.0
N926 N 0.08433 0.49674 0.46166 0.0
C927 C 0.11452 0.56497 0.48244 0.0
C928 C 0.1633 0.54159 0.48333 0.0
C929 C 0.1723 0.49563 0.47328 0.0
C930 C 0.13217 0.4737 0.46248 0.0
C931 C 0.06205 0.33986 0.48389 0.0
C932 C 0.05062 0.3553 0.44475 0.0
C933 C 0.05169 0.38922 0.47643 0.0
N934 N 0.04612 0.39647 0.45706 0.0
C935 C 0.06088 0.30537 0.4517 0.0
C936 C 0.06652 0.29769 0.47141 0.0
C937 C 0.96783 0.43362 0.41305 0.0
C938 C 0.86359 0.6067 0.42417 0.0
C939 C 0.90006 0.53783 0.39679 0.0
C940 C 0.84698 0.54892 0.39767 0.0
C941 C 0.82872 0.58365 0.41146 0.0
N942 N 0.93421 0.56058 0.4093 0.0
C943 C 0.9164 0.59458 0.42288 0.0
C944 C 0.99955 0.22051 0.62112 0.0
C945 C 0.99598 0.19451 0.60339 0.0
H946 H 0.01576 0.29164 0.63582 0.0
C947 C 0.00686 0.22223 0.58644 0.0
H948 H 0.99171 0.2003 0.63447 0.0
C949 C 0.02142 0.27465 0.58724 0.0
C950 C 0.02493 0.30057 0.605 0.0
H951 H 0.0052 0.2032 0.57257 0.0
H952 H 0.02908 0.29503 0.57392 0.0
C953 C 0.01371 0.27286 0.62191 0.0
C954 C 0.98676 0.75978 0.8356 0.0
C955 C 0.95973 0.76734 0.85295 0.0
H956 H 0.05911 0.74035 0.82208 0.0
C957 C 0.98657 0.76045 0.87038 0.0
H958 H 0.96713 0.76405 0.82191 0.0
C959 C 0.03901 0.74632 0.87047 0.0
C960 C 0.06606 0.73852 0.85315 0.0
H961 H 0.96698 0.76571 0.88402 0.0
H962 H 0.05839 0.74168 0.88419 0.0
C963 C 0.0393 0.74532 0.83569 0.0
C964 C 0.50717 0.73537 0.12195 0.0
C965 C 0.4962 0.7077 0.10501 0.0
H966 H 0.529 0.8079 0.13458 0.0
C967 C 0.5 0.73366 0.08727 0.0
H968 H 0.50489 0.71655 0.13585 0.0
C969 C 0.51461 0.78607 0.08651 0.0
C970 C 0.52524 0.81375 0.10349 0.0
H971 H 0.49255 0.71331 0.07392 0.0
H972 H 0.51651 0.80513 0.07264 0.0
C973 C 0.52136 0.78772 0.12121 0.0
C974 C 0.53374 0.24708 0.33566 0.0
C975 C 0.5607 0.23956 0.35303 0.0
H976 H 0.46146 0.26651 0.3221 0.0
C977 C 0.53382 0.24655 0.37044 0.0
H978 H 0.55341 0.24274 0.32199 0.0
C979 C 0.4814 0.26073 0.37051 0.0
C980 C 0.45441 0.26849 0.35317 0.0
H981 H 0.55336 0.24133 0.3841 0.0
H982 H 0.46197 0.26544 0.38421 0.0
C983 C 0.48122 0.26159 0.33573 0.0
C984 C 0.99106 0.78165 0.44052 0.0
C985 C 0.98807 0.80741 0.42273 0.0
H986 H 0.0101 0.71134 0.45549 0.0
C987 C 1.0031 0.78051 0.40602 0.0
H988 H 0.98057 0.80149 0.4537 0.0
C989 C 0.02013 0.72893 0.40705 0.0
C990 C 0.02338 0.70321 0.42484 0.0
H991 H 1.00168 0.79935 0.39211 0.0
H992 H 0.03058 0.70909 0.39386 0.0
C993 C 0.00888 0.73025 0.44158 0.0
C994 C 0.48201 0.7387 0.65482 0.0
C995 C 0.45646 0.73189 0.6725 0.0
H996 H 0.55229 0.76016 0.64038 0.0
C997 C 0.48334 0.74344 0.68957 0.0
H998 H 0.46222 0.73057 0.64141 0.0
C999 C 0.53453 0.76178 0.68895 0.0
C1000 C 0.56019 0.76812 0.67127 0.0
H1001 H 0.46449 0.73942 0.70341 0.0
H1002 H 0.55436 0.76984 0.70236 0.0
C1003 C 0.53344 0.75612 0.65422 0.0
C1004 C 0.5115 0.27679 0.94163 0.0
C1005 C 0.49707 0.30378 0.92487 0.0
H1006 H 0.53973 0.20559 0.9538 0.0
C1007 C 0.50041 0.27801 0.90709 0.0
H1008 H 0.51021 0.29574 0.95553 0.0
C1009 C 0.51744 0.22641 0.9061 0.0
C1010 C 0.53238 0.19957 0.92283 0.0
H1011 H 0.49001 0.29781 0.89389 0.0
H1012 H 0.51892 0.20753 0.89219 0.0
C1013 C 0.52931 0.22538 0.94061 0.0
C1014 C 0.03899 0.26904 0.15481 0.0
C1015 C 0.06472 0.27723 0.17238 0.0
H1016 H 0.96855 0.24652 0.1407 0.0
C1017 C 0.03799 0.2671 0.1896 0.0
H1018 H 0.05866 0.27606 0.1413 0.0
C1019 C 0.98677 0.24881 0.18925 0.0
C1020 C 0.96093 0.24108 0.17168 0.0
H1021 H 0.05699 0.27221 0.20337 0.0
H1022 H 0.96707 0.24186 0.20277 0.0
C1023 C 0.98754 0.25166 0.15447 0.0
C1024 C 0.07126 0.97965 0.50357 0.0
C1025 C 0.08459 0.03003 0.49736 0.0
H1026 H 0.05967 0.92815 0.52737 0.0
C1027 C 0.10396 0.06531 0.51106 0.0
H1028 H 0.05681 0.95109 0.49347 0.0
C1029 C 0.10595 0.05189 0.53062 0.0
C1030 C 0.08838 1.00295 0.53698 0.0
H1031 H 0.11465 0.10441 0.50687 0.0
H1032 H 0.11806 0.08116 0.54087 0.0
C1033 C 0.07296 0.96637 0.52309 0.0
C1034 C 0.29567 0.81437 0.77382 0.0
C1035 C 0.25913 0.83011 0.78768 0.0
H1036 H 0.31113 0.79854 0.7442 0.0
C1037 C 0.21047 0.8484 0.78129 0.0
H1038 H 0.33367 0.80052 0.77814 0.0
C1039 C 0.19721 0.84679 0.76171 0.0
C1040 C 0.23242 0.82716 0.74802 0.0
H1041 H 0.18125 0.86076 0.79153 0.0
H1042 H 0.15827 0.85799 0.75749 0.0
C1043 C 0.2826 0.81317 0.75428 0.0
C1044 C 0.41467 0.95543 0.03076 0.0
C1045 C 0.4321 0.00447 0.03706 0.0
H1046 H 0.40606 0.9027 1.00707 0.0
C1047 C 0.44734 0.04101 0.02312 0.0
H1048 H 0.40269 0.92619 0.04105 0.0
C1049 C 0.44901 0.02759 1.00361 0.0
C1050 C 0.43584 0.97711 0.99746 0.0
H1051 H 0.46051 0.0793 0.02736 0.0
H1052 H 0.46334 0.05612 0.99348 0.0
C1053 C 0.41663 0.94187 1.01121 0.0
C1054 C 0.32332 0.16112 0.26154 0.0
C1055 C 0.28816 0.18093 0.24787 0.0
H1056 H 0.33922 0.14685 0.29135 0.0
C1057 C 0.238 0.19496 0.25413 0.0
H1058 H 0.36224 0.14987 0.25731 0.0
C1059 C 0.22491 0.1936 0.27367 0.0
C1060 C 0.26139 0.17766 0.28752 0.0
H1061 H 0.20951 0.20973 0.24407 0.0
H1062 H 0.18692 0.20748 0.278 0.0
C1063 C 0.31004 0.15936 0.28112 0.0
C1064 C 0.78168 0.31035 0.2538 0.0
C1065 C 0.73224 0.32581 0.24721 0.0
H1066 H 0.83118 0.29614 0.27799 0.0
C1067 C 0.69675 0.34595 0.26069 0.0
H1068 H 0.81039 0.29519 0.2439 0.0
C1069 C 0.70903 0.34698 0.28037 0.0
C1070 C 0.75695 0.32755 0.28706 0.0
H1071 H 0.65837 0.35827 0.25621 0.0
H1072 H 0.67964 0.36 0.29043 0.0
C1073 C 0.79374 0.31094 0.27343 0.0
C1074 C 0.82298 0.66154 0.76048 0.0
C1075 C 0.78755 0.68194 0.74703 0.0
H1076 H 0.84012 0.64721 0.7902 0.0
C1077 C 0.73822 0.69763 0.75366 0.0
H1078 H 0.86129 0.64904 0.75598 0.0
C1079 C 0.72622 0.69697 0.77329 0.0
C1080 C 0.76297 0.68009 0.78689 0.0
H1081 H 0.70956 0.71301 0.74379 0.0
H1082 H 0.68887 0.71194 0.77788 0.0
C1083 C 0.81077 0.66045 0.78017 0.0
C1084 C 0.56985 0.52628 1.00853 0.0
C1085 C 0.58229 0.48771 0.99497 0.0
H1086 H 0.55705 0.54509 0.03809 0.0
C1087 C 0.59775 0.43843 1.00175 0.0
H1088 H 0.55828 0.5648 1.00391 0.0
C1089 C 0.5967 0.42689 0.0215 0.0
C1090 C 0.58039 0.46442 0.03493 0.0
H1091 H 0.60755 0.40767 0.99176 0.0
H1092 H 0.60573 0.38767 0.02608 0.0
C1093 C 0.56908 0.51486 0.02822 0.0
C1094 C 0.95166 0.49291 0.52829 0.0
C1095 C 0.94037 0.54341 0.53495 0.0
H1096 H 0.96236 0.44273 0.50405 0.0
C1097 C 0.92398 0.58081 0.52147 0.0
H1098 H 0.96374 0.46278 0.5382 0.0
C1099 C 0.92284 0.56907 0.50175 0.0
C1100 C 0.93828 0.51973 0.49502 0.0
H1101 H 0.91495 0.62006 0.52601 0.0
H1102 H 0.91298 0.59973 0.49172 0.0
C1103 C 0.9508 0.48129 0.50863 0.0
C1104 C 0.14181 0.8115 0.63294 0.0
C1105 C 0.14786 0.8186 0.65297 0.0
H1106 H 0.10806 0.83904 0.60668 0.0
C1107 C 0.11941 0.85803 0.66201 0.0
H1108 H 0.16256 0.78097 0.62546 0.0
C1109 C 0.08809 0.89141 0.65113 0.0
C1110 C 0.08437 0.88614 0.63094 0.0
H1111 H 0.123 0.86452 0.67734 0.0
H1112 H 0.06799 0.92238 0.65859 0.0
C1113 C 0.1105 0.84481 0.62207 0.0
C1114 C 0.36878 0.83278 0.90149 0.0
C1115 C 0.37406 0.82787 0.88134 0.0
H1116 H 0.39609 0.86876 0.92743 0.0
C1117 C 0.41572 0.85291 0.87229 0.0
H1118 H 0.33755 0.81356 0.90908 0.0
C1119 C 0.44937 0.88438 0.88292 0.0
C1120 C 0.44231 0.8916 0.90288 0.0
H1121 H 0.4215 0.84951 0.85691 0.0
H1122 H 0.48014 0.90433 0.8753 0.0
C1123 C 0.40256 0.86419 0.91214 0.0
C1124 C 0.41054 0.16337 0.12201 0.0
C1125 C 0.43671 0.1221 0.13089 0.0
H1126 H 0.35844 0.22719 0.12536 0.0
C1127 C 0.43303 0.11693 0.15109 0.0
H1128 H 0.41296 0.16907 0.1066 0.0
C1129 C 0.40168 0.15033 0.16195 0.0
C1130 C 0.37318 0.18969 0.15288 0.0
H1131 H 0.45318 0.08603 0.15857 0.0
H1132 H 0.3981 0.14391 0.17729 0.0
C1133 C 0.37922 0.19672 0.13286 0.0
C1134 C 0.11783 0.14286 0.41202 0.0
C1135 C 0.07813 0.1154 0.40276 0.0
H1136 H 0.18278 0.19356 0.40899 0.0
C1137 C 0.07109 0.12261 0.3828 0.0
H1138 H 0.12428 0.1383 0.42732 0.0
C1139 C 0.10473 0.15412 0.37217 0.0
C1140 C 0.14635 0.17921 0.38123 0.0
H1141 H 0.04036 0.10263 0.37518 0.0
H1142 H 0.09897 0.1575 0.35679 0.0
C1143 C 0.15159 0.1743 0.40138 0.0
C1144 C 0.84006 0.09201 0.41271 0.0
C1145 C 0.8689 0.05377 0.4029 0.0
H1146 H 0.78632 0.155 0.41078 0.0
C1147 C 0.85927 0.04655 0.38319 0.0
H1148 H 0.84563 0.09837 0.42793 0.0
C1149 C 0.82727 0.08136 0.37313 0.0
C1150 C 0.80215 0.1225 0.38271 0.0
H1151 H 0.87926 0.0165 0.37522 0.0
H1152 H 0.82392 0.07723 0.35774 0.0
C1153 C 0.80612 0.12506 0.4028 0.0
C1154 C 0.68221 0.08683 0.11901 0.0
C1155 C 0.64593 0.05593 0.12892 0.0
H1156 H 0.74402 0.14212 0.12093 0.0
C1157 C 0.64943 0.05317 0.14902 0.0
H1158 H 0.68179 0.08881 0.10352 0.0
C1159 C 0.68284 0.08641 0.15905 0.0
C1160 C 0.71576 0.12098 0.14919 0.0
H1161 H 0.62373 0.0284 0.15714 0.0
H1162 H 0.68092 0.08665 0.17455 0.0
C1163 C 0.71779 0.11785 0.12905 0.0
C1164 C 0.71421 0.88161 0.90288 0.0
C1165 C 0.71835 0.88442 0.8828 0.0
H1166 H 0.67459 0.9081 0.92802 0.0
C1167 C 0.6934 0.92574 0.87327 0.0
H1168 H 0.73387 0.85152 0.91083 0.0
C1169 C 0.6614 0.96049 0.88335 0.0
C1170 C 0.65161 0.95307 0.90304 0.0
H1171 H 0.69688 0.93005 0.85789 0.0
H1172 H 0.64153 0.99068 0.87541 0.0
C1173 C 0.68029 0.91464 0.91282 0.0
C1174 C 0.80268 0.89135 0.62919 0.0
C1175 C 0.80517 0.88753 0.64931 0.0
H1176 H 0.8383 0.92097 0.60368 0.0
C1177 C 0.83869 0.92143 0.65922 0.0
H1178 H 0.776 0.8676 0.62105 0.0
C1179 C 0.87218 0.95467 0.64923 0.0
C1180 C 0.87514 0.95258 0.6291 0.0
H1181 H 0.84104 0.9206 0.67471 0.0
H1182 H 0.89834 0.97887 0.65738 0.0
C1183 C 0.8383 0.92239 0.61918 0.0
C1184 C 0.64404 0.32363 0.13223 0.0
C1185 C 0.65125 0.32926 0.15226 0.0
H1186 H 0.60884 0.35331 0.10651 0.0
C1187 C 0.62365 0.36817 0.16191 0.0
H1188 H 0.66418 0.29349 0.12432 0.0
C1189 C 0.59212 0.40263 0.15162 0.0
C1190 C 0.58708 0.39883 0.13142 0.0
H1191 H 0.62828 0.37357 0.17726 0.0
H1192 H 0.57288 0.43325 0.15955 0.0
C1193 C 0.61226 0.3579 0.12193 0.0
C1194 C 0.86487 0.33372 0.40108 0.0
C1195 C 0.86861 0.33079 0.38084 0.0
H1196 H 0.89346 0.3677 0.42715 0.0
C1197 C 0.90851 0.35821 0.37163 0.0
H1198 H 0.83503 0.31272 0.40877 0.0
C1199 C 0.942 0.38988 0.38228 0.0
C1200 C 0.93665 0.39462 0.40241 0.0
H1201 H 0.91294 0.35652 0.35616 0.0
H1202 H 0.97141 0.41162 0.37461 0.0
C1203 C 0.8986 0.36507 0.41173 0.0
C1204 C 0.92814 0.60527 0.65159 0.0
C1205 C 0.93361 0.60933 0.63141 0.0
H1206 H 0.89171 0.63423 0.6772 0.0
C1207 C 0.90895 0.6506 0.62195 0.0
H1208 H 0.94697 0.57438 0.65951 0.0
C1209 C 0.87726 0.68499 0.63222 0.0
C1210 C 0.86962 0.67913 0.65222 0.0
H1211 H 0.91273 0.65541 0.60654 0.0
H1212 H 0.8575 0.71541 0.62433 0.0
C1213 C 0.8967 0.63984 0.66187 0.0
C1214 C 0.6554 0.67339 0.90097 0.0
C1215 C 0.65172 0.67626 0.88073 0.0
H1216 H 0.6268 0.63945 0.92706 0.0
C1217 C 0.61188 0.64875 0.87152 0.0
H1218 H 0.68519 0.69447 0.90867 0.0
C1219 C 0.57842 0.61706 0.88217 0.0
C1220 C 0.58372 0.61238 0.90231 0.0
H1221 H 0.60749 0.65039 0.85605 0.0
H1222 H 0.54907 0.59524 0.8745 0.0
C1223 C 0.6217 0.64203 0.91163 0.0
C1224 C 0.36855 0.54649 0.88175 0.0
C1225 C 0.37353 0.55079 0.9018 0.0
H1226 H 0.33756 0.57992 0.85602 0.0
C1227 C 0.34032 0.58546 0.91152 0.0
H1228 H 0.3917 0.51889 0.87378 0.0
C1229 C 0.3067 0.61833 0.90135 0.0
C1230 C 0.30757 0.6194 0.88119 0.0
H1231 H 0.34194 0.58911 0.92696 0.0
H1232 H 0.28315 0.64546 0.90935 0.0
C1233 C 0.33705 0.58139 0.87153 0.0
C1234 C 0.1826 0.56499 0.62523 0.0
C1235 C 0.14049 0.54142 0.63471 0.0
H1236 H 0.24795 0.61618 0.62732 0.0
C1237 C 0.1366 0.54711 0.65471 0.0
H1238 H 0.18775 0.56023 0.60993 0.0
C1239 C 0.16945 0.5813 0.66453 0.0
C1240 C 0.20869 0.6087 0.65474 0.0
H1241 H 0.10581 0.52856 0.66262 0.0
H1242 H 0.16209 0.5883 0.67961 0.0
C1243 C 0.21713 0.59729 0.63523 0.0
C1244 C 0.152 0.46059 0.38184 0.0
C1245 C 0.1469 0.45613 0.40188 0.0
H1246 H 0.18311 0.42735 0.3561 0.0
C1247 C 0.17999 0.42132 0.41159 0.0
H1248 H 0.12893 0.48829 0.37389 0.0
C1249 C 0.21363 0.3885 0.40141 0.0
C1250 C 0.21288 0.38761 0.38125 0.0
H1251 H 0.17827 0.41753 0.42702 0.0
H1252 H 0.2371 0.36127 0.4094 0.0
C1253 C 0.18351 0.42574 0.37161 0.0
C1254 C 0.38402 0.46122 0.15464 0.0
C1255 C 0.3802 0.46691 0.13464 0.0
H1256 H 0.35848 0.42 0.17953 0.0
C1257 C 0.33813 0.44331 0.12514 0.0
H1258 H 0.41477 0.47981 0.16256 0.0
C1259 C 0.30361 0.41097 0.13512 0.0
C1260 C 0.31201 0.39955 0.15463 0.0
H1261 H 0.33303 0.44807 0.10984 0.0
H1262 H 0.27284 0.39205 0.12719 0.0
C1263 C 0.35117 0.427 0.16444 0.0
loop_
_geom_bond_atom_site_label_1
_geom_bond_atom_site_label_2
_geom_bond_distance
_geom_bond_site_symmetry_2
_ccdc_geom_bond_type
Co0 O2 2.143 1_665 S
Co0 O8 2.074 . S
Co0 O11 2.093 1_655 S
Co0 O24 2.097 1_655 S
Co0 N41 2.151 . S
Co0 N49 2.214 . S
Co1 O2 2.160 . S
Co1 O7 2.058 1_455 S
Co1 O17 2.057 . S
Co1 O32 2.037 1_545 S
Co1 N36 2.145 . S
Co1 N57 2.257 . S
O2 Co0 2.143 1_445 S
O2 Co1 2.160 . S
C3 O4 1.278 . S
C3 O11 1.224 1_545 S
O4 C3 1.278 . S
C5 O6 1.245 . S
C5 O17 1.232 1_655 S
O6 C5 1.245 . S
O7 Co1 2.058 1_655 S
O7 C33 1.269 1_545 S
O8 Co0 2.074 . S
O8 C33 1.257 . S
H9 C34 0.930 . S
H10 C40 0.930 . S
O11 Co0 2.093 1_455 S
O11 C3 1.224 1_565 S
H12 C44 0.929 . S
H13 C46 0.930 . S
H14 C47 0.930 . S
H15 C45 0.929 . S
H16 C48 0.928 . S
O17 Co1 2.057 . S
O17 C5 1.232 1_455 S
H18 C37 0.929 1_565 S
H19 C38 0.929 . S
H20 C50 0.931 . S
H21 C42 0.929 . S
H22 C51 0.930 . S
H23 C43 0.931 . S
O24 Co0 2.097 1_455 S
O24 C52 1.214 . S
H25 C53 0.929 . S
H26 C54 0.929 . S
H27 C55 0.930 . S
H28 C56 0.929 . S
H29 C58 0.930 . S
H30 C35 0.930 . S
H31 C39 0.930 . S
O32 Co1 2.037 1_565 S
O32 C52 1.234 . S
C33 O7 1.269 1_565 S
C33 O8 1.257 . S
C34 H9 0.930 . S
C34 C37 1.388 . S
C34 C39 1.418 . S
C35 H30 0.930 . S
C35 C38 1.404 . S
C35 C39 1.353 . S
N36 Co1 2.145 . S
N36 C37 1.397 . S
N36 C38 1.334 . S
C37 H18 0.929 1_545 S
C37 C34 1.388 . S
C37 N36 1.397 . S
C38 H19 0.929 . S
C38 C35 1.404 . S
C38 N36 1.334 . S
C39 H31 0.930 . S
C39 C34 1.418 . S
C39 C35 1.353 . S
C40 H10 0.930 . S
C40 N41 1.330 1_545 S
C40 C42 1.446 . S
N41 Co0 2.151 . S
N41 C40 1.330 1_565 S
N41 C45 1.418 . S
C42 H21 0.929 . S
C42 C40 1.446 . S
C42 C43 1.332 1_545 S
C43 H23 0.931 . S
C43 C42 1.332 1_565 S
C43 C44 1.267 . S
C44 H12 0.929 . S
C44 C43 1.267 . S
C44 C45 1.251 . S
C45 H15 0.929 . S
C45 N41 1.418 . S
C45 C44 1.251 . S
C46 H13 0.930 . S
C46 C48 1.406 . S
C46 C51 1.261 . S
C47 H14 0.930 . S
C47 N49 1.325 . S
C47 C50 1.357 . S
C48 H16 0.928 . S
C48 C46 1.406 . S
C48 N49 1.261 . S
N49 Co0 2.214 . S
N49 C47 1.325 . S
N49 C48 1.261 . S
C50 H20 0.931 . S
C50 C47 1.357 . S
C50 C51 1.312 . S
C51 H22 0.930 . S
C51 C46 1.261 . S
C51 C50 1.312 . S
C52 O24 1.214 . S
C52 O32 1.234 . S
C53 H25 0.929 . S
C53 C56 1.391 . S
C53 C58 1.391 . S
C54 H26 0.929 . S
C54 C55 1.390 . S
C54 N57 1.391 . S
C55 H27 0.930 . S
C55 C54 1.390 . S
C55 C56 1.392 . S
C56 H28 0.929 . S
C56 C53 1.391 . S
C56 C55 1.392 . S
N57 Co1 2.257 . S
N57 C54 1.391 . S
N57 C58 1.388 . S
C58 H29 0.930 . S
C58 C53 1.391 . S
C58 N57 1.388 . S
Co59 O61 2.143 . S
Co59 O67 2.074 . S
Co59 O70 2.093 . S
Co59 O83 2.097 . S
Co59 N100 2.151 . S
Co59 N108 2.214 . S
Co60 O61 2.160 . S
Co60 O66 2.058 . S
Co60 O76 2.057 . S
Co60 O91 2.037 . S
Co60 N95 2.145 . S
Co60 N116 2.257 . S
O61 Co59 2.143 . S
O61 Co60 2.160 . S
C62 O63 1.278 . S
C62 O70 1.224 . S
O63 C62 1.278 . S
C64 O65 1.245 . S
C64 O76 1.232 . S
O65 C64 1.245 . S
O66 Co60 2.058 . S
O66 C92 1.269 . S
O67 Co59 2.074 . S
O67 C92 1.257 . S
H68 C93 0.930 . S
H69 C99 0.930 . S
O70 Co59 2.093 . S
O70 C62 1.224 . S
H71 C103 0.929 . S
H72 C105 0.930 . S
H73 C106 0.930 . S
H74 C104 0.929 . S
H75 C107 0.928 . S
O76 Co60 2.057 . S
O76 C64 1.232 . S
H77 C96 0.929 . S
H78 C97 0.929 . S
H79 C109 0.931 . S
H80 C101 0.929 . S
H81 C110 0.930 . S
H82 C102 0.931 . S
O83 Co59 2.097 . S
O83 C111 1.214 . S
H84 C112 0.929 . S
H85 C113 0.929 . S
H86 C114 0.930 . S
H87 C115 0.929 . S
H88 C117 0.930 . S
H89 C94 0.930 . S
H90 C98 0.930 . S
O91 Co60 2.037 . S
O91 C111 1.234 . S
C92 O66 1.269 . S
C92 O67 1.257 . S
C93 H68 0.930 . S
C93 C96 1.388 . S
C93 C98 1.418 . S
C94 H89 0.930 . S
C94 C97 1.404 . S
C94 C98 1.353 . S
N95 Co60 2.145 . S
N95 C96 1.397 . S
N95 C97 1.334 . S
C96 H77 0.929 . S
C96 C93 1.388 . S
C96 N95 1.397 . S
C97 H78 0.929 . S
C97 C94 1.404 . S
C97 N95 1.334 . S
C98 H90 0.930 . S
C98 C93 1.418 . S
C98 C94 1.353 . S
C99 H69 0.930 . S
C99 N100 1.330 . S
C99 C101 1.446 . S
N100 Co59 2.151 . S
N100 C99 1.330 . S
N100 C104 1.418 . S
C101 H80 0.929 . S
C101 C99 1.446 . S
C101 C102 1.332 . S
C102 H82 0.931 . S
C102 C101 1.332 . S
C102 C103 1.267 . S
C103 H71 0.929 . S
C103 C102 1.267 . S
C103 C104 1.251 . S
C104 H74 0.929 . S
C104 N100 1.418 . S
C104 C103 1.251 . S
C105 H72 0.930 . S
C105 C107 1.406 . S
C105 C110 1.261 . S
C106 H73 0.930 . S
C106 N108 1.325 . S
C106 C109 1.357 . S
C107 H75 0.928 . S
C107 C105 1.406 . S
C107 N108 1.261 . S
N108 Co59 2.214 . S
N108 C106 1.325 . S
N108 C107 1.261 . S
C109 H79 0.931 . S
C109 C106 1.357 . S
C109 C110 1.312 . S
C110 H81 0.930 . S
C110 C105 1.261 . S
C110 C109 1.312 . S
C111 O83 1.214 . S
C111 O91 1.234 . S
C112 H84 0.929 . S
C112 C115 1.391 . S
C112 C117 1.391 . S
C113 H85 0.929 . S
C113 C114 1.390 . S
C113 N116 1.391 . S
C114 H86 0.930 . S
C114 C113 1.390 . S
C114 C115 1.392 . S
C115 H87 0.929 . S
C115 C112 1.391 . S
C115 C114 1.392 . S
N116 Co60 2.257 . S
N116 C113 1.391 . S
N116 C117 1.388 . S
C117 H88 0.930 . S
C117 C112 1.391 . S
C117 N116 1.388 . S
Co118 O120 2.143 1_545 S
Co118 O126 2.074 . S
Co118 O129 2.093 . S
Co118 O142 2.097 . S
Co118 N159 2.151 . S
Co118 N167 2.214 . S
Co119 O120 2.160 . S
Co119 O125 2.058 . S
Co119 O135 2.057 . S
Co119 O150 2.037 1_565 S
Co119 N154 2.145 . S
Co119 N175 2.257 . S
O120 Co118 2.143 1_565 S
O120 Co119 2.160 . S
C121 O122 1.278 . S
C121 O129 1.224 1_565 S
O122 C121 1.278 . S
C123 O124 1.245 . S
C123 O135 1.232 . S
O124 C123 1.245 . S
O125 Co119 2.058 . S
O125 C151 1.269 1_565 S
O126 Co118 2.074 . S
O126 C151 1.257 . S
H127 C152 0.930 . S
H128 C158 0.930 . S
O129 Co118 2.093 . S
O129 C121 1.224 1_545 S
H130 C162 0.929 . S
H131 C164 0.930 . S
H132 C165 0.930 . S
H133 C163 0.929 . S
H134 C166 0.928 . S
O135 Co119 2.057 . S
O135 C123 1.232 . S
H136 C155 0.929 1_545 S
H137 C156 0.929 . S
H138 C168 0.931 . S
H139 C160 0.929 . S
H140 C169 0.930 . S
H141 C161 0.931 . S
O142 Co118 2.097 . S
O142 C170 1.214 . S
H143 C171 0.929 . S
H144 C172 0.929 . S
H145 C173 0.930 . S
H146 C174 0.929 . S
H147 C176 0.930 . S
H148 C153 0.930 . S
H149 C157 0.930 . S
O150 Co119 2.037 1_545 S
O150 C170 1.234 . S
C151 O125 1.269 1_545 S
C151 O126 1.257 . S
C152 H127 0.930 . S
C152 C155 1.388 . S
C152 C157 1.418 . S
C153 H148 0.930 . S
C153 C156 1.404 . S
C153 C157 1.353 . S
N154 Co119 2.145 . S
N154 C155 1.397 . S
N154 C156 1.334 . S
C155 H136 0.929 1_565 S
C155 C152 1.388 . S
C155 N154 1.397 . S
C156 H137 0.929 . S
C156 C153 1.404 . S
C156 N154 1.334 . S
C157 H149 0.930 . S
C157 C152 1.418 . S
C157 C153 1.353 . S
C158 H128 0.930 . S
C158 N159 1.330 1_565 S
C158 C160 1.446 . S
N159 Co118 2.151 . S
N159 C158 1.330 1_545 S
N159 C163 1.418 . S
C160 H139 0.929 . S
C160 C158 1.446 . S
C160 C161 1.332 1_565 S
C161 H141 0.931 . S
C161 C160 1.332 1_545 S
C161 C162 1.267 . S
C162 H130 0.929 . S
C162 C161 1.267 . S
C162 C163 1.251 . S
C163 H133 0.929 . S
C163 N159 1.418 . S
C163 C162 1.251 . S
C164 H131 0.930 . S
C164 C166 1.406 . S
C164 C169 1.261 . S
C165 H132 0.930 . S
C165 N167 1.325 . S
C165 C168 1.357 . S
C166 H134 0.928 . S
C166 C164 1.406 . S
C166 N167 1.261 . S
N167 Co118 2.214 . S
N167 C165 1.325 . S
N167 C166 1.261 . S
C168 H138 0.931 . S
C168 C165 1.357 . S
C168 C169 1.312 . S
C169 H140 0.930 . S
C169 C164 1.261 . S
C169 C168 1.312 . S
C170 O142 1.214 . S
C170 O150 1.234 . S
C171 H143 0.929 . S
C171 C174 1.391 . S
C171 C176 1.391 . S
C172 H144 0.929 . S
C172 C173 1.390 . S
C172 N175 1.391 . S
C173 H145 0.930 . S
C173 C172 1.390 . S
C173 C174 1.392 . S
C174 H146 0.929 . S
C174 C171 1.391 . S
C174 C173 1.392 . S
N175 Co119 2.257 . S
N175 C172 1.391 . S
N175 C176 1.388 . S
C176 H147 0.930 . S
C176 C171 1.391 . S
C176 N175 1.388 . S
Co177 O179 2.143 . S
Co177 O185 2.074 . S
Co177 O188 2.093 . S
Co177 O201 2.097 . S
Co177 N218 2.151 . S
Co177 N226 2.214 . S
Co178 O179 2.160 . S
Co178 O184 2.058 . S
Co178 O194 2.057 . S
Co178 O209 2.037 . S
Co178 N213 2.145 . S
Co178 N234 2.257 . S
O179 Co177 2.143 . S
O179 Co178 2.160 . S
C180 O181 1.278 . S
C180 O188 1.224 . S
O181 C180 1.278 . S
C182 O183 1.245 . S
C182 O194 1.232 . S
O183 C182 1.245 . S
O184 Co178 2.058 . S
O184 C210 1.269 . S
O185 Co177 2.074 . S
O185 C210 1.257 . S
H186 C211 0.930 . S
H187 C217 0.930 . S
O188 Co177 2.093 . S
O188 C180 1.224 . S
H189 C221 0.929 . S
H190 C223 0.930 . S
H191 C224 0.930 . S
H192 C222 0.929 . S
H193 C225 0.928 . S
O194 Co178 2.057 . S
O194 C182 1.232 . S
H195 C214 0.929 . S
H196 C215 0.929 . S
H197 C227 0.931 . S
H198 C219 0.929 . S
H199 C228 0.930 1_655 S
H200 C220 0.931 . S
O201 Co177 2.097 . S
O201 C229 1.214 . S
H202 C230 0.929 . S
H203 C231 0.929 . S
H204 C232 0.930 . S
H205 C233 0.929 . S
H206 C235 0.930 . S
H207 C212 0.930 . S
H208 C216 0.930 . S
O209 Co178 2.037 . S
O209 C229 1.234 . S
C210 O184 1.269 . S
C210 O185 1.257 . S
C211 H186 0.930 . S
C211 C214 1.388 . S
C211 C216 1.418 . S
C212 H207 0.930 . S
C212 C215 1.404 . S
C212 C216 1.353 . S
N213 Co178 2.145 . S
N213 C214 1.397 . S
N213 C215 1.334 . S
C214 H195 0.929 . S
C214 C211 1.388 . S
C214 N213 1.397 . S
C215 H196 0.929 . S
C215 C212 1.404 . S
C215 N213 1.334 . S
C216 H208 0.930 . S
C216 C211 1.418 . S
C216 C212 1.353 . S
C217 H187 0.930 . S
C217 N218 1.330 . S
C217 C219 1.446 . S
N218 Co177 2.151 . S
N218 C217 1.330 . S
N218 C222 1.418 . S
C219 H198 0.929 . S
C219 C217 1.446 . S
C219 C220 1.332 . S
C220 H200 0.931 . S
C220 C219 1.332 . S
C220 C221 1.267 . S
C221 H189 0.929 . S
C221 C220 1.267 . S
C221 C222 1.251 . S
C222 H192 0.929 . S
C222 N218 1.418 . S
C222 C221 1.251 . S
C223 H190 0.930 . S
C223 C225 1.406 . S
C223 C228 1.261 . S
C224 H191 0.930 . S
C224 N226 1.325 . S
C224 C227 1.357 . S
C225 H193 0.928 . S
C225 C223 1.406 . S
C225 N226 1.261 . S
N226 Co177 2.214 . S
N226 C224 1.325 . S
N226 C225 1.261 . S
C227 H197 0.931 . S
C227 C224 1.357 . S
C227 C228 1.312 . S
C228 H199 0.930 1_455 S
C228 C223 1.261 . S
C228 C227 1.312 . S
C229 O201 1.214 . S
C229 O209 1.234 . S
C230 H202 0.929 . S
C230 C233 1.391 . S
C230 C235 1.391 . S
C231 H203 0.929 . S
C231 C232 1.390 . S
C231 N234 1.391 . S
C232 H204 0.930 . S
C232 C231 1.390 . S
C232 C233 1.392 . S
C233 H205 0.929 . S
C233 C230 1.391 . S
C233 C232 1.392 . S
N234 Co178 2.257 . S
N234 C231 1.391 . S
N234 C235 1.388 . S
C235 H206 0.930 . S
C235 C230 1.391 . S
C235 N234 1.388 . S
Co236 O238 2.143 1_645 S
Co236 O244 2.074 . S
Co236 O247 2.093 1_655 S
Co236 O260 2.097 1_655 S
Co236 N277 2.151 . S
Co236 N285 2.214 . S
Co237 O238 2.160 . S
Co237 O243 2.058 1_455 S
Co237 O253 2.057 . S
Co237 O268 2.037 1_565 S
Co237 N272 2.145 . S
Co237 N293 2.257 . S
O238 Co236 2.143 1_465 S
O238 Co237 2.160 . S
C239 O240 1.278 . S
C239 O247 1.224 1_565 S
O240 C239 1.278 . S
C241 O242 1.245 . S
C241 O253 1.232 1_655 S
O242 C241 1.245 . S
O243 Co237 2.058 1_655 S
O243 C269 1.269 1_565 S
O244 Co236 2.074 . S
O244 C269 1.257 . S
H245 C270 0.930 . S
H246 C276 0.930 . S
O247 Co236 2.093 1_455 S
O247 C239 1.224 1_545 S
H248 C280 0.929 . S
H249 C282 0.930 . S
H250 C283 0.930 . S
H251 C281 0.929 . S
H252 C284 0.928 . S
O253 Co237 2.057 . S
O253 C241 1.232 1_455 S
H254 C273 0.929 1_545 S
H255 C274 0.929 . S
H256 C286 0.931 . S
H257 C278 0.929 . S
H258 C287 0.930 . S
H259 C279 0.931 . S
O260 Co236 2.097 1_455 S
O260 C288 1.214 . S
H261 C289 0.929 . S
H262 C290 0.929 . S
H263 C291 0.930 . S
H264 C292 0.929 . S
H265 C294 0.930 . S
H266 C271 0.930 . S
H267 C275 0.930 . S
O268 Co237 2.037 1_545 S
O268 C288 1.234 . S
C269 O243 1.269 1_545 S
C269 O244 1.257 . S
C270 H245 0.930 . S
C270 C273 1.388 . S
C270 C275 1.418 . S
C271 H266 0.930 . S
C271 C274 1.404 . S
C271 C275 1.353 . S
N272 Co237 2.145 . S
N272 C273 1.397 . S
N272 C274 1.334 . S
C273 H254 0.929 1_565 S
C273 C270 1.388 . S
C273 N272 1.397 . S
C274 H255 0.929 . S
C274 C271 1.404 . S
C274 N272 1.334 . S
C275 H267 0.930 . S
C275 C270 1.418 . S
C275 C271 1.353 . S
C276 H246 0.930 . S
C276 N277 1.330 1_565 S
C276 C278 1.446 . S
N277 Co236 2.151 . S
N277 C276 1.330 1_545 S
N277 C281 1.418 . S
C278 H257 0.929 . S
C278 C276 1.446 . S
C278 C279 1.332 1_565 S
C279 H259 0.931 . S
C279 C278 1.332 1_545 S
C279 C280 1.267 . S
C280 H248 0.929 . S
C280 C279 1.267 . S
C280 C281 1.251 . S
C281 H251 0.929 . S
C281 N277 1.418 . S
C281 C280 1.251 . S
C282 H249 0.930 . S
C282 C284 1.406 . S
C282 C287 1.261 . S
C283 H250 0.930 . S
C283 N285 1.325 . S
C283 C286 1.357 . S
C284 H252 0.928 . S
C284 C282 1.406 . S
C284 N285 1.261 . S
N285 Co236 2.214 . S
N285 C283 1.325 . S
N285 C284 1.261 . S
C286 H256 0.931 . S
C286 C283 1.357 . S
C286 C287 1.312 . S
C287 H258 0.930 . S
C287 C282 1.261 . S
C287 C286 1.312 . S
C288 O260 1.214 . S
C288 O268 1.234 . S
C289 H261 0.929 . S
C289 C292 1.391 . S
C289 C294 1.391 . S
C290 H262 0.929 . S
C290 C291 1.390 . S
C290 N293 1.391 . S
C291 H263 0.930 . S
C291 C290 1.390 . S
C291 C292 1.392 . S
C292 H264 0.929 . S
C292 C289 1.391 . S
C292 C291 1.392 . S
N293 Co237 2.257 . S
N293 C290 1.391 . S
N293 C294 1.388 . S
C294 H265 0.930 . S
C294 C289 1.391 . S
C294 N293 1.388 . S
Co295 O297 2.143 . S
Co295 O303 2.074 . S
Co295 O306 2.093 . S
Co295 O319 2.097 . S
Co295 N336 2.151 . S
Co295 N344 2.214 . S
Co296 O297 2.160 . S
Co296 O302 2.058 . S
Co296 O312 2.057 . S
Co296 O327 2.037 . S
Co296 N331 2.145 . S
Co296 N352 2.257 . S
O297 Co295 2.143 . S
O297 Co296 2.160 . S
C298 O299 1.278 . S
C298 O306 1.224 . S
O299 C298 1.278 . S
C300 O301 1.245 . S
C300 O312 1.232 . S
O301 C300 1.245 . S
O302 Co296 2.058 . S
O302 C328 1.269 . S
O303 Co295 2.074 . S
O303 C328 1.257 . S
H304 C329 0.930 . S
H305 C335 0.930 . S
O306 Co295 2.093 . S
O306 C298 1.224 . S
H307 C339 0.929 . S
H308 C341 0.930 . S
H309 C342 0.930 . S
H310 C340 0.929 . S
H311 C343 0.928 . S
O312 Co296 2.057 . S
O312 C300 1.232 . S
H313 C332 0.929 . S
H314 C333 0.929 . S
H315 C345 0.931 . S
H316 C337 0.929 . S
H317 C346 0.930 1_655 S
H318 C338 0.931 . S
O319 Co295 2.097 . S
O319 C347 1.214 . S
H320 C348 0.929 . S
H321 C349 0.929 . S
H322 C350 0.930 . S
H323 C351 0.929 . S
H324 C353 0.930 . S
H325 C330 0.930 . S
H326 C334 0.930 . S
O327 Co296 2.037 . S
O327 C347 1.234 . S
C328 O302 1.269 . S
C328 O303 1.257 . S
C329 H304 0.930 . S
C329 C332 1.388 . S
C329 C334 1.418 . S
C330 H325 0.930 . S
C330 C333 1.404 . S
C330 C334 1.353 . S
N331 Co296 2.145 . S
N331 C332 1.397 . S
N331 C333 1.334 . S
C332 H313 0.929 . S
C332 C329 1.388 . S
C332 N331 1.397 . S
C333 H314 0.929 . S
C333 C330 1.404 . S
C333 N331 1.334 . S
C334 H326 0.930 . S
C334 C329 1.418 . S
C334 C330 1.353 . S
C335 H305 0.930 . S
C335 N336 1.330 . S
C335 C337 1.446 . S
N336 Co295 2.151 . S
N336 C335 1.330 . S
N336 C340 1.418 . S
C337 H316 0.929 . S
C337 C335 1.446 . S
C337 C338 1.332 . S
C338 H318 0.931 . S
C338 C337 1.332 . S
C338 C339 1.267 . S
C339 H307 0.929 . S
C339 C338 1.267 . S
C339 C340 1.251 . S
C340 H310 0.929 . S
C340 N336 1.418 . S
C340 C339 1.251 . S
C341 H308 0.930 . S
C341 C343 1.406 . S
C341 C346 1.261 . S
C342 H309 0.930 . S
C342 N344 1.325 . S
C342 C345 1.357 . S
C343 H311 0.928 . S
C343 C341 1.406 . S
C343 N344 1.261 . S
N344 Co295 2.214 . S
N344 C342 1.325 . S
N344 C343 1.261 . S
C345 H315 0.931 . S
C345 C342 1.357 . S
C345 C346 1.312 . S
C346 H317 0.930 1_455 S
C346 C341 1.261 . S
C346 C345 1.312 . S
C347 O319 1.214 . S
C347 O327 1.234 . S
C348 H320 0.929 . S
C348 C351 1.391 . S
C348 C353 1.391 . S
C349 H321 0.929 . S
C349 C350 1.390 . S
C349 N352 1.391 . S
C350 H322 0.930 . S
C350 C349 1.390 . S
C350 C351 1.392 . S
C351 H323 0.929 . S
C351 C348 1.391 . S
C351 C350 1.392 . S
N352 Co296 2.257 . S
N352 C349 1.391 . S
N352 C353 1.388 . S
C353 H324 0.930 . S
C353 C348 1.391 . S
C353 N352 1.388 . S
Co354 O356 2.143 1_565 S
Co354 O362 2.074 . S
Co354 O365 2.093 . S
Co354 O378 2.097 . S
Co354 N395 2.151 . S
Co354 N403 2.214 . S
Co355 O356 2.160 . S
Co355 O361 2.058 . S
Co355 O371 2.057 . S
Co355 O386 2.037 1_545 S
Co355 N390 2.145 . S
Co355 N411 2.257 . S
O356 Co354 2.143 1_545 S
O356 Co355 2.160 . S
C357 O358 1.278 . S
C357 O365 1.224 1_545 S
O358 C357 1.278 . S
C359 O360 1.245 . S
C359 O371 1.232 . S
O360 C359 1.245 . S
O361 Co355 2.058 . S
O361 C387 1.269 1_545 S
O362 Co354 2.074 . S
O362 C387 1.257 . S
H363 C388 0.930 . S
H364 C394 0.930 . S
O365 Co354 2.093 . S
O365 C357 1.224 1_565 S
H366 C398 0.929 . S
H367 C400 0.930 . S
H368 C401 0.930 . S
H369 C399 0.929 . S
H370 C402 0.928 . S
O371 Co355 2.057 . S
O371 C359 1.232 . S
H372 C391 0.929 1_565 S
H373 C392 0.929 . S
H374 C404 0.931 . S
H375 C396 0.929 . S
H376 C405 0.930 . S
H377 C397 0.931 . S
O378 Co354 2.097 . S
O378 C406 1.214 . S
H379 C407 0.929 . S
H380 C408 0.929 . S
H381 C409 0.930 . S
H382 C410 0.929 . S
H383 C412 0.930 . S
H384 C389 0.930 . S
H385 C393 0.930 . S
O386 Co355 2.037 1_565 S
O386 C406 1.234 . S
C387 O361 1.269 1_565 S
C387 O362 1.257 . S
C388 H363 0.930 . S
C388 C391 1.388 . S
C388 C393 1.418 . S
C389 H384 0.930 . S
C389 C392 1.404 . S
C389 C393 1.353 . S
N390 Co355 2.145 . S
N390 C391 1.397 . S
N390 C392 1.334 . S
C391 H372 0.929 1_545 S
C391 C388 1.388 . S
C391 N390 1.397 . S
C392 H373 0.929 . S
C392 C389 1.404 . S
C392 N390 1.334 . S
C393 H385 0.930 . S
C393 C388 1.418 . S
C393 C389 1.353 . S
C394 H364 0.930 . S
C394 N395 1.330 1_545 S
C394 C396 1.446 . S
N395 Co354 2.151 . S
N395 C394 1.330 1_565 S
N395 C399 1.418 . S
C396 H375 0.929 . S
C396 C394 1.446 . S
C396 C397 1.332 1_545 S
C397 H377 0.931 . S
C397 C396 1.332 1_565 S
C397 C398 1.267 . S
C398 H366 0.929 . S
C398 C397 1.267 . S
C398 C399 1.251 . S
C399 H369 0.929 . S
C399 N395 1.418 . S
C399 C398 1.251 . S
C400 H367 0.930 . S
C400 C402 1.406 . S
C400 C405 1.261 . S
C401 H368 0.930 . S
C401 N403 1.325 . S
C401 C404 1.357 . S
C402 H370 0.928 . S
C402 C400 1.406 . S
C402 N403 1.261 . S
N403 Co354 2.214 . S
N403 C401 1.325 . S
N403 C402 1.261 . S
C404 H374 0.931 . S
C404 C401 1.357 . S
C404 C405 1.312 . S
C405 H376 0.930 . S
C405 C400 1.261 . S
C405 C404 1.312 . S
C406 O378 1.214 . S
C406 O386 1.234 . S
C407 H379 0.929 . S
C407 C410 1.391 . S
C407 C412 1.391 . S
C408 H380 0.929 . S
C408 C409 1.390 . S
C408 N411 1.391 . S
C409 H381 0.930 . S
C409 C408 1.390 . S
C409 C410 1.392 . S
C410 H382 0.929 . S
C410 C407 1.391 . S
C410 C409 1.392 . S
N411 Co355 2.257 . S
N411 C408 1.391 . S
N411 C412 1.388 . S
C412 H383 0.930 . S
C412 C407 1.391 . S
C412 N411 1.388 . S
Co413 O415 2.143 . S
Co413 O421 2.074 . S
Co413 O424 2.093 . S
Co413 O437 2.097 . S
Co413 N454 2.151 . S
Co413 N462 2.214 . S
Co414 O415 2.160 . S
Co414 O420 2.058 . S
Co414 O430 2.057 . S
Co414 O445 2.037 . S
Co414 N449 2.145 . S
Co414 N470 2.257 . S
O415 Co413 2.143 . S
O415 Co414 2.160 . S
C416 O417 1.278 . S
C416 O424 1.224 . S
O417 C416 1.278 . S
C418 O419 1.245 . S
C418 O430 1.232 . S
O419 C418 1.245 . S
O420 Co414 2.058 . S
O420 C446 1.269 . S
O421 Co413 2.074 . S
O421 C446 1.257 . S
H422 C447 0.930 . S
H423 C453 0.930 . S
O424 Co413 2.093 . S
O424 C416 1.224 . S
H425 C457 0.929 . S
H426 C459 0.930 . S
H427 C460 0.930 . S
H428 C458 0.929 . S
H429 C461 0.928 . S
O430 Co414 2.057 . S
O430 C418 1.232 . S
H431 C450 0.929 . S
H432 C451 0.929 . S
H433 C463 0.931 . S
H434 C455 0.929 . S
H435 C464 0.930 . S
H436 C456 0.931 . S
O437 Co413 2.097 . S
O437 C465 1.214 . S
H438 C466 0.929 . S
H439 C467 0.929 . S
H440 C468 0.930 . S
H441 C469 0.929 . S
H442 C471 0.930 . S
H443 C448 0.930 . S
H444 C452 0.930 . S
O445 Co414 2.037 . S
O445 C465 1.234 . S
C446 O420 1.269 . S
C446 O421 1.257 . S
C447 H422 0.930 . S
C447 C450 1.388 . S
C447 C452 1.418 . S
C448 H443 0.930 . S
C448 C451 1.404 . S
C448 C452 1.353 . S
N449 Co414 2.145 . S
N449 C450 1.397 . S
N449 C451 1.334 . S
C450 H431 0.929 . S
C450 C447 1.388 . S
C450 N449 1.397 . S
C451 H432 0.929 . S
C451 C448 1.404 . S
C451 N449 1.334 . S
C452 H444 0.930 . S
C452 C447 1.418 . S
C452 C448 1.353 . S
C453 H423 0.930 . S
C453 N454 1.330 . S
C453 C455 1.446 . S
N454 Co413 2.151 . S
N454 C453 1.330 . S
N454 C458 1.418 . S
C455 H434 0.929 . S
C455 C453 1.446 . S
C455 C456 1.332 . S
C456 H436 0.931 . S
C456 C455 1.332 . S
C456 C457 1.267 . S
C457 H425 0.929 . S
C457 C456 1.267 . S
C457 C458 1.251 . S
C458 H428 0.929 . S
C458 N454 1.418 . S
C458 C457 1.251 . S
C459 H426 0.930 . S
C459 C461 1.406 . S
C459 C464 1.261 . S
C460 H427 0.930 . S
C460 N462 1.325 . S
C460 C463 1.357 . S
C461 H429 0.928 . S
C461 C459 1.406 . S
C461 N462 1.261 . S
N462 Co413 2.214 . S
N462 C460 1.325 . S
N462 C461 1.261 . S
C463 H433 0.931 . S
C463 C460 1.357 . S
C463 C464 1.312 . S
C464 H435 0.930 . S
C464 C459 1.261 . S
C464 C463 1.312 . S
C465 O437 1.214 . S
C465 O445 1.234 . S
C466 H438 0.929 . S
C466 C469 1.391 . S
C466 C471 1.391 . S
C467 H439 0.929 . S
C467 C468 1.390 . S
C467 N470 1.391 . S
C468 H440 0.930 . S
C468 C467 1.390 . S
C468 C469 1.392 . S
C469 H441 0.929 . S
C469 C466 1.391 . S
C469 C468 1.392 . S
N470 Co414 2.257 . S
N470 C467 1.391 . S
N470 C471 1.388 . S
C471 H442 0.930 . S
C471 C466 1.391 . S
C471 N470 1.388 . S
Co472 O474 2.143 . S
Co472 O480 2.074 . S
Co472 O483 2.093 . S
Co472 O496 2.097 . S
Co472 N513 2.151 . S
Co472 N521 2.214 . S
Co473 O474 2.160 . S
Co473 O479 2.058 . S
Co473 O489 2.057 . S
Co473 O504 2.037 . S
Co473 N508 2.145 . S
Co473 N529 2.257 . S
O474 Co472 2.143 . S
O474 Co473 2.160 . S
C475 O476 1.278 . S
C475 O483 1.224 . S
O476 C475 1.278 . S
C477 O478 1.245 . S
C477 O489 1.232 . S
O478 C477 1.245 . S
O479 Co473 2.058 . S
O479 C505 1.269 . S
O480 Co472 2.074 . S
O480 C505 1.257 . S
H481 C506 0.930 . S
H482 C512 0.930 . S
O483 Co472 2.093 . S
O483 C475 1.224 . S
H484 C516 0.929 . S
H485 C518 0.930 . S
H486 C519 0.930 . S
H487 C517 0.929 . S
H488 C520 0.928 . S
O489 Co473 2.057 . S
O489 C477 1.232 . S
H490 C509 0.929 . S
H491 C510 0.929 . S
H492 C522 0.931 . S
H493 C514 0.929 . S
H494 C523 0.930 . S
H495 C515 0.931 . S
O496 Co472 2.097 . S
O496 C524 1.214 . S
H497 C525 0.929 . S
H498 C526 0.929 . S
H499 C527 0.930 . S
H500 C528 0.929 . S
H501 C530 0.930 . S
H502 C507 0.930 . S
H503 C511 0.930 . S
O504 Co473 2.037 . S
O504 C524 1.234 . S
C505 O479 1.269 . S
C505 O480 1.257 . S
C506 H481 0.930 . S
C506 C509 1.388 . S
C506 C511 1.418 . S
C507 H502 0.930 . S
C507 C510 1.404 . S
C507 C511 1.353 . S
N508 Co473 2.145 . S
N508 C509 1.397 . S
N508 C510 1.334 . S
C509 H490 0.929 . S
C509 C506 1.388 . S
C509 N508 1.397 . S
C510 H491 0.929 . S
C510 C507 1.404 . S
C510 N508 1.334 . S
C511 H503 0.930 . S
C511 C506 1.418 . S
C511 C507 1.353 . S
C512 H482 0.930 . S
C512 N513 1.330 . S
C512 C514 1.446 . S
N513 Co472 2.151 . S
N513 C512 1.330 . S
N513 C517 1.418 . S
C514 H493 0.929 . S
C514 C512 1.446 . S
C514 C515 1.332 . S
C515 H495 0.931 . S
C515 C514 1.332 . S
C515 C516 1.267 . S
C516 H484 0.929 . S
C516 C515 1.267 . S
C516 C517 1.251 . S
C517 H487 0.929 . S
C517 N513 1.418 . S
C517 C516 1.251 . S
C518 H485 0.930 . S
C518 C520 1.406 . S
C518 C523 1.261 . S
C519 H486 0.930 . S
C519 N521 1.325 . S
C519 C522 1.357 . S
C520 H488 0.928 . S
C520 C518 1.406 . S
C520 N521 1.261 . S
N521 Co472 2.214 . S
N521 C519 1.325 . S
N521 C520 1.261 . S
C522 H492 0.931 . S
C522 C519 1.357 . S
C522 C523 1.312 . S
C523 H494 0.930 . S
C523 C518 1.261 . S
C523 C522 1.312 . S
C524 O496 1.214 . S
C524 O504 1.234 . S
C525 H497 0.929 . S
C525 C528 1.391 . S
C525 C530 1.391 . S
C526 H498 0.929 . S
C526 C527 1.390 . S
C526 N529 1.391 . S
C527 H499 0.930 . S
C527 C526 1.390 . S
C527 C528 1.392 . S
C528 H500 0.929 . S
C528 C525 1.391 . S
C528 C527 1.392 . S
N529 Co473 2.257 . S
N529 C526 1.391 . S
N529 C530 1.388 . S
C530 H501 0.930 . S
C530 C525 1.391 . S
C530 N529 1.388 . S
Co531 O533 2.143 . S
Co531 O539 2.074 . S
Co531 O542 2.093 . S
Co531 O555 2.097 . S
Co531 N572 2.151 . S
Co531 N580 2.214 . S
Co532 O533 2.160 . S
Co532 O538 2.058 . S
Co532 O548 2.057 . S
Co532 O563 2.037 . S
Co532 N567 2.145 . S
Co532 N588 2.257 . S
O533 Co531 2.143 . S
O533 Co532 2.160 . S
C534 O535 1.278 . S
C534 O542 1.224 . S
O535 C534 1.278 . S
C536 O537 1.245 . S
C536 O548 1.232 . S
O537 C536 1.245 . S
O538 Co532 2.058 . S
O538 C564 1.269 . S
O539 Co531 2.074 . S
O539 C564 1.257 . S
H540 C565 0.930 . S
H541 C571 0.930 . S
O542 Co531 2.093 . S
O542 C534 1.224 . S
H543 C575 0.929 . S
H544 C577 0.930 . S
H545 C578 0.930 . S
H546 C576 0.929 . S
H547 C579 0.928 . S
O548 Co532 2.057 . S
O548 C536 1.232 . S
H549 C568 0.929 . S
H550 C569 0.929 . S
H551 C581 0.931 . S
H552 C573 0.929 . S
H553 C582 0.930 1_455 S
H554 C574 0.931 . S
O555 Co531 2.097 . S
O555 C583 1.214 . S
H556 C584 0.929 . S
H557 C585 0.929 . S
H558 C586 0.930 . S
H559 C587 0.929 . S
H560 C589 0.930 . S
H561 C566 0.930 . S
H562 C570 0.930 . S
O563 Co532 2.037 . S
O563 C583 1.234 . S
C564 O538 1.269 . S
C564 O539 1.257 . S
C565 H540 0.930 . S
C565 C568 1.388 . S
C565 C570 1.418 . S
C566 H561 0.930 . S
C566 C569 1.404 . S
C566 C570 1.353 . S
N567 Co532 2.145 . S
N567 C568 1.397 . S
N567 C569 1.334 . S
C568 H549 0.929 . S
C568 C565 1.388 . S
C568 N567 1.397 . S
C569 H550 0.929 . S
C569 C566 1.404 . S
C569 N567 1.334 . S
C570 H562 0.930 . S
C570 C565 1.418 . S
C570 C566 1.353 . S
C571 H541 0.930 . S
C571 N572 1.330 . S
C571 C573 1.446 . S
N572 Co531 2.151 . S
N572 C571 1.330 . S
N572 C576 1.418 . S
C573 H552 0.929 . S
C573 C571 1.446 . S
C573 C574 1.332 . S
C574 H554 0.931 . S
C574 C573 1.332 . S
C574 C575 1.267 . S
C575 H543 0.929 . S
C575 C574 1.267 . S
C575 C576 1.251 . S
C576 H546 0.929 . S
C576 N572 1.418 . S
C576 C575 1.251 . S
C577 H544 0.930 . S
C577 C579 1.406 . S
C577 C582 1.261 . S
C578 H545 0.930 . S
C578 N580 1.325 . S
C578 C581 1.357 . S
C579 H547 0.928 . S
C579 C577 1.406 . S
C579 N580 1.261 . S
N580 Co531 2.214 . S
N580 C578 1.325 . S
N580 C579 1.261 . S
C581 H551 0.931 . S
C581 C578 1.357 . S
C581 C582 1.312 . S
C582 H553 0.930 1_655 S
C582 C577 1.261 . S
C582 C581 1.312 . S
C583 O555 1.214 . S
C583 O563 1.234 . S
C584 H556 0.929 . S
C584 C587 1.391 . S
C584 C589 1.391 . S
C585 H557 0.929 . S
C585 C586 1.390 . S
C585 N588 1.391 . S
C586 H558 0.930 . S
C586 C585 1.390 . S
C586 C587 1.392 . S
C587 H559 0.929 . S
C587 C584 1.391 . S
C587 C586 1.392 . S
N588 Co532 2.257 . S
N588 C585 1.391 . S
N588 C589 1.388 . S
C589 H560 0.930 . S
C589 C584 1.391 . S
C589 N588 1.388 . S
Co590 O592 2.143 . S
Co590 O598 2.074 . S
Co590 O601 2.093 . S
Co590 O614 2.097 . S
Co590 N631 2.151 . S
Co590 N639 2.214 . S
Co591 O592 2.160 . S
Co591 O597 2.058 . S
Co591 O607 2.057 . S
Co591 O622 2.037 . S
Co591 N626 2.145 . S
Co591 N647 2.257 . S
O592 Co590 2.143 . S
O592 Co591 2.160 . S
C593 O594 1.278 . S
C593 O601 1.224 . S
O594 C593 1.278 . S
C595 O596 1.245 . S
C595 O607 1.232 . S
O596 C595 1.245 . S
O597 Co591 2.058 . S
O597 C623 1.269 . S
O598 Co590 2.074 . S
O598 C623 1.257 . S
H599 C624 0.930 . S
H600 C630 0.930 . S
O601 Co590 2.093 . S
O601 C593 1.224 . S
H602 C634 0.929 . S
H603 C636 0.930 . S
H604 C637 0.930 . S
H605 C635 0.929 . S
H606 C638 0.928 . S
O607 Co591 2.057 . S
O607 C595 1.232 . S
H608 C627 0.929 . S
H609 C628 0.929 . S
H610 C640 0.931 . S
H611 C632 0.929 . S
H612 C641 0.930 1_455 S
H613 C633 0.931 . S
O614 Co590 2.097 . S
O614 C642 1.214 . S
H615 C643 0.929 . S
H616 C644 0.929 . S
H617 C645 0.930 . S
H618 C646 0.929 . S
H619 C648 0.930 . S
H620 C625 0.930 . S
H621 C629 0.930 . S
O622 Co591 2.037 . S
O622 C642 1.234 . S
C623 O597 1.269 . S
C623 O598 1.257 . S
C624 H599 0.930 . S
C624 C627 1.388 . S
C624 C629 1.418 . S
C625 H620 0.930 . S
C625 C628 1.404 . S
C625 C629 1.353 . S
N626 Co591 2.145 . S
N626 C627 1.397 . S
N626 C628 1.334 . S
C627 H608 0.929 . S
C627 C624 1.388 . S
C627 N626 1.397 . S
C628 H609 0.929 . S
C628 C625 1.404 . S
C628 N626 1.334 . S
C629 H621 0.930 . S
C629 C624 1.418 . S
C629 C625 1.353 . S
C630 H600 0.930 . S
C630 N631 1.330 . S
C630 C632 1.446 . S
N631 Co590 2.151 . S
N631 C630 1.330 . S
N631 C635 1.418 . S
C632 H611 0.929 . S
C632 C630 1.446 . S
C632 C633 1.332 . S
C633 H613 0.931 . S
C633 C632 1.332 . S
C633 C634 1.267 . S
C634 H602 0.929 . S
C634 C633 1.267 . S
C634 C635 1.251 . S
C635 H605 0.929 . S
C635 N631 1.418 . S
C635 C634 1.251 . S
C636 H603 0.930 . S
C636 C638 1.406 . S
C636 C641 1.261 . S
C637 H604 0.930 . S
C637 N639 1.325 . S
C637 C640 1.357 . S
C638 H606 0.928 . S
C638 C636 1.406 . S
C638 N639 1.261 . S
N639 Co590 2.214 . S
N639 C637 1.325 . S
N639 C638 1.261 . S
C640 H610 0.931 . S
C640 C637 1.357 . S
C640 C641 1.312 . S
C641 H612 0.930 1_655 S
C641 C636 1.261 . S
C641 C640 1.312 . S
C642 O614 1.214 . S
C642 O622 1.234 . S
C643 H615 0.929 . S
C643 C646 1.391 . S
C643 C648 1.391 . S
C644 H616 0.929 . S
C644 C645 1.390 . S
C644 N647 1.391 . S
C645 H617 0.930 . S
C645 C644 1.390 . S
C645 C646 1.392 . S
C646 H618 0.929 . S
C646 C643 1.391 . S
C646 C645 1.392 . S
N647 Co591 2.257 . S
N647 C644 1.391 . S
N647 C648 1.388 . S
C648 H619 0.930 . S
C648 C643 1.391 . S
C648 N647 1.388 . S
Co649 O651 2.143 . S
Co649 O657 2.074 . S
Co649 O660 2.093 . S
Co649 O673 2.097 . S
Co649 N690 2.151 . S
Co649 N698 2.214 . S
Co650 O651 2.160 . S
Co650 O656 2.058 . S
Co650 O666 2.057 . S
Co650 O681 2.037 . S
Co650 N685 2.145 . S
Co650 N706 2.257 . S
O651 Co649 2.143 . S
O651 Co650 2.160 . S
C652 O653 1.278 . S
C652 O660 1.224 . S
O653 C652 1.278 . S
C654 O655 1.245 . S
C654 O666 1.232 . S
O655 C654 1.245 . S
O656 Co650 2.058 . S
O656 C682 1.269 . S
O657 Co649 2.074 . S
O657 C682 1.257 . S
H658 C683 0.930 . S
H659 C689 0.930 . S
O660 Co649 2.093 . S
O660 C652 1.224 . S
H661 C693 0.929 . S
H662 C695 0.930 . S
H663 C696 0.930 . S
H664 C694 0.929 . S
H665 C697 0.928 . S
O666 Co650 2.057 . S
O666 C654 1.232 . S
H667 C686 0.929 . S
H668 C687 0.929 . S
H669 C699 0.931 . S
H670 C691 0.929 . S
H671 C700 0.930 . S
H672 C692 0.931 . S
O673 Co649 2.097 . S
O673 C701 1.214 . S
H674 C702 0.929 . S
H675 C703 0.929 . S
H676 C704 0.930 . S
H677 C705 0.929 . S
H678 C707 0.930 . S
H679 C684 0.930 . S
H680 C688 0.930 . S
O681 Co650 2.037 . S
O681 C701 1.234 . S
C682 O656 1.269 . S
C682 O657 1.257 . S
C683 H658 0.930 . S
C683 C686 1.388 . S
C683 C688 1.418 . S
C684 H679 0.930 . S
C684 C687 1.404 . S
C684 C688 1.353 . S
N685 Co650 2.145 . S
N685 C686 1.397 . S
N685 C687 1.334 . S
C686 H667 0.929 . S
C686 C683 1.388 . S
C686 N685 1.397 . S
C687 H668 0.929 . S
C687 C684 1.404 . S
C687 N685 1.334 . S
C688 H680 0.930 . S
C688 C683 1.418 . S
C688 C684 1.353 . S
C689 H659 0.930 . S
C689 N690 1.330 . S
C689 C691 1.446 . S
N690 Co649 2.151 . S
N690 C689 1.330 . S
N690 C694 1.418 . S
C691 H670 0.929 . S
C691 C689 1.446 . S
C691 C692 1.332 . S
C692 H672 0.931 . S
C692 C691 1.332 . S
C692 C693 1.267 . S
C693 H661 0.929 . S
C693 C692 1.267 . S
C693 C694 1.251 . S
C694 H664 0.929 . S
C694 N690 1.418 . S
C694 C693 1.251 . S
C695 H662 0.930 . S
C695 C697 1.406 . S
C695 C700 1.261 . S
C696 H663 0.930 . S
C696 N698 1.325 . S
C696 C699 1.357 . S
C697 H665 0.928 . S
C697 C695 1.406 . S
C697 N698 1.261 . S
N698 Co649 2.214 . S
N698 C696 1.325 . S
N698 C697 1.261 . S
C699 H669 0.931 . S
C699 C696 1.357 . S
C699 C700 1.312 . S
C700 H671 0.930 . S
C700 C695 1.261 . S
C700 C699 1.312 . S
C701 O673 1.214 . S
C701 O681 1.234 . S
C702 H674 0.929 . S
C702 C705 1.391 . S
C702 C707 1.391 . S
C703 H675 0.929 . S
C703 C704 1.390 . S
C703 N706 1.391 . S
C704 H676 0.930 . S
C704 C703 1.390 . S
C704 C705 1.392 . S
C705 H677 0.929 . S
C705 C702 1.391 . S
C705 C704 1.392 . S
N706 Co650 2.257 . S
N706 C703 1.391 . S
N706 C707 1.388 . S
C707 H678 0.930 . S
C707 C702 1.391 . S
C707 N706 1.388 . S
Co708 O710 2.143 . S
Co708 O716 2.074 . S
Co708 O719 2.093 . S
Co708 O732 2.097 . S
Co708 N749 2.151 . S
Co708 N757 2.214 . S
Co709 O710 2.160 . S
Co709 O715 2.058 . S
Co709 O725 2.057 . S
Co709 O740 2.037 . S
Co709 N744 2.145 . S
Co709 N765 2.257 . S
O710 Co708 2.143 . S
O710 Co709 2.160 . S
C711 O712 1.278 . S
C711 O719 1.224 . S
O712 C711 1.278 . S
C713 O714 1.245 . S
C713 O725 1.232 . S
O714 C713 1.245 . S
O715 Co709 2.058 . S
O715 C741 1.269 . S
O716 Co708 2.074 . S
O716 C741 1.257 . S
H717 C742 0.930 . S
H718 C748 0.930 . S
O719 Co708 2.093 . S
O719 C711 1.224 . S
H720 C752 0.929 . S
H721 C754 0.930 . S
H722 C755 0.930 . S
H723 C753 0.929 . S
H724 C756 0.928 . S
O725 Co709 2.057 . S
O725 C713 1.232 . S
H726 C745 0.929 . S
H727 C746 0.929 . S
H728 C758 0.931 . S
H729 C750 0.929 . S
H730 C759 0.930 . S
H731 C751 0.931 . S
O732 Co708 2.097 . S
O732 C760 1.214 . S
H733 C761 0.929 . S
H734 C762 0.929 . S
H735 C763 0.930 . S
H736 C764 0.929 . S
H737 C766 0.930 . S
H738 C743 0.930 . S
H739 C747 0.930 . S
O740 Co709 2.037 . S
O740 C760 1.234 . S
C741 O715 1.269 . S
C741 O716 1.257 . S
C742 H717 0.930 . S
C742 C745 1.388 . S
C742 C747 1.418 . S
C743 H738 0.930 . S
C743 C746 1.404 . S
C743 C747 1.353 . S
N744 Co709 2.145 . S
N744 C745 1.397 . S
N744 C746 1.334 . S
C745 H726 0.929 . S
C745 C742 1.388 . S
C745 N744 1.397 . S
C746 H727 0.929 . S
C746 C743 1.404 . S
C746 N744 1.334 . S
C747 H739 0.930 . S
C747 C742 1.418 . S
C747 C743 1.353 . S
C748 H718 0.930 . S
C748 N749 1.330 . S
C748 C750 1.446 . S
N749 Co708 2.151 . S
N749 C748 1.330 . S
N749 C753 1.418 . S
C750 H729 0.929 . S
C750 C748 1.446 . S
C750 C751 1.332 . S
C751 H731 0.931 . S
C751 C750 1.332 . S
C751 C752 1.267 . S
C752 H720 0.929 . S
C752 C751 1.267 . S
C752 C753 1.251 . S
C753 H723 0.929 . S
C753 N749 1.418 . S
C753 C752 1.251 . S
C754 H721 0.930 . S
C754 C756 1.406 . S
C754 C759 1.261 . S
C755 H722 0.930 . S
C755 N757 1.325 . S
C755 C758 1.357 . S
C756 H724 0.928 . S
C756 C754 1.406 . S
C756 N757 1.261 . S
N757 Co708 2.214 . S
N757 C755 1.325 . S
N757 C756 1.261 . S
C758 H728 0.931 . S
C758 C755 1.357 . S
C758 C759 1.312 . S
C759 H730 0.930 . S
C759 C754 1.261 . S
C759 C758 1.312 . S
C760 O732 1.214 . S
C760 O740 1.234 . S
C761 H733 0.929 . S
C761 C764 1.391 . S
C761 C766 1.391 . S
C762 H734 0.929 . S
C762 C763 1.390 . S
C762 N765 1.391 . S
C763 H735 0.930 . S
C763 C762 1.390 . S
C763 C764 1.392 . S
C764 H736 0.929 . S
C764 C761 1.391 . S
C764 C763 1.392 . S
N765 Co709 2.257 . S
N765 C762 1.391 . S
N765 C766 1.388 . S
C766 H737 0.930 . S
C766 C761 1.391 . S
C766 N765 1.388 . S
Co767 O769 2.143 . S
Co767 O775 2.074 . S
Co767 O778 2.093 1_455 S
Co767 O791 2.097 1_455 S
Co767 N808 2.151 . S
Co767 N816 2.214 . S
Co768 O769 2.160 1_655 S
Co768 O774 2.058 1_655 S
Co768 O784 2.057 1_655 S
Co768 O799 2.037 . S
Co768 N803 2.145 . S
Co768 N824 2.257 . S
O769 Co767 2.143 . S
O769 Co768 2.160 1_455 S
C770 O771 1.278 . S
C770 O778 1.224 . S
O771 C770 1.278 . S
C772 O773 1.245 . S
C772 O784 1.232 . S
O773 C772 1.245 . S
O774 Co768 2.058 1_455 S
O774 C800 1.269 . S
O775 Co767 2.074 . S
O775 C800 1.257 . S
H776 C801 0.930 . S
H777 C807 0.930 . S
O778 Co767 2.093 1_655 S
O778 C770 1.224 . S
H779 C811 0.929 . S
H780 C813 0.930 . S
H781 C814 0.930 . S
H782 C812 0.929 . S
H783 C815 0.928 . S
O784 Co768 2.057 1_455 S
O784 C772 1.232 . S
H785 C804 0.929 . S
H786 C805 0.929 . S
H787 C817 0.931 . S
H788 C809 0.929 . S
H789 C818 0.930 . S
H790 C810 0.931 . S
O791 Co767 2.097 1_655 S
O791 C819 1.214 . S
H792 C820 0.929 . S
H793 C821 0.929 . S
H794 C822 0.930 . S
H795 C823 0.929 . S
H796 C825 0.930 . S
H797 C802 0.930 . S
H798 C806 0.930 . S
O799 Co768 2.037 . S
O799 C819 1.234 . S
C800 O774 1.269 . S
C800 O775 1.257 . S
C801 H776 0.930 . S
C801 C804 1.388 . S
C801 C806 1.418 . S
C802 H797 0.930 . S
C802 C805 1.404 . S
C802 C806 1.353 . S
N803 Co768 2.145 . S
N803 C804 1.397 . S
N803 C805 1.334 . S
C804 H785 0.929 . S
C804 C801 1.388 . S
C804 N803 1.397 . S
C805 H786 0.929 . S
C805 C802 1.404 . S
C805 N803 1.334 . S
C806 H798 0.930 . S
C806 C801 1.418 . S
C806 C802 1.353 . S
C807 H777 0.930 . S
C807 N808 1.330 . S
C807 C809 1.446 . S
N808 Co767 2.151 . S
N808 C807 1.330 . S
N808 C812 1.418 . S
C809 H788 0.929 . S
C809 C807 1.446 . S
C809 C810 1.332 . S
C810 H790 0.931 . S
C810 C809 1.332 . S
C810 C811 1.267 . S
C811 H779 0.929 . S
C811 C810 1.267 . S
C811 C812 1.251 . S
C812 H782 0.929 . S
C812 N808 1.418 . S
C812 C811 1.251 . S
C813 H780 0.930 . S
C813 C815 1.406 . S
C813 C818 1.261 . S
C814 H781 0.930 . S
C814 N816 1.325 . S
C814 C817 1.357 . S
C815 H783 0.928 . S
C815 C813 1.406 . S
C815 N816 1.261 . S
N816 Co767 2.214 . S
N816 C814 1.325 . S
N816 C815 1.261 . S
C817 H787 0.931 . S
C817 C814 1.357 . S
C817 C818 1.312 . S
C818 H789 0.930 . S
C818 C813 1.261 . S
C818 C817 1.312 . S
C819 O791 1.214 . S
C819 O799 1.234 . S
C820 H792 0.929 . S
C820 C823 1.391 . S
C820 C825 1.391 . S
C821 H793 0.929 . S
C821 C822 1.390 . S
C821 N824 1.391 . S
C822 H794 0.930 . S
C822 C821 1.390 . S
C822 C823 1.392 . S
C823 H795 0.929 . S
C823 C820 1.391 . S
C823 C822 1.392 . S
N824 Co768 2.257 . S
N824 C821 1.391 . S
N824 C825 1.388 . S
C825 H796 0.930 . S
C825 C820 1.391 . S
C825 N824 1.388 . S
Co826 O828 2.143 . S
Co826 O834 2.074 . S
Co826 O837 2.093 . S
Co826 O850 2.097 . S
Co826 N867 2.151 . S
Co826 N875 2.214 . S
Co827 O828 2.160 . S
Co827 O833 2.058 . S
Co827 O843 2.057 . S
Co827 O858 2.037 . S
Co827 N862 2.145 . S
Co827 N883 2.257 . S
O828 Co826 2.143 . S
O828 Co827 2.160 . S
C829 O830 1.278 . S
C829 O837 1.224 . S
O830 C829 1.278 . S
C831 O832 1.245 . S
C831 O843 1.232 . S
O832 C831 1.245 . S
O833 Co827 2.058 . S
O833 C859 1.269 . S
O834 Co826 2.074 . S
O834 C859 1.257 . S
H835 C860 0.930 . S
H836 C866 0.930 . S
O837 Co826 2.093 . S
O837 C829 1.224 . S
H838 C870 0.929 . S
H839 C872 0.930 . S
H840 C873 0.930 . S
H841 C871 0.929 . S
H842 C874 0.928 . S
O843 Co827 2.057 . S
O843 C831 1.232 . S
H844 C863 0.929 . S
H845 C864 0.929 . S
H846 C876 0.931 . S
H847 C868 0.929 . S
H848 C877 0.930 . S
H849 C869 0.931 . S
O850 Co826 2.097 . S
O850 C878 1.214 . S
H851 C879 0.929 . S
H852 C880 0.929 . S
H853 C881 0.930 . S
H854 C882 0.929 . S
H855 C884 0.930 . S
H856 C861 0.930 . S
H857 C865 0.930 . S
O858 Co827 2.037 . S
O858 C878 1.234 . S
C859 O833 1.269 . S
C859 O834 1.257 . S
C860 H835 0.930 . S
C860 C863 1.388 . S
C860 C865 1.418 . S
C861 H856 0.930 . S
C861 C864 1.404 . S
C861 C865 1.353 . S
N862 Co827 2.145 . S
N862 C863 1.397 . S
N862 C864 1.334 . S
C863 H844 0.929 . S
C863 C860 1.388 . S
C863 N862 1.397 . S
C864 H845 0.929 . S
C864 C861 1.404 . S
C864 N862 1.334 . S
C865 H857 0.930 . S
C865 C860 1.418 . S
C865 C861 1.353 . S
C866 H836 0.930 . S
C866 N867 1.330 . S
C866 C868 1.446 . S
N867 Co826 2.151 . S
N867 C866 1.330 . S
N867 C871 1.418 . S
C868 H847 0.929 . S
C868 C866 1.446 . S
C868 C869 1.332 . S
C869 H849 0.931 . S
C869 C868 1.332 . S
C869 C870 1.267 . S
C870 H838 0.929 . S
C870 C869 1.267 . S
C870 C871 1.251 . S
C871 H841 0.929 . S
C871 N867 1.418 . S
C871 C870 1.251 . S
C872 H839 0.930 . S
C872 C874 1.406 . S
C872 C877 1.261 . S
C873 H840 0.930 . S
C873 N875 1.325 . S
C873 C876 1.357 . S
C874 H842 0.928 . S
C874 C872 1.406 . S
C874 N875 1.261 . S
N875 Co826 2.214 . S
N875 C873 1.325 . S
N875 C874 1.261 . S
C876 H846 0.931 . S
C876 C873 1.357 . S
C876 C877 1.312 . S
C877 H848 0.930 . S
C877 C872 1.261 . S
C877 C876 1.312 . S
C878 O850 1.214 . S
C878 O858 1.234 . S
C879 H851 0.929 . S
C879 C882 1.391 . S
C879 C884 1.391 . S
C880 H852 0.929 . S
C880 C881 1.390 . S
C880 N883 1.391 . S
C881 H853 0.930 . S
C881 C880 1.390 . S
C881 C882 1.392 . S
C882 H854 0.929 . S
C882 C879 1.391 . S
C882 C881 1.392 . S
N883 Co827 2.257 . S
N883 C880 1.391 . S
N883 C884 1.388 . S
C884 H855 0.930 . S
C884 C879 1.391 . S
C884 N883 1.388 . S
Co885 O887 2.143 . S
Co885 O893 2.074 . S
Co885 O896 2.093 1_455 S
Co885 O909 2.097 1_455 S
Co885 N926 2.151 . S
Co885 N934 2.214 . S
Co886 O887 2.160 1_655 S
Co886 O892 2.058 1_655 S
Co886 O902 2.057 1_655 S
Co886 O917 2.037 . S
Co886 N921 2.145 . S
Co886 N942 2.257 . S
O887 Co885 2.143 . S
O887 Co886 2.160 1_455 S
C888 O889 1.278 . S
C888 O896 1.224 . S
O889 C888 1.278 . S
C890 O891 1.245 . S
C890 O902 1.232 . S
O891 C890 1.245 . S
O892 Co886 2.058 1_455 S
O892 C918 1.269 . S
O893 Co885 2.074 . S
O893 C918 1.257 . S
H894 C919 0.930 . S
H895 C925 0.930 . S
O896 Co885 2.093 1_655 S
O896 C888 1.224 . S
H897 C929 0.929 . S
H898 C931 0.930 . S
H899 C932 0.930 . S
H900 C930 0.929 . S
H901 C933 0.928 . S
O902 Co886 2.057 1_455 S
O902 C890 1.232 . S
H903 C922 0.929 . S
H904 C923 0.929 . S
H905 C935 0.931 . S
H906 C927 0.929 . S
H907 C936 0.930 . S
H908 C928 0.931 . S
O909 Co885 2.097 1_655 S
O909 C937 1.214 . S
H910 C938 0.929 . S
H911 C939 0.929 . S
H912 C940 0.930 . S
H913 C941 0.929 . S
H914 C943 0.930 . S
H915 C920 0.930 . S
H916 C924 0.930 . S
O917 Co886 2.037 . S
O917 C937 1.234 . S
C918 O892 1.269 . S
C918 O893 1.257 . S
C919 H894 0.930 . S
C919 C922 1.388 . S
C919 C924 1.418 . S
C920 H915 0.930 . S
C920 C923 1.404 . S
C920 C924 1.353 . S
N921 Co886 2.145 . S
N921 C922 1.397 . S
N921 C923 1.334 . S
C922 H903 0.929 . S
C922 C919 1.388 . S
C922 N921 1.397 . S
C923 H904 0.929 . S
C923 C920 1.404 . S
C923 N921 1.334 . S
C924 H916 0.930 . S
C924 C919 1.418 . S
C924 C920 1.353 . S
C925 H895 0.930 . S
C925 N926 1.330 . S
C925 C927 1.446 . S
N926 Co885 2.151 . S
N926 C925 1.330 . S
N926 C930 1.418 . S
C927 H906 0.929 . S
C927 C925 1.446 . S
C927 C928 1.332 . S
C928 H908 0.931 . S
C928 C927 1.332 . S
C928 C929 1.267 . S
C929 H897 0.929 . S
C929 C928 1.267 . S
C929 C930 1.251 . S
C930 H900 0.929 . S
C930 N926 1.418 . S
C930 C929 1.251 . S
C931 H898 0.930 . S
C931 C933 1.406 . S
C931 C936 1.261 . S
C932 H899 0.930 . S
C932 N934 1.325 . S
C932 C935 1.357 . S
C933 H901 0.928 . S
C933 C931 1.406 . S
C933 N934 1.261 . S
N934 Co885 2.214 . S
N934 C932 1.325 . S
N934 C933 1.261 . S
C935 H905 0.931 . S
C935 C932 1.357 . S
C935 C936 1.312 . S
C936 H907 0.930 . S
C936 C931 1.261 . S
C936 C935 1.312 . S
C937 O909 1.214 . S
C937 O917 1.234 . S
C938 H910 0.929 . S
C938 C941 1.391 . S
C938 C943 1.391 . S
C939 H911 0.929 . S
C939 C940 1.390 . S
C939 N942 1.391 . S
C940 H912 0.930 . S
C940 C939 1.390 . S
C940 C941 1.392 . S
C941 H913 0.929 . S
C941 C938 1.391 . S
C941 C940 1.392 . S
N942 Co886 2.257 . S
N942 C939 1.391 . S
N942 C943 1.388 . S
C943 H914 0.930 . S
C943 C938 1.391 . S
C943 N942 1.388 . S
C944 C945 1.387 . S
C944 H948 0.950 . S
C944 C953 1.390 1_655 S
C945 C944 1.387 . S
C945 C947 1.387 . S
H946 C953 0.950 . S
C947 C945 1.387 . S
C947 C949 1.390 1_655 S
C947 H951 0.950 . S
H948 C944 0.950 . S
C949 C947 1.390 1_455 S
C949 C950 1.387 . S
C949 H952 0.950 . S
C950 C949 1.387 . S
C950 C953 1.387 . S
H951 C947 0.950 . S
H952 C949 0.950 . S
C953 C944 1.390 1_455 S
C953 H946 0.950 . S
C953 C950 1.387 . S
C954 C955 1.387 . S
C954 H958 0.950 . S
C954 C963 1.390 1_655 S
C955 C954 1.387 . S
C955 C957 1.387 . S
H956 C963 0.950 . S
C957 C955 1.387 . S
C957 C959 1.390 1_655 S
C957 H961 0.950 . S
H958 C954 0.950 . S
C959 C957 1.390 1_455 S
C959 C960 1.387 . S
C959 H962 0.950 . S
C960 C959 1.387 . S
C960 C963 1.387 . S
H961 C957 0.950 . S
H962 C959 0.950 . S
C963 C954 1.390 1_455 S
C963 H956 0.950 . S
C963 C960 1.387 . S
C964 C965 1.387 . S
C964 H968 0.950 . S
C964 C973 1.390 . S
C965 C964 1.387 . S
C965 C967 1.387 . S
H966 C973 0.950 . S
C967 C965 1.387 . S
C967 C969 1.390 . S
C967 H971 0.950 . S
H968 C964 0.950 . S
C969 C967 1.390 . S
C969 C970 1.387 . S
C969 H972 0.950 . S
C970 C969 1.387 . S
C970 C973 1.387 . S
H971 C967 0.950 . S
H972 C969 0.950 . S
C973 C964 1.390 . S
C973 H966 0.950 . S
C973 C970 1.387 . S
C974 C975 1.387 . S
C974 H978 0.950 . S
C974 C983 1.390 . S
C975 C974 1.387 . S
C975 C977 1.387 . S
H976 C983 0.950 . S
C977 C975 1.387 . S
C977 C979 1.390 . S
C977 H981 0.950 . S
H978 C974 0.950 . S
C979 C977 1.390 . S
C979 C980 1.387 . S
C979 H982 0.950 . S
C980 C979 1.387 . S
C980 C983 1.387 . S
H981 C977 0.950 . S
H982 C979 0.950 . S
C983 C974 1.390 . S
C983 H976 0.950 . S
C983 C980 1.387 . S
C984 C985 1.387 . S
C984 H988 0.950 . S
C984 C993 1.390 1_655 S
C985 C984 1.387 . S
C985 C987 1.387 . S
H986 C993 0.950 . S
C987 C985 1.387 . S
C987 C989 1.390 1_655 S
C987 H991 0.950 . S
H988 C984 0.950 . S
C989 C987 1.390 1_455 S
C989 C990 1.387 . S
C989 H992 0.950 . S
C990 C989 1.387 . S
C990 C993 1.387 . S
H991 C987 0.950 . S
H992 C989 0.950 . S
C993 C984 1.390 1_455 S
C993 H986 0.950 . S
C993 C990 1.387 . S
C994 C995 1.387 . S
C994 H998 0.950 . S
C994 C1003 1.390 . S
C995 C994 1.387 . S
C995 C997 1.387 . S
H996 C1003 0.950 . S
C997 C995 1.387 . S
C997 C999 1.390 . S
C997 H1001 0.950 . S
H998 C994 0.950 . S
C999 C997 1.390 . S
C999 C1000 1.387 . S
C999 H1002 0.950 . S
C1000 C999 1.387 . S
C1000 C1003 1.387 . S
H1001 C997 0.950 . S
H1002 C999 0.950 . S
C1003 C994 1.390 . S
C1003 H996 0.950 . S
C1003 C1000 1.387 . S
C1004 C1005 1.387 . S
C1004 H1008 0.950 . S
C1004 C1013 1.390 . S
C1005 C1004 1.387 . S
C1005 C1007 1.387 . S
H1006 C1013 0.950 . S
C1007 C1005 1.387 . S
C1007 C1009 1.390 . S
C1007 H1011 0.950 . S
H1008 C1004 0.950 . S
C1009 C1007 1.390 . S
C1009 C1010 1.387 . S
C1009 H1012 0.950 . S
C1010 C1009 1.387 . S
C1010 C1013 1.387 . S
H1011 C1007 0.950 . S
H1012 C1009 0.950 . S
C1013 C1004 1.390 . S
C1013 H1006 0.950 . S
C1013 C1010 1.387 . S
C1014 C1015 1.387 . S
C1014 H1018 0.950 . S
C1014 C1023 1.390 1_455 S
C1015 C1014 1.387 . S
C1015 C1017 1.387 . S
H1016 C1023 0.950 . S
C1017 C1015 1.387 . S
C1017 C1019 1.390 1_455 S
C1017 H1021 0.950 . S
H1018 C1014 0.950 . S
C1019 C1017 1.390 1_655 S
C1019 C1020 1.387 . S
C1019 H1022 0.950 . S
C1020 C1019 1.387 . S
C1020 C1023 1.387 . S
H1021 C1017 0.950 . S
H1022 C1019 0.950 . S
C1023 C1014 1.390 1_655 S
C1023 H1016 0.950 . S
C1023 C1020 1.387 . S
C1024 C1025 1.387 1_655 S
C1024 H1028 0.950 . S
C1024 C1033 1.390 1_565 S
C1025 C1024 1.387 1_455 S
C1025 C1027 1.387 . S
H1026 C1033 0.950 . S
C1027 C1025 1.387 . S
C1027 C1029 1.390 1_565 S
C1027 H1031 0.950 . S
H1028 C1024 0.950 . S
C1029 C1027 1.390 1_545 S
C1029 C1030 1.387 . S
C1029 H1032 0.950 . S
C1030 C1029 1.387 . S
C1030 C1033 1.387 1_455 S
H1031 C1027 0.950 . S
H1032 C1029 0.950 . S
C1033 C1024 1.390 1_545 S
C1033 H1026 0.950 . S
C1033 C1030 1.387 1_655 S
C1034 C1035 1.387 . S
C1034 H1038 0.950 . S
C1034 C1043 1.390 . S
C1035 C1034 1.387 . S
C1035 C1037 1.387 . S
H1036 C1043 0.950 . S
C1037 C1035 1.387 . S
C1037 C1039 1.390 . S
C1037 H1041 0.950 . S
H1038 C1034 0.950 . S
C1039 C1037 1.390 . S
C1039 C1040 1.387 . S
C1039 H1042 0.950 . S
C1040 C1039 1.387 . S
C1040 C1043 1.387 . S
H1041 C1037 0.950 . S
H1042 C1039 0.950 . S
C1043 C1034 1.390 . S
C1043 H1036 0.950 . S
C1043 C1040 1.387 . S
C1044 C1045 1.387 . S
C1044 H1048 0.950 . S
C1044 C1053 1.390 1_564 S
C1045 C1044 1.387 . S
C1045 C1047 1.387 . S
H1046 C1053 0.950 . S
C1047 C1045 1.387 . S
C1047 C1049 1.390 1_564 S
C1047 H1051 0.950 . S
H1048 C1044 0.950 . S
C1049 C1047 1.390 1_546 S
C1049 C1050 1.387 . S
C1049 H1052 0.950 . S
C1050 C1049 1.387 . S
C1050 C1053 1.387 . S
H1051 C1047 0.950 . S
H1052 C1049 0.950 . S
C1053 C1044 1.390 1_546 S
C1053 H1046 0.950 . S
C1053 C1050 1.387 . S
C1054 C1055 1.387 . S
C1054 H1058 0.950 . S
C1054 C1063 1.390 . S
C1055 C1054 1.387 . S
C1055 C1057 1.387 . S
H1056 C1063 0.950 . S
C1057 C1055 1.387 . S
C1057 C1059 1.390 . S
C1057 H1061 0.950 . S
H1058 C1054 0.950 . S
C1059 C1057 1.390 . S
C1059 C1060 1.387 . S
C1059 H1062 0.950 . S
C1060 C1059 1.387 . S
C1060 C1063 1.387 . S
H1061 C1057 0.950 . S
H1062 C1059 0.950 . S
C1063 C1054 1.390 . S
C1063 H1056 0.950 . S
C1063 C1060 1.387 . S
C1064 C1065 1.387 . S
C1064 H1068 0.950 . S
C1064 C1073 1.390 . S
C1065 C1064 1.387 . S
C1065 C1067 1.387 . S
H1066 C1073 0.950 . S
C1067 C1065 1.387 . S
C1067 C1069 1.390 . S
C1067 H1071 0.950 . S
H1068 C1064 0.950 . S
C1069 C1067 1.390 . S
C1069 C1070 1.387 . S
C1069 H1072 0.950 . S
C1070 C1069 1.387 . S
C1070 C1073 1.387 . S
H1071 C1067 0.950 . S
H1072 C1069 0.950 . S
C1073 C1064 1.390 . S
C1073 H1066 0.950 . S
C1073 C1070 1.387 . S
C1074 C1075 1.387 . S
C1074 H1078 0.950 . S
C1074 C1083 1.390 . S
C1075 C1074 1.387 . S
C1075 C1077 1.387 . S
H1076 C1083 0.950 . S
C1077 C1075 1.387 . S
C1077 C1079 1.390 . S
C1077 H1081 0.950 . S
H1078 C1074 0.950 . S
C1079 C1077 1.390 . S
C1079 C1080 1.387 . S
C1079 H1082 0.950 . S
C1080 C1079 1.387 . S
C1080 C1083 1.387 . S
H1081 C1077 0.950 . S
H1082 C1079 0.950 . S
C1083 C1074 1.390 . S
C1083 H1076 0.950 . S
C1083 C1080 1.387 . S
C1084 C1085 1.387 . S
C1084 H1088 0.950 . S
C1084 C1093 1.390 1_556 S
C1085 C1084 1.387 . S
C1085 C1087 1.387 . S
H1086 C1093 0.950 . S
C1087 C1085 1.387 . S
C1087 C1089 1.390 1_556 S
C1087 H1091 0.950 . S
H1088 C1084 0.950 . S
C1089 C1087 1.390 1_554 S
C1089 C1090 1.387 . S
C1089 H1092 0.950 . S
C1090 C1089 1.387 . S
C1090 C1093 1.387 . S
H1091 C1087 0.950 . S
H1092 C1089 0.950 . S
C1093 C1084 1.390 1_554 S
C1093 H1086 0.950 . S
C1093 C1090 1.387 . S
C1094 C1095 1.387 1_455 S
C1094 H1098 0.950 . S
C1094 C1103 1.390 . S
C1095 C1094 1.387 1_655 S
C1095 C1097 1.387 . S
H1096 C1103 0.950 . S
C1097 C1095 1.387 . S
C1097 C1099 1.390 . S
C1097 H1101 0.950 . S
H1098 C1094 0.950 . S
C1099 C1097 1.390 . S
C1099 C1100 1.387 . S
C1099 H1102 0.950 . S
C1100 C1099 1.387 . S
C1100 C1103 1.387 1_655 S
H1101 C1097 0.950 . S
H1102 C1099 0.950 . S
C1103 C1094 1.390 . S
C1103 H1096 0.950 . S
C1103 C1100 1.387 1_455 S
C1104 C1105 1.387 . S
C1104 H1108 0.950 . S
C1104 C1113 1.390 . S
C1105 C1104 1.387 . S
C1105 C1107 1.387 . S
H1106 C1113 0.950 . S
C1107 C1105 1.387 . S
C1107 C1109 1.390 . S
C1107 H1111 0.950 . S
H1108 C1104 0.950 . S
C1109 C1107 1.390 . S
C1109 C1110 1.387 . S
C1109 H1112 0.950 . S
C1110 C1109 1.387 . S
C1110 C1113 1.387 . S
H1111 C1107 0.950 . S
H1112 C1109 0.950 . S
C1113 C1104 1.390 . S
C1113 H1106 0.950 . S
C1113 C1110 1.387 . S
C1114 C1115 1.387 . S
C1114 H1118 0.950 . S
C1114 C1123 1.390 . S
C1115 C1114 1.387 . S
C1115 C1117 1.387 . S
H1116 C1123 0.950 . S
C1117 C1115 1.387 . S
C1117 C1119 1.390 . S
C1117 H1121 0.950 . S
H1118 C1114 0.950 . S
C1119 C1117 1.390 . S
C1119 C1120 1.387 . S
C1119 H1122 0.950 . S
C1120 C1119 1.387 . S
C1120 C1123 1.387 . S
H1121 C1117 0.950 . S
H1122 C1119 0.950 . S
C1123 C1114 1.390 . S
C1123 H1116 0.950 . S
C1123 C1120 1.387 . S
C1124 C1125 1.387 . S
C1124 H1128 0.950 . S
C1124 C1133 1.390 . S
C1125 C1124 1.387 . S
C1125 C1127 1.387 . S
H1126 C1133 0.950 . S
C1127 C1125 1.387 . S
C1127 C1129 1.390 . S
C1127 H1131 0.950 . S
H1128 C1124 0.950 . S
C1129 C1127 1.390 . S
C1129 C1130 1.387 . S
C1129 H1132 0.950 . S
C1130 C1129 1.387 . S
C1130 C1133 1.387 . S
H1131 C1127 0.950 . S
H1132 C1129 0.950 . S
C1133 C1124 1.390 . S
C1133 H1126 0.950 . S
C1133 C1130 1.387 . S
C1134 C1135 1.387 . S
C1134 H1138 0.950 . S
C1134 C1143 1.390 . S
C1135 C1134 1.387 . S
C1135 C1137 1.387 . S
H1136 C1143 0.950 . S
C1137 C1135 1.387 . S
C1137 C1139 1.390 . S
C1137 H1141 0.950 . S
H1138 C1134 0.950 . S
C1139 C1137 1.390 . S
C1139 C1140 1.387 . S
C1139 H1142 0.950 . S
C1140 C1139 1.387 . S
C1140 C1143 1.387 . S
H1141 C1137 0.950 . S
H1142 C1139 0.950 . S
C1143 C1134 1.390 . S
C1143 H1136 0.950 . S
C1143 C1140 1.387 . S
C1144 C1145 1.387 . S
C1144 H1148 0.950 . S
C1144 C1153 1.390 . S
C1145 C1144 1.387 . S
C1145 C1147 1.387 . S
H1146 C1153 0.950 . S
C1147 C1145 1.387 . S
C1147 C1149 1.390 . S
C1147 H1151 0.950 . S
H1148 C1144 0.950 . S
C1149 C1147 1.390 . S
C1149 C1150 1.387 . S
C1149 H1152 0.950 . S
C1150 C1149 1.387 . S
C1150 C1153 1.387 . S
H1151 C1147 0.950 . S
H1152 C1149 0.950 . S
C1153 C1144 1.390 . S
C1153 H1146 0.950 . S
C1153 C1150 1.387 . S
C1154 C1155 1.387 . S
C1154 H1158 0.950 . S
C1154 C1163 1.390 . S
C1155 C1154 1.387 . S
C1155 C1157 1.387 . S
H1156 C1163 0.950 . S
C1157 C1155 1.387 . S
C1157 C1159 1.390 . S
C1157 H1161 0.950 . S
H1158 C1154 0.950 . S
C1159 C1157 1.390 . S
C1159 C1160 1.387 . S
C1159 H1162 0.950 . S
C1160 C1159 1.387 . S
C1160 C1163 1.387 . S
H1161 C1157 0.950 . S
H1162 C1159 0.950 . S
C1163 C1154 1.390 . S
C1163 H1156 0.950 . S
C1163 C1160 1.387 . S
C1164 C1165 1.387 . S
C1164 H1168 0.950 . S
C1164 C1173 1.390 . S
C1165 C1164 1.387 . S
C1165 C1167 1.387 . S
H1166 C1173 0.950 . S
C1167 C1165 1.387 . S
C1167 C1169 1.390 . S
C1167 H1171 0.950 . S
H1168 C1164 0.950 . S
C1169 C1167 1.390 . S
C1169 C1170 1.387 . S
C1169 H1172 0.950 . S
C1170 C1169 1.387 . S
C1170 C1173 1.387 . S
H1171 C1167 0.950 . S
H1172 C1169 0.950 . S
C1173 C1164 1.390 . S
C1173 H1166 0.950 . S
C1173 C1170 1.387 . S
C1174 C1175 1.387 . S
C1174 H1178 0.950 . S
C1174 C1183 1.390 . S
C1175 C1174 1.387 . S
C1175 C1177 1.387 . S
H1176 C1183 0.950 . S
C1177 C1175 1.387 . S
C1177 C1179 1.390 . S
C1177 H1181 0.950 . S
H1178 C1174 0.950 . S
C1179 C1177 1.390 . S
C1179 C1180 1.387 . S
C1179 H1182 0.950 . S
C1180 C1179 1.387 . S
C1180 C1183 1.387 . S
H1181 C1177 0.950 . S
H1182 C1179 0.950 . S
C1183 C1174 1.390 . S
C1183 H1176 0.950 . S
C1183 C1180 1.387 . S
C1184 C1185 1.387 . S
C1184 H1188 0.950 . S
C1184 C1193 1.390 . S
C1185 C1184 1.387 . S
C1185 C1187 1.387 . S
H1186 C1193 0.950 . S
C1187 C1185 1.387 . S
C1187 C1189 1.390 . S
C1187 H1191 0.950 . S
H1188 C1184 0.950 . S
C1189 C1187 1.390 . S
C1189 C1190 1.387 . S
C1189 H1192 0.950 . S
C1190 C1189 1.387 . S
C1190 C1193 1.387 . S
H1191 C1187 0.950 . S
H1192 C1189 0.950 . S
C1193 C1184 1.390 . S
C1193 H1186 0.950 . S
C1193 C1190 1.387 . S
C1194 C1195 1.387 . S
C1194 H1198 0.950 . S
C1194 C1203 1.390 . S
C1195 C1194 1.387 . S
C1195 C1197 1.387 . S
H1196 C1203 0.950 . S
C1197 C1195 1.387 . S
C1197 C1199 1.390 . S
C1197 H1201 0.950 . S
H1198 C1194 0.950 . S
C1199 C1197 1.390 . S
C1199 C1200 1.387 . S
C1199 H1202 0.950 . S
C1200 C1199 1.387 . S
C1200 C1203 1.387 . S
H1201 C1197 0.950 . S
H1202 C1199 0.950 . S
C1203 C1194 1.390 . S
C1203 H1196 0.950 . S
C1203 C1200 1.387 . S
C1204 C1205 1.387 . S
C1204 H1208 0.950 . S
C1204 C1213 1.390 . S
C1205 C1204 1.387 . S
C1205 C1207 1.387 . S
H1206 C1213 0.950 . S
C1207 C1205 1.387 . S
C1207 C1209 1.390 . S
C1207 H1211 0.950 . S
H1208 C1204 0.950 . S
C1209 C1207 1.390 . S
C1209 C1210 1.387 . S
C1209 H1212 0.950 . S
C1210 C1209 1.387 . S
C1210 C1213 1.387 . S
H1211 C1207 0.950 . S
H1212 C1209 0.950 . S
C1213 C1204 1.390 . S
C1213 H1206 0.950 . S
C1213 C1210 1.387 . S
C1214 C1215 1.387 . S
C1214 H1218 0.950 . S
C1214 C1223 1.390 . S
C1215 C1214 1.387 . S
C1215 C1217 1.387 . S
H1216 C1223 0.950 . S
C1217 C1215 1.387 . S
C1217 C1219 1.390 . S
C1217 H1221 0.950 . S
H1218 C1214 0.950 . S
C1219 C1217 1.390 . S
C1219 C1220 1.387 . S
C1219 H1222 0.950 . S
C1220 C1219 1.387 . S
C1220 C1223 1.387 . S
H1221 C1217 0.950 . S
H1222 C1219 0.950 . S
C1223 C1214 1.390 . S
C1223 H1216 0.950 . S
C1223 C1220 1.387 . S
C1224 C1225 1.387 . S
C1224 H1228 0.950 . S
C1224 C1233 1.390 . S
C1225 C1224 1.387 . S
C1225 C1227 1.387 . S
H1226 C1233 0.950 . S
C1227 C1225 1.387 . S
C1227 C1229 1.390 . S
C1227 H1231 0.950 . S
H1228 C1224 0.950 . S
C1229 C1227 1.390 . S
C1229 C1230 1.387 . S
C1229 H1232 0.950 . S
C1230 C1229 1.387 . S
C1230 C1233 1.387 . S
H1231 C1227 0.950 . S
H1232 C1229 0.950 . S
C1233 C1224 1.390 . S
C1233 H1226 0.950 . S
C1233 C1230 1.387 . S
C1234 C1235 1.387 . S
C1234 H1238 0.950 . S
C1234 C1243 1.390 . S
C1235 C1234 1.387 . S
C1235 C1237 1.387 . S
H1236 C1243 0.950 . S
C1237 C1235 1.387 . S
C1237 C1239 1.390 . S
C1237 H1241 0.950 . S
H1238 C1234 0.950 . S
C1239 C1237 1.390 . S
C1239 C1240 1.387 . S
C1239 H1242 0.950 . S
C1240 C1239 1.387 . S
C1240 C1243 1.387 . S
H1241 C1237 0.950 . S
H1242 C1239 0.950 . S
C1243 C1234 1.390 . S
C1243 H1236 0.950 . S
C1243 C1240 1.387 . S
C1244 C1245 1.387 . S
C1244 H1248 0.950 . S
C1244 C1253 1.390 . S
C1245 C1244 1.387 . S
C1245 C1247 1.387 . S
H1246 C1253 0.950 . S
C1247 C1245 1.387 . S
C1247 C1249 1.390 . S
C1247 H1251 0.950 . S
H1248 C1244 0.950 . S
C1249 C1247 1.390 . S
C1249 C1250 1.387 . S
C1249 H1252 0.950 . S
C1250 C1249 1.387 . S
C1250 C1253 1.387 . S
H1251 C1247 0.950 . S
H1252 C1249 0.950 . S
C1253 C1244 1.390 . S
C1253 H1246 0.950 . S
C1253 C1250 1.387 . S
C1254 C1255 1.387 . S
C1254 H1258 0.950 . S
C1254 C1263 1.390 . S
C1255 C1254 1.387 . S
C1255 C1257 1.387 . S
H1256 C1263 0.950 . S
C1257 C1255 1.387 . S
C1257 C1259 1.390 . S
C1257 H1261 0.950 . S
H1258 C1254 0.950 . S
C1259 C1257 1.390 . S
C1259 C1260 1.387 . S
C1259 H1262 0.950 . S
C1260 C1259 1.387 . S
C1260 C1263 1.387 . S
H1261 C1257 0.950 . S
H1262 C1259 0.950 . S
C1263 C1254 1.390 . S
C1263 H1256 0.950 . S
C1263 C1260 1.387 . S
C945 C5 1.438 . S
C950 C772 1.438 . S
C955 C654 1.435 . S
C960 C64 1.435 . S
C965 C713 1.438 . S
C970 C123 1.438 . S
C975 C595 1.435 . S
C980 C182 1.435 . S
C985 C241 1.435 . S
C990 C890 1.435 . S
C995 C300 1.438 . S
C1000 C536 1.438 . S
C1005 C831 1.435 . S
C1010 C359 1.435 . S
C1015 C418 1.438 . S
C1020 C477 1.438 . S
C1025 C239 1.622 . S
C1030 C3 1.622 . S
C1035 C62 1.622 . S
C1040 C298 1.622 . S
C1045 C121 1.623 . S
C1050 C357 1.623 . S
C1055 C416 1.623 . S
C1060 C180 1.623 . S
C1065 C475 1.622 . S
C1070 C593 1.622 . S
C1075 C534 1.623 . S
C1080 C652 1.623 . S
C1085 C829 1.622 . S
C1090 C711 1.622 . S
C1095 C770 1.622 . S
C1100 C888 1.622 . S
C1105 C347 1.471 . S
C1110 C52 1.472 . S
C1115 C111 1.472 . S
C1120 C406 1.473 . S
C1125 C170 1.472 . S
C1130 C465 1.472 . S
C1135 C288 1.473 . S
C1140 C229 1.472 . S
C1145 C269 1.747 . S
C1150 C623 1.746 . S
C1155 C151 1.747 . S
C1160 C505 1.746 . S
C1165 C682 1.746 . S
C1170 C387 1.747 . S
C1175 C564 1.746 . S
C1180 C33 1.747 . S
C1185 C524 1.471 . S
C1190 C760 1.472 . S
C1195 C642 1.472 . S
C1200 C937 1.472 . S
C1205 C819 1.473 . S
C1210 C583 1.473 . S
C1215 C701 1.472 . S
C1220 C878 1.472 . S
C1225 C859 1.746 . S
C1230 C92 1.747 . S
C1235 C800 1.748 . S
C1240 C328 1.748 . S
C1245 C918 1.747 . S
C1250 C210 1.748 . S
C1255 C741 1.746 . S
C1260 C446 1.747 . S
