# Generated by pormake.
# Topology wjh, (4)-cn, num edge types: 1
# Building blocks:
#     Node 0, Type 0, BuildingBlock: AZAVOO_clean_sbu_0, # of connection points: 4
#     Node 1, Type 0, BuildingBlock: AZAVOO_clean_sbu_0, # of connection points: 4
#     Node 2, Type 0, BuildingBlock: AZAVOO_clean_sbu_0, # of connection points: 4
#     Node 3, Type 0, BuildingBlock: AZAVOO_clean_sbu_0, # of connection points: 4
#     Node 4, Type 0, BuildingBlock: AZAVOO_clean_sbu_0, # of connection points: 4
#     Node 5, Type 0, BuildingBlock: AZAVOO_clean_sbu_0, # of connection points: 4
#     Node 6, Type 0, BuildingBlock: AZAVOO_clean_sbu_0, # of connection points: 4
#     Node 7, Type 0, BuildingBlock: AZAVOO_clean_sbu_0, # of connection points: 4
#     Node 8, Type 0, BuildingBlock: AZAVOO_clean_sbu_0, # of connection points: 4
#     Node 9, Type 0, BuildingBlock: AZAVOO_clean_sbu_0, # of connection points: 4
#     Node 10, Type 0, BuildingBlock: AZAVOO_clean_sbu_0, # of connection points: 4
#     Node 11, Type 0, BuildingBlock: AZAVOO_clean_sbu_0, # of connection points: 4
#     Edge 12, Type (0, 0), BuildingBlock: MIFKUJ_clean_linker_0, # of connection points: 2
#     Edge 13, Type (0, 0), BuildingBlock: MIFKUJ_clean_linker_0, # of connection points: 2
#     Edge 14, Type (0, 0), BuildingBlock: MIFKUJ_clean_linker_0, # of connection points: 2
#     Edge 15, Type (0, 0), BuildingBlock: MIFKUJ_clean_linker_0, # of connection points: 2
#     Edge 16, Type (0, 0), BuildingBlock: MIFKUJ_clean_linker_0, # of connection points: 2
#     Edge 17, Type (0, 0), BuildingBlock: MIFKUJ_clean_linker_0, # of connection points: 2
#     Edge 18, Type (0, 0), BuildingBlock: MIFKUJ_clean_linker_0, # of connection points: 2
#     Edge 19, Type (0, 0), BuildingBlock: MIFKUJ_clean_linker_0, # of connection points: 2
#     Edge 20, Type (0, 0), BuildingBlock: MIFKUJ_clean_linker_0, # of connection points: 2
#     Edge 21, Type (0, 0), BuildingBlock: MIFKUJ_clean_linker_0, # of connection points: 2
#     Edge 22, Type (0, 0), BuildingBlock: MIFKUJ_clean_linker_0, # of connection points: 2
#     Edge 23, Type (0, 0), BuildingBlock: MIFKUJ_clean_linker_0, # of connection points: 2
#     Edge 24, Type (0, 0), BuildingBlock: MIFKUJ_clean_linker_0, # of connection points: 2
#     Edge 25, Type (0, 0), BuildingBlock: MIFKUJ_clean_linker_0, # of connection points: 2
#     Edge 26, Type (0, 0), BuildingBlock: MIFKUJ_clean_linker_0, # of connection points: 2
#     Edge 27, Type (0, 0), BuildingBlock: MIFKUJ_clean_linker_0, # of connection points: 2
#     Edge 28, Type (0, 0), BuildingBlock: MIFKUJ_clean_linker_0, # of connection points: 2
#     Edge 29, Type (0, 0), BuildingBlock: MIFKUJ_clean_linker_0, # of connection points: 2
#     Edge 30, Type (0, 0), BuildingBlock: MIFKUJ_clean_linker_0, # of connection points: 2
#     Edge 31, Type (0, 0), BuildingBlock: MIFKUJ_clean_linker_0, # of connection points: 2
#     Edge 32, Type (0, 0), BuildingBlock: MIFKUJ_clean_linker_0, # of connection points: 2
#     Edge 33, Type (0, 0), BuildingBlock: MIFKUJ_clean_linker_0, # of connection points: 2
#     Edge 34, Type (0, 0), BuildingBlock: MIFKUJ_clean_linker_0, # of connection points: 2
#     Edge 35, Type (0, 0), BuildingBlock: MIFKUJ_clean_linker_0, # of connection points: 2
# Relax obj value: 0.169
# Max RMSD: 0.148
# Mean RMSD: 0.148
data_MOF--net-wjh--node1-AZAVOO_clean_sbu_0--edge1-MIFKUJ_clean_linker_0
_symmetry_space_group_name_H-M    P1
_symmetry_Int_Tables_number       1
_symmetry_cell_setting            triclinic
loop_
_symmetry_equiv_pos_as_xyz
'x, y, z'
_cell_length_a     83.074285
_cell_length_b     83.349759
_cell_length_c     31.287736
_cell_angle_alpha  89.867843
_cell_angle_beta   90.19792
_cell_angle_gamma 120.05713
loop_
_atom_site_label
_atom_site_type_symbol
_atom_site_fract_x
_atom_site_fract_y
_atom_site_fract_z
_atom_type_partial_charge
Mg0 Mg 0.46936 0.11703 0.04022 0.0
O1 O 0.48659 0.11636 0.0973 0.0
O2 O 0.49801 0.09802 0.07924 0.0
Mg3 Mg 0.48693 0.08584 0.01333 0.0
C4 C 0.49638 0.10881 0.10552 0.0
C5 C 0.4647 0.14326 0.10433 0.0
O6 O 0.45812 0.12847 0.12875 0.0
O7 O 0.49573 0.13507 0.00252 0.0
O8 O 0.50509 0.11497 0.9852 0.0
O9 O 0.44365 0.09301 0.0666 0.0
O10 O 0.46341 0.09057 0.02358 0.0
C11 C 0.50702 0.13116 0.98428 0.0
C12 C 0.44878 0.08261 0.04718 0.0
O13 O 0.47021 0.14269 0.06685 0.0
Mg14 Mg 0.34163 0.48166 0.23398 0.0
O15 O 0.36114 0.49735 0.29048 0.0
O16 O 0.38908 0.50107 0.27449 0.0
Mg17 Mg 0.38782 0.48892 0.20854 0.0
C18 C 0.3782 0.50312 0.29975 0.0
C19 C 0.30743 0.48612 0.23153 0.0
O20 O 0.30867 0.48163 0.19192 0.0
O21 O 0.35482 0.50811 0.1945 0.0
O22 O 0.38224 0.51084 0.1783 0.0
O23 O 0.33444 0.45426 0.26293 0.0
O24 O 0.35808 0.4703 0.21923 0.0
C25 C 0.37052 0.51648 0.17568 0.0
C26 C 0.34916 0.45623 0.244 0.0
O27 O 0.31964 0.48776 0.25846 0.0
Mg28 Mg 0.84719 0.34632 0.39628 0.0
O29 O 0.85023 0.36603 0.45169 0.0
O30 O 0.87426 0.39394 0.43481 0.0
Mg31 Mg 0.88534 0.39268 0.36925 0.0
C32 C 0.86134 0.38314 0.46025 0.0
C33 C 0.81682 0.30746 0.41696 0.0
O34 O 0.8301 0.30539 0.39987 0.0
O35 O 0.83324 0.35839 0.35503 0.0
O36 O 0.85748 0.38612 0.33882 0.0
O37 O 0.86801 0.3402 0.42647 0.0
O38 O 0.87505 0.36327 0.38144 0.0
C39 C 0.84021 0.37401 0.33604 0.0
C40 C 0.88055 0.35482 0.40689 0.0
O41 O 0.81937 0.32373 0.42109 0.0
Mg42 Mg 0.48082 0.85001 0.5457 0.0
O43 O 0.46327 0.85159 0.60062 0.0
O44 O 0.45304 0.87062 0.57947 0.0
Mg45 Mg 0.46488 0.8821 0.51368 0.0
C46 C 0.45391 0.85973 0.60696 0.0
C47 C 0.49377 0.82305 0.57657 0.0
O48 O 0.50953 0.83694 0.56264 0.0
O49 O 0.45464 0.83217 0.50679 0.0
O50 O 0.44651 0.85287 0.48649 0.0
O51 O 0.50661 0.87398 0.57269 0.0
O52 O 0.48755 0.87649 0.52711 0.0
C53 C 0.44393 0.83641 0.48662 0.0
C54 C 0.50191 0.88441 0.55164 0.0
O55 O 0.47916 0.82428 0.57472 0.0
Mg56 Mg 0.61378 0.48765 0.70539 0.0
O57 O 0.59545 0.4714 0.76278 0.0
O58 O 0.5661 0.46295 0.74513 0.0
Mg59 Mg 0.56581 0.47501 0.67989 0.0
C60 C 0.57804 0.46306 0.77111 0.0
C61 C 0.65308 0.49357 0.71119 0.0
O62 O 0.65434 0.50428 0.67898 0.0
O63 O 0.60271 0.46099 0.66728 0.0
O64 O 0.57412 0.45505 0.65005 0.0
O65 O 0.61858 0.51444 0.73228 0.0
O66 O 0.59505 0.49629 0.68992 0.0
C67 C 0.58716 0.45117 0.64838 0.0
C68 C 0.60327 0.51093 0.71333 0.0
O69 O 0.63762 0.48442 0.73034 0.0
Mg70 Mg 0.10891 0.62132 0.87838 0.0
O71 O 0.1054 0.602 0.93489 0.0
O72 O 0.08276 0.57346 0.91716 0.0
Mg73 Mg 0.07288 0.57412 0.84941 0.0
C74 C 0.09487 0.5848 0.94352 0.0
C75 C 0.13569 0.65821 0.92372 0.0
O76 O 0.12001 0.65845 0.92488 0.0
O77 O 0.12474 0.6102 0.84129 0.0
O78 O 0.10175 0.58203 0.82309 0.0
O79 O 0.08645 0.62607 0.90367 0.0
O80 O 0.0815 0.60333 0.85978 0.0
C81 C 0.11887 0.59471 0.82229 0.0
C82 C 0.07483 0.61129 0.88313 0.0
O83 O 0.13582 0.64441 0.90693 0.0
Mg84 Mg 0.84377 0.49043 0.92061 0.0
O85 O 0.84881 0.4764 0.8628 0.0
O86 O 0.87308 0.47268 0.87784 0.0
Mg87 Mg 0.88183 0.48188 0.94653 0.0
C88 C 0.86041 0.47127 0.85237 0.0
C89 C 0.81674 0.4928 0.85582 0.0
O90 O 0.8327 0.50342 0.83673 0.0
O91 O 0.82928 0.46292 0.95601 0.0
O92 O 0.85334 0.45865 0.96984 0.0
O93 O 0.86523 0.5183 0.89649 0.0
O94 O 0.87115 0.50117 0.94063 0.0
C95 C 0.83601 0.45336 0.97156 0.0
C96 C 0.87727 0.51591 0.91768 0.0
O97 O 0.81658 0.4851 0.89101 0.0
Mg98 Mg 0.34235 0.84998 0.08384 0.0
O99 O 0.35947 0.8518 0.02437 0.0
O100 O 0.38941 0.87144 0.0396 0.0
Mg101 Mg 0.39136 0.88262 0.10672 0.0
C102 C 0.37668 0.86028 0.0142 0.0
C103 C 0.3014 0.82205 0.06229 0.0
O104 O 0.29978 0.83515 0.0816 0.0
O105 O 0.3523 0.83249 0.11832 0.0
O106 O 0.38207 0.85335 0.13173 0.0
O107 O 0.33919 0.87339 0.05981 0.0
O108 O 0.36244 0.87684 0.10084 0.0
C109 C 0.36822 0.83688 0.1336 0.0
C110 C 0.35484 0.88434 0.07862 0.0
O111 O 0.31748 0.82406 0.05755 0.0
Mg112 Mg 0.47103 0.34725 0.24057 0.0
O113 O 0.4867 0.36538 0.18223 0.0
O114 O 0.49668 0.39481 0.20097 0.0
Mg115 Mg 0.4863 0.39545 0.26772 0.0
C116 C 0.49555 0.38276 0.1742 0.0
C117 C 0.4663 0.3088 0.23823 0.0
O118 O 0.45972 0.30957 0.27583 0.0
O119 O 0.49838 0.35705 0.27581 0.0
O120 O 0.50639 0.38621 0.29266 0.0
O121 O 0.44408 0.34387 0.21746 0.0
O122 O 0.46374 0.36657 0.25953 0.0
C123 C 0.50941 0.37263 0.29306 0.0
C124 C 0.44839 0.35894 0.23818 0.0
O125 O 0.47243 0.32279 0.21369 0.0
Mg126 Mg 0.11086 0.48477 0.41873 0.0
O127 O 0.10654 0.49912 0.36043 0.0
O128 O 0.08369 0.50489 0.37621 0.0
Mg129 Mg 0.07417 0.49523 0.44448 0.0
C130 C 0.09581 0.50541 0.35042 0.0
C131 C 0.13913 0.47492 0.38155 0.0
O132 O 0.12485 0.45836 0.38897 0.0
O133 O 0.12624 0.51238 0.45362 0.0
O134 O 0.10279 0.51706 0.47028 0.0
O135 O 0.08886 0.4569 0.39554 0.0
O136 O 0.08345 0.47482 0.43784 0.0
C137 C 0.12003 0.52194 0.47145 0.0
C138 C 0.07702 0.45973 0.41611 0.0
O139 O 0.13782 0.48909 0.39029 0.0
Mg140 Mg 0.60968 0.11739 0.57818 0.0
O141 O 0.59153 0.11748 0.52255 0.0
O142 O 0.56178 0.09878 0.54049 0.0
Mg143 Mg 0.56094 0.08617 0.60569 0.0
C144 C 0.57415 0.10993 0.51447 0.0
C145 C 0.64886 0.14275 0.53954 0.0
O146 O 0.64891 0.12703 0.54189 0.0
O147 O 0.60196 0.13511 0.61858 0.0
O148 O 0.57244 0.11503 0.63575 0.0
O149 O 0.61076 0.09362 0.54905 0.0
O150 O 0.58914 0.09062 0.59459 0.0
C151 C 0.58688 0.13114 0.6377 0.0
C152 C 0.59556 0.0829 0.56953 0.0
O153 O 0.63453 0.14323 0.55158 0.0
Mg154 Mg 0.48508 0.62324 0.76535 0.0
O155 O 0.46983 0.60371 0.70884 0.0
O156 O 0.46555 0.57571 0.7254 0.0
Mg157 Mg 0.47592 0.57673 0.79336 0.0
C158 C 0.46409 0.58677 0.6995 0.0
C159 C 0.49489 0.66101 0.72852 0.0
O160 O 0.51124 0.66302 0.73777 0.0
O161 O 0.45787 0.61105 0.80231 0.0
O162 O 0.45387 0.58319 0.81878 0.0
O163 O 0.51243 0.62877 0.73921 0.0
O164 O 0.49559 0.60638 0.78492 0.0
C165 C 0.44863 0.59522 0.8202 0.0
C166 C 0.51 0.61446 0.76075 0.0
O167 O 0.48039 0.64553 0.73597 0.0
H168 H 0.48526 0.11514 0.18261 0.0
H169 H 0.50024 0.11852 0.25208 0.0
H170 H 0.54486 0.11499 0.19072 0.0
H171 H 0.52929 0.11043 0.12182 0.0
H172 H 0.53578 0.09476 0.25531 0.0
H173 H 0.54889 0.15703 0.23483 0.0
H174 H 0.54184 0.18191 0.21959 0.0
H175 H 0.50655 0.16631 0.32994 0.0
H176 H 0.51319 0.14116 0.34553 0.0
H177 H 0.59392 0.12195 0.44006 0.0
H178 H 0.58254 0.12536 0.37016 0.0
H179 H 0.5293 0.11004 0.42564 0.0
H180 H 0.54041 0.10628 0.4954 0.0
H181 H 0.54447 0.14149 0.3646 0.0
H182 H 0.53101 0.07786 0.38016 0.0
H183 H 0.53972 0.05409 0.39465 0.0
H184 H 0.5786 0.07474 0.29074 0.0
H185 H 0.5703 0.09883 0.27606 0.0
C186 C 0.49834 0.11525 0.18405 0.0
C187 C 0.5061 0.11245 0.14698 0.0
C188 C 0.50699 0.11731 0.22372 0.0
C189 C 0.52387 0.11728 0.22678 0.0
C190 C 0.53183 0.115 0.1894 0.0
C191 C 0.52295 0.11243 0.15 0.0
C192 C 0.53271 0.11847 0.26903 0.0
C193 C 0.53797 0.10525 0.27872 0.0
C194 C 0.53533 0.1319 0.30022 0.0
C195 C 0.53142 0.14711 0.29113 0.0
C196 C 0.53953 0.15883 0.2557 0.0
C197 C 0.53562 0.17299 0.24701 0.0
C198 C 0.52372 0.17566 0.27372 0.0
C199 C 0.51575 0.16421 0.30925 0.0
C200 C 0.5196 0.15001 0.31806 0.0
C201 C 0.57987 0.11953 0.43748 0.0
C202 C 0.568 0.11369 0.47312 0.0
C203 C 0.57341 0.12148 0.39759 0.0
C204 C 0.55509 0.1179 0.3929 0.0
C205 C 0.5435 0.11291 0.42876 0.0
C206 C 0.54983 0.11065 0.46846 0.0
C207 C 0.54752 0.11795 0.35011 0.0
C208 C 0.54243 0.13126 0.34062 0.0
C209 C 0.54534 0.10484 0.31876 0.0
C210 C 0.55019 0.09026 0.32733 0.0
C211 C 0.54154 0.07743 0.36065 0.0
C212 C 0.54637 0.06389 0.36885 0.0
C213 C 0.55975 0.06294 0.34372 0.0
C214 C 0.56826 0.07551 0.31024 0.0
C215 C 0.5635 0.0891 0.30195 0.0
H216 H 0.56347 0.05245 0.35011 0.0
H217 H 0.5207 0.18662 0.26692 0.0
H218 H 0.40744 0.50501 0.34345 0.0
H219 H 0.42013 0.51997 0.41219 0.0
H220 H 0.37913 0.53713 0.41878 0.0
H221 H 0.36596 0.52174 0.35011 0.0
H222 H 0.42103 0.56591 0.43542 0.0
H223 H 0.36969 0.50646 0.47914 0.0
H224 H 0.35102 0.47233 0.47722 0.0
H225 H 0.39873 0.46869 0.51591 0.0
H226 H 0.41777 0.50282 0.51741 0.0
H227 H 0.44461 0.59832 0.65005 0.0
H228 H 0.42853 0.58485 0.58257 0.0
H229 H 0.44841 0.54589 0.58603 0.0
H230 H 0.46363 0.55868 0.65441 0.0
H231 H 0.41454 0.52831 0.56422 0.0
H232 H 0.46664 0.58558 0.51735 0.0
H233 H 0.48776 0.61942 0.51539 0.0
H234 H 0.44234 0.62731 0.47871 0.0
H235 H 0.42089 0.59351 0.48098 0.0
C236 C 0.40111 0.51197 0.35944 0.0
C237 C 0.3857 0.51221 0.3414 0.0
C238 C 0.40836 0.52048 0.39869 0.0
C239 C 0.40055 0.52962 0.42034 0.0
C240 C 0.38532 0.53013 0.40235 0.0
C241 C 0.37778 0.52128 0.36335 0.0
C242 C 0.40837 0.53845 0.46201 0.0
C243 C 0.41937 0.5578 0.46394 0.0
C244 C 0.40665 0.52771 0.4985 0.0
C245 C 0.39519 0.50719 0.498 0.0
C246 C 0.37624 0.49838 0.48686 0.0
C247 C 0.36559 0.47904 0.48593 0.0
C248 C 0.3737 0.46835 0.49634 0.0
C249 C 0.39247 0.47699 0.50782 0.0
C250 C 0.40319 0.49633 0.50876 0.0
C251 C 0.4456 0.58695 0.6362 0.0
C252 C 0.45532 0.57951 0.65747 0.0
C253 C 0.43648 0.5793 0.59754 0.0
C254 C 0.43737 0.56444 0.57881 0.0
C255 C 0.44737 0.55725 0.59983 0.0
C256 C 0.45613 0.56461 0.63887 0.0
C257 C 0.42754 0.55598 0.538 0.0
C258 C 0.41614 0.5366 0.53607 0.0
C259 C 0.42925 0.56671 0.50124 0.0
C260 C 0.44212 0.58703 0.49981 0.0
C261 C 0.46113 0.59454 0.50919 0.0
C262 C 0.47316 0.61371 0.50797 0.0
C263 C 0.46639 0.62551 0.49706 0.0
C264 C 0.44756 0.61816 0.48723 0.0
C265 C 0.43546 0.59899 0.48845 0.0
H266 H 0.47573 0.64035 0.49613 0.0
H267 H 0.36542 0.45337 0.4956 0.0
H268 H 0.82951 0.45275 0.80171 0.0
H269 H 0.82717 0.43745 0.7331 0.0
H270 H 0.88588 0.45632 0.73806 0.0
H271 H 0.88827 0.47126 0.80683 0.0
H272 H 0.87138 0.46132 0.65619 0.0
H273 H 0.85942 0.41495 0.76568 0.0
H274 H 0.84235 0.39568 0.82772 0.0
H275 H 0.79139 0.37161 0.75595 0.0
H276 H 0.80814 0.39096 0.69365 0.0
H277 H 0.88903 0.41056 0.5066 0.0
H278 H 0.88636 0.42496 0.5718 0.0
H279 H 0.82681 0.38859 0.57034 0.0
H280 H 0.82961 0.3734 0.50589 0.0
H281 H 0.83796 0.39262 0.64809 0.0
H282 H 0.84857 0.43569 0.53701 0.0
H283 H 0.86385 0.45524 0.47403 0.0
H284 H 0.91441 0.48614 0.54576 0.0
H285 H 0.89952 0.46661 0.60902 0.0
C286 C 0.84192 0.45373 0.78799 0.0
C287 C 0.85905 0.46309 0.80971 0.0
C288 C 0.84055 0.44495 0.74895 0.0
C289 C 0.85634 0.44571 0.73078 0.0
C290 C 0.87354 0.45557 0.75168 0.0
C291 C 0.87486 0.46402 0.79101 0.0
C292 C 0.85499 0.43584 0.69051 0.0
C293 C 0.86419 0.44631 0.65432 0.0
C294 C 0.84499 0.41628 0.6879 0.0
C295 C 0.83498 0.40455 0.72521 0.0
C296 C 0.84455 0.40567 0.76327 0.0
C297 C 0.83494 0.39471 0.79845 0.0
C298 C 0.81579 0.38247 0.79583 0.0
C299 C 0.80622 0.38112 0.75796 0.0
C300 C 0.81576 0.39207 0.72271 0.0
C301 C 0.87536 0.40559 0.52024 0.0
C302 C 0.85949 0.39099 0.50098 0.0
C303 C 0.87382 0.41393 0.55738 0.0
C304 C 0.85632 0.40829 0.57537 0.0
C305 C 0.84046 0.39331 0.55689 0.0
C306 C 0.84205 0.38464 0.52012 0.0
C307 C 0.85477 0.41808 0.61351 0.0
C308 C 0.84499 0.40763 0.64944 0.0
C309 C 0.86394 0.43771 0.61561 0.0
C310 C 0.87294 0.44959 0.57769 0.0
C311 C 0.86298 0.44658 0.53929 0.0
C312 C 0.87157 0.45767 0.50354 0.0
C313 C 0.8901 0.4719 0.50587 0.0
C314 C 0.90006 0.47511 0.54399 0.0
C315 C 0.89154 0.46405 0.57983 0.0
H316 H 0.89672 0.48047 0.47816 0.0
H317 H 0.80837 0.37399 0.8231 0.0
H318 H 0.42319 0.86264 0.62125 0.0
H319 H 0.4075 0.85954 0.68908 0.0
H320 H 0.44667 0.84788 0.75292 0.0
H321 H 0.46191 0.8501 0.68452 0.0
H322 H 0.4143 0.8273 0.78615 0.0
H323 H 0.45055 0.89187 0.75455 0.0
H324 H 0.46201 0.92039 0.71169 0.0
H325 H 0.40704 0.91305 0.70823 0.0
H326 H 0.3952 0.88433 0.7506 0.0
H327 H 0.40943 0.86255 -0.00721 0.0
H328 H 0.4195 0.85889 0.9219 0.0
H329 H 0.36708 0.84801 0.86846 0.0
H330 H 0.35662 0.85114 0.93977 0.0
H331 H 0.40424 0.87881 0.82992 0.0
H332 H 0.36967 0.81393 0.8686 0.0
H333 H 0.36135 0.78738 0.91649 0.0
H334 H 0.41758 0.79818 0.91241 0.0
H335 H 0.42631 0.82499 0.865 0.0
C336 C 0.4284 0.85931 0.64972 0.0
C337 C 0.44389 0.8568 0.64771 0.0
C338 C 0.41946 0.85762 0.68852 0.0
C339 C 0.42617 0.85393 0.72635 0.0
C340 C 0.44128 0.85081 0.7242 0.0
C341 C 0.45 0.85212 0.68515 0.0
C342 C 0.41773 0.85384 0.7682 0.0
C343 C 0.41225 0.83865 0.79576 0.0
C344 C 0.41489 0.86857 0.7808 0.0
C345 C 0.42195 0.88584 0.75535 0.0
C346 C 0.44088 0.89626 0.74437 0.0
C347 C 0.44744 0.91247 0.72021 0.0
C348 C 0.43524 0.9185 0.70714 0.0
C349 C 0.41646 0.90835 0.71831 0.0
C350 C 0.40982 0.89211 0.74242 0.0
C351 C 0.39998 0.85925 0.96601 0.0
C352 C 0.38226 0.85718 0.97169 0.0
C353 C 0.40573 0.8571 0.92567 0.0
C354 C 0.394 0.85316 0.89023 0.0
C355 C 0.37626 0.85099 0.89566 0.0
C356 C 0.37031 0.85273 0.93628 0.0
C357 C 0.4008 0.8523 0.84729 0.0
C358 C 0.40611 0.8674 0.81981 0.0
C359 C 0.40392 0.83776 0.83531 0.0
C360 C 0.39868 0.82158 0.86359 0.0
C361 C 0.3803 0.81076 0.87825 0.0
C362 C 0.3755 0.79563 0.90523 0.0
C363 C 0.38894 0.79113 0.91758 0.0
C364 C 0.40719 0.8017 0.90286 0.0
C365 C 0.41207 0.81685 0.8759 0.0
H366 H 0.38519 0.77941 0.93847 0.0
H367 H 0.44036 0.93105 0.68845 0.0
H368 H 0.48531 0.36606 0.09577 0.0
H369 H 0.50088 0.3786 0.02735 0.0
H370 H 0.54404 0.42667 0.09247 0.0
H371 H 0.5279 0.41472 0.16014 0.0
H372 H 0.53574 0.43816 0.02747 0.0
H373 H 0.54967 0.38966 0.04853 0.0
H374 H 0.54329 0.35789 0.0628 0.0
H375 H 0.50962 0.33851 0.94947 0.0
H376 H 0.51559 0.37013 0.93481 0.0
H377 H 0.59699 0.47025 0.84693 0.0
H378 H 0.58463 0.45524 0.9162 0.0
H379 H 0.53172 0.41858 0.85713 0.0
H380 H 0.54377 0.43371 0.78819 0.0
H381 H 0.54677 0.40156 0.91864 0.0
H382 H 0.53299 0.45172 0.90278 0.0
H383 H 0.54199 0.48434 0.88958 0.0
H384 H 0.57933 0.50137 -0.00317 0.0
H385 H 0.57075 0.46885 0.01024 0.0
C386 C 0.49818 0.37924 0.09533 0.0
C387 C 0.50537 0.38947 0.13311 0.0
C388 C 0.50716 0.38636 0.05628 0.0
C389 C 0.52383 0.40353 0.0546 0.0
C390 C 0.53118 0.41348 0.09268 0.0
C391 C 0.52197 0.40662 0.1314 0.0
C392 C 0.53319 0.41164 0.01316 0.0
C393 C 0.5384 0.43016 0.00416 0.0
C394 C 0.53654 0.40127 0.98216 0.0
C395 C 0.53294 0.38224 0.9908 0.0
C396 C 0.54079 0.3786 0.02682 0.0
C397 C 0.53727 0.36062 0.03495 0.0
C398 C 0.52601 0.34619 0.00712 0.0
C399 C 0.51831 0.34971 0.97103 0.0
C400 C 0.52178 0.36765 0.96277 0.0
C401 C 0.58279 0.45886 0.84867 0.0
C402 C 0.57129 0.45323 0.81227 0.0
C403 C 0.57577 0.45033 0.88816 0.0
C404 C 0.55729 0.43584 0.89157 0.0
C405 C 0.54604 0.4297 0.85499 0.0
C406 C 0.55291 0.43845 0.81576 0.0
C407 C 0.54922 0.42785 0.93369 0.0
C408 C 0.54421 0.40944 0.9425 0.0
C409 C 0.54642 0.43839 0.96496 0.0
C410 C 0.55139 0.45789 0.9572 0.0
C411 C 0.54324 0.46244 0.9233 0.0
C412 C 0.54824 0.4809 0.91583 0.0
C413 C 0.56127 0.49493 0.94226 0.0
C414 C 0.56927 0.4905 0.97633 0.0
C415 C 0.56434 0.47206 0.98389 0.0
H416 H 0.56512 0.50922 0.93642 0.0
H417 H 0.5233 0.33228 0.01348 0.0
H418 H 0.06891 0.50801 0.30624 0.0
H419 H 0.07142 0.52184 0.23575 0.0
H420 H 0.12874 0.53567 0.22767 0.0
H421 H 0.12624 0.52138 0.29795 0.0
H422 H 0.11728 0.56584 0.2087 0.0
H423 H 0.10647 0.50482 0.17036 0.0
H424 H 0.08961 0.47071 0.17547 0.0
H425 H 0.03913 0.46878 0.13584 0.0
H426 H 0.05565 0.50292 0.13114 0.0
H427 H 0.12613 0.5964 -0.00757 0.0
H428 H 0.12877 0.58322 0.06036 0.0
H429 H 0.06966 0.54449 0.05798 0.0
H430 H 0.06727 0.55685 0.98902 0.0
H431 H 0.085 0.52689 0.08241 0.0
H432 H 0.0925 0.58566 0.12453 0.0
H433 H 0.10643 0.61965 0.12384 0.0
H434 H 0.15922 0.62618 0.16071 0.0
H435 H 0.14565 0.59221 0.16111 0.0
C436 C 0.08206 0.51397 0.28949 0.0
C437 C 0.09739 0.51361 0.3076 0.0
C438 C 0.08344 0.52184 0.24927 0.0
C439 C 0.10025 0.52975 0.22675 0.0
C440 C 0.11567 0.52961 0.24475 0.0
C441 C 0.11418 0.52139 0.2847 0.0
C442 C 0.1015 0.53807 0.18426 0.0
C443 C 0.11055 0.55742 0.18073 0.0
C444 C 0.09216 0.52696 0.14849 0.0
C445 C 0.08226 0.50643 0.15079 0.0
C446 C 0.09174 0.49713 0.16311 0.0
C447 C 0.08225 0.47779 0.16585 0.0
C448 C 0.0633 0.46758 0.1561 0.0
C449 C 0.05381 0.4767 0.14343 0.0
C450 C 0.06323 0.49605 0.14068 0.0
C451 C 0.11373 0.58511 0.0066 0.0
C452 C 0.0965 0.57763 0.98554 0.0
C453 C 0.11521 0.57763 0.04554 0.0
C454 C 0.09936 0.56297 0.06483 0.0
C455 C 0.08213 0.55569 0.04384 0.0
C456 C 0.08075 0.56281 0.00446 0.0
C457 C 0.1006 0.55489 0.10642 0.0
C458 C 0.09196 0.53549 0.10997 0.0
C459 C 0.10994 0.56599 0.14252 0.0
C460 C 0.11812 0.58641 0.14237 0.0
C461 C 0.10711 0.59435 0.13219 0.0
C462 C 0.11494 0.61361 0.1319 0.0
C463 C 0.13371 0.62507 0.14209 0.0
C464 C 0.14469 0.61729 0.15274 0.0
C465 C 0.13694 0.59804 0.15303 0.0
H466 H 0.13974 0.63998 0.14185 0.0
H467 H 0.05597 0.45261 0.15826 0.0
H468 H 0.45274 0.27623 0.28203 0.0
H469 H 0.45307 0.2483 0.26023 0.0
H470 H 0.481 0.27526 0.14329 0.0
H471 H 0.48045 0.30321 0.16454 0.0
H472 H 0.45302 0.24085 0.12841 0.0
H473 H 0.5046 0.26935 0.22582 0.0
H474 H 0.52035 0.28341 0.29391 0.0
H475 H 0.48384 0.23291 0.36023 0.0
H476 H 0.46769 0.21862 0.2926 0.0
H477 H 0.47969 0.17665 0.0636 0.0
H478 H 0.48036 0.20474 0.08795 0.0
H479 H 0.45206 0.17686 0.2038 0.0
H480 H 0.45162 0.14868 0.17999 0.0
H481 H 0.48007 0.21156 0.2199 0.0
H482 H 0.42845 0.18315 0.12253 0.0
H483 H 0.41268 0.16911 0.05443 0.0
H484 H 0.44931 0.21957 0.9881 0.0
H485 H 0.46546 0.23383 0.05574 0.0
C486 C 0.45899 0.27626 0.25169 0.0
C487 C 0.4666 0.29195 0.22503 0.0
C488 C 0.45924 0.2603 0.23939 0.0
C489 C 0.46727 0.2598 0.2004 0.0
C490 C 0.47477 0.27539 0.17357 0.0
C491 C 0.47447 0.29135 0.18578 0.0
C492 C 0.46748 0.24285 0.18719 0.0
C493 C 0.45917 0.23459 0.14812 0.0
C494 C 0.47507 0.23444 0.2135 0.0
C495 C 0.48482 0.24298 0.25419 0.0
C496 C 0.49983 0.26129 0.25497 0.0
C497 C 0.50885 0.26929 0.29348 0.0
C498 C 0.50307 0.25908 0.33139 0.0
C499 C 0.48829 0.24081 0.33085 0.0
C500 C 0.47921 0.23275 0.29243 0.0
C501 C 0.47361 0.17646 0.0943 0.0
C502 C 0.46546 0.16038 0.11974 0.0
C503 C 0.47396 0.19252 0.10809 0.0
C504 C 0.46599 0.19278 0.14735 0.0
C505 C 0.45822 0.17691 0.1733 0.0
C506 C 0.45794 0.16082 0.1596 0.0
C507 C 0.46568 0.20962 0.16105 0.0
C508 C 0.47393 0.21783 0.20021 0.0
C509 C 0.45803 0.21801 0.13484 0.0
C510 C 0.44827 0.20949 0.09415 0.0
C511 C 0.43323 0.1912 0.09337 0.0
C512 C 0.4242 0.18321 0.05486 0.0
C513 C 0.43001 0.19342 0.01695 0.0
C514 C 0.44483 0.21167 0.01748 0.0
C515 C 0.45391 0.21972 0.0559 0.0
H516 H 0.42301 0.18721 0.98716 0.0
H517 H 0.51007 0.2653 0.36117 0.0
H518 H 0.30121 0.49638 0.30998 0.0
H519 H 0.27326 0.49648 0.33384 0.0
H520 H 0.24907 0.47912 0.20832 0.0
H521 H 0.27708 0.47939 0.18394 0.0
H522 H 0.24109 0.50388 0.23988 0.0
H523 H 0.2379 0.44768 0.28881 0.0
H524 H 0.24912 0.42899 0.32595 0.0
H525 H 0.2506 0.4554 0.44476 0.0
H526 H 0.23961 0.47442 0.40818 0.0
H527 H 0.14574 0.44746 0.35609 0.0
H528 H 0.17468 0.4508 0.32827 0.0
H529 H 0.20103 0.51022 0.34074 0.0
H530 H 0.17201 0.50704 0.36786 0.0
H531 H 0.20768 0.4642 0.36435 0.0
H532 H 0.23358 0.53062 0.26205 0.0
H533 H 0.22058 0.54665 0.22026 0.0
H534 H 0.17021 0.4949 0.19973 0.0
H535 H 0.18301 0.47854 0.24087 0.0
C536 C 0.29001 0.49276 0.28734 0.0
C537 C 0.29127 0.48769 0.24519 0.0
C538 C 0.27404 0.49277 0.30106 0.0
C539 C 0.25898 0.48751 0.27303 0.0
C540 C 0.26051 0.48319 0.23048 0.0
C541 C 0.27652 0.48328 0.21666 0.0
C542 C 0.24128 0.48562 0.28848 0.0
C543 C 0.23381 0.49528 0.2672 0.0
C544 C 0.2316 0.47409 0.32358 0.0
C545 C 0.23812 0.4626 0.34569 0.0
C546 C 0.24074 0.44959 0.3228 0.0
C547 C 0.24704 0.43893 0.34375 0.0
C548 C 0.25061 0.44104 0.38766 0.0
C549 C 0.24785 0.45379 0.41073 0.0
C550 C 0.24158 0.46451 0.38992 0.0
C551 C 0.15766 0.46125 0.35276 0.0
C552 C 0.15658 0.47699 0.36412 0.0
C553 C 0.1742 0.46313 0.33697 0.0
C554 C 0.18997 0.48075 0.33218 0.0
C555 C 0.18895 0.4965 0.34359 0.0
C556 C 0.17238 0.49465 0.35923 0.0
C557 C 0.20754 0.48257 0.31599 0.0
C558 C 0.215 0.47291 0.33719 0.0
C559 C 0.21694 0.49374 0.2802 0.0
C560 C 0.20919 0.5034 0.25495 0.0
C561 C 0.21976 0.52266 0.24849 0.0
C562 C 0.21242 0.5318 0.22493 0.0
C563 C 0.19456 0.52181 0.20748 0.0
C564 C 0.18402 0.50264 0.21341 0.0
C565 C 0.1913 0.49343 0.23689 0.0
H566 H 0.18889 0.52891 0.18929 0.0
H567 H 0.25549 0.43277 0.40383 0.0
H568 H 0.65406 0.17782 0.53616 0.0
H569 H 0.68215 0.20624 0.51496 0.0
H570 H 0.70939 0.17486 0.48831 0.0
H571 H 0.68146 0.14639 0.51018 0.0
H572 H 0.73136 0.20505 0.53411 0.0
H573 H 0.69384 0.19151 0.40764 0.0
H574 H 0.66575 0.18445 0.36616 0.0
H575 H 0.67083 0.23616 0.40511 0.0
H576 H 0.69882 0.24342 0.44732 0.0
H577 H 0.80838 0.27138 0.41633 0.0
H578 H 0.77933 0.24415 0.43784 0.0
H579 H 0.75635 0.27894 0.46954 0.0
H580 H 0.78545 0.30639 0.44776 0.0
H581 H 0.73198 0.24796 0.42306 0.0
H582 H 0.77013 0.26174 0.54803 0.0
H583 H 0.79837 0.26871 0.58871 0.0
H584 H 0.79216 0.21632 0.5517 0.0
H585 H 0.76401 0.20914 0.51028 0.0
C586 C 0.66599 0.17693 0.52557 0.0
C587 C 0.66554 0.15984 0.52487 0.0
C588 C 0.68201 0.19319 0.51331 0.0
C589 C 0.6978 0.19264 0.49972 0.0
C590 C 0.69735 0.17558 0.49872 0.0
C591 C 0.68136 0.15932 0.51111 0.0
C592 C 0.71501 0.2099 0.48778 0.0
C593 C 0.73154 0.21431 0.50943 0.0
C594 C 0.71511 0.22223 0.45645 0.0
C595 C 0.69831 0.21792 0.431 0.0
C596 C 0.68888 0.20131 0.40765 0.0
C597 C 0.67299 0.19728 0.38395 0.0
C598 C 0.66648 0.20982 0.38309 0.0
C599 C 0.67587 0.22644 0.40585 0.0
C600 C 0.69176 0.23053 0.42964 0.0
C601 C 0.79718 0.27329 0.42793 0.0
C602 C 0.79923 0.29106 0.43048 0.0
C603 C 0.78061 0.2577 0.44033 0.0
C604 C 0.76578 0.25957 0.45566 0.0
C605 C 0.76767 0.27724 0.45786 0.0
C606 C 0.78431 0.2929 0.44556 0.0
C607 C 0.74831 0.24296 0.46909 0.0
C608 C 0.73175 0.23871 0.44781 0.0
C609 C 0.74817 0.23073 0.50069 0.0
C610 C 0.76505 0.23497 0.52574 0.0
C611 C 0.77487 0.25176 0.54828 0.0
C612 C 0.79085 0.25574 0.57153 0.0
C613 C 0.79708 0.24299 0.57271 0.0
C614 C 0.78733 0.2262 0.55073 0.0
C615 C 0.77135 0.22216 0.52739 0.0
H616 H 0.80946 0.24609 0.59072 0.0
H617 H 0.65418 0.20668 0.36472 0.0
H618 H 0.52257 0.81642 0.58732 0.0
H619 H 0.52097 0.78778 0.61147 0.0
H620 H 0.46146 0.76215 0.62507 0.0
H621 H 0.46297 0.79088 0.60169 0.0
H622 H 0.47617 0.75406 0.69169 0.0
H623 H 0.4802 0.75195 0.5399 0.0
H624 H 0.49299 0.76346 0.46812 0.0
H625 H 0.5447 0.76754 0.50537 0.0
H626 H 0.53231 0.75629 0.5776 0.0
H627 H 0.46338 0.66292 0.71325 0.0
H628 H 0.46152 0.68947 0.68557 0.0
H629 H 0.52133 0.72102 0.67605 0.0
H630 H 0.52333 0.69463 0.70341 0.0
H631 H 0.50405 0.72452 0.60469 0.0
H632 H 0.49992 0.72805 0.75817 0.0
H633 H 0.48652 0.71608 0.8293 0.0
H634 H 0.43392 0.70854 0.78718 0.0
H635 H 0.44695 0.72024 0.71558 0.0
C636 C 0.50914 0.80471 0.59552 0.0
C637 C 0.49289 0.8059 0.5924 0.0
C638 C 0.50823 0.78832 0.60911 0.0
C639 C 0.49105 0.77274 0.6194 0.0
C640 C 0.47485 0.77399 0.61712 0.0
C641 C 0.47574 0.79041 0.6037 0.0
C642 C 0.49007 0.7552 0.63276 0.0
C643 C 0.482 0.74743 0.67235 0.0
C644 C 0.49787 0.74668 0.60774 0.0
C645 C 0.50537 0.75343 0.5643 0.0
C646 C 0.49435 0.75544 0.5329 0.0
C647 C 0.50152 0.76189 0.4921 0.0
C648 C 0.51966 0.76627 0.48222 0.0
C649 C 0.53066 0.76416 0.51308 0.0
C650 C 0.52356 0.75773 0.55395 0.0
C651 C 0.47613 0.6755 0.70512 0.0
C652 C 0.49351 0.67671 0.71069 0.0
C653 C 0.47504 0.69065 0.68946 0.0
C654 C 0.4913 0.70723 0.67913 0.0
C655 C 0.50862 0.70834 0.68386 0.0
C656 C 0.50973 0.69326 0.69966 0.0
C657 C 0.49042 0.72358 0.66381 0.0
C658 C 0.49812 0.7311 0.62383 0.0
C659 C 0.48217 0.73178 0.68833 0.0
C660 C 0.47435 0.72482 0.7314 0.0
C661 C 0.48545 0.72369 0.76397 0.0
C662 C 0.47793 0.71699 0.80439 0.0
C663 C 0.45936 0.7115 0.81272 0.0
C664 C 0.44829 0.71276 0.78067 0.0
C665 C 0.45574 0.71944 0.74017 0.0
H666 H 0.45356 0.70631 0.84403 0.0
H667 H 0.52518 0.77127 0.45061 0.0
H668 H 0.65467 0.47122 0.77321 0.0
H669 H 0.68184 0.46931 0.79592 0.0
H670 H 0.71559 0.5111 0.70332 0.0
H671 H 0.68844 0.51286 0.67986 0.0
H672 H 0.72307 0.48328 0.70348 0.0
H673 H 0.71702 0.5219 0.80893 0.0
H674 H 0.70068 0.52977 0.86332 0.0
H675 H 0.69179 0.48294 0.93882 0.0
H676 H 0.70789 0.47466 0.88457 0.0
H677 H 0.81276 0.51091 0.78727 0.0
H678 H 0.78416 0.50901 0.76094 0.0
H679 H 0.75269 0.46808 0.85723 0.0
H680 H 0.7813 0.4702 0.8844 0.0
H681 H 0.74333 0.49409 0.85516 0.0
H682 H 0.75077 0.45628 0.75086 0.0
H683 H 0.76741 0.44875 0.69656 0.0
H684 H 0.77392 0.49415 0.61887 0.0
H685 H 0.75754 0.50212 0.673 0.0
C686 C 0.66787 0.48 0.75765 0.0
C687 C 0.66943 0.49226 0.72488 0.0
C688 C 0.68339 0.47892 0.77075 0.0
C689 C 0.70077 0.49022 0.75163 0.0
C690 C 0.7023 0.50227 0.71849 0.0
C691 C 0.68678 0.5033 0.70525 0.0
C692 C 0.71743 0.48965 0.76643 0.0
C693 C 0.72763 0.48583 0.73655 0.0
C694 C 0.7231 0.49255 0.80977 0.0
C695 C 0.71349 0.49756 0.84249 0.0
C696 C 0.71146 0.5132 0.83698 0.0
C697 C 0.70226 0.51775 0.8678 0.0
C698 C 0.69516 0.50683 0.90444 0.0
C699 C 0.69728 0.49137 0.91039 0.0
C700 C 0.70645 0.48675 0.87963 0.0
C701 C 0.79974 0.50138 0.80263 0.0
C702 C 0.7993 0.49074 0.83799 0.0
C703 C 0.78339 0.50025 0.7874 0.0
C704 C 0.76627 0.48827 0.80687 0.0
C705 C 0.76576 0.47742 0.84175 0.0
C706 C 0.78212 0.47862 0.85717 0.0
C707 C 0.74903 0.48775 0.79221 0.0
C708 C 0.73872 0.4914 0.82212 0.0
C709 C 0.74329 0.48471 0.7489 0.0
C710 C 0.75306 0.47989 0.71618 0.0
C711 C 0.75587 0.46475 0.72234 0.0
C712 C 0.76523 0.46039 0.69157 0.0
C713 C 0.77175 0.47099 0.65433 0.0
C714 C 0.76887 0.48596 0.64774 0.0
C715 C 0.75953 0.49039 0.67844 0.0
H716 H 0.779 0.4676 0.63055 0.0
H717 H 0.68804 0.51037 0.92827 0.0
H718 H 0.13967 0.68923 0.96267 0.0
H719 H 0.16844 0.71646 0.98581 0.0
H720 H 0.19984 0.69102 0.94371 0.0
H721 H 0.17101 0.66351 0.92095 0.0
H722 H 0.2122 0.70804 0.0202 0.0
H723 H 0.19852 0.72383 0.88305 0.0
H724 H 0.1792 0.72739 0.82806 0.0
H725 H 0.17337 0.76587 0.90835 0.0
H726 H 0.19245 0.76235 0.96411 0.0
H727 H 0.29985 0.79174 0.02444 0.0
H728 H 0.27214 0.76342 0.00067 0.0
H729 H 0.2376 0.7854 0.04251 0.0
H730 H 0.26522 0.81383 0.06601 0.0
H731 H 0.22766 0.76982 0.9637 0.0
H732 H 0.24094 0.75325 0.1016 0.0
H733 H 0.26055 0.7497 0.15584 0.0
H734 H 0.26761 0.71275 0.07279 0.0
H735 H 0.24823 0.71628 0.01779 0.0
C736 C 0.15267 0.68936 0.95845 0.0
C737 C 0.15307 0.67426 0.93967 0.0
C738 C 0.16911 0.70497 0.97156 0.0
C739 C 0.18629 0.70588 0.96581 0.0
C740 C 0.18672 0.69062 0.94824 0.0
C741 C 0.17024 0.67494 0.93518 0.0
C742 C 0.20378 0.72288 0.9777 0.0
C743 C 0.21574 0.72152 0.00739 0.0
C744 C 0.20821 0.74049 0.96144 0.0
C745 C 0.19678 0.74269 0.92792 0.0
C746 C 0.193 0.73294 0.88912 0.0
C747 C 0.18211 0.73497 0.85779 0.0
C748 C 0.17502 0.74681 0.86475 0.0
C749 C 0.17885 0.75669 0.90303 0.0
C750 C 0.18972 0.75469 0.93449 0.0
C751 C 0.28636 0.79057 0.02855 0.0
C752 C 0.28472 0.80502 0.04723 0.0
C753 C 0.27055 0.77435 0.01511 0.0
C754 C 0.25282 0.77226 0.02026 0.0
C755 C 0.25116 0.78675 0.03833 0.0
C756 C 0.26696 0.80296 0.05183 0.0
C757 C 0.23597 0.75501 0.00657 0.0
C758 C 0.22415 0.75633 0.97643 0.0
C759 C 0.23172 0.73739 0.02229 0.0
C760 C 0.2433 0.73518 0.05541 0.0
C761 C 0.24679 0.74448 0.09477 0.0
C762 C 0.25785 0.74246 0.12567 0.0
C763 C 0.26536 0.73105 0.11772 0.0
C764 C 0.2618 0.7216 0.07888 0.0
C765 C 0.25077 0.7236 0.04785 0.0
H766 H 0.27392 0.72951 0.14168 0.0
H767 H 0.1666 0.74837 0.84045 0.0
H768 H 0.55736 0.13544 0.65635 0.0
H769 H 0.55463 0.15225 0.71707 0.0
H770 H 0.61247 0.17349 0.74782 0.0
H771 H 0.61541 0.15702 0.68618 0.0
H772 H 0.58665 0.14958 0.80894 0.0
H773 H 0.60052 0.20465 0.73657 0.0
H774 H 0.59957 0.2241 0.6783 0.0
H775 H 0.54114 0.20198 0.69906 0.0
H776 H 0.54164 0.18217 0.75702 0.0
H777 H 0.54435 0.14969 -0.00162 0.0
H778 H 0.56845 0.16636 0.94432 0.0
H779 H 0.5259 0.15803 0.85275 0.0
H780 H 0.50216 0.14271 0.90761 0.0
H781 H 0.55616 0.18713 0.82985 0.0
H782 H 0.54016 0.12441 0.8736 0.0
H783 H 0.53767 0.10097 0.92564 0.0
H784 H 0.59629 0.13333 0.95114 0.0
H785 H 0.59905 0.15705 0.89953 0.0
C786 C 0.56966 0.14425 0.67511 0.0
C787 C 0.58652 0.14477 0.667 0.0
C788 C 0.56814 0.15398 0.70956 0.0
C789 C 0.58337 0.16413 0.73685 0.0
C790 C 0.60063 0.16587 0.72683 0.0
C791 C 0.60226 0.15644 0.69171 0.0
C792 C 0.57984 0.16889 0.77996 0.0
C793 C 0.58063 0.15837 0.81402 0.0
C794 C 0.57159 0.17997 0.78606 0.0
C795 C 0.57114 0.19188 0.75123 0.0
C796 C 0.58743 0.20383 0.72857 0.0
C797 C 0.58698 0.21494 0.69559 0.0
C798 C 0.5703 0.21428 0.68499 0.0
C799 C 0.55405 0.20251 0.70736 0.0
C800 C 0.55443 0.19136 0.74037 0.0
C801 C 0.54037 0.1522 0.96715 0.0
C802 C 0.52157 0.14497 0.95669 0.0
C803 C 0.55407 0.1616 0.93624 0.0
C804 C 0.54896 0.16293 0.89403 0.0
C805 C 0.53025 0.15716 0.88495 0.0
C806 C 0.51666 0.14833 0.9162 0.0
C807 C 0.56202 0.16696 0.85791 0.0
C808 C 0.56298 0.17906 0.82533 0.0
C809 C 0.57138 0.15681 0.85238 0.0
C810 C 0.56976 0.14258 0.88328 0.0
C811 C 0.55249 0.12654 0.89051 0.0
C812 C 0.55103 0.11322 0.91989 0.0
C813 C 0.5668 0.11569 0.9418 0.0
C814 C 0.58407 0.13147 0.93426 0.0
C815 C 0.58559 0.14486 0.90498 0.0
H816 H 0.56565 0.10536 0.96454 0.0
H817 H 0.56998 0.22289 0.65944 0.0
H818 H 0.43746 0.61929 0.84935 0.0
H819 H 0.4151 0.61324 0.90678 0.0
H820 H 0.40164 0.55606 0.91067 0.0
H821 H 0.4232 0.56178 0.85298 0.0
H822 H 0.37233 0.55771 0.93313 0.0
H823 H 0.4398 0.59236 0.9704 0.0
H824 H 0.47111 0.62 0.96519 0.0
H825 H 0.44913 0.65465 0.0038 0.0
H826 H 0.41767 0.62718 0.00889 0.0
H827 H 0.40362 0.53966 0.13765 0.0
H828 H 0.40927 0.56105 0.07944 0.0
H829 H 0.35308 0.55081 0.08937 0.0
H830 H 0.34708 0.52873 0.1475 0.0
H831 H 0.40895 0.59159 0.06101 0.0
H832 H 0.3379 0.54961 0.98726 0.0
H833 H 0.30957 0.51878 -0.008 0.0
H834 H 0.34274 0.49441 0.02631 0.0
H835 H 0.37122 0.52507 0.0214 0.0
C836 C 0.42928 0.6053 0.86158 0.0
C837 C 0.43246 0.59111 0.84739 0.0
C838 C 0.41653 0.60189 0.89447 0.0
C839 C 0.40699 0.5843 0.91376 0.0
C840 C 0.40884 0.56978 0.89653 0.0
C841 C 0.42138 0.57312 0.86369 0.0
C842 C 0.39764 0.58129 0.95577 0.0
C843 C 0.38007 0.56545 0.96109 0.0
C844 C 0.40761 0.5914 -0.00762 0.0
C845 C 0.42644 0.60783 0.98953 0.0
C846 C 0.44168 0.6059 0.97762 0.0
C847 C 0.45943 0.62152 0.97468 0.0
C848 C 0.4621 0.63908 0.98403 0.0
C849 C 0.44703 0.64105 -0.00354 0.0
C850 C 0.42925 0.62547 -0.00064 0.0
C851 C 0.3925 0.54213 0.1281 0.0
C852 C 0.37477 0.53215 0.14662 0.0
C853 C 0.39581 0.55455 0.09495 0.0
C854 C 0.38153 0.55736 0.07955 0.0
C855 C 0.36424 0.54867 0.10038 0.0
C856 C 0.36086 0.53608 0.13364 0.0
C857 C 0.38441 0.56721 0.03825 0.0
C858 C 0.40063 0.58446 0.03313 0.0
C859 C 0.37353 0.55805 0.00181 0.0
C860 C 0.35657 0.53959 0.00451 0.0
C861 C 0.3391 0.53764 -0.00422 0.0
C862 C 0.32304 0.52022 -0.00151 0.0
C863 C 0.32435 0.50466 0.00961 0.0
C864 C 0.34173 0.50647 0.01784 0.0
C865 C 0.35783 0.52386 0.0151 0.0
H866 H 0.3119 0.49119 0.01174 0.0
H867 H 0.47585 0.65115 0.98174 0.0
H868 H 0.83445 0.42008 0.96966 0.0
H869 H 0.82215 0.39661 0.02598 0.0
H870 H 0.80069 0.42754 0.09135 0.0
H871 H 0.81186 0.45023 0.03352 0.0
H872 H 0.83765 0.40597 0.09673 0.0
H873 H 0.77264 0.40446 0.17328 0.0
H874 H 0.74298 0.40165 0.14979 0.0
H875 H 0.74472 0.37485 0.03429 0.0
H876 H 0.77424 0.37724 0.05731 0.0
H877 H 0.84573 0.40746 0.30959 0.0
H878 H 0.8329 0.4134 0.24528 0.0
H879 H 0.79656 0.35468 0.22747 0.0
H880 H 0.8092 0.34855 0.29244 0.0
H881 H 0.78334 0.3817 0.19397 0.0
H882 H 0.83175 0.3655 0.18279 0.0
H883 H 0.86092 0.3673 0.20682 0.0
H884 H 0.89047 0.42608 0.18519 0.0
H885 H 0.86138 0.42466 0.16177 0.0
C886 C 0.82633 0.42133 -0.00489 0.0
C887 C 0.82418 0.43694 -0.00236 0.0
C888 C 0.81934 0.40796 0.02734 0.0
C889 C 0.81067 0.41035 0.06335 0.0
C890 C 0.80703 0.42511 0.06378 0.0
C891 C 0.81353 0.43819 0.03079 0.0
C892 C 0.80935 0.4002 0.10354 0.0
C893 C 0.82551 0.4003 0.11724 0.0
C894 C 0.79364 0.39279 0.13086 0.0
C895 C 0.77575 0.39113 0.11698 0.0
C896 C 0.76665 0.39785 0.143 0.0
C897 C 0.74987 0.39636 0.12972 0.0
C898 C 0.74199 0.38811 0.09054 0.0
C899 C 0.75086 0.38129 0.06457 0.0
C900 C 0.76765 0.38274 0.07769 0.0
C901 C 0.83453 0.39582 0.29292 0.0
C902 C 0.82877 0.37753 0.30543 0.0
C903 C 0.82711 0.39924 0.25637 0.0
C904 C 0.81399 0.38446 0.23149 0.0
C905 C 0.80663 0.36625 0.24645 0.0
C906 C 0.81395 0.36279 0.28344 0.0
C907 C 0.81163 0.38803 0.18632 0.0
C908 C 0.79504 0.38687 0.17226 0.0
C909 C 0.82677 0.39415 0.15793 0.0
C910 C 0.84438 0.39499 0.17083 0.0
C911 C 0.84445 0.37882 0.18341 0.0
C912 C 0.86097 0.37977 0.19691 0.0
C913 C 0.87753 0.3968 0.1976 0.0
C914 C 0.87763 0.4129 0.18466 0.0
C915 C 0.86114 0.41203 0.17124 0.0
H916 H 0.8903 0.39751 0.2081 0.0
H917 H 0.729 0.38698 0.08032 0.0
H918 H 0.44327 0.80694 0.44652 0.0
H919 H 0.42462 0.79103 0.38332 0.0
H920 H 0.3934 0.81915 0.39905 0.0
H921 H 0.41201 0.83522 0.46166 0.0
H922 H 0.37726 0.77547 0.35015 0.0
H923 H 0.4202 0.85069 0.32856 0.0
H924 H 0.44968 0.87741 0.35361 0.0
H925 H 0.4758 0.84412 0.35098 0.0
H926 H 0.44648 0.81728 0.32559 0.0
H927 H 0.34597 0.81453 0.1967 0.0
H928 H 0.35489 0.79955 0.25136 0.0
H929 H 0.40454 0.81299 0.18003 0.0
H930 H 0.39619 0.8292 0.12702 0.0
H931 H 0.41433 0.82767 0.25099 0.0
H932 H 0.37046 0.76635 0.2126 0.0
H933 H 0.34033 0.7399 0.19049 0.0
H934 H 0.31569 0.74327 0.30804 0.0
H935 H 0.34558 0.76993 0.33064 0.0
C936 C 0.43186 0.80907 0.43767 0.0
C937 C 0.42936 0.82265 0.45824 0.0
C938 C 0.42112 0.79984 0.40177 0.0
C939 C 0.40774 0.80401 0.38661 0.0
C940 C 0.4036 0.81567 0.41055 0.0
C941 C 0.41441 0.82502 0.44599 0.0
C942 C 0.40248 0.80146 0.34106 0.0
C943 C 0.38538 0.78658 0.32779 0.0
C944 C 0.41336 0.81582 0.3121 0.0
C945 C 0.43123 0.83206 0.3253 0.0
C946 C 0.4323 0.84916 0.33302 0.0
C947 C 0.44895 0.86429 0.34737 0.0
C948 C 0.4646 0.86246 0.35392 0.0
C949 C 0.46367 0.84552 0.34592 0.0
C950 C 0.44706 0.83036 0.33152 0.0
C951 C 0.35842 0.81366 0.19203 0.0
C952 C 0.37056 0.82317 0.15824 0.0
C953 C 0.36348 0.80493 0.22313 0.0
C954 C 0.38049 0.80515 0.2201 0.0
C955 C 0.39145 0.81276 0.18337 0.0
C956 C 0.3867 0.82201 0.15308 0.0
C957 C 0.38869 0.8016 0.25878 0.0
C958 C 0.40637 0.81578 0.27155 0.0
C959 C 0.37839 0.78632 0.28651 0.0
C960 C 0.36032 0.77022 0.27328 0.0
C961 C 0.3586 0.76154 0.23365 0.0
C962 C 0.34155 0.74649 0.22104 0.0
C963 C 0.3261 0.73991 0.24783 0.0
C964 C 0.32767 0.74837 0.28734 0.0
C965 C 0.34469 0.76343 0.30011 0.0
H966 H 0.31291 0.72826 0.238 0.0
H967 H 0.47745 0.87416 0.36518 0.0
H968 H 0.61419 0.44662 0.60982 0.0
H969 H 0.6098 0.42724 0.54713 0.0
H970 H 0.55039 0.40267 0.55874 0.0
H971 H 0.55457 0.42194 0.62091 0.0
H972 H 0.57783 0.38279 0.5151 0.0
H973 H 0.54635 0.42693 0.47869 0.0
H974 H 0.54948 0.4569 0.4998 0.0
H975 H 0.60852 0.48036 0.5135 0.0
H976 H 0.60572 0.4506 0.4919 0.0
H977 H 0.50868 0.35058 0.35754 0.0
H978 H 0.53208 0.35964 0.41369 0.0
H979 H 0.5694 0.40847 0.34131 0.0
H980 H 0.54534 0.4 0.28674 0.0
H981 H 0.56359 0.41882 0.41049 0.0
H982 H 0.58135 0.37462 0.37885 0.0
H983 H 0.57774 0.34432 0.35968 0.0
H984 H 0.54842 0.32094 0.47679 0.0
H985 H 0.55158 0.35101 0.49644 0.0
C986 C 0.60018 0.43652 0.6001 0.0
C987 C 0.58471 0.4361 0.61952 0.0
C988 C 0.59771 0.42536 0.5645 0.0
C989 C 0.57979 0.41365 0.5484 0.0
C990 C 0.56432 0.41159 0.57097 0.0
C991 C 0.56675 0.42278 0.60617 0.0
C992 C 0.5771 0.40782 0.50328 0.0
C993 C 0.57499 0.39065 0.49164 0.0
C994 C 0.57389 0.41841 0.47283 0.0
C995 C 0.57581 0.43657 0.48394 0.0
C996 C 0.56 0.43855 0.48591 0.0
C997 C 0.56171 0.45547 0.49802 0.0
C998 C 0.57918 0.47052 0.50807 0.0
C999 C 0.59499 0.46869 0.50579 0.0
C1000 C 0.59335 0.45181 0.49362 0.0
C1001 C 0.52217 0.36285 0.35298 0.0
C1002 C 0.52525 0.37475 0.31837 0.0
C1003 C 0.53565 0.36799 0.38496 0.0
C1004 C 0.55257 0.38485 0.38203 0.0
C1005 C 0.55642 0.3955 0.34457 0.0
C1006 C 0.54272 0.39068 0.31337 0.0
C1007 C 0.56387 0.39331 0.42116 0.0
C1008 C 0.56726 0.41105 0.43239 0.0
C1009 C 0.56857 0.38328 0.4505 0.0
C1010 C 0.56667 0.36512 0.43907 0.0
C1011 C 0.57403 0.363 0.40043 0.0
C1012 C 0.57207 0.34586 0.38948 0.0
C1013 C 0.56284 0.33072 0.41698 0.0
C1014 C 0.55558 0.33269 0.45554 0.0
C1015 C 0.55749 0.3498 0.46664 0.0
H1016 H 0.56133 0.31745 0.40843 0.0
H1017 H 0.58048 0.48359 0.51757 0.0
H1018 H 0.11275 0.54755 0.50598 0.0
H1019 H 0.12974 0.56927 0.5626 0.0
H1020 H 0.1729 0.55491 0.55544 0.0
H1021 H 0.15545 0.53245 0.49902 0.0
H1022 H 0.16241 0.55147 0.63236 0.0
H1023 H 0.18355 0.60144 0.54063 0.0
H1024 H 0.18398 0.62096 0.48087 0.0
H1025 H 0.14179 0.62799 0.54231 0.0
H1026 H 0.14085 0.60829 0.60211 0.0
H1027 H 0.15373 0.62069 0.79429 0.0
H1028 H 0.1716 0.61666 0.73741 0.0
H1029 H 0.13026 0.55856 0.72998 0.0
H1030 H 0.1128 0.56235 0.78692 0.0
H1031 H 0.16071 0.60912 0.66031 0.0
H1032 H 0.1434 0.53202 0.69084 0.0
H1033 H 0.14591 0.51408 0.75051 0.0
H1034 H 0.18663 0.56439 0.81128 0.0
H1035 H 0.18464 0.58269 0.75165 0.0
C1036 C 0.12607 0.54927 0.51559 0.0
C1037 C 0.13256 0.53801 0.49844 0.0
C1038 C 0.13596 0.56196 0.54778 0.0
C1039 C 0.15275 0.56392 0.56329 0.0
C1040 C 0.16001 0.55369 0.544 0.0
C1041 C 0.15002 0.54087 0.51168 0.0
C1042 C 0.16048 0.57406 0.60405 0.0
C1043 C 0.16244 0.56429 0.63842 0.0
C1044 C 0.16172 0.59136 0.61183 0.0
C1045 C 0.16221 0.6034 0.57608 0.0
C1046 C 0.17431 0.60709 0.54138 0.0
C1047 C 0.17464 0.61819 0.50746 0.0
C1048 C 0.16294 0.62574 0.50783 0.0
C1049 C 0.15089 0.62219 0.54214 0.0
C1050 C 0.1505 0.6111 0.57616 0.0
C1051 C 0.14879 0.60694 0.78143 0.0
C1052 C 0.13169 0.59188 0.7947 0.0
C1053 C 0.15902 0.60468 0.74887 0.0
C1054 C 0.15239 0.5873 0.72943 0.0
C1055 C 0.13599 0.57205 0.74491 0.0
C1056 C 0.12582 0.57428 0.77727 0.0
C1057 C 0.16032 0.58533 0.68859 0.0
C1058 C 0.16148 0.59673 0.65422 0.0
C1059 C 0.16252 0.56983 0.6808 0.0
C1060 C 0.1639 0.55877 0.71655 0.0
C1061 C 0.15306 0.53929 0.71663 0.0
C1062 C 0.15434 0.52904 0.75057 0.0
C1063 C 0.16642 0.53809 0.78466 0.0
C1064 C 0.17726 0.5574 0.78488 0.0
C1065 C 0.17604 0.56772 0.75103 0.0
H1066 H 0.16738 0.53012 0.81091 0.0
H1067 H 0.16321 0.63431 0.48151 0.0
H1068 H 0.46292 0.05951 0.05428 0.0
H1069 H 0.44567 0.02576 0.05904 0.0
H1070 H 0.39394 0.02624 0.0551 0.0
H1071 H 0.41134 0.0602 0.0526 0.0
H1072 H 0.39 0.00131 0.10739 0.0
H1073 H 0.4127 0.01509 0.96496 0.0
H1074 H 0.43573 0.0299 0.90736 0.0
H1075 H 0.46583 0.00387 0.95353 0.0
H1076 H 0.44311 -0.0109 0.01179 0.0
H1077 H 0.33932 0.90422 0.04785 0.0
H1078 H 0.354 0.93801 0.0417 0.0
H1079 H 0.40522 0.94413 0.09145 0.0
H1080 H 0.39062 0.91059 0.09891 0.0
H1081 H 0.40716 0.96497 0.01138 0.0
H1082 H 0.38293 0.95243 0.1569 0.0
H1083 H 0.35781 0.93708 0.20989 0.0
H1084 H 0.32758 0.96027 0.14937 0.0
H1085 H 0.35243 0.97554 0.09561 0.0
C1086 C 0.44789 0.0524 0.05432 0.0
C1087 C 0.43842 0.06236 0.05241 0.0
C1088 C 0.43801 0.0331 0.05688 0.0
C1089 C 0.41846 0.02336 0.05611 0.0
C1090 C 0.409 0.03339 0.05544 0.0
C1091 C 0.41892 0.05276 0.05399 0.0
C1092 C 0.40798 0.00276 0.05608 0.0
C1093 C 0.3936 -0.00658 0.08586 0.0
C1094 C 0.41261 -0.00767 0.02809 0.0
C1095 C 0.42627 0.00111 -0.00704 0.0
C1096 C 0.42429 0.01262 0.963 0.0
C1097 C 0.43729 0.02099 0.93021 0.0
C1098 C 0.45226 0.01786 0.92685 0.0
C1099 C 0.45423 0.0063 0.9562 0.0
C1100 C 0.44129 -0.0021 0.98909 0.0
C1101 C 0.35373 0.91276 0.05738 0.0
C1102 C 0.36383 0.90468 0.07371 0.0
C1103 C 0.36204 0.93202 0.05392 0.0
C1104 C 0.38065 0.94344 0.06613 0.0
C1105 C 0.39085 0.93546 0.08178 0.0
C1106 C 0.38246 0.91626 0.08602 0.0
C1107 C 0.38957 0.9638 0.06297 0.0
C1108 C 0.40358 0.973 0.03252 0.0
C1109 C 0.38429 0.97405 0.08953 0.0
C1110 C 0.36942 0.96494 0.12196 0.0
C1111 C 0.37084 0.9541 0.15464 0.0
C1112 C 0.35667 0.94545 0.18487 0.0
C1113 C 0.34108 0.94765 0.18292 0.0
C1114 C 0.33965 0.95855 0.1508 0.0
C1115 C 0.35377 0.96721 0.12046 0.0
H1116 H 0.33012 0.94094 0.20636 0.0
H1117 H 0.4623 0.02436 0.90145 0.0
H1118 H 0.4563 0.39322 0.26569 0.0
H1119 H 0.43523 0.40537 0.27093 0.0
H1120 H 0.39071 0.35434 0.21916 0.0
H1121 H 0.41212 0.34233 0.21206 0.0
H1122 H 0.38876 0.38195 0.18675 0.0
H1123 H 0.39332 0.36441 0.32799 0.0
H1124 H 0.40842 0.36196 0.39368 0.0
H1125 H 0.43587 0.42098 0.41011 0.0
H1126 H 0.42116 0.42384 0.34417 0.0
H1127 H 0.3292 0.41851 0.24586 0.0
H1128 H 0.34169 0.39727 0.25034 0.0
H1129 H 0.39708 0.44405 0.26498 0.0
H1130 H 0.38476 0.46515 0.2599 0.0
H1131 H 0.38725 0.41237 0.32168 0.0
H1132 H 0.38537 0.4283 0.17118 0.0
H1133 H 0.36877 0.42932 0.10663 0.0
H1134 H 0.33338 0.37018 0.11153 0.0
H1135 H 0.34963 0.36888 0.17652 0.0
C1136 C 0.44211 0.3846 0.25505 0.0
C1137 C 0.43591 0.36679 0.23853 0.0
C1138 C 0.42998 0.3915 0.2585 0.0
C1139 C 0.41123 0.38057 0.24659 0.0
C1140 C 0.40507 0.36296 0.22893 0.0
C1141 C 0.41733 0.35614 0.22482 0.0
C1142 C 0.39831 0.38784 0.25209 0.0
C1143 C 0.38812 0.38821 0.21659 0.0
C1144 C 0.39734 0.39596 0.29107 0.0
C1145 C 0.4062 0.39434 0.33094 0.0
C1146 C 0.40267 0.37689 0.34545 0.0
C1147 C 0.41115 0.37542 0.38276 0.0
C1148 C 0.42312 0.39131 0.40602 0.0
C1149 C 0.4266 0.40869 0.39206 0.0
C1150 C 0.41817 0.41024 0.35474 0.0
C1151 C 0.34399 0.42415 0.25062 0.0
C1152 C 0.35611 0.4434 0.25189 0.0
C1153 C 0.35108 0.41207 0.25307 0.0
C1154 C 0.37029 0.41917 0.25772 0.0
C1155 C 0.38223 0.43836 0.2613 0.0
C1156 C 0.37521 0.45039 0.25799 0.0
C1157 C 0.37838 0.40696 0.25607 0.0
C1158 C 0.38762 0.40568 0.2923 0.0
C1159 C 0.37818 0.39771 0.2181 0.0
C1160 C 0.36854 0.39852 0.17896 0.0
C1161 C 0.37393 0.41555 0.1587 0.0
C1162 C 0.36462 0.41617 0.122 0.0
C1163 C 0.34999 0.39983 0.10507 0.0
C1164 C 0.34469 0.38283 0.12473 0.0
C1165 C 0.35395 0.38214 0.16148 0.0
H1166 H 0.34279 0.40034 0.07665 0.0
H1167 H 0.42967 0.39014 0.4349 0.0
H1168 H 0.06002 0.42315 0.39342 0.0
H1169 H 0.02676 0.40026 0.39686 0.0
H1170 H 0.01546 0.44298 0.43854 0.0
H1171 H 0.04841 0.46544 0.43707 0.0
H1172 H -0.00321 0.41419 0.48525 0.0
H1173 H 0.00757 0.42469 0.33251 0.0
H1174 H 0.02235 0.42507 0.26395 0.0
H1175 H 0.00272 0.36682 0.27604 0.0
H1176 H -0.01199 0.36615 0.34494 0.0
H1177 H 0.90733 0.3908 0.41684 0.0
H1178 H 0.94077 0.40326 0.42394 0.0
H1179 H 0.93236 0.34783 0.42146 0.0
H1180 H 0.89856 0.33519 0.4147 0.0
H1181 H 0.96068 0.3759 0.36131 0.0
H1182 H 0.94461 0.36592 0.50949 0.0
H1183 H 0.92866 0.36716 0.57467 0.0
H1184 H 0.95757 0.42659 0.56778 0.0
H1185 H 0.97349 0.42571 0.50219 0.0
C1186 C 0.05039 0.42764 0.40305 0.0
C1187 C 0.05688 0.44616 0.41493 0.0
C1188 C 0.03139 0.41455 0.40496 0.0
C1189 C 0.01856 0.41989 0.41782 0.0
C1190 C 0.02507 0.43845 0.4289 0.0
C1191 C 0.04399 0.45138 0.42778 0.0
C1192 C -0.00168 0.40641 0.42033 0.0
C1193 C -0.01107 0.40585 0.45807 0.0
C1194 C -0.01193 0.395 0.38545 0.0
C1195 C -0.00309 0.39542 0.34409 0.0
C1196 C 0.00654 0.412 0.32069 0.0
C1197 C 0.01488 0.41226 0.28175 0.0
C1198 C 0.01354 0.396 0.26573 0.0
C1199 C 0.00379 0.37942 0.28854 0.0
C1200 C -0.00455 0.37908 0.32752 0.0
C1201 C 0.91257 0.38127 0.41769 0.0
C1202 C 0.90047 0.36209 0.41467 0.0
C1203 C 0.93164 0.38838 0.42208 0.0
C1204 C 0.93895 0.37643 0.42312 0.0
C1205 C 0.9269 0.35721 0.42067 0.0
C1206 C 0.90769 0.35005 0.41706 0.0
C1207 C 0.95929 0.38444 0.42542 0.0
C1208 C 0.96867 0.38392 0.38874 0.0
C1209 C 0.96953 0.39512 0.46095 0.0
C1210 C 0.96019 0.39574 0.50078 0.0
C1211 C 0.94748 0.37925 0.52172 0.0
C1212 C 0.93846 0.37989 0.55877 0.0
C1213 C 0.94209 0.39694 0.57533 0.0
C1214 C 0.95478 0.41339 0.55493 0.0
C1215 C 0.96384 0.41283 0.51785 0.0
H1216 H 0.93508 0.3974 0.60399 0.0
H1217 H 0.02 0.39623 0.23558 0.0
H1218 H 0.4875 0.90693 0.56362 0.0
H1219 H 0.50436 0.94075 0.56654 0.0
H1220 H 0.55629 0.94128 0.55144 0.0
H1221 H 0.53936 0.90727 0.55114 0.0
H1222 H 0.56198 0.96701 0.60266 0.0
H1223 H 0.53304 0.95012 0.46583 0.0
H1224 H 0.50746 0.93377 0.41407 0.0
H1225 H 0.47883 0.95992 0.46752 0.0
H1226 H 0.50412 0.97623 0.52002 0.0
H1227 H 0.60952 0.06247 0.53453 0.0
H1228 H 0.59445 0.02862 0.5303 0.0
H1229 H 0.54513 0.02356 0.58835 0.0
H1230 H 0.56016 0.05723 0.59369 0.0
H1231 H 0.53986 0.00078 0.51101 0.0
H1232 H 0.57063 0.01682 0.65001 0.0
H1233 H 0.59801 0.03355 0.69693 0.0
H1234 H 0.62578 0.00935 0.6304 0.0
H1235 H 0.59864 -0.00733 0.58266 0.0
C1236 C 0.50251 0.91431 0.56102 0.0
C1237 C 0.51218 0.90464 0.55654 0.0
C1238 C 0.51215 0.93363 0.56247 0.0
C1239 C 0.53158 0.94365 0.55778 0.0
C1240 C 0.5413 0.9339 0.55477 0.0
C1241 C 0.53166 0.91452 0.55458 0.0
C1242 C 0.54166 0.96423 0.55567 0.0
C1243 C 0.55727 0.97433 0.58207 0.0
C1244 C 0.53558 0.97393 0.52891 0.0
C1245 C 0.52041 0.96429 0.49709 0.0
C1246 C 0.52124 0.9523 0.46671 0.0
C1247 C 0.50679 0.94305 0.43722 0.0
C1248 C 0.49151 0.94577 0.43757 0.0
C1249 C 0.49067 0.95781 0.46732 0.0
C1250 C 0.50507 0.96708 0.49692 0.0
C1251 C 0.59541 0.05415 0.54613 0.0
C1252 C 0.58602 0.06255 0.56443 0.0
C1253 C 0.58688 0.03485 0.54378 0.0
C1254 C 0.56874 0.02369 0.55914 0.0
C1255 C 0.55914 0.03201 0.57631 0.0
C1256 C 0.56778 0.05127 0.57936 0.0
C1257 C 0.55984 0.00329 0.55828 0.0
C1258 C 0.54453 -0.00668 0.53125 0.0
C1259 C 0.56647 -0.00625 0.58358 0.0
C1260 C 0.5827 0.00367 0.61248 0.0
C1261 C 0.58264 0.0152 0.64514 0.0
C1262 C 0.5981 0.02465 0.67194 0.0
C1263 C 0.61364 0.02256 0.66657 0.0
C1264 C 0.61374 0.01097 0.63448 0.0
C1265 C 0.59832 0.00151 0.60757 0.0
H1266 H 0.6256 0.02988 0.68735 0.0
H1267 H 0.48034 0.93858 0.41473 0.0
H1268 H 0.62201 0.54849 0.71734 0.0
H1269 H 0.60883 0.56892 0.72198 0.0
H1270 H 0.55363 0.52105 0.72868 0.0
H1271 H 0.56678 0.50075 0.72157 0.0
H1272 H 0.55184 0.54406 0.67988 0.0
H1273 H 0.57892 0.54959 0.81879 0.0
H1274 H 0.60373 0.55575 0.87085 0.0
H1275 H 0.63581 0.61164 0.82475 0.0
H1276 H 0.61127 0.60573 0.77206 0.0
H1277 H 0.50857 0.58526 0.80361 0.0
H1278 H 0.52754 0.57093 0.79184 0.0
H1279 H 0.55924 0.61206 0.69639 0.0
H1280 H 0.53976 0.62623 0.7067 0.0
H1281 H 0.57481 0.5955 0.78484 0.0
H1282 H 0.54466 0.58596 0.64066 0.0
H1283 H 0.5163 0.57782 0.59895 0.0
H1284 H 0.48652 0.52654 0.66789 0.0
H1285 H 0.51467 0.53456 0.71041 0.0
C1286 C 0.60707 0.54241 0.71998 0.0
C1287 C 0.59537 0.5231 0.71892 0.0
C1288 C 0.59955 0.55406 0.7228 0.0
C1289 C 0.58021 0.54657 0.7262 0.0
C1290 C 0.56857 0.52721 0.72576 0.0
C1291 C 0.57607 0.51559 0.72176 0.0
C1292 C 0.572 0.55878 0.7297 0.0
C1293 C 0.55699 0.55531 0.70284 0.0
C1294 C 0.57861 0.57357 0.7595 0.0
C1295 C 0.59337 0.57715 0.79118 0.0
C1296 C 0.59133 0.56315 0.81956 0.0
C1297 C 0.60533 0.5666 0.84921 0.0
C1298 C 0.62137 0.58406 0.85101 0.0
C1299 C 0.6234 0.59812 0.82326 0.0
C1300 C 0.60945 0.59473 0.79352 0.0
C1301 C 0.51942 0.59122 0.77979 0.0
C1302 C 0.52238 0.60665 0.7554 0.0
C1303 C 0.53036 0.5831 0.77346 0.0
C1304 C 0.54461 0.59041 0.74311 0.0
C1305 C 0.54817 0.60623 0.71979 0.0
C1306 C 0.53704 0.61426 0.72571 0.0
C1307 C 0.55504 0.58075 0.73489 0.0
C1308 C 0.57019 0.58454 0.76122 0.0
C1309 C 0.54835 0.56602 0.70539 0.0
C1310 C 0.53168 0.56092 0.67885 0.0
C1311 C 0.53203 0.57301 0.64704 0.0
C1312 C 0.51601 0.56841 0.62325 0.0
C1313 C 0.49961 0.5517 0.63084 0.0
C1314 C 0.49923 0.5395 0.66207 0.0
C1315 C 0.51521 0.54405 0.68598 0.0
H1316 H 0.4872 0.54818 0.61247 0.0
H1317 H 0.63219 0.58671 0.87399 0.0
H1318 H 0.05613 0.63021 0.88821 0.0
H1319 H 0.02237 0.61726 0.89055 0.0
H1320 H 0.01452 0.56197 0.89172 0.0
H1321 H 0.04807 0.57489 0.88753 0.0
H1322 H -0.00929 0.56192 0.84077 0.0
H1323 H 0.01024 0.58486 0.98363 0.0
H1324 H 0.02815 0.60815 0.03896 0.0
H1325 H 0.00473 0.64123 -0.0029 0.0
H1326 H -0.01315 0.61822 0.94115 0.0
H1327 H 0.90519 0.51492 0.96131 0.0
H1328 H 0.9386 0.53494 0.95184 0.0
H1329 H 0.9288 0.56677 0.85727 0.0
H1330 H 0.89507 0.54634 0.86547 0.0
H1331 H 0.96046 0.5813 0.94945 0.0
H1332 H 0.94287 0.556 0.79917 0.0
H1333 H 0.92325 0.52894 0.75352 0.0
H1334 H 0.94222 0.49672 0.82171 0.0
H1335 H 0.96178 0.52356 0.86804 0.0
C1336 C 0.04713 0.6153 0.88912 0.0
C1337 C 0.05463 0.60352 0.88727 0.0
C1338 C 0.02786 0.60791 0.89056 0.0
C1339 C 0.01584 0.5886 0.89159 0.0
C1340 C 0.02345 0.57688 0.89048 0.0
C1341 C 0.04264 0.58427 0.88806 0.0
C1342 C -0.00466 0.58046 0.89352 0.0
C1343 C -0.01578 0.56633 0.86445 0.0
C1344 C -0.01333 0.5861 0.92429 0.0
C1345 C -0.00261 0.59993 0.95791 0.0
C1346 C 0.00902 0.59717 0.98603 0.0
C1347 C 0.01915 0.61031 0.01753 0.0
C1348 C 0.01762 0.62619 0.02145 0.0
C1349 C 0.00592 0.62894 -0.00604 0.0
C1350 C -0.00422 0.61585 0.96237 0.0
C1351 C 0.91005 0.52607 0.93824 0.0
C1352 C 0.89747 0.52881 0.91351 0.0
C1353 C 0.92915 0.53759 0.93323 0.0
C1354 C 0.93602 0.55218 0.90378 0.0
C1355 C 0.92362 0.55547 0.88003 0.0
C1356 C 0.90442 0.54379 0.88473 0.0
C1357 C 0.95623 0.56314 0.89661 0.0
C1358 C 0.96719 0.5775 0.92503 0.0
C1359 C 0.9648 0.55754 0.86592 0.0
C1360 C 0.95365 0.54169 0.83709 0.0
C1361 C 0.94279 0.54311 0.80444 0.0
C1362 C 0.93169 0.52783 0.77848 0.0
C1363 C 0.93145 0.5111 0.78477 0.0
C1364 C 0.9424 0.50967 0.81689 0.0
C1365 C 0.95351 0.52491 0.84295 0.0
H1366 H 0.92281 0.49927 0.76473 0.0
H1367 H 0.02547 0.63635 0.04586 0.0
loop_
_geom_bond_atom_site_label_1
_geom_bond_atom_site_label_2
_geom_bond_distance
_geom_bond_site_symmetry_2
_ccdc_geom_bond_type
Mg0 O1 2.028 . S
Mg0 O7 1.986 . S
Mg0 O9 2.114 . S
Mg0 O10 2.251 . S
Mg0 O13 2.010 . S
O1 Mg0 2.028 . S
O1 C4 1.250 . S
O2 Mg3 2.028 . S
O2 C4 1.248 . S
Mg3 O2 2.028 . S
Mg3 O8 2.032 . S
Mg3 O10 2.079 . S
C4 O1 1.250 . S
C4 O2 1.248 . S
C5 O6 1.264 . S
C5 O13 1.249 . S
O6 C5 1.264 . S
O7 Mg0 1.986 . S
O7 C11 1.246 . S
O8 Mg3 2.032 . S
O8 C11 1.259 . S
O9 Mg0 2.114 . S
O9 C12 1.252 . S
O10 Mg0 2.251 . S
O10 Mg3 2.079 . S
O10 C12 1.273 . S
C11 O7 1.246 . S
C11 O8 1.259 . S
C12 O9 1.252 . S
C12 O10 1.273 . S
O13 Mg0 2.010 . S
O13 C5 1.249 . S
Mg14 O15 2.028 . S
Mg14 O21 1.986 . S
Mg14 O23 2.114 . S
Mg14 O24 2.251 . S
Mg14 O27 2.010 . S
O15 Mg14 2.028 . S
O15 C18 1.250 . S
O16 Mg17 2.028 . S
O16 C18 1.248 . S
Mg17 O16 2.028 . S
Mg17 O22 2.032 . S
Mg17 O24 2.079 . S
C18 O15 1.250 . S
C18 O16 1.248 . S
C19 O20 1.264 . S
C19 O27 1.249 . S
O20 C19 1.264 . S
O21 Mg14 1.986 . S
O21 C25 1.246 . S
O22 Mg17 2.032 . S
O22 C25 1.259 . S
O23 Mg14 2.114 . S
O23 C26 1.252 . S
O24 Mg14 2.251 . S
O24 Mg17 2.079 . S
O24 C26 1.273 . S
C25 O21 1.246 . S
C25 O22 1.259 . S
C26 O23 1.252 . S
C26 O24 1.273 . S
O27 Mg14 2.010 . S
O27 C19 1.249 . S
Mg28 O29 2.028 . S
Mg28 O35 1.986 . S
Mg28 O37 2.114 . S
Mg28 O38 2.251 . S
Mg28 O41 2.010 . S
O29 Mg28 2.028 . S
O29 C32 1.250 . S
O30 Mg31 2.028 . S
O30 C32 1.248 . S
Mg31 O30 2.028 . S
Mg31 O36 2.032 . S
Mg31 O38 2.079 . S
C32 O29 1.250 . S
C32 O30 1.248 . S
C33 O34 1.264 . S
C33 O41 1.249 . S
O34 C33 1.264 . S
O35 Mg28 1.986 . S
O35 C39 1.246 . S
O36 Mg31 2.032 . S
O36 C39 1.259 . S
O37 Mg28 2.114 . S
O37 C40 1.252 . S
O38 Mg28 2.251 . S
O38 Mg31 2.079 . S
O38 C40 1.273 . S
C39 O35 1.246 . S
C39 O36 1.259 . S
C40 O37 1.252 . S
C40 O38 1.273 . S
O41 Mg28 2.010 . S
O41 C33 1.249 . S
Mg42 O43 2.028 . S
Mg42 O49 1.986 . S
Mg42 O51 2.114 . S
Mg42 O52 2.251 . S
Mg42 O55 2.010 . S
O43 Mg42 2.028 . S
O43 C46 1.250 . S
O44 Mg45 2.028 . S
O44 C46 1.248 . S
Mg45 O44 2.028 . S
Mg45 O50 2.032 . S
Mg45 O52 2.079 . S
C46 O43 1.250 . S
C46 O44 1.248 . S
C47 O48 1.264 . S
C47 O55 1.249 . S
O48 C47 1.264 . S
O49 Mg42 1.986 . S
O49 C53 1.246 . S
O50 Mg45 2.032 . S
O50 C53 1.259 . S
O51 Mg42 2.114 . S
O51 C54 1.252 . S
O52 Mg42 2.251 . S
O52 Mg45 2.079 . S
O52 C54 1.273 . S
C53 O49 1.246 . S
C53 O50 1.259 . S
C54 O51 1.252 . S
C54 O52 1.273 . S
O55 Mg42 2.010 . S
O55 C47 1.249 . S
Mg56 O57 2.028 . S
Mg56 O63 1.986 . S
Mg56 O65 2.114 . S
Mg56 O66 2.251 . S
Mg56 O69 2.010 . S
O57 Mg56 2.028 . S
O57 C60 1.250 . S
O58 Mg59 2.028 . S
O58 C60 1.248 . S
Mg59 O58 2.028 . S
Mg59 O64 2.032 . S
Mg59 O66 2.079 . S
C60 O57 1.250 . S
C60 O58 1.248 . S
C61 O62 1.264 . S
C61 O69 1.249 . S
O62 C61 1.264 . S
O63 Mg56 1.986 . S
O63 C67 1.246 . S
O64 Mg59 2.032 . S
O64 C67 1.259 . S
O65 Mg56 2.114 . S
O65 C68 1.252 . S
O66 Mg56 2.251 . S
O66 Mg59 2.079 . S
O66 C68 1.273 . S
C67 O63 1.246 . S
C67 O64 1.259 . S
C68 O65 1.252 . S
C68 O66 1.273 . S
O69 Mg56 2.010 . S
O69 C61 1.249 . S
Mg70 O71 2.028 . S
Mg70 O77 1.986 . S
Mg70 O79 2.114 . S
Mg70 O80 2.251 . S
Mg70 O83 2.010 . S
O71 Mg70 2.028 . S
O71 C74 1.250 . S
O72 Mg73 2.028 . S
O72 C74 1.248 . S
Mg73 O72 2.028 . S
Mg73 O78 2.032 . S
Mg73 O80 2.079 . S
C74 O71 1.250 . S
C74 O72 1.248 . S
C75 O76 1.264 . S
C75 O83 1.249 . S
O76 C75 1.264 . S
O77 Mg70 1.986 . S
O77 C81 1.246 . S
O78 Mg73 2.032 . S
O78 C81 1.259 . S
O79 Mg70 2.114 . S
O79 C82 1.252 . S
O80 Mg70 2.251 . S
O80 Mg73 2.079 . S
O80 C82 1.273 . S
C81 O77 1.246 . S
C81 O78 1.259 . S
C82 O79 1.252 . S
C82 O80 1.273 . S
O83 Mg70 2.010 . S
O83 C75 1.249 . S
Mg84 O85 2.028 . S
Mg84 O91 1.986 . S
Mg84 O93 2.114 . S
Mg84 O94 2.251 . S
Mg84 O97 2.010 . S
O85 Mg84 2.028 . S
O85 C88 1.250 . S
O86 Mg87 2.028 . S
O86 C88 1.248 . S
Mg87 O86 2.028 . S
Mg87 O92 2.032 . S
Mg87 O94 2.079 . S
C88 O85 1.250 . S
C88 O86 1.248 . S
C89 O90 1.264 . S
C89 O97 1.249 . S
O90 C89 1.264 . S
O91 Mg84 1.986 . S
O91 C95 1.246 . S
O92 Mg87 2.032 . S
O92 C95 1.259 . S
O93 Mg84 2.114 . S
O93 C96 1.252 . S
O94 Mg84 2.251 . S
O94 Mg87 2.079 . S
O94 C96 1.273 . S
C95 O91 1.246 . S
C95 O92 1.259 . S
C96 O93 1.252 . S
C96 O94 1.273 . S
O97 Mg84 2.010 . S
O97 C89 1.249 . S
Mg98 O99 2.028 . S
Mg98 O105 1.986 . S
Mg98 O107 2.114 . S
Mg98 O108 2.251 . S
Mg98 O111 2.010 . S
O99 Mg98 2.028 . S
O99 C102 1.250 . S
O100 Mg101 2.028 . S
O100 C102 1.248 . S
Mg101 O100 2.028 . S
Mg101 O106 2.032 . S
Mg101 O108 2.079 . S
C102 O99 1.250 . S
C102 O100 1.248 . S
C103 O104 1.264 . S
C103 O111 1.249 . S
O104 C103 1.264 . S
O105 Mg98 1.986 . S
O105 C109 1.246 . S
O106 Mg101 2.032 . S
O106 C109 1.259 . S
O107 Mg98 2.114 . S
O107 C110 1.252 . S
O108 Mg98 2.251 . S
O108 Mg101 2.079 . S
O108 C110 1.273 . S
C109 O105 1.246 . S
C109 O106 1.259 . S
C110 O107 1.252 . S
C110 O108 1.273 . S
O111 Mg98 2.010 . S
O111 C103 1.249 . S
Mg112 O113 2.028 . S
Mg112 O119 1.986 . S
Mg112 O121 2.114 . S
Mg112 O122 2.251 . S
Mg112 O125 2.010 . S
O113 Mg112 2.028 . S
O113 C116 1.250 . S
O114 Mg115 2.028 . S
O114 C116 1.248 . S
Mg115 O114 2.028 . S
Mg115 O120 2.032 . S
Mg115 O122 2.079 . S
C116 O113 1.250 . S
C116 O114 1.248 . S
C117 O118 1.264 . S
C117 O125 1.249 . S
O118 C117 1.264 . S
O119 Mg112 1.986 . S
O119 C123 1.246 . S
O120 Mg115 2.032 . S
O120 C123 1.259 . S
O121 Mg112 2.114 . S
O121 C124 1.252 . S
O122 Mg112 2.251 . S
O122 Mg115 2.079 . S
O122 C124 1.273 . S
C123 O119 1.246 . S
C123 O120 1.259 . S
C124 O121 1.252 . S
C124 O122 1.273 . S
O125 Mg112 2.010 . S
O125 C117 1.249 . S
Mg126 O127 2.028 . S
Mg126 O133 1.986 . S
Mg126 O135 2.114 . S
Mg126 O136 2.251 . S
Mg126 O139 2.010 . S
O127 Mg126 2.028 . S
O127 C130 1.250 . S
O128 Mg129 2.028 . S
O128 C130 1.248 . S
Mg129 O128 2.028 . S
Mg129 O134 2.032 . S
Mg129 O136 2.079 . S
C130 O127 1.250 . S
C130 O128 1.248 . S
C131 O132 1.264 . S
C131 O139 1.249 . S
O132 C131 1.264 . S
O133 Mg126 1.986 . S
O133 C137 1.246 . S
O134 Mg129 2.032 . S
O134 C137 1.259 . S
O135 Mg126 2.114 . S
O135 C138 1.252 . S
O136 Mg126 2.251 . S
O136 Mg129 2.079 . S
O136 C138 1.273 . S
C137 O133 1.246 . S
C137 O134 1.259 . S
C138 O135 1.252 . S
C138 O136 1.273 . S
O139 Mg126 2.010 . S
O139 C131 1.249 . S
Mg140 O141 2.028 . S
Mg140 O147 1.986 . S
Mg140 O149 2.114 . S
Mg140 O150 2.251 . S
Mg140 O153 2.010 . S
O141 Mg140 2.028 . S
O141 C144 1.250 . S
O142 Mg143 2.028 . S
O142 C144 1.248 . S
Mg143 O142 2.028 . S
Mg143 O148 2.032 . S
Mg143 O150 2.079 . S
C144 O141 1.250 . S
C144 O142 1.248 . S
C145 O146 1.264 . S
C145 O153 1.249 . S
O146 C145 1.264 . S
O147 Mg140 1.986 . S
O147 C151 1.246 . S
O148 Mg143 2.032 . S
O148 C151 1.259 . S
O149 Mg140 2.114 . S
O149 C152 1.252 . S
O150 Mg140 2.251 . S
O150 Mg143 2.079 . S
O150 C152 1.273 . S
C151 O147 1.246 . S
C151 O148 1.259 . S
C152 O149 1.252 . S
C152 O150 1.273 . S
O153 Mg140 2.010 . S
O153 C145 1.249 . S
Mg154 O155 2.028 . S
Mg154 O161 1.986 . S
Mg154 O163 2.114 . S
Mg154 O164 2.251 . S
Mg154 O167 2.010 . S
O155 Mg154 2.028 . S
O155 C158 1.250 . S
O156 Mg157 2.028 . S
O156 C158 1.248 . S
Mg157 O156 2.028 . S
Mg157 O162 2.032 . S
Mg157 O164 2.079 . S
C158 O155 1.250 . S
C158 O156 1.248 . S
C159 O160 1.264 . S
C159 O167 1.249 . S
O160 C159 1.264 . S
O161 Mg154 1.986 . S
O161 C165 1.246 . S
O162 Mg157 2.032 . S
O162 C165 1.259 . S
O163 Mg154 2.114 . S
O163 C166 1.252 . S
O164 Mg154 2.251 . S
O164 Mg157 2.079 . S
O164 C166 1.273 . S
C165 O161 1.246 . S
C165 O162 1.259 . S
C166 O163 1.252 . S
C166 O164 1.273 . S
O167 Mg154 2.010 . S
O167 C159 1.249 . S
H168 C186 0.951 . S
H169 C188 0.951 . S
H170 C190 0.950 . S
H171 C191 0.950 . S
H172 C193 0.950 . S
H173 C196 0.950 . S
H174 C197 0.950 . S
H175 C199 0.950 . S
H176 C200 0.950 . S
H177 C201 0.951 . S
H178 C203 0.951 . S
H179 C205 0.950 . S
H180 C206 0.950 . S
H181 C208 0.950 . S
H182 C211 0.950 . S
H183 C212 0.950 . S
H184 C214 0.950 . S
H185 C215 0.950 . S
C186 H168 0.951 . S
C186 C187 1.366 . S
C186 C188 1.388 . S
C187 C186 1.366 . S
C187 C191 1.385 . S
C188 H169 0.951 . S
C188 C186 1.388 . S
C188 C189 1.366 . S
C189 C188 1.366 . S
C189 C190 1.414 . S
C189 C192 1.499 . S
C190 H170 0.950 . S
C190 C189 1.414 . S
C190 C191 1.374 . S
C191 H171 0.950 . S
C191 C187 1.385 . S
C191 C190 1.374 . S
C192 C189 1.499 . S
C192 C193 1.373 . S
C192 C194 1.389 . S
C193 H172 0.950 . S
C193 C192 1.373 . S
C193 C209 1.377 . S
C194 C192 1.389 . S
C194 C195 1.524 . S
C194 C208 1.377 . S
C195 C194 1.524 . S
C195 C196 1.397 . S
C195 C200 1.363 . S
C196 H173 0.950 . S
C196 C195 1.397 . S
C196 C197 1.334 . S
C197 H174 0.950 . S
C197 C196 1.334 . S
C197 C198 1.287 . S
C198 C197 1.287 . S
C198 C199 1.524 . S
C198 H217 0.913 . S
C199 H175 0.950 . S
C199 C198 1.524 . S
C199 C200 1.415 . S
C200 H176 0.950 . S
C200 C195 1.363 . S
C200 C199 1.415 . S
C201 H177 0.951 . S
C201 C202 1.366 . S
C201 C203 1.388 . S
C202 C201 1.366 . S
C202 C206 1.385 . S
C203 H178 0.951 . S
C203 C201 1.388 . S
C203 C204 1.366 . S
C204 C203 1.366 . S
C204 C205 1.414 . S
C204 C207 1.499 . S
C205 H179 0.950 . S
C205 C204 1.414 . S
C205 C206 1.374 . S
C206 H180 0.950 . S
C206 C202 1.385 . S
C206 C205 1.374 . S
C207 C204 1.499 . S
C207 C208 1.373 . S
C207 C209 1.389 . S
C208 H181 0.950 . S
C208 C194 1.377 . S
C208 C207 1.373 . S
C209 C193 1.377 . S
C209 C207 1.389 . S
C209 C210 1.524 . S
C210 C209 1.524 . S
C210 C211 1.397 . S
C210 C215 1.363 . S
C211 H182 0.950 . S
C211 C210 1.397 . S
C211 C212 1.334 . S
C212 H183 0.950 . S
C212 C211 1.334 . S
C212 C213 1.287 . S
C213 C212 1.287 . S
C213 C214 1.524 . S
C213 H216 0.999 . S
C214 H184 0.950 . S
C214 C213 1.524 . S
C214 C215 1.415 . S
C215 H185 0.950 . S
C215 C210 1.363 . S
C215 C214 1.415 . S
H216 C213 0.999 . S
H217 C198 0.913 . S
H218 C236 0.951 . S
H219 C238 0.951 . S
H220 C240 0.950 . S
H221 C241 0.950 . S
H222 C243 0.950 . S
H223 C246 0.950 . S
H224 C247 0.950 . S
H225 C249 0.950 . S
H226 C250 0.950 . S
H227 C251 0.951 . S
H228 C253 0.951 . S
H229 C255 0.950 . S
H230 C256 0.950 . S
H231 C258 0.950 . S
H232 C261 0.950 . S
H233 C262 0.950 . S
H234 C264 0.950 . S
H235 C265 0.950 . S
C236 H218 0.951 . S
C236 C237 1.366 . S
C236 C238 1.388 . S
C237 C236 1.366 . S
C237 C241 1.385 . S
C238 H219 0.951 . S
C238 C236 1.388 . S
C238 C239 1.366 . S
C239 C238 1.366 . S
C239 C240 1.414 . S
C239 C242 1.499 . S
C240 H220 0.950 . S
C240 C239 1.414 . S
C240 C241 1.374 . S
C241 H221 0.950 . S
C241 C237 1.385 . S
C241 C240 1.374 . S
C242 C239 1.499 . S
C242 C243 1.373 . S
C242 C244 1.389 . S
C243 H222 0.950 . S
C243 C242 1.373 . S
C243 C259 1.377 . S
C244 C242 1.389 . S
C244 C245 1.524 . S
C244 C258 1.377 . S
C245 C244 1.524 . S
C245 C246 1.397 . S
C245 C250 1.363 . S
C246 H223 0.950 . S
C246 C245 1.397 . S
C246 C247 1.334 . S
C247 H224 0.950 . S
C247 C246 1.334 . S
C247 C248 1.287 . S
C248 C247 1.287 . S
C248 C249 1.524 . S
C248 H267 0.913 . S
C249 H225 0.950 . S
C249 C248 1.524 . S
C249 C250 1.415 . S
C250 H226 0.950 . S
C250 C245 1.363 . S
C250 C249 1.415 . S
C251 H227 0.951 . S
C251 C252 1.366 . S
C251 C253 1.388 . S
C252 C251 1.366 . S
C252 C256 1.385 . S
C253 H228 0.951 . S
C253 C251 1.388 . S
C253 C254 1.366 . S
C254 C253 1.366 . S
C254 C255 1.414 . S
C254 C257 1.499 . S
C255 H229 0.950 . S
C255 C254 1.414 . S
C255 C256 1.374 . S
C256 H230 0.950 . S
C256 C252 1.385 . S
C256 C255 1.374 . S
C257 C254 1.499 . S
C257 C258 1.373 . S
C257 C259 1.389 . S
C258 H231 0.950 . S
C258 C244 1.377 . S
C258 C257 1.373 . S
C259 C243 1.377 . S
C259 C257 1.389 . S
C259 C260 1.524 . S
C260 C259 1.524 . S
C260 C261 1.397 . S
C260 C265 1.363 . S
C261 H232 0.950 . S
C261 C260 1.397 . S
C261 C262 1.334 . S
C262 H233 0.950 . S
C262 C261 1.334 . S
C262 C263 1.287 . S
C263 C262 1.287 . S
C263 C264 1.524 . S
C263 H266 0.999 . S
C264 H234 0.950 . S
C264 C263 1.524 . S
C264 C265 1.415 . S
C265 H235 0.950 . S
C265 C260 1.363 . S
C265 C264 1.415 . S
H266 C263 0.999 . S
H267 C248 0.913 . S
H268 C286 0.951 . S
H269 C288 0.951 . S
H270 C290 0.950 . S
H271 C291 0.950 . S
H272 C293 0.950 . S
H273 C296 0.950 . S
H274 C297 0.950 . S
H275 C299 0.950 . S
H276 C300 0.950 . S
H277 C301 0.951 . S
H278 C303 0.951 . S
H279 C305 0.950 . S
H280 C306 0.950 . S
H281 C308 0.950 . S
H282 C311 0.950 . S
H283 C312 0.950 . S
H284 C314 0.950 . S
H285 C315 0.950 . S
C286 H268 0.951 . S
C286 C287 1.366 . S
C286 C288 1.388 . S
C287 C286 1.366 . S
C287 C291 1.385 . S
C288 H269 0.951 . S
C288 C286 1.388 . S
C288 C289 1.366 . S
C289 C288 1.366 . S
C289 C290 1.414 . S
C289 C292 1.499 . S
C290 H270 0.950 . S
C290 C289 1.414 . S
C290 C291 1.374 . S
C291 H271 0.950 . S
C291 C287 1.385 . S
C291 C290 1.374 . S
C292 C289 1.499 . S
C292 C293 1.373 . S
C292 C294 1.389 . S
C293 H272 0.950 . S
C293 C292 1.373 . S
C293 C309 1.377 . S
C294 C292 1.389 . S
C294 C295 1.524 . S
C294 C308 1.377 . S
C295 C294 1.524 . S
C295 C296 1.397 . S
C295 C300 1.363 . S
C296 H273 0.950 . S
C296 C295 1.397 . S
C296 C297 1.334 . S
C297 H274 0.950 . S
C297 C296 1.334 . S
C297 C298 1.287 . S
C298 C297 1.287 . S
C298 C299 1.524 . S
C298 H317 0.913 . S
C299 H275 0.950 . S
C299 C298 1.524 . S
C299 C300 1.415 . S
C300 H276 0.950 . S
C300 C295 1.363 . S
C300 C299 1.415 . S
C301 H277 0.951 . S
C301 C302 1.366 . S
C301 C303 1.388 . S
C302 C301 1.366 . S
C302 C306 1.385 . S
C303 H278 0.951 . S
C303 C301 1.388 . S
C303 C304 1.366 . S
C304 C303 1.366 . S
C304 C305 1.414 . S
C304 C307 1.499 . S
C305 H279 0.950 . S
C305 C304 1.414 . S
C305 C306 1.374 . S
C306 H280 0.950 . S
C306 C302 1.385 . S
C306 C305 1.374 . S
C307 C304 1.499 . S
C307 C308 1.373 . S
C307 C309 1.389 . S
C308 H281 0.950 . S
C308 C294 1.377 . S
C308 C307 1.373 . S
C309 C293 1.377 . S
C309 C307 1.389 . S
C309 C310 1.524 . S
C310 C309 1.524 . S
C310 C311 1.397 . S
C310 C315 1.363 . S
C311 H282 0.950 . S
C311 C310 1.397 . S
C311 C312 1.334 . S
C312 H283 0.950 . S
C312 C311 1.334 . S
C312 C313 1.287 . S
C313 C312 1.287 . S
C313 C314 1.524 . S
C313 H316 0.999 . S
C314 H284 0.950 . S
C314 C313 1.524 . S
C314 C315 1.415 . S
C315 H285 0.950 . S
C315 C310 1.363 . S
C315 C314 1.415 . S
H316 C313 0.999 . S
H317 C298 0.913 . S
H318 C336 0.951 . S
H319 C338 0.951 . S
H320 C340 0.950 . S
H321 C341 0.950 . S
H322 C343 0.950 . S
H323 C346 0.950 . S
H324 C347 0.950 . S
H325 C349 0.950 . S
H326 C350 0.950 . S
H327 C351 0.951 1_554 S
H328 C353 0.951 . S
H329 C355 0.950 . S
H330 C356 0.950 . S
H331 C358 0.950 . S
H332 C361 0.950 . S
H333 C362 0.950 . S
H334 C364 0.950 . S
H335 C365 0.950 . S
C336 H318 0.951 . S
C336 C337 1.366 . S
C336 C338 1.388 . S
C337 C336 1.366 . S
C337 C341 1.385 . S
C338 H319 0.951 . S
C338 C336 1.388 . S
C338 C339 1.366 . S
C339 C338 1.366 . S
C339 C340 1.414 . S
C339 C342 1.499 . S
C340 H320 0.950 . S
C340 C339 1.414 . S
C340 C341 1.374 . S
C341 H321 0.950 . S
C341 C337 1.385 . S
C341 C340 1.374 . S
C342 C339 1.499 . S
C342 C343 1.373 . S
C342 C344 1.389 . S
C343 H322 0.950 . S
C343 C342 1.373 . S
C343 C359 1.377 . S
C344 C342 1.389 . S
C344 C345 1.524 . S
C344 C358 1.377 . S
C345 C344 1.524 . S
C345 C346 1.397 . S
C345 C350 1.363 . S
C346 H323 0.950 . S
C346 C345 1.397 . S
C346 C347 1.334 . S
C347 H324 0.950 . S
C347 C346 1.334 . S
C347 C348 1.287 . S
C348 C347 1.287 . S
C348 C349 1.524 . S
C348 H367 0.913 . S
C349 H325 0.950 . S
C349 C348 1.524 . S
C349 C350 1.415 . S
C350 H326 0.950 . S
C350 C345 1.363 . S
C350 C349 1.415 . S
C351 H327 0.951 1_556 S
C351 C352 1.366 . S
C351 C353 1.388 . S
C352 C351 1.366 . S
C352 C356 1.385 . S
C353 H328 0.951 . S
C353 C351 1.388 . S
C353 C354 1.366 . S
C354 C353 1.366 . S
C354 C355 1.414 . S
C354 C357 1.499 . S
C355 H329 0.950 . S
C355 C354 1.414 . S
C355 C356 1.374 . S
C356 H330 0.950 . S
C356 C352 1.385 . S
C356 C355 1.374 . S
C357 C354 1.499 . S
C357 C358 1.373 . S
C357 C359 1.389 . S
C358 H331 0.950 . S
C358 C344 1.377 . S
C358 C357 1.373 . S
C359 C343 1.377 . S
C359 C357 1.389 . S
C359 C360 1.524 . S
C360 C359 1.524 . S
C360 C361 1.397 . S
C360 C365 1.363 . S
C361 H332 0.950 . S
C361 C360 1.397 . S
C361 C362 1.334 . S
C362 H333 0.950 . S
C362 C361 1.334 . S
C362 C363 1.287 . S
C363 C362 1.287 . S
C363 C364 1.524 . S
C363 H366 0.999 . S
C364 H334 0.950 . S
C364 C363 1.524 . S
C364 C365 1.415 . S
C365 H335 0.950 . S
C365 C360 1.363 . S
C365 C364 1.415 . S
H366 C363 0.999 . S
H367 C348 0.913 . S
H368 C386 0.951 . S
H369 C388 0.951 . S
H370 C390 0.950 . S
H371 C391 0.950 . S
H372 C393 0.950 . S
H373 C396 0.950 . S
H374 C397 0.950 . S
H375 C399 0.950 . S
H376 C400 0.950 . S
H377 C401 0.951 . S
H378 C403 0.951 . S
H379 C405 0.950 . S
H380 C406 0.950 . S
H381 C408 0.950 . S
H382 C411 0.950 . S
H383 C412 0.950 . S
H384 C414 0.950 . S
H385 C415 0.950 . S
C386 H368 0.951 . S
C386 C387 1.366 . S
C386 C388 1.388 . S
C387 C386 1.366 . S
C387 C391 1.385 . S
C388 H369 0.951 . S
C388 C386 1.388 . S
C388 C389 1.366 . S
C389 C388 1.366 . S
C389 C390 1.414 . S
C389 C392 1.499 . S
C390 H370 0.950 . S
C390 C389 1.414 . S
C390 C391 1.374 . S
C391 H371 0.950 . S
C391 C387 1.385 . S
C391 C390 1.374 . S
C392 C389 1.499 . S
C392 C393 1.373 . S
C392 C394 1.389 1_554 S
C393 H372 0.950 . S
C393 C392 1.373 . S
C393 C409 1.377 1_554 S
C394 C392 1.389 1_556 S
C394 C395 1.524 . S
C394 C408 1.377 . S
C395 C394 1.524 . S
C395 C396 1.397 1_556 S
C395 C400 1.363 . S
C396 H373 0.950 . S
C396 C395 1.397 1_554 S
C396 C397 1.334 . S
C397 H374 0.950 . S
C397 C396 1.334 . S
C397 C398 1.287 1_554 S
C398 C397 1.287 1_556 S
C398 C399 1.524 . S
C398 H417 0.913 . S
C399 H375 0.950 . S
C399 C398 1.524 . S
C399 C400 1.415 . S
C400 H376 0.950 . S
C400 C395 1.363 . S
C400 C399 1.415 . S
C401 H377 0.951 . S
C401 C402 1.366 . S
C401 C403 1.388 . S
C402 C401 1.366 . S
C402 C406 1.385 . S
C403 H378 0.951 . S
C403 C401 1.388 . S
C403 C404 1.366 . S
C404 C403 1.366 . S
C404 C405 1.414 . S
C404 C407 1.499 . S
C405 H379 0.950 . S
C405 C404 1.414 . S
C405 C406 1.374 . S
C406 H380 0.950 . S
C406 C402 1.385 . S
C406 C405 1.374 . S
C407 C404 1.499 . S
C407 C408 1.373 . S
C407 C409 1.389 . S
C408 H381 0.950 . S
C408 C394 1.377 . S
C408 C407 1.373 . S
C409 C393 1.377 1_556 S
C409 C407 1.389 . S
C409 C410 1.528 . S
C410 C409 1.528 . S
C410 C411 1.414 . S
C410 C415 1.342 1_556 S
C411 H382 0.950 . S
C411 C410 1.414 . S
C411 C412 1.334 . S
C412 H383 0.950 . S
C412 C411 1.334 . S
C412 C413 1.287 1_556 S
C413 C412 1.287 1_554 S
C413 C414 1.524 . S
C413 H416 0.999 . S
C414 H384 0.950 . S
C414 C413 1.524 . S
C414 C415 1.415 . S
C415 H385 0.950 . S
C415 C410 1.342 1_554 S
C415 C414 1.415 . S
H416 C413 0.999 . S
H417 C398 0.913 . S
H418 C436 0.951 . S
H419 C438 0.951 . S
H420 C440 0.950 . S
H421 C441 0.950 . S
H422 C443 0.950 . S
H423 C446 0.950 . S
H424 C447 0.950 . S
H425 C449 0.950 . S
H426 C450 0.950 . S
H427 C451 0.951 . S
H428 C453 0.951 . S
H429 C455 0.950 . S
H430 C456 0.950 . S
H431 C458 0.950 . S
H432 C461 0.950 . S
H433 C462 0.950 . S
H434 C464 0.950 . S
H435 C465 0.950 . S
C436 H418 0.951 . S
C436 C437 1.366 . S
C436 C438 1.388 . S
C437 C436 1.366 . S
C437 C441 1.385 . S
C438 H419 0.951 . S
C438 C436 1.388 . S
C438 C439 1.366 . S
C439 C438 1.366 . S
C439 C440 1.414 . S
C439 C442 1.499 . S
C440 H420 0.950 . S
C440 C439 1.414 . S
C440 C441 1.374 . S
C441 H421 0.950 . S
C441 C437 1.385 . S
C441 C440 1.374 . S
C442 C439 1.499 . S
C442 C443 1.373 . S
C442 C444 1.389 . S
C443 H422 0.950 . S
C443 C442 1.373 . S
C443 C459 1.377 . S
C444 C442 1.389 . S
C444 C445 1.524 . S
C444 C458 1.377 . S
C445 C444 1.524 . S
C445 C446 1.397 . S
C445 C450 1.363 . S
C446 H423 0.950 . S
C446 C445 1.397 . S
C446 C447 1.334 . S
C447 H424 0.950 . S
C447 C446 1.334 . S
C447 C448 1.287 . S
C448 C447 1.287 . S
C448 C449 1.524 . S
C448 H467 0.913 . S
C449 H425 0.950 . S
C449 C448 1.524 . S
C449 C450 1.415 . S
C450 H426 0.950 . S
C450 C445 1.363 . S
C450 C449 1.415 . S
C451 H427 0.951 . S
C451 C452 1.366 . S
C451 C453 1.388 . S
C452 C451 1.366 . S
C452 C456 1.385 . S
C453 H428 0.951 . S
C453 C451 1.388 . S
C453 C454 1.366 . S
C454 C453 1.366 . S
C454 C455 1.414 . S
C454 C457 1.499 . S
C455 H429 0.950 . S
C455 C454 1.414 . S
C455 C456 1.374 . S
C456 H430 0.950 . S
C456 C452 1.385 . S
C456 C455 1.374 . S
C457 C454 1.499 . S
C457 C458 1.373 . S
C457 C459 1.389 . S
C458 H431 0.950 . S
C458 C444 1.377 . S
C458 C457 1.373 . S
C459 C443 1.377 . S
C459 C457 1.389 . S
C459 C460 1.524 . S
C460 C459 1.524 . S
C460 C461 1.397 . S
C460 C465 1.363 . S
C461 H432 0.950 . S
C461 C460 1.397 . S
C461 C462 1.334 . S
C462 H433 0.950 . S
C462 C461 1.334 . S
C462 C463 1.287 . S
C463 C462 1.287 . S
C463 C464 1.524 . S
C463 H466 0.999 . S
C464 H434 0.950 . S
C464 C463 1.524 . S
C464 C465 1.415 . S
C465 H435 0.950 . S
C465 C460 1.363 . S
C465 C464 1.415 . S
H466 C463 0.999 . S
H467 C448 0.913 . S
H468 C486 0.951 . S
H469 C488 0.951 . S
H470 C490 0.950 . S
H471 C491 0.950 . S
H472 C493 0.950 . S
H473 C496 0.950 . S
H474 C497 0.950 . S
H475 C499 0.950 . S
H476 C500 0.950 . S
H477 C501 0.951 . S
H478 C503 0.951 . S
H479 C505 0.950 . S
H480 C506 0.950 . S
H481 C508 0.950 . S
H482 C511 0.950 . S
H483 C512 0.950 . S
H484 C514 0.950 . S
H485 C515 0.950 . S
C486 H468 0.951 . S
C486 C487 1.366 . S
C486 C488 1.388 . S
C487 C486 1.366 . S
C487 C491 1.385 . S
C488 H469 0.951 . S
C488 C486 1.388 . S
C488 C489 1.366 . S
C489 C488 1.366 . S
C489 C490 1.414 . S
C489 C492 1.499 . S
C490 H470 0.950 . S
C490 C489 1.414 . S
C490 C491 1.374 . S
C491 H471 0.950 . S
C491 C487 1.385 . S
C491 C490 1.374 . S
C492 C489 1.499 . S
C492 C493 1.373 . S
C492 C494 1.389 . S
C493 H472 0.950 . S
C493 C492 1.373 . S
C493 C509 1.377 . S
C494 C492 1.389 . S
C494 C495 1.524 . S
C494 C508 1.377 . S
C495 C494 1.524 . S
C495 C496 1.397 . S
C495 C500 1.363 . S
C496 H473 0.950 . S
C496 C495 1.397 . S
C496 C497 1.334 . S
C497 H474 0.950 . S
C497 C496 1.334 . S
C497 C498 1.287 . S
C498 C497 1.287 . S
C498 C499 1.524 . S
C498 H517 0.913 . S
C499 H475 0.950 . S
C499 C498 1.524 . S
C499 C500 1.415 . S
C500 H476 0.950 . S
C500 C495 1.363 . S
C500 C499 1.415 . S
C501 H477 0.951 . S
C501 C502 1.366 . S
C501 C503 1.388 . S
C502 C501 1.366 . S
C502 C506 1.385 . S
C503 H478 0.951 . S
C503 C501 1.388 . S
C503 C504 1.366 . S
C504 C503 1.366 . S
C504 C505 1.414 . S
C504 C507 1.499 . S
C505 H479 0.950 . S
C505 C504 1.414 . S
C505 C506 1.374 . S
C506 H480 0.950 . S
C506 C502 1.385 . S
C506 C505 1.374 . S
C507 C504 1.499 . S
C507 C508 1.373 . S
C507 C509 1.389 . S
C508 H481 0.950 . S
C508 C494 1.377 . S
C508 C507 1.373 . S
C509 C493 1.377 . S
C509 C507 1.389 . S
C509 C510 1.524 . S
C510 C509 1.524 . S
C510 C511 1.397 . S
C510 C515 1.363 . S
C511 H482 0.950 . S
C511 C510 1.397 . S
C511 C512 1.334 . S
C512 H483 0.950 . S
C512 C511 1.334 . S
C512 C513 1.298 . S
C513 C512 1.298 . S
C513 C514 1.523 1_554 S
C513 H516 0.987 1_554 S
C514 H484 0.950 . S
C514 C513 1.523 1_556 S
C514 C515 1.415 1_556 S
C515 H485 0.950 . S
C515 C510 1.363 . S
C515 C514 1.415 1_554 S
H516 C513 0.987 1_556 S
H517 C498 0.913 . S
H518 C536 0.951 . S
H519 C538 0.951 . S
H520 C540 0.950 . S
H521 C541 0.950 . S
H522 C543 0.950 . S
H523 C546 0.950 . S
H524 C547 0.950 . S
H525 C549 0.950 . S
H526 C550 0.950 . S
H527 C551 0.951 . S
H528 C553 0.951 . S
H529 C555 0.950 . S
H530 C556 0.950 . S
H531 C558 0.950 . S
H532 C561 0.950 . S
H533 C562 0.950 . S
H534 C564 0.950 . S
H535 C565 0.950 . S
C536 H518 0.951 . S
C536 C537 1.366 . S
C536 C538 1.388 . S
C537 C536 1.366 . S
C537 C541 1.385 . S
C538 H519 0.951 . S
C538 C536 1.388 . S
C538 C539 1.366 . S
C539 C538 1.366 . S
C539 C540 1.414 . S
C539 C542 1.499 . S
C540 H520 0.950 . S
C540 C539 1.414 . S
C540 C541 1.374 . S
C541 H521 0.950 . S
C541 C537 1.385 . S
C541 C540 1.374 . S
C542 C539 1.499 . S
C542 C543 1.373 . S
C542 C544 1.389 . S
C543 H522 0.950 . S
C543 C542 1.373 . S
C543 C559 1.377 . S
C544 C542 1.389 . S
C544 C545 1.524 . S
C544 C558 1.377 . S
C545 C544 1.524 . S
C545 C546 1.397 . S
C545 C550 1.363 . S
C546 H523 0.950 . S
C546 C545 1.397 . S
C546 C547 1.334 . S
C547 H524 0.950 . S
C547 C546 1.334 . S
C547 C548 1.287 . S
C548 C547 1.287 . S
C548 C549 1.524 . S
C548 H567 0.913 . S
C549 H525 0.950 . S
C549 C548 1.524 . S
C549 C550 1.415 . S
C550 H526 0.950 . S
C550 C545 1.363 . S
C550 C549 1.415 . S
C551 H527 0.951 . S
C551 C552 1.366 . S
C551 C553 1.388 . S
C552 C551 1.366 . S
C552 C556 1.385 . S
C553 H528 0.951 . S
C553 C551 1.388 . S
C553 C554 1.366 . S
C554 C553 1.366 . S
C554 C555 1.414 . S
C554 C557 1.499 . S
C555 H529 0.950 . S
C555 C554 1.414 . S
C555 C556 1.374 . S
C556 H530 0.950 . S
C556 C552 1.385 . S
C556 C555 1.374 . S
C557 C554 1.499 . S
C557 C558 1.373 . S
C557 C559 1.389 . S
C558 H531 0.950 . S
C558 C544 1.377 . S
C558 C557 1.373 . S
C559 C543 1.377 . S
C559 C557 1.389 . S
C559 C560 1.524 . S
C560 C559 1.524 . S
C560 C561 1.397 . S
C560 C565 1.363 . S
C561 H532 0.950 . S
C561 C560 1.397 . S
C561 C562 1.334 . S
C562 H533 0.950 . S
C562 C561 1.334 . S
C562 C563 1.287 . S
C563 C562 1.287 . S
C563 C564 1.524 . S
C563 H566 0.999 . S
C564 H534 0.950 . S
C564 C563 1.524 . S
C564 C565 1.415 . S
C565 H535 0.950 . S
C565 C560 1.363 . S
C565 C564 1.415 . S
H566 C563 0.999 . S
H567 C548 0.913 . S
H568 C586 0.951 . S
H569 C588 0.951 . S
H570 C590 0.950 . S
H571 C591 0.950 . S
H572 C593 0.950 . S
H573 C596 0.950 . S
H574 C597 0.950 . S
H575 C599 0.950 . S
H576 C600 0.950 . S
H577 C601 0.951 . S
H578 C603 0.951 . S
H579 C605 0.950 . S
H580 C606 0.950 . S
H581 C608 0.950 . S
H582 C611 0.950 . S
H583 C612 0.950 . S
H584 C614 0.950 . S
H585 C615 0.950 . S
C586 H568 0.951 . S
C586 C587 1.366 . S
C586 C588 1.388 . S
C587 C586 1.366 . S
C587 C591 1.385 . S
C588 H569 0.951 . S
C588 C586 1.388 . S
C588 C589 1.366 . S
C589 C588 1.366 . S
C589 C590 1.414 . S
C589 C592 1.499 . S
C590 H570 0.950 . S
C590 C589 1.414 . S
C590 C591 1.374 . S
C591 H571 0.950 . S
C591 C587 1.385 . S
C591 C590 1.374 . S
C592 C589 1.499 . S
C592 C593 1.373 . S
C592 C594 1.389 . S
C593 H572 0.950 . S
C593 C592 1.373 . S
C593 C609 1.377 . S
C594 C592 1.389 . S
C594 C595 1.524 . S
C594 C608 1.377 . S
C595 C594 1.524 . S
C595 C596 1.397 . S
C595 C600 1.363 . S
C596 H573 0.950 . S
C596 C595 1.397 . S
C596 C597 1.334 . S
C597 H574 0.950 . S
C597 C596 1.334 . S
C597 C598 1.287 . S
C598 C597 1.287 . S
C598 C599 1.524 . S
C598 H617 0.913 . S
C599 H575 0.950 . S
C599 C598 1.524 . S
C599 C600 1.415 . S
C600 H576 0.950 . S
C600 C595 1.363 . S
C600 C599 1.415 . S
C601 H577 0.951 . S
C601 C602 1.366 . S
C601 C603 1.388 . S
C602 C601 1.366 . S
C602 C606 1.385 . S
C603 H578 0.951 . S
C603 C601 1.388 . S
C603 C604 1.366 . S
C604 C603 1.366 . S
C604 C605 1.414 . S
C604 C607 1.499 . S
C605 H579 0.950 . S
C605 C604 1.414 . S
C605 C606 1.374 . S
C606 H580 0.950 . S
C606 C602 1.385 . S
C606 C605 1.374 . S
C607 C604 1.499 . S
C607 C608 1.373 . S
C607 C609 1.389 . S
C608 H581 0.950 . S
C608 C594 1.377 . S
C608 C607 1.373 . S
C609 C593 1.377 . S
C609 C607 1.389 . S
C609 C610 1.524 . S
C610 C609 1.524 . S
C610 C611 1.397 . S
C610 C615 1.363 . S
C611 H582 0.950 . S
C611 C610 1.397 . S
C611 C612 1.334 . S
C612 H583 0.950 . S
C612 C611 1.334 . S
C612 C613 1.287 . S
C613 C612 1.287 . S
C613 C614 1.524 . S
C613 H616 0.999 . S
C614 H584 0.950 . S
C614 C613 1.524 . S
C614 C615 1.415 . S
C615 H585 0.950 . S
C615 C610 1.363 . S
C615 C614 1.415 . S
H616 C613 0.999 . S
H617 C598 0.913 . S
H618 C636 0.951 . S
H619 C638 0.951 . S
H620 C640 0.950 . S
H621 C641 0.950 . S
H622 C643 0.950 . S
H623 C646 0.950 . S
H624 C647 0.950 . S
H625 C649 0.950 . S
H626 C650 0.950 . S
H627 C651 0.951 . S
H628 C653 0.951 . S
H629 C655 0.950 . S
H630 C656 0.950 . S
H631 C658 0.950 . S
H632 C661 0.950 . S
H633 C662 0.950 . S
H634 C664 0.950 . S
H635 C665 0.950 . S
C636 H618 0.951 . S
C636 C637 1.366 . S
C636 C638 1.388 . S
C637 C636 1.366 . S
C637 C641 1.385 . S
C638 H619 0.951 . S
C638 C636 1.388 . S
C638 C639 1.366 . S
C639 C638 1.366 . S
C639 C640 1.414 . S
C639 C642 1.499 . S
C640 H620 0.950 . S
C640 C639 1.414 . S
C640 C641 1.374 . S
C641 H621 0.950 . S
C641 C637 1.385 . S
C641 C640 1.374 . S
C642 C639 1.499 . S
C642 C643 1.373 . S
C642 C644 1.389 . S
C643 H622 0.950 . S
C643 C642 1.373 . S
C643 C659 1.377 . S
C644 C642 1.389 . S
C644 C645 1.524 . S
C644 C658 1.377 . S
C645 C644 1.524 . S
C645 C646 1.397 . S
C645 C650 1.363 . S
C646 H623 0.950 . S
C646 C645 1.397 . S
C646 C647 1.334 . S
C647 H624 0.950 . S
C647 C646 1.334 . S
C647 C648 1.287 . S
C648 C647 1.287 . S
C648 C649 1.524 . S
C648 H667 0.913 . S
C649 H625 0.950 . S
C649 C648 1.524 . S
C649 C650 1.415 . S
C650 H626 0.950 . S
C650 C645 1.363 . S
C650 C649 1.415 . S
C651 H627 0.951 . S
C651 C652 1.366 . S
C651 C653 1.388 . S
C652 C651 1.366 . S
C652 C656 1.385 . S
C653 H628 0.951 . S
C653 C651 1.388 . S
C653 C654 1.366 . S
C654 C653 1.366 . S
C654 C655 1.414 . S
C654 C657 1.499 . S
C655 H629 0.950 . S
C655 C654 1.414 . S
C655 C656 1.374 . S
C656 H630 0.950 . S
C656 C652 1.385 . S
C656 C655 1.374 . S
C657 C654 1.499 . S
C657 C658 1.373 . S
C657 C659 1.389 . S
C658 H631 0.950 . S
C658 C644 1.377 . S
C658 C657 1.373 . S
C659 C643 1.377 . S
C659 C657 1.389 . S
C659 C660 1.524 . S
C660 C659 1.524 . S
C660 C661 1.397 . S
C660 C665 1.363 . S
C661 H632 0.950 . S
C661 C660 1.397 . S
C661 C662 1.334 . S
C662 H633 0.950 . S
C662 C661 1.334 . S
C662 C663 1.287 . S
C663 C662 1.287 . S
C663 C664 1.524 . S
C663 H666 0.999 . S
C664 H634 0.950 . S
C664 C663 1.524 . S
C664 C665 1.415 . S
C665 H635 0.950 . S
C665 C660 1.363 . S
C665 C664 1.415 . S
H666 C663 0.999 . S
H667 C648 0.913 . S
H668 C686 0.951 . S
H669 C688 0.951 . S
H670 C690 0.950 . S
H671 C691 0.950 . S
H672 C693 0.950 . S
H673 C696 0.950 . S
H674 C697 0.950 . S
H675 C699 0.950 . S
H676 C700 0.950 . S
H677 C701 0.951 . S
H678 C703 0.951 . S
H679 C705 0.950 . S
H680 C706 0.950 . S
H681 C708 0.950 . S
H682 C711 0.950 . S
H683 C712 0.950 . S
H684 C714 0.950 . S
H685 C715 0.950 . S
C686 H668 0.951 . S
C686 C687 1.366 . S
C686 C688 1.388 . S
C687 C686 1.366 . S
C687 C691 1.385 . S
C688 H669 0.951 . S
C688 C686 1.388 . S
C688 C689 1.366 . S
C689 C688 1.366 . S
C689 C690 1.414 . S
C689 C692 1.499 . S
C690 H670 0.950 . S
C690 C689 1.414 . S
C690 C691 1.374 . S
C691 H671 0.950 . S
C691 C687 1.385 . S
C691 C690 1.374 . S
C692 C689 1.499 . S
C692 C693 1.373 . S
C692 C694 1.389 . S
C693 H672 0.950 . S
C693 C692 1.373 . S
C693 C709 1.377 . S
C694 C692 1.389 . S
C694 C695 1.524 . S
C694 C708 1.377 . S
C695 C694 1.524 . S
C695 C696 1.397 . S
C695 C700 1.363 . S
C696 H673 0.950 . S
C696 C695 1.397 . S
C696 C697 1.334 . S
C697 H674 0.950 . S
C697 C696 1.334 . S
C697 C698 1.287 . S
C698 C697 1.287 . S
C698 C699 1.524 . S
C698 H717 0.913 . S
C699 H675 0.950 . S
C699 C698 1.524 . S
C699 C700 1.415 . S
C700 H676 0.950 . S
C700 C695 1.363 . S
C700 C699 1.415 . S
C701 H677 0.951 . S
C701 C702 1.366 . S
C701 C703 1.388 . S
C702 C701 1.366 . S
C702 C706 1.385 . S
C703 H678 0.951 . S
C703 C701 1.388 . S
C703 C704 1.366 . S
C704 C703 1.366 . S
C704 C705 1.414 . S
C704 C707 1.499 . S
C705 H679 0.950 . S
C705 C704 1.414 . S
C705 C706 1.374 . S
C706 H680 0.950 . S
C706 C702 1.385 . S
C706 C705 1.374 . S
C707 C704 1.499 . S
C707 C708 1.373 . S
C707 C709 1.389 . S
C708 H681 0.950 . S
C708 C694 1.377 . S
C708 C707 1.373 . S
C709 C693 1.377 . S
C709 C707 1.389 . S
C709 C710 1.524 . S
C710 C709 1.524 . S
C710 C711 1.397 . S
C710 C715 1.363 . S
C711 H682 0.950 . S
C711 C710 1.397 . S
C711 C712 1.334 . S
C712 H683 0.950 . S
C712 C711 1.334 . S
C712 C713 1.287 . S
C713 C712 1.287 . S
C713 C714 1.524 . S
C713 H716 0.999 . S
C714 H684 0.950 . S
C714 C713 1.524 . S
C714 C715 1.415 . S
C715 H685 0.950 . S
C715 C710 1.363 . S
C715 C714 1.415 . S
H716 C713 0.999 . S
H717 C698 0.913 . S
H718 C736 0.951 . S
H719 C738 0.951 . S
H720 C740 0.950 . S
H721 C741 0.950 . S
H722 C743 0.950 . S
H723 C746 0.950 . S
H724 C747 0.950 . S
H725 C749 0.950 . S
H726 C750 0.950 . S
H727 C751 0.951 . S
H728 C753 0.951 1_556 S
H729 C755 0.950 . S
H730 C756 0.950 . S
H731 C758 0.950 . S
H732 C761 0.950 . S
H733 C762 0.950 . S
H734 C764 0.950 . S
H735 C765 0.950 1_556 S
C736 H718 0.951 . S
C736 C737 1.366 . S
C736 C738 1.388 . S
C737 C736 1.366 . S
C737 C741 1.385 . S
C738 H719 0.951 . S
C738 C736 1.388 . S
C738 C739 1.366 . S
C739 C738 1.366 . S
C739 C740 1.414 . S
C739 C742 1.499 . S
C740 H720 0.950 . S
C740 C739 1.414 . S
C740 C741 1.374 . S
C741 H721 0.950 . S
C741 C737 1.385 . S
C741 C740 1.374 . S
C742 C739 1.499 . S
C742 C743 1.373 . S
C742 C744 1.389 . S
C743 H722 0.950 . S
C743 C742 1.373 . S
C743 C759 1.377 1_556 S
C744 C742 1.389 . S
C744 C745 1.524 . S
C744 C758 1.377 . S
C745 C744 1.524 . S
C745 C746 1.397 . S
C745 C750 1.363 . S
C746 H723 0.950 . S
C746 C745 1.397 . S
C746 C747 1.334 . S
C747 H724 0.950 . S
C747 C746 1.334 . S
C747 C748 1.287 . S
C748 C747 1.287 . S
C748 C749 1.524 . S
C748 H767 0.913 . S
C749 H725 0.950 . S
C749 C748 1.524 . S
C749 C750 1.415 . S
C750 H726 0.950 . S
C750 C745 1.363 . S
C750 C749 1.415 . S
C751 H727 0.951 . S
C751 C752 1.366 . S
C751 C753 1.388 . S
C752 C751 1.366 . S
C752 C756 1.385 . S
C753 H728 0.951 1_554 S
C753 C751 1.388 . S
C753 C754 1.366 . S
C754 C753 1.366 . S
C754 C755 1.414 . S
C754 C757 1.499 . S
C755 H729 0.950 . S
C755 C754 1.414 . S
C755 C756 1.374 . S
C756 H730 0.950 . S
C756 C752 1.385 . S
C756 C755 1.374 . S
C757 C754 1.499 . S
C757 C758 1.373 1_554 S
C757 C759 1.389 . S
C758 H731 0.950 . S
C758 C744 1.377 . S
C758 C757 1.373 1_556 S
C759 C743 1.377 1_554 S
C759 C757 1.389 . S
C759 C760 1.524 . S
C760 C759 1.524 . S
C760 C761 1.397 . S
C760 C765 1.363 . S
C761 H732 0.950 . S
C761 C760 1.397 . S
C761 C762 1.334 . S
C762 H733 0.950 . S
C762 C761 1.334 . S
C762 C763 1.287 . S
C763 C762 1.287 . S
C763 C764 1.524 . S
C763 H766 0.999 . S
C764 H734 0.950 . S
C764 C763 1.524 . S
C764 C765 1.415 . S
C765 H735 0.950 1_554 S
C765 C760 1.363 . S
C765 C764 1.415 . S
H766 C763 0.999 . S
H767 C748 0.913 . S
H768 C786 0.951 . S
H769 C788 0.951 . S
H770 C790 0.950 . S
H771 C791 0.950 . S
H772 C793 0.950 . S
H773 C796 0.950 . S
H774 C797 0.950 . S
H775 C799 0.950 . S
H776 C800 0.950 . S
H777 C801 0.951 1_554 S
H778 C803 0.951 . S
H779 C805 0.950 . S
H780 C806 0.950 . S
H781 C808 0.950 . S
H782 C811 0.950 . S
H783 C812 0.950 . S
H784 C814 0.950 . S
H785 C815 0.950 . S
C786 H768 0.951 . S
C786 C787 1.366 . S
C786 C788 1.388 . S
C787 C786 1.366 . S
C787 C791 1.385 . S
C788 H769 0.951 . S
C788 C786 1.388 . S
C788 C789 1.366 . S
C789 C788 1.366 . S
C789 C790 1.414 . S
C789 C792 1.499 . S
C790 H770 0.950 . S
C790 C789 1.414 . S
C790 C791 1.374 . S
C791 H771 0.950 . S
C791 C787 1.385 . S
C791 C790 1.374 . S
C792 C789 1.499 . S
C792 C793 1.373 . S
C792 C794 1.389 . S
C793 H772 0.950 . S
C793 C792 1.373 . S
C793 C809 1.377 . S
C794 C792 1.389 . S
C794 C795 1.524 . S
C794 C808 1.377 . S
C795 C794 1.524 . S
C795 C796 1.397 . S
C795 C800 1.363 . S
C796 H773 0.950 . S
C796 C795 1.397 . S
C796 C797 1.334 . S
C797 H774 0.950 . S
C797 C796 1.334 . S
C797 C798 1.287 . S
C798 C797 1.287 . S
C798 C799 1.524 . S
C798 H817 0.913 . S
C799 H775 0.950 . S
C799 C798 1.524 . S
C799 C800 1.415 . S
C800 H776 0.950 . S
C800 C795 1.363 . S
C800 C799 1.415 . S
C801 H777 0.951 1_556 S
C801 C802 1.366 . S
C801 C803 1.388 . S
C802 C801 1.366 . S
C802 C806 1.385 . S
C803 H778 0.951 . S
C803 C801 1.388 . S
C803 C804 1.366 . S
C804 C803 1.366 . S
C804 C805 1.414 . S
C804 C807 1.499 . S
C805 H779 0.950 . S
C805 C804 1.414 . S
C805 C806 1.374 . S
C806 H780 0.950 . S
C806 C802 1.385 . S
C806 C805 1.374 . S
C807 C804 1.499 . S
C807 C808 1.373 . S
C807 C809 1.389 . S
C808 H781 0.950 . S
C808 C794 1.377 . S
C808 C807 1.373 . S
C809 C793 1.377 . S
C809 C807 1.389 . S
C809 C810 1.524 . S
C810 C809 1.524 . S
C810 C811 1.397 . S
C810 C815 1.363 . S
C811 H782 0.950 . S
C811 C810 1.397 . S
C811 C812 1.334 . S
C812 H783 0.950 . S
C812 C811 1.334 . S
C812 C813 1.287 . S
C813 C812 1.287 . S
C813 C814 1.524 . S
C813 H816 0.999 . S
C814 H784 0.950 . S
C814 C813 1.524 . S
C814 C815 1.415 . S
C815 H785 0.950 . S
C815 C810 1.363 . S
C815 C814 1.415 . S
H816 C813 0.999 . S
H817 C798 0.913 . S
H818 C836 0.951 . S
H819 C838 0.951 . S
H820 C840 0.950 . S
H821 C841 0.950 . S
H822 C843 0.950 . S
H823 C846 0.957 . S
H824 C847 0.950 . S
H825 C849 0.950 . S
H826 C850 0.950 . S
H827 C851 0.951 . S
H828 C853 0.951 . S
H829 C855 0.950 . S
H830 C856 0.950 . S
H831 C858 0.950 . S
H832 C861 0.950 . S
H833 C862 0.950 . S
H834 C864 0.950 . S
H835 C865 0.950 . S
C836 H818 0.951 . S
C836 C837 1.366 . S
C836 C838 1.388 . S
C837 C836 1.366 . S
C837 C841 1.385 . S
C838 H819 0.951 . S
C838 C836 1.388 . S
C838 C839 1.366 . S
C839 C838 1.366 . S
C839 C840 1.414 . S
C839 C842 1.499 . S
C840 H820 0.950 . S
C840 C839 1.414 . S
C840 C841 1.374 . S
C841 H821 0.950 . S
C841 C837 1.385 . S
C841 C840 1.374 . S
C842 C839 1.499 . S
C842 C843 1.373 . S
C842 C844 1.389 . S
C843 H822 0.950 . S
C843 C842 1.373 . S
C843 C859 1.377 . S
C844 C842 1.389 . S
C844 C845 1.524 1_556 S
C844 C858 1.377 1_556 S
C845 C844 1.524 1_554 S
C845 C846 1.394 1_554 S
C845 C850 1.363 . S
C846 H823 0.957 . S
C846 C845 1.394 1_556 S
C846 C847 1.330 1_556 S
C847 H824 0.950 . S
C847 C846 1.330 1_554 S
C847 C848 1.287 . S
C848 C847 1.287 . S
C848 C849 1.524 . S
C848 H867 0.913 . S
C849 H825 0.950 . S
C849 C848 1.524 . S
C849 C850 1.415 . S
C850 H826 0.950 . S
C850 C845 1.363 . S
C850 C849 1.415 . S
C851 H827 0.951 . S
C851 C852 1.366 . S
C851 C853 1.388 . S
C852 C851 1.366 . S
C852 C856 1.385 . S
C853 H828 0.951 . S
C853 C851 1.388 . S
C853 C854 1.366 . S
C854 C853 1.366 . S
C854 C855 1.414 . S
C854 C857 1.499 . S
C855 H829 0.950 . S
C855 C854 1.414 . S
C855 C856 1.374 . S
C856 H830 0.950 . S
C856 C852 1.385 . S
C856 C855 1.374 . S
C857 C854 1.499 . S
C857 C858 1.373 . S
C857 C859 1.389 1_554 S
C858 H831 0.950 . S
C858 C844 1.377 1_554 S
C858 C857 1.373 . S
C859 C843 1.377 . S
C859 C857 1.389 1_556 S
C859 C860 1.524 . S
C860 C859 1.524 . S
C860 C861 1.397 . S
C860 C865 1.363 . S
C861 H832 0.950 . S
C861 C860 1.397 . S
C861 C862 1.334 . S
C862 H833 0.950 . S
C862 C861 1.334 . S
C862 C863 1.287 . S
C863 C862 1.287 . S
C863 C864 1.524 . S
C863 H866 0.999 . S
C864 H834 0.950 . S
C864 C863 1.524 . S
C864 C865 1.415 . S
C865 H835 0.950 . S
C865 C860 1.363 . S
C865 C864 1.415 . S
H866 C863 0.999 . S
H867 C848 0.913 . S
H868 C886 0.951 1_556 S
H869 C888 0.951 . S
H870 C890 0.950 . S
H871 C891 0.950 . S
H872 C893 0.950 . S
H873 C896 0.950 . S
H874 C897 0.950 . S
H875 C899 0.950 . S
H876 C900 0.950 . S
H877 C901 0.951 . S
H878 C903 0.951 . S
H879 C905 0.950 . S
H880 C906 0.950 . S
H881 C908 0.950 . S
H882 C911 0.950 . S
H883 C912 0.950 . S
H884 C914 0.950 . S
H885 C915 0.950 . S
C886 H868 0.951 1_554 S
C886 C887 1.366 . S
C886 C888 1.388 . S
C887 C886 1.366 . S
C887 C891 1.385 . S
C888 H869 0.951 . S
C888 C886 1.388 . S
C888 C889 1.366 . S
C889 C888 1.366 . S
C889 C890 1.414 . S
C889 C892 1.499 . S
C890 H870 0.950 . S
C890 C889 1.414 . S
C890 C891 1.374 . S
C891 H871 0.950 . S
C891 C887 1.385 . S
C891 C890 1.374 . S
C892 C889 1.499 . S
C892 C893 1.373 . S
C892 C894 1.389 . S
C893 H872 0.950 . S
C893 C892 1.373 . S
C893 C909 1.377 . S
C894 C892 1.389 . S
C894 C895 1.524 . S
C894 C908 1.377 . S
C895 C894 1.524 . S
C895 C896 1.397 . S
C895 C900 1.363 . S
C896 H873 0.950 . S
C896 C895 1.397 . S
C896 C897 1.334 . S
C897 H874 0.950 . S
C897 C896 1.334 . S
C897 C898 1.287 . S
C898 C897 1.287 . S
C898 C899 1.524 . S
C898 H917 0.913 . S
C899 H875 0.950 . S
C899 C898 1.524 . S
C899 C900 1.415 . S
C900 H876 0.950 . S
C900 C895 1.363 . S
C900 C899 1.415 . S
C901 H877 0.951 . S
C901 C902 1.366 . S
C901 C903 1.388 . S
C902 C901 1.366 . S
C902 C906 1.385 . S
C903 H878 0.951 . S
C903 C901 1.388 . S
C903 C904 1.366 . S
C904 C903 1.366 . S
C904 C905 1.414 . S
C904 C907 1.499 . S
C905 H879 0.950 . S
C905 C904 1.414 . S
C905 C906 1.374 . S
C906 H880 0.950 . S
C906 C902 1.385 . S
C906 C905 1.374 . S
C907 C904 1.499 . S
C907 C908 1.373 . S
C907 C909 1.389 . S
C908 H881 0.950 . S
C908 C894 1.377 . S
C908 C907 1.373 . S
C909 C893 1.377 . S
C909 C907 1.389 . S
C909 C910 1.524 . S
C910 C909 1.524 . S
C910 C911 1.397 . S
C910 C915 1.363 . S
C911 H882 0.950 . S
C911 C910 1.397 . S
C911 C912 1.334 . S
C912 H883 0.950 . S
C912 C911 1.334 . S
C912 C913 1.287 . S
C913 C912 1.287 . S
C913 C914 1.524 . S
C913 H916 0.999 . S
C914 H884 0.950 . S
C914 C913 1.524 . S
C914 C915 1.415 . S
C915 H885 0.950 . S
C915 C910 1.363 . S
C915 C914 1.415 . S
H916 C913 0.999 . S
H917 C898 0.913 . S
H918 C936 0.951 . S
H919 C938 0.951 . S
H920 C940 0.950 . S
H921 C941 0.950 . S
H922 C943 0.950 . S
H923 C946 0.950 . S
H924 C947 0.950 . S
H925 C949 0.950 . S
H926 C950 0.950 . S
H927 C951 0.951 . S
H928 C953 0.951 . S
H929 C955 0.950 . S
H930 C956 0.950 . S
H931 C958 0.950 . S
H932 C961 0.950 . S
H933 C962 0.950 . S
H934 C964 0.950 . S
H935 C965 0.950 . S
C936 H918 0.951 . S
C936 C937 1.366 . S
C936 C938 1.388 . S
C937 C936 1.366 . S
C937 C941 1.385 . S
C938 H919 0.951 . S
C938 C936 1.388 . S
C938 C939 1.366 . S
C939 C938 1.366 . S
C939 C940 1.414 . S
C939 C942 1.499 . S
C940 H920 0.950 . S
C940 C939 1.414 . S
C940 C941 1.374 . S
C941 H921 0.950 . S
C941 C937 1.385 . S
C941 C940 1.374 . S
C942 C939 1.499 . S
C942 C943 1.373 . S
C942 C944 1.389 . S
C943 H922 0.950 . S
C943 C942 1.373 . S
C943 C959 1.377 . S
C944 C942 1.389 . S
C944 C945 1.524 . S
C944 C958 1.377 . S
C945 C944 1.524 . S
C945 C946 1.397 . S
C945 C950 1.363 . S
C946 H923 0.950 . S
C946 C945 1.397 . S
C946 C947 1.334 . S
C947 H924 0.950 . S
C947 C946 1.334 . S
C947 C948 1.287 . S
C948 C947 1.287 . S
C948 C949 1.524 . S
C948 H967 0.913 . S
C949 H925 0.950 . S
C949 C948 1.524 . S
C949 C950 1.415 . S
C950 H926 0.950 . S
C950 C945 1.363 . S
C950 C949 1.415 . S
C951 H927 0.951 . S
C951 C952 1.366 . S
C951 C953 1.388 . S
C952 C951 1.366 . S
C952 C956 1.385 . S
C953 H928 0.951 . S
C953 C951 1.388 . S
C953 C954 1.366 . S
C954 C953 1.366 . S
C954 C955 1.414 . S
C954 C957 1.499 . S
C955 H929 0.950 . S
C955 C954 1.414 . S
C955 C956 1.374 . S
C956 H930 0.950 . S
C956 C952 1.385 . S
C956 C955 1.374 . S
C957 C954 1.499 . S
C957 C958 1.373 . S
C957 C959 1.389 . S
C958 H931 0.950 . S
C958 C944 1.377 . S
C958 C957 1.373 . S
C959 C943 1.377 . S
C959 C957 1.389 . S
C959 C960 1.524 . S
C960 C959 1.524 . S
C960 C961 1.397 . S
C960 C965 1.363 . S
C961 H932 0.950 . S
C961 C960 1.397 . S
C961 C962 1.334 . S
C962 H933 0.950 . S
C962 C961 1.334 . S
C962 C963 1.287 . S
C963 C962 1.287 . S
C963 C964 1.524 . S
C963 H966 0.999 . S
C964 H934 0.950 . S
C964 C963 1.524 . S
C964 C965 1.415 . S
C965 H935 0.950 . S
C965 C960 1.363 . S
C965 C964 1.415 . S
H966 C963 0.999 . S
H967 C948 0.913 . S
H968 C986 0.951 . S
H969 C988 0.951 . S
H970 C990 0.950 . S
H971 C991 0.950 . S
H972 C993 0.950 . S
H973 C996 0.950 . S
H974 C997 0.950 . S
H975 C999 0.950 . S
H976 C1000 0.950 . S
H977 C1001 0.951 . S
H978 C1003 0.951 . S
H979 C1005 0.950 . S
H980 C1006 0.950 . S
H981 C1008 0.950 . S
H982 C1011 0.950 . S
H983 C1012 0.950 . S
H984 C1014 0.950 . S
H985 C1015 0.950 . S
C986 H968 0.951 . S
C986 C987 1.366 . S
C986 C988 1.388 . S
C987 C986 1.366 . S
C987 C991 1.385 . S
C988 H969 0.951 . S
C988 C986 1.388 . S
C988 C989 1.366 . S
C989 C988 1.366 . S
C989 C990 1.414 . S
C989 C992 1.499 . S
C990 H970 0.950 . S
C990 C989 1.414 . S
C990 C991 1.374 . S
C991 H971 0.950 . S
C991 C987 1.385 . S
C991 C990 1.374 . S
C992 C989 1.499 . S
C992 C993 1.373 . S
C992 C994 1.389 . S
C993 H972 0.950 . S
C993 C992 1.373 . S
C993 C1009 1.377 . S
C994 C992 1.389 . S
C994 C995 1.524 . S
C994 C1008 1.377 . S
C995 C994 1.524 . S
C995 C996 1.397 . S
C995 C1000 1.363 . S
C996 H973 0.950 . S
C996 C995 1.397 . S
C996 C997 1.334 . S
C997 H974 0.950 . S
C997 C996 1.334 . S
C997 C998 1.287 . S
C998 C997 1.287 . S
C998 C999 1.524 . S
C998 H1017 0.913 . S
C999 H975 0.950 . S
C999 C998 1.524 . S
C999 C1000 1.415 . S
C1000 H976 0.950 . S
C1000 C995 1.363 . S
C1000 C999 1.415 . S
C1001 H977 0.951 . S
C1001 C1002 1.366 . S
C1001 C1003 1.388 . S
C1002 C1001 1.366 . S
C1002 C1006 1.385 . S
C1003 H978 0.951 . S
C1003 C1001 1.388 . S
C1003 C1004 1.366 . S
C1004 C1003 1.366 . S
C1004 C1005 1.414 . S
C1004 C1007 1.499 . S
C1005 H979 0.950 . S
C1005 C1004 1.414 . S
C1005 C1006 1.374 . S
C1006 H980 0.950 . S
C1006 C1002 1.385 . S
C1006 C1005 1.374 . S
C1007 C1004 1.499 . S
C1007 C1008 1.373 . S
C1007 C1009 1.389 . S
C1008 H981 0.950 . S
C1008 C994 1.377 . S
C1008 C1007 1.373 . S
C1009 C993 1.377 . S
C1009 C1007 1.389 . S
C1009 C1010 1.524 . S
C1010 C1009 1.524 . S
C1010 C1011 1.397 . S
C1010 C1015 1.363 . S
C1011 H982 0.950 . S
C1011 C1010 1.397 . S
C1011 C1012 1.334 . S
C1012 H983 0.950 . S
C1012 C1011 1.334 . S
C1012 C1013 1.287 . S
C1013 C1012 1.287 . S
C1013 C1014 1.524 . S
C1013 H1016 0.999 . S
C1014 H984 0.950 . S
C1014 C1013 1.524 . S
C1014 C1015 1.415 . S
C1015 H985 0.950 . S
C1015 C1010 1.363 . S
C1015 C1014 1.415 . S
H1016 C1013 0.999 . S
H1017 C998 0.913 . S
H1018 C1036 0.951 . S
H1019 C1038 0.951 . S
H1020 C1040 0.950 . S
H1021 C1041 0.950 . S
H1022 C1043 0.950 . S
H1023 C1046 0.950 . S
H1024 C1047 0.950 . S
H1025 C1049 0.950 . S
H1026 C1050 0.950 . S
H1027 C1051 0.951 . S
H1028 C1053 0.951 . S
H1029 C1055 0.950 . S
H1030 C1056 0.950 . S
H1031 C1058 0.950 . S
H1032 C1061 0.950 . S
H1033 C1062 0.950 . S
H1034 C1064 0.950 . S
H1035 C1065 0.950 . S
C1036 H1018 0.951 . S
C1036 C1037 1.366 . S
C1036 C1038 1.388 . S
C1037 C1036 1.366 . S
C1037 C1041 1.385 . S
C1038 H1019 0.951 . S
C1038 C1036 1.388 . S
C1038 C1039 1.366 . S
C1039 C1038 1.366 . S
C1039 C1040 1.414 . S
C1039 C1042 1.499 . S
C1040 H1020 0.950 . S
C1040 C1039 1.414 . S
C1040 C1041 1.374 . S
C1041 H1021 0.950 . S
C1041 C1037 1.385 . S
C1041 C1040 1.374 . S
C1042 C1039 1.499 . S
C1042 C1043 1.373 . S
C1042 C1044 1.389 . S
C1043 H1022 0.950 . S
C1043 C1042 1.373 . S
C1043 C1059 1.377 . S
C1044 C1042 1.389 . S
C1044 C1045 1.524 . S
C1044 C1058 1.377 . S
C1045 C1044 1.524 . S
C1045 C1046 1.397 . S
C1045 C1050 1.363 . S
C1046 H1023 0.950 . S
C1046 C1045 1.397 . S
C1046 C1047 1.334 . S
C1047 H1024 0.950 . S
C1047 C1046 1.334 . S
C1047 C1048 1.287 . S
C1048 C1047 1.287 . S
C1048 C1049 1.524 . S
C1048 H1067 0.913 . S
C1049 H1025 0.950 . S
C1049 C1048 1.524 . S
C1049 C1050 1.415 . S
C1050 H1026 0.950 . S
C1050 C1045 1.363 . S
C1050 C1049 1.415 . S
C1051 H1027 0.951 . S
C1051 C1052 1.366 . S
C1051 C1053 1.388 . S
C1052 C1051 1.366 . S
C1052 C1056 1.385 . S
C1053 H1028 0.951 . S
C1053 C1051 1.388 . S
C1053 C1054 1.366 . S
C1054 C1053 1.366 . S
C1054 C1055 1.414 . S
C1054 C1057 1.499 . S
C1055 H1029 0.950 . S
C1055 C1054 1.414 . S
C1055 C1056 1.374 . S
C1056 H1030 0.950 . S
C1056 C1052 1.385 . S
C1056 C1055 1.374 . S
C1057 C1054 1.499 . S
C1057 C1058 1.373 . S
C1057 C1059 1.389 . S
C1058 H1031 0.950 . S
C1058 C1044 1.377 . S
C1058 C1057 1.373 . S
C1059 C1043 1.377 . S
C1059 C1057 1.389 . S
C1059 C1060 1.524 . S
C1060 C1059 1.524 . S
C1060 C1061 1.397 . S
C1060 C1065 1.363 . S
C1061 H1032 0.950 . S
C1061 C1060 1.397 . S
C1061 C1062 1.334 . S
C1062 H1033 0.950 . S
C1062 C1061 1.334 . S
C1062 C1063 1.287 . S
C1063 C1062 1.287 . S
C1063 C1064 1.524 . S
C1063 H1066 0.999 . S
C1064 H1034 0.950 . S
C1064 C1063 1.524 . S
C1064 C1065 1.415 . S
C1065 H1035 0.950 . S
C1065 C1060 1.363 . S
C1065 C1064 1.415 . S
H1066 C1063 0.999 . S
H1067 C1048 0.913 . S
H1068 C1086 0.951 . S
H1069 C1088 0.951 . S
H1070 C1090 0.950 . S
H1071 C1091 0.950 . S
H1072 C1093 0.950 . S
H1073 C1096 0.950 1_556 S
H1074 C1097 0.950 . S
H1075 C1099 0.950 . S
H1076 C1100 0.950 . S
H1077 C1101 0.951 . S
H1078 C1103 0.951 . S
H1079 C1105 0.950 . S
H1080 C1106 0.950 . S
H1081 C1108 0.950 . S
H1082 C1111 0.950 . S
H1083 C1112 0.950 . S
H1084 C1114 0.950 . S
H1085 C1115 0.950 . S
C1086 H1068 0.951 . S
C1086 C1087 1.366 . S
C1086 C1088 1.388 . S
C1087 C1086 1.366 . S
C1087 C1091 1.385 . S
C1088 H1069 0.951 . S
C1088 C1086 1.388 . S
C1088 C1089 1.366 . S
C1089 C1088 1.366 . S
C1089 C1090 1.414 . S
C1089 C1092 1.499 . S
C1090 H1070 0.950 . S
C1090 C1089 1.414 . S
C1090 C1091 1.374 . S
C1091 H1071 0.950 . S
C1091 C1087 1.385 . S
C1091 C1090 1.374 . S
C1092 C1089 1.499 . S
C1092 C1093 1.373 . S
C1092 C1094 1.389 . S
C1093 H1072 0.950 . S
C1093 C1092 1.373 . S
C1093 C1109 1.377 1_545 S
C1094 C1092 1.389 . S
C1094 C1095 1.524 . S
C1094 C1108 1.377 1_545 S
C1095 C1094 1.524 . S
C1095 C1096 1.397 . S
C1095 C1100 1.363 . S
C1096 H1073 0.950 1_554 S
C1096 C1095 1.397 . S
C1096 C1097 1.334 1_554 S
C1097 H1074 0.950 . S
C1097 C1096 1.334 1_556 S
C1097 C1098 1.287 . S
C1098 C1097 1.287 . S
C1098 C1099 1.524 1_556 S
C1098 H1117 0.913 . S
C1099 H1075 0.950 . S
C1099 C1098 1.524 1_554 S
C1099 C1100 1.415 . S
C1100 H1076 0.950 . S
C1100 C1095 1.363 . S
C1100 C1099 1.415 . S
C1101 H1077 0.951 . S
C1101 C1102 1.366 . S
C1101 C1103 1.388 . S
C1102 C1101 1.366 . S
C1102 C1106 1.385 . S
C1103 H1078 0.951 . S
C1103 C1101 1.388 . S
C1103 C1104 1.366 . S
C1104 C1103 1.366 . S
C1104 C1105 1.414 . S
C1104 C1107 1.499 . S
C1105 H1079 0.950 . S
C1105 C1104 1.414 . S
C1105 C1106 1.374 . S
C1106 H1080 0.950 . S
C1106 C1102 1.385 . S
C1106 C1105 1.374 . S
C1107 C1104 1.499 . S
C1107 C1108 1.373 . S
C1107 C1109 1.389 . S
C1108 H1081 0.950 . S
C1108 C1094 1.377 1_565 S
C1108 C1107 1.373 . S
C1109 C1093 1.377 1_565 S
C1109 C1107 1.389 . S
C1109 C1110 1.524 . S
C1110 C1109 1.524 . S
C1110 C1111 1.397 . S
C1110 C1115 1.363 . S
C1111 H1082 0.950 . S
C1111 C1110 1.397 . S
C1111 C1112 1.334 . S
C1112 H1083 0.950 . S
C1112 C1111 1.334 . S
C1112 C1113 1.287 . S
C1113 C1112 1.287 . S
C1113 C1114 1.524 . S
C1113 H1116 0.999 . S
C1114 H1084 0.950 . S
C1114 C1113 1.524 . S
C1114 C1115 1.415 . S
C1115 H1085 0.950 . S
C1115 C1110 1.363 . S
C1115 C1114 1.415 . S
H1116 C1113 0.999 . S
H1117 C1098 0.913 . S
H1118 C1136 0.951 . S
H1119 C1138 0.951 . S
H1120 C1140 0.950 . S
H1121 C1141 0.950 . S
H1122 C1143 0.950 . S
H1123 C1146 0.950 . S
H1124 C1147 0.950 . S
H1125 C1149 0.950 . S
H1126 C1150 0.950 . S
H1127 C1151 0.951 . S
H1128 C1153 0.951 . S
H1129 C1155 0.950 . S
H1130 C1156 0.950 . S
H1131 C1158 0.950 . S
H1132 C1161 0.950 . S
H1133 C1162 0.950 . S
H1134 C1164 0.950 . S
H1135 C1165 0.950 . S
C1136 H1118 0.951 . S
C1136 C1137 1.366 . S
C1136 C1138 1.388 . S
C1137 C1136 1.366 . S
C1137 C1141 1.385 . S
C1138 H1119 0.951 . S
C1138 C1136 1.388 . S
C1138 C1139 1.366 . S
C1139 C1138 1.366 . S
C1139 C1140 1.414 . S
C1139 C1142 1.499 . S
C1140 H1120 0.950 . S
C1140 C1139 1.414 . S
C1140 C1141 1.374 . S
C1141 H1121 0.950 . S
C1141 C1137 1.385 . S
C1141 C1140 1.374 . S
C1142 C1139 1.499 . S
C1142 C1143 1.373 . S
C1142 C1144 1.389 . S
C1143 H1122 0.950 . S
C1143 C1142 1.373 . S
C1143 C1159 1.377 . S
C1144 C1142 1.389 . S
C1144 C1145 1.524 . S
C1144 C1158 1.377 . S
C1145 C1144 1.524 . S
C1145 C1146 1.397 . S
C1145 C1150 1.363 . S
C1146 H1123 0.950 . S
C1146 C1145 1.397 . S
C1146 C1147 1.334 . S
C1147 H1124 0.950 . S
C1147 C1146 1.334 . S
C1147 C1148 1.287 . S
C1148 C1147 1.287 . S
C1148 C1149 1.524 . S
C1148 H1167 0.913 . S
C1149 H1125 0.950 . S
C1149 C1148 1.524 . S
C1149 C1150 1.415 . S
C1150 H1126 0.950 . S
C1150 C1145 1.363 . S
C1150 C1149 1.415 . S
C1151 H1127 0.951 . S
C1151 C1152 1.366 . S
C1151 C1153 1.388 . S
C1152 C1151 1.366 . S
C1152 C1156 1.385 . S
C1153 H1128 0.951 . S
C1153 C1151 1.388 . S
C1153 C1154 1.366 . S
C1154 C1153 1.366 . S
C1154 C1155 1.414 . S
C1154 C1157 1.499 . S
C1155 H1129 0.950 . S
C1155 C1154 1.414 . S
C1155 C1156 1.374 . S
C1156 H1130 0.950 . S
C1156 C1152 1.385 . S
C1156 C1155 1.374 . S
C1157 C1154 1.499 . S
C1157 C1158 1.373 . S
C1157 C1159 1.389 . S
C1158 H1131 0.950 . S
C1158 C1144 1.377 . S
C1158 C1157 1.373 . S
C1159 C1143 1.377 . S
C1159 C1157 1.389 . S
C1159 C1160 1.524 . S
C1160 C1159 1.524 . S
C1160 C1161 1.397 . S
C1160 C1165 1.363 . S
C1161 H1132 0.950 . S
C1161 C1160 1.397 . S
C1161 C1162 1.334 . S
C1162 H1133 0.950 . S
C1162 C1161 1.334 . S
C1162 C1163 1.287 . S
C1163 C1162 1.287 . S
C1163 C1164 1.524 . S
C1163 H1166 0.999 . S
C1164 H1134 0.950 . S
C1164 C1163 1.524 . S
C1164 C1165 1.415 . S
C1165 H1135 0.950 . S
C1165 C1160 1.363 . S
C1165 C1164 1.415 . S
H1166 C1163 0.999 . S
H1167 C1148 0.913 . S
H1168 C1186 0.951 . S
H1169 C1188 0.951 . S
H1170 C1190 0.950 . S
H1171 C1191 0.950 . S
H1172 C1193 0.950 . S
H1173 C1196 0.950 . S
H1174 C1197 0.950 . S
H1175 C1199 0.950 . S
H1176 C1200 0.950 . S
H1177 C1201 0.951 . S
H1178 C1203 0.951 . S
H1179 C1205 0.950 . S
H1180 C1206 0.950 . S
H1181 C1208 0.950 . S
H1182 C1211 0.950 . S
H1183 C1212 0.950 . S
H1184 C1214 0.950 . S
H1185 C1215 0.950 . S
C1186 H1168 0.951 . S
C1186 C1187 1.366 . S
C1186 C1188 1.388 . S
C1187 C1186 1.366 . S
C1187 C1191 1.385 . S
C1188 H1169 0.951 . S
C1188 C1186 1.388 . S
C1188 C1189 1.366 . S
C1189 C1188 1.366 . S
C1189 C1190 1.414 . S
C1189 C1192 1.499 . S
C1190 H1170 0.950 . S
C1190 C1189 1.414 . S
C1190 C1191 1.374 . S
C1191 H1171 0.950 . S
C1191 C1187 1.385 . S
C1191 C1190 1.374 . S
C1192 C1189 1.499 . S
C1192 C1193 1.373 . S
C1192 C1194 1.389 . S
C1193 H1172 0.950 . S
C1193 C1192 1.373 . S
C1193 C1209 1.377 1_455 S
C1194 C1192 1.389 . S
C1194 C1195 1.524 . S
C1194 C1208 1.377 1_455 S
C1195 C1194 1.524 . S
C1195 C1196 1.397 . S
C1195 C1200 1.363 . S
C1196 H1173 0.950 . S
C1196 C1195 1.397 . S
C1196 C1197 1.334 . S
C1197 H1174 0.950 . S
C1197 C1196 1.334 . S
C1197 C1198 1.287 . S
C1198 C1197 1.287 . S
C1198 C1199 1.524 . S
C1198 H1217 0.913 . S
C1199 H1175 0.950 . S
C1199 C1198 1.524 . S
C1199 C1200 1.415 . S
C1200 H1176 0.950 . S
C1200 C1195 1.363 . S
C1200 C1199 1.415 . S
C1201 H1177 0.951 . S
C1201 C1202 1.366 . S
C1201 C1203 1.388 . S
C1202 C1201 1.366 . S
C1202 C1206 1.385 . S
C1203 H1178 0.951 . S
C1203 C1201 1.388 . S
C1203 C1204 1.366 . S
C1204 C1203 1.366 . S
C1204 C1205 1.414 . S
C1204 C1207 1.499 . S
C1205 H1179 0.950 . S
C1205 C1204 1.414 . S
C1205 C1206 1.374 . S
C1206 H1180 0.950 . S
C1206 C1202 1.385 . S
C1206 C1205 1.374 . S
C1207 C1204 1.499 . S
C1207 C1208 1.373 . S
C1207 C1209 1.389 . S
C1208 H1181 0.950 . S
C1208 C1194 1.377 1_655 S
C1208 C1207 1.373 . S
C1209 C1193 1.377 1_655 S
C1209 C1207 1.389 . S
C1209 C1210 1.524 . S
C1210 C1209 1.524 . S
C1210 C1211 1.397 . S
C1210 C1215 1.363 . S
C1211 H1182 0.950 . S
C1211 C1210 1.397 . S
C1211 C1212 1.334 . S
C1212 H1183 0.950 . S
C1212 C1211 1.334 . S
C1212 C1213 1.287 . S
C1213 C1212 1.287 . S
C1213 C1214 1.524 . S
C1213 H1216 0.999 . S
C1214 H1184 0.950 . S
C1214 C1213 1.524 . S
C1214 C1215 1.415 . S
C1215 H1185 0.950 . S
C1215 C1210 1.363 . S
C1215 C1214 1.415 . S
H1216 C1213 0.999 . S
H1217 C1198 0.913 . S
H1218 C1236 0.951 . S
H1219 C1238 0.951 . S
H1220 C1240 0.950 . S
H1221 C1241 0.950 . S
H1222 C1243 0.950 . S
H1223 C1246 0.950 . S
H1224 C1247 0.950 . S
H1225 C1249 0.950 . S
H1226 C1250 0.950 . S
H1227 C1251 0.951 . S
H1228 C1253 0.951 . S
H1229 C1255 0.950 . S
H1230 C1256 0.950 . S
H1231 C1258 0.950 . S
H1232 C1261 0.950 . S
H1233 C1262 0.950 . S
H1234 C1264 0.950 . S
H1235 C1265 0.950 . S
C1236 H1218 0.951 . S
C1236 C1237 1.366 . S
C1236 C1238 1.388 . S
C1237 C1236 1.366 . S
C1237 C1241 1.385 . S
C1238 H1219 0.951 . S
C1238 C1236 1.388 . S
C1238 C1239 1.366 . S
C1239 C1238 1.366 . S
C1239 C1240 1.414 . S
C1239 C1242 1.499 . S
C1240 H1220 0.950 . S
C1240 C1239 1.414 . S
C1240 C1241 1.374 . S
C1241 H1221 0.950 . S
C1241 C1237 1.385 . S
C1241 C1240 1.374 . S
C1242 C1239 1.499 . S
C1242 C1243 1.373 . S
C1242 C1244 1.389 . S
C1243 H1222 0.950 . S
C1243 C1242 1.373 . S
C1243 C1259 1.377 1_565 S
C1244 C1242 1.389 . S
C1244 C1245 1.524 . S
C1244 C1258 1.377 1_565 S
C1245 C1244 1.524 . S
C1245 C1246 1.397 . S
C1245 C1250 1.363 . S
C1246 H1223 0.950 . S
C1246 C1245 1.397 . S
C1246 C1247 1.334 . S
C1247 H1224 0.950 . S
C1247 C1246 1.334 . S
C1247 C1248 1.287 . S
C1248 C1247 1.287 . S
C1248 C1249 1.524 . S
C1248 H1267 0.913 . S
C1249 H1225 0.950 . S
C1249 C1248 1.524 . S
C1249 C1250 1.415 . S
C1250 H1226 0.950 . S
C1250 C1245 1.363 . S
C1250 C1249 1.415 . S
C1251 H1227 0.951 . S
C1251 C1252 1.366 . S
C1251 C1253 1.388 . S
C1252 C1251 1.366 . S
C1252 C1256 1.385 . S
C1253 H1228 0.951 . S
C1253 C1251 1.388 . S
C1253 C1254 1.366 . S
C1254 C1253 1.366 . S
C1254 C1255 1.414 . S
C1254 C1257 1.499 . S
C1255 H1229 0.950 . S
C1255 C1254 1.414 . S
C1255 C1256 1.374 . S
C1256 H1230 0.950 . S
C1256 C1252 1.385 . S
C1256 C1255 1.374 . S
C1257 C1254 1.499 . S
C1257 C1258 1.373 . S
C1257 C1259 1.389 . S
C1258 H1231 0.950 . S
C1258 C1244 1.377 1_545 S
C1258 C1257 1.373 . S
C1259 C1243 1.377 1_545 S
C1259 C1257 1.389 . S
C1259 C1260 1.524 . S
C1260 C1259 1.524 . S
C1260 C1261 1.397 . S
C1260 C1265 1.363 . S
C1261 H1232 0.950 . S
C1261 C1260 1.397 . S
C1261 C1262 1.334 . S
C1262 H1233 0.950 . S
C1262 C1261 1.334 . S
C1262 C1263 1.287 . S
C1263 C1262 1.287 . S
C1263 C1264 1.524 . S
C1263 H1266 0.999 . S
C1264 H1234 0.950 . S
C1264 C1263 1.524 . S
C1264 C1265 1.415 . S
C1265 H1235 0.950 . S
C1265 C1260 1.363 . S
C1265 C1264 1.415 . S
H1266 C1263 0.999 . S
H1267 C1248 0.913 . S
H1268 C1286 0.951 . S
H1269 C1288 0.951 . S
H1270 C1290 0.950 . S
H1271 C1291 0.950 . S
H1272 C1293 0.950 . S
H1273 C1296 0.950 . S
H1274 C1297 0.950 . S
H1275 C1299 0.950 . S
H1276 C1300 0.950 . S
H1277 C1301 0.951 . S
H1278 C1303 0.951 . S
H1279 C1305 0.950 . S
H1280 C1306 0.950 . S
H1281 C1308 0.950 . S
H1282 C1311 0.950 . S
H1283 C1312 0.950 . S
H1284 C1314 0.950 . S
H1285 C1315 0.950 . S
C1286 H1268 0.951 . S
C1286 C1287 1.366 . S
C1286 C1288 1.388 . S
C1287 C1286 1.366 . S
C1287 C1291 1.385 . S
C1288 H1269 0.951 . S
C1288 C1286 1.388 . S
C1288 C1289 1.366 . S
C1289 C1288 1.366 . S
C1289 C1290 1.414 . S
C1289 C1292 1.499 . S
C1290 H1270 0.950 . S
C1290 C1289 1.414 . S
C1290 C1291 1.374 . S
C1291 H1271 0.950 . S
C1291 C1287 1.385 . S
C1291 C1290 1.374 . S
C1292 C1289 1.499 . S
C1292 C1293 1.373 . S
C1292 C1294 1.389 . S
C1293 H1272 0.950 . S
C1293 C1292 1.373 . S
C1293 C1309 1.377 . S
C1294 C1292 1.389 . S
C1294 C1295 1.524 . S
C1294 C1308 1.377 . S
C1295 C1294 1.524 . S
C1295 C1296 1.397 . S
C1295 C1300 1.363 . S
C1296 H1273 0.950 . S
C1296 C1295 1.397 . S
C1296 C1297 1.334 . S
C1297 H1274 0.950 . S
C1297 C1296 1.334 . S
C1297 C1298 1.287 . S
C1298 C1297 1.287 . S
C1298 C1299 1.524 . S
C1298 H1317 0.913 . S
C1299 H1275 0.950 . S
C1299 C1298 1.524 . S
C1299 C1300 1.415 . S
C1300 H1276 0.950 . S
C1300 C1295 1.363 . S
C1300 C1299 1.415 . S
C1301 H1277 0.951 . S
C1301 C1302 1.366 . S
C1301 C1303 1.388 . S
C1302 C1301 1.366 . S
C1302 C1306 1.385 . S
C1303 H1278 0.951 . S
C1303 C1301 1.388 . S
C1303 C1304 1.366 . S
C1304 C1303 1.366 . S
C1304 C1305 1.414 . S
C1304 C1307 1.499 . S
C1305 H1279 0.950 . S
C1305 C1304 1.414 . S
C1305 C1306 1.374 . S
C1306 H1280 0.950 . S
C1306 C1302 1.385 . S
C1306 C1305 1.374 . S
C1307 C1304 1.499 . S
C1307 C1308 1.373 . S
C1307 C1309 1.389 . S
C1308 H1281 0.950 . S
C1308 C1294 1.377 . S
C1308 C1307 1.373 . S
C1309 C1293 1.377 . S
C1309 C1307 1.389 . S
C1309 C1310 1.524 . S
C1310 C1309 1.524 . S
C1310 C1311 1.397 . S
C1310 C1315 1.363 . S
C1311 H1282 0.950 . S
C1311 C1310 1.397 . S
C1311 C1312 1.334 . S
C1312 H1283 0.950 . S
C1312 C1311 1.334 . S
C1312 C1313 1.287 . S
C1313 C1312 1.287 . S
C1313 C1314 1.524 . S
C1313 H1316 0.999 . S
C1314 H1284 0.950 . S
C1314 C1313 1.524 . S
C1314 C1315 1.415 . S
C1315 H1285 0.950 . S
C1315 C1310 1.363 . S
C1315 C1314 1.415 . S
H1316 C1313 0.999 . S
H1317 C1298 0.913 . S
H1318 C1336 0.951 . S
H1319 C1338 0.951 . S
H1320 C1340 0.950 . S
H1321 C1341 0.950 . S
H1322 C1343 0.950 . S
H1323 C1346 0.950 1_554 S
H1324 C1347 0.950 . S
H1325 C1349 0.950 . S
H1326 C1350 0.950 . S
H1327 C1351 0.951 . S
H1328 C1353 0.951 . S
H1329 C1355 0.950 . S
H1330 C1356 0.950 . S
H1331 C1358 0.950 . S
H1332 C1361 0.950 . S
H1333 C1362 0.950 . S
H1334 C1364 0.950 . S
H1335 C1365 0.950 . S
C1336 H1318 0.951 . S
C1336 C1337 1.366 . S
C1336 C1338 1.388 . S
C1337 C1336 1.366 . S
C1337 C1341 1.385 . S
C1338 H1319 0.951 . S
C1338 C1336 1.388 . S
C1338 C1339 1.366 . S
C1339 C1338 1.366 . S
C1339 C1340 1.414 . S
C1339 C1342 1.499 . S
C1340 H1320 0.950 . S
C1340 C1339 1.414 . S
C1340 C1341 1.374 . S
C1341 H1321 0.950 . S
C1341 C1337 1.385 . S
C1341 C1340 1.374 . S
C1342 C1339 1.499 . S
C1342 C1343 1.373 . S
C1342 C1344 1.389 . S
C1343 H1322 0.950 . S
C1343 C1342 1.373 . S
C1343 C1359 1.377 1_455 S
C1344 C1342 1.389 . S
C1344 C1345 1.524 . S
C1344 C1358 1.377 1_455 S
C1345 C1344 1.524 . S
C1345 C1346 1.397 . S
C1345 C1350 1.363 . S
C1346 H1323 0.950 1_556 S
C1346 C1345 1.397 . S
C1346 C1347 1.334 1_556 S
C1347 H1324 0.950 . S
C1347 C1346 1.334 1_554 S
C1347 C1348 1.287 . S
C1348 C1347 1.287 . S
C1348 C1349 1.524 1_554 S
C1348 H1367 0.913 . S
C1349 H1325 0.950 . S
C1349 C1348 1.524 1_556 S
C1349 C1350 1.415 . S
C1350 H1326 0.950 . S
C1350 C1345 1.363 . S
C1350 C1349 1.415 . S
C1351 H1327 0.951 . S
C1351 C1352 1.366 . S
C1351 C1353 1.388 . S
C1352 C1351 1.366 . S
C1352 C1356 1.385 . S
C1353 H1328 0.951 . S
C1353 C1351 1.388 . S
C1353 C1354 1.366 . S
C1354 C1353 1.366 . S
C1354 C1355 1.414 . S
C1354 C1357 1.499 . S
C1355 H1329 0.950 . S
C1355 C1354 1.414 . S
C1355 C1356 1.374 . S
C1356 H1330 0.950 . S
C1356 C1352 1.385 . S
C1356 C1355 1.374 . S
C1357 C1354 1.499 . S
C1357 C1358 1.373 . S
C1357 C1359 1.389 . S
C1358 H1331 0.950 . S
C1358 C1344 1.377 1_655 S
C1358 C1357 1.373 . S
C1359 C1343 1.377 1_655 S
C1359 C1357 1.389 . S
C1359 C1360 1.524 . S
C1360 C1359 1.524 . S
C1360 C1361 1.397 . S
C1360 C1365 1.363 . S
C1361 H1332 0.950 . S
C1361 C1360 1.397 . S
C1361 C1362 1.334 . S
C1362 H1333 0.950 . S
C1362 C1361 1.334 . S
C1362 C1363 1.287 . S
C1363 C1362 1.287 . S
C1363 C1364 1.524 . S
C1363 H1366 0.999 . S
C1364 H1334 0.950 . S
C1364 C1363 1.524 . S
C1364 C1365 1.415 . S
C1365 H1335 0.950 . S
C1365 C1360 1.363 . S
C1365 C1364 1.415 . S
H1366 C1363 0.999 . S
H1367 C1348 0.913 . S
C187 C4 1.587 . S
C202 C144 1.588 . S
C237 C18 1.588 . S
C252 C158 1.588 . S
C287 C88 1.587 . S
C302 C32 1.588 . S
C337 C46 1.588 . S
C352 C102 1.587 1_556 S
C387 C116 1.588 . S
C402 C60 1.588 . S
C437 C130 1.588 . S
C452 C74 1.587 1_554 S
C487 C117 0.962 . S
C502 C5 0.963 . S
C537 C19 0.962 . S
C552 C131 0.960 . S
C587 C145 0.960 . S
C602 C33 0.960 . S
C637 C47 0.963 . S
C652 C159 0.963 . S
C687 C61 0.961 . S
C702 C89 0.960 . S
C737 C75 0.962 . S
C752 C103 0.961 . S
C787 C151 1.367 . S
C802 C11 1.367 1_556 S
C837 C165 1.367 . S
C852 C25 1.367 . S
C887 C95 1.366 1_554 S
C902 C39 1.367 . S
C937 C53 1.368 . S
C952 C109 1.367 . S
C987 C67 1.367 . S
C1002 C123 1.366 . S
C1037 C137 1.367 . S
C1052 C81 1.367 . S
C1087 C12 0.965 . S
C1102 C110 0.964 . S
C1137 C124 0.965 . S
C1152 C26 0.964 . S
C1187 C138 0.964 . S
C1202 C40 0.964 . S
C1237 C54 0.965 . S
C1252 C152 0.964 . S
C1287 C68 0.964 . S
C1302 C166 0.965 . S
C1337 C82 0.964 . S
C1352 C96 0.964 . S
