# Generated by pormake.
# Topology uml, (4)-cn, num edge types: 1
# Building blocks:
#     Node 0, Type 0, BuildingBlock: QUQFOY_clean_sbu_1, # of connection points: 4
#     Node 1, Type 0, BuildingBlock: QUQFOY_clean_sbu_1, # of connection points: 4
#     Node 2, Type 0, BuildingBlock: QUQFOY_clean_sbu_1, # of connection points: 4
#     Node 3, Type 0, BuildingBlock: QUQFOY_clean_sbu_1, # of connection points: 4
#     Node 4, Type 0, BuildingBlock: QUQFOY_clean_sbu_1, # of connection points: 4
#     Node 5, Type 0, BuildingBlock: QUQFOY_clean_sbu_1, # of connection points: 4
#     Node 6, Type 0, BuildingBlock: QUQFOY_clean_sbu_1, # of connection points: 4
#     Node 7, Type 0, BuildingBlock: QUQFOY_clean_sbu_1, # of connection points: 4
#     Node 8, Type 0, BuildingBlock: QUQFOY_clean_sbu_1, # of connection points: 4
#     Node 9, Type 0, BuildingBlock: QUQFOY_clean_sbu_1, # of connection points: 4
#     Node 10, Type 0, BuildingBlock: QUQFOY_clean_sbu_1, # of connection points: 4
#     Node 11, Type 0, BuildingBlock: QUQFOY_clean_sbu_1, # of connection points: 4
#     Node 12, Type 0, BuildingBlock: QUQFOY_clean_sbu_1, # of connection points: 4
#     Node 13, Type 0, BuildingBlock: QUQFOY_clean_sbu_1, # of connection points: 4
#     Node 14, Type 0, BuildingBlock: QUQFOY_clean_sbu_1, # of connection points: 4
#     Node 15, Type 0, BuildingBlock: QUQFOY_clean_sbu_1, # of connection points: 4
#     Node 16, Type 0, BuildingBlock: QUQFOY_clean_sbu_1, # of connection points: 4
#     Node 17, Type 0, BuildingBlock: QUQFOY_clean_sbu_1, # of connection points: 4
#     Node 18, Type 0, BuildingBlock: QUQFOY_clean_sbu_1, # of connection points: 4
#     Node 19, Type 0, BuildingBlock: QUQFOY_clean_sbu_1, # of connection points: 4
#     Node 20, Type 0, BuildingBlock: QUQFOY_clean_sbu_1, # of connection points: 4
#     Node 21, Type 0, BuildingBlock: QUQFOY_clean_sbu_1, # of connection points: 4
#     Node 22, Type 0, BuildingBlock: QUQFOY_clean_sbu_1, # of connection points: 4
#     Node 23, Type 0, BuildingBlock: QUQFOY_clean_sbu_1, # of connection points: 4
#     Node 24, Type 0, BuildingBlock: QUQFOY_clean_sbu_1, # of connection points: 4
#     Node 25, Type 0, BuildingBlock: QUQFOY_clean_sbu_1, # of connection points: 4
#     Node 26, Type 0, BuildingBlock: QUQFOY_clean_sbu_1, # of connection points: 4
#     Node 27, Type 0, BuildingBlock: QUQFOY_clean_sbu_1, # of connection points: 4
#     Node 28, Type 0, BuildingBlock: QUQFOY_clean_sbu_1, # of connection points: 4
#     Node 29, Type 0, BuildingBlock: QUQFOY_clean_sbu_1, # of connection points: 4
#     Node 30, Type 0, BuildingBlock: QUQFOY_clean_sbu_1, # of connection points: 4
#     Node 31, Type 0, BuildingBlock: QUQFOY_clean_sbu_1, # of connection points: 4
#     Node 32, Type 0, BuildingBlock: QUQFOY_clean_sbu_1, # of connection points: 4
#     Node 33, Type 0, BuildingBlock: QUQFOY_clean_sbu_1, # of connection points: 4
#     Node 34, Type 0, BuildingBlock: QUQFOY_clean_sbu_1, # of connection points: 4
#     Node 35, Type 0, BuildingBlock: QUQFOY_clean_sbu_1, # of connection points: 4
#     Edge 36, Type (0, 0), None
#     Edge 37, Type (0, 0), None
#     Edge 38, Type (0, 0), None
#     Edge 39, Type (0, 0), None
#     Edge 40, Type (0, 0), None
#     Edge 41, Type (0, 0), None
#     Edge 42, Type (0, 0), None
#     Edge 43, Type (0, 0), None
#     Edge 44, Type (0, 0), None
#     Edge 45, Type (0, 0), None
#     Edge 46, Type (0, 0), None
#     Edge 47, Type (0, 0), None
#     Edge 48, Type (0, 0), None
#     Edge 49, Type (0, 0), None
#     Edge 50, Type (0, 0), None
#     Edge 51, Type (0, 0), None
#     Edge 52, Type (0, 0), None
#     Edge 53, Type (0, 0), None
#     Edge 54, Type (0, 0), None
#     Edge 55, Type (0, 0), None
#     Edge 56, Type (0, 0), None
#     Edge 57, Type (0, 0), None
#     Edge 58, Type (0, 0), None
#     Edge 59, Type (0, 0), None
#     Edge 60, Type (0, 0), None
#     Edge 61, Type (0, 0), None
#     Edge 62, Type (0, 0), None
#     Edge 63, Type (0, 0), None
#     Edge 64, Type (0, 0), None
#     Edge 65, Type (0, 0), None
#     Edge 66, Type (0, 0), None
#     Edge 67, Type (0, 0), None
#     Edge 68, Type (0, 0), None
#     Edge 69, Type (0, 0), None
#     Edge 70, Type (0, 0), None
#     Edge 71, Type (0, 0), None
#     Edge 72, Type (0, 0), None
#     Edge 73, Type (0, 0), None
#     Edge 74, Type (0, 0), None
#     Edge 75, Type (0, 0), None
#     Edge 76, Type (0, 0), None
#     Edge 77, Type (0, 0), None
#     Edge 78, Type (0, 0), None
#     Edge 79, Type (0, 0), None
#     Edge 80, Type (0, 0), None
#     Edge 81, Type (0, 0), None
#     Edge 82, Type (0, 0), None
#     Edge 83, Type (0, 0), None
#     Edge 84, Type (0, 0), None
#     Edge 85, Type (0, 0), None
#     Edge 86, Type (0, 0), None
#     Edge 87, Type (0, 0), None
#     Edge 88, Type (0, 0), None
#     Edge 89, Type (0, 0), None
#     Edge 90, Type (0, 0), None
#     Edge 91, Type (0, 0), None
#     Edge 92, Type (0, 0), None
#     Edge 93, Type (0, 0), None
#     Edge 94, Type (0, 0), None
#     Edge 95, Type (0, 0), None
#     Edge 96, Type (0, 0), None
#     Edge 97, Type (0, 0), None
#     Edge 98, Type (0, 0), None
#     Edge 99, Type (0, 0), None
#     Edge 100, Type (0, 0), None
#     Edge 101, Type (0, 0), None
#     Edge 102, Type (0, 0), None
#     Edge 103, Type (0, 0), None
#     Edge 104, Type (0, 0), None
#     Edge 105, Type (0, 0), None
#     Edge 106, Type (0, 0), None
#     Edge 107, Type (0, 0), None
# Relax obj value: 0.074
# Max RMSD: 0.210
# Mean RMSD: 0.189
data_MOF--net-uml--node1-QUQFOY_clean_sbu_1--edge1-none
_symmetry_space_group_name_H-M    P1
_symmetry_Int_Tables_number       1
_symmetry_cell_setting            triclinic
loop_
_symmetry_equiv_pos_as_xyz
'x, y, z'
_cell_length_a     43.296951
_cell_length_b     43.293564
_cell_length_c     12.758564
_cell_angle_alpha  90.001631
_cell_angle_beta   90.002698
_cell_angle_gamma 120.00336
loop_
_atom_site_label
_atom_site_type_symbol
_atom_site_fract_x
_atom_site_fract_y
_atom_site_fract_z
_atom_type_partial_charge
O0 O 0.40311 0.17696 0.21565 0.0
Cd1 Cd 0.41676 0.13777 0.22971 0.0
Cd2 Cd 0.47747 0.18915 0.13998 0.0
O3 O 0.45776 0.22231 0.19054 0.0
O4 O 0.38798 0.10801 0.35138 0.0
O5 O 0.44691 0.1417 0.35381 0.0
C6 C 0.41749 0.12173 0.40349 0.0
C7 C 0.52942 0.18675 0.14512 0.0
C8 C 0.42442 0.21026 0.20677 0.0
C9 C 0.42655 0.1262 1.0107 0.0
O10 O 0.45044 0.15866 1.01637 0.0
O11 O 0.41055 0.1092 0.09325 0.0
O12 O 0.52711 0.20922 0.08346 0.0
O13 O 0.50504 0.17101 0.21595 0.0
O14 O 0.96265 0.25396 0.21569 0.0
Cd15 Cd 1.00182 0.30681 0.22976 0.0
Cd16 Cd 0.95044 0.31613 0.14 0.0
O17 O 0.91729 0.26325 0.1905 0.0
O18 O 1.03158 0.30778 0.35146 0.0
O19 O 0.99789 0.33303 0.35385 0.0
C20 C 1.01786 0.32358 0.40355 0.0
C21 C 0.95277 0.37045 0.14509 0.0
C22 C 0.92934 0.24196 0.20676 0.0
C23 C 1.01341 0.32818 1.01076 0.0
O24 O 0.98095 0.31962 1.01642 0.0
O25 O 1.03039 0.32916 0.09333 0.0
O26 O 0.93033 0.34565 0.0834 0.0
O27 O 0.96852 0.36184 0.21596 0.0
O28 O 0.8857 0.73656 0.21564 0.0
Cd29 Cd 0.83286 0.72292 0.22969 0.0
Cd30 Cd 0.82351 0.66221 0.13992 0.0
O31 O 0.87638 0.6819 0.1905 0.0
O32 O 0.83191 0.75172 0.35136 0.0
O33 O 0.80664 0.69278 0.35379 0.0
C34 C 0.8161 0.72221 0.40346 0.0
C35 C 0.76915 0.61027 0.14507 0.0
C36 C 0.89769 0.71525 0.20674 0.0
C37 C 0.81152 0.71315 1.01067 0.0
O38 O 0.82008 0.68925 1.01632 0.0
O39 O 0.81052 0.72914 0.09324 0.0
O40 O 0.79392 0.61257 0.08341 0.0
O41 O 0.77781 0.63467 0.21589 0.0
O42 O 0.2048 0.37484 0.37342 0.0
Cd43 Cd 0.16555 0.38841 0.35945 0.0
Cd44 Cd 0.21686 0.44917 0.44898 0.0
O45 O 0.25008 0.42954 0.39838 0.0
O46 O 0.13582 0.35963 0.2377 0.0
O47 O 0.16945 0.41858 0.23547 0.0
C48 C 0.14951 0.38917 0.1857 0.0
C49 C 0.21434 0.50105 0.44383 0.0
C50 C 0.23809 0.3962 0.38221 0.0
C51 C 0.15402 0.39821 0.57846 0.0
O52 O 0.18646 0.42214 0.57268 0.0
O53 O 0.13701 0.38216 0.49596 0.0
O54 O 0.23686 0.4988 0.50544 0.0
O55 O 0.19861 0.47664 0.37306 0.0
O56 O 0.7647 0.85775 0.37333 0.0
Cd57 Cd 0.75112 0.80493 0.35936 0.0
Cd58 Cd 0.69037 0.7955 0.44891 0.0
O59 O 0.71001 0.84836 0.39839 0.0
O60 O 0.77989 0.80397 0.23763 0.0
O61 O 0.72095 0.77864 0.23538 0.0
C62 C 0.75036 0.78812 0.18562 0.0
C63 C 0.63843 0.74115 0.44387 0.0
C64 C 0.74335 0.8697 0.38218 0.0
C65 C 0.74133 0.78358 0.57836 0.0
O66 O 0.71739 0.79208 0.57258 0.0
O67 O 0.75738 0.78263 0.49587 0.0
O68 O 0.64076 0.76594 0.50551 0.0
O69 O 0.6628 0.74978 0.373 0.0
O70 O 0.28187 0.93476 0.37332 0.0
Cd71 Cd 0.33469 0.97401 0.35937 0.0
Cd72 Cd 0.3441 0.92268 0.44891 0.0
O73 O 0.29125 0.88946 0.39836 0.0
O74 O 0.33565 1.00374 0.23764 0.0
O75 O 0.36096 0.97011 0.2354 0.0
C76 C 0.35149 0.99005 0.18564 0.0
C77 C 0.39846 0.92511 0.44384 0.0
C78 C 0.26992 0.90146 0.38216 0.0
C79 C 0.35603 0.98555 0.57838 0.0
O80 O 0.34752 0.95311 0.5726 0.0
O81 O 0.35699 1.00256 0.49589 0.0
O82 O 0.37368 0.90263 0.50547 0.0
O83 O 0.38981 0.94085 0.37299 0.0
O84 O 0.7645 0.93466 0.87354 0.0
Cd85 Cd 0.75085 0.97385 0.85949 0.0
Cd86 Cd 0.69014 0.92247 0.94922 0.0
O87 O 0.70985 0.88931 0.89866 0.0
O88 O 0.77964 1.00361 0.73782 0.0
O89 O 0.72071 0.96993 0.73539 0.0
C90 C 0.75013 0.98989 0.68571 0.0
C91 C 0.6382 0.92487 0.94408 0.0
C92 C 0.7432 0.90136 0.88243 0.0
C93 C 0.74108 0.98542 0.07851 0.0
O94 O 0.71718 0.95296 0.07283 0.0
O95 O 0.75708 1.00242 0.99595 0.0
O96 O 0.64051 0.9024 1.00575 0.0
O97 O 0.66258 0.94061 0.87326 0.0
O98 O 0.20495 0.85766 0.87355 0.0
Cd99 Cd 0.16576 0.80482 0.85948 0.0
Cd100 Cd 0.21712 0.79548 0.94923 0.0
O101 O 0.2503 0.84835 0.89867 0.0
O102 O 0.13601 0.80386 0.73779 0.0
O103 O 0.16968 0.7786 0.73538 0.0
C104 C 0.14972 0.78805 0.68569 0.0
C105 C 0.21469 0.74111 0.94411 0.0
C106 C 0.23825 0.86965 0.88244 0.0
C107 C 0.15418 0.78347 0.07849 0.0
O108 O 0.18664 0.79204 0.07283 0.0
O109 O 0.13719 0.78247 0.99592 0.0
O110 O 0.23716 0.76589 1.00577 0.0
O111 O 0.19896 0.74976 0.87327 0.0
O112 O 0.28191 0.37504 0.8736 0.0
Cd113 Cd 0.33475 0.3887 0.85952 0.0
Cd114 Cd 0.34409 0.44941 0.94924 0.0
O115 O 0.29122 0.4297 0.89868 0.0
O116 O 0.33571 0.35991 0.73782 0.0
O117 O 0.36096 0.41885 0.73543 0.0
C118 C 0.35151 0.38943 0.68573 0.0
C119 C 0.39846 0.50134 0.94408 0.0
C120 C 0.26992 0.39635 0.88248 0.0
C121 C 0.3561 0.39848 0.07854 0.0
O122 O 0.34753 0.42238 0.07286 0.0
O123 O 0.3571 0.38249 0.99598 0.0
O124 O 0.37368 0.49905 1.00574 0.0
O125 O 0.3898 0.47695 0.87328 0.0
O126 O 0.96279 0.73677 0.71585 0.0
Cd127 Cd 1.00202 0.72318 0.72982 0.0
Cd128 Cd 0.95068 0.66243 0.64025 0.0
O129 O 0.91748 0.68209 0.69076 0.0
O130 O 1.03175 0.75194 0.85158 0.0
O131 O 0.99811 0.69299 0.85378 0.0
C132 C 1.01806 0.7224 0.90356 0.0
C133 C 0.95306 0.61048 0.64526 0.0
C134 C 0.92949 0.71543 0.70699 0.0
C135 C 1.01357 0.71337 0.51083 0.0
O136 O 0.98113 0.68944 0.5166 0.0
O137 O 1.03058 0.72943 0.59333 0.0
O138 O 0.9306 0.61281 0.58361 0.0
O139 O 0.96879 0.63484 0.71616 0.0
O140 O 0.40293 0.25386 0.71587 0.0
Cd141 Cd 0.4165 0.30669 0.72984 0.0
Cd142 Cd 0.47726 0.31611 0.64028 0.0
O143 O 0.45761 0.26326 0.6908 0.0
O144 O 0.38773 0.30765 0.85157 0.0
O145 O 0.44668 0.33297 0.85383 0.0
C146 C 0.41727 0.3235 0.90358 0.0
C147 C 0.52919 0.37046 0.64533 0.0
C148 C 0.42428 0.24192 0.70701 0.0
C149 C 0.42629 0.32804 0.51085 0.0
O150 O 0.45023 0.31953 0.51661 0.0
O151 O 0.41024 0.32899 0.59334 0.0
O152 O 0.52687 0.34568 0.58368 0.0
O153 O 0.50482 0.36183 0.7162 0.0
O154 O 0.88574 0.17686 0.71591 0.0
Cd155 Cd 0.83293 0.1376 0.72984 0.0
Cd156 Cd 0.8235 0.18893 0.64028 0.0
O157 O 0.87635 0.22215 0.69085 0.0
O158 O 0.83197 0.10787 0.85156 0.0
O159 O 0.80664 0.14148 0.85381 0.0
C160 C 0.81612 0.12155 0.90357 0.0
C161 C 0.76914 0.18649 0.64534 0.0
C162 C 0.89769 0.21016 0.70707 0.0
C163 C 0.81159 0.12605 0.51083 0.0
O164 O 0.82009 0.1585 0.5166 0.0
O165 O 0.81064 0.10905 0.59332 0.0
O166 O 0.79392 0.20897 0.5837 0.0
O167 O 0.77779 0.17076 0.71619 0.0
O168 O 1.06955 0.51029 0.54919 0.0
Cd169 Cd 1.08302 0.47097 0.56321 0.0
Cd170 Cd 0.1438 0.52222 0.47347 0.0
O171 O 0.12426 0.55552 0.52401 0.0
O172 O 1.05417 0.44127 0.68487 0.0
O173 O 0.11312 0.47478 0.68729 0.0
C174 C 1.08368 0.45489 0.73697 0.0
C175 C 0.19567 0.51972 0.47851 0.0
C176 C 0.09094 0.54358 0.54027 0.0
C177 C 0.09269 0.45934 0.3442 0.0
O178 O 0.11668 0.49177 0.34989 0.0
O179 O 1.07666 0.44237 0.42675 0.0
O180 O 0.1934 0.5422 0.4168 0.0
O181 O 0.1713 0.504 0.54938 0.0
O182 O 0.62937 0.58721 0.54934 0.0
Cd183 Cd 0.66864 0.64002 0.56336 0.0
Cd184 Cd 0.61735 0.64948 0.47366 0.0
O185 O 0.5841 0.59662 0.52414 0.0
O186 O 0.69835 0.64093 0.68508 0.0
O187 O 0.66478 0.66631 0.68737 0.0
C188 C 0.68469 0.6568 0.73711 0.0
C189 C 0.61976 0.70381 0.47865 0.0
C190 C 0.59608 0.57527 0.5404 0.0
C191 C 0.68025 0.66136 0.34437 0.0
O192 O 0.64782 0.65288 0.35008 0.0
O193 O 0.69723 0.66229 0.4269 0.0
O194 O 0.59731 0.67904 0.41694 0.0
O195 O 0.63548 0.69519 0.54959 0.0
O196 O 0.55243 0.07 0.54934 0.0
Cd197 Cd 0.49964 0.0565 0.56334 0.0
Cd198 Cd 0.49013 0.99572 0.47363 0.0
O199 O 0.54297 1.01529 0.52411 0.0
O200 O 0.49875 0.08531 0.68506 0.0
O201 O 0.47333 1.02636 0.68735 0.0
C202 C 0.48286 1.05579 0.73709 0.0
C203 C 0.4358 0.94379 0.4786 0.0
C204 C 0.56434 1.04862 0.54039 0.0
C205 C 0.4783 1.04679 0.34435 0.0
O206 O 0.48673 1.0228 0.35006 0.0
O207 O 0.47738 0.06284 0.42688 0.0
O208 O 0.46057 0.94612 0.41688 0.0
O209 O 0.44442 0.96814 0.54955 0.0
O210 O 0.87165 0.70846 0.70661 0.0
Cd211 Cd 0.83238 0.72199 0.69255 0.0
Cd212 Cd 0.88371 0.78278 0.78231 0.0
O213 O 0.91694 0.76314 0.73186 0.0
O214 O 0.80267 0.69316 0.57087 0.0
O215 O 0.83624 0.75212 0.56848 0.0
C216 C 0.81633 0.72268 0.51879 0.0
C217 C 0.88134 0.83474 0.77739 0.0
C218 C 0.90494 0.72981 0.71558 0.0
C219 C 0.82077 0.73175 0.9115 0.0
O220 O 0.85321 0.75571 0.90586 0.0
O221 O 0.80379 0.71568 0.82899 0.0
O222 O 0.90377 0.83238 0.83907 0.0
O223 O 0.86562 0.8104 0.70642 0.0
O224 O 0.43125 0.19104 0.70663 0.0
Cd225 Cd 0.41772 0.13824 0.69257 0.0
Cd226 Cd 0.35693 0.12877 0.78229 0.0
O227 O 0.37657 0.18164 0.73187 0.0
O228 O 0.44654 0.13735 0.57089 0.0
O229 O 0.38759 0.11196 0.5685 0.0
C230 C 0.41702 0.12149 0.51881 0.0
C231 C 0.30495 0.07445 0.77738 0.0
C232 C 0.4099 0.20299 0.7156 0.0
C233 C 0.40795 0.11685 0.91151 0.0
O234 O 0.38399 0.12532 0.90585 0.0
O235 O 0.42403 0.11596 0.82902 0.0
O236 O 0.30733 0.09925 0.83907 0.0
O237 O 0.32928 0.08305 0.7064 0.0
O238 O 0.94855 0.26802 0.70668 0.0
Cd239 Cd 1.00135 0.3073 0.69263 0.0
Cd240 Cd 1.01083 0.25598 0.78237 0.0
O241 O 0.95796 0.22274 0.73197 0.0
O242 O 1.00223 0.337 0.57094 0.0
O243 O 1.02763 0.30345 0.56858 0.0
C244 C 1.01809 0.32335 0.51888 0.0
C245 C 1.06512 0.25827 0.77747 0.0
C246 C 0.93661 0.23472 0.71568 0.0
C247 C 1.02275 0.31893 0.91157 0.0
O248 O 1.0143 0.2865 0.90592 0.0
O249 O 1.02362 0.3359 0.82908 0.0
O250 O 1.04032 0.23587 0.83918 0.0
O251 O 1.05653 0.274 0.70648 0.0
O252 O 0.43129 0.26808 0.20661 0.0
Cd253 Cd 0.41763 0.30727 0.19264 0.0
Cd254 Cd 0.35688 0.25585 0.28213 0.0
O255 O 0.37663 0.22272 0.23156 0.0
O256 O 0.44637 0.33703 0.07092 0.0
O257 O 0.38744 0.3033 0.06865 0.0
C258 C 0.41684 0.32328 1.01891 0.0
C259 C 0.30494 0.25825 0.27703 0.0
C260 C 0.40998 0.23477 0.2154 0.0
C261 C 0.40774 0.31876 0.4116 0.0
O262 O 0.38386 0.28629 0.40584 0.0
O263 O 0.42381 0.33579 0.32917 0.0
O264 O 0.30725 0.23576 0.33861 0.0
O265 O 0.32932 0.274 0.2062 0.0
O266 O 0.87153 0.191 0.20658 0.0
Cd267 Cd 0.83235 0.13815 0.19262 0.0
Cd268 Cd 0.88377 0.12884 0.28213 0.0
O269 O 0.9169 0.18172 0.23155 0.0
O270 O 0.80259 0.13712 0.0709 0.0
O271 O 0.83632 0.11192 0.06864 0.0
C272 C 0.81633 0.12134 1.01889 0.0
C273 C 0.88135 0.07449 0.27701 0.0
C274 C 0.90484 0.20301 0.21538 0.0
C275 C 0.82087 0.11678 0.41159 0.0
O276 O 0.85334 0.12537 0.40584 0.0
O277 O 0.80384 0.11581 0.32915 0.0
O278 O 0.90385 0.09928 0.33861 0.0
O279 O 0.86561 0.08313 0.20619 0.0
O280 O 0.94862 0.70837 0.20658 0.0
Cd281 Cd 1.00146 0.72202 0.19262 0.0
Cd282 Cd 1.01081 0.78278 0.2821 0.0
O283 O 0.95793 0.76303 0.23154 0.0
O284 O 1.00248 0.69328 0.07087 0.0
O285 O 1.0277 0.75222 0.06866 0.0
C286 C 1.01827 0.72282 1.01889 0.0
C287 C 1.06515 0.83471 0.27698 0.0
C288 C 0.93663 0.72968 0.21537 0.0
C289 C 1.02285 0.73192 0.41158 0.0
O290 O 1.01428 0.75581 0.40582 0.0
O291 O 1.0238 0.71584 0.32915 0.0
O292 O 1.04037 0.83242 0.33858 0.0
O293 O 1.05651 0.81033 0.20615 0.0
O294 O 0.62934 0.06984 0.04918 0.0
Cd295 Cd 0.66847 0.05611 0.0632 0.0
Cd296 Cd 0.61705 0.99542 0.97355 0.0
O297 O 0.58395 1.0152 1.02418 0.0
O298 O 0.69826 0.08485 0.18492 0.0
O299 O 0.66448 1.02592 0.18724 0.0
C300 C 0.68449 1.05532 0.23697 0.0
C301 C 0.61951 0.94353 0.97881 0.0
C302 C 0.59603 1.04855 1.04037 0.0
C303 C 0.67998 1.04627 0.84417 0.0
O304 O 0.6475 1.02242 0.84988 0.0
O305 O 0.69701 0.06226 0.92671 0.0
O306 O 0.59699 0.94577 0.91716 0.0
O307 O 0.63526 0.96793 0.04957 0.0
O308 O 1.06961 0.58733 0.04912 0.0
Cd309 Cd 1.08336 0.64021 0.06313 0.0
Cd310 Cd 0.14405 0.64945 0.9736 0.0
O311 O 0.12423 0.59655 1.02417 0.0
O312 O 1.05466 0.64128 0.18489 0.0
O313 O 0.11358 0.6664 0.18713 0.0
C314 C 0.08419 0.65703 0.2369 0.0
C315 C 0.196 0.70376 0.97886 0.0
C316 C 0.09088 0.57529 1.04032 0.0
C317 C 0.09325 0.66158 0.84413 0.0
O318 O 0.11709 0.65295 0.84989 0.0
O319 O 1.07724 0.6626 0.92663 0.0
O320 O 0.19371 0.67899 0.91721 0.0
O321 O 0.17161 0.69514 0.04964 0.0
O322 O 0.55232 0.51026 0.04918 0.0
Cd323 Cd 0.49947 0.4711 0.06318 0.0
Cd324 Cd 0.49016 0.52249 0.97355 0.0
O325 O 0.54304 0.55563 1.02417 0.0
O326 O 0.49845 0.44133 0.18489 0.0
O327 O 0.47326 0.47506 0.18723 0.0
C328 C 0.48267 0.45507 0.23695 0.0
C329 C 0.43581 0.52003 0.97879 0.0
C330 C 0.56433 0.54357 1.04036 0.0
C331 C 0.47812 0.45957 0.84416 0.0
O332 O 0.48672 0.49204 0.84988 0.0
O333 O 0.4771 0.44255 0.92669 0.0
O334 O 0.46056 0.54254 0.91714 0.0
O335 O 0.44446 0.50428 0.04955 0.0
O336 O 0.73633 0.84354 0.88261 0.0
Cd337 Cd 0.74999 0.80436 0.89657 0.0
Cd338 Cd 0.81074 0.85579 0.80706 0.0
O339 O 0.79098 0.88891 0.85761 0.0
O340 O 0.72125 0.77459 1.01829 0.0
O341 O 0.78019 0.80832 1.02055 0.0
C342 C 0.75079 0.78834 0.0703 0.0
C343 C 0.86267 0.85341 0.81221 0.0
C344 C 0.75763 0.87685 0.8738 0.0
C345 C 0.75989 0.79286 0.67761 0.0
O346 O 0.78377 0.82533 0.68336 0.0
O347 O 0.74381 0.77583 0.76004 0.0
O348 O 0.86037 0.87589 0.75057 0.0
O349 O 0.8383 0.83765 0.88305 0.0
O350 O 0.29607 0.92059 0.88261 0.0
Cd351 Cd 0.33526 0.97344 0.89658 0.0
Cd352 Cd 0.28384 0.98278 0.80706 0.0
O353 O 0.25071 0.92989 0.85763 0.0
O354 O 0.36502 0.97447 1.01831 0.0
O355 O 0.3313 0.99968 1.02056 0.0
C356 C 0.35128 0.99026 0.07031 0.0
C357 C 0.28626 1.03711 0.8122 0.0
C358 C 0.26276 0.9086 0.87381 0.0
C359 C 0.34675 0.99483 0.67762 0.0
O360 O 0.31429 0.98625 0.68336 0.0
O361 O 0.36378 0.99579 0.76006 0.0
O362 O 0.26377 1.01233 0.75057 0.0
O363 O 0.30201 1.02848 0.88304 0.0
O364 O 0.21897 0.40321 0.88268 0.0
Cd365 Cd 0.16613 0.38954 0.89665 0.0
Cd366 Cd 0.1568 0.3288 0.80713 0.0
O367 O 0.20968 0.34855 0.8577 0.0
O368 O 0.1651 0.41828 1.01838 0.0
O369 O 0.13989 0.35934 1.02062 0.0
C370 C 0.14931 0.38874 0.07038 0.0
C371 C 0.10246 0.2769 0.8123 0.0
C372 C 0.23097 0.3819 0.87387 0.0
C373 C 0.14474 0.37965 0.67769 0.0
O374 O 0.15333 0.35577 0.68343 0.0
O375 O 0.14378 0.39571 0.76013 0.0
O376 O 0.12722 0.27916 0.75066 0.0
O377 O 0.1111 0.30128 0.88313 0.0
O378 O 0.53825 1.04175 1.0402 0.0
Cd379 Cd 0.4991 1.05546 1.02617 0.0
Cd380 Cd 0.55055 0.11619 0.11575 0.0
O381 O 0.58364 0.09639 0.06518 0.0
O382 O 0.46932 1.02671 0.90446 0.0
O383 O 0.50309 0.08564 0.90212 0.0
C384 C 0.48309 0.05624 0.85241 0.0
C385 C 0.54811 0.16809 0.11041 0.0
C386 C 0.57156 0.06303 0.04901 0.0
C387 C 0.48762 0.06537 0.24514 0.0
O388 O 0.52009 0.08922 0.23945 0.0
O389 O 0.47059 1.04932 0.16267 0.0
O390 O 0.57062 0.16585 0.17207 0.0
O391 O 0.53236 0.14368 1.03967 0.0
O392 O 0.09766 0.5243 1.04011 0.0
Cd393 Cd 0.08395 0.47144 1.02605 0.0
Cd394 Cd 1.02325 0.46218 0.11572 0.0
O395 O 1.04303 0.51507 0.06512 0.0
O396 O 0.11272 0.47043 0.9044 0.0
O397 O 1.05379 0.44525 0.90194 0.0
C398 C 1.08321 0.45467 0.85229 0.0
C399 C 0.97139 0.4078 0.11038 0.0
C400 C 1.07639 0.53634 0.04894 0.0
C401 C 1.07409 0.45007 0.24504 0.0
O402 O 1.05025 0.45871 0.23938 0.0
O403 O 0.0901 0.44906 0.16253 0.0
O404 O 0.9736 0.43255 0.17204 0.0
O405 O 0.9958 0.41648 1.03963 0.0
O406 O 0.61528 0.60138 1.0402 0.0
Cd407 Cd 0.66812 0.64056 1.02618 0.0
Cd408 Cd 0.67745 0.58913 0.11574 0.0
O409 O 0.62456 0.55601 0.06517 0.0
O410 O 0.66914 0.67033 0.90448 0.0
O411 O 0.69433 0.63659 0.90215 0.0
C412 C 0.68491 0.65658 0.85244 0.0
C413 C 0.7318 0.59158 0.11038 0.0
C414 C 0.60327 0.56807 0.049 0.0
C415 C 0.68953 0.65206 0.24516 0.0
O416 O 0.68094 0.61959 0.23945 0.0
O417 O 0.69049 0.66908 0.1627 0.0
O418 O 0.70705 0.56907 0.17205 0.0
O419 O 0.72314 0.60734 1.03965 0.0
O420 O 0.09801 0.60147 0.53993 0.0
Cd421 Cd 0.08452 0.64078 0.52595 0.0
Cd422 Cd 1.02368 0.58947 0.61549 0.0
O423 O 1.0433 0.55622 0.56511 0.0
O424 O 0.11331 0.67047 0.4042 0.0
O425 O 1.05435 0.63693 0.402 0.0
C426 C 1.08377 0.65682 0.35222 0.0
C427 C 0.97172 0.59181 0.61045 0.0
C428 C 1.07662 0.56818 0.54886 0.0
C429 C 1.0747 0.65238 0.74487 0.0
O430 O 1.0507 0.61996 0.73912 0.0
O431 O 0.09084 0.66935 0.66244 0.0
O432 O 0.97408 0.56938 0.67218 0.0
O433 O 0.99606 0.60754 0.5395 0.0
O434 O 0.53822 0.52442 0.54004 0.0
Cd435 Cd 0.49894 0.47161 0.52601 0.0
Cd436 Cd 0.55026 0.46213 0.61565 0.0
O437 O 0.58349 0.515 0.56523 0.0
O438 O 0.46923 0.47071 0.4043 0.0
O439 O 0.5028 0.44532 0.402 0.0
C440 C 0.48289 0.45484 0.35227 0.0
C441 C 0.54786 0.40781 0.61056 0.0
C442 C 0.57151 0.53635 0.54898 0.0
C443 C 0.48735 0.45022 0.74495 0.0
O444 O 0.51978 0.45868 0.73926 0.0
O445 O 0.47036 0.44934 0.66248 0.0
O446 O 0.57031 0.43258 0.67229 0.0
O447 O 0.53214 0.41643 0.53965 0.0
O448 O 0.61517 1.04157 0.54003 0.0
Cd449 Cd 0.66795 1.05505 0.52602 0.0
Cd450 Cd 0.67748 0.11588 0.61565 0.0
O451 O 0.62463 0.09628 0.56523 0.0
O452 O 0.66883 1.02624 0.40431 0.0
O453 O 0.69426 0.0852 0.40203 0.0
C454 C 0.68472 1.05577 0.35229 0.0
C455 C 0.7318 0.16782 0.61058 0.0
C456 C 0.60326 0.06295 0.54897 0.0
C457 C 0.68935 0.06485 0.74497 0.0
O458 O 0.68092 0.08884 0.73926 0.0
O459 O 0.69021 1.04873 0.66251 0.0
O460 O 0.70704 0.16549 0.67231 0.0
O461 O 0.72318 0.14346 0.53966 0.0
O462 O 0.29595 0.4032 0.38258 0.0
Cd463 Cd 0.33522 0.38966 0.39665 0.0
Cd464 Cd 0.2839 0.32886 0.30689 0.0
O465 O 0.25067 0.3485 0.35733 0.0
O466 O 0.36493 0.41848 0.51835 0.0
O467 O 0.33136 0.35953 0.5207 0.0
C468 C 0.35127 0.38896 0.57041 0.0
C469 C 0.28628 0.27692 0.31184 0.0
C470 C 0.26266 0.38184 0.3736 0.0
C471 C 0.34684 0.37989 0.17771 0.0
O472 O 0.31441 0.35592 0.18334 0.0
O473 O 0.36381 0.39597 0.26022 0.0
O474 O 0.26384 0.27926 0.25013 0.0
O475 O 0.302 0.30125 0.38281 0.0
O476 O 0.73637 0.92057 0.38258 0.0
Cd477 Cd 0.74991 0.97338 0.39663 0.0
Cd478 Cd 0.8107 0.98284 0.30688 0.0
O479 O 0.79105 0.92997 0.3573 0.0
O480 O 0.72108 0.97426 0.51831 0.0
O481 O 0.78004 0.99966 0.5207 0.0
C482 C 0.7506 0.99013 0.57039 0.0
C483 C 0.86267 1.03715 0.31183 0.0
C484 C 0.75772 0.90863 0.37359 0.0
C485 C 0.75967 0.99477 0.17769 0.0
O486 O 0.78364 0.9863 0.18334 0.0
O487 O 0.74359 0.99565 0.26019 0.0
O488 O 0.86029 1.01236 0.2501 0.0
O489 O 0.83834 1.02855 0.38281 0.0
O490 O 0.21904 0.84361 0.38255 0.0
Cd491 Cd 0.16624 0.80434 0.39661 0.0
Cd492 Cd 0.15678 0.85568 0.30686 0.0
O493 O 0.20965 0.8889 0.35727 0.0
O494 O 0.16534 0.77463 0.51829 0.0
O495 O 0.13996 0.8082 0.52067 0.0
C496 C 0.14949 0.78829 0.57036 0.0
C497 C 0.10249 0.85336 0.31181 0.0
C498 C 0.23099 0.87691 0.37356 0.0
C499 C 0.14484 0.79272 0.17767 0.0
O500 O 0.15331 0.82516 0.18331 0.0
O501 O 0.14395 0.77575 0.26016 0.0
O502 O 0.12728 0.87578 0.25007 0.0
O503 O 0.11108 0.83763 0.38279 0.0
loop_
_geom_bond_atom_site_label_1
_geom_bond_atom_site_label_2
_geom_bond_distance
_geom_bond_site_symmetry_2
_ccdc_geom_bond_type
O0 Cd1 2.223 . S
O0 C8 1.315 . S
Cd1 O0 2.223 . S
Cd1 O4 2.297 . S
Cd1 O5 2.439 . S
Cd1 O11 2.240 . S
Cd2 O3 2.240 . S
Cd2 O10 2.223 1_554 S
Cd2 O12 2.297 1_554 S
Cd2 O13 2.439 . S
O3 Cd2 2.240 . S
O3 C8 1.279 . S
O4 Cd1 2.297 . S
O4 C6 1.247 . S
O5 Cd1 2.439 . S
O5 C6 1.208 . S
C6 O4 1.247 . S
C6 O5 1.208 . S
C7 O12 1.247 1_554 S
C7 O13 1.208 . S
C8 O0 1.315 . S
C8 O3 1.279 . S
C9 O10 1.315 . S
C9 O11 1.279 1_556 S
O10 Cd2 2.223 1_556 S
O10 C9 1.315 . S
O11 Cd1 2.240 . S
O11 C9 1.279 1_554 S
O12 Cd2 2.297 1_556 S
O12 C7 1.247 1_556 S
O13 Cd2 2.439 . S
O13 C7 1.208 . S
O14 Cd15 2.223 . S
O14 C22 1.315 . S
Cd15 O14 2.223 . S
Cd15 O18 2.297 . S
Cd15 O19 2.439 . S
Cd15 O25 2.240 . S
Cd16 O17 2.240 . S
Cd16 O24 2.223 1_554 S
Cd16 O26 2.297 1_554 S
Cd16 O27 2.439 . S
O17 Cd16 2.240 . S
O17 C22 1.279 . S
O18 Cd15 2.297 . S
O18 C20 1.247 . S
O19 Cd15 2.439 . S
O19 C20 1.208 . S
C20 O18 1.247 . S
C20 O19 1.208 . S
C21 O26 1.247 1_554 S
C21 O27 1.208 . S
C22 O14 1.315 . S
C22 O17 1.279 . S
C23 O24 1.315 . S
C23 O25 1.279 1_556 S
O24 Cd16 2.223 1_556 S
O24 C23 1.315 . S
O25 Cd15 2.240 . S
O25 C23 1.279 1_554 S
O26 Cd16 2.297 1_556 S
O26 C21 1.247 1_556 S
O27 Cd16 2.439 . S
O27 C21 1.208 . S
O28 Cd29 2.223 . S
O28 C36 1.315 . S
Cd29 O28 2.223 . S
Cd29 O32 2.297 . S
Cd29 O33 2.439 . S
Cd29 O39 2.240 . S
Cd30 O31 2.240 . S
Cd30 O38 2.223 1_554 S
Cd30 O40 2.297 1_554 S
Cd30 O41 2.439 . S
O31 Cd30 2.240 . S
O31 C36 1.279 . S
O32 Cd29 2.297 . S
O32 C34 1.247 . S
O33 Cd29 2.439 . S
O33 C34 1.208 . S
C34 O32 1.247 . S
C34 O33 1.208 . S
C35 O40 1.247 1_554 S
C35 O41 1.208 . S
C36 O28 1.315 . S
C36 O31 1.279 . S
C37 O38 1.315 . S
C37 O39 1.279 1_556 S
O38 Cd30 2.223 1_556 S
O38 C37 1.315 . S
O39 Cd29 2.240 . S
O39 C37 1.279 1_554 S
O40 Cd30 2.297 1_556 S
O40 C35 1.247 1_556 S
O41 Cd30 2.439 . S
O41 C35 1.208 . S
O42 Cd43 2.223 . S
O42 C50 1.315 . S
Cd43 O42 2.223 . S
Cd43 O46 2.297 . S
Cd43 O47 2.439 . S
Cd43 O53 2.240 . S
Cd44 O45 2.240 . S
Cd44 O52 2.223 . S
Cd44 O54 2.297 . S
Cd44 O55 2.439 . S
O45 Cd44 2.240 . S
O45 C50 1.279 . S
O46 Cd43 2.297 . S
O46 C48 1.247 . S
O47 Cd43 2.439 . S
O47 C48 1.208 . S
C48 O46 1.247 . S
C48 O47 1.208 . S
C49 O54 1.247 . S
C49 O55 1.208 . S
C50 O42 1.315 . S
C50 O45 1.279 . S
C51 O52 1.315 . S
C51 O53 1.279 . S
O52 Cd44 2.223 . S
O52 C51 1.315 . S
O53 Cd43 2.240 . S
O53 C51 1.279 . S
O54 Cd44 2.297 . S
O54 C49 1.247 . S
O55 Cd44 2.439 . S
O55 C49 1.208 . S
O56 Cd57 2.223 . S
O56 C64 1.315 . S
Cd57 O56 2.223 . S
Cd57 O60 2.297 . S
Cd57 O61 2.439 . S
Cd57 O67 2.240 . S
Cd58 O59 2.240 . S
Cd58 O66 2.223 . S
Cd58 O68 2.297 . S
Cd58 O69 2.439 . S
O59 Cd58 2.240 . S
O59 C64 1.279 . S
O60 Cd57 2.297 . S
O60 C62 1.247 . S
O61 Cd57 2.439 . S
O61 C62 1.208 . S
C62 O60 1.247 . S
C62 O61 1.208 . S
C63 O68 1.247 . S
C63 O69 1.208 . S
C64 O56 1.315 . S
C64 O59 1.279 . S
C65 O66 1.315 . S
C65 O67 1.279 . S
O66 Cd58 2.223 . S
O66 C65 1.315 . S
O67 Cd57 2.240 . S
O67 C65 1.279 . S
O68 Cd58 2.297 . S
O68 C63 1.247 . S
O69 Cd58 2.439 . S
O69 C63 1.208 . S
O70 Cd71 2.223 . S
O70 C78 1.315 . S
Cd71 O70 2.223 . S
Cd71 O74 2.297 . S
Cd71 O75 2.439 . S
Cd71 O81 2.240 . S
Cd72 O73 2.240 . S
Cd72 O80 2.223 . S
Cd72 O82 2.297 . S
Cd72 O83 2.439 . S
O73 Cd72 2.240 . S
O73 C78 1.279 . S
O74 Cd71 2.297 . S
O74 C76 1.247 . S
O75 Cd71 2.439 . S
O75 C76 1.208 . S
C76 O74 1.247 . S
C76 O75 1.208 . S
C77 O82 1.247 . S
C77 O83 1.208 . S
C78 O70 1.315 . S
C78 O73 1.279 . S
C79 O80 1.315 . S
C79 O81 1.279 . S
O80 Cd72 2.223 . S
O80 C79 1.315 . S
O81 Cd71 2.240 . S
O81 C79 1.279 . S
O82 Cd72 2.297 . S
O82 C77 1.247 . S
O83 Cd72 2.439 . S
O83 C77 1.208 . S
O84 Cd85 2.223 . S
O84 C92 1.315 . S
Cd85 O84 2.223 . S
Cd85 O88 2.297 . S
Cd85 O89 2.439 . S
Cd85 O95 2.240 . S
Cd86 O87 2.240 . S
Cd86 O94 2.223 1_556 S
Cd86 O96 2.297 1_556 S
Cd86 O97 2.439 . S
O87 Cd86 2.240 . S
O87 C92 1.279 . S
O88 Cd85 2.297 . S
O88 C90 1.247 . S
O89 Cd85 2.439 . S
O89 C90 1.208 . S
C90 O88 1.247 . S
C90 O89 1.208 . S
C91 O96 1.247 1_556 S
C91 O97 1.208 . S
C92 O84 1.315 . S
C92 O87 1.279 . S
C93 O94 1.315 . S
C93 O95 1.279 1_554 S
O94 Cd86 2.223 1_554 S
O94 C93 1.315 . S
O95 Cd85 2.240 . S
O95 C93 1.279 1_556 S
O96 Cd86 2.297 1_554 S
O96 C91 1.247 1_554 S
O97 Cd86 2.439 . S
O97 C91 1.208 . S
O98 Cd99 2.223 . S
O98 C106 1.315 . S
Cd99 O98 2.223 . S
Cd99 O102 2.297 . S
Cd99 O103 2.439 . S
Cd99 O109 2.240 . S
Cd100 O101 2.240 . S
Cd100 O108 2.223 1_556 S
Cd100 O110 2.297 1_556 S
Cd100 O111 2.439 . S
O101 Cd100 2.240 . S
O101 C106 1.279 . S
O102 Cd99 2.297 . S
O102 C104 1.247 . S
O103 Cd99 2.439 . S
O103 C104 1.208 . S
C104 O102 1.247 . S
C104 O103 1.208 . S
C105 O110 1.247 1_556 S
C105 O111 1.208 . S
C106 O98 1.315 . S
C106 O101 1.279 . S
C107 O108 1.315 . S
C107 O109 1.279 1_554 S
O108 Cd100 2.223 1_554 S
O108 C107 1.315 . S
O109 Cd99 2.240 . S
O109 C107 1.279 1_556 S
O110 Cd100 2.297 1_554 S
O110 C105 1.247 1_554 S
O111 Cd100 2.439 . S
O111 C105 1.208 . S
O112 Cd113 2.223 . S
O112 C120 1.315 . S
Cd113 O112 2.223 . S
Cd113 O116 2.297 . S
Cd113 O117 2.439 . S
Cd113 O123 2.240 . S
Cd114 O115 2.240 . S
Cd114 O122 2.223 1_556 S
Cd114 O124 2.297 1_556 S
Cd114 O125 2.439 . S
O115 Cd114 2.240 . S
O115 C120 1.279 . S
O116 Cd113 2.297 . S
O116 C118 1.247 . S
O117 Cd113 2.439 . S
O117 C118 1.208 . S
C118 O116 1.247 . S
C118 O117 1.208 . S
C119 O124 1.247 1_556 S
C119 O125 1.208 . S
C120 O112 1.315 . S
C120 O115 1.279 . S
C121 O122 1.315 . S
C121 O123 1.279 1_554 S
O122 Cd114 2.223 1_554 S
O122 C121 1.315 . S
O123 Cd113 2.240 . S
O123 C121 1.279 1_556 S
O124 Cd114 2.297 1_554 S
O124 C119 1.247 1_554 S
O125 Cd114 2.439 . S
O125 C119 1.208 . S
O126 Cd127 2.223 . S
O126 C134 1.315 . S
Cd127 O126 2.223 . S
Cd127 O130 2.297 . S
Cd127 O131 2.439 . S
Cd127 O137 2.240 . S
Cd128 O129 2.240 . S
Cd128 O136 2.223 . S
Cd128 O138 2.297 . S
Cd128 O139 2.439 . S
O129 Cd128 2.240 . S
O129 C134 1.279 . S
O130 Cd127 2.297 . S
O130 C132 1.247 . S
O131 Cd127 2.439 . S
O131 C132 1.208 . S
C132 O130 1.247 . S
C132 O131 1.208 . S
C133 O138 1.247 . S
C133 O139 1.208 . S
C134 O126 1.315 . S
C134 O129 1.279 . S
C135 O136 1.315 . S
C135 O137 1.279 . S
O136 Cd128 2.223 . S
O136 C135 1.315 . S
O137 Cd127 2.240 . S
O137 C135 1.279 . S
O138 Cd128 2.297 . S
O138 C133 1.247 . S
O139 Cd128 2.439 . S
O139 C133 1.208 . S
O140 Cd141 2.223 . S
O140 C148 1.315 . S
Cd141 O140 2.223 . S
Cd141 O144 2.297 . S
Cd141 O145 2.439 . S
Cd141 O151 2.240 . S
Cd142 O143 2.240 . S
Cd142 O150 2.223 . S
Cd142 O152 2.297 . S
Cd142 O153 2.439 . S
O143 Cd142 2.240 . S
O143 C148 1.279 . S
O144 Cd141 2.297 . S
O144 C146 1.247 . S
O145 Cd141 2.439 . S
O145 C146 1.208 . S
C146 O144 1.247 . S
C146 O145 1.208 . S
C147 O152 1.247 . S
C147 O153 1.208 . S
C148 O140 1.315 . S
C148 O143 1.279 . S
C149 O150 1.315 . S
C149 O151 1.279 . S
O150 Cd142 2.223 . S
O150 C149 1.315 . S
O151 Cd141 2.240 . S
O151 C149 1.279 . S
O152 Cd142 2.297 . S
O152 C147 1.247 . S
O153 Cd142 2.439 . S
O153 C147 1.208 . S
O154 Cd155 2.223 . S
O154 C162 1.315 . S
Cd155 O154 2.223 . S
Cd155 O158 2.297 . S
Cd155 O159 2.439 . S
Cd155 O165 2.240 . S
Cd156 O157 2.240 . S
Cd156 O164 2.223 . S
Cd156 O166 2.297 . S
Cd156 O167 2.439 . S
O157 Cd156 2.240 . S
O157 C162 1.279 . S
O158 Cd155 2.297 . S
O158 C160 1.247 . S
O159 Cd155 2.439 . S
O159 C160 1.208 . S
C160 O158 1.247 . S
C160 O159 1.208 . S
C161 O166 1.247 . S
C161 O167 1.208 . S
C162 O154 1.315 . S
C162 O157 1.279 . S
C163 O164 1.315 . S
C163 O165 1.279 . S
O164 Cd156 2.223 . S
O164 C163 1.315 . S
O165 Cd155 2.240 . S
O165 C163 1.279 . S
O166 Cd156 2.297 . S
O166 C161 1.247 . S
O167 Cd156 2.439 . S
O167 C161 1.208 . S
O168 Cd169 2.223 . S
O168 C176 1.315 1_655 S
Cd169 O168 2.223 . S
Cd169 O172 2.297 . S
Cd169 O173 2.439 1_655 S
Cd169 O179 2.240 . S
Cd170 O171 2.240 . S
Cd170 O178 2.223 . S
Cd170 O180 2.297 . S
Cd170 O181 2.439 . S
O171 Cd170 2.240 . S
O171 C176 1.279 . S
O172 Cd169 2.297 . S
O172 C174 1.247 . S
O173 Cd169 2.439 1_455 S
O173 C174 1.208 1_455 S
C174 O172 1.247 . S
C174 O173 1.208 1_655 S
C175 O180 1.247 . S
C175 O181 1.208 . S
C176 O168 1.315 1_455 S
C176 O171 1.279 . S
C177 O178 1.315 . S
C177 O179 1.279 1_455 S
O178 Cd170 2.223 . S
O178 C177 1.315 . S
O179 Cd169 2.240 . S
O179 C177 1.279 1_655 S
O180 Cd170 2.297 . S
O180 C175 1.247 . S
O181 Cd170 2.439 . S
O181 C175 1.208 . S
O182 Cd183 2.223 . S
O182 C190 1.315 . S
Cd183 O182 2.223 . S
Cd183 O186 2.297 . S
Cd183 O187 2.439 . S
Cd183 O193 2.240 . S
Cd184 O185 2.240 . S
Cd184 O192 2.223 . S
Cd184 O194 2.297 . S
Cd184 O195 2.439 . S
O185 Cd184 2.240 . S
O185 C190 1.279 . S
O186 Cd183 2.297 . S
O186 C188 1.247 . S
O187 Cd183 2.439 . S
O187 C188 1.208 . S
C188 O186 1.247 . S
C188 O187 1.208 . S
C189 O194 1.247 . S
C189 O195 1.208 . S
C190 O182 1.315 . S
C190 O185 1.279 . S
C191 O192 1.315 . S
C191 O193 1.279 . S
O192 Cd184 2.223 . S
O192 C191 1.315 . S
O193 Cd183 2.240 . S
O193 C191 1.279 . S
O194 Cd184 2.297 . S
O194 C189 1.247 . S
O195 Cd184 2.439 . S
O195 C189 1.208 . S
O196 Cd197 2.223 . S
O196 C204 1.315 1_545 S
Cd197 O196 2.223 . S
Cd197 O200 2.297 . S
Cd197 O201 2.439 1_545 S
Cd197 O207 2.240 . S
Cd198 O199 2.240 . S
Cd198 O206 2.223 . S
Cd198 O208 2.297 . S
Cd198 O209 2.439 . S
O199 Cd198 2.240 . S
O199 C204 1.279 . S
O200 Cd197 2.297 . S
O200 C202 1.247 . S
O201 Cd197 2.439 1_565 S
O201 C202 1.208 1_565 S
C202 O200 1.247 . S
C202 O201 1.208 1_545 S
C203 O208 1.247 . S
C203 O209 1.208 . S
C204 O196 1.315 1_565 S
C204 O199 1.279 . S
C205 O206 1.315 . S
C205 O207 1.279 1_565 S
O206 Cd198 2.223 . S
O206 C205 1.315 . S
O207 Cd197 2.240 . S
O207 C205 1.279 1_545 S
O208 Cd198 2.297 . S
O208 C203 1.247 . S
O209 Cd198 2.439 . S
O209 C203 1.208 . S
O210 Cd211 2.223 . S
O210 C218 1.315 . S
Cd211 O210 2.223 . S
Cd211 O214 2.297 . S
Cd211 O215 2.439 . S
Cd211 O221 2.240 . S
Cd212 O213 2.240 . S
Cd212 O220 2.223 . S
Cd212 O222 2.297 . S
Cd212 O223 2.439 . S
O213 Cd212 2.240 . S
O213 C218 1.279 . S
O214 Cd211 2.297 . S
O214 C216 1.247 . S
O215 Cd211 2.439 . S
O215 C216 1.208 . S
C216 O214 1.247 . S
C216 O215 1.208 . S
C217 O222 1.247 . S
C217 O223 1.208 . S
C218 O210 1.315 . S
C218 O213 1.279 . S
C219 O220 1.315 . S
C219 O221 1.279 . S
O220 Cd212 2.223 . S
O220 C219 1.315 . S
O221 Cd211 2.240 . S
O221 C219 1.279 . S
O222 Cd212 2.297 . S
O222 C217 1.247 . S
O223 Cd212 2.439 . S
O223 C217 1.208 . S
O224 Cd225 2.223 . S
O224 C232 1.315 . S
Cd225 O224 2.223 . S
Cd225 O228 2.297 . S
Cd225 O229 2.439 . S
Cd225 O235 2.240 . S
Cd226 O227 2.240 . S
Cd226 O234 2.223 . S
Cd226 O236 2.297 . S
Cd226 O237 2.439 . S
O227 Cd226 2.240 . S
O227 C232 1.279 . S
O228 Cd225 2.297 . S
O228 C230 1.247 . S
O229 Cd225 2.439 . S
O229 C230 1.208 . S
C230 O228 1.247 . S
C230 O229 1.208 . S
C231 O236 1.247 . S
C231 O237 1.208 . S
C232 O224 1.315 . S
C232 O227 1.279 . S
C233 O234 1.315 . S
C233 O235 1.279 . S
O234 Cd226 2.223 . S
O234 C233 1.315 . S
O235 Cd225 2.240 . S
O235 C233 1.279 . S
O236 Cd226 2.297 . S
O236 C231 1.247 . S
O237 Cd226 2.439 . S
O237 C231 1.208 . S
O238 Cd239 2.223 . S
O238 C246 1.315 . S
Cd239 O238 2.223 . S
Cd239 O242 2.297 . S
Cd239 O243 2.439 . S
Cd239 O249 2.240 . S
Cd240 O241 2.240 . S
Cd240 O248 2.223 . S
Cd240 O250 2.297 . S
Cd240 O251 2.439 . S
O241 Cd240 2.240 . S
O241 C246 1.279 . S
O242 Cd239 2.297 . S
O242 C244 1.247 . S
O243 Cd239 2.439 . S
O243 C244 1.208 . S
C244 O242 1.247 . S
C244 O243 1.208 . S
C245 O250 1.247 . S
C245 O251 1.208 . S
C246 O238 1.315 . S
C246 O241 1.279 . S
C247 O248 1.315 . S
C247 O249 1.279 . S
O248 Cd240 2.223 . S
O248 C247 1.315 . S
O249 Cd239 2.240 . S
O249 C247 1.279 . S
O250 Cd240 2.297 . S
O250 C245 1.247 . S
O251 Cd240 2.439 . S
O251 C245 1.208 . S
O252 Cd253 2.223 . S
O252 C260 1.315 . S
Cd253 O252 2.223 . S
Cd253 O256 2.297 1_554 S
Cd253 O257 2.439 . S
Cd253 O263 2.240 . S
Cd254 O255 2.240 . S
Cd254 O262 2.223 . S
Cd254 O264 2.297 . S
Cd254 O265 2.439 . S
O255 Cd254 2.240 . S
O255 C260 1.279 . S
O256 Cd253 2.297 1_556 S
O256 C258 1.247 . S
O257 Cd253 2.439 . S
O257 C258 1.208 1_554 S
C258 O256 1.247 . S
C258 O257 1.208 1_556 S
C259 O264 1.247 . S
C259 O265 1.208 . S
C260 O252 1.315 . S
C260 O255 1.279 . S
C261 O262 1.315 . S
C261 O263 1.279 . S
O262 Cd254 2.223 . S
O262 C261 1.315 . S
O263 Cd253 2.240 . S
O263 C261 1.279 . S
O264 Cd254 2.297 . S
O264 C259 1.247 . S
O265 Cd254 2.439 . S
O265 C259 1.208 . S
O266 Cd267 2.223 . S
O266 C274 1.315 . S
Cd267 O266 2.223 . S
Cd267 O270 2.297 1_554 S
Cd267 O271 2.439 . S
Cd267 O277 2.240 . S
Cd268 O269 2.240 . S
Cd268 O276 2.223 . S
Cd268 O278 2.297 . S
Cd268 O279 2.439 . S
O269 Cd268 2.240 . S
O269 C274 1.279 . S
O270 Cd267 2.297 1_556 S
O270 C272 1.247 . S
O271 Cd267 2.439 . S
O271 C272 1.208 1_554 S
C272 O270 1.247 . S
C272 O271 1.208 1_556 S
C273 O278 1.247 . S
C273 O279 1.208 . S
C274 O266 1.315 . S
C274 O269 1.279 . S
C275 O276 1.315 . S
C275 O277 1.279 . S
O276 Cd268 2.223 . S
O276 C275 1.315 . S
O277 Cd267 2.240 . S
O277 C275 1.279 . S
O278 Cd268 2.297 . S
O278 C273 1.247 . S
O279 Cd268 2.439 . S
O279 C273 1.208 . S
O280 Cd281 2.223 . S
O280 C288 1.315 . S
Cd281 O280 2.223 . S
Cd281 O284 2.297 1_554 S
Cd281 O285 2.439 . S
Cd281 O291 2.240 . S
Cd282 O283 2.240 . S
Cd282 O290 2.223 . S
Cd282 O292 2.297 . S
Cd282 O293 2.439 . S
O283 Cd282 2.240 . S
O283 C288 1.279 . S
O284 Cd281 2.297 1_556 S
O284 C286 1.247 . S
O285 Cd281 2.439 . S
O285 C286 1.208 1_554 S
C286 O284 1.247 . S
C286 O285 1.208 1_556 S
C287 O292 1.247 . S
C287 O293 1.208 . S
C288 O280 1.315 . S
C288 O283 1.279 . S
C289 O290 1.315 . S
C289 O291 1.279 . S
O290 Cd282 2.223 . S
O290 C289 1.315 . S
O291 Cd281 2.240 . S
O291 C289 1.279 . S
O292 Cd282 2.297 . S
O292 C287 1.247 . S
O293 Cd282 2.439 . S
O293 C287 1.208 . S
O294 Cd295 2.223 1_556 S
O294 C302 1.315 1_546 S
Cd295 O294 2.223 1_554 S
Cd295 O298 2.297 . S
Cd295 O299 2.439 1_545 S
Cd295 O305 2.240 1_544 S
Cd296 O297 2.240 1_556 S
Cd296 O304 2.223 . S
Cd296 O306 2.297 . S
Cd296 O307 2.435 1_556 S
O297 Cd296 2.240 1_554 S
O297 C302 1.281 . S
O298 Cd295 2.297 . S
O298 C300 1.247 1_545 S
O299 Cd295 2.439 1_565 S
O299 C300 1.208 . S
C300 O298 1.247 1_565 S
C300 O299 1.208 . S
C301 O306 1.247 . S
C301 O307 1.202 1_556 S
C302 O294 1.315 1_564 S
C302 O297 1.281 . S
C303 O304 1.315 . S
C303 O305 1.279 . S
O304 Cd296 2.223 . S
O304 C303 1.315 . S
O305 Cd295 2.240 1_566 S
O305 C303 1.279 . S
O306 Cd296 2.297 . S
O306 C301 1.247 . S
O307 Cd296 2.435 1_554 S
O307 C301 1.202 1_554 S
O308 Cd309 2.223 1_556 S
O308 C316 1.315 1_656 S
Cd309 O308 2.223 1_554 S
Cd309 O312 2.297 . S
Cd309 O313 2.439 1_655 S
Cd309 O319 2.240 1_654 S
Cd310 O311 2.240 1_556 S
Cd310 O318 2.223 . S
Cd310 O320 2.297 . S
Cd310 O321 2.435 1_556 S
O311 Cd310 2.240 1_554 S
O311 C316 1.281 . S
O312 Cd309 2.297 . S
O312 C314 1.247 1_655 S
O313 Cd309 2.439 1_455 S
O313 C314 1.208 . S
C314 O312 1.247 1_455 S
C314 O313 1.208 . S
C315 O320 1.247 . S
C315 O321 1.202 1_556 S
C316 O308 1.315 1_454 S
C316 O311 1.281 . S
C317 O318 1.315 . S
C317 O319 1.279 . S
O318 Cd310 2.223 . S
O318 C317 1.315 . S
O319 Cd309 2.240 1_456 S
O319 C317 1.279 . S
O320 Cd310 2.297 . S
O320 C315 1.247 . S
O321 Cd310 2.435 1_554 S
O321 C315 1.202 1_554 S
O322 Cd323 2.223 1_556 S
O322 C330 1.315 1_556 S
Cd323 O322 2.223 1_554 S
Cd323 O326 2.297 . S
Cd323 O327 2.439 . S
Cd323 O333 2.240 1_554 S
Cd324 O325 2.240 1_556 S
Cd324 O332 2.223 . S
Cd324 O334 2.297 . S
Cd324 O335 2.435 1_556 S
O325 Cd324 2.240 1_554 S
O325 C330 1.281 . S
O326 Cd323 2.297 . S
O326 C328 1.247 . S
O327 Cd323 2.439 . S
O327 C328 1.208 . S
C328 O326 1.247 . S
C328 O327 1.208 . S
C329 O334 1.247 . S
C329 O335 1.202 1_556 S
C330 O322 1.315 1_554 S
C330 O325 1.281 . S
C331 O332 1.315 . S
C331 O333 1.279 . S
O332 Cd324 2.223 . S
O332 C331 1.315 . S
O333 Cd323 2.240 1_556 S
O333 C331 1.279 . S
O334 Cd324 2.297 . S
O334 C329 1.247 . S
O335 Cd324 2.435 1_554 S
O335 C329 1.202 1_554 S
O336 Cd337 2.223 . S
O336 C344 1.315 . S
Cd337 O336 2.223 . S
Cd337 O340 2.297 1_556 S
Cd337 O341 2.439 . S
Cd337 O347 2.240 . S
Cd338 O339 2.240 . S
Cd338 O346 2.223 . S
Cd338 O348 2.297 . S
Cd338 O349 2.439 . S
O339 Cd338 2.240 . S
O339 C344 1.279 . S
O340 Cd337 2.297 1_554 S
O340 C342 1.247 . S
O341 Cd337 2.439 . S
O341 C342 1.208 1_556 S
C342 O340 1.247 . S
C342 O341 1.208 1_554 S
C343 O348 1.247 . S
C343 O349 1.208 . S
C344 O336 1.315 . S
C344 O339 1.279 . S
C345 O346 1.315 . S
C345 O347 1.279 . S
O346 Cd338 2.223 . S
O346 C345 1.315 . S
O347 Cd337 2.240 . S
O347 C345 1.279 . S
O348 Cd338 2.297 . S
O348 C343 1.247 . S
O349 Cd338 2.439 . S
O349 C343 1.208 . S
O350 Cd351 2.223 . S
O350 C358 1.315 . S
Cd351 O350 2.223 . S
Cd351 O354 2.297 1_556 S
Cd351 O355 2.439 . S
Cd351 O361 2.240 . S
Cd352 O353 2.240 . S
Cd352 O360 2.223 . S
Cd352 O362 2.297 . S
Cd352 O363 2.439 . S
O353 Cd352 2.240 . S
O353 C358 1.279 . S
O354 Cd351 2.297 1_554 S
O354 C356 1.247 . S
O355 Cd351 2.439 . S
O355 C356 1.208 1_556 S
C356 O354 1.247 . S
C356 O355 1.208 1_554 S
C357 O362 1.247 . S
C357 O363 1.208 . S
C358 O350 1.315 . S
C358 O353 1.279 . S
C359 O360 1.315 . S
C359 O361 1.279 . S
O360 Cd352 2.223 . S
O360 C359 1.315 . S
O361 Cd351 2.240 . S
O361 C359 1.279 . S
O362 Cd352 2.297 . S
O362 C357 1.247 . S
O363 Cd352 2.439 . S
O363 C357 1.208 . S
O364 Cd365 2.223 . S
O364 C372 1.315 . S
Cd365 O364 2.223 . S
Cd365 O368 2.297 1_556 S
Cd365 O369 2.439 . S
Cd365 O375 2.240 . S
Cd366 O367 2.240 . S
Cd366 O374 2.223 . S
Cd366 O376 2.297 . S
Cd366 O377 2.439 . S
O367 Cd366 2.240 . S
O367 C372 1.279 . S
O368 Cd365 2.297 1_554 S
O368 C370 1.247 . S
O369 Cd365 2.439 . S
O369 C370 1.208 1_556 S
C370 O368 1.247 . S
C370 O369 1.208 1_554 S
C371 O376 1.247 . S
C371 O377 1.208 . S
C372 O364 1.315 . S
C372 O367 1.279 . S
C373 O374 1.315 . S
C373 O375 1.279 . S
O374 Cd366 2.223 . S
O374 C373 1.315 . S
O375 Cd365 2.240 . S
O375 C373 1.279 . S
O376 Cd366 2.297 . S
O376 C371 1.247 . S
O377 Cd366 2.439 . S
O377 C371 1.208 . S
O378 Cd379 2.223 1_554 S
O378 C386 1.315 1_564 S
Cd379 O378 2.223 1_556 S
Cd379 O382 2.297 . S
Cd379 O383 2.439 1_565 S
Cd379 O389 2.240 1_566 S
Cd380 O381 2.240 1_554 S
Cd380 O388 2.223 . S
Cd380 O390 2.297 . S
Cd380 O391 2.435 1_554 S
O381 Cd380 2.240 1_556 S
O381 C386 1.281 . S
O382 Cd379 2.297 . S
O382 C384 1.247 1_565 S
O383 Cd379 2.439 1_545 S
O383 C384 1.208 . S
C384 O382 1.247 1_545 S
C384 O383 1.208 . S
C385 O390 1.247 . S
C385 O391 1.202 1_554 S
C386 O378 1.315 1_546 S
C386 O381 1.281 . S
C387 O388 1.315 . S
C387 O389 1.279 . S
O388 Cd380 2.223 . S
O388 C387 1.315 . S
O389 Cd379 2.240 1_544 S
O389 C387 1.279 . S
O390 Cd380 2.297 . S
O390 C385 1.247 . S
O391 Cd380 2.435 1_556 S
O391 C385 1.202 1_556 S
O392 Cd393 2.223 1_554 S
O392 C400 1.315 1_454 S
Cd393 O392 2.223 1_556 S
Cd393 O396 2.297 . S
Cd393 O397 2.439 1_455 S
Cd393 O403 2.240 1_456 S
Cd394 O395 2.240 1_554 S
Cd394 O402 2.223 . S
Cd394 O404 2.297 . S
Cd394 O405 2.435 1_554 S
O395 Cd394 2.240 1_556 S
O395 C400 1.281 . S
O396 Cd393 2.297 . S
O396 C398 1.247 1_455 S
O397 Cd393 2.439 1_655 S
O397 C398 1.208 . S
C398 O396 1.247 1_655 S
C398 O397 1.208 . S
C399 O404 1.247 . S
C399 O405 1.202 1_554 S
C400 O392 1.315 1_656 S
C400 O395 1.281 . S
C401 O402 1.315 . S
C401 O403 1.279 . S
O402 Cd394 2.223 . S
O402 C401 1.315 . S
O403 Cd393 2.240 1_654 S
O403 C401 1.279 . S
O404 Cd394 2.297 . S
O404 C399 1.247 . S
O405 Cd394 2.435 1_556 S
O405 C399 1.202 1_556 S
O406 Cd407 2.223 1_554 S
O406 C414 1.315 1_554 S
Cd407 O406 2.223 1_556 S
Cd407 O410 2.297 . S
Cd407 O411 2.439 . S
Cd407 O417 2.240 1_556 S
Cd408 O409 2.240 1_554 S
Cd408 O416 2.223 . S
Cd408 O418 2.297 . S
Cd408 O419 2.435 1_554 S
O409 Cd408 2.240 1_556 S
O409 C414 1.281 . S
O410 Cd407 2.297 . S
O410 C412 1.247 . S
O411 Cd407 2.439 . S
O411 C412 1.208 . S
C412 O410 1.247 . S
C412 O411 1.208 . S
C413 O418 1.247 . S
C413 O419 1.202 1_554 S
C414 O406 1.315 1_556 S
C414 O409 1.281 . S
C415 O416 1.315 . S
C415 O417 1.279 . S
O416 Cd408 2.223 . S
O416 C415 1.315 . S
O417 Cd407 2.240 1_554 S
O417 C415 1.279 . S
O418 Cd408 2.297 . S
O418 C413 1.247 . S
O419 Cd408 2.435 1_556 S
O419 C413 1.202 1_556 S
O420 Cd421 2.223 . S
O420 C428 1.315 1_455 S
Cd421 O420 2.223 . S
Cd421 O424 2.297 . S
Cd421 O425 2.439 1_455 S
Cd421 O431 2.240 . S
Cd422 O423 2.240 . S
Cd422 O430 2.223 . S
Cd422 O432 2.297 . S
Cd422 O433 2.439 . S
O423 Cd422 2.240 . S
O423 C428 1.279 . S
O424 Cd421 2.297 . S
O424 C426 1.247 . S
O425 Cd421 2.439 1_655 S
O425 C426 1.208 1_655 S
C426 O424 1.247 . S
C426 O425 1.208 1_455 S
C427 O432 1.247 . S
C427 O433 1.208 . S
C428 O420 1.315 1_655 S
C428 O423 1.279 . S
C429 O430 1.315 . S
C429 O431 1.279 1_655 S
O430 Cd422 2.223 . S
O430 C429 1.315 . S
O431 Cd421 2.240 . S
O431 C429 1.279 1_455 S
O432 Cd422 2.297 . S
O432 C427 1.247 . S
O433 Cd422 2.439 . S
O433 C427 1.208 . S
O434 Cd435 2.223 . S
O434 C442 1.315 . S
Cd435 O434 2.223 . S
Cd435 O438 2.297 . S
Cd435 O439 2.439 . S
Cd435 O445 2.240 . S
Cd436 O437 2.240 . S
Cd436 O444 2.223 . S
Cd436 O446 2.297 . S
Cd436 O447 2.439 . S
O437 Cd436 2.240 . S
O437 C442 1.279 . S
O438 Cd435 2.297 . S
O438 C440 1.247 . S
O439 Cd435 2.439 . S
O439 C440 1.208 . S
C440 O438 1.247 . S
C440 O439 1.208 . S
C441 O446 1.247 . S
C441 O447 1.208 . S
C442 O434 1.315 . S
C442 O437 1.279 . S
C443 O444 1.315 . S
C443 O445 1.279 . S
O444 Cd436 2.223 . S
O444 C443 1.315 . S
O445 Cd435 2.240 . S
O445 C443 1.279 . S
O446 Cd436 2.297 . S
O446 C441 1.247 . S
O447 Cd436 2.439 . S
O447 C441 1.208 . S
O448 Cd449 2.223 . S
O448 C456 1.315 1_565 S
Cd449 O448 2.223 . S
Cd449 O452 2.297 . S
Cd449 O453 2.439 1_565 S
Cd449 O459 2.240 . S
Cd450 O451 2.240 . S
Cd450 O458 2.223 . S
Cd450 O460 2.297 . S
Cd450 O461 2.439 . S
O451 Cd450 2.240 . S
O451 C456 1.279 . S
O452 Cd449 2.297 . S
O452 C454 1.247 . S
O453 Cd449 2.439 1_545 S
O453 C454 1.208 1_545 S
C454 O452 1.247 . S
C454 O453 1.208 1_565 S
C455 O460 1.247 . S
C455 O461 1.208 . S
C456 O448 1.315 1_545 S
C456 O451 1.279 . S
C457 O458 1.315 . S
C457 O459 1.279 1_545 S
O458 Cd450 2.223 . S
O458 C457 1.315 . S
O459 Cd449 2.240 . S
O459 C457 1.279 1_565 S
O460 Cd450 2.297 . S
O460 C455 1.247 . S
O461 Cd450 2.439 . S
O461 C455 1.208 . S
O462 Cd463 2.223 . S
O462 C470 1.315 . S
Cd463 O462 2.223 . S
Cd463 O466 2.297 . S
Cd463 O467 2.439 . S
Cd463 O473 2.240 . S
Cd464 O465 2.240 . S
Cd464 O472 2.223 . S
Cd464 O474 2.297 . S
Cd464 O475 2.439 . S
O465 Cd464 2.240 . S
O465 C470 1.279 . S
O466 Cd463 2.297 . S
O466 C468 1.247 . S
O467 Cd463 2.439 . S
O467 C468 1.208 . S
C468 O466 1.247 . S
C468 O467 1.208 . S
C469 O474 1.247 . S
C469 O475 1.208 . S
C470 O462 1.315 . S
C470 O465 1.279 . S
C471 O472 1.315 . S
C471 O473 1.279 . S
O472 Cd464 2.223 . S
O472 C471 1.315 . S
O473 Cd463 2.240 . S
O473 C471 1.279 . S
O474 Cd464 2.297 . S
O474 C469 1.247 . S
O475 Cd464 2.439 . S
O475 C469 1.208 . S
O476 Cd477 2.223 . S
O476 C484 1.315 . S
Cd477 O476 2.223 . S
Cd477 O480 2.297 . S
Cd477 O481 2.439 . S
Cd477 O487 2.240 . S
Cd478 O479 2.240 . S
Cd478 O486 2.223 . S
Cd478 O488 2.297 . S
Cd478 O489 2.439 . S
O479 Cd478 2.240 . S
O479 C484 1.279 . S
O480 Cd477 2.297 . S
O480 C482 1.247 . S
O481 Cd477 2.439 . S
O481 C482 1.208 . S
C482 O480 1.247 . S
C482 O481 1.208 . S
C483 O488 1.247 . S
C483 O489 1.208 . S
C484 O476 1.315 . S
C484 O479 1.279 . S
C485 O486 1.315 . S
C485 O487 1.279 . S
O486 Cd478 2.223 . S
O486 C485 1.315 . S
O487 Cd477 2.240 . S
O487 C485 1.279 . S
O488 Cd478 2.297 . S
O488 C483 1.247 . S
O489 Cd478 2.439 . S
O489 C483 1.208 . S
O490 Cd491 2.223 . S
O490 C498 1.315 . S
Cd491 O490 2.223 . S
Cd491 O494 2.297 . S
Cd491 O495 2.439 . S
Cd491 O501 2.240 . S
Cd492 O493 2.240 . S
Cd492 O500 2.223 . S
Cd492 O502 2.297 . S
Cd492 O503 2.439 . S
O493 Cd492 2.240 . S
O493 C498 1.279 . S
O494 Cd491 2.297 . S
O494 C496 1.247 . S
O495 Cd491 2.439 . S
O495 C496 1.208 . S
C496 O494 1.247 . S
C496 O495 1.208 . S
C497 O502 1.247 . S
C497 O503 1.208 . S
C498 O490 1.315 . S
C498 O493 1.279 . S
C499 O500 1.315 . S
C499 O501 1.279 . S
O500 Cd492 2.223 . S
O500 C499 1.315 . S
O501 Cd491 2.240 . S
O501 C499 1.279 . S
O502 Cd492 2.297 . S
O502 C497 1.247 . S
O503 Cd492 2.439 . S
O503 C497 1.208 . S
C230 C6 1.413 . S
C244 C20 1.413 . S
C216 C34 1.413 . S
C370 C48 1.389 . S
C62 C342 1.389 . S
C76 C356 1.389 . S
C90 C482 1.413 . S
C496 C104 1.413 . S
C468 C118 1.413 . S
C132 C286 1.389 . S
C258 C146 1.389 . S
C160 C272 1.389 . S
C398 C174 1.299 . S
C188 C412 1.300 . S
C384 C202 1.300 . S
C454 C300 1.300 . S
C426 C314 1.299 . S
C328 C440 1.300 . S
C260 C8 1.665 . S
C274 C22 1.660 . S
C288 C36 1.657 . S
C50 C470 1.673 . S
C64 C484 1.666 . S
C78 C498 1.671 . S
C92 C344 1.665 . S
C358 C106 1.660 . S
C372 C120 1.657 . S
C218 C134 1.673 . S
C148 C232 1.666 . S
C162 C246 1.671 . S
C176 C428 1.550 1_455 S
C442 C190 1.545 . S
C456 C204 1.547 1_545 S
C386 C302 2.003 1_546 S
C316 C400 1.998 1_454 S
C330 C414 2.007 1_554 S
C385 C7 1.686 . S
C21 C399 1.684 . S
C35 C413 1.687 . S
C175 C49 1.725 . S
C63 C189 1.723 . S
C77 C203 1.724 . S
C301 C91 1.687 . S
C105 C315 1.684 . S
C329 C119 1.687 . S
C133 C427 1.725 . S
C441 C147 1.723 . S
C455 C161 1.724 . S
C343 C217 1.672 . S
C357 C231 1.670 1_565 S
C371 C245 1.671 1_455 S
C259 C469 1.672 . S
C483 C273 1.670 1_565 S
C497 C287 1.671 1_455 S
C9 C233 1.589 . S
C23 C247 1.589 . S
C37 C219 1.589 . S
C373 C51 1.664 . S
C345 C65 1.664 . S
C359 C79 1.664 . S
C485 C93 1.589 . S
C499 C107 1.589 . S
C471 C121 1.589 . S
C135 C289 1.664 . S
C149 C261 1.664 . S
C163 C275 1.664 . S
C401 C177 1.765 1_655 S
C415 C191 1.764 . S
C205 C387 1.764 1_565 S
C303 C457 1.764 1_565 S
C429 C317 1.765 1_655 S
C443 C331 1.764 . S
