# Generated by pormake.
# Topology upc, (4)-cn, num edge types: 1
# Building blocks:
#     Node 0, Type 0, BuildingBlock: ESEHIV_clean_sbu_0, # of connection points: 4
#     Node 1, Type 0, BuildingBlock: ESEHIV_clean_sbu_0, # of connection points: 4
#     Node 2, Type 0, BuildingBlock: ESEHIV_clean_sbu_0, # of connection points: 4
#     Node 3, Type 0, BuildingBlock: ESEHIV_clean_sbu_0, # of connection points: 4
#     Node 4, Type 0, BuildingBlock: ESEHIV_clean_sbu_0, # of connection points: 4
#     Node 5, Type 0, BuildingBlock: ESEHIV_clean_sbu_0, # of connection points: 4
#     Node 6, Type 0, BuildingBlock: ESEHIV_clean_sbu_0, # of connection points: 4
#     Node 7, Type 0, BuildingBlock: ESEHIV_clean_sbu_0, # of connection points: 4
#     Node 8, Type 0, BuildingBlock: ESEHIV_clean_sbu_0, # of connection points: 4
#     Node 9, Type 0, BuildingBlock: ESEHIV_clean_sbu_0, # of connection points: 4
#     Node 10, Type 0, BuildingBlock: ESEHIV_clean_sbu_0, # of connection points: 4
#     Node 11, Type 0, BuildingBlock: ESEHIV_clean_sbu_0, # of connection points: 4
#     Node 12, Type 0, BuildingBlock: ESEHIV_clean_sbu_0, # of connection points: 4
#     Node 13, Type 0, BuildingBlock: ESEHIV_clean_sbu_0, # of connection points: 4
#     Node 14, Type 0, BuildingBlock: ESEHIV_clean_sbu_0, # of connection points: 4
#     Node 15, Type 0, BuildingBlock: ESEHIV_clean_sbu_0, # of connection points: 4
#     Edge 16, Type (0, 0), BuildingBlock: MIFKUJ_clean_linker_0, # of connection points: 2
#     Edge 17, Type (0, 0), BuildingBlock: MIFKUJ_clean_linker_0, # of connection points: 2
#     Edge 18, Type (0, 0), BuildingBlock: MIFKUJ_clean_linker_0, # of connection points: 2
#     Edge 19, Type (0, 0), BuildingBlock: MIFKUJ_clean_linker_0, # of connection points: 2
#     Edge 20, Type (0, 0), BuildingBlock: MIFKUJ_clean_linker_0, # of connection points: 2
#     Edge 21, Type (0, 0), BuildingBlock: MIFKUJ_clean_linker_0, # of connection points: 2
#     Edge 22, Type (0, 0), BuildingBlock: MIFKUJ_clean_linker_0, # of connection points: 2
#     Edge 23, Type (0, 0), BuildingBlock: MIFKUJ_clean_linker_0, # of connection points: 2
#     Edge 24, Type (0, 0), BuildingBlock: MIFKUJ_clean_linker_0, # of connection points: 2
#     Edge 25, Type (0, 0), BuildingBlock: MIFKUJ_clean_linker_0, # of connection points: 2
#     Edge 26, Type (0, 0), BuildingBlock: MIFKUJ_clean_linker_0, # of connection points: 2
#     Edge 27, Type (0, 0), BuildingBlock: MIFKUJ_clean_linker_0, # of connection points: 2
#     Edge 28, Type (0, 0), BuildingBlock: MIFKUJ_clean_linker_0, # of connection points: 2
#     Edge 29, Type (0, 0), BuildingBlock: MIFKUJ_clean_linker_0, # of connection points: 2
#     Edge 30, Type (0, 0), BuildingBlock: MIFKUJ_clean_linker_0, # of connection points: 2
#     Edge 31, Type (0, 0), BuildingBlock: MIFKUJ_clean_linker_0, # of connection points: 2
#     Edge 32, Type (0, 0), BuildingBlock: MIFKUJ_clean_linker_0, # of connection points: 2
#     Edge 33, Type (0, 0), BuildingBlock: MIFKUJ_clean_linker_0, # of connection points: 2
#     Edge 34, Type (0, 0), BuildingBlock: MIFKUJ_clean_linker_0, # of connection points: 2
#     Edge 35, Type (0, 0), BuildingBlock: MIFKUJ_clean_linker_0, # of connection points: 2
#     Edge 36, Type (0, 0), BuildingBlock: MIFKUJ_clean_linker_0, # of connection points: 2
#     Edge 37, Type (0, 0), BuildingBlock: MIFKUJ_clean_linker_0, # of connection points: 2
#     Edge 38, Type (0, 0), BuildingBlock: MIFKUJ_clean_linker_0, # of connection points: 2
#     Edge 39, Type (0, 0), BuildingBlock: MIFKUJ_clean_linker_0, # of connection points: 2
#     Edge 40, Type (0, 0), BuildingBlock: MIFKUJ_clean_linker_0, # of connection points: 2
#     Edge 41, Type (0, 0), BuildingBlock: MIFKUJ_clean_linker_0, # of connection points: 2
#     Edge 42, Type (0, 0), BuildingBlock: MIFKUJ_clean_linker_0, # of connection points: 2
#     Edge 43, Type (0, 0), BuildingBlock: MIFKUJ_clean_linker_0, # of connection points: 2
#     Edge 44, Type (0, 0), BuildingBlock: MIFKUJ_clean_linker_0, # of connection points: 2
#     Edge 45, Type (0, 0), BuildingBlock: MIFKUJ_clean_linker_0, # of connection points: 2
#     Edge 46, Type (0, 0), BuildingBlock: MIFKUJ_clean_linker_0, # of connection points: 2
#     Edge 47, Type (0, 0), BuildingBlock: MIFKUJ_clean_linker_0, # of connection points: 2
# Relax obj value: 0.157
# Max RMSD: 0.202
# Mean RMSD: 0.182
data_MOF--net-upc--node1-ESEHIV_clean_sbu_0--edge1-MIFKUJ_clean_linker_0
_symmetry_space_group_name_H-M    P1
_symmetry_Int_Tables_number       1
_symmetry_cell_setting            triclinic
loop_
_symmetry_equiv_pos_as_xyz
'x, y, z'
_cell_length_a     46.63221
_cell_length_b     52.410652
_cell_length_c     56.214259
_cell_angle_alpha  89.926354
_cell_angle_beta   89.954051
_cell_angle_gamma 89.990514
loop_
_atom_site_label
_atom_site_type_symbol
_atom_site_fract_x
_atom_site_fract_y
_atom_site_fract_z
_atom_type_partial_charge
Cu0 Cu 0.13364 0.61762 0.16406 0.0
N1 N 0.09903 0.63477 0.16702 0.0
N2 N 0.06236 0.65486 0.18414 0.0
C3 C 0.08648 0.64122 0.18763 0.0
C4 C 0.05964 0.65719 0.16035 0.0
C5 C 0.08226 0.64453 0.14978 0.0
O6 O 0.16369 0.64235 0.17345 0.0
C7 C 0.12933 0.58661 0.20647 0.0
O8 O 0.13753 0.60705 0.21813 0.0
H9 H 0.09576 0.63735 0.20488 0.0
H10 H 0.0867 0.64325 0.13093 0.0
N11 N 0.13616 0.60752 0.1322 0.0
N12 N 0.12386 0.58763 0.09842 0.0
C13 C 0.12164 0.58792 0.12242 0.0
C14 C 0.1479 0.62019 0.11379 0.0
C15 C 0.14054 0.60789 0.09299 0.0
C16 C 0.189 0.64378 0.16487 0.0
O17 O 0.19776 0.62594 0.15017 0.0
H18 H 0.10828 0.57509 0.13268 0.0
H19 H 0.1598 0.63783 0.11527 0.0
O20 O 0.12922 0.58703 0.18381 0.0
H21 H 0.04309 0.66796 0.15132 0.0
H22 H 0.14647 0.61387 0.07522 0.0
Cu23 Cu 0.89042 0.11391 0.13122 0.0
N24 N 0.86957 0.0837 0.12925 0.0
N25 N 0.83972 0.05416 0.1435 0.0
C26 C 0.84491 0.07932 0.14092 0.0
C27 C 0.8616 0.04224 0.13244 0.0
C28 C 0.87994 0.06054 0.12354 0.0
O29 O 0.86255 0.14127 0.13819 0.0
C30 C 0.91179 0.09631 0.17527 0.0
O31 O 0.88441 0.09262 0.17947 0.0
H32 H 0.83346 0.09408 0.15051 0.0
H33 H 0.90094 0.05709 0.11606 0.0
N34 N 0.90885 0.11845 0.1019 0.0
N35 N 0.93516 0.1091 0.06966 0.0
C36 C 0.92894 0.10293 0.09247 0.0
C37 C 0.90225 0.13516 0.08458 0.0
C38 C 0.91847 0.1295 0.06472 0.0
C39 C 0.86696 0.16526 0.13688 0.0
O40 O 0.89276 0.17349 0.13145 0.0
H41 H 0.93769 0.08663 0.10178 0.0
H42 H 0.88597 0.14978 0.08595 0.0
O43 O 0.91915 0.10781 0.15619 0.0
H44 H 0.86566 0.02191 0.13305 0.0
H45 H 0.91752 0.13935 0.04781 0.0
Cu46 Cu 0.40505 0.90617 0.15414 0.0
N47 N 0.4323 0.88333 0.14305 0.0
N48 N 0.46283 0.85071 0.14434 0.0
C49 C 0.45072 0.87002 0.15655 0.0
C50 C 0.45168 0.85198 0.12225 0.0
C51 C 0.433 0.87236 0.12143 0.0
O52 O 0.37076 0.88524 0.16079 0.0
C53 C 0.41283 0.94507 0.18945 0.0
O54 O 0.3895 0.95509 0.18027 0.0
H55 H 0.45269 0.87256 0.17561 0.0
H56 H 0.41899 0.87739 0.10683 0.0
N57 N 0.39948 0.9299 0.12972 0.0
N58 N 0.41104 0.95774 0.1009 0.0
C59 C 0.42037 0.94427 0.11996 0.0
C60 C 0.37597 0.93436 0.11657 0.0
C61 C 0.38298 0.95155 0.09884 0.0
C62 C 0.37175 0.86783 0.17672 0.0
O63 O 0.39452 0.86655 0.19041 0.0
H64 H 0.44213 0.9443 0.12659 0.0
H65 H 0.35547 0.92512 0.11919 0.0
O66 O 0.42171 0.92365 0.18165 0.0
H67 H 0.45491 0.83791 0.10842 0.0
H68 H 0.36865 0.95814 0.08502 0.0
Cu69 Cu 0.60205 0.39381 0.13144 0.0
N70 N 0.62767 0.42055 0.13577 0.0
N71 N 0.66215 0.44299 0.15344 0.0
C72 C 0.6498 0.41993 0.15097 0.0
C73 C 0.64712 0.45889 0.13928 0.0
C74 C 0.62582 0.4449 0.12827 0.0
O75 O 0.62322 0.36166 0.13745 0.0
C76 C 0.57342 0.40619 0.17494 0.0
O77 O 0.59837 0.40165 0.18492 0.0
H78 H 0.65541 0.40322 0.16132 0.0
H79 H 0.60928 0.45223 0.11665 0.0
N80 N 0.58787 0.39525 0.10038 0.0
N81 N 0.56372 0.40913 0.06846 0.0
C82 C 0.57048 0.41346 0.09149 0.0
C83 C 0.59231 0.37878 0.08244 0.0
C84 C 0.57744 0.38726 0.06273 0.0
C85 C 0.64777 0.35921 0.12752 0.0
O86 O 0.65642 0.37724 0.11292 0.0
H87 H 0.56264 0.42935 0.1019 0.0
H88 H 0.60544 0.36181 0.0836 0.0
O89 O 0.57014 0.40143 0.15288 0.0
H90 H 0.6506 0.47924 0.13768 0.0
H91 H 0.57713 0.37819 0.04546 0.0
Cu92 Cu 0.10817 0.89859 0.34831 0.0
N93 N 0.07733 0.8767 0.35353 0.0
N94 N 0.05068 0.84148 0.35118 0.0
C95 C 0.07686 0.85179 0.34802 0.0
C96 C 0.03378 0.8607 0.35875 0.0
C97 C 0.05037 0.88245 0.36031 0.0
O98 O 0.14204 0.87658 0.34267 0.0
C99 C 0.10305 0.94316 0.31833 0.0
O100 O 0.12207 0.9537 0.33246 0.0
H101 H 0.09487 0.84179 0.34023 0.0
H102 H 0.04292 0.90133 0.3649 0.0
N103 N 0.11203 0.91911 0.37537 0.0
N104 N 0.09921 0.94506 0.40521 0.0
C105 C 0.09144 0.93437 0.38431 0.0
C106 C 0.13387 0.9204 0.39092 0.0
C107 C 0.12605 0.93639 0.40933 0.0
C108 C 0.14787 0.85976 0.35845 0.0
O109 O 0.13279 0.8598 0.37821 0.0
H110 H 0.07105 0.93739 0.37561 0.0
H111 H 0.15375 0.9099 0.38934 0.0
O112 O 0.09643 0.91977 0.3213 0.0
H113 H 0.01095 0.85933 0.362 0.0
H114 H 0.13881 0.94051 0.42493 0.0
Cu115 Cu 0.63128 0.117 0.3718 0.0
N116 N 0.65488 0.0884 0.3712 0.0
N117 N 0.68757 0.0618 0.35632 0.0
C118 C 0.67944 0.08633 0.35884 0.0
C119 C 0.66761 0.04791 0.36793 0.0
C120 C 0.64751 0.06442 0.37721 0.0
O121 O 0.65626 0.14662 0.36454 0.0
C122 C 0.60744 0.09949 0.32849 0.0
O123 O 0.63459 0.09738 0.32261 0.0
H124 H 0.68917 0.10216 0.34942 0.0
H125 H 0.62758 0.05918 0.38578 0.0
N126 N 0.61492 0.11809 0.40229 0.0
N127 N 0.58967 0.10547 0.43424 0.0
C128 C 0.59392 0.1027 0.41054 0.0
C129 C 0.62439 0.13098 0.42139 0.0
C130 C 0.60876 0.12346 0.441 0.0
C131 C 0.6539 0.16932 0.37255 0.0
O132 O 0.63144 0.17529 0.38552 0.0
H133 H 0.58317 0.08872 0.39956 0.0
H134 H 0.64231 0.14407 0.42134 0.0
O135 O 0.60105 0.11002 0.34826 0.0
H136 H 0.66644 0.02728 0.36805 0.0
H137 H 0.61185 0.13034 0.45895 0.0
Cu138 Cu 0.39727 0.61972 0.34508 0.0
N139 N 0.4301 0.63841 0.33851 0.0
N140 N 0.45846 0.66659 0.32041 0.0
C141 C 0.43124 0.65911 0.32448 0.0
C142 C 0.47512 0.64995 0.33245 0.0
C143 C 0.45749 0.63256 0.34368 0.0
O144 O 0.36481 0.64311 0.33912 0.0
C145 C 0.4056 0.59172 0.30244 0.0
O146 O 0.40554 0.61447 0.29258 0.0
H147 H 0.41251 0.66747 0.3162 0.0
H148 H 0.46419 0.61619 0.354 0.0
N149 N 0.40016 0.60893 0.37675 0.0
N150 N 0.41808 0.58896 0.4087 0.0
C151 C 0.41851 0.59098 0.38473 0.0
C152 C 0.3878 0.61876 0.39635 0.0
C153 C 0.39861 0.60631 0.41606 0.0
C154 C 0.34015 0.64282 0.34897 0.0
O155 O 0.33355 0.62396 0.36337 0.0
H156 H 0.43236 0.58002 0.37315 0.0
H157 H 0.37288 0.63455 0.39641 0.0
O158 O 0.39965 0.58973 0.3245 0.0
H159 H 0.49833 0.64992 0.3326 0.0
H160 H 0.39353 0.61055 0.43443 0.0
Cu161 Cu 0.91504 0.39855 0.37436 0.0
N162 N 0.88821 0.4235 0.36701 0.0
N163 N 0.85181 0.44187 0.34775 0.0
C164 C 0.86448 0.4197 0.35401 0.0
C165 C 0.86803 0.46034 0.35773 0.0
C166 C 0.89055 0.44892 0.36956 0.0
O167 O 0.8945 0.36559 0.37368 0.0
C168 C 0.94465 0.41149 0.33135 0.0
O169 O 0.91896 0.41133 0.32181 0.0
H170 H 0.85757 0.40101 0.34831 0.0
H171 H 0.9083 0.45849 0.37811 0.0
N172 N 0.92797 0.40435 0.40532 0.0
N173 N 0.94889 0.42251 0.4369 0.0
C174 C 0.94391 0.42406 0.41322 0.0
C175 C 0.92277 0.38977 0.42453 0.0
C176 C 0.9356 0.40089 0.44401 0.0
C177 C 0.88718 0.35261 0.35546 0.0
O178 O 0.89654 0.35952 0.33438 0.0
H179 H 0.95122 0.43943 0.40187 0.0
H180 H 0.91042 0.3723 0.42437 0.0
O181 O 0.94768 0.404 0.35283 0.0
H182 H 0.86504 0.48065 0.35535 0.0
H183 H 0.93533 0.39343 0.46196 0.0
Cu184 Cu 0.92679 0.39384 0.8856 0.0
N185 N 0.95366 0.37238 0.87152 0.0
N186 N 0.97044 0.34348 0.84595 0.0
C187 C 0.94735 0.35197 0.85801 0.0
C188 C 0.99223 0.35898 0.85234 0.0
C189 C 0.9818 0.37678 0.86822 0.0
O190 O 0.89133 0.37416 0.88792 0.0
C191 C 0.92642 0.42354 0.84356 0.0
O192 O 0.92777 0.40109 0.83327 0.0
H193 H 0.92573 0.34501 0.85535 0.0
H194 H 0.99337 0.39285 0.87551 0.0
N195 N 0.93895 0.40241 0.91624 0.0
N196 N 0.9613 0.42109 0.94689 0.0
C197 C 0.95803 0.42037 0.92295 0.0
C198 C 0.92981 0.39146 0.93649 0.0
C199 C 0.94348 0.4029 0.95538 0.0
C200 C 0.87181 0.37309 0.87212 0.0
O201 O 0.87339 0.38807 0.85344 0.0
H202 H 0.96942 0.43243 0.91049 0.0
H203 H 0.91412 0.37629 0.93743 0.0
O204 O 0.92423 0.42469 0.86614 0.0
H205 H 0.01373 0.35832 0.8451 0.0
H206 H 0.94007 0.3984 0.97396 0.0
Cu207 Cu 0.09566 0.92762 0.85875 0.0
N208 N 0.06414 0.92197 0.83907 0.0
N209 N 0.02889 0.93081 0.81337 0.0
C210 C 0.0491 0.94043 0.82804 0.0
C211 C 0.03137 0.9052 0.81532 0.0
C212 C 0.05315 0.89981 0.83121 0.0
O213 O 0.08339 0.95212 0.88285 0.0
C214 C 0.1515 0.9434 0.84388 0.0
O215 O 0.15956 0.93812 0.86573 0.0
H216 H 0.05369 0.96055 0.8301 0.0
H217 H 0.06084 0.88111 0.83629 0.0
N218 N 0.10863 0.89687 0.87212 0.0
N219 N 0.13575 0.86248 0.87968 0.0
C220 C 0.13102 0.88245 0.86491 0.0
C221 C 0.09859 0.88542 0.89186 0.0
C222 C 0.11529 0.86431 0.89662 0.0
C223 C 0.09373 0.95451 0.90369 0.0
O224 O 0.11558 0.94026 0.91012 0.0
H225 H 0.14416 0.88698 0.8496 0.0
H226 H 0.08071 0.89228 0.90233 0.0
O227 O 0.12523 0.94127 0.83823 0.0
H228 H 0.01852 0.89135 0.80585 0.0
H229 H 0.11261 0.85134 0.91145 0.0
Cu230 Cu 0.61727 0.14433 0.88702 0.0
N231 N 0.59272 0.17153 0.88025 0.0
N232 N 0.58219 0.20824 0.86181 0.0
C233 C 0.60177 0.19516 0.8746 0.0
C234 C 0.55928 0.19252 0.86035 0.0
C235 C 0.56588 0.16989 0.87169 0.0
O236 O 0.6561 0.15837 0.88562 0.0
C237 C 0.61244 0.09481 0.86524 0.0
O238 O 0.62096 0.08563 0.8858 0.0
H239 H 0.62356 0.20149 0.87726 0.0
H240 H 0.55328 0.15257 0.87137 0.0
N241 N 0.60977 0.13097 0.91733 0.0
N242 N 0.59 0.10972 0.94782 0.0
C243 C 0.58674 0.11767 0.92504 0.0
C244 C 0.62798 0.13164 0.93584 0.0
C245 C 0.61591 0.11859 0.95461 0.0
C246 C 0.66503 0.16847 0.86635 0.0
O247 O 0.64952 0.16584 0.847 0.0
H248 H 0.56846 0.11324 0.91394 0.0
H249 H 0.64881 0.14071 0.93556 0.0
O250 O 0.6107 0.11887 0.8624 0.0
H251 H 0.54011 0.19614 0.85006 0.0
H252 H 0.6255 0.11589 0.97196 0.0
Cu253 Cu 0.39177 0.60205 0.87358 0.0
N254 N 0.42429 0.60012 0.85443 0.0
N255 N 0.45443 0.58289 0.828 0.0
C256 C 0.43006 0.57986 0.84059 0.0
C257 C 0.46436 0.60621 0.83409 0.0
C258 C 0.4457 0.6168 0.85051 0.0
O259 O 0.39988 0.58222 0.90214 0.0
C260 C 0.33533 0.58668 0.85737 0.0
O261 O 0.32456 0.59556 0.87731 0.0
H262 H 0.4161 0.56343 0.83935 0.0
H263 H 0.4475 0.63532 0.85885 0.0
N264 N 0.38229 0.63587 0.88125 0.0
N265 N 0.3581 0.67267 0.88461 0.0
C266 C 0.36017 0.65007 0.87311 0.0
C267 C 0.39477 0.65008 0.89824 0.0
C268 C 0.37992 0.67271 0.90039 0.0
C269 C 0.40135 0.55798 0.90135 0.0
O270 O 0.39446 0.54628 0.88151 0.0
H271 H 0.34515 0.64351 0.85978 0.0
H272 H 0.4129 0.64403 0.90883 0.0
O273 O 0.36223 0.58722 0.85399 0.0
H274 H 0.48374 0.61495 0.82729 0.0
H275 H 0.38457 0.68787 0.91286 0.0
Cu276 Cu 0.883 0.12727 0.61402 0.0
N277 N 0.91316 0.14777 0.6244 0.0
N278 N 0.93671 0.17525 0.64757 0.0
C279 C 0.91096 0.16816 0.63885 0.0
C280 C 0.95587 0.15892 0.638 0.0
C281 C 0.94128 0.14202 0.62369 0.0
O282 O 0.84847 0.14836 0.61197 0.0
C283 C 0.88229 0.10254 0.65861 0.0
O284 O 0.88142 0.12604 0.66667 0.0
H285 H 0.89067 0.17614 0.64455 0.0
H286 H 0.9503 0.12562 0.61478 0.0
N287 N 0.8914 0.11442 0.58379 0.0
N288 N 0.9123 0.09351 0.55372 0.0
C289 C 0.91366 0.09962 0.57706 0.0
C290 C 0.87548 0.11774 0.56409 0.0
C291 C 0.88826 0.10487 0.54555 0.0
C292 C 0.82558 0.14599 0.62416 0.0
O293 O 0.82358 0.12748 0.63984 0.0
H294 H 0.93015 0.09303 0.58912 0.0
H295 H 0.85586 0.12873 0.56332 0.0
O296 O 0.88068 0.0988 0.63627 0.0
H297 H 0.97857 0.15847 0.642 0.0
H298 H 0.88062 0.10419 0.52738 0.0
Cu299 Cu 0.41581 0.92814 0.64132 0.0
N300 N 0.44667 0.92419 0.66205 0.0
N301 N 0.47935 0.93496 0.68939 0.0
C302 C 0.45805 0.94321 0.67504 0.0
C303 C 0.48138 0.90963 0.68521 0.0
C304 C 0.46119 0.90305 0.66829 0.0
O305 O 0.42871 0.95174 0.61658 0.0
C306 C 0.35889 0.9428 0.65517 0.0
O307 O 0.35096 0.93635 0.63358 0.0
H308 H 0.45019 0.96263 0.67439 0.0
H309 H 0.45714 0.88419 0.66126 0.0
N310 N 0.40402 0.89651 0.6291 0.0
N311 N 0.37789 0.86119 0.62314 0.0
C312 C 0.38224 0.88183 0.6371 0.0
C313 C 0.41407 0.88456 0.60965 0.0
C314 C 0.39796 0.86286 0.60587 0.0
C315 C 0.41958 0.95341 0.59528 0.0
O316 O 0.39809 0.93898 0.58845 0.0
H317 H 0.36917 0.88669 0.65235 0.0
H318 H 0.43149 0.89148 0.59868 0.0
O319 O 0.38528 0.94195 0.66076 0.0
H320 H 0.49636 0.89676 0.6937 0.0
H321 H 0.40071 0.84944 0.59143 0.0
Cu322 Cu 0.60887 0.39767 0.62201 0.0
N323 N 0.63797 0.401 0.64457 0.0
N324 N 0.65293 0.38568 0.67968 0.0
C325 C 0.64559 0.38018 0.65705 0.0
C326 C 0.65162 0.41137 0.68108 0.0
C327 C 0.64221 0.42076 0.65945 0.0
O328 O 0.61104 0.36183 0.61258 0.0
C329 C 0.57002 0.43127 0.64198 0.0
O330 O 0.58695 0.44725 0.6307 0.0
H331 H 0.64159 0.36106 0.65073 0.0
H332 H 0.63486 0.44001 0.65619 0.0
N333 N 0.61274 0.41915 0.59547 0.0
N334 N 0.59931 0.4439 0.56494 0.0
C335 C 0.59106 0.42621 0.58105 0.0
C336 C 0.63564 0.43266 0.58816 0.0
C337 C 0.62746 0.44786 0.56923 0.0
C338 C 0.63227 0.35572 0.59944 0.0
O339 O 0.64775 0.37408 0.59004 0.0
H340 H 0.56942 0.41902 0.58292 0.0
H341 H 0.65652 0.43213 0.59652 0.0
O342 O 0.57433 0.40737 0.63958 0.0
H343 H 0.65333 0.42225 0.69736 0.0
H344 H 0.64087 0.46159 0.5601 0.0
Cu345 Cu 0.09988 0.61823 0.64117 0.0
N346 N 0.06865 0.62408 0.66107 0.0
N347 N 0.03518 0.61424 0.68807 0.0
C348 C 0.05351 0.60528 0.67148 0.0
C349 C 0.03893 0.6398 0.68805 0.0
C350 C 0.05963 0.64583 0.67132 0.0
O351 O 0.08668 0.59553 0.61605 0.0
C352 C 0.15291 0.59531 0.65597 0.0
O353 O 0.16251 0.59954 0.63434 0.0
H354 H 0.05732 0.58525 0.66802 0.0
H355 H 0.06846 0.66453 0.66774 0.0
N356 N 0.11545 0.64886 0.62966 0.0
N357 N 0.14526 0.6819 0.62412 0.0
C358 C 0.13935 0.6609 0.63727 0.0
C359 C 0.10576 0.66284 0.61127 0.0
C360 C 0.12411 0.68313 0.60776 0.0
C361 C 0.09676 0.59364 0.59508 0.0
O362 O 0.11875 0.60777 0.58877 0.0
H363 H 0.15257 0.654 0.65173 0.0
H364 H 0.0869 0.65832 0.60091 0.0
O365 O 0.12737 0.6014 0.66131 0.0
H366 H 0.02814 0.6531 0.69974 0.0
H367 H 0.122 0.69769 0.5942 0.0
H368 H 0.17959 0.68411 0.19565 0.0
H369 H 0.2091 0.72241 0.20098 0.0
H370 H 0.26925 0.6941 0.14899 0.0
H371 H 0.24053 0.6556 0.14425 0.0
H372 H 0.29823 0.71499 0.18252 0.0
H373 H 0.21397 0.74099 0.13811 0.0
H374 H 0.16203 0.74709 0.13203 0.0
H375 H 0.15821 0.79543 0.19358 0.0
H376 H 0.20991 0.78912 0.20035 0.0
H377 H 0.32873 0.85608 0.1448 0.0
H378 H 0.29674 0.8189 0.14548 0.0
H379 H 0.33246 0.79575 0.21286 0.0
H380 H 0.3649 0.83229 0.21194 0.0
H381 H 0.25526 0.80093 0.17285 0.0
H382 H 0.33361 0.73106 0.21765 0.0
H383 H 0.3857 0.72509 0.22314 0.0
H384 H 0.40195 0.76485 0.15768 0.0
H385 H 0.34999 0.77073 0.15163 0.0
C386 C 0.19924 0.68593 0.1855 0.0
C387 C 0.20754 0.66662 0.16946 0.0
C388 C 0.21607 0.70802 0.18844 0.0
C389 C 0.24139 0.71161 0.17511 0.0
C390 C 0.24994 0.69204 0.15954 0.0
C391 C 0.23335 0.66991 0.15679 0.0
C392 C 0.25891 0.7357 0.17684 0.0
C393 C 0.2887 0.73375 0.18049 0.0
C394 C 0.24683 0.76042 0.17416 0.0
C395 C 0.21575 0.7643 0.16992 0.0
C396 C 0.20199 0.75273 0.15047 0.0
C397 C 0.17257 0.75621 0.14691 0.0
C398 C 0.15677 0.7715 0.16249 0.0
C399 C 0.17039 0.78344 0.18161 0.0
C400 C 0.19974 0.77988 0.18534 0.0
C401 C 0.32958 0.84322 0.15988 0.0
C402 C 0.34962 0.8472 0.17823 0.0
C403 C 0.31124 0.82188 0.16026 0.0
C404 C 0.31243 0.80401 0.17898 0.0
C405 C 0.33146 0.80873 0.19787 0.0
C406 C 0.34994 0.82984 0.19739 0.0
C407 C 0.2945 0.78015 0.1784 0.0
C408 C 0.26471 0.78216 0.17501 0.0
C409 C 0.30657 0.75545 0.18121 0.0
C410 C 0.33789 0.75154 0.18432 0.0
C411 C 0.3483 0.73841 0.20437 0.0
C412 C 0.3778 0.73507 0.2076 0.0
C413 C 0.39713 0.74466 0.19083 0.0
C414 C 0.38698 0.75751 0.17072 0.0
C415 C 0.3575 0.76086 0.16738 0.0
H416 H 0.41995 0.74207 0.19341 0.0
H417 H 0.13401 0.77418 0.15971 0.0
H418 H 0.81035 0.15526 0.14772 0.0
H419 H 0.77066 0.18572 0.15097 0.0
H420 H 0.82884 0.24765 0.13603 0.0
H421 H 0.86858 0.21744 0.13316 0.0
H422 H 0.79269 0.2615 0.17018 0.0
H423 H 0.78289 0.22188 0.093 0.0
H424 H 0.77744 0.18565 0.06541 0.0
H425 H 0.69894 0.16416 0.10003 0.0
H426 H 0.70413 0.2001 0.12803 0.0
H427 H 0.70563 0.35869 0.12218 0.0
H428 H 0.73916 0.32386 0.12923 0.0
H429 H 0.66946 0.27556 0.15182 0.0
H430 H 0.63541 0.31091 0.14509 0.0
H431 H 0.70715 0.2519 0.11855 0.0
H432 H 0.71401 0.29445 0.19279 0.0
H433 H 0.7194 0.3305 0.22056 0.0
H434 H 0.80289 0.34648 0.19198 0.0
H435 H 0.79789 0.31069 0.16382 0.0
C436 C 0.81476 0.17538 0.14523 0.0
C437 C 0.84279 0.18378 0.14004 0.0
C438 C 0.79194 0.19283 0.14699 0.0
C439 C 0.79648 0.21913 0.14343 0.0
C440 C 0.82458 0.22756 0.13885 0.0
C441 C 0.84738 0.21016 0.13713 0.0
C442 C 0.77212 0.2379 0.14392 0.0
C443 C 0.77412 0.25944 0.15874 0.0
C444 C 0.74725 0.23502 0.12963 0.0
C445 C 0.74407 0.21349 0.11277 0.0
C446 C 0.76458 0.20931 0.09484 0.0
C447 C 0.76152 0.18885 0.07911 0.0
C448 C 0.73791 0.17257 0.08101 0.0
C449 C 0.71725 0.17676 0.09861 0.0
C450 C 0.72023 0.19717 0.1144 0.0
C451 C 0.69727 0.34073 0.12875 0.0
C452 C 0.66769 0.33765 0.13298 0.0
C453 C 0.71661 0.3208 0.1329 0.0
C454 C 0.70701 0.29703 0.14119 0.0
C455 C 0.67746 0.29374 0.14548 0.0
C456 C 0.65801 0.31397 0.1417 0.0
C457 C 0.72807 0.27569 0.14442 0.0
C458 C 0.72552 0.25375 0.13024 0.0
C459 C 0.75242 0.2782 0.15932 0.0
C460 C 0.75545 0.29998 0.17602 0.0
C461 C 0.73341 0.30579 0.19225 0.0
C462 C 0.73643 0.32615 0.20811 0.0
C463 C 0.76144 0.34081 0.20799 0.0
C464 C 0.78351 0.33512 0.19204 0.0
C465 C 0.78062 0.31477 0.17614 0.0
H466 H 0.76373 0.35655 0.2203 0.0
H467 H 0.73557 0.15674 0.06882 0.0
H468 H 0.18598 0.8527 0.32089 0.0
H469 H 0.21978 0.8171 0.31525 0.0
H470 H 0.18994 0.78297 0.3806 0.0
H471 H 0.15726 0.81837 0.38661 0.0
H472 H 0.24407 0.78039 0.38066 0.0
H473 H 0.17224 0.7612 0.32151 0.0
H474 H 0.14252 0.76754 0.28568 0.0
H475 H 0.21846 0.77412 0.24286 0.0
H476 H 0.24861 0.76818 0.27845 0.0
H477 H 0.29077 0.65263 0.37381 0.0
H478 H 0.25997 0.69029 0.37156 0.0
H479 H 0.31278 0.72109 0.31553 0.0
H480 H 0.34406 0.68343 0.31783 0.0
H481 H 0.25156 0.72753 0.30784 0.0
H482 H 0.32259 0.74421 0.36769 0.0
H483 H 0.35108 0.73451 0.40351 0.0
H484 H 0.27405 0.73044 0.44525 0.0
H485 H 0.24505 0.73975 0.40958 0.0
C486 C 0.18675 0.83762 0.33406 0.0
C487 C 0.16895 0.83866 0.35431 0.0
C488 C 0.20595 0.8171 0.33073 0.0
C489 C 0.20749 0.79701 0.34742 0.0
C490 C 0.18952 0.79811 0.36746 0.0
C491 C 0.17069 0.81854 0.37088 0.0
C492 C 0.22825 0.77518 0.34496 0.0
C493 C 0.24535 0.76879 0.36473 0.0
C494 C 0.23088 0.76019 0.32401 0.0
C495 C 0.21271 0.76463 0.30274 0.0
C496 C 0.18261 0.76435 0.30451 0.0
C497 C 0.16568 0.76779 0.28422 0.0
C498 C 0.1786 0.77138 0.26202 0.0
C499 C 0.20847 0.77147 0.26006 0.0
C500 C 0.22548 0.76807 0.28029 0.0
C501 C 0.29579 0.66723 0.36081 0.0
C502 C 0.32007 0.6649 0.34606 0.0
C503 C 0.27812 0.68886 0.35959 0.0
C504 C 0.28407 0.7087 0.34348 0.0
C505 C 0.30767 0.70607 0.32809 0.0
C506 C 0.32561 0.68452 0.32949 0.0
C507 C 0.26642 0.7326 0.34373 0.0
C508 C 0.25019 0.73936 0.32362 0.0
C509 C 0.26424 0.74786 0.3644 0.0
C510 C 0.28164 0.74247 0.38592 0.0
C511 C 0.31171 0.74106 0.38447 0.0
C512 C 0.32795 0.73566 0.40475 0.0
C513 C 0.31438 0.7318 0.42663 0.0
C514 C 0.28453 0.73341 0.42828 0.0
C515 C 0.26819 0.73877 0.40804 0.0
H516 H 0.32699 0.72762 0.44231 0.0
H517 H 0.16549 0.77401 0.24633 0.0
H518 H 0.87434 0.31487 0.32331 0.0
H519 H 0.83618 0.28292 0.32565 0.0
H520 H 0.81095 0.31238 0.39417 0.0
H521 H 0.84997 0.34347 0.39239 0.0
H522 H 0.80493 0.26462 0.3962 0.0
H523 H 0.77721 0.32624 0.33867 0.0
H524 H 0.78216 0.35275 0.30271 0.0
H525 H 0.78057 0.28566 0.25901 0.0
H526 H 0.77726 0.25856 0.29482 0.0
H527 H 0.66238 0.21424 0.39644 0.0
H528 H 0.70236 0.24421 0.39273 0.0
H529 H 0.7391 0.19802 0.33717 0.0
H530 H 0.69932 0.16753 0.34109 0.0
H531 H 0.7387 0.25356 0.32798 0.0
H532 H 0.76754 0.19292 0.38853 0.0
H533 H 0.76102 0.16877 0.42582 0.0
H534 H 0.75472 0.23886 0.46495 0.0
H535 H 0.76079 0.26344 0.4278 0.0
C536 C 0.86085 0.31438 0.33899 0.0
C537 C 0.86531 0.33185 0.35764 0.0
C538 C 0.83878 0.29617 0.34024 0.0
C539 C 0.81995 0.29539 0.35985 0.0
C540 C 0.82492 0.31242 0.37877 0.0
C541 C 0.84734 0.33029 0.37773 0.0
C542 C 0.79496 0.27716 0.36061 0.0
C543 C 0.79037 0.26254 0.38129 0.0
C544 C 0.77573 0.274 0.34118 0.0
C545 C 0.77736 0.29029 0.31953 0.0
C546 C 0.77826 0.31706 0.32144 0.0
C547 C 0.78083 0.33221 0.30106 0.0
C548 C 0.78156 0.32091 0.27858 0.0
C549 C 0.78001 0.29439 0.27645 0.0
C550 C 0.77799 0.2791 0.2968 0.0
C551 C 0.67881 0.21045 0.38328 0.0
C552 C 0.6775 0.18835 0.36907 0.0
C553 C 0.70176 0.22765 0.38124 0.0
C554 C 0.7239 0.22342 0.36473 0.0
C555 C 0.72231 0.20177 0.35003 0.0
C556 C 0.69955 0.18429 0.35233 0.0
C557 C 0.74904 0.2412 0.36342 0.0
C558 C 0.75349 0.25574 0.34272 0.0
C559 C 0.76774 0.24479 0.38298 0.0
C560 C 0.76435 0.23001 0.40534 0.0
C561 C 0.76453 0.20318 0.40505 0.0
C562 C 0.76096 0.18942 0.42617 0.0
C563 C 0.75739 0.20227 0.44774 0.0
C564 C 0.75746 0.22893 0.44823 0.0
C565 C 0.76099 0.24278 0.42715 0.0
H566 H 0.75462 0.19158 0.46407 0.0
H567 H 0.78331 0.3327 0.26283 0.0
H568 H 0.86756 0.33374 0.90412 0.0
H569 H 0.83273 0.29883 0.90426 0.0
H570 H 0.79058 0.33173 0.84327 0.0
H571 H 0.82535 0.3667 0.84293 0.0
H572 H 0.75241 0.31496 0.87814 0.0
H573 H 0.83496 0.2842 0.83638 0.0
H574 H 0.88646 0.27483 0.83166 0.0
H575 H 0.88252 0.222 0.88998 0.0
H576 H 0.83117 0.23167 0.89556 0.0
H577 H 0.67095 0.20963 0.83728 0.0
H578 H 0.70596 0.24415 0.83992 0.0
H579 H 0.74537 0.20719 0.90019 0.0
H580 H 0.71006 0.17246 0.89766 0.0
H581 H 0.78548 0.22571 0.86756 0.0
H582 H 0.70267 0.25483 0.90847 0.0
H583 H 0.6525 0.26693 0.91615 0.0
H584 H 0.65732 0.32434 0.86175 0.0
H585 H 0.70714 0.31184 0.85295 0.0
C586 C 0.85074 0.33372 0.89085 0.0
C587 C 0.8493 0.35306 0.87348 0.0
C588 C 0.83092 0.31366 0.89091 0.0
C589 C 0.8092 0.31253 0.87365 0.0
C590 C 0.80717 0.3322 0.85674 0.0
C591 C 0.8271 0.35217 0.85656 0.0
C592 C 0.78893 0.29062 0.87289 0.0
C593 C 0.75952 0.29546 0.87546 0.0
C594 C 0.79846 0.26512 0.87017 0.0
C595 C 0.82924 0.25888 0.86654 0.0
C596 C 0.84511 0.27075 0.84833 0.0
C597 C 0.87428 0.26537 0.84548 0.0
C598 C 0.88774 0.24782 0.86048 0.0
C599 C 0.87206 0.23562 0.87837 0.0
C600 C 0.84293 0.24107 0.88142 0.0
C601 C 0.68742 0.20853 0.85079 0.0
C602 C 0.68801 0.18807 0.86702 0.0
C603 C 0.70723 0.22847 0.85247 0.0
C604 C 0.72823 0.22837 0.87034 0.0
C605 C 0.72936 0.20767 0.88625 0.0
C606 C 0.70921 0.18784 0.88479 0.0
C607 C 0.74873 0.25005 0.87247 0.0
C608 C 0.77824 0.24517 0.87019 0.0
C609 C 0.73927 0.27557 0.8755 0.0
C610 C 0.70867 0.28211 0.87981 0.0
C611 C 0.69291 0.26966 0.89777 0.0
C612 C 0.66452 0.27667 0.90239 0.0
C613 C 0.65175 0.29642 0.88949 0.0
C614 C 0.66728 0.3091 0.87181 0.0
C615 C 0.69553 0.30191 0.86686 0.0
H616 H 0.62979 0.30185 0.89314 0.0
H617 H 0.91032 0.24368 0.85823 0.0
H618 H 0.32973 0.68646 0.84438 0.0
H619 H 0.29195 0.71902 0.84073 0.0
H620 H 0.29817 0.73432 0.91588 0.0
H621 H 0.33587 0.70213 0.91955 0.0
H622 H 0.24132 0.72703 0.89933 0.0
H623 H 0.32678 0.77444 0.8787 0.0
H624 H 0.37023 0.78393 0.85531 0.0
H625 H 0.31938 0.79119 0.79201 0.0
H626 H 0.27565 0.78129 0.81496 0.0
H627 H 0.16185 0.83887 0.91662 0.0
H628 H 0.19956 0.80671 0.91483 0.0
H629 H 0.19927 0.81114 0.83817 0.0
H630 H 0.16192 0.84405 0.84 0.0
H631 H 0.25164 0.80645 0.852 0.0
H632 H 0.16665 0.76027 0.87037 0.0
H633 H 0.122 0.74985 0.89181 0.0
H634 H 0.16971 0.7382 0.95621 0.0
H635 H 0.21462 0.7489 0.93523 0.0
C636 C 0.32299 0.69679 0.86008 0.0
C637 C 0.33591 0.69179 0.88223 0.0
C638 C 0.30154 0.71547 0.85796 0.0
C639 C 0.29231 0.72922 0.87802 0.0
C640 C 0.30498 0.72404 0.90015 0.0
C641 C 0.32668 0.70572 0.90219 0.0
C642 C 0.26905 0.74864 0.8763 0.0
C643 C 0.24365 0.74451 0.88914 0.0
C644 C 0.27165 0.77101 0.86231 0.0
C645 C 0.29799 0.77672 0.84849 0.0
C646 C 0.32489 0.77772 0.85974 0.0
C647 C 0.34957 0.78326 0.84657 0.0
C648 C 0.34758 0.78805 0.82217 0.0
C649 C 0.3209 0.78739 0.8109 0.0
C650 C 0.29617 0.78181 0.82398 0.0
C651 C 0.16963 0.83288 0.89936 0.0
C652 C 0.15853 0.84379 0.87844 0.0
C653 C 0.19122 0.81439 0.89834 0.0
C654 C 0.20187 0.80582 0.87634 0.0
C655 C 0.19135 0.81718 0.85539 0.0
C656 C 0.16997 0.83602 0.85643 0.0
C657 C 0.22393 0.7851 0.87539 0.0
C658 C 0.24909 0.78891 0.86203 0.0
C659 C 0.22093 0.76214 0.88857 0.0
C660 C 0.19398 0.75559 0.90126 0.0
C661 C 0.1676 0.75565 0.88914 0.0
C662 C 0.14225 0.74967 0.9012 0.0
C663 C 0.14301 0.74342 0.92536 0.0
C664 C 0.16915 0.74307 0.9375 0.0
C665 C 0.19457 0.74906 0.92552 0.0
H666 H 0.12336 0.7388 0.93467 0.0
H667 H 0.36671 0.79237 0.81202 0.0
H668 H 0.61831 0.31505 0.62847 0.0
H669 H 0.64449 0.27458 0.63206 0.0
H670 H 0.69969 0.29706 0.57407 0.0
H671 H 0.6733 0.33685 0.56999 0.0
H672 H 0.6902 0.24839 0.57107 0.0
H673 H 0.71573 0.30626 0.63463 0.0
H674 H 0.70758 0.33272 0.67027 0.0
H675 H 0.67914 0.26668 0.70893 0.0
H676 H 0.68632 0.23998 0.67336 0.0
H677 H 0.82178 0.18509 0.59191 0.0
H678 H 0.78301 0.21599 0.58716 0.0
H679 H 0.73612 0.17983 0.64411 0.0
H680 H 0.77504 0.14889 0.64915 0.0
H681 H 0.73584 0.23084 0.64904 0.0
H682 H 0.71544 0.17244 0.58608 0.0
H683 H 0.72561 0.14629 0.55063 0.0
H684 H 0.74645 0.2138 0.51086 0.0
H685 H 0.73683 0.24034 0.54619 0.0
C686 C 0.63553 0.31103 0.61609 0.0
C687 C 0.64381 0.32928 0.59903 0.0
C688 C 0.65071 0.28799 0.61833 0.0
C689 C 0.67455 0.28291 0.60367 0.0
C690 C 0.68155 0.30046 0.5857 0.0
C691 C 0.6664 0.32331 0.58341 0.0
C692 C 0.69345 0.26029 0.60762 0.0
C693 C 0.70026 0.24466 0.58812 0.0
C694 C 0.70616 0.25491 0.63 0.0
C695 C 0.70123 0.27116 0.65122 0.0
C696 C 0.70738 0.29744 0.65064 0.0
C697 C 0.70295 0.31249 0.67084 0.0
C698 C 0.69283 0.3014 0.69185 0.0
C699 C 0.68689 0.27529 0.69264 0.0
C700 C 0.69107 0.2602 0.67245 0.0
C701 C 0.8032 0.18358 0.60339 0.0
C702 C 0.80158 0.16441 0.6209 0.0
C703 C 0.78092 0.20123 0.60056 0.0
C704 C 0.75639 0.20011 0.61507 0.0
C705 C 0.75474 0.18106 0.63263 0.0
C706 C 0.77701 0.16333 0.63544 0.0
C707 C 0.73303 0.21937 0.61236 0.0
C708 C 0.72544 0.23435 0.63209 0.0
C709 C 0.71977 0.2243 0.59016 0.0
C710 C 0.72562 0.20837 0.56887 0.0
C711 C 0.72242 0.1817 0.56984 0.0
C712 C 0.72805 0.16681 0.54975 0.0
C713 C 0.73672 0.17837 0.52852 0.0
C714 C 0.73975 0.20486 0.52732 0.0
C715 C 0.73419 0.21984 0.54737 0.0
H716 H 0.74105 0.16681 0.51298 0.0
H717 H 0.68978 0.31301 0.70754 0.0
H718 H 0.17171 0.70779 0.58864 0.0
H719 H 0.21247 0.73686 0.59205 0.0
H720 H 0.21515 0.72391 0.66775 0.0
H721 H 0.17417 0.69459 0.66443 0.0
H722 H 0.21937 0.7772 0.65349 0.0
H723 H 0.26402 0.69697 0.63817 0.0
H724 H 0.27143 0.65611 0.61739 0.0
H725 H 0.29045 0.69631 0.55266 0.0
H726 H 0.28277 0.73744 0.57301 0.0
H727 H 0.35278 0.84398 0.66372 0.0
H728 H 0.31459 0.81209 0.66713 0.0
H729 H 0.31334 0.80413 0.59075 0.0
H730 H 0.35191 0.83543 0.58738 0.0
H731 H 0.30945 0.75927 0.60956 0.0
H732 H 0.26151 0.83952 0.62414 0.0
H733 H 0.25411 0.88046 0.64486 0.0
H734 H 0.24085 0.84063 0.71075 0.0
H735 H 0.24857 0.79945 0.69047 0.0
C736 C 0.18079 0.71122 0.60605 0.0
C737 C 0.16957 0.69891 0.62627 0.0
C738 C 0.20422 0.72776 0.60796 0.0
C739 C 0.21689 0.73258 0.63014 0.0
C740 C 0.20566 0.72052 0.65045 0.0
C741 C 0.1824 0.70364 0.64851 0.0
C742 C 0.24202 0.75005 0.63179 0.0
C743 C 0.23927 0.77314 0.64424 0.0
C744 C 0.26781 0.74494 0.6194 0.0
C745 C 0.27258 0.72028 0.60708 0.0
C746 C 0.26956 0.69709 0.61946 0.0
C747 C 0.27385 0.67388 0.60777 0.0
C748 C 0.28134 0.67361 0.5837 0.0
C749 C 0.28462 0.69656 0.5713 0.0
C750 C 0.28034 0.71982 0.58291 0.0
C751 C 0.34427 0.83548 0.64767 0.0
C752 C 0.35542 0.84229 0.62528 0.0
C753 C 0.32235 0.81726 0.64962 0.0
C754 C 0.31064 0.80583 0.62917 0.0
C755 C 0.32195 0.81252 0.60683 0.0
C756 C 0.34408 0.83045 0.60491 0.0
C757 C 0.28673 0.78686 0.63083 0.0
C758 C 0.28969 0.76339 0.61898 0.0
C759 C 0.26111 0.79171 0.64372 0.0
C760 C 0.25591 0.81643 0.65583 0.0
C761 C 0.25717 0.83951 0.64307 0.0
C762 C 0.25291 0.86275 0.65473 0.0
C763 C 0.2471 0.86316 0.67912 0.0
C764 C 0.2454 0.8403 0.69187 0.0
C765 C 0.24969 0.817 0.6803 0.0
H766 H 0.24387 0.88117 0.68813 0.0
H767 H 0.28466 0.65562 0.57466 0.0
H768 H 0.94974 0.42023 0.28356 0.0
H769 H 0.98542 0.44667 0.26312 0.0
H770 H 0.02832 0.46027 0.32978 0.0
H771 H 0.99297 0.43343 0.35033 0.0
H772 H 0.01506 0.50559 0.30279 0.0
H773 H 0.06047 0.42386 0.2917 0.0
H774 H 0.0624 0.37876 0.27937 0.0
H775 H 0.04188 0.40025 0.20765 0.0
H776 H 0.03942 0.44547 0.21961 0.0
H777 H 0.12937 0.57721 0.25452 0.0
H778 H 0.10247 0.54451 0.27613 0.0
H779 H 0.07024 0.51497 0.20974 0.0
H780 H 0.09789 0.54703 0.18801 0.0
H781 H 0.07932 0.47677 0.23777 0.0
H782 H 0.0303 0.55603 0.24661 0.0
H783 H 0.0249 0.60161 0.25649 0.0
H784 H 0.04688 0.58585 0.3292 0.0
H785 H 0.05284 0.54019 0.31967 0.0
C786 C 0.96706 0.42845 0.29383 0.0
C787 C 0.96853 0.42456 0.31859 0.0
C788 C 0.98745 0.4436 0.28211 0.0
C789 C 0.00958 0.45552 0.29489 0.0
C790 C 0.01145 0.45129 0.31953 0.0
C791 C 0.99134 0.43575 0.33123 0.0
C792 C 0.02986 0.47328 0.28265 0.0
C793 C 0.02951 0.49923 0.28887 0.0
C794 C 0.04792 0.4652 0.26385 0.0
C795 C 0.04951 0.43803 0.25661 0.0
C796 C 0.05613 0.41895 0.27334 0.0
C797 C 0.05737 0.39337 0.26641 0.0
C798 C 0.0522 0.38664 0.24275 0.0
C799 C 0.04585 0.40549 0.22597 0.0
C800 C 0.04456 0.4311 0.23281 0.0
C801 C 0.11687 0.56355 0.24448 0.0
C802 C 0.11576 0.56491 0.21949 0.0
C803 C 0.10127 0.54492 0.25689 0.0
C804 C 0.08365 0.52749 0.24469 0.0
C805 C 0.08349 0.52815 0.21968 0.0
C806 C 0.09937 0.54658 0.20724 0.0
C807 C 0.0647 0.50922 0.25794 0.0
C808 C 0.06511 0.4832 0.25183 0.0
C809 C 0.04615 0.51733 0.27649 0.0
C810 C 0.04233 0.54473 0.28237 0.0
C811 C 0.03418 0.56231 0.26467 0.0
C812 C 0.031 0.58815 0.27021 0.0
C813 C 0.03563 0.59663 0.29344 0.0
C814 C 0.04335 0.57926 0.3112 0.0
C815 C 0.04662 0.55339 0.30575 0.0
H816 H 0.03317 0.61665 0.29769 0.0
H817 H 0.05316 0.36682 0.23742 0.0
H818 H 0.90306 0.0552 0.20374 0.0
H819 H 0.93786 0.03155 0.22709 0.0
H820 H 1.00425 0.08419 0.20569 0.0
H821 H 0.96939 0.10718 0.1808 0.0
H822 H 0.02642 0.04025 0.2057 0.0
H823 H 0.97145 0.08292 0.26456 0.0
H824 H 0.9281 0.09779 0.28553 0.0
H825 H 0.90431 0.02026 0.30044 0.0
H826 H 0.94732 1.0049 0.27928 0.0
H827 H 0.11649 0.99088 0.30141 0.0
H828 H 0.08682 0.01877 0.27637 0.0
H829 H 0.02195 0.96036 0.2727 0.0
H830 H 0.05162 0.93222 0.29723 0.0
H831 H 1.00214 1.01081 0.28716 0.0
H832 H 0.05914 0.96995 0.22575 0.0
H833 H 0.10464 0.95783 0.20643 0.0
H834 H 0.1275 0.03684 0.19941 0.0
H835 H 0.08229 0.04942 0.219 0.0
C836 C 0.925 0.06199 0.20413 0.0
C837 C 0.93334 0.08334 0.19061 0.0
C838 C 0.94498 0.04845 0.21769 0.0
C839 C 0.97376 0.05634 0.21888 0.0
C840 C 0.98221 0.07769 0.20531 0.0
C841 C 0.96225 0.09094 0.19116 0.0
C842 C 0.99486 0.04173 0.23375 0.0
C843 C 0.02121 0.03428 0.22367 0.0
C844 C 0.98836 0.03361 0.25727 0.0
C845 C 0.96252 0.04276 0.27016 0.0
C846 C 0.95689 0.06904 0.27218 0.0
C847 C 0.93238 0.07755 0.28412 0.0
C848 C 0.91344 0.05998 0.29427 0.0
C849 C 0.919 0.03385 0.29256 0.0
C850 C 0.94346 0.02523 0.28062 0.0
C851 C 0.09608 0.98384 0.295 0.0
C852 C 0.08651 0.95925 0.3013 0.0
C853 C 0.07914 0.99982 0.28069 0.0
C854 C 0.05213 0.99168 0.27269 0.0
C855 C 0.0427 0.96705 0.27868 0.0
C856 C 0.0598 0.95092 0.29261 0.0
C857 C 0.03309 1.00909 0.25886 0.0
C858 C 1.00725 0.01707 0.26924 0.0
C859 C 0.04039 0.01818 0.23593 0.0
C860 C 0.06749 1.01061 0.22409 0.0
C861 C 0.07399 0.98473 0.2203 0.0
C862 C 0.0997 0.97778 0.20925 0.0
C863 C 0.11899 0.99655 0.20176 0.0
C864 C 0.11256 0.02232 0.20525 0.0
C865 C 0.08689 0.02937 0.21631 0.0
H866 H 0.13888 0.99113 0.19321 0.0
H867 H 0.89447 0.06661 0.30349 0.0
H868 H 0.54848 0.10493 0.3294 0.0
H869 H 0.513 0.08064 0.30648 0.0
H870 H 0.58132 0.03803 0.27323 0.0
H871 H 0.61652 0.06303 0.2949 0.0
H872 H 0.54502 0.04604 0.24161 0.0
H873 H 0.536 0.01522 0.32198 0.0
H874 H 0.52785 0.0189 0.36521 0.0
H875 H 0.44366 0.04916 0.35246 0.0
H876 H 0.45147 0.04596 0.30913 0.0
H877 H 0.4685 0.93651 0.20311 0.0
H878 H 0.49893 0.96384 0.22778 0.0
H879 H 0.42786 0.01493 0.23931 0.0
H880 H 0.39733 0.98791 0.21433 0.0
H881 H 0.46248 1.00431 0.2815 0.0
H882 H 0.47284 0.032 0.19999 0.0
H883 H 0.4823 0.02539 0.15727 0.0
H884 H 0.56654 0.99725 0.17347 0.0
H885 H 0.55741 1.00332 0.21634 0.0
C886 C 0.55586 0.09054 0.31702 0.0
C887 C 0.58538 0.08605 0.31398 0.0
C888 C 0.53554 0.07644 0.30405 0.0
C889 C 0.54425 0.05699 0.28829 0.0
C890 C 0.57378 0.05285 0.28511 0.0
C891 C 0.59401 0.06724 0.29761 0.0
C892 C 0.52304 0.0408 0.27505 0.0
C893 C 0.52722 0.03675 0.25054 0.0
C894 C 0.49926 0.02887 0.2863 0.0
C895 C 0.49444 0.03061 0.31233 0.0
C896 C 0.51582 0.0228 0.3284 0.0
C897 C 0.51126 0.02479 0.35292 0.0
C898 C 0.48529 0.03433 0.36157 0.0
C899 C 0.46379 0.04182 0.34573 0.0
C900 C 0.46826 0.03991 0.32119 0.0
C901 C 0.45919 0.95338 0.2111 0.0
C902 C 0.43044 0.96004 0.2066 0.0
C903 C 0.47667 0.96904 0.22517 0.0
C904 C 0.46575 0.99156 0.23528 0.0
C905 C 0.43676 0.99767 0.23171 0.0
C906 C 0.41936 0.98221 0.21736 0.0
C907 C 0.48502 1.00935 0.24844 0.0
C908 C 0.48035 0.01371 0.27277 0.0
C909 C 0.50867 0.02122 0.23717 0.0
C910 C 0.51434 0.0179 0.21138 0.0
C911 C 0.4933 0.02422 0.19445 0.0
C912 C 0.49862 0.0206 0.17021 0.0
C913 C 0.52498 1.01085 0.16266 0.0
C914 C 0.54612 1.00478 0.17934 0.0
C915 C 0.54089 1.00832 0.20361 0.0
H916 H 0.52905 1.00805 0.14388 0.0
H917 H 0.48181 0.03587 0.38056 0.0
H918 H 0.5667 0.41063 0.2232 0.0
H919 H 0.53409 0.4393 0.24468 0.0
H920 H 0.49899 0.46535 0.17807 0.0
H921 H 0.53087 0.43626 0.15649 0.0
H922 H 0.52123 0.50497 0.21258 0.0
H923 H 0.45745 0.4323 0.20676 0.0
H924 H 0.44441 0.38709 0.21228 0.0
H925 H 0.45706 0.39422 0.28763 0.0
H926 H 0.4706 0.43941 0.28251 0.0
H927 H 0.41427 0.5879 0.25444 0.0
H928 H 0.43897 0.55397 0.23286 0.0
H929 H 0.44971 0.51203 0.29834 0.0
H930 H 0.4241 0.54558 0.31992 0.0
H931 H 0.4402 0.47951 0.26469 0.0
H932 H 0.50403 0.54925 0.27338 0.0
H933 H 0.52131 0.59363 0.27106 0.0
H934 H 0.51484 0.59163 0.1949 0.0
H935 H 0.4969 0.54738 0.19678 0.0
C936 C 0.55167 0.42211 0.21314 0.0
C937 C 0.55132 0.42103 0.18812 0.0
C938 C 0.53308 0.43852 0.22545 0.0
C939 C 0.51416 0.45451 0.21297 0.0
C940 C 0.5134 0.45317 0.18804 0.0
C941 C 0.53152 0.43638 0.17575 0.0
C942 C 0.49625 0.47356 0.22585 0.0
C943 C 0.5032 0.4995 0.22367 0.0
C944 C 0.47355 0.46628 0.24112 0.0
C945 C 0.46535 0.43916 0.24421 0.0
C946 C 0.45774 0.42416 0.22448 0.0
C947 C 0.45018 0.39855 0.22754 0.0
C948 C 0.44999 0.38777 0.25028 0.0
C949 C 0.45727 0.40259 0.27002 0.0
C950 C 0.46486 0.42821 0.26705 0.0
C951 C 0.4215 0.57129 0.26423 0.0
C952 C 0.41726 0.56957 0.28896 0.0
C953 C 0.43588 0.55194 0.25187 0.0
C954 C 0.44693 0.53059 0.26398 0.0
C955 C 0.44158 0.52828 0.28852 0.0
C956 C 0.42687 0.54752 0.30087 0.0
C957 C 0.4648 0.51121 0.25119 0.0
C958 C 0.45807 0.48516 0.2535 0.0
C959 C 0.48825 0.51835 0.23649 0.0
C960 C 0.49879 0.54506 0.23525 0.0
C961 C 0.506 0.55835 0.25614 0.0
C962 C 0.51595 0.58347 0.25491 0.0
C963 C 0.51912 0.59545 0.23285 0.0
C964 C 0.51233 0.58232 0.21198 0.0
C965 C 0.50224 0.55723 0.21312 0.0
H966 H 0.5269 0.61488 0.23193 0.0
H967 H 0.44413 0.36794 0.25262 0.0
H968 H 0.02107 0.62548 0.7338 0.0
H969 H 0.99631 0.59759 0.76217 0.0
H970 H 0.98682 0.5404 0.70766 0.0
H971 H 0.0111 0.56832 0.67918 0.0
H972 H 0.9384 0.54457 0.73484 0.0
H973 H 0.04041 0.53618 0.74719 0.0
H974 H 0.08919 0.55186 0.75568 0.0
H975 H 0.06074 0.58089 0.82309 0.0
H976 H 0.01165 0.56568 0.81483 0.0
H977 H 0.92783 0.42709 0.79521 0.0
H978 H 0.93995 0.46418 0.77108 0.0
H979 H 0.94689 0.51011 0.83442 0.0
H980 H 0.93505 0.47277 0.85889 0.0
H981 H 0.99277 0.51641 0.80602 0.0
H982 H 0.89152 0.51927 0.79537 0.0
H983 H 0.84334 0.50241 0.78653 0.0
H984 H 0.87036 0.48294 0.71581 0.0
H985 H 0.91884 0.49934 0.72432 0.0
C986 C 0.01325 0.60717 0.72775 0.0
C987 C 0.01825 0.59903 0.70426 0.0
C988 C 0.99929 0.59117 0.74403 0.0
C989 C 0.99 0.56677 0.73712 0.0
C990 C 0.99386 0.55909 0.71342 0.0
C991 C 1.00793 0.57499 0.69721 0.0
C992 C 0.97757 0.54865 0.75469 0.0
C993 C 0.95031 0.53832 0.75036 0.0
C994 C 0.99281 0.54096 0.77527 0.0
C995 C 0.02229 0.55009 0.78026 0.0
C996 C 0.0445 0.54611 0.76372 0.0
C997 C 0.07221 0.55487 0.76851 0.0
C998 C 0.07804 0.56744 0.78987 0.0
C999 C 0.05618 0.5712 0.80652 0.0
C1000 C 0.02841 0.56252 0.8018 0.0
C1001 C 0.93155 0.44513 0.80407 0.0
C1002 C 0.93049 0.44692 0.82902 0.0
C1003 C 0.93834 0.4664 0.79019 0.0
C1004 C 0.9441 0.49005 0.80087 0.0
C1005 C 0.94245 0.49209 0.82577 0.0
C1006 C 0.93555 0.47075 0.83972 0.0
C1007 C 0.9537 0.51198 0.78602 0.0
C1008 C 0.98053 0.52298 0.79079 0.0
C1009 C 0.93808 0.52021 0.7658 0.0
C1010 C 0.9089 0.5104 0.76055 0.0
C1011 C 0.88726 0.51123 0.77798 0.0
C1012 C 0.85988 0.50178 0.77302 0.0
C1013 C 0.85381 0.49157 0.75064 0.0
C1014 C 0.87509 0.49085 0.73315 0.0
C1015 C 0.90252 0.50025 0.73802 0.0
H1016 H 0.8326 0.48427 0.74683 0.0
H1017 H 0.09952 0.57419 0.79355 0.0
H1018 H 1.00846 0.97858 0.82056 0.0
H1019 H 0.97836 1.00361 0.79374 0.0
H1020 H 0.97563 0.9406 0.74452 0.0
H1021 H 1.00634 0.91559 0.77113 0.0
H1022 H 0.98703 0.98552 0.72201 0.0
H1023 H 0.91718 0.955 0.7774 0.0
H1024 H 0.89648 0.94658 0.81701 0.0
H1025 H 0.89436 0.02698 0.83148 0.0
H1026 H 0.91544 0.03588 0.79208 0.0
H1027 H 0.8888 0.05166 0.64808 0.0
H1028 H 0.90778 0.01822 0.67413 0.0
H1029 H 0.91318 0.07222 0.73181 0.0
H1030 H 0.89357 0.10545 0.70618 0.0
H1031 H 0.89704 0.02735 0.74846 0.0
H1032 H 0.97197 0.05759 0.69602 0.0
H1033 H 0.99315 0.06708 0.65676 0.0
H1034 H 0.98636 0.98809 0.63733 0.0
H1035 H 0.96486 0.97821 0.6764 0.0
C1036 C 1.00154 0.97004 0.80402 0.0
C1037 C 0.00989 0.94507 0.79801 0.0
C1038 C 0.98408 0.98429 0.78878 0.0
C1039 C 0.97448 0.97392 0.76719 0.0
C1040 C 0.98268 0.94897 0.76113 0.0
C1041 C 1.00006 0.93463 0.77645 0.0
C1042 C 0.95671 0.98952 0.75069 0.0
C1043 C 0.96705 0.99425 0.72764 0.0
C1044 C 0.93092 1.00135 0.75815 0.0
C1045 C 0.9181 0.99609 0.78183 0.0
C1046 C 0.9125 0.97088 0.78909 0.0
C1047 C 0.90066 0.96602 0.8115 0.0
C1048 C 0.89416 0.98622 0.82677 0.0
C1049 C 0.89942 1.01134 0.81964 0.0
C1050 C 0.91128 0.01631 0.79725 0.0
C1051 C 0.89357 0.05631 0.66643 0.0
C1052 C 0.88988 0.08132 0.67496 0.0
C1053 C 0.90459 0.03719 0.68127 0.0
C1054 C 0.91249 0.0428 0.70483 0.0
C1055 C 0.90738 0.06741 0.7137 0.0
C1056 C 0.89618 0.08644 0.69896 0.0
C1057 C 0.92759 0.02366 0.71992 0.0
C1058 C 0.9168 0.01832 0.74272 0.0
C1059 C 0.95308 1.0114 0.7123 0.0
C1060 C 0.96655 0.01721 0.68901 0.0
C1061 C 0.97489 0.04228 0.68332 0.0
C1062 C 0.98696 0.04772 0.66112 0.0
C1063 C 0.99103 0.02822 0.64453 0.0
C1064 C 0.98317 1.00319 0.65017 0.0
C1065 C 0.97107 0.99765 0.67235 0.0
H1066 H 1.00032 0.0325 0.62734 0.0
H1067 H 0.885 0.98242 0.84411 0.0
H1068 H 0.59354 0.10759 0.82069 0.0
H1069 H 0.5737 0.07934 0.79038 0.0
H1070 H 0.58828 0.01445 0.83604 0.0
H1071 H 0.6086 0.04258 0.8664 0.0
H1072 H 0.60143 1.00328 0.79019 0.0
H1073 H 0.52201 0.04067 0.83172 0.0
H1074 H 0.4931 0.07587 0.84821 0.0
H1075 H 0.48155 0.10675 0.77808 0.0
H1076 H 0.51075 0.07191 0.7612 0.0
H1077 H 0.50517 0.91865 0.73004 0.0
H1078 H 0.53056 0.94478 0.75926 0.0
H1079 H 0.51557 1.01171 0.71631 0.0
H1080 H 0.49029 0.98574 0.68706 0.0
H1081 H 0.50283 0.02105 0.76149 0.0
H1082 H 0.58227 0.98345 0.71989 0.0
H1083 H 0.61124 0.94822 0.70354 0.0
H1084 H 0.62252 0.91746 0.77374 0.0
H1085 H 0.59328 0.95234 0.79049 0.0
C1086 C 0.59277 0.08729 0.82426 0.0
C1087 C 0.6025 0.0774 0.8461 0.0
C1088 C 0.58129 0.07115 0.80692 0.0
C1089 C 0.57904 0.04479 0.81106 0.0
C1090 C 0.5897 0.03472 0.83246 0.0
C1091 C 0.60126 0.05086 0.84983 0.0
C1092 C 0.56469 0.02793 0.79339 0.0
C1093 C 0.57974 1.00696 0.78413 0.0
C1094 C 0.53654 0.03295 0.78516 0.0
C1095 C 0.51879 0.05382 0.79523 0.0
C1096 C 0.51347 0.05507 0.81984 0.0
C1097 C 0.49701 0.07494 0.82925 0.0
C1098 C 0.48556 0.09357 0.81421 0.0
C1099 C 0.49047 0.09232 0.78971 0.0
C1100 C 0.50696 0.07251 0.78021 0.0
C1101 C 0.5076 0.93886 0.72664 0.0
C1102 C 0.49554 0.95006 0.70619 0.0
C1103 C 0.52212 0.95381 0.74339 0.0
C1104 C 0.52515 0.98024 0.73996 0.0
C1105 C 0.51342 0.9914 0.71944 0.0
C1106 C 0.49886 0.9765 0.70274 0.0
C1107 C 0.53964 0.9965 0.75805 0.0
C1108 C 0.52454 0.01734 0.76749 0.0
C1109 C 0.5677 0.99131 0.76643 0.0
C1110 C 0.58534 0.97037 0.75641 0.0
C1111 C 0.59074 0.96906 0.73182 0.0
C1112 C 0.60724 0.94918 0.72249 0.0
C1113 C 0.61865 0.93058 0.73758 0.0
C1114 C 0.61364 0.93186 0.76206 0.0
C1115 C 0.59712 0.9517 0.77149 0.0
H1116 H 0.63142 0.9152 0.73032 0.0
H1117 H 0.47282 0.10894 0.82152 0.0
H1118 H 0.55049 0.47978 0.64483 0.0
H1119 H 0.52735 0.50012 0.67869 0.0
H1120 H 0.52179 0.42757 0.71455 0.0
H1121 H 0.54564 0.40683 0.68056 0.0
H1122 H 0.46986 0.46853 0.71719 0.0
H1123 H 0.56966 0.45301 0.73528 0.0
H1124 H 0.62096 0.45148 0.72473 0.0
H1125 H 0.61987 0.53179 0.70942 0.0
H1126 H 0.56839 0.53368 0.71956 0.0
H1127 H 0.44855 0.53143 0.82822 0.0
H1128 H 0.46568 0.50142 0.79824 0.0
H1129 H 0.50456 0.56343 0.75939 0.0
H1130 H 0.48738 0.59365 0.78938 0.0
H1131 H 0.53962 0.52249 0.76098 0.0
H1132 H 0.44001 0.53797 0.74252 0.0
H1133 H 0.38827 0.53971 0.75151 0.0
H1134 H 0.38825 0.45943 0.76687 0.0
H1135 H 0.44011 0.4573 0.75831 0.0
C1136 C 0.54385 0.46795 0.65966 0.0
C1137 C 0.55019 0.44172 0.66011 0.0
C1138 C 0.53056 0.47964 0.67898 0.0
C1139 C 0.52312 0.46539 0.69913 0.0
C1140 C 0.52734 0.43885 0.69906 0.0
C1141 C 0.54089 0.42704 0.67964 0.0
C1142 C 0.51418 0.47912 0.72092 0.0
C1143 C 0.48511 0.47987 0.72719 0.0
C1144 C 0.53407 0.49432 0.73352 0.0
C1145 C 0.56515 0.49344 0.72798 0.0
C1146 C 0.58032 0.4703 0.7295 0.0
C1147 C 0.60943 0.46937 0.72362 0.0
C1148 C 0.62365 0.49151 0.71633 0.0
C1149 C 0.60881 0.51465 0.71504 0.0
C1150 C 0.57968 0.51567 0.72089 0.0
C1151 C 0.46062 0.53875 0.81325 0.0
C1152 C 0.46629 0.56504 0.81108 0.0
C1153 C 0.47045 0.52152 0.79613 0.0
C1154 C 0.48601 0.53019 0.77634 0.0
C1155 C 0.49253 0.5563 0.77449 0.0
C1156 C 0.48277 0.57357 0.79168 0.0
C1157 C 0.4951 0.51215 0.75737 0.0
C1158 C 0.52429 0.51077 0.75143 0.0
C1159 C 0.47525 0.49633 0.74519 0.0
C1160 C 0.444 0.49753 0.75002 0.0
C1161 C 0.42901 0.52073 0.74797 0.0
C1162 C 0.39966 0.52178 0.75297 0.0
C1163 C 0.385 0.49971 0.75982 0.0
C1164 C 0.39964 0.47652 0.7616 0.0
C1165 C 0.42901 0.47537 0.75666 0.0
H1166 H 0.36228 0.50057 0.7637 0.0
H1167 H 0.64618 0.49075 0.71175 0.0
H1168 H 0.0411 0.70264 0.18137 0.0
H1169 H 0.02742 0.72923 0.21523 0.0
H1170 H 0.03635 0.66458 0.26217 0.0
H1171 H 0.0501 0.63787 0.22827 0.0
H1172 H 0.99072 0.70439 0.27485 0.0
H1173 H 0.09266 0.69223 0.25729 0.0
H1174 H 0.13425 0.69145 0.23012 0.0
H1175 H 0.11858 0.76959 0.21113 0.0
H1176 H 0.07679 0.77072 0.23797 0.0
H1177 H 0.08118 0.7983 0.35562 0.0
H1178 H 0.07316 0.75874 0.33362 0.0
H1179 H 0.99391 0.78922 0.30598 0.0
H1180 H 1.0018 0.82871 0.32826 0.0
H1181 H 0.07404 0.76192 0.28665 0.0
H1182 H 0.95212 0.73897 0.28563 0.0
H1183 H 0.91102 0.73929 0.31327 0.0
H1184 H 0.96816 0.73013 0.37252 0.0
H1185 H 0.00956 0.72938 0.34524 0.0
C1186 C 0.03896 0.69386 0.19871 0.0
C1187 C 0.04707 0.66837 0.20235 0.0
C1188 C 0.03117 0.70905 0.21802 0.0
C1189 C 0.03121 0.69883 0.24111 0.0
C1190 C 0.03618 0.67272 0.24444 0.0
C1191 C 0.04424 0.65758 0.22515 0.0
C1192 C 0.03201 0.71616 0.26169 0.0
C1193 C 0.00882 0.71704 0.27757 0.0
C1194 C 0.05603 0.73208 0.26536 0.0
C1195 C 0.08144 0.73147 0.24944 0.0
C1196 C 0.09799 0.70917 0.24718 0.0
C1197 C 0.12165 0.70869 0.23188 0.0
C1198 C 0.12909 0.73045 0.21887 0.0
C1199 C 0.11288 0.75274 0.22119 0.0
C1200 C 0.08922 0.75333 0.23647 0.0
C1201 C 0.06163 0.79616 0.34542 0.0
C1202 C 0.0423 0.81655 0.34331 0.0
C1203 C 0.05703 0.77361 0.33293 0.0
C1204 C 0.03307 0.77114 0.31804 0.0
C1205 C 0.01239 0.79062 0.31756 0.0
C1206 C 0.01691 0.81318 0.33026 0.0
C1207 C 0.03251 0.75064 0.3 0.0
C1208 C 0.05589 0.74921 0.28433 0.0
C1209 C 0.00877 0.73418 0.29681 0.0
C1210 C 0.98398 0.73435 0.31337 0.0
C1211 C 0.95591 0.73691 0.30454 0.0
C1212 C 0.93256 0.73719 0.32016 0.0
C1213 C 0.93698 0.73481 0.34464 0.0
C1214 C 0.96477 0.73208 0.35356 0.0
C1215 C 0.9882 0.73177 0.33803 0.0
H1216 H 0.91887 0.73504 0.35669 0.0
H1217 H 0.14742 0.73007 0.20705 0.0
H1218 H 0.78429 0.06479 0.15164 0.0
H1219 H 0.75864 0.05724 0.18907 0.0
H1220 H 0.83125 0.01501 0.21585 0.0
H1221 H 0.85638 0.02186 0.17818 0.0
H1222 H 0.7821 0.99696 0.23487 0.0
H1223 H 0.82817 0.07781 0.22484 0.0
H1224 H 0.83933 0.118 0.20389 0.0
H1225 H 0.75108 0.14076 0.20865 0.0
H1226 H 0.73928 0.10054 0.22935 0.0
H1227 H 0.74032 0.08037 0.34783 0.0
H1228 H 0.77066 0.07079 0.31337 0.0
H1229 H 0.70873 0.0151 0.28967 0.0
H1230 H 0.67918 0.02401 0.32455 0.0
H1231 H 0.75783 0.08069 0.27076 0.0
H1232 H 0.73737 0.97277 0.25158 0.0
H1233 H 0.73192 0.93256 0.27396 0.0
H1234 H 0.77949 0.9642 0.33225 0.0
H1235 H 0.78557 1.00448 0.31011 0.0
C1236 C 0.79415 0.05303 0.16521 0.0
C1237 C 0.82216 0.04391 0.16215 0.0
C1238 C 0.77967 0.04885 0.18658 0.0
C1239 C 0.79337 0.0361 0.20541 0.0
C1240 C 0.82031 0.02493 0.20157 0.0
C1241 C 0.83461 0.02876 0.18002 0.0
C1242 C 0.78155 0.03767 0.22981 0.0
C1243 C 0.77666 0.0152 0.24278 0.0
C1244 C 0.77566 0.06158 0.24044 0.0
C1245 C 0.7828 0.08607 0.22848 0.0
C1246 C 0.81111 0.09134 0.22133 0.0
C1247 C 0.81755 0.11411 0.20948 0.0
C1248 C 0.79592 0.13188 0.20488 0.0
C1249 C 0.76781 0.12696 0.2122 0.0
C1250 C 0.76123 0.10419 0.22401 0.0
C1251 C 0.73378 0.06556 0.33557 0.0
C1252 C 0.70761 0.05284 0.33882 0.0
C1253 C 0.75096 0.06016 0.31587 0.0
C1254 C 0.74204 0.04219 0.29887 0.0
C1255 C 0.71646 0.02863 0.30272 0.0
C1256 C 0.69954 0.03373 0.32266 0.0
C1257 C 0.75757 0.03987 0.2759 0.0
C1258 C 0.76326 0.06233 0.26309 0.0
C1259 C 0.76504 0.01599 0.26585 0.0
C1260 C 0.76169 0.99174 0.27924 0.0
C1261 C 0.74677 0.97112 0.26913 0.0
C1262 C 0.74355 0.94832 0.28179 0.0
C1263 C 0.75528 0.94585 0.30454 0.0
C1264 C 0.77032 0.96617 0.31466 0.0
C1265 C 0.77362 0.98901 0.30208 0.0
H1266 H 0.75275 0.92819 0.31431 0.0
H1267 H 0.80095 0.14949 0.19571 0.0
H1268 H 0.42986 0.7098 0.30976 0.0
H1269 H 0.44126 0.74007 0.27818 0.0
H1270 H 0.51875 0.69833 0.26241 0.0
H1271 H 0.50688 0.66741 0.2936 0.0
H1272 H 0.48283 0.77209 0.26908 0.0
H1273 H 0.52724 0.69776 0.20224 0.0
H1274 H 0.52153 0.65197 0.19294 0.0
H1275 H 0.43703 0.65277 0.22336 0.0
H1276 H 0.44211 0.69855 0.23254 0.0
H1277 H 0.50913 0.85022 0.17269 0.0
H1278 H 0.52212 0.81573 0.2002 0.0
H1279 H 0.45549 0.76863 0.17005 0.0
H1280 H 0.44379 0.8025 0.14188 0.0
H1281 H 0.49317 0.73886 0.18687 0.0
H1282 H 0.44241 0.81197 0.21707 0.0
H1283 H 0.43517 0.85779 0.22517 0.0
H1284 H 0.51208 0.85926 0.26707 0.0
H1285 H 0.51993 0.81347 0.25903 0.0
C1286 C 0.44937 0.70712 0.29963 0.0
C1287 C 0.4673 0.6861 0.30397 0.0
C1288 C 0.456 0.72454 0.28173 0.0
C1289 C 0.4807 0.72129 0.26781 0.0
C1290 C 0.49942 0.70101 0.27281 0.0
C1291 C 0.49276 0.6835 0.29076 0.0
C1292 C 0.48573 0.73843 0.24729 0.0
C1293 C 0.48553 0.76484 0.25115 0.0
C1294 C 0.48838 0.72895 0.22383 0.0
C1295 C 0.48524 0.70144 0.21835 0.0
C1296 C 0.50746 0.68813 0.20691 0.0
C1297 C 0.50431 0.6622 0.20165 0.0
C1298 C 0.47895 0.64948 0.2076 0.0
C1299 C 0.45669 0.66263 0.21883 0.0
C1300 C 0.45971 0.68854 0.2241 0.0
C1301 C 0.49824 0.83203 0.17141 0.0
C1302 C 0.47549 0.82886 0.15541 0.0
C1303 C 0.50543 0.81245 0.18717 0.0
C1304 C 0.48905 0.78994 0.18777 0.0
C1305 C 0.46825 0.78588 0.17012 0.0
C1306 C 0.4616 0.80519 0.15397 0.0
C1307 C 0.49017 0.77261 0.20862 0.0
C1308 C 0.49143 0.74615 0.20487 0.0
C1309 C 0.48678 0.78201 0.23211 0.0
C1310 C 0.48194 0.80942 0.23723 0.0
C1311 C 0.45783 0.82211 0.22793 0.0
C1312 C 0.45363 0.84806 0.23249 0.0
C1313 C 0.47321 0.86145 0.24653 0.0
C1314 C 0.49698 0.84888 0.25614 0.0
C1315 C 0.50131 0.82293 0.2516 0.0
H1316 H 0.46993 0.88154 0.25002 0.0
H1317 H 0.47649 0.62945 0.20344 0.0
H1318 H 0.66636 0.48658 0.17923 0.0
H1319 H 0.69719 0.49306 0.21412 0.0
H1320 H 0.73626 0.41956 0.20217 0.0
H1321 H 0.70589 0.41318 0.16735 0.0
H1322 H 0.7113 0.42544 0.24716 0.0
H1323 H 0.77392 0.47171 0.19295 0.0
H1324 H 0.78523 0.50602 0.1644 0.0
H1325 H 0.76379 0.56238 0.21687 0.0
H1326 H 0.75198 0.52836 0.24565 0.0
H1327 H 0.83465 0.40803 0.31406 0.0
H1328 H 0.79805 0.41419 0.28413 0.0
H1329 H 0.78056 0.48944 0.3115 0.0
H1330 H 0.81719 0.48326 0.34223 0.0
H1331 H 0.78697 0.48956 0.26338 0.0
H1332 H 0.73364 0.44294 0.31994 0.0
H1333 H 0.72108 0.40904 0.34848 0.0
H1334 H 0.72166 0.35373 0.29224 0.0
H1335 H 0.73556 0.38699 0.2635 0.0
C1336 C 0.68214 0.4722 0.18368 0.0
C1337 C 0.68356 0.44922 0.17084 0.0
C1338 C 0.6996 0.47587 0.20363 0.0
C1339 C 0.71869 0.45664 0.21078 0.0
C1340 C 0.72141 0.43449 0.19702 0.0
C1341 C 0.70408 0.43086 0.1772 0.0
C1342 C 0.73401 0.45813 0.2337 0.0
C1343 C 0.72804 0.4393 0.25072 0.0
C1344 C 0.75464 0.47709 0.23865 0.0
C1345 C 0.7617 0.4975 0.22134 0.0
C1346 C 0.77132 0.49141 0.19832 0.0
C1347 C 0.7779 0.51081 0.18212 0.0
C1348 C 0.77513 0.53637 0.18879 0.0
C1349 C 0.76586 0.54258 0.21171 0.0
C1350 C 0.75924 0.52325 0.22797 0.0
C1351 C 0.82273 0.42571 0.31427 0.0
C1352 C 0.82889 0.4451 0.3308 0.0
C1353 C 0.80178 0.42923 0.29698 0.0
C1354 C 0.78638 0.45215 0.29577 0.0
C1355 C 0.79221 0.47157 0.31222 0.0
C1356 C 0.8132 0.46803 0.32969 0.0
C1357 C 0.76537 0.45592 0.27639 0.0
C1358 C 0.76999 0.47586 0.26009 0.0
C1359 C 0.74335 0.43793 0.27209 0.0
C1360 C 0.73589 0.41757 0.28952 0.0
C1361 C 0.73158 0.42349 0.31367 0.0
C1362 C 0.72424 0.40435 0.32992 0.0
C1363 C 0.7207 0.37922 0.3222 0.0
C1364 C 0.72451 0.37319 0.29822 0.0
C1365 C 0.73226 0.39217 0.28195 0.0
H1366 H 0.71493 0.36444 0.33479 0.0
H1367 H 0.78025 0.55136 0.17622 0.0
H1368 H 0.91112 0.22097 0.6536 0.0
H1369 H 0.91863 0.25096 0.68649 0.0
H1370 H 0.97957 0.19885 0.71791 0.0
H1371 H 0.97295 0.1696 0.68461 0.0
H1372 H 0.90862 0.24922 0.73065 0.0
H1373 H 0.02904 0.22854 0.75024 0.0
H1374 H 0.07297 0.21691 0.72831 0.0
H1375 H 0.03809 0.24936 0.6644 0.0
H1376 H 0.99412 0.26149 0.68601 0.0
H1377 H 0.94026 0.29959 0.8439 0.0
H1378 H 0.93607 0.27086 0.80971 0.0
H1379 H 0.99389 0.31898 0.76979 0.0
H1380 H 0.99896 0.34699 0.80424 0.0
H1381 H 1.00541 0.27325 0.75945 0.0
H1382 H 0.91889 0.32082 0.76417 0.0
H1383 H 0.87473 0.33816 0.78205 0.0
H1384 H 0.84112 0.26236 0.78993 0.0
H1385 H 0.88544 0.24448 0.77273 0.0
C1386 C 0.9263 0.21617 0.66747 0.0
C1387 C 0.94174 0.1932 0.66644 0.0
C1388 C 0.93053 0.23321 0.68628 0.0
C1389 C 0.95001 0.22741 0.70459 0.0
C1390 C 0.96507 0.2042 0.70372 0.0
C1391 C 0.96126 0.18744 0.68469 0.0
C1392 C 0.95409 0.24528 0.72489 0.0
C1393 C 0.92979 0.2545 0.73692 0.0
C1394 C 0.98168 0.25272 0.73282 0.0
C1395 C 1.00817 0.24569 0.71971 0.0
C1396 C 0.03079 0.23328 0.73153 0.0
C1397 C 0.05569 0.22658 0.71915 0.0
C1398 C 0.05828 0.23232 0.69496 0.0
C1399 C 0.03601 0.24484 0.68312 0.0
C1400 C 0.01108 0.25161 0.69542 0.0
C1401 C 0.95226 0.30378 0.82787 0.0
C1402 C 0.96996 0.32544 0.82669 0.0
C1403 C 0.94972 0.28751 0.80829 0.0
C1404 C 0.96419 0.293 0.78694 0.0
C1405 C 0.98251 0.31427 0.78602 0.0
C1406 C 0.98548 0.33025 0.80573 0.0
C1407 C 0.95995 0.27694 0.76541 0.0
C1408 C 0.98422 0.268 0.75319 0.0
C1409 C 0.9323 0.27061 0.75676 0.0
C1410 C 0.90568 0.28128 0.76737 0.0
C1411 C 0.90223 0.30781 0.76995 0.0
C1412 C 0.87715 0.31774 0.77996 0.0
C1413 C 0.85514 0.30137 0.78714 0.0
C1414 C 0.85818 0.27502 0.78433 0.0
C1415 C 0.88332 0.26497 0.77454 0.0
H1416 H 0.83573 0.3091 0.79487 0.0
H1417 H 0.07757 0.2271 0.68541 0.0
H1418 H 0.30034 0.94597 0.6506 0.0
H1419 H 0.26486 0.94926 0.6827 0.0
H1420 H 0.33298 0.95211 0.73444 0.0
H1421 H 0.36847 0.9491 0.70269 0.0
H1422 H 0.28994 0.91568 0.74472 0.0
H1423 H 0.29867 1.00456 0.72305 0.0
H1424 H 0.2978 0.041 0.69526 0.0
H1425 H 0.20975 0.02518 0.67853 0.0
H1426 H 0.21022 0.9884 0.70599 0.0
H1427 H 0.21008 0.94422 0.84805 0.0
H1428 H 0.2453 0.94726 0.81588 0.0
H1429 H 0.1769 0.95547 0.76481 0.0
H1430 H 0.14166 0.95295 0.7968 0.0
H1431 H 0.21982 0.98625 0.75363 0.0
H1432 H 0.2094 0.8983 0.77399 0.0
H1433 H 0.20857 0.86057 0.80025 0.0
H1434 H 0.29738 0.87209 0.81721 0.0
H1435 H 0.2986 0.91022 0.79142 0.0
C1436 C 0.30777 0.94763 0.66878 0.0
C1437 C 0.33726 0.94729 0.67404 0.0
C1438 C 0.28748 0.94949 0.68709 0.0
C1439 C 0.29635 0.95089 0.71092 0.0
C1440 C 0.32572 0.95097 0.71617 0.0
C1441 C 0.34597 0.94937 0.69794 0.0
C1442 C 0.27512 0.95151 0.73054 0.0
C1443 C 0.27484 0.93126 0.7469 0.0
C1444 C 0.2549 0.97145 0.73285 0.0
C1445 C 0.25458 0.99357 0.71638 0.0
C1446 C 0.2792 1.00871 0.71328 0.0
C1447 C 0.27876 0.02945 0.69762 0.0
C1448 C 0.25376 0.03535 0.68508 0.0
C1449 C 0.22912 0.02056 0.68823 0.0
C1450 C 0.22945 0.99978 0.70385 0.0
C1451 C 0.20254 0.94701 0.83002 0.0
C1452 C 0.17304 0.94815 0.825 0.0
C1453 C 0.22269 0.94859 0.81163 0.0
C1454 C 0.21371 0.95112 0.78788 0.0
C1455 C 0.18434 0.95341 0.78297 0.0
C1456 C 0.16421 0.95191 0.80132 0.0
C1457 C 0.23477 0.95053 0.76806 0.0
C1458 C 0.23495 0.97068 0.75156 0.0
C1459 C 0.25465 0.93027 0.76542 0.0
C1460 C 0.254 0.90733 0.78097 0.0
C1461 C 0.22869 0.89295 0.7835 0.0
C1462 C 0.22815 0.87147 0.79828 0.0
C1463 C 0.25288 0.86398 0.81044 0.0
C1464 C 0.27822 0.87795 0.80782 0.0
C1465 C 0.27884 0.89951 0.79313 0.0
H1466 H 0.25243 0.84732 0.82184 0.0
H1467 H 0.25346 0.05143 0.67298 0.0
H1468 H 0.55879 0.21983 0.81878 0.0
H1469 H 0.57555 0.25223 0.79088 0.0
H1470 H 0.63836 0.27739 0.84168 0.0
H1471 H 0.62114 0.24561 0.8703 0.0
H1472 H 0.60874 0.31829 0.81607 0.0
H1473 H 0.66268 0.24155 0.8024 0.0
H1474 H 0.66938 0.19546 0.79523 0.0
H1475 H 0.61999 0.20092 0.73103 0.0
H1476 H 0.61275 0.24695 0.73791 0.0
H1477 H 0.67907 0.38972 0.72276 0.0
H1478 H 0.67244 0.36133 0.75726 0.0
H1479 H 0.61527 0.31431 0.71591 0.0
H1480 H 0.62166 0.34199 0.68202 0.0
H1481 H 0.64982 0.28532 0.74071 0.0
H1482 H 0.59135 0.35995 0.75558 0.0
H1483 H 0.5833 0.406 0.76167 0.0
H1484 H 0.63886 0.40473 0.82255 0.0
H1485 H 0.64763 0.35873 0.81656 0.0
C1486 C 0.57554 0.23271 0.82446 0.0
C1487 C 0.5886 0.23 0.8469 0.0
C1488 C 0.5853 0.25109 0.80834 0.0
C1489 C 0.60826 0.26714 0.8143 0.0
C1490 C 0.62044 0.26537 0.83698 0.0
C1491 C 0.6107 0.24704 0.85317 0.0
C1492 C 0.62048 0.28472 0.79628 0.0
C1493 C 0.61817 0.31116 0.79972 0.0
C1494 C 0.63263 0.27534 0.77497 0.0
C1495 C 0.63691 0.24764 0.77082 0.0
C1496 C 0.65301 0.23286 0.78689 0.0
C1497 C 0.65695 0.20677 0.78286 0.0
C1498 C 0.645 0.19527 0.76277 0.0
C1499 C 0.62918 0.20985 0.74661 0.0
C1500 C 0.62519 0.23594 0.75055 0.0
C1501 C 0.66534 0.37317 0.72107 0.0
C1502 C 0.65127 0.36809 0.69946 0.0
C1503 C 0.66147 0.35704 0.74077 0.0
C1504 C 0.6432 0.33575 0.73921 0.0
C1505 C 0.62963 0.33047 0.71755 0.0
C1506 C 0.63356 0.34637 0.69799 0.0
C1507 C 0.6372 0.31898 0.75997 0.0
C1508 C 0.64081 0.29257 0.75714 0.0
C1509 C 0.62598 0.32844 0.78167 0.0
C1510 C 0.62045 0.35599 0.78544 0.0
C1511 C 0.60203 0.36954 0.77015 0.0
C1512 C 0.59731 0.39562 0.7736 0.0
C1513 C 0.61064 0.4083 0.79244 0.0
C1514 C 0.62862 0.3949 0.80793 0.0
C1515 C 0.63348 0.36883 0.80451 0.0
H1516 H 0.60696 0.42849 0.79507 0.0
H1517 H 0.64808 0.17507 0.75969 0.0
H1518 H 0.2764 0.5865 0.85552 0.0
H1519 H 0.24645 0.58023 0.82014 0.0
H1520 H 0.32204 0.56537 0.77816 0.0
H1521 H 0.35199 0.57122 0.81319 0.0
H1522 H 0.28656 0.60422 0.75987 0.0
H1523 H 0.2796 0.51801 0.7882 0.0
H1524 H 0.26989 0.48429 0.81773 0.0
H1525 H 0.18244 0.50925 0.82334 0.0
H1526 H 0.19174 0.54338 0.79407 0.0
H1527 H 0.21046 0.58442 0.6531 0.0
H1528 H 0.24294 0.57502 0.68622 0.0
H1529 H 0.17166 0.57772 0.73515 0.0
H1530 H 0.13914 0.58629 0.70232 0.0
H1531 H 0.2077 0.54187 0.74859 0.0
H1532 H 0.21438 0.63005 0.72497 0.0
H1533 H 0.22225 0.66532 0.69659 0.0
H1534 H 0.30816 0.63905 0.68402 0.0
H1535 H 0.30063 0.60338 0.71207 0.0
C1536 C 0.28658 0.58144 0.83886 0.0
C1537 C 0.31659 0.57959 0.83718 0.0
C1538 C 0.26946 0.57785 0.81869 0.0
C1539 C 0.28212 0.57245 0.79657 0.0
C1540 C 0.31191 0.56963 0.79505 0.0
C1541 C 0.32897 0.57295 0.81516 0.0
C1542 C 0.26459 0.5717 0.77465 0.0
C1543 C 0.26964 0.59031 0.75718 0.0
C1544 C 0.24212 0.55394 0.77152 0.0
C1545 C 0.23645 0.53342 0.7891 0.0
C1546 C 0.25837 0.51647 0.79588 0.0
C1547 C 0.25292 0.49724 0.81255 0.0
C1548 C 0.22558 0.49467 0.82245 0.0
C1549 C 0.20361 0.51128 0.81567 0.0
C1550 C 0.20895 0.53056 0.79903 0.0
C1551 C 0.20167 0.58257 0.67086 0.0
C1552 C 0.17229 0.58647 0.6751 0.0
C1553 C 0.22025 0.5773 0.68978 0.0
C1554 C 0.20978 0.57616 0.71322 0.0
C1555 C 0.18025 0.57858 0.71725 0.0
C1556 C 0.16169 0.58364 0.69841 0.0
C1557 C 0.22956 0.57449 0.73382 0.0
C1558 C 0.22487 0.55556 0.75111 0.0
C1559 C 0.25212 0.59224 0.73701 0.0
C1560 C 0.25684 0.61388 0.72041 0.0
C1561 C 0.23489 0.63171 0.71604 0.0
C1562 C 0.23929 0.65177 0.70003 0.0
C1563 C 0.26566 0.65437 0.68847 0.0
C1564 C 0.28772 0.63697 0.69296 0.0
C1565 C 0.28341 0.61683 0.70892 0.0
H1566 H 0.26903 0.66991 0.67609 0.0
H1567 H 0.2214 0.47977 0.83534 0.0
H1568 H 0.10457 0.5396 0.10727 0.0
H1569 H 0.07846 0.51168 0.08009 0.0
H1570 H 0.08424 0.56881 0.02502 0.0
H1571 H 0.10952 0.59716 0.05231 0.0
H1572 H 0.03132 0.5493 0.02687 0.0
H1573 H 0.1266 0.51516 0.02392 0.0
H1574 H 0.17161 0.49791 0.04038 0.0
H1575 H 0.1254 0.43541 0.0716 0.0
H1576 H 0.08003 0.45247 0.05559 0.0
H1577 H 0.98238 0.46763 0.93406 0.0
H1578 H 0.01204 0.4961 0.95816 0.0
H1579 H 0.0106 0.44147 0.01559 0.0
H1580 H 0.98199 0.4126 0.99137 0.0
H1581 H 0.06272 0.46052 0.01092 0.0
H1582 H 0.96742 0.4954 0.01556 0.0
H1583 H 0.9221 0.51259 0.99959 0.0
H1584 H 0.9681 0.57358 0.96565 0.0
H1585 H 0.01375 0.55655 0.98117 0.0
C1586 C 0.1002 0.54632 0.08943 0.0
C1587 C 0.10929 0.5707 0.08207 0.0
C1588 C 0.08547 0.53021 0.0738 0.0
C1589 C 0.07962 0.53799 0.05037 0.0
C1590 C 0.08857 0.56231 0.04296 0.0
C1591 C 0.10331 0.57844 0.05858 0.0
C1592 C 0.06372 0.52095 0.03374 0.0
C1593 C 0.03845 0.53002 0.02309 0.0
C1594 C 0.07262 0.49559 0.02914 0.0
C1595 C 0.09988 0.48523 0.03873 0.0
C1596 C 0.126 0.49784 0.03444 0.0
C1597 C 0.15159 0.48808 0.04367 0.0
C1598 C 0.15136 0.46561 0.05708 0.0
C1599 C 0.12554 0.45282 0.06123 0.0
C1600 C 0.09989 0.46252 0.05207 0.0
C1601 C 0.98861 0.46152 0.95169 0.0
C1602 C 0.9795 0.4378 0.96075 0.0
C1603 C 1.00537 0.47796 0.96558 0.0
C1604 C 0.01325 0.47114 0.98888 0.0
C1605 C 1.00473 0.44727 0.99774 0.0
C1606 C 0.98807 0.43084 0.98389 0.0
C1607 C 0.0302 0.4888 0.00418 0.0
C1608 C 0.05567 0.47985 0.01459 0.0
C1609 C 0.02145 0.51425 0.00861 0.0
C1610 C 0.99402 0.52455 0.99931 0.0
C1611 C 0.96789 0.51237 0.00454 0.0
C1612 C 0.94214 0.5221 0.9956 0.0
C1613 C 0.94223 0.54412 0.98156 0.0
C1614 C 0.96807 0.5565 0.97649 0.0
C1615 C 0.99388 0.54683 0.98537 0.0
H1616 H 0.92227 0.55162 0.97465 0.0
H1617 H 0.17119 0.45808 0.0642 0.0
H1618 H 0.10665 0.96115 0.95091 0.0
H1619 H 0.08237 0.98876 0.97967 0.0
H1620 H 0.02532 0.01534 0.92462 0.0
H1621 H 0.04957 0.98796 0.89573 0.0
H1622 H 0.04346 0.05447 0.95248 0.0
H1623 H 1.00356 0.97064 0.96452 0.0
H1624 H 1.0054 0.92442 0.97263 0.0
H1625 H 0.04562 0.93877 0.03999 0.0
H1626 H 0.04438 0.98509 0.03212 0.0
H1627 H 0.93075 0.10679 0.02149 0.0
H1628 H 0.96053 0.08219 0.99422 0.0
H1629 H 0.01099 0.05484 0.05324 0.0
H1630 H 0.9811 0.07942 0.08073 0.0
H1631 H 0.99882 0.01666 0.02448 0.0
H1632 H 0.03697 0.10042 0.01369 0.0
H1633 H 0.03563 0.1467 0.00583 0.0
H1634 H 0.99978 0.1329 0.9367 0.0
H1635 H 1.00054 0.08653 0.94427 0.0
C1636 C 0.08904 0.97297 0.94486 0.0
C1637 C 0.08002 0.97221 0.92099 0.0
C1638 C 0.07509 0.98868 0.96138 0.0
C1639 C 0.05177 1.00394 0.9544 0.0
C1640 C 0.04321 1.00373 0.93046 0.0
C1641 C 0.05708 0.98797 0.91396 0.0
C1642 C 0.03592 0.0198 0.97207 0.0
C1643 C 0.03344 0.04617 0.9681 0.0
C1644 C 0.02348 1.00913 0.99282 0.0
C1645 C 0.02416 0.98131 0.99761 0.0
C1646 C 0.01301 0.96393 0.98097 0.0
C1647 C 0.0139 0.93771 0.98554 0.0
C1648 C 0.02569 0.92866 0.00678 0.0
C1649 C 0.03654 0.94581 0.02353 0.0
C1650 C 0.03573 0.97204 0.01903 0.0
C1651 C 0.94842 0.09588 0.02872 0.0
C1652 C 0.95352 0.09524 0.05339 0.0
C1653 C 0.96548 0.08175 0.01304 0.0
C1654 C 0.98832 0.06684 0.02156 0.0
C1655 C 0.99352 0.06617 0.04618 0.0
C1656 C 0.97636 0.08022 0.0619 0.0
C1657 C 1.00615 0.05138 0.00485 0.0
C1658 C 0.00898 0.02505 0.00897 0.0
C1659 C 0.01902 0.06212 0.98429 0.0
C1660 C 0.01858 0.09 0.97964 0.0
C1661 C 0.0286 0.10726 0.99688 0.0
C1662 C 0.02798 0.13351 0.99247 0.0
C1663 C 0.01756 0.14273 0.9708 0.0
C1664 C 1.00781 0.12572 0.95348 0.0
C1665 C 1.00836 0.09945 0.95782 0.0
H1666 H 0.0171 0.16306 0.96742 0.0
H1667 H 0.02636 0.90836 0.01029 0.0
H1668 H 0.39143 0.99253 0.06853 0.0
H1669 H 0.41994 0.01894 0.04166 0.0
H1670 H 0.49753 0.987 0.07075 0.0
H1671 H 0.46943 0.96018 0.09729 0.0
H1672 H 0.50086 0.03876 0.06656 0.0
H1673 H 0.473 0.96791 0.01712 0.0
H1674 H 0.43869 0.93854 0.99809 0.0
H1675 H 0.39842 1.00165 0.96257 0.0
H1676 H 0.43227 0.03144 0.98166 0.0
H1677 H 0.60424 0.07639 0.9827 0.0
H1678 H 0.57185 0.05175 0.00785 0.0
H1679 H 0.49921 0.08322 0.9705 0.0
H1680 H 0.5318 0.1078 0.94492 0.0
H1681 H 0.4906 0.03402 0.97883 0.0
H1682 H 0.51909 0.10485 0.02656 0.0
H1683 H 0.55271 0.13475 0.04571 0.0
H1684 H 0.59052 0.0729 0.08483 0.0
H1685 H 0.55739 0.04256 0.06566 0.0
C1686 C 0.41451 0.99084 0.06917 0.0
C1687 C 0.42788 0.97395 0.08526 0.0
C1688 C 0.43083 1.00608 0.05375 0.0
C1689 C 0.46091 1.00485 0.05402 0.0
C1690 C 0.47435 0.98835 0.07022 0.0
C1691 C 0.45811 0.97301 0.08553 0.0
C1692 C 0.47851 0.0208 0.03759 0.0
C1693 C 0.49883 0.03752 0.04737 0.0
C1694 C 0.47528 0.01982 0.01255 0.0
C1695 C 0.45496 1.00193 1.00103 0.0
C1696 C 0.45667 0.97554 0.00541 0.0
C1697 C 0.43734 0.95882 0.99459 0.0
C1698 C 0.41633 0.96823 0.97919 0.0
C1699 C 0.41467 0.99439 0.97454 0.0
C1700 C 0.43393 1.0112 0.98534 0.0
C1701 C 0.58138 0.07824 0.9799 0.0
C1702 C 0.57063 0.09437 0.96196 0.0
C1703 C 0.56282 0.06411 0.99433 0.0
C1704 C 0.53297 0.06599 0.9915 0.0
C1705 C 0.52213 0.08151 0.97316 0.0
C1706 C 0.54077 0.09554 0.95852 0.0
C1707 C 0.5133 0.05177 0.00778 0.0
C1708 C 0.49255 0.03541 0.99801 0.0
C1709 C 0.51599 0.05319 0.03287 0.0
C1710 C 0.53591 0.0714 0.04451 0.0
C1711 C 0.53471 0.09759 0.03911 0.0
C1712 C 0.55366 0.11462 0.04999 0.0
C1713 C 0.57378 0.10572 0.06643 0.0
C1714 C 0.57495 0.07977 0.07207 0.0
C1715 C 0.55607 0.06265 0.06122 0.0
H1716 H 0.58844 0.11894 0.07484 0.0
H1717 H 0.40139 0.95525 0.97082 0.0
H1718 H 0.40749 0.50625 0.90497 0.0
H1719 H 0.43235 0.48222 0.93591 0.0
H1720 H 0.44897 0.55199 0.97407 0.0
H1721 H 0.42434 0.57631 0.94294 0.0
H1722 H 0.49667 0.52378 0.97062 0.0
H1723 H 0.40003 0.5085 0.99477 0.0
H1724 H 0.34941 0.49597 0.98994 0.0
H1725 H 0.37537 0.42038 0.96989 0.0
H1726 H 0.42619 0.43256 0.97427 0.0
H1727 H 0.55301 0.45996 0.07232 0.0
H1728 H 0.52292 0.48606 0.04632 0.0
H1729 H 0.50399 0.41993 0.00356 0.0
H1730 H 0.53343 0.39357 0.02985 0.0
H1731 H 0.45622 0.44793 0.01149 0.0
H1732 H 0.5527 0.46408 0.98513 0.0
H1733 H 0.60336 0.47662 0.98977 0.0
H1734 H 0.57739 0.55077 0.01402 0.0
H1735 H 0.52654 0.53854 0.00983 0.0
C1736 C 0.41611 0.51652 0.92007 0.0
C1737 C 0.41388 0.54325 0.92143 0.0
C1738 C 0.43027 0.50269 0.93783 0.0
C1739 C 0.4424 0.51523 0.95746 0.0
C1740 C 0.43978 0.54188 0.95911 0.0
C1741 C 0.42556 0.55575 0.94134 0.0
C1742 C 0.45899 0.50059 0.97557 0.0
C1743 C 0.48762 0.50748 0.97989 0.0
C1744 C 0.44749 0.47894 0.98729 0.0
C1745 C 0.41694 0.47152 0.98465 0.0
C1746 C 0.39496 0.48926 0.98914 0.0
C1747 C 0.36623 0.48221 0.98652 0.0
C1748 C 0.35918 0.45741 0.97956 0.0
C1749 C 0.38086 0.43959 0.97526 0.0
C1750 C 0.40963 0.44655 0.97784 0.0
C1751 C 0.54225 0.45087 0.05754 0.0
C1752 C 0.54579 0.42461 0.05319 0.0
C1753 C 0.52522 0.4659 0.04255 0.0
C1754 C 0.51139 0.45504 0.02281 0.0
C1755 C 0.51449 0.42877 0.01863 0.0
C1756 C 0.53157 0.41375 0.03358 0.0
C1757 C 0.4939 0.47103 0.00638 0.0
C1758 C 0.46514 0.46436 1.00236 0.0
C1759 C 0.50527 0.4929 0.99493 0.0
C1760 C 0.53582 0.5003 0.99742 0.0
C1761 C 0.55779 0.48299 0.99164 0.0
C1762 C 0.58654 0.49005 0.99415 0.0
C1763 C 0.59359 0.51445 1.00225 0.0
C1764 C 0.5719 0.53186 0.00779 0.0
C1765 C 0.54311 0.52488 0.00534 0.0
H1766 H 0.61585 0.51989 0.00417 0.0
H1767 H 0.33692 0.45199 0.97755 0.0
H1768 H 0.04097 0.94859 0.40583 0.0
H1769 H 0.01156 0.97503 0.43171 0.0
H1770 H 0.08756 1.00364 0.46617 0.0
H1771 H 0.11739 0.97744 0.43998 0.0
H1772 H 0.04561 0.99061 0.49837 0.0
H1773 H 0.05233 0.04079 0.42729 0.0
H1774 H 0.04931 0.04894 0.38416 0.0
H1775 H 0.95947 0.03104 0.38521 0.0
H1776 H 0.96203 0.02242 0.42831 0.0
H1777 H 0.96972 0.08907 0.56045 0.0
H1778 H 1.00357 0.06461 0.53615 0.0
H1779 H 0.93368 0.03851 0.49218 0.0
H1780 H 0.90003 0.06335 0.51607 0.0
H1781 H 0.97555 0.0522 0.465 0.0
H1782 H 0.9688 1.00005 0.53543 0.0
H1783 H 0.97173 0.99032 0.57831 0.0
H1784 H 0.0609 1.0107 0.57848 0.0
H1785 H 0.05841 0.02092 0.53567 0.0
C1786 C 0.05162 0.96071 0.41861 0.0
C1787 C 0.08174 0.96092 0.42055 0.0
C1788 C 0.03467 0.9758 0.43353 0.0
C1789 C 0.04733 0.99155 0.45074 0.0
C1790 C 0.07731 0.99163 0.45301 0.0
C1791 C 0.09435 0.97657 0.43802 0.0
C1792 C 0.02911 1.00777 0.46638 0.0
C1793 C 0.03059 1.00438 0.49113 0.0
C1794 C 0.00911 0.02536 0.45691 0.0
C1795 C 1.00744 0.03075 0.43101 0.0
C1796 C 0.03197 0.03841 0.4183 0.0
C1797 C 0.03034 0.04314 0.39386 0.0
C1798 C 1.00423 0.04045 0.38194 0.0
C1799 C 0.97968 0.0331 0.39446 0.0
C1800 C 0.98121 0.02831 0.4189 0.0
C1801 C 0.96159 0.07791 0.54574 0.0
C1802 C 0.93219 0.0782 0.54016 0.0
C1803 C 0.98095 0.06388 0.53185 0.0
C1804 C 0.97123 0.04945 0.51237 0.0
C1805 C 0.94181 0.04955 0.50699 0.0
C1806 C 0.92256 0.06378 0.52066 0.0
C1807 C 0.99158 0.03478 0.49711 0.0
C1808 C 0.9906 0.03851 0.47235 0.0
C1809 C 0.01192 0.01742 0.5066 0.0
C1810 C 0.01334 1.0115 0.53239 0.0
C1811 C 0.98897 1.00268 0.54466 0.0
C1812 C 0.99056 0.99703 0.56894 0.0
C1813 C 0.01648 0.99992 0.5811 0.0
C1814 C 0.04084 1.00849 0.56903 0.0
C1815 C 0.03935 0.01421 0.54476 0.0
H1816 H 0.01773 0.99541 0.59986 0.0
H1817 H 1.00301 0.04411 0.36301 0.0
H1818 H 0.54193 0.07871 0.42141 0.0
H1819 H 0.51132 0.05273 0.44718 0.0
H1820 H 0.56335 0.07296 0.50765 0.0
H1821 H 0.59455 0.09805 0.48204 0.0
H1822 H 0.55252 0.02361 0.5083 0.0
H1823 H 0.49579 0.09972 0.49738 0.0
H1824 H 0.47057 0.13265 0.47403 0.0
H1825 H 0.41689 0.07519 0.4428 0.0
H1826 H 0.44205 0.04186 0.46578 0.0
H1827 H 0.46465 0.98563 0.60371 0.0
H1828 H 0.49123 1.0114 0.57501 0.0
H1829 H 0.43579 0.98518 0.51877 0.0
H1830 H 0.40871 0.95951 0.54753 0.0
H1831 H 0.44719 0.03557 0.51382 0.0
H1832 H 0.50235 0.95974 0.52562 0.0
H1833 H 0.52738 0.92653 0.54877 0.0
H1834 H 0.58411 0.98304 0.57771 0.0
H1835 H 0.55915 0.01666 0.55498 0.0
C1836 C 0.547 0.07757 0.44015 0.0
C1837 C 0.57084 0.09069 0.44951 0.0
C1838 C 0.52925 0.06285 0.45495 0.0
C1839 C 0.53478 0.06103 0.47948 0.0
C1840 C 0.55853 0.07406 0.48883 0.0
C1841 C 0.57627 0.08869 0.47409 0.0
C1842 C 0.51637 0.04519 0.49549 0.0
C1843 C 0.52953 0.02648 0.50968 0.0
C1844 C 0.4862 0.04826 0.49684 0.0
C1845 C 0.47099 0.06828 0.48311 0.0
C1846 C 0.47875 0.09409 0.4854 0.0
C1847 C 0.46444 0.11283 0.47226 0.0
C1848 C 0.4422 0.10601 0.45689 0.0
C1849 C 0.43416 0.08044 0.45469 0.0
C1850 C 0.44841 0.06162 0.46778 0.0
C1851 C 0.45793 0.9854 0.58528 0.0
C1852 C 0.43459 0.97031 0.57796 0.0
C1853 C 0.47328 1.0001 0.56883 0.0
C1854 C 0.46587 0.99994 0.5446 0.0
C1855 C 0.44202 0.98555 0.53733 0.0
C1856 C 0.42658 0.97084 0.55381 0.0
C1857 C 0.48347 0.01438 0.52692 0.0
C1858 C 0.47016 0.03269 0.51238 0.0
C1859 C 0.51353 1.01093 0.52516 0.0
C1860 C 0.52871 0.99074 0.53875 0.0
C1861 C 0.52003 0.96511 0.53705 0.0
C1862 C 0.53423 0.94621 0.55008 0.0
C1863 C 0.55728 0.95268 0.56475 0.0
C1864 C 0.56623 0.97806 0.56636 0.0
C1865 C 0.55209 0.99704 0.55339 0.0
H1866 H 0.56824 0.93802 0.57482 0.0
H1867 H 0.43115 0.12054 0.44673 0.0
H1868 H 0.61505 0.46483 0.52272 0.0
H1869 H 0.58459 0.4886 0.49502 0.0
H1870 H 0.51221 0.47788 0.54182 0.0
H1871 H 0.54245 0.45396 0.56936 0.0
H1872 H 0.49583 0.47075 0.49776 0.0
H1873 H 0.54946 0.5354 0.53835 0.0
H1874 H 0.59293 0.55707 0.55299 0.0
H1875 H 0.62227 0.56736 0.48119 0.0
H1876 H 0.57913 0.54544 0.46613 0.0
H1877 H 0.4052 0.56895 0.45187 0.0
H1878 H 0.43648 0.54313 0.47733 0.0
H1879 H 0.50352 0.54751 0.42461 0.0
H1880 H 0.4724 0.57345 0.39916 0.0
H1881 H 0.52305 0.55749 0.47046 0.0
H1882 H 0.46738 0.49366 0.43035 0.0
H1883 H 0.42294 0.47284 0.41671 0.0
H1884 H 0.39625 0.46218 0.48917 0.0
H1885 H 0.44038 0.48328 0.50325 0.0
C1886 C 0.59268 0.46762 0.52713 0.0
C1887 C 0.58125 0.45746 0.54828 0.0
C1888 C 0.57525 0.48125 0.51129 0.0
C1889 C 0.54609 0.48536 0.51641 0.0
C1890 C 0.53458 0.47495 0.53738 0.0
C1891 C 0.55192 0.46117 0.55312 0.0
C1892 C 0.52755 0.50055 0.50005 0.0
C1893 C 0.50167 0.48984 0.49205 0.0
C1894 C 0.53529 0.5253 0.49214 0.0
C1895 C 0.56122 0.53854 0.50113 0.0
C1896 C 0.56529 0.54211 0.52569 0.0
C1897 C 0.58985 0.55446 0.53406 0.0
C1898 C 0.61039 0.56352 0.51803 0.0
C1899 C 0.60637 0.5603 0.49359 0.0
C1900 C 0.58186 0.54793 0.48512 0.0
C1901 C 0.4266 0.56444 0.44573 0.0
C1902 C 0.43624 0.57318 0.42344 0.0
C1903 C 0.44441 0.54956 0.46022 0.0
C1904 C 0.4723 0.54324 0.45281 0.0
C1905 C 0.48206 0.55208 0.43066 0.0
C1906 C 0.46416 0.56673 0.41605 0.0
C1907 C 0.49139 0.5277 0.46833 0.0
C1908 C 0.51732 0.53837 0.47616 0.0
C1909 C 0.48358 0.50302 0.47625 0.0
C1910 C 0.45706 0.49028 0.46784 0.0
C1911 C 0.45193 0.48707 0.44338 0.0
C1912 C 0.42681 0.47518 0.43557 0.0
C1913 C 0.40675 0.46625 0.45206 0.0
C1914 C 0.4118 0.46914 0.47641 0.0
C1915 C 0.43686 0.48104 0.48432 0.0
H1916 H 0.38732 0.45704 0.44598 0.0
H1917 H 0.62939 0.57309 0.52455 0.0
H1918 H 0.94262 0.43005 0.48441 0.0
H1919 H 0.96906 0.45978 0.50943 0.0
H1920 H 0.01662 0.48598 0.4483 0.0
H1921 H 0.99078 0.45559 0.42314 0.0
H1922 H 0.05153 0.47918 0.48637 0.0
H1923 H 0.96273 0.52198 0.47123 0.0
H1924 H 0.91015 0.52648 0.46926 0.0
H1925 H 0.90413 0.51374 0.54457 0.0
H1926 H 0.95667 0.50881 0.54694 0.0
H1927 H 0.10866 0.58779 0.54751 0.0
H1928 H 0.08468 0.55958 0.51911 0.0
H1929 H 0.03017 0.53111 0.57521 0.0
H1930 H 0.05354 0.55955 0.60351 0.0
H1931 H 0.99925 0.54095 0.53724 0.0
H1932 H 0.08756 0.49608 0.55219 0.0
H1933 H 0.14007 0.49094 0.55431 0.0
H1934 H 0.14699 0.50723 0.47964 0.0
H1935 H 0.09453 0.51278 0.47715 0.0
C1936 C 0.95886 0.44191 0.47623 0.0
C1937 C 0.96448 0.44035 0.45167 0.0
C1938 C 0.9738 0.45913 0.49058 0.0
C1939 C 0.99461 0.47539 0.48073 0.0
C1940 C 1.00058 0.47372 0.45629 0.0
C1941 C 0.98559 0.45646 0.44188 0.0
C1942 C 0.01007 0.49401 0.49606 0.0
C1943 C 0.04013 0.49297 0.49722 0.0
C1944 C 0.99522 0.51171 0.51056 0.0
C1945 C 0.96363 0.51482 0.50922 0.0
C1946 C 0.95018 0.51996 0.48734 0.0
C1947 C 0.92039 0.52261 0.48616 0.0
C1948 C 0.90381 0.52034 0.50677 0.0
C1949 C 0.917 0.51547 0.52862 0.0
C1950 C 0.94679 0.51278 0.5299 0.0
C1951 C 0.09165 0.57545 0.55383 0.0
C1952 C 0.08306 0.57597 0.57783 0.0
C1953 C 0.07801 0.55923 0.53756 0.0
C1954 C 0.05573 0.543 0.54501 0.0
C1955 C 0.04724 0.54346 0.56898 0.0
C1956 C 0.06072 0.55972 0.58518 0.0
C1957 C 0.04073 0.52588 0.52788 0.0
C1958 C 0.01071 0.52725 0.52633 0.0
C1959 C 0.05563 0.50847 0.51308 0.0
C1960 C 0.08716 0.50513 0.51454 0.0
C1961 C 0.10031 0.49877 0.53627 0.0
C1962 C 0.13005 0.49574 0.53753 0.0
C1963 C 0.14686 0.49883 0.51714 0.0
C1964 C 0.13395 0.50488 0.49543 0.0
C1965 C 0.10421 0.50796 0.49408 0.0
H1966 H 0.16989 0.49647 0.51815 0.0
H1967 H 0.88074 0.5224 0.50582 0.0
loop_
_geom_bond_atom_site_label_1
_geom_bond_atom_site_label_2
_geom_bond_distance
_geom_bond_site_symmetry_2
_ccdc_geom_bond_type
Cu0 N1 1.999 . S
Cu0 O6 1.974 . S
Cu0 N11 1.985 . S
Cu0 O20 1.959 . S
N1 Cu0 1.999 . S
N1 C3 1.263 . S
N1 C5 1.389 . S
N2 C3 1.358 . S
N2 C4 1.400 . S
C3 N1 1.263 . S
C3 N2 1.358 . S
C3 H9 0.930 . S
C4 N2 1.400 . S
C4 C5 1.351 . S
C4 H21 0.930 . S
C5 N1 1.389 . S
C5 C4 1.351 . S
C5 H10 0.930 . S
O6 Cu0 1.974 . S
O6 C16 1.282 . S
C7 O8 1.261 . S
C7 O20 1.251 . S
O8 C7 1.261 . S
H9 C3 0.930 . S
H10 C5 0.930 . S
N11 Cu0 1.985 . S
N11 C13 1.335 . S
N11 C14 1.390 . S
N12 C13 1.345 . S
N12 C15 1.336 . S
C13 N11 1.335 . S
C13 N12 1.345 . S
C13 H18 0.930 . S
C14 N11 1.390 . S
C14 C15 1.346 . S
C14 H19 0.930 . S
C15 N12 1.336 . S
C15 C14 1.346 . S
C15 H22 0.929 . S
C16 O6 1.282 . S
C16 O17 1.216 . S
O17 C16 1.216 . S
H18 C13 0.930 . S
H19 C14 0.930 . S
O20 Cu0 1.959 . S
O20 C7 1.251 . S
H21 C4 0.930 . S
H22 C15 0.929 . S
Cu23 N24 1.999 . S
Cu23 O29 1.974 . S
Cu23 N34 1.985 . S
Cu23 O43 1.959 . S
N24 Cu23 1.999 . S
N24 C26 1.263 . S
N24 C28 1.389 . S
N25 C26 1.358 . S
N25 C27 1.400 . S
C26 N24 1.263 . S
C26 N25 1.358 . S
C26 H32 0.930 . S
C27 N25 1.400 . S
C27 C28 1.351 . S
C27 H44 0.930 . S
C28 N24 1.389 . S
C28 C27 1.351 . S
C28 H33 0.930 . S
O29 Cu23 1.974 . S
O29 C39 1.282 . S
C30 O31 1.261 . S
C30 O43 1.251 . S
O31 C30 1.261 . S
H32 C26 0.930 . S
H33 C28 0.930 . S
N34 Cu23 1.985 . S
N34 C36 1.335 . S
N34 C37 1.390 . S
N35 C36 1.345 . S
N35 C38 1.336 . S
C36 N34 1.335 . S
C36 N35 1.345 . S
C36 H41 0.930 . S
C37 N34 1.390 . S
C37 C38 1.346 . S
C37 H42 0.930 . S
C38 N35 1.336 . S
C38 C37 1.346 . S
C38 H45 0.929 . S
C39 O29 1.282 . S
C39 O40 1.216 . S
O40 C39 1.216 . S
H41 C36 0.930 . S
H42 C37 0.930 . S
O43 Cu23 1.959 . S
O43 C30 1.251 . S
H44 C27 0.930 . S
H45 C38 0.929 . S
Cu46 N47 1.999 . S
Cu46 O52 1.974 . S
Cu46 N57 1.985 . S
Cu46 O66 1.959 . S
N47 Cu46 1.999 . S
N47 C49 1.263 . S
N47 C51 1.389 . S
N48 C49 1.358 . S
N48 C50 1.400 . S
C49 N47 1.263 . S
C49 N48 1.358 . S
C49 H55 0.930 . S
C50 N48 1.400 . S
C50 C51 1.351 . S
C50 H67 0.930 . S
C51 N47 1.389 . S
C51 C50 1.351 . S
C51 H56 0.930 . S
O52 Cu46 1.974 . S
O52 C62 1.282 . S
C53 O54 1.261 . S
C53 O66 1.251 . S
O54 C53 1.261 . S
H55 C49 0.930 . S
H56 C51 0.930 . S
N57 Cu46 1.985 . S
N57 C59 1.335 . S
N57 C60 1.390 . S
N58 C59 1.345 . S
N58 C61 1.336 . S
C59 N57 1.335 . S
C59 N58 1.345 . S
C59 H64 0.930 . S
C60 N57 1.390 . S
C60 C61 1.346 . S
C60 H65 0.930 . S
C61 N58 1.336 . S
C61 C60 1.346 . S
C61 H68 0.929 . S
C62 O52 1.282 . S
C62 O63 1.216 . S
O63 C62 1.216 . S
H64 C59 0.930 . S
H65 C60 0.930 . S
O66 Cu46 1.959 . S
O66 C53 1.251 . S
H67 C50 0.930 . S
H68 C61 0.929 . S
Cu69 N70 1.999 . S
Cu69 O75 1.974 . S
Cu69 N80 1.985 . S
Cu69 O89 1.959 . S
N70 Cu69 1.999 . S
N70 C72 1.263 . S
N70 C74 1.389 . S
N71 C72 1.358 . S
N71 C73 1.400 . S
C72 N70 1.263 . S
C72 N71 1.358 . S
C72 H78 0.930 . S
C73 N71 1.400 . S
C73 C74 1.351 . S
C73 H90 0.930 . S
C74 N70 1.389 . S
C74 C73 1.351 . S
C74 H79 0.930 . S
O75 Cu69 1.974 . S
O75 C85 1.282 . S
C76 O77 1.261 . S
C76 O89 1.251 . S
O77 C76 1.261 . S
H78 C72 0.930 . S
H79 C74 0.930 . S
N80 Cu69 1.985 . S
N80 C82 1.335 . S
N80 C83 1.390 . S
N81 C82 1.345 . S
N81 C84 1.336 . S
C82 N80 1.335 . S
C82 N81 1.345 . S
C82 H87 0.930 . S
C83 N80 1.390 . S
C83 C84 1.346 . S
C83 H88 0.930 . S
C84 N81 1.336 . S
C84 C83 1.346 . S
C84 H91 0.929 . S
C85 O75 1.282 . S
C85 O86 1.216 . S
O86 C85 1.216 . S
H87 C82 0.930 . S
H88 C83 0.930 . S
O89 Cu69 1.959 . S
O89 C76 1.251 . S
H90 C73 0.930 . S
H91 C84 0.929 . S
Cu92 N93 1.999 . S
Cu92 O98 1.974 . S
Cu92 N103 1.985 . S
Cu92 O112 1.959 . S
N93 Cu92 1.999 . S
N93 C95 1.263 . S
N93 C97 1.389 . S
N94 C95 1.358 . S
N94 C96 1.400 . S
C95 N93 1.263 . S
C95 N94 1.358 . S
C95 H101 0.930 . S
C96 N94 1.400 . S
C96 C97 1.351 . S
C96 H113 0.930 . S
C97 N93 1.389 . S
C97 C96 1.351 . S
C97 H102 0.930 . S
O98 Cu92 1.974 . S
O98 C108 1.282 . S
C99 O100 1.261 . S
C99 O112 1.251 . S
O100 C99 1.261 . S
H101 C95 0.930 . S
H102 C97 0.930 . S
N103 Cu92 1.985 . S
N103 C105 1.335 . S
N103 C106 1.390 . S
N104 C105 1.345 . S
N104 C107 1.336 . S
C105 N103 1.335 . S
C105 N104 1.345 . S
C105 H110 0.930 . S
C106 N103 1.390 . S
C106 C107 1.346 . S
C106 H111 0.930 . S
C107 N104 1.336 . S
C107 C106 1.346 . S
C107 H114 0.929 . S
C108 O98 1.282 . S
C108 O109 1.216 . S
O109 C108 1.216 . S
H110 C105 0.930 . S
H111 C106 0.930 . S
O112 Cu92 1.959 . S
O112 C99 1.251 . S
H113 C96 0.930 . S
H114 C107 0.929 . S
Cu115 N116 1.999 . S
Cu115 O121 1.974 . S
Cu115 N126 1.985 . S
Cu115 O135 1.959 . S
N116 Cu115 1.999 . S
N116 C118 1.263 . S
N116 C120 1.389 . S
N117 C118 1.358 . S
N117 C119 1.400 . S
C118 N116 1.263 . S
C118 N117 1.358 . S
C118 H124 0.930 . S
C119 N117 1.400 . S
C119 C120 1.351 . S
C119 H136 0.930 . S
C120 N116 1.389 . S
C120 C119 1.351 . S
C120 H125 0.930 . S
O121 Cu115 1.974 . S
O121 C131 1.282 . S
C122 O123 1.261 . S
C122 O135 1.251 . S
O123 C122 1.261 . S
H124 C118 0.930 . S
H125 C120 0.930 . S
N126 Cu115 1.985 . S
N126 C128 1.335 . S
N126 C129 1.390 . S
N127 C128 1.345 . S
N127 C130 1.336 . S
C128 N126 1.335 . S
C128 N127 1.345 . S
C128 H133 0.930 . S
C129 N126 1.390 . S
C129 C130 1.346 . S
C129 H134 0.930 . S
C130 N127 1.336 . S
C130 C129 1.346 . S
C130 H137 0.929 . S
C131 O121 1.282 . S
C131 O132 1.216 . S
O132 C131 1.216 . S
H133 C128 0.930 . S
H134 C129 0.930 . S
O135 Cu115 1.959 . S
O135 C122 1.251 . S
H136 C119 0.930 . S
H137 C130 0.929 . S
Cu138 N139 1.999 . S
Cu138 O144 1.974 . S
Cu138 N149 1.985 . S
Cu138 O158 1.959 . S
N139 Cu138 1.999 . S
N139 C141 1.263 . S
N139 C143 1.389 . S
N140 C141 1.358 . S
N140 C142 1.400 . S
C141 N139 1.263 . S
C141 N140 1.358 . S
C141 H147 0.930 . S
C142 N140 1.400 . S
C142 C143 1.351 . S
C142 H159 0.930 . S
C143 N139 1.389 . S
C143 C142 1.351 . S
C143 H148 0.930 . S
O144 Cu138 1.974 . S
O144 C154 1.282 . S
C145 O146 1.261 . S
C145 O158 1.251 . S
O146 C145 1.261 . S
H147 C141 0.930 . S
H148 C143 0.930 . S
N149 Cu138 1.985 . S
N149 C151 1.335 . S
N149 C152 1.390 . S
N150 C151 1.345 . S
N150 C153 1.336 . S
C151 N149 1.335 . S
C151 N150 1.345 . S
C151 H156 0.930 . S
C152 N149 1.390 . S
C152 C153 1.346 . S
C152 H157 0.930 . S
C153 N150 1.336 . S
C153 C152 1.346 . S
C153 H160 0.929 . S
C154 O144 1.282 . S
C154 O155 1.216 . S
O155 C154 1.216 . S
H156 C151 0.930 . S
H157 C152 0.930 . S
O158 Cu138 1.959 . S
O158 C145 1.251 . S
H159 C142 0.930 . S
H160 C153 0.929 . S
Cu161 N162 1.999 . S
Cu161 O167 1.974 . S
Cu161 N172 1.985 . S
Cu161 O181 1.959 . S
N162 Cu161 1.999 . S
N162 C164 1.263 . S
N162 C166 1.389 . S
N163 C164 1.358 . S
N163 C165 1.400 . S
C164 N162 1.263 . S
C164 N163 1.358 . S
C164 H170 0.930 . S
C165 N163 1.400 . S
C165 C166 1.351 . S
C165 H182 0.930 . S
C166 N162 1.389 . S
C166 C165 1.351 . S
C166 H171 0.930 . S
O167 Cu161 1.974 . S
O167 C177 1.282 . S
C168 O169 1.261 . S
C168 O181 1.251 . S
O169 C168 1.261 . S
H170 C164 0.930 . S
H171 C166 0.930 . S
N172 Cu161 1.985 . S
N172 C174 1.335 . S
N172 C175 1.390 . S
N173 C174 1.345 . S
N173 C176 1.336 . S
C174 N172 1.335 . S
C174 N173 1.345 . S
C174 H179 0.930 . S
C175 N172 1.390 . S
C175 C176 1.346 . S
C175 H180 0.930 . S
C176 N173 1.336 . S
C176 C175 1.346 . S
C176 H183 0.929 . S
C177 O167 1.282 . S
C177 O178 1.216 . S
O178 C177 1.216 . S
H179 C174 0.930 . S
H180 C175 0.930 . S
O181 Cu161 1.959 . S
O181 C168 1.251 . S
H182 C165 0.930 . S
H183 C176 0.929 . S
Cu184 N185 1.999 . S
Cu184 O190 1.974 . S
Cu184 N195 1.985 . S
Cu184 O204 1.959 . S
N185 Cu184 1.999 . S
N185 C187 1.263 . S
N185 C189 1.389 . S
N186 C187 1.358 . S
N186 C188 1.400 . S
C187 N185 1.263 . S
C187 N186 1.358 . S
C187 H193 0.930 . S
C188 N186 1.400 . S
C188 C189 1.351 . S
C188 H205 0.930 . S
C189 N185 1.389 . S
C189 C188 1.351 . S
C189 H194 0.930 . S
O190 Cu184 1.974 . S
O190 C200 1.282 . S
C191 O192 1.261 . S
C191 O204 1.251 . S
O192 C191 1.261 . S
H193 C187 0.930 . S
H194 C189 0.930 . S
N195 Cu184 1.985 . S
N195 C197 1.335 . S
N195 C198 1.390 . S
N196 C197 1.345 . S
N196 C199 1.336 . S
C197 N195 1.335 . S
C197 N196 1.345 . S
C197 H202 0.930 . S
C198 N195 1.390 . S
C198 C199 1.346 . S
C198 H203 0.930 . S
C199 N196 1.336 . S
C199 C198 1.346 . S
C199 H206 0.929 . S
C200 O190 1.282 . S
C200 O201 1.216 . S
O201 C200 1.216 . S
H202 C197 0.930 . S
H203 C198 0.930 . S
O204 Cu184 1.959 . S
O204 C191 1.251 . S
H205 C188 0.930 . S
H206 C199 0.929 . S
Cu207 N208 1.999 . S
Cu207 O213 1.974 . S
Cu207 N218 1.985 . S
Cu207 O227 1.959 . S
N208 Cu207 1.999 . S
N208 C210 1.263 . S
N208 C212 1.389 . S
N209 C210 1.358 . S
N209 C211 1.400 . S
C210 N208 1.263 . S
C210 N209 1.358 . S
C210 H216 0.930 . S
C211 N209 1.400 . S
C211 C212 1.351 . S
C211 H228 0.930 . S
C212 N208 1.389 . S
C212 C211 1.351 . S
C212 H217 0.930 . S
O213 Cu207 1.974 . S
O213 C223 1.282 . S
C214 O215 1.261 . S
C214 O227 1.251 . S
O215 C214 1.261 . S
H216 C210 0.930 . S
H217 C212 0.930 . S
N218 Cu207 1.985 . S
N218 C220 1.335 . S
N218 C221 1.390 . S
N219 C220 1.345 . S
N219 C222 1.336 . S
C220 N218 1.335 . S
C220 N219 1.345 . S
C220 H225 0.930 . S
C221 N218 1.390 . S
C221 C222 1.346 . S
C221 H226 0.930 . S
C222 N219 1.336 . S
C222 C221 1.346 . S
C222 H229 0.929 . S
C223 O213 1.282 . S
C223 O224 1.216 . S
O224 C223 1.216 . S
H225 C220 0.930 . S
H226 C221 0.930 . S
O227 Cu207 1.959 . S
O227 C214 1.251 . S
H228 C211 0.930 . S
H229 C222 0.929 . S
Cu230 N231 1.999 . S
Cu230 O236 1.974 . S
Cu230 N241 1.985 . S
Cu230 O250 1.959 . S
N231 Cu230 1.999 . S
N231 C233 1.263 . S
N231 C235 1.389 . S
N232 C233 1.358 . S
N232 C234 1.400 . S
C233 N231 1.263 . S
C233 N232 1.358 . S
C233 H239 0.930 . S
C234 N232 1.400 . S
C234 C235 1.351 . S
C234 H251 0.930 . S
C235 N231 1.389 . S
C235 C234 1.351 . S
C235 H240 0.930 . S
O236 Cu230 1.974 . S
O236 C246 1.282 . S
C237 O238 1.261 . S
C237 O250 1.251 . S
O238 C237 1.261 . S
H239 C233 0.930 . S
H240 C235 0.930 . S
N241 Cu230 1.985 . S
N241 C243 1.335 . S
N241 C244 1.390 . S
N242 C243 1.345 . S
N242 C245 1.336 . S
C243 N241 1.335 . S
C243 N242 1.345 . S
C243 H248 0.930 . S
C244 N241 1.390 . S
C244 C245 1.346 . S
C244 H249 0.930 . S
C245 N242 1.336 . S
C245 C244 1.346 . S
C245 H252 0.929 . S
C246 O236 1.282 . S
C246 O247 1.216 . S
O247 C246 1.216 . S
H248 C243 0.930 . S
H249 C244 0.930 . S
O250 Cu230 1.959 . S
O250 C237 1.251 . S
H251 C234 0.930 . S
H252 C245 0.929 . S
Cu253 N254 1.999 . S
Cu253 O259 1.974 . S
Cu253 N264 1.985 . S
Cu253 O273 1.959 . S
N254 Cu253 1.999 . S
N254 C256 1.263 . S
N254 C258 1.389 . S
N255 C256 1.358 . S
N255 C257 1.400 . S
C256 N254 1.263 . S
C256 N255 1.358 . S
C256 H262 0.930 . S
C257 N255 1.400 . S
C257 C258 1.351 . S
C257 H274 0.930 . S
C258 N254 1.389 . S
C258 C257 1.351 . S
C258 H263 0.930 . S
O259 Cu253 1.974 . S
O259 C269 1.282 . S
C260 O261 1.261 . S
C260 O273 1.251 . S
O261 C260 1.261 . S
H262 C256 0.930 . S
H263 C258 0.930 . S
N264 Cu253 1.985 . S
N264 C266 1.335 . S
N264 C267 1.390 . S
N265 C266 1.345 . S
N265 C268 1.336 . S
C266 N264 1.335 . S
C266 N265 1.345 . S
C266 H271 0.930 . S
C267 N264 1.390 . S
C267 C268 1.346 . S
C267 H272 0.930 . S
C268 N265 1.336 . S
C268 C267 1.346 . S
C268 H275 0.929 . S
C269 O259 1.282 . S
C269 O270 1.216 . S
O270 C269 1.216 . S
H271 C266 0.930 . S
H272 C267 0.930 . S
O273 Cu253 1.959 . S
O273 C260 1.251 . S
H274 C257 0.930 . S
H275 C268 0.929 . S
Cu276 N277 1.999 . S
Cu276 O282 1.974 . S
Cu276 N287 1.985 . S
Cu276 O296 1.959 . S
N277 Cu276 1.999 . S
N277 C279 1.263 . S
N277 C281 1.389 . S
N278 C279 1.358 . S
N278 C280 1.400 . S
C279 N277 1.263 . S
C279 N278 1.358 . S
C279 H285 0.930 . S
C280 N278 1.400 . S
C280 C281 1.351 . S
C280 H297 0.930 . S
C281 N277 1.389 . S
C281 C280 1.351 . S
C281 H286 0.930 . S
O282 Cu276 1.974 . S
O282 C292 1.282 . S
C283 O284 1.261 . S
C283 O296 1.251 . S
O284 C283 1.261 . S
H285 C279 0.930 . S
H286 C281 0.930 . S
N287 Cu276 1.985 . S
N287 C289 1.335 . S
N287 C290 1.390 . S
N288 C289 1.345 . S
N288 C291 1.336 . S
C289 N287 1.335 . S
C289 N288 1.345 . S
C289 H294 0.930 . S
C290 N287 1.390 . S
C290 C291 1.346 . S
C290 H295 0.930 . S
C291 N288 1.336 . S
C291 C290 1.346 . S
C291 H298 0.929 . S
C292 O282 1.282 . S
C292 O293 1.216 . S
O293 C292 1.216 . S
H294 C289 0.930 . S
H295 C290 0.930 . S
O296 Cu276 1.959 . S
O296 C283 1.251 . S
H297 C280 0.930 . S
H298 C291 0.929 . S
Cu299 N300 1.999 . S
Cu299 O305 1.974 . S
Cu299 N310 1.985 . S
Cu299 O319 1.959 . S
N300 Cu299 1.999 . S
N300 C302 1.263 . S
N300 C304 1.389 . S
N301 C302 1.358 . S
N301 C303 1.400 . S
C302 N300 1.263 . S
C302 N301 1.358 . S
C302 H308 0.930 . S
C303 N301 1.400 . S
C303 C304 1.351 . S
C303 H320 0.930 . S
C304 N300 1.389 . S
C304 C303 1.351 . S
C304 H309 0.930 . S
O305 Cu299 1.974 . S
O305 C315 1.282 . S
C306 O307 1.261 . S
C306 O319 1.251 . S
O307 C306 1.261 . S
H308 C302 0.930 . S
H309 C304 0.930 . S
N310 Cu299 1.985 . S
N310 C312 1.335 . S
N310 C313 1.390 . S
N311 C312 1.345 . S
N311 C314 1.336 . S
C312 N310 1.335 . S
C312 N311 1.345 . S
C312 H317 0.930 . S
C313 N310 1.390 . S
C313 C314 1.346 . S
C313 H318 0.930 . S
C314 N311 1.336 . S
C314 C313 1.346 . S
C314 H321 0.929 . S
C315 O305 1.282 . S
C315 O316 1.216 . S
O316 C315 1.216 . S
H317 C312 0.930 . S
H318 C313 0.930 . S
O319 Cu299 1.959 . S
O319 C306 1.251 . S
H320 C303 0.930 . S
H321 C314 0.929 . S
Cu322 N323 1.999 . S
Cu322 O328 1.974 . S
Cu322 N333 1.985 . S
Cu322 O342 1.959 . S
N323 Cu322 1.999 . S
N323 C325 1.263 . S
N323 C327 1.389 . S
N324 C325 1.358 . S
N324 C326 1.400 . S
C325 N323 1.263 . S
C325 N324 1.358 . S
C325 H331 0.930 . S
C326 N324 1.400 . S
C326 C327 1.351 . S
C326 H343 0.930 . S
C327 N323 1.389 . S
C327 C326 1.351 . S
C327 H332 0.930 . S
O328 Cu322 1.974 . S
O328 C338 1.282 . S
C329 O330 1.261 . S
C329 O342 1.251 . S
O330 C329 1.261 . S
H331 C325 0.930 . S
H332 C327 0.930 . S
N333 Cu322 1.985 . S
N333 C335 1.335 . S
N333 C336 1.390 . S
N334 C335 1.345 . S
N334 C337 1.336 . S
C335 N333 1.335 . S
C335 N334 1.345 . S
C335 H340 0.930 . S
C336 N333 1.390 . S
C336 C337 1.346 . S
C336 H341 0.930 . S
C337 N334 1.336 . S
C337 C336 1.346 . S
C337 H344 0.929 . S
C338 O328 1.282 . S
C338 O339 1.216 . S
O339 C338 1.216 . S
H340 C335 0.930 . S
H341 C336 0.930 . S
O342 Cu322 1.959 . S
O342 C329 1.251 . S
H343 C326 0.930 . S
H344 C337 0.929 . S
Cu345 N346 1.999 . S
Cu345 O351 1.974 . S
Cu345 N356 1.985 . S
Cu345 O365 1.959 . S
N346 Cu345 1.999 . S
N346 C348 1.263 . S
N346 C350 1.389 . S
N347 C348 1.358 . S
N347 C349 1.400 . S
C348 N346 1.263 . S
C348 N347 1.358 . S
C348 H354 0.930 . S
C349 N347 1.400 . S
C349 C350 1.351 . S
C349 H366 0.930 . S
C350 N346 1.389 . S
C350 C349 1.351 . S
C350 H355 0.930 . S
O351 Cu345 1.974 . S
O351 C361 1.282 . S
C352 O353 1.261 . S
C352 O365 1.251 . S
O353 C352 1.261 . S
H354 C348 0.930 . S
H355 C350 0.930 . S
N356 Cu345 1.985 . S
N356 C358 1.335 . S
N356 C359 1.390 . S
N357 C358 1.345 . S
N357 C360 1.336 . S
C358 N356 1.335 . S
C358 N357 1.345 . S
C358 H363 0.930 . S
C359 N356 1.390 . S
C359 C360 1.346 . S
C359 H364 0.930 . S
C360 N357 1.336 . S
C360 C359 1.346 . S
C360 H367 0.929 . S
C361 O351 1.282 . S
C361 O362 1.216 . S
O362 C361 1.216 . S
H363 C358 0.930 . S
H364 C359 0.930 . S
O365 Cu345 1.959 . S
O365 C352 1.251 . S
H366 C349 0.930 . S
H367 C360 0.929 . S
H368 C386 0.951 . S
H369 C388 0.951 . S
H370 C390 0.950 . S
H371 C391 0.950 . S
H372 C393 0.950 . S
H373 C396 0.950 . S
H374 C397 0.950 . S
H375 C399 0.950 . S
H376 C400 0.950 . S
H377 C401 0.951 . S
H378 C403 0.951 . S
H379 C405 0.950 . S
H380 C406 0.950 . S
H381 C408 0.950 . S
H382 C411 0.950 . S
H383 C412 0.950 . S
H384 C414 0.950 . S
H385 C415 0.950 . S
C386 H368 0.951 . S
C386 C387 1.366 . S
C386 C388 1.388 . S
C387 C386 1.366 . S
C387 C391 1.385 . S
C388 H369 0.951 . S
C388 C386 1.388 . S
C388 C389 1.366 . S
C389 C388 1.366 . S
C389 C390 1.414 . S
C389 C392 1.499 . S
C390 H370 0.950 . S
C390 C389 1.414 . S
C390 C391 1.374 . S
C391 H371 0.950 . S
C391 C387 1.385 . S
C391 C390 1.374 . S
C392 C389 1.499 . S
C392 C393 1.373 . S
C392 C394 1.389 . S
C393 H372 0.950 . S
C393 C392 1.373 . S
C393 C409 1.377 . S
C394 C392 1.389 . S
C394 C395 1.524 . S
C394 C408 1.377 . S
C395 C394 1.524 . S
C395 C396 1.397 . S
C395 C400 1.363 . S
C396 H373 0.950 . S
C396 C395 1.397 . S
C396 C397 1.334 . S
C397 H374 0.950 . S
C397 C396 1.334 . S
C397 C398 1.287 . S
C398 C397 1.287 . S
C398 C399 1.524 . S
C398 H417 0.913 . S
C399 H375 0.950 . S
C399 C398 1.524 . S
C399 C400 1.415 . S
C400 H376 0.950 . S
C400 C395 1.363 . S
C400 C399 1.415 . S
C401 H377 0.951 . S
C401 C402 1.366 . S
C401 C403 1.388 . S
C402 C401 1.366 . S
C402 C406 1.385 . S
C403 H378 0.951 . S
C403 C401 1.388 . S
C403 C404 1.366 . S
C404 C403 1.366 . S
C404 C405 1.414 . S
C404 C407 1.499 . S
C405 H379 0.950 . S
C405 C404 1.414 . S
C405 C406 1.374 . S
C406 H380 0.950 . S
C406 C402 1.385 . S
C406 C405 1.374 . S
C407 C404 1.499 . S
C407 C408 1.373 . S
C407 C409 1.389 . S
C408 H381 0.950 . S
C408 C394 1.377 . S
C408 C407 1.373 . S
C409 C393 1.377 . S
C409 C407 1.389 . S
C409 C410 1.524 . S
C410 C409 1.524 . S
C410 C411 1.397 . S
C410 C415 1.363 . S
C411 H382 0.950 . S
C411 C410 1.397 . S
C411 C412 1.334 . S
C412 H383 0.950 . S
C412 C411 1.334 . S
C412 C413 1.287 . S
C413 C412 1.287 . S
C413 C414 1.524 . S
C413 H416 0.999 . S
C414 H384 0.950 . S
C414 C413 1.524 . S
C414 C415 1.415 . S
C415 H385 0.950 . S
C415 C410 1.363 . S
C415 C414 1.415 . S
H416 C413 0.999 . S
H417 C398 0.913 . S
H418 C436 0.951 . S
H419 C438 0.951 . S
H420 C440 0.950 . S
H421 C441 0.950 . S
H422 C443 0.950 . S
H423 C446 0.950 . S
H424 C447 0.950 . S
H425 C449 0.950 . S
H426 C450 0.950 . S
H427 C451 0.951 . S
H428 C453 0.951 . S
H429 C455 0.950 . S
H430 C456 0.950 . S
H431 C458 0.950 . S
H432 C461 0.950 . S
H433 C462 0.950 . S
H434 C464 0.950 . S
H435 C465 0.950 . S
C436 H418 0.951 . S
C436 C437 1.366 . S
C436 C438 1.388 . S
C437 C436 1.366 . S
C437 C441 1.385 . S
C438 H419 0.951 . S
C438 C436 1.388 . S
C438 C439 1.366 . S
C439 C438 1.366 . S
C439 C440 1.414 . S
C439 C442 1.499 . S
C440 H420 0.950 . S
C440 C439 1.414 . S
C440 C441 1.374 . S
C441 H421 0.950 . S
C441 C437 1.385 . S
C441 C440 1.374 . S
C442 C439 1.499 . S
C442 C443 1.373 . S
C442 C444 1.389 . S
C443 H422 0.950 . S
C443 C442 1.373 . S
C443 C459 1.377 . S
C444 C442 1.389 . S
C444 C445 1.524 . S
C444 C458 1.377 . S
C445 C444 1.524 . S
C445 C446 1.397 . S
C445 C450 1.363 . S
C446 H423 0.950 . S
C446 C445 1.397 . S
C446 C447 1.334 . S
C447 H424 0.950 . S
C447 C446 1.334 . S
C447 C448 1.287 . S
C448 C447 1.287 . S
C448 C449 1.524 . S
C448 H467 0.913 . S
C449 H425 0.950 . S
C449 C448 1.524 . S
C449 C450 1.415 . S
C450 H426 0.950 . S
C450 C445 1.363 . S
C450 C449 1.415 . S
C451 H427 0.951 . S
C451 C452 1.366 . S
C451 C453 1.388 . S
C452 C451 1.366 . S
C452 C456 1.385 . S
C453 H428 0.951 . S
C453 C451 1.388 . S
C453 C454 1.366 . S
C454 C453 1.366 . S
C454 C455 1.414 . S
C454 C457 1.499 . S
C455 H429 0.950 . S
C455 C454 1.414 . S
C455 C456 1.374 . S
C456 H430 0.950 . S
C456 C452 1.385 . S
C456 C455 1.374 . S
C457 C454 1.499 . S
C457 C458 1.373 . S
C457 C459 1.389 . S
C458 H431 0.950 . S
C458 C444 1.377 . S
C458 C457 1.373 . S
C459 C443 1.377 . S
C459 C457 1.389 . S
C459 C460 1.524 . S
C460 C459 1.524 . S
C460 C461 1.397 . S
C460 C465 1.363 . S
C461 H432 0.950 . S
C461 C460 1.397 . S
C461 C462 1.334 . S
C462 H433 0.950 . S
C462 C461 1.334 . S
C462 C463 1.287 . S
C463 C462 1.287 . S
C463 C464 1.524 . S
C463 H466 0.999 . S
C464 H434 0.950 . S
C464 C463 1.524 . S
C464 C465 1.415 . S
C465 H435 0.950 . S
C465 C460 1.363 . S
C465 C464 1.415 . S
H466 C463 0.999 . S
H467 C448 0.913 . S
H468 C486 0.951 . S
H469 C488 0.951 . S
H470 C490 0.950 . S
H471 C491 0.950 . S
H472 C493 0.950 . S
H473 C496 0.950 . S
H474 C497 0.950 . S
H475 C499 0.950 . S
H476 C500 0.950 . S
H477 C501 0.951 . S
H478 C503 0.951 . S
H479 C505 0.950 . S
H480 C506 0.950 . S
H481 C508 0.950 . S
H482 C511 0.950 . S
H483 C512 0.950 . S
H484 C514 0.950 . S
H485 C515 0.950 . S
C486 H468 0.951 . S
C486 C487 1.366 . S
C486 C488 1.388 . S
C487 C486 1.366 . S
C487 C491 1.385 . S
C488 H469 0.951 . S
C488 C486 1.388 . S
C488 C489 1.366 . S
C489 C488 1.366 . S
C489 C490 1.414 . S
C489 C492 1.499 . S
C490 H470 0.950 . S
C490 C489 1.414 . S
C490 C491 1.374 . S
C491 H471 0.950 . S
C491 C487 1.385 . S
C491 C490 1.374 . S
C492 C489 1.499 . S
C492 C493 1.373 . S
C492 C494 1.389 . S
C493 H472 0.950 . S
C493 C492 1.373 . S
C493 C509 1.377 . S
C494 C492 1.389 . S
C494 C495 1.524 . S
C494 C508 1.377 . S
C495 C494 1.524 . S
C495 C496 1.397 . S
C495 C500 1.363 . S
C496 H473 0.950 . S
C496 C495 1.397 . S
C496 C497 1.334 . S
C497 H474 0.950 . S
C497 C496 1.334 . S
C497 C498 1.287 . S
C498 C497 1.287 . S
C498 C499 1.524 . S
C498 H517 0.913 . S
C499 H475 0.950 . S
C499 C498 1.524 . S
C499 C500 1.415 . S
C500 H476 0.950 . S
C500 C495 1.363 . S
C500 C499 1.415 . S
C501 H477 0.951 . S
C501 C502 1.366 . S
C501 C503 1.388 . S
C502 C501 1.366 . S
C502 C506 1.385 . S
C503 H478 0.951 . S
C503 C501 1.388 . S
C503 C504 1.366 . S
C504 C503 1.366 . S
C504 C505 1.414 . S
C504 C507 1.499 . S
C505 H479 0.950 . S
C505 C504 1.414 . S
C505 C506 1.374 . S
C506 H480 0.950 . S
C506 C502 1.385 . S
C506 C505 1.374 . S
C507 C504 1.499 . S
C507 C508 1.373 . S
C507 C509 1.389 . S
C508 H481 0.950 . S
C508 C494 1.377 . S
C508 C507 1.373 . S
C509 C493 1.377 . S
C509 C507 1.389 . S
C509 C510 1.524 . S
C510 C509 1.524 . S
C510 C511 1.397 . S
C510 C515 1.363 . S
C511 H482 0.950 . S
C511 C510 1.397 . S
C511 C512 1.334 . S
C512 H483 0.950 . S
C512 C511 1.334 . S
C512 C513 1.287 . S
C513 C512 1.287 . S
C513 C514 1.524 . S
C513 H516 0.999 . S
C514 H484 0.950 . S
C514 C513 1.524 . S
C514 C515 1.415 . S
C515 H485 0.950 . S
C515 C510 1.363 . S
C515 C514 1.415 . S
H516 C513 0.999 . S
H517 C498 0.913 . S
H518 C536 0.951 . S
H519 C538 0.951 . S
H520 C540 0.950 . S
H521 C541 0.950 . S
H522 C543 0.950 . S
H523 C546 0.950 . S
H524 C547 0.950 . S
H525 C549 0.950 . S
H526 C550 0.950 . S
H527 C551 0.951 . S
H528 C553 0.951 . S
H529 C555 0.950 . S
H530 C556 0.950 . S
H531 C558 0.950 . S
H532 C561 0.950 . S
H533 C562 0.950 . S
H534 C564 0.950 . S
H535 C565 0.950 . S
C536 H518 0.951 . S
C536 C537 1.366 . S
C536 C538 1.388 . S
C537 C536 1.366 . S
C537 C541 1.385 . S
C538 H519 0.951 . S
C538 C536 1.388 . S
C538 C539 1.366 . S
C539 C538 1.366 . S
C539 C540 1.414 . S
C539 C542 1.499 . S
C540 H520 0.950 . S
C540 C539 1.414 . S
C540 C541 1.374 . S
C541 H521 0.950 . S
C541 C537 1.385 . S
C541 C540 1.374 . S
C542 C539 1.499 . S
C542 C543 1.373 . S
C542 C544 1.389 . S
C543 H522 0.950 . S
C543 C542 1.373 . S
C543 C559 1.377 . S
C544 C542 1.389 . S
C544 C545 1.524 . S
C544 C558 1.377 . S
C545 C544 1.524 . S
C545 C546 1.397 . S
C545 C550 1.363 . S
C546 H523 0.950 . S
C546 C545 1.397 . S
C546 C547 1.334 . S
C547 H524 0.950 . S
C547 C546 1.334 . S
C547 C548 1.287 . S
C548 C547 1.287 . S
C548 C549 1.524 . S
C548 H567 0.913 . S
C549 H525 0.950 . S
C549 C548 1.524 . S
C549 C550 1.415 . S
C550 H526 0.950 . S
C550 C545 1.363 . S
C550 C549 1.415 . S
C551 H527 0.951 . S
C551 C552 1.366 . S
C551 C553 1.388 . S
C552 C551 1.366 . S
C552 C556 1.385 . S
C553 H528 0.951 . S
C553 C551 1.388 . S
C553 C554 1.366 . S
C554 C553 1.366 . S
C554 C555 1.414 . S
C554 C557 1.499 . S
C555 H529 0.950 . S
C555 C554 1.414 . S
C555 C556 1.374 . S
C556 H530 0.950 . S
C556 C552 1.385 . S
C556 C555 1.374 . S
C557 C554 1.499 . S
C557 C558 1.373 . S
C557 C559 1.389 . S
C558 H531 0.950 . S
C558 C544 1.377 . S
C558 C557 1.373 . S
C559 C543 1.377 . S
C559 C557 1.389 . S
C559 C560 1.524 . S
C560 C559 1.524 . S
C560 C561 1.397 . S
C560 C565 1.363 . S
C561 H532 0.950 . S
C561 C560 1.397 . S
C561 C562 1.334 . S
C562 H533 0.950 . S
C562 C561 1.334 . S
C562 C563 1.287 . S
C563 C562 1.287 . S
C563 C564 1.524 . S
C563 H566 0.999 . S
C564 H534 0.950 . S
C564 C563 1.524 . S
C564 C565 1.415 . S
C565 H535 0.950 . S
C565 C560 1.363 . S
C565 C564 1.415 . S
H566 C563 0.999 . S
H567 C548 0.913 . S
H568 C586 0.951 . S
H569 C588 0.951 . S
H570 C590 0.950 . S
H571 C591 0.950 . S
H572 C593 0.950 . S
H573 C596 0.950 . S
H574 C597 0.950 . S
H575 C599 0.950 . S
H576 C600 0.950 . S
H577 C601 0.951 . S
H578 C603 0.951 . S
H579 C605 0.950 . S
H580 C606 0.950 . S
H581 C608 0.950 . S
H582 C611 0.950 . S
H583 C612 0.950 . S
H584 C614 0.950 . S
H585 C615 0.950 . S
C586 H568 0.951 . S
C586 C587 1.366 . S
C586 C588 1.388 . S
C587 C586 1.366 . S
C587 C591 1.385 . S
C588 H569 0.951 . S
C588 C586 1.388 . S
C588 C589 1.366 . S
C589 C588 1.366 . S
C589 C590 1.414 . S
C589 C592 1.499 . S
C590 H570 0.950 . S
C590 C589 1.414 . S
C590 C591 1.374 . S
C591 H571 0.950 . S
C591 C587 1.385 . S
C591 C590 1.374 . S
C592 C589 1.499 . S
C592 C593 1.373 . S
C592 C594 1.389 . S
C593 H572 0.950 . S
C593 C592 1.373 . S
C593 C609 1.377 . S
C594 C592 1.389 . S
C594 C595 1.524 . S
C594 C608 1.377 . S
C595 C594 1.524 . S
C595 C596 1.397 . S
C595 C600 1.363 . S
C596 H573 0.950 . S
C596 C595 1.397 . S
C596 C597 1.334 . S
C597 H574 0.950 . S
C597 C596 1.334 . S
C597 C598 1.287 . S
C598 C597 1.287 . S
C598 C599 1.524 . S
C598 H617 0.913 . S
C599 H575 0.950 . S
C599 C598 1.524 . S
C599 C600 1.415 . S
C600 H576 0.950 . S
C600 C595 1.363 . S
C600 C599 1.415 . S
C601 H577 0.951 . S
C601 C602 1.366 . S
C601 C603 1.388 . S
C602 C601 1.366 . S
C602 C606 1.385 . S
C603 H578 0.951 . S
C603 C601 1.388 . S
C603 C604 1.366 . S
C604 C603 1.366 . S
C604 C605 1.414 . S
C604 C607 1.499 . S
C605 H579 0.950 . S
C605 C604 1.414 . S
C605 C606 1.374 . S
C606 H580 0.950 . S
C606 C602 1.385 . S
C606 C605 1.374 . S
C607 C604 1.499 . S
C607 C608 1.373 . S
C607 C609 1.389 . S
C608 H581 0.950 . S
C608 C594 1.377 . S
C608 C607 1.373 . S
C609 C593 1.377 . S
C609 C607 1.389 . S
C609 C610 1.524 . S
C610 C609 1.524 . S
C610 C611 1.397 . S
C610 C615 1.363 . S
C611 H582 0.950 . S
C611 C610 1.397 . S
C611 C612 1.334 . S
C612 H583 0.950 . S
C612 C611 1.334 . S
C612 C613 1.287 . S
C613 C612 1.287 . S
C613 C614 1.524 . S
C613 H616 0.999 . S
C614 H584 0.950 . S
C614 C613 1.524 . S
C614 C615 1.415 . S
C615 H585 0.950 . S
C615 C610 1.363 . S
C615 C614 1.415 . S
H616 C613 0.999 . S
H617 C598 0.913 . S
H618 C636 0.951 . S
H619 C638 0.951 . S
H620 C640 0.950 . S
H621 C641 0.950 . S
H622 C643 0.950 . S
H623 C646 0.950 . S
H624 C647 0.950 . S
H625 C649 0.950 . S
H626 C650 0.950 . S
H627 C651 0.951 . S
H628 C653 0.951 . S
H629 C655 0.950 . S
H630 C656 0.950 . S
H631 C658 0.950 . S
H632 C661 0.950 . S
H633 C662 0.950 . S
H634 C664 0.950 . S
H635 C665 0.950 . S
C636 H618 0.951 . S
C636 C637 1.366 . S
C636 C638 1.388 . S
C637 C636 1.366 . S
C637 C641 1.385 . S
C638 H619 0.951 . S
C638 C636 1.388 . S
C638 C639 1.366 . S
C639 C638 1.366 . S
C639 C640 1.414 . S
C639 C642 1.499 . S
C640 H620 0.950 . S
C640 C639 1.414 . S
C640 C641 1.374 . S
C641 H621 0.950 . S
C641 C637 1.385 . S
C641 C640 1.374 . S
C642 C639 1.499 . S
C642 C643 1.373 . S
C642 C644 1.389 . S
C643 H622 0.950 . S
C643 C642 1.373 . S
C643 C659 1.377 . S
C644 C642 1.389 . S
C644 C645 1.524 . S
C644 C658 1.377 . S
C645 C644 1.524 . S
C645 C646 1.397 . S
C645 C650 1.363 . S
C646 H623 0.950 . S
C646 C645 1.397 . S
C646 C647 1.334 . S
C647 H624 0.950 . S
C647 C646 1.334 . S
C647 C648 1.287 . S
C648 C647 1.287 . S
C648 C649 1.524 . S
C648 H667 0.913 . S
C649 H625 0.950 . S
C649 C648 1.524 . S
C649 C650 1.415 . S
C650 H626 0.950 . S
C650 C645 1.363 . S
C650 C649 1.415 . S
C651 H627 0.951 . S
C651 C652 1.366 . S
C651 C653 1.388 . S
C652 C651 1.366 . S
C652 C656 1.385 . S
C653 H628 0.951 . S
C653 C651 1.388 . S
C653 C654 1.366 . S
C654 C653 1.366 . S
C654 C655 1.414 . S
C654 C657 1.499 . S
C655 H629 0.950 . S
C655 C654 1.414 . S
C655 C656 1.374 . S
C656 H630 0.950 . S
C656 C652 1.385 . S
C656 C655 1.374 . S
C657 C654 1.499 . S
C657 C658 1.373 . S
C657 C659 1.389 . S
C658 H631 0.950 . S
C658 C644 1.377 . S
C658 C657 1.373 . S
C659 C643 1.377 . S
C659 C657 1.389 . S
C659 C660 1.524 . S
C660 C659 1.524 . S
C660 C661 1.397 . S
C660 C665 1.363 . S
C661 H632 0.950 . S
C661 C660 1.397 . S
C661 C662 1.334 . S
C662 H633 0.950 . S
C662 C661 1.334 . S
C662 C663 1.287 . S
C663 C662 1.287 . S
C663 C664 1.524 . S
C663 H666 0.999 . S
C664 H634 0.950 . S
C664 C663 1.524 . S
C664 C665 1.415 . S
C665 H635 0.950 . S
C665 C660 1.363 . S
C665 C664 1.415 . S
H666 C663 0.999 . S
H667 C648 0.913 . S
H668 C686 0.951 . S
H669 C688 0.951 . S
H670 C690 0.950 . S
H671 C691 0.950 . S
H672 C693 0.950 . S
H673 C696 0.950 . S
H674 C697 0.950 . S
H675 C699 0.950 . S
H676 C700 0.950 . S
H677 C701 0.951 . S
H678 C703 0.951 . S
H679 C705 0.950 . S
H680 C706 0.950 . S
H681 C708 0.950 . S
H682 C711 0.950 . S
H683 C712 0.950 . S
H684 C714 0.950 . S
H685 C715 0.950 . S
C686 H668 0.951 . S
C686 C687 1.366 . S
C686 C688 1.388 . S
C687 C686 1.366 . S
C687 C691 1.385 . S
C688 H669 0.951 . S
C688 C686 1.388 . S
C688 C689 1.366 . S
C689 C688 1.366 . S
C689 C690 1.414 . S
C689 C692 1.499 . S
C690 H670 0.950 . S
C690 C689 1.414 . S
C690 C691 1.374 . S
C691 H671 0.950 . S
C691 C687 1.385 . S
C691 C690 1.374 . S
C692 C689 1.499 . S
C692 C693 1.373 . S
C692 C694 1.389 . S
C693 H672 0.950 . S
C693 C692 1.373 . S
C693 C709 1.377 . S
C694 C692 1.389 . S
C694 C695 1.524 . S
C694 C708 1.377 . S
C695 C694 1.524 . S
C695 C696 1.397 . S
C695 C700 1.363 . S
C696 H673 0.950 . S
C696 C695 1.397 . S
C696 C697 1.334 . S
C697 H674 0.950 . S
C697 C696 1.334 . S
C697 C698 1.287 . S
C698 C697 1.287 . S
C698 C699 1.524 . S
C698 H717 0.913 . S
C699 H675 0.950 . S
C699 C698 1.524 . S
C699 C700 1.415 . S
C700 H676 0.950 . S
C700 C695 1.363 . S
C700 C699 1.415 . S
C701 H677 0.951 . S
C701 C702 1.366 . S
C701 C703 1.388 . S
C702 C701 1.366 . S
C702 C706 1.385 . S
C703 H678 0.951 . S
C703 C701 1.388 . S
C703 C704 1.366 . S
C704 C703 1.366 . S
C704 C705 1.414 . S
C704 C707 1.499 . S
C705 H679 0.950 . S
C705 C704 1.414 . S
C705 C706 1.374 . S
C706 H680 0.950 . S
C706 C702 1.385 . S
C706 C705 1.374 . S
C707 C704 1.499 . S
C707 C708 1.373 . S
C707 C709 1.389 . S
C708 H681 0.950 . S
C708 C694 1.377 . S
C708 C707 1.373 . S
C709 C693 1.377 . S
C709 C707 1.389 . S
C709 C710 1.524 . S
C710 C709 1.524 . S
C710 C711 1.397 . S
C710 C715 1.363 . S
C711 H682 0.950 . S
C711 C710 1.397 . S
C711 C712 1.334 . S
C712 H683 0.950 . S
C712 C711 1.334 . S
C712 C713 1.287 . S
C713 C712 1.287 . S
C713 C714 1.524 . S
C713 H716 0.999 . S
C714 H684 0.950 . S
C714 C713 1.524 . S
C714 C715 1.415 . S
C715 H685 0.950 . S
C715 C710 1.363 . S
C715 C714 1.415 . S
H716 C713 0.999 . S
H717 C698 0.913 . S
H718 C736 0.951 . S
H719 C738 0.951 . S
H720 C740 0.950 . S
H721 C741 0.950 . S
H722 C743 0.950 . S
H723 C746 0.950 . S
H724 C747 0.950 . S
H725 C749 0.950 . S
H726 C750 0.950 . S
H727 C751 0.951 . S
H728 C753 0.951 . S
H729 C755 0.950 . S
H730 C756 0.950 . S
H731 C758 0.950 . S
H732 C761 0.950 . S
H733 C762 0.950 . S
H734 C764 0.950 . S
H735 C765 0.950 . S
C736 H718 0.951 . S
C736 C737 1.366 . S
C736 C738 1.388 . S
C737 C736 1.366 . S
C737 C741 1.385 . S
C738 H719 0.951 . S
C738 C736 1.388 . S
C738 C739 1.366 . S
C739 C738 1.366 . S
C739 C740 1.414 . S
C739 C742 1.499 . S
C740 H720 0.950 . S
C740 C739 1.414 . S
C740 C741 1.374 . S
C741 H721 0.950 . S
C741 C737 1.385 . S
C741 C740 1.374 . S
C742 C739 1.499 . S
C742 C743 1.373 . S
C742 C744 1.389 . S
C743 H722 0.950 . S
C743 C742 1.373 . S
C743 C759 1.377 . S
C744 C742 1.389 . S
C744 C745 1.524 . S
C744 C758 1.377 . S
C745 C744 1.524 . S
C745 C746 1.397 . S
C745 C750 1.363 . S
C746 H723 0.950 . S
C746 C745 1.397 . S
C746 C747 1.334 . S
C747 H724 0.950 . S
C747 C746 1.334 . S
C747 C748 1.287 . S
C748 C747 1.287 . S
C748 C749 1.524 . S
C748 H767 0.913 . S
C749 H725 0.950 . S
C749 C748 1.524 . S
C749 C750 1.415 . S
C750 H726 0.950 . S
C750 C745 1.363 . S
C750 C749 1.415 . S
C751 H727 0.951 . S
C751 C752 1.366 . S
C751 C753 1.388 . S
C752 C751 1.366 . S
C752 C756 1.385 . S
C753 H728 0.951 . S
C753 C751 1.388 . S
C753 C754 1.366 . S
C754 C753 1.366 . S
C754 C755 1.414 . S
C754 C757 1.499 . S
C755 H729 0.950 . S
C755 C754 1.414 . S
C755 C756 1.374 . S
C756 H730 0.950 . S
C756 C752 1.385 . S
C756 C755 1.374 . S
C757 C754 1.499 . S
C757 C758 1.373 . S
C757 C759 1.389 . S
C758 H731 0.950 . S
C758 C744 1.377 . S
C758 C757 1.373 . S
C759 C743 1.377 . S
C759 C757 1.389 . S
C759 C760 1.524 . S
C760 C759 1.524 . S
C760 C761 1.397 . S
C760 C765 1.363 . S
C761 H732 0.950 . S
C761 C760 1.397 . S
C761 C762 1.334 . S
C762 H733 0.950 . S
C762 C761 1.334 . S
C762 C763 1.287 . S
C763 C762 1.287 . S
C763 C764 1.524 . S
C763 H766 0.999 . S
C764 H734 0.950 . S
C764 C763 1.524 . S
C764 C765 1.415 . S
C765 H735 0.950 . S
C765 C760 1.363 . S
C765 C764 1.415 . S
H766 C763 0.999 . S
H767 C748 0.913 . S
H768 C786 0.951 . S
H769 C788 0.951 . S
H770 C790 0.950 . S
H771 C791 0.943 1_455 S
H772 C793 0.950 . S
H773 C796 0.950 . S
H774 C797 0.950 . S
H775 C799 0.950 . S
H776 C800 0.962 . S
H777 C801 0.951 . S
H778 C803 0.951 . S
H779 C805 0.950 . S
H780 C806 0.950 . S
H781 C808 0.950 . S
H782 C811 0.950 . S
H783 C812 0.950 . S
H784 C814 0.950 . S
H785 C815 0.950 . S
C786 H768 0.951 . S
C786 C787 1.366 . S
C786 C788 1.388 . S
C787 C786 1.366 . S
C787 C791 1.401 . S
C788 H769 0.951 . S
C788 C786 1.388 . S
C788 C789 1.366 1_655 S
C789 C788 1.366 1_455 S
C789 C790 1.414 . S
C789 C792 1.499 . S
C790 H770 0.950 . S
C790 C789 1.414 . S
C790 C791 1.364 1_455 S
C791 H771 0.943 1_655 S
C791 C787 1.401 . S
C791 C790 1.364 1_655 S
C792 C789 1.499 . S
C792 C793 1.373 . S
C792 C794 1.389 . S
C793 H772 0.950 . S
C793 C792 1.373 . S
C793 C809 1.377 . S
C794 C792 1.389 . S
C794 C795 1.524 . S
C794 C808 1.377 . S
C795 C794 1.524 . S
C795 C796 1.397 . S
C795 C800 1.344 1_455 S
C796 H773 0.950 . S
C796 C795 1.397 . S
C796 C797 1.334 . S
C797 H774 0.950 . S
C797 C796 1.334 . S
C797 C798 1.287 . S
C798 C797 1.287 . S
C798 C799 1.524 1_455 S
C798 H817 0.913 . S
C799 H775 0.950 . S
C799 C798 1.524 1_655 S
C799 C800 1.423 . S
C800 H776 0.962 . S
C800 C795 1.344 1_655 S
C800 C799 1.423 . S
C801 H777 0.951 . S
C801 C802 1.366 . S
C801 C803 1.388 . S
C802 C801 1.366 . S
C802 C806 1.385 . S
C803 H778 0.951 . S
C803 C801 1.388 . S
C803 C804 1.366 . S
C804 C803 1.366 . S
C804 C805 1.414 . S
C804 C807 1.499 . S
C805 H779 0.950 . S
C805 C804 1.414 . S
C805 C806 1.374 . S
C806 H780 0.950 . S
C806 C802 1.385 . S
C806 C805 1.374 . S
C807 C804 1.499 . S
C807 C808 1.373 . S
C807 C809 1.389 . S
C808 H781 0.950 . S
C808 C794 1.377 . S
C808 C807 1.373 . S
C809 C793 1.377 . S
C809 C807 1.389 . S
C809 C810 1.524 . S
C810 C809 1.524 . S
C810 C811 1.397 . S
C810 C815 1.363 . S
C811 H782 0.950 . S
C811 C810 1.397 . S
C811 C812 1.334 . S
C812 H783 0.950 . S
C812 C811 1.334 . S
C812 C813 1.287 . S
C813 C812 1.287 . S
C813 C814 1.524 . S
C813 H816 0.999 . S
C814 H784 0.950 . S
C814 C813 1.524 . S
C814 C815 1.415 . S
C815 H785 0.950 . S
C815 C810 1.363 . S
C815 C814 1.415 . S
H816 C813 0.999 . S
H817 C798 0.913 . S
H818 C836 0.951 . S
H819 C838 0.951 . S
H820 C840 0.950 . S
H821 C841 0.950 . S
H822 C843 0.950 . S
H823 C846 0.950 . S
H824 C847 0.950 . S
H825 C849 0.962 . S
H826 C850 0.950 . S
H827 C851 0.951 . S
H828 C853 0.955 . S
H829 C855 0.950 . S
H830 C856 0.950 . S
H831 C858 0.950 1_565 S
H832 C861 0.950 . S
H833 C862 0.950 . S
H834 C864 0.950 . S
H835 C865 0.950 . S
C836 H818 0.951 . S
C836 C837 1.366 . S
C836 C838 1.388 . S
C837 C836 1.366 . S
C837 C841 1.385 . S
C838 H819 0.951 . S
C838 C836 1.388 . S
C838 C839 1.366 1_655 S
C839 C838 1.366 1_455 S
C839 C840 1.414 . S
C839 C842 1.499 . S
C840 H820 0.950 . S
C840 C839 1.414 . S
C840 C841 1.374 1_455 S
C841 H821 0.950 . S
C841 C837 1.385 . S
C841 C840 1.374 1_655 S
C842 C839 1.499 . S
C842 C843 1.373 . S
C842 C844 1.389 . S
C843 H822 0.950 . S
C843 C842 1.373 . S
C843 C859 1.377 . S
C844 C842 1.389 . S
C844 C845 1.524 1_455 S
C844 C858 1.377 . S
C845 C844 1.524 1_655 S
C845 C846 1.397 . S
C845 C850 1.363 1_545 S
C846 H823 0.950 . S
C846 C845 1.397 . S
C846 C847 1.334 . S
C847 H824 0.950 . S
C847 C846 1.334 . S
C847 C848 1.287 . S
C848 C847 1.287 . S
C848 C849 1.510 1_545 S
C848 H867 0.913 . S
C849 H825 0.962 . S
C849 C848 1.510 1_565 S
C849 C850 1.415 . S
C850 H826 0.950 . S
C850 C845 1.363 1_565 S
C850 C849 1.415 . S
C851 H827 0.951 . S
C851 C852 1.366 . S
C851 C853 1.385 1_565 S
C852 C851 1.366 . S
C852 C856 1.385 . S
C853 H828 0.955 . S
C853 C851 1.385 1_545 S
C853 C854 1.364 1_545 S
C854 C853 1.364 1_565 S
C854 C855 1.414 . S
C854 C857 1.499 1_565 S
C855 H829 0.950 . S
C855 C854 1.414 . S
C855 C856 1.374 . S
C856 H830 0.950 . S
C856 C852 1.385 . S
C856 C855 1.374 . S
C857 C854 1.499 1_545 S
C857 C858 1.373 . S
C857 C859 1.389 . S
C858 H831 0.950 1_545 S
C858 C844 1.377 . S
C858 C857 1.373 . S
C859 C843 1.377 . S
C859 C857 1.389 . S
C859 C860 1.524 . S
C860 C859 1.524 . S
C860 C861 1.397 1_545 S
C860 C865 1.363 . S
C861 H832 0.950 . S
C861 C860 1.397 1_565 S
C861 C862 1.334 . S
C862 H833 0.950 . S
C862 C861 1.334 . S
C862 C863 1.287 1_565 S
C863 C862 1.287 1_545 S
C863 C864 1.524 . S
C863 H866 0.999 . S
C864 H834 0.950 . S
C864 C863 1.524 . S
C864 C865 1.415 . S
C865 H835 0.950 . S
C865 C860 1.363 . S
C865 C864 1.415 . S
H866 C863 0.999 . S
H867 C848 0.913 . S
H868 C886 0.951 . S
H869 C888 0.951 . S
H870 C890 0.950 . S
H871 C891 0.950 . S
H872 C893 0.950 . S
H873 C896 0.950 . S
H874 C897 0.950 . S
H875 C899 0.950 . S
H876 C900 0.950 . S
H877 C901 0.951 . S
H878 C903 0.951 . S
H879 C905 0.950 . S
H880 C906 0.950 . S
H881 C908 0.950 . S
H882 C911 0.950 1_545 S
H883 C912 0.950 . S
H884 C914 0.950 . S
H885 C915 0.950 . S
C886 H868 0.951 . S
C886 C887 1.366 . S
C886 C888 1.388 . S
C887 C886 1.366 . S
C887 C891 1.385 . S
C888 H869 0.951 . S
C888 C886 1.388 . S
C888 C889 1.366 . S
C889 C888 1.366 . S
C889 C890 1.414 . S
C889 C892 1.499 . S
C890 H870 0.950 . S
C890 C889 1.414 . S
C890 C891 1.374 . S
C891 H871 0.950 . S
C891 C887 1.385 . S
C891 C890 1.374 . S
C892 C889 1.499 . S
C892 C893 1.373 . S
C892 C894 1.389 . S
C893 H872 0.950 . S
C893 C892 1.373 . S
C893 C909 1.377 . S
C894 C892 1.389 . S
C894 C895 1.524 . S
C894 C908 1.377 . S
C895 C894 1.524 . S
C895 C896 1.397 . S
C895 C900 1.363 . S
C896 H873 0.950 . S
C896 C895 1.397 . S
C896 C897 1.334 . S
C897 H874 0.950 . S
C897 C896 1.334 . S
C897 C898 1.287 . S
C898 C897 1.287 . S
C898 C899 1.524 . S
C898 H917 0.913 . S
C899 H875 0.950 . S
C899 C898 1.524 . S
C899 C900 1.415 . S
C900 H876 0.950 . S
C900 C895 1.363 . S
C900 C899 1.415 . S
C901 H877 0.951 . S
C901 C902 1.366 . S
C901 C903 1.388 . S
C902 C901 1.366 . S
C902 C906 1.385 . S
C903 H878 0.951 . S
C903 C901 1.388 . S
C903 C904 1.366 . S
C904 C903 1.366 . S
C904 C905 1.414 1_565 S
C904 C907 1.499 1_565 S
C905 H879 0.950 . S
C905 C904 1.414 1_545 S
C905 C906 1.374 1_545 S
C906 H880 0.950 . S
C906 C902 1.385 . S
C906 C905 1.374 1_565 S
C907 C904 1.499 1_545 S
C907 C908 1.373 . S
C907 C909 1.389 . S
C908 H881 0.950 . S
C908 C894 1.377 . S
C908 C907 1.373 . S
C909 C893 1.377 . S
C909 C907 1.389 . S
C909 C910 1.524 1_545 S
C910 C909 1.524 1_565 S
C910 C911 1.397 . S
C910 C915 1.363 . S
C911 H882 0.950 1_565 S
C911 C910 1.397 . S
C911 C912 1.334 . S
C912 H883 0.950 . S
C912 C911 1.334 . S
C912 C913 1.287 . S
C913 C912 1.287 . S
C913 C914 1.524 . S
C913 H916 0.999 . S
C914 H884 0.950 . S
C914 C913 1.524 . S
C914 C915 1.415 . S
C915 H885 0.950 . S
C915 C910 1.363 . S
C915 C914 1.415 . S
H916 C913 0.999 . S
H917 C898 0.913 . S
H918 C936 0.951 . S
H919 C938 0.951 . S
H920 C940 0.950 . S
H921 C941 0.950 . S
H922 C943 0.950 . S
H923 C946 0.950 . S
H924 C947 0.950 . S
H925 C949 0.950 . S
H926 C950 0.950 . S
H927 C951 0.951 . S
H928 C953 0.951 . S
H929 C955 0.950 . S
H930 C956 0.950 . S
H931 C958 0.950 . S
H932 C961 0.950 . S
H933 C962 0.950 . S
H934 C964 0.950 . S
H935 C965 0.950 . S
C936 H918 0.951 . S
C936 C937 1.366 . S
C936 C938 1.388 . S
C937 C936 1.366 . S
C937 C941 1.385 . S
C938 H919 0.951 . S
C938 C936 1.388 . S
C938 C939 1.366 . S
C939 C938 1.366 . S
C939 C940 1.414 . S
C939 C942 1.499 . S
C940 H920 0.950 . S
C940 C939 1.414 . S
C940 C941 1.374 . S
C941 H921 0.950 . S
C941 C937 1.385 . S
C941 C940 1.374 . S
C942 C939 1.499 . S
C942 C943 1.373 . S
C942 C944 1.389 . S
C943 H922 0.950 . S
C943 C942 1.373 . S
C943 C959 1.377 . S
C944 C942 1.389 . S
C944 C945 1.524 . S
C944 C958 1.377 . S
C945 C944 1.524 . S
C945 C946 1.397 . S
C945 C950 1.363 . S
C946 H923 0.950 . S
C946 C945 1.397 . S
C946 C947 1.334 . S
C947 H924 0.950 . S
C947 C946 1.334 . S
C947 C948 1.287 . S
C948 C947 1.287 . S
C948 C949 1.524 . S
C948 H967 0.913 . S
C949 H925 0.950 . S
C949 C948 1.524 . S
C949 C950 1.415 . S
C950 H926 0.950 . S
C950 C945 1.363 . S
C950 C949 1.415 . S
C951 H927 0.951 . S
C951 C952 1.366 . S
C951 C953 1.388 . S
C952 C951 1.366 . S
C952 C956 1.385 . S
C953 H928 0.951 . S
C953 C951 1.388 . S
C953 C954 1.366 . S
C954 C953 1.366 . S
C954 C955 1.414 . S
C954 C957 1.499 . S
C955 H929 0.950 . S
C955 C954 1.414 . S
C955 C956 1.374 . S
C956 H930 0.950 . S
C956 C952 1.385 . S
C956 C955 1.374 . S
C957 C954 1.499 . S
C957 C958 1.373 . S
C957 C959 1.389 . S
C958 H931 0.950 . S
C958 C944 1.377 . S
C958 C957 1.373 . S
C959 C943 1.377 . S
C959 C957 1.389 . S
C959 C960 1.524 . S
C960 C959 1.524 . S
C960 C961 1.397 . S
C960 C965 1.363 . S
C961 H932 0.950 . S
C961 C960 1.397 . S
C961 C962 1.334 . S
C962 H933 0.950 . S
C962 C961 1.334 . S
C962 C963 1.287 . S
C963 C962 1.287 . S
C963 C964 1.524 . S
C963 H966 0.999 . S
C964 H934 0.950 . S
C964 C963 1.524 . S
C964 C965 1.415 . S
C965 H935 0.950 . S
C965 C960 1.363 . S
C965 C964 1.415 . S
H966 C963 0.999 . S
H967 C948 0.913 . S
H968 C986 0.951 . S
H969 C988 0.951 . S
H970 C990 0.950 . S
H971 C991 0.950 . S
H972 C993 0.950 . S
H973 C996 0.950 1_655 S
H974 C997 0.950 . S
H975 C999 0.950 . S
H976 C1000 0.950 . S
H977 C1001 0.951 . S
H978 C1003 0.951 . S
H979 C1005 0.950 . S
H980 C1006 0.950 . S
H981 C1008 0.950 . S
H982 C1011 0.950 . S
H983 C1012 0.950 . S
H984 C1014 0.950 . S
H985 C1015 0.950 . S
C986 H968 0.951 . S
C986 C987 1.366 . S
C986 C988 1.388 . S
C987 C986 1.366 . S
C987 C991 1.385 1_455 S
C988 H969 0.951 . S
C988 C986 1.388 . S
C988 C989 1.366 1_455 S
C989 C988 1.366 1_655 S
C989 C990 1.414 . S
C989 C992 1.499 . S
C990 H970 0.950 . S
C990 C989 1.414 . S
C990 C991 1.374 . S
C991 H971 0.950 . S
C991 C987 1.385 1_655 S
C991 C990 1.374 . S
C992 C989 1.499 . S
C992 C993 1.373 . S
C992 C994 1.389 . S
C993 H972 0.950 . S
C993 C992 1.373 . S
C993 C1009 1.377 . S
C994 C992 1.389 . S
C994 C995 1.524 1_655 S
C994 C1008 1.377 . S
C995 C994 1.524 1_455 S
C995 C996 1.397 . S
C995 C1000 1.363 . S
C996 H973 0.950 1_455 S
C996 C995 1.397 . S
C996 C997 1.334 . S
C997 H974 0.950 . S
C997 C996 1.334 . S
C997 C998 1.287 . S
C998 C997 1.287 . S
C998 C999 1.524 . S
C998 H1017 0.913 . S
C999 H975 0.950 . S
C999 C998 1.524 . S
C999 C1000 1.415 . S
C1000 H976 0.950 . S
C1000 C995 1.363 . S
C1000 C999 1.415 . S
C1001 H977 0.951 . S
C1001 C1002 1.366 . S
C1001 C1003 1.388 . S
C1002 C1001 1.366 . S
C1002 C1006 1.385 . S
C1003 H978 0.951 . S
C1003 C1001 1.388 . S
C1003 C1004 1.366 . S
C1004 C1003 1.366 . S
C1004 C1005 1.414 . S
C1004 C1007 1.499 . S
C1005 H979 0.950 . S
C1005 C1004 1.414 . S
C1005 C1006 1.374 . S
C1006 H980 0.950 . S
C1006 C1002 1.385 . S
C1006 C1005 1.374 . S
C1007 C1004 1.499 . S
C1007 C1008 1.373 . S
C1007 C1009 1.389 . S
C1008 H981 0.950 . S
C1008 C994 1.377 . S
C1008 C1007 1.373 . S
C1009 C993 1.377 . S
C1009 C1007 1.389 . S
C1009 C1010 1.524 . S
C1010 C1009 1.524 . S
C1010 C1011 1.397 . S
C1010 C1015 1.363 . S
C1011 H982 0.950 . S
C1011 C1010 1.397 . S
C1011 C1012 1.334 . S
C1012 H983 0.950 . S
C1012 C1011 1.334 . S
C1012 C1013 1.287 . S
C1013 C1012 1.287 . S
C1013 C1014 1.524 . S
C1013 H1016 0.999 . S
C1014 H984 0.950 . S
C1014 C1013 1.524 . S
C1014 C1015 1.415 . S
C1015 H985 0.950 . S
C1015 C1010 1.363 . S
C1015 C1014 1.415 . S
H1016 C1013 0.999 . S
H1017 C998 0.913 . S
H1018 C1036 0.954 . S
H1019 C1038 0.981 . S
H1020 C1040 0.950 . S
H1021 C1041 0.950 . S
H1022 C1043 0.950 1_455 S
H1023 C1046 0.950 . S
H1024 C1047 0.950 . S
H1025 C1049 0.950 . S
H1026 C1050 0.950 1_545 S
H1027 C1051 0.951 . S
H1028 C1053 0.951 . S
H1029 C1055 0.950 . S
H1030 C1056 0.950 . S
H1031 C1058 0.950 . S
H1032 C1061 0.950 . S
H1033 C1062 0.950 1_655 S
H1034 C1064 0.950 . S
H1035 C1065 0.950 . S
C1036 H1018 0.954 . S
C1036 C1037 1.366 . S
C1036 C1038 1.388 1_455 S
C1037 C1036 1.366 . S
C1037 C1041 1.385 . S
C1038 H1019 0.981 . S
C1038 C1036 1.388 1_655 S
C1038 C1039 1.366 . S
C1039 C1038 1.366 . S
C1039 C1040 1.414 1_655 S
C1039 C1042 1.499 . S
C1040 H1020 0.950 . S
C1040 C1039 1.414 1_455 S
C1040 C1041 1.374 . S
C1041 H1021 0.950 . S
C1041 C1037 1.385 . S
C1041 C1040 1.374 . S
C1042 C1039 1.499 . S
C1042 C1043 1.373 1_565 S
C1042 C1044 1.389 . S
C1043 H1022 0.950 1_655 S
C1043 C1042 1.373 1_545 S
C1043 C1059 1.377 . S
C1044 C1042 1.389 . S
C1044 C1045 1.524 . S
C1044 C1058 1.377 1_565 S
C1045 C1044 1.524 . S
C1045 C1046 1.397 . S
C1045 C1050 1.363 . S
C1046 H1023 0.950 . S
C1046 C1045 1.397 . S
C1046 C1047 1.334 . S
C1047 H1024 0.950 . S
C1047 C1046 1.334 . S
C1047 C1048 1.287 . S
C1048 C1047 1.287 . S
C1048 C1049 1.524 . S
C1048 H1067 0.913 . S
C1049 H1025 0.950 . S
C1049 C1048 1.524 . S
C1049 C1050 1.415 . S
C1050 H1026 0.950 1_565 S
C1050 C1045 1.363 . S
C1050 C1049 1.415 . S
C1051 H1027 0.951 . S
C1051 C1052 1.366 . S
C1051 C1053 1.388 . S
C1052 C1051 1.366 . S
C1052 C1056 1.385 . S
C1053 H1028 0.951 . S
C1053 C1051 1.388 . S
C1053 C1054 1.366 . S
C1054 C1053 1.366 . S
C1054 C1055 1.414 . S
C1054 C1057 1.499 . S
C1055 H1029 0.950 . S
C1055 C1054 1.414 . S
C1055 C1056 1.374 . S
C1056 H1030 0.950 . S
C1056 C1052 1.385 . S
C1056 C1055 1.374 . S
C1057 C1054 1.499 . S
C1057 C1058 1.373 . S
C1057 C1059 1.389 . S
C1058 H1031 0.950 . S
C1058 C1044 1.377 1_545 S
C1058 C1057 1.373 . S
C1059 C1043 1.377 . S
C1059 C1057 1.389 . S
C1059 C1060 1.524 . S
C1060 C1059 1.524 . S
C1060 C1061 1.397 . S
C1060 C1065 1.363 1_655 S
C1061 H1032 0.950 . S
C1061 C1060 1.397 . S
C1061 C1062 1.334 1_655 S
C1062 H1033 0.950 1_455 S
C1062 C1061 1.334 1_455 S
C1062 C1063 1.287 . S
C1063 C1062 1.287 . S
C1063 C1064 1.524 . S
C1063 H1066 0.999 . S
C1064 H1034 0.950 . S
C1064 C1063 1.524 . S
C1064 C1065 1.415 . S
C1065 H1035 0.950 . S
C1065 C1060 1.363 1_455 S
C1065 C1064 1.415 . S
H1066 C1063 0.999 . S
H1067 C1048 0.913 . S
H1068 C1086 0.951 . S
H1069 C1088 0.951 . S
H1070 C1090 0.927 1_565 S
H1071 C1091 0.950 . S
H1072 C1093 0.950 . S
H1073 C1096 0.950 . S
H1074 C1097 0.950 . S
H1075 C1099 0.950 . S
H1076 C1100 0.950 . S
H1077 C1101 0.951 . S
H1078 C1103 0.951 . S
H1079 C1105 0.950 1_545 S
H1080 C1106 0.950 . S
H1081 C1108 0.950 . S
H1082 C1111 0.950 . S
H1083 C1112 0.950 . S
H1084 C1114 0.950 . S
H1085 C1115 0.950 . S
C1086 H1068 0.951 . S
C1086 C1087 1.366 . S
C1086 C1088 1.388 . S
C1087 C1086 1.366 . S
C1087 C1091 1.385 . S
C1088 H1069 0.951 . S
C1088 C1086 1.388 . S
C1088 C1089 1.366 . S
C1089 C1088 1.366 . S
C1089 C1090 1.414 . S
C1089 C1092 1.499 . S
C1090 H1070 0.927 1_545 S
C1090 C1089 1.414 . S
C1090 C1091 1.374 . S
C1091 H1071 0.950 . S
C1091 C1087 1.385 . S
C1091 C1090 1.374 . S
C1092 C1089 1.499 . S
C1092 C1093 1.373 1_545 S
C1092 C1094 1.389 . S
C1093 H1072 0.950 . S
C1093 C1092 1.373 1_565 S
C1093 C1109 1.377 . S
C1094 C1092 1.389 . S
C1094 C1095 1.524 . S
C1094 C1108 1.377 . S
C1095 C1094 1.524 . S
C1095 C1096 1.397 . S
C1095 C1100 1.363 . S
C1096 H1073 0.950 . S
C1096 C1095 1.397 . S
C1096 C1097 1.334 . S
C1097 H1074 0.950 . S
C1097 C1096 1.334 . S
C1097 C1098 1.287 . S
C1098 C1097 1.287 . S
C1098 C1099 1.524 . S
C1098 H1117 0.913 . S
C1099 H1075 0.950 . S
C1099 C1098 1.524 . S
C1099 C1100 1.415 . S
C1100 H1076 0.950 . S
C1100 C1095 1.363 . S
C1100 C1099 1.415 . S
C1101 H1077 0.951 . S
C1101 C1102 1.366 . S
C1101 C1103 1.388 . S
C1102 C1101 1.366 . S
C1102 C1106 1.385 . S
C1103 H1078 0.951 . S
C1103 C1101 1.388 . S
C1103 C1104 1.366 . S
C1104 C1103 1.366 . S
C1104 C1105 1.414 . S
C1104 C1107 1.499 . S
C1105 H1079 0.950 1_565 S
C1105 C1104 1.414 . S
C1105 C1106 1.374 . S
C1106 H1080 0.950 . S
C1106 C1102 1.385 . S
C1106 C1105 1.374 . S
C1107 C1104 1.499 . S
C1107 C1108 1.373 1_565 S
C1107 C1109 1.389 . S
C1108 H1081 0.950 . S
C1108 C1094 1.377 . S
C1108 C1107 1.373 1_545 S
C1109 C1093 1.377 . S
C1109 C1107 1.389 . S
C1109 C1110 1.524 . S
C1110 C1109 1.524 . S
C1110 C1111 1.397 . S
C1110 C1115 1.363 . S
C1111 H1082 0.950 . S
C1111 C1110 1.397 . S
C1111 C1112 1.334 . S
C1112 H1083 0.950 . S
C1112 C1111 1.334 . S
C1112 C1113 1.287 . S
C1113 C1112 1.287 . S
C1113 C1114 1.524 . S
C1113 H1116 0.999 . S
C1114 H1084 0.950 . S
C1114 C1113 1.524 . S
C1114 C1115 1.415 . S
C1115 H1085 0.950 . S
C1115 C1110 1.363 . S
C1115 C1114 1.415 . S
H1116 C1113 0.999 . S
H1117 C1098 0.913 . S
H1118 C1136 0.951 . S
H1119 C1138 0.951 . S
H1120 C1140 0.950 . S
H1121 C1141 0.950 . S
H1122 C1143 0.950 . S
H1123 C1146 0.950 . S
H1124 C1147 0.950 . S
H1125 C1149 0.950 . S
H1126 C1150 0.950 . S
H1127 C1151 0.951 . S
H1128 C1153 0.951 . S
H1129 C1155 0.950 . S
H1130 C1156 0.950 . S
H1131 C1158 0.950 . S
H1132 C1161 0.950 . S
H1133 C1162 0.950 . S
H1134 C1164 0.950 . S
H1135 C1165 0.950 . S
C1136 H1118 0.951 . S
C1136 C1137 1.366 . S
C1136 C1138 1.388 . S
C1137 C1136 1.366 . S
C1137 C1141 1.385 . S
C1138 H1119 0.951 . S
C1138 C1136 1.388 . S
C1138 C1139 1.366 . S
C1139 C1138 1.366 . S
C1139 C1140 1.414 . S
C1139 C1142 1.499 . S
C1140 H1120 0.950 . S
C1140 C1139 1.414 . S
C1140 C1141 1.374 . S
C1141 H1121 0.950 . S
C1141 C1137 1.385 . S
C1141 C1140 1.374 . S
C1142 C1139 1.499 . S
C1142 C1143 1.373 . S
C1142 C1144 1.389 . S
C1143 H1122 0.950 . S
C1143 C1142 1.373 . S
C1143 C1159 1.377 . S
C1144 C1142 1.389 . S
C1144 C1145 1.524 . S
C1144 C1158 1.377 . S
C1145 C1144 1.524 . S
C1145 C1146 1.397 . S
C1145 C1150 1.363 . S
C1146 H1123 0.950 . S
C1146 C1145 1.397 . S
C1146 C1147 1.334 . S
C1147 H1124 0.950 . S
C1147 C1146 1.334 . S
C1147 C1148 1.287 . S
C1148 C1147 1.287 . S
C1148 C1149 1.524 . S
C1148 H1167 0.913 . S
C1149 H1125 0.950 . S
C1149 C1148 1.524 . S
C1149 C1150 1.415 . S
C1150 H1126 0.950 . S
C1150 C1145 1.363 . S
C1150 C1149 1.415 . S
C1151 H1127 0.951 . S
C1151 C1152 1.366 . S
C1151 C1153 1.388 . S
C1152 C1151 1.366 . S
C1152 C1156 1.385 . S
C1153 H1128 0.951 . S
C1153 C1151 1.388 . S
C1153 C1154 1.366 . S
C1154 C1153 1.366 . S
C1154 C1155 1.414 . S
C1154 C1157 1.499 . S
C1155 H1129 0.950 . S
C1155 C1154 1.414 . S
C1155 C1156 1.374 . S
C1156 H1130 0.950 . S
C1156 C1152 1.385 . S
C1156 C1155 1.374 . S
C1157 C1154 1.499 . S
C1157 C1158 1.373 . S
C1157 C1159 1.389 . S
C1158 H1131 0.950 . S
C1158 C1144 1.377 . S
C1158 C1157 1.373 . S
C1159 C1143 1.377 . S
C1159 C1157 1.389 . S
C1159 C1160 1.524 . S
C1160 C1159 1.524 . S
C1160 C1161 1.397 . S
C1160 C1165 1.363 . S
C1161 H1132 0.950 . S
C1161 C1160 1.397 . S
C1161 C1162 1.334 . S
C1162 H1133 0.950 . S
C1162 C1161 1.334 . S
C1162 C1163 1.287 . S
C1163 C1162 1.287 . S
C1163 C1164 1.524 . S
C1163 H1166 0.999 . S
C1164 H1134 0.950 . S
C1164 C1163 1.524 . S
C1164 C1165 1.415 . S
C1165 H1135 0.950 . S
C1165 C1160 1.363 . S
C1165 C1164 1.415 . S
H1166 C1163 0.999 . S
H1167 C1148 0.913 . S
H1168 C1186 0.951 . S
H1169 C1188 0.951 . S
H1170 C1190 0.950 . S
H1171 C1191 0.950 . S
H1172 C1193 0.950 . S
H1173 C1196 0.950 . S
H1174 C1197 0.950 . S
H1175 C1199 0.950 . S
H1176 C1200 0.950 . S
H1177 C1201 0.951 . S
H1178 C1203 0.951 . S
H1179 C1205 0.950 . S
H1180 C1206 0.950 . S
H1181 C1208 0.950 . S
H1182 C1211 0.950 . S
H1183 C1212 0.950 . S
H1184 C1214 0.950 . S
H1185 C1215 0.950 . S
C1186 H1168 0.951 . S
C1186 C1187 1.366 . S
C1186 C1188 1.388 . S
C1187 C1186 1.366 . S
C1187 C1191 1.385 . S
C1188 H1169 0.951 . S
C1188 C1186 1.388 . S
C1188 C1189 1.366 . S
C1189 C1188 1.366 . S
C1189 C1190 1.414 . S
C1189 C1192 1.499 . S
C1190 H1170 0.950 . S
C1190 C1189 1.414 . S
C1190 C1191 1.374 . S
C1191 H1171 0.950 . S
C1191 C1187 1.385 . S
C1191 C1190 1.374 . S
C1192 C1189 1.499 . S
C1192 C1193 1.373 . S
C1192 C1194 1.389 . S
C1193 H1172 0.950 . S
C1193 C1192 1.373 . S
C1193 C1209 1.377 . S
C1194 C1192 1.389 . S
C1194 C1195 1.524 . S
C1194 C1208 1.377 . S
C1195 C1194 1.524 . S
C1195 C1196 1.397 . S
C1195 C1200 1.363 . S
C1196 H1173 0.950 . S
C1196 C1195 1.397 . S
C1196 C1197 1.334 . S
C1197 H1174 0.950 . S
C1197 C1196 1.334 . S
C1197 C1198 1.287 . S
C1198 C1197 1.287 . S
C1198 C1199 1.524 . S
C1198 H1217 0.913 . S
C1199 H1175 0.950 . S
C1199 C1198 1.524 . S
C1199 C1200 1.415 . S
C1200 H1176 0.950 . S
C1200 C1195 1.363 . S
C1200 C1199 1.415 . S
C1201 H1177 0.951 . S
C1201 C1202 1.366 . S
C1201 C1203 1.388 . S
C1202 C1201 1.366 . S
C1202 C1206 1.385 . S
C1203 H1178 0.951 . S
C1203 C1201 1.388 . S
C1203 C1204 1.366 . S
C1204 C1203 1.366 . S
C1204 C1205 1.414 . S
C1204 C1207 1.499 . S
C1205 H1179 0.950 . S
C1205 C1204 1.414 . S
C1205 C1206 1.374 . S
C1206 H1180 0.950 . S
C1206 C1202 1.385 . S
C1206 C1205 1.374 . S
C1207 C1204 1.499 . S
C1207 C1208 1.373 . S
C1207 C1209 1.389 . S
C1208 H1181 0.950 . S
C1208 C1194 1.377 . S
C1208 C1207 1.373 . S
C1209 C1193 1.377 . S
C1209 C1207 1.389 . S
C1209 C1210 1.524 . S
C1210 C1209 1.524 . S
C1210 C1211 1.397 . S
C1210 C1215 1.363 . S
C1211 H1182 0.950 . S
C1211 C1210 1.397 . S
C1211 C1212 1.334 . S
C1212 H1183 0.950 . S
C1212 C1211 1.334 . S
C1212 C1213 1.287 . S
C1213 C1212 1.287 . S
C1213 C1214 1.524 . S
C1213 H1216 0.999 . S
C1214 H1184 0.950 . S
C1214 C1213 1.524 . S
C1214 C1215 1.415 . S
C1215 H1185 0.950 . S
C1215 C1210 1.363 . S
C1215 C1214 1.415 . S
H1216 C1213 0.999 . S
H1217 C1198 0.913 . S
H1218 C1236 0.951 . S
H1219 C1238 0.951 . S
H1220 C1240 0.950 . S
H1221 C1241 0.950 . S
H1222 C1243 0.950 . S
H1223 C1246 0.950 . S
H1224 C1247 0.950 . S
H1225 C1249 0.950 . S
H1226 C1250 0.950 . S
H1227 C1251 0.951 . S
H1228 C1253 0.951 . S
H1229 C1255 0.950 . S
H1230 C1256 0.950 . S
H1231 C1258 0.950 . S
H1232 C1261 0.950 . S
H1233 C1262 0.950 . S
H1234 C1264 0.950 . S
H1235 C1265 0.950 . S
C1236 H1218 0.951 . S
C1236 C1237 1.366 . S
C1236 C1238 1.388 . S
C1237 C1236 1.366 . S
C1237 C1241 1.385 . S
C1238 H1219 0.951 . S
C1238 C1236 1.388 . S
C1238 C1239 1.366 . S
C1239 C1238 1.366 . S
C1239 C1240 1.414 . S
C1239 C1242 1.499 . S
C1240 H1220 0.950 . S
C1240 C1239 1.414 . S
C1240 C1241 1.374 . S
C1241 H1221 0.950 . S
C1241 C1237 1.385 . S
C1241 C1240 1.374 . S
C1242 C1239 1.499 . S
C1242 C1243 1.373 . S
C1242 C1244 1.389 . S
C1243 H1222 0.950 . S
C1243 C1242 1.373 . S
C1243 C1259 1.377 . S
C1244 C1242 1.389 . S
C1244 C1245 1.524 . S
C1244 C1258 1.377 . S
C1245 C1244 1.524 . S
C1245 C1246 1.397 . S
C1245 C1250 1.363 . S
C1246 H1223 0.950 . S
C1246 C1245 1.397 . S
C1246 C1247 1.334 . S
C1247 H1224 0.950 . S
C1247 C1246 1.334 . S
C1247 C1248 1.287 . S
C1248 C1247 1.287 . S
C1248 C1249 1.524 . S
C1248 H1267 0.913 . S
C1249 H1225 0.950 . S
C1249 C1248 1.524 . S
C1249 C1250 1.415 . S
C1250 H1226 0.950 . S
C1250 C1245 1.363 . S
C1250 C1249 1.415 . S
C1251 H1227 0.951 . S
C1251 C1252 1.366 . S
C1251 C1253 1.388 . S
C1252 C1251 1.366 . S
C1252 C1256 1.385 . S
C1253 H1228 0.951 . S
C1253 C1251 1.388 . S
C1253 C1254 1.366 . S
C1254 C1253 1.366 . S
C1254 C1255 1.414 . S
C1254 C1257 1.499 . S
C1255 H1229 0.950 . S
C1255 C1254 1.414 . S
C1255 C1256 1.374 . S
C1256 H1230 0.950 . S
C1256 C1252 1.385 . S
C1256 C1255 1.374 . S
C1257 C1254 1.499 . S
C1257 C1258 1.373 . S
C1257 C1259 1.389 . S
C1258 H1231 0.950 . S
C1258 C1244 1.377 . S
C1258 C1257 1.373 . S
C1259 C1243 1.377 . S
C1259 C1257 1.389 . S
C1259 C1260 1.524 . S
C1260 C1259 1.524 . S
C1260 C1261 1.397 . S
C1260 C1265 1.363 . S
C1261 H1232 0.950 . S
C1261 C1260 1.397 . S
C1261 C1262 1.334 . S
C1262 H1233 0.950 . S
C1262 C1261 1.334 . S
C1262 C1263 1.287 . S
C1263 C1262 1.287 . S
C1263 C1264 1.524 . S
C1263 H1266 0.999 . S
C1264 H1234 0.950 . S
C1264 C1263 1.524 . S
C1264 C1265 1.415 . S
C1265 H1235 0.950 . S
C1265 C1260 1.363 . S
C1265 C1264 1.415 . S
H1266 C1263 0.999 . S
H1267 C1248 0.913 . S
H1268 C1286 0.951 . S
H1269 C1288 0.951 . S
H1270 C1290 0.950 . S
H1271 C1291 0.950 . S
H1272 C1293 0.950 . S
H1273 C1296 0.950 . S
H1274 C1297 0.950 . S
H1275 C1299 0.950 . S
H1276 C1300 0.950 . S
H1277 C1301 0.951 . S
H1278 C1303 0.951 . S
H1279 C1305 0.950 . S
H1280 C1306 0.950 . S
H1281 C1308 0.950 . S
H1282 C1311 0.950 . S
H1283 C1312 0.950 . S
H1284 C1314 0.950 . S
H1285 C1315 0.950 . S
C1286 H1268 0.951 . S
C1286 C1287 1.366 . S
C1286 C1288 1.388 . S
C1287 C1286 1.366 . S
C1287 C1291 1.385 . S
C1288 H1269 0.951 . S
C1288 C1286 1.388 . S
C1288 C1289 1.366 . S
C1289 C1288 1.366 . S
C1289 C1290 1.414 . S
C1289 C1292 1.499 . S
C1290 H1270 0.950 . S
C1290 C1289 1.414 . S
C1290 C1291 1.374 . S
C1291 H1271 0.950 . S
C1291 C1287 1.385 . S
C1291 C1290 1.374 . S
C1292 C1289 1.499 . S
C1292 C1293 1.373 . S
C1292 C1294 1.389 . S
C1293 H1272 0.950 . S
C1293 C1292 1.373 . S
C1293 C1309 1.377 . S
C1294 C1292 1.389 . S
C1294 C1295 1.524 . S
C1294 C1308 1.377 . S
C1295 C1294 1.524 . S
C1295 C1296 1.397 . S
C1295 C1300 1.363 . S
C1296 H1273 0.950 . S
C1296 C1295 1.397 . S
C1296 C1297 1.334 . S
C1297 H1274 0.950 . S
C1297 C1296 1.334 . S
C1297 C1298 1.287 . S
C1298 C1297 1.287 . S
C1298 C1299 1.524 . S
C1298 H1317 0.913 . S
C1299 H1275 0.950 . S
C1299 C1298 1.524 . S
C1299 C1300 1.415 . S
C1300 H1276 0.950 . S
C1300 C1295 1.363 . S
C1300 C1299 1.415 . S
C1301 H1277 0.951 . S
C1301 C1302 1.366 . S
C1301 C1303 1.388 . S
C1302 C1301 1.366 . S
C1302 C1306 1.385 . S
C1303 H1278 0.951 . S
C1303 C1301 1.388 . S
C1303 C1304 1.366 . S
C1304 C1303 1.366 . S
C1304 C1305 1.414 . S
C1304 C1307 1.499 . S
C1305 H1279 0.950 . S
C1305 C1304 1.414 . S
C1305 C1306 1.374 . S
C1306 H1280 0.950 . S
C1306 C1302 1.385 . S
C1306 C1305 1.374 . S
C1307 C1304 1.499 . S
C1307 C1308 1.373 . S
C1307 C1309 1.389 . S
C1308 H1281 0.950 . S
C1308 C1294 1.377 . S
C1308 C1307 1.373 . S
C1309 C1293 1.377 . S
C1309 C1307 1.389 . S
C1309 C1310 1.524 . S
C1310 C1309 1.524 . S
C1310 C1311 1.397 . S
C1310 C1315 1.363 . S
C1311 H1282 0.950 . S
C1311 C1310 1.397 . S
C1311 C1312 1.334 . S
C1312 H1283 0.950 . S
C1312 C1311 1.334 . S
C1312 C1313 1.287 . S
C1313 C1312 1.287 . S
C1313 C1314 1.524 . S
C1313 H1316 0.999 . S
C1314 H1284 0.950 . S
C1314 C1313 1.524 . S
C1314 C1315 1.415 . S
C1315 H1285 0.950 . S
C1315 C1310 1.363 . S
C1315 C1314 1.415 . S
H1316 C1313 0.999 . S
H1317 C1298 0.913 . S
H1318 C1336 0.951 . S
H1319 C1338 0.951 . S
H1320 C1340 0.950 . S
H1321 C1341 0.950 . S
H1322 C1343 0.950 . S
H1323 C1346 0.950 . S
H1324 C1347 0.950 . S
H1325 C1349 0.950 . S
H1326 C1350 0.950 . S
H1327 C1351 0.951 . S
H1328 C1353 0.951 . S
H1329 C1355 0.950 . S
H1330 C1356 0.950 . S
H1331 C1358 0.950 . S
H1332 C1361 0.950 . S
H1333 C1362 0.950 . S
H1334 C1364 0.950 . S
H1335 C1365 0.950 . S
C1336 H1318 0.951 . S
C1336 C1337 1.366 . S
C1336 C1338 1.388 . S
C1337 C1336 1.366 . S
C1337 C1341 1.385 . S
C1338 H1319 0.951 . S
C1338 C1336 1.388 . S
C1338 C1339 1.366 . S
C1339 C1338 1.366 . S
C1339 C1340 1.414 . S
C1339 C1342 1.499 . S
C1340 H1320 0.950 . S
C1340 C1339 1.414 . S
C1340 C1341 1.374 . S
C1341 H1321 0.950 . S
C1341 C1337 1.385 . S
C1341 C1340 1.374 . S
C1342 C1339 1.499 . S
C1342 C1343 1.373 . S
C1342 C1344 1.389 . S
C1343 H1322 0.950 . S
C1343 C1342 1.373 . S
C1343 C1359 1.377 . S
C1344 C1342 1.389 . S
C1344 C1345 1.524 . S
C1344 C1358 1.377 . S
C1345 C1344 1.524 . S
C1345 C1346 1.397 . S
C1345 C1350 1.363 . S
C1346 H1323 0.950 . S
C1346 C1345 1.397 . S
C1346 C1347 1.334 . S
C1347 H1324 0.950 . S
C1347 C1346 1.334 . S
C1347 C1348 1.287 . S
C1348 C1347 1.287 . S
C1348 C1349 1.524 . S
C1348 H1367 0.913 . S
C1349 H1325 0.950 . S
C1349 C1348 1.524 . S
C1349 C1350 1.415 . S
C1350 H1326 0.950 . S
C1350 C1345 1.363 . S
C1350 C1349 1.415 . S
C1351 H1327 0.951 . S
C1351 C1352 1.366 . S
C1351 C1353 1.388 . S
C1352 C1351 1.366 . S
C1352 C1356 1.385 . S
C1353 H1328 0.951 . S
C1353 C1351 1.388 . S
C1353 C1354 1.366 . S
C1354 C1353 1.366 . S
C1354 C1355 1.414 . S
C1354 C1357 1.499 . S
C1355 H1329 0.950 . S
C1355 C1354 1.414 . S
C1355 C1356 1.374 . S
C1356 H1330 0.950 . S
C1356 C1352 1.385 . S
C1356 C1355 1.374 . S
C1357 C1354 1.499 . S
C1357 C1358 1.373 . S
C1357 C1359 1.389 . S
C1358 H1331 0.950 . S
C1358 C1344 1.377 . S
C1358 C1357 1.373 . S
C1359 C1343 1.377 . S
C1359 C1357 1.389 . S
C1359 C1360 1.524 . S
C1360 C1359 1.524 . S
C1360 C1361 1.397 . S
C1360 C1365 1.363 . S
C1361 H1332 0.950 . S
C1361 C1360 1.397 . S
C1361 C1362 1.334 . S
C1362 H1333 0.950 . S
C1362 C1361 1.334 . S
C1362 C1363 1.287 . S
C1363 C1362 1.287 . S
C1363 C1364 1.524 . S
C1363 H1366 0.999 . S
C1364 H1334 0.950 . S
C1364 C1363 1.524 . S
C1364 C1365 1.415 . S
C1365 H1335 0.950 . S
C1365 C1360 1.363 . S
C1365 C1364 1.415 . S
H1366 C1363 0.999 . S
H1367 C1348 0.913 . S
H1368 C1386 0.951 . S
H1369 C1388 0.951 . S
H1370 C1390 0.950 . S
H1371 C1391 0.950 . S
H1372 C1393 0.950 . S
H1373 C1396 0.950 . S
H1374 C1397 0.950 . S
H1375 C1399 0.950 . S
H1376 C1400 0.950 . S
H1377 C1401 0.951 . S
H1378 C1403 0.951 . S
H1379 C1405 0.950 . S
H1380 C1406 0.950 . S
H1381 C1408 0.950 . S
H1382 C1411 0.950 . S
H1383 C1412 0.950 . S
H1384 C1414 0.950 . S
H1385 C1415 0.950 . S
C1386 H1368 0.951 . S
C1386 C1387 1.366 . S
C1386 C1388 1.388 . S
C1387 C1386 1.366 . S
C1387 C1391 1.385 . S
C1388 H1369 0.951 . S
C1388 C1386 1.388 . S
C1388 C1389 1.366 . S
C1389 C1388 1.366 . S
C1389 C1390 1.414 . S
C1389 C1392 1.499 . S
C1390 H1370 0.950 . S
C1390 C1389 1.414 . S
C1390 C1391 1.374 . S
C1391 H1371 0.950 . S
C1391 C1387 1.385 . S
C1391 C1390 1.374 . S
C1392 C1389 1.499 . S
C1392 C1393 1.373 . S
C1392 C1394 1.389 . S
C1393 H1372 0.950 . S
C1393 C1392 1.373 . S
C1393 C1409 1.377 . S
C1394 C1392 1.389 . S
C1394 C1395 1.524 . S
C1394 C1408 1.377 . S
C1395 C1394 1.524 . S
C1395 C1396 1.397 . S
C1395 C1400 1.363 . S
C1396 H1373 0.950 . S
C1396 C1395 1.397 . S
C1396 C1397 1.334 . S
C1397 H1374 0.950 . S
C1397 C1396 1.334 . S
C1397 C1398 1.287 . S
C1398 C1397 1.287 . S
C1398 C1399 1.524 . S
C1398 H1417 0.913 . S
C1399 H1375 0.950 . S
C1399 C1398 1.524 . S
C1399 C1400 1.415 . S
C1400 H1376 0.950 . S
C1400 C1395 1.363 . S
C1400 C1399 1.415 . S
C1401 H1377 0.951 . S
C1401 C1402 1.366 . S
C1401 C1403 1.388 . S
C1402 C1401 1.366 . S
C1402 C1406 1.385 . S
C1403 H1378 0.951 . S
C1403 C1401 1.388 . S
C1403 C1404 1.366 . S
C1404 C1403 1.366 . S
C1404 C1405 1.414 . S
C1404 C1407 1.499 . S
C1405 H1379 0.950 . S
C1405 C1404 1.414 . S
C1405 C1406 1.374 . S
C1406 H1380 0.950 . S
C1406 C1402 1.385 . S
C1406 C1405 1.374 . S
C1407 C1404 1.499 . S
C1407 C1408 1.373 . S
C1407 C1409 1.389 . S
C1408 H1381 0.950 . S
C1408 C1394 1.377 . S
C1408 C1407 1.373 . S
C1409 C1393 1.377 . S
C1409 C1407 1.389 . S
C1409 C1410 1.524 . S
C1410 C1409 1.524 . S
C1410 C1411 1.397 . S
C1410 C1415 1.363 . S
C1411 H1382 0.950 . S
C1411 C1410 1.397 . S
C1411 C1412 1.334 . S
C1412 H1383 0.950 . S
C1412 C1411 1.334 . S
C1412 C1413 1.287 . S
C1413 C1412 1.287 . S
C1413 C1414 1.524 . S
C1413 H1416 0.999 . S
C1414 H1384 0.950 . S
C1414 C1413 1.524 . S
C1414 C1415 1.415 . S
C1415 H1385 0.950 . S
C1415 C1410 1.363 . S
C1415 C1414 1.415 . S
H1416 C1413 0.999 . S
H1417 C1398 0.913 . S
H1418 C1436 0.951 . S
H1419 C1438 0.951 . S
H1420 C1440 0.950 . S
H1421 C1441 0.950 . S
H1422 C1443 0.950 . S
H1423 C1446 0.950 . S
H1424 C1447 0.950 . S
H1425 C1449 0.950 . S
H1426 C1450 0.950 . S
H1427 C1451 0.951 . S
H1428 C1453 0.951 . S
H1429 C1455 0.950 . S
H1430 C1456 0.950 . S
H1431 C1458 0.950 . S
H1432 C1461 0.950 . S
H1433 C1462 0.950 . S
H1434 C1464 0.950 . S
H1435 C1465 0.950 . S
C1436 H1418 0.951 . S
C1436 C1437 1.366 . S
C1436 C1438 1.388 . S
C1437 C1436 1.366 . S
C1437 C1441 1.385 . S
C1438 H1419 0.951 . S
C1438 C1436 1.388 . S
C1438 C1439 1.366 . S
C1439 C1438 1.366 . S
C1439 C1440 1.414 . S
C1439 C1442 1.499 . S
C1440 H1420 0.950 . S
C1440 C1439 1.414 . S
C1440 C1441 1.374 . S
C1441 H1421 0.950 . S
C1441 C1437 1.385 . S
C1441 C1440 1.374 . S
C1442 C1439 1.499 . S
C1442 C1443 1.373 . S
C1442 C1444 1.389 . S
C1443 H1422 0.950 . S
C1443 C1442 1.373 . S
C1443 C1459 1.377 . S
C1444 C1442 1.389 . S
C1444 C1445 1.524 . S
C1444 C1458 1.377 . S
C1445 C1444 1.524 . S
C1445 C1446 1.397 . S
C1445 C1450 1.363 . S
C1446 H1423 0.950 . S
C1446 C1445 1.397 . S
C1446 C1447 1.334 . S
C1447 H1424 0.950 . S
C1447 C1446 1.334 . S
C1447 C1448 1.287 . S
C1448 C1447 1.287 . S
C1448 C1449 1.524 . S
C1448 H1467 0.913 . S
C1449 H1425 0.950 . S
C1449 C1448 1.524 . S
C1449 C1450 1.415 . S
C1450 H1426 0.950 . S
C1450 C1445 1.363 . S
C1450 C1449 1.415 . S
C1451 H1427 0.951 . S
C1451 C1452 1.366 . S
C1451 C1453 1.388 . S
C1452 C1451 1.366 . S
C1452 C1456 1.385 . S
C1453 H1428 0.951 . S
C1453 C1451 1.388 . S
C1453 C1454 1.366 . S
C1454 C1453 1.366 . S
C1454 C1455 1.414 . S
C1454 C1457 1.499 . S
C1455 H1429 0.950 . S
C1455 C1454 1.414 . S
C1455 C1456 1.374 . S
C1456 H1430 0.950 . S
C1456 C1452 1.385 . S
C1456 C1455 1.374 . S
C1457 C1454 1.499 . S
C1457 C1458 1.373 . S
C1457 C1459 1.389 . S
C1458 H1431 0.950 . S
C1458 C1444 1.377 . S
C1458 C1457 1.373 . S
C1459 C1443 1.377 . S
C1459 C1457 1.389 . S
C1459 C1460 1.524 . S
C1460 C1459 1.524 . S
C1460 C1461 1.397 . S
C1460 C1465 1.363 . S
C1461 H1432 0.950 . S
C1461 C1460 1.397 . S
C1461 C1462 1.334 . S
C1462 H1433 0.950 . S
C1462 C1461 1.334 . S
C1462 C1463 1.287 . S
C1463 C1462 1.287 . S
C1463 C1464 1.524 . S
C1463 H1466 0.999 . S
C1464 H1434 0.950 . S
C1464 C1463 1.524 . S
C1464 C1465 1.415 . S
C1465 H1435 0.950 . S
C1465 C1460 1.363 . S
C1465 C1464 1.415 . S
H1466 C1463 0.999 . S
H1467 C1448 0.913 . S
H1468 C1486 0.951 . S
H1469 C1488 0.951 . S
H1470 C1490 0.950 . S
H1471 C1491 0.950 . S
H1472 C1493 0.950 . S
H1473 C1496 0.950 . S
H1474 C1497 0.950 . S
H1475 C1499 0.950 . S
H1476 C1500 0.950 . S
H1477 C1501 0.951 . S
H1478 C1503 0.951 . S
H1479 C1505 0.950 . S
H1480 C1506 0.950 . S
H1481 C1508 0.950 . S
H1482 C1511 0.950 . S
H1483 C1512 0.950 . S
H1484 C1514 0.950 . S
H1485 C1515 0.950 . S
C1486 H1468 0.951 . S
C1486 C1487 1.366 . S
C1486 C1488 1.388 . S
C1487 C1486 1.366 . S
C1487 C1491 1.385 . S
C1488 H1469 0.951 . S
C1488 C1486 1.388 . S
C1488 C1489 1.366 . S
C1489 C1488 1.366 . S
C1489 C1490 1.414 . S
C1489 C1492 1.499 . S
C1490 H1470 0.950 . S
C1490 C1489 1.414 . S
C1490 C1491 1.374 . S
C1491 H1471 0.950 . S
C1491 C1487 1.385 . S
C1491 C1490 1.374 . S
C1492 C1489 1.499 . S
C1492 C1493 1.373 . S
C1492 C1494 1.389 . S
C1493 H1472 0.950 . S
C1493 C1492 1.373 . S
C1493 C1509 1.377 . S
C1494 C1492 1.389 . S
C1494 C1495 1.524 . S
C1494 C1508 1.377 . S
C1495 C1494 1.524 . S
C1495 C1496 1.397 . S
C1495 C1500 1.363 . S
C1496 H1473 0.950 . S
C1496 C1495 1.397 . S
C1496 C1497 1.334 . S
C1497 H1474 0.950 . S
C1497 C1496 1.334 . S
C1497 C1498 1.287 . S
C1498 C1497 1.287 . S
C1498 C1499 1.524 . S
C1498 H1517 0.913 . S
C1499 H1475 0.950 . S
C1499 C1498 1.524 . S
C1499 C1500 1.415 . S
C1500 H1476 0.950 . S
C1500 C1495 1.363 . S
C1500 C1499 1.415 . S
C1501 H1477 0.951 . S
C1501 C1502 1.366 . S
C1501 C1503 1.388 . S
C1502 C1501 1.366 . S
C1502 C1506 1.385 . S
C1503 H1478 0.951 . S
C1503 C1501 1.388 . S
C1503 C1504 1.366 . S
C1504 C1503 1.366 . S
C1504 C1505 1.414 . S
C1504 C1507 1.499 . S
C1505 H1479 0.950 . S
C1505 C1504 1.414 . S
C1505 C1506 1.374 . S
C1506 H1480 0.950 . S
C1506 C1502 1.385 . S
C1506 C1505 1.374 . S
C1507 C1504 1.499 . S
C1507 C1508 1.373 . S
C1507 C1509 1.389 . S
C1508 H1481 0.950 . S
C1508 C1494 1.377 . S
C1508 C1507 1.373 . S
C1509 C1493 1.377 . S
C1509 C1507 1.389 . S
C1509 C1510 1.524 . S
C1510 C1509 1.524 . S
C1510 C1511 1.397 . S
C1510 C1515 1.363 . S
C1511 H1482 0.950 . S
C1511 C1510 1.397 . S
C1511 C1512 1.334 . S
C1512 H1483 0.950 . S
C1512 C1511 1.334 . S
C1512 C1513 1.287 . S
C1513 C1512 1.287 . S
C1513 C1514 1.524 . S
C1513 H1516 0.999 . S
C1514 H1484 0.950 . S
C1514 C1513 1.524 . S
C1514 C1515 1.415 . S
C1515 H1485 0.950 . S
C1515 C1510 1.363 . S
C1515 C1514 1.415 . S
H1516 C1513 0.999 . S
H1517 C1498 0.913 . S
H1518 C1536 0.951 . S
H1519 C1538 0.951 . S
H1520 C1540 0.950 . S
H1521 C1541 0.950 . S
H1522 C1543 0.950 . S
H1523 C1546 0.950 . S
H1524 C1547 0.950 . S
H1525 C1549 0.950 . S
H1526 C1550 0.950 . S
H1527 C1551 0.951 . S
H1528 C1553 0.951 . S
H1529 C1555 0.950 . S
H1530 C1556 0.950 . S
H1531 C1558 0.950 . S
H1532 C1561 0.950 . S
H1533 C1562 0.950 . S
H1534 C1564 0.950 . S
H1535 C1565 0.950 . S
C1536 H1518 0.951 . S
C1536 C1537 1.366 . S
C1536 C1538 1.388 . S
C1537 C1536 1.366 . S
C1537 C1541 1.385 . S
C1538 H1519 0.951 . S
C1538 C1536 1.388 . S
C1538 C1539 1.366 . S
C1539 C1538 1.366 . S
C1539 C1540 1.414 . S
C1539 C1542 1.499 . S
C1540 H1520 0.950 . S
C1540 C1539 1.414 . S
C1540 C1541 1.374 . S
C1541 H1521 0.950 . S
C1541 C1537 1.385 . S
C1541 C1540 1.374 . S
C1542 C1539 1.499 . S
C1542 C1543 1.373 . S
C1542 C1544 1.389 . S
C1543 H1522 0.950 . S
C1543 C1542 1.373 . S
C1543 C1559 1.377 . S
C1544 C1542 1.389 . S
C1544 C1545 1.524 . S
C1544 C1558 1.377 . S
C1545 C1544 1.524 . S
C1545 C1546 1.397 . S
C1545 C1550 1.363 . S
C1546 H1523 0.950 . S
C1546 C1545 1.397 . S
C1546 C1547 1.334 . S
C1547 H1524 0.950 . S
C1547 C1546 1.334 . S
C1547 C1548 1.287 . S
C1548 C1547 1.287 . S
C1548 C1549 1.524 . S
C1548 H1567 0.913 . S
C1549 H1525 0.950 . S
C1549 C1548 1.524 . S
C1549 C1550 1.415 . S
C1550 H1526 0.950 . S
C1550 C1545 1.363 . S
C1550 C1549 1.415 . S
C1551 H1527 0.951 . S
C1551 C1552 1.366 . S
C1551 C1553 1.388 . S
C1552 C1551 1.366 . S
C1552 C1556 1.385 . S
C1553 H1528 0.951 . S
C1553 C1551 1.388 . S
C1553 C1554 1.366 . S
C1554 C1553 1.366 . S
C1554 C1555 1.414 . S
C1554 C1557 1.499 . S
C1555 H1529 0.950 . S
C1555 C1554 1.414 . S
C1555 C1556 1.374 . S
C1556 H1530 0.950 . S
C1556 C1552 1.385 . S
C1556 C1555 1.374 . S
C1557 C1554 1.499 . S
C1557 C1558 1.373 . S
C1557 C1559 1.389 . S
C1558 H1531 0.950 . S
C1558 C1544 1.377 . S
C1558 C1557 1.373 . S
C1559 C1543 1.377 . S
C1559 C1557 1.389 . S
C1559 C1560 1.524 . S
C1560 C1559 1.524 . S
C1560 C1561 1.397 . S
C1560 C1565 1.363 . S
C1561 H1532 0.950 . S
C1561 C1560 1.397 . S
C1561 C1562 1.334 . S
C1562 H1533 0.950 . S
C1562 C1561 1.334 . S
C1562 C1563 1.287 . S
C1563 C1562 1.287 . S
C1563 C1564 1.524 . S
C1563 H1566 0.999 . S
C1564 H1534 0.950 . S
C1564 C1563 1.524 . S
C1564 C1565 1.415 . S
C1565 H1535 0.950 . S
C1565 C1560 1.363 . S
C1565 C1564 1.415 . S
H1566 C1563 0.999 . S
H1567 C1548 0.913 . S
H1568 C1586 0.951 . S
H1569 C1588 0.951 . S
H1570 C1590 0.950 . S
H1571 C1591 0.950 . S
H1572 C1593 0.950 1_455 S
H1573 C1596 0.950 . S
H1574 C1597 0.950 . S
H1575 C1599 0.950 . S
H1576 C1600 0.950 . S
H1577 C1601 0.951 . S
H1578 C1603 0.951 . S
H1579 C1605 0.950 1_554 S
H1580 C1606 0.950 . S
H1581 C1608 0.950 . S
H1582 C1611 0.950 . S
H1583 C1612 0.950 1_554 S
H1584 C1614 0.950 . S
H1585 C1615 0.950 . S
C1586 H1568 0.951 . S
C1586 C1587 1.366 . S
C1586 C1588 1.388 . S
C1587 C1586 1.366 . S
C1587 C1591 1.385 . S
C1588 H1569 0.951 . S
C1588 C1586 1.388 . S
C1588 C1589 1.366 . S
C1589 C1588 1.366 . S
C1589 C1590 1.414 . S
C1589 C1592 1.499 . S
C1590 H1570 0.950 . S
C1590 C1589 1.414 . S
C1590 C1591 1.374 . S
C1591 H1571 0.950 . S
C1591 C1587 1.385 . S
C1591 C1590 1.374 . S
C1592 C1589 1.499 . S
C1592 C1593 1.373 1_455 S
C1592 C1594 1.389 . S
C1593 H1572 0.950 1_655 S
C1593 C1592 1.373 1_655 S
C1593 C1609 1.377 . S
C1594 C1592 1.389 . S
C1594 C1595 1.524 . S
C1594 C1608 1.377 1_455 S
C1595 C1594 1.524 . S
C1595 C1596 1.397 . S
C1595 C1600 1.363 . S
C1596 H1573 0.950 . S
C1596 C1595 1.397 . S
C1596 C1597 1.334 . S
C1597 H1574 0.950 . S
C1597 C1596 1.334 . S
C1597 C1598 1.287 . S
C1598 C1597 1.287 . S
C1598 C1599 1.524 . S
C1598 H1617 0.913 . S
C1599 H1575 0.950 . S
C1599 C1598 1.524 . S
C1599 C1600 1.415 . S
C1600 H1576 0.950 . S
C1600 C1595 1.363 . S
C1600 C1599 1.415 . S
C1601 H1577 0.951 . S
C1601 C1602 1.366 . S
C1601 C1603 1.388 . S
C1602 C1601 1.366 . S
C1602 C1606 1.385 . S
C1603 H1578 0.951 . S
C1603 C1601 1.388 . S
C1603 C1604 1.366 . S
C1604 C1603 1.366 . S
C1604 C1605 1.414 . S
C1604 C1607 1.499 . S
C1605 H1579 0.950 1_556 S
C1605 C1604 1.414 . S
C1605 C1606 1.374 . S
C1606 H1580 0.950 . S
C1606 C1602 1.385 . S
C1606 C1605 1.374 . S
C1607 C1604 1.499 . S
C1607 C1608 1.373 1_556 S
C1607 C1609 1.389 1_556 S
C1608 H1581 0.950 . S
C1608 C1594 1.377 1_655 S
C1608 C1607 1.373 1_554 S
C1609 C1593 1.377 . S
C1609 C1607 1.389 1_554 S
C1609 C1610 1.524 1_554 S
C1610 C1609 1.524 1_556 S
C1610 C1611 1.397 1_556 S
C1610 C1615 1.363 . S
C1611 H1582 0.950 . S
C1611 C1610 1.397 1_554 S
C1611 C1612 1.334 1_554 S
C1612 H1583 0.950 1_556 S
C1612 C1611 1.334 1_556 S
C1612 C1613 1.287 . S
C1613 C1612 1.287 . S
C1613 C1614 1.524 . S
C1613 H1616 0.999 . S
C1614 H1584 0.950 . S
C1614 C1613 1.524 . S
C1614 C1615 1.415 . S
C1615 H1585 0.950 . S
C1615 C1610 1.363 . S
C1615 C1614 1.415 . S
H1616 C1613 0.999 . S
H1617 C1598 0.913 . S
H1618 C1636 0.951 . S
H1619 C1638 0.951 . S
H1620 C1640 0.950 . S
H1621 C1641 0.950 . S
H1622 C1643 0.950 . S
H1623 C1646 0.950 . S
H1624 C1647 0.950 . S
H1625 C1649 0.950 . S
H1626 C1650 0.950 . S
H1627 C1651 0.951 . S
H1628 C1653 0.951 1_556 S
H1629 C1655 0.943 1_455 S
H1630 C1656 0.950 . S
H1631 C1658 0.967 1_565 S
H1632 C1661 0.950 1_554 S
H1633 C1662 0.950 . S
H1634 C1664 0.950 . S
H1635 C1665 0.950 . S
C1636 H1618 0.951 . S
C1636 C1637 1.366 . S
C1636 C1638 1.388 . S
C1637 C1636 1.366 . S
C1637 C1641 1.385 . S
C1638 H1619 0.951 . S
C1638 C1636 1.388 . S
C1638 C1639 1.366 . S
C1639 C1638 1.366 . S
C1639 C1640 1.414 . S
C1639 C1642 1.499 . S
C1640 H1620 0.950 . S
C1640 C1639 1.414 . S
C1640 C1641 1.374 . S
C1641 H1621 0.950 . S
C1641 C1637 1.385 . S
C1641 C1640 1.374 . S
C1642 C1639 1.499 . S
C1642 C1643 1.373 1_565 S
C1642 C1644 1.389 . S
C1643 H1622 0.950 . S
C1643 C1642 1.373 1_545 S
C1643 C1659 1.377 . S
C1644 C1642 1.389 . S
C1644 C1645 1.524 1_455 S
C1644 C1658 1.368 1_466 S
C1645 C1644 1.524 1_655 S
C1645 C1646 1.397 . S
C1645 C1650 1.363 1_656 S
C1646 H1623 0.950 . S
C1646 C1645 1.397 . S
C1646 C1647 1.334 . S
C1647 H1624 0.950 . S
C1647 C1646 1.334 . S
C1647 C1648 1.287 . S
C1648 C1647 1.287 . S
C1648 C1649 1.524 1_556 S
C1648 H1667 0.913 . S
C1649 H1625 0.950 . S
C1649 C1648 1.524 1_554 S
C1649 C1650 1.415 1_655 S
C1650 H1626 0.950 . S
C1650 C1645 1.363 1_454 S
C1650 C1649 1.415 1_455 S
C1651 H1627 0.951 . S
C1651 C1652 1.366 . S
C1651 C1653 1.388 . S
C1652 C1651 1.366 . S
C1652 C1656 1.385 . S
C1653 H1628 0.951 1_554 S
C1653 C1651 1.388 . S
C1653 C1654 1.366 . S
C1654 C1653 1.366 . S
C1654 C1655 1.416 . S
C1654 C1657 1.499 1_654 S
C1655 H1629 0.943 1_655 S
C1655 C1654 1.416 . S
C1655 C1656 1.379 . S
C1656 H1630 0.950 . S
C1656 C1652 1.385 . S
C1656 C1655 1.379 . S
C1657 C1654 1.499 1_456 S
C1657 C1658 1.366 1_456 S
C1657 C1659 1.389 . S
C1658 H1631 0.967 1_545 S
C1658 C1644 1.368 1_644 S
C1658 C1657 1.366 1_654 S
C1659 C1643 1.377 . S
C1659 C1657 1.389 . S
C1659 C1660 1.524 . S
C1660 C1659 1.524 . S
C1660 C1661 1.397 . S
C1660 C1665 1.363 . S
C1661 H1632 0.950 1_556 S
C1661 C1660 1.397 . S
C1661 C1662 1.334 . S
C1662 H1633 0.950 . S
C1662 C1661 1.334 . S
C1662 C1663 1.287 . S
C1663 C1662 1.287 . S
C1663 C1664 1.524 . S
C1663 H1666 0.999 . S
C1664 H1634 0.950 . S
C1664 C1663 1.524 . S
C1664 C1665 1.415 . S
C1665 H1635 0.950 . S
C1665 C1660 1.363 . S
C1665 C1664 1.415 . S
H1666 C1663 0.999 . S
H1667 C1648 0.913 . S
H1668 C1686 0.951 . S
H1669 C1688 0.951 1_545 S
H1670 C1690 0.950 . S
H1671 C1691 0.950 . S
H1672 C1693 0.951 . S
H1673 C1696 0.950 . S
H1674 C1697 0.950 . S
H1675 C1699 0.950 . S
H1676 C1700 0.950 . S
H1677 C1701 0.951 . S
H1678 C1703 0.951 . S
H1679 C1705 0.950 . S
H1680 C1706 0.950 . S
H1681 C1708 0.950 . S
H1682 C1711 0.950 . S
H1683 C1712 0.950 . S
H1684 C1714 0.950 1_565 S
H1685 C1715 0.921 1_565 S
C1686 H1668 0.951 . S
C1686 C1687 1.366 . S
C1686 C1688 1.388 . S
C1687 C1686 1.366 . S
C1687 C1691 1.385 . S
C1688 H1669 0.951 1_565 S
C1688 C1686 1.388 . S
C1688 C1689 1.366 . S
C1689 C1688 1.366 . S
C1689 C1690 1.414 . S
C1689 C1692 1.499 . S
C1690 H1670 0.950 . S
C1690 C1689 1.414 . S
C1690 C1691 1.374 . S
C1691 H1671 0.950 . S
C1691 C1687 1.385 . S
C1691 C1690 1.374 . S
C1692 C1689 1.499 . S
C1692 C1693 1.374 . S
C1692 C1694 1.384 1_564 S
C1693 H1672 0.951 . S
C1693 C1692 1.374 . S
C1693 C1709 1.376 1_565 S
C1694 C1692 1.384 1_546 S
C1694 C1695 1.519 1_545 S
C1694 C1708 1.387 . S
C1695 C1694 1.519 1_565 S
C1695 C1696 1.397 . S
C1695 C1700 1.363 1_565 S
C1696 H1673 0.950 . S
C1696 C1695 1.397 . S
C1696 C1697 1.334 . S
C1697 H1674 0.950 . S
C1697 C1696 1.334 . S
C1697 C1698 1.287 . S
C1698 C1697 1.287 . S
C1698 C1699 1.524 1_565 S
C1698 H1717 0.913 . S
C1699 H1675 0.950 . S
C1699 C1698 1.524 1_545 S
C1699 C1700 1.415 . S
C1700 H1676 0.950 . S
C1700 C1695 1.363 1_545 S
C1700 C1699 1.415 . S
C1701 H1677 0.951 . S
C1701 C1702 1.366 . S
C1701 C1703 1.388 . S
C1702 C1701 1.366 . S
C1702 C1706 1.385 . S
C1703 H1678 0.951 . S
C1703 C1701 1.388 . S
C1703 C1704 1.366 . S
C1704 C1703 1.366 . S
C1704 C1705 1.414 . S
C1704 C1707 1.499 . S
C1705 H1679 0.950 . S
C1705 C1704 1.414 . S
C1705 C1706 1.374 . S
C1706 H1680 0.950 . S
C1706 C1702 1.385 . S
C1706 C1705 1.374 . S
C1707 C1704 1.499 . S
C1707 C1708 1.373 . S
C1707 C1709 1.389 1_556 S
C1708 H1681 0.950 . S
C1708 C1694 1.387 . S
C1708 C1707 1.373 . S
C1709 C1693 1.376 1_545 S
C1709 C1707 1.389 1_554 S
C1709 C1710 1.524 . S
C1710 C1709 1.524 . S
C1710 C1711 1.397 . S
C1710 C1715 1.384 . S
C1711 H1682 0.950 . S
C1711 C1710 1.397 . S
C1711 C1712 1.334 . S
C1712 H1683 0.950 . S
C1712 C1711 1.334 . S
C1712 C1713 1.287 . S
C1713 C1712 1.287 . S
C1713 C1714 1.524 . S
C1713 H1716 0.999 . S
C1714 H1684 0.950 1_545 S
C1714 C1713 1.524 . S
C1714 C1715 1.423 . S
C1715 H1685 0.921 1_545 S
C1715 C1710 1.384 . S
C1715 C1714 1.423 . S
H1716 C1713 0.999 . S
H1717 C1698 0.913 . S
H1718 C1736 0.951 . S
H1719 C1738 0.951 . S
H1720 C1740 0.950 . S
H1721 C1741 0.950 . S
H1722 C1743 0.950 . S
H1723 C1746 0.950 . S
H1724 C1747 0.950 . S
H1725 C1749 0.950 . S
H1726 C1750 0.950 . S
H1727 C1751 0.951 . S
H1728 C1753 0.951 . S
H1729 C1755 0.950 . S
H1730 C1756 0.950 . S
H1731 C1758 0.950 . S
H1732 C1761 0.950 . S
H1733 C1762 0.950 . S
H1734 C1764 0.950 . S
H1735 C1765 0.950 . S
C1736 H1718 0.951 . S
C1736 C1737 1.366 . S
C1736 C1738 1.388 . S
C1737 C1736 1.366 . S
C1737 C1741 1.385 . S
C1738 H1719 0.951 . S
C1738 C1736 1.388 . S
C1738 C1739 1.366 . S
C1739 C1738 1.366 . S
C1739 C1740 1.414 . S
C1739 C1742 1.499 . S
C1740 H1720 0.950 . S
C1740 C1739 1.414 . S
C1740 C1741 1.374 . S
C1741 H1721 0.950 . S
C1741 C1737 1.385 . S
C1741 C1740 1.374 . S
C1742 C1739 1.499 . S
C1742 C1743 1.373 . S
C1742 C1744 1.389 . S
C1743 H1722 0.950 . S
C1743 C1742 1.373 . S
C1743 C1759 1.377 . S
C1744 C1742 1.389 . S
C1744 C1745 1.524 . S
C1744 C1758 1.377 1_556 S
C1745 C1744 1.524 . S
C1745 C1746 1.397 . S
C1745 C1750 1.363 1_556 S
C1746 H1723 0.950 . S
C1746 C1745 1.397 . S
C1746 C1747 1.334 1_556 S
C1747 H1724 0.950 . S
C1747 C1746 1.334 1_554 S
C1747 C1748 1.287 . S
C1748 C1747 1.287 . S
C1748 C1749 1.524 . S
C1748 H1767 0.913 . S
C1749 H1725 0.950 . S
C1749 C1748 1.524 . S
C1749 C1750 1.415 . S
C1750 H1726 0.950 . S
C1750 C1745 1.363 1_554 S
C1750 C1749 1.415 . S
C1751 H1727 0.951 . S
C1751 C1752 1.366 . S
C1751 C1753 1.388 . S
C1752 C1751 1.366 . S
C1752 C1756 1.385 . S
C1753 H1728 0.951 . S
C1753 C1751 1.388 . S
C1753 C1754 1.366 . S
C1754 C1753 1.366 . S
C1754 C1755 1.414 . S
C1754 C1757 1.499 1_554 S
C1755 H1729 0.950 . S
C1755 C1754 1.414 . S
C1755 C1756 1.374 . S
C1756 H1730 0.950 . S
C1756 C1752 1.385 . S
C1756 C1755 1.374 . S
C1757 C1754 1.499 1_556 S
C1757 C1758 1.373 1_556 S
C1757 C1759 1.389 . S
C1758 H1731 0.950 . S
C1758 C1744 1.377 1_554 S
C1758 C1757 1.373 1_554 S
C1759 C1743 1.377 . S
C1759 C1757 1.389 . S
C1759 C1760 1.524 . S
C1760 C1759 1.524 . S
C1760 C1761 1.397 . S
C1760 C1765 1.363 . S
C1761 H1732 0.950 . S
C1761 C1760 1.397 . S
C1761 C1762 1.334 . S
C1762 H1733 0.950 . S
C1762 C1761 1.334 . S
C1762 C1763 1.287 . S
C1763 C1762 1.287 . S
C1763 C1764 1.524 . S
C1763 H1766 0.999 . S
C1764 H1734 0.950 . S
C1764 C1763 1.524 . S
C1764 C1765 1.415 . S
C1765 H1735 0.950 . S
C1765 C1760 1.363 . S
C1765 C1764 1.415 . S
H1766 C1763 0.999 . S
H1767 C1748 0.913 . S
H1768 C1786 0.951 . S
H1769 C1788 0.951 . S
H1770 C1790 0.950 1_545 S
H1771 C1791 0.950 . S
H1772 C1793 0.950 . S
H1773 C1796 0.950 1_455 S
H1774 C1797 0.950 1_455 S
H1775 C1799 0.950 . S
H1776 C1800 0.950 . S
H1777 C1801 0.951 . S
H1778 C1803 0.951 . S
H1779 C1805 0.950 1_565 S
H1780 C1806 0.950 . S
H1781 C1808 0.950 . S
H1782 C1811 0.950 1_565 S
H1783 C1812 0.950 1_665 S
H1784 C1814 0.950 . S
H1785 C1815 0.950 . S
C1786 H1768 0.951 . S
C1786 C1787 1.366 . S
C1786 C1788 1.388 . S
C1787 C1786 1.366 . S
C1787 C1791 1.385 . S
C1788 H1769 0.951 . S
C1788 C1786 1.388 . S
C1788 C1789 1.366 . S
C1789 C1788 1.366 . S
C1789 C1790 1.414 . S
C1789 C1792 1.499 . S
C1790 H1770 0.950 1_565 S
C1790 C1789 1.414 . S
C1790 C1791 1.374 . S
C1791 H1771 0.950 . S
C1791 C1787 1.385 . S
C1791 C1790 1.374 . S
C1792 C1789 1.499 . S
C1792 C1793 1.373 1_565 S
C1792 C1794 1.392 1_455 S
C1793 H1772 0.950 . S
C1793 C1792 1.373 1_545 S
C1793 C1809 1.377 . S
C1794 C1792 1.392 1_655 S
C1794 C1795 1.529 . S
C1794 C1808 1.368 1_565 S
C1795 C1794 1.529 . S
C1795 C1796 1.397 1_565 S
C1795 C1800 1.363 . S
C1796 H1773 0.950 1_655 S
C1796 C1795 1.397 1_545 S
C1796 C1797 1.334 . S
C1797 H1774 0.950 1_655 S
C1797 C1796 1.334 . S
C1797 C1798 1.287 1_545 S
C1798 C1797 1.287 1_565 S
C1798 C1799 1.524 . S
C1798 H1817 0.913 . S
C1799 H1775 0.950 . S
C1799 C1798 1.524 . S
C1799 C1800 1.415 . S
C1800 H1776 0.950 . S
C1800 C1795 1.363 . S
C1800 C1799 1.415 . S
C1801 H1777 0.951 . S
C1801 C1802 1.366 . S
C1801 C1803 1.388 . S
C1802 C1801 1.366 . S
C1802 C1806 1.385 . S
C1803 H1778 0.951 . S
C1803 C1801 1.388 . S
C1803 C1804 1.366 . S
C1804 C1803 1.366 . S
C1804 C1805 1.414 . S
C1804 C1807 1.499 . S
C1805 H1779 0.950 1_545 S
C1805 C1804 1.414 . S
C1805 C1806 1.374 . S
C1806 H1780 0.950 . S
C1806 C1802 1.385 . S
C1806 C1805 1.374 . S
C1807 C1804 1.499 . S
C1807 C1808 1.373 . S
C1807 C1809 1.389 1_655 S
C1808 H1781 0.950 . S
C1808 C1794 1.368 1_545 S
C1808 C1807 1.373 . S
C1809 C1793 1.377 . S
C1809 C1807 1.389 1_455 S
C1809 C1810 1.524 . S
C1810 C1809 1.524 . S
C1810 C1811 1.397 1_455 S
C1810 C1815 1.363 . S
C1811 H1782 0.950 1_545 S
C1811 C1810 1.397 1_655 S
C1811 C1812 1.334 1_655 S
C1812 H1783 0.950 1_445 S
C1812 C1811 1.334 1_455 S
C1812 C1813 1.287 . S
C1813 C1812 1.287 . S
C1813 C1814 1.524 . S
C1813 H1816 0.999 . S
C1814 H1784 0.950 . S
C1814 C1813 1.524 . S
C1814 C1815 1.415 . S
C1815 H1785 0.950 . S
C1815 C1810 1.363 . S
C1815 C1814 1.415 . S
H1816 C1813 0.999 . S
H1817 C1798 0.913 . S
H1818 C1836 0.951 . S
H1819 C1838 0.951 . S
H1820 C1840 0.950 . S
H1821 C1841 0.950 . S
H1822 C1843 0.950 . S
H1823 C1846 0.950 . S
H1824 C1847 0.950 . S
H1825 C1849 0.950 . S
H1826 C1850 0.950 . S
H1827 C1851 0.951 . S
H1828 C1853 0.951 . S
H1829 C1855 0.950 . S
H1830 C1856 0.950 . S
H1831 C1858 0.950 . S
H1832 C1861 0.950 . S
H1833 C1862 0.950 . S
H1834 C1864 0.950 . S
H1835 C1865 0.950 . S
C1836 H1818 0.951 . S
C1836 C1837 1.366 . S
C1836 C1838 1.388 . S
C1837 C1836 1.366 . S
C1837 C1841 1.385 . S
C1838 H1819 0.951 . S
C1838 C1836 1.388 . S
C1838 C1839 1.366 . S
C1839 C1838 1.366 . S
C1839 C1840 1.414 . S
C1839 C1842 1.499 . S
C1840 H1820 0.950 . S
C1840 C1839 1.414 . S
C1840 C1841 1.374 . S
C1841 H1821 0.950 . S
C1841 C1837 1.385 . S
C1841 C1840 1.374 . S
C1842 C1839 1.499 . S
C1842 C1843 1.373 . S
C1842 C1844 1.389 . S
C1843 H1822 0.950 . S
C1843 C1842 1.373 . S
C1843 C1859 1.377 1_545 S
C1844 C1842 1.389 . S
C1844 C1845 1.524 . S
C1844 C1858 1.377 . S
C1845 C1844 1.524 . S
C1845 C1846 1.397 . S
C1845 C1850 1.363 . S
C1846 H1823 0.950 . S
C1846 C1845 1.397 . S
C1846 C1847 1.334 . S
C1847 H1824 0.950 . S
C1847 C1846 1.334 . S
C1847 C1848 1.287 . S
C1848 C1847 1.287 . S
C1848 C1849 1.524 . S
C1848 H1867 0.913 . S
C1849 H1825 0.950 . S
C1849 C1848 1.524 . S
C1849 C1850 1.415 . S
C1850 H1826 0.950 . S
C1850 C1845 1.363 . S
C1850 C1849 1.415 . S
C1851 H1827 0.951 . S
C1851 C1852 1.366 . S
C1851 C1853 1.388 . S
C1852 C1851 1.366 . S
C1852 C1856 1.385 . S
C1853 H1828 0.951 . S
C1853 C1851 1.388 . S
C1853 C1854 1.366 . S
C1854 C1853 1.366 . S
C1854 C1855 1.414 . S
C1854 C1857 1.499 . S
C1855 H1829 0.950 . S
C1855 C1854 1.414 . S
C1855 C1856 1.374 . S
C1856 H1830 0.950 . S
C1856 C1852 1.385 . S
C1856 C1855 1.374 . S
C1857 C1854 1.499 . S
C1857 C1858 1.373 1_565 S
C1857 C1859 1.389 . S
C1858 H1831 0.950 . S
C1858 C1844 1.377 . S
C1858 C1857 1.373 1_545 S
C1859 C1843 1.377 1_565 S
C1859 C1857 1.389 . S
C1859 C1860 1.524 . S
C1860 C1859 1.524 . S
C1860 C1861 1.397 . S
C1860 C1865 1.363 . S
C1861 H1832 0.950 . S
C1861 C1860 1.397 . S
C1861 C1862 1.334 . S
C1862 H1833 0.950 . S
C1862 C1861 1.334 . S
C1862 C1863 1.287 . S
C1863 C1862 1.287 . S
C1863 C1864 1.524 . S
C1863 H1866 0.999 . S
C1864 H1834 0.950 . S
C1864 C1863 1.524 . S
C1864 C1865 1.415 . S
C1865 H1835 0.950 . S
C1865 C1860 1.363 . S
C1865 C1864 1.415 . S
H1866 C1863 0.999 . S
H1867 C1848 0.913 . S
H1868 C1886 0.951 . S
H1869 C1888 0.951 . S
H1870 C1890 0.950 . S
H1871 C1891 0.950 . S
H1872 C1893 0.950 . S
H1873 C1896 0.950 . S
H1874 C1897 0.950 . S
H1875 C1899 0.950 . S
H1876 C1900 0.950 . S
H1877 C1901 0.951 . S
H1878 C1903 0.951 . S
H1879 C1905 0.950 . S
H1880 C1906 0.950 . S
H1881 C1908 0.950 . S
H1882 C1911 0.950 . S
H1883 C1912 0.950 . S
H1884 C1914 0.950 . S
H1885 C1915 0.950 . S
C1886 H1868 0.951 . S
C1886 C1887 1.366 . S
C1886 C1888 1.388 . S
C1887 C1886 1.366 . S
C1887 C1891 1.385 . S
C1888 H1869 0.951 . S
C1888 C1886 1.388 . S
C1888 C1889 1.366 . S
C1889 C1888 1.366 . S
C1889 C1890 1.414 . S
C1889 C1892 1.499 . S
C1890 H1870 0.950 . S
C1890 C1889 1.414 . S
C1890 C1891 1.374 . S
C1891 H1871 0.950 . S
C1891 C1887 1.385 . S
C1891 C1890 1.374 . S
C1892 C1889 1.499 . S
C1892 C1893 1.373 . S
C1892 C1894 1.389 . S
C1893 H1872 0.950 . S
C1893 C1892 1.373 . S
C1893 C1909 1.377 . S
C1894 C1892 1.389 . S
C1894 C1895 1.524 . S
C1894 C1908 1.377 . S
C1895 C1894 1.524 . S
C1895 C1896 1.397 . S
C1895 C1900 1.363 . S
C1896 H1873 0.950 . S
C1896 C1895 1.397 . S
C1896 C1897 1.334 . S
C1897 H1874 0.950 . S
C1897 C1896 1.334 . S
C1897 C1898 1.287 . S
C1898 C1897 1.287 . S
C1898 C1899 1.524 . S
C1898 H1917 0.913 . S
C1899 H1875 0.950 . S
C1899 C1898 1.524 . S
C1899 C1900 1.415 . S
C1900 H1876 0.950 . S
C1900 C1895 1.363 . S
C1900 C1899 1.415 . S
C1901 H1877 0.951 . S
C1901 C1902 1.366 . S
C1901 C1903 1.388 . S
C1902 C1901 1.366 . S
C1902 C1906 1.385 . S
C1903 H1878 0.951 . S
C1903 C1901 1.388 . S
C1903 C1904 1.366 . S
C1904 C1903 1.366 . S
C1904 C1905 1.414 . S
C1904 C1907 1.499 . S
C1905 H1879 0.950 . S
C1905 C1904 1.414 . S
C1905 C1906 1.374 . S
C1906 H1880 0.950 . S
C1906 C1902 1.385 . S
C1906 C1905 1.374 . S
C1907 C1904 1.499 . S
C1907 C1908 1.373 . S
C1907 C1909 1.389 . S
C1908 H1881 0.950 . S
C1908 C1894 1.377 . S
C1908 C1907 1.373 . S
C1909 C1893 1.377 . S
C1909 C1907 1.389 . S
C1909 C1910 1.524 . S
C1910 C1909 1.524 . S
C1910 C1911 1.397 . S
C1910 C1915 1.363 . S
C1911 H1882 0.950 . S
C1911 C1910 1.397 . S
C1911 C1912 1.334 . S
C1912 H1883 0.950 . S
C1912 C1911 1.334 . S
C1912 C1913 1.287 . S
C1913 C1912 1.287 . S
C1913 C1914 1.524 . S
C1913 H1916 0.999 . S
C1914 H1884 0.950 . S
C1914 C1913 1.524 . S
C1914 C1915 1.415 . S
C1915 H1885 0.950 . S
C1915 C1910 1.363 . S
C1915 C1914 1.415 . S
H1916 C1913 0.999 . S
H1917 C1898 0.913 . S
H1918 C1936 0.951 . S
H1919 C1938 0.951 . S
H1920 C1940 0.950 1_455 S
H1921 C1941 0.950 . S
H1922 C1943 0.950 . S
H1923 C1946 0.950 . S
H1924 C1947 0.950 . S
H1925 C1949 0.950 . S
H1926 C1950 0.950 . S
H1927 C1951 0.951 . S
H1928 C1953 0.951 . S
H1929 C1955 0.950 . S
H1930 C1956 0.950 . S
H1931 C1958 0.950 . S
H1932 C1961 0.950 . S
H1933 C1962 0.950 . S
H1934 C1964 0.950 . S
H1935 C1965 0.950 . S
C1936 H1918 0.951 . S
C1936 C1937 1.366 . S
C1936 C1938 1.388 . S
C1937 C1936 1.366 . S
C1937 C1941 1.385 . S
C1938 H1919 0.951 . S
C1938 C1936 1.388 . S
C1938 C1939 1.366 . S
C1939 C1938 1.366 . S
C1939 C1940 1.414 . S
C1939 C1942 1.499 1_655 S
C1940 H1920 0.950 1_655 S
C1940 C1939 1.414 . S
C1940 C1941 1.374 . S
C1941 H1921 0.950 . S
C1941 C1937 1.385 . S
C1941 C1940 1.374 . S
C1942 C1939 1.499 1_455 S
C1942 C1943 1.373 . S
C1942 C1944 1.389 1_455 S
C1943 H1922 0.950 . S
C1943 C1942 1.373 . S
C1943 C1959 1.377 . S
C1944 C1942 1.389 1_655 S
C1944 C1945 1.524 . S
C1944 C1958 1.377 . S
C1945 C1944 1.524 . S
C1945 C1946 1.397 . S
C1945 C1950 1.363 . S
C1946 H1923 0.950 . S
C1946 C1945 1.397 . S
C1946 C1947 1.334 . S
C1947 H1924 0.950 . S
C1947 C1946 1.334 . S
C1947 C1948 1.287 . S
C1948 C1947 1.287 . S
C1948 C1949 1.524 . S
C1948 H1967 0.913 . S
C1949 H1925 0.950 . S
C1949 C1948 1.524 . S
C1949 C1950 1.415 . S
C1950 H1926 0.950 . S
C1950 C1945 1.363 . S
C1950 C1949 1.415 . S
C1951 H1927 0.951 . S
C1951 C1952 1.366 . S
C1951 C1953 1.388 . S
C1952 C1951 1.366 . S
C1952 C1956 1.385 . S
C1953 H1928 0.951 . S
C1953 C1951 1.388 . S
C1953 C1954 1.366 . S
C1954 C1953 1.366 . S
C1954 C1955 1.414 . S
C1954 C1957 1.499 . S
C1955 H1929 0.950 . S
C1955 C1954 1.414 . S
C1955 C1956 1.374 . S
C1956 H1930 0.950 . S
C1956 C1952 1.385 . S
C1956 C1955 1.374 . S
C1957 C1954 1.499 . S
C1957 C1958 1.373 1_455 S
C1957 C1959 1.389 . S
C1958 H1931 0.950 . S
C1958 C1944 1.377 . S
C1958 C1957 1.373 1_655 S
C1959 C1943 1.377 . S
C1959 C1957 1.389 . S
C1959 C1960 1.524 . S
C1960 C1959 1.524 . S
C1960 C1961 1.397 . S
C1960 C1965 1.363 . S
C1961 H1932 0.950 . S
C1961 C1960 1.397 . S
C1961 C1962 1.334 . S
C1962 H1933 0.950 . S
C1962 C1961 1.334 . S
C1962 C1963 1.287 . S
C1963 C1962 1.287 . S
C1963 C1964 1.524 . S
C1963 H1966 0.999 . S
C1964 H1934 0.950 . S
C1964 C1963 1.524 . S
C1964 C1965 1.415 . S
C1965 H1935 0.950 . S
C1965 C1960 1.363 . S
C1965 C1964 1.415 . S
H1966 C1963 0.999 . S
H1967 C1948 0.913 . S
C387 C16 1.690 . S
C402 C62 1.691 . S
C437 C39 1.961 . S
C452 C85 1.961 . S
C487 C108 1.691 . S
C502 C154 1.690 . S
C537 C177 1.961 . S
C552 C131 1.961 . S
C587 C200 1.110 . S
C602 C246 1.111 . S
C637 N265 1.224 . S
C652 N219 1.224 . S
C687 C338 1.110 . S
C702 C292 1.110 . S
C737 N357 1.224 . S
C752 N311 1.224 . S
C787 C168 2.196 . S
C802 C7 2.207 . S
C837 C30 2.196 . S
C852 C99 2.207 . S
C887 C122 2.195 . S
C902 C53 2.207 . S
C937 C76 2.195 . S
C952 C145 2.207 . S
C987 N347 1.435 . S
C1002 C191 1.533 . S
C1037 N209 1.435 . S
C1052 C283 1.534 . S
C1087 C237 1.533 . S
C1102 N301 1.435 . S
C1137 C329 1.533 . S
C1152 N255 1.435 . S
C1187 N2 0.676 . S
C1202 N94 0.677 . S
C1237 N25 0.638 . S
C1252 N117 0.641 . S
C1287 N140 0.676 . S
C1302 N48 0.675 . S
C1337 N71 0.641 . S
C1352 N163 0.638 . S
C1387 N278 0.821 . S
C1402 N186 0.819 . S
C1437 C306 0.973 . S
C1452 C214 0.972 . S
C1487 N232 0.820 . S
C1502 N324 0.820 . S
C1537 C260 0.973 . S
C1552 C352 0.972 . S
C1587 N12 2.209 . S
C1602 N196 2.216 . S
C1637 C223 1.999 . S
C1652 N35 2.076 . S
C1687 N58 2.209 . S
C1702 N242 2.217 . S
C1737 C269 2.000 . S
C1752 N81 2.076 . S
C1787 N104 2.209 . S
C1802 N288 2.216 . S
C1837 N127 2.076 . S
C1852 C315 1.999 . S
C1887 N334 2.216 . S
C1902 N150 2.209 . S
C1937 N173 2.076 . S
C1952 C361 2.000 . S
