# Generated by pormake.
# Topology uns, (4)-cn, num edge types: 1
# Building blocks:
#     Node 0, Type 0, BuildingBlock: MUDLON_clean_sbu_0, # of connection points: 4
#     Node 1, Type 0, BuildingBlock: MUDLON_clean_sbu_0, # of connection points: 4
#     Node 2, Type 0, BuildingBlock: MUDLON_clean_sbu_0, # of connection points: 4
#     Node 3, Type 0, BuildingBlock: MUDLON_clean_sbu_0, # of connection points: 4
#     Node 4, Type 0, BuildingBlock: MUDLON_clean_sbu_0, # of connection points: 4
#     Node 5, Type 0, BuildingBlock: MUDLON_clean_sbu_0, # of connection points: 4
#     Node 6, Type 0, BuildingBlock: MUDLON_clean_sbu_0, # of connection points: 4
#     Node 7, Type 0, BuildingBlock: MUDLON_clean_sbu_0, # of connection points: 4
#     Node 8, Type 0, BuildingBlock: MUDLON_clean_sbu_0, # of connection points: 4
#     Node 9, Type 0, BuildingBlock: MUDLON_clean_sbu_0, # of connection points: 4
#     Node 10, Type 0, BuildingBlock: MUDLON_clean_sbu_0, # of connection points: 4
#     Node 11, Type 0, BuildingBlock: MUDLON_clean_sbu_0, # of connection points: 4
#     Node 12, Type 0, BuildingBlock: MUDLON_clean_sbu_0, # of connection points: 4
#     Node 13, Type 0, BuildingBlock: MUDLON_clean_sbu_0, # of connection points: 4
#     Node 14, Type 0, BuildingBlock: MUDLON_clean_sbu_0, # of connection points: 4
#     Node 15, Type 0, BuildingBlock: MUDLON_clean_sbu_0, # of connection points: 4
#     Node 16, Type 0, BuildingBlock: MUDLON_clean_sbu_0, # of connection points: 4
#     Node 17, Type 0, BuildingBlock: MUDLON_clean_sbu_0, # of connection points: 4
#     Node 18, Type 0, BuildingBlock: MUDLON_clean_sbu_0, # of connection points: 4
#     Node 19, Type 0, BuildingBlock: MUDLON_clean_sbu_0, # of connection points: 4
#     Node 20, Type 0, BuildingBlock: MUDLON_clean_sbu_0, # of connection points: 4
#     Node 21, Type 0, BuildingBlock: MUDLON_clean_sbu_0, # of connection points: 4
#     Node 22, Type 0, BuildingBlock: MUDLON_clean_sbu_0, # of connection points: 4
#     Node 23, Type 0, BuildingBlock: MUDLON_clean_sbu_0, # of connection points: 4
#     Node 24, Type 0, BuildingBlock: MUDLON_clean_sbu_0, # of connection points: 4
#     Node 25, Type 0, BuildingBlock: MUDLON_clean_sbu_0, # of connection points: 4
#     Node 26, Type 0, BuildingBlock: MUDLON_clean_sbu_0, # of connection points: 4
#     Node 27, Type 0, BuildingBlock: MUDLON_clean_sbu_0, # of connection points: 4
#     Node 28, Type 0, BuildingBlock: MUDLON_clean_sbu_0, # of connection points: 4
#     Node 29, Type 0, BuildingBlock: MUDLON_clean_sbu_0, # of connection points: 4
#     Node 30, Type 0, BuildingBlock: MUDLON_clean_sbu_0, # of connection points: 4
#     Node 31, Type 0, BuildingBlock: MUDLON_clean_sbu_0, # of connection points: 4
#     Node 32, Type 0, BuildingBlock: MUDLON_clean_sbu_0, # of connection points: 4
#     Node 33, Type 0, BuildingBlock: MUDLON_clean_sbu_0, # of connection points: 4
#     Node 34, Type 0, BuildingBlock: MUDLON_clean_sbu_0, # of connection points: 4
#     Node 35, Type 0, BuildingBlock: MUDLON_clean_sbu_0, # of connection points: 4
#     Edge 36, Type (0, 0), BuildingBlock: XUDNAN_clean_linker_2, # of connection points: 2
#     Edge 37, Type (0, 0), BuildingBlock: XUDNAN_clean_linker_2, # of connection points: 2
#     Edge 38, Type (0, 0), BuildingBlock: XUDNAN_clean_linker_2, # of connection points: 2
#     Edge 39, Type (0, 0), BuildingBlock: XUDNAN_clean_linker_2, # of connection points: 2
#     Edge 40, Type (0, 0), BuildingBlock: XUDNAN_clean_linker_2, # of connection points: 2
#     Edge 41, Type (0, 0), BuildingBlock: XUDNAN_clean_linker_2, # of connection points: 2
#     Edge 42, Type (0, 0), BuildingBlock: XUDNAN_clean_linker_2, # of connection points: 2
#     Edge 43, Type (0, 0), BuildingBlock: XUDNAN_clean_linker_2, # of connection points: 2
#     Edge 44, Type (0, 0), BuildingBlock: XUDNAN_clean_linker_2, # of connection points: 2
#     Edge 45, Type (0, 0), BuildingBlock: XUDNAN_clean_linker_2, # of connection points: 2
#     Edge 46, Type (0, 0), BuildingBlock: XUDNAN_clean_linker_2, # of connection points: 2
#     Edge 47, Type (0, 0), BuildingBlock: XUDNAN_clean_linker_2, # of connection points: 2
#     Edge 48, Type (0, 0), BuildingBlock: XUDNAN_clean_linker_2, # of connection points: 2
#     Edge 49, Type (0, 0), BuildingBlock: XUDNAN_clean_linker_2, # of connection points: 2
#     Edge 50, Type (0, 0), BuildingBlock: XUDNAN_clean_linker_2, # of connection points: 2
#     Edge 51, Type (0, 0), BuildingBlock: XUDNAN_clean_linker_2, # of connection points: 2
#     Edge 52, Type (0, 0), BuildingBlock: XUDNAN_clean_linker_2, # of connection points: 2
#     Edge 53, Type (0, 0), BuildingBlock: XUDNAN_clean_linker_2, # of connection points: 2
#     Edge 54, Type (0, 0), BuildingBlock: XUDNAN_clean_linker_2, # of connection points: 2
#     Edge 55, Type (0, 0), BuildingBlock: XUDNAN_clean_linker_2, # of connection points: 2
#     Edge 56, Type (0, 0), BuildingBlock: XUDNAN_clean_linker_2, # of connection points: 2
#     Edge 57, Type (0, 0), BuildingBlock: XUDNAN_clean_linker_2, # of connection points: 2
#     Edge 58, Type (0, 0), BuildingBlock: XUDNAN_clean_linker_2, # of connection points: 2
#     Edge 59, Type (0, 0), BuildingBlock: XUDNAN_clean_linker_2, # of connection points: 2
#     Edge 60, Type (0, 0), BuildingBlock: XUDNAN_clean_linker_2, # of connection points: 2
#     Edge 61, Type (0, 0), BuildingBlock: XUDNAN_clean_linker_2, # of connection points: 2
#     Edge 62, Type (0, 0), BuildingBlock: XUDNAN_clean_linker_2, # of connection points: 2
#     Edge 63, Type (0, 0), BuildingBlock: XUDNAN_clean_linker_2, # of connection points: 2
#     Edge 64, Type (0, 0), BuildingBlock: XUDNAN_clean_linker_2, # of connection points: 2
#     Edge 65, Type (0, 0), BuildingBlock: XUDNAN_clean_linker_2, # of connection points: 2
#     Edge 66, Type (0, 0), BuildingBlock: XUDNAN_clean_linker_2, # of connection points: 2
#     Edge 67, Type (0, 0), BuildingBlock: XUDNAN_clean_linker_2, # of connection points: 2
#     Edge 68, Type (0, 0), BuildingBlock: XUDNAN_clean_linker_2, # of connection points: 2
#     Edge 69, Type (0, 0), BuildingBlock: XUDNAN_clean_linker_2, # of connection points: 2
#     Edge 70, Type (0, 0), BuildingBlock: XUDNAN_clean_linker_2, # of connection points: 2
#     Edge 71, Type (0, 0), BuildingBlock: XUDNAN_clean_linker_2, # of connection points: 2
#     Edge 72, Type (0, 0), BuildingBlock: XUDNAN_clean_linker_2, # of connection points: 2
#     Edge 73, Type (0, 0), BuildingBlock: XUDNAN_clean_linker_2, # of connection points: 2
#     Edge 74, Type (0, 0), BuildingBlock: XUDNAN_clean_linker_2, # of connection points: 2
#     Edge 75, Type (0, 0), BuildingBlock: XUDNAN_clean_linker_2, # of connection points: 2
#     Edge 76, Type (0, 0), BuildingBlock: XUDNAN_clean_linker_2, # of connection points: 2
#     Edge 77, Type (0, 0), BuildingBlock: XUDNAN_clean_linker_2, # of connection points: 2
#     Edge 78, Type (0, 0), BuildingBlock: XUDNAN_clean_linker_2, # of connection points: 2
#     Edge 79, Type (0, 0), BuildingBlock: XUDNAN_clean_linker_2, # of connection points: 2
#     Edge 80, Type (0, 0), BuildingBlock: XUDNAN_clean_linker_2, # of connection points: 2
#     Edge 81, Type (0, 0), BuildingBlock: XUDNAN_clean_linker_2, # of connection points: 2
#     Edge 82, Type (0, 0), BuildingBlock: XUDNAN_clean_linker_2, # of connection points: 2
#     Edge 83, Type (0, 0), BuildingBlock: XUDNAN_clean_linker_2, # of connection points: 2
#     Edge 84, Type (0, 0), BuildingBlock: XUDNAN_clean_linker_2, # of connection points: 2
#     Edge 85, Type (0, 0), BuildingBlock: XUDNAN_clean_linker_2, # of connection points: 2
#     Edge 86, Type (0, 0), BuildingBlock: XUDNAN_clean_linker_2, # of connection points: 2
#     Edge 87, Type (0, 0), BuildingBlock: XUDNAN_clean_linker_2, # of connection points: 2
#     Edge 88, Type (0, 0), BuildingBlock: XUDNAN_clean_linker_2, # of connection points: 2
#     Edge 89, Type (0, 0), BuildingBlock: XUDNAN_clean_linker_2, # of connection points: 2
#     Edge 90, Type (0, 0), BuildingBlock: XUDNAN_clean_linker_2, # of connection points: 2
#     Edge 91, Type (0, 0), BuildingBlock: XUDNAN_clean_linker_2, # of connection points: 2
#     Edge 92, Type (0, 0), BuildingBlock: XUDNAN_clean_linker_2, # of connection points: 2
#     Edge 93, Type (0, 0), BuildingBlock: XUDNAN_clean_linker_2, # of connection points: 2
#     Edge 94, Type (0, 0), BuildingBlock: XUDNAN_clean_linker_2, # of connection points: 2
#     Edge 95, Type (0, 0), BuildingBlock: XUDNAN_clean_linker_2, # of connection points: 2
#     Edge 96, Type (0, 0), BuildingBlock: XUDNAN_clean_linker_2, # of connection points: 2
#     Edge 97, Type (0, 0), BuildingBlock: XUDNAN_clean_linker_2, # of connection points: 2
#     Edge 98, Type (0, 0), BuildingBlock: XUDNAN_clean_linker_2, # of connection points: 2
#     Edge 99, Type (0, 0), BuildingBlock: XUDNAN_clean_linker_2, # of connection points: 2
#     Edge 100, Type (0, 0), BuildingBlock: XUDNAN_clean_linker_2, # of connection points: 2
#     Edge 101, Type (0, 0), BuildingBlock: XUDNAN_clean_linker_2, # of connection points: 2
#     Edge 102, Type (0, 0), BuildingBlock: XUDNAN_clean_linker_2, # of connection points: 2
#     Edge 103, Type (0, 0), BuildingBlock: XUDNAN_clean_linker_2, # of connection points: 2
#     Edge 104, Type (0, 0), BuildingBlock: XUDNAN_clean_linker_2, # of connection points: 2
#     Edge 105, Type (0, 0), BuildingBlock: XUDNAN_clean_linker_2, # of connection points: 2
#     Edge 106, Type (0, 0), BuildingBlock: XUDNAN_clean_linker_2, # of connection points: 2
#     Edge 107, Type (0, 0), BuildingBlock: XUDNAN_clean_linker_2, # of connection points: 2
# Relax obj value: 0.027
# Max RMSD: 0.173
# Mean RMSD: 0.173
data_MOF--net-uns--node1-MUDLON_clean_sbu_0--edge1-XUDNAN_clean_linker_2
_symmetry_space_group_name_H-M    P1
_symmetry_Int_Tables_number       1
_symmetry_cell_setting            triclinic
loop_
_symmetry_equiv_pos_as_xyz
'x, y, z'
_cell_length_a     59.014043
_cell_length_b     58.904909
_cell_length_c     57.717934
_cell_angle_alpha  90.074131
_cell_angle_beta   90.025239
_cell_angle_gamma 120.04827
loop_
_atom_site_label
_atom_site_type_symbol
_atom_site_fract_x
_atom_site_fract_y
_atom_site_fract_z
_atom_type_partial_charge
Mg0 Mg 0.27078 0.18879 0.06695 0.0
C1 C 0.31005 0.24114 0.0808 0.0
O2 O 0.29232 0.23242 0.09728 0.0
C3 C 0.24566 0.14632 0.03008 0.0
O4 O 0.2277 0.15318 0.03169 0.0
C5 C 0.29012 0.16825 0.10429 0.0
O6 O 0.29872 0.16226 0.08559 0.0
O7 O 0.27504 0.17773 0.10196 0.0
O8 O 0.30672 0.2262 0.0636 0.0
O9 O 0.24006 0.19873 0.06174 0.0
C10 C 0.24171 0.20993 0.04245 0.0
O11 O 0.26058 0.21369 0.02812 0.0
O12 O 0.26626 0.15827 0.04245 0.0
Mg13 Mg 0.82879 0.09896 0.06857 0.0
C14 C 0.82189 0.05316 0.04146 0.0
O15 O 0.82292 0.06938 0.02534 0.0
C16 C 0.84044 0.13469 0.10858 0.0
O17 O 0.8304 0.14382 0.09341 0.0
C18 C 0.87765 0.12984 0.04142 0.0
O19 O 0.88484 0.11878 0.05735 0.0
O20 O 0.85425 0.12557 0.04172 0.0
O21 O 0.82499 0.06064 0.0625 0.0
O22 O 0.78861 0.09098 0.06937 0.0
C23 C 0.77568 0.07378 0.0847 0.0
O24 O 0.78771 0.06389 0.09656 0.0
O25 O 0.84351 0.11554 0.10272 0.0
Mg26 Mg 0.93347 0.74661 0.06827 0.0
C27 C 0.9851 0.77855 0.04829 0.0
O28 O 0.97163 0.75926 0.03366 0.0
C29 C 0.88864 0.71791 0.09791 0.0
O30 O 0.88114 0.70879 0.07681 0.0
C31 C 0.91946 0.77318 0.03041 0.0
O32 O 0.94386 0.79135 0.03418 0.0
O33 O 0.90987 0.75174 0.04165 0.0
O34 O 0.97376 0.77968 0.06668 0.0
O35 O 0.93891 0.71294 0.0643 0.0
C36 C 0.95635 0.7152 0.07859 0.0
O37 O 0.96716 0.73578 0.09231 0.0
O38 O 0.91179 0.73707 0.10076 0.0
Mg39 Mg 0.20374 0.28183 0.45059 0.0
C40 C 0.2033 0.23384 0.46752 0.0
O41 O 0.191 0.23855 0.48414 0.0
C42 C 0.19449 0.31554 0.42044 0.0
O43 O 0.19874 0.32605 0.44122 0.0
C44 C 0.14951 0.25973 0.46787 0.0
O45 O 0.14618 0.25187 0.44618 0.0
O46 O 0.17275 0.27396 0.4754 0.0
O47 O 0.21002 0.24822 0.44951 0.0
O48 O 0.24164 0.31576 0.45837 0.0
C49 C 0.26028 0.31297 0.46605 0.0
O50 O 0.25524 0.28967 0.47297 0.0
O51 O 0.19415 0.29387 0.41806 0.0
Mg52 Mg 0.73819 0.93021 0.44021 0.0
C53 C 0.7836 0.97621 0.46072 0.0
O54 O 0.77288 0.96001 0.47818 0.0
C55 C 0.70513 0.88555 0.41182 0.0
O56 O 0.69421 0.88139 0.43238 0.0
C57 C 0.75429 0.89548 0.46223 0.0
O58 O 0.76305 0.89824 0.44089 0.0
O59 O 0.74133 0.90659 0.46787 0.0
O60 O 0.77401 0.9685 0.44055 0.0
O61 O 0.7073 0.93996 0.44252 0.0
C62 C 0.70931 0.95468 0.42557 0.0
O63 O 0.72874 0.96155 0.41094 0.0
O64 O 0.72705 0.90641 0.40879 0.0
Mg65 Mg 0.09103 0.82442 0.4542 0.0
C66 C 0.07315 0.77087 0.44149 0.0
O67 O 0.06131 0.77943 0.42772 0.0
C68 C 0.10887 0.86442 0.49367 0.0
O69 O 0.08346 0.85377 0.49624 0.0
C70 C 0.1311 0.84771 0.41666 0.0
O71 O 0.14601 0.85683 0.43515 0.0
O72 O 0.10635 0.83516 0.41918 0.0
O73 O 0.08847 0.78634 0.45702 0.0
O74 O 0.05088 0.81637 0.45891 0.0
C75 C 0.03917 0.80226 0.47645 0.0
O76 O 0.05187 0.79416 0.48965 0.0
O77 O 0.1176 0.85535 0.47819 0.0
Mg78 Mg 0.75503 0.83133 0.94733 0.0
C79 C 0.78749 0.8088 0.96456 0.0
O80 O 0.76534 0.79418 0.97552 0.0
C81 C 0.73022 0.84427 0.90818 0.0
O82 O 0.71595 0.84425 0.92565 0.0
C83 C 0.77059 0.88503 0.96478 0.0
O84 O 0.77849 0.8899 0.94315 0.0
O85 O 0.75898 0.86138 0.97179 0.0
O86 O 0.78921 0.82655 0.95088 0.0
O87 O 0.72112 0.79264 0.95243 0.0
C88 C 0.71588 0.77762 0.93494 0.0
O89 O 0.73049 0.78688 0.91633 0.0
O90 O 0.74974 0.84123 0.91224 0.0
Mg91 Mg 0.20471 0.92753 0.95162 0.0
C92 C 0.25563 0.93931 0.93341 0.0
O93 O 0.24139 0.93661 0.91502 0.0
C94 C 0.15434 0.89251 0.97361 0.0
O95 O 0.14875 0.89376 0.95178 0.0
C96 C 0.19049 0.88106 0.92375 0.0
O97 O 0.19637 0.87605 0.94438 0.0
O98 O 0.19035 0.90243 0.92088 0.0
O99 O 0.24543 0.93659 0.95341 0.0
O100 O 0.20625 0.96533 0.95087 0.0
C101 C 0.22281 0.98229 0.96486 0.0
O102 O 0.23757 0.97597 0.97717 0.0
O103 O 0.17822 0.90523 0.97995 0.0
Mg104 Mg 0.08896 0.27452 0.94231 0.0
C105 C 0.02892 0.24036 0.94216 0.0
O106 O 0.03102 0.25717 0.92621 0.0
C107 C 0.12729 0.29409 0.90409 0.0
O108 O 0.13988 0.31034 0.92118 0.0
C109 C 0.12828 0.26254 0.9626 0.0
O110 O 0.12566 0.25343 0.94139 0.0
O111 O 0.11548 0.27376 0.96847 0.0
O112 O 0.04966 0.24197 0.95051 0.0
O113 O 0.08539 0.30977 0.94086 0.0
C114 C 0.07816 0.31323 0.92099 0.0
O115 O 0.07504 0.29683 0.90421 0.0
O116 O 0.10472 0.27441 0.90808 0.0
Mg117 Mg 0.82493 0.75431 0.57362 0.0
C118 C 0.81479 0.7901 0.5455 0.0
O119 O 0.81687 0.77487 0.53002 0.0
C120 C 0.83698 0.73104 0.61327 0.0
O121 O 0.82778 0.71242 0.5975 0.0
C122 C 0.87439 0.75888 0.55408 0.0
O123 O 0.87987 0.76178 0.57631 0.0
O124 O 0.85192 0.75438 0.54747 0.0
O125 O 0.81852 0.78709 0.56673 0.0
O126 O 0.7857 0.72043 0.57481 0.0
C127 C 0.77286 0.72325 0.59118 0.0
O128 O 0.78428 0.74512 0.60327 0.0
O129 O 0.83927 0.75313 0.60812 0.0
Mg130 Mg 0.28213 0.09184 0.5629 0.0
C131 C 0.31202 0.069 0.57851 0.0
O132 O 0.29253 0.06221 0.59304 0.0
C133 C 0.25948 0.11918 0.53881 0.0
O134 O 0.24551 0.10958 0.55774 0.0
C135 C 0.31509 0.13698 0.5911 0.0
O136 O 0.32588 0.14137 0.57046 0.0
O137 O 0.29324 0.11602 0.59411 0.0
O138 O 0.31362 0.08291 0.56104 0.0
O139 O 0.24621 0.05363 0.56347 0.0
C140 C 0.24545 0.03782 0.54798 0.0
O141 O 0.26554 0.04581 0.53393 0.0
O142 O 0.27821 0.11477 0.53514 0.0
Mg143 Mg 0.93034 0.19489 0.55902 0.0
C144 C 0.97631 0.1975 0.53664 0.0
O145 O 0.96142 0.19649 0.51928 0.0
C146 C 0.9126 0.19421 0.60889 0.0
O147 O 0.93396 0.21732 0.60963 0.0
C148 C 0.89968 0.14474 0.53574 0.0
O149 O 0.90795 0.13969 0.55515 0.0
O150 O 0.90592 0.16838 0.53156 0.0
O151 O 0.9676 0.19544 0.55717 0.0
O152 O 0.94017 0.23588 0.55691 0.0
C153 C 0.96279 0.25191 0.56486 0.0
O154 O 0.97777 0.24272 0.57199 0.0
O155 O 0.90767 0.18015 0.59079 0.0
Mg156 Mg 0.95275 0.53914 0.39789 0.0
C157 C 1.00718 0.5861 0.40413 0.0
O158 O 1.01024 0.56897 0.41624 0.0
C159 C 0.92844 0.48514 0.37876 0.0
O160 O 0.91542 0.48205 0.39807 0.0
C161 C 0.96995 0.5152 0.43533 0.0
O162 O 0.97362 0.50418 0.41701 0.0
O163 O 0.95937 0.5293 0.43274 0.0
O164 O 0.98634 0.57817 0.39227 0.0
O165 O 0.91955 0.54564 0.39483 0.0
C166 C 0.91072 0.54424 0.37443 0.0
O167 O 0.92067 0.5372 0.3574 0.0
O168 O 0.94673 0.50807 0.37349 0.0
Mg169 Mg 0.49931 0.42839 0.4132 0.0
C170 C 0.49074 0.38215 0.38602 0.0
O171 O 0.49354 0.39918 0.36999 0.0
C172 C 0.51047 0.46383 0.45315 0.0
O173 O 0.50348 0.47472 0.4369 0.0
C174 C 0.55127 0.46628 0.39342 0.0
O175 O 0.55733 0.46199 0.41423 0.0
O176 O 0.52722 0.45517 0.38769 0.0
O177 O 0.49348 0.38925 0.40715 0.0
O178 O 0.4599 0.4224 0.41245 0.0
C179 C 0.44633 0.40577 0.42798 0.0
O180 O 0.45756 0.39552 0.44051 0.0
O181 O 0.51201 0.4436 0.44805 0.0
Mg182 Mg 0.59915 0.08545 0.39891 0.0
C183 C 0.65873 0.11825 0.40352 0.0
O184 O 0.65471 0.10023 0.41896 0.0
C185 C 0.56077 0.06854 0.43802 0.0
O186 O 0.54513 0.06401 0.42027 0.0
C187 C 0.58085 0.10431 0.35771 0.0
O188 O 0.60493 0.11235 0.3509 0.0
O189 O 0.57284 0.09158 0.37658 0.0
O190 O 0.63911 0.11758 0.39367 0.0
O191 O 0.59945 0.04915 0.39331 0.0
C192 C 0.6181 0.04864 0.38281 0.0
O193 O 0.635 0.06945 0.37119 0.0
O194 O 0.58535 0.07992 0.43455 0.0
Mg195 Mg 0.87615 0.6263 0.78628 0.0
C196 C 0.87587 0.57852 0.80319 0.0
O197 O 0.86548 0.58457 0.82055 0.0
C198 C 0.86587 0.66012 0.75755 0.0
O199 O 0.87142 0.67062 0.77837 0.0
C200 C 0.82282 0.60472 0.80474 0.0
O201 O 0.81911 0.59655 0.78314 0.0
O202 O 0.84618 0.61905 0.81193 0.0
O203 O 0.88145 0.5921 0.78473 0.0
O204 O 0.91454 0.65998 0.79293 0.0
C205 C 0.93325 0.65722 0.80044 0.0
O206 O 0.92819 0.63408 0.80788 0.0
O207 O 0.86518 0.63837 0.75451 0.0
Mg208 Mg 0.41812 0.26882 0.77565 0.0
C209 C 0.45576 0.31644 0.80147 0.0
O210 O 0.44283 0.29954 0.81801 0.0
C211 C 0.39309 0.23216 0.73653 0.0
O212 O 0.37602 0.22118 0.75336 0.0
C213 C 0.43463 0.23216 0.79488 0.0
O214 O 0.44365 0.23557 0.7736 0.0
O215 O 0.42191 0.24337 0.80101 0.0
O216 O 0.45042 0.30886 0.78051 0.0
O217 O 0.38302 0.27176 0.77842 0.0
C218 C 0.38354 0.28863 0.76435 0.0
O219 O 0.4045 0.30199 0.75149 0.0
O220 O 0.41458 0.25308 0.74084 0.0
Mg221 Mg 0.7643 0.15408 0.78249 0.0
C222 C 0.74498 0.09981 0.77084 0.0
O223 O 0.73319 0.10822 0.75684 0.0
C224 C 0.79473 0.20775 0.80184 0.0
O225 O 0.78342 0.2108 0.78344 0.0
C226 C 0.80389 0.17601 0.74437 0.0
O227 O 0.81926 0.18385 0.76263 0.0
O228 O 0.77922 0.16453 0.74733 0.0
O229 O 0.76071 0.11563 0.78596 0.0
O230 O 0.72476 0.14749 0.78735 0.0
C231 C 0.71838 0.1502 0.80779 0.0
O232 O 0.73618 0.15823 0.82422 0.0
O233 O 0.7907 0.18488 0.80645 0.0
Mg234 Mg 0.4131 0.16315 0.28434 0.0
C235 C 0.45292 0.1531 0.30351 0.0
O236 O 0.43478 0.14574 0.31954 0.0
C237 C 0.39409 0.16261 0.23485 0.0
O238 O 0.39499 0.14082 0.23345 0.0
C239 C 0.43051 0.21396 0.30627 0.0
O240 O 0.43986 0.21943 0.28508 0.0
O241 O 0.4166 0.18997 0.31203 0.0
O242 O 0.45006 0.16298 0.28487 0.0
O243 O 0.38229 0.12217 0.28756 0.0
C244 C 0.38803 0.10624 0.2779 0.0
O245 O 0.41131 0.11556 0.26858 0.0
O246 O 0.40258 0.1766 0.25307 0.0
Mg247 Mg 0.868 0.26473 0.28957 0.0
C248 C 0.92664 0.29611 0.29228 0.0
O249 O 0.921 0.31501 0.29168 0.0
C250 C 0.81745 0.23447 0.31492 0.0
O251 O 0.81088 0.24449 0.29762 0.0
C252 C 0.85961 0.22281 0.25854 0.0
O253 O 0.8666 0.21778 0.27864 0.0
O254 O 0.85682 0.24285 0.25703 0.0
O255 O 0.90804 0.27249 0.29353 0.0
O256 O 0.87005 0.30293 0.29062 0.0
C257 C 0.86879 0.31126 0.31069 0.0
O258 O 0.86363 0.29553 0.32849 0.0
O259 O 0.84107 0.23957 0.31641 0.0
Mg260 Mg 0.76121 0.61881 0.28374 0.0
C261 C 0.71602 0.58023 0.31142 0.0
O262 O 0.73362 0.59397 0.32728 0.0
C263 C 0.79933 0.63551 0.24399 0.0
O264 O 0.81563 0.64646 0.2614 0.0
C265 C 0.79493 0.59923 0.30244 0.0
O266 O 0.78575 0.58586 0.28311 0.0
O267 O 0.78836 0.61612 0.30779 0.0
O268 O 0.7223 0.58536 0.29017 0.0
O269 O 0.75525 0.65228 0.28767 0.0
C270 C 0.76681 0.67237 0.2747 0.0
O271 O 0.78612 0.6751 0.26149 0.0
O272 O 0.77499 0.62115 0.24826 0.0
Mg273 Mg 0.49771 0.08281 0.90271 0.0
C274 C 0.48919 0.12055 0.87607 0.0
O275 O 0.49296 0.10687 0.86009 0.0
C276 C 0.51892 0.06352 0.94017 0.0
O277 O 0.52632 0.05603 0.92161 0.0
C278 C 0.55107 0.10285 0.88309 0.0
O279 O 0.55604 0.11626 0.90247 0.0
O280 O 0.5274 0.08621 0.87818 0.0
O281 O 0.491 0.11567 0.89727 0.0
O282 O 0.45937 0.04831 0.89838 0.0
C283 C 0.44427 0.04497 0.91539 0.0
O284 O 0.45329 0.0619 0.93256 0.0
O285 O 0.5081 0.07742 0.93772 0.0
Mg286 Mg 0.95354 0.43032 0.88961 0.0
C287 C 0.98763 0.40693 0.87726 0.0
O288 O 0.9658 0.38869 0.86778 0.0
C289 C 0.93002 0.45981 0.86945 0.0
O290 O 0.9177 0.45118 0.88927 0.0
C291 C 0.98389 0.47375 0.92011 0.0
O292 O 0.99447 0.48043 0.89941 0.0
O293 O 0.96297 0.45169 0.92233 0.0
O294 O 0.98858 0.42753 0.88515 0.0
O295 O 0.92064 0.38997 0.88907 0.0
C296 C 0.90815 0.38182 0.87005 0.0
O297 O 0.91413 0.39856 0.85294 0.0
O298 O 0.94741 0.45401 0.86399 0.0
Mg299 Mg 0.6038 0.53698 0.89861 0.0
C300 C 0.65052 0.54228 0.87556 0.0
O301 O 0.6347 0.53948 0.85838 0.0
C302 C 0.56749 0.52989 0.93679 0.0
O303 O 0.56507 0.54622 0.92295 0.0
C304 C 0.56932 0.48598 0.87731 0.0
O305 O 0.57458 0.4807 0.89807 0.0
O306 O 0.57906 0.50993 0.8715 0.0
O307 O 0.64232 0.54068 0.89621 0.0
O308 O 0.61239 0.57755 0.8981 0.0
C309 C 0.62169 0.58852 0.91757 0.0
O310 O 0.62521 0.57501 0.93384 0.0
O311 O 0.58287 0.5215 0.93117 0.0
Mg312 Mg 0.62238 0.86616 0.73129 0.0
C313 C 0.67675 0.9135 0.73839 0.0
O314 O 0.67942 0.8968 0.7515 0.0
C315 C 0.58976 0.81761 0.70461 0.0
O316 O 0.57323 0.8194 0.7187 0.0
C317 C 0.64221 0.84032 0.76221 0.0
O318 O 0.64654 0.83447 0.74131 0.0
O319 O 0.62978 0.85273 0.76415 0.0
O320 O 0.65627 0.90521 0.72595 0.0
O321 O 0.58996 0.87406 0.73046 0.0
C322 C 0.58535 0.87877 0.71 0.0
O323 O 0.59935 0.87745 0.6929 0.0
O324 O 0.61371 0.83565 0.7052 0.0
Mg325 Mg 0.16666 0.75808 0.73668 0.0
C326 C 0.13451 0.70093 0.72369 0.0
O327 O 0.11702 0.70836 0.72176 0.0
C328 C 0.18361 0.79469 0.77579 0.0
O329 O 0.17826 0.80669 0.75933 0.0
C330 C 0.21841 0.79002 0.71524 0.0
O331 O 0.22307 0.78034 0.73397 0.0
O332 O 0.19493 0.78426 0.71108 0.0
O333 O 0.15777 0.71769 0.72979 0.0
O334 O 0.12924 0.75696 0.73942 0.0
C335 C 0.1174 0.74447 0.75766 0.0
O336 O 0.1289 0.73507 0.77089 0.0
O337 O 0.1825 0.77304 0.771 0.0
Mg338 Mg 0.26709 0.40695 0.73158 0.0
C339 C 0.32541 0.43947 0.74026 0.0
O340 O 0.32098 0.41702 0.74898 0.0
C341 C 0.21896 0.38006 0.75996 0.0
O342 O 0.2102 0.37521 0.73855 0.0
C343 C 0.23798 0.4307 0.71127 0.0
O344 O 0.24274 0.43964 0.73264 0.0
O345 O 0.24596 0.4152 0.70487 0.0
O346 O 0.30603 0.44167 0.73359 0.0
O347 O 0.27528 0.37543 0.72415 0.0
C348 C 0.2625 0.35307 0.73378 0.0
O349 O 0.2411 0.34725 0.74528 0.0
O350 O 0.24344 0.39507 0.76323 0.0
Mg351 Mg 0.53285 0.94706 0.12103 0.0
C352 C 0.53454 0.90171 0.14137 0.0
O353 O 0.52722 0.91087 0.15884 0.0
C354 C 0.53386 0.96645 0.07209 0.0
O355 O 0.55786 0.97051 0.07283 0.0
C356 C 0.48072 0.92494 0.14191 0.0
O357 O 0.4765 0.91385 0.12138 0.0
O358 O 0.50415 0.94159 0.14758 0.0
O359 O 0.53759 0.91247 0.12161 0.0
O360 O 0.57175 0.98137 0.12457 0.0
C361 C 0.59109 0.97852 0.12991 0.0
O362 O 0.58662 0.95538 0.13672 0.0
O363 O 0.51849 0.95482 0.08896 0.0
Mg364 Mg 0.08237 0.59595 0.10987 0.0
C365 C 0.12044 0.64199 0.13704 0.0
O366 O 0.10572 0.6252 0.15302 0.0
C367 C 0.0569 0.56147 0.06935 0.0
O368 O 0.03882 0.5507 0.08543 0.0
C369 C 0.08802 0.55097 0.12855 0.0
O370 O 0.0882 0.54659 0.10625 0.0
O371 O 0.08453 0.5696 0.1352 0.0
O372 O 0.11629 0.63478 0.11593 0.0
O373 O 0.04873 0.60153 0.11282 0.0
C374 C 0.05335 0.6232 0.10399 0.0
O375 O 0.07671 0.63896 0.09548 0.0
O376 O 0.07892 0.58123 0.0747 0.0
Mg377 Mg 0.42406 0.4803 0.11495 0.0
C378 C 0.41336 0.42868 0.09936 0.0
O379 O 0.41128 0.44017 0.08068 0.0
C380 C 0.44164 0.51712 0.15665 0.0
O381 O 0.41641 0.50404 0.16096 0.0
C382 C 0.46405 0.51023 0.07585 0.0
O383 O 0.47733 0.52821 0.09156 0.0
O384 O 0.44148 0.49123 0.08069 0.0
O385 O 0.41864 0.44088 0.11864 0.0
O386 O 0.38508 0.47564 0.11702 0.0
C387 C 0.36905 0.45855 0.13115 0.0
O388 O 0.3768 0.44487 0.14338 0.0
O389 O 0.4504 0.51041 0.13939 0.0
Mg390 Mg 0.08573 0.49539 0.61345 0.0
C391 C 0.12671 0.49014 0.63799 0.0
O392 O 0.11139 0.48978 0.65466 0.0
C393 C 0.06899 0.49738 0.56405 0.0
O394 O 0.06463 0.47322 0.56388 0.0
C395 C 0.10522 0.54156 0.64507 0.0
O396 O 0.1262 0.54753 0.63277 0.0
O397 O 0.08444 0.51976 0.6413 0.0
O398 O 0.12184 0.49386 0.61729 0.0
O399 O 0.05374 0.45476 0.6137 0.0
C400 C 0.05981 0.43809 0.60645 0.0
O401 O 0.0843 0.44626 0.601 0.0
O402 O 0.08004 0.51181 0.58163 0.0
Mg403 Mg 0.53371 0.59493 0.63154 0.0
C404 C 0.59231 0.62001 0.6456 0.0
O405 O 0.58737 0.63352 0.66087 0.0
C406 C 0.48506 0.56685 0.65981 0.0
O407 O 0.47854 0.57886 0.64427 0.0
C408 C 0.52173 0.5508 0.60203 0.0
O409 O 0.52777 0.54554 0.62248 0.0
O410 O 0.52085 0.57185 0.59974 0.0
O411 O 0.57371 0.60264 0.63351 0.0
O412 O 0.53374 0.63216 0.63216 0.0
C413 C 0.55404 0.65436 0.62838 0.0
O414 O 0.57555 0.65526 0.62113 0.0
O415 O 0.50811 0.57018 0.65929 0.0
Mg416 Mg 0.43437 0.95112 0.61969 0.0
C417 C 0.38768 0.90551 0.64096 0.0
O418 O 0.40519 0.91275 0.65758 0.0
C419 C 0.45107 0.96978 0.57045 0.0
O420 O 0.43177 0.97474 0.57219 0.0
C421 C 0.46835 0.93271 0.63922 0.0
O422 O 0.46319 0.92302 0.61811 0.0
O423 O 0.45878 0.94679 0.64579 0.0
O424 O 0.39465 0.9173 0.62156 0.0
O425 O 0.4305 0.98579 0.62254 0.0
C426 C 0.4091 0.9837 0.62945 0.0
O427 O 0.39138 0.96152 0.63878 0.0
O428 O 0.45492 0.95769 0.58686 0.0
Mg429 Mg 0.16361 0.40921 0.2319 0.0
C430 C 0.14149 0.43808 0.20827 0.0
O431 O 0.13171 0.41582 0.19683 0.0
C432 C 0.177 0.38722 0.27178 0.0
O433 O 0.16947 0.36881 0.25591 0.0
C434 C 0.19959 0.42577 0.19022 0.0
O435 O 0.18996 0.44146 0.18788 0.0
O436 O 0.19118 0.40903 0.20657 0.0
O437 O 0.1571 0.44203 0.22503 0.0
O438 O 0.12414 0.37561 0.23309 0.0
C439 C 0.11111 0.3807 0.24767 0.0
O440 O 0.123 0.4034 0.2585 0.0
O441 O 0.1779 0.40864 0.26649 0.0
Mg442 Mg 0.60516 0.74789 0.22922 0.0
C443 C 0.64216 0.73153 0.24229 0.0
O444 O 0.62293 0.7205 0.25734 0.0
C445 C 0.58528 0.7813 0.21038 0.0
O446 O 0.57402 0.77429 0.23079 0.0
C447 C 0.63058 0.78578 0.26771 0.0
O448 O 0.64772 0.7965 0.2509 0.0
O449 O 0.60922 0.76466 0.26362 0.0
O450 O 0.64044 0.74525 0.22612 0.0
O451 O 0.57186 0.70809 0.22643 0.0
C452 C 0.57259 0.69316 0.21083 0.0
O453 O 0.59316 0.70239 0.19722 0.0
O454 O 0.60066 0.77313 0.2042 0.0
Mg455 Mg 0.26418 0.86125 0.23787 0.0
C456 C 0.30998 0.86312 0.21555 0.0
O457 O 0.29415 0.85978 0.19822 0.0
C458 C 0.24538 0.86242 0.28684 0.0
O459 O 0.26568 0.88629 0.28659 0.0
C460 C 0.22983 0.80997 0.21657 0.0
O461 O 0.23426 0.80451 0.23758 0.0
O462 O 0.23979 0.83395 0.21081 0.0
O463 O 0.30198 0.86279 0.2361 0.0
O464 O 0.27272 0.90177 0.23485 0.0
C465 C 0.29575 0.91889 0.24111 0.0
O466 O 0.31225 0.91109 0.24698 0.0
O467 O 0.24166 0.84722 0.26979 0.0
H468 H 0.31574 0.14209 0.11654 0.0
H469 H 0.29181 0.19579 0.14322 0.0
H470 H 0.31677 0.20107 0.17919 0.0
H471 H 0.31232 0.11046 0.17202 0.0
H472 H 0.3403 0.10697 0.16552 0.0
H473 H 0.31971 0.10683 0.1424 0.0
H474 H 0.36031 0.14495 0.12256 0.0
H475 H 0.38095 0.14551 0.1458 0.0
H476 H 0.38029 0.1749 0.1384 0.0
H477 H 0.34722 0.20308 0.21096 0.0
H478 H 0.37593 0.19715 0.23842 0.0
H479 H 0.37853 0.14077 0.19158 0.0
C480 C 0.31543 0.15467 0.13009 0.0
C481 C 0.30179 0.16851 0.12708 0.0
C482 C 0.3019 0.1848 0.14521 0.0
C483 C 0.31619 0.18808 0.16563 0.0
C484 C 0.33 0.17469 0.16776 0.0
C485 C 0.32931 0.15792 0.15067 0.0
C486 C 0.34566 0.14566 0.15729 0.0
C487 C 0.32847 0.11571 0.15944 0.0
C488 C 0.36813 0.15322 0.13998 0.0
C489 C 0.35592 0.15839 0.18069 0.0
C490 C 0.34687 0.17526 0.18632 0.0
C491 C 0.35422 0.18973 0.20682 0.0
C492 C 0.3707 0.18636 0.22224 0.0
C493 C 0.37946 0.16845 0.2172 0.0
C494 C 0.37214 0.15456 0.19598 0.0
H495 H 0.8368 0.17625 0.12574 0.0
H496 H 0.85625 0.11696 0.14569 0.0
H497 H 0.86283 0.13305 0.18606 0.0
H498 H 0.88378 0.22775 0.16342 0.0
H499 H 0.86225 0.24034 0.16995 0.0
H500 H 0.85958 0.2245 0.14255 0.0
H501 H 0.81052 0.19207 0.15057 0.0
H502 H 0.81307 0.20768 0.17806 0.0
H503 H 0.80117 0.17293 0.1768 0.0
H504 H 0.86581 0.1544 0.22427 0.0
H505 H 0.86742 0.18102 0.25772 0.0
H506 H 0.84662 0.22722 0.21321 0.0
C507 C 0.84262 0.16673 0.13855 0.0
C508 C 0.84602 0.1453 0.13252 0.0
C509 C 0.8536 0.13342 0.14985 0.0
C510 C 0.85731 0.14238 0.17284 0.0
C511 C 0.85347 0.1633 0.17821 0.0
C512 C 0.84649 0.17547 0.16156 0.0
C513 C 0.84358 0.19757 0.17197 0.0
C514 C 0.86349 0.22411 0.16134 0.0
C515 C 0.81541 0.19223 0.16918 0.0
C516 C 0.8499 0.19584 0.19715 0.0
C517 C 0.85546 0.17586 0.20031 0.0
C518 C 0.86161 0.17016 0.22199 0.0
C519 C 0.86241 0.18543 0.24092 0.0
C520 C 0.85717 0.20631 0.23817 0.0
C521 C 0.85071 0.21144 0.21592 0.0
H522 H 0.84855 0.67255 0.22954 0.0
H523 H 0.77106 0.61655 0.20387 0.0
H524 H 0.78553 0.63229 0.16401 0.0
H525 H 0.85956 0.72484 0.19172 0.0
H526 H 0.89389 0.73627 0.1876 0.0
H527 H 0.87801 0.71994 0.2141 0.0
H528 H 0.89298 0.68588 0.2078 0.0
H529 H 0.90918 0.70228 0.18143 0.0
H530 H 0.88517 0.66781 0.18095 0.0
H531 H 0.80781 0.65481 0.12728 0.0
H532 H 0.83698 0.68103 0.09554 0.0
H533 H 0.90023 0.72305 0.1448 0.0
C534 C 0.83468 0.66334 0.21553 0.0
C535 C 0.80864 0.64321 0.21986 0.0
C536 C 0.79109 0.63192 0.20101 0.0
C537 C 0.79912 0.64079 0.17831 0.0
C538 C 0.82473 0.66099 0.17473 0.0
C539 C 0.84233 0.67203 0.19277 0.0
C540 C 0.86864 0.69374 0.18419 0.0
C541 C 0.87541 0.72027 0.19505 0.0
C542 C 0.89027 0.68702 0.18887 0.0
C543 C 0.86308 0.69319 0.15849 0.0
C544 C 0.83761 0.67416 0.15347 0.0
C545 C 0.8278 0.66973 0.13099 0.0
C546 C 0.84457 0.6848 0.11307 0.0
C547 C 0.87093 0.70416 0.11764 0.0
C548 C 0.88016 0.70857 0.14075 0.0
H549 H 0.1862 0.30076 0.37426 0.0
H550 H 0.19749 0.36322 0.42131 0.0
H551 H 0.19548 0.38871 0.38847 0.0
H552 H 0.22473 0.34239 0.32735 0.0
H553 H 0.20319 0.3212 0.30497 0.0
H554 H 0.20543 0.30753 0.33219 0.0
H555 H 0.15527 0.28603 0.33769 0.0
H556 H 0.15285 0.29949 0.31042 0.0
H557 H 0.14024 0.30615 0.3364 0.0
H558 H 0.19287 0.40799 0.35058 0.0
H559 H 0.18748 0.41847 0.31022 0.0
H560 H 0.17743 0.34359 0.2877 0.0
C561 C 0.18815 0.31975 0.37765 0.0
C562 C 0.19204 0.32994 0.40042 0.0
C563 C 0.1945 0.3549 0.40408 0.0
C564 C 0.19345 0.36963 0.38551 0.0
C565 C 0.18985 0.35918 0.3633 0.0
C566 C 0.18706 0.33476 0.35926 0.0
C567 C 0.18307 0.32802 0.33368 0.0
C568 C 0.20544 0.32459 0.32398 0.0
C569 C 0.15626 0.30347 0.3293 0.0
C570 C 0.18405 0.35245 0.32406 0.0
C571 C 0.18811 0.37023 0.34143 0.0
C572 C 0.18966 0.39421 0.3368 0.0
C573 C 0.18666 0.40004 0.31382 0.0
C574 C 0.18204 0.38191 0.29577 0.0
C575 C 0.18096 0.35792 0.30107 0.0
H576 H 0.67433 0.83128 0.28148 0.0
H577 H 0.6016 0.76634 0.30736 0.0
H578 H 0.61341 0.7846 0.34693 0.0
H579 H 0.71442 0.83589 0.32992 0.0
H580 H 0.73353 0.8712 0.32946 0.0
H581 H 0.71933 0.85332 0.30305 0.0
H582 H 0.69588 0.88 0.29638 0.0
H583 H 0.71013 0.89808 0.32268 0.0
H584 H 0.67512 0.88102 0.31878 0.0
H585 H 0.63331 0.80924 0.38356 0.0
H586 H 0.65888 0.83963 0.41492 0.0
H587 H 0.71888 0.88917 0.36549 0.0
C588 C 0.6608 0.82092 0.29543 0.0
C589 C 0.63699 0.79733 0.29129 0.0
C590 C 0.61989 0.78443 0.31007 0.0
C591 C 0.62647 0.79462 0.33262 0.0
C592 C 0.65018 0.81775 0.33609 0.0
C593 C 0.66702 0.83085 0.31803 0.0
C594 C 0.69125 0.85544 0.3265 0.0
C595 C 0.7161 0.85385 0.32196 0.0
C596 C 0.6932 0.88009 0.31543 0.0
C597 C 0.6854 0.85411 0.35219 0.0
C598 C 0.66164 0.83214 0.3573 0.0
C599 C 0.65191 0.82654 0.37977 0.0
C600 C 0.66666 0.84397 0.39748 0.0
C601 C 0.69094 0.86687 0.39272 0.0
C602 C 0.70047 0.87184 0.36973 0.0
H603 H 0.18208 0.87941 0.40331 0.0
H604 H 0.10743 0.81571 0.37929 0.0
H605 H 0.12883 0.81181 0.34392 0.0
H606 H 0.20573 0.9088 0.34615 0.0
H607 H 0.23913 0.91795 0.35263 0.0
H608 H 0.21759 0.91615 0.37555 0.0
H609 H 0.22741 0.88381 0.39773 0.0
H610 H 0.24863 0.88515 0.3747 0.0
H611 H 0.22163 0.85401 0.38369 0.0
H612 H 0.15909 0.81254 0.3127 0.0
H613 H 0.19472 0.82187 0.28518 0.0
H614 H 0.2493 0.88647 0.32867 0.0
C615 C 0.17016 0.86489 0.39045 0.0
C616 C 0.14307 0.84787 0.39406 0.0
C617 C 0.12816 0.82912 0.37682 0.0
C618 C 0.14018 0.82661 0.35675 0.0
C619 C 0.16705 0.84324 0.35404 0.0
C620 C 0.18177 0.86237 0.37019 0.0
C621 C 0.21026 0.87794 0.363 0.0
C622 C 0.21867 0.90692 0.3591 0.0
C623 C 0.22802 0.87504 0.38084 0.0
C624 C 0.20935 0.86436 0.34042 0.0
C625 C 0.1843 0.84423 0.33569 0.0
C626 C 0.17873 0.82842 0.31612 0.0
C627 C 0.19917 0.83377 0.30066 0.0
C628 C 0.22482 0.85494 0.30472 0.0
C629 C 0.22991 0.8702 0.32504 0.0
H630 H 0.64053 0.85258 0.80823 0.0
H631 H 0.67558 0.82097 0.7615 0.0
H632 H 0.70262 0.81986 0.79343 0.0
H633 H 0.69793 0.89376 0.84081 0.0
H634 H 0.6815 0.88751 0.86835 0.0
H635 H 0.66405 0.88526 0.84205 0.0
H636 H 0.62863 0.83767 0.85228 0.0
H637 H 0.64577 0.8399 0.87878 0.0
H638 H 0.63835 0.81377 0.85852 0.0
H639 H 0.72789 0.8246 0.82956 0.0
H640 H 0.74604 0.82996 0.869 0.0
H641 H 0.69372 0.85685 0.89301 0.0
C642 C 0.65364 0.84512 0.80479 0.0
C643 C 0.65593 0.83693 0.78228 0.0
C644 C 0.6734 0.82735 0.77854 0.0
C645 C 0.68897 0.82673 0.79656 0.0
C646 C 0.68673 0.83552 0.81835 0.0
C647 C 0.66922 0.84412 0.82269 0.0
C648 C 0.67055 0.85219 0.84784 0.0
C649 C 0.67901 0.88142 0.84987 0.0
C650 C 0.64426 0.83484 0.86008 0.0
C651 C 0.69166 0.84695 0.85684 0.0
C652 C 0.70088 0.83757 0.83946 0.0
C653 C 0.72072 0.83175 0.84338 0.0
C654 C 0.73103 0.83503 0.86581 0.0
C655 C 0.72131 0.8438 0.88411 0.0
C656 C 0.70153 0.85006 0.87941 0.0
H657 H 0.18711 0.88919 0.87703 0.0
H658 H 0.18808 0.83368 0.92588 0.0
H659 H 0.18771 0.80626 0.89348 0.0
H660 H 0.14395 0.84056 0.83487 0.0
H661 H 0.161 0.86089 0.81034 0.0
H662 H 0.16059 0.87579 0.83748 0.0
H663 H 0.21131 0.90224 0.8374 0.0
H664 H 0.21188 0.88716 0.81041 0.0
H665 H 0.22935 0.88506 0.83518 0.0
H666 H 0.18873 0.7854 0.8558 0.0
H667 H 0.1878 0.77112 0.81534 0.0
H668 H 0.18609 0.83998 0.79099 0.0
C669 C 0.1869 0.8711 0.88091 0.0
C670 C 0.18761 0.86362 0.90404 0.0
C671 C 0.18755 0.83989 0.90834 0.0
C672 C 0.18741 0.82416 0.89004 0.0
C673 C 0.18728 0.83235 0.86746 0.0
C674 C 0.18677 0.85511 0.8628 0.0
C675 C 0.18673 0.85941 0.83693 0.0
C676 C 0.16157 0.85914 0.82947 0.0
C677 C 0.21128 0.88499 0.82955 0.0
C678 C 0.18736 0.83557 0.82784 0.0
C679 C 0.18778 0.82026 0.84573 0.0
C680 C 0.18835 0.7972 0.84162 0.0
C681 C 0.18795 0.78931 0.81858 0.0
C682 C 0.18692 0.80441 0.79996 0.0
C683 C 0.18695 0.82799 0.80479 0.0
H684 H 0.17636 0.33217 0.8907 0.0
H685 H 0.10118 0.27276 0.86337 0.0
H686 H 0.11662 0.28859 0.82366 0.0
H687 H 0.18634 0.38302 0.85246 0.0
H688 H 0.22107 0.39605 0.84925 0.0
H689 H 0.20485 0.37923 0.87547 0.0
H690 H 0.22223 0.34695 0.87013 0.0
H691 H 0.23882 0.36391 0.84406 0.0
H692 H 0.2161 0.3291 0.84329 0.0
H693 H 0.13896 0.31294 0.78742 0.0
H694 H 0.16805 0.34104 0.75643 0.0
H695 H 0.22947 0.38414 0.80702 0.0
C696 C 0.16324 0.32221 0.87635 0.0
C697 C 0.13753 0.30117 0.88015 0.0
C698 C 0.12099 0.28876 0.86089 0.0
C699 C 0.12955 0.29772 0.83828 0.0
C700 C 0.15477 0.31893 0.83522 0.0
C701 C 0.17153 0.33077 0.85368 0.0
C702 C 0.1976 0.35335 0.84565 0.0
C703 C 0.20275 0.37945 0.85635 0.0
C704 C 0.22001 0.348 0.85111 0.0
C705 C 0.19277 0.3526 0.8198 0.0
C706 C 0.16788 0.33267 0.81421 0.0
C707 C 0.15857 0.32844 0.79156 0.0
C708 C 0.17527 0.34465 0.77407 0.0
C709 C 0.20114 0.36483 0.77922 0.0
C710 C 0.20986 0.3689 0.80248 0.0
H711 H 0.83703 0.68684 0.62788 0.0
H712 H 0.85127 0.76286 0.65168 0.0
H713 H 0.85999 0.75267 0.6911 0.0
H714 H 0.80413 0.6507 0.67857 0.0
H715 H 0.81843 0.62991 0.67769 0.0
H716 H 0.81382 0.64332 0.65125 0.0
H717 H 0.86314 0.66387 0.64174 0.0
H718 H 0.86789 0.65041 0.66808 0.0
H719 H 0.88718 0.68513 0.66263 0.0
H720 H 0.86582 0.73373 0.72795 0.0
H721 H 0.87043 0.70844 0.75962 0.0
H722 H 0.85299 0.64468 0.71183 0.0
C723 C 0.84209 0.70144 0.64133 0.0
C724 C 0.84345 0.72569 0.63669 0.0
C725 C 0.85017 0.74421 0.6548 0.0
C726 C 0.85509 0.73856 0.67725 0.0
C727 C 0.85332 0.71437 0.68124 0.0
C728 C 0.84715 0.69617 0.66377 0.0
C729 C 0.84654 0.67164 0.67266 0.0
C730 C 0.8191 0.64747 0.66988 0.0
C731 C 0.86744 0.66753 0.66056 0.0
C732 C 0.85323 0.67882 0.69794 0.0
C733 C 0.85697 0.70353 0.70249 0.0
C734 C 0.86304 0.71442 0.72458 0.0
C735 C 0.86555 0.6998 0.74248 0.0
C736 C 0.86211 0.67453 0.73826 0.0
C737 C 0.85578 0.66393 0.71564 0.0
H738 H 0.34909 0.18709 0.72247 0.0
H739 H 0.42132 0.25276 0.69664 0.0
H740 H 0.40852 0.23585 0.65674 0.0
H741 H 0.34718 0.13854 0.68279 0.0
H742 H 0.31208 0.12172 0.67965 0.0
H743 H 0.32708 0.13887 0.70616 0.0
H744 H 0.30363 0.16587 0.70189 0.0
H745 H 0.28871 0.14897 0.67526 0.0
H746 H 0.30793 0.18427 0.67571 0.0
H747 H 0.38753 0.21251 0.61977 0.0
H748 H 0.36112 0.18317 0.58812 0.0
H749 H 0.30236 0.13208 0.63776 0.0
C750 C 0.36232 0.19789 0.70846 0.0
C751 C 0.38626 0.22131 0.71271 0.0
C752 C 0.40295 0.23477 0.69385 0.0
C753 C 0.3958 0.22536 0.67112 0.0
C754 C 0.37194 0.20241 0.66754 0.0
C755 C 0.35553 0.18873 0.68568 0.0
C756 C 0.33102 0.16449 0.67709 0.0
C757 C 0.32925 0.13942 0.68701 0.0
C758 C 0.30637 0.166 0.68283 0.0
C759 C 0.33619 0.16669 0.65124 0.0
C760 C 0.35987 0.18879 0.64616 0.0
C761 C 0.369 0.19513 0.62355 0.0
C762 C 0.35377 0.17829 0.60566 0.0
C763 C 0.32961 0.15524 0.61039 0.0
C764 C 0.32065 0.14956 0.63354 0.0
H765 H 0.9187 0.21565 0.65235 0.0
H766 H 0.86109 0.15559 0.607 0.0
H767 H 0.82668 0.14576 0.63602 0.0
H768 H 0.89167 0.17982 0.70593 0.0
H769 H 0.89927 0.20891 0.72224 0.0
H770 H 0.91926 0.211 0.69785 0.0
H771 H 0.91117 0.24647 0.67952 0.0
H772 H 0.89085 0.24421 0.70369 0.0
H773 H 0.87807 0.23934 0.67461 0.0
H774 H 0.79803 0.14412 0.66915 0.0
H775 H 0.77832 0.14677 0.7061 0.0
H776 H 0.85488 0.20647 0.73054 0.0
C777 C 0.89889 0.20028 0.64859 0.0
C778 C 0.89261 0.18644 0.62735 0.0
C779 C 0.86644 0.1664 0.62317 0.0
C780 C 0.8467 0.16078 0.63949 0.0
C781 C 0.85346 0.17516 0.66003 0.0
C782 C 0.879 0.19418 0.66482 0.0
C783 C 0.88117 0.20633 0.68846 0.0
C784 C 0.89888 0.2012 0.70457 0.0
C785 C 0.89089 0.23584 0.68643 0.0
C786 C 0.85284 0.19126 0.69618 0.0
C787 C 0.83712 0.17361 0.67941 0.0
C788 C 0.81018 0.15777 0.68246 0.0
C789 C 0.79913 0.15954 0.70344 0.0
C790 C 0.81505 0.1768 0.72121 0.0
C791 C 0.8422 0.19305 0.71731 0.0
H792 H 0.98756 0.48211 0.44878 0.0
H793 H 0.98171 0.54917 0.47181 0.0
H794 H 1.00785 0.55293 0.50655 0.0
H795 H 0.9824 0.45422 0.50626 0.0
H796 H 1.0051 0.44312 0.49956 0.0
H797 H 0.98538 0.44551 0.47693 0.0
H798 H 0.02745 0.47556 0.4536 0.0
H799 H 0.04732 0.47363 0.47634 0.0
H800 H 0.05294 0.50516 0.46679 0.0
H801 H 0.03707 0.55104 0.53757 0.0
H802 H 0.06224 0.54017 0.56514 0.0
H803 H 0.04769 0.47342 0.52249 0.0
C804 C 0.9915 0.4974 0.46127 0.0
C805 C 0.98256 0.51534 0.45757 0.0
C806 C 0.98814 0.53506 0.47435 0.0
C807 C 1.00316 0.53748 0.49405 0.0
C808 C 1.01221 0.51986 0.49687 0.0
C809 C 1.00619 0.49991 0.48115 0.0
C810 C 0.01798 0.48331 0.48839 0.0
C811 C 0.99643 0.45486 0.49307 0.0
C812 C 0.03759 0.4845 0.47019 0.0
C813 C 0.03176 0.49717 0.51054 0.0
C814 C 0.02842 0.51836 0.51501 0.0
C815 C 0.03966 0.53437 0.53433 0.0
C816 C 0.05408 0.52814 0.54981 0.0
C817 C 0.05694 0.50592 0.54602 0.0
C818 C 0.04588 0.49052 0.52591 0.0
H819 H 0.51007 0.50763 0.46886 0.0
H820 H 0.51823 0.442 0.49215 0.0
H821 H 0.52085 0.45673 0.53266 0.0
H822 H 0.55489 0.55482 0.51053 0.0
H823 H 0.5357 0.57062 0.51424 0.0
H824 H 0.53481 0.55507 0.4871 0.0
H825 H 0.48433 0.52675 0.49014 0.0
H826 H 0.48508 0.54203 0.51741 0.0
H827 H 0.4699 0.50685 0.51552 0.0
H828 H 0.52128 0.47768 0.57049 0.0
H829 H 0.52253 0.505 0.60325 0.0
H830 H 0.51466 0.5577 0.55562 0.0
C831 C 0.51257 0.49641 0.48244 0.0
C832 C 0.51394 0.47361 0.4773 0.0
C833 C 0.51722 0.45955 0.49563 0.0
C834 C 0.51862 0.46771 0.5187 0.0
C835 C 0.51682 0.49003 0.52315 0.0
C836 C 0.5141 0.50433 0.50555 0.0
C837 C 0.51283 0.52771 0.51507 0.0
C838 C 0.53594 0.55359 0.50621 0.0
C839 C 0.48646 0.5257 0.50918 0.0
C840 C 0.51519 0.52428 0.54082 0.0
C841 C 0.51734 0.50233 0.54504 0.0
C842 C 0.51971 0.49496 0.56739 0.0
C843 C 0.52035 0.51065 0.58591 0.0
C844 C 0.51873 0.53358 0.58207 0.0
C845 C 0.51585 0.54028 0.55917 0.0
H846 H 0.51077 0.05065 0.45361 0.0
H847 H 0.58515 0.05804 0.47339 0.0
H848 H 0.56476 0.03231 0.5088 0.0
H849 H 0.49092 0.05649 0.51235 0.0
H850 H 0.45688 0.03335 0.50692 0.0
H851 H 0.47768 0.05294 0.48356 0.0
H852 H 0.46482 1.0106 0.46016 0.0
H853 H 0.44433 0.99085 0.4836 0.0
H854 H 0.46989 0.98548 0.47273 0.0
H855 H 0.53536 1.00289 0.54055 0.0
H856 H 0.5008 0.97738 0.56922 0.0
H857 H 0.44609 0.99094 0.5297 0.0
C858 C 0.52286 0.04715 0.46554 0.0
C859 C 0.54956 0.05635 0.46072 0.0
C860 C 0.56471 0.05137 0.47679 0.0
C861 C 0.55325 0.0366 0.49687 0.0
C862 C 0.52671 0.02724 0.50078 0.0
C863 C 0.51183 0.03276 0.48582 0.0
C864 C 0.48383 0.02075 0.49423 0.0
C865 C 0.47693 0.04216 0.49959 0.0
C866 C 0.46459 1.00074 0.47663 0.0
C867 C 0.4852 1.00734 0.51614 0.0
C868 C 0.51003 1.01108 0.51947 0.0
C869 C 0.5159 1.00005 0.53823 0.0
C870 C 0.49607 0.98541 0.55434 0.0
C871 C 0.47073 0.98218 0.55176 0.0
C872 C 0.46526 0.99309 0.5322 0.0
H873 H 0.54984 0.04346 0.95374 0.0
H874 H 0.48781 0.05686 0.97769 0.0
H875 H 0.48401 0.03231 0.01356 0.0
H876 H 0.52384 0.97884 0.97492 0.0
H877 H 0.55489 0.98274 0.98376 0.0
H878 H 0.55345 1.00207 0.96027 0.0
H879 H 0.58668 0.04481 0.98137 0.0
H880 H 0.58857 0.02561 1.00475 0.0
H881 H 0.58012 0.05051 0.01066 0.0
H882 H 0.48462 1.00322 0.04536 0.0
H883 H 0.49393 0.97738 0.07348 0.0
H884 H 0.55724 0.98501 0.02982 0.0
C885 C 0.53569 0.04152 0.96668 0.0
C886 C 0.51912 0.05207 0.96294 0.0
C887 C 0.50087 0.04915 0.98028 0.0
C888 C 0.49843 0.03506 1.00063 0.0
C889 C 0.51463 0.02434 1.00351 0.0
C890 C 0.53329 0.02789 0.98724 0.0
C891 C 0.54859 0.01476 0.99471 0.0
C892 C 0.54496 0.99333 0.97738 0.0
C893 C 0.57771 0.03514 0.99808 0.0
C894 C 0.53541 1.003 0.01761 0.0
C895 C 0.51567 1.00848 0.02223 0.0
C896 C 0.50022 0.99905 0.04203 0.0
C897 C 0.50553 0.9842 0.05783 0.0
C898 C 0.52636 0.97921 0.0539 0.0
C899 C 0.54126 0.98856 0.03336 0.0
H900 H 0.96963 0.46624 0.96645 0.0
H901 H 0.03009 0.51991 0.91927 0.0
H902 H 0.05543 0.54746 0.95218 0.0
H903 H 0.97384 0.5165 1.00588 0.0
H904 H 0.96841 0.49684 0.03141 0.0
H905 H 0.95466 0.48124 1.00406 0.0
H906 H 0.97769 0.45378 1.00795 0.0
H907 H 0.99167 0.46946 0.03523 0.0
H908 H 1.01265 0.47028 0.01217 0.0
H909 H 0.07524 0.56867 0.99003 0.0
H910 H 0.08664 0.58368 0.03055 0.0
H911 H 1.01328 0.51719 0.05344 0.0
C912 C 0.98809 0.48388 0.96305 0.0
C913 C 0.99782 0.49081 0.94022 0.0
C914 C 0.02213 0.51408 0.93655 0.0
C915 C 0.03678 0.5299 0.95515 0.0
C916 C 0.02688 0.52237 0.97742 0.0
C917 C 1.00301 0.50008 0.9815 0.0
C918 C 0.99689 0.49668 1.0072 0.0
C919 C 0.97197 0.4979 0.01244 0.0
C920 C 0.9946 0.47103 0.01616 0.0
C921 C 0.02108 0.52046 0.01682 0.0
C922 C 0.03818 0.53492 0.99934 0.0
C923 C 0.06197 0.55758 1.00391 0.0
C924 C 0.06832 0.5659 0.02698 0.0
C925 C 0.05088 0.55168 0.04519 0.0
C926 C 0.02704 0.52856 0.03993 0.0
H927 H 0.55913 0.56109 0.96602 0.0
H928 H 0.54232 0.48114 0.9563 0.0
H929 H 0.51348 0.46739 0.99084 0.0
H930 H 0.5616 0.5597 0.02948 0.0
H931 H 0.54747 0.58046 0.03293 0.0
H932 H 0.56682 0.58373 1.00768 0.0
H933 H 0.52822 0.57664 0.98139 0.0
H934 H 0.50862 0.57301 1.00652 0.0
H935 H 0.49671 0.54749 0.98488 0.0
H936 H 0.48338 0.46196 0.02381 0.0
H937 H 0.45928 0.46585 0.05702 0.0
H938 H 0.499 0.55023 0.04777 0.0
C939 C 0.5495 0.54073 0.97135 0.0
C940 C 0.55265 0.52203 0.95858 0.0
C941 C 0.54012 0.49566 0.96602 0.0
C942 C 0.52365 0.48772 0.98548 0.0
C943 C 0.52055 0.50657 0.99748 0.0
C944 C 0.53362 0.53265 0.99105 0.0
C945 C 0.52752 0.54912 1.00729 0.0
C946 C 0.55233 0.56945 0.02011 0.0
C947 C 0.51449 0.56234 0.99423 0.0
C948 C 0.50847 0.52814 0.02362 0.0
C949 C 0.50447 0.50369 0.01741 0.0
C950 C 0.48664 0.48102 0.02903 0.0
C951 C 0.47287 0.48342 0.04773 0.0
C952 C 0.47732 0.50835 0.0549 0.0
C953 C 0.4954 0.53099 0.0427 0.0
H954 H 0.2574 0.02229 0.99277 0.0
H955 H 0.19154 1.00018 0.94652 0.0
H956 H 0.19234 0.04155 0.9561 0.0
H957 H 0.23706 0.04918 0.03663 0.0
H958 H 0.26943 0.07546 0.04373 0.0
H959 H 0.26514 0.04537 0.03166 0.0
H960 H 0.29724 0.07132 0.99843 0.0
H961 H 0.30171 0.10155 0.01045 0.0
H962 H 0.29125 0.09302 0.9808 0.0
H963 H 0.19806 0.08356 0.97338 0.0
H964 H 0.20864 0.12313 0.99619 0.0
H965 H 0.27128 0.11803 0.03072 0.0
C966 C 0.24334 0.02625 0.98436 0.0
C967 C 0.2244 1.00795 0.96884 0.0
C968 C 0.20629 0.01391 0.95837 0.0
C969 C 0.20661 0.03737 0.96371 0.0
C970 C 0.22529 0.05474 0.9794 0.0
C971 C 0.24344 0.04953 0.98944 0.0
C972 C 0.26072 0.0708 1.00653 0.0
C973 C 0.2579 0.05952 0.03109 0.0
C974 C 0.28943 0.08501 0.99857 0.0
C975 C 0.2491 0.08856 1.00498 0.0
C976 C 0.22876 0.07903 0.98914 0.0
C977 C 0.21414 0.09134 0.9856 0.0
C978 C 0.22027 0.11379 0.9987 0.0
C979 C 0.24089 0.1238 0.01517 0.0
C980 C 0.25566 0.11112 0.01806 0.0
H981 H 0.01759 0.20802 0.98009 0.0
H982 H 0.98123 0.23205 0.92754 0.0
H983 H 0.9384 0.20553 0.94651 0.0
H984 H 0.96265 0.14085 0.98703 0.0
H985 H 0.9675 0.14081 0.01787 0.0
H986 H 0.99497 0.16027 0.99919 0.0
H987 H 1.00596 0.20165 0.02334 0.0
H988 H 0.97842 0.1824 0.04195 0.0
H989 H 0.98127 0.21077 0.0274 0.0
H990 H 0.89982 0.17865 0.97272 0.0
H991 H 0.8683 0.15177 1.00319 0.0
H992 H 0.92976 0.14519 0.03843 0.0
C993 C 1.00056 0.20736 0.97232 0.0
C994 C 1.00285 0.22211 0.95225 0.0
C995 C 0.98006 0.22091 0.94286 0.0
C996 C 0.95559 0.20591 0.95353 0.0
C997 C 0.95412 0.19209 0.97357 0.0
C998 C 0.97596 0.19249 0.98277 0.0
C999 C 0.96921 0.17656 1.00488 0.0
C1000 C 0.97386 0.15324 1.00207 0.0
C1001 C 0.98463 0.19389 0.02561 0.0
C1002 C 0.94028 0.16743 1.00682 0.0
C1003 C 0.93192 0.17655 0.98859 0.0
C1004 C 0.90611 0.17122 0.987 0.0
C1005 C 0.88836 0.15601 1.00443 0.0
C1006 C 0.89648 0.1463 0.0232 0.0
C1007 C 0.92284 0.15218 0.02428 0.0
H1008 H 0.86578 0.74994 0.02993 0.0
H1009 H 0.93611 0.81041 0.99663 0.0
H1010 H 0.90951 0.82388 0.97374 0.0
H1011 H 0.82142 0.73372 0.97942 0.0
H1012 H 0.79442 0.72935 0.99719 0.0
H1013 H 0.81861 0.72235 0.00884 0.0
H1014 H 0.82703 0.75446 0.0428 0.0
H1015 H 0.80304 0.76167 0.0312 0.0
H1016 H 0.83595 0.7879 0.03658 0.0
H1017 H 0.87578 0.8332 0.95677 0.0
H1018 H 0.8374 0.83778 0.94732 0.0
H1019 H 0.78921 0.77194 0.99229 0.0
C1020 C 0.87549 0.76557 0.01739 0.0
C1021 C 0.903 0.77899 0.01492 0.0
C1022 C 0.91505 0.79979 0.99876 0.0
C1023 C 0.9001 0.80756 0.98563 0.0
C1024 C 0.87309 0.79437 0.98887 0.0
C1025 C 0.86086 0.77376 1.0043 0.0
C1026 C 0.83182 0.76422 1.0058 0.0
C1027 C 0.81561 0.73572 0.9973 0.0
C1028 C 0.82401 0.76726 0.03056 0.0
C1029 C 0.82976 0.78301 0.98919 0.0
C1030 C 0.85371 0.80005 0.97939 0.0
C1031 C 0.85685 0.81979 0.96416 0.0
C1032 C 0.83495 0.82227 0.95892 0.0
C1033 C 0.81027 0.80524 0.96902 0.0
C1034 C 0.80774 0.78523 0.98418 0.0
H1035 H 0.99769 0.19689 0.49499 0.0
H1036 H 0.01724 0.21502 0.56768 0.0
H1037 H 0.06404 0.23207 0.55846 0.0
H1038 H 0.04597 0.17696 0.48223 0.0
H1039 H 0.05233 0.19124 0.4537 0.0
H1040 H 0.02051 0.17886 0.46661 0.0
H1041 H 0.024 0.22411 0.46059 0.0
H1042 H 0.05593 0.23672 0.44792 0.0
H1043 H 0.0516 0.25308 0.4725 0.0
H1044 H 0.10951 0.25054 0.5402 0.0
H1045 H 0.1486 0.26572 0.51519 0.0
H1046 H 0.09811 0.23465 0.45495 0.0
C1047 C 1.01172 0.20406 0.50908 0.0
C1048 C 1.00379 0.20457 0.53207 0.0
C1049 C 0.02283 0.21422 0.54996 0.0
C1050 C 0.04946 0.22406 0.54486 0.0
C1051 C 0.05666 0.22386 0.52184 0.0
C1052 C 0.03821 0.21378 0.50433 0.0
C1053 C 0.05081 0.21637 0.48093 0.0
C1054 C 0.04188 0.18924 0.47025 0.0
C1055 C 0.04525 0.2336 0.46453 0.0
C1056 C 0.07934 0.22988 0.48788 0.0
C1057 C 0.08244 0.23409 0.51152 0.0
C1058 C 0.10723 0.24709 0.5217 0.0
C1059 C 0.12933 0.25575 0.50736 0.0
C1060 C 0.12644 0.25132 0.48311 0.0
C1061 C 0.10105 0.23822 0.47341 0.0
H1062 H 0.81168 0.80477 0.50135 0.0
H1063 H 0.79794 0.81717 0.57288 0.0
H1064 H 0.78037 0.84539 0.55968 0.0
H1065 H 0.83197 0.87033 0.48127 0.0
H1066 H 0.81642 0.85906 0.45344 0.0
H1067 H 0.82832 0.84057 0.46887 0.0
H1068 H 0.78218 0.79922 0.4665 0.0
H1069 H 0.77007 0.81764 0.45126 0.0
H1070 H 0.75435 0.80062 0.47759 0.0
H1071 H 0.76234 0.87099 0.53782 0.0
H1072 H 0.74863 0.8937 0.50977 0.0
H1073 H 0.77523 0.86434 0.4532 0.0
C1074 C 0.80516 0.81352 0.51432 0.0
C1075 C 0.80617 0.80872 0.53816 0.0
C1076 C 0.79747 0.82066 0.55451 0.0
C1077 C 0.78735 0.83662 0.54717 0.0
C1078 C 0.78626 0.84058 0.52344 0.0
C1079 C 0.7952 0.82953 0.50732 0.0
C1080 C 0.79202 0.83668 0.48286 0.0
C1081 C 0.81877 0.85261 0.47092 0.0
C1082 C 0.77355 0.81208 0.46873 0.0
C1083 C 0.77971 0.85338 0.48762 0.0
C1084 C 0.77639 0.85538 0.51108 0.0
C1085 C 0.765 0.86962 0.51943 0.0
C1086 C 0.75716 0.88235 0.50338 0.0
C1087 C 0.7609 0.88086 0.47929 0.0
C1088 C 0.77219 0.86601 0.47148 0.0
H1089 H 0.23999 1.00002 0.51723 0.0
H1090 H 0.19884 0.01516 0.57197 0.0
H1091 H 0.16022 0.9711 0.56567 0.0
H1092 H 0.18609 0.96678 0.47942 0.0
H1093 H 0.19534 0.94355 0.46943 0.0
H1094 H 0.22005 0.9755 0.47926 0.0
H1095 H 0.23645 0.95401 0.50899 0.0
H1096 H 0.21173 0.92195 0.49927 0.0
H1097 H 0.21372 0.93059 0.52947 0.0
H1098 H 0.12525 0.92625 0.5517 0.0
H1099 H 0.09679 0.88456 0.53134 0.0
H1100 H 0.16129 0.89875 0.48607 0.0
C1101 C 0.22296 0.99407 0.52807 0.0
C1102 C 0.22247 1.0111 0.54513 0.0
C1103 C 0.19972 1.00247 0.55884 0.0
C1104 C 0.17771 0.97746 0.5554 0.0
C1105 C 0.17884 0.96127 0.53829 0.0
C1106 C 0.20094 0.96923 0.52491 0.0
C1107 C 0.19695 0.94856 0.50715 0.0
C1108 C 0.19976 0.95924 0.48236 0.0
C1109 C 0.21583 0.93816 0.51149 0.0
C1110 C 0.16894 0.92782 0.51231 0.0
C1111 C 0.15887 0.93546 0.5304 0.0
C1112 C 0.13303 0.92 0.53766 0.0
C1113 C 0.117 0.89633 0.52595 0.0
C1114 C 0.1268 0.88826 0.50716 0.0
C1115 C 0.15326 0.90415 0.50054 0.0
H1116 H 0.78912 0.93641 0.95348 0.0
H1117 H 0.76552 0.88355 0.01226 0.0
H1118 H 0.7774 0.921 0.03873 0.0
H1119 H 0.84431 0.99086 0.98022 0.0
H1120 H 0.8387 0.01507 0.96648 0.0
H1121 H 0.82841 0.98413 0.95235 0.0
H1122 H 0.781 0.97579 0.94948 0.0
H1123 H 0.79118 1.00679 0.96344 0.0
H1124 H 0.7646 0.97711 0.97537 0.0
H1125 H 0.79293 0.96507 0.05882 0.0
H1126 H 0.80769 1.01094 0.07032 0.0
H1127 H 0.82007 0.03396 0.99798 0.0
C1128 C 0.7864 0.93263 0.97192 0.0
C1129 C 0.77645 0.90703 0.98079 0.0
C1130 C 0.77306 0.90298 1.00504 0.0
C1131 C 0.77986 0.92415 0.02022 0.0
C1132 C 0.78987 0.9492 0.01086 0.0
C1133 C 0.7929 0.95342 0.98723 0.0
C1134 C 0.80353 0.98203 0.9814 0.0
C1135 C 0.83033 0.9937 0.96941 0.0
C1136 C 0.7839 0.98563 0.96655 0.0
C1137 C 0.80607 0.99334 1.00544 0.0
C1138 C 0.79829 0.9742 0.02226 0.0
C1139 C 0.79902 0.98018 0.04575 0.0
C1140 C 0.80753 1.0063 0.05214 0.0
C1141 C 0.81502 0.02606 0.03507 0.0
C1142 C 0.81445 0.01936 0.01147 0.0
H1143 H 0.10543 0.85343 0.96285 0.0
H1144 H 0.15418 0.89674 0.02134 0.0
H1145 H 0.1161 0.87268 0.04761 0.0
H1146 H 0.04757 0.85214 0.98074 0.0
H1147 H 0.02609 0.81938 0.97019 0.0
H1148 H 0.05731 0.83959 0.95655 0.0
H1149 H 0.06977 0.80373 0.96356 0.0
H1150 H 0.03848 0.78329 0.97704 0.0
H1151 H 0.06818 0.7915 0.99249 0.0
H1152 H 0.07063 0.8447 0.06698 0.0
H1153 H 0.02439 0.81339 0.07756 0.0
H1154 H 1.00765 0.78851 1.00581 0.0
C1155 C 0.10822 0.85784 0.98121 0.0
C1156 C 0.13273 0.87704 0.99006 0.0
C1157 C 0.13557 0.88201 0.01421 0.0
C1158 C 0.11402 0.86853 0.02922 0.0
C1159 C 0.08993 0.84997 0.01978 0.0
C1160 C 0.08716 0.84445 0.99631 0.0
C1161 C 0.05955 0.8236 0.99022 0.0
C1162 C 0.04689 0.83433 0.97344 0.0
C1163 C 0.05898 0.79908 0.98025 0.0
C1164 C 0.04696 0.8183 0.01385 0.0
C1165 C 0.06458 0.83371 0.03077 0.0
C1166 C 0.05681 0.83243 0.05384 0.0
C1167 C 0.03051 0.81471 0.05969 0.0
C1168 C 1.01248 0.79841 0.04255 0.0
C1169 C 0.02098 0.80048 0.0194 0.0
H1170 H 0.16713 0.25193 0.95271 0.0
H1171 H 0.12601 0.26232 0.01031 0.0
H1172 H 0.15067 0.25021 0.03764 0.0
H1173 H 0.1685 0.19667 0.97412 0.0
H1174 H 0.20086 0.20672 0.96344 0.0
H1175 H 0.18074 0.21719 0.9488 0.0
H1176 H 0.21717 0.26579 0.95339 0.0
H1177 H 0.23753 0.25546 0.96786 0.0
H1178 H 0.23012 0.27837 0.9818 0.0
H1179 H 0.1781 0.23342 0.05832 0.0
H1180 H 0.20843 0.21792 0.07043 0.0
H1181 H 0.23217 0.22076 0.99889 0.0
C1182 C 0.16343 0.25189 0.97109 0.0
C1183 C 0.14459 0.25798 0.97939 0.0
C1184 C 0.14046 0.25785 1.00358 0.0
C1185 C 0.15429 0.25087 0.01921 0.0
C1186 C 0.1724 0.24446 0.01035 0.0
C1187 C 0.17723 0.24535 0.98684 0.0
C1188 C 0.19763 0.23771 0.98153 0.0
C1189 C 0.18624 0.21311 0.96606 0.0
C1190 C 0.22206 0.26071 0.9705 0.0
C1191 C 0.20333 0.23197 1.00568 0.0
C1192 C 0.18854 0.23578 0.02214 0.0
C1193 C 0.18995 0.23068 0.04556 0.0
C1194 C 0.20712 0.22176 0.05228 0.0
C1195 C 0.22279 0.21831 0.03564 0.0
C1196 C 0.22069 0.22348 0.01209 0.0
H1197 H 0.91949 0.75833 0.56288 0.0
H1198 H 0.87648 0.76959 0.50742 0.0
H1199 H 0.91357 0.78106 0.4807 0.0
H1200 H 0.98172 0.81091 0.54904 0.0
H1201 H 0.999 0.79388 0.55634 0.0
H1202 H 0.96856 0.78523 0.57047 0.0
H1203 H 0.94933 0.73688 0.55744 0.0
H1204 H 0.97981 0.74534 0.54342 0.0
H1205 H 0.94968 0.72954 0.52715 0.0
H1206 H 0.95763 0.7949 0.46101 0.0
H1207 H 1.0026 0.80617 0.44958 0.0
H1208 H 1.01501 0.78398 0.51802 0.0
C1209 C 0.91769 0.76292 0.54505 0.0
C1210 C 0.8951 0.76311 0.53724 0.0
C1211 C 0.89355 0.76918 0.51375 0.0
C1212 C 0.91456 0.77581 0.49849 0.0
C1213 C 0.9368 0.77595 0.50693 0.0
C1214 C 0.93826 0.76928 0.52962 0.0
C1215 C 0.96429 0.77113 0.53466 0.0
C1216 C 0.97927 0.7915 0.55375 0.0
C1217 C 0.96054 0.74412 0.54103 0.0
C1218 C 0.97752 0.7803 0.51139 0.0
C1219 C 0.9615 0.7831 0.49557 0.0
C1220 C 0.97017 0.79246 0.47322 0.0
C1221 C 0.99576 0.79891 0.46689 0.0
C1222 C 1.01226 0.79578 0.48283 0.0
C1223 C 1.00283 0.7863 0.50531 0.0
H1224 H 0.18899 0.19865 0.50285 0.0
H1225 H 0.23862 0.22642 0.44198 0.0
H1226 H 0.25727 0.19825 0.45221 0.0
H1227 H 0.23542 0.19874 0.54024 0.0
H1228 H 0.21255 0.16964 0.55575 0.0
H1229 H 0.2015 0.18991 0.54231 0.0
H1230 H 0.16656 0.14989 0.51912 0.0
H1231 H 0.17736 0.1294 0.53266 0.0
H1232 H 0.17652 0.13111 0.50151 0.0
H1233 H 0.27313 0.16936 0.47158 0.0
H1234 H 0.28307 0.14158 0.4971 0.0
H1235 H 0.22251 0.13348 0.54462 0.0
C1236 C 0.20345 0.19853 0.49138 0.0
C1237 C 0.21227 0.21471 0.47156 0.0
C1238 C 0.23138 0.21403 0.45716 0.0
C1239 C 0.24214 0.19814 0.46288 0.0
C1240 C 0.23343 0.18292 0.48294 0.0
C1241 C 0.21429 0.18284 0.4968 0.0
C1242 C 0.20897 0.16578 0.51794 0.0
C1243 C 0.21498 0.18199 0.54037 0.0
C1244 C 0.18067 0.14267 0.51778 0.0
C1245 C 0.2284 0.15655 0.51413 0.0
C1246 C 0.24234 0.16648 0.49385 0.0
C1247 C 0.2621 0.16128 0.48736 0.0
C1248 C 0.26766 0.14554 0.50197 0.0
C1249 C 0.25353 0.13524 0.52283 0.0
C1250 C 0.2336 0.14083 0.52875 0.0
H1251 H 0.81271 0.99502 0.49993 0.0
H1252 H 0.79999 0.01967 0.43275 0.0
H1253 H 0.82975 0.06612 0.44376 0.0
H1254 H 0.81203 0.04453 0.53247 0.0
H1255 H 0.8371 0.04823 0.5525 0.0
H1256 H 0.81686 0.01721 0.53843 0.0
H1257 H 0.85812 0.01762 0.52246 0.0
H1258 H 0.87854 0.04853 0.53673 0.0
H1259 H 0.88176 0.04544 0.506 0.0
H1260 H 0.8582 0.1105 0.46429 0.0
H1261 H 0.88469 0.14765 0.49095 0.0
H1262 H 0.87824 0.09246 0.54384 0.0
C1263 C 0.81648 1.01011 0.48732 0.0
C1264 C 0.80406 1.00372 0.46546 0.0
C1265 C 0.80949 0.02411 0.44953 0.0
C1266 C 0.82626 0.05054 0.45569 0.0
C1267 C 0.83761 0.05616 0.47773 0.0
C1268 C 0.83316 0.03639 0.49313 0.0
C1269 C 0.84684 0.04728 0.516 0.0
C1270 C 0.82702 0.03881 0.53602 0.0
C1271 C 0.86755 0.03924 0.52055 0.0
C1272 C 0.85939 0.07633 0.51133 0.0
C1273 C 0.85394 0.08124 0.48921 0.0
C1274 C 0.86279 0.10681 0.48153 0.0
C1275 C 0.87772 0.12778 0.49681 0.0
C1276 C 0.88365 0.12301 0.51945 0.0
C1277 C 0.87429 0.09688 0.52661 0.0
H1278 H 0.898 0.43345 0.39004 0.0
H1279 H 0.94334 0.48459 0.33357 0.0
H1280 H 0.93067 0.44564 0.30873 0.0
H1281 H 0.91524 0.3844 0.37957 0.0
H1282 H 0.88357 0.35765 0.38768 0.0
H1283 H 0.89539 0.38961 0.40024 0.0
H1284 H 0.85353 0.38934 0.38618 0.0
H1285 H 0.84167 0.35743 0.3734 0.0
H1286 H 0.84492 0.38422 0.35589 0.0
H1287 H 0.91275 0.40019 0.29019 0.0
H1288 H 0.89453 0.35312 0.28093 0.0
H1289 H 0.8621 0.33271 0.35023 0.0
C1290 C 0.90519 0.43655 0.3724 0.0
C1291 C 0.92156 0.46211 0.3637 0.0
C1292 C 0.93079 0.4652 0.34061 0.0
C1293 C 0.92358 0.44319 0.32635 0.0
C1294 C 0.90727 0.41824 0.3355 0.0
C1295 C 0.89841 0.4149 0.35809 0.0
C1296 C 0.88211 0.38614 0.36425 0.0
C1297 C 0.89485 0.37904 0.3841 0.0
C1298 C 0.85388 0.37887 0.37028 0.0
C1299 C 0.88319 0.3737 0.34163 0.0
C1300 C 0.89754 0.39244 0.32513 0.0
C1301 C 0.90145 0.38541 0.30301 0.0
C1302 C 0.8909 0.3586 0.29785 0.0
C1303 C 0.87683 0.33919 0.31482 0.0
C1304 C 0.87269 0.34701 0.33683 0.0
H1305 H 0.60344 0.49707 0.40267 0.0
H1306 H 0.54703 0.47214 0.34651 0.0
H1307 H 0.58309 0.49758 0.31882 0.0
H1308 H 0.6453 0.56282 0.38215 0.0
H1309 H 0.67484 0.56381 0.39179 0.0
H1310 H 0.64449 0.54363 0.40678 0.0
H1311 H 0.64999 0.50307 0.40045 0.0
H1312 H 0.68025 0.52309 0.38527 0.0
H1313 H 0.65424 0.49436 0.37147 0.0
H1314 H 0.62628 0.5254 0.29715 0.0
H1315 H 0.6718 0.55512 0.28412 0.0
H1316 H 0.69888 0.56173 0.35505 0.0
C1317 C 0.59857 0.49696 0.38456 0.0
C1318 C 0.57238 0.48255 0.37676 0.0
C1319 C 0.56694 0.48309 0.35291 0.0
C1320 C 0.58731 0.4974 0.33705 0.0
C1321 C 0.61297 0.51116 0.34534 0.0
C1322 C 0.61856 0.51119 0.3686 0.0
C1323 C 0.64761 0.52779 0.3733 0.0
C1324 C 0.65339 0.55088 0.38946 0.0
C1325 C 0.65866 0.51107 0.3832 0.0
C1326 C 0.65762 0.53713 0.34906 0.0
C1327 C 0.63745 0.52726 0.33308 0.0
C1328 C 0.64218 0.53326 0.30956 0.0
C1329 C 0.66811 0.55007 0.3023 0.0
C1330 C 0.68894 0.5608 0.31854 0.0
C1331 C 0.68346 0.55394 0.34216 0.0
H1332 H 0.53302 0.09752 0.37048 0.0
H1333 H 0.59096 0.1291 0.3156 0.0
H1334 H 0.56437 0.1445 0.29511 0.0
H1335 H 0.47564 0.07588 0.33386 0.0
H1336 H 0.4589 0.08491 0.35483 0.0
H1337 H 0.48191 0.07526 0.36436 0.0
H1338 H 0.50777 0.11907 0.38685 0.0
H1339 H 0.48496 0.12893 0.37727 0.0
H1340 H 0.51944 0.14965 0.37166 0.0
H1341 H 0.53158 0.15768 0.28112 0.0
H1342 H 0.49547 0.16706 0.27505 0.0
H1343 H 0.4601 0.12749 0.33963 0.0
C1344 C 0.54001 0.10739 0.35402 0.0
C1345 C 0.56406 0.11199 0.34463 0.0
C1346 C 0.57258 0.12527 0.32314 0.0
C1347 C 0.55761 0.13411 0.31136 0.0
C1348 C 0.53417 0.12958 0.32128 0.0
C1349 C 0.52542 0.11645 0.34211 0.0
C1350 C 0.5 0.11473 0.34949 0.0
C1351 C 0.4778 0.08599 0.35069 0.0
C1352 C 0.50325 0.12895 0.37269 0.0
C1353 C 0.49589 0.12909 0.32967 0.0
C1354 C 0.51568 0.13742 0.31347 0.0
C1355 C 0.51596 0.15119 0.2937 0.0
C1356 C 0.49541 0.15648 0.2904 0.0
C1357 C 0.47498 0.14812 0.30687 0.0
C1358 C 0.47542 0.13428 0.32671 0.0
H1359 H 0.67148 0.54213 0.83354 0.0
H1360 H 0.69206 0.56074 0.90602 0.0
H1361 H 0.73877 0.57811 0.89622 0.0
H1362 H 0.71958 0.5224 0.82024 0.0
H1363 H 0.72554 0.53647 0.79163 0.0
H1364 H 0.69391 0.52419 0.80488 0.0
H1365 H 0.69731 0.5694 0.79882 0.0
H1366 H 0.72904 0.5819 0.78577 0.0
H1367 H 0.7251 0.59847 0.81038 0.0
H1368 H 0.78394 0.59644 0.87748 0.0
H1369 H 0.82266 0.61125 0.85205 0.0
H1370 H 0.77129 0.57973 0.79239 0.0
C1371 C 0.68571 0.54953 0.84746 0.0
C1372 C 0.6781 0.55007 0.87055 0.0
C1373 C 0.69741 0.55999 0.88821 0.0
C1374 C 0.72399 0.56998 0.88279 0.0
C1375 C 0.73085 0.56969 0.85969 0.0
C1376 C 0.71215 0.55942 0.84238 0.0
C1377 C 0.72441 0.56182 0.81886 0.0
C1378 C 0.71532 0.5346 0.80829 0.0
C1379 C 0.71862 0.57892 0.80251 0.0
C1380 C 0.75302 0.57538 0.8255 0.0
C1381 C 0.75647 0.57983 0.84909 0.0
C1382 C 0.7814 0.59283 0.85901 0.0
C1383 C 0.80328 0.60127 0.84443 0.0
C1384 C 0.80002 0.59658 0.82024 0.0
C1385 C 0.7745 0.58348 0.81081 0.0
H1386 H 0.45616 0.20153 0.78527 0.0
H1387 H 0.42655 0.22755 0.84209 0.0
H1388 H 0.43834 0.20286 0.86961 0.0
H1389 H 0.43325 0.13636 0.80665 0.0
H1390 H 0.46147 0.1352 0.79632 0.0
H1391 H 0.45075 0.15503 0.7815 0.0
H1392 H 0.49695 0.19576 0.78655 0.0
H1393 H 0.50776 0.17609 0.80154 0.0
H1394 H 0.51091 0.20508 0.81516 0.0
H1395 H 0.45446 0.17546 0.89103 0.0
H1396 H 0.47078 0.14602 0.90376 0.0
H1397 H 0.48891 0.13812 0.83239 0.0
C1398 C 0.45209 0.20207 0.80349 0.0
C1399 C 0.44047 0.21655 0.81151 0.0
C1400 C 0.43538 0.21655 0.83551 0.0
C1401 C 0.4421 0.20266 0.85128 0.0
C1402 C 0.45378 0.18878 0.84277 0.0
C1403 C 0.45851 0.18826 0.81937 0.0
C1404 C 0.47084 0.17159 0.81444 0.0
C1405 C 0.45301 0.14816 0.79881 0.0
C1406 C 0.49824 0.18813 0.80379 0.0
C1407 C 0.47237 0.16277 0.8387 0.0
C1408 C 0.4626 0.17294 0.85489 0.0
C1409 C 0.46211 0.16738 0.87845 0.0
C1410 C 0.4715 0.15072 0.88555 0.0
C1411 C 0.48111 0.13972 0.8691 0.0
C1412 C 0.48167 0.14612 0.84544 0.0
H1413 H 0.87552 0.35983 0.83298 0.0
H1414 H 0.89951 0.33972 0.89718 0.0
H1415 H 0.87218 0.29256 0.88749 0.0
H1416 H 0.80823 0.30505 0.83284 0.0
H1417 H 0.80781 0.30132 0.80181 0.0
H1418 H 0.82793 0.33311 0.81478 0.0
H1419 H 0.86863 0.33693 0.79401 0.0
H1420 H 0.84872 0.30508 0.78116 0.0
H1421 H 0.877 0.31168 0.79818 0.0
H1422 H 0.84426 0.24722 0.86884 0.0
H1423 H 0.81659 0.20842 0.84431 0.0
H1424 H 0.81111 0.25922 0.79297 0.0
C1425 C 0.8748 0.34555 0.84521 0.0
C1426 C 0.88965 0.35351 0.86587 0.0
C1427 C 0.88816 0.33412 0.88132 0.0
C1428 C 0.87276 0.30728 0.8759 0.0
C1429 C 0.85881 0.30016 0.85509 0.0
C1430 C 0.85951 0.31881 0.84014 0.0
C1431 C 0.84332 0.30632 0.81862 0.0
C1432 C 0.82047 0.31177 0.81692 0.0
C1433 C 0.86045 0.31555 0.79671 0.0
C1434 C 0.83366 0.2777 0.82355 0.0
C1435 C 0.84274 0.27441 0.84463 0.0
C1436 C 0.83688 0.24962 0.8524 0.0
C1437 C 0.82123 0.22769 0.83832 0.0
C1438 C 0.81157 0.23071 0.81674 0.0
C1439 C 0.81798 0.25613 0.80942 0.0
H1440 H 0.45323 0.26604 0.29638 0.0
H1441 H 0.42313 0.21113 0.35365 0.0
H1442 H 0.43661 0.24829 0.38097 0.0
H1443 H 0.50938 0.3167 0.3253 0.0
H1444 H 0.50695 0.34288 0.3116 0.0
H1445 H 0.49497 0.31197 0.29689 0.0
H1446 H 0.44931 0.30779 0.29245 0.0
H1447 H 0.4612 0.33879 0.30697 0.0
H1448 H 0.43266 0.30998 0.3178 0.0
H1449 H 0.45455 0.29251 0.402 0.0
H1450 H 0.4722 0.33872 0.41424 0.0
H1451 H 0.48946 0.36339 0.34251 0.0
C1452 C 0.44941 0.26171 0.31466 0.0
C1453 C 0.43718 0.23565 0.32289 0.0
C1454 C 0.43242 0.23094 0.34695 0.0
C1455 C 0.44011 0.25193 0.36258 0.0
C1456 C 0.45239 0.27745 0.35384 0.0
C1457 C 0.45677 0.2823 0.33037 0.0
C1458 C 0.46979 0.31129 0.32512 0.0
C1459 C 0.49688 0.32129 0.31408 0.0
C1460 C 0.45218 0.31731 0.30968 0.0
C1461 C 0.47213 0.32216 0.34928 0.0
C1462 C 0.46219 0.30246 0.36571 0.0
C1463 C 0.46233 0.30804 0.38924 0.0
C1464 C 0.4725 0.33435 0.39605 0.0
C1465 C 0.4822 0.35469 0.37934 0.0
C1466 C 0.48217 0.34835 0.35573 0.0
H1467 H 0.67343 0.15324 0.36749 0.0
H1468 H 0.70499 0.12466 0.42058 0.0
H1469 H 0.74943 0.15256 0.40472 0.0
H1470 H 0.71344 0.15371 0.32203 0.0
H1471 H 0.71736 0.18309 0.30863 0.0
H1472 H 0.68841 0.1625 0.32524 0.0
H1473 H 0.69733 0.20206 0.3512 0.0
H1474 H 0.72625 0.22285 0.33456 0.0
H1475 H 0.72855 0.22052 0.36552 0.0
H1476 H 0.79032 0.18192 0.3815 0.0
H1477 H 0.82411 0.21075 0.35332 0.0
H1478 H 0.76541 0.21961 0.31549 0.0
C1479 C 0.6897 0.15314 0.37606 0.0
C1480 C 0.68568 0.13683 0.3954 0.0
C1481 C 0.70755 0.13707 0.40584 0.0
C1482 C 0.73289 0.15284 0.39693 0.0
C1483 C 0.73609 0.16833 0.3776 0.0
C1484 C 0.71508 0.16869 0.36737 0.0
C1485 C 0.72356 0.1862 0.3462 0.0
C1486 C 0.70988 0.17043 0.32423 0.0
C1487 C 0.71863 0.20928 0.34959 0.0
C1488 C 0.75256 0.19543 0.34595 0.0
C1489 C 0.75947 0.18502 0.36423 0.0
C1490 C 0.78514 0.19031 0.36721 0.0
C1491 C 0.80419 0.20668 0.35109 0.0
C1492 C 0.79748 0.2175 0.33219 0.0
C1493 C 0.77128 0.21177 0.32976 0.0
H1494 H 0.88421 0.53762 0.33391 0.0
H1495 H 0.89424 0.57077 0.40287 0.0
H1496 H 0.86537 0.58848 0.39233 0.0
H1497 H 0.88541 0.59009 0.30339 0.0
H1498 H 0.86092 0.56947 0.28254 0.0
H1499 H 0.88129 0.5585 0.29595 0.0
H1500 H 0.84006 0.51631 0.31016 0.0
H1501 H 0.81955 0.52703 0.2966 0.0
H1502 H 0.81582 0.51904 0.32701 0.0
H1503 H 0.83719 0.60488 0.3729 0.0
H1504 H 0.80998 0.61559 0.34745 0.0
H1505 H 0.81834 0.57061 0.2919 0.0
C1506 C 0.88017 0.54838 0.34692 0.0
C1507 C 0.89152 0.55282 0.36922 0.0
C1508 C 0.88567 0.567 0.38571 0.0
C1509 C 0.86938 0.57722 0.37984 0.0
C1510 C 0.85892 0.57289 0.3575 0.0
C1511 C 0.8639 0.55852 0.34142 0.0
C1512 C 0.85057 0.55671 0.31854 0.0
C1513 C 0.87076 0.56946 0.29896 0.0
C1514 C 0.8303 0.52807 0.31275 0.0
C1515 C 0.8375 0.57254 0.3241 0.0
C1516 C 0.84255 0.58182 0.3466 0.0
C1517 C 0.83297 0.59751 0.35531 0.0
C1518 C 0.81763 0.60359 0.34071 0.0
C1519 C 0.81193 0.59387 0.31771 0.0
C1520 C 0.82214 0.57822 0.30943 0.0
H1521 H 0.6035 0.13086 0.89237 0.0
H1522 H 0.54798 0.08516 0.83837 0.0
H1523 H 0.58478 0.09376 0.81231 0.0
H1524 H 0.65256 0.18023 0.85555 0.0
H1525 H 0.6795 0.18254 0.87218 0.0
H1526 H 0.64881 0.17328 0.88616 0.0
H1527 H 0.6464 0.13071 0.90129 0.0
H1528 H 0.67714 0.1399 0.88746 0.0
H1529 H 0.6487 0.10864 0.88101 0.0
H1530 H 0.62835 0.10777 0.79215 0.0
H1531 H 0.6743 0.12351 0.78068 0.0
H1532 H 0.70043 0.159 0.84854 0.0
C1533 C 0.599 0.12271 0.87504 0.0
C1534 C 0.57283 0.10741 0.86738 0.0
C1535 C 0.56787 0.09692 0.84463 0.0
C1536 C 0.58865 0.10179 0.82968 0.0
C1537 C 0.61425 0.11706 0.8378 0.0
C1538 C 0.61942 0.12719 0.86002 0.0
C1539 C 0.64852 0.14228 0.86491 0.0
C1540 C 0.65789 0.1713 0.86999 0.0
C1541 C 0.6556 0.12962 0.88484 0.0
C1542 C 0.65902 0.13904 0.84199 0.0
C1543 C 0.63903 0.12463 0.82647 0.0
C1544 C 0.64413 0.11907 0.8042 0.0
C1545 C 0.67029 0.12817 0.7978 0.0
C1546 C 0.69098 0.14247 0.8137 0.0
C1547 C 0.68511 0.1481 0.83597 0.0
H1548 H 0.89619 0.47756 0.8786 0.0
H1549 H 0.94977 0.47954 0.82611 0.0
H1550 H 0.93948 0.50781 0.80168 0.0
H1551 H 0.84739 0.47636 0.83956 0.0
H1552 H 0.84089 0.49714 0.85803 0.0
H1553 H 0.85146 0.47596 0.87049 0.0
H1554 H 0.89025 0.51595 0.89058 0.0
H1555 H 0.87974 0.53721 0.87827 0.0
H1556 H 0.91263 0.54372 0.87336 0.0
H1557 H 0.92418 0.53774 0.78375 0.0
H1558 H 0.90691 0.56746 0.775 0.0
H1559 H 0.86383 0.54515 0.83974 0.0
C1560 C 0.90565 0.48369 0.86188 0.0
C1561 C 0.92375 0.47624 0.85425 0.0
C1562 C 0.9358 0.48496 0.83232 0.0
C1563 C 0.93002 0.50096 0.8183 0.0
C1564 C 0.91212 0.50802 0.82646 0.0
C1565 C 0.90017 0.49963 0.84779 0.0
C1566 C 0.88256 0.51073 0.8532 0.0
C1567 C 0.85388 0.48873 0.85544 0.0
C1568 C 0.89186 0.52792 0.87515 0.0
C1569 C 0.88664 0.52701 0.83173 0.0
C1570 C 0.90356 0.5251 0.81635 0.0
C1571 C 0.91078 0.5392 0.79563 0.0
C1572 C 0.90081 0.55597 0.79076 0.0
C1573 C 0.88396 0.55861 0.80664 0.0
C1574 C 0.87657 0.54355 0.82716 0.0
H1575 H 0.53981 0.43423 0.88816 0.0
H1576 H 0.562 0.48806 0.83023 0.0
H1577 H 0.53616 0.45047 0.80381 0.0
H1578 H 0.54262 0.38254 0.85866 0.0
H1579 H 0.51467 0.35691 0.87353 0.0
H1580 H 0.53474 0.38806 0.88753 0.0
H1581 H 0.49396 0.39303 0.89399 0.0
H1582 H 0.47372 0.3618 0.88017 0.0
H1583 H 0.47381 0.39062 0.86957 0.0
H1584 H 0.5082 0.40581 0.7837 0.0
H1585 H 0.47889 0.35937 0.77247 0.0
H1586 H 0.47527 0.33618 0.84431 0.0
C1587 C 0.53928 0.43823 0.86992 0.0
C1588 C 0.55302 0.46411 0.86124 0.0
C1589 C 0.55158 0.4684 0.83727 0.0
C1590 C 0.53704 0.44716 0.82214 0.0
C1591 C 0.52395 0.42182 0.83132 0.0
C1592 C 0.52482 0.41741 0.85472 0.0
C1593 C 0.50886 0.38856 0.86053 0.0
C1594 C 0.52627 0.37843 0.87065 0.0
C1595 C 0.48625 0.3832 0.87703 0.0
C1596 C 0.49884 0.37724 0.83672 0.0
C1597 C 0.5078 0.39661 0.82 0.0
C1598 C 0.50106 0.39055 0.79671 0.0
C1599 C 0.48449 0.36412 0.79047 0.0
C1600 C 0.47474 0.34411 0.8075 0.0
C1601 C 0.48229 0.35094 0.83085 0.0
H1602 H 0.59701 0.70253 0.63754 0.0
H1603 H 0.51207 0.66119 0.63603 0.0
H1604 H 0.51261 0.70044 0.65181 0.0
H1605 H 0.60369 0.73304 0.69094 0.0
H1606 H 0.6326 0.7635 0.68354 0.0
H1607 H 0.62592 0.73362 0.66921 0.0
H1608 H 0.62817 0.7547 0.62933 0.0
H1609 H 0.63501 0.78476 0.64352 0.0
H1610 H 0.60774 0.76881 0.6238 0.0
H1611 H 0.52197 0.74215 0.67097 0.0
H1612 H 0.53927 0.78349 0.69278 0.0
H1613 H 0.61844 0.79831 0.68271 0.0
C1614 C 0.57854 0.70197 0.63995 0.0
C1615 C 0.55446 0.67884 0.6353 0.0
C1616 C 0.53072 0.67869 0.63932 0.0
C1617 C 0.53085 0.70093 0.64823 0.0
C1618 C 0.55487 0.72319 0.6531 0.0
C1619 C 0.57831 0.72394 0.64907 0.0
C1620 C 0.6013 0.74958 0.65761 0.0
C1621 C 0.61678 0.74462 0.67644 0.0
C1622 C 0.6191 0.7654 0.63735 0.0
C1623 C 0.58707 0.76286 0.66755 0.0
C1624 C 0.56032 0.74735 0.6645 0.0
C1625 C 0.54288 0.7546 0.67323 0.0
C1626 C 0.55294 0.77812 0.68568 0.0
C1627 C 0.58023 0.79424 0.6894 0.0
C1628 C 0.59753 0.78664 0.67986 0.0
H1629 H 0.27051 0.80914 0.72275 0.0
H1630 H 0.21612 0.80929 0.67222 0.0
H1631 H 0.25336 0.83702 0.64628 0.0
H1632 H 0.3203 0.87559 0.71489 0.0
H1633 H 0.34671 0.86895 0.71896 0.0
H1634 H 0.31565 0.8485 0.73276 0.0
H1635 H 0.31297 0.80746 0.71345 0.0
H1636 H 0.34398 0.82782 0.69945 0.0
H1637 H 0.31557 0.8064 0.68239 0.0
H1638 H 0.29758 0.86558 0.62607 0.0
H1639 H 0.34403 0.8939 0.61481 0.0
H1640 H 0.36828 0.87455 0.67926 0.0
C1641 C 0.2663 0.81485 0.70619 0.0
C1642 C 0.24034 0.80693 0.69949 0.0
C1643 C 0.23584 0.8151 0.67773 0.0
C1644 C 0.25686 0.83078 0.66286 0.0
C1645 C 0.28224 0.83813 0.67003 0.0
C1646 C 0.28694 0.83049 0.69128 0.0
C1647 C 0.31591 0.84156 0.69544 0.0
C1648 C 0.32518 0.85973 0.71677 0.0
C1649 C 0.32248 0.81949 0.69782 0.0
C1650 C 0.32693 0.85683 0.67329 0.0
C1651 C 0.3073 0.85452 0.6587 0.0
C1652 C 0.31304 0.86741 0.63738 0.0
C1653 C 0.33949 0.88336 0.63107 0.0
C1654 C 0.35983 0.88643 0.64611 0.0
C1655 C 0.35326 0.87262 0.66731 0.0
H1656 H 0.21071 0.45515 0.72285 0.0
H1657 H 0.23225 0.42428 0.66385 0.0
H1658 H 0.2084 0.43869 0.63784 0.0
H1659 H 0.14603 0.43503 0.70389 0.0
H1660 H 0.14622 0.46361 0.71534 0.0
H1661 H 0.166 0.45191 0.7287 0.0
H1662 H 0.20721 0.49772 0.72331 0.0
H1663 H 0.18756 0.50951 0.70976 0.0
H1664 H 0.21553 0.51203 0.69479 0.0
H1665 H 0.1815 0.45674 0.61839 0.0
H1666 H 0.1515 0.47317 0.60799 0.0
H1667 H 0.14738 0.49076 0.68034 0.0
C1668 C 0.2106 0.45152 0.70444 0.0
C1669 C 0.2235 0.43872 0.69536 0.0
C1670 C 0.22252 0.43407 0.67119 0.0
C1671 C 0.20913 0.44229 0.65629 0.0
C1672 C 0.19671 0.455 0.66587 0.0
C1673 C 0.19721 0.45935 0.68944 0.0
C1674 C 0.18144 0.47229 0.69571 0.0
C1675 C 0.15857 0.45466 0.71186 0.0
C1676 C 0.19899 0.4995 0.70653 0.0
C1677 C 0.1718 0.47446 0.67201 0.0
C1678 C 0.18098 0.46469 0.65491 0.0
C1679 C 0.17427 0.46446 0.63167 0.0
C1680 C 0.15733 0.47396 0.6259 0.0
C1681 C 0.14711 0.48326 0.64334 0.0
C1682 C 0.15484 0.48379 0.66659 0.0
H1683 H 0.32995 0.8583 0.17453 0.0
H1684 H 0.35252 0.88642 0.24497 0.0
H1685 H 0.39918 0.90461 0.23442 0.0
H1686 H 0.38046 0.84066 0.16439 0.0
H1687 H 0.38456 0.85105 0.13458 0.0
H1688 H 0.35325 0.83876 0.14849 0.0
H1689 H 0.35344 0.88156 0.13771 0.0
H1690 H 0.38486 0.89413 0.12404 0.0
H1691 H 0.38054 0.91272 0.14668 0.0
H1692 H 0.44402 0.92311 0.21458 0.0
H1693 H 0.48199 0.937 0.18833 0.0
H1694 H 0.42878 0.8958 0.13156 0.0
C1695 C 0.34463 0.8679 0.18789 0.0
C1696 C 0.33758 0.87088 0.21059 0.0
C1697 C 0.35745 0.88368 0.22751 0.0
C1698 C 0.38401 0.89419 0.22163 0.0
C1699 C 0.3903 0.8915 0.19885 0.0
C1700 C 0.37106 0.87831 0.18237 0.0
C1701 C 0.38267 0.87859 0.15896 0.0
C1702 C 0.37477 0.8506 0.15115 0.0
C1703 C 0.37492 0.89259 0.14079 0.0
C1704 C 0.41153 0.89434 0.16465 0.0
C1705 C 0.41568 0.90169 0.1877 0.0
C1706 C 0.44093 0.91719 0.19657 0.0
C1707 C 0.46237 0.9251 0.18152 0.0
C1708 C 0.4584 0.91742 0.15791 0.0
C1709 C 0.43258 0.90186 0.14954 0.0
H1710 H 0.12023 0.44052 0.1671 0.0
H1711 H 0.14729 0.48069 0.23304 0.0
H1712 H 0.13443 0.513 0.22072 0.0
H1713 H 0.14347 0.49824 0.13268 0.0
H1714 H 0.11617 0.48357 0.11289 0.0
H1715 H 0.12659 0.46337 0.12749 0.0
H1716 H 0.07968 0.43433 0.14362 0.0
H1717 H 0.06915 0.45455 0.12918 0.0
H1718 H 0.06459 0.4493 0.15999 0.0
H1719 H 0.11789 0.54068 0.20079 0.0
H1720 H 0.10293 0.56334 0.17406 0.0
H1721 H 0.08848 0.50538 0.12098 0.0
C1722 C 0.12336 0.45602 0.17905 0.0
C1723 C 0.13461 0.45802 0.2011 0.0
C1724 C 0.13871 0.47882 0.21606 0.0
C1725 C 0.13135 0.49716 0.20924 0.0
C1726 C 0.12015 0.49449 0.18737 0.0
C1727 C 0.11645 0.47456 0.17244 0.0
C1728 C 0.10509 0.4765 0.14952 0.0
C1729 C 0.12396 0.48068 0.12947 0.0
C1730 C 0.07802 0.45223 0.14535 0.0
C1731 C 0.10296 0.5007 0.15378 0.0
C1732 C 0.11145 0.51068 0.17578 0.0
C1733 C 0.11125 0.53302 0.18353 0.0
C1734 C 0.10261 0.54569 0.16826 0.0
C1735 C 0.09456 0.53616 0.14541 0.0
C1736 C 0.09454 0.5132 0.1383 0.0
H1737 H 0.56804 0.65741 0.17798 0.0
H1738 H 0.52731 0.66723 0.23632 0.0
H1739 H 0.49046 0.62215 0.23028 0.0
H1740 H 0.51218 0.62175 0.14227 0.0
H1741 H 0.52307 0.60056 0.13029 0.0
H1742 H 0.54669 0.63301 0.14003 0.0
H1743 H 0.56742 0.61335 0.16719 0.0
H1744 H 0.54379 0.58081 0.15757 0.0
H1745 H 0.54713 0.58872 0.18802 0.0
H1746 H 0.45718 0.57658 0.21669 0.0
H1747 H 0.42984 0.53459 0.19632 0.0
H1748 H 0.49259 0.55457 0.14703 0.0
C1749 C 0.55148 0.65007 0.18963 0.0
C1750 C 0.55062 0.66591 0.20768 0.0
C1751 C 0.52846 0.65551 0.2224 0.0
C1752 C 0.50745 0.62989 0.21914 0.0
C1753 C 0.50892 0.61487 0.20111 0.0
C1754 C 0.53039 0.62459 0.18662 0.0
C1755 C 0.52678 0.60482 0.16805 0.0
C1756 C 0.5272 0.61569 0.14373 0.0
C1757 C 0.54751 0.59643 0.17036 0.0
C1758 C 0.49977 0.58254 0.17416 0.0
C1759 C 0.48985 0.58866 0.19336 0.0
C1760 C 0.46484 0.57152 0.20175 0.0
C1761 C 0.44945 0.54769 0.19005 0.0
C1762 C 0.45906 0.54116 0.17012 0.0
C1763 C 0.48474 0.55878 0.16235 0.0
H1764 H 0.16492 0.68244 0.70452 0.0
H1765 H 0.08636 0.65801 0.72848 0.0
H1766 H 0.07132 0.61307 0.71453 0.0
H1767 H 0.14563 0.64774 0.6526 0.0
H1768 H 0.17073 0.63882 0.65205 0.0
H1769 H 0.17645 0.668 0.66707 0.0
H1770 H 0.18697 0.65121 0.70475 0.0
H1771 H 0.1814 0.62197 0.68978 0.0
H1772 H 0.16353 0.61937 0.71591 0.0
H1773 H 0.06373 0.57198 0.69493 0.0
H1774 H 0.06395 0.53799 0.66997 0.0
H1775 H 0.14701 0.58922 0.65742 0.0
C1776 C 0.14476 0.6674 0.70741 0.0
C1777 C 0.12684 0.67357 0.7178 0.0
C1778 C 0.10041 0.65362 0.72064 0.0
C1779 C 0.0917 0.62802 0.71286 0.0
C1780 C 0.10963 0.62265 0.70213 0.0
C1781 C 0.13562 0.64174 0.69938 0.0
C1782 C 0.1502 0.6314 0.68526 0.0
C1783 C 0.1614 0.64744 0.66293 0.0
C1784 C 0.1718 0.63096 0.6998 0.0
C1785 C 0.1282 0.60383 0.68001 0.0
C1786 C 0.10507 0.59904 0.69023 0.0
C1787 C 0.0818 0.57538 0.68704 0.0
C1788 C 0.0821 0.55619 0.67281 0.0
C1789 C 0.10546 0.56088 0.66173 0.0
C1790 C 0.12884 0.58493 0.66571 0.0
H1791 H 0.34134 0.48229 0.71192 0.0
H1792 H 0.371 0.44247 0.75486 0.0
H1793 H 0.41586 0.47303 0.74125 0.0
H1794 H 0.38064 0.49062 0.66416 0.0
H1795 H 0.38582 0.52244 0.65615 0.0
H1796 H 0.35662 0.4998 0.6715 0.0
H1797 H 0.36713 0.53447 0.70363 0.0
H1798 H 0.3963 0.55734 0.68825 0.0
H1799 H 0.39847 0.54931 0.71799 0.0
H1800 H 0.45706 0.50544 0.72011 0.0
H1801 H 0.49098 0.53722 0.69354 0.0
H1802 H 0.43411 0.55526 0.66413 0.0
C1803 C 0.35733 0.48042 0.71896 0.0
C1804 C 0.35262 0.46009 0.73465 0.0
C1805 C 0.37409 0.45798 0.74297 0.0
C1806 C 0.39968 0.47526 0.73534 0.0
C1807 C 0.40355 0.49461 0.71938 0.0
C1808 C 0.38296 0.49738 0.7114 0.0
C1809 C 0.39202 0.51852 0.69304 0.0
C1810 C 0.37794 0.50715 0.66985 0.0
C1811 C 0.38826 0.54126 0.70122 0.0
C1812 C 0.42078 0.52683 0.69158 0.0
C1813 C 0.42714 0.51301 0.70704 0.0
C1814 C 0.45235 0.51658 0.70811 0.0
C1815 C 0.47149 0.53465 0.69292 0.0
C1816 C 0.4653 0.54883 0.67676 0.0
C1817 C 0.43961 0.54491 0.67634 0.0
H1818 H 0.56481 0.87918 0.66797 0.0
H1819 H 0.56129 0.89615 0.7406 0.0
H1820 H 0.53063 0.91205 0.73084 0.0
H1821 H 0.5643 0.93443 0.64484 0.0
H1822 H 0.5442 0.91698 0.62026 0.0
H1823 H 0.56501 0.90633 0.6333 0.0
H1824 H 0.525 0.85985 0.63938 0.0
H1825 H 0.50408 0.87029 0.62619 0.0
H1826 H 0.49681 0.85621 0.65481 0.0
H1827 H 0.50173 0.92837 0.71196 0.0
H1828 H 0.47544 0.94035 0.6865 0.0
H1829 H 0.49809 0.9112 0.62699 0.0
C1830 C 0.55753 0.8861 0.68192 0.0
C1831 C 0.56551 0.88651 0.70505 0.0
C1832 C 0.55535 0.89557 0.72276 0.0
C1833 C 0.53802 0.90473 0.71735 0.0
C1834 C 0.5309 0.90442 0.69421 0.0
C1835 C 0.54019 0.89503 0.67687 0.0
C1836 C 0.52975 0.8966 0.65337 0.0
C1837 C 0.55215 0.91466 0.63699 0.0
C1838 C 0.5129 0.86911 0.64283 0.0
C1839 C 0.51328 0.90861 0.66004 0.0
C1840 C 0.51417 0.91313 0.68362 0.0
C1841 C 0.5008 0.92471 0.69351 0.0
C1842 C 0.48601 0.93155 0.67892 0.0
C1843 C 0.48461 0.92663 0.65477 0.0
C1844 C 0.49855 0.91508 0.64538 0.0
H1845 H 0.23293 0.40629 0.19684 0.0
H1846 H 0.21767 0.4556 0.15113 0.0
H1847 H 0.25797 0.46716 0.12939 0.0
H1848 H 0.30048 0.4485 0.20118 0.0
H1849 H 0.30903 0.42311 0.20146 0.0
H1850 H 0.27752 0.41627 0.21192 0.0
H1851 H 0.25463 0.37755 0.18301 0.0
H1852 H 0.28613 0.38414 0.17256 0.0
H1853 H 0.26219 0.38319 0.15257 0.0
H1854 H 0.30193 0.47655 0.11472 0.0
H1855 H 0.34569 0.48197 0.10767 0.0
H1856 H 0.33233 0.42662 0.16285 0.0
C1857 C 0.23773 0.41903 0.18193 0.0
C1858 C 0.22204 0.42994 0.17565 0.0
C1859 C 0.22932 0.44694 0.15627 0.0
C1860 C 0.25219 0.45362 0.14377 0.0
C1861 C 0.26758 0.44309 0.15078 0.0
C1862 C 0.26058 0.426 0.16929 0.0
C1863 C 0.28135 0.41866 0.17407 0.0
C1864 C 0.29277 0.42715 0.19861 0.0
C1865 C 0.27042 0.38913 0.17032 0.0
C1866 C 0.30133 0.43471 0.15569 0.0
C1867 C 0.29295 0.44853 0.14233 0.0
C1868 C 0.30857 0.46558 0.1249 0.0
C1869 C 0.33344 0.4686 0.12106 0.0
C1870 C 0.34245 0.45468 0.13463 0.0
C1871 C 0.32599 0.4374 0.15204 0.0
H1872 H 0.52659 0.87349 0.18093 0.0
H1873 H 0.55992 0.88463 0.11205 0.0
H1874 H 0.57589 0.854 0.12154 0.0
H1875 H 0.57801 0.87245 0.21073 0.0
H1876 H 0.55706 0.84787 0.23131 0.0
H1877 H 0.54689 0.86915 0.21843 0.0
H1878 H 0.5041 0.82877 0.20385 0.0
H1879 H 0.51403 0.80734 0.21687 0.0
H1880 H 0.50595 0.80429 0.18648 0.0
H1881 H 0.59067 0.82388 0.14012 0.0
H1882 H 0.60076 0.79585 0.1651 0.0
H1883 H 0.55716 0.80513 0.22124 0.0
C1884 C 0.53696 0.86931 0.16767 0.0
C1885 C 0.54196 0.88145 0.14571 0.0
C1886 C 0.5557 0.87543 0.12895 0.0
C1887 C 0.56493 0.85812 0.13422 0.0
C1888 C 0.56009 0.84692 0.15627 0.0
C1889 C 0.5462 0.85215 0.17261 0.0
C1890 C 0.54407 0.8383 0.19524 0.0
C1891 C 0.5573 0.85813 0.21509 0.0
C1892 C 0.51533 0.81849 0.20093 0.0
C1893 C 0.55916 0.82459 0.18925 0.0
C1894 C 0.56831 0.82972 0.16674 0.0
C1895 C 0.5834 0.81961 0.15771 0.0
C1896 C 0.58911 0.80378 0.17204 0.0
C1897 C 0.5797 0.79819 0.19512 0.0
C1898 C 0.56454 0.80883 0.20366 0.0
H1899 H 0.20003 0.75797 0.22658 0.0
H1900 H 0.22502 0.81281 0.16924 0.0
H1901 H 0.20096 0.77568 0.14199 0.0
H1902 H 0.20484 0.70696 0.19768 0.0
H1903 H 0.17615 0.68094 0.21141 0.0
H1904 H 0.19531 0.71183 0.22609 0.0
H1905 H 0.15408 0.71645 0.23057 0.0
H1906 H 0.13476 0.68547 0.21608 0.0
H1907 H 0.13526 0.7144 0.20523 0.0
H1908 H 0.17442 0.7315 0.121 0.0
H1909 H 0.14559 0.68534 0.10879 0.0
H1910 H 0.13809 0.66067 0.18053 0.0
C1911 C 0.20048 0.76227 0.2083 0.0
C1912 C 0.21448 0.78831 0.20003 0.0
C1913 C 0.21436 0.79302 0.17597 0.0
C1914 C 0.20085 0.77204 0.16037 0.0
C1915 C 0.18747 0.74654 0.16915 0.0
C1916 C 0.18704 0.7417 0.19261 0.0
C1917 C 0.17088 0.71273 0.19789 0.0
C1918 C 0.18781 0.70253 0.20891 0.0
C1919 C 0.14735 0.70693 0.21335 0.0
C1920 C 0.16224 0.70187 0.17373 0.0
C1921 C 0.17209 0.72155 0.1573 0.0
C1922 C 0.16661 0.71599 0.13377 0.0
C1923 C 0.15032 0.6897 0.12697 0.0
C1924 C 0.13958 0.66938 0.14369 0.0
C1925 C 0.14593 0.6757 0.1673 0.0
H1926 H 0.32056 0.27689 0.11525 0.0
H1927 H 0.34967 0.26701 0.04915 0.0
H1928 H 0.38465 0.31357 0.05035 0.0
H1929 H 0.32759 0.33729 0.10377 0.0
H1930 H 0.33726 0.3503 0.13265 0.0
H1931 H 0.31736 0.31551 0.12834 0.0
H1932 H 0.35161 0.30832 0.15023 0.0
H1933 H 0.37172 0.34322 0.15455 0.0
H1934 H 0.3852 0.32516 0.1407 0.0
H1935 H 0.41198 0.36193 0.05595 0.0
H1936 H 0.42905 0.40869 0.06494 0.0
H1937 H 0.38304 0.38729 0.12791 0.0
C1938 C 0.33461 0.28431 0.10123 0.0
C1939 C 0.33243 0.26827 0.08211 0.0
C1940 C 0.35103 0.27889 0.064 0.0
C1941 C 0.37102 0.30527 0.06461 0.0
C1942 C 0.37229 0.32064 0.08354 0.0
C1943 C 0.35463 0.31051 0.10158 0.0
C1944 C 0.35862 0.33167 0.11879 0.0
C1945 C 0.33374 0.33382 0.12099 0.0
C1946 C 0.36731 0.32679 0.14247 0.0
C1947 C 0.38057 0.35558 0.10712 0.0
C1948 C 0.38844 0.34868 0.08698 0.0
C1949 C 0.40645 0.3675 0.07192 0.0
C1950 C 0.41604 0.39398 0.07717 0.0
C1951 C 0.40771 0.40143 0.09733 0.0
C1952 C 0.39038 0.38203 0.11285 0.0
H1953 H 0.63636 0.97855 0.13978 0.0
H1954 H 0.60701 0.02478 0.10653 0.0
H1955 H 0.65158 0.05565 0.09226 0.0
H1956 H 0.70057 0.03368 0.15662 0.0
H1957 H 0.71682 0.01525 0.1509 0.0
H1958 H 0.68315 0.99856 0.16016 0.0
H1959 H 0.67036 0.96863 0.12387 0.0
H1960 H 0.70388 0.98542 0.11434 0.0
H1961 H 0.67853 0.98331 0.09549 0.0
H1962 H 0.69915 0.07912 0.07844 0.0
H1963 H 0.74564 0.09453 0.06896 0.0
H1964 H 0.74269 0.03259 0.11176 0.0
C1965 C 0.63933 0.99545 0.12991 0.0
C1966 C 0.61818 0.99927 0.12436 0.0
C1967 C 0.62294 0.02155 0.11119 0.0
C1968 C 0.64819 0.03914 0.10292 0.0
C1969 C 0.66846 0.03429 0.10812 0.0
C1970 C 0.66431 0.01315 0.1216 0.0
C1971 C 0.68896 0.01153 0.12401 0.0
C1972 C 0.6979 0.01497 0.14943 0.0
C1973 C 0.6852 0.98569 0.11382 0.0
C1974 C 0.70759 0.0348 0.10949 0.0
C1975 C 0.69554 0.04777 0.10043 0.0
C1976 C 0.70884 0.06927 0.08569 0.0
C1977 C 0.73517 0.07781 0.0803 0.0
C1978 C 0.74784 0.06486 0.08969 0.0
C1979 C 0.73371 0.04311 0.10444 0.0
H1980 H 1.00525 0.72574 0.08865 0.0
H1981 H 0.92785 0.66166 0.07179 0.0
H1982 H 0.94339 0.62993 0.07831 0.0
H1983 H 0.0408 0.69868 0.06013 0.0
H1984 H 0.06658 0.71168 0.08148 0.0
H1985 H 0.04875 0.72843 0.07549 0.0
H1986 H 0.03712 0.72608 0.11908 0.0
H1987 H 0.05454 0.70894 0.12515 0.0
H1988 H 0.02065 0.69467 0.13335 0.0
H1989 H 0.96796 0.60538 0.08923 0.0
H1990 H 1.00024 0.5911 0.09775 0.0
H1991 H 0.06112 0.6724 0.10509 0.0
C1992 C 0.99156 0.70502 0.08624 0.0
C1993 C 0.96536 0.69601 0.0799 0.0
C1994 C 0.94807 0.66884 0.07657 0.0
C1995 C 0.95669 0.65076 0.08041 0.0
C1996 C 0.98267 0.66034 0.08718 0.0
C1997 C 0.9999 0.68694 0.08958 0.0
C1998 C 0.02701 0.69264 0.09612 0.0
C1999 C 0.04695 0.7088 0.07717 0.0
C2000 C 0.0353 0.70639 0.11983 0.0
C2001 C 0.02246 0.66509 0.09728 0.0
C2002 C 0.99675 0.64659 0.0924 0.0
C2003 C 0.98815 0.61976 0.09291 0.0
C2004 C 1.0065 0.61181 0.09794 0.0
C2005 C 0.03307 0.6307 0.10199 0.0
C2006 C 0.04092 0.65756 0.10193 0.0
H2007 H 0.30469 0.31299 0.4795 0.0
H2008 H 0.27797 0.35981 0.44326 0.0
H2009 H 0.32339 0.39059 0.43109 0.0
H2010 H 0.36871 0.36842 0.49849 0.0
H2011 H 0.38479 0.34955 0.49427 0.0
H2012 H 0.35075 0.33334 0.50238 0.0
H2013 H 0.33922 0.30289 0.46657 0.0
H2014 H 0.37309 0.31922 0.45815 0.0
H2015 H 0.34869 0.31717 0.43811 0.0
H2016 H 0.37128 0.41318 0.41881 0.0
H2017 H 0.41777 0.42739 0.41054 0.0
H2018 H 0.41216 0.36569 0.45537 0.0
C2019 C 0.30842 0.33007 0.46952 0.0
C2020 C 0.28775 0.33396 0.46238 0.0
C2021 C 0.2935 0.35646 0.44909 0.0
C2022 C 0.31925 0.37404 0.44201 0.0
C2023 C 0.33904 0.36901 0.44859 0.0
C2024 C 0.33394 0.34779 0.46239 0.0
C2025 C 0.35825 0.34583 0.46611 0.0
C2026 C 0.36609 0.34952 0.49184 0.0
C2027 C 0.35458 0.31974 0.45666 0.0
C2028 C 0.37769 0.36883 0.45177 0.0
C2029 C 0.36639 0.38208 0.44181 0.0
C2030 C 0.38042 0.40318 0.42682 0.0
C2031 C 0.40674 0.41103 0.42211 0.0
C2032 C 0.41863 0.39776 0.43239 0.0
C2033 C 0.40378 0.37646 0.44741 0.0
H2034 H 0.66007 0.04472 0.36796 0.0
H2035 H 0.59069 1.00594 0.41112 0.0
H2036 H 0.60531 0.976 0.42579 0.0
H2037 H 0.66444 0.98558 0.35433 0.0
H2038 H 0.6997 1.00369 0.35549 0.0
H2039 H 0.68203 0.01981 0.34655 0.0
H2040 H 0.7056 0.05491 0.37851 0.0
H2041 H 0.723 0.03871 0.3878 0.0
H2042 H 0.70349 0.0447 0.40824 0.0
H2043 H 0.63035 0.95354 0.43909 0.0
H2044 H 0.66186 0.93828 0.44713 0.0
H2045 H 0.71409 0.99188 0.39492 0.0
C2046 C 0.64756 0.0295 0.38002 0.0
C2047 C 0.6242 0.02768 0.38831 0.0
C2048 C 0.60861 1.00767 0.40438 0.0
C2049 C 0.6168 0.9906 0.41289 0.0
C2050 C 0.64047 0.99362 0.40502 0.0
C2051 C 0.6554 0.01233 0.38866 0.0
C2052 C 0.68069 0.01253 0.38387 0.0
C2053 C 0.68176 1.00494 0.35856 0.0
C2054 C 0.70459 0.0393 0.38998 0.0
C2055 C 0.67794 0.99141 0.40041 0.0
C2056 C 0.65464 0.98064 0.41248 0.0
C2057 C 0.6485 0.96159 0.42949 0.0
C2058 C 0.66654 0.95315 0.43405 0.0
C2059 C 0.69035 0.96377 0.42159 0.0
C2060 C 0.69596 0.98314 0.40461 0.0
H2061 H 0.03822 0.73335 0.41216 0.0
H2062 H 0.09819 0.74763 0.46297 0.0
H2063 H 0.09076 0.70283 0.45611 0.0
H2064 H 0.99448 0.66758 0.42778 0.0
H2065 H 0.98377 0.65691 0.3985 0.0
H2066 H 0.99513 0.6904 0.40663 0.0
H2067 H 0.02936 0.70623 0.37352 0.0
H2068 H 0.01825 0.67271 0.36543 0.0
H2069 H 0.05228 0.69449 0.37219 0.0
H2070 H 0.0753 0.65562 0.44438 0.0
H2071 H 0.05127 0.60952 0.43126 0.0
H2072 H 1.00156 0.62693 0.38821 0.0
C2073 C 0.04998 0.72722 0.42179 0.0
C2074 C 0.06888 0.74406 0.43807 0.0
C2075 C 0.08361 0.73507 0.45042 0.0
C2076 C 0.07961 0.70973 0.44653 0.0
C2077 C 0.06086 0.6937 0.43023 0.0
C2078 C 0.04622 0.70212 0.41817 0.0
C2079 C 0.02636 0.68084 0.40246 0.0
C2080 C 0.99828 0.6735 0.40926 0.0
C2081 C 0.03191 0.68907 0.37689 0.0
C2082 C 0.03178 0.65887 0.40777 0.0
C2083 C 0.05193 0.66671 0.42362 0.0
C2084 C 0.05963 0.64937 0.43185 0.0
C2085 C 0.04589 0.6232 0.42422 0.0
C2086 C 0.02454 0.61454 0.40861 0.0
C2087 C 0.01794 0.6329 0.39991 0.0
H2088 H 0.64322 0.63101 0.88843 0.0
H2089 H 0.61575 0.607 0.95867 0.0
H2090 H 0.63195 0.65312 0.96963 0.0
H2091 H 0.70192 0.68477 0.9039 0.0
H2092 H 0.70347 0.70575 0.88051 0.0
H2093 H 0.6854 0.67073 0.8769 0.0
H2094 H 0.64377 0.67274 0.86629 0.0
H2095 H 0.6618 0.70789 0.86975 0.0
H2096 H 0.63203 0.68847 0.88583 0.0
H2097 H 0.65578 0.70181 0.97429 0.0
H2098 H 0.68643 0.74961 0.97237 0.0
H2099 H 0.69955 0.74216 0.89945 0.0
C2100 C 0.63986 0.63549 0.90587 0.0
C2101 C 0.62804 0.61558 0.92267 0.0
C2102 C 0.62472 0.62209 0.94556 0.0
C2103 C 0.63373 0.64819 0.95191 0.0
C2104 C 0.64612 0.66757 0.93518 0.0
C2105 C 0.64915 0.66157 0.9126 0.0
C2106 C 0.66583 0.68626 0.89874 0.0
C2107 C 0.69062 0.6869 0.88949 0.0
C2108 C 0.6499 0.689 0.87899 0.0
C2109 C 0.67241 0.70691 0.91726 0.0
C2110 C 0.66046 0.69578 0.93804 0.0
C2111 C 0.66494 0.71083 0.95801 0.0
C2112 C 0.6824 0.73795 0.95678 0.0
C2113 C 0.69535 0.74963 0.93579 0.0
C2114 C 0.68984 0.73387 0.91574 0.0
H2115 H 0.2975 0.97112 0.96126 0.0
H2116 H 0.27626 0.92649 0.89726 0.0
H2117 H 0.32295 0.94518 0.8876 0.0
H2118 H 0.34702 0.02808 0.93784 0.0
H2119 H 0.3688 0.03776 0.9624 0.0
H2120 H 0.33408 0.01743 0.96657 0.0
H2121 H 0.3412 0.9824 0.98713 0.0
H2122 H 0.37605 1.00278 0.98323 0.0
H2123 H 0.35943 0.96949 0.97269 0.0
H2124 H 0.37134 0.97274 0.88235 0.0
H2125 H 0.41814 1.00697 0.88232 0.0
H2126 H 0.40799 0.03435 0.94929 0.0
C2127 C 0.30278 0.9646 0.94567 0.0
C2128 C 0.28338 0.94717 0.93013 0.0
C2129 C 0.29091 0.93974 0.90945 0.0
C2130 C 0.31736 0.95019 0.90384 0.0
C2131 C 0.33609 0.9681 0.91907 0.0
C2132 C 0.32919 0.97514 0.93965 0.0
C2133 C 0.35303 0.99682 0.95173 0.0
C2134 C 0.35057 0.02147 0.9548 0.0
C2135 C 0.3577 0.98729 0.97508 0.0
C2136 C 0.37417 1.00138 0.93439 0.0
C2137 C 0.36408 0.98437 0.91582 0.0
C2138 C 0.37958 0.98591 0.89697 0.0
C2139 C 0.40611 1.00546 0.89706 0.0
C2140 C 0.41676 0.02329 0.91579 0.0
C2141 C 0.40054 0.02091 0.93476 0.0
H2142 H 0.04684 0.31297 0.88654 0.0
H2143 H 0.09143 0.35813 0.94621 0.0
H2144 H 0.07704 0.3905 0.93857 0.0
H2145 H 0.05677 0.36737 0.84964 0.0
H2146 H 0.02379 0.34982 0.83854 0.0
H2147 H 0.03991 0.33211 0.84736 0.0
H2148 H 1.00168 0.304 0.87543 0.0
H2149 H 0.9854 0.32146 0.86659 0.0
H2150 H 0.99233 0.3201 0.89682 0.0
H2151 H 0.05605 0.41685 0.92477 0.0
H2152 H 0.02682 0.43198 0.90936 0.0
H2153 H 0.99468 0.36763 0.86005 0.0
C2154 C 0.05402 0.3299 0.89783 0.0
C2155 C 0.07054 0.33327 0.91681 0.0
C2156 C 0.07887 0.3553 0.9315 0.0
C2157 C 0.07092 0.3738 0.92719 0.0
C2158 C 0.05453 0.36979 0.90826 0.0
C2159 C 0.046 0.34818 0.894 0.0
C2160 C 0.02663 0.34683 0.87611 0.0
C2161 C 0.03743 0.34918 0.85145 0.0
C2162 C 0.99994 0.32161 0.87892 0.0
C2163 C 0.02517 0.3709 0.88267 0.0
C2164 C 0.04177 0.38421 0.90095 0.0
C2165 C 0.04311 0.40663 0.9104 0.0
C2166 C 0.02649 0.41514 0.90144 0.0
C2167 C 1.00845 0.40097 0.88346 0.0
C2168 C 1.00832 0.37895 0.87369 0.0
H2169 H 0.74097 0.7264 0.62359 0.0
H2170 H 0.74394 0.67345 0.5729 0.0
H2171 H 0.69908 0.63933 0.58414 0.0
H2172 H 0.70418 0.67771 0.66759 0.0
H2173 H 0.68564 0.69316 0.67584 0.0
H2174 H 0.71837 0.7127 0.66467 0.0
H2175 H 0.70121 0.73118 0.6327 0.0
H2176 H 0.66853 0.71192 0.6439 0.0
H2177 H 0.67508 0.70877 0.61392 0.0
H2178 H 0.65309 0.61189 0.59991 0.0
H2179 H 0.60911 0.59433 0.61696 0.0
H2180 H 0.63694 0.66564 0.65738 0.0
C2181 C 0.73234 0.70759 0.6149 0.0
C2182 C 0.746 0.70256 0.59738 0.0
C2183 C 0.73384 0.67773 0.58636 0.0
C2184 C 0.70844 0.65822 0.59272 0.0
C2185 C 0.6956 0.66387 0.61015 0.0
C2186 C 0.70715 0.68802 0.62099 0.0
C2187 C 0.68885 0.68976 0.63837 0.0
C2188 C 0.69993 0.69355 0.66308 0.0
C2189 C 0.68308 0.7117 0.63182 0.0
C2190 C 0.66493 0.66292 0.63538 0.0
C2191 C 0.66927 0.64817 0.6192 0.0
C2192 C 0.64958 0.6232 0.61273 0.0
C2193 C 0.62466 0.61338 0.62256 0.0
C2194 C 0.61958 0.62855 0.63863 0.0
C2195 C 0.64024 0.65337 0.64547 0.0
H2196 H 0.3081 0.03321 0.61026 0.0
H2197 H 0.3601 0.08645 0.55777 0.0
H2198 H 0.39287 0.0733 0.56757 0.0
H2199 H 0.35747 0.04307 0.65232 0.0
H2200 H 0.34086 1.00912 0.66099 0.0
H2201 H 0.3223 0.02367 0.65046 0.0
H2202 H 0.30098 0.98753 0.61897 0.0
H2203 H 0.31922 0.97272 0.62957 0.0
H2204 H 0.32163 0.98198 0.59953 0.0
H2205 H 0.41949 0.05328 0.5831 0.0
H2206 H 0.43572 0.02557 0.60007 0.0
H2207 H 0.36537 0.98553 0.64187 0.0
C2208 C 0.32642 0.04228 0.60085 0.0
C2209 C 0.33162 0.06096 0.58331 0.0
C2210 C 0.35572 0.07208 0.57126 0.0
C2211 C 0.37448 0.06485 0.57681 0.0
C2212 C 0.36873 0.04649 0.59441 0.0
C2213 C 0.34515 0.03523 0.60607 0.0
C2214 C 0.34298 0.01504 0.62344 0.0
C2215 C 0.34078 0.02323 0.64827 0.0
C2216 C 0.31984 0.98771 0.61751 0.0
C2217 C 0.36894 0.01637 0.61962 0.0
C2218 C 0.38371 0.03483 0.60303 0.0
C2219 C 0.40811 0.03888 0.59617 0.0
C2220 C 0.41723 0.02313 0.60602 0.0
C2221 C 0.40184 1.00339 0.62237 0.0
C2222 C 0.37769 1.00052 0.62955 0.0
H2223 H 0.06836 0.39756 0.59862 0.0
H2224 H 1.00621 0.41637 0.60312 0.0
H2225 H 0.97396 0.3708 0.59139 0.0
H2226 H 0.045 0.35693 0.54885 0.0
H2227 H 0.05483 0.33422 0.55901 0.0
H2228 H 0.07252 0.36795 0.56823 0.0
H2229 H 0.06445 0.3534 0.61126 0.0
H2230 H 0.04708 0.31962 0.60218 0.0
H2231 H 0.03147 0.33198 0.62115 0.0
H2232 H 0.94886 0.32266 0.57752 0.0
H2233 H 0.93321 0.2763 0.56666 0.0
H2234 H 1.01271 0.29085 0.57193 0.0
C2235 C 0.04795 0.39214 0.5973 0.0
C2236 C 0.03977 0.4105 0.60174 0.0
C2237 C 1.01286 0.40253 0.59991 0.0
C2238 C 0.99446 0.37677 0.59312 0.0
C2239 C 1.00336 0.35929 0.58839 0.0
C2240 C 0.02948 0.36668 0.5907 0.0
C2241 C 0.03432 0.34446 0.58494 0.0
C2242 C 0.05275 0.35131 0.56401 0.0
C2243 C 0.04494 0.33692 0.60615 0.0
C2244 C 1.00685 0.32328 0.57895 0.0
C2245 C 0.98916 0.33207 0.58083 0.0
C2246 C 0.96258 0.31562 0.57607 0.0
C2247 C 0.95388 0.2894 0.56976 0.0
C2248 C 0.97174 0.28 0.56849 0.0
C2249 C 0.99854 0.29739 0.57282 0.0
H2250 H 0.97784 0.65809 0.81473 0.0
H2251 H 0.95059 0.70244 0.77521 0.0
H2252 H 0.99577 0.73224 0.76189 0.0
H2253 H 0.04251 0.71486 0.83121 0.0
H2254 H 0.05837 0.69561 0.82842 0.0
H2255 H 0.02455 0.68015 0.83712 0.0
H2256 H 1.01199 0.64706 0.8032 0.0
H2257 H 0.04563 0.66259 0.79422 0.0
H2258 H 0.02082 0.65918 0.77401 0.0
H2259 H 0.04313 0.75324 0.7484 0.0
H2260 H 0.08901 0.76577 0.73909 0.0
H2261 H 0.08451 0.70821 0.78852 0.0
C2262 C 0.98144 0.67448 0.80379 0.0
C2263 C 0.96066 0.67791 0.79605 0.0
C2264 C 0.96621 0.69949 0.78152 0.0
C2265 C 0.99182 0.7165 0.77379 0.0
C2266 C 1.01171 0.71191 0.78102 0.0
C2267 C 1.00684 0.6917 0.79606 0.0
C2268 C 0.03117 0.6899 0.80023 0.0
C2269 C 0.03965 0.69547 0.82576 0.0
C2270 C 0.02715 0.6631 0.79244 0.0
C2271 C 0.05031 0.71173 0.78467 0.0
C2272 C 0.03887 0.72431 0.77372 0.0
C2273 C 0.05244 0.74387 0.75724 0.0
C2274 C 0.0784 0.75077 0.75197 0.0
C2275 C 0.09041 0.73817 0.76323 0.0
C2276 C 0.0761 0.71857 0.77986 0.0
H2277 H 0.31148 0.36404 0.7201 0.0
H2278 H 0.2412 0.30492 0.75459 0.0
H2279 H 0.26392 0.2808 0.76508 0.0
H2280 H 0.33335 0.31915 0.69814 0.0
H2281 H 0.36732 0.34289 0.70314 0.0
H2282 H 0.34446 0.35371 0.69623 0.0
H2283 H 0.35807 0.38194 0.73362 0.0
H2284 H 0.38065 0.37092 0.74084 0.0
H2285 H 0.35561 0.36652 0.76119 0.0
H2286 H 0.29592 0.26559 0.77534 0.0
H2287 H 0.33366 0.25883 0.78169 0.0
H2288 H 0.38244 0.32791 0.74034 0.0
C2289 C 0.30059 0.34566 0.72931 0.0
C2290 C 0.2745 0.33635 0.73643 0.0
C2291 C 0.26116 0.31242 0.74883 0.0
C2292 C 0.27392 0.29858 0.75494 0.0
C2293 C 0.29996 0.30884 0.74839 0.0
C2294 C 0.31302 0.33164 0.73557 0.0
C2295 C 0.34131 0.33927 0.7317 0.0
C2296 C 0.34693 0.33871 0.70576 0.0
C2297 C 0.36 0.36625 0.74248 0.0
C2298 C 0.34225 0.31746 0.74468 0.0
C2299 C 0.31825 0.30005 0.75419 0.0
C2300 C 0.31474 0.27891 0.76772 0.0
C2301 C 0.33629 0.27531 0.77136 0.0
C2302 C 0.36095 0.29276 0.76145 0.0
C2303 C 0.36381 0.31408 0.74801 0.0
H2304 H 0.67107 0.95396 0.72146 0.0
H2305 H 0.72128 0.93759 0.76485 0.0
H2306 H 0.74582 0.98409 0.77673 0.0
H2307 H 0.72192 0.02078 0.70359 0.0
H2308 H 0.69916 0.03273 0.70454 0.0
H2309 H 0.68773 0.99889 0.69747 0.0
H2310 H 0.6539 0.98445 0.7308 0.0
H2311 H 0.66546 0.01818 0.7382 0.0
H2312 H 0.66505 0.99594 0.75984 0.0
H2313 H 0.7619 0.03166 0.78714 0.0
H2314 H 0.76994 0.07683 0.79283 0.0
H2315 H 0.70915 0.06147 0.74256 0.0
C2316 C 0.68767 0.96024 0.73296 0.0
C2317 C 0.69427 0.94207 0.74213 0.0
C2318 C 0.71588 0.95112 0.75748 0.0
C2319 C 0.72994 0.97752 0.76439 0.0
C2320 C 0.72228 0.99471 0.75569 0.0
C2321 C 0.70187 0.98649 0.74006 0.0
C2322 C 0.69658 1.00846 0.73425 0.0
C2323 C 0.70166 0.01564 0.70843 0.0
C2324 C 0.66859 1.00132 0.74119 0.0
C2325 C 0.7168 0.03014 0.74941 0.0
C2326 C 0.73153 0.02194 0.76162 0.0
C2327 C 0.75069 0.03839 0.77744 0.0
C2328 C 0.75504 0.06395 0.78066 0.0
C2329 C 0.74027 0.07275 0.76811 0.0
C2330 C 0.72094 0.05548 0.75233 0.0
H2331 H 0.34524 0.95996 0.24394 0.0
H2332 H 0.26405 0.94055 0.24678 0.0
H2333 H 0.27833 0.98662 0.25763 0.0
H2334 H 0.36749 1.00207 0.29226 0.0
H2335 H 0.39878 0.02464 0.2797 0.0
H2336 H 0.38204 0.99069 0.27112 0.0
H2337 H 0.38385 1.00401 0.22805 0.0
H2338 H 0.40101 0.03803 0.23645 0.0
H2339 H 0.37117 0.02507 0.21988 0.0
H2340 H 0.30255 0.03512 0.27066 0.0
H2341 H 0.33408 0.08166 0.2803 0.0
H2342 H 0.39844 0.06742 0.26819 0.0
C2343 C 0.3304 0.96539 0.24658 0.0
C2344 C 0.30355 0.94673 0.24453 0.0
C2345 C 0.28476 0.95466 0.24808 0.0
C2346 C 0.2927 0.9807 0.25441 0.0
C2347 C 0.31944 0.99846 0.2569 0.0
C2348 C 0.33794 0.99111 0.25273 0.0
C2349 C 0.36543 0.01355 0.2565 0.0
C2350 C 0.37923 1.00736 0.27606 0.0
C2351 C 0.38129 0.02058 0.23387 0.0
C2352 C 0.35966 0.03479 0.26362 0.0
C2353 C 0.33308 0.02587 0.26394 0.0
C2354 C 0.32339 0.04229 0.27032 0.0
C2355 C 0.34139 0.0686 0.27593 0.0
C2356 C 0.36867 0.07811 0.27493 0.0
C2357 C 0.37771 0.06078 0.269 0.0
H2358 H 0.97053 0.34422 0.29384 0.0
H2359 H 0.94405 0.26236 0.27943 0.0
H2360 H 0.98875 0.27455 0.26643 0.0
H2361 H 1.01122 0.3702 0.24533 0.0
H2362 H 0.03603 0.39886 0.26017 0.0
H2363 H 1.00257 0.38335 0.26979 0.0
H2364 H 0.01672 0.37812 0.31107 0.0
H2365 H 0.05029 0.39397 0.30166 0.0
H2366 H 0.03554 0.36193 0.31476 0.0
H2367 H 0.03633 0.29704 0.25176 0.0
H2368 H 0.08273 0.32706 0.24077 0.0
H2369 H 0.0765 0.39315 0.26587 0.0
C2370 C 0.97415 0.32874 0.28832 0.0
C2371 C 0.95382 0.30235 0.28769 0.0
C2372 C 0.95941 0.28272 0.28025 0.0
C2373 C 0.98469 0.28947 0.2727 0.0
C2374 C 1.00412 0.31587 0.2729 0.0
C2375 C 0.99913 0.33509 0.28087 0.0
C2376 C 0.02296 0.36208 0.279 0.0
C2377 C 0.01788 0.37964 0.2626 0.0
C2378 C 0.03191 0.37476 0.30306 0.0
C2379 C 0.04223 0.35517 0.26864 0.0
C2380 C 0.03112 0.32851 0.26502 0.0
C2381 C 0.04525 0.31793 0.25476 0.0
C2382 C 0.07149 0.33507 0.24845 0.0
C2383 C 0.08321 0.36234 0.25265 0.0
C2384 C 0.06821 0.37234 0.26271 0.0
H2385 H 0.72184 0.66715 0.29373 0.0
H2386 H 0.78422 0.71443 0.24541 0.0
H2387 H 0.76031 0.73681 0.2332 0.0
H2388 H 0.67053 0.65592 0.25778 0.0
H2389 H 0.65006 0.65772 0.28003 0.0
H2390 H 0.67356 0.64793 0.28734 0.0
H2391 H 0.69466 0.68513 0.31789 0.0
H2392 H 0.67093 0.69481 0.31094 0.0
H2393 H 0.7054 0.71845 0.30939 0.0
H2394 H 0.72694 0.75027 0.22292 0.0
H2395 H 0.68834 0.75587 0.21772 0.0
H2396 H 0.64836 0.69977 0.27287 0.0
C2397 C 0.73087 0.68272 0.28105 0.0
C2398 C 0.75497 0.68905 0.27059 0.0
C2399 C 0.76585 0.70929 0.25379 0.0
C2400 C 0.75238 0.72209 0.24668 0.0
C2401 C 0.72816 0.71462 0.25668 0.0
C2402 C 0.7177 0.69567 0.27376 0.0
C2403 C 0.69069 0.69006 0.28078 0.0
C2404 C 0.67 0.6612 0.2762 0.0
C2405 C 0.69041 0.69757 0.30626 0.0
C2406 C 0.68728 0.7083 0.26457 0.0
C2407 C 0.70911 0.72242 0.25085 0.0
C2408 C 0.70988 0.73958 0.23381 0.0
C2409 C 0.68784 0.74253 0.23088 0.0
C2410 C 0.66537 0.72834 0.24492 0.0
C2411 C 0.66528 0.71108 0.26195 0.0
loop_
_geom_bond_atom_site_label_1
_geom_bond_atom_site_label_2
_geom_bond_distance
_geom_bond_site_symmetry_2
_ccdc_geom_bond_type
Mg0 O7 2.141 . S
Mg0 O8 2.048 . S
Mg0 O9 2.048 . S
Mg0 O12 2.141 . S
C1 O2 1.313 . S
C1 O8 1.195 . S
O2 C1 1.313 . S
C3 O4 1.245 . S
C3 O12 1.289 . S
O4 C3 1.245 . S
C5 O6 1.245 . S
C5 O7 1.289 . S
O6 C5 1.245 . S
O7 Mg0 2.141 . S
O7 C5 1.289 . S
O8 Mg0 2.048 . S
O8 C1 1.195 . S
O9 Mg0 2.048 . S
O9 C10 1.195 . S
C10 O9 1.195 . S
C10 O11 1.313 . S
O11 C10 1.313 . S
O12 Mg0 2.141 . S
O12 C3 1.289 . S
Mg13 O20 2.141 . S
Mg13 O21 2.048 . S
Mg13 O22 2.048 . S
Mg13 O25 2.141 . S
C14 O15 1.313 . S
C14 O21 1.195 . S
O15 C14 1.313 . S
C16 O17 1.245 . S
C16 O25 1.289 . S
O17 C16 1.245 . S
C18 O19 1.245 . S
C18 O20 1.289 . S
O19 C18 1.245 . S
O20 Mg13 2.141 . S
O20 C18 1.289 . S
O21 Mg13 2.048 . S
O21 C14 1.195 . S
O22 Mg13 2.048 . S
O22 C23 1.195 . S
C23 O22 1.195 . S
C23 O24 1.313 . S
O24 C23 1.313 . S
O25 Mg13 2.141 . S
O25 C16 1.289 . S
Mg26 O33 2.141 . S
Mg26 O34 2.048 . S
Mg26 O35 2.048 . S
Mg26 O38 2.141 . S
C27 O28 1.313 . S
C27 O34 1.195 . S
O28 C27 1.313 . S
C29 O30 1.245 . S
C29 O38 1.289 . S
O30 C29 1.245 . S
C31 O32 1.245 . S
C31 O33 1.289 . S
O32 C31 1.245 . S
O33 Mg26 2.141 . S
O33 C31 1.289 . S
O34 Mg26 2.048 . S
O34 C27 1.195 . S
O35 Mg26 2.048 . S
O35 C36 1.195 . S
C36 O35 1.195 . S
C36 O37 1.313 . S
O37 C36 1.313 . S
O38 Mg26 2.141 . S
O38 C29 1.289 . S
Mg39 O46 2.141 . S
Mg39 O47 2.048 . S
Mg39 O48 2.048 . S
Mg39 O51 2.141 . S
C40 O41 1.313 . S
C40 O47 1.195 . S
O41 C40 1.313 . S
C42 O43 1.245 . S
C42 O51 1.289 . S
O43 C42 1.245 . S
C44 O45 1.245 . S
C44 O46 1.289 . S
O45 C44 1.245 . S
O46 Mg39 2.141 . S
O46 C44 1.289 . S
O47 Mg39 2.048 . S
O47 C40 1.195 . S
O48 Mg39 2.048 . S
O48 C49 1.195 . S
C49 O48 1.195 . S
C49 O50 1.313 . S
O50 C49 1.313 . S
O51 Mg39 2.141 . S
O51 C42 1.289 . S
Mg52 O59 2.141 . S
Mg52 O60 2.048 . S
Mg52 O61 2.048 . S
Mg52 O64 2.141 . S
C53 O54 1.313 . S
C53 O60 1.195 . S
O54 C53 1.313 . S
C55 O56 1.245 . S
C55 O64 1.289 . S
O56 C55 1.245 . S
C57 O58 1.245 . S
C57 O59 1.289 . S
O58 C57 1.245 . S
O59 Mg52 2.141 . S
O59 C57 1.289 . S
O60 Mg52 2.048 . S
O60 C53 1.195 . S
O61 Mg52 2.048 . S
O61 C62 1.195 . S
C62 O61 1.195 . S
C62 O63 1.313 . S
O63 C62 1.313 . S
O64 Mg52 2.141 . S
O64 C55 1.289 . S
Mg65 O72 2.141 . S
Mg65 O73 2.048 . S
Mg65 O74 2.048 . S
Mg65 O77 2.141 . S
C66 O67 1.313 . S
C66 O73 1.195 . S
O67 C66 1.313 . S
C68 O69 1.245 . S
C68 O77 1.289 . S
O69 C68 1.245 . S
C70 O71 1.245 . S
C70 O72 1.289 . S
O71 C70 1.245 . S
O72 Mg65 2.141 . S
O72 C70 1.289 . S
O73 Mg65 2.048 . S
O73 C66 1.195 . S
O74 Mg65 2.048 . S
O74 C75 1.195 . S
C75 O74 1.195 . S
C75 O76 1.313 . S
O76 C75 1.313 . S
O77 Mg65 2.141 . S
O77 C68 1.289 . S
Mg78 O85 2.141 . S
Mg78 O86 2.048 . S
Mg78 O87 2.048 . S
Mg78 O90 2.141 . S
C79 O80 1.313 . S
C79 O86 1.195 . S
O80 C79 1.313 . S
C81 O82 1.245 . S
C81 O90 1.289 . S
O82 C81 1.245 . S
C83 O84 1.245 . S
C83 O85 1.289 . S
O84 C83 1.245 . S
O85 Mg78 2.141 . S
O85 C83 1.289 . S
O86 Mg78 2.048 . S
O86 C79 1.195 . S
O87 Mg78 2.048 . S
O87 C88 1.195 . S
C88 O87 1.195 . S
C88 O89 1.313 . S
O89 C88 1.313 . S
O90 Mg78 2.141 . S
O90 C81 1.289 . S
Mg91 O98 2.141 . S
Mg91 O99 2.048 . S
Mg91 O100 2.048 . S
Mg91 O103 2.141 . S
C92 O93 1.313 . S
C92 O99 1.195 . S
O93 C92 1.313 . S
C94 O95 1.245 . S
C94 O103 1.289 . S
O95 C94 1.245 . S
C96 O97 1.245 . S
C96 O98 1.289 . S
O97 C96 1.245 . S
O98 Mg91 2.141 . S
O98 C96 1.289 . S
O99 Mg91 2.048 . S
O99 C92 1.195 . S
O100 Mg91 2.048 . S
O100 C101 1.195 . S
C101 O100 1.195 . S
C101 O102 1.313 . S
O102 C101 1.313 . S
O103 Mg91 2.141 . S
O103 C94 1.289 . S
Mg104 O111 2.141 . S
Mg104 O112 2.048 . S
Mg104 O113 2.048 . S
Mg104 O116 2.141 . S
C105 O106 1.313 . S
C105 O112 1.195 . S
O106 C105 1.313 . S
C107 O108 1.245 . S
C107 O116 1.289 . S
O108 C107 1.245 . S
C109 O110 1.245 . S
C109 O111 1.289 . S
O110 C109 1.245 . S
O111 Mg104 2.141 . S
O111 C109 1.289 . S
O112 Mg104 2.048 . S
O112 C105 1.195 . S
O113 Mg104 2.048 . S
O113 C114 1.195 . S
C114 O113 1.195 . S
C114 O115 1.313 . S
O115 C114 1.313 . S
O116 Mg104 2.141 . S
O116 C107 1.289 . S
Mg117 O124 2.141 . S
Mg117 O125 2.048 . S
Mg117 O126 2.048 . S
Mg117 O129 2.141 . S
C118 O119 1.313 . S
C118 O125 1.195 . S
O119 C118 1.313 . S
C120 O121 1.245 . S
C120 O129 1.289 . S
O121 C120 1.245 . S
C122 O123 1.245 . S
C122 O124 1.289 . S
O123 C122 1.245 . S
O124 Mg117 2.141 . S
O124 C122 1.289 . S
O125 Mg117 2.048 . S
O125 C118 1.195 . S
O126 Mg117 2.048 . S
O126 C127 1.195 . S
C127 O126 1.195 . S
C127 O128 1.313 . S
O128 C127 1.313 . S
O129 Mg117 2.141 . S
O129 C120 1.289 . S
Mg130 O137 2.141 . S
Mg130 O138 2.048 . S
Mg130 O139 2.048 . S
Mg130 O142 2.141 . S
C131 O132 1.313 . S
C131 O138 1.195 . S
O132 C131 1.313 . S
C133 O134 1.245 . S
C133 O142 1.289 . S
O134 C133 1.245 . S
C135 O136 1.245 . S
C135 O137 1.289 . S
O136 C135 1.245 . S
O137 Mg130 2.141 . S
O137 C135 1.289 . S
O138 Mg130 2.048 . S
O138 C131 1.195 . S
O139 Mg130 2.048 . S
O139 C140 1.195 . S
C140 O139 1.195 . S
C140 O141 1.313 . S
O141 C140 1.313 . S
O142 Mg130 2.141 . S
O142 C133 1.289 . S
Mg143 O150 2.141 . S
Mg143 O151 2.048 . S
Mg143 O152 2.048 . S
Mg143 O155 2.141 . S
C144 O145 1.313 . S
C144 O151 1.195 . S
O145 C144 1.313 . S
C146 O147 1.245 . S
C146 O155 1.289 . S
O147 C146 1.245 . S
C148 O149 1.245 . S
C148 O150 1.289 . S
O149 C148 1.245 . S
O150 Mg143 2.141 . S
O150 C148 1.289 . S
O151 Mg143 2.048 . S
O151 C144 1.195 . S
O152 Mg143 2.048 . S
O152 C153 1.195 . S
C153 O152 1.195 . S
C153 O154 1.313 . S
O154 C153 1.313 . S
O155 Mg143 2.141 . S
O155 C146 1.289 . S
Mg156 O163 2.141 . S
Mg156 O164 2.048 . S
Mg156 O165 2.048 . S
Mg156 O168 2.141 . S
C157 O158 1.313 . S
C157 O164 1.195 . S
O158 C157 1.313 . S
C159 O160 1.245 . S
C159 O168 1.289 . S
O160 C159 1.245 . S
C161 O162 1.245 . S
C161 O163 1.289 . S
O162 C161 1.245 . S
O163 Mg156 2.141 . S
O163 C161 1.289 . S
O164 Mg156 2.048 . S
O164 C157 1.195 . S
O165 Mg156 2.048 . S
O165 C166 1.195 . S
C166 O165 1.195 . S
C166 O167 1.313 . S
O167 C166 1.313 . S
O168 Mg156 2.141 . S
O168 C159 1.289 . S
Mg169 O176 2.141 . S
Mg169 O177 2.048 . S
Mg169 O178 2.048 . S
Mg169 O181 2.141 . S
C170 O171 1.313 . S
C170 O177 1.195 . S
O171 C170 1.313 . S
C172 O173 1.245 . S
C172 O181 1.289 . S
O173 C172 1.245 . S
C174 O175 1.245 . S
C174 O176 1.289 . S
O175 C174 1.245 . S
O176 Mg169 2.141 . S
O176 C174 1.289 . S
O177 Mg169 2.048 . S
O177 C170 1.195 . S
O178 Mg169 2.048 . S
O178 C179 1.195 . S
C179 O178 1.195 . S
C179 O180 1.313 . S
O180 C179 1.313 . S
O181 Mg169 2.141 . S
O181 C172 1.289 . S
Mg182 O189 2.141 . S
Mg182 O190 2.048 . S
Mg182 O191 2.048 . S
Mg182 O194 2.141 . S
C183 O184 1.313 . S
C183 O190 1.195 . S
O184 C183 1.313 . S
C185 O186 1.245 . S
C185 O194 1.289 . S
O186 C185 1.245 . S
C187 O188 1.245 . S
C187 O189 1.289 . S
O188 C187 1.245 . S
O189 Mg182 2.141 . S
O189 C187 1.289 . S
O190 Mg182 2.048 . S
O190 C183 1.195 . S
O191 Mg182 2.048 . S
O191 C192 1.195 . S
C192 O191 1.195 . S
C192 O193 1.313 . S
O193 C192 1.313 . S
O194 Mg182 2.141 . S
O194 C185 1.289 . S
Mg195 O202 2.141 . S
Mg195 O203 2.048 . S
Mg195 O204 2.048 . S
Mg195 O207 2.141 . S
C196 O197 1.313 . S
C196 O203 1.195 . S
O197 C196 1.313 . S
C198 O199 1.245 . S
C198 O207 1.289 . S
O199 C198 1.245 . S
C200 O201 1.245 . S
C200 O202 1.289 . S
O201 C200 1.245 . S
O202 Mg195 2.141 . S
O202 C200 1.289 . S
O203 Mg195 2.048 . S
O203 C196 1.195 . S
O204 Mg195 2.048 . S
O204 C205 1.195 . S
C205 O204 1.195 . S
C205 O206 1.313 . S
O206 C205 1.313 . S
O207 Mg195 2.141 . S
O207 C198 1.289 . S
Mg208 O215 2.141 . S
Mg208 O216 2.048 . S
Mg208 O217 2.048 . S
Mg208 O220 2.141 . S
C209 O210 1.313 . S
C209 O216 1.195 . S
O210 C209 1.313 . S
C211 O212 1.245 . S
C211 O220 1.289 . S
O212 C211 1.245 . S
C213 O214 1.245 . S
C213 O215 1.289 . S
O214 C213 1.245 . S
O215 Mg208 2.141 . S
O215 C213 1.289 . S
O216 Mg208 2.048 . S
O216 C209 1.195 . S
O217 Mg208 2.048 . S
O217 C218 1.195 . S
C218 O217 1.195 . S
C218 O219 1.313 . S
O219 C218 1.313 . S
O220 Mg208 2.141 . S
O220 C211 1.289 . S
Mg221 O228 2.141 . S
Mg221 O229 2.048 . S
Mg221 O230 2.048 . S
Mg221 O233 2.141 . S
C222 O223 1.313 . S
C222 O229 1.195 . S
O223 C222 1.313 . S
C224 O225 1.245 . S
C224 O233 1.289 . S
O225 C224 1.245 . S
C226 O227 1.245 . S
C226 O228 1.289 . S
O227 C226 1.245 . S
O228 Mg221 2.141 . S
O228 C226 1.289 . S
O229 Mg221 2.048 . S
O229 C222 1.195 . S
O230 Mg221 2.048 . S
O230 C231 1.195 . S
C231 O230 1.195 . S
C231 O232 1.313 . S
O232 C231 1.313 . S
O233 Mg221 2.141 . S
O233 C224 1.289 . S
Mg234 O241 2.141 . S
Mg234 O242 2.048 . S
Mg234 O243 2.048 . S
Mg234 O246 2.141 . S
C235 O236 1.313 . S
C235 O242 1.195 . S
O236 C235 1.313 . S
C237 O238 1.245 . S
C237 O246 1.289 . S
O238 C237 1.245 . S
C239 O240 1.245 . S
C239 O241 1.289 . S
O240 C239 1.245 . S
O241 Mg234 2.141 . S
O241 C239 1.289 . S
O242 Mg234 2.048 . S
O242 C235 1.195 . S
O243 Mg234 2.048 . S
O243 C244 1.195 . S
C244 O243 1.195 . S
C244 O245 1.313 . S
O245 C244 1.313 . S
O246 Mg234 2.141 . S
O246 C237 1.289 . S
Mg247 O254 2.141 . S
Mg247 O255 2.048 . S
Mg247 O256 2.048 . S
Mg247 O259 2.141 . S
C248 O249 1.313 . S
C248 O255 1.195 . S
O249 C248 1.313 . S
C250 O251 1.245 . S
C250 O259 1.289 . S
O251 C250 1.245 . S
C252 O253 1.245 . S
C252 O254 1.289 . S
O253 C252 1.245 . S
O254 Mg247 2.141 . S
O254 C252 1.289 . S
O255 Mg247 2.048 . S
O255 C248 1.195 . S
O256 Mg247 2.048 . S
O256 C257 1.195 . S
C257 O256 1.195 . S
C257 O258 1.313 . S
O258 C257 1.313 . S
O259 Mg247 2.141 . S
O259 C250 1.289 . S
Mg260 O267 2.141 . S
Mg260 O268 2.048 . S
Mg260 O269 2.048 . S
Mg260 O272 2.141 . S
C261 O262 1.313 . S
C261 O268 1.195 . S
O262 C261 1.313 . S
C263 O264 1.245 . S
C263 O272 1.289 . S
O264 C263 1.245 . S
C265 O266 1.245 . S
C265 O267 1.289 . S
O266 C265 1.245 . S
O267 Mg260 2.141 . S
O267 C265 1.289 . S
O268 Mg260 2.048 . S
O268 C261 1.195 . S
O269 Mg260 2.048 . S
O269 C270 1.195 . S
C270 O269 1.195 . S
C270 O271 1.313 . S
O271 C270 1.313 . S
O272 Mg260 2.141 . S
O272 C263 1.289 . S
Mg273 O280 2.141 . S
Mg273 O281 2.048 . S
Mg273 O282 2.048 . S
Mg273 O285 2.141 . S
C274 O275 1.313 . S
C274 O281 1.195 . S
O275 C274 1.313 . S
C276 O277 1.245 . S
C276 O285 1.289 . S
O277 C276 1.245 . S
C278 O279 1.245 . S
C278 O280 1.289 . S
O279 C278 1.245 . S
O280 Mg273 2.141 . S
O280 C278 1.289 . S
O281 Mg273 2.048 . S
O281 C274 1.195 . S
O282 Mg273 2.048 . S
O282 C283 1.195 . S
C283 O282 1.195 . S
C283 O284 1.313 . S
O284 C283 1.313 . S
O285 Mg273 2.141 . S
O285 C276 1.289 . S
Mg286 O293 2.141 . S
Mg286 O294 2.048 . S
Mg286 O295 2.048 . S
Mg286 O298 2.141 . S
C287 O288 1.313 . S
C287 O294 1.195 . S
O288 C287 1.313 . S
C289 O290 1.245 . S
C289 O298 1.289 . S
O290 C289 1.245 . S
C291 O292 1.245 . S
C291 O293 1.289 . S
O292 C291 1.245 . S
O293 Mg286 2.141 . S
O293 C291 1.289 . S
O294 Mg286 2.048 . S
O294 C287 1.195 . S
O295 Mg286 2.048 . S
O295 C296 1.195 . S
C296 O295 1.195 . S
C296 O297 1.313 . S
O297 C296 1.313 . S
O298 Mg286 2.141 . S
O298 C289 1.289 . S
Mg299 O306 2.141 . S
Mg299 O307 2.048 . S
Mg299 O308 2.048 . S
Mg299 O311 2.141 . S
C300 O301 1.313 . S
C300 O307 1.195 . S
O301 C300 1.313 . S
C302 O303 1.245 . S
C302 O311 1.289 . S
O303 C302 1.245 . S
C304 O305 1.245 . S
C304 O306 1.289 . S
O305 C304 1.245 . S
O306 Mg299 2.141 . S
O306 C304 1.289 . S
O307 Mg299 2.048 . S
O307 C300 1.195 . S
O308 Mg299 2.048 . S
O308 C309 1.195 . S
C309 O308 1.195 . S
C309 O310 1.313 . S
O310 C309 1.313 . S
O311 Mg299 2.141 . S
O311 C302 1.289 . S
Mg312 O319 2.141 . S
Mg312 O320 2.048 . S
Mg312 O321 2.048 . S
Mg312 O324 2.141 . S
C313 O314 1.313 . S
C313 O320 1.195 . S
O314 C313 1.313 . S
C315 O316 1.245 . S
C315 O324 1.289 . S
O316 C315 1.245 . S
C317 O318 1.245 . S
C317 O319 1.289 . S
O318 C317 1.245 . S
O319 Mg312 2.141 . S
O319 C317 1.289 . S
O320 Mg312 2.048 . S
O320 C313 1.195 . S
O321 Mg312 2.048 . S
O321 C322 1.195 . S
C322 O321 1.195 . S
C322 O323 1.313 . S
O323 C322 1.313 . S
O324 Mg312 2.141 . S
O324 C315 1.289 . S
Mg325 O332 2.141 . S
Mg325 O333 2.048 . S
Mg325 O334 2.048 . S
Mg325 O337 2.141 . S
C326 O327 1.313 . S
C326 O333 1.195 . S
O327 C326 1.313 . S
C328 O329 1.245 . S
C328 O337 1.289 . S
O329 C328 1.245 . S
C330 O331 1.245 . S
C330 O332 1.289 . S
O331 C330 1.245 . S
O332 Mg325 2.141 . S
O332 C330 1.289 . S
O333 Mg325 2.048 . S
O333 C326 1.195 . S
O334 Mg325 2.048 . S
O334 C335 1.195 . S
C335 O334 1.195 . S
C335 O336 1.313 . S
O336 C335 1.313 . S
O337 Mg325 2.141 . S
O337 C328 1.289 . S
Mg338 O345 2.141 . S
Mg338 O346 2.048 . S
Mg338 O347 2.048 . S
Mg338 O350 2.141 . S
C339 O340 1.313 . S
C339 O346 1.195 . S
O340 C339 1.313 . S
C341 O342 1.245 . S
C341 O350 1.289 . S
O342 C341 1.245 . S
C343 O344 1.245 . S
C343 O345 1.289 . S
O344 C343 1.245 . S
O345 Mg338 2.141 . S
O345 C343 1.289 . S
O346 Mg338 2.048 . S
O346 C339 1.195 . S
O347 Mg338 2.048 . S
O347 C348 1.195 . S
C348 O347 1.195 . S
C348 O349 1.313 . S
O349 C348 1.313 . S
O350 Mg338 2.141 . S
O350 C341 1.289 . S
Mg351 O358 2.141 . S
Mg351 O359 2.048 . S
Mg351 O360 2.048 . S
Mg351 O363 2.141 . S
C352 O353 1.313 . S
C352 O359 1.195 . S
O353 C352 1.313 . S
C354 O355 1.245 . S
C354 O363 1.289 . S
O355 C354 1.245 . S
C356 O357 1.245 . S
C356 O358 1.289 . S
O357 C356 1.245 . S
O358 Mg351 2.141 . S
O358 C356 1.289 . S
O359 Mg351 2.048 . S
O359 C352 1.195 . S
O360 Mg351 2.048 . S
O360 C361 1.195 . S
C361 O360 1.195 . S
C361 O362 1.313 . S
O362 C361 1.313 . S
O363 Mg351 2.141 . S
O363 C354 1.289 . S
Mg364 O371 2.141 . S
Mg364 O372 2.048 . S
Mg364 O373 2.048 . S
Mg364 O376 2.141 . S
C365 O366 1.313 . S
C365 O372 1.195 . S
O366 C365 1.313 . S
C367 O368 1.245 . S
C367 O376 1.289 . S
O368 C367 1.245 . S
C369 O370 1.245 . S
C369 O371 1.289 . S
O370 C369 1.245 . S
O371 Mg364 2.141 . S
O371 C369 1.289 . S
O372 Mg364 2.048 . S
O372 C365 1.195 . S
O373 Mg364 2.048 . S
O373 C374 1.195 . S
C374 O373 1.195 . S
C374 O375 1.313 . S
O375 C374 1.313 . S
O376 Mg364 2.141 . S
O376 C367 1.289 . S
Mg377 O384 2.141 . S
Mg377 O385 2.048 . S
Mg377 O386 2.048 . S
Mg377 O389 2.141 . S
C378 O379 1.313 . S
C378 O385 1.195 . S
O379 C378 1.313 . S
C380 O381 1.245 . S
C380 O389 1.289 . S
O381 C380 1.245 . S
C382 O383 1.245 . S
C382 O384 1.289 . S
O383 C382 1.245 . S
O384 Mg377 2.141 . S
O384 C382 1.289 . S
O385 Mg377 2.048 . S
O385 C378 1.195 . S
O386 Mg377 2.048 . S
O386 C387 1.195 . S
C387 O386 1.195 . S
C387 O388 1.313 . S
O388 C387 1.313 . S
O389 Mg377 2.141 . S
O389 C380 1.289 . S
Mg390 O397 2.141 . S
Mg390 O398 2.048 . S
Mg390 O399 2.048 . S
Mg390 O402 2.141 . S
C391 O392 1.313 . S
C391 O398 1.195 . S
O392 C391 1.313 . S
C393 O394 1.245 . S
C393 O402 1.289 . S
O394 C393 1.245 . S
C395 O396 1.245 . S
C395 O397 1.289 . S
O396 C395 1.245 . S
O397 Mg390 2.141 . S
O397 C395 1.289 . S
O398 Mg390 2.048 . S
O398 C391 1.195 . S
O399 Mg390 2.048 . S
O399 C400 1.195 . S
C400 O399 1.195 . S
C400 O401 1.313 . S
O401 C400 1.313 . S
O402 Mg390 2.141 . S
O402 C393 1.289 . S
Mg403 O410 2.141 . S
Mg403 O411 2.048 . S
Mg403 O412 2.048 . S
Mg403 O415 2.141 . S
C404 O405 1.313 . S
C404 O411 1.195 . S
O405 C404 1.313 . S
C406 O407 1.245 . S
C406 O415 1.289 . S
O407 C406 1.245 . S
C408 O409 1.245 . S
C408 O410 1.289 . S
O409 C408 1.245 . S
O410 Mg403 2.141 . S
O410 C408 1.289 . S
O411 Mg403 2.048 . S
O411 C404 1.195 . S
O412 Mg403 2.048 . S
O412 C413 1.195 . S
C413 O412 1.195 . S
C413 O414 1.313 . S
O414 C413 1.313 . S
O415 Mg403 2.141 . S
O415 C406 1.289 . S
Mg416 O423 2.141 . S
Mg416 O424 2.048 . S
Mg416 O425 2.048 . S
Mg416 O428 2.141 . S
C417 O418 1.313 . S
C417 O424 1.195 . S
O418 C417 1.313 . S
C419 O420 1.245 . S
C419 O428 1.289 . S
O420 C419 1.245 . S
C421 O422 1.245 . S
C421 O423 1.289 . S
O422 C421 1.245 . S
O423 Mg416 2.141 . S
O423 C421 1.289 . S
O424 Mg416 2.048 . S
O424 C417 1.195 . S
O425 Mg416 2.048 . S
O425 C426 1.195 . S
C426 O425 1.195 . S
C426 O427 1.313 . S
O427 C426 1.313 . S
O428 Mg416 2.141 . S
O428 C419 1.289 . S
Mg429 O436 2.141 . S
Mg429 O437 2.048 . S
Mg429 O438 2.048 . S
Mg429 O441 2.141 . S
C430 O431 1.313 . S
C430 O437 1.195 . S
O431 C430 1.313 . S
C432 O433 1.245 . S
C432 O441 1.289 . S
O433 C432 1.245 . S
C434 O435 1.245 . S
C434 O436 1.289 . S
O435 C434 1.245 . S
O436 Mg429 2.141 . S
O436 C434 1.289 . S
O437 Mg429 2.048 . S
O437 C430 1.195 . S
O438 Mg429 2.048 . S
O438 C439 1.195 . S
C439 O438 1.195 . S
C439 O440 1.313 . S
O440 C439 1.313 . S
O441 Mg429 2.141 . S
O441 C432 1.289 . S
Mg442 O449 2.141 . S
Mg442 O450 2.048 . S
Mg442 O451 2.048 . S
Mg442 O454 2.141 . S
C443 O444 1.313 . S
C443 O450 1.195 . S
O444 C443 1.313 . S
C445 O446 1.245 . S
C445 O454 1.289 . S
O446 C445 1.245 . S
C447 O448 1.245 . S
C447 O449 1.289 . S
O448 C447 1.245 . S
O449 Mg442 2.141 . S
O449 C447 1.289 . S
O450 Mg442 2.048 . S
O450 C443 1.195 . S
O451 Mg442 2.048 . S
O451 C452 1.195 . S
C452 O451 1.195 . S
C452 O453 1.313 . S
O453 C452 1.313 . S
O454 Mg442 2.141 . S
O454 C445 1.289 . S
Mg455 O462 2.141 . S
Mg455 O463 2.048 . S
Mg455 O464 2.048 . S
Mg455 O467 2.141 . S
C456 O457 1.313 . S
C456 O463 1.195 . S
O457 C456 1.313 . S
C458 O459 1.245 . S
C458 O467 1.289 . S
O459 C458 1.245 . S
C460 O461 1.245 . S
C460 O462 1.289 . S
O461 C460 1.245 . S
O462 Mg455 2.141 . S
O462 C460 1.289 . S
O463 Mg455 2.048 . S
O463 C456 1.195 . S
O464 Mg455 2.048 . S
O464 C465 1.195 . S
C465 O464 1.195 . S
C465 O466 1.313 . S
O466 C465 1.313 . S
O467 Mg455 2.141 . S
O467 C458 1.289 . S
H468 C480 0.930 . S
H469 C482 0.930 . S
H470 C483 0.930 . S
H471 C487 0.959 . S
H472 C487 0.959 . S
H473 C487 0.961 . S
H474 C488 0.960 . S
H475 C488 0.961 . S
H476 C488 0.959 . S
H477 C491 0.929 . S
H478 C492 0.931 . S
H479 C494 0.930 . S
C480 H468 0.930 . S
C480 C481 1.399 . S
C480 C485 1.399 . S
C481 C480 1.399 . S
C481 C482 1.376 . S
C482 H469 0.930 . S
C482 C481 1.376 . S
C482 C483 1.388 . S
C483 H470 0.930 . S
C483 C482 1.388 . S
C483 C484 1.390 . S
C484 C483 1.390 . S
C484 C485 1.394 . S
C484 C490 1.465 . S
C485 C480 1.399 . S
C485 C484 1.394 . S
C485 C486 1.516 . S
C486 C485 1.516 . S
C486 C487 1.502 . S
C486 C488 1.561 . S
C486 C489 1.526 . S
C487 H471 0.959 . S
C487 H472 0.959 . S
C487 H473 0.961 . S
C487 C486 1.502 . S
C488 H474 0.960 . S
C488 H475 0.961 . S
C488 H476 0.959 . S
C488 C486 1.561 . S
C489 C486 1.526 . S
C489 C490 1.396 . S
C489 C494 1.390 . S
C490 C484 1.465 . S
C490 C489 1.396 . S
C490 C491 1.399 . S
C491 H477 0.929 . S
C491 C490 1.399 . S
C491 C492 1.385 . S
C492 H478 0.931 . S
C492 C491 1.385 . S
C492 C493 1.389 . S
C493 C492 1.389 . S
C493 C494 1.387 . S
C494 H479 0.930 . S
C494 C489 1.390 . S
C494 C493 1.387 . S
H495 C507 0.930 . S
H496 C509 0.930 . S
H497 C510 0.930 . S
H498 C514 0.959 . S
H499 C514 0.959 . S
H500 C514 0.961 . S
H501 C515 0.960 . S
H502 C515 0.961 . S
H503 C515 0.959 . S
H504 C518 0.929 . S
H505 C519 0.931 . S
H506 C521 0.930 . S
C507 H495 0.930 . S
C507 C508 1.399 . S
C507 C512 1.399 . S
C508 C507 1.399 . S
C508 C509 1.376 . S
C509 H496 0.930 . S
C509 C508 1.376 . S
C509 C510 1.388 . S
C510 H497 0.930 . S
C510 C509 1.388 . S
C510 C511 1.390 . S
C511 C510 1.390 . S
C511 C512 1.394 . S
C511 C517 1.465 . S
C512 C507 1.399 . S
C512 C511 1.394 . S
C512 C513 1.516 . S
C513 C512 1.516 . S
C513 C514 1.502 . S
C513 C515 1.561 . S
C513 C516 1.526 . S
C514 H498 0.959 . S
C514 H499 0.959 . S
C514 H500 0.961 . S
C514 C513 1.502 . S
C515 H501 0.960 . S
C515 H502 0.961 . S
C515 H503 0.959 . S
C515 C513 1.561 . S
C516 C513 1.526 . S
C516 C517 1.396 . S
C516 C521 1.390 . S
C517 C511 1.465 . S
C517 C516 1.396 . S
C517 C518 1.399 . S
C518 H504 0.929 . S
C518 C517 1.399 . S
C518 C519 1.385 . S
C519 H505 0.931 . S
C519 C518 1.385 . S
C519 C520 1.389 . S
C520 C519 1.389 . S
C520 C521 1.387 . S
C521 H506 0.930 . S
C521 C516 1.390 . S
C521 C520 1.387 . S
H522 C534 0.930 . S
H523 C536 0.930 . S
H524 C537 0.930 . S
H525 C541 0.959 . S
H526 C541 0.959 . S
H527 C541 0.961 . S
H528 C542 0.960 . S
H529 C542 0.961 . S
H530 C542 0.959 . S
H531 C545 0.929 . S
H532 C546 0.931 . S
H533 C548 0.930 . S
C534 H522 0.930 . S
C534 C535 1.399 . S
C534 C539 1.399 . S
C535 C534 1.399 . S
C535 C536 1.376 . S
C536 H523 0.930 . S
C536 C535 1.376 . S
C536 C537 1.388 . S
C537 H524 0.930 . S
C537 C536 1.388 . S
C537 C538 1.390 . S
C538 C537 1.390 . S
C538 C539 1.394 . S
C538 C544 1.465 . S
C539 C534 1.399 . S
C539 C538 1.394 . S
C539 C540 1.516 . S
C540 C539 1.516 . S
C540 C541 1.502 . S
C540 C542 1.561 . S
C540 C543 1.526 . S
C541 H525 0.959 . S
C541 H526 0.959 . S
C541 H527 0.961 . S
C541 C540 1.502 . S
C542 H528 0.960 . S
C542 H529 0.961 . S
C542 H530 0.959 . S
C542 C540 1.561 . S
C543 C540 1.526 . S
C543 C544 1.396 . S
C543 C548 1.390 . S
C544 C538 1.465 . S
C544 C543 1.396 . S
C544 C545 1.399 . S
C545 H531 0.929 . S
C545 C544 1.399 . S
C545 C546 1.385 . S
C546 H532 0.931 . S
C546 C545 1.385 . S
C546 C547 1.389 . S
C547 C546 1.389 . S
C547 C548 1.387 . S
C548 H533 0.930 . S
C548 C543 1.390 . S
C548 C547 1.387 . S
H549 C561 0.930 . S
H550 C563 0.930 . S
H551 C564 0.930 . S
H552 C568 0.959 . S
H553 C568 0.959 . S
H554 C568 0.961 . S
H555 C569 0.960 . S
H556 C569 0.961 . S
H557 C569 0.959 . S
H558 C572 0.929 . S
H559 C573 0.931 . S
H560 C575 0.930 . S
C561 H549 0.930 . S
C561 C562 1.399 . S
C561 C566 1.399 . S
C562 C561 1.399 . S
C562 C563 1.376 . S
C563 H550 0.930 . S
C563 C562 1.376 . S
C563 C564 1.388 . S
C564 H551 0.930 . S
C564 C563 1.388 . S
C564 C565 1.390 . S
C565 C564 1.390 . S
C565 C566 1.394 . S
C565 C571 1.465 . S
C566 C561 1.399 . S
C566 C565 1.394 . S
C566 C567 1.516 . S
C567 C566 1.516 . S
C567 C568 1.502 . S
C567 C569 1.561 . S
C567 C570 1.526 . S
C568 H552 0.959 . S
C568 H553 0.959 . S
C568 H554 0.961 . S
C568 C567 1.502 . S
C569 H555 0.960 . S
C569 H556 0.961 . S
C569 H557 0.959 . S
C569 C567 1.561 . S
C570 C567 1.526 . S
C570 C571 1.396 . S
C570 C575 1.390 . S
C571 C565 1.465 . S
C571 C570 1.396 . S
C571 C572 1.399 . S
C572 H558 0.929 . S
C572 C571 1.399 . S
C572 C573 1.385 . S
C573 H559 0.931 . S
C573 C572 1.385 . S
C573 C574 1.389 . S
C574 C573 1.389 . S
C574 C575 1.387 . S
C575 H560 0.930 . S
C575 C570 1.390 . S
C575 C574 1.387 . S
H576 C588 0.930 . S
H577 C590 0.930 . S
H578 C591 0.930 . S
H579 C595 0.959 . S
H580 C595 0.959 . S
H581 C595 0.961 . S
H582 C596 0.960 . S
H583 C596 0.961 . S
H584 C596 0.959 . S
H585 C599 0.929 . S
H586 C600 0.931 . S
H587 C602 0.930 . S
C588 H576 0.930 . S
C588 C589 1.399 . S
C588 C593 1.399 . S
C589 C588 1.399 . S
C589 C590 1.376 . S
C590 H577 0.930 . S
C590 C589 1.376 . S
C590 C591 1.388 . S
C591 H578 0.930 . S
C591 C590 1.388 . S
C591 C592 1.390 . S
C592 C591 1.390 . S
C592 C593 1.394 . S
C592 C598 1.465 . S
C593 C588 1.399 . S
C593 C592 1.394 . S
C593 C594 1.516 . S
C594 C593 1.516 . S
C594 C595 1.502 . S
C594 C596 1.561 . S
C594 C597 1.526 . S
C595 H579 0.959 . S
C595 H580 0.959 . S
C595 H581 0.961 . S
C595 C594 1.502 . S
C596 H582 0.960 . S
C596 H583 0.961 . S
C596 H584 0.959 . S
C596 C594 1.561 . S
C597 C594 1.526 . S
C597 C598 1.396 . S
C597 C602 1.390 . S
C598 C592 1.465 . S
C598 C597 1.396 . S
C598 C599 1.399 . S
C599 H585 0.929 . S
C599 C598 1.399 . S
C599 C600 1.385 . S
C600 H586 0.931 . S
C600 C599 1.385 . S
C600 C601 1.389 . S
C601 C600 1.389 . S
C601 C602 1.387 . S
C602 H587 0.930 . S
C602 C597 1.390 . S
C602 C601 1.387 . S
H603 C615 0.930 . S
H604 C617 0.930 . S
H605 C618 0.930 . S
H606 C622 0.959 . S
H607 C622 0.959 . S
H608 C622 0.961 . S
H609 C623 0.960 . S
H610 C623 0.961 . S
H611 C623 0.959 . S
H612 C626 0.929 . S
H613 C627 0.931 . S
H614 C629 0.930 . S
C615 H603 0.930 . S
C615 C616 1.399 . S
C615 C620 1.399 . S
C616 C615 1.399 . S
C616 C617 1.376 . S
C617 H604 0.930 . S
C617 C616 1.376 . S
C617 C618 1.388 . S
C618 H605 0.930 . S
C618 C617 1.388 . S
C618 C619 1.390 . S
C619 C618 1.390 . S
C619 C620 1.394 . S
C619 C625 1.465 . S
C620 C615 1.399 . S
C620 C619 1.394 . S
C620 C621 1.516 . S
C621 C620 1.516 . S
C621 C622 1.502 . S
C621 C623 1.561 . S
C621 C624 1.526 . S
C622 H606 0.959 . S
C622 H607 0.959 . S
C622 H608 0.961 . S
C622 C621 1.502 . S
C623 H609 0.960 . S
C623 H610 0.961 . S
C623 H611 0.959 . S
C623 C621 1.561 . S
C624 C621 1.526 . S
C624 C625 1.396 . S
C624 C629 1.390 . S
C625 C619 1.465 . S
C625 C624 1.396 . S
C625 C626 1.399 . S
C626 H612 0.929 . S
C626 C625 1.399 . S
C626 C627 1.385 . S
C627 H613 0.931 . S
C627 C626 1.385 . S
C627 C628 1.389 . S
C628 C627 1.389 . S
C628 C629 1.387 . S
C629 H614 0.930 . S
C629 C624 1.390 . S
C629 C628 1.387 . S
H630 C642 0.930 . S
H631 C644 0.930 . S
H632 C645 0.930 . S
H633 C649 0.959 . S
H634 C649 0.959 . S
H635 C649 0.961 . S
H636 C650 0.960 . S
H637 C650 0.961 . S
H638 C650 0.959 . S
H639 C653 0.929 . S
H640 C654 0.931 . S
H641 C656 0.930 . S
C642 H630 0.930 . S
C642 C643 1.399 . S
C642 C647 1.399 . S
C643 C642 1.399 . S
C643 C644 1.376 . S
C644 H631 0.930 . S
C644 C643 1.376 . S
C644 C645 1.388 . S
C645 H632 0.930 . S
C645 C644 1.388 . S
C645 C646 1.390 . S
C646 C645 1.390 . S
C646 C647 1.394 . S
C646 C652 1.465 . S
C647 C642 1.399 . S
C647 C646 1.394 . S
C647 C648 1.516 . S
C648 C647 1.516 . S
C648 C649 1.502 . S
C648 C650 1.561 . S
C648 C651 1.526 . S
C649 H633 0.959 . S
C649 H634 0.959 . S
C649 H635 0.961 . S
C649 C648 1.502 . S
C650 H636 0.960 . S
C650 H637 0.961 . S
C650 H638 0.959 . S
C650 C648 1.561 . S
C651 C648 1.526 . S
C651 C652 1.396 . S
C651 C656 1.390 . S
C652 C646 1.465 . S
C652 C651 1.396 . S
C652 C653 1.399 . S
C653 H639 0.929 . S
C653 C652 1.399 . S
C653 C654 1.385 . S
C654 H640 0.931 . S
C654 C653 1.385 . S
C654 C655 1.389 . S
C655 C654 1.389 . S
C655 C656 1.387 . S
C656 H641 0.930 . S
C656 C651 1.390 . S
C656 C655 1.387 . S
H657 C669 0.930 . S
H658 C671 0.930 . S
H659 C672 0.930 . S
H660 C676 0.959 . S
H661 C676 0.959 . S
H662 C676 0.961 . S
H663 C677 0.960 . S
H664 C677 0.961 . S
H665 C677 0.959 . S
H666 C680 0.929 . S
H667 C681 0.931 . S
H668 C683 0.930 . S
C669 H657 0.930 . S
C669 C670 1.399 . S
C669 C674 1.399 . S
C670 C669 1.399 . S
C670 C671 1.376 . S
C671 H658 0.930 . S
C671 C670 1.376 . S
C671 C672 1.388 . S
C672 H659 0.930 . S
C672 C671 1.388 . S
C672 C673 1.390 . S
C673 C672 1.390 . S
C673 C674 1.394 . S
C673 C679 1.465 . S
C674 C669 1.399 . S
C674 C673 1.394 . S
C674 C675 1.516 . S
C675 C674 1.516 . S
C675 C676 1.502 . S
C675 C677 1.561 . S
C675 C678 1.526 . S
C676 H660 0.959 . S
C676 H661 0.959 . S
C676 H662 0.961 . S
C676 C675 1.502 . S
C677 H663 0.960 . S
C677 H664 0.961 . S
C677 H665 0.959 . S
C677 C675 1.561 . S
C678 C675 1.526 . S
C678 C679 1.396 . S
C678 C683 1.390 . S
C679 C673 1.465 . S
C679 C678 1.396 . S
C679 C680 1.399 . S
C680 H666 0.929 . S
C680 C679 1.399 . S
C680 C681 1.385 . S
C681 H667 0.931 . S
C681 C680 1.385 . S
C681 C682 1.389 . S
C682 C681 1.389 . S
C682 C683 1.387 . S
C683 H668 0.930 . S
C683 C678 1.390 . S
C683 C682 1.387 . S
H684 C696 0.930 . S
H685 C698 0.930 . S
H686 C699 0.930 . S
H687 C703 0.959 . S
H688 C703 0.959 . S
H689 C703 0.961 . S
H690 C704 0.960 . S
H691 C704 0.961 . S
H692 C704 0.959 . S
H693 C707 0.929 . S
H694 C708 0.931 . S
H695 C710 0.930 . S
C696 H684 0.930 . S
C696 C697 1.399 . S
C696 C701 1.399 . S
C697 C696 1.399 . S
C697 C698 1.376 . S
C698 H685 0.930 . S
C698 C697 1.376 . S
C698 C699 1.388 . S
C699 H686 0.930 . S
C699 C698 1.388 . S
C699 C700 1.390 . S
C700 C699 1.390 . S
C700 C701 1.394 . S
C700 C706 1.465 . S
C701 C696 1.399 . S
C701 C700 1.394 . S
C701 C702 1.516 . S
C702 C701 1.516 . S
C702 C703 1.502 . S
C702 C704 1.561 . S
C702 C705 1.526 . S
C703 H687 0.959 . S
C703 H688 0.959 . S
C703 H689 0.961 . S
C703 C702 1.502 . S
C704 H690 0.960 . S
C704 H691 0.961 . S
C704 H692 0.959 . S
C704 C702 1.561 . S
C705 C702 1.526 . S
C705 C706 1.396 . S
C705 C710 1.390 . S
C706 C700 1.465 . S
C706 C705 1.396 . S
C706 C707 1.399 . S
C707 H693 0.929 . S
C707 C706 1.399 . S
C707 C708 1.385 . S
C708 H694 0.931 . S
C708 C707 1.385 . S
C708 C709 1.389 . S
C709 C708 1.389 . S
C709 C710 1.387 . S
C710 H695 0.930 . S
C710 C705 1.390 . S
C710 C709 1.387 . S
H711 C723 0.930 . S
H712 C725 0.930 . S
H713 C726 0.930 . S
H714 C730 0.959 . S
H715 C730 0.959 . S
H716 C730 0.961 . S
H717 C731 0.960 . S
H718 C731 0.961 . S
H719 C731 0.959 . S
H720 C734 0.929 . S
H721 C735 0.931 . S
H722 C737 0.930 . S
C723 H711 0.930 . S
C723 C724 1.399 . S
C723 C728 1.399 . S
C724 C723 1.399 . S
C724 C725 1.376 . S
C725 H712 0.930 . S
C725 C724 1.376 . S
C725 C726 1.388 . S
C726 H713 0.930 . S
C726 C725 1.388 . S
C726 C727 1.390 . S
C727 C726 1.390 . S
C727 C728 1.394 . S
C727 C733 1.465 . S
C728 C723 1.399 . S
C728 C727 1.394 . S
C728 C729 1.516 . S
C729 C728 1.516 . S
C729 C730 1.502 . S
C729 C731 1.561 . S
C729 C732 1.526 . S
C730 H714 0.959 . S
C730 H715 0.959 . S
C730 H716 0.961 . S
C730 C729 1.502 . S
C731 H717 0.960 . S
C731 H718 0.961 . S
C731 H719 0.959 . S
C731 C729 1.561 . S
C732 C729 1.526 . S
C732 C733 1.396 . S
C732 C737 1.390 . S
C733 C727 1.465 . S
C733 C732 1.396 . S
C733 C734 1.399 . S
C734 H720 0.929 . S
C734 C733 1.399 . S
C734 C735 1.385 . S
C735 H721 0.931 . S
C735 C734 1.385 . S
C735 C736 1.389 . S
C736 C735 1.389 . S
C736 C737 1.387 . S
C737 H722 0.930 . S
C737 C732 1.390 . S
C737 C736 1.387 . S
H738 C750 0.930 . S
H739 C752 0.930 . S
H740 C753 0.930 . S
H741 C757 0.959 . S
H742 C757 0.959 . S
H743 C757 0.961 . S
H744 C758 0.960 . S
H745 C758 0.961 . S
H746 C758 0.959 . S
H747 C761 0.929 . S
H748 C762 0.931 . S
H749 C764 0.930 . S
C750 H738 0.930 . S
C750 C751 1.399 . S
C750 C755 1.399 . S
C751 C750 1.399 . S
C751 C752 1.376 . S
C752 H739 0.930 . S
C752 C751 1.376 . S
C752 C753 1.388 . S
C753 H740 0.930 . S
C753 C752 1.388 . S
C753 C754 1.390 . S
C754 C753 1.390 . S
C754 C755 1.394 . S
C754 C760 1.465 . S
C755 C750 1.399 . S
C755 C754 1.394 . S
C755 C756 1.516 . S
C756 C755 1.516 . S
C756 C757 1.502 . S
C756 C758 1.561 . S
C756 C759 1.526 . S
C757 H741 0.959 . S
C757 H742 0.959 . S
C757 H743 0.961 . S
C757 C756 1.502 . S
C758 H744 0.960 . S
C758 H745 0.961 . S
C758 H746 0.959 . S
C758 C756 1.561 . S
C759 C756 1.526 . S
C759 C760 1.396 . S
C759 C764 1.390 . S
C760 C754 1.465 . S
C760 C759 1.396 . S
C760 C761 1.399 . S
C761 H747 0.929 . S
C761 C760 1.399 . S
C761 C762 1.385 . S
C762 H748 0.931 . S
C762 C761 1.385 . S
C762 C763 1.389 . S
C763 C762 1.389 . S
C763 C764 1.387 . S
C764 H749 0.930 . S
C764 C759 1.390 . S
C764 C763 1.387 . S
H765 C777 0.930 . S
H766 C779 0.930 . S
H767 C780 0.930 . S
H768 C784 0.959 . S
H769 C784 0.959 . S
H770 C784 0.961 . S
H771 C785 0.960 . S
H772 C785 0.961 . S
H773 C785 0.959 . S
H774 C788 0.929 . S
H775 C789 0.931 . S
H776 C791 0.930 . S
C777 H765 0.930 . S
C777 C778 1.399 . S
C777 C782 1.399 . S
C778 C777 1.399 . S
C778 C779 1.376 . S
C779 H766 0.930 . S
C779 C778 1.376 . S
C779 C780 1.388 . S
C780 H767 0.930 . S
C780 C779 1.388 . S
C780 C781 1.390 . S
C781 C780 1.390 . S
C781 C782 1.394 . S
C781 C787 1.465 . S
C782 C777 1.399 . S
C782 C781 1.394 . S
C782 C783 1.516 . S
C783 C782 1.516 . S
C783 C784 1.502 . S
C783 C785 1.561 . S
C783 C786 1.526 . S
C784 H768 0.959 . S
C784 H769 0.959 . S
C784 H770 0.961 . S
C784 C783 1.502 . S
C785 H771 0.960 . S
C785 H772 0.961 . S
C785 H773 0.959 . S
C785 C783 1.561 . S
C786 C783 1.526 . S
C786 C787 1.396 . S
C786 C791 1.390 . S
C787 C781 1.465 . S
C787 C786 1.396 . S
C787 C788 1.399 . S
C788 H774 0.929 . S
C788 C787 1.399 . S
C788 C789 1.385 . S
C789 H775 0.931 . S
C789 C788 1.385 . S
C789 C790 1.389 . S
C790 C789 1.389 . S
C790 C791 1.387 . S
C791 H776 0.930 . S
C791 C786 1.390 . S
C791 C790 1.387 . S
H792 C804 0.930 . S
H793 C806 0.930 . S
H794 C807 0.930 . S
H795 C811 0.959 . S
H796 C811 0.959 . S
H797 C811 0.961 . S
H798 C812 0.960 . S
H799 C812 0.961 . S
H800 C812 0.959 . S
H801 C815 0.929 . S
H802 C816 0.931 . S
H803 C818 0.930 . S
C804 H792 0.930 . S
C804 C805 1.399 . S
C804 C809 1.399 . S
C805 C804 1.399 . S
C805 C806 1.376 . S
C806 H793 0.930 . S
C806 C805 1.376 . S
C806 C807 1.388 1_655 S
C807 H794 0.930 . S
C807 C806 1.388 1_455 S
C807 C808 1.390 . S
C808 C807 1.390 . S
C808 C809 1.394 1_455 S
C808 C814 1.465 . S
C809 C804 1.399 . S
C809 C808 1.394 1_655 S
C809 C810 1.516 . S
C810 C809 1.516 . S
C810 C811 1.502 . S
C810 C812 1.561 . S
C810 C813 1.526 1_655 S
C811 H795 0.959 . S
C811 H796 0.959 . S
C811 H797 0.961 . S
C811 C810 1.502 . S
C812 H798 0.960 . S
C812 H799 0.961 . S
C812 H800 0.959 . S
C812 C810 1.561 . S
C813 C810 1.526 1_455 S
C813 C814 1.396 . S
C813 C818 1.390 . S
C814 C808 1.465 . S
C814 C813 1.396 . S
C814 C815 1.399 . S
C815 H801 0.929 . S
C815 C814 1.399 . S
C815 C816 1.385 . S
C816 H802 0.931 . S
C816 C815 1.385 . S
C816 C817 1.389 . S
C817 C816 1.389 . S
C817 C818 1.387 . S
C818 H803 0.930 . S
C818 C813 1.390 . S
C818 C817 1.387 . S
H819 C831 0.930 . S
H820 C833 0.930 . S
H821 C834 0.930 . S
H822 C838 0.959 . S
H823 C838 0.959 . S
H824 C838 0.961 . S
H825 C839 0.960 . S
H826 C839 0.961 . S
H827 C839 0.959 . S
H828 C842 0.929 . S
H829 C843 0.931 . S
H830 C845 0.930 . S
C831 H819 0.930 . S
C831 C832 1.399 . S
C831 C836 1.399 . S
C832 C831 1.399 . S
C832 C833 1.376 . S
C833 H820 0.930 . S
C833 C832 1.376 . S
C833 C834 1.388 . S
C834 H821 0.930 . S
C834 C833 1.388 . S
C834 C835 1.390 . S
C835 C834 1.390 . S
C835 C836 1.394 . S
C835 C841 1.465 . S
C836 C831 1.399 . S
C836 C835 1.394 . S
C836 C837 1.516 . S
C837 C836 1.516 . S
C837 C838 1.502 . S
C837 C839 1.561 . S
C837 C840 1.526 . S
C838 H822 0.959 . S
C838 H823 0.959 . S
C838 H824 0.961 . S
C838 C837 1.502 . S
C839 H825 0.960 . S
C839 H826 0.961 . S
C839 H827 0.959 . S
C839 C837 1.561 . S
C840 C837 1.526 . S
C840 C841 1.396 . S
C840 C845 1.390 . S
C841 C835 1.465 . S
C841 C840 1.396 . S
C841 C842 1.399 . S
C842 H828 0.929 . S
C842 C841 1.399 . S
C842 C843 1.385 . S
C843 H829 0.931 . S
C843 C842 1.385 . S
C843 C844 1.389 . S
C844 C843 1.389 . S
C844 C845 1.387 . S
C845 H830 0.930 . S
C845 C840 1.390 . S
C845 C844 1.387 . S
H846 C858 0.930 . S
H847 C860 0.930 . S
H848 C861 0.930 . S
H849 C865 0.959 . S
H850 C865 0.959 1_565 S
H851 C865 0.961 . S
H852 C866 0.960 . S
H853 C866 0.961 . S
H854 C866 0.959 . S
H855 C869 0.929 . S
H856 C870 0.931 . S
H857 C872 0.930 . S
C858 H846 0.930 . S
C858 C859 1.399 . S
C858 C863 1.399 . S
C859 C858 1.399 . S
C859 C860 1.376 . S
C860 H847 0.930 . S
C860 C859 1.376 . S
C860 C861 1.388 . S
C861 H848 0.930 . S
C861 C860 1.388 . S
C861 C862 1.390 . S
C862 C861 1.390 . S
C862 C863 1.394 . S
C862 C868 1.465 1_545 S
C863 C858 1.399 . S
C863 C862 1.394 . S
C863 C864 1.516 1_545 S
C864 C863 1.516 1_565 S
C864 C865 1.502 1_565 S
C864 C866 1.561 . S
C864 C867 1.526 . S
C865 H849 0.959 . S
C865 H850 0.959 1_545 S
C865 H851 0.961 . S
C865 C864 1.502 1_545 S
C866 H852 0.960 . S
C866 H853 0.961 . S
C866 H854 0.959 . S
C866 C864 1.561 . S
C867 C864 1.526 . S
C867 C868 1.396 . S
C867 C872 1.390 . S
C868 C862 1.465 1_565 S
C868 C867 1.396 . S
C868 C869 1.399 . S
C869 H855 0.929 . S
C869 C868 1.399 . S
C869 C870 1.385 . S
C870 H856 0.931 . S
C870 C869 1.385 . S
C870 C871 1.389 . S
C871 C870 1.389 . S
C871 C872 1.387 . S
C872 H857 0.930 . S
C872 C867 1.390 . S
C872 C871 1.387 . S
H873 C885 0.930 . S
H874 C887 0.930 . S
H875 C888 0.930 1_565 S
H876 C892 0.959 1_565 S
H877 C892 0.959 . S
H878 C892 0.961 . S
H879 C893 0.960 . S
H880 C893 0.961 . S
H881 C893 0.959 . S
H882 C896 0.929 . S
H883 C897 0.931 . S
H884 C899 0.930 . S
C885 H873 0.930 . S
C885 C886 1.399 . S
C885 C890 1.399 . S
C886 C885 1.399 . S
C886 C887 1.376 . S
C887 H874 0.930 . S
C887 C886 1.376 . S
C887 C888 1.388 . S
C888 H875 0.930 1_545 S
C888 C887 1.388 . S
C888 C889 1.390 . S
C889 C888 1.390 . S
C889 C890 1.394 . S
C889 C895 1.465 1_546 S
C890 C885 1.399 . S
C890 C889 1.394 . S
C890 C891 1.516 . S
C891 C890 1.516 . S
C891 C892 1.502 . S
C891 C893 1.561 1_556 S
C891 C894 1.526 1_546 S
C892 H876 0.959 1_545 S
C892 H877 0.959 . S
C892 H878 0.961 . S
C892 C891 1.502 . S
C893 H879 0.960 . S
C893 H880 0.961 . S
C893 H881 0.959 . S
C893 C891 1.561 1_554 S
C894 C891 1.526 1_564 S
C894 C895 1.396 . S
C894 C899 1.390 . S
C895 C889 1.465 1_564 S
C895 C894 1.396 . S
C895 C896 1.399 . S
C896 H882 0.929 . S
C896 C895 1.399 . S
C896 C897 1.385 . S
C897 H883 0.931 . S
C897 C896 1.385 . S
C897 C898 1.389 . S
C898 C897 1.389 . S
C898 C899 1.387 . S
C899 H884 0.930 . S
C899 C894 1.390 . S
C899 C898 1.387 . S
H900 C912 0.930 . S
H901 C914 0.930 . S
H902 C915 0.930 1_455 S
H903 C919 0.959 . S
H904 C919 0.959 . S
H905 C919 0.961 . S
H906 C920 0.960 . S
H907 C920 0.961 . S
H908 C920 0.959 . S
H909 C923 0.929 1_556 S
H910 C924 0.931 . S
H911 C926 0.930 . S
C912 H900 0.930 . S
C912 C913 1.399 . S
C912 C917 1.399 . S
C913 C912 1.399 . S
C913 C914 1.376 . S
C914 H901 0.930 . S
C914 C913 1.376 . S
C914 C915 1.388 . S
C915 H902 0.930 1_655 S
C915 C914 1.388 . S
C915 C916 1.390 . S
C916 C915 1.390 . S
C916 C917 1.394 . S
C916 C922 1.465 1_656 S
C917 C912 1.399 . S
C917 C916 1.394 . S
C917 C918 1.516 1_556 S
C918 C917 1.516 1_554 S
C918 C919 1.502 . S
C918 C920 1.561 1_655 S
C918 C921 1.526 1_655 S
C919 H903 0.959 . S
C919 H904 0.959 . S
C919 H905 0.961 . S
C919 C918 1.502 . S
C920 H906 0.960 . S
C920 H907 0.961 . S
C920 H908 0.959 . S
C920 C918 1.561 1_455 S
C921 C918 1.526 1_455 S
C921 C922 1.396 . S
C921 C926 1.390 . S
C922 C916 1.465 1_454 S
C922 C921 1.396 . S
C922 C923 1.399 . S
C923 H909 0.929 1_554 S
C923 C922 1.399 . S
C923 C924 1.385 . S
C924 H910 0.931 . S
C924 C923 1.385 . S
C924 C925 1.389 . S
C925 C924 1.389 . S
C925 C926 1.387 . S
C926 H911 0.930 . S
C926 C921 1.390 . S
C926 C925 1.387 . S
H927 C939 0.930 . S
H928 C941 0.930 . S
H929 C942 0.930 . S
H930 C946 0.959 . S
H931 C946 0.959 . S
H932 C946 0.961 . S
H933 C947 0.960 . S
H934 C947 0.961 1_554 S
H935 C947 0.959 . S
H936 C950 0.929 . S
H937 C951 0.931 . S
H938 C953 0.930 . S
C939 H927 0.930 . S
C939 C940 1.399 . S
C939 C944 1.399 . S
C940 C939 1.399 . S
C940 C941 1.376 . S
C941 H928 0.930 . S
C941 C940 1.376 . S
C941 C942 1.388 . S
C942 H929 0.930 . S
C942 C941 1.388 . S
C942 C943 1.390 . S
C943 C942 1.390 . S
C943 C944 1.394 . S
C943 C949 1.465 1_556 S
C944 C939 1.399 . S
C944 C943 1.394 . S
C944 C945 1.516 1_556 S
C945 C944 1.516 1_554 S
C945 C946 1.502 . S
C945 C947 1.561 1_554 S
C945 C948 1.526 . S
C946 H930 0.959 . S
C946 H931 0.959 . S
C946 H932 0.961 . S
C946 C945 1.502 . S
C947 H933 0.960 . S
C947 H934 0.961 1_556 S
C947 H935 0.959 . S
C947 C945 1.561 1_556 S
C948 C945 1.526 . S
C948 C949 1.396 . S
C948 C953 1.390 . S
C949 C943 1.465 1_554 S
C949 C948 1.396 . S
C949 C950 1.399 . S
C950 H936 0.929 . S
C950 C949 1.399 . S
C950 C951 1.385 . S
C951 H937 0.931 . S
C951 C950 1.385 . S
C951 C952 1.389 . S
C952 C951 1.389 . S
C952 C953 1.387 . S
C953 H938 0.930 . S
C953 C948 1.390 . S
C953 C952 1.387 . S
H954 C966 0.930 . S
H955 C968 0.930 . S
H956 C969 0.930 . S
H957 C973 0.959 1_554 S
H958 C973 0.959 . S
H959 C973 0.961 . S
H960 C974 0.960 . S
H961 C974 0.961 . S
H962 C974 0.959 . S
H963 C977 0.929 . S
H964 C978 0.931 . S
H965 C980 0.930 . S
C966 H954 0.930 . S
C966 C967 1.364 1_545 S
C966 C971 1.399 . S
C967 C966 1.364 1_565 S
C967 C968 1.373 . S
C968 H955 0.930 . S
C968 C967 1.373 . S
C968 C969 1.388 1_566 S
C969 H956 0.930 . S
C969 C968 1.388 1_544 S
C969 C970 1.390 . S
C970 C969 1.390 . S
C970 C971 1.394 1_554 S
C970 C976 1.465 . S
C971 C966 1.399 . S
C971 C970 1.394 1_556 S
C971 C972 1.516 . S
C972 C971 1.516 . S
C972 C973 1.502 . S
C972 C974 1.561 . S
C972 C975 1.526 1_556 S
C973 H957 0.959 1_556 S
C973 H958 0.959 . S
C973 H959 0.961 . S
C973 C972 1.502 . S
C974 H960 0.960 . S
C974 H961 0.961 . S
C974 H962 0.959 . S
C974 C972 1.561 . S
C975 C972 1.526 1_554 S
C975 C976 1.396 . S
C975 C980 1.390 . S
C976 C970 1.465 . S
C976 C975 1.396 . S
C976 C977 1.399 . S
C977 H963 0.929 . S
C977 C976 1.399 . S
C977 C978 1.385 . S
C978 H964 0.931 . S
C978 C977 1.385 . S
C978 C979 1.389 . S
C979 C978 1.389 . S
C979 C980 1.387 . S
C980 H965 0.930 . S
C980 C975 1.390 . S
C980 C979 1.387 . S
H981 C993 0.930 1_454 S
H982 C995 0.930 . S
H983 C996 0.930 . S
H984 C1000 0.959 . S
H985 C1000 0.959 . S
H986 C1000 0.961 . S
H987 C1001 0.960 . S
H988 C1001 0.961 . S
H989 C1001 0.959 . S
H990 C1004 0.929 . S
H991 C1005 0.931 . S
H992 C1007 0.930 . S
C993 H981 0.930 1_656 S
C993 C994 1.399 . S
C993 C998 1.399 1_556 S
C994 C993 1.399 . S
C994 C995 1.376 . S
C995 H982 0.930 . S
C995 C994 1.376 . S
C995 C996 1.388 . S
C996 H983 0.930 . S
C996 C995 1.388 . S
C996 C997 1.390 . S
C997 C996 1.390 . S
C997 C998 1.394 1_556 S
C997 C1003 1.465 1_556 S
C998 C993 1.399 1_554 S
C998 C997 1.394 1_554 S
C998 C999 1.516 . S
C999 C998 1.516 . S
C999 C1000 1.502 . S
C999 C1001 1.561 . S
C999 C1002 1.526 . S
C1000 H984 0.959 . S
C1000 H985 0.959 . S
C1000 H986 0.961 . S
C1000 C999 1.502 . S
C1001 H987 0.960 . S
C1001 H988 0.961 . S
C1001 H989 0.959 . S
C1001 C999 1.561 . S
C1002 C999 1.526 . S
C1002 C1003 1.396 . S
C1002 C1007 1.390 . S
C1003 C997 1.465 1_554 S
C1003 C1002 1.396 . S
C1003 C1004 1.399 1_554 S
C1004 H990 0.929 . S
C1004 C1003 1.399 1_556 S
C1004 C1005 1.385 1_556 S
C1005 H991 0.931 . S
C1005 C1004 1.385 1_554 S
C1005 C1006 1.389 . S
C1006 C1005 1.389 . S
C1006 C1007 1.387 . S
C1007 H992 0.930 . S
C1007 C1002 1.390 . S
C1007 C1006 1.387 . S
H1008 C1020 0.930 . S
H1009 C1022 0.930 . S
H1010 C1023 0.930 1_556 S
H1011 C1027 0.959 . S
H1012 C1027 0.959 . S
H1013 C1027 0.961 . S
H1014 C1028 0.960 . S
H1015 C1028 0.961 . S
H1016 C1028 0.959 . S
H1017 C1031 0.929 . S
H1018 C1032 0.931 . S
H1019 C1034 0.924 1_554 S
C1020 H1008 0.930 . S
C1020 C1021 1.399 . S
C1020 C1025 1.399 . S
C1021 C1020 1.399 . S
C1021 C1022 1.376 . S
C1022 H1009 0.930 . S
C1022 C1021 1.376 . S
C1022 C1023 1.388 . S
C1023 H1010 0.930 1_554 S
C1023 C1022 1.388 . S
C1023 C1024 1.390 . S
C1024 C1023 1.390 . S
C1024 C1025 1.394 . S
C1024 C1030 1.465 1_554 S
C1025 C1020 1.399 . S
C1025 C1024 1.394 . S
C1025 C1026 1.516 . S
C1026 C1025 1.516 . S
C1026 C1027 1.502 . S
C1026 C1028 1.561 . S
C1026 C1029 1.526 . S
C1027 H1011 0.959 . S
C1027 H1012 0.959 . S
C1027 H1013 0.961 . S
C1027 C1026 1.502 . S
C1028 H1014 0.960 . S
C1028 H1015 0.961 . S
C1028 H1016 0.959 . S
C1028 C1026 1.561 . S
C1029 C1026 1.526 . S
C1029 C1030 1.396 1_554 S
C1029 C1034 1.390 1_554 S
C1030 C1024 1.465 1_556 S
C1030 C1029 1.396 1_556 S
C1030 C1031 1.399 . S
C1031 H1017 0.929 . S
C1031 C1030 1.399 . S
C1031 C1032 1.385 . S
C1032 H1018 0.931 . S
C1032 C1031 1.385 . S
C1032 C1033 1.389 . S
C1033 C1032 1.389 . S
C1033 C1034 1.387 . S
C1034 H1019 0.924 1_556 S
C1034 C1029 1.390 1_556 S
C1034 C1033 1.387 . S
H1035 C1047 0.930 . S
H1036 C1049 0.930 . S
H1037 C1050 0.930 . S
H1038 C1054 0.959 . S
H1039 C1054 0.959 . S
H1040 C1054 0.961 . S
H1041 C1055 0.960 . S
H1042 C1055 0.961 . S
H1043 C1055 0.959 . S
H1044 C1058 0.929 . S
H1045 C1059 0.931 . S
H1046 C1061 0.930 . S
C1047 H1035 0.930 . S
C1047 C1048 1.399 1_455 S
C1047 C1052 1.399 . S
C1048 C1047 1.399 1_655 S
C1048 C1049 1.376 . S
C1049 H1036 0.930 . S
C1049 C1048 1.376 . S
C1049 C1050 1.388 1_655 S
C1050 H1037 0.930 . S
C1050 C1049 1.388 1_455 S
C1050 C1051 1.390 . S
C1051 C1050 1.390 . S
C1051 C1052 1.394 . S
C1051 C1057 1.465 . S
C1052 C1047 1.399 . S
C1052 C1051 1.394 . S
C1052 C1053 1.516 . S
C1053 C1052 1.516 . S
C1053 C1054 1.502 . S
C1053 C1055 1.561 . S
C1053 C1056 1.526 . S
C1054 H1038 0.959 . S
C1054 H1039 0.959 . S
C1054 H1040 0.961 . S
C1054 C1053 1.502 . S
C1055 H1041 0.960 . S
C1055 H1042 0.961 . S
C1055 H1043 0.959 . S
C1055 C1053 1.561 . S
C1056 C1053 1.526 . S
C1056 C1057 1.396 . S
C1056 C1061 1.390 . S
C1057 C1051 1.465 . S
C1057 C1056 1.396 . S
C1057 C1058 1.399 . S
C1058 H1044 0.929 . S
C1058 C1057 1.399 . S
C1058 C1059 1.385 . S
C1059 H1045 0.931 . S
C1059 C1058 1.385 . S
C1059 C1060 1.389 . S
C1060 C1059 1.389 . S
C1060 C1061 1.387 . S
C1061 H1046 0.930 . S
C1061 C1056 1.390 . S
C1061 C1060 1.387 . S
H1062 C1074 0.930 . S
H1063 C1076 0.930 . S
H1064 C1077 0.930 . S
H1065 C1081 0.959 . S
H1066 C1081 0.959 . S
H1067 C1081 0.961 . S
H1068 C1082 0.960 . S
H1069 C1082 0.961 . S
H1070 C1082 0.959 . S
H1071 C1085 0.929 . S
H1072 C1086 0.931 . S
H1073 C1088 0.930 . S
C1074 H1062 0.930 . S
C1074 C1075 1.399 . S
C1074 C1079 1.399 . S
C1075 C1074 1.399 . S
C1075 C1076 1.376 . S
C1076 H1063 0.930 . S
C1076 C1075 1.376 . S
C1076 C1077 1.388 . S
C1077 H1064 0.930 . S
C1077 C1076 1.388 . S
C1077 C1078 1.390 . S
C1078 C1077 1.390 . S
C1078 C1079 1.394 . S
C1078 C1084 1.465 . S
C1079 C1074 1.399 . S
C1079 C1078 1.394 . S
C1079 C1080 1.516 . S
C1080 C1079 1.516 . S
C1080 C1081 1.502 . S
C1080 C1082 1.561 . S
C1080 C1083 1.526 . S
C1081 H1065 0.959 . S
C1081 H1066 0.959 . S
C1081 H1067 0.961 . S
C1081 C1080 1.502 . S
C1082 H1068 0.960 . S
C1082 H1069 0.961 . S
C1082 H1070 0.959 . S
C1082 C1080 1.561 . S
C1083 C1080 1.526 . S
C1083 C1084 1.396 . S
C1083 C1088 1.390 . S
C1084 C1078 1.465 . S
C1084 C1083 1.396 . S
C1084 C1085 1.399 . S
C1085 H1071 0.929 . S
C1085 C1084 1.399 . S
C1085 C1086 1.385 . S
C1086 H1072 0.931 . S
C1086 C1085 1.385 . S
C1086 C1087 1.389 . S
C1087 C1086 1.389 . S
C1087 C1088 1.387 . S
C1088 H1073 0.930 . S
C1088 C1083 1.390 . S
C1088 C1087 1.387 . S
H1089 C1101 0.930 . S
H1090 C1103 0.930 . S
H1091 C1104 0.930 . S
H1092 C1108 0.959 . S
H1093 C1108 0.959 . S
H1094 C1108 0.961 . S
H1095 C1109 0.960 . S
H1096 C1109 0.961 . S
H1097 C1109 0.959 . S
H1098 C1112 0.929 . S
H1099 C1113 0.931 . S
H1100 C1115 0.930 . S
C1101 H1089 0.930 . S
C1101 C1102 1.399 1_565 S
C1101 C1106 1.399 . S
C1102 C1101 1.399 1_545 S
C1102 C1103 1.376 . S
C1103 H1090 0.930 . S
C1103 C1102 1.376 . S
C1103 C1104 1.388 1_545 S
C1104 H1091 0.930 . S
C1104 C1103 1.388 1_565 S
C1104 C1105 1.390 . S
C1105 C1104 1.390 . S
C1105 C1106 1.394 . S
C1105 C1111 1.465 . S
C1106 C1101 1.399 . S
C1106 C1105 1.394 . S
C1106 C1107 1.516 . S
C1107 C1106 1.516 . S
C1107 C1108 1.502 . S
C1107 C1109 1.561 . S
C1107 C1110 1.526 . S
C1108 H1092 0.959 . S
C1108 H1093 0.959 . S
C1108 H1094 0.961 . S
C1108 C1107 1.502 . S
C1109 H1095 0.960 . S
C1109 H1096 0.961 . S
C1109 H1097 0.959 . S
C1109 C1107 1.561 . S
C1110 C1107 1.526 . S
C1110 C1111 1.396 . S
C1110 C1115 1.390 . S
C1111 C1105 1.465 . S
C1111 C1110 1.396 . S
C1111 C1112 1.399 . S
C1112 H1098 0.929 . S
C1112 C1111 1.399 . S
C1112 C1113 1.385 . S
C1113 H1099 0.931 . S
C1113 C1112 1.385 . S
C1113 C1114 1.389 . S
C1114 C1113 1.389 . S
C1114 C1115 1.387 . S
C1115 H1100 0.930 . S
C1115 C1110 1.390 . S
C1115 C1114 1.387 . S
H1116 C1128 0.930 . S
H1117 C1130 0.930 . S
H1118 C1131 0.930 1_554 S
H1119 C1135 0.959 . S
H1120 C1135 0.959 . S
H1121 C1135 0.961 . S
H1122 C1136 0.960 . S
H1123 C1136 0.961 . S
H1124 C1136 0.959 . S
H1125 C1139 0.929 . S
H1126 C1140 0.931 . S
H1127 C1142 0.933 1_545 S
C1128 H1116 0.930 . S
C1128 C1129 1.399 . S
C1128 C1133 1.399 . S
C1129 C1128 1.399 . S
C1129 C1130 1.376 . S
C1130 H1117 0.930 . S
C1130 C1129 1.376 . S
C1130 C1131 1.388 . S
C1131 H1118 0.930 1_556 S
C1131 C1130 1.388 . S
C1131 C1132 1.390 . S
C1132 C1131 1.390 . S
C1132 C1133 1.394 . S
C1132 C1138 1.465 1_556 S
C1133 C1128 1.399 . S
C1133 C1132 1.394 . S
C1133 C1134 1.516 . S
C1134 C1133 1.516 . S
C1134 C1135 1.502 . S
C1134 C1136 1.561 . S
C1134 C1137 1.526 . S
C1135 H1119 0.959 . S
C1135 H1120 0.959 . S
C1135 H1121 0.961 . S
C1135 C1134 1.502 . S
C1136 H1122 0.960 . S
C1136 H1123 0.961 . S
C1136 H1124 0.959 . S
C1136 C1134 1.561 . S
C1137 C1134 1.526 . S
C1137 C1138 1.396 1_556 S
C1137 C1142 1.390 1_556 S
C1138 C1132 1.465 1_554 S
C1138 C1137 1.396 1_554 S
C1138 C1139 1.399 . S
C1139 H1125 0.929 . S
C1139 C1138 1.399 . S
C1139 C1140 1.385 . S
C1140 H1126 0.931 . S
C1140 C1139 1.385 . S
C1140 C1141 1.389 . S
C1141 C1140 1.389 . S
C1141 C1142 1.387 . S
C1142 H1127 0.933 1_565 S
C1142 C1137 1.390 1_554 S
C1142 C1141 1.387 . S
H1143 C1155 0.930 . S
H1144 C1157 0.930 . S
H1145 C1158 0.930 . S
H1146 C1162 0.959 . S
H1147 C1162 0.959 . S
H1148 C1162 0.961 . S
H1149 C1163 0.960 . S
H1150 C1163 0.961 . S
H1151 C1163 0.959 . S
H1152 C1166 0.955 . S
H1153 C1167 0.935 . S
H1154 C1169 0.930 . S
C1155 H1143 0.930 . S
C1155 C1156 1.399 . S
C1155 C1160 1.399 . S
C1156 C1155 1.399 . S
C1156 C1157 1.376 . S
C1157 H1144 0.930 . S
C1157 C1156 1.376 . S
C1157 C1158 1.388 . S
C1158 H1145 0.930 . S
C1158 C1157 1.388 . S
C1158 C1159 1.390 . S
C1159 C1158 1.390 . S
C1159 C1160 1.394 . S
C1159 C1165 1.465 . S
C1160 C1155 1.399 . S
C1160 C1159 1.394 . S
C1160 C1161 1.516 1_556 S
C1161 C1160 1.516 1_554 S
C1161 C1162 1.502 . S
C1161 C1163 1.561 . S
C1161 C1164 1.526 . S
C1162 H1146 0.959 . S
C1162 H1147 0.959 . S
C1162 H1148 0.961 . S
C1162 C1161 1.502 . S
C1163 H1149 0.960 . S
C1163 H1150 0.961 . S
C1163 H1151 0.959 . S
C1163 C1161 1.561 . S
C1164 C1161 1.526 . S
C1164 C1165 1.396 1_554 S
C1164 C1169 1.390 . S
C1165 C1159 1.465 . S
C1165 C1164 1.396 1_556 S
C1165 C1166 1.399 . S
C1166 H1152 0.955 . S
C1166 C1165 1.399 . S
C1166 C1167 1.385 1_456 S
C1167 H1153 0.935 . S
C1167 C1166 1.385 1_654 S
C1167 C1168 1.389 . S
C1168 C1167 1.389 . S
C1168 C1169 1.387 1_655 S
C1169 H1154 0.930 . S
C1169 C1164 1.390 . S
C1169 C1168 1.387 1_455 S
H1170 C1182 0.930 . S
H1171 C1184 0.930 . S
H1172 C1185 0.930 . S
H1173 C1189 0.959 . S
H1174 C1189 0.959 . S
H1175 C1189 0.961 . S
H1176 C1190 0.960 . S
H1177 C1190 0.961 . S
H1178 C1190 0.959 . S
H1179 C1193 0.922 1_556 S
H1180 C1194 0.931 . S
H1181 C1196 0.930 . S
C1182 H1170 0.930 . S
C1182 C1183 1.399 . S
C1182 C1187 1.399 . S
C1183 C1182 1.399 . S
C1183 C1184 1.376 . S
C1184 H1171 0.930 . S
C1184 C1183 1.376 . S
C1184 C1185 1.388 . S
C1185 H1172 0.930 . S
C1185 C1184 1.388 . S
C1185 C1186 1.390 . S
C1186 C1185 1.390 . S
C1186 C1187 1.394 . S
C1186 C1192 1.465 . S
C1187 C1182 1.399 . S
C1187 C1186 1.394 . S
C1187 C1188 1.516 . S
C1188 C1187 1.516 . S
C1188 C1189 1.502 1_556 S
C1188 C1190 1.561 . S
C1188 C1191 1.526 1_556 S
C1189 H1173 0.959 . S
C1189 H1174 0.959 . S
C1189 H1175 0.961 . S
C1189 C1188 1.502 1_554 S
C1190 H1176 0.960 . S
C1190 H1177 0.961 . S
C1190 H1178 0.959 . S
C1190 C1188 1.561 . S
C1191 C1188 1.526 1_554 S
C1191 C1192 1.396 1_554 S
C1191 C1196 1.390 . S
C1192 C1186 1.465 . S
C1192 C1191 1.396 1_556 S
C1192 C1193 1.399 1_556 S
C1193 H1179 0.922 1_554 S
C1193 C1192 1.399 1_554 S
C1193 C1194 1.385 . S
C1194 H1180 0.931 . S
C1194 C1193 1.385 . S
C1194 C1195 1.389 . S
C1195 C1194 1.389 . S
C1195 C1196 1.387 . S
C1196 H1181 0.930 . S
C1196 C1191 1.390 . S
C1196 C1195 1.387 . S
H1197 C1209 0.930 . S
H1198 C1211 0.930 . S
H1199 C1212 0.930 . S
H1200 C1216 0.959 . S
H1201 C1216 0.959 . S
H1202 C1216 0.961 . S
H1203 C1217 0.960 . S
H1204 C1217 0.961 . S
H1205 C1217 0.959 . S
H1206 C1220 0.929 . S
H1207 C1221 0.931 . S
H1208 C1223 0.930 1_455 S
C1209 H1197 0.930 . S
C1209 C1210 1.399 . S
C1209 C1214 1.399 . S
C1210 C1209 1.399 . S
C1210 C1211 1.376 . S
C1211 H1198 0.930 . S
C1211 C1210 1.376 . S
C1211 C1212 1.388 . S
C1212 H1199 0.930 . S
C1212 C1211 1.388 . S
C1212 C1213 1.390 . S
C1213 C1212 1.390 . S
C1213 C1214 1.394 . S
C1213 C1219 1.465 . S
C1214 C1209 1.399 . S
C1214 C1213 1.394 . S
C1214 C1215 1.516 . S
C1215 C1214 1.516 . S
C1215 C1216 1.502 . S
C1215 C1217 1.561 . S
C1215 C1218 1.526 . S
C1216 H1200 0.959 . S
C1216 H1201 0.959 . S
C1216 H1202 0.961 . S
C1216 C1215 1.502 . S
C1217 H1203 0.960 . S
C1217 H1204 0.961 . S
C1217 H1205 0.959 . S
C1217 C1215 1.561 . S
C1218 C1215 1.526 . S
C1218 C1219 1.396 . S
C1218 C1223 1.390 . S
C1219 C1213 1.465 . S
C1219 C1218 1.396 . S
C1219 C1220 1.399 . S
C1220 H1206 0.929 . S
C1220 C1219 1.399 . S
C1220 C1221 1.385 . S
C1221 H1207 0.931 . S
C1221 C1220 1.385 . S
C1221 C1222 1.389 . S
C1222 C1221 1.389 . S
C1222 C1223 1.387 . S
C1223 H1208 0.930 1_655 S
C1223 C1218 1.390 . S
C1223 C1222 1.387 . S
H1224 C1236 0.930 . S
H1225 C1238 0.930 . S
H1226 C1239 0.930 . S
H1227 C1243 0.959 . S
H1228 C1243 0.959 . S
H1229 C1243 0.961 . S
H1230 C1244 0.960 . S
H1231 C1244 0.961 . S
H1232 C1244 0.959 . S
H1233 C1247 0.929 . S
H1234 C1248 0.931 . S
H1235 C1250 0.930 . S
C1236 H1224 0.930 . S
C1236 C1237 1.399 . S
C1236 C1241 1.399 . S
C1237 C1236 1.399 . S
C1237 C1238 1.376 . S
C1238 H1225 0.930 . S
C1238 C1237 1.376 . S
C1238 C1239 1.388 . S
C1239 H1226 0.930 . S
C1239 C1238 1.388 . S
C1239 C1240 1.390 . S
C1240 C1239 1.390 . S
C1240 C1241 1.394 . S
C1240 C1246 1.465 . S
C1241 C1236 1.399 . S
C1241 C1240 1.394 . S
C1241 C1242 1.516 . S
C1242 C1241 1.516 . S
C1242 C1243 1.502 . S
C1242 C1244 1.561 . S
C1242 C1245 1.526 . S
C1243 H1227 0.959 . S
C1243 H1228 0.959 . S
C1243 H1229 0.961 . S
C1243 C1242 1.502 . S
C1244 H1230 0.960 . S
C1244 H1231 0.961 . S
C1244 H1232 0.959 . S
C1244 C1242 1.561 . S
C1245 C1242 1.526 . S
C1245 C1246 1.396 . S
C1245 C1250 1.390 . S
C1246 C1240 1.465 . S
C1246 C1245 1.396 . S
C1246 C1247 1.399 . S
C1247 H1233 0.929 . S
C1247 C1246 1.399 . S
C1247 C1248 1.385 . S
C1248 H1234 0.931 . S
C1248 C1247 1.385 . S
C1248 C1249 1.389 . S
C1249 C1248 1.389 . S
C1249 C1250 1.387 . S
C1250 H1235 0.930 . S
C1250 C1245 1.390 . S
C1250 C1249 1.387 . S
H1251 C1263 0.930 . S
H1252 C1265 0.930 . S
H1253 C1266 0.930 . S
H1254 C1270 0.959 . S
H1255 C1270 0.959 . S
H1256 C1270 0.961 . S
H1257 C1271 0.960 . S
H1258 C1271 0.961 . S
H1259 C1271 0.959 . S
H1260 C1274 0.929 . S
H1261 C1275 0.931 . S
H1262 C1277 0.930 . S
C1263 H1251 0.930 . S
C1263 C1264 1.399 . S
C1263 C1268 1.399 . S
C1264 C1263 1.399 . S
C1264 C1265 1.376 . S
C1265 H1252 0.930 . S
C1265 C1264 1.376 . S
C1265 C1266 1.388 . S
C1266 H1253 0.930 . S
C1266 C1265 1.388 . S
C1266 C1267 1.390 . S
C1267 C1266 1.390 . S
C1267 C1268 1.394 . S
C1267 C1273 1.465 . S
C1268 C1263 1.399 . S
C1268 C1267 1.394 . S
C1268 C1269 1.516 . S
C1269 C1268 1.516 . S
C1269 C1270 1.502 . S
C1269 C1271 1.561 . S
C1269 C1272 1.526 . S
C1270 H1254 0.959 . S
C1270 H1255 0.959 . S
C1270 H1256 0.961 . S
C1270 C1269 1.502 . S
C1271 H1257 0.960 . S
C1271 H1258 0.961 . S
C1271 H1259 0.959 . S
C1271 C1269 1.561 . S
C1272 C1269 1.526 . S
C1272 C1273 1.396 . S
C1272 C1277 1.390 . S
C1273 C1267 1.465 . S
C1273 C1272 1.396 . S
C1273 C1274 1.399 . S
C1274 H1260 0.929 . S
C1274 C1273 1.399 . S
C1274 C1275 1.385 . S
C1275 H1261 0.931 . S
C1275 C1274 1.385 . S
C1275 C1276 1.389 . S
C1276 C1275 1.389 . S
C1276 C1277 1.387 . S
C1277 H1262 0.930 . S
C1277 C1272 1.390 . S
C1277 C1276 1.387 . S
H1278 C1290 0.930 . S
H1279 C1292 0.930 . S
H1280 C1293 0.930 . S
H1281 C1297 0.959 . S
H1282 C1297 0.959 . S
H1283 C1297 0.961 . S
H1284 C1298 0.960 . S
H1285 C1298 0.961 . S
H1286 C1298 0.959 . S
H1287 C1301 0.929 . S
H1288 C1302 0.931 . S
H1289 C1304 0.930 . S
C1290 H1278 0.930 . S
C1290 C1291 1.399 . S
C1290 C1295 1.399 . S
C1291 C1290 1.399 . S
C1291 C1292 1.376 . S
C1292 H1279 0.930 . S
C1292 C1291 1.376 . S
C1292 C1293 1.388 . S
C1293 H1280 0.930 . S
C1293 C1292 1.388 . S
C1293 C1294 1.390 . S
C1294 C1293 1.390 . S
C1294 C1295 1.394 . S
C1294 C1300 1.465 . S
C1295 C1290 1.399 . S
C1295 C1294 1.394 . S
C1295 C1296 1.516 . S
C1296 C1295 1.516 . S
C1296 C1297 1.502 . S
C1296 C1298 1.561 . S
C1296 C1299 1.526 . S
C1297 H1281 0.959 . S
C1297 H1282 0.959 . S
C1297 H1283 0.961 . S
C1297 C1296 1.502 . S
C1298 H1284 0.960 . S
C1298 H1285 0.961 . S
C1298 H1286 0.959 . S
C1298 C1296 1.561 . S
C1299 C1296 1.526 . S
C1299 C1300 1.396 . S
C1299 C1304 1.390 . S
C1300 C1294 1.465 . S
C1300 C1299 1.396 . S
C1300 C1301 1.399 . S
C1301 H1287 0.929 . S
C1301 C1300 1.399 . S
C1301 C1302 1.385 . S
C1302 H1288 0.931 . S
C1302 C1301 1.385 . S
C1302 C1303 1.389 . S
C1303 C1302 1.389 . S
C1303 C1304 1.387 . S
C1304 H1289 0.930 . S
C1304 C1299 1.390 . S
C1304 C1303 1.387 . S
H1305 C1317 0.930 . S
H1306 C1319 0.930 . S
H1307 C1320 0.930 . S
H1308 C1324 0.959 . S
H1309 C1324 0.959 . S
H1310 C1324 0.961 . S
H1311 C1325 0.960 . S
H1312 C1325 0.961 . S
H1313 C1325 0.959 . S
H1314 C1328 0.929 . S
H1315 C1329 0.931 . S
H1316 C1331 0.930 . S
C1317 H1305 0.930 . S
C1317 C1318 1.399 . S
C1317 C1322 1.399 . S
C1318 C1317 1.399 . S
C1318 C1319 1.376 . S
C1319 H1306 0.930 . S
C1319 C1318 1.376 . S
C1319 C1320 1.388 . S
C1320 H1307 0.930 . S
C1320 C1319 1.388 . S
C1320 C1321 1.390 . S
C1321 C1320 1.390 . S
C1321 C1322 1.394 . S
C1321 C1327 1.465 . S
C1322 C1317 1.399 . S
C1322 C1321 1.394 . S
C1322 C1323 1.516 . S
C1323 C1322 1.516 . S
C1323 C1324 1.502 . S
C1323 C1325 1.561 . S
C1323 C1326 1.526 . S
C1324 H1308 0.959 . S
C1324 H1309 0.959 . S
C1324 H1310 0.961 . S
C1324 C1323 1.502 . S
C1325 H1311 0.960 . S
C1325 H1312 0.961 . S
C1325 H1313 0.959 . S
C1325 C1323 1.561 . S
C1326 C1323 1.526 . S
C1326 C1327 1.396 . S
C1326 C1331 1.390 . S
C1327 C1321 1.465 . S
C1327 C1326 1.396 . S
C1327 C1328 1.399 . S
C1328 H1314 0.929 . S
C1328 C1327 1.399 . S
C1328 C1329 1.385 . S
C1329 H1315 0.931 . S
C1329 C1328 1.385 . S
C1329 C1330 1.389 . S
C1330 C1329 1.389 . S
C1330 C1331 1.387 . S
C1331 H1316 0.930 . S
C1331 C1326 1.390 . S
C1331 C1330 1.387 . S
H1332 C1344 0.930 . S
H1333 C1346 0.930 . S
H1334 C1347 0.930 . S
H1335 C1351 0.959 . S
H1336 C1351 0.959 . S
H1337 C1351 0.961 . S
H1338 C1352 0.960 . S
H1339 C1352 0.961 . S
H1340 C1352 0.959 . S
H1341 C1355 0.929 . S
H1342 C1356 0.931 . S
H1343 C1358 0.930 . S
C1344 H1332 0.930 . S
C1344 C1345 1.399 . S
C1344 C1349 1.399 . S
C1345 C1344 1.399 . S
C1345 C1346 1.376 . S
C1346 H1333 0.930 . S
C1346 C1345 1.376 . S
C1346 C1347 1.388 . S
C1347 H1334 0.930 . S
C1347 C1346 1.388 . S
C1347 C1348 1.390 . S
C1348 C1347 1.390 . S
C1348 C1349 1.394 . S
C1348 C1354 1.465 . S
C1349 C1344 1.399 . S
C1349 C1348 1.394 . S
C1349 C1350 1.516 . S
C1350 C1349 1.516 . S
C1350 C1351 1.502 . S
C1350 C1352 1.561 . S
C1350 C1353 1.526 . S
C1351 H1335 0.959 . S
C1351 H1336 0.959 . S
C1351 H1337 0.961 . S
C1351 C1350 1.502 . S
C1352 H1338 0.960 . S
C1352 H1339 0.961 . S
C1352 H1340 0.959 . S
C1352 C1350 1.561 . S
C1353 C1350 1.526 . S
C1353 C1354 1.396 . S
C1353 C1358 1.390 . S
C1354 C1348 1.465 . S
C1354 C1353 1.396 . S
C1354 C1355 1.399 . S
C1355 H1341 0.929 . S
C1355 C1354 1.399 . S
C1355 C1356 1.385 . S
C1356 H1342 0.931 . S
C1356 C1355 1.385 . S
C1356 C1357 1.389 . S
C1357 C1356 1.389 . S
C1357 C1358 1.387 . S
C1358 H1343 0.930 . S
C1358 C1353 1.390 . S
C1358 C1357 1.387 . S
H1359 C1371 0.930 . S
H1360 C1373 0.930 . S
H1361 C1374 0.930 . S
H1362 C1378 0.959 . S
H1363 C1378 0.959 . S
H1364 C1378 0.961 . S
H1365 C1379 0.960 . S
H1366 C1379 0.961 . S
H1367 C1379 0.959 . S
H1368 C1382 0.929 . S
H1369 C1383 0.931 . S
H1370 C1385 0.930 . S
C1371 H1359 0.930 . S
C1371 C1372 1.399 . S
C1371 C1376 1.399 . S
C1372 C1371 1.399 . S
C1372 C1373 1.376 . S
C1373 H1360 0.930 . S
C1373 C1372 1.376 . S
C1373 C1374 1.388 . S
C1374 H1361 0.930 . S
C1374 C1373 1.388 . S
C1374 C1375 1.390 . S
C1375 C1374 1.390 . S
C1375 C1376 1.394 . S
C1375 C1381 1.465 . S
C1376 C1371 1.399 . S
C1376 C1375 1.394 . S
C1376 C1377 1.516 . S
C1377 C1376 1.516 . S
C1377 C1378 1.502 . S
C1377 C1379 1.561 . S
C1377 C1380 1.526 . S
C1378 H1362 0.959 . S
C1378 H1363 0.959 . S
C1378 H1364 0.961 . S
C1378 C1377 1.502 . S
C1379 H1365 0.960 . S
C1379 H1366 0.961 . S
C1379 H1367 0.959 . S
C1379 C1377 1.561 . S
C1380 C1377 1.526 . S
C1380 C1381 1.396 . S
C1380 C1385 1.390 . S
C1381 C1375 1.465 . S
C1381 C1380 1.396 . S
C1381 C1382 1.399 . S
C1382 H1368 0.929 . S
C1382 C1381 1.399 . S
C1382 C1383 1.385 . S
C1383 H1369 0.931 . S
C1383 C1382 1.385 . S
C1383 C1384 1.389 . S
C1384 C1383 1.389 . S
C1384 C1385 1.387 . S
C1385 H1370 0.930 . S
C1385 C1380 1.390 . S
C1385 C1384 1.387 . S
H1386 C1398 0.930 . S
H1387 C1400 0.930 . S
H1388 C1401 0.930 . S
H1389 C1405 0.959 . S
H1390 C1405 0.959 . S
H1391 C1405 0.961 . S
H1392 C1406 0.960 . S
H1393 C1406 0.961 . S
H1394 C1406 0.959 . S
H1395 C1409 0.929 . S
H1396 C1410 0.931 . S
H1397 C1412 0.930 . S
C1398 H1386 0.930 . S
C1398 C1399 1.399 . S
C1398 C1403 1.399 . S
C1399 C1398 1.399 . S
C1399 C1400 1.376 . S
C1400 H1387 0.930 . S
C1400 C1399 1.376 . S
C1400 C1401 1.388 . S
C1401 H1388 0.930 . S
C1401 C1400 1.388 . S
C1401 C1402 1.390 . S
C1402 C1401 1.390 . S
C1402 C1403 1.394 . S
C1402 C1408 1.465 . S
C1403 C1398 1.399 . S
C1403 C1402 1.394 . S
C1403 C1404 1.516 . S
C1404 C1403 1.516 . S
C1404 C1405 1.502 . S
C1404 C1406 1.561 . S
C1404 C1407 1.526 . S
C1405 H1389 0.959 . S
C1405 H1390 0.959 . S
C1405 H1391 0.961 . S
C1405 C1404 1.502 . S
C1406 H1392 0.960 . S
C1406 H1393 0.961 . S
C1406 H1394 0.959 . S
C1406 C1404 1.561 . S
C1407 C1404 1.526 . S
C1407 C1408 1.396 . S
C1407 C1412 1.390 . S
C1408 C1402 1.465 . S
C1408 C1407 1.396 . S
C1408 C1409 1.399 . S
C1409 H1395 0.929 . S
C1409 C1408 1.399 . S
C1409 C1410 1.385 . S
C1410 H1396 0.931 . S
C1410 C1409 1.385 . S
C1410 C1411 1.389 . S
C1411 C1410 1.389 . S
C1411 C1412 1.387 . S
C1412 H1397 0.930 . S
C1412 C1407 1.390 . S
C1412 C1411 1.387 . S
H1413 C1425 0.930 . S
H1414 C1427 0.930 . S
H1415 C1428 0.930 . S
H1416 C1432 0.959 . S
H1417 C1432 0.959 . S
H1418 C1432 0.961 . S
H1419 C1433 0.960 . S
H1420 C1433 0.961 . S
H1421 C1433 0.959 . S
H1422 C1436 0.929 . S
H1423 C1437 0.931 . S
H1424 C1439 0.930 . S
C1425 H1413 0.930 . S
C1425 C1426 1.399 . S
C1425 C1430 1.399 . S
C1426 C1425 1.399 . S
C1426 C1427 1.376 . S
C1427 H1414 0.930 . S
C1427 C1426 1.376 . S
C1427 C1428 1.388 . S
C1428 H1415 0.930 . S
C1428 C1427 1.388 . S
C1428 C1429 1.390 . S
C1429 C1428 1.390 . S
C1429 C1430 1.394 . S
C1429 C1435 1.465 . S
C1430 C1425 1.399 . S
C1430 C1429 1.394 . S
C1430 C1431 1.516 . S
C1431 C1430 1.516 . S
C1431 C1432 1.502 . S
C1431 C1433 1.561 . S
C1431 C1434 1.526 . S
C1432 H1416 0.959 . S
C1432 H1417 0.959 . S
C1432 H1418 0.961 . S
C1432 C1431 1.502 . S
C1433 H1419 0.960 . S
C1433 H1420 0.961 . S
C1433 H1421 0.959 . S
C1433 C1431 1.561 . S
C1434 C1431 1.526 . S
C1434 C1435 1.396 . S
C1434 C1439 1.390 . S
C1435 C1429 1.465 . S
C1435 C1434 1.396 . S
C1435 C1436 1.399 . S
C1436 H1422 0.929 . S
C1436 C1435 1.399 . S
C1436 C1437 1.385 . S
C1437 H1423 0.931 . S
C1437 C1436 1.385 . S
C1437 C1438 1.389 . S
C1438 C1437 1.389 . S
C1438 C1439 1.387 . S
C1439 H1424 0.930 . S
C1439 C1434 1.390 . S
C1439 C1438 1.387 . S
H1440 C1452 0.930 . S
H1441 C1454 0.930 . S
H1442 C1455 0.930 . S
H1443 C1459 0.959 . S
H1444 C1459 0.959 . S
H1445 C1459 0.961 . S
H1446 C1460 0.960 . S
H1447 C1460 0.961 . S
H1448 C1460 0.959 . S
H1449 C1463 0.929 . S
H1450 C1464 0.931 . S
H1451 C1466 0.930 . S
C1452 H1440 0.930 . S
C1452 C1453 1.399 . S
C1452 C1457 1.399 . S
C1453 C1452 1.399 . S
C1453 C1454 1.376 . S
C1454 H1441 0.930 . S
C1454 C1453 1.376 . S
C1454 C1455 1.388 . S
C1455 H1442 0.930 . S
C1455 C1454 1.388 . S
C1455 C1456 1.390 . S
C1456 C1455 1.390 . S
C1456 C1457 1.394 . S
C1456 C1462 1.465 . S
C1457 C1452 1.399 . S
C1457 C1456 1.394 . S
C1457 C1458 1.516 . S
C1458 C1457 1.516 . S
C1458 C1459 1.502 . S
C1458 C1460 1.561 . S
C1458 C1461 1.526 . S
C1459 H1443 0.959 . S
C1459 H1444 0.959 . S
C1459 H1445 0.961 . S
C1459 C1458 1.502 . S
C1460 H1446 0.960 . S
C1460 H1447 0.961 . S
C1460 H1448 0.959 . S
C1460 C1458 1.561 . S
C1461 C1458 1.526 . S
C1461 C1462 1.396 . S
C1461 C1466 1.390 . S
C1462 C1456 1.465 . S
C1462 C1461 1.396 . S
C1462 C1463 1.399 . S
C1463 H1449 0.929 . S
C1463 C1462 1.399 . S
C1463 C1464 1.385 . S
C1464 H1450 0.931 . S
C1464 C1463 1.385 . S
C1464 C1465 1.389 . S
C1465 C1464 1.389 . S
C1465 C1466 1.387 . S
C1466 H1451 0.930 . S
C1466 C1461 1.390 . S
C1466 C1465 1.387 . S
H1467 C1479 0.930 . S
H1468 C1481 0.930 . S
H1469 C1482 0.930 . S
H1470 C1486 0.959 . S
H1471 C1486 0.959 . S
H1472 C1486 0.961 . S
H1473 C1487 0.960 . S
H1474 C1487 0.961 . S
H1475 C1487 0.959 . S
H1476 C1490 0.929 . S
H1477 C1491 0.931 . S
H1478 C1493 0.930 . S
C1479 H1467 0.930 . S
C1479 C1480 1.399 . S
C1479 C1484 1.399 . S
C1480 C1479 1.399 . S
C1480 C1481 1.376 . S
C1481 H1468 0.930 . S
C1481 C1480 1.376 . S
C1481 C1482 1.388 . S
C1482 H1469 0.930 . S
C1482 C1481 1.388 . S
C1482 C1483 1.390 . S
C1483 C1482 1.390 . S
C1483 C1484 1.394 . S
C1483 C1489 1.465 . S
C1484 C1479 1.399 . S
C1484 C1483 1.394 . S
C1484 C1485 1.516 . S
C1485 C1484 1.516 . S
C1485 C1486 1.502 . S
C1485 C1487 1.561 . S
C1485 C1488 1.526 . S
C1486 H1470 0.959 . S
C1486 H1471 0.959 . S
C1486 H1472 0.961 . S
C1486 C1485 1.502 . S
C1487 H1473 0.960 . S
C1487 H1474 0.961 . S
C1487 H1475 0.959 . S
C1487 C1485 1.561 . S
C1488 C1485 1.526 . S
C1488 C1489 1.396 . S
C1488 C1493 1.390 . S
C1489 C1483 1.465 . S
C1489 C1488 1.396 . S
C1489 C1490 1.399 . S
C1490 H1476 0.929 . S
C1490 C1489 1.399 . S
C1490 C1491 1.385 . S
C1491 H1477 0.931 . S
C1491 C1490 1.385 . S
C1491 C1492 1.389 . S
C1492 C1491 1.389 . S
C1492 C1493 1.387 . S
C1493 H1478 0.930 . S
C1493 C1488 1.390 . S
C1493 C1492 1.387 . S
H1494 C1506 0.930 . S
H1495 C1508 0.930 . S
H1496 C1509 0.930 . S
H1497 C1513 0.959 . S
H1498 C1513 0.959 . S
H1499 C1513 0.961 . S
H1500 C1514 0.960 . S
H1501 C1514 0.961 . S
H1502 C1514 0.959 . S
H1503 C1517 0.929 . S
H1504 C1518 0.931 . S
H1505 C1520 0.930 . S
C1506 H1494 0.930 . S
C1506 C1507 1.399 . S
C1506 C1511 1.399 . S
C1507 C1506 1.399 . S
C1507 C1508 1.376 . S
C1508 H1495 0.930 . S
C1508 C1507 1.376 . S
C1508 C1509 1.388 . S
C1509 H1496 0.930 . S
C1509 C1508 1.388 . S
C1509 C1510 1.390 . S
C1510 C1509 1.390 . S
C1510 C1511 1.394 . S
C1510 C1516 1.465 . S
C1511 C1506 1.399 . S
C1511 C1510 1.394 . S
C1511 C1512 1.516 . S
C1512 C1511 1.516 . S
C1512 C1513 1.502 . S
C1512 C1514 1.561 . S
C1512 C1515 1.526 . S
C1513 H1497 0.959 . S
C1513 H1498 0.959 . S
C1513 H1499 0.961 . S
C1513 C1512 1.502 . S
C1514 H1500 0.960 . S
C1514 H1501 0.961 . S
C1514 H1502 0.959 . S
C1514 C1512 1.561 . S
C1515 C1512 1.526 . S
C1515 C1516 1.396 . S
C1515 C1520 1.390 . S
C1516 C1510 1.465 . S
C1516 C1515 1.396 . S
C1516 C1517 1.399 . S
C1517 H1503 0.929 . S
C1517 C1516 1.399 . S
C1517 C1518 1.385 . S
C1518 H1504 0.931 . S
C1518 C1517 1.385 . S
C1518 C1519 1.389 . S
C1519 C1518 1.389 . S
C1519 C1520 1.387 . S
C1520 H1505 0.930 . S
C1520 C1515 1.390 . S
C1520 C1519 1.387 . S
H1521 C1533 0.930 . S
H1522 C1535 0.930 . S
H1523 C1536 0.930 . S
H1524 C1540 0.959 . S
H1525 C1540 0.959 . S
H1526 C1540 0.961 . S
H1527 C1541 0.960 . S
H1528 C1541 0.961 . S
H1529 C1541 0.959 . S
H1530 C1544 0.929 . S
H1531 C1545 0.931 . S
H1532 C1547 0.930 . S
C1533 H1521 0.930 . S
C1533 C1534 1.399 . S
C1533 C1538 1.399 . S
C1534 C1533 1.399 . S
C1534 C1535 1.376 . S
C1535 H1522 0.930 . S
C1535 C1534 1.376 . S
C1535 C1536 1.388 . S
C1536 H1523 0.930 . S
C1536 C1535 1.388 . S
C1536 C1537 1.390 . S
C1537 C1536 1.390 . S
C1537 C1538 1.394 . S
C1537 C1543 1.465 . S
C1538 C1533 1.399 . S
C1538 C1537 1.394 . S
C1538 C1539 1.516 . S
C1539 C1538 1.516 . S
C1539 C1540 1.502 . S
C1539 C1541 1.561 . S
C1539 C1542 1.526 . S
C1540 H1524 0.959 . S
C1540 H1525 0.959 . S
C1540 H1526 0.961 . S
C1540 C1539 1.502 . S
C1541 H1527 0.960 . S
C1541 H1528 0.961 . S
C1541 H1529 0.959 . S
C1541 C1539 1.561 . S
C1542 C1539 1.526 . S
C1542 C1543 1.396 . S
C1542 C1547 1.390 . S
C1543 C1537 1.465 . S
C1543 C1542 1.396 . S
C1543 C1544 1.399 . S
C1544 H1530 0.929 . S
C1544 C1543 1.399 . S
C1544 C1545 1.385 . S
C1545 H1531 0.931 . S
C1545 C1544 1.385 . S
C1545 C1546 1.389 . S
C1546 C1545 1.389 . S
C1546 C1547 1.387 . S
C1547 H1532 0.930 . S
C1547 C1542 1.390 . S
C1547 C1546 1.387 . S
H1548 C1560 0.930 . S
H1549 C1562 0.930 . S
H1550 C1563 0.930 . S
H1551 C1567 0.959 . S
H1552 C1567 0.959 . S
H1553 C1567 0.961 . S
H1554 C1568 0.960 . S
H1555 C1568 0.961 . S
H1556 C1568 0.959 . S
H1557 C1571 0.929 . S
H1558 C1572 0.931 . S
H1559 C1574 0.930 . S
C1560 H1548 0.930 . S
C1560 C1561 1.399 . S
C1560 C1565 1.399 . S
C1561 C1560 1.399 . S
C1561 C1562 1.376 . S
C1562 H1549 0.930 . S
C1562 C1561 1.376 . S
C1562 C1563 1.388 . S
C1563 H1550 0.930 . S
C1563 C1562 1.388 . S
C1563 C1564 1.390 . S
C1564 C1563 1.390 . S
C1564 C1565 1.394 . S
C1564 C1570 1.465 . S
C1565 C1560 1.399 . S
C1565 C1564 1.394 . S
C1565 C1566 1.516 . S
C1566 C1565 1.516 . S
C1566 C1567 1.502 . S
C1566 C1568 1.561 . S
C1566 C1569 1.526 . S
C1567 H1551 0.959 . S
C1567 H1552 0.959 . S
C1567 H1553 0.961 . S
C1567 C1566 1.502 . S
C1568 H1554 0.960 . S
C1568 H1555 0.961 . S
C1568 H1556 0.959 . S
C1568 C1566 1.561 . S
C1569 C1566 1.526 . S
C1569 C1570 1.396 . S
C1569 C1574 1.390 . S
C1570 C1564 1.465 . S
C1570 C1569 1.396 . S
C1570 C1571 1.399 . S
C1571 H1557 0.929 . S
C1571 C1570 1.399 . S
C1571 C1572 1.385 . S
C1572 H1558 0.931 . S
C1572 C1571 1.385 . S
C1572 C1573 1.389 . S
C1573 C1572 1.389 . S
C1573 C1574 1.387 . S
C1574 H1559 0.930 . S
C1574 C1569 1.390 . S
C1574 C1573 1.387 . S
H1575 C1587 0.930 . S
H1576 C1589 0.930 . S
H1577 C1590 0.930 . S
H1578 C1594 0.959 . S
H1579 C1594 0.959 . S
H1580 C1594 0.961 . S
H1581 C1595 0.960 . S
H1582 C1595 0.961 . S
H1583 C1595 0.959 . S
H1584 C1598 0.929 . S
H1585 C1599 0.931 . S
H1586 C1601 0.930 . S
C1587 H1575 0.930 . S
C1587 C1588 1.399 . S
C1587 C1592 1.399 . S
C1588 C1587 1.399 . S
C1588 C1589 1.376 . S
C1589 H1576 0.930 . S
C1589 C1588 1.376 . S
C1589 C1590 1.388 . S
C1590 H1577 0.930 . S
C1590 C1589 1.388 . S
C1590 C1591 1.390 . S
C1591 C1590 1.390 . S
C1591 C1592 1.394 . S
C1591 C1597 1.465 . S
C1592 C1587 1.399 . S
C1592 C1591 1.394 . S
C1592 C1593 1.516 . S
C1593 C1592 1.516 . S
C1593 C1594 1.502 . S
C1593 C1595 1.561 . S
C1593 C1596 1.526 . S
C1594 H1578 0.959 . S
C1594 H1579 0.959 . S
C1594 H1580 0.961 . S
C1594 C1593 1.502 . S
C1595 H1581 0.960 . S
C1595 H1582 0.961 . S
C1595 H1583 0.959 . S
C1595 C1593 1.561 . S
C1596 C1593 1.526 . S
C1596 C1597 1.396 . S
C1596 C1601 1.390 . S
C1597 C1591 1.465 . S
C1597 C1596 1.396 . S
C1597 C1598 1.399 . S
C1598 H1584 0.929 . S
C1598 C1597 1.399 . S
C1598 C1599 1.385 . S
C1599 H1585 0.931 . S
C1599 C1598 1.385 . S
C1599 C1600 1.389 . S
C1600 C1599 1.389 . S
C1600 C1601 1.387 . S
C1601 H1586 0.930 . S
C1601 C1596 1.390 . S
C1601 C1600 1.387 . S
H1602 C1614 0.930 . S
H1603 C1616 0.930 . S
H1604 C1617 0.930 . S
H1605 C1621 0.959 . S
H1606 C1621 0.959 . S
H1607 C1621 0.961 . S
H1608 C1622 0.960 . S
H1609 C1622 0.961 . S
H1610 C1622 0.959 . S
H1611 C1625 0.929 . S
H1612 C1626 0.931 . S
H1613 C1628 0.930 . S
C1614 H1602 0.930 . S
C1614 C1615 1.399 . S
C1614 C1619 1.399 . S
C1615 C1614 1.399 . S
C1615 C1616 1.376 . S
C1616 H1603 0.930 . S
C1616 C1615 1.376 . S
C1616 C1617 1.388 . S
C1617 H1604 0.930 . S
C1617 C1616 1.388 . S
C1617 C1618 1.390 . S
C1618 C1617 1.390 . S
C1618 C1619 1.394 . S
C1618 C1624 1.465 . S
C1619 C1614 1.399 . S
C1619 C1618 1.394 . S
C1619 C1620 1.516 . S
C1620 C1619 1.516 . S
C1620 C1621 1.502 . S
C1620 C1622 1.561 . S
C1620 C1623 1.526 . S
C1621 H1605 0.959 . S
C1621 H1606 0.959 . S
C1621 H1607 0.961 . S
C1621 C1620 1.502 . S
C1622 H1608 0.960 . S
C1622 H1609 0.961 . S
C1622 H1610 0.959 . S
C1622 C1620 1.561 . S
C1623 C1620 1.526 . S
C1623 C1624 1.396 . S
C1623 C1628 1.390 . S
C1624 C1618 1.465 . S
C1624 C1623 1.396 . S
C1624 C1625 1.399 . S
C1625 H1611 0.929 . S
C1625 C1624 1.399 . S
C1625 C1626 1.385 . S
C1626 H1612 0.931 . S
C1626 C1625 1.385 . S
C1626 C1627 1.389 . S
C1627 C1626 1.389 . S
C1627 C1628 1.387 . S
C1628 H1613 0.930 . S
C1628 C1623 1.390 . S
C1628 C1627 1.387 . S
H1629 C1641 0.930 . S
H1630 C1643 0.930 . S
H1631 C1644 0.930 . S
H1632 C1648 0.959 . S
H1633 C1648 0.959 . S
H1634 C1648 0.961 . S
H1635 C1649 0.960 . S
H1636 C1649 0.961 . S
H1637 C1649 0.959 . S
H1638 C1652 0.929 . S
H1639 C1653 0.931 . S
H1640 C1655 0.930 . S
C1641 H1629 0.930 . S
C1641 C1642 1.399 . S
C1641 C1646 1.399 . S
C1642 C1641 1.399 . S
C1642 C1643 1.376 . S
C1643 H1630 0.930 . S
C1643 C1642 1.376 . S
C1643 C1644 1.388 . S
C1644 H1631 0.930 . S
C1644 C1643 1.388 . S
C1644 C1645 1.390 . S
C1645 C1644 1.390 . S
C1645 C1646 1.394 . S
C1645 C1651 1.465 . S
C1646 C1641 1.399 . S
C1646 C1645 1.394 . S
C1646 C1647 1.516 . S
C1647 C1646 1.516 . S
C1647 C1648 1.502 . S
C1647 C1649 1.561 . S
C1647 C1650 1.526 . S
C1648 H1632 0.959 . S
C1648 H1633 0.959 . S
C1648 H1634 0.961 . S
C1648 C1647 1.502 . S
C1649 H1635 0.960 . S
C1649 H1636 0.961 . S
C1649 H1637 0.959 . S
C1649 C1647 1.561 . S
C1650 C1647 1.526 . S
C1650 C1651 1.396 . S
C1650 C1655 1.390 . S
C1651 C1645 1.465 . S
C1651 C1650 1.396 . S
C1651 C1652 1.399 . S
C1652 H1638 0.929 . S
C1652 C1651 1.399 . S
C1652 C1653 1.385 . S
C1653 H1639 0.931 . S
C1653 C1652 1.385 . S
C1653 C1654 1.389 . S
C1654 C1653 1.389 . S
C1654 C1655 1.387 . S
C1655 H1640 0.930 . S
C1655 C1650 1.390 . S
C1655 C1654 1.387 . S
H1656 C1668 0.930 . S
H1657 C1670 0.930 . S
H1658 C1671 0.930 . S
H1659 C1675 0.959 . S
H1660 C1675 0.959 . S
H1661 C1675 0.961 . S
H1662 C1676 0.960 . S
H1663 C1676 0.961 . S
H1664 C1676 0.959 . S
H1665 C1679 0.929 . S
H1666 C1680 0.931 . S
H1667 C1682 0.930 . S
C1668 H1656 0.930 . S
C1668 C1669 1.399 . S
C1668 C1673 1.399 . S
C1669 C1668 1.399 . S
C1669 C1670 1.376 . S
C1670 H1657 0.930 . S
C1670 C1669 1.376 . S
C1670 C1671 1.388 . S
C1671 H1658 0.930 . S
C1671 C1670 1.388 . S
C1671 C1672 1.390 . S
C1672 C1671 1.390 . S
C1672 C1673 1.394 . S
C1672 C1678 1.465 . S
C1673 C1668 1.399 . S
C1673 C1672 1.394 . S
C1673 C1674 1.516 . S
C1674 C1673 1.516 . S
C1674 C1675 1.502 . S
C1674 C1676 1.561 . S
C1674 C1677 1.526 . S
C1675 H1659 0.959 . S
C1675 H1660 0.959 . S
C1675 H1661 0.961 . S
C1675 C1674 1.502 . S
C1676 H1662 0.960 . S
C1676 H1663 0.961 . S
C1676 H1664 0.959 . S
C1676 C1674 1.561 . S
C1677 C1674 1.526 . S
C1677 C1678 1.396 . S
C1677 C1682 1.390 . S
C1678 C1672 1.465 . S
C1678 C1677 1.396 . S
C1678 C1679 1.399 . S
C1679 H1665 0.929 . S
C1679 C1678 1.399 . S
C1679 C1680 1.385 . S
C1680 H1666 0.931 . S
C1680 C1679 1.385 . S
C1680 C1681 1.389 . S
C1681 C1680 1.389 . S
C1681 C1682 1.387 . S
C1682 H1667 0.930 . S
C1682 C1677 1.390 . S
C1682 C1681 1.387 . S
H1683 C1695 0.930 . S
H1684 C1697 0.930 . S
H1685 C1698 0.930 . S
H1686 C1702 0.959 . S
H1687 C1702 0.959 . S
H1688 C1702 0.961 . S
H1689 C1703 0.960 . S
H1690 C1703 0.961 . S
H1691 C1703 0.959 . S
H1692 C1706 0.929 . S
H1693 C1707 0.931 . S
H1694 C1709 0.930 . S
C1695 H1683 0.930 . S
C1695 C1696 1.399 . S
C1695 C1700 1.399 . S
C1696 C1695 1.399 . S
C1696 C1697 1.376 . S
C1697 H1684 0.930 . S
C1697 C1696 1.376 . S
C1697 C1698 1.388 . S
C1698 H1685 0.930 . S
C1698 C1697 1.388 . S
C1698 C1699 1.390 . S
C1699 C1698 1.390 . S
C1699 C1700 1.394 . S
C1699 C1705 1.465 . S
C1700 C1695 1.399 . S
C1700 C1699 1.394 . S
C1700 C1701 1.516 . S
C1701 C1700 1.516 . S
C1701 C1702 1.502 . S
C1701 C1703 1.561 . S
C1701 C1704 1.526 . S
C1702 H1686 0.959 . S
C1702 H1687 0.959 . S
C1702 H1688 0.961 . S
C1702 C1701 1.502 . S
C1703 H1689 0.960 . S
C1703 H1690 0.961 . S
C1703 H1691 0.959 . S
C1703 C1701 1.561 . S
C1704 C1701 1.526 . S
C1704 C1705 1.396 . S
C1704 C1709 1.390 . S
C1705 C1699 1.465 . S
C1705 C1704 1.396 . S
C1705 C1706 1.399 . S
C1706 H1692 0.929 . S
C1706 C1705 1.399 . S
C1706 C1707 1.385 . S
C1707 H1693 0.931 . S
C1707 C1706 1.385 . S
C1707 C1708 1.389 . S
C1708 C1707 1.389 . S
C1708 C1709 1.387 . S
C1709 H1694 0.930 . S
C1709 C1704 1.390 . S
C1709 C1708 1.387 . S
H1710 C1722 0.930 . S
H1711 C1724 0.930 . S
H1712 C1725 0.930 . S
H1713 C1729 0.959 . S
H1714 C1729 0.959 . S
H1715 C1729 0.961 . S
H1716 C1730 0.960 . S
H1717 C1730 0.961 . S
H1718 C1730 0.959 . S
H1719 C1733 0.929 . S
H1720 C1734 0.931 . S
H1721 C1736 0.930 . S
C1722 H1710 0.930 . S
C1722 C1723 1.399 . S
C1722 C1727 1.399 . S
C1723 C1722 1.399 . S
C1723 C1724 1.376 . S
C1724 H1711 0.930 . S
C1724 C1723 1.376 . S
C1724 C1725 1.388 . S
C1725 H1712 0.930 . S
C1725 C1724 1.388 . S
C1725 C1726 1.390 . S
C1726 C1725 1.390 . S
C1726 C1727 1.394 . S
C1726 C1732 1.465 . S
C1727 C1722 1.399 . S
C1727 C1726 1.394 . S
C1727 C1728 1.516 . S
C1728 C1727 1.516 . S
C1728 C1729 1.502 . S
C1728 C1730 1.561 . S
C1728 C1731 1.526 . S
C1729 H1713 0.959 . S
C1729 H1714 0.959 . S
C1729 H1715 0.961 . S
C1729 C1728 1.502 . S
C1730 H1716 0.960 . S
C1730 H1717 0.961 . S
C1730 H1718 0.959 . S
C1730 C1728 1.561 . S
C1731 C1728 1.526 . S
C1731 C1732 1.396 . S
C1731 C1736 1.390 . S
C1732 C1726 1.465 . S
C1732 C1731 1.396 . S
C1732 C1733 1.399 . S
C1733 H1719 0.929 . S
C1733 C1732 1.399 . S
C1733 C1734 1.385 . S
C1734 H1720 0.931 . S
C1734 C1733 1.385 . S
C1734 C1735 1.389 . S
C1735 C1734 1.389 . S
C1735 C1736 1.387 . S
C1736 H1721 0.930 . S
C1736 C1731 1.390 . S
C1736 C1735 1.387 . S
H1737 C1749 0.930 . S
H1738 C1751 0.930 . S
H1739 C1752 0.930 . S
H1740 C1756 0.959 . S
H1741 C1756 0.959 . S
H1742 C1756 0.961 . S
H1743 C1757 0.960 . S
H1744 C1757 0.961 . S
H1745 C1757 0.959 . S
H1746 C1760 0.929 . S
H1747 C1761 0.931 . S
H1748 C1763 0.930 . S
C1749 H1737 0.930 . S
C1749 C1750 1.399 . S
C1749 C1754 1.399 . S
C1750 C1749 1.399 . S
C1750 C1751 1.376 . S
C1751 H1738 0.930 . S
C1751 C1750 1.376 . S
C1751 C1752 1.388 . S
C1752 H1739 0.930 . S
C1752 C1751 1.388 . S
C1752 C1753 1.390 . S
C1753 C1752 1.390 . S
C1753 C1754 1.394 . S
C1753 C1759 1.465 . S
C1754 C1749 1.399 . S
C1754 C1753 1.394 . S
C1754 C1755 1.516 . S
C1755 C1754 1.516 . S
C1755 C1756 1.502 . S
C1755 C1757 1.561 . S
C1755 C1758 1.526 . S
C1756 H1740 0.959 . S
C1756 H1741 0.959 . S
C1756 H1742 0.961 . S
C1756 C1755 1.502 . S
C1757 H1743 0.960 . S
C1757 H1744 0.961 . S
C1757 H1745 0.959 . S
C1757 C1755 1.561 . S
C1758 C1755 1.526 . S
C1758 C1759 1.396 . S
C1758 C1763 1.390 . S
C1759 C1753 1.465 . S
C1759 C1758 1.396 . S
C1759 C1760 1.399 . S
C1760 H1746 0.929 . S
C1760 C1759 1.399 . S
C1760 C1761 1.385 . S
C1761 H1747 0.931 . S
C1761 C1760 1.385 . S
C1761 C1762 1.389 . S
C1762 C1761 1.389 . S
C1762 C1763 1.387 . S
C1763 H1748 0.930 . S
C1763 C1758 1.390 . S
C1763 C1762 1.387 . S
H1764 C1776 0.930 . S
H1765 C1778 0.930 . S
H1766 C1779 0.930 . S
H1767 C1783 0.959 . S
H1768 C1783 0.959 . S
H1769 C1783 0.961 . S
H1770 C1784 0.960 . S
H1771 C1784 0.961 . S
H1772 C1784 0.959 . S
H1773 C1787 0.929 . S
H1774 C1788 0.931 . S
H1775 C1790 0.930 . S
C1776 H1764 0.930 . S
C1776 C1777 1.399 . S
C1776 C1781 1.399 . S
C1777 C1776 1.399 . S
C1777 C1778 1.376 . S
C1778 H1765 0.930 . S
C1778 C1777 1.376 . S
C1778 C1779 1.388 . S
C1779 H1766 0.930 . S
C1779 C1778 1.388 . S
C1779 C1780 1.390 . S
C1780 C1779 1.390 . S
C1780 C1781 1.394 . S
C1780 C1786 1.465 . S
C1781 C1776 1.399 . S
C1781 C1780 1.394 . S
C1781 C1782 1.516 . S
C1782 C1781 1.516 . S
C1782 C1783 1.502 . S
C1782 C1784 1.561 . S
C1782 C1785 1.526 . S
C1783 H1767 0.959 . S
C1783 H1768 0.959 . S
C1783 H1769 0.961 . S
C1783 C1782 1.502 . S
C1784 H1770 0.960 . S
C1784 H1771 0.961 . S
C1784 H1772 0.959 . S
C1784 C1782 1.561 . S
C1785 C1782 1.526 . S
C1785 C1786 1.396 . S
C1785 C1790 1.390 . S
C1786 C1780 1.465 . S
C1786 C1785 1.396 . S
C1786 C1787 1.399 . S
C1787 H1773 0.929 . S
C1787 C1786 1.399 . S
C1787 C1788 1.385 . S
C1788 H1774 0.931 . S
C1788 C1787 1.385 . S
C1788 C1789 1.389 . S
C1789 C1788 1.389 . S
C1789 C1790 1.387 . S
C1790 H1775 0.930 . S
C1790 C1785 1.390 . S
C1790 C1789 1.387 . S
H1791 C1803 0.930 . S
H1792 C1805 0.930 . S
H1793 C1806 0.930 . S
H1794 C1810 0.959 . S
H1795 C1810 0.959 . S
H1796 C1810 0.961 . S
H1797 C1811 0.960 . S
H1798 C1811 0.961 . S
H1799 C1811 0.959 . S
H1800 C1814 0.929 . S
H1801 C1815 0.931 . S
H1802 C1817 0.930 . S
C1803 H1791 0.930 . S
C1803 C1804 1.399 . S
C1803 C1808 1.399 . S
C1804 C1803 1.399 . S
C1804 C1805 1.376 . S
C1805 H1792 0.930 . S
C1805 C1804 1.376 . S
C1805 C1806 1.388 . S
C1806 H1793 0.930 . S
C1806 C1805 1.388 . S
C1806 C1807 1.390 . S
C1807 C1806 1.390 . S
C1807 C1808 1.394 . S
C1807 C1813 1.465 . S
C1808 C1803 1.399 . S
C1808 C1807 1.394 . S
C1808 C1809 1.516 . S
C1809 C1808 1.516 . S
C1809 C1810 1.502 . S
C1809 C1811 1.561 . S
C1809 C1812 1.526 . S
C1810 H1794 0.959 . S
C1810 H1795 0.959 . S
C1810 H1796 0.961 . S
C1810 C1809 1.502 . S
C1811 H1797 0.960 . S
C1811 H1798 0.961 . S
C1811 H1799 0.959 . S
C1811 C1809 1.561 . S
C1812 C1809 1.526 . S
C1812 C1813 1.396 . S
C1812 C1817 1.390 . S
C1813 C1807 1.465 . S
C1813 C1812 1.396 . S
C1813 C1814 1.399 . S
C1814 H1800 0.929 . S
C1814 C1813 1.399 . S
C1814 C1815 1.385 . S
C1815 H1801 0.931 . S
C1815 C1814 1.385 . S
C1815 C1816 1.389 . S
C1816 C1815 1.389 . S
C1816 C1817 1.387 . S
C1817 H1802 0.930 . S
C1817 C1812 1.390 . S
C1817 C1816 1.387 . S
H1818 C1830 0.930 . S
H1819 C1832 0.930 . S
H1820 C1833 0.930 . S
H1821 C1837 0.959 . S
H1822 C1837 0.959 . S
H1823 C1837 0.961 . S
H1824 C1838 0.960 . S
H1825 C1838 0.961 . S
H1826 C1838 0.959 . S
H1827 C1841 0.929 . S
H1828 C1842 0.931 . S
H1829 C1844 0.930 . S
C1830 H1818 0.930 . S
C1830 C1831 1.399 . S
C1830 C1835 1.399 . S
C1831 C1830 1.399 . S
C1831 C1832 1.376 . S
C1832 H1819 0.930 . S
C1832 C1831 1.376 . S
C1832 C1833 1.388 . S
C1833 H1820 0.930 . S
C1833 C1832 1.388 . S
C1833 C1834 1.390 . S
C1834 C1833 1.390 . S
C1834 C1835 1.394 . S
C1834 C1840 1.465 . S
C1835 C1830 1.399 . S
C1835 C1834 1.394 . S
C1835 C1836 1.516 . S
C1836 C1835 1.516 . S
C1836 C1837 1.502 . S
C1836 C1838 1.561 . S
C1836 C1839 1.526 . S
C1837 H1821 0.959 . S
C1837 H1822 0.959 . S
C1837 H1823 0.961 . S
C1837 C1836 1.502 . S
C1838 H1824 0.960 . S
C1838 H1825 0.961 . S
C1838 H1826 0.959 . S
C1838 C1836 1.561 . S
C1839 C1836 1.526 . S
C1839 C1840 1.396 . S
C1839 C1844 1.390 . S
C1840 C1834 1.465 . S
C1840 C1839 1.396 . S
C1840 C1841 1.399 . S
C1841 H1827 0.929 . S
C1841 C1840 1.399 . S
C1841 C1842 1.385 . S
C1842 H1828 0.931 . S
C1842 C1841 1.385 . S
C1842 C1843 1.389 . S
C1843 C1842 1.389 . S
C1843 C1844 1.387 . S
C1844 H1829 0.930 . S
C1844 C1839 1.390 . S
C1844 C1843 1.387 . S
H1845 C1857 0.930 . S
H1846 C1859 0.930 . S
H1847 C1860 0.930 . S
H1848 C1864 0.959 . S
H1849 C1864 0.959 . S
H1850 C1864 0.961 . S
H1851 C1865 0.960 . S
H1852 C1865 0.961 . S
H1853 C1865 0.959 . S
H1854 C1868 0.929 . S
H1855 C1869 0.931 . S
H1856 C1871 0.930 . S
C1857 H1845 0.930 . S
C1857 C1858 1.399 . S
C1857 C1862 1.399 . S
C1858 C1857 1.399 . S
C1858 C1859 1.376 . S
C1859 H1846 0.930 . S
C1859 C1858 1.376 . S
C1859 C1860 1.388 . S
C1860 H1847 0.930 . S
C1860 C1859 1.388 . S
C1860 C1861 1.390 . S
C1861 C1860 1.390 . S
C1861 C1862 1.394 . S
C1861 C1867 1.465 . S
C1862 C1857 1.399 . S
C1862 C1861 1.394 . S
C1862 C1863 1.516 . S
C1863 C1862 1.516 . S
C1863 C1864 1.502 . S
C1863 C1865 1.561 . S
C1863 C1866 1.526 . S
C1864 H1848 0.959 . S
C1864 H1849 0.959 . S
C1864 H1850 0.961 . S
C1864 C1863 1.502 . S
C1865 H1851 0.960 . S
C1865 H1852 0.961 . S
C1865 H1853 0.959 . S
C1865 C1863 1.561 . S
C1866 C1863 1.526 . S
C1866 C1867 1.396 . S
C1866 C1871 1.390 . S
C1867 C1861 1.465 . S
C1867 C1866 1.396 . S
C1867 C1868 1.399 . S
C1868 H1854 0.929 . S
C1868 C1867 1.399 . S
C1868 C1869 1.385 . S
C1869 H1855 0.931 . S
C1869 C1868 1.385 . S
C1869 C1870 1.389 . S
C1870 C1869 1.389 . S
C1870 C1871 1.387 . S
C1871 H1856 0.930 . S
C1871 C1866 1.390 . S
C1871 C1870 1.387 . S
H1872 C1884 0.930 . S
H1873 C1886 0.930 . S
H1874 C1887 0.930 . S
H1875 C1891 0.959 . S
H1876 C1891 0.959 . S
H1877 C1891 0.961 . S
H1878 C1892 0.960 . S
H1879 C1892 0.961 . S
H1880 C1892 0.959 . S
H1881 C1895 0.929 . S
H1882 C1896 0.931 . S
H1883 C1898 0.930 . S
C1884 H1872 0.930 . S
C1884 C1885 1.399 . S
C1884 C1889 1.399 . S
C1885 C1884 1.399 . S
C1885 C1886 1.376 . S
C1886 H1873 0.930 . S
C1886 C1885 1.376 . S
C1886 C1887 1.388 . S
C1887 H1874 0.930 . S
C1887 C1886 1.388 . S
C1887 C1888 1.390 . S
C1888 C1887 1.390 . S
C1888 C1889 1.394 . S
C1888 C1894 1.465 . S
C1889 C1884 1.399 . S
C1889 C1888 1.394 . S
C1889 C1890 1.516 . S
C1890 C1889 1.516 . S
C1890 C1891 1.502 . S
C1890 C1892 1.561 . S
C1890 C1893 1.526 . S
C1891 H1875 0.959 . S
C1891 H1876 0.959 . S
C1891 H1877 0.961 . S
C1891 C1890 1.502 . S
C1892 H1878 0.960 . S
C1892 H1879 0.961 . S
C1892 H1880 0.959 . S
C1892 C1890 1.561 . S
C1893 C1890 1.526 . S
C1893 C1894 1.396 . S
C1893 C1898 1.390 . S
C1894 C1888 1.465 . S
C1894 C1893 1.396 . S
C1894 C1895 1.399 . S
C1895 H1881 0.929 . S
C1895 C1894 1.399 . S
C1895 C1896 1.385 . S
C1896 H1882 0.931 . S
C1896 C1895 1.385 . S
C1896 C1897 1.389 . S
C1897 C1896 1.389 . S
C1897 C1898 1.387 . S
C1898 H1883 0.930 . S
C1898 C1893 1.390 . S
C1898 C1897 1.387 . S
H1899 C1911 0.930 . S
H1900 C1913 0.930 . S
H1901 C1914 0.930 . S
H1902 C1918 0.959 . S
H1903 C1918 0.959 . S
H1904 C1918 0.961 . S
H1905 C1919 0.960 . S
H1906 C1919 0.961 . S
H1907 C1919 0.959 . S
H1908 C1922 0.929 . S
H1909 C1923 0.931 . S
H1910 C1925 0.930 . S
C1911 H1899 0.930 . S
C1911 C1912 1.399 . S
C1911 C1916 1.399 . S
C1912 C1911 1.399 . S
C1912 C1913 1.376 . S
C1913 H1900 0.930 . S
C1913 C1912 1.376 . S
C1913 C1914 1.388 . S
C1914 H1901 0.930 . S
C1914 C1913 1.388 . S
C1914 C1915 1.390 . S
C1915 C1914 1.390 . S
C1915 C1916 1.394 . S
C1915 C1921 1.465 . S
C1916 C1911 1.399 . S
C1916 C1915 1.394 . S
C1916 C1917 1.516 . S
C1917 C1916 1.516 . S
C1917 C1918 1.502 . S
C1917 C1919 1.561 . S
C1917 C1920 1.526 . S
C1918 H1902 0.959 . S
C1918 H1903 0.959 . S
C1918 H1904 0.961 . S
C1918 C1917 1.502 . S
C1919 H1905 0.960 . S
C1919 H1906 0.961 . S
C1919 H1907 0.959 . S
C1919 C1917 1.561 . S
C1920 C1917 1.526 . S
C1920 C1921 1.396 . S
C1920 C1925 1.390 . S
C1921 C1915 1.465 . S
C1921 C1920 1.396 . S
C1921 C1922 1.399 . S
C1922 H1908 0.929 . S
C1922 C1921 1.399 . S
C1922 C1923 1.385 . S
C1923 H1909 0.931 . S
C1923 C1922 1.385 . S
C1923 C1924 1.389 . S
C1924 C1923 1.389 . S
C1924 C1925 1.387 . S
C1925 H1910 0.930 . S
C1925 C1920 1.390 . S
C1925 C1924 1.387 . S
H1926 C1938 0.930 . S
H1927 C1940 0.930 . S
H1928 C1941 0.930 . S
H1929 C1945 0.959 . S
H1930 C1945 0.959 . S
H1931 C1945 0.961 . S
H1932 C1946 0.960 . S
H1933 C1946 0.961 . S
H1934 C1946 0.959 . S
H1935 C1949 0.929 . S
H1936 C1950 0.931 . S
H1937 C1952 0.930 . S
C1938 H1926 0.930 . S
C1938 C1939 1.399 . S
C1938 C1943 1.399 . S
C1939 C1938 1.399 . S
C1939 C1940 1.376 . S
C1940 H1927 0.930 . S
C1940 C1939 1.376 . S
C1940 C1941 1.388 . S
C1941 H1928 0.930 . S
C1941 C1940 1.388 . S
C1941 C1942 1.390 . S
C1942 C1941 1.390 . S
C1942 C1943 1.394 . S
C1942 C1948 1.465 . S
C1943 C1938 1.399 . S
C1943 C1942 1.394 . S
C1943 C1944 1.516 . S
C1944 C1943 1.516 . S
C1944 C1945 1.502 . S
C1944 C1946 1.561 . S
C1944 C1947 1.526 . S
C1945 H1929 0.959 . S
C1945 H1930 0.959 . S
C1945 H1931 0.961 . S
C1945 C1944 1.502 . S
C1946 H1932 0.960 . S
C1946 H1933 0.961 . S
C1946 H1934 0.959 . S
C1946 C1944 1.561 . S
C1947 C1944 1.526 . S
C1947 C1948 1.396 . S
C1947 C1952 1.390 . S
C1948 C1942 1.465 . S
C1948 C1947 1.396 . S
C1948 C1949 1.399 . S
C1949 H1935 0.929 . S
C1949 C1948 1.399 . S
C1949 C1950 1.385 . S
C1950 H1936 0.931 . S
C1950 C1949 1.385 . S
C1950 C1951 1.389 . S
C1951 C1950 1.389 . S
C1951 C1952 1.387 . S
C1952 H1937 0.930 . S
C1952 C1947 1.390 . S
C1952 C1951 1.387 . S
H1953 C1965 0.930 . S
H1954 C1967 0.930 . S
H1955 C1968 0.930 . S
H1956 C1972 0.959 . S
H1957 C1972 0.959 . S
H1958 C1972 0.961 . S
H1959 C1973 0.960 . S
H1960 C1973 0.961 . S
H1961 C1973 0.959 . S
H1962 C1976 0.929 . S
H1963 C1977 0.931 . S
H1964 C1979 0.930 . S
C1965 H1953 0.930 . S
C1965 C1966 1.399 . S
C1965 C1970 1.399 . S
C1966 C1965 1.399 . S
C1966 C1967 1.376 . S
C1967 H1954 0.930 . S
C1967 C1966 1.376 . S
C1967 C1968 1.388 . S
C1968 H1955 0.930 . S
C1968 C1967 1.388 . S
C1968 C1969 1.390 . S
C1969 C1968 1.390 . S
C1969 C1970 1.394 . S
C1969 C1975 1.465 . S
C1970 C1965 1.399 . S
C1970 C1969 1.394 . S
C1970 C1971 1.516 . S
C1971 C1970 1.516 . S
C1971 C1972 1.502 . S
C1971 C1973 1.561 1_565 S
C1971 C1974 1.526 . S
C1972 H1956 0.959 . S
C1972 H1957 0.959 . S
C1972 H1958 0.961 . S
C1972 C1971 1.502 . S
C1973 H1959 0.960 . S
C1973 H1960 0.961 . S
C1973 H1961 0.959 . S
C1973 C1971 1.561 1_545 S
C1974 C1971 1.526 . S
C1974 C1975 1.396 . S
C1974 C1979 1.390 1_565 S
C1975 C1969 1.465 . S
C1975 C1974 1.396 . S
C1975 C1976 1.399 . S
C1976 H1962 0.929 . S
C1976 C1975 1.399 . S
C1976 C1977 1.385 1_565 S
C1977 H1963 0.931 . S
C1977 C1976 1.385 1_545 S
C1977 C1978 1.389 . S
C1978 C1977 1.389 . S
C1978 C1979 1.387 . S
C1979 H1964 0.930 . S
C1979 C1974 1.390 1_545 S
C1979 C1978 1.387 . S
H1980 C1992 0.930 . S
H1981 C1994 0.930 . S
H1982 C1995 0.930 . S
H1983 C1999 0.959 . S
H1984 C1999 0.959 . S
H1985 C1999 0.961 . S
H1986 C2000 0.960 . S
H1987 C2000 0.961 . S
H1988 C2000 0.959 . S
H1989 C2003 0.929 1_655 S
H1990 C2004 0.931 . S
H1991 C2006 0.930 . S
C1992 H1980 0.930 . S
C1992 C1993 1.399 1_455 S
C1992 C1997 1.399 . S
C1993 C1992 1.399 1_655 S
C1993 C1994 1.376 . S
C1994 H1981 0.930 . S
C1994 C1993 1.376 . S
C1994 C1995 1.388 . S
C1995 H1982 0.930 . S
C1995 C1994 1.388 . S
C1995 C1996 1.421 . S
C1996 C1995 1.421 . S
C1996 C1997 1.387 1_655 S
C1996 C2002 1.437 1_655 S
C1997 C1992 1.399 . S
C1997 C1996 1.387 1_455 S
C1997 C1998 1.516 . S
C1998 C1997 1.516 . S
C1998 C1999 1.502 . S
C1998 C2000 1.561 . S
C1998 C2001 1.526 . S
C1999 H1983 0.959 . S
C1999 H1984 0.959 . S
C1999 H1985 0.961 . S
C1999 C1998 1.502 . S
C2000 H1986 0.960 . S
C2000 H1987 0.961 . S
C2000 H1988 0.959 . S
C2000 C1998 1.561 . S
C2001 C1998 1.526 . S
C2001 C2002 1.396 . S
C2001 C2006 1.390 . S
C2002 C1996 1.437 1_455 S
C2002 C2001 1.396 . S
C2002 C2003 1.399 . S
C2003 H1989 0.929 1_455 S
C2003 C2002 1.399 . S
C2003 C2004 1.385 . S
C2004 H1990 0.931 . S
C2004 C2003 1.385 . S
C2004 C2005 1.389 . S
C2005 C2004 1.389 . S
C2005 C2006 1.387 . S
C2006 H1991 0.930 . S
C2006 C2001 1.390 . S
C2006 C2005 1.387 . S
H2007 C2019 0.930 . S
H2008 C2021 0.930 . S
H2009 C2022 0.930 . S
H2010 C2026 0.959 . S
H2011 C2026 0.959 . S
H2012 C2026 0.961 . S
H2013 C2027 0.960 . S
H2014 C2027 0.961 . S
H2015 C2027 0.959 . S
H2016 C2030 0.929 . S
H2017 C2031 0.931 . S
H2018 C2033 0.930 . S
C2019 H2007 0.930 . S
C2019 C2020 1.399 . S
C2019 C2024 1.399 . S
C2020 C2019 1.399 . S
C2020 C2021 1.376 . S
C2021 H2008 0.930 . S
C2021 C2020 1.376 . S
C2021 C2022 1.388 . S
C2022 H2009 0.930 . S
C2022 C2021 1.388 . S
C2022 C2023 1.390 . S
C2023 C2022 1.390 . S
C2023 C2024 1.394 . S
C2023 C2029 1.465 . S
C2024 C2019 1.399 . S
C2024 C2023 1.394 . S
C2024 C2025 1.516 . S
C2025 C2024 1.516 . S
C2025 C2026 1.502 . S
C2025 C2027 1.561 . S
C2025 C2028 1.526 . S
C2026 H2010 0.959 . S
C2026 H2011 0.959 . S
C2026 H2012 0.961 . S
C2026 C2025 1.502 . S
C2027 H2013 0.960 . S
C2027 H2014 0.961 . S
C2027 H2015 0.959 . S
C2027 C2025 1.561 . S
C2028 C2025 1.526 . S
C2028 C2029 1.396 . S
C2028 C2033 1.390 . S
C2029 C2023 1.465 . S
C2029 C2028 1.396 . S
C2029 C2030 1.399 . S
C2030 H2016 0.929 . S
C2030 C2029 1.399 . S
C2030 C2031 1.385 . S
C2031 H2017 0.931 . S
C2031 C2030 1.385 . S
C2031 C2032 1.389 . S
C2032 C2031 1.389 . S
C2032 C2033 1.387 . S
C2033 H2018 0.930 . S
C2033 C2028 1.390 . S
C2033 C2032 1.387 . S
H2034 C2046 0.930 . S
H2035 C2048 0.930 . S
H2036 C2049 0.930 . S
H2037 C2053 0.959 . S
H2038 C2053 0.959 . S
H2039 C2053 0.961 . S
H2040 C2054 0.960 . S
H2041 C2054 0.961 . S
H2042 C2054 0.959 . S
H2043 C2057 0.929 . S
H2044 C2058 0.931 . S
H2045 C2060 0.930 . S
C2046 H2034 0.930 . S
C2046 C2047 1.399 . S
C2046 C2051 1.399 . S
C2047 C2046 1.399 . S
C2047 C2048 1.376 . S
C2048 H2035 0.930 . S
C2048 C2047 1.376 . S
C2048 C2049 1.388 . S
C2049 H2036 0.930 . S
C2049 C2048 1.388 . S
C2049 C2050 1.390 . S
C2050 C2049 1.390 . S
C2050 C2051 1.394 . S
C2050 C2056 1.465 . S
C2051 C2046 1.399 . S
C2051 C2050 1.394 . S
C2051 C2052 1.516 . S
C2052 C2051 1.516 . S
C2052 C2053 1.502 1_545 S
C2052 C2054 1.561 . S
C2052 C2055 1.526 . S
C2053 H2037 0.959 . S
C2053 H2038 0.959 . S
C2053 H2039 0.961 . S
C2053 C2052 1.502 1_565 S
C2054 H2040 0.960 . S
C2054 H2041 0.961 . S
C2054 H2042 0.959 . S
C2054 C2052 1.561 . S
C2055 C2052 1.526 . S
C2055 C2056 1.396 . S
C2055 C2060 1.390 1_545 S
C2056 C2050 1.465 . S
C2056 C2055 1.396 . S
C2056 C2057 1.399 . S
C2057 H2043 0.929 . S
C2057 C2056 1.399 . S
C2057 C2058 1.385 1_545 S
C2058 H2044 0.931 . S
C2058 C2057 1.385 1_565 S
C2058 C2059 1.389 . S
C2059 C2058 1.389 . S
C2059 C2060 1.387 . S
C2060 H2045 0.930 . S
C2060 C2055 1.390 1_565 S
C2060 C2059 1.387 . S
H2061 C2073 0.930 1_655 S
H2062 C2075 0.930 . S
H2063 C2076 0.930 . S
H2064 C2080 0.959 . S
H2065 C2080 0.959 . S
H2066 C2080 0.961 . S
H2067 C2081 0.960 . S
H2068 C2081 0.961 . S
H2069 C2081 0.959 1_455 S
H2070 C2084 0.929 . S
H2071 C2085 0.931 . S
H2072 C2087 0.930 . S
C2073 H2061 0.930 1_455 S
C2073 C2074 1.399 . S
C2073 C2078 1.399 1_455 S
C2074 C2073 1.399 . S
C2074 C2075 1.376 . S
C2075 H2062 0.930 . S
C2075 C2074 1.376 . S
C2075 C2076 1.388 . S
C2076 H2063 0.930 . S
C2076 C2075 1.388 . S
C2076 C2077 1.390 1_455 S
C2077 C2076 1.390 1_655 S
C2077 C2078 1.394 . S
C2077 C2083 1.465 . S
C2078 C2073 1.399 1_655 S
C2078 C2077 1.394 . S
C2078 C2079 1.516 . S
C2079 C2078 1.516 . S
C2079 C2080 1.502 . S
C2079 C2081 1.561 . S
C2079 C2082 1.526 . S
C2080 H2064 0.959 . S
C2080 H2065 0.959 . S
C2080 H2066 0.961 . S
C2080 C2079 1.502 . S
C2081 H2067 0.960 . S
C2081 H2068 0.961 . S
C2081 H2069 0.959 1_655 S
C2081 C2079 1.561 . S
C2082 C2079 1.526 . S
C2082 C2083 1.396 . S
C2082 C2087 1.390 . S
C2083 C2077 1.465 . S
C2083 C2082 1.396 . S
C2083 C2084 1.399 . S
C2084 H2070 0.929 . S
C2084 C2083 1.399 . S
C2084 C2085 1.385 . S
C2085 H2071 0.931 . S
C2085 C2084 1.385 . S
C2085 C2086 1.389 . S
C2086 C2085 1.389 . S
C2086 C2087 1.387 . S
C2087 H2072 0.930 . S
C2087 C2082 1.390 . S
C2087 C2086 1.387 . S
H2088 C2100 0.930 . S
H2089 C2102 0.930 . S
H2090 C2103 0.930 . S
H2091 C2107 0.959 . S
H2092 C2107 0.959 . S
H2093 C2107 0.961 . S
H2094 C2108 0.960 . S
H2095 C2108 0.961 . S
H2096 C2108 0.959 . S
H2097 C2111 0.929 . S
H2098 C2112 0.931 . S
H2099 C2114 0.930 . S
C2100 H2088 0.930 . S
C2100 C2101 1.399 . S
C2100 C2105 1.399 . S
C2101 C2100 1.399 . S
C2101 C2102 1.376 . S
C2102 H2089 0.930 . S
C2102 C2101 1.376 . S
C2102 C2103 1.388 . S
C2103 H2090 0.930 . S
C2103 C2102 1.388 . S
C2103 C2104 1.390 . S
C2104 C2103 1.390 . S
C2104 C2105 1.394 . S
C2104 C2110 1.465 . S
C2105 C2100 1.399 . S
C2105 C2104 1.394 . S
C2105 C2106 1.516 . S
C2106 C2105 1.516 . S
C2106 C2107 1.502 . S
C2106 C2108 1.561 . S
C2106 C2109 1.526 . S
C2107 H2091 0.959 . S
C2107 H2092 0.959 . S
C2107 H2093 0.961 . S
C2107 C2106 1.502 . S
C2108 H2094 0.960 . S
C2108 H2095 0.961 . S
C2108 H2096 0.959 . S
C2108 C2106 1.561 . S
C2109 C2106 1.526 . S
C2109 C2110 1.396 . S
C2109 C2114 1.390 . S
C2110 C2104 1.465 . S
C2110 C2109 1.396 . S
C2110 C2111 1.399 . S
C2111 H2097 0.929 . S
C2111 C2110 1.399 . S
C2111 C2112 1.385 . S
C2112 H2098 0.931 . S
C2112 C2111 1.385 . S
C2112 C2113 1.389 . S
C2113 C2112 1.389 . S
C2113 C2114 1.387 . S
C2114 H2099 0.930 . S
C2114 C2109 1.390 . S
C2114 C2113 1.387 . S
H2115 C2127 0.940 . S
H2116 C2129 0.930 . S
H2117 C2130 0.930 . S
H2118 C2134 0.959 . S
H2119 C2134 0.959 . S
H2120 C2134 0.961 . S
H2121 C2135 0.960 1_565 S
H2122 C2135 0.961 . S
H2123 C2135 0.959 1_565 S
H2124 C2138 0.929 . S
H2125 C2139 0.931 . S
H2126 C2141 0.930 . S
C2127 H2115 0.940 . S
C2127 C2128 1.399 . S
C2127 C2132 1.399 1_565 S
C2128 C2127 1.399 . S
C2128 C2129 1.376 . S
C2129 H2116 0.930 . S
C2129 C2128 1.376 . S
C2129 C2130 1.388 . S
C2130 H2117 0.930 . S
C2130 C2129 1.388 . S
C2130 C2131 1.390 1_565 S
C2131 C2130 1.390 1_545 S
C2131 C2132 1.394 . S
C2131 C2137 1.465 . S
C2132 C2127 1.399 1_545 S
C2132 C2131 1.394 . S
C2132 C2133 1.516 . S
C2133 C2132 1.516 . S
C2133 C2134 1.502 . S
C2133 C2135 1.561 . S
C2133 C2136 1.526 . S
C2134 H2118 0.959 . S
C2134 H2119 0.959 . S
C2134 H2120 0.961 . S
C2134 C2133 1.502 . S
C2135 H2121 0.960 1_545 S
C2135 H2122 0.961 . S
C2135 H2123 0.959 1_545 S
C2135 C2133 1.561 . S
C2136 C2133 1.526 . S
C2136 C2137 1.396 . S
C2136 C2141 1.390 . S
C2137 C2131 1.465 . S
C2137 C2136 1.396 . S
C2137 C2138 1.399 . S
C2138 H2124 0.929 . S
C2138 C2137 1.399 . S
C2138 C2139 1.385 . S
C2139 H2125 0.931 . S
C2139 C2138 1.385 . S
C2139 C2140 1.389 . S
C2140 C2139 1.389 . S
C2140 C2141 1.387 . S
C2141 H2126 0.930 . S
C2141 C2136 1.390 . S
C2141 C2140 1.387 . S
H2142 C2154 0.930 . S
H2143 C2156 0.930 . S
H2144 C2157 0.930 . S
H2145 C2161 0.959 . S
H2146 C2161 0.959 1_655 S
H2147 C2161 0.961 . S
H2148 C2162 0.960 . S
H2149 C2162 0.961 . S
H2150 C2162 0.959 . S
H2151 C2165 0.929 . S
H2152 C2166 0.931 . S
H2153 C2168 0.930 . S
C2154 H2142 0.930 . S
C2154 C2155 1.399 . S
C2154 C2159 1.399 1_455 S
C2155 C2154 1.399 . S
C2155 C2156 1.376 . S
C2156 H2143 0.930 . S
C2156 C2155 1.376 . S
C2156 C2157 1.388 1_455 S
C2157 H2144 0.930 . S
C2157 C2156 1.388 1_655 S
C2157 C2158 1.390 . S
C2158 C2157 1.390 . S
C2158 C2159 1.394 . S
C2158 C2164 1.465 . S
C2159 C2154 1.399 1_655 S
C2159 C2158 1.394 . S
C2159 C2160 1.516 . S
C2160 C2159 1.516 . S
C2160 C2161 1.502 1_655 S
C2160 C2162 1.561 . S
C2160 C2163 1.526 . S
C2161 H2145 0.959 . S
C2161 H2146 0.959 1_455 S
C2161 H2147 0.961 . S
C2161 C2160 1.502 1_455 S
C2162 H2148 0.960 . S
C2162 H2149 0.961 . S
C2162 H2150 0.959 . S
C2162 C2160 1.561 . S
C2163 C2160 1.526 . S
C2163 C2164 1.396 . S
C2163 C2168 1.390 . S
C2164 C2158 1.465 . S
C2164 C2163 1.396 . S
C2164 C2165 1.399 . S
C2165 H2151 0.929 . S
C2165 C2164 1.399 . S
C2165 C2166 1.385 . S
C2166 H2152 0.931 . S
C2166 C2165 1.385 . S
C2166 C2167 1.389 . S
C2167 C2166 1.389 . S
C2167 C2168 1.387 . S
C2168 H2153 0.930 . S
C2168 C2163 1.390 . S
C2168 C2167 1.387 . S
H2169 C2181 0.930 . S
H2170 C2183 0.930 . S
H2171 C2184 0.930 . S
H2172 C2188 0.959 . S
H2173 C2188 0.959 . S
H2174 C2188 0.961 . S
H2175 C2189 0.960 . S
H2176 C2189 0.961 . S
H2177 C2189 0.959 . S
H2178 C2192 0.929 . S
H2179 C2193 0.931 . S
H2180 C2195 0.930 . S
C2181 H2169 0.930 . S
C2181 C2182 1.399 . S
C2181 C2186 1.399 . S
C2182 C2181 1.399 . S
C2182 C2183 1.376 . S
C2183 H2170 0.930 . S
C2183 C2182 1.376 . S
C2183 C2184 1.388 . S
C2184 H2171 0.930 . S
C2184 C2183 1.388 . S
C2184 C2185 1.390 . S
C2185 C2184 1.390 . S
C2185 C2186 1.394 . S
C2185 C2191 1.465 . S
C2186 C2181 1.399 . S
C2186 C2185 1.394 . S
C2186 C2187 1.516 . S
C2187 C2186 1.516 . S
C2187 C2188 1.502 . S
C2187 C2189 1.561 . S
C2187 C2190 1.526 . S
C2188 H2172 0.959 . S
C2188 H2173 0.959 . S
C2188 H2174 0.961 . S
C2188 C2187 1.502 . S
C2189 H2175 0.960 . S
C2189 H2176 0.961 . S
C2189 H2177 0.959 . S
C2189 C2187 1.561 . S
C2190 C2187 1.526 . S
C2190 C2191 1.396 . S
C2190 C2195 1.390 . S
C2191 C2185 1.465 . S
C2191 C2190 1.396 . S
C2191 C2192 1.399 . S
C2192 H2178 0.929 . S
C2192 C2191 1.399 . S
C2192 C2193 1.385 . S
C2193 H2179 0.931 . S
C2193 C2192 1.385 . S
C2193 C2194 1.389 . S
C2194 C2193 1.389 . S
C2194 C2195 1.387 . S
C2195 H2180 0.930 . S
C2195 C2190 1.390 . S
C2195 C2194 1.387 . S
H2196 C2208 0.930 . S
H2197 C2210 0.930 . S
H2198 C2211 0.927 1_565 S
H2199 C2215 0.959 1_545 S
H2200 C2215 0.959 . S
H2201 C2215 0.961 . S
H2202 C2216 0.960 . S
H2203 C2216 0.961 . S
H2204 C2216 0.959 . S
H2205 C2219 0.929 . S
H2206 C2220 0.931 . S
H2207 C2222 0.930 . S
C2208 H2196 0.930 . S
C2208 C2209 1.399 . S
C2208 C2213 1.399 1_545 S
C2209 C2208 1.399 . S
C2209 C2210 1.376 . S
C2210 H2197 0.930 . S
C2210 C2209 1.376 . S
C2210 C2211 1.395 . S
C2211 H2198 0.927 1_545 S
C2211 C2210 1.395 . S
C2211 C2212 1.384 1_545 S
C2212 C2211 1.384 1_565 S
C2212 C2213 1.394 . S
C2212 C2218 1.465 . S
C2213 C2208 1.399 1_565 S
C2213 C2212 1.394 . S
C2213 C2214 1.516 . S
C2214 C2213 1.516 . S
C2214 C2215 1.502 . S
C2214 C2216 1.561 . S
C2214 C2217 1.526 . S
C2215 H2199 0.959 1_565 S
C2215 H2200 0.959 . S
C2215 H2201 0.961 . S
C2215 C2214 1.502 . S
C2216 H2202 0.960 . S
C2216 H2203 0.961 . S
C2216 H2204 0.959 . S
C2216 C2214 1.561 . S
C2217 C2214 1.526 . S
C2217 C2218 1.396 . S
C2217 C2222 1.390 . S
C2218 C2212 1.465 . S
C2218 C2217 1.396 . S
C2218 C2219 1.399 . S
C2219 H2205 0.929 . S
C2219 C2218 1.399 . S
C2219 C2220 1.385 . S
C2220 H2206 0.931 . S
C2220 C2219 1.385 . S
C2220 C2221 1.389 . S
C2221 C2220 1.389 . S
C2221 C2222 1.387 . S
C2222 H2207 0.930 . S
C2222 C2217 1.390 . S
C2222 C2221 1.387 . S
H2223 C2235 0.930 . S
H2224 C2237 0.930 . S
H2225 C2238 0.930 . S
H2226 C2242 0.959 . S
H2227 C2242 0.959 . S
H2228 C2242 0.961 . S
H2229 C2243 0.960 . S
H2230 C2243 0.961 . S
H2231 C2243 0.959 . S
H2232 C2246 0.929 . S
H2233 C2247 0.949 1_655 S
H2234 C2249 0.930 . S
C2235 H2223 0.930 . S
C2235 C2236 1.399 . S
C2235 C2240 1.399 . S
C2236 C2235 1.399 . S
C2236 C2237 1.376 . S
C2237 H2224 0.930 . S
C2237 C2236 1.376 . S
C2237 C2238 1.388 . S
C2238 H2225 0.930 . S
C2238 C2237 1.388 . S
C2238 C2239 1.390 . S
C2239 C2238 1.390 . S
C2239 C2240 1.394 . S
C2239 C2245 1.465 . S
C2240 C2235 1.399 . S
C2240 C2239 1.394 . S
C2240 C2241 1.516 . S
C2241 C2240 1.516 . S
C2241 C2242 1.502 1_455 S
C2241 C2243 1.561 . S
C2241 C2244 1.526 . S
C2242 H2226 0.959 . S
C2242 H2227 0.959 . S
C2242 H2228 0.961 . S
C2242 C2241 1.502 1_655 S
C2243 H2229 0.960 . S
C2243 H2230 0.961 . S
C2243 H2231 0.959 . S
C2243 C2241 1.561 . S
C2244 C2241 1.526 . S
C2244 C2245 1.396 . S
C2244 C2249 1.390 1_455 S
C2245 C2239 1.465 . S
C2245 C2244 1.396 . S
C2245 C2246 1.399 . S
C2246 H2232 0.929 . S
C2246 C2245 1.399 . S
C2246 C2247 1.388 . S
C2247 H2233 0.949 1_455 S
C2247 C2246 1.388 . S
C2247 C2248 1.380 1_455 S
C2248 C2247 1.380 1_655 S
C2248 C2249 1.387 . S
C2249 H2234 0.930 . S
C2249 C2244 1.390 1_655 S
C2249 C2248 1.387 . S
H2250 C2262 0.930 . S
H2251 C2264 0.930 . S
H2252 C2265 0.930 . S
H2253 C2269 0.959 . S
H2254 C2269 0.959 . S
H2255 C2269 0.961 1_655 S
H2256 C2270 0.960 1_655 S
H2257 C2270 0.961 . S
H2258 C2270 0.959 . S
H2259 C2273 0.929 . S
H2260 C2274 0.931 . S
H2261 C2276 0.930 . S
C2262 H2250 0.930 . S
C2262 C2263 1.399 . S
C2262 C2267 1.399 . S
C2263 C2262 1.399 . S
C2263 C2264 1.376 . S
C2264 H2251 0.930 . S
C2264 C2263 1.376 . S
C2264 C2265 1.388 . S
C2265 H2252 0.930 . S
C2265 C2264 1.388 . S
C2265 C2266 1.390 . S
C2266 C2265 1.390 . S
C2266 C2267 1.394 . S
C2266 C2272 1.465 1_655 S
C2267 C2262 1.399 . S
C2267 C2266 1.394 . S
C2267 C2268 1.516 1_655 S
C2268 C2267 1.516 1_455 S
C2268 C2269 1.502 . S
C2268 C2270 1.561 . S
C2268 C2271 1.526 . S
C2269 H2253 0.959 . S
C2269 H2254 0.959 . S
C2269 H2255 0.961 1_455 S
C2269 C2268 1.502 . S
C2270 H2256 0.960 1_455 S
C2270 H2257 0.961 . S
C2270 H2258 0.959 . S
C2270 C2268 1.561 . S
C2271 C2268 1.526 . S
C2271 C2272 1.396 . S
C2271 C2276 1.390 . S
C2272 C2266 1.465 1_455 S
C2272 C2271 1.396 . S
C2272 C2273 1.399 . S
C2273 H2259 0.929 . S
C2273 C2272 1.399 . S
C2273 C2274 1.385 . S
C2274 H2260 0.931 . S
C2274 C2273 1.385 . S
C2274 C2275 1.389 . S
C2275 C2274 1.389 . S
C2275 C2276 1.387 . S
C2276 H2261 0.930 . S
C2276 C2271 1.390 . S
C2276 C2275 1.387 . S
H2277 C2289 0.930 . S
H2278 C2291 0.930 . S
H2279 C2292 0.930 . S
H2280 C2296 0.959 . S
H2281 C2296 0.959 . S
H2282 C2296 0.961 . S
H2283 C2297 0.960 . S
H2284 C2297 0.961 . S
H2285 C2297 0.959 . S
H2286 C2300 0.929 . S
H2287 C2301 0.931 . S
H2288 C2303 0.930 . S
C2289 H2277 0.930 . S
C2289 C2290 1.399 . S
C2289 C2294 1.399 . S
C2290 C2289 1.399 . S
C2290 C2291 1.376 . S
C2291 H2278 0.930 . S
C2291 C2290 1.376 . S
C2291 C2292 1.388 . S
C2292 H2279 0.930 . S
C2292 C2291 1.388 . S
C2292 C2293 1.390 . S
C2293 C2292 1.390 . S
C2293 C2294 1.394 . S
C2293 C2299 1.465 . S
C2294 C2289 1.399 . S
C2294 C2293 1.394 . S
C2294 C2295 1.516 . S
C2295 C2294 1.516 . S
C2295 C2296 1.502 . S
C2295 C2297 1.561 . S
C2295 C2298 1.526 . S
C2296 H2280 0.959 . S
C2296 H2281 0.959 . S
C2296 H2282 0.961 . S
C2296 C2295 1.502 . S
C2297 H2283 0.960 . S
C2297 H2284 0.961 . S
C2297 H2285 0.959 . S
C2297 C2295 1.561 . S
C2298 C2295 1.526 . S
C2298 C2299 1.396 . S
C2298 C2303 1.390 . S
C2299 C2293 1.465 . S
C2299 C2298 1.396 . S
C2299 C2300 1.399 . S
C2300 H2286 0.929 . S
C2300 C2299 1.399 . S
C2300 C2301 1.385 . S
C2301 H2287 0.931 . S
C2301 C2300 1.385 . S
C2301 C2302 1.389 . S
C2302 C2301 1.389 . S
C2302 C2303 1.387 . S
C2303 H2288 0.930 . S
C2303 C2298 1.390 . S
C2303 C2302 1.387 . S
H2304 C2316 0.930 . S
H2305 C2318 0.930 . S
H2306 C2319 0.930 . S
H2307 C2323 0.961 1_545 S
H2308 C2323 0.959 1_545 S
H2309 C2323 0.961 . S
H2310 C2324 0.960 . S
H2311 C2324 0.961 1_545 S
H2312 C2324 0.959 . S
H2313 C2327 0.929 . S
H2314 C2328 0.931 . S
H2315 C2330 0.930 . S
C2316 H2304 0.930 . S
C2316 C2317 1.399 . S
C2316 C2321 1.399 . S
C2317 C2316 1.399 . S
C2317 C2318 1.376 . S
C2318 H2305 0.930 . S
C2318 C2317 1.376 . S
C2318 C2319 1.388 . S
C2319 H2306 0.930 . S
C2319 C2318 1.388 . S
C2319 C2320 1.390 . S
C2320 C2319 1.390 . S
C2320 C2321 1.394 . S
C2320 C2326 1.465 1_565 S
C2321 C2316 1.399 . S
C2321 C2320 1.394 . S
C2321 C2322 1.516 . S
C2322 C2321 1.516 . S
C2322 C2323 1.502 . S
C2322 C2324 1.561 . S
C2322 C2325 1.526 1_565 S
C2323 H2307 0.961 1_565 S
C2323 H2308 0.959 1_565 S
C2323 H2309 0.961 . S
C2323 C2322 1.502 . S
C2324 H2310 0.960 . S
C2324 H2311 0.961 1_565 S
C2324 H2312 0.959 . S
C2324 C2322 1.561 . S
C2325 C2322 1.526 1_545 S
C2325 C2326 1.396 . S
C2325 C2330 1.390 . S
C2326 C2320 1.465 1_545 S
C2326 C2325 1.396 . S
C2326 C2327 1.399 . S
C2327 H2313 0.929 . S
C2327 C2326 1.399 . S
C2327 C2328 1.385 . S
C2328 H2314 0.931 . S
C2328 C2327 1.385 . S
C2328 C2329 1.389 . S
C2329 C2328 1.389 . S
C2329 C2330 1.387 . S
C2330 H2315 0.930 . S
C2330 C2325 1.390 . S
C2330 C2329 1.387 . S
H2331 C2343 0.930 . S
H2332 C2345 0.930 . S
H2333 C2346 0.930 . S
H2334 C2350 0.950 . S
H2335 C2350 0.959 1_545 S
H2336 C2350 0.961 . S
H2337 C2351 0.960 . S
H2338 C2351 0.961 1_545 S
H2339 C2351 0.959 . S
H2340 C2354 0.929 . S
H2341 C2355 0.931 . S
H2342 C2357 0.930 . S
C2343 H2331 0.930 . S
C2343 C2344 1.399 . S
C2343 C2348 1.399 . S
C2344 C2343 1.399 . S
C2344 C2345 1.376 . S
C2345 H2332 0.930 . S
C2345 C2344 1.376 . S
C2345 C2346 1.388 . S
C2346 H2333 0.930 . S
C2346 C2345 1.388 . S
C2346 C2347 1.390 . S
C2347 C2346 1.390 . S
C2347 C2348 1.394 . S
C2347 C2353 1.465 1_565 S
C2348 C2343 1.399 . S
C2348 C2347 1.394 . S
C2348 C2349 1.516 . S
C2349 C2348 1.516 . S
C2349 C2350 1.502 . S
C2349 C2351 1.561 . S
C2349 C2352 1.526 1_565 S
C2350 H2334 0.950 . S
C2350 H2335 0.959 1_565 S
C2350 H2336 0.961 . S
C2350 C2349 1.502 . S
C2351 H2337 0.960 . S
C2351 H2338 0.961 1_565 S
C2351 H2339 0.959 . S
C2351 C2349 1.561 . S
C2352 C2349 1.526 1_545 S
C2352 C2353 1.396 . S
C2352 C2357 1.390 . S
C2353 C2347 1.465 1_545 S
C2353 C2352 1.396 . S
C2353 C2354 1.399 . S
C2354 H2340 0.929 . S
C2354 C2353 1.399 . S
C2354 C2355 1.385 . S
C2355 H2341 0.931 . S
C2355 C2354 1.385 . S
C2355 C2356 1.389 . S
C2356 C2355 1.389 . S
C2356 C2357 1.387 . S
C2357 H2342 0.930 . S
C2357 C2352 1.390 . S
C2357 C2356 1.387 . S
H2358 C2370 0.930 . S
H2359 C2372 0.930 . S
H2360 C2373 0.930 . S
H2361 C2377 0.959 . S
H2362 C2377 0.959 . S
H2363 C2377 0.961 1_655 S
H2364 C2378 0.960 . S
H2365 C2378 0.961 1_455 S
H2366 C2378 0.959 . S
H2367 C2381 0.929 . S
H2368 C2382 0.931 . S
H2369 C2384 0.930 . S
C2370 H2358 0.930 . S
C2370 C2371 1.399 . S
C2370 C2375 1.399 . S
C2371 C2370 1.399 . S
C2371 C2372 1.376 . S
C2372 H2359 0.930 . S
C2372 C2371 1.376 . S
C2372 C2373 1.388 . S
C2373 H2360 0.930 . S
C2373 C2372 1.388 . S
C2373 C2374 1.390 . S
C2374 C2373 1.390 . S
C2374 C2375 1.394 . S
C2374 C2380 1.465 1_655 S
C2375 C2370 1.399 . S
C2375 C2374 1.394 . S
C2375 C2376 1.501 1_655 S
C2376 C2375 1.501 1_455 S
C2376 C2377 1.498 . S
C2376 C2378 1.544 1_455 S
C2376 C2379 1.566 . S
C2377 H2361 0.959 . S
C2377 H2362 0.959 . S
C2377 H2363 0.961 1_455 S
C2377 C2376 1.498 . S
C2378 H2364 0.960 . S
C2378 H2365 0.961 1_655 S
C2378 H2366 0.959 . S
C2378 C2376 1.544 1_655 S
C2379 C2376 1.566 . S
C2379 C2380 1.396 . S
C2379 C2384 1.390 . S
C2380 C2374 1.465 1_455 S
C2380 C2379 1.396 . S
C2380 C2381 1.399 . S
C2381 H2367 0.929 . S
C2381 C2380 1.399 . S
C2381 C2382 1.385 . S
C2382 H2368 0.931 . S
C2382 C2381 1.385 . S
C2382 C2383 1.389 . S
C2383 C2382 1.389 . S
C2383 C2384 1.387 . S
C2384 H2369 0.930 . S
C2384 C2379 1.390 . S
C2384 C2383 1.387 . S
H2385 C2397 0.930 . S
H2386 C2399 0.930 . S
H2387 C2400 0.930 . S
H2388 C2404 0.959 . S
H2389 C2404 0.959 . S
H2390 C2404 0.961 . S
H2391 C2405 0.960 . S
H2392 C2405 0.961 . S
H2393 C2405 0.959 . S
H2394 C2408 0.929 . S
H2395 C2409 0.931 . S
H2396 C2411 0.930 . S
C2397 H2385 0.930 . S
C2397 C2398 1.399 . S
C2397 C2402 1.399 . S
C2398 C2397 1.399 . S
C2398 C2399 1.376 . S
C2399 H2386 0.930 . S
C2399 C2398 1.376 . S
C2399 C2400 1.388 . S
C2400 H2387 0.930 . S
C2400 C2399 1.388 . S
C2400 C2401 1.390 . S
C2401 C2400 1.390 . S
C2401 C2402 1.394 . S
C2401 C2407 1.465 . S
C2402 C2397 1.399 . S
C2402 C2401 1.394 . S
C2402 C2403 1.516 . S
C2403 C2402 1.516 . S
C2403 C2404 1.502 . S
C2403 C2405 1.561 . S
C2403 C2406 1.526 . S
C2404 H2388 0.959 . S
C2404 H2389 0.959 . S
C2404 H2390 0.961 . S
C2404 C2403 1.502 . S
C2405 H2391 0.960 . S
C2405 H2392 0.961 . S
C2405 H2393 0.959 . S
C2405 C2403 1.561 . S
C2406 C2403 1.526 . S
C2406 C2407 1.396 . S
C2406 C2411 1.390 . S
C2407 C2401 1.465 . S
C2407 C2406 1.396 . S
C2407 C2408 1.399 . S
C2408 H2394 0.929 . S
C2408 C2407 1.399 . S
C2408 C2409 1.385 . S
C2409 H2395 0.931 . S
C2409 C2408 1.385 . S
C2409 C2410 1.389 . S
C2410 C2409 1.389 . S
C2410 C2411 1.387 . S
C2411 H2396 0.930 . S
C2411 C2406 1.390 . S
C2411 C2410 1.387 . S
C481 C5 1.685 . S
C493 C237 1.652 . S
C508 C16 1.696 . S
C520 C252 1.697 . S
C535 C263 1.661 . S
C547 C29 1.693 . S
C562 C42 1.692 . S
C574 C432 1.642 . S
C589 C447 1.701 . S
C601 C55 1.694 . S
C616 C70 1.670 . S
C628 C458 1.670 . S
C643 C317 1.645 . S
C655 C81 1.681 . S
C670 C96 1.692 . S
C682 C328 1.701 . S
C697 C107 1.642 . S
C709 C341 1.692 . S
C724 C120 1.655 . S
C736 C198 1.692 . S
C751 C211 1.694 . S
C763 C135 1.697 . S
C778 C146 1.682 . S
C790 C226 1.657 . S
C805 C161 1.687 . S
C817 C393 1.650 . S
C832 C172 1.697 . S
C844 C408 1.695 . S
C859 C185 1.695 . S
C871 C419 1.677 . S
C886 C276 1.659 . S
C898 C354 1.699 . S
C913 C291 1.692 . S
C925 C367 1.699 . S
C940 C302 1.678 . S
C952 C382 1.661 . S
C967 C101 1.634 . S
C979 C3 1.592 . S
C994 C105 1.553 1_655 S
C1006 C18 1.501 . S
C1021 C31 1.494 . S
C1033 C79 1.556 . S
C1048 C144 1.591 . S
C1060 C44 1.538 . S
C1075 C118 1.556 . S
C1087 C57 1.538 . S
C1102 C140 1.590 . S
C1114 C68 1.591 . S
C1129 C83 1.579 . S
C1141 C14 1.577 1_565 S
C1156 C94 1.563 . S
C1168 C27 1.587 . S
C1183 C109 1.581 . S
C1195 C10 1.577 . S
C1210 C122 1.580 . S
C1222 C75 1.554 1_655 S
C1237 C40 1.573 . S
C1249 C133 1.533 . S
C1264 C53 1.573 1_545 S
C1276 C148 1.581 . S
C1291 C159 1.580 . S
C1303 C257 1.576 . S
C1318 C174 1.507 . S
C1330 C261 1.585 . S
C1345 C187 1.493 . S
C1357 C235 1.557 . S
C1372 C300 1.590 . S
C1384 C200 1.527 . S
C1399 C213 1.550 . S
C1411 C274 1.588 . S
C1426 C296 1.577 . S
C1438 C224 1.580 . S
C1453 C239 1.583 . S
C1465 C170 1.588 . S
C1480 C183 1.574 . S
C1492 C250 1.534 . S
C1507 C166 1.556 . S
C1519 C265 1.579 . S
C1534 C278 1.581 . S
C1546 C231 1.577 . S
C1561 C289 1.558 . S
C1573 C196 1.590 . S
C1588 C304 1.579 . S
C1600 C209 1.581 . S
C1615 C413 1.591 . S
C1627 C315 1.591 . S
C1642 C330 1.507 . S
C1654 C417 1.585 . S
C1669 C343 1.562 . S
C1681 C391 1.581 . S
C1696 C456 1.564 . S
C1708 C356 1.554 . S
C1723 C430 1.575 . S
C1735 C369 1.562 . S
C1750 C452 1.593 . S
C1762 C380 1.592 . S
C1777 C326 1.573 . S
C1789 C395 1.583 . S
C1804 C339 1.572 . S
C1816 C406 1.514 . S
C1831 C322 1.555 . S
C1843 C421 1.579 . S
C1858 C434 1.588 . S
C1870 C387 1.590 . S
C1885 C352 1.592 . S
C1897 C445 1.527 . S
C1912 C460 1.579 . S
C1924 C365 1.578 . S
C1939 C1 1.720 . S
C1951 C378 1.752 . S
C1966 C361 1.632 . S
C1978 C23 1.708 . S
C1993 C36 1.669 . S
C2005 C374 1.666 . S
C2020 C49 1.696 . S
C2032 C179 1.656 . S
C2047 C192 1.706 . S
C2059 C62 1.643 . S
C2074 C66 1.719 . S
C2086 C157 1.752 . S
C2101 C309 1.751 . S
C2113 C88 1.713 . S
C2128 C92 1.691 . S
C2140 C283 1.715 . S
C2155 C114 1.712 . S
C2167 C287 1.709 . S
C2182 C127 1.718 . S
C2194 C404 1.705 . S
C2209 C131 1.639 . S
C2221 C426 1.753 . S
C2236 C400 1.714 . S
C2248 C153 1.748 . S
C2263 C205 1.651 . S
C2275 C335 1.684 . S
C2290 C348 1.635 . S
C2302 C218 1.704 . S
C2317 C313 1.740 . S
C2329 C222 1.713 . S
C2344 C465 1.750 . S
C2356 C244 1.715 . S
C2371 C248 1.637 . S
C2383 C439 1.745 . S
C2398 C270 1.748 . S
C2410 C443 1.635 . S
