# Generated by pormake.
# Topology msp, (4)-cn, num edge types: 1
# Building blocks:
#     Node 0, Type 0, BuildingBlock: GALJAG_clean_sbu_0, # of connection points: 4
#     Node 1, Type 0, BuildingBlock: GALJAG_clean_sbu_0, # of connection points: 4
#     Node 2, Type 0, BuildingBlock: GALJAG_clean_sbu_0, # of connection points: 4
#     Node 3, Type 0, BuildingBlock: GALJAG_clean_sbu_0, # of connection points: 4
#     Node 4, Type 0, BuildingBlock: GALJAG_clean_sbu_0, # of connection points: 4
#     Node 5, Type 0, BuildingBlock: GALJAG_clean_sbu_0, # of connection points: 4
#     Node 6, Type 0, BuildingBlock: GALJAG_clean_sbu_0, # of connection points: 4
#     Node 7, Type 0, BuildingBlock: GALJAG_clean_sbu_0, # of connection points: 4
#     Edge 8, Type (0, 0), BuildingBlock: ZUJKAS_clean_linker_0, # of connection points: 2
#     Edge 9, Type (0, 0), BuildingBlock: ZUJKAS_clean_linker_0, # of connection points: 2
#     Edge 10, Type (0, 0), BuildingBlock: ZUJKAS_clean_linker_0, # of connection points: 2
#     Edge 11, Type (0, 0), BuildingBlock: ZUJKAS_clean_linker_0, # of connection points: 2
#     Edge 12, Type (0, 0), BuildingBlock: ZUJKAS_clean_linker_0, # of connection points: 2
#     Edge 13, Type (0, 0), BuildingBlock: ZUJKAS_clean_linker_0, # of connection points: 2
#     Edge 14, Type (0, 0), BuildingBlock: ZUJKAS_clean_linker_0, # of connection points: 2
#     Edge 15, Type (0, 0), BuildingBlock: ZUJKAS_clean_linker_0, # of connection points: 2
#     Edge 16, Type (0, 0), BuildingBlock: ZUJKAS_clean_linker_0, # of connection points: 2
#     Edge 17, Type (0, 0), BuildingBlock: ZUJKAS_clean_linker_0, # of connection points: 2
#     Edge 18, Type (0, 0), BuildingBlock: ZUJKAS_clean_linker_0, # of connection points: 2
#     Edge 19, Type (0, 0), BuildingBlock: ZUJKAS_clean_linker_0, # of connection points: 2
#     Edge 20, Type (0, 0), BuildingBlock: ZUJKAS_clean_linker_0, # of connection points: 2
#     Edge 21, Type (0, 0), BuildingBlock: ZUJKAS_clean_linker_0, # of connection points: 2
#     Edge 22, Type (0, 0), BuildingBlock: ZUJKAS_clean_linker_0, # of connection points: 2
#     Edge 23, Type (0, 0), BuildingBlock: ZUJKAS_clean_linker_0, # of connection points: 2
# Relax obj value: 0.108
# Max RMSD: 0.183
# Mean RMSD: 0.183
data_MOF--net-msp--node1-GALJAG_clean_sbu_0--edge1-ZUJKAS_clean_linker_0
_symmetry_space_group_name_H-M    P1
_symmetry_Int_Tables_number       1
_symmetry_cell_setting            triclinic
loop_
_symmetry_equiv_pos_as_xyz
'x, y, z'
_cell_length_a     27.990058
_cell_length_b     27.658028
_cell_length_c     56.332462
_cell_angle_alpha  90.007152
_cell_angle_beta   99.772468
_cell_angle_gamma 90.019167
loop_
_atom_site_label
_atom_site_type_symbol
_atom_site_fract_x
_atom_site_fract_y
_atom_site_fract_z
_atom_type_partial_charge
In0 In 0.03513 0.25749 0.37653 0.0
O1 O 0.96251 0.22096 0.36188 0.0
O2 O 0.97724 0.29012 0.34824 0.0
C3 C 0.05909 0.18119 0.40618 0.0
C4 C 0.09657 0.26042 0.34443 0.0
C5 C 0.03859 0.33293 0.40742 0.0
O6 O 0.02555 0.21013 0.40887 0.0
O7 O 0.07844 0.18951 0.38799 0.0
O8 O 0.00225 0.32381 0.39156 0.0
O9 O 0.07417 0.30497 0.40727 0.0
C10 C 0.94824 0.25507 0.34746 0.0
O11 O 0.09762 0.29216 0.36066 0.0
O12 O 0.0648 0.22825 0.34453 0.0
In13 In 0.45432 0.27207 0.62339 0.0
O14 O 0.52125 0.22757 0.63924 0.0
O15 O 0.51914 0.30224 0.64826 0.0
C16 C 0.39575 0.21118 0.59479 0.0
C17 C 0.40148 0.27575 0.65899 0.0
C18 C 0.47236 0.33731 0.59044 0.0
O19 O 0.4401 0.20143 0.60186 0.0
O20 O 0.38198 0.25119 0.602 0.0
O21 O 0.45251 0.34899 0.60818 0.0
O22 O 0.48293 0.29309 0.58945 0.0
C23 C 0.54204 0.26283 0.65108 0.0
O24 O 0.40268 0.31075 0.64461 0.0
O25 O 0.42717 0.23987 0.65543 0.0
In26 In 0.95419 0.73173 0.62805 0.0
O27 O 0.90677 0.6953 0.6522 0.0
O28 O 0.92563 0.76961 0.65823 0.0
C29 C 0.97067 0.66568 0.59519 0.0
C30 C 0.04217 0.73838 0.65568 0.0
C31 C 0.89554 0.79068 0.59844 0.0
O32 O 0.94705 0.65547 0.61181 0.0
O33 O 0.98587 0.70866 0.59541 0.0
O34 O 0.93957 0.80143 0.60587 0.0
O35 O 0.88205 0.75078 0.60594 0.0
C36 C 0.90351 0.73321 0.66447 0.0
O37 O 0.02401 0.77326 0.6426 0.0
O38 O 0.01647 0.70068 0.65415 0.0
In39 In 0.54078 0.74299 0.37143 0.0
O40 O 0.46961 0.78026 0.35488 0.0
O41 O 0.48397 0.70972 0.34278 0.0
C42 C 0.56693 0.81746 0.40211 0.0
C43 C 0.60194 0.73966 0.33929 0.0
C44 C 0.54158 0.66816 0.40242 0.0
O45 O 0.53085 0.79096 0.40358 0.0
O46 O 0.58786 0.8078 0.38462 0.0
O47 O 0.50376 0.68272 0.38893 0.0
O48 O 0.57982 0.69033 0.39982 0.0
C49 C 0.45555 0.74537 0.34091 0.0
O50 O 0.60002 0.70583 0.35422 0.0
O51 O 0.57331 0.77426 0.34077 0.0
In52 In 0.54026 0.76021 0.87655 0.0
O53 O 0.59738 0.79915 0.85846 0.0
O54 O 0.59359 0.72261 0.85672 0.0
C55 C 0.5252 0.83394 0.90563 0.0
C56 C 0.45961 0.75776 0.84259 0.0
C57 C 0.56787 0.68991 0.90943 0.0
O58 O 0.56517 0.82796 0.89834 0.0
O59 O 0.4928 0.80325 0.89784 0.0
O60 O 0.5668 0.73407 0.91467 0.0
O61 O 0.55348 0.68035 0.88749 0.0
C62 C 0.61352 0.76052 0.85085 0.0
O63 O 0.46709 0.72725 0.8595 0.0
O64 O 0.49231 0.78919 0.8431 0.0
In65 In 0.9574 0.76261 0.122 0.0
O66 O 0.02708 0.72311 0.13849 0.0
O67 O 0.01858 0.79703 0.14766 0.0
C68 C 0.90331 0.69977 0.0924 0.0
C69 C 0.90472 0.76206 0.1577 0.0
C70 C 0.97211 0.82957 0.0892 0.0
O71 O 0.94793 0.69208 0.0999 0.0
O72 O 0.88714 0.73848 0.09979 0.0
O73 O 0.9452 0.83748 0.10471 0.0
O74 O 0.99156 0.78827 0.09046 0.0
C75 C 0.04454 0.75952 0.1506 0.0
O76 O 0.90617 0.7986 0.14429 0.0
O77 O 0.92984 0.7265 0.15304 0.0
In78 In 0.45289 0.23297 0.12801 0.0
O79 O 0.40038 0.19769 0.14986 0.0
O80 O 0.42867 0.26762 0.16024 0.0
C81 C 0.4644 0.16698 0.09416 0.0
C82 C 0.54086 0.23505 0.15587 0.0
C83 C 0.40043 0.29846 0.09942 0.0
O84 O 0.43997 0.15805 0.11061 0.0
O85 O 0.48306 0.20861 0.09509 0.0
O86 O 0.44576 0.30314 0.10588 0.0
O87 O 0.38241 0.26141 0.10751 0.0
C88 C 0.40168 0.23307 0.16425 0.0
O89 O 0.52272 0.27197 0.14448 0.0
O90 O 0.51524 0.19733 0.15249 0.0
In91 In 0.03653 0.24346 0.87175 0.0
O92 O 0.09218 0.20858 0.85171 0.0
O93 O 0.06205 0.27691 0.83955 0.0
C94 C 0.03042 0.17521 0.90543 0.0
C95 C 0.94962 0.24275 0.84264 0.0
C96 C 0.08133 0.31423 0.90009 0.0
O97 O 0.05746 0.17014 0.88975 0.0
O98 O 0.00676 0.21418 0.90389 0.0
O99 O 0.03591 0.30862 0.89715 0.0
O100 O 0.10333 0.28475 0.88878 0.0
C101 C 0.09089 0.24305 0.8368 0.0
O102 O 0.96703 0.28066 0.85332 0.0
O103 O 0.97544 0.20547 0.84722 0.0
H104 H 0.97566 0.40831 0.40587 0.0
H105 H 0.96869 0.46619 0.43791 0.0
H106 H 0.08951 0.39812 0.48346 0.0
H107 H 0.09791 0.34148 0.45103 0.0
H108 H 0.94668 0.44897 0.48037 0.0
H109 H 0.12724 0.5365 0.49373 0.0
H110 H 0.10613 0.49801 0.46826 0.0
H111 H 0.13117 0.47208 0.49701 0.0
C112 C 0.00131 0.4063 0.42257 0.0
C113 C 0.03753 0.37063 0.42592 0.0
C114 C 0.99719 0.43927 0.4409 0.0
C115 C 0.02888 0.43698 0.46307 0.0
C116 C 0.06543 0.40157 0.46635 0.0
H117 H 0.95454 0.56785 0.59392 0.0
H118 H 0.96967 0.51074 0.56273 0.0
C119 C 0.07008 0.36905 0.44783 0.0
C120 C 0.02159 0.46981 0.48308 0.0
H121 H 0.07841 0.55186 0.52366 0.0
C122 C 0.97547 0.47164 0.48975 0.0
C123 C 0.05898 0.49974 0.49522 0.0
C124 C 0.10849 0.50193 0.48804 0.0
C125 C 0.96564 0.50248 0.50813 0.0
C126 C 0.00344 0.53121 0.52081 0.0
C127 C 0.04957 0.52943 0.51414 0.0
C128 C 0.99541 0.5651 0.54025 0.0
C129 C 0.91445 0.50499 0.51321 0.0
C130 C 0.00638 0.61434 0.53845 0.0
C131 C 0.99862 0.64675 0.55642 0.0
C132 C 0.97946 0.63068 0.57654 0.0
C133 C 0.9689 0.58132 0.5785 0.0
C134 C 0.97724 0.54873 0.56061 0.0
H135 H 0.88774 0.49172 0.4977 0.0
H136 H 0.9114 0.4818 0.52896 0.0
H137 H 0.90459 0.54254 0.5174 0.0
H138 H 0.02053 0.62785 0.52297 0.0
H139 H 0.00715 0.68457 0.55439 0.0
H140 H 0.46918 0.60382 0.40507 0.0
H141 H 0.46219 0.54808 0.43795 0.0
H142 H 0.60176 0.5948 0.47562 0.0
H143 H 0.60977 0.64938 0.4422 0.0
H144 H 0.59203 0.50009 0.48016 0.0
H145 H 0.42697 0.58875 0.50089 0.0
H146 H 0.41847 0.56803 0.47032 0.0
H147 H 0.46254 0.61449 0.4802 0.0
C148 C 0.49858 0.60188 0.42026 0.0
C149 C 0.53989 0.63113 0.42117 0.0
C150 C 0.49433 0.57036 0.43916 0.0
C151 C 0.53075 0.56831 0.45962 0.0
C152 C 0.57295 0.59611 0.46013 0.0
H153 H 0.4716 0.43612 0.59289 0.0
H154 H 0.4899 0.49355 0.56251 0.0
C155 C 0.57757 0.62718 0.44102 0.0
C156 C 0.52455 0.5373 0.48045 0.0
H157 H 0.44581 0.51117 0.5188 0.0
C158 C 0.56025 0.50277 0.48875 0.0
C159 C 0.48369 0.54154 0.4921 0.0
C160 C 0.44605 0.58058 0.4856 0.0
C161 C 0.55541 0.47132 0.50779 0.0
C162 C 0.51292 0.47339 0.51831 0.0
C163 C 0.47804 0.509 0.51054 0.0
C164 C 0.5034 0.43855 0.53709 0.0
C165 C 0.59631 0.43678 0.5166 0.0
C166 C 0.50426 0.38855 0.53284 0.0
C167 C 0.49454 0.35579 0.55029 0.0
C168 C 0.4826 0.37234 0.57213 0.0
C169 C 0.48071 0.42235 0.57622 0.0
C170 C 0.49119 0.45516 0.55888 0.0
H171 H 0.63146 0.45076 0.5128 0.0
H172 H 0.59982 0.43017 0.53626 0.0
H173 H 0.58918 0.40177 0.50704 0.0
H174 H 0.5119 0.37475 0.51589 0.0
H175 H 0.49571 0.31744 0.54651 0.0
H176 H 0.50992 0.18214 0.05578 0.0
H177 H 0.51857 0.12574 0.02338 0.0
H178 H 0.44101 0.01691 0.05634 0.0
H179 H 0.43214 0.07332 0.089 0.0
H180 H 0.5305 0.98521 0.04114 0.0
H181 H 0.40661 0.08193 0.96909 0.0
H182 H 0.45261 0.11876 0.98655 0.0
H183 H 0.40621 0.092 0.00074 0.0
C184 C 0.49465 0.14621 0.05617 0.0
C185 C 0.47018 0.13219 0.0749 0.0
C186 C 0.49945 0.11414 0.03757 0.0
C187 C 0.47989 0.06744 0.03732 0.0
C188 C 0.45611 0.05295 0.05618 0.0
H189 H 0.44109 0.85722 0.92127 0.0
H190 H 0.4303 0.9144 0.95313 0.0
C191 C 0.45106 0.08517 0.07478 0.0
C192 C 0.48486 0.03369 0.01747 0.0
H193 H 0.45275 0.01753 0.95673 0.0
C194 C 0.51341 0.99212 0.02269 0.0
C195 C 0.46222 0.04275 0.99347 0.0
C196 C 0.42983 0.08604 0.98704 0.0
C197 C 0.52065 0.95973 0.00442 0.0
C198 C 0.49898 0.96943 0.98034 0.0
C199 C 0.46969 0.01052 0.97519 0.0
C200 C 0.50544 0.93665 0.96034 0.0
C201 C 0.55098 0.9151 0.011 0.0
C202 C 0.55107 0.93113 0.9535 0.0
C203 C 0.5573 0.89875 0.93519 0.0
C204 C 0.51798 0.87126 0.92349 0.0
C205 C 0.47208 0.87781 0.92999 0.0
C206 C 0.46584 0.91041 0.94818 0.0
H207 H 0.55694 0.90795 0.0307 0.0
H208 H 0.53349 0.88293 0.00141 0.0
H209 H 0.58688 0.92003 0.00548 0.0
H210 H 0.58194 0.95158 0.96249 0.0
H211 H 0.59308 0.89447 0.93058 0.0
H212 H 0.93188 0.91962 0.08139 0.0
H213 H 0.94366 0.97747 0.04989 0.0
H214 H 0.04216 0.87834 0.02407 0.0
H215 H 0.03008 0.82021 0.05519 0.0
H216 H 0.02931 0.02104 0.04104 0.0
H217 H 0.94546 0.90928 0.9631 0.0
H218 H 0.93796 0.89597 0.99362 0.0
H219 H 0.99299 0.87945 0.98322 0.0
C220 C 0.95596 0.91016 0.06897 0.0
C221 C 0.97983 0.86528 0.07067 0.0
C222 C 0.96268 0.94321 0.05101 0.0
C223 C 0.99314 0.93184 0.0344 0.0
C224 C 0.01765 0.88741 0.03635 0.0
H225 H 0.07658 0.08766 0.91281 0.0
H226 H 0.06977 0.0285 0.94458 0.0
C227 C 0.01092 0.85437 0.05425 0.0
C228 C -7e-05 0.96675 0.01525 0.0
H229 H 0.9853 0.98104 0.9542 0.0
C230 C 0.01955 0.01238 0.02205 0.0
C231 C 0.98736 0.95525 0.99049 0.0
C232 C 0.96437 0.90751 0.98209 0.0
C233 C 0.0274 0.0467 0.00475 0.0
C234 C 0.01455 0.03532 0.98 0.0
C235 C 0.99528 0.98957 0.97319 0.0
C236 C 0.01914 0.07108 0.9609 0.0
C237 C 0.05004 0.09461 0.01312 0.0
C238 C 0.99241 0.11417 0.95937 0.0
C239 C 0.99619 0.14783 0.94132 0.0
C240 C 0.0266 0.13896 0.92432 0.0
C241 C 0.05298 0.09552 0.92569 0.0
C242 C 0.04912 0.06175 0.9438 0.0
H243 H 0.06969 0.09268 0.03197 0.0
H244 H 0.07569 0.10681 0.00132 0.0
H245 H 0.0211 0.12224 0.01242 0.0
H246 H 0.96828 0.12162 0.97206 0.0
H247 H 0.97518 0.18082 0.94067 0.0
H248 H 0.59899 0.31314 0.16981 0.0
H249 H 0.66977 0.31592 0.20211 0.0
H250 H 0.65447 0.16329 0.21463 0.0
H251 H 0.5845 0.16006 0.18229 0.0
H252 H 0.66945 0.29275 0.25018 0.0
H253 H 0.79846 0.17569 0.21203 0.0
H254 H 0.74494 0.20089 0.19385 0.0
H255 H 0.74037 0.14816 0.212 0.0
C256 C 0.6113 0.28006 0.17918 0.0
C257 C 0.58634 0.23637 0.17349 0.0
C258 C 0.65156 0.28172 0.19765 0.0
C259 C 0.66763 0.2397 0.21056 0.0
C260 C 0.64329 0.19592 0.20458 0.0
H261 H 0.88704 0.17813 0.33603 0.0
H262 H 0.81603 0.17436 0.3038 0.0
C263 C 0.60316 0.19421 0.18615 0.0
C264 C 0.70786 0.24205 0.2313 0.0
H265 H 0.81926 0.19526 0.25366 0.0
C266 C 0.70236 0.2717 0.25089 0.0
C267 C 0.75054 0.21425 0.23222 0.0
C268 C 0.75926 0.18328 0.21132 0.0
C269 C 0.73824 0.27384 0.27153 0.0
C270 C 0.78081 0.24599 0.27245 0.0
C271 C 0.7863 0.21624 0.25292 0.0
C272 C 0.82124 0.24899 0.29301 0.0
C273 C 0.73007 0.30532 0.29235 0.0
C274 C 0.84732 0.29221 0.29757 0.0
C275 C 0.88774 0.29441 0.31581 0.0
C276 C 0.90284 0.25337 0.32981 0.0
C277 C 0.87603 0.21035 0.32559 0.0
C278 C 0.83566 0.20811 0.30719 0.0
H279 H 0.69118 0.31474 0.29132 0.0
H280 H 0.74302 0.28707 0.30982 0.0
H281 H 0.75079 0.33945 0.29201 0.0
H282 H 0.83717 0.32392 0.28658 0.0
H283 H 0.90776 0.32803 0.3186 0.0
H284 H 0.59246 0.33484 0.67687 0.0
H285 H 0.66242 0.32714 0.70901 0.0
H286 H 0.6635 0.17291 0.69781 0.0
H287 H 0.59337 0.18037 0.66532 0.0
H288 H 0.66284 0.27125 0.75115 0.0
H289 H 0.80654 0.21353 0.70004 0.0
H290 H 0.75073 0.24142 0.68567 0.0
H291 H 0.75124 0.17912 0.69465 0.0
C292 C 0.60796 0.29932 0.68098 0.0
C293 C 0.58746 0.25816 0.66858 0.0
C294 C 0.64785 0.29501 0.69939 0.0
C295 C 0.6682 0.24954 0.70569 0.0
C296 C 0.64868 0.20842 0.69296 0.0
H297 H 0.90684 0.16528 0.81779 0.0
H298 H 0.83624 0.16534 0.7856 0.0
C299 C 0.60863 0.21271 0.67446 0.0
C300 C 0.70803 0.24533 0.72651 0.0
H301 H 0.82758 0.21613 0.74245 0.0
C302 C 0.69889 0.25918 0.74929 0.0
C303 C 0.75482 0.22934 0.72396 0.0
C304 C 0.76679 0.2153 0.69976 0.0
C305 C 0.73541 0.25751 0.76967 0.0
C306 C 0.78247 0.24238 0.76707 0.0
C307 C 0.79143 0.22779 0.74434 0.0
C308 C 0.82323 0.2422 0.78759 0.0
C309 C 0.72315 0.27136 0.79384 0.0
C310 C 0.83912 0.28542 0.79946 0.0
C311 C 0.87937 0.2855 0.81794 0.0
C312 C 0.90455 0.24239 0.8247 0.0
C313 C 0.88809 0.19907 0.81302 0.0
C314 C 0.84787 0.19902 0.79459 0.0
H315 H 0.68353 0.26916 0.79391 0.0
H316 H 0.74223 0.24771 0.80834 0.0
H317 H 0.73478 0.30921 0.79804 0.0
H318 H 0.82113 0.31929 0.79402 0.0
H319 H 0.89147 0.31946 0.82649 0.0
H320 H 0.0817 0.66989 0.68753 0.0
H321 H 0.15428 0.67626 0.71809 0.0
H322 H 0.18038 0.81974 0.69308 0.0
H323 H 0.10653 0.81409 0.66267 0.0
H324 H 0.24863 0.68966 0.71452 0.0
H325 H 0.18265 0.84223 0.76441 0.0
H326 H 0.14335 0.80901 0.74135 0.0
H327 H 0.18358 0.85444 0.73319 0.0
C328 C 0.10289 0.70282 0.68844 0.0
C329 C 0.08826 0.74166 0.6728 0.0
C330 C 0.14442 0.70636 0.70593 0.0
C331 C 0.17228 0.74875 0.70815 0.0
C332 C 0.15873 0.78711 0.69205 0.0
H333 H 0.43456 0.82397 0.80697 0.0
H334 H 0.36519 0.82158 0.77413 0.0
C335 C 0.11682 0.78372 0.67458 0.0
C336 C 0.21524 0.75229 0.72749 0.0
H337 H 0.26287 0.8155 0.7781 0.0
C338 C 0.25175 0.71718 0.72842 0.0
C339 C 0.21909 0.78812 0.74567 0.0
C340 C 0.17992 0.82536 0.74633 0.0
C341 C 0.2921 0.71702 0.74698 0.0
C342 C 0.29578 0.75268 0.76515 0.0
C343 C 0.25971 0.78817 0.7641 0.0
C344 C 0.33714 0.75401 0.78531 0.0
C345 C 0.33075 0.67902 0.74692 0.0
C346 C 0.34379 0.71706 0.80265 0.0
C347 C 0.38331 0.7184 0.82154 0.0
C348 C 0.41672 0.7567 0.8233 0.0
C349 C 0.40949 0.79391 0.80605 0.0
C350 C 0.36992 0.79267 0.78729 0.0
H351 H 0.3275 0.66048 0.72922 0.0
H352 H 0.36745 0.6953 0.75141 0.0
H353 H 0.32725 0.6514 0.76081 0.0
H354 H 0.3184 0.68725 0.80156 0.0
H355 H 0.38795 0.68931 0.8346 0.0
H356 H 0.39381 0.82158 0.3285 0.0
H357 H 0.32281 0.82366 0.29621 0.0
H358 H 0.34636 0.6741 0.27991 0.0
H359 H 0.41684 0.67163 0.31203 0.0
H360 H 0.32445 0.80248 0.2463 0.0
H361 H 0.2011 0.6798 0.28538 0.0
H362 H 0.253 0.70836 0.30339 0.0
H363 H 0.26093 0.65624 0.28542 0.0
C364 C 0.38341 0.78903 0.31822 0.0
C365 C 0.41076 0.74643 0.3228 0.0
C366 C 0.34302 0.7903 0.29978 0.0
C367 C 0.32915 0.74888 0.2859 0.0
C368 C 0.35601 0.7062 0.29069 0.0
H369 H 0.10372 0.68173 0.16388 0.0
H370 H 0.17544 0.67923 0.1957 0.0
C371 C 0.3964 0.70495 0.30898 0.0
C372 C 0.28815 0.75067 0.26554 0.0
H373 H 0.17739 0.70131 0.24428 0.0
C374 C 0.29212 0.78064 0.24589 0.0
C375 C 0.24636 0.72172 0.26502 0.0
C376 C 0.2397 0.68997 0.286 0.0
C377 C 0.25558 0.78192 0.22549 0.0
C378 C 0.21364 0.75313 0.225 0.0
C379 C 0.20973 0.72311 0.24466 0.0
C380 C 0.17243 0.75513 0.20471 0.0
C381 C 0.26263 0.81335 0.20446 0.0
C382 C 0.14716 0.79857 0.19927 0.0
C383 C 0.1065 0.8001 0.18115 0.0
C384 C 0.09005 0.7581 0.16823 0.0
C385 C 0.11574 0.71469 0.17345 0.0
C386 C 0.15654 0.71319 0.19164 0.0
H387 H 0.30154 0.82174 0.20471 0.0
H388 H 0.24783 0.7957 0.18706 0.0
H389 H 0.24322 0.84807 0.20546 0.0
H390 H 0.15817 0.83109 0.20946 0.0
H391 H 0.0873 0.83405 0.17765 0.0
H392 H 0.33315 0.16885 0.17414 0.0
H393 H 0.28353 0.17528 0.20599 0.0
H394 H 0.35703 0.30759 0.23087 0.0
H395 H 0.40591 0.30194 0.19897 0.0
H396 H 0.31143 0.17972 0.25597 0.0
H397 H 0.21481 0.34718 0.22105 0.0
H398 H 0.24956 0.31138 0.2033 0.0
H399 H 0.27968 0.35214 0.22587 0.0
C400 C 0.33867 0.19926 0.18642 0.0
C401 C 0.37307 0.23509 0.18396 0.0
C402 C 0.31036 0.2029 0.20457 0.0
C403 C 0.316 0.24242 0.22047 0.0
C404 C 0.35127 0.27746 0.21843 0.0
H405 H 0.16983 0.32419 0.34009 0.0
H406 H 0.22587 0.32041 0.31093 0.0
C407 C 0.37935 0.27399 0.20027 0.0
C408 C 0.28529 0.2469 0.23932 0.0
H409 H 0.202 0.3198 0.25935 0.0
C410 C 0.28742 0.21027 0.25669 0.0
C411 C 0.2542 0.28697 0.24026 0.0
C412 C 0.24896 0.32647 0.22152 0.0
C413 C 0.25943 0.21273 0.27509 0.0
C414 C 0.22804 0.25255 0.27589 0.0
C415 C 0.22633 0.28948 0.25872 0.0
C416 C 0.19469 0.25512 0.2936 0.0
C417 C 0.26395 0.1729 0.29364 0.0
C418 C 0.15826 0.22022 0.29315 0.0
C419 C 0.12639 0.22235 0.30963 0.0
C420 C 0.13014 0.2596 0.32684 0.0
C421 C 0.16621 0.29503 0.32708 0.0
C422 C 0.19818 0.29289 0.31048 0.0
H423 H 0.29841 0.15254 0.29447 0.0
H424 H 0.26214 0.18761 0.31181 0.0
H425 H 0.23354 0.14704 0.28876 0.0
H426 H 0.15431 0.19141 0.27994 0.0
H427 H 0.0988 0.19465 0.30889 0.0
H428 H 0.39642 0.20502 0.69195 0.0
H429 H 0.34331 0.20137 0.72209 0.0
H430 H 0.28476 0.34134 0.6994 0.0
H431 H 0.33768 0.3451 0.66888 0.0
H432 H 0.33634 0.26526 0.76036 0.0
H433 H 0.16393 0.25404 0.69498 0.0
H434 H 0.22238 0.24394 0.68637 0.0
H435 H 0.20229 0.30441 0.69089 0.0
C436 C 0.37233 0.23513 0.69337 0.0
C437 C 0.37099 0.27528 0.67797 0.0
C438 C 0.34205 0.23296 0.71062 0.0
C439 C 0.30968 0.27073 0.71273 0.0
C440 C 0.30894 0.31142 0.69775 0.0
H441 H 0.09421 0.31454 0.80398 0.0
H442 H 0.14801 0.32061 0.77421 0.0
C443 C 0.33934 0.31366 0.68045 0.0
C444 C 0.27682 0.26715 0.73065 0.0
H445 H 0.15754 0.25911 0.73622 0.0
C446 C 0.29724 0.26387 0.75513 0.0
C447 C 0.22589 0.2652 0.72368 0.0
C448 C 0.20215 0.26666 0.69755 0.0
C449 C 0.26798 0.2594 0.77292 0.0
C450 C 0.21704 0.25723 0.76595 0.0
C451 C 0.19663 0.26066 0.74147 0.0
C452 C 0.18416 0.25253 0.78383 0.0
C453 C 0.29179 0.25804 0.79904 0.0
C454 C 0.18612 0.21176 0.79883 0.0
C455 C 0.15541 0.20819 0.81593 0.0
C456 C 0.1221 0.24521 0.81815 0.0
C457 C 0.11958 0.28545 0.80274 0.0
C458 C 0.15026 0.28901 0.78571 0.0
H459 H 0.32955 0.27199 0.80162 0.0
H460 H 0.27088 0.27966 0.81036 0.0
H461 H 0.29306 0.22011 0.80552 0.0
H462 H 0.2114 0.18274 0.79731 0.0
H463 H 0.15798 0.17668 0.8275 0.0
H464 H 0.65555 0.83692 0.83109 0.0
H465 H 0.70884 0.83293 0.80066 0.0
H466 H 0.70594 0.67721 0.80354 0.0
H467 H 0.65295 0.68076 0.83374 0.0
H468 H 0.80309 0.78094 0.80191 0.0
H469 H 0.65365 0.71468 0.73156 0.0
H470 H 0.64277 0.74438 0.7587 0.0
H471 H 0.66208 0.6824 0.75966 0.0
C472 C 0.66679 0.8019 0.82543 0.0
C473 C 0.6498 0.75917 0.83463 0.0
C474 C 0.69712 0.79969 0.80807 0.0
C475 C 0.71056 0.75476 0.79966 0.0
C476 C 0.69531 0.71218 0.80958 0.0
H477 H 0.85909 0.65904 0.68455 0.0
H478 H 0.81424 0.66406 0.71831 0.0
C479 C 0.66517 0.71433 0.82688 0.0
C480 C 0.73914 0.75198 0.77991 0.0
H481 H 0.73227 0.71573 0.72152 0.0
C482 C 0.78769 0.76692 0.78428 0.0
C483 C 0.71882 0.7334 0.75704 0.0
C484 C 0.66636 0.71809 0.75127 0.0
C485 C 0.8169 0.76289 0.76641 0.0
C486 C 0.79651 0.74446 0.74346 0.0
C487 C 0.74786 0.72965 0.73914 0.0
C488 C 0.82462 0.74117 0.72346 0.0
C489 C 0.86956 0.77732 0.77249 0.0
C490 C 0.84466 0.7829 0.71497 0.0
C491 C 0.8704 0.78007 0.69587 0.0
C492 C 0.87605 0.73552 0.68464 0.0
C493 C 0.85538 0.69381 0.69289 0.0
C494 C 0.82982 0.69665 0.71215 0.0
H495 H 0.8827 0.77679 0.79224 0.0
H496 H 0.89279 0.75297 0.76367 0.0
H497 H 0.87388 0.81471 0.76603 0.0
H498 H 0.83997 0.81782 0.72296 0.0
H499 H 0.88554 0.81294 0.68977 0.0
H500 H 0.89965 0.6883 0.18914 0.0
H501 H 0.84903 0.6832 0.22039 0.0
H502 H 0.79286 0.82583 0.20158 0.0
H503 H 0.84327 0.83114 0.17005 0.0
H504 H 0.84676 0.74507 0.26041 0.0
H505 H 0.6705 0.74054 0.19786 0.0
H506 H 0.72764 0.72966 0.18798 0.0
H507 H 0.70928 0.79034 0.19342 0.0
C508 C 0.87654 0.71863 0.19164 0.0
C509 C 0.87519 0.76006 0.17706 0.0
C510 C 0.84772 0.71564 0.20952 0.0
C511 C 0.81679 0.75383 0.21305 0.0
C512 C 0.81594 0.79563 0.19884 0.0
H513 H 0.61161 0.81024 0.30698 0.0
H514 H 0.6653 0.81145 0.27714 0.0
C515 C 0.84489 0.79871 0.18094 0.0
C516 C 0.78551 0.74978 0.23167 0.0
H517 H 0.66731 0.747 0.23949 0.0
C518 C 0.80751 0.74527 0.25589 0.0
C519 C 0.73439 0.74979 0.22562 0.0
C520 C 0.7089 0.75241 0.1998 0.0
C521 C 0.77964 0.74214 0.27434 0.0
C522 C 0.72849 0.74267 0.2683 0.0
C523 C 0.70655 0.74661 0.24405 0.0
C524 C 0.69689 0.74135 0.28688 0.0
C525 C 0.80511 0.73974 0.30016 0.0
C526 C 0.69664 0.7013 0.3022 0.0
C527 C 0.66594 0.70052 0.31941 0.0
C528 C 0.63488 0.73968 0.3214 0.0
C529 C 0.63514 0.77951 0.30592 0.0
C530 C 0.66576 0.78028 0.28883 0.0
H531 H 0.84378 0.75065 0.30204 0.0
H532 H 0.78692 0.7634 0.31183 0.0
H533 H 0.80381 0.70207 0.3068 0.0
H534 H 0.71979 0.67048 0.30068 0.0
H535 H 0.66631 0.66927 0.33103 0.0
H536 H 0.41718 0.13153 0.56928 0.0
H537 H 0.36101 0.08726 0.53846 0.0
H538 H 0.24312 0.1769 0.55285 0.0
H539 H 0.29831 0.22047 0.58353 0.0
H540 H 0.21731 0.07692 0.54326 0.0
H541 H 0.31448 0.16022 0.47471 0.0
H542 H 0.34846 0.12345 0.49797 0.0
H543 H 0.32479 0.18066 0.50555 0.0
C544 C 0.3791 0.14107 0.56611 0.0
C545 C 0.36221 0.17992 0.57849 0.0
C546 C 0.34714 0.11583 0.54854 0.0
C547 C 0.29805 0.1292 0.54324 0.0
C548 C 0.28082 0.16593 0.55669 0.0
H549 H 0.04804 0.1803 0.45327 0.0
H550 H 0.10473 0.14534 0.48631 0.0
C551 C 0.31254 0.19109 0.5741 0.0
C552 C 0.2652 0.11025 0.5219 0.0
H553 H 0.23721 0.13013 0.4615 0.0
C554 C 0.22209 0.08724 0.52523 0.0
C555 C 0.27173 0.12331 0.4984 0.0
C556 C 0.31717 0.14844 0.49375 0.0
C557 C 0.1838 0.0804 0.50591 0.0
C558 C 0.18851 0.09803 0.48285 0.0
C559 C 0.23337 0.11675 0.47917 0.0
C560 C 0.14612 0.10581 0.46346 0.0
C561 C 0.13808 0.05618 0.51062 0.0
C562 C 0.14914 0.09404 0.4395 0.0
C563 C 0.11723 0.11497 0.42053 0.0
C564 C 0.08158 0.1477 0.42522 0.0
C565 C 0.07503 0.15505 0.44911 0.0
C566 C 0.10738 0.13467 0.46809 0.0
H567 H 0.14668 0.02757 0.52454 0.0
H568 H 0.11485 0.08331 0.51768 0.0
H569 H 0.11732 0.03981 0.49402 0.0
H570 H 0.17865 0.07188 0.43546 0.0
H571 H 0.12289 0.10847 0.40224 0.0
H572 H 0.79838 0.77962 0.58609 0.0
H573 H 0.74411 0.82028 0.55392 0.0
H574 H 0.86204 0.91006 0.53965 0.0
H575 H 0.91724 0.86881 0.57199 0.0
H576 H 0.71747 0.91958 0.54201 0.0
H577 H 0.82008 0.83128 0.47707 0.0
H578 H 0.82847 0.81338 0.50828 0.0
H579 H 0.85271 0.8698 0.49997 0.0
C580 C 0.81277 0.80848 0.57637 0.0
C581 C 0.86223 0.82053 0.58127 0.0
C582 C 0.78157 0.83194 0.5581 0.0
C583 C 0.79915 0.8678 0.54426 0.0
C584 C 0.84792 0.88213 0.55002 0.0
H585 H 0.63494 0.88709 0.40015 0.0
H586 H 0.68931 0.92153 0.43453 0.0
C587 C 0.87933 0.85862 0.56847 0.0
C588 C 0.76725 0.88486 0.52218 0.0
H589 H 0.74393 0.86212 0.46191 0.0
C590 C 0.72365 0.90822 0.52435 0.0
C591 C 0.77558 0.87034 0.49917 0.0
C592 C 0.82155 0.84462 0.49578 0.0
C593 C 0.6868 0.91451 0.5043 0.0
C594 C 0.69342 0.89591 0.48169 0.0
C595 C 0.73865 0.87632 0.47923 0.0
C596 C 0.65259 0.88889 0.46138 0.0
C597 C 0.64064 0.93953 0.50776 0.0
C598 C 0.61213 0.86137 0.46493 0.0
C599 C 0.58055 0.84231 0.44527 0.0
C600 C 0.58958 0.84956 0.42177 0.0
C601 C 0.62731 0.88074 0.41811 0.0
C602 C 0.65843 0.90042 0.43775 0.0
H603 H 0.64827 0.96828 0.52167 0.0
H604 H 0.62168 0.95591 0.49074 0.0
H605 H 0.61611 0.91289 0.51422 0.0
H606 H 0.6073 0.85088 0.48288 0.0
H607 H 0.55196 0.81815 0.44863 0.0
H608 H 0.92947 0.62286 0.06619 0.0
H609 H 0.87617 0.57765 0.0345 0.0
H610 H 0.75369 0.66072 0.04877 0.0
H611 H 0.80586 0.70481 0.08029 0.0
H612 H 0.73126 0.56265 0.03882 0.0
H613 H 0.82855 0.64632 0.97038 0.0
H614 H 0.86202 0.60948 0.99378 0.0
H615 H 0.83895 0.66711 0.00116 0.0
C616 C 0.89101 0.63072 0.06276 0.0
C617 C 0.8719 0.66782 0.07543 0.0
C618 C 0.86069 0.60502 0.04465 0.0
C619 C 0.81107 0.61626 0.03909 0.0
C620 C 0.79181 0.65133 0.05276 0.0
H621 H 0.57225 0.6925 0.95769 0.0
H622 H 0.62941 0.64907 0.98756 0.0
C623 C 0.82182 0.67682 0.07068 0.0
C624 C 0.77908 0.59657 0.01759 0.0
H625 H 0.7492 0.62084 0.95759 0.0
C626 C 0.7358 0.57378 0.02087 0.0
C627 C 0.78526 0.61043 0.99412 0.0
C628 C 0.83104 0.6348 0.98944 0.0
C629 C 0.69653 0.56979 0.00185 0.0
C630 C 0.7007 0.58939 0.97914 0.0
C631 C 0.74597 0.60619 0.97511 0.0
C632 C 0.65746 0.60399 0.96162 0.0
C633 C 0.64977 0.54801 0.00668 0.0
C634 C 0.65305 0.59219 0.93708 0.0
C635 C 0.61983 0.61694 0.9199 0.0
C636 C 0.59162 0.65449 0.9271 0.0
C637 C 0.59353 0.66361 0.95172 0.0
C638 C 0.62599 0.63847 0.96883 0.0
H639 H 0.657 0.51873 0.02032 0.0
H640 H 0.62825 0.5763 0.01404 0.0
H641 H 0.62783 0.53319 0.98998 0.0
H642 H 0.67742 0.56619 0.93113 0.0
H643 H 0.61933 0.60963 0.90097 0.0
H644 H 0.30239 0.3026 0.08939 0.0
H645 H 0.25291 0.34181 0.05502 0.0
H646 H 0.38101 0.40579 0.03515 0.0
H647 H 0.43122 0.36601 0.06967 0.0
H648 H 0.23925 0.439 0.03395 0.0
H649 H 0.32971 0.30746 0.98086 0.0
H650 H 0.33491 0.30255 0.0131 0.0
H651 H 0.36733 0.34902 0.00025 0.0
C652 C 0.32001 0.32591 0.07805 0.0
C653 C 0.37072 0.33053 0.08189 0.0
C654 C 0.29161 0.34861 0.05852 0.0
C655 C 0.31339 0.37614 0.04241 0.0
C656 C 0.36364 0.38433 0.04733 0.0
H657 H 0.16273 0.36393 0.89582 0.0
H658 H 0.21953 0.40062 0.92862 0.0
C659 C 0.39222 0.36164 0.06702 0.0
C660 C 0.28425 0.38846 0.01877 0.0
H661 H 0.25993 0.34498 0.96147 0.0
C662 C 0.24428 0.41949 0.01786 0.0
C663 C 0.29102 0.363 0.99784 0.0
C664 C 0.33283 0.32841 0.99788 0.0
C665 C 0.20949 0.42382 0.9968 0.0
C666 C 0.21427 0.39534 0.97646 0.0
C667 C 0.25609 0.36696 0.97698 0.0
C668 C 0.17431 0.38859 0.95568 0.0
C669 C 0.16753 0.45796 0.99684 0.0
C670 C 0.12861 0.37231 0.95957 0.0
C671 C 0.09552 0.35264 0.94063 0.0
C672 C 0.10832 0.34768 0.91774 0.0
C673 C 0.15221 0.36738 0.91339 0.0
C674 C 0.18465 0.38827 0.93213 0.0
H675 H 0.17894 0.49004 0.00828 0.0
H676 H 0.15219 0.47043 0.97838 0.0
H677 H 0.13866 0.4393 0.00462 0.0
H678 H 0.12005 0.37082 0.97758 0.0
H679 H 0.0621 0.33708 0.94443 0.0
loop_
_geom_bond_atom_site_label_1
_geom_bond_atom_site_label_2
_geom_bond_distance
_geom_bond_site_symmetry_2
_ccdc_geom_bond_type
In0 O1 2.294 1_455 S
In0 O2 2.326 1_455 S
In0 O6 2.266 . S
In0 O7 2.326 . S
In0 O8 2.266 . S
In0 O9 2.326 . S
In0 O11 2.294 . S
In0 O12 2.326 . S
O1 In0 2.294 1_655 S
O1 C10 1.240 . S
O2 In0 2.326 1_655 S
O2 C10 1.252 . S
C3 O6 1.252 . S
C3 O7 1.260 . S
C4 O11 1.240 . S
C4 O12 1.252 . S
C5 O8 1.252 . S
C5 O9 1.260 . S
O6 In0 2.266 . S
O6 C3 1.252 . S
O7 In0 2.326 . S
O7 C3 1.260 . S
O8 In0 2.266 . S
O8 C5 1.252 . S
O9 In0 2.326 . S
O9 C5 1.260 . S
C10 O1 1.240 . S
C10 O2 1.252 . S
O11 In0 2.294 . S
O11 C4 1.240 . S
O12 In0 2.326 . S
O12 C4 1.252 . S
In13 O14 2.294 . S
In13 O15 2.326 . S
In13 O19 2.266 . S
In13 O20 2.326 . S
In13 O21 2.266 . S
In13 O22 2.326 . S
In13 O24 2.294 . S
In13 O25 2.326 . S
O14 In13 2.294 . S
O14 C23 1.240 . S
O15 In13 2.326 . S
O15 C23 1.252 . S
C16 O19 1.252 . S
C16 O20 1.260 . S
C17 O24 1.240 . S
C17 O25 1.252 . S
C18 O21 1.252 . S
C18 O22 1.260 . S
O19 In13 2.266 . S
O19 C16 1.252 . S
O20 In13 2.326 . S
O20 C16 1.260 . S
O21 In13 2.266 . S
O21 C18 1.252 . S
O22 In13 2.326 . S
O22 C18 1.260 . S
C23 O14 1.240 . S
C23 O15 1.252 . S
O24 In13 2.294 . S
O24 C17 1.240 . S
O25 In13 2.326 . S
O25 C17 1.252 . S
In26 O27 2.294 . S
In26 O28 2.326 . S
In26 O32 2.266 . S
In26 O33 2.326 . S
In26 O34 2.266 . S
In26 O35 2.326 . S
In26 O37 2.294 1_655 S
In26 O38 2.326 1_655 S
O27 In26 2.294 . S
O27 C36 1.240 . S
O28 In26 2.326 . S
O28 C36 1.252 . S
C29 O32 1.252 . S
C29 O33 1.260 . S
C30 O37 1.240 . S
C30 O38 1.252 . S
C31 O34 1.252 . S
C31 O35 1.260 . S
O32 In26 2.266 . S
O32 C29 1.252 . S
O33 In26 2.326 . S
O33 C29 1.260 . S
O34 In26 2.266 . S
O34 C31 1.252 . S
O35 In26 2.326 . S
O35 C31 1.260 . S
C36 O27 1.240 . S
C36 O28 1.252 . S
O37 In26 2.294 1_455 S
O37 C30 1.240 . S
O38 In26 2.326 1_455 S
O38 C30 1.252 . S
In39 O40 2.294 . S
In39 O41 2.326 . S
In39 O45 2.266 . S
In39 O46 2.326 . S
In39 O47 2.266 . S
In39 O48 2.326 . S
In39 O50 2.294 . S
In39 O51 2.326 . S
O40 In39 2.294 . S
O40 C49 1.240 . S
O41 In39 2.326 . S
O41 C49 1.252 . S
C42 O45 1.252 . S
C42 O46 1.260 . S
C43 O50 1.240 . S
C43 O51 1.252 . S
C44 O47 1.252 . S
C44 O48 1.260 . S
O45 In39 2.266 . S
O45 C42 1.252 . S
O46 In39 2.326 . S
O46 C42 1.260 . S
O47 In39 2.266 . S
O47 C44 1.252 . S
O48 In39 2.326 . S
O48 C44 1.260 . S
C49 O40 1.240 . S
C49 O41 1.252 . S
O50 In39 2.294 . S
O50 C43 1.240 . S
O51 In39 2.326 . S
O51 C43 1.252 . S
In52 O53 2.294 . S
In52 O54 2.326 . S
In52 O58 2.266 . S
In52 O59 2.326 . S
In52 O60 2.266 . S
In52 O61 2.326 . S
In52 O63 2.294 . S
In52 O64 2.326 . S
O53 In52 2.294 . S
O53 C62 1.240 . S
O54 In52 2.326 . S
O54 C62 1.252 . S
C55 O58 1.252 . S
C55 O59 1.260 . S
C56 O63 1.240 . S
C56 O64 1.252 . S
C57 O60 1.252 . S
C57 O61 1.260 . S
O58 In52 2.266 . S
O58 C55 1.252 . S
O59 In52 2.326 . S
O59 C55 1.260 . S
O60 In52 2.266 . S
O60 C57 1.252 . S
O61 In52 2.326 . S
O61 C57 1.260 . S
C62 O53 1.240 . S
C62 O54 1.252 . S
O63 In52 2.294 . S
O63 C56 1.240 . S
O64 In52 2.326 . S
O64 C56 1.252 . S
In65 O66 2.294 1_655 S
In65 O67 2.326 1_655 S
In65 O71 2.266 . S
In65 O72 2.326 . S
In65 O73 2.266 . S
In65 O74 2.326 . S
In65 O76 2.294 . S
In65 O77 2.326 . S
O66 In65 2.294 1_455 S
O66 C75 1.240 . S
O67 In65 2.326 1_455 S
O67 C75 1.252 . S
C68 O71 1.252 . S
C68 O72 1.260 . S
C69 O76 1.240 . S
C69 O77 1.252 . S
C70 O73 1.252 . S
C70 O74 1.260 . S
O71 In65 2.266 . S
O71 C68 1.252 . S
O72 In65 2.326 . S
O72 C68 1.260 . S
O73 In65 2.266 . S
O73 C70 1.252 . S
O74 In65 2.326 . S
O74 C70 1.260 . S
C75 O66 1.240 . S
C75 O67 1.252 . S
O76 In65 2.294 . S
O76 C69 1.240 . S
O77 In65 2.326 . S
O77 C69 1.252 . S
In78 O79 2.294 . S
In78 O80 2.326 . S
In78 O84 2.266 . S
In78 O85 2.326 . S
In78 O86 2.266 . S
In78 O87 2.326 . S
In78 O89 2.294 . S
In78 O90 2.326 . S
O79 In78 2.294 . S
O79 C88 1.240 . S
O80 In78 2.326 . S
O80 C88 1.252 . S
C81 O84 1.252 . S
C81 O85 1.260 . S
C82 O89 1.240 . S
C82 O90 1.252 . S
C83 O86 1.252 . S
C83 O87 1.260 . S
O84 In78 2.266 . S
O84 C81 1.252 . S
O85 In78 2.326 . S
O85 C81 1.260 . S
O86 In78 2.266 . S
O86 C83 1.252 . S
O87 In78 2.326 . S
O87 C83 1.260 . S
C88 O79 1.240 . S
C88 O80 1.252 . S
O89 In78 2.294 . S
O89 C82 1.240 . S
O90 In78 2.326 . S
O90 C82 1.252 . S
In91 O92 2.294 . S
In91 O93 2.326 . S
In91 O97 2.266 . S
In91 O98 2.326 . S
In91 O99 2.266 . S
In91 O100 2.326 . S
In91 O102 2.294 1_455 S
In91 O103 2.326 1_455 S
O92 In91 2.294 . S
O92 C101 1.240 . S
O93 In91 2.326 . S
O93 C101 1.252 . S
C94 O97 1.252 . S
C94 O98 1.260 . S
C95 O102 1.240 . S
C95 O103 1.252 . S
C96 O99 1.252 . S
C96 O100 1.260 . S
O97 In91 2.266 . S
O97 C94 1.252 . S
O98 In91 2.326 . S
O98 C94 1.260 . S
O99 In91 2.266 . S
O99 C96 1.252 . S
O100 In91 2.326 . S
O100 C96 1.260 . S
C101 O92 1.240 . S
C101 O93 1.252 . S
O102 In91 2.294 1_655 S
O102 C95 1.240 . S
O103 In91 2.326 1_655 S
O103 C95 1.252 . S
H104 C112 0.929 . S
H105 C114 0.930 . S
H106 C116 0.930 . S
H107 C119 0.929 . S
H108 C122 0.930 . S
H109 C124 0.960 . S
H110 C124 0.960 . S
H111 C124 0.960 . S
C112 H104 0.929 . S
C112 C113 1.377 1_655 S
C112 C114 1.384 . S
C113 C112 1.377 1_455 S
C113 C119 1.390 . S
C114 H105 0.930 . S
C114 C112 1.384 . S
C114 C115 1.372 1_655 S
C115 C114 1.372 1_455 S
C115 C116 1.400 . S
C115 C120 1.490 . S
C116 H106 0.930 . S
C116 C115 1.400 . S
C116 C119 1.386 . S
H117 C133 0.930 . S
H118 C134 0.931 . S
C119 H107 0.929 . S
C119 C113 1.390 . S
C119 C116 1.386 . S
C120 C115 1.490 . S
C120 C122 1.395 1_455 S
C120 C123 1.402 . S
H121 C127 0.930 . S
C122 H108 0.930 . S
C122 C120 1.395 1_655 S
C122 C125 1.403 . S
C123 C120 1.402 . S
C123 C124 1.524 . S
C123 C127 1.400 . S
C124 H109 0.960 . S
C124 H110 0.960 . S
C124 H111 0.960 . S
C124 C123 1.524 . S
C125 C122 1.403 . S
C125 C126 1.392 . S
C125 C129 1.495 . S
C126 C125 1.392 . S
C126 C127 1.385 1_655 S
C126 C128 1.478 . S
C127 H121 0.930 . S
C127 C123 1.400 . S
C127 C126 1.385 1_455 S
C128 C126 1.478 . S
C128 C130 1.381 . S
C128 C134 1.383 1_655 S
C129 C125 1.495 . S
C129 H135 0.959 . S
C129 H136 0.961 . S
C129 H137 0.960 . S
C130 C128 1.381 . S
C130 C131 1.394 . S
C130 H138 0.930 . S
C131 C130 1.394 . S
C131 C132 1.383 . S
C131 H139 0.929 . S
C132 C131 1.383 . S
C132 C133 1.377 1_655 S
C133 H117 0.930 . S
C133 C132 1.377 1_455 S
C133 C134 1.379 . S
C134 H118 0.931 . S
C134 C128 1.383 1_455 S
C134 C133 1.379 . S
H135 C129 0.959 . S
H136 C129 0.961 . S
H137 C129 0.960 . S
H138 C130 0.930 . S
H139 C131 0.929 . S
H140 C148 0.929 . S
H141 C150 0.930 . S
H142 C152 0.930 . S
H143 C155 0.929 . S
H144 C158 0.930 . S
H145 C160 0.960 . S
H146 C160 0.960 . S
H147 C160 0.960 . S
C148 H140 0.929 . S
C148 C149 1.377 . S
C148 C150 1.384 . S
C149 C148 1.377 . S
C149 C155 1.390 . S
C150 H141 0.930 . S
C150 C148 1.384 . S
C150 C151 1.372 . S
C151 C150 1.372 . S
C151 C152 1.400 . S
C151 C156 1.490 . S
C152 H142 0.930 . S
C152 C151 1.400 . S
C152 C155 1.386 . S
H153 C169 0.930 . S
H154 C170 0.931 . S
C155 H143 0.929 . S
C155 C149 1.390 . S
C155 C152 1.386 . S
C156 C151 1.490 . S
C156 C158 1.395 . S
C156 C159 1.403 . S
H157 C163 0.930 . S
C158 H144 0.930 . S
C158 C156 1.395 . S
C158 C161 1.403 . S
C159 C156 1.403 . S
C159 C160 1.524 . S
C159 C163 1.400 . S
C160 H145 0.960 . S
C160 H146 0.960 . S
C160 H147 0.960 . S
C160 C159 1.524 . S
C161 C158 1.403 . S
C161 C162 1.392 . S
C161 C165 1.495 . S
C162 C161 1.392 . S
C162 C163 1.385 . S
C162 C164 1.478 . S
C163 H157 0.930 . S
C163 C159 1.400 . S
C163 C162 1.385 . S
C164 C162 1.478 . S
C164 C166 1.381 . S
C164 C170 1.383 . S
C165 C161 1.495 . S
C165 H171 0.959 . S
C165 H172 0.961 . S
C165 H173 0.960 . S
C166 C164 1.381 . S
C166 C167 1.394 . S
C166 H174 0.930 . S
C167 C166 1.394 . S
C167 C168 1.383 . S
C167 H175 0.929 . S
C168 C167 1.383 . S
C168 C169 1.377 . S
C169 H153 0.930 . S
C169 C168 1.377 . S
C169 C170 1.379 . S
C170 H154 0.931 . S
C170 C164 1.383 . S
C170 C169 1.379 . S
H171 C165 0.959 . S
H172 C165 0.961 . S
H173 C165 0.960 . S
H174 C166 0.930 . S
H175 C167 0.929 . S
H176 C184 0.929 . S
H177 C186 0.930 . S
H178 C188 0.930 . S
H179 C191 0.929 . S
H180 C194 0.930 . S
H181 C196 0.960 . S
H182 C196 0.960 . S
H183 C196 0.960 . S
C184 H176 0.929 . S
C184 C185 1.377 . S
C184 C186 1.384 . S
C185 C184 1.377 . S
C185 C191 1.390 . S
C186 H177 0.930 . S
C186 C184 1.384 . S
C186 C187 1.372 . S
C187 C186 1.372 . S
C187 C188 1.400 . S
C187 C192 1.490 . S
C188 H178 0.930 . S
C188 C187 1.400 . S
C188 C191 1.386 . S
H189 C205 0.930 . S
H190 C206 0.931 . S
C191 H179 0.929 . S
C191 C185 1.390 . S
C191 C188 1.386 . S
C192 C187 1.490 . S
C192 C194 1.395 1_545 S
C192 C195 1.403 1_554 S
H193 C199 0.930 . S
C194 H180 0.930 . S
C194 C192 1.395 1_565 S
C194 C197 1.403 . S
C195 C192 1.403 1_556 S
C195 C196 1.524 . S
C195 C199 1.400 . S
C196 H181 0.960 . S
C196 H182 0.960 . S
C196 H183 0.960 . S
C196 C195 1.524 . S
C197 C194 1.403 . S
C197 C198 1.392 1_554 S
C197 C201 1.495 . S
C198 C197 1.392 1_556 S
C198 C199 1.385 1_565 S
C198 C200 1.478 . S
C199 H193 0.930 . S
C199 C195 1.400 . S
C199 C198 1.385 1_545 S
C200 C198 1.478 . S
C200 C202 1.381 . S
C200 C206 1.383 . S
C201 C197 1.495 . S
C201 H207 0.959 . S
C201 H208 0.961 . S
C201 H209 0.960 . S
C202 C200 1.381 . S
C202 C203 1.394 . S
C202 H210 0.930 . S
C203 C202 1.394 . S
C203 C204 1.383 . S
C203 H211 0.929 . S
C204 C203 1.383 . S
C204 C205 1.377 . S
C205 H189 0.930 . S
C205 C204 1.377 . S
C205 C206 1.379 . S
C206 H190 0.931 . S
C206 C200 1.383 . S
C206 C205 1.379 . S
H207 C201 0.959 . S
H208 C201 0.961 . S
H209 C201 0.960 . S
H210 C202 0.930 . S
H211 C203 0.929 . S
H212 C220 0.929 . S
H213 C222 0.930 . S
H214 C224 0.930 . S
H215 C227 0.929 . S
H216 C230 0.930 . S
H217 C232 0.960 1_455 S
H218 C232 0.960 . S
H219 C232 0.960 1_455 S
C220 H212 0.929 . S
C220 C221 1.377 . S
C220 C222 1.384 . S
C221 C220 1.377 . S
C221 C227 1.390 1_655 S
C222 H213 0.930 . S
C222 C220 1.384 . S
C222 C223 1.372 . S
C223 C222 1.372 . S
C223 C224 1.400 1_655 S
C223 C228 1.490 . S
C224 H214 0.930 . S
C224 C223 1.400 1_455 S
C224 C227 1.386 . S
H225 C241 0.930 . S
H226 C242 0.931 . S
C227 H215 0.929 . S
C227 C221 1.390 1_455 S
C227 C224 1.386 . S
C228 C223 1.490 . S
C228 C230 1.395 1_565 S
C228 C231 1.403 1_554 S
H229 C235 0.930 . S
C230 H216 0.930 . S
C230 C228 1.395 1_545 S
C230 C233 1.403 . S
C231 C228 1.403 1_556 S
C231 C232 1.524 . S
C231 C235 1.400 1_655 S
C232 H217 0.960 1_655 S
C232 H218 0.960 . S
C232 H219 0.960 1_655 S
C232 C231 1.524 . S
C233 C230 1.403 . S
C233 C234 1.392 1_654 S
C233 C237 1.495 . S
C234 C233 1.392 1_456 S
C234 C235 1.385 1_545 S
C234 C236 1.478 . S
C235 H229 0.930 . S
C235 C231 1.400 1_455 S
C235 C234 1.385 1_565 S
C236 C234 1.478 . S
C236 C238 1.381 1_455 S
C236 C242 1.383 . S
C237 C233 1.495 . S
C237 H243 0.959 . S
C237 H244 0.961 1_655 S
C237 H245 0.960 . S
C238 C236 1.381 1_655 S
C238 C239 1.394 . S
C238 H246 0.930 . S
C239 C238 1.394 . S
C239 C240 1.383 1_655 S
C239 H247 0.929 . S
C240 C239 1.383 1_455 S
C240 C241 1.377 . S
C241 H225 0.930 . S
C241 C240 1.377 . S
C241 C242 1.379 . S
C242 H226 0.931 . S
C242 C236 1.383 . S
C242 C241 1.379 . S
H243 C237 0.959 . S
H244 C237 0.961 1_455 S
H245 C237 0.960 . S
H246 C238 0.930 . S
H247 C239 0.929 . S
H248 C256 0.929 . S
H249 C258 0.930 . S
H250 C260 0.930 . S
H251 C263 0.929 . S
H252 C266 0.930 . S
H253 C268 0.960 . S
H254 C268 0.960 . S
H255 C268 0.960 . S
C256 H248 0.929 . S
C256 C257 1.377 . S
C256 C258 1.384 . S
C257 C256 1.377 . S
C257 C263 1.390 . S
C258 H249 0.930 . S
C258 C256 1.384 . S
C258 C259 1.372 . S
C259 C258 1.372 . S
C259 C260 1.400 . S
C259 C264 1.490 . S
C260 H250 0.930 . S
C260 C259 1.400 . S
C260 C263 1.386 . S
H261 C277 0.930 . S
H262 C278 0.931 . S
C263 H251 0.929 . S
C263 C257 1.390 . S
C263 C260 1.386 . S
C264 C259 1.490 . S
C264 C266 1.395 . S
C264 C267 1.403 . S
H265 C271 0.930 . S
C266 H252 0.930 . S
C266 C264 1.395 . S
C266 C269 1.403 . S
C267 C264 1.403 . S
C267 C268 1.524 . S
C267 C271 1.400 . S
C268 H253 0.960 . S
C268 H254 0.960 . S
C268 H255 0.960 . S
C268 C267 1.524 . S
C269 C266 1.403 . S
C269 C270 1.392 . S
C269 C273 1.495 . S
C270 C269 1.392 . S
C270 C271 1.385 . S
C270 C272 1.478 . S
C271 H265 0.930 . S
C271 C267 1.400 . S
C271 C270 1.385 . S
C272 C270 1.478 . S
C272 C274 1.381 . S
C272 C278 1.383 . S
C273 C269 1.495 . S
C273 H279 0.959 . S
C273 H280 0.961 . S
C273 H281 0.960 . S
C274 C272 1.381 . S
C274 C275 1.394 . S
C274 H282 0.930 . S
C275 C274 1.394 . S
C275 C276 1.383 . S
C275 H283 0.929 . S
C276 C275 1.383 . S
C276 C277 1.377 . S
C277 H261 0.930 . S
C277 C276 1.377 . S
C277 C278 1.379 . S
C278 H262 0.931 . S
C278 C272 1.383 . S
C278 C277 1.379 . S
H279 C273 0.959 . S
H280 C273 0.961 . S
H281 C273 0.960 . S
H282 C274 0.930 . S
H283 C275 0.929 . S
H284 C292 0.929 . S
H285 C294 0.930 . S
H286 C296 0.930 . S
H287 C299 0.929 . S
H288 C302 0.930 . S
H289 C304 0.960 . S
H290 C304 0.960 . S
H291 C304 0.960 . S
C292 H284 0.929 . S
C292 C293 1.377 . S
C292 C294 1.384 . S
C293 C292 1.377 . S
C293 C299 1.390 . S
C294 H285 0.930 . S
C294 C292 1.384 . S
C294 C295 1.372 . S
C295 C294 1.372 . S
C295 C296 1.400 . S
C295 C300 1.490 . S
C296 H286 0.930 . S
C296 C295 1.400 . S
C296 C299 1.386 . S
H297 C313 0.930 . S
H298 C314 0.931 . S
C299 H287 0.929 . S
C299 C293 1.390 . S
C299 C296 1.386 . S
C300 C295 1.490 . S
C300 C302 1.395 . S
C300 C303 1.403 . S
H301 C307 0.930 . S
C302 H288 0.930 . S
C302 C300 1.395 . S
C302 C305 1.403 . S
C303 C300 1.403 . S
C303 C304 1.524 . S
C303 C307 1.400 . S
C304 H289 0.960 . S
C304 H290 0.960 . S
C304 H291 0.960 . S
C304 C303 1.524 . S
C305 C302 1.403 . S
C305 C306 1.392 . S
C305 C309 1.495 . S
C306 C305 1.392 . S
C306 C307 1.385 . S
C306 C308 1.478 . S
C307 H301 0.930 . S
C307 C303 1.400 . S
C307 C306 1.385 . S
C308 C306 1.478 . S
C308 C310 1.381 . S
C308 C314 1.383 . S
C309 C305 1.495 . S
C309 H315 0.959 . S
C309 H316 0.961 . S
C309 H317 0.960 . S
C310 C308 1.381 . S
C310 C311 1.394 . S
C310 H318 0.930 . S
C311 C310 1.394 . S
C311 C312 1.383 . S
C311 H319 0.929 . S
C312 C311 1.383 . S
C312 C313 1.377 . S
C313 H297 0.930 . S
C313 C312 1.377 . S
C313 C314 1.379 . S
C314 H298 0.931 . S
C314 C308 1.383 . S
C314 C313 1.379 . S
H315 C309 0.959 . S
H316 C309 0.961 . S
H317 C309 0.960 . S
H318 C310 0.930 . S
H319 C311 0.929 . S
H320 C328 0.929 . S
H321 C330 0.930 . S
H322 C332 0.930 . S
H323 C335 0.929 . S
H324 C338 0.930 . S
H325 C340 0.960 . S
H326 C340 0.960 . S
H327 C340 0.960 . S
C328 H320 0.929 . S
C328 C329 1.377 . S
C328 C330 1.384 . S
C329 C328 1.377 . S
C329 C335 1.390 . S
C330 H321 0.930 . S
C330 C328 1.384 . S
C330 C331 1.372 . S
C331 C330 1.372 . S
C331 C332 1.400 . S
C331 C336 1.490 . S
C332 H322 0.930 . S
C332 C331 1.400 . S
C332 C335 1.386 . S
H333 C349 0.930 . S
H334 C350 0.931 . S
C335 H323 0.929 . S
C335 C329 1.390 . S
C335 C332 1.386 . S
C336 C331 1.490 . S
C336 C338 1.395 . S
C336 C339 1.403 . S
H337 C343 0.930 . S
C338 H324 0.930 . S
C338 C336 1.395 . S
C338 C341 1.403 . S
C339 C336 1.403 . S
C339 C340 1.524 . S
C339 C343 1.400 . S
C340 H325 0.960 . S
C340 H326 0.960 . S
C340 H327 0.960 . S
C340 C339 1.524 . S
C341 C338 1.403 . S
C341 C342 1.392 . S
C341 C345 1.495 . S
C342 C341 1.392 . S
C342 C343 1.385 . S
C342 C344 1.478 . S
C343 H337 0.930 . S
C343 C339 1.400 . S
C343 C342 1.385 . S
C344 C342 1.478 . S
C344 C346 1.381 . S
C344 C350 1.383 . S
C345 C341 1.495 . S
C345 H351 0.959 . S
C345 H352 0.961 . S
C345 H353 0.960 . S
C346 C344 1.381 . S
C346 C347 1.394 . S
C346 H354 0.930 . S
C347 C346 1.394 . S
C347 C348 1.383 . S
C347 H355 0.929 . S
C348 C347 1.383 . S
C348 C349 1.377 . S
C349 H333 0.930 . S
C349 C348 1.377 . S
C349 C350 1.379 . S
C350 H334 0.931 . S
C350 C344 1.383 . S
C350 C349 1.379 . S
H351 C345 0.959 . S
H352 C345 0.961 . S
H353 C345 0.960 . S
H354 C346 0.930 . S
H355 C347 0.929 . S
H356 C364 0.929 . S
H357 C366 0.930 . S
H358 C368 0.930 . S
H359 C371 0.929 . S
H360 C374 0.930 . S
H361 C376 0.960 . S
H362 C376 0.960 . S
H363 C376 0.960 . S
C364 H356 0.929 . S
C364 C365 1.377 . S
C364 C366 1.384 . S
C365 C364 1.377 . S
C365 C371 1.390 . S
C366 H357 0.930 . S
C366 C364 1.384 . S
C366 C367 1.372 . S
C367 C366 1.372 . S
C367 C368 1.400 . S
C367 C372 1.490 . S
C368 H358 0.930 . S
C368 C367 1.400 . S
C368 C371 1.386 . S
H369 C385 0.930 . S
H370 C386 0.931 . S
C371 H359 0.929 . S
C371 C365 1.390 . S
C371 C368 1.386 . S
C372 C367 1.490 . S
C372 C374 1.395 . S
C372 C375 1.403 . S
H373 C379 0.930 . S
C374 H360 0.930 . S
C374 C372 1.395 . S
C374 C377 1.403 . S
C375 C372 1.403 . S
C375 C376 1.524 . S
C375 C379 1.400 . S
C376 H361 0.960 . S
C376 H362 0.960 . S
C376 H363 0.960 . S
C376 C375 1.524 . S
C377 C374 1.403 . S
C377 C378 1.392 . S
C377 C381 1.495 . S
C378 C377 1.392 . S
C378 C379 1.385 . S
C378 C380 1.478 . S
C379 H373 0.930 . S
C379 C375 1.400 . S
C379 C378 1.385 . S
C380 C378 1.478 . S
C380 C382 1.381 . S
C380 C386 1.383 . S
C381 C377 1.495 . S
C381 H387 0.959 . S
C381 H388 0.961 . S
C381 H389 0.960 . S
C382 C380 1.381 . S
C382 C383 1.394 . S
C382 H390 0.930 . S
C383 C382 1.394 . S
C383 C384 1.383 . S
C383 H391 0.929 . S
C384 C383 1.383 . S
C384 C385 1.377 . S
C385 H369 0.930 . S
C385 C384 1.377 . S
C385 C386 1.379 . S
C386 H370 0.931 . S
C386 C380 1.383 . S
C386 C385 1.379 . S
H387 C381 0.959 . S
H388 C381 0.961 . S
H389 C381 0.960 . S
H390 C382 0.930 . S
H391 C383 0.929 . S
H392 C400 0.929 . S
H393 C402 0.930 . S
H394 C404 0.930 . S
H395 C407 0.929 . S
H396 C410 0.930 . S
H397 C412 0.960 . S
H398 C412 0.960 . S
H399 C412 0.960 . S
C400 H392 0.929 . S
C400 C401 1.377 . S
C400 C402 1.384 . S
C401 C400 1.377 . S
C401 C407 1.390 . S
C402 H393 0.930 . S
C402 C400 1.384 . S
C402 C403 1.372 . S
C403 C402 1.372 . S
C403 C404 1.400 . S
C403 C408 1.490 . S
C404 H394 0.930 . S
C404 C403 1.400 . S
C404 C407 1.386 . S
H405 C421 0.930 . S
H406 C422 0.931 . S
C407 H395 0.929 . S
C407 C401 1.390 . S
C407 C404 1.386 . S
C408 C403 1.490 . S
C408 C410 1.395 . S
C408 C411 1.403 . S
H409 C415 0.930 . S
C410 H396 0.930 . S
C410 C408 1.395 . S
C410 C413 1.403 . S
C411 C408 1.403 . S
C411 C412 1.524 . S
C411 C415 1.400 . S
C412 H397 0.960 . S
C412 H398 0.960 . S
C412 H399 0.960 . S
C412 C411 1.524 . S
C413 C410 1.403 . S
C413 C414 1.392 . S
C413 C417 1.495 . S
C414 C413 1.392 . S
C414 C415 1.385 . S
C414 C416 1.478 . S
C415 H409 0.930 . S
C415 C411 1.400 . S
C415 C414 1.385 . S
C416 C414 1.478 . S
C416 C418 1.381 . S
C416 C422 1.383 . S
C417 C413 1.495 . S
C417 H423 0.959 . S
C417 H424 0.961 . S
C417 H425 0.960 . S
C418 C416 1.381 . S
C418 C419 1.394 . S
C418 H426 0.930 . S
C419 C418 1.394 . S
C419 C420 1.383 . S
C419 H427 0.929 . S
C420 C419 1.383 . S
C420 C421 1.377 . S
C421 H405 0.930 . S
C421 C420 1.377 . S
C421 C422 1.379 . S
C422 H406 0.931 . S
C422 C416 1.383 . S
C422 C421 1.379 . S
H423 C417 0.959 . S
H424 C417 0.961 . S
H425 C417 0.960 . S
H426 C418 0.930 . S
H427 C419 0.929 . S
H428 C436 0.929 . S
H429 C438 0.930 . S
H430 C440 0.930 . S
H431 C443 0.929 . S
H432 C446 0.930 . S
H433 C448 0.960 . S
H434 C448 0.960 . S
H435 C448 0.960 . S
C436 H428 0.929 . S
C436 C437 1.377 . S
C436 C438 1.384 . S
C437 C436 1.377 . S
C437 C443 1.390 . S
C438 H429 0.930 . S
C438 C436 1.384 . S
C438 C439 1.372 . S
C439 C438 1.372 . S
C439 C440 1.400 . S
C439 C444 1.490 . S
C440 H430 0.930 . S
C440 C439 1.400 . S
C440 C443 1.386 . S
H441 C457 0.930 . S
H442 C458 0.931 . S
C443 H431 0.929 . S
C443 C437 1.390 . S
C443 C440 1.386 . S
C444 C439 1.490 . S
C444 C446 1.395 . S
C444 C447 1.403 . S
H445 C451 0.930 . S
C446 H432 0.930 . S
C446 C444 1.395 . S
C446 C449 1.403 . S
C447 C444 1.403 . S
C447 C448 1.524 . S
C447 C451 1.400 . S
C448 H433 0.960 . S
C448 H434 0.960 . S
C448 H435 0.960 . S
C448 C447 1.524 . S
C449 C446 1.403 . S
C449 C450 1.392 . S
C449 C453 1.495 . S
C450 C449 1.392 . S
C450 C451 1.385 . S
C450 C452 1.478 . S
C451 H445 0.930 . S
C451 C447 1.400 . S
C451 C450 1.385 . S
C452 C450 1.478 . S
C452 C454 1.381 . S
C452 C458 1.383 . S
C453 C449 1.495 . S
C453 H459 0.959 . S
C453 H460 0.961 . S
C453 H461 0.960 . S
C454 C452 1.381 . S
C454 C455 1.394 . S
C454 H462 0.930 . S
C455 C454 1.394 . S
C455 C456 1.383 . S
C455 H463 0.929 . S
C456 C455 1.383 . S
C456 C457 1.377 . S
C457 H441 0.930 . S
C457 C456 1.377 . S
C457 C458 1.379 . S
C458 H442 0.931 . S
C458 C452 1.383 . S
C458 C457 1.379 . S
H459 C453 0.959 . S
H460 C453 0.961 . S
H461 C453 0.960 . S
H462 C454 0.930 . S
H463 C455 0.929 . S
H464 C472 0.929 . S
H465 C474 0.930 . S
H466 C476 0.930 . S
H467 C479 0.929 . S
H468 C482 0.930 . S
H469 C484 0.960 . S
H470 C484 0.960 . S
H471 C484 0.960 . S
C472 H464 0.929 . S
C472 C473 1.377 . S
C472 C474 1.384 . S
C473 C472 1.377 . S
C473 C479 1.390 . S
C474 H465 0.930 . S
C474 C472 1.384 . S
C474 C475 1.372 . S
C475 C474 1.372 . S
C475 C476 1.400 . S
C475 C480 1.490 . S
C476 H466 0.930 . S
C476 C475 1.400 . S
C476 C479 1.386 . S
H477 C493 0.930 . S
H478 C494 0.931 . S
C479 H467 0.929 . S
C479 C473 1.390 . S
C479 C476 1.386 . S
C480 C475 1.490 . S
C480 C482 1.395 . S
C480 C483 1.403 . S
H481 C487 0.930 . S
C482 H468 0.930 . S
C482 C480 1.395 . S
C482 C485 1.403 . S
C483 C480 1.403 . S
C483 C484 1.524 . S
C483 C487 1.400 . S
C484 H469 0.960 . S
C484 H470 0.960 . S
C484 H471 0.960 . S
C484 C483 1.524 . S
C485 C482 1.403 . S
C485 C486 1.392 . S
C485 C489 1.495 . S
C486 C485 1.392 . S
C486 C487 1.385 . S
C486 C488 1.478 . S
C487 H481 0.930 . S
C487 C483 1.400 . S
C487 C486 1.385 . S
C488 C486 1.478 . S
C488 C490 1.381 . S
C488 C494 1.383 . S
C489 C485 1.495 . S
C489 H495 0.959 . S
C489 H496 0.961 . S
C489 H497 0.960 . S
C490 C488 1.381 . S
C490 C491 1.394 . S
C490 H498 0.930 . S
C491 C490 1.394 . S
C491 C492 1.383 . S
C491 H499 0.929 . S
C492 C491 1.383 . S
C492 C493 1.377 . S
C493 H477 0.930 . S
C493 C492 1.377 . S
C493 C494 1.379 . S
C494 H478 0.931 . S
C494 C488 1.383 . S
C494 C493 1.379 . S
H495 C489 0.959 . S
H496 C489 0.961 . S
H497 C489 0.960 . S
H498 C490 0.930 . S
H499 C491 0.929 . S
H500 C508 0.929 . S
H501 C510 0.930 . S
H502 C512 0.930 . S
H503 C515 0.929 . S
H504 C518 0.930 . S
H505 C520 0.960 . S
H506 C520 0.960 . S
H507 C520 0.960 . S
C508 H500 0.929 . S
C508 C509 1.377 . S
C508 C510 1.384 . S
C509 C508 1.377 . S
C509 C515 1.390 . S
C510 H501 0.930 . S
C510 C508 1.384 . S
C510 C511 1.372 . S
C511 C510 1.372 . S
C511 C512 1.400 . S
C511 C516 1.490 . S
C512 H502 0.930 . S
C512 C511 1.400 . S
C512 C515 1.386 . S
H513 C529 0.930 . S
H514 C530 0.931 . S
C515 H503 0.929 . S
C515 C509 1.390 . S
C515 C512 1.386 . S
C516 C511 1.490 . S
C516 C518 1.395 . S
C516 C519 1.403 . S
H517 C523 0.930 . S
C518 H504 0.930 . S
C518 C516 1.395 . S
C518 C521 1.403 . S
C519 C516 1.403 . S
C519 C520 1.524 . S
C519 C523 1.400 . S
C520 H505 0.960 . S
C520 H506 0.960 . S
C520 H507 0.960 . S
C520 C519 1.524 . S
C521 C518 1.403 . S
C521 C522 1.392 . S
C521 C525 1.495 . S
C522 C521 1.392 . S
C522 C523 1.385 . S
C522 C524 1.478 . S
C523 H517 0.930 . S
C523 C519 1.400 . S
C523 C522 1.385 . S
C524 C522 1.478 . S
C524 C526 1.381 . S
C524 C530 1.383 . S
C525 C521 1.495 . S
C525 H531 0.959 . S
C525 H532 0.961 . S
C525 H533 0.960 . S
C526 C524 1.381 . S
C526 C527 1.394 . S
C526 H534 0.930 . S
C527 C526 1.394 . S
C527 C528 1.383 . S
C527 H535 0.929 . S
C528 C527 1.383 . S
C528 C529 1.377 . S
C529 H513 0.930 . S
C529 C528 1.377 . S
C529 C530 1.379 . S
C530 H514 0.931 . S
C530 C524 1.383 . S
C530 C529 1.379 . S
H531 C525 0.959 . S
H532 C525 0.961 . S
H533 C525 0.960 . S
H534 C526 0.930 . S
H535 C527 0.929 . S
H536 C544 0.929 . S
H537 C546 0.930 . S
H538 C548 0.930 . S
H539 C551 0.929 . S
H540 C554 0.930 . S
H541 C556 0.960 . S
H542 C556 0.960 . S
H543 C556 0.960 . S
C544 H536 0.929 . S
C544 C545 1.377 . S
C544 C546 1.384 . S
C545 C544 1.377 . S
C545 C551 1.390 . S
C546 H537 0.930 . S
C546 C544 1.384 . S
C546 C547 1.372 . S
C547 C546 1.372 . S
C547 C548 1.400 . S
C547 C552 1.490 . S
C548 H538 0.930 . S
C548 C547 1.400 . S
C548 C551 1.386 . S
H549 C565 0.930 . S
H550 C566 0.931 . S
C551 H539 0.929 . S
C551 C545 1.390 . S
C551 C548 1.386 . S
C552 C547 1.490 . S
C552 C554 1.395 . S
C552 C555 1.403 . S
H553 C559 0.930 . S
C554 H540 0.930 . S
C554 C552 1.395 . S
C554 C557 1.403 . S
C555 C552 1.403 . S
C555 C556 1.524 . S
C555 C559 1.400 . S
C556 H541 0.960 . S
C556 H542 0.960 . S
C556 H543 0.960 . S
C556 C555 1.524 . S
C557 C554 1.403 . S
C557 C558 1.392 . S
C557 C561 1.495 . S
C558 C557 1.392 . S
C558 C559 1.385 . S
C558 C560 1.478 . S
C559 H553 0.930 . S
C559 C555 1.400 . S
C559 C558 1.385 . S
C560 C558 1.478 . S
C560 C562 1.381 . S
C560 C566 1.383 . S
C561 C557 1.495 . S
C561 H567 0.959 . S
C561 H568 0.961 . S
C561 H569 0.960 . S
C562 C560 1.381 . S
C562 C563 1.394 . S
C562 H570 0.930 . S
C563 C562 1.394 . S
C563 C564 1.383 . S
C563 H571 0.929 . S
C564 C563 1.383 . S
C564 C565 1.377 . S
C565 H549 0.930 . S
C565 C564 1.377 . S
C565 C566 1.379 . S
C566 H550 0.931 . S
C566 C560 1.383 . S
C566 C565 1.379 . S
H567 C561 0.959 . S
H568 C561 0.961 . S
H569 C561 0.960 . S
H570 C562 0.930 . S
H571 C563 0.929 . S
H572 C580 0.929 . S
H573 C582 0.930 . S
H574 C584 0.930 . S
H575 C587 0.929 . S
H576 C590 0.930 . S
H577 C592 0.960 . S
H578 C592 0.960 . S
H579 C592 0.960 . S
C580 H572 0.929 . S
C580 C581 1.377 . S
C580 C582 1.384 . S
C581 C580 1.377 . S
C581 C587 1.390 . S
C582 H573 0.930 . S
C582 C580 1.384 . S
C582 C583 1.372 . S
C583 C582 1.372 . S
C583 C584 1.400 . S
C583 C588 1.490 . S
C584 H574 0.930 . S
C584 C583 1.400 . S
C584 C587 1.386 . S
H585 C601 0.930 . S
H586 C602 0.931 . S
C587 H575 0.929 . S
C587 C581 1.390 . S
C587 C584 1.386 . S
C588 C583 1.490 . S
C588 C590 1.395 . S
C588 C591 1.403 . S
H589 C595 0.930 . S
C590 H576 0.930 . S
C590 C588 1.395 . S
C590 C593 1.403 . S
C591 C588 1.403 . S
C591 C592 1.524 . S
C591 C595 1.400 . S
C592 H577 0.960 . S
C592 H578 0.960 . S
C592 H579 0.960 . S
C592 C591 1.524 . S
C593 C590 1.403 . S
C593 C594 1.392 . S
C593 C597 1.495 . S
C594 C593 1.392 . S
C594 C595 1.385 . S
C594 C596 1.478 . S
C595 H589 0.930 . S
C595 C591 1.400 . S
C595 C594 1.385 . S
C596 C594 1.478 . S
C596 C598 1.381 . S
C596 C602 1.383 . S
C597 C593 1.495 . S
C597 H603 0.959 . S
C597 H604 0.961 . S
C597 H605 0.960 . S
C598 C596 1.381 . S
C598 C599 1.394 . S
C598 H606 0.930 . S
C599 C598 1.394 . S
C599 C600 1.383 . S
C599 H607 0.929 . S
C600 C599 1.383 . S
C600 C601 1.377 . S
C601 H585 0.930 . S
C601 C600 1.377 . S
C601 C602 1.379 . S
C602 H586 0.931 . S
C602 C596 1.383 . S
C602 C601 1.379 . S
H603 C597 0.959 . S
H604 C597 0.961 . S
H605 C597 0.960 . S
H606 C598 0.930 . S
H607 C599 0.929 . S
H608 C616 0.929 . S
H609 C618 0.930 . S
H610 C620 0.930 . S
H611 C623 0.929 . S
H612 C626 0.930 . S
H613 C628 0.960 1_556 S
H614 C628 0.960 . S
H615 C628 0.960 . S
C616 H608 0.929 . S
C616 C617 1.377 . S
C616 C618 1.384 . S
C617 C616 1.377 . S
C617 C623 1.390 . S
C618 H609 0.930 . S
C618 C616 1.384 . S
C618 C619 1.372 . S
C619 C618 1.372 . S
C619 C620 1.400 . S
C619 C624 1.490 . S
C620 H610 0.930 . S
C620 C619 1.400 . S
C620 C623 1.386 . S
H621 C637 0.930 . S
H622 C638 0.931 . S
C623 H611 0.929 . S
C623 C617 1.390 . S
C623 C620 1.386 . S
C624 C619 1.490 . S
C624 C626 1.395 . S
C624 C627 1.403 . S
H625 C631 0.930 . S
C626 H612 0.930 . S
C626 C624 1.395 . S
C626 C629 1.403 1_554 S
C627 C624 1.403 . S
C627 C628 1.524 . S
C627 C631 1.400 1_554 S
C628 H613 0.960 1_554 S
C628 H614 0.960 . S
C628 H615 0.960 . S
C628 C627 1.524 . S
C629 C626 1.403 1_556 S
C629 C630 1.392 . S
C629 C633 1.495 . S
C630 C629 1.392 . S
C630 C631 1.385 . S
C630 C632 1.478 . S
C631 H625 0.930 . S
C631 C627 1.400 1_556 S
C631 C630 1.385 . S
C632 C630 1.478 . S
C632 C634 1.381 . S
C632 C638 1.383 . S
C633 C629 1.495 . S
C633 H639 0.959 1_556 S
C633 H640 0.961 . S
C633 H641 0.960 . S
C634 C632 1.381 . S
C634 C635 1.394 . S
C634 H642 0.930 . S
C635 C634 1.394 . S
C635 C636 1.383 . S
C635 H643 0.929 . S
C636 C635 1.383 . S
C636 C637 1.377 . S
C637 H621 0.930 . S
C637 C636 1.377 . S
C637 C638 1.379 . S
C638 H622 0.931 . S
C638 C632 1.383 . S
C638 C637 1.379 . S
H639 C633 0.959 1_554 S
H640 C633 0.961 . S
H641 C633 0.960 . S
H642 C634 0.930 . S
H643 C635 0.929 . S
H644 C652 0.929 . S
H645 C654 0.930 . S
H646 C656 0.930 . S
H647 C659 0.929 . S
H648 C662 0.930 . S
H649 C664 0.960 . S
H650 C664 0.960 1_554 S
H651 C664 0.960 . S
C652 H644 0.929 . S
C652 C653 1.377 . S
C652 C654 1.384 . S
C653 C652 1.377 . S
C653 C659 1.390 . S
C654 H645 0.930 . S
C654 C652 1.384 . S
C654 C655 1.372 . S
C655 C654 1.372 . S
C655 C656 1.400 . S
C655 C660 1.490 . S
C656 H646 0.930 . S
C656 C655 1.400 . S
C656 C659 1.386 . S
H657 C673 0.930 . S
H658 C674 0.931 . S
C659 H647 0.929 . S
C659 C653 1.390 . S
C659 C656 1.386 . S
C660 C655 1.490 . S
C660 C662 1.395 . S
C660 C663 1.403 1_554 S
H661 C667 0.930 . S
C662 H648 0.930 . S
C662 C660 1.395 . S
C662 C665 1.403 . S
C663 C660 1.403 1_556 S
C663 C664 1.524 . S
C663 C667 1.400 . S
C664 H649 0.960 . S
C664 H650 0.960 1_556 S
C664 H651 0.960 . S
C664 C663 1.524 . S
C665 C662 1.403 . S
C665 C666 1.392 1_554 S
C665 C669 1.495 . S
C666 C665 1.392 1_556 S
C666 C667 1.385 . S
C666 C668 1.478 . S
C667 H661 0.930 . S
C667 C663 1.400 . S
C667 C666 1.385 . S
C668 C666 1.478 . S
C668 C670 1.381 . S
C668 C674 1.383 . S
C669 C665 1.495 . S
C669 H675 0.959 . S
C669 H676 0.961 1_554 S
C669 H677 0.960 . S
C670 C668 1.381 . S
C670 C671 1.394 . S
C670 H678 0.930 . S
C671 C670 1.394 . S
C671 C672 1.383 . S
C671 H679 0.929 . S
C672 C671 1.383 . S
C672 C673 1.377 . S
C673 H657 0.930 . S
C673 C672 1.377 . S
C673 C674 1.379 . S
C674 H658 0.931 . S
C674 C668 1.383 . S
C674 C673 1.379 . S
H675 C669 0.959 . S
H676 C669 0.961 1_556 S
H677 C669 0.960 . S
H678 C670 0.930 . S
H679 C671 0.929 . S
C113 C5 1.545 . S
C132 C29 1.536 . S
C149 C44 1.545 . S
C168 C18 1.534 . S
C185 C81 1.544 . S
C204 C55 1.530 . S
C221 C70 1.541 . S
C240 C94 1.531 . S
C257 C82 1.759 . S
C276 C10 1.753 . S
C293 C23 1.753 . S
C312 C95 1.752 . S
C329 C30 1.756 . S
C348 C56 1.768 . S
C365 C49 1.759 . S
C384 C75 1.757 . S
C401 C88 1.585 . S
C420 C4 1.584 . S
C437 C17 1.584 . S
C456 C101 1.577 . S
C473 C62 1.586 . S
C492 C36 1.584 . S
C509 C69 1.584 . S
C528 C43 1.577 . S
C545 C16 0.362 . S
C564 C3 0.422 . S
C581 C31 0.326 . S
C600 C42 0.435 . S
C617 C68 0.351 . S
C636 C57 0.444 . S
C653 C83 0.327 . S
C672 C96 0.425 . S
