# Generated by pormake.
# Topology whb, (6)-cn, num edge types: 1
# Building blocks:
#     Node 0, Type 0, BuildingBlock: KUMBUR_clean_sbu_1, # of connection points: 6
#     Node 1, Type 0, BuildingBlock: KUMBUR_clean_sbu_1, # of connection points: 6
#     Node 2, Type 0, BuildingBlock: KUMBUR_clean_sbu_1, # of connection points: 6
#     Node 3, Type 0, BuildingBlock: KUMBUR_clean_sbu_1, # of connection points: 6
#     Node 4, Type 0, BuildingBlock: KUMBUR_clean_sbu_1, # of connection points: 6
#     Node 5, Type 0, BuildingBlock: KUMBUR_clean_sbu_1, # of connection points: 6
#     Node 6, Type 0, BuildingBlock: KUMBUR_clean_sbu_1, # of connection points: 6
#     Node 7, Type 0, BuildingBlock: KUMBUR_clean_sbu_1, # of connection points: 6
#     Edge 8, Type (0, 0), BuildingBlock: UVAHIK_clean_linker_0, # of connection points: 2
#     Edge 9, Type (0, 0), BuildingBlock: UVAHIK_clean_linker_0, # of connection points: 2
#     Edge 10, Type (0, 0), BuildingBlock: UVAHIK_clean_linker_0, # of connection points: 2
#     Edge 11, Type (0, 0), BuildingBlock: UVAHIK_clean_linker_0, # of connection points: 2
#     Edge 12, Type (0, 0), BuildingBlock: UVAHIK_clean_linker_0, # of connection points: 2
#     Edge 13, Type (0, 0), BuildingBlock: UVAHIK_clean_linker_0, # of connection points: 2
#     Edge 14, Type (0, 0), BuildingBlock: UVAHIK_clean_linker_0, # of connection points: 2
#     Edge 15, Type (0, 0), BuildingBlock: UVAHIK_clean_linker_0, # of connection points: 2
#     Edge 16, Type (0, 0), BuildingBlock: UVAHIK_clean_linker_0, # of connection points: 2
#     Edge 17, Type (0, 0), BuildingBlock: UVAHIK_clean_linker_0, # of connection points: 2
#     Edge 18, Type (0, 0), BuildingBlock: UVAHIK_clean_linker_0, # of connection points: 2
#     Edge 19, Type (0, 0), BuildingBlock: UVAHIK_clean_linker_0, # of connection points: 2
#     Edge 20, Type (0, 0), BuildingBlock: UVAHIK_clean_linker_0, # of connection points: 2
#     Edge 21, Type (0, 0), BuildingBlock: UVAHIK_clean_linker_0, # of connection points: 2
#     Edge 22, Type (0, 0), BuildingBlock: UVAHIK_clean_linker_0, # of connection points: 2
#     Edge 23, Type (0, 0), BuildingBlock: UVAHIK_clean_linker_0, # of connection points: 2
#     Edge 24, Type (0, 0), BuildingBlock: UVAHIK_clean_linker_0, # of connection points: 2
#     Edge 25, Type (0, 0), BuildingBlock: UVAHIK_clean_linker_0, # of connection points: 2
#     Edge 26, Type (0, 0), BuildingBlock: UVAHIK_clean_linker_0, # of connection points: 2
#     Edge 27, Type (0, 0), BuildingBlock: UVAHIK_clean_linker_0, # of connection points: 2
#     Edge 28, Type (0, 0), BuildingBlock: UVAHIK_clean_linker_0, # of connection points: 2
#     Edge 29, Type (0, 0), BuildingBlock: UVAHIK_clean_linker_0, # of connection points: 2
#     Edge 30, Type (0, 0), BuildingBlock: UVAHIK_clean_linker_0, # of connection points: 2
#     Edge 31, Type (0, 0), BuildingBlock: UVAHIK_clean_linker_0, # of connection points: 2
# Relax obj value: 0.510
# Max RMSD: 0.309
# Mean RMSD: 0.259
data_MOF--net-whb--node1-KUMBUR_clean_sbu_1--edge1-UVAHIK_clean_linker_0
_symmetry_space_group_name_H-M    P1
_symmetry_Int_Tables_number       1
_symmetry_cell_setting            triclinic
loop_
_symmetry_equiv_pos_as_xyz
'x, y, z'
_cell_length_a     40.255793
_cell_length_b     40.180182
_cell_length_c     53.672874
_cell_angle_alpha  103.13758
_cell_angle_beta   89.44765
_cell_angle_gamma 102.1963
loop_
_atom_site_label
_atom_site_type_symbol
_atom_site_fract_x
_atom_site_fract_y
_atom_site_fract_z
_atom_type_partial_charge
Tb0 Tb 0.11561 0.34058 0.07717 0.0
C1 C 0.15649 0.33852 0.19229 0.0
N2 N 0.15116 0.31115 0.17165 0.0
C3 C 0.19727 0.29017 0.18626 0.0
C4 C 0.18343 0.34377 0.21029 0.0
C5 C 0.16973 0.28584 0.16926 0.0
C6 C 0.20455 0.31964 0.20663 0.0
C7 C 0.13503 0.3858 0.2191 0.0
C8 C 0.13276 0.35915 0.1966 0.0
C9 C 0.16303 0.39277 0.23635 0.0
C10 C 0.18724 0.37178 0.23193 0.0
Tb11 Tb 0.10655 0.30697 0.1443 0.0
N12 N 0.10593 0.35113 0.17968 0.0
C13 C 0.10855 0.40377 0.22393 0.0
C14 C 0.07906 0.36716 0.18502 0.0
C15 C 0.08026 0.39413 0.20693 0.0
H16 H 0.16376 0.26278 0.15373 0.0
H17 H 0.05935 0.4074 0.21072 0.0
H18 H 1.04042 0.29552 0.05001 0.0
H19 H 0.23977 0.3545 0.03643 0.0
H20 H 0.05692 0.35958 0.17214 0.0
H21 H 0.10936 0.42456 0.24093 0.0
H22 H 0.1951 0.37382 0.06461 0.0
H23 H 0.21264 0.27066 0.18378 0.0
H24 H 0.16556 0.41351 0.25356 0.0
H25 H 0.20802 0.37656 0.24586 0.0
H26 H 1.01918 0.24648 0.01327 0.0
H27 H 0.22559 0.32271 0.22 0.0
H28 H 0.22601 0.2984 0.00393 0.0
N29 N 0.09271 0.29616 0.04291 0.0
C30 C 0.11515 0.28226 0.02703 0.0
C31 C 0.04628 0.25622 0.01697 0.0
C32 C 0.10417 0.25382 0.00597 0.0
C33 C 0.05849 0.28421 0.03776 0.0
C34 C 0.06922 0.24061 0.0012 0.0
N35 N 0.15774 0.32745 0.05005 0.0
C36 C 0.18929 0.34878 0.05103 0.0
C37 C 0.17324 0.28661 0.0139 0.0
C38 C 0.14906 0.29827 0.03097 0.0
C39 C 0.20662 0.30642 0.01663 0.0
C40 C 0.21447 0.33811 0.03492 0.0
H41 H 0.05971 0.21886 0.98517 0.0
H42 H 0.1205 0.21808 0.97397 0.0
H43 H 0.18116 0.24699 0.98085 0.0
O44 O 0.12012 0.36695 0.0472 0.0
O45 O 0.09059 0.29044 0.08479 0.0
O46 O 0.12143 0.27166 0.11124 0.0
O47 O 0.09696 0.38669 0.08206 0.0
O48 O 0.16523 0.34214 0.09653 0.0
O49 O 0.15821 0.30896 0.12789 0.0
O50 O 0.07142 0.25846 0.13623 0.0
O51 O 0.10238 0.35652 0.13628 0.0
O52 O 0.14202 0.37721 0.11096 0.0
O53 O 0.08776 0.28506 0.17496 0.0
O54 O 0.05785 0.31536 0.12964 0.0
O55 O 0.06255 0.3343 0.09105 0.0
C56 C 0.10844 0.26819 0.0884 0.0
C57 C 0.07878 0.39968 0.04439 0.0
C58 C 0.06082 0.44138 0.02345 0.0
C59 C 1.02994 0.41714 0.0157 0.0
C60 C 0.04796 0.37589 0.03638 0.0
C61 C 1.02363 0.38465 0.02217 0.0
C62 C 0.08513 0.43233 0.03791 0.0
C63 C 0.17739 0.3259 0.11234 0.0
C64 C 0.10483 0.39093 0.05926 0.0
C65 C 0.12836 0.24035 0.98996 0.0
C66 C 0.1629 0.25674 -0.00607 0.0
C67 C 0.12896 0.3801 0.13348 0.0
C68 C 0.07527 0.22394 0.16625 0.0
C69 C 0.06442 0.18356 0.1949 0.0
C70 C 0.08742 0.16494 0.18122 0.0
C71 C 0.09795 0.20491 0.1529 0.0
C72 C 0.05837 0.213 0.18698 0.0
C73 C 0.10382 0.17547 0.16033 0.0
C74 C 1.04454 0.32481 0.11029 0.0
C75 C 0.07053 0.2566 0.16016 0.0
H76 H 1.01049 0.42341 0.00487 0.0
H77 H 1.04277 0.35063 0.04109 0.0
H78 H 0.99978 0.36621 0.01614 0.0
H79 H 0.10927 0.45043 0.04381 0.0
H80 H 0.09335 0.14262 0.18692 0.0
H81 H 0.11143 0.21305 0.13699 0.0
H82 H 1.04061 0.2277 0.19696 0.0
H83 H 0.12157 0.16103 0.1501 0.0
Tb84 Tb 0.40722 0.16345 0.59188 0.0
C85 C 0.27889 0.07486 0.52818 0.0
N86 N 0.31173 0.07496 0.52231 0.0
C87 C 0.29789 1.01223 0.50869 0.0
C88 C 0.25443 0.04335 0.52558 0.0
C89 C 0.32089 0.0443 0.511 0.0
C90 C 0.26465 1.01171 0.51655 0.0
C91 C 0.23466 0.10784 0.53719 0.0
C92 C 0.26919 0.10648 0.53402 0.0
C93 C 0.21041 0.07677 0.53631 0.0
C94 C 0.22032 0.04453 0.53063 0.0
Tb95 Tb 0.34841 0.12871 0.52945 0.0
N96 N 0.29334 0.13569 0.53422 0.0
C97 C 0.22541 0.14009 0.53981 0.0
C98 C 0.2841 0.16681 0.53501 0.0
C99 C 0.25018 0.16959 0.53824 0.0
H100 H 0.34606 0.04459 0.50375 0.0
H101 H 0.24313 0.1944 0.5393 0.0
H102 H 0.37234 0.12627 0.63809 0.0
H103 H 0.47882 0.29413 0.59572 0.0
H104 H 0.30289 0.1896 0.53341 0.0
H105 H 0.19909 0.14221 0.54202 0.0
H106 H 0.4586 0.2309 0.57664 0.0
H107 H 0.30567 0.988 0.50047 0.0
H108 H 0.18379 0.07727 0.53901 0.0
H109 H 0.20119 1.02063 0.52901 0.0
H110 H 0.35414 0.14591 0.68208 0.0
H111 H 0.2467 0.9869 0.51432 0.0
H112 H 0.46006 0.32016 0.63845 0.0
N113 N 0.3914 0.17799 0.63329 0.0
C114 C 0.39924 0.21257 0.64483 0.0
C115 C 0.36654 0.16497 0.67172 0.0
C116 C 0.39022 0.22494 0.67014 0.0
C117 C 0.37659 0.15398 0.6467 0.0
C118 C 0.37297 0.20066 0.68339 0.0
N119 N 0.42789 0.22177 0.60786 0.0
C120 C 0.45024 0.24212 0.59523 0.0
C121 C 0.42957 0.27101 0.6435 0.0
C122 C 0.41856 0.23525 0.63176 0.0
C123 C 0.45104 0.29249 0.63013 0.0
C124 C 0.46172 0.27788 0.606 0.0
H125 H 0.36552 0.20907 0.70288 0.0
H126 H 0.39283 0.27097 0.701 0.0
H127 H 0.42733 0.31135 0.67764 0.0
O128 O 0.44786 0.13896 0.58029 0.0
O129 O 0.38403 0.20554 0.58275 0.0
O130 O 0.36293 0.18729 0.54047 0.0
O131 O 0.44623 0.16783 0.61897 0.0
O132 O 0.4244 0.171 0.554 0.0
O133 O 0.3999 0.11935 0.52826 0.0
O134 O 0.33269 0.10756 0.49091 0.0
O135 O 0.37224 0.08867 0.54177 0.0
O136 O 0.38169 0.1068 0.58572 0.0
O137 O 0.36794 0.157 0.50196 0.0
O138 O 0.3273 0.15034 0.56608 0.0
O139 O 0.35635 0.13415 0.5959 0.0
C140 C 0.3714 0.21195 0.56194 0.0
C141 C 0.46993 0.11798 0.61293 0.0
C142 C 0.49308 0.09882 0.64765 0.0
C143 C 0.48761 0.06461 0.63241 0.0
C144 C 0.46424 0.08353 0.5979 0.0
C145 C 0.47307 0.05703 0.60768 0.0
C146 C 0.48432 0.12533 0.63775 0.0
C147 C 0.42677 0.14464 0.53494 0.0
C148 C 0.46142 0.14676 0.60325 0.0
C149 C 0.39975 0.26087 0.68162 0.0
C150 C 0.41943 0.28386 0.66833 0.0
C151 C 0.37537 0.08137 0.56451 0.0
C152 C 0.32614 0.15166 0.47018 0.0
C153 C 0.26971 0.16012 0.46078 0.0
C154 C 0.28465 0.18651 0.44838 0.0
C155 C 0.34074 0.17783 0.45754 0.0
C156 C 0.29065 0.14272 0.47139 0.0
C157 C 0.32001 0.19505 0.4466 0.0
C158 C 0.32803 0.13835 0.58669 0.0
C159 C 0.34778 0.13559 0.48376 0.0
H160 H 0.49423 0.04376 0.63974 0.0
H161 H 0.45308 0.07702 0.57866 0.0
H162 H 0.46864 1.03058 0.59606 0.0
H163 H 0.48911 0.15191 0.64933 0.0
H164 H 0.26904 0.20035 0.44 0.0
H165 H 0.36811 0.1853 0.45651 0.0
H166 H 0.27918 0.12297 0.48149 0.0
H167 H 0.3314 0.21538 0.437 0.0
Tb168 Tb 0.6011 0.30294 0.13539 0.0
C169 C 0.67169 0.36851 0.0425 0.0
N170 N 0.66813 0.38224 0.06757 0.0
C171 C 0.7236 0.41959 0.06991 0.0
C172 C 0.70186 0.37878 0.03015 0.0
C173 C 0.69291 0.40867 0.08116 0.0
C174 C 0.72833 0.40415 0.04438 0.0
C175 C 0.64479 0.33368 0.00221 0.0
C176 C 0.64375 0.34647 0.02884 0.0
C177 C 0.6754 0.34193 0.98989 0.0
C178 C 0.70395 0.3645 0.00386 0.0
Tb179 Tb 0.6183 0.3611 0.0849 0.0
N180 N 0.61461 0.34027 0.04142 0.0
C181 C 0.61467 0.31442 0.98871 0.0
C182 C 0.58467 0.32374 0.02812 0.0
C183 C 0.58434 0.30995 0.00168 0.0
H184 H 0.68929 0.42068 0.10087 0.0
H185 H 0.5607 0.29602 -0.00868 0.0
H186 H 0.55357 0.34167 0.17842 0.0
H187 H 0.6884 0.22212 0.14661 0.0
H188 H 0.5611 0.32049 0.03802 0.0
H189 H 0.61431 0.30405 0.96821 0.0
H190 H 0.64685 0.24262 0.12328 0.0
H191 H 0.74353 0.43989 0.0809 0.0
H192 H 0.6769 0.33206 0.96946 0.0
H193 H 0.72704 0.37169 -0.00599 0.0
H194 H 0.55513 0.36399 0.22533 0.0
H195 H 0.752 0.41281 0.03564 0.0
H196 H 0.70067 0.2474 0.19302 0.0
N197 N 0.59786 0.32085 0.1788 0.0
C198 C 0.6216 0.31405 0.19345 0.0
C199 C 0.57415 0.35012 0.2166 0.0
C200 C 0.62348 0.32594 0.22028 0.0
C201 C 0.57333 0.33743 0.18999 0.0
C202 C 0.59974 0.34492 0.23179 0.0
N203 N 0.63692 0.27983 0.15593 0.0
C204 C 0.65221 0.25379 0.14349 0.0
C205 C 0.66512 0.28158 0.19571 0.0
C206 C 0.642 0.29249 0.18147 0.0
C207 C 0.68265 0.25657 0.18283 0.0
C208 C 0.6757 0.24216 0.15665 0.0
H209 H 0.60026 0.35462 0.25237 0.0
H210 H 0.6502 0.32638 0.25529 0.0
H211 H 0.68674 0.28728 0.2337 0.0
O212 O 0.57028 0.25995 0.14666 0.0
O213 O 0.60329 0.35888 0.14627 0.0
O214 O 0.64456 0.38274 0.12277 0.0
O215 O 0.56092 0.27138 0.11052 0.0
O216 O 0.6569 0.3149 0.12718 0.0
O217 O 0.66649 0.34746 0.09556 0.0
O218 O 0.59602 0.40099 0.10624 0.0
O219 O 0.59557 0.30494 0.07285 0.0
O220 O 0.62284 0.28205 0.09944 0.0
O221 O 0.60758 0.39881 0.06662 0.0
O222 O 0.56504 0.33362 0.08876 0.0
O223 O 0.5647 0.33634 0.13165 0.0
C224 C 0.63171 0.38109 0.14511 0.0
C225 C 0.5506 0.21178 0.11123 0.0
C226 C 0.554 0.15218 0.11209 0.0
C227 C 0.54727 0.14168 0.08556 0.0
C228 C 0.54253 0.20056 0.08476 0.0
C229 C 0.54121 0.1658 0.07203 0.0
C230 C 0.5558 0.18722 0.12475 0.0
C231 C 0.67748 0.33103 0.11177 0.0
C232 C 0.55345 0.24883 0.12464 0.0
C233 C 0.64799 0.31718 0.23465 0.0
C234 C 0.66879 0.29493 0.22236 0.0
C235 C 0.6112 0.28082 0.07652 0.0
C236 C 0.61379 0.45479 0.09348 0.0
C237 C 0.62375 0.51064 0.08068 0.0
C238 C 0.64528 0.52602 0.1026 0.0
C239 C 0.63556 0.47059 0.11515 0.0
C240 C 0.60794 0.47495 0.07642 0.0
C241 C 0.65106 0.50607 0.11967 0.0
C242 C 0.54836 0.3357 0.11022 0.0
C243 C 0.59798 0.41714 0.08757 0.0
H244 H 0.54615 0.11483 0.07547 0.0
H245 H 0.53746 0.21867 0.07386 0.0
H246 H 0.53541 0.15757 0.05163 0.0
H247 H 0.56178 0.19541 0.14518 0.0
H248 H 0.65815 0.5533 0.10631 0.0
H249 H 0.64082 0.45556 0.12846 0.0
H250 H 0.59099 0.46272 0.05977 0.0
H251 H 0.66791 0.51809 0.13636 0.0
Tb252 Tb 0.33774 0.63175 0.54582 0.0
C253 C 0.30753 0.68096 0.66428 0.0
N254 N 0.30782 0.64979 0.64818 0.0
C255 C 0.33609 0.63288 0.68097 0.0
C256 C 0.32269 0.69012 0.68911 0.0
C257 C 0.32047 0.62506 0.65652 0.0
C258 C 0.33781 0.66584 0.69718 0.0
C259 C 0.28464 0.73318 0.67329 0.0
C260 C 0.28897 0.70204 0.65655 0.0
C261 C 0.30161 0.7439 0.69749 0.0
C262 C 0.32069 0.72237 0.70539 0.0
Tb263 Tb 0.28506 0.64101 0.60766 0.0
N264 N 0.27251 0.69014 0.63337 0.0
C265 C 0.26219 0.75158 0.6656 0.0
C266 C 0.24874 0.70652 0.62651 0.0
C267 C 0.24368 0.73781 0.64228 0.0
H268 H 0.31924 0.59952 0.64416 0.0
H269 H 0.22554 0.75127 0.63646 0.0
H270 H 0.39471 0.70544 0.54919 0.0
H271 H 0.2752 0.53587 0.46327 0.0
H272 H 0.23458 0.69597 0.60845 0.0
H273 H 0.25807 0.77566 0.67788 0.0
H274 H 0.29761 0.55684 0.50793 0.0
H275 H 0.34685 0.61352 0.68727 0.0
H276 H 0.29906 0.76802 0.71056 0.0
H277 H 0.3326 0.73021 0.72444 0.0
H278 H 0.41437 0.74657 0.52151 0.0
H279 H 0.3497 0.67176 0.71615 0.0
H280 H 0.28492 0.57577 0.43366 0.0
N281 N 0.35918 0.67032 0.52117 0.0
C282 C 0.34667 0.66241 0.49673 0.0
C283 C 0.39523 0.723 0.51429 0.0
C284 C 0.35706 0.68498 0.48018 0.0
C285 C 0.38421 0.69953 0.52986 0.0
C286 C 0.38121 0.71596 0.48944 0.0
N287 N 0.31865 0.60865 0.50414 0.0
C288 C 0.30187 0.57464 0.49534 0.0
C289 C 0.31359 0.61936 0.46207 0.0
C290 C 0.32546 0.63026 0.48787 0.0
C291 C 0.29457 0.58522 0.45334 0.0
C292 C 0.28913 0.5626 0.46997 0.0
H293 H 0.38987 0.73408 0.47737 0.0
H294 H 0.35129 0.69232 0.44178 0.0
H295 H 0.31306 0.6347 0.42589 0.0
O296 O 0.36753 0.60523 0.56264 0.0
O297 O 0.28187 0.61462 0.54007 0.0
O298 O 0.26488 0.65267 0.57371 0.0
O299 O 0.38012 0.61725 0.52623 0.0
O300 O 0.30595 0.58298 0.55399 0.0
O301 O 0.30812 0.59376 0.59763 0.0
O302 O 0.24518 0.62432 0.6305 0.0
O303 O 0.3373 0.6351 0.60733 0.0
O304 O 0.36186 0.6685 0.58104 0.0
O305 O 0.24529 0.59906 0.59055 0.0
O306 O 0.30159 0.69364 0.59722 0.0
O307 O 0.32938 0.68622 0.55846 0.0
C308 C 0.25921 0.63225 0.55066 0.0
C309 C 0.42487 0.61643 0.55436 0.0
C310 C 0.47729 0.60093 0.56537 0.0
C311 C 0.49089 0.63643 0.57653 0.0
C312 C 0.43878 0.6517 0.56553 0.0
C313 C 0.47164 0.6616 0.57662 0.0
C314 C 0.44399 0.59121 0.55456 0.0
C315 C 0.3075 0.57147 0.57512 0.0
C316 C 0.3894 0.60478 0.54481 0.0
C317 C 0.34395 0.67521 0.45477 0.0
C318 C 0.32219 0.64241 0.44572 0.0
C319 C 0.36114 0.66057 0.60341 0.0
C320 C 0.19135 0.60238 0.60818 0.0
C321 C 0.13844 0.6152 0.62719 0.0
C322 C 0.12104 0.59845 0.60356 0.0
C323 C 0.17325 0.58569 0.58489 0.0
C324 C 0.17382 0.61744 0.62909 0.0
C325 C 0.13844 0.58415 0.58257 0.0
C326 C 0.31686 0.70625 0.57795 0.0
C327 C 0.22781 0.60195 0.61117 0.0
H328 H 0.51666 0.6449 0.58461 0.0
H329 H 0.42417 0.67146 0.56604 0.0
H330 H 0.48227 0.68886 0.58522 0.0
H331 H 0.4327 0.56388 0.5465 0.0
H332 H 0.09383 0.59564 0.6013 0.0
H333 H 0.18592 0.57355 0.5685 0.0
H334 H 0.18786 0.63082 0.64692 0.0
H335 H 0.12474 0.57125 0.56452 0.0
Tb336 Tb 0.57378 0.86209 0.89572 0.0
C337 C 0.56969 0.90809 0.78674 0.0
N338 N 0.59366 0.90173 0.80143 0.0
C339 C 0.61774 0.87281 0.7637 0.0
C340 C 0.56783 0.89606 0.75992 0.0
C341 C 0.61847 0.88557 0.79029 0.0
C342 C 0.59188 0.87747 0.74846 0.0
C343 C 0.52571 0.93996 0.78435 0.0
C344 C 0.54905 0.92943 0.79865 0.0
C345 C 0.52201 0.92638 0.75773 0.0
C346 C 0.54305 0.90435 0.7455 0.0
Tb347 Tb 0.59036 0.91975 0.84481 0.0
N348 N 0.55417 0.94233 0.82417 0.0
C349 C 0.50803 0.9649 0.79714 0.0
C350 C 0.53876 0.96834 0.8365 0.0
C351 C 0.51506 0.97962 0.82328 0.0
H352 H 0.63839 0.88168 0.80191 0.0
H353 H 0.50227 0.99963 0.83323 0.0
H354 H 0.50285 0.80233 0.8801 0.0
H355 H 0.63193 0.92776 0.98901 0.0
H356 H 0.54417 0.97973 0.85667 0.0
H357 H 0.48985 0.9738 0.78689 0.0
H358 H 0.63122 0.90312 0.94231 0.0
H359 H 0.637 0.85927 0.755 0.0
H360 H 0.50388 0.93371 0.74634 0.0
H361 H 0.54082 0.89498 0.72487 0.0
H362 H 0.44885 0.78304 0.90032 0.0
H363 H 0.5914 0.86769 0.72789 0.0
H364 H 0.57854 0.9196 0.01237 0.0
N365 N 0.52415 0.84091 0.91328 0.0
C366 C 0.52076 0.85471 0.93837 0.0
C367 C 0.4688 0.80342 0.91121 0.0
C368 C 0.49072 0.8444 0.95086 0.0
C369 C 0.49935 0.81439 0.89982 0.0
C370 C 0.46422 0.81892 0.93675 0.0
N371 N 0.57775 0.88312 0.93917 0.0
C372 C 0.60775 0.89982 0.95233 0.0
C373 C 0.54788 0.88974 0.97852 0.0
C374 C 0.54874 0.87687 0.95188 0.0
C375 C 0.57805 0.90916 -0.00813 0.0
C376 C 0.60825 0.9137 0.97877 0.0
H377 H 0.44066 0.81023 0.9456 0.0
H378 H 0.46583 0.85152 0.98711 0.0
H379 H 0.51603 0.89137 0.01142 0.0
O380 O 0.59605 0.82225 0.8743 0.0
O381 O 0.59639 0.9183 0.9075 0.0
O382 O 0.56887 0.94087 0.88082 0.0
O383 O 0.58479 0.82447 0.91397 0.0
O384 O 0.6269 0.88963 0.89156 0.0
O385 O 0.62697 0.8866 0.84862 0.0
O386 O 0.62082 0.96268 0.83328 0.0
O387 O 0.58803 0.86376 0.83406 0.0
O388 O 0.5472 0.84027 0.85804 0.0
O389 O 0.63061 0.95164 0.86949 0.0
O390 O 0.53466 0.90781 0.85333 0.0
O391 O 0.52541 0.87555 0.88515 0.0
C392 C 0.58068 0.94232 0.90374 0.0
C393 C 0.5784 0.76847 0.88709 0.0
C394 C 0.56843 0.71261 0.89989 0.0
C395 C 0.54686 0.69725 0.87799 0.0
C396 C 0.55659 0.75267 0.86544 0.0
C397 C 0.54106 0.7172 0.86093 0.0
C398 C 0.58427 0.7483 0.90415 0.0
C399 C 0.64344 0.88739 0.87004 0.0
C400 C 0.59424 0.80611 0.89296 0.0
C401 C 0.48881 0.85875 0.97715 0.0
C402 C 0.51739 0.88145 0.99098 0.0
C403 C 0.55963 0.84168 0.83555 0.0
C404 C 0.64002 1.01114 0.86858 0.0
C405 C 0.63454 0.07016 0.86772 0.0
C406 C 0.64191 0.08099 0.89416 0.0
C407 C 0.64869 1.02272 0.89494 0.0
C408 C 0.63348 1.03524 0.8551 0.0
C409 C 0.64932 0.05735 0.90764 0.0
C410 C 0.51423 0.89181 0.86889 0.0
C411 C 0.6377 0.97413 0.85528 0.0
H412 H 0.53397 0.66997 0.87429 0.0
H413 H 0.55131 0.7677 0.85213 0.0
H414 H 0.52418 0.70519 0.84426 0.0
H415 H 0.60125 0.76052 0.92078 0.0
H416 H 0.64249 0.10774 0.90423 0.0
H417 H 0.65469 1.00495 0.9058 0.0
H418 H 0.62699 1.02679 0.83475 0.0
H419 H 0.65559 0.06586 0.92797 0.0
Tb420 Tb 0.8976 0.58735 0.37425 0.0
C421 C 0.84006 0.56302 0.48486 0.0
N422 N 0.82703 0.55631 0.46067 0.0
C423 C 0.79063 0.50334 0.46661 0.0
C424 C 0.82984 0.53956 0.50078 0.0
C425 C 0.80131 0.52783 0.45177 0.0
C426 C 0.80531 0.50898 0.49113 0.0
C427 C 0.87368 0.60472 0.51992 0.0
C428 C 0.86141 0.59497 0.49424 0.0
C429 C 0.86533 0.58073 0.5356 0.0
C430 C 0.84338 0.54816 0.52604 0.0
Tb431 Tb 0.84779 0.59634 0.43711 0.0
N432 N 0.86781 0.61758 0.47865 0.0
C433 C 0.89279 0.6387 0.52925 0.0
C434 C 0.88473 0.65138 0.48803 0.0
C435 C 0.89791 0.66229 0.51332 0.0
H436 H 0.78974 0.52355 0.43289 0.0
H437 H 0.91194 0.68888 0.52051 0.0
H438 H 0.86008 0.62668 0.33799 0.0
H439 H 0.95844 0.47814 0.34488 0.0
H440 H 0.88872 0.66981 0.47591 0.0
H441 H 0.90276 0.64728 0.54887 0.0
H442 H 0.94993 0.53395 0.37251 0.0
H443 H 0.77092 0.48032 0.45923 0.0
H444 H 0.87476 0.58754 0.55534 0.0
H445 H 0.83617 0.53036 0.53856 0.0
H446 H 0.82946 0.61051 0.29584 0.0
H447 H 0.79673 0.49022 0.50272 0.0
H448 H 0.92339 0.45172 0.30474 0.0
N449 N 0.87267 0.57699 0.33425 0.0
C450 C 0.87253 0.54543 0.31856 0.0
C451 C 0.84131 0.59182 0.30206 0.0
C452 C 0.85562 0.535 0.2943 0.0
C453 C 0.85866 0.60089 0.32595 0.0
C454 C 0.83914 0.55843 0.28637 0.0
N455 N 0.90997 0.53808 0.34863 0.0
C456 C 0.93473 0.52253 0.35498 0.0
C457 C 0.89603 0.4936 0.30958 0.0
C458 C 0.89216 0.52512 0.32604 0.0
C459 C 0.91956 0.47604 0.31684 0.0
C460 C 0.93949 0.49096 0.33943 0.0
H461 H 0.82575 0.55147 0.26789 0.0
H462 H 0.84384 0.49349 0.25987 0.0
H463 H 0.87954 0.45718 0.27323 0.0
O464 O 0.93553 0.60432 0.35005 0.0
O465 O 0.84544 0.59309 0.37584 0.0
O466 O 0.82286 0.55917 0.40218 0.0
O467 O 0.93791 0.62945 0.39015 0.0
O468 O 0.88219 0.53468 0.38488 0.0
O469 O 0.85763 0.54247 0.42492 0.0
O470 O 0.81426 0.62003 0.4209 0.0
O471 O 0.90359 0.6151 0.44127 0.0
O472 O 0.92008 0.57663 0.40773 0.0
O473 O 0.80773 0.61195 0.45902 0.0
O474 O 0.87724 0.64594 0.42871 0.0
O475 O 0.87369 0.63414 0.38496 0.0
C476 C 0.82244 0.56711 0.37988 0.0
C477 C 0.99044 0.62456 0.37064 0.0
C478 C 1.0412 0.60849 0.34997 0.0
C479 C 0.05974 0.62263 0.37342 0.0
C480 C 1.00968 0.63897 0.39374 0.0
C481 C 1.04399 0.63767 0.39512 0.0
C482 C 1.00644 0.60935 0.34889 0.0
C483 C 0.86881 0.5223 0.40481 0.0
C484 C 0.95415 0.62632 0.36893 0.0
C485 C 0.85712 0.50232 0.27843 0.0
C486 C 0.87741 0.48164 0.28605 0.0
C487 C 0.92599 0.59711 0.43075 0.0
C488 C 0.75874 0.59654 0.4312 0.0
C489 C 0.71067 0.55161 0.43861 0.0
C490 C 0.70016 0.54504 0.41266 0.0
C491 C 0.74666 0.59063 0.40574 0.0
C492 C 0.73983 0.5779 0.44771 0.0
C493 C 0.7177 0.56489 0.39655 0.0
C494 C 0.87477 0.65681 0.40741 0.0
C495 C 0.79325 0.61787 0.43929 0.0
H496 H 0.08655 0.62268 0.37493 0.0
H497 H 0.99825 0.65123 0.41077 0.0
H498 H 0.05852 0.64865 0.41306 0.0
H499 H 0.99169 0.59791 0.33108 0.0
H500 H 0.67846 0.5245 0.40465 0.0
H501 H 0.7604 0.60491 0.39263 0.0
H502 H 0.74833 0.58367 0.4676 0.0
H503 H 0.70924 0.55978 0.3767 0.0
Tb504 Tb 0.08519 0.9156 0.83626 0.0
C505 C 0.07496 0.93551 0.9529 0.0
N506 N 0.09763 0.92211 0.93697 0.0
C507 C 0.14373 0.96131 0.96372 0.0
C508 C 0.08567 0.96336 0.97439 0.0
C509 C 0.13179 0.93389 0.94249 0.0
C510 C 0.12057 0.97649 0.97954 0.0
C511 C 1.01665 0.93069 0.96557 0.0
C512 C 1.04108 0.91958 0.94851 0.0
C513 C 1.02674 0.96 0.98601 0.0
C514 C 0.06126 0.97633 0.99043 0.0
Tb515 Tb 0.07515 0.87879 0.90192 0.0
N516 N 1.03264 0.89095 0.92895 0.0
C517 C 0.98327 0.91088 0.96231 0.0
C518 C 1.00105 0.86956 0.9274 0.0
C519 C 0.97563 0.8797 0.9435 0.0
H520 H 0.15001 0.92298 0.93018 0.0
H521 H 0.95031 0.86329 0.94156 0.0
H522 H 1.02592 0.95726 0.82612 0.0
H523 H 0.13808 0.82038 0.76938 0.0
H524 H 0.99538 0.84488 0.9134 0.0
H525 H 0.96369 0.91849 0.97498 0.0
H526 H 0.13802 0.86701 0.80832 0.0
H527 H 0.17079 0.97097 0.9677 0.0
H528 H 1.00829 0.96933 -0.0009 0.0
H529 H 0.0689 0.99816 0.00676 0.0
H530 H 0.97666 0.94701 0.79595 0.0
H531 H 0.12987 0.99782 -0.00411 0.0
H532 H 0.08843 0.80115 0.73888 0.0
N533 N 1.04024 0.90958 0.80869 0.0
C534 C 1.03595 0.88216 0.78809 0.0
C535 C 0.9929 0.92831 0.79367 0.0
C536 C 1.00896 0.87575 0.76993 0.0
C537 C 1.02061 0.93393 0.81077 0.0
C538 C 0.98662 0.89867 0.77341 0.0
N539 N 0.08783 0.87237 0.80078 0.0
C540 C 0.11591 0.8583 0.79539 0.0
C541 C 0.05995 0.83685 0.76119 0.0
C542 C 0.06092 0.86299 0.78383 0.0
C543 C 0.08786 0.82097 0.75624 0.0
C544 C 0.11607 0.83195 0.77332 0.0
H545 H 0.96551 0.89466 0.75992 0.0
H546 H 0.98565 0.84238 0.73413 0.0
H547 H 1.0305 0.80841 0.72638 0.0
O548 O 0.12 0.96434 0.84443 0.0
O549 O 0.08952 0.86544 0.84309 0.0
O550 O 0.04907 0.8436 0.86741 0.0
O551 O 0.10261 0.93855 0.80579 0.0
O552 O 0.13404 0.908 0.85125 0.0
O553 O 0.12841 0.88555 0.88835 0.0
O554 O 0.06985 0.85085 0.93098 0.0
O555 O 0.1004 0.92983 0.89588 0.0
O556 O 0.07007 0.94984 0.86983 0.0
O557 O 0.09401 0.8327 0.89622 0.0
O558 O 1.02582 0.87769 0.88235 0.0
O559 O 1.03366 0.91378 0.85294 0.0
C560 C 0.06264 0.84179 0.84511 0.0
C561 C 0.11471 0.99963 0.81522 0.0
C562 C 0.12443 0.04087 0.78722 0.0
C563 C 0.10137 0.05891 0.80138 0.0
C564 C 0.09185 1.01799 0.82902 0.0
C565 C 0.08541 0.04761 0.82216 0.0
C566 C 0.13111 1.01131 0.79458 0.0
C567 C 0.14691 0.8969 0.86994 0.0
C568 C 0.12005 0.96681 0.82064 0.0
C569 C 1.0064 0.84801 0.7482 0.0
C570 C 1.03196 0.82867 0.74378 0.0
C571 C 0.08279 0.95246 0.89262 0.0
C572 C 0.11131 0.81822 0.93357 0.0
C573 C 0.1286 0.77613 0.95448 0.0
C574 C 0.15958 0.80013 0.96238 0.0
C575 C 0.14221 0.84177 0.94178 0.0
C576 C 0.10458 0.78549 0.93994 0.0
C577 C 0.16626 0.83269 0.95604 0.0
C578 C 1.01405 0.89549 0.86752 0.0
C579 C 0.08556 0.82739 0.91868 0.0
H580 H 0.09503 0.08135 0.79612 0.0
H581 H 0.07866 1.00919 0.84481 0.0
H582 H 0.06756 0.06157 0.83275 0.0
H583 H 0.14895 0.99707 0.78421 0.0
H584 H 0.17882 0.79362 0.97326 0.0
H585 H 0.14766 0.8671 0.93719 0.0
H586 H 0.08038 0.76759 0.93392 0.0
H587 H 0.19017 0.85096 0.96221 0.0
Tb588 Tb 0.83714 0.09893 0.45288 0.0
C589 C 0.78804 1.01512 0.33808 0.0
N590 N 0.79503 0.04984 0.34923 0.0
C591 C 0.81969 0.06256 0.31067 0.0
C592 C 0.7974 1.00256 0.31289 0.0
C593 C 0.80942 0.07373 0.33561 0.0
C594 C 0.81404 1.02679 0.29936 0.0
C595 C 0.75963 0.95634 0.34018 0.0
C596 C 0.76942 0.99237 0.35145 0.0
C597 C 0.77005 0.94338 0.31546 0.0
C598 C 0.78891 0.96645 0.30184 0.0
Tb599 Tb 0.77897 0.06467 0.39051 0.0
N600 N 0.75986 1.00593 0.37527 0.0
C601 C 0.73912 0.93465 0.35392 0.0
C602 C 0.73833 0.98531 0.38822 0.0
C603 C 0.72811 0.94929 0.37792 0.0
H604 H 0.81311 0.10147 0.34397 0.0
H605 H 0.71171 0.93284 0.38847 0.0
H606 H 0.84361 0.18438 0.47691 0.0
H607 H 0.93751 1.02678 0.44295 0.0
H608 H 0.7297 0.99653 0.40672 0.0
H609 H 0.73108 0.90678 0.34598 0.0
H610 H 0.87876 1.03501 0.4491 0.0
H611 H 0.83168 0.08154 0.30011 0.0
H612 H 0.76305 0.91571 0.3065 0.0
H613 H 0.7961 0.95621 0.28257 0.0
H614 H 0.88633 0.23902 0.47892 0.0
H615 H 0.82171 1.01823 0.27996 0.0
H616 H 0.98378 0.0769 0.43969 0.0
N617 N 0.87597 0.15127 0.45887 0.0
C618 C 0.90847 0.14937 0.45303 0.0
C619 C 0.89281 0.21398 0.47119 0.0
C620 C 0.93426 0.17978 0.45505 0.0
C621 C 0.86843 0.18298 0.4695 0.0
C622 C 0.92575 0.21241 0.46341 0.0
N623 N 0.89105 0.08873 0.44768 0.0
C624 C 0.8985 0.05687 0.44712 0.0
C625 C 0.95048 0.11355 0.44435 0.0
C626 C 0.91646 0.11688 0.44763 0.0
C627 C 0.9579 0.08051 0.44196 0.0
C628 C 0.93186 0.05217 0.44381 0.0
H629 H 0.94477 0.23642 0.46518 0.0
H630 H 0.98805 0.19962 0.45121 0.0
H631 H 1.00231 0.14149 0.44201 0.0
O632 O 0.85314 0.12157 0.49123 0.0
O633 O 0.81391 0.13977 0.44107 0.0
O634 O 0.80321 0.12175 0.39715 0.0
O635 O 0.81909 0.07132 0.48105 0.0
O636 O 0.85843 0.07827 0.41604 0.0
O637 O 0.82932 0.09524 0.38672 0.0
O638 O 0.73681 0.08706 0.40132 0.0
O639 O 0.80435 1.02385 0.3992 0.0
O640 O 0.81939 0.04052 0.44257 0.0
O641 O 0.74077 0.05949 0.36258 0.0
O642 O 0.76097 0.05753 0.42828 0.0
O643 O 0.78587 0.10893 0.45428 0.0
C644 C 0.80991 0.1471 0.41842 0.0
C645 C 0.86162 0.07884 0.51272 0.0
C646 C 0.91872 0.07167 0.52152 0.0
C647 C 0.90474 0.04588 0.53473 0.0
C648 C 0.84799 0.05328 0.52615 0.0
C649 C 0.86953 0.03701 0.5372 0.0
C650 C 0.89699 0.08819 0.51085 0.0
C651 C 0.85777 0.0912 0.39584 0.0
C652 C 0.83905 0.09366 0.49892 0.0
C653 C 0.96792 0.1766 0.45001 0.0
C654 C 0.97605 0.1435 0.44479 0.0
C655 C 0.81416 1.01658 0.42055 0.0
C656 C 0.71474 0.10768 0.36847 0.0
C657 C 0.69059 0.12593 0.33373 0.0
C658 C 0.69544 0.16017 0.34888 0.0
C659 C 0.71985 0.14214 0.38341 0.0
C660 C 0.7001 0.09987 0.34372 0.0
C661 C 0.71018 0.16819 0.37358 0.0
C662 C 0.75877 0.08398 0.44733 0.0
C663 C 0.72416 0.0793 0.37808 0.0
H664 H 0.92099 1.03275 0.5432 0.0
H665 H 0.82073 0.0455 0.52768 0.0
H666 H 0.85888 1.01713 0.54741 0.0
H667 H 0.90771 0.1075 0.50018 0.0
H668 H 0.68825 0.1807 0.34149 0.0
H669 H 0.73123 0.14898 0.4026 0.0
H670 H 0.6958 0.07326 0.33224 0.0
H671 H 0.71415 0.19467 0.38513 0.0
C672 C 0.90643 0.07556 0.36998 0.0
C673 C 0.88869 0.10089 0.38209 0.0
C674 C 0.93084 0.0833 0.35214 0.0
C675 C 0.98598 0.15458 0.32893 0.0
H676 H 0.96538 0.09375 0.26124 0.0
C677 C 1.0406 0.19798 0.23881 0.0
C678 C 0.04739 0.17279 0.21761 0.0
C679 C 1.02446 0.18796 0.25997 0.0
C680 C 0.97213 0.11071 0.28004 0.0
H681 H 0.8834 0.15435 0.38648 0.0
H682 H 0.92692 0.16836 0.35617 0.0
H683 H 0.93421 0.07827 0.29754 0.0
H684 H 1.04227 0.11697 0.20241 0.0
H685 H 1.01589 0.09969 0.23971 0.0
H686 H 1.02404 0.18696 0.31173 0.0
C687 C 0.92193 0.14254 0.36013 0.0
C688 C 0.95415 0.10178 0.30087 0.0
C689 C 0.89708 0.13457 0.37744 0.0
C690 C 1.03792 0.13726 0.21841 0.0
C691 C 1.02223 0.12726 0.23975 0.0
C692 C 1.00438 0.16325 0.3082 0.0
C693 C 0.93827 0.11668 0.34667 0.0
C694 C 0.96046 0.12393 0.32542 0.0
C695 C 1.01507 0.15245 0.26082 0.0
C696 C 0.99727 0.14183 0.28332 0.0
H697 H 0.89992 0.04928 0.37309 0.0
H698 H 0.94316 0.06295 0.34204 0.0
H699 H 0.99146 0.17204 0.3477 0.0
H700 H 0.04796 0.22563 0.23925 0.0
H701 H 1.01896 0.20822 0.27551 0.0
C702 C 0.49276 0.12593 0.69436 0.0
C703 C 0.50833 0.10738 0.6738 0.0
C704 C 0.50764 0.13489 0.71903 0.0
C705 C 0.58853 0.14833 0.75435 0.0
H706 H 0.5345 0.11185 0.80623 0.0
C707 C 0.64366 0.09636 0.82994 0.0
C708 C 0.62701 0.09442 0.85278 0.0
C709 C 0.63168 0.11244 0.81256 0.0
C710 C 0.54981 0.12332 0.79237 0.0
H711 H 0.55166 0.08418 0.66258 0.0
H712 H 0.57789 0.10004 0.70577 0.0
H713 H 0.50727 0.1111 0.76579 0.0
H714 H 0.58696 0.11041 0.87672 0.0
H715 H 0.56597 0.13912 0.84629 0.0
H716 H 0.6313 0.15954 0.78051 0.0
C717 C 0.55426 0.10767 0.70277 0.0
C718 C 0.53417 0.12263 0.76912 0.0
C719 C 0.53911 0.09822 0.6782 0.0
C720 C 0.60012 0.11162 0.85914 0.0
C721 C 0.58801 0.12775 0.84166 0.0
C722 C 0.6041 0.14947 0.77772 0.0
C723 C 0.5386 0.12599 0.72338 0.0
C724 C 0.55371 0.13361 0.74953 0.0
C725 C 0.60275 0.12691 0.81769 0.0
C726 C 0.58522 0.13529 0.79647 0.0
H727 H 0.46893 0.13318 0.69135 0.0
H728 H 0.49507 0.14885 0.73467 0.0
H729 H 0.60395 0.15751 0.73961 0.0
H730 H 0.66465 0.08346 0.8248 0.0
H731 H 0.64352 0.11092 0.79426 0.0
C732 C 0.78375 0.56342 0.34312 0.0
C733 C 0.7984 0.54619 0.35865 0.0
C734 C 0.76446 0.54459 0.32096 0.0
C735 C 0.75212 0.46126 0.27235 0.0
H736 H 0.67132 0.48926 0.25322 0.0
C737 C 0.68653 0.40951 0.17057 0.0
C738 C 0.65078 0.40142 0.16917 0.0
C739 C 0.70429 0.42635 0.19395 0.0
C740 C 0.69364 0.48082 0.25829 0.0
H741 H 0.80411 0.49569 0.36352 0.0
H742 H 0.77024 0.46235 0.32448 0.0
H743 H 0.70101 0.51846 0.29416 0.0
H744 H 0.60575 0.40623 0.19078 0.0
H745 H 0.63638 0.43463 0.23155 0.0
H746 H 0.74445 0.42331 0.23648 0.0
C747 C 0.77373 0.49057 0.32948 0.0
C748 C 0.7109 0.49785 0.28173 0.0
C749 C 0.79272 0.50953 0.35197 0.0
C750 C 0.63325 0.41135 0.19141 0.0
C751 C 0.6509 0.42811 0.21473 0.0
C752 C 0.73484 0.44421 0.24881 0.0
C753 C 0.7596 0.50795 0.31357 0.0
C754 C 0.74044 0.48843 0.28907 0.0
C755 C 0.68669 0.43575 0.21641 0.0
C756 C 0.70536 0.4538 0.24143 0.0
H757 H 0.78794 0.59172 0.34781 0.0
H758 H 0.75443 0.55895 0.30908 0.0
H759 H 0.77501 0.45362 0.27724 0.0
H760 H 0.70076 0.40216 0.15371 0.0
H761 H 0.73183 0.43223 0.19439 0.0
C762 C 0.09138 0.64398 0.64716 0.0
C763 C 0.11989 0.62981 0.64995 0.0
C764 C 0.07477 0.65851 0.66862 0.0
C765 C 0.0731 0.6699 0.74041 0.0
H766 H 1.03995 0.75251 0.73692 0.0
C767 C 0.08301 0.78906 0.82348 0.0
C768 C 0.05702 0.8078 0.82679 0.0
C769 C 0.08069 0.75973 0.80334 0.0
C770 C 0.0488 0.72932 0.73817 0.0
H771 H 0.15198 0.61854 0.67793 0.0
H772 H 0.12543 0.64645 0.71492 0.0
H773 H 0.05655 0.71679 0.69811 0.0
H774 H 1.00782 0.81054 0.8126 0.0
H775 H 1.00401 0.7593 0.77661 0.0
H776 H 0.06827 0.68486 0.78102 0.0
C777 C 0.11484 0.64538 0.69624 0.0
C778 C 0.05812 0.70846 0.71578 0.0
C779 C 0.13082 0.63003 0.67482 0.0
C780 C 1.02791 0.79603 0.81042 0.0
C781 C 1.02585 0.76695 0.78988 0.0
C782 C 0.06484 0.69145 0.76287 0.0
C783 C 0.08667 0.66011 0.69355 0.0
C784 C 0.07158 0.67908 0.71666 0.0
C785 C 0.05258 0.74896 0.78587 0.0
C786 C 0.05381 0.72207 0.76205 0.0
H787 H 0.08218 0.64463 0.62844 0.0
H788 H 0.0528 0.66884 0.66554 0.0
H789 H 0.08188 0.64674 0.74191 0.0
H790 H 0.10578 0.79804 0.83585 0.0
H791 H 0.10193 0.74679 0.80051 0.0
C792 C 0.28066 0.15435 0.61383 0.0
C793 C 0.29699 0.12865 0.60029 0.0
C794 C 0.25642 0.14621 0.63168 0.0
C795 C 0.20014 0.07385 0.65336 0.0
H796 H 0.22246 0.13236 0.72166 0.0
C797 C 0.14727 1.02759 0.74292 0.0
C798 C 0.14086 0.05232 0.76456 0.0
C799 C 0.16296 0.03822 0.72182 0.0
C800 C 0.21526 0.11605 0.7027 0.0
H801 H 0.30008 0.07425 0.59344 0.0
H802 H 0.25693 0.05962 0.62385 0.0
H803 H 0.25323 0.14881 0.6855 0.0
H804 H 0.14607 0.10796 0.78061 0.0
H805 H 0.17183 0.12634 0.74345 0.0
H806 H 0.16212 0.0411 0.67033 0.0
C807 C 0.26277 0.08601 0.62093 0.0
C808 C 0.233 0.12554 0.68195 0.0
C809 C 0.2874 0.09432 0.60355 0.0
C810 C 0.15019 0.08803 0.76427 0.0
C811 C 0.16549 0.09865 0.743 0.0
C812 C 0.18204 0.06459 0.67404 0.0
C813 C 0.24784 0.11211 0.63581 0.0
C814 C 0.22604 0.10423 0.65713 0.0
C815 C 0.1723 0.07391 0.7215 0.0
C816 C 0.18979 0.08519 0.69912 0.0
H817 H 0.28819 0.18111 0.61182 0.0
H818 H 0.2452 0.16677 0.64284 0.0
H819 H 0.1941 0.05705 0.6344 0.0
H820 H 0.13997 0.99983 0.74211 0.0
H821 H 0.16819 1.0183 0.70589 0.0
C822 C 0.54299 0.12591 0.14974 0.0
C823 C 0.56021 0.12744 0.12707 0.0
C824 C 0.55408 0.1096 0.16733 0.0
C825 C 0.63511 0.09797 0.18839 0.0
H826 H 0.57993 0.06595 0.24146 0.0
C827 C 0.6912 0.09815 0.28718 0.0
C828 C 0.67543 0.11688 0.30752 0.0
C829 C 0.67641 0.08858 0.26248 0.0
C830 C 0.59564 0.07455 0.22665 0.0
H831 H 0.60017 0.11031 0.10358 0.0
H832 H 0.61956 0.08117 0.13438 0.0
H833 H 0.55318 0.06314 0.20016 0.0
H834 H 0.63183 0.13983 0.31828 0.0
H835 H 0.60582 0.12305 0.27499 0.0
H836 H 0.67733 0.11048 0.21526 0.0
C837 C 0.5978 0.09306 0.13872 0.0
C838 C 0.58041 0.07293 0.20304 0.0
C839 C 0.5866 0.10946 0.12104 0.0
C840 C 0.64454 0.12566 0.30284 0.0
C841 C 0.62951 0.11566 0.27821 0.0
C842 C 0.65039 0.09916 0.21188 0.0
C843 C 0.58267 0.09448 0.16259 0.0
C844 C 0.5997 0.08633 0.18415 0.0
C845 C 0.64537 0.09712 0.25783 0.0
C846 C 0.63049 0.089 0.23157 0.0
H847 H 0.52234 0.1394 0.15461 0.0
H848 H 0.54194 0.11154 0.18554 0.0
H849 H 0.65074 0.10887 0.17443 0.0
H850 H 0.71512 0.09119 0.29039 0.0
H851 H 0.68914 0.07445 0.24703 0.0
C852 C 0.55544 0.81347 0.78866 0.0
C853 C 0.53932 0.8223 0.81179 0.0
C854 C 0.53639 0.79776 0.76575 0.0
C855 C 0.45208 0.74516 0.74029 0.0
H856 H 0.47941 0.77455 0.67774 0.0
C857 C 0.39635 0.66307 0.64188 0.0
C858 C 0.38563 0.68057 0.62464 0.0
C859 C 0.41562 0.68172 0.66408 0.0
C860 C 0.47131 0.7662 0.69506 0.0
H861 H 0.4904 0.82036 0.82926 0.0
H862 H 0.45699 0.7923 0.78934 0.0
H863 H 0.51108 0.80468 0.71812 0.0
H864 H 0.38814 0.73124 0.61631 0.0
H865 H 0.4224 0.76421 0.65525 0.0
H866 H 0.4124 0.70674 0.71735 0.0
C867 C 0.48447 0.79784 0.78883 0.0
C868 C 0.48965 0.78324 0.71816 0.0
C869 C 0.50361 0.81386 0.81173 0.0
C870 C 0.39617 0.71713 0.6293 0.0
C871 C 0.41565 0.73594 0.65161 0.0
C872 C 0.43396 0.728 0.7172 0.0
C873 C 0.50063 0.78989 0.76549 0.0
C874 C 0.4804 0.77275 0.74105 0.0
C875 C 0.42491 0.71844 0.66957 0.0
C876 C 0.44352 0.73804 0.69424 0.0
H877 H 0.58289 0.81841 0.7883 0.0
H878 H 0.54971 0.79127 0.74829 0.0
H879 H 0.44434 0.73624 0.75746 0.0
H880 H 0.38921 0.63481 0.63842 0.0
H881 H 0.42297 0.66732 0.67713 0.0
C882 C 0.08216 0.57273 0.32797 0.0
C883 C 0.05778 0.59283 0.32658 0.0
C884 C 0.09592 0.55622 0.30568 0.0
C885 C 0.07156 0.51664 0.23962 0.0
H886 H 0.16723 0.51979 0.22772 0.0
C887 C 0.10732 0.43411 0.14748 0.0
C888 C 0.13221 0.41528 0.14979 0.0
C889 C 0.10408 0.46277 0.16686 0.0
C890 C 0.14041 0.5184 0.2308 0.0
H891 H 1.03053 0.61301 0.30063 0.0
H892 H 0.05352 0.58304 0.26185 0.0
H893 H 0.15022 0.55544 0.26716 0.0
H894 H 0.17516 0.41284 0.1726 0.0
H895 H 0.16886 0.46215 0.20721 0.0
H896 H 0.06108 0.47835 0.20452 0.0
C897 C 0.06184 0.5801 0.28022 0.0
C898 C 0.13075 0.53889 0.25334 0.0
C899 C 0.04847 0.59697 0.30244 0.0
C900 C 0.15579 0.42721 0.17057 0.0
C901 C 0.15217 0.45558 0.19031 0.0
C902 C 0.08108 0.49578 0.21745 0.0
C903 C 0.08528 0.55917 0.2816 0.0
C904 C 0.09622 0.53824 0.25782 0.0
C905 C 0.12499 0.47242 0.18934 0.0
C906 C 0.11563 0.49646 0.21256 0.0
H907 H 0.08973 0.5687 0.34617 0.0
H908 H 0.11375 0.53993 0.30718 0.0
H909 H 1.04473 0.51516 0.24287 0.0
H910 H 0.08897 0.4253 0.13145 0.0
H911 H 0.0838 0.476 0.16484 0.0
C912 C 0.05618 0.99851 0.9191 0.0
C913 C 0.08536 0.98551 0.91181 0.0
C914 C 0.05851 1.02902 0.93837 0.0
C915 C 0.11407 0.08475 -0.00687 0.0
H916 H 0.06266 0.15408 0.98687 0.0
C917 C 0.13503 0.22174 0.0624 0.0
C918 C 0.10583 0.23471 0.06969 0.0
C919 C 0.13263 0.19092 0.0434 0.0
C920 C 0.07692 0.1348 0.98903 0.0
H921 H 0.13994 0.99464 0.91756 0.0
H922 H 0.14425 0.04822 0.95096 0.0
H923 H 0.05792 0.10133 0.95277 0.0
H924 H 0.05116 0.22516 0.06434 0.0
H925 H 0.04674 0.17109 0.03142 0.0
H926 H 0.13312 0.1183 0.02937 0.0
C927 C 0.11943 1.03451 0.94243 0.0
C928 C 0.07417 0.10456 0.96949 0.0
C929 C 0.11703 1.00396 0.92331 0.0
C930 C 0.07408 0.21587 0.05857 0.0
C931 C 0.07161 0.18503 0.03972 0.0
C932 C 0.11684 0.11502 0.01265 0.0
C933 C 0.09016 0.0472 0.95042 0.0
C934 C 0.09275 0.0792 0.97129 0.0
C935 C 0.1009 0.17244 0.03165 0.0
C936 C 0.09825 0.14036 0.01084 0.0
H937 H 1.0315 0.98453 0.91039 0.0
H938 H 1.03545 0.03795 0.94421 0.0
H939 H 0.12831 0.06546 -0.00471 0.0
H940 H 0.15976 0.236 0.07083 0.0
H941 H 0.15569 0.18203 0.03749 0.0
C942 C 0.49095 0.16458 0.53408 0.0
C943 C 0.46092 0.1394 0.52531 0.0
C944 C 0.52295 0.15873 0.52575 0.0
C945 C 0.56453 0.10285 0.47431 0.0
H946 H 0.64254 0.13484 0.52196 0.0
C947 C 0.69464 0.06415 0.44837 0.0
C948 C 0.7247 0.08932 0.45706 0.0
C949 C 0.66268 0.07004 0.45677 0.0
C950 C 0.62121 0.12602 0.50821 0.0
H951 H 0.44154 0.08818 0.50063 0.0
H952 H 0.4969 0.07794 0.48633 0.0
H953 H 0.58732 0.14587 0.53602 0.0
H954 H 0.7442 0.14054 0.4817 0.0
H955 H 0.6889 0.15085 0.49613 0.0
H956 H 0.59841 0.083 0.44651 0.0
C957 C 0.49588 0.10252 0.49942 0.0
C958 C 0.58932 0.13242 0.51633 0.0
C959 C 0.46393 0.10835 0.50777 0.0
C960 C 0.72178 0.12039 0.47462 0.0
C961 C 0.68987 0.12626 0.48304 0.0
C962 C 0.59641 0.09645 0.46619 0.0
C963 C 0.52603 0.12753 0.50831 0.0
C964 C 0.56035 0.12095 0.49954 0.0
C965 C 0.65968 0.10127 0.47421 0.0
C966 C 0.62538 0.10791 0.48298 0.0
H967 H 0.48981 0.18881 0.54756 0.0
H968 H 0.54531 0.17894 0.53285 0.0
H969 H 0.5432 0.09404 0.46056 0.0
H970 H 0.69572 0.03989 0.43489 0.0
H971 H 0.64029 0.04984 0.44972 0.0
C972 C 0.57499 0.70609 0.94496 0.0
C973 C 0.57403 0.69169 0.91845 0.0
C974 C 0.58032 0.68653 0.96244 0.0
C975 C 0.57489 0.59566 0.96848 0.0
H976 H 0.63425 0.64032 0.02858 0.0
C977 C 0.61722 0.51715 0.0356 0.0
C978 C 0.61815 0.53156 0.06211 0.0
C979 C 0.61187 0.53669 0.01811 0.0
C980 C 0.61729 0.62754 0.01205 0.0
H981 H 0.57826 0.64545 0.88958 0.0
H982 H 0.58758 0.61131 0.92008 0.0
H983 H 0.62481 0.67425 -0.002 0.0
H984 H 0.61388 0.5778 0.09097 0.0
H985 H 0.60456 0.61191 0.06045 0.0
H986 H 0.56737 0.54895 0.98254 0.0
C987 C 0.58374 0.6376 0.92736 0.0
C988 C 0.61188 0.647 -0.00549 0.0
C989 C 0.57841 0.65718 0.90986 0.0
C990 C 0.61375 0.56606 0.07069 0.0
C991 C 0.60841 0.58562 0.05319 0.0
C992 C 0.5803 0.5762 0.98603 0.0
C993 C 0.58481 0.65206 0.95387 0.0
C994 C 0.59061 0.63131 0.97251 0.0
C995 C 0.60736 0.57116 0.02668 0.0
C996 C 0.60157 0.5919 0.00803 0.0
H997 H 0.57109 0.73236 0.95225 0.0
H998 H 0.58042 0.69827 0.98272 0.0
H999 H 0.55793 0.58288 0.95196 0.0
H1000 H 0.62113 0.49089 0.02832 0.0
H1001 H 0.61179 0.52495 -0.00217 0.0
C1002 C 0.20142 0.64675 0.54967 0.0
C1003 C 0.22542 0.62822 0.53747 0.0
C1004 C 0.16931 0.64291 0.5382 0.0
C1005 C 0.12087 0.61352 0.4754 0.0
H1006 H 1.04254 0.61448 0.51799 0.0
C1007 C 0.98331 0.58155 0.43184 0.0
C1008 C 0.95976 0.60085 0.44387 0.0
C1009 C 1.0154 0.5851 0.44326 0.0
C1010 C 0.06414 0.6146 0.5058 0.0
H1011 H 0.23384 0.59102 0.50317 0.0
H1012 H 0.17772 0.58427 0.48302 0.0
H1013 H 0.09837 0.61888 0.53728 0.0
H1014 H 0.95216 0.63909 0.47781 0.0
H1015 H 1.00814 0.64517 0.49794 0.0
H1016 H 0.08658 0.60911 0.44391 0.0
C1017 C 0.18398 0.60207 0.50157 0.0
C1018 C 0.09632 0.6171 0.5169 0.0
C1019 C 0.21624 0.60583 0.51318 0.0
C1020 C 0.96936 0.62366 0.46795 0.0
C1021 C 1.00155 0.62706 0.47953 0.0
C1022 C 0.08867 0.61095 0.4643 0.0
C1023 C 0.15991 0.62047 0.51399 0.0
C1024 C 0.12529 0.61671 0.5019 0.0
C1025 C 1.02517 0.60794 0.46727 0.0
C1026 C 0.05974 0.61144 0.47931 0.0
H1027 H 0.20723 0.66429 0.56834 0.0
H1028 H 0.15197 0.65801 0.54831 0.0
H1029 H 0.14246 0.6137 0.4632 0.0
H1030 H 0.97714 0.56362 0.41335 0.0
H1031 H 1.03244 0.56949 0.43329 0.0
C1032 C 0.60577 0.98593 0.94418 0.0
C1033 C 0.58213 0.97532 0.92332 0.0
C1034 C 0.60871 1.01876 0.96105 0.0
C1035 C 0.5635 0.09163 0.982 0.0
H1036 H 0.65389 0.14699 0.00358 0.0
C1037 C 0.58621 0.23746 0.03594 0.0
C1038 C 0.60981 0.24794 0.05683 0.0
C1039 C 0.58327 0.20467 0.019 0.0
C1040 C 0.62843 0.13179 -0.00208 0.0
H1041 H 0.54232 0.99052 0.90432 0.0
H1042 H 0.54782 0.04759 0.93326 0.0
H1043 H 0.6472 0.08802 0.97682 0.0
H1044 H 0.64957 0.23261 0.07577 0.0
H1045 H 0.64408 0.17564 0.04671 0.0
H1046 H 0.54474 0.13541 0.0031 0.0
C1047 C 0.56389 1.03058 0.93688 0.0
C1048 C 0.6246 0.09789 0.98262 0.0
C1049 C 0.56095 0.99788 0.92012 0.0
C1050 C 0.63097 0.22534 0.05997 0.0
C1051 C 0.62803 0.19269 0.04313 0.0
C1052 C 0.56734 0.12554 -0.0027 0.0
C1053 C 0.58801 0.04165 0.95743 0.0
C1054 C 0.59208 0.07735 0.97444 0.0
C1055 C 0.60393 0.18172 0.02256 0.0
C1056 C 0.59985 0.14606 0.0055 0.0
H1057 H 0.62288 0.96953 0.94696 0.0
H1058 H 0.6274 1.02633 0.97681 0.0
H1059 H 0.53804 0.07643 0.97635 0.0
H1060 H 0.56912 0.25389 0.03321 0.0
H1061 H 0.5646 0.19717 0.00323 0.0
C1062 C 0.49733 0.54899 0.54036 0.0
C1063 C 0.49853 0.57448 0.56325 0.0
C1064 C 0.52063 0.5274 0.53646 0.0
C1065 C 0.57262 0.48391 0.52929 0.0
H1066 H 0.65931 0.55004 0.54092 0.0
C1067 C 0.70653 0.52675 0.47809 0.0
C1068 C 0.69074 0.53217 0.45642 0.0
C1069 C 0.68706 0.51405 0.49698 0.0
C1070 C 0.63572 0.53052 0.53808 0.0
H1071 H 0.52295 0.59488 0.60109 0.0
H1072 H 0.56431 0.5573 0.5941 0.0
H1073 H 0.6127 0.56168 0.56785 0.0
H1074 H 0.64179 0.52539 0.43697 0.0
H1075 H 0.60839 0.50235 0.46921 0.0
H1076 H 0.59482 0.45537 0.49718 0.0
C1077 C 0.54541 0.55432 0.57908 0.0
C1078 C 0.6088 0.53718 0.55361 0.0
C1079 C 0.52194 0.57602 0.58299 0.0
C1080 C 0.65518 0.52135 0.45304 0.0
C1081 C 0.63586 0.50795 0.4716 0.0
C1082 C 0.59942 0.47757 0.51348 0.0
C1083 C 0.54593 0.53078 0.55533 0.0
C1084 C 0.57615 0.51562 0.5478 0.0
C1085 C 0.65148 0.50564 0.49424 0.0
C1086 C 0.63021 0.50245 0.51649 0.0
H1087 H 0.47993 0.54727 0.52462 0.0
H1088 H 0.52048 0.5102 0.51772 0.0
H1089 H 0.54805 0.46611 0.52497 0.0
H1090 H 0.73385 0.53374 0.48116 0.0
H1091 H 0.69965 0.51256 0.51431 0.0
C1092 C 0.13037 0.73892 0.98612 0.0
C1093 C 0.12133 0.7416 0.96151 0.0
C1094 C 0.12364 0.70653 -0.00724 0.0
C1095 C 0.1058 0.61124 0.96459 0.0
H1096 H 0.07287 0.60464 0.03181 0.0
C1097 C 0.05842 0.47839 -0.00825 0.0
C1098 C 0.06769 0.47587 0.01635 0.0
C1099 C 0.06488 0.51075 0.98505 0.0
C1100 C 0.08242 0.60608 0.01307 0.0
H1101 H 0.09837 0.7121 0.92453 0.0
H1102 H 0.0861 0.65567 0.93625 0.0
H1103 H 0.08414 0.66106 0.02012 0.0
H1104 H 0.09072 0.50559 0.05326 0.0
H1105 H 0.10251 0.56194 0.04143 0.0
H1106 H 0.10409 0.55626 0.95754 0.0
C1107 C 0.09869 0.67862 0.95035 0.0
C1108 C 0.08888 0.63845 0.00636 0.0
C1109 C 0.10537 0.71105 0.94372 0.0
C1110 C 0.08355 0.50653 0.03408 0.0
C1111 C 0.08996 0.53891 0.02739 0.0
C1112 C 0.09933 0.57887 0.9713 0.0
C1113 C 0.10774 0.67595 0.97496 0.0
C1114 C 0.10068 0.64144 0.98204 0.0
C1115 C 0.08072 0.54143 0.00278 0.0
C1116 C 0.08758 0.57589 -0.00437 0.0
H1117 H 0.14237 0.76197 0.00039 0.0
H1118 H 0.13128 0.70539 0.01179 0.0
H1119 H 0.11537 0.61269 0.94586 0.0
H1120 H 0.04648 0.45526 0.97754 0.0
H1121 H 0.05711 0.51177 0.96602 0.0
C1122 C 0.21443 0.17781 0.47235 0.0
C1123 C 0.23256 0.15132 0.46402 0.0
C1124 C 0.18024 0.16931 0.47825 0.0
C1125 C 0.11827 0.09956 0.49773 0.0
H1126 H 0.05119 0.14549 0.47698 0.0
C1127 C 0.97399 0.05432 0.50943 0.0
C1128 C 0.95568 0.08069 0.51756 0.0
C1129 C 1.00802 0.0629 0.50316 0.0
C1130 C 0.06972 0.1327 0.48313 0.0
H1131 H 0.22885 0.09518 0.45427 0.0
H1132 H 0.16928 0.0804 0.46453 0.0
H1133 H 0.11007 0.16101 0.4649 0.0
H1134 H 0.95882 0.13673 0.52637 0.0
H1135 H 1.01815 0.15168 0.51557 0.0
H1136 H 0.07797 0.07132 0.51601 0.0
C1137 C 0.18157 0.10771 0.46692 0.0
C1138 C 0.10339 0.14159 0.47622 0.0
C1139 C 0.21561 0.11618 0.46095 0.0
C1140 C 0.97223 0.11582 0.5199 0.0
C1141 C 1.00614 0.12437 0.51361 0.0
C1142 C 0.08461 0.0907 0.50466 0.0
C1143 C 0.16365 0.13419 0.47595 0.0
C1144 C 0.12797 0.12505 0.4834 0.0
C1145 C 1.0243 0.098 0.50492 0.0
C1146 C 0.06 0.10719 0.49745 0.0
H1147 H 0.22701 0.20512 0.47528 0.0
H1148 H 0.1671 0.19027 0.4854 0.0
H1149 H 0.13682 0.08679 0.50389 0.0
H1150 H 0.96169 1.02701 0.50702 0.0
H1151 H 1.02129 0.04199 0.49624 0.0
C1152 C 0.99064 0.33566 0.09119 0.0
C1153 C 1.00679 0.32547 0.1106 0.0
C1154 C 0.95557 0.33624 0.09153 0.0
C1155 C 0.87305 0.30363 0.12234 0.0
H1156 H 0.84067 0.37197 0.09406 0.0
C1157 C 0.73065 0.31989 0.13177 0.0
C1158 C 0.7151 0.33013 0.11211 0.0
C1159 C 0.76575 0.3193 0.13188 0.0
C1160 C 0.84885 0.35225 0.1018 0.0
H1161 H 0.99721 0.30804 0.14589 0.0
H1162 H 0.93691 0.30939 0.14667 0.0
H1163 H 0.9009 0.37096 0.09357 0.0
H1164 H 0.72552 0.34706 0.07673 0.0
H1165 H 0.78573 0.34606 0.07684 0.0
H1166 H 0.82094 0.28495 0.13057 0.0
C1167 C 0.95115 0.31649 0.13077 0.0
C1168 C 0.8839 0.35167 0.10151 0.0
C1169 C 0.98622 0.31594 0.13041 0.0
C1170 C 0.73616 0.3396 0.09254 0.0
C1171 C 0.77117 0.33906 0.09264 0.0
C1172 C 0.83797 0.30421 0.12263 0.0
C1173 C 0.9349 0.32666 0.11133 0.0
C1174 C 0.89693 0.32731 0.11173 0.0
C1175 C 0.78693 0.32896 0.11232 0.0
C1176 C 0.82494 0.32849 0.11231 0.0
H1177 H 1.00506 0.34321 0.07553 0.0
H1178 H 0.94462 0.34379 0.07589 0.0
H1179 H 0.88127 0.28394 0.13008 0.0
H1180 H 0.71578 0.31267 0.14738 0.0
H1181 H 0.77635 0.31177 0.14768 0.0
C1182 C 0.37361 1.01592 0.54546 0.0
C1183 C 0.37056 0.0432 0.56665 0.0
C1184 C 0.36761 0.98042 0.54728 0.0
C1185 C 0.35779 0.92131 0.59509 0.0
H1186 H 0.32106 0.84862 0.53549 0.0
C1187 C 0.31857 0.77125 0.59985 0.0
C1188 C 0.32105 0.74505 0.57774 0.0
C1189 C 0.32409 0.80729 0.59916 0.0
C1190 C 0.3318 0.86818 0.55243 0.0
H1191 H 0.35965 0.05303 0.60692 0.0
H1192 H 0.3494 0.99196 0.61017 0.0
H1193 H 0.33203 0.90962 0.5331 0.0
H1194 H 0.33054 0.73786 0.53727 0.0
H1195 H 0.34081 0.7992 0.53615 0.0
H1196 H 0.35753 0.8797 0.6144 0.0
C1197 C 0.35641 0.99778 0.59186 0.0
C1198 C 0.3382 0.90384 0.55101 0.0
C1199 C 0.36227 1.03328 0.58999 0.0
C1200 C 0.3288 0.75664 0.55495 0.0
C1201 C 0.33428 0.79242 0.55423 0.0
C1202 C 0.35144 0.88555 0.5965 0.0
C1203 C 0.35859 0.97023 0.57049 0.0
C1204 C 0.35151 0.93149 0.57225 0.0
C1205 C 0.33217 0.81891 0.57628 0.0
C1206 C 0.3384 0.85789 0.57515 0.0
H1207 H 0.38107 1.02196 0.52731 0.0
H1208 H 0.37062 0.96093 0.53031 0.0
H1209 H 0.36838 0.941 0.61201 0.0
H1210 H 0.31282 0.76402 0.6179 0.0
H1211 H 0.32165 0.82602 0.61671 0.0
C1212 C 0.46099 0.90286 0.84895 0.0
C1213 C 0.47658 0.89255 0.86857 0.0
C1214 C 0.42588 0.90338 0.84886 0.0
C1215 C 0.34274 0.86973 0.87843 0.0
H1216 H 0.3105 0.93914 0.85133 0.0
C1217 C 0.20062 0.88529 0.88878 0.0
C1218 C 0.18472 0.89649 0.86978 0.0
C1219 C 0.23572 0.88485 0.88852 0.0
C1220 C 0.31865 0.91913 0.85872 0.0
H1221 H 0.46617 0.87532 0.90383 0.0
H1222 H 0.40587 0.87609 0.90369 0.0
H1223 H 0.37083 0.93818 0.85084 0.0
H1224 H 0.1948 0.91589 0.83531 0.0
H1225 H 0.2551 0.91468 0.83462 0.0
H1226 H 0.29063 0.85057 0.88624 0.0
C1227 C 0.42047 0.88329 0.88796 0.0
C1228 C 0.35374 0.91859 0.85845 0.0
C1229 C 0.45551 0.88287 0.88808 0.0
C1230 C 0.20559 0.90719 0.85047 0.0
C1231 C 0.24067 0.90671 0.85018 0.0
C1232 C 0.30766 0.87022 0.87867 0.0
C1233 C 0.4047 0.89353 0.86835 0.0
C1234 C 0.3667 0.89393 0.86835 0.0
C1235 C 0.25668 0.89554 0.8692 0.0
C1236 C 0.29468 0.89497 0.86886 0.0
H1237 H 0.47584 0.91018 0.83337 0.0
H1238 H 0.41525 0.91102 0.83311 0.0
H1239 H 0.35091 0.84976 0.88586 0.0
H1240 H 0.18597 0.87682 0.90404 0.0
H1241 H 0.24644 0.8765 0.90386 0.0
C1242 C 0.82199 0.19513 0.39286 0.0
C1243 C 0.81469 0.18531 0.41636 0.0
C1244 C 0.82791 0.23064 0.39098 0.0
C1245 C 0.8482 0.32467 0.43169 0.0
H1246 H 0.82643 0.34886 0.36886 0.0
C1247 C 0.8583 0.47207 0.42799 0.0
C1248 C 0.86487 0.4835 0.40501 0.0
C1249 C 0.85273 0.4363 0.42873 0.0
C1250 C 0.83322 0.343 0.3866 0.0
H1251 H 0.80602 0.20681 0.45604 0.0
H1252 H 0.81656 0.26785 0.45302 0.0
H1253 H 0.81541 0.2876 0.37134 0.0
H1254 H 0.87087 0.46422 0.36453 0.0
H1255 H 0.86199 0.40222 0.36576 0.0
H1256 H 0.86621 0.37983 0.44695 0.0
C1257 C 0.81874 0.24825 0.43591 0.0
C1258 C 0.82677 0.30726 0.38805 0.0
C1259 C 0.81269 0.21274 0.43773 0.0
C1260 C 0.8661 0.45712 0.38273 0.0
C1261 C 0.86053 0.42109 0.38345 0.0
C1262 C 0.8547 0.36032 0.43022 0.0
C1263 C 0.82677 0.25831 0.41251 0.0
C1264 C 0.83393 0.29705 0.4107 0.0
C1265 C 0.8536 0.40963 0.40653 0.0
C1266 C 0.84724 0.37064 0.40769 0.0
H1267 H 0.8238 0.17529 0.37577 0.0
H1268 H 0.83414 0.23633 0.37253 0.0
H1269 H 0.85505 0.31887 0.44943 0.0
H1270 H 0.85743 0.49097 0.44578 0.0
H1271 H 0.84708 0.42968 0.44698 0.0
C1272 C 0.23902 0.35432 0.10543 0.0
C1273 C 0.21551 0.32702 0.11261 0.0
C1274 C 0.27436 0.35507 0.10504 0.0
C1275 C 0.34263 0.31517 0.12847 0.0
H1276 H 0.39761 0.35775 0.07971 0.0
C1277 C 0.49202 0.33591 0.13284 0.0
C1278 C 0.51029 0.33484 0.11017 0.0
C1279 C 0.45662 0.33482 0.13295 0.0
C1280 C 0.38291 0.34541 0.09342 0.0
H1281 H 0.21217 0.27878 0.12493 0.0
H1282 H 0.27311 0.27999 0.12442 0.0
H1283 H 0.33665 0.35543 0.07998 0.0
H1284 H 0.50415 0.33169 0.0696 0.0
H1285 H 0.44293 0.32943 0.06964 0.0
H1286 H 0.38871 0.30443 0.14152 0.0
C1287 C 0.26443 0.30137 0.11932 0.0
C1288 C 0.3475 0.34449 0.09382 0.0
C1289 C 0.22904 0.30063 0.11965 0.0
C1290 C 0.49147 0.3327 0.08756 0.0
C1291 C 0.456 0.33162 0.08765 0.0
C1292 C 0.37804 0.31612 0.12809 0.0
C1293 C 0.28805 0.32857 0.11191 0.0
C1294 C 0.3264 0.32939 0.11138 0.0
C1295 C 0.43761 0.33259 0.11036 0.0
C1296 C 0.39916 0.33132 0.11059 0.0
H1297 H 0.23021 0.3757 0.10047 0.0
H1298 H 0.29103 0.37703 0.09971 0.0
H1299 H 0.32808 0.30356 0.14258 0.0
H1300 H 0.50509 0.33765 0.15075 0.0
H1301 H 0.44431 0.33628 0.15105 0.0
C1302 C 0.3723 0.27606 0.58548 0.0
C1303 C 0.36554 0.24902 0.56294 0.0
C1304 C 0.36648 0.31013 0.58662 0.0
C1305 C 0.34082 0.36873 0.54458 0.0
H1306 H 0.33819 0.43155 0.61045 0.0
C1307 C 0.32326 0.51385 0.55081 0.0
C1308 C 0.31329 0.53433 0.57355 0.0
C1309 C 0.32966 0.47996 0.54954 0.0
C1310 C 0.33828 0.41475 0.59163 0.0
H1311 H 0.34646 0.23854 0.52371 0.0
H1312 H 0.33505 0.29613 0.52579 0.0
H1313 H 0.34746 0.37364 0.60829 0.0
H1314 H 0.30224 0.53328 0.61291 0.0
H1315 H 0.31175 0.47481 0.61068 0.0
H1316 H 0.33004 0.40927 0.52795 0.0
C1317 C 0.34595 0.29189 0.54281 0.0
C1318 C 0.34436 0.38072 0.59035 0.0
C1319 C 0.35231 0.25797 0.5416 0.0
C1320 C 0.30986 0.51897 0.59493 0.0
C1321 C 0.31576 0.48485 0.5936 0.0
C1322 C 0.3343 0.4026 0.54587 0.0
C1323 C 0.35288 0.31927 0.56537 0.0
C1324 C 0.34599 0.35648 0.56677 0.0
C1325 C 0.32604 0.46414 0.57087 0.0
C1326 C 0.33291 0.42692 0.56945 0.0
H1327 H 0.38205 0.27097 0.60259 0.0
H1328 H 0.3731 0.32929 0.60449 0.0
H1329 H 0.34204 0.35236 0.52575 0.0
H1330 H 0.32682 0.5243 0.53385 0.0
H1331 H 0.33805 0.46657 0.53159 0.0
C1332 C 0.69982 0.88761 0.84739 0.0
C1333 C 0.68149 0.88812 0.87 0.0
C1334 C 0.73519 0.88857 0.84723 0.0
C1335 C 0.80853 0.87612 0.8861 0.0
H1336 H 0.86393 0.92016 0.83822 0.0
C1337 C 0.95221 0.86669 0.87346 0.0
C1338 C 0.97598 0.89459 0.86723 0.0
C1339 C 0.9169 0.86612 0.8739 0.0
C1340 C 0.84921 0.90791 0.85196 0.0
H1341 H 0.68749 0.89011 0.9104 0.0
H1342 H 0.74866 0.89206 0.91026 0.0
H1343 H 0.8033 0.91949 0.83932 0.0
H1344 H 0.97978 0.94405 0.85659 0.0
H1345 H 0.91887 0.94309 0.8571 0.0
H1346 H 0.85458 0.86516 0.89908 0.0
C1347 C 0.73566 0.89046 0.89234 0.0
C1348 C 0.81382 0.90709 0.85236 0.0
C1349 C 0.70022 0.88956 0.89249 0.0
C1350 C 0.96272 0.92175 0.86113 0.0
C1351 C 0.92735 0.92116 0.86147 0.0
C1352 C 0.84391 0.87686 0.88564 0.0
C1353 C 0.75411 0.89006 0.8697 0.0
C1354 C 0.79251 0.89114 0.86942 0.0
C1355 C 0.9035 0.89338 0.86797 0.0
C1356 C 0.8652 0.89274 0.86854 0.0
H1357 H 0.68683 0.88645 0.82957 0.0
H1358 H 0.74758 0.8876 0.82918 0.0
H1359 H 0.79367 0.86318 0.89944 0.0
H1360 H 0.9608 0.84474 0.87767 0.0
H1361 H 0.90003 0.84373 0.87849 0.0
C1362 C 0.86866 0.71829 0.43243 0.0
C1363 C 0.86937 0.69407 0.4088 0.0
C1364 C 0.86293 0.75246 0.43375 0.0
C1365 C 0.83146 0.80904 0.39381 0.0
H1366 H 0.86925 0.8853 0.45101 0.0
C1367 C 0.81948 0.95468 0.39604 0.0
C1368 C 0.81992 0.97951 0.41952 0.0
C1369 C 0.82526 0.9206 0.39486 0.0
C1370 C 0.85788 0.86456 0.43491 0.0
H1371 H 0.86424 0.68872 0.36788 0.0
H1372 H 0.85467 0.7474 0.37006 0.0
H1373 H 0.87943 0.82709 0.44876 0.0
H1374 H 0.82737 0.98606 0.46039 0.0
H1375 H 0.83694 0.92745 0.45851 0.0
H1376 H 0.80977 0.84637 0.38 0.0
C1377 C 0.85817 0.74007 0.38788 0.0
C1378 C 0.86386 0.83048 0.43359 0.0
C1379 C 0.86402 0.70594 0.38657 0.0
C1380 C 0.82664 0.96834 0.4418 0.0
C1381 C 0.83247 0.93422 0.44064 0.0
C1382 C 0.8254 0.84309 0.39516 0.0
C1383 C 0.85741 0.76444 0.41153 0.0
C1384 C 0.85088 0.80161 0.41298 0.0
C1385 C 0.83196 0.90921 0.41711 0.0
C1386 C 0.83844 0.872 0.41574 0.0
H1387 H 0.87235 0.71081 0.45017 0.0
H1388 H 0.86223 0.76929 0.45252 0.0
H1389 H 0.82015 0.78827 0.3777 0.0
H1390 H 0.81511 0.96168 0.37824 0.0
H1391 H 0.82507 0.9034 0.37613 0.0
loop_
_geom_bond_atom_site_label_1
_geom_bond_atom_site_label_2
_geom_bond_distance
_geom_bond_site_symmetry_2
_ccdc_geom_bond_type
Tb0 N29 2.617 1_455 S
Tb0 N35 2.572 . S
Tb0 O44 2.465 . S
Tb0 O45 2.387 . S
Tb0 O47 2.428 . S
Tb0 O48 2.308 . S
Tb0 O52 2.349 . S
Tb0 O55 2.393 1_455 S
Tb0 C64 2.802 . S
C1 N2 1.379 . S
C1 C4 1.416 . S
C1 C8 1.424 . S
N2 C1 1.379 . S
N2 C5 1.334 . S
N2 Tb11 2.617 . S
C3 C5 1.390 . S
C3 C6 1.339 . S
C3 H23 0.930 . S
C4 C1 1.416 . S
C4 C6 1.416 . S
C4 C10 1.448 . S
C5 N2 1.334 . S
C5 C3 1.390 . S
C5 H16 0.930 . S
C6 C3 1.339 . S
C6 C4 1.416 . S
C6 H27 0.930 . S
C7 C8 1.413 . S
C7 C9 1.427 . S
C7 C13 1.416 1_455 S
C8 C1 1.424 . S
C8 C7 1.413 . S
C8 N12 1.361 . S
C9 C7 1.427 . S
C9 C10 1.328 . S
C9 H24 0.929 . S
C10 C4 1.448 . S
C10 C9 1.328 . S
C10 H25 0.930 . S
Tb11 N2 2.617 . S
Tb11 N12 2.572 . S
Tb11 O46 2.349 . S
Tb11 O49 2.393 . S
Tb11 O50 2.474 . S
Tb11 O51 2.387 . S
Tb11 O53 2.428 . S
Tb11 O54 2.308 1_455 S
Tb11 C75 2.802 . S
N12 C8 1.361 . S
N12 Tb11 2.572 . S
N12 C14 1.340 1_455 S
C13 C7 1.416 1_655 S
C13 C15 1.332 . S
C13 H21 0.931 . S
C14 N12 1.340 1_655 S
C14 C15 1.407 . S
C14 H20 0.930 . S
C15 C13 1.332 . S
C15 C14 1.407 . S
C15 H17 0.929 . S
H16 C5 0.930 . S
H17 C15 0.929 . S
H18 C33 0.930 . S
H19 C40 0.929 . S
H20 C14 0.930 . S
H21 C13 0.931 . S
H22 C36 0.930 . S
H23 C3 0.930 . S
H24 C9 0.929 . S
H25 C10 0.930 . S
H26 C31 0.930 . S
H27 C6 0.930 . S
H28 C39 0.931 . S
N29 Tb0 2.617 1_655 S
N29 C30 1.379 1_655 S
N29 C33 1.334 . S
C30 N29 1.379 1_455 S
C30 C32 1.416 1_454 S
C30 C38 1.424 . S
C31 H26 0.930 . S
C31 C33 1.390 . S
C31 C34 1.339 1_554 S
C32 C30 1.416 1_656 S
C32 C34 1.416 . S
C32 C65 1.448 1_655 S
C33 H18 0.930 . S
C33 N29 1.334 . S
C33 C31 1.390 . S
C34 C31 1.339 1_556 S
C34 C32 1.416 . S
C34 H41 0.930 . S
N35 Tb0 2.572 . S
N35 C36 1.340 . S
N35 C38 1.361 . S
C36 H22 0.930 . S
C36 N35 1.340 . S
C36 C40 1.407 . S
C37 C38 1.413 1_556 S
C37 C39 1.416 . S
C37 C66 1.427 . S
C38 C30 1.424 . S
C38 N35 1.361 . S
C38 C37 1.413 1_554 S
C39 H28 0.931 . S
C39 C37 1.416 . S
C39 C40 1.332 1_556 S
C40 H19 0.929 . S
C40 C36 1.407 . S
C40 C39 1.332 1_554 S
H41 C34 0.930 . S
H42 C65 0.930 1_655 S
H43 C66 0.929 . S
O44 Tb0 2.465 . S
O44 C64 1.264 . S
O45 Tb0 2.387 . S
O45 C56 1.264 . S
O46 Tb11 2.349 . S
O46 C56 1.243 . S
O47 Tb0 2.428 . S
O47 C64 1.256 . S
O48 Tb0 2.308 . S
O48 C63 1.266 . S
O49 Tb11 2.393 . S
O49 C63 1.248 . S
O50 Tb11 2.474 . S
O50 C75 1.279 . S
O51 Tb11 2.387 . S
O51 C67 1.264 . S
O52 Tb0 2.349 . S
O52 C67 1.243 . S
O53 Tb11 2.428 . S
O53 C75 1.256 . S
O54 Tb11 2.308 1_655 S
O54 C74 1.266 . S
O55 Tb0 2.393 1_655 S
O55 C74 1.248 . S
C56 O45 1.264 . S
C56 O46 1.243 . S
C57 C60 1.399 . S
C57 C62 1.383 . S
C57 C64 1.496 . S
C58 C59 1.399 . S
C58 C62 1.389 . S
C59 C58 1.399 . S
C59 C61 1.380 . S
C59 H76 0.929 . S
C60 C57 1.399 . S
C60 C61 1.392 . S
C60 H77 0.929 . S
C61 C59 1.380 . S
C61 C60 1.392 . S
C61 H78 0.929 . S
C62 C57 1.383 . S
C62 C58 1.389 . S
C62 H79 0.931 . S
C63 O48 1.266 . S
C63 O49 1.248 . S
C64 Tb0 2.802 . S
C64 O44 1.264 . S
C64 O47 1.256 . S
C64 C57 1.496 . S
C65 C32 1.448 1_455 S
C65 H42 0.930 1_455 S
C65 C66 1.328 . S
C66 C37 1.427 . S
C66 H43 0.929 . S
C66 C65 1.328 . S
C67 O51 1.264 . S
C67 O52 1.243 . S
C68 C71 1.399 . S
C68 C72 1.383 1_455 S
C68 C75 1.496 . S
C69 C70 1.399 . S
C69 C72 1.389 . S
C70 C69 1.399 . S
C70 C73 1.380 1_655 S
C70 H80 0.929 . S
C71 C68 1.399 . S
C71 C73 1.392 . S
C71 H81 0.929 . S
C72 C68 1.383 1_655 S
C72 C69 1.389 . S
C72 H82 0.931 . S
C73 C70 1.380 1_455 S
C73 C71 1.392 . S
C73 H83 0.929 . S
C74 O54 1.266 . S
C74 O55 1.248 . S
C75 Tb11 2.802 . S
C75 O50 1.279 . S
C75 O53 1.256 . S
C75 C68 1.496 . S
H76 C59 0.929 . S
H77 C60 0.929 . S
H78 C61 0.929 . S
H79 C62 0.931 . S
H80 C70 0.929 . S
H81 C71 0.929 . S
H82 C72 0.931 . S
H83 C73 0.929 . S
Tb84 N113 2.617 . S
Tb84 N119 2.572 . S
Tb84 O128 2.465 . S
Tb84 O129 2.387 . S
Tb84 O131 2.428 . S
Tb84 O132 2.308 . S
Tb84 O136 2.349 . S
Tb84 O139 2.393 . S
Tb84 C148 2.802 . S
C85 N86 1.379 . S
C85 C88 1.416 . S
C85 C92 1.424 . S
N86 C85 1.379 . S
N86 C89 1.334 . S
N86 Tb95 2.617 . S
C87 C89 1.390 . S
C87 C90 1.339 . S
C87 H107 0.930 . S
C88 C85 1.416 . S
C88 C90 1.416 . S
C88 C94 1.448 1_545 S
C89 N86 1.334 . S
C89 C87 1.390 . S
C89 H100 0.930 . S
C90 C87 1.339 . S
C90 C88 1.416 . S
C90 H111 0.922 1_545 S
C91 C92 1.413 1_565 S
C91 C93 1.427 . S
C91 C97 1.416 . S
C92 C85 1.424 . S
C92 C91 1.413 1_545 S
C92 N96 1.361 . S
C93 C91 1.427 . S
C93 C94 1.328 . S
C93 H108 0.929 . S
C94 C88 1.448 1_565 S
C94 C93 1.328 . S
C94 H109 0.930 . S
Tb95 N86 2.617 . S
Tb95 N96 2.572 . S
Tb95 O130 2.349 . S
Tb95 O133 2.393 . S
Tb95 O134 2.465 . S
Tb95 O135 2.387 . S
Tb95 O137 2.428 . S
Tb95 O138 2.308 . S
Tb95 C159 2.802 . S
N96 C92 1.361 . S
N96 Tb95 2.572 . S
N96 C98 1.340 . S
C97 C91 1.416 . S
C97 C99 1.332 1_565 S
C97 H105 0.931 . S
C98 N96 1.340 . S
C98 C99 1.407 . S
C98 H104 0.930 . S
C99 C97 1.332 1_545 S
C99 C98 1.407 . S
C99 H101 0.929 . S
H100 C89 0.930 . S
H101 C99 0.929 . S
H102 C117 0.930 . S
H103 C124 0.929 . S
H104 C98 0.930 . S
H105 C97 0.931 . S
H106 C120 0.930 . S
H107 C87 0.930 . S
H108 C93 0.929 . S
H109 C94 0.930 . S
H110 C115 0.930 . S
H111 C90 0.922 1_565 S
H112 C123 0.931 . S
N113 Tb84 2.617 . S
N113 C114 1.379 . S
N113 C117 1.334 . S
C114 N113 1.379 . S
C114 C116 1.416 . S
C114 C122 1.424 . S
C115 H110 0.930 . S
C115 C117 1.390 . S
C115 C118 1.339 . S
C116 C114 1.416 . S
C116 C118 1.416 . S
C116 C149 1.448 . S
C117 H102 0.930 . S
C117 N113 1.334 . S
C117 C115 1.390 . S
C118 C115 1.339 . S
C118 C116 1.416 . S
C118 H125 0.930 . S
N119 Tb84 2.572 . S
N119 C120 1.340 . S
N119 C122 1.361 . S
C120 H106 0.930 . S
C120 N119 1.340 . S
C120 C124 1.407 . S
C121 C122 1.413 . S
C121 C123 1.416 . S
C121 C150 1.427 . S
C122 C114 1.424 . S
C122 N119 1.361 . S
C122 C121 1.413 . S
C123 H112 0.931 . S
C123 C121 1.416 . S
C123 C124 1.332 . S
C124 H103 0.929 . S
C124 C120 1.407 . S
C124 C123 1.332 . S
H125 C118 0.930 . S
H126 C149 0.930 . S
H127 C150 0.929 . S
O128 Tb84 2.465 . S
O128 C148 1.264 . S
O129 Tb84 2.387 . S
O129 C140 1.264 . S
O130 Tb95 2.349 . S
O130 C140 1.243 . S
O131 Tb84 2.428 . S
O131 C148 1.256 . S
O132 Tb84 2.308 . S
O132 C147 1.266 . S
O133 Tb95 2.393 . S
O133 C147 1.248 . S
O134 Tb95 2.465 . S
O134 C159 1.264 . S
O135 Tb95 2.387 . S
O135 C151 1.264 . S
O136 Tb84 2.349 . S
O136 C151 1.243 . S
O137 Tb95 2.428 . S
O137 C159 1.256 . S
O138 Tb95 2.308 . S
O138 C158 1.266 . S
O139 Tb84 2.393 . S
O139 C158 1.248 . S
C140 O129 1.264 . S
C140 O130 1.243 . S
C141 C144 1.399 . S
C141 C146 1.383 . S
C141 C148 1.496 . S
C142 C143 1.399 . S
C142 C146 1.389 . S
C143 C142 1.399 . S
C143 C145 1.380 . S
C143 H160 0.929 . S
C144 C141 1.399 . S
C144 C145 1.392 . S
C144 H161 0.929 . S
C145 C143 1.380 . S
C145 C144 1.392 . S
C145 H162 0.929 . S
C146 C141 1.383 . S
C146 C142 1.389 . S
C146 H163 0.931 . S
C147 O132 1.266 . S
C147 O133 1.248 . S
C148 Tb84 2.802 . S
C148 O128 1.264 . S
C148 O131 1.256 . S
C148 C141 1.496 . S
C149 C116 1.448 . S
C149 H126 0.930 . S
C149 C150 1.328 . S
C150 C121 1.427 . S
C150 H127 0.929 . S
C150 C149 1.328 . S
C151 O135 1.264 . S
C151 O136 1.243 . S
C152 C155 1.399 . S
C152 C156 1.383 . S
C152 C159 1.496 . S
C153 C154 1.399 . S
C153 C156 1.389 . S
C154 C153 1.399 . S
C154 C157 1.380 . S
C154 H164 0.929 . S
C155 C152 1.399 . S
C155 C157 1.392 . S
C155 H165 0.929 . S
C156 C152 1.383 . S
C156 C153 1.389 . S
C156 H166 0.931 . S
C157 C154 1.380 . S
C157 C155 1.392 . S
C157 H167 0.929 . S
C158 O138 1.266 . S
C158 O139 1.248 . S
C159 Tb95 2.802 . S
C159 O134 1.264 . S
C159 O137 1.256 . S
C159 C152 1.496 . S
H160 C143 0.929 . S
H161 C144 0.929 . S
H162 C145 0.929 . S
H163 C146 0.931 . S
H164 C154 0.929 . S
H165 C155 0.929 . S
H166 C156 0.931 . S
H167 C157 0.929 . S
Tb168 N197 2.617 . S
Tb168 N203 2.572 . S
Tb168 O212 2.465 . S
Tb168 O213 2.387 . S
Tb168 O215 2.428 . S
Tb168 O216 2.308 . S
Tb168 O220 2.349 . S
Tb168 O223 2.393 . S
Tb168 C232 2.802 . S
C169 N170 1.379 . S
C169 C172 1.432 . S
C169 C176 1.424 . S
N170 C169 1.379 . S
N170 C173 1.334 . S
N170 Tb179 2.617 . S
C171 C173 1.390 . S
C171 C174 1.339 . S
C171 H191 0.930 . S
C172 C169 1.432 . S
C172 C174 1.418 . S
C172 C178 1.432 1_554 S
C173 N170 1.334 . S
C173 C171 1.390 . S
C173 H184 0.930 . S
C174 C171 1.339 . S
C174 C172 1.418 . S
C174 H195 0.930 1_554 S
C175 C176 1.413 1_556 S
C175 C177 1.427 . S
C175 C181 1.416 . S
C176 C169 1.424 . S
C176 C175 1.413 1_554 S
C176 N180 1.361 . S
C177 C175 1.427 . S
C177 C178 1.328 . S
C177 H192 0.929 . S
C178 C172 1.432 1_556 S
C178 C177 1.328 . S
C178 H193 0.930 . S
Tb179 N170 2.617 . S
Tb179 N180 2.572 . S
Tb179 O214 2.349 . S
Tb179 O217 2.393 . S
Tb179 O218 2.465 . S
Tb179 O219 2.387 . S
Tb179 O221 2.428 . S
Tb179 O222 2.308 . S
Tb179 C243 2.802 . S
N180 C176 1.361 . S
N180 Tb179 2.572 . S
N180 C182 1.340 . S
C181 C175 1.416 . S
C181 C183 1.332 1_556 S
C181 H189 0.931 . S
C182 N180 1.340 . S
C182 C183 1.407 . S
C182 H188 0.930 . S
C183 C181 1.332 1_554 S
C183 C182 1.407 . S
C183 H185 0.929 . S
H184 C173 0.930 . S
H185 C183 0.929 . S
H186 C201 0.930 . S
H187 C208 0.929 . S
H188 C182 0.930 . S
H189 C181 0.931 . S
H190 C204 0.930 . S
H191 C171 0.930 . S
H192 C177 0.929 . S
H193 C178 0.930 . S
H194 C199 0.930 . S
H195 C174 0.930 1_556 S
H196 C207 0.931 . S
N197 Tb168 2.617 . S
N197 C198 1.379 . S
N197 C201 1.334 . S
C198 N197 1.379 . S
C198 C200 1.416 . S
C198 C206 1.424 . S
C199 H194 0.930 . S
C199 C201 1.390 . S
C199 C202 1.339 . S
C200 C198 1.416 . S
C200 C202 1.416 . S
C200 C233 1.448 . S
C201 H186 0.930 . S
C201 N197 1.334 . S
C201 C199 1.390 . S
C202 C199 1.339 . S
C202 C200 1.416 . S
C202 H209 0.930 . S
N203 Tb168 2.572 . S
N203 C204 1.340 . S
N203 C206 1.361 . S
C204 H190 0.930 . S
C204 N203 1.340 . S
C204 C208 1.407 . S
C205 C206 1.413 . S
C205 C207 1.416 . S
C205 C234 1.427 . S
C206 C198 1.424 . S
C206 N203 1.361 . S
C206 C205 1.413 . S
C207 H196 0.931 . S
C207 C205 1.416 . S
C207 C208 1.332 . S
C208 H187 0.929 . S
C208 C204 1.407 . S
C208 C207 1.332 . S
H209 C202 0.930 . S
H210 C233 0.930 . S
H211 C234 0.929 . S
O212 Tb168 2.465 . S
O212 C232 1.264 . S
O213 Tb168 2.387 . S
O213 C224 1.264 . S
O214 Tb179 2.349 . S
O214 C224 1.243 . S
O215 Tb168 2.428 . S
O215 C232 1.256 . S
O216 Tb168 2.308 . S
O216 C231 1.266 . S
O217 Tb179 2.393 . S
O217 C231 1.248 . S
O218 Tb179 2.465 . S
O218 C243 1.264 . S
O219 Tb179 2.387 . S
O219 C235 1.264 . S
O220 Tb168 2.349 . S
O220 C235 1.243 . S
O221 Tb179 2.428 . S
O221 C243 1.256 . S
O222 Tb179 2.308 . S
O222 C242 1.266 . S
O223 Tb168 2.393 . S
O223 C242 1.248 . S
C224 O213 1.264 . S
C224 O214 1.243 . S
C225 C228 1.399 . S
C225 C230 1.383 . S
C225 C232 1.496 . S
C226 C227 1.399 . S
C226 C230 1.389 . S
C227 C226 1.399 . S
C227 C229 1.380 . S
C227 H244 0.929 . S
C228 C225 1.399 . S
C228 C229 1.392 . S
C228 H245 0.929 . S
C229 C227 1.380 . S
C229 C228 1.392 . S
C229 H246 0.929 . S
C230 C225 1.383 . S
C230 C226 1.389 . S
C230 H247 0.931 . S
C231 O216 1.266 . S
C231 O217 1.248 . S
C232 Tb168 2.802 . S
C232 O212 1.264 . S
C232 O215 1.256 . S
C232 C225 1.496 . S
C233 C200 1.448 . S
C233 H210 0.930 . S
C233 C234 1.328 . S
C234 C205 1.427 . S
C234 H211 0.929 . S
C234 C233 1.328 . S
C235 O219 1.264 . S
C235 O220 1.243 . S
C236 C239 1.399 . S
C236 C240 1.383 . S
C236 C243 1.496 . S
C237 C238 1.399 . S
C237 C240 1.389 . S
C238 C237 1.399 . S
C238 C241 1.380 . S
C238 H248 0.929 . S
C239 C236 1.399 . S
C239 C241 1.392 . S
C239 H249 0.929 . S
C240 C236 1.383 . S
C240 C237 1.389 . S
C240 H250 0.931 . S
C241 C238 1.380 . S
C241 C239 1.392 . S
C241 H251 0.929 . S
C242 O222 1.266 . S
C242 O223 1.248 . S
C243 Tb179 2.802 . S
C243 O218 1.264 . S
C243 O221 1.256 . S
C243 C236 1.496 . S
H244 C227 0.929 . S
H245 C228 0.929 . S
H246 C229 0.929 . S
H247 C230 0.931 . S
H248 C238 0.929 . S
H249 C239 0.929 . S
H250 C240 0.931 . S
H251 C241 0.929 . S
Tb252 N281 2.617 . S
Tb252 N287 2.572 . S
Tb252 O296 2.465 . S
Tb252 O297 2.387 . S
Tb252 O299 2.428 . S
Tb252 O300 2.308 . S
Tb252 O304 2.349 . S
Tb252 O307 2.393 . S
Tb252 C316 2.802 . S
C253 N254 1.379 . S
C253 C256 1.416 . S
C253 C260 1.424 . S
N254 C253 1.379 . S
N254 C257 1.334 . S
N254 Tb263 2.617 . S
C255 C257 1.390 . S
C255 C258 1.339 . S
C255 H275 0.930 . S
C256 C253 1.416 . S
C256 C258 1.416 . S
C256 C262 1.448 . S
C257 N254 1.334 . S
C257 C255 1.390 . S
C257 H268 0.930 . S
C258 C255 1.339 . S
C258 C256 1.416 . S
C258 H279 0.930 . S
C259 C260 1.413 . S
C259 C261 1.427 . S
C259 C265 1.416 . S
C260 C253 1.424 . S
C260 C259 1.413 . S
C260 N264 1.361 . S
C261 C259 1.427 . S
C261 C262 1.328 . S
C261 H276 0.929 . S
C262 C256 1.448 . S
C262 C261 1.328 . S
C262 H277 0.930 . S
Tb263 N254 2.617 . S
Tb263 N264 2.572 . S
Tb263 O298 2.349 . S
Tb263 O301 2.393 . S
Tb263 O302 2.465 . S
Tb263 O303 2.387 . S
Tb263 O305 2.428 . S
Tb263 O306 2.308 . S
Tb263 C327 2.802 . S
N264 C260 1.361 . S
N264 Tb263 2.572 . S
N264 C266 1.340 . S
C265 C259 1.416 . S
C265 C267 1.332 . S
C265 H273 0.931 . S
C266 N264 1.340 . S
C266 C267 1.407 . S
C266 H272 0.930 . S
C267 C265 1.332 . S
C267 C266 1.407 . S
C267 H269 0.929 . S
H268 C257 0.930 . S
H269 C267 0.929 . S
H270 C285 0.930 . S
H271 C292 0.929 . S
H272 C266 0.930 . S
H273 C265 0.931 . S
H274 C288 0.930 . S
H275 C255 0.930 . S
H276 C261 0.929 . S
H277 C262 0.930 . S
H278 C283 0.930 . S
H279 C258 0.930 . S
H280 C291 0.931 . S
N281 Tb252 2.617 . S
N281 C282 1.379 . S
N281 C285 1.334 . S
C282 N281 1.379 . S
C282 C284 1.416 . S
C282 C290 1.424 . S
C283 H278 0.930 . S
C283 C285 1.390 . S
C283 C286 1.339 . S
C284 C282 1.416 . S
C284 C286 1.416 . S
C284 C317 1.448 . S
C285 H270 0.930 . S
C285 N281 1.334 . S
C285 C283 1.390 . S
C286 C283 1.339 . S
C286 C284 1.416 . S
C286 H293 0.930 . S
N287 Tb252 2.572 . S
N287 C288 1.340 . S
N287 C290 1.361 . S
C288 H274 0.930 . S
C288 N287 1.340 . S
C288 C292 1.407 . S
C289 C290 1.413 . S
C289 C291 1.416 . S
C289 C318 1.427 . S
C290 C282 1.424 . S
C290 N287 1.361 . S
C290 C289 1.413 . S
C291 H280 0.931 . S
C291 C289 1.416 . S
C291 C292 1.332 . S
C292 H271 0.929 . S
C292 C288 1.407 . S
C292 C291 1.332 . S
H293 C286 0.930 . S
H294 C317 0.930 . S
H295 C318 0.929 . S
O296 Tb252 2.465 . S
O296 C316 1.264 . S
O297 Tb252 2.387 . S
O297 C308 1.264 . S
O298 Tb263 2.349 . S
O298 C308 1.243 . S
O299 Tb252 2.428 . S
O299 C316 1.256 . S
O300 Tb252 2.308 . S
O300 C315 1.266 . S
O301 Tb263 2.393 . S
O301 C315 1.248 . S
O302 Tb263 2.465 . S
O302 C327 1.264 . S
O303 Tb263 2.387 . S
O303 C319 1.264 . S
O304 Tb252 2.349 . S
O304 C319 1.243 . S
O305 Tb263 2.428 . S
O305 C327 1.256 . S
O306 Tb263 2.308 . S
O306 C326 1.266 . S
O307 Tb252 2.393 . S
O307 C326 1.248 . S
C308 O297 1.264 . S
C308 O298 1.243 . S
C309 C312 1.399 . S
C309 C314 1.383 . S
C309 C316 1.496 . S
C310 C311 1.399 . S
C310 C314 1.389 . S
C311 C310 1.399 . S
C311 C313 1.380 . S
C311 H328 0.929 . S
C312 C309 1.399 . S
C312 C313 1.392 . S
C312 H329 0.929 . S
C313 C311 1.380 . S
C313 C312 1.392 . S
C313 H330 0.929 . S
C314 C309 1.383 . S
C314 C310 1.389 . S
C314 H331 0.931 . S
C315 O300 1.266 . S
C315 O301 1.248 . S
C316 Tb252 2.802 . S
C316 O296 1.264 . S
C316 O299 1.256 . S
C316 C309 1.496 . S
C317 C284 1.448 . S
C317 H294 0.930 . S
C317 C318 1.328 . S
C318 C289 1.427 . S
C318 H295 0.929 . S
C318 C317 1.328 . S
C319 O303 1.264 . S
C319 O304 1.243 . S
C320 C323 1.399 . S
C320 C324 1.383 . S
C320 C327 1.496 . S
C321 C322 1.399 . S
C321 C324 1.389 . S
C322 C321 1.399 . S
C322 C325 1.380 . S
C322 H332 0.929 . S
C323 C320 1.399 . S
C323 C325 1.392 . S
C323 H333 0.929 . S
C324 C320 1.383 . S
C324 C321 1.389 . S
C324 H334 0.931 . S
C325 C322 1.380 . S
C325 C323 1.392 . S
C325 H335 0.929 . S
C326 O306 1.266 . S
C326 O307 1.248 . S
C327 Tb263 2.802 . S
C327 O302 1.264 . S
C327 O305 1.256 . S
C327 C320 1.496 . S
H328 C311 0.929 . S
H329 C312 0.929 . S
H330 C313 0.929 . S
H331 C314 0.931 . S
H332 C322 0.929 . S
H333 C323 0.929 . S
H334 C324 0.931 . S
H335 C325 0.929 . S
Tb336 N365 2.617 . S
Tb336 N371 2.572 . S
Tb336 O380 2.465 . S
Tb336 O381 2.387 . S
Tb336 O383 2.428 . S
Tb336 O384 2.308 . S
Tb336 O388 2.349 . S
Tb336 O391 2.393 . S
Tb336 C400 2.802 . S
C337 N338 1.379 . S
C337 C340 1.416 . S
C337 C344 1.424 . S
N338 C337 1.379 . S
N338 C341 1.334 . S
N338 Tb347 2.617 . S
C339 C341 1.390 . S
C339 C342 1.339 . S
C339 H359 0.930 . S
C340 C337 1.416 . S
C340 C342 1.416 . S
C340 C346 1.448 . S
C341 N338 1.334 . S
C341 C339 1.390 . S
C341 H352 0.930 . S
C342 C339 1.339 . S
C342 C340 1.416 . S
C342 H363 0.930 . S
C343 C344 1.413 . S
C343 C345 1.427 . S
C343 C349 1.416 . S
C344 C337 1.424 . S
C344 C343 1.413 . S
C344 N348 1.361 . S
C345 C343 1.427 . S
C345 C346 1.328 . S
C345 H360 0.929 . S
C346 C340 1.448 . S
C346 C345 1.328 . S
C346 H361 0.930 . S
Tb347 N338 2.617 . S
Tb347 N348 2.572 . S
Tb347 O382 2.349 . S
Tb347 O385 2.393 . S
Tb347 O386 2.465 . S
Tb347 O387 2.387 . S
Tb347 O389 2.428 . S
Tb347 O390 2.308 . S
Tb347 C411 2.802 . S
N348 C344 1.361 . S
N348 Tb347 2.572 . S
N348 C350 1.340 . S
C349 C343 1.416 . S
C349 C351 1.332 . S
C349 H357 0.931 . S
C350 N348 1.340 . S
C350 C351 1.407 . S
C350 H356 0.930 . S
C351 C349 1.332 . S
C351 C350 1.407 . S
C351 H353 0.929 . S
H352 C341 0.930 . S
H353 C351 0.929 . S
H354 C369 0.930 . S
H355 C376 0.929 . S
H356 C350 0.930 . S
H357 C349 0.931 . S
H358 C372 0.930 . S
H359 C339 0.930 . S
H360 C345 0.929 . S
H361 C346 0.930 . S
H362 C367 0.930 . S
H363 C342 0.930 . S
H364 C375 0.931 . S
N365 Tb336 2.617 . S
N365 C366 1.379 . S
N365 C369 1.334 . S
C366 N365 1.379 . S
C366 C368 1.432 . S
C366 C374 1.424 . S
C367 H362 0.930 . S
C367 C369 1.390 . S
C367 C370 1.339 . S
C368 C366 1.432 . S
C368 C370 1.418 . S
C368 C401 1.432 1_556 S
C369 H354 0.930 . S
C369 N365 1.334 . S
C369 C367 1.390 . S
C370 C367 1.339 . S
C370 C368 1.418 . S
C370 H377 0.930 1_556 S
N371 Tb336 2.572 . S
N371 C372 1.340 . S
N371 C374 1.361 . S
C372 H358 0.930 . S
C372 N371 1.340 . S
C372 C376 1.407 . S
C373 C374 1.413 1_554 S
C373 C375 1.416 . S
C373 C402 1.427 . S
C374 C366 1.424 . S
C374 N371 1.361 . S
C374 C373 1.413 1_556 S
C375 H364 0.931 . S
C375 C373 1.416 . S
C375 C376 1.332 1_554 S
C376 H355 0.929 . S
C376 C372 1.407 . S
C376 C375 1.332 1_556 S
H377 C370 0.930 1_554 S
H378 C401 0.930 . S
H379 C402 0.929 . S
O380 Tb336 2.465 . S
O380 C400 1.264 . S
O381 Tb336 2.387 . S
O381 C392 1.264 . S
O382 Tb347 2.349 . S
O382 C392 1.243 . S
O383 Tb336 2.428 . S
O383 C400 1.256 . S
O384 Tb336 2.308 . S
O384 C399 1.266 . S
O385 Tb347 2.393 . S
O385 C399 1.248 . S
O386 Tb347 2.465 . S
O386 C411 1.264 . S
O387 Tb347 2.387 . S
O387 C403 1.264 . S
O388 Tb336 2.349 . S
O388 C403 1.243 . S
O389 Tb347 2.428 . S
O389 C411 1.256 . S
O390 Tb347 2.308 . S
O390 C410 1.266 . S
O391 Tb336 2.393 . S
O391 C410 1.248 . S
C392 O381 1.264 . S
C392 O382 1.243 . S
C393 C396 1.399 . S
C393 C398 1.383 . S
C393 C400 1.496 . S
C394 C395 1.399 . S
C394 C398 1.389 . S
C395 C394 1.399 . S
C395 C397 1.380 . S
C395 H412 0.929 . S
C396 C393 1.399 . S
C396 C397 1.392 . S
C396 H413 0.929 . S
C397 C395 1.380 . S
C397 C396 1.392 . S
C397 H414 0.929 . S
C398 C393 1.383 . S
C398 C394 1.389 . S
C398 H415 0.931 . S
C399 O384 1.266 . S
C399 O385 1.248 . S
C400 Tb336 2.802 . S
C400 O380 1.264 . S
C400 O383 1.256 . S
C400 C393 1.496 . S
C401 C368 1.432 1_554 S
C401 H378 0.930 . S
C401 C402 1.328 . S
C402 C373 1.427 . S
C402 H379 0.929 . S
C402 C401 1.328 . S
C403 O387 1.264 . S
C403 O388 1.243 . S
C404 C407 1.399 . S
C404 C408 1.383 . S
C404 C411 1.496 . S
C405 C406 1.399 . S
C405 C408 1.389 1_545 S
C406 C405 1.399 . S
C406 C409 1.380 . S
C406 H416 0.929 . S
C407 C404 1.399 . S
C407 C409 1.392 1_565 S
C407 H417 0.929 . S
C408 C404 1.383 . S
C408 C405 1.389 1_565 S
C408 H418 0.931 . S
C409 C406 1.380 . S
C409 C407 1.392 1_545 S
C409 H419 0.929 . S
C410 O390 1.266 . S
C410 O391 1.248 . S
C411 Tb347 2.802 . S
C411 O386 1.264 . S
C411 O389 1.256 . S
C411 C404 1.496 . S
H412 C395 0.929 . S
H413 C396 0.929 . S
H414 C397 0.929 . S
H415 C398 0.931 . S
H416 C406 0.929 . S
H417 C407 0.929 . S
H418 C408 0.931 . S
H419 C409 0.929 . S
Tb420 N449 2.617 . S
Tb420 N455 2.572 . S
Tb420 O464 2.465 . S
Tb420 O465 2.387 . S
Tb420 O467 2.428 . S
Tb420 O468 2.308 . S
Tb420 O472 2.349 . S
Tb420 O475 2.393 . S
Tb420 C484 2.802 . S
C421 N422 1.379 . S
C421 C424 1.416 . S
C421 C428 1.424 . S
N422 C421 1.379 . S
N422 C425 1.334 . S
N422 Tb431 2.617 . S
C423 C425 1.390 . S
C423 C426 1.339 . S
C423 H443 0.930 . S
C424 C421 1.416 . S
C424 C426 1.416 . S
C424 C430 1.448 . S
C425 N422 1.334 . S
C425 C423 1.390 . S
C425 H436 0.930 . S
C426 C423 1.339 . S
C426 C424 1.416 . S
C426 H447 0.930 . S
C427 C428 1.413 . S
C427 C429 1.427 . S
C427 C433 1.416 . S
C428 C421 1.424 . S
C428 C427 1.413 . S
C428 N432 1.361 . S
C429 C427 1.427 . S
C429 C430 1.328 . S
C429 H444 0.929 . S
C430 C424 1.448 . S
C430 C429 1.328 . S
C430 H445 0.930 . S
Tb431 N422 2.617 . S
Tb431 N432 2.572 . S
Tb431 O466 2.349 . S
Tb431 O469 2.393 . S
Tb431 O470 2.465 . S
Tb431 O471 2.387 . S
Tb431 O473 2.428 . S
Tb431 O474 2.308 . S
Tb431 C495 2.802 . S
N432 C428 1.361 . S
N432 Tb431 2.572 . S
N432 C434 1.340 . S
C433 C427 1.416 . S
C433 C435 1.332 . S
C433 H441 0.931 . S
C434 N432 1.340 . S
C434 C435 1.407 . S
C434 H440 0.930 . S
C435 C433 1.332 . S
C435 C434 1.407 . S
C435 H437 0.929 . S
H436 C425 0.930 . S
H437 C435 0.929 . S
H438 C453 0.930 . S
H439 C460 0.929 . S
H440 C434 0.930 . S
H441 C433 0.931 . S
H442 C456 0.930 . S
H443 C423 0.930 . S
H444 C429 0.929 . S
H445 C430 0.930 . S
H446 C451 0.930 . S
H447 C426 0.930 . S
H448 C459 0.931 . S
N449 Tb420 2.617 . S
N449 C450 1.379 . S
N449 C453 1.334 . S
C450 N449 1.379 . S
C450 C452 1.416 . S
C450 C458 1.424 . S
C451 H446 0.930 . S
C451 C453 1.390 . S
C451 C454 1.339 . S
C452 C450 1.416 . S
C452 C454 1.416 . S
C452 C485 1.448 . S
C453 H438 0.930 . S
C453 N449 1.334 . S
C453 C451 1.390 . S
C454 C451 1.339 . S
C454 C452 1.416 . S
C454 H461 0.930 . S
N455 Tb420 2.572 . S
N455 C456 1.340 . S
N455 C458 1.361 . S
C456 H442 0.930 . S
C456 N455 1.340 . S
C456 C460 1.407 . S
C457 C458 1.413 . S
C457 C459 1.416 . S
C457 C486 1.427 . S
C458 C450 1.424 . S
C458 N455 1.361 . S
C458 C457 1.413 . S
C459 H448 0.931 . S
C459 C457 1.416 . S
C459 C460 1.332 . S
C460 H439 0.929 . S
C460 C456 1.407 . S
C460 C459 1.332 . S
H461 C454 0.930 . S
H462 C485 0.930 . S
H463 C486 0.929 . S
O464 Tb420 2.465 . S
O464 C484 1.264 . S
O465 Tb420 2.387 . S
O465 C476 1.264 . S
O466 Tb431 2.349 . S
O466 C476 1.243 . S
O467 Tb420 2.428 . S
O467 C484 1.256 . S
O468 Tb420 2.308 . S
O468 C483 1.266 . S
O469 Tb431 2.393 . S
O469 C483 1.248 . S
O470 Tb431 2.465 . S
O470 C495 1.264 . S
O471 Tb431 2.387 . S
O471 C487 1.264 . S
O472 Tb420 2.349 . S
O472 C487 1.243 . S
O473 Tb431 2.428 . S
O473 C495 1.256 . S
O474 Tb431 2.308 . S
O474 C494 1.266 . S
O475 Tb420 2.393 . S
O475 C494 1.248 . S
C476 O465 1.264 . S
C476 O466 1.243 . S
C477 C480 1.399 . S
C477 C482 1.383 . S
C477 C484 1.496 . S
C478 C479 1.399 1_655 S
C478 C482 1.389 . S
C479 C478 1.399 1_455 S
C479 C481 1.380 1_455 S
C479 H496 0.929 . S
C480 C477 1.399 . S
C480 C481 1.392 . S
C480 H497 0.929 . S
C481 C479 1.380 1_655 S
C481 C480 1.392 . S
C481 H498 0.929 1_655 S
C482 C477 1.383 . S
C482 C478 1.389 . S
C482 H499 0.931 . S
C483 O468 1.266 . S
C483 O469 1.248 . S
C484 Tb420 2.802 . S
C484 O464 1.264 . S
C484 O467 1.256 . S
C484 C477 1.496 . S
C485 C452 1.448 . S
C485 H462 0.930 . S
C485 C486 1.328 . S
C486 C457 1.427 . S
C486 H463 0.929 . S
C486 C485 1.328 . S
C487 O471 1.264 . S
C487 O472 1.243 . S
C488 C491 1.399 . S
C488 C492 1.383 . S
C488 C495 1.496 . S
C489 C490 1.399 . S
C489 C492 1.389 . S
C490 C489 1.399 . S
C490 C493 1.380 . S
C490 H500 0.929 . S
C491 C488 1.399 . S
C491 C493 1.392 . S
C491 H501 0.929 . S
C492 C488 1.383 . S
C492 C489 1.389 . S
C492 H502 0.931 . S
C493 C490 1.380 . S
C493 C491 1.392 . S
C493 H503 0.929 . S
C494 O474 1.266 . S
C494 O475 1.248 . S
C495 Tb431 2.802 . S
C495 O470 1.264 . S
C495 O473 1.256 . S
C495 C488 1.496 . S
H496 C479 0.929 . S
H497 C480 0.929 . S
H498 C481 0.929 1_455 S
H499 C482 0.931 . S
H500 C490 0.929 . S
H501 C491 0.929 . S
H502 C492 0.931 . S
H503 C493 0.929 . S
Tb504 N533 2.617 . S
Tb504 N539 2.572 . S
Tb504 O548 2.465 . S
Tb504 O549 2.387 . S
Tb504 O551 2.428 . S
Tb504 O552 2.308 . S
Tb504 O556 2.349 . S
Tb504 O559 2.393 . S
Tb504 C568 2.802 . S
C505 N506 1.379 . S
C505 C508 1.416 1_556 S
C505 C512 1.424 . S
N506 C505 1.379 . S
N506 C509 1.334 . S
N506 Tb515 2.617 . S
C507 C509 1.390 . S
C507 C510 1.339 1_556 S
C507 H527 0.930 . S
C508 C505 1.416 1_554 S
C508 C510 1.416 . S
C508 C514 1.448 . S
C509 N506 1.334 . S
C509 C507 1.390 . S
C509 H520 0.930 . S
C510 C507 1.339 1_554 S
C510 C508 1.416 . S
C510 H531 0.930 . S
C511 C512 1.413 1_554 S
C511 C513 1.427 . S
C511 C517 1.416 . S
C512 C505 1.424 . S
C512 C511 1.413 1_556 S
C512 N516 1.361 . S
C513 C511 1.427 . S
C513 C514 1.328 . S
C513 H528 0.929 . S
C514 C508 1.448 . S
C514 C513 1.328 . S
C514 H529 0.930 . S
Tb515 N506 2.617 . S
Tb515 N516 2.572 . S
Tb515 O550 2.349 . S
Tb515 O553 2.393 . S
Tb515 O554 2.465 . S
Tb515 O555 2.387 . S
Tb515 O557 2.428 . S
Tb515 O558 2.308 . S
Tb515 C579 2.802 . S
N516 C512 1.361 . S
N516 Tb515 2.572 . S
N516 C518 1.340 . S
C517 C511 1.416 . S
C517 C519 1.332 1_454 S
C517 H525 0.931 1_455 S
C518 N516 1.340 . S
C518 C519 1.407 1_455 S
C518 H524 0.930 1_455 S
C519 C517 1.332 1_656 S
C519 C518 1.407 1_655 S
C519 H521 0.929 . S
H520 C509 0.930 . S
H521 C519 0.929 . S
H522 C537 0.930 . S
H523 C544 0.929 . S
H524 C518 0.930 1_655 S
H525 C517 0.931 1_655 S
H526 C540 0.930 . S
H527 C507 0.930 . S
H528 C513 0.929 . S
H529 C514 0.930 . S
H530 C535 0.930 . S
H531 C510 0.930 . S
H532 C543 0.931 . S
N533 Tb504 2.617 . S
N533 C534 1.379 . S
N533 C537 1.334 1_455 S
C534 N533 1.379 . S
C534 C536 1.416 . S
C534 C542 1.424 . S
C535 H530 0.930 . S
C535 C537 1.390 . S
C535 C538 1.339 . S
C536 C534 1.416 . S
C536 C538 1.416 1_455 S
C536 C569 1.448 . S
C537 H522 0.930 . S
C537 N533 1.334 1_655 S
C537 C535 1.390 . S
C538 C535 1.339 . S
C538 C536 1.416 1_655 S
C538 H545 0.930 . S
N539 Tb504 2.572 . S
N539 C540 1.340 . S
N539 C542 1.361 . S
C540 H526 0.930 . S
C540 N539 1.340 . S
C540 C544 1.407 . S
C541 C542 1.413 . S
C541 C543 1.416 . S
C541 C570 1.427 . S
C542 C534 1.424 . S
C542 N539 1.361 . S
C542 C541 1.413 . S
C543 H532 0.931 . S
C543 C541 1.416 . S
C543 C544 1.332 . S
C544 H523 0.929 . S
C544 C540 1.407 . S
C544 C543 1.332 . S
H545 C538 0.930 . S
H546 C569 0.930 . S
H547 C570 0.929 . S
O548 Tb504 2.465 . S
O548 C568 1.264 . S
O549 Tb504 2.387 . S
O549 C560 1.264 . S
O550 Tb515 2.349 . S
O550 C560 1.243 . S
O551 Tb504 2.428 . S
O551 C568 1.256 . S
O552 Tb504 2.308 . S
O552 C567 1.266 . S
O553 Tb515 2.393 . S
O553 C567 1.248 . S
O554 Tb515 2.465 . S
O554 C579 1.264 . S
O555 Tb515 2.387 . S
O555 C571 1.264 . S
O556 Tb504 2.349 . S
O556 C571 1.243 . S
O557 Tb515 2.428 . S
O557 C579 1.256 . S
O558 Tb515 2.308 . S
O558 C578 1.266 1_455 S
O559 Tb504 2.393 . S
O559 C578 1.248 1_455 S
C560 O549 1.264 . S
C560 O550 1.243 . S
C561 C564 1.399 . S
C561 C566 1.383 1_565 S
C561 C568 1.496 . S
C562 C563 1.399 . S
C562 C566 1.389 . S
C563 C562 1.399 . S
C563 C565 1.380 . S
C563 H580 0.929 . S
C564 C561 1.399 . S
C564 C565 1.392 1_565 S
C564 H581 0.929 . S
C565 C563 1.380 . S
C565 C564 1.392 1_545 S
C565 H582 0.929 . S
C566 C561 1.383 1_545 S
C566 C562 1.389 . S
C566 H583 0.931 1_545 S
C567 O552 1.266 . S
C567 O553 1.248 . S
C568 Tb504 2.802 . S
C568 O548 1.264 . S
C568 O551 1.256 . S
C568 C561 1.496 . S
C569 C536 1.448 . S
C569 H546 0.930 . S
C569 C570 1.328 . S
C570 C541 1.427 . S
C570 H547 0.929 . S
C570 C569 1.328 . S
C571 O555 1.264 . S
C571 O556 1.243 . S
C572 C575 1.399 . S
C572 C576 1.383 . S
C572 C579 1.496 . S
C573 C574 1.399 1_655 S
C573 C576 1.389 1_655 S
C574 C573 1.399 1_455 S
C574 C577 1.380 . S
C574 H584 0.929 . S
C575 C572 1.399 . S
C575 C577 1.392 . S
C575 H585 0.929 . S
C576 C572 1.383 . S
C576 C573 1.389 1_455 S
C576 H586 0.931 1_455 S
C577 C574 1.380 . S
C577 C575 1.392 . S
C577 H587 0.929 . S
C578 O558 1.266 1_655 S
C578 O559 1.248 1_655 S
C579 Tb515 2.802 . S
C579 O554 1.264 . S
C579 O557 1.256 . S
C579 C572 1.496 . S
H580 C563 0.929 . S
H581 C564 0.929 . S
H582 C565 0.929 . S
H583 C566 0.931 1_565 S
H584 C574 0.929 . S
H585 C575 0.929 . S
H586 C576 0.931 1_655 S
H587 C577 0.929 . S
Tb588 N617 2.617 . S
Tb588 N623 2.572 . S
Tb588 O632 2.465 . S
Tb588 O633 2.387 . S
Tb588 O635 2.428 . S
Tb588 O636 2.308 . S
Tb588 O640 2.349 1_545 S
Tb588 O643 2.393 . S
Tb588 C652 2.802 . S
C589 N590 1.379 . S
C589 C592 1.416 . S
C589 C596 1.424 . S
N590 C589 1.379 . S
N590 C593 1.334 . S
N590 Tb599 2.617 1_565 S
C591 C593 1.390 . S
C591 C594 1.339 . S
C591 H611 0.930 . S
C592 C589 1.416 . S
C592 C594 1.416 . S
C592 C598 1.448 . S
C593 N590 1.334 . S
C593 C591 1.390 . S
C593 H604 0.930 1_565 S
C594 C591 1.339 . S
C594 C592 1.416 . S
C594 H615 0.930 . S
C595 C596 1.413 . S
C595 C597 1.427 . S
C595 C601 1.416 . S
C596 C589 1.424 . S
C596 C595 1.413 . S
C596 N600 1.361 . S
C597 C595 1.427 . S
C597 C598 1.328 . S
C597 H612 0.929 . S
C598 C592 1.448 . S
C598 C597 1.328 . S
C598 H613 0.930 . S
Tb599 N590 2.617 1_545 S
Tb599 N600 2.572 1_545 S
Tb599 O634 2.349 . S
Tb599 O637 2.393 . S
Tb599 O638 2.465 . S
Tb599 O639 2.387 1_545 S
Tb599 O641 2.428 . S
Tb599 O642 2.308 . S
Tb599 C663 2.802 . S
N600 C596 1.361 . S
N600 Tb599 2.572 1_565 S
N600 C602 1.340 . S
C601 C595 1.416 . S
C601 C603 1.332 . S
C601 H609 0.931 . S
C602 N600 1.340 . S
C602 C603 1.407 . S
C602 H608 0.930 . S
C603 C601 1.332 . S
C603 C602 1.407 . S
C603 H605 0.929 . S
H604 C593 0.930 1_545 S
H605 C603 0.929 . S
H606 C621 0.930 . S
H607 C628 0.929 . S
H608 C602 0.930 . S
H609 C601 0.931 . S
H610 C624 0.930 . S
H611 C591 0.930 . S
H612 C597 0.929 . S
H613 C598 0.930 . S
H614 C619 0.930 . S
H615 C594 0.930 . S
H616 C627 0.931 . S
N617 Tb588 2.617 . S
N617 C618 1.379 . S
N617 C621 1.334 . S
C618 N617 1.379 . S
C618 C620 1.416 . S
C618 C626 1.424 . S
C619 H614 0.930 . S
C619 C621 1.390 . S
C619 C622 1.339 . S
C620 C618 1.416 . S
C620 C622 1.416 . S
C620 C653 1.448 . S
C621 H606 0.930 . S
C621 N617 1.334 . S
C621 C619 1.390 . S
C622 C619 1.339 . S
C622 C620 1.416 . S
C622 H629 0.930 . S
N623 Tb588 2.572 . S
N623 C624 1.340 . S
N623 C626 1.361 . S
C624 H610 0.930 . S
C624 N623 1.340 . S
C624 C628 1.407 . S
C625 C626 1.413 . S
C625 C627 1.416 . S
C625 C654 1.427 . S
C626 C618 1.424 . S
C626 N623 1.361 . S
C626 C625 1.413 . S
C627 H616 0.931 . S
C627 C625 1.416 . S
C627 C628 1.332 . S
C628 H607 0.929 . S
C628 C624 1.407 . S
C628 C627 1.332 . S
H629 C622 0.930 . S
H630 C653 0.930 . S
H631 C654 0.929 . S
O632 Tb588 2.465 . S
O632 C652 1.264 . S
O633 Tb588 2.387 . S
O633 C644 1.264 . S
O634 Tb599 2.349 . S
O634 C644 1.243 . S
O635 Tb588 2.428 . S
O635 C652 1.256 . S
O636 Tb588 2.308 . S
O636 C651 1.266 . S
O637 Tb599 2.393 . S
O637 C651 1.248 . S
O638 Tb599 2.465 . S
O638 C663 1.264 . S
O639 Tb599 2.387 1_565 S
O639 C655 1.264 . S
O640 Tb588 2.349 1_565 S
O640 C655 1.243 . S
O641 Tb599 2.428 . S
O641 C663 1.256 . S
O642 Tb599 2.308 . S
O642 C662 1.266 . S
O643 Tb588 2.393 . S
O643 C662 1.248 . S
C644 O633 1.264 . S
C644 O634 1.243 . S
C645 C648 1.399 . S
C645 C650 1.383 . S
C645 C652 1.496 . S
C646 C647 1.399 . S
C646 C650 1.389 . S
C647 C646 1.399 . S
C647 C649 1.380 . S
C647 H664 0.929 1_545 S
C648 C645 1.399 . S
C648 C649 1.392 . S
C648 H665 0.929 . S
C649 C647 1.380 . S
C649 C648 1.392 . S
C649 H666 0.929 . S
C650 C645 1.383 . S
C650 C646 1.389 . S
C650 H667 0.931 . S
C651 O636 1.266 . S
C651 O637 1.248 . S
C652 Tb588 2.802 . S
C652 O632 1.264 . S
C652 O635 1.256 . S
C652 C645 1.496 . S
C653 C620 1.448 . S
C653 H630 0.930 . S
C653 C654 1.328 . S
C654 C625 1.427 . S
C654 H631 0.929 . S
C654 C653 1.328 . S
C655 O639 1.264 . S
C655 O640 1.243 . S
C656 C659 1.399 . S
C656 C660 1.383 . S
C656 C663 1.496 . S
C657 C658 1.399 . S
C657 C660 1.389 . S
C658 C657 1.399 . S
C658 C661 1.380 . S
C658 H668 0.929 . S
C659 C656 1.399 . S
C659 C661 1.392 . S
C659 H669 0.929 . S
C660 C656 1.383 . S
C660 C657 1.389 . S
C660 H670 0.931 . S
C661 C658 1.380 . S
C661 C659 1.392 . S
C661 H671 0.929 . S
C662 O642 1.266 . S
C662 O643 1.248 . S
C663 Tb599 2.802 . S
C663 O638 1.264 . S
C663 O641 1.256 . S
C663 C656 1.496 . S
H664 C647 0.929 1_565 S
H665 C648 0.929 . S
H666 C649 0.929 . S
H667 C650 0.931 . S
H668 C658 0.929 . S
H669 C659 0.929 . S
H670 C660 0.931 . S
H671 C661 0.929 . S
C672 C673 1.349 . S
C672 C674 1.327 . S
C672 H697 0.950 1_545 S
C673 C672 1.349 . S
C673 C689 1.349 . S
C674 C672 1.327 . S
C674 C693 1.429 . S
C674 H698 0.950 . S
C675 C692 1.574 . S
C675 C694 1.368 . S
C675 H699 0.949 . S
H676 C680 0.949 . S
C677 C678 1.349 . S
C677 C679 1.327 . S
C677 H700 0.950 . S
C678 C677 1.349 . S
C678 C690 1.349 . S
C679 C677 1.327 . S
C679 C695 1.429 . S
C679 H701 0.950 . S
C680 H676 0.949 . S
C680 C688 1.574 . S
C680 C696 1.368 . S
H681 C689 0.950 . S
H682 C687 0.950 . S
H683 C688 0.949 . S
H684 C690 0.950 . S
H685 C691 0.950 . S
H686 C692 0.949 . S
C687 H682 0.950 . S
C687 C689 1.327 . S
C687 C693 1.429 . S
C688 C680 1.574 . S
C688 H683 0.949 . S
C688 C694 1.368 . S
C689 C673 1.349 . S
C689 H681 0.950 . S
C689 C687 1.327 . S
C690 C678 1.349 . S
C690 H684 0.950 . S
C690 C691 1.327 . S
C691 H685 0.950 . S
C691 C690 1.327 . S
C691 C695 1.429 . S
C692 C675 1.574 . S
C692 H686 0.949 . S
C692 C696 1.368 . S
C693 C674 1.429 . S
C693 C687 1.429 . S
C693 C694 1.523 . S
C694 C675 1.368 . S
C694 C688 1.368 . S
C694 C693 1.523 . S
C695 C679 1.429 . S
C695 C691 1.429 . S
C695 C696 1.523 . S
C696 C680 1.368 . S
C696 C692 1.368 . S
C696 C695 1.523 . S
H697 C672 0.950 1_565 S
H698 C674 0.950 . S
H699 C675 0.949 . S
H700 C677 0.950 . S
H701 C679 0.950 . S
C702 C703 1.349 . S
C702 C704 1.327 . S
C702 H727 0.950 . S
C703 C702 1.349 . S
C703 C719 1.349 . S
C704 C702 1.327 . S
C704 C723 1.429 . S
C704 H728 0.950 . S
C705 C722 1.574 . S
C705 C724 1.368 . S
C705 H729 0.949 . S
H706 C710 0.949 . S
C707 C708 1.346 1_565 S
C707 C709 1.327 1_565 S
C707 H730 0.950 . S
C708 C707 1.346 1_545 S
C708 C720 1.368 . S
C709 C707 1.327 1_545 S
C709 C725 1.429 . S
C709 H731 0.950 . S
C710 H706 0.949 . S
C710 C718 1.574 . S
C710 C726 1.368 . S
H711 C719 0.950 . S
H712 C717 0.950 . S
H713 C718 0.949 . S
H714 C720 0.950 . S
H715 C721 0.950 . S
H716 C722 0.949 . S
C717 H712 0.950 . S
C717 C719 1.327 . S
C717 C723 1.429 . S
C718 C710 1.574 . S
C718 H713 0.949 . S
C718 C724 1.368 . S
C719 C703 1.349 . S
C719 H711 0.950 . S
C719 C717 1.327 . S
C720 C708 1.368 . S
C720 H714 0.950 . S
C720 C721 1.327 . S
C721 H715 0.950 . S
C721 C720 1.327 . S
C721 C725 1.429 . S
C722 C705 1.574 . S
C722 H716 0.949 . S
C722 C726 1.368 . S
C723 C704 1.429 . S
C723 C717 1.429 . S
C723 C724 1.523 . S
C724 C705 1.368 . S
C724 C718 1.368 . S
C724 C723 1.523 . S
C725 C709 1.429 . S
C725 C721 1.429 . S
C725 C726 1.523 . S
C726 C710 1.368 . S
C726 C722 1.368 . S
C726 C725 1.523 . S
H727 C702 0.950 . S
H728 C704 0.950 . S
H729 C705 0.949 . S
H730 C707 0.950 . S
H731 C709 0.950 . S
C732 C733 1.349 . S
C732 C734 1.327 . S
C732 H757 0.950 . S
C733 C732 1.349 . S
C733 C749 1.349 . S
C734 C732 1.327 . S
C734 C753 1.429 . S
C734 H758 0.950 . S
C735 C752 1.574 . S
C735 C754 1.368 . S
C735 H759 0.949 . S
H736 C740 0.949 . S
C737 C738 1.349 . S
C737 C739 1.327 . S
C737 H760 0.950 . S
C738 C737 1.349 . S
C738 C750 1.349 . S
C739 C737 1.327 . S
C739 C755 1.429 . S
C739 H761 0.950 . S
C740 H736 0.949 . S
C740 C748 1.574 . S
C740 C756 1.368 . S
H741 C749 0.950 . S
H742 C747 0.950 . S
H743 C748 0.949 . S
H744 C750 0.950 . S
H745 C751 0.950 . S
H746 C752 0.949 . S
C747 H742 0.950 . S
C747 C749 1.327 . S
C747 C753 1.429 . S
C748 C740 1.574 . S
C748 H743 0.949 . S
C748 C754 1.368 . S
C749 C733 1.349 . S
C749 H741 0.950 . S
C749 C747 1.327 . S
C750 C738 1.349 . S
C750 H744 0.950 . S
C750 C751 1.327 . S
C751 H745 0.950 . S
C751 C750 1.327 . S
C751 C755 1.429 . S
C752 C735 1.574 . S
C752 H746 0.949 . S
C752 C756 1.368 . S
C753 C734 1.429 . S
C753 C747 1.429 . S
C753 C754 1.523 . S
C754 C735 1.368 . S
C754 C748 1.368 . S
C754 C753 1.523 . S
C755 C739 1.429 . S
C755 C751 1.429 . S
C755 C756 1.523 . S
C756 C740 1.368 . S
C756 C752 1.368 . S
C756 C755 1.523 . S
H757 C732 0.950 . S
H758 C734 0.950 . S
H759 C735 0.949 . S
H760 C737 0.950 . S
H761 C739 0.950 . S
C762 C763 1.349 . S
C762 C764 1.327 . S
C762 H787 0.950 . S
C763 C762 1.349 . S
C763 C779 1.349 . S
C764 C762 1.327 . S
C764 C783 1.429 . S
C764 H788 0.950 . S
C765 C782 1.574 . S
C765 C784 1.368 . S
C765 H789 0.949 . S
H766 C770 0.949 . S
C767 C768 1.349 . S
C767 C769 1.327 . S
C767 H790 0.950 . S
C768 C767 1.349 . S
C768 C780 1.349 . S
C769 C767 1.327 . S
C769 C785 1.429 . S
C769 H791 0.950 . S
C770 H766 0.949 . S
C770 C778 1.574 . S
C770 C786 1.368 . S
H771 C779 0.950 . S
H772 C777 0.950 . S
H773 C778 0.949 . S
H774 C780 0.950 . S
H775 C781 0.950 . S
H776 C782 0.949 . S
C777 H772 0.950 . S
C777 C779 1.327 . S
C777 C783 1.429 . S
C778 C770 1.574 . S
C778 H773 0.949 . S
C778 C784 1.368 . S
C779 C763 1.349 . S
C779 H771 0.950 . S
C779 C777 1.327 . S
C780 C768 1.349 . S
C780 H774 0.950 . S
C780 C781 1.327 . S
C781 H775 0.950 . S
C781 C780 1.327 . S
C781 C785 1.429 . S
C782 C765 1.574 . S
C782 H776 0.949 . S
C782 C786 1.368 . S
C783 C764 1.429 . S
C783 C777 1.429 . S
C783 C784 1.523 . S
C784 C765 1.368 . S
C784 C778 1.368 . S
C784 C783 1.523 . S
C785 C769 1.429 . S
C785 C781 1.429 . S
C785 C786 1.523 . S
C786 C770 1.368 . S
C786 C782 1.368 . S
C786 C785 1.523 . S
H787 C762 0.950 . S
H788 C764 0.950 . S
H789 C765 0.949 . S
H790 C767 0.950 . S
H791 C769 0.950 . S
C792 C793 1.349 . S
C792 C794 1.327 . S
C792 H817 0.950 . S
C793 C792 1.349 . S
C793 C809 1.349 . S
C794 C792 1.327 . S
C794 C813 1.429 . S
C794 H818 0.950 . S
C795 C812 1.574 . S
C795 C814 1.368 . S
C795 H819 0.949 . S
H796 C800 0.949 . S
C797 C798 1.349 . S
C797 C799 1.327 . S
C797 H820 0.950 . S
C798 C797 1.349 . S
C798 C810 1.349 . S
C799 C797 1.327 . S
C799 C815 1.429 . S
C799 H821 0.950 . S
C800 H796 0.949 . S
C800 C808 1.574 . S
C800 C816 1.368 . S
H801 C809 0.950 . S
H802 C807 0.950 . S
H803 C808 0.949 . S
H804 C810 0.950 . S
H805 C811 0.950 . S
H806 C812 0.949 . S
C807 H802 0.950 . S
C807 C809 1.327 . S
C807 C813 1.429 . S
C808 C800 1.574 . S
C808 H803 0.949 . S
C808 C814 1.368 . S
C809 C793 1.349 . S
C809 H801 0.950 . S
C809 C807 1.327 . S
C810 C798 1.349 . S
C810 H804 0.950 . S
C810 C811 1.327 . S
C811 H805 0.950 . S
C811 C810 1.327 . S
C811 C815 1.429 . S
C812 C795 1.574 . S
C812 H806 0.949 . S
C812 C816 1.368 . S
C813 C794 1.429 . S
C813 C807 1.429 . S
C813 C814 1.523 . S
C814 C795 1.368 . S
C814 C808 1.368 . S
C814 C813 1.523 . S
C815 C799 1.429 . S
C815 C811 1.429 . S
C815 C816 1.523 . S
C816 C800 1.368 . S
C816 C812 1.368 . S
C816 C815 1.523 . S
H817 C792 0.950 . S
H818 C794 0.950 . S
H819 C795 0.949 . S
H820 C797 0.950 . S
H821 C799 0.950 . S
C822 C823 1.349 . S
C822 C824 1.327 . S
C822 H847 0.950 . S
C823 C822 1.349 . S
C823 C839 1.349 . S
C824 C822 1.327 . S
C824 C843 1.429 . S
C824 H848 0.950 . S
C825 C842 1.574 . S
C825 C844 1.368 . S
C825 H849 0.949 . S
H826 C830 0.949 . S
C827 C828 1.349 . S
C827 C829 1.327 . S
C827 H850 0.950 . S
C828 C827 1.349 . S
C828 C840 1.349 . S
C829 C827 1.327 . S
C829 C845 1.429 . S
C829 H851 0.950 . S
C830 H826 0.949 . S
C830 C838 1.574 . S
C830 C846 1.368 . S
H831 C839 0.950 . S
H832 C837 0.950 . S
H833 C838 0.949 . S
H834 C840 0.950 . S
H835 C841 0.950 . S
H836 C842 0.949 . S
C837 H832 0.950 . S
C837 C839 1.327 . S
C837 C843 1.429 . S
C838 C830 1.574 . S
C838 H833 0.949 . S
C838 C844 1.368 . S
C839 C823 1.349 . S
C839 H831 0.950 . S
C839 C837 1.327 . S
C840 C828 1.349 . S
C840 H834 0.950 . S
C840 C841 1.327 . S
C841 H835 0.950 . S
C841 C840 1.327 . S
C841 C845 1.429 . S
C842 C825 1.574 . S
C842 H836 0.949 . S
C842 C846 1.368 . S
C843 C824 1.429 . S
C843 C837 1.429 . S
C843 C844 1.523 . S
C844 C825 1.368 . S
C844 C838 1.368 . S
C844 C843 1.523 . S
C845 C829 1.429 . S
C845 C841 1.429 . S
C845 C846 1.523 . S
C846 C830 1.368 . S
C846 C842 1.368 . S
C846 C845 1.523 . S
H847 C822 0.950 . S
H848 C824 0.950 . S
H849 C825 0.949 . S
H850 C827 0.950 . S
H851 C829 0.950 . S
C852 C853 1.349 . S
C852 C854 1.327 . S
C852 H877 0.950 . S
C853 C852 1.349 . S
C853 C869 1.349 . S
C854 C852 1.327 . S
C854 C873 1.429 . S
C854 H878 0.950 . S
C855 C872 1.574 . S
C855 C874 1.368 . S
C855 H879 0.949 . S
H856 C860 0.949 . S
C857 C858 1.349 . S
C857 C859 1.327 . S
C857 H880 0.950 . S
C858 C857 1.349 . S
C858 C870 1.349 . S
C859 C857 1.327 . S
C859 C875 1.429 . S
C859 H881 0.950 . S
C860 H856 0.949 . S
C860 C868 1.574 . S
C860 C876 1.368 . S
H861 C869 0.950 . S
H862 C867 0.950 . S
H863 C868 0.949 . S
H864 C870 0.950 . S
H865 C871 0.950 . S
H866 C872 0.949 . S
C867 H862 0.950 . S
C867 C869 1.327 . S
C867 C873 1.429 . S
C868 C860 1.574 . S
C868 H863 0.949 . S
C868 C874 1.368 . S
C869 C853 1.349 . S
C869 H861 0.950 . S
C869 C867 1.327 . S
C870 C858 1.349 . S
C870 H864 0.950 . S
C870 C871 1.327 . S
C871 H865 0.950 . S
C871 C870 1.327 . S
C871 C875 1.429 . S
C872 C855 1.574 . S
C872 H866 0.949 . S
C872 C876 1.368 . S
C873 C854 1.429 . S
C873 C867 1.429 . S
C873 C874 1.523 . S
C874 C855 1.368 . S
C874 C868 1.368 . S
C874 C873 1.523 . S
C875 C859 1.429 . S
C875 C871 1.429 . S
C875 C876 1.523 . S
C876 C860 1.368 . S
C876 C872 1.368 . S
C876 C875 1.523 . S
H877 C852 0.950 . S
H878 C854 0.950 . S
H879 C855 0.949 . S
H880 C857 0.950 . S
H881 C859 0.950 . S
C882 C883 1.349 1_455 S
C882 C884 1.327 . S
C882 H907 0.950 . S
C883 C882 1.349 1_655 S
C883 C899 1.349 . S
C884 C882 1.327 . S
C884 C903 1.429 . S
C884 H908 0.950 . S
C885 C902 1.574 . S
C885 C904 1.368 1_655 S
C885 H909 0.949 . S
H886 C890 0.949 . S
C887 C888 1.349 . S
C887 C889 1.327 . S
C887 H910 0.950 . S
C888 C887 1.349 . S
C888 C900 1.349 . S
C889 C887 1.327 . S
C889 C905 1.429 . S
C889 H911 0.950 1_455 S
C890 H886 0.949 . S
C890 C898 1.574 . S
C890 C906 1.368 . S
H891 C899 0.950 . S
H892 C897 0.950 . S
H893 C898 0.949 . S
H894 C900 0.950 . S
H895 C901 0.950 . S
H896 C902 0.949 . S
C897 H892 0.950 . S
C897 C899 1.327 . S
C897 C903 1.429 1_655 S
C898 C890 1.574 . S
C898 H893 0.949 . S
C898 C904 1.368 . S
C899 C883 1.349 . S
C899 H891 0.950 . S
C899 C897 1.327 . S
C900 C888 1.349 . S
C900 H894 0.950 . S
C900 C901 1.327 . S
C901 H895 0.950 . S
C901 C900 1.327 . S
C901 C905 1.429 . S
C902 C885 1.574 . S
C902 H896 0.949 . S
C902 C906 1.368 1_655 S
C903 C884 1.429 . S
C903 C897 1.429 1_455 S
C903 C904 1.523 . S
C904 C885 1.368 1_455 S
C904 C898 1.368 . S
C904 C903 1.523 . S
C905 C889 1.429 . S
C905 C901 1.429 . S
C905 C906 1.523 . S
C906 C890 1.368 . S
C906 C902 1.368 1_455 S
C906 C905 1.523 . S
H907 C882 0.950 . S
H908 C884 0.950 . S
H909 C885 0.949 . S
H910 C887 0.950 . S
H911 C889 0.950 1_655 S
C912 C913 1.349 . S
C912 C914 1.327 1_565 S
C912 H937 0.950 . S
C913 C912 1.349 . S
C913 C929 1.349 . S
C914 C912 1.327 1_545 S
C914 C933 1.429 . S
C914 H938 0.950 . S
C915 C932 1.574 . S
C915 C934 1.368 1_554 S
C915 H939 0.949 . S
H916 C920 0.949 . S
C917 C918 1.349 . S
C917 C919 1.327 . S
C917 H940 0.950 . S
C918 C917 1.349 . S
C918 C930 1.349 . S
C919 C917 1.327 . S
C919 C935 1.429 . S
C919 H941 0.950 . S
C920 H916 0.949 . S
C920 C928 1.574 . S
C920 C936 1.368 1_556 S
H921 C929 0.950 . S
H922 C927 0.950 . S
H923 C928 0.949 . S
H924 C930 0.950 . S
H925 C931 0.950 . S
H926 C932 0.949 . S
C927 H922 0.950 . S
C927 C929 1.327 . S
C927 C933 1.429 1_565 S
C928 C920 1.574 . S
C928 H923 0.949 . S
C928 C934 1.368 . S
C929 C913 1.349 . S
C929 H921 0.950 . S
C929 C927 1.327 . S
C930 C918 1.349 . S
C930 H924 0.950 . S
C930 C931 1.327 . S
C931 H925 0.950 . S
C931 C930 1.327 . S
C931 C935 1.429 . S
C932 C915 1.574 . S
C932 H926 0.949 . S
C932 C936 1.368 . S
C933 C914 1.429 . S
C933 C927 1.429 1_545 S
C933 C934 1.523 . S
C934 C915 1.368 1_556 S
C934 C928 1.368 . S
C934 C933 1.523 . S
C935 C919 1.429 . S
C935 C931 1.429 . S
C935 C936 1.523 . S
C936 C920 1.368 1_554 S
C936 C932 1.368 . S
C936 C935 1.523 . S
H937 C912 0.950 . S
H938 C914 0.950 . S
H939 C915 0.949 . S
H940 C917 0.950 . S
H941 C919 0.950 . S
C942 C943 1.349 . S
C942 C944 1.327 . S
C942 H967 0.950 . S
C943 C942 1.349 . S
C943 C959 1.349 . S
C944 C942 1.327 . S
C944 C963 1.429 . S
C944 H968 0.950 . S
C945 C962 1.574 . S
C945 C964 1.368 . S
C945 H969 0.949 . S
H946 C950 0.949 . S
C947 C948 1.349 . S
C947 C949 1.327 . S
C947 H970 0.950 . S
C948 C947 1.349 . S
C948 C960 1.349 . S
C949 C947 1.327 . S
C949 C965 1.429 . S
C949 H971 0.950 . S
C950 H946 0.949 . S
C950 C958 1.574 . S
C950 C966 1.368 . S
H951 C959 0.950 . S
H952 C957 0.950 . S
H953 C958 0.949 . S
H954 C960 0.948 . S
H955 C961 0.950 . S
H956 C962 0.949 . S
C957 H952 0.950 . S
C957 C959 1.327 . S
C957 C963 1.429 . S
C958 C950 1.574 . S
C958 H953 0.949 . S
C958 C964 1.368 . S
C959 C943 1.349 . S
C959 H951 0.950 . S
C959 C957 1.327 . S
C960 C948 1.349 . S
C960 H954 0.948 . S
C960 C961 1.327 . S
C961 H955 0.950 . S
C961 C960 1.327 . S
C961 C965 1.429 . S
C962 C945 1.574 . S
C962 H956 0.949 . S
C962 C966 1.368 . S
C963 C944 1.429 . S
C963 C957 1.429 . S
C963 C964 1.523 . S
C964 C945 1.368 . S
C964 C958 1.368 . S
C964 C963 1.523 . S
C965 C949 1.429 . S
C965 C961 1.429 . S
C965 C966 1.523 . S
C966 C950 1.368 . S
C966 C962 1.368 . S
C966 C965 1.523 . S
H967 C942 0.950 . S
H968 C944 0.950 . S
H969 C945 0.949 . S
H970 C947 0.950 . S
H971 C949 0.950 . S
C972 C973 1.349 . S
C972 C974 1.327 . S
C972 H997 0.950 . S
C973 C972 1.349 . S
C973 C989 1.349 . S
C974 C972 1.327 . S
C974 C993 1.429 . S
C974 H998 0.950 1_556 S
C975 C992 1.574 . S
C975 C994 1.368 . S
C975 H999 0.949 . S
H976 C980 0.949 . S
C977 C978 1.349 . S
C977 C979 1.327 . S
C977 H1000 0.950 . S
C978 C977 1.349 . S
C978 C990 1.349 . S
C979 C977 1.327 . S
C979 C995 1.429 . S
C979 H1001 0.950 1_554 S
C980 H976 0.949 . S
C980 C988 1.574 . S
C980 C996 1.368 . S
H981 C989 0.950 . S
H982 C987 0.950 . S
H983 C988 0.949 . S
H984 C990 0.950 . S
H985 C991 0.950 . S
H986 C992 0.949 . S
C987 H982 0.950 . S
C987 C989 1.327 . S
C987 C993 1.429 . S
C988 C980 1.574 . S
C988 H983 0.949 . S
C988 C994 1.368 1_554 S
C989 C973 1.349 . S
C989 H981 0.950 . S
C989 C987 1.327 . S
C990 C978 1.349 . S
C990 H984 0.950 . S
C990 C991 1.327 . S
C991 H985 0.950 . S
C991 C990 1.327 . S
C991 C995 1.429 . S
C992 C975 1.574 . S
C992 H986 0.949 . S
C992 C996 1.368 1_556 S
C993 C974 1.429 . S
C993 C987 1.429 . S
C993 C994 1.523 . S
C994 C975 1.368 . S
C994 C988 1.368 1_556 S
C994 C993 1.523 . S
C995 C979 1.429 . S
C995 C991 1.429 . S
C995 C996 1.523 . S
C996 C980 1.368 . S
C996 C992 1.368 1_554 S
C996 C995 1.523 . S
H997 C972 0.950 . S
H998 C974 0.950 1_554 S
H999 C975 0.949 . S
H1000 C977 0.950 . S
H1001 C979 0.950 1_556 S
C1002 C1003 1.349 . S
C1002 C1004 1.327 . S
C1002 H1027 0.950 . S
C1003 C1002 1.349 . S
C1003 C1019 1.349 . S
C1004 C1002 1.327 . S
C1004 C1023 1.429 . S
C1004 H1028 0.950 . S
C1005 C1022 1.574 . S
C1005 C1024 1.368 . S
C1005 H1029 0.949 . S
H1006 C1010 0.949 1_655 S
C1007 C1008 1.349 . S
C1007 C1009 1.327 1_655 S
C1007 H1030 0.950 . S
C1008 C1007 1.349 . S
C1008 C1020 1.349 . S
C1009 C1007 1.327 1_455 S
C1009 C1025 1.429 1_455 S
C1009 H1031 0.950 . S
C1010 H1006 0.949 1_455 S
C1010 C1018 1.574 . S
C1010 C1026 1.368 . S
H1011 C1019 0.950 . S
H1012 C1017 0.950 . S
H1013 C1018 0.949 . S
H1014 C1020 0.950 . S
H1015 C1021 0.950 . S
H1016 C1022 0.949 . S
C1017 H1012 0.950 . S
C1017 C1019 1.327 . S
C1017 C1023 1.429 . S
C1018 C1010 1.574 . S
C1018 H1013 0.949 . S
C1018 C1024 1.368 . S
C1019 C1003 1.349 . S
C1019 H1011 0.950 . S
C1019 C1017 1.327 . S
C1020 C1008 1.349 . S
C1020 H1014 0.950 . S
C1020 C1021 1.327 . S
C1021 H1015 0.950 . S
C1021 C1020 1.327 . S
C1021 C1025 1.429 . S
C1022 C1005 1.574 . S
C1022 H1016 0.949 . S
C1022 C1026 1.368 . S
C1023 C1004 1.429 . S
C1023 C1017 1.429 . S
C1023 C1024 1.523 . S
C1024 C1005 1.368 . S
C1024 C1018 1.368 . S
C1024 C1023 1.523 . S
C1025 C1009 1.429 1_655 S
C1025 C1021 1.429 . S
C1025 C1026 1.523 1_655 S
C1026 C1010 1.368 . S
C1026 C1022 1.368 . S
C1026 C1025 1.523 1_455 S
H1027 C1002 0.950 . S
H1028 C1004 0.950 . S
H1029 C1005 0.949 . S
H1030 C1007 0.950 . S
H1031 C1009 0.950 . S
C1032 C1033 1.349 . S
C1032 C1034 1.327 1_565 S
C1032 H1057 0.950 . S
C1033 C1032 1.349 . S
C1033 C1049 1.349 . S
C1034 C1032 1.327 1_545 S
C1034 C1053 1.429 . S
C1034 H1058 0.950 . S
C1035 C1052 1.574 . S
C1035 C1054 1.368 . S
C1035 H1059 0.949 . S
H1036 C1040 0.949 . S
C1037 C1038 1.349 . S
C1037 C1039 1.327 . S
C1037 H1060 0.950 . S
C1038 C1037 1.349 . S
C1038 C1050 1.349 . S
C1039 C1037 1.327 . S
C1039 C1055 1.429 . S
C1039 H1061 0.950 . S
C1040 H1036 0.949 . S
C1040 C1048 1.574 . S
C1040 C1056 1.368 . S
H1041 C1049 0.950 . S
H1042 C1047 0.949 . S
H1043 C1048 0.949 . S
H1044 C1050 0.950 . S
H1045 C1051 0.950 . S
H1046 C1052 0.949 . S
C1047 H1042 0.949 . S
C1047 C1049 1.327 1_545 S
C1047 C1053 1.428 . S
C1048 C1040 1.574 . S
C1048 H1043 0.949 . S
C1048 C1054 1.368 1_554 S
C1049 C1033 1.349 . S
C1049 H1041 0.950 . S
C1049 C1047 1.327 1_565 S
C1050 C1038 1.349 . S
C1050 H1044 0.950 . S
C1050 C1051 1.327 . S
C1051 H1045 0.950 . S
C1051 C1050 1.327 . S
C1051 C1055 1.429 . S
C1052 C1035 1.574 . S
C1052 H1046 0.949 . S
C1052 C1056 1.368 1_556 S
C1053 C1034 1.429 . S
C1053 C1047 1.428 . S
C1053 C1054 1.523 . S
C1054 C1035 1.368 . S
C1054 C1048 1.368 1_556 S
C1054 C1053 1.523 . S
C1055 C1039 1.429 . S
C1055 C1051 1.429 . S
C1055 C1056 1.523 . S
C1056 C1040 1.368 . S
C1056 C1052 1.368 1_554 S
C1056 C1055 1.523 . S
H1057 C1032 0.950 . S
H1058 C1034 0.950 . S
H1059 C1035 0.949 . S
H1060 C1037 0.950 . S
H1061 C1039 0.950 . S
C1062 C1063 1.349 . S
C1062 C1064 1.327 . S
C1062 H1087 0.950 . S
C1063 C1062 1.349 . S
C1063 C1079 1.349 . S
C1064 C1062 1.327 . S
C1064 C1083 1.429 . S
C1064 H1088 0.950 . S
C1065 C1082 1.574 . S
C1065 C1084 1.368 . S
C1065 H1089 0.949 . S
H1066 C1070 0.949 . S
C1067 C1068 1.349 . S
C1067 C1069 1.327 . S
C1067 H1090 0.950 . S
C1068 C1067 1.349 . S
C1068 C1080 1.349 . S
C1069 C1067 1.327 . S
C1069 C1085 1.429 . S
C1069 H1091 0.950 . S
C1070 H1066 0.949 . S
C1070 C1078 1.574 . S
C1070 C1086 1.368 . S
H1071 C1079 0.950 . S
H1072 C1077 0.950 . S
H1073 C1078 0.949 . S
H1074 C1080 0.950 . S
H1075 C1081 0.950 . S
H1076 C1082 0.949 . S
C1077 H1072 0.950 . S
C1077 C1079 1.327 . S
C1077 C1083 1.429 . S
C1078 C1070 1.574 . S
C1078 H1073 0.949 . S
C1078 C1084 1.368 . S
C1079 C1063 1.349 . S
C1079 H1071 0.950 . S
C1079 C1077 1.327 . S
C1080 C1068 1.349 . S
C1080 H1074 0.950 . S
C1080 C1081 1.327 . S
C1081 H1075 0.950 . S
C1081 C1080 1.327 . S
C1081 C1085 1.429 . S
C1082 C1065 1.574 . S
C1082 H1076 0.949 . S
C1082 C1086 1.368 . S
C1083 C1064 1.429 . S
C1083 C1077 1.429 . S
C1083 C1084 1.523 . S
C1084 C1065 1.368 . S
C1084 C1078 1.368 . S
C1084 C1083 1.523 . S
C1085 C1069 1.429 . S
C1085 C1081 1.429 . S
C1085 C1086 1.523 . S
C1086 C1070 1.368 . S
C1086 C1082 1.368 . S
C1086 C1085 1.523 . S
H1087 C1062 0.950 . S
H1088 C1064 0.950 . S
H1089 C1065 0.949 . S
H1090 C1067 0.950 . S
H1091 C1069 0.950 . S
C1092 C1093 1.349 1_655 S
C1092 C1094 1.327 1_655 S
C1092 H1117 0.950 . S
C1093 C1092 1.349 1_455 S
C1093 C1109 1.349 . S
C1094 C1092 1.327 1_455 S
C1094 C1113 1.429 . S
C1094 H1118 0.950 1_456 S
C1095 C1112 1.574 . S
C1095 C1114 1.368 . S
C1095 H1119 0.949 . S
H1096 C1100 0.949 . S
C1097 C1098 1.349 . S
C1097 C1099 1.327 . S
C1097 H1120 0.950 . S
C1098 C1097 1.349 . S
C1098 C1110 1.349 . S
C1099 C1097 1.327 . S
C1099 C1115 1.429 . S
C1099 H1121 0.950 1_554 S
C1100 H1096 0.949 . S
C1100 C1108 1.574 . S
C1100 C1116 1.368 . S
H1101 C1109 0.950 . S
H1102 C1107 0.950 . S
H1103 C1108 0.949 . S
H1104 C1110 0.950 . S
H1105 C1111 0.950 . S
H1106 C1112 0.949 . S
C1107 H1102 0.950 . S
C1107 C1109 1.327 . S
C1107 C1113 1.429 . S
C1108 C1100 1.574 . S
C1108 H1103 0.949 . S
C1108 C1114 1.368 1_554 S
C1109 C1093 1.349 . S
C1109 H1101 0.950 . S
C1109 C1107 1.327 . S
C1110 C1098 1.349 . S
C1110 H1104 0.950 . S
C1110 C1111 1.327 . S
C1111 H1105 0.950 . S
C1111 C1110 1.327 . S
C1111 C1115 1.429 . S
C1112 C1095 1.574 . S
C1112 H1106 0.949 . S
C1112 C1116 1.368 1_556 S
C1113 C1094 1.429 . S
C1113 C1107 1.429 . S
C1113 C1114 1.523 . S
C1114 C1095 1.368 . S
C1114 C1108 1.368 1_556 S
C1114 C1113 1.523 . S
C1115 C1099 1.429 . S
C1115 C1111 1.429 . S
C1115 C1116 1.523 . S
C1116 C1100 1.368 . S
C1116 C1112 1.368 1_554 S
C1116 C1115 1.523 . S
H1117 C1092 0.950 . S
H1118 C1094 0.950 1_654 S
H1119 C1095 0.949 . S
H1120 C1097 0.950 . S
H1121 C1099 0.950 1_556 S
C1122 C1123 1.349 . S
C1122 C1124 1.327 . S
C1122 H1147 0.950 . S
C1123 C1122 1.349 . S
C1123 C1139 1.349 . S
C1124 C1122 1.327 . S
C1124 C1143 1.429 . S
C1124 H1148 0.950 . S
C1125 C1142 1.574 . S
C1125 C1144 1.368 . S
C1125 H1149 0.949 . S
H1126 C1130 0.949 . S
C1127 C1128 1.349 . S
C1127 C1129 1.327 . S
C1127 H1150 0.950 1_545 S
C1128 C1127 1.349 . S
C1128 C1140 1.349 . S
C1129 C1127 1.327 . S
C1129 C1145 1.429 . S
C1129 H1151 0.950 . S
C1130 H1126 0.949 . S
C1130 C1138 1.574 . S
C1130 C1146 1.368 . S
H1131 C1139 0.950 . S
H1132 C1137 0.950 . S
H1133 C1138 0.949 . S
H1134 C1140 0.950 . S
H1135 C1141 0.950 . S
H1136 C1142 0.949 . S
C1137 H1132 0.950 . S
C1137 C1139 1.327 . S
C1137 C1143 1.429 . S
C1138 C1130 1.574 . S
C1138 H1133 0.949 . S
C1138 C1144 1.368 . S
C1139 C1123 1.349 . S
C1139 H1131 0.950 . S
C1139 C1137 1.327 . S
C1140 C1128 1.349 . S
C1140 H1134 0.950 . S
C1140 C1141 1.327 . S
C1141 H1135 0.950 . S
C1141 C1140 1.327 . S
C1141 C1145 1.429 . S
C1142 C1125 1.574 . S
C1142 H1136 0.949 . S
C1142 C1146 1.368 . S
C1143 C1124 1.429 . S
C1143 C1137 1.429 . S
C1143 C1144 1.523 . S
C1144 C1125 1.368 . S
C1144 C1138 1.368 . S
C1144 C1143 1.523 . S
C1145 C1129 1.429 . S
C1145 C1141 1.429 . S
C1145 C1146 1.523 1_655 S
C1146 C1130 1.368 . S
C1146 C1142 1.368 . S
C1146 C1145 1.523 1_455 S
H1147 C1122 0.950 . S
H1148 C1124 0.950 . S
H1149 C1125 0.949 . S
H1150 C1127 0.950 1_565 S
H1151 C1129 0.950 . S
C1152 C1153 1.349 . S
C1152 C1154 1.327 . S
C1152 H1177 0.950 . S
C1153 C1152 1.349 . S
C1153 C1169 1.349 . S
C1154 C1152 1.327 . S
C1154 C1173 1.429 . S
C1154 H1178 0.950 . S
C1155 C1172 1.574 . S
C1155 C1174 1.368 . S
C1155 H1179 0.949 . S
H1156 C1160 0.949 . S
C1157 C1158 1.349 . S
C1157 C1159 1.327 . S
C1157 H1180 0.950 . S
C1158 C1157 1.349 . S
C1158 C1170 1.349 . S
C1159 C1157 1.327 . S
C1159 C1175 1.429 . S
C1159 H1181 0.950 . S
C1160 H1156 0.949 . S
C1160 C1168 1.574 . S
C1160 C1176 1.368 . S
H1161 C1169 0.950 . S
H1162 C1167 0.950 . S
H1163 C1168 0.949 . S
H1164 C1170 0.950 . S
H1165 C1171 0.950 . S
H1166 C1172 0.949 . S
C1167 H1162 0.950 . S
C1167 C1169 1.327 . S
C1167 C1173 1.429 . S
C1168 C1160 1.574 . S
C1168 H1163 0.949 . S
C1168 C1174 1.368 . S
C1169 C1153 1.349 . S
C1169 H1161 0.950 . S
C1169 C1167 1.327 . S
C1170 C1158 1.349 . S
C1170 H1164 0.950 . S
C1170 C1171 1.327 . S
C1171 H1165 0.950 . S
C1171 C1170 1.327 . S
C1171 C1175 1.429 . S
C1172 C1155 1.574 . S
C1172 H1166 0.949 . S
C1172 C1176 1.368 . S
C1173 C1154 1.429 . S
C1173 C1167 1.429 . S
C1173 C1174 1.523 . S
C1174 C1155 1.368 . S
C1174 C1168 1.368 . S
C1174 C1173 1.523 . S
C1175 C1159 1.429 . S
C1175 C1171 1.429 . S
C1175 C1176 1.523 . S
C1176 C1160 1.368 . S
C1176 C1172 1.368 . S
C1176 C1175 1.523 . S
H1177 C1152 0.950 . S
H1178 C1154 0.950 . S
H1179 C1155 0.949 . S
H1180 C1157 0.950 . S
H1181 C1159 0.950 . S
C1182 C1183 1.349 . S
C1182 C1184 1.327 . S
C1182 H1207 0.950 . S
C1183 C1182 1.349 . S
C1183 C1199 1.349 . S
C1184 C1182 1.327 . S
C1184 C1203 1.429 . S
C1184 H1208 0.950 . S
C1185 C1202 1.574 . S
C1185 C1204 1.368 . S
C1185 H1209 0.949 . S
H1186 C1190 0.949 . S
C1187 C1188 1.349 . S
C1187 C1189 1.327 . S
C1187 H1210 0.950 . S
C1188 C1187 1.349 . S
C1188 C1200 1.349 . S
C1189 C1187 1.327 . S
C1189 C1205 1.429 . S
C1189 H1211 0.950 . S
C1190 H1186 0.949 . S
C1190 C1198 1.574 . S
C1190 C1206 1.368 . S
H1191 C1199 0.950 . S
H1192 C1197 0.950 . S
H1193 C1198 0.949 . S
H1194 C1200 0.950 . S
H1195 C1201 0.950 . S
H1196 C1202 0.949 . S
C1197 H1192 0.950 . S
C1197 C1199 1.327 . S
C1197 C1203 1.429 . S
C1198 C1190 1.574 . S
C1198 H1193 0.949 . S
C1198 C1204 1.368 . S
C1199 C1183 1.349 . S
C1199 H1191 0.950 . S
C1199 C1197 1.327 . S
C1200 C1188 1.349 . S
C1200 H1194 0.950 . S
C1200 C1201 1.327 . S
C1201 H1195 0.950 . S
C1201 C1200 1.327 . S
C1201 C1205 1.429 . S
C1202 C1185 1.574 . S
C1202 H1196 0.949 . S
C1202 C1206 1.368 . S
C1203 C1184 1.429 . S
C1203 C1197 1.429 . S
C1203 C1204 1.523 . S
C1204 C1185 1.368 . S
C1204 C1198 1.368 . S
C1204 C1203 1.523 . S
C1205 C1189 1.429 . S
C1205 C1201 1.429 . S
C1205 C1206 1.523 . S
C1206 C1190 1.368 . S
C1206 C1202 1.368 . S
C1206 C1205 1.523 . S
H1207 C1182 0.950 . S
H1208 C1184 0.950 . S
H1209 C1185 0.949 . S
H1210 C1187 0.950 . S
H1211 C1189 0.950 . S
C1212 C1213 1.349 . S
C1212 C1214 1.327 . S
C1212 H1237 0.950 . S
C1213 C1212 1.349 . S
C1213 C1229 1.349 . S
C1214 C1212 1.327 . S
C1214 C1233 1.429 . S
C1214 H1238 0.950 . S
C1215 C1232 1.574 . S
C1215 C1234 1.368 . S
C1215 H1239 0.949 . S
H1216 C1220 0.949 . S
C1217 C1218 1.349 . S
C1217 C1219 1.327 . S
C1217 H1240 0.950 . S
C1218 C1217 1.349 . S
C1218 C1230 1.349 . S
C1219 C1217 1.327 . S
C1219 C1235 1.429 . S
C1219 H1241 0.950 . S
C1220 H1216 0.949 . S
C1220 C1228 1.574 . S
C1220 C1236 1.368 . S
H1221 C1229 0.950 . S
H1222 C1227 0.950 . S
H1223 C1228 0.949 . S
H1224 C1230 0.950 . S
H1225 C1231 0.950 . S
H1226 C1232 0.949 . S
C1227 H1222 0.950 . S
C1227 C1229 1.327 . S
C1227 C1233 1.429 . S
C1228 C1220 1.574 . S
C1228 H1223 0.949 . S
C1228 C1234 1.368 . S
C1229 C1213 1.349 . S
C1229 H1221 0.950 . S
C1229 C1227 1.327 . S
C1230 C1218 1.349 . S
C1230 H1224 0.950 . S
C1230 C1231 1.327 . S
C1231 H1225 0.950 . S
C1231 C1230 1.327 . S
C1231 C1235 1.429 . S
C1232 C1215 1.574 . S
C1232 H1226 0.949 . S
C1232 C1236 1.368 . S
C1233 C1214 1.429 . S
C1233 C1227 1.429 . S
C1233 C1234 1.523 . S
C1234 C1215 1.368 . S
C1234 C1228 1.368 . S
C1234 C1233 1.523 . S
C1235 C1219 1.429 . S
C1235 C1231 1.429 . S
C1235 C1236 1.523 . S
C1236 C1220 1.368 . S
C1236 C1232 1.368 . S
C1236 C1235 1.523 . S
H1237 C1212 0.950 . S
H1238 C1214 0.950 . S
H1239 C1215 0.949 . S
H1240 C1217 0.950 . S
H1241 C1219 0.950 . S
C1242 C1243 1.349 . S
C1242 C1244 1.327 . S
C1242 H1267 0.950 . S
C1243 C1242 1.349 . S
C1243 C1259 1.349 . S
C1244 C1242 1.327 . S
C1244 C1263 1.429 . S
C1244 H1268 0.950 . S
C1245 C1262 1.574 . S
C1245 C1264 1.368 . S
C1245 H1269 0.949 . S
H1246 C1250 0.949 . S
C1247 C1248 1.349 . S
C1247 C1249 1.327 . S
C1247 H1270 0.950 . S
C1248 C1247 1.349 . S
C1248 C1260 1.349 . S
C1249 C1247 1.327 . S
C1249 C1265 1.429 . S
C1249 H1271 0.950 . S
C1250 H1246 0.949 . S
C1250 C1258 1.574 . S
C1250 C1266 1.368 . S
H1251 C1259 0.950 . S
H1252 C1257 0.950 . S
H1253 C1258 0.949 . S
H1254 C1260 0.950 . S
H1255 C1261 0.950 . S
H1256 C1262 0.949 . S
C1257 H1252 0.950 . S
C1257 C1259 1.327 . S
C1257 C1263 1.429 . S
C1258 C1250 1.574 . S
C1258 H1253 0.949 . S
C1258 C1264 1.368 . S
C1259 C1243 1.349 . S
C1259 H1251 0.950 . S
C1259 C1257 1.327 . S
C1260 C1248 1.349 . S
C1260 H1254 0.950 . S
C1260 C1261 1.327 . S
C1261 H1255 0.950 . S
C1261 C1260 1.327 . S
C1261 C1265 1.429 . S
C1262 C1245 1.574 . S
C1262 H1256 0.949 . S
C1262 C1266 1.368 . S
C1263 C1244 1.429 . S
C1263 C1257 1.429 . S
C1263 C1264 1.523 . S
C1264 C1245 1.368 . S
C1264 C1258 1.368 . S
C1264 C1263 1.523 . S
C1265 C1249 1.429 . S
C1265 C1261 1.429 . S
C1265 C1266 1.523 . S
C1266 C1250 1.368 . S
C1266 C1262 1.368 . S
C1266 C1265 1.523 . S
H1267 C1242 0.950 . S
H1268 C1244 0.950 . S
H1269 C1245 0.949 . S
H1270 C1247 0.950 . S
H1271 C1249 0.950 . S
C1272 C1273 1.349 . S
C1272 C1274 1.327 . S
C1272 H1297 0.950 . S
C1273 C1272 1.349 . S
C1273 C1289 1.349 . S
C1274 C1272 1.327 . S
C1274 C1293 1.429 . S
C1274 H1298 0.950 . S
C1275 C1292 1.574 . S
C1275 C1294 1.368 . S
C1275 H1299 0.949 . S
H1276 C1280 0.949 . S
C1277 C1278 1.349 . S
C1277 C1279 1.327 . S
C1277 H1300 0.950 . S
C1278 C1277 1.349 . S
C1278 C1290 1.349 . S
C1279 C1277 1.327 . S
C1279 C1295 1.429 . S
C1279 H1301 0.950 . S
C1280 H1276 0.949 . S
C1280 C1288 1.574 . S
C1280 C1296 1.368 . S
H1281 C1289 0.950 . S
H1282 C1287 0.950 . S
H1283 C1288 0.949 . S
H1284 C1290 0.950 . S
H1285 C1291 0.950 . S
H1286 C1292 0.949 . S
C1287 H1282 0.950 . S
C1287 C1289 1.327 . S
C1287 C1293 1.429 . S
C1288 C1280 1.574 . S
C1288 H1283 0.949 . S
C1288 C1294 1.368 . S
C1289 C1273 1.349 . S
C1289 H1281 0.950 . S
C1289 C1287 1.327 . S
C1290 C1278 1.349 . S
C1290 H1284 0.950 . S
C1290 C1291 1.327 . S
C1291 H1285 0.950 . S
C1291 C1290 1.327 . S
C1291 C1295 1.429 . S
C1292 C1275 1.574 . S
C1292 H1286 0.949 . S
C1292 C1296 1.368 . S
C1293 C1274 1.429 . S
C1293 C1287 1.429 . S
C1293 C1294 1.523 . S
C1294 C1275 1.368 . S
C1294 C1288 1.368 . S
C1294 C1293 1.523 . S
C1295 C1279 1.429 . S
C1295 C1291 1.429 . S
C1295 C1296 1.523 . S
C1296 C1280 1.368 . S
C1296 C1292 1.368 . S
C1296 C1295 1.523 . S
H1297 C1272 0.950 . S
H1298 C1274 0.950 . S
H1299 C1275 0.949 . S
H1300 C1277 0.950 . S
H1301 C1279 0.950 . S
C1302 C1303 1.349 . S
C1302 C1304 1.327 . S
C1302 H1327 0.950 . S
C1303 C1302 1.349 . S
C1303 C1319 1.349 . S
C1304 C1302 1.327 . S
C1304 C1323 1.429 . S
C1304 H1328 0.950 . S
C1305 C1322 1.574 . S
C1305 C1324 1.368 . S
C1305 H1329 0.949 . S
H1306 C1310 0.949 . S
C1307 C1308 1.349 . S
C1307 C1309 1.327 . S
C1307 H1330 0.950 . S
C1308 C1307 1.349 . S
C1308 C1320 1.349 . S
C1309 C1307 1.327 . S
C1309 C1325 1.429 . S
C1309 H1331 0.950 . S
C1310 H1306 0.949 . S
C1310 C1318 1.574 . S
C1310 C1326 1.368 . S
H1311 C1319 0.950 . S
H1312 C1317 0.950 . S
H1313 C1318 0.949 . S
H1314 C1320 0.950 . S
H1315 C1321 0.950 . S
H1316 C1322 0.949 . S
C1317 H1312 0.950 . S
C1317 C1319 1.327 . S
C1317 C1323 1.429 . S
C1318 C1310 1.574 . S
C1318 H1313 0.949 . S
C1318 C1324 1.368 . S
C1319 C1303 1.349 . S
C1319 H1311 0.950 . S
C1319 C1317 1.327 . S
C1320 C1308 1.349 . S
C1320 H1314 0.950 . S
C1320 C1321 1.327 . S
C1321 H1315 0.950 . S
C1321 C1320 1.327 . S
C1321 C1325 1.429 . S
C1322 C1305 1.574 . S
C1322 H1316 0.949 . S
C1322 C1326 1.368 . S
C1323 C1304 1.429 . S
C1323 C1317 1.429 . S
C1323 C1324 1.523 . S
C1324 C1305 1.368 . S
C1324 C1318 1.368 . S
C1324 C1323 1.523 . S
C1325 C1309 1.429 . S
C1325 C1321 1.429 . S
C1325 C1326 1.523 . S
C1326 C1310 1.368 . S
C1326 C1322 1.368 . S
C1326 C1325 1.523 . S
H1327 C1302 0.950 . S
H1328 C1304 0.950 . S
H1329 C1305 0.949 . S
H1330 C1307 0.950 . S
H1331 C1309 0.950 . S
C1332 C1333 1.349 . S
C1332 C1334 1.327 . S
C1332 H1357 0.950 . S
C1333 C1332 1.349 . S
C1333 C1349 1.349 . S
C1334 C1332 1.327 . S
C1334 C1353 1.429 . S
C1334 H1358 0.950 . S
C1335 C1352 1.574 . S
C1335 C1354 1.368 . S
C1335 H1359 0.949 . S
H1336 C1340 0.949 . S
C1337 C1338 1.349 . S
C1337 C1339 1.327 . S
C1337 H1360 0.950 . S
C1338 C1337 1.349 . S
C1338 C1350 1.349 . S
C1339 C1337 1.327 . S
C1339 C1355 1.429 . S
C1339 H1361 0.950 . S
C1340 H1336 0.949 . S
C1340 C1348 1.574 . S
C1340 C1356 1.368 . S
H1341 C1349 0.950 . S
H1342 C1347 0.950 . S
H1343 C1348 0.949 . S
H1344 C1350 0.950 . S
H1345 C1351 0.950 . S
H1346 C1352 0.949 . S
C1347 H1342 0.950 . S
C1347 C1349 1.327 . S
C1347 C1353 1.429 . S
C1348 C1340 1.574 . S
C1348 H1343 0.949 . S
C1348 C1354 1.368 . S
C1349 C1333 1.349 . S
C1349 H1341 0.950 . S
C1349 C1347 1.327 . S
C1350 C1338 1.349 . S
C1350 H1344 0.950 . S
C1350 C1351 1.327 . S
C1351 H1345 0.950 . S
C1351 C1350 1.327 . S
C1351 C1355 1.429 . S
C1352 C1335 1.574 . S
C1352 H1346 0.949 . S
C1352 C1356 1.368 . S
C1353 C1334 1.429 . S
C1353 C1347 1.429 . S
C1353 C1354 1.523 . S
C1354 C1335 1.368 . S
C1354 C1348 1.368 . S
C1354 C1353 1.523 . S
C1355 C1339 1.429 . S
C1355 C1351 1.429 . S
C1355 C1356 1.523 . S
C1356 C1340 1.368 . S
C1356 C1352 1.368 . S
C1356 C1355 1.523 . S
H1357 C1332 0.950 . S
H1358 C1334 0.950 . S
H1359 C1335 0.949 . S
H1360 C1337 0.950 . S
H1361 C1339 0.950 . S
C1362 C1363 1.349 . S
C1362 C1364 1.327 . S
C1362 H1387 0.950 . S
C1363 C1362 1.349 . S
C1363 C1379 1.349 . S
C1364 C1362 1.327 . S
C1364 C1383 1.429 . S
C1364 H1388 0.950 . S
C1365 C1382 1.574 . S
C1365 C1384 1.368 . S
C1365 H1389 0.949 . S
H1366 C1370 0.949 . S
C1367 C1368 1.349 . S
C1367 C1369 1.327 . S
C1367 H1390 0.950 . S
C1368 C1367 1.349 . S
C1368 C1380 1.349 . S
C1369 C1367 1.327 . S
C1369 C1385 1.429 . S
C1369 H1391 0.950 . S
C1370 H1366 0.949 . S
C1370 C1378 1.574 . S
C1370 C1386 1.368 . S
H1371 C1379 0.950 . S
H1372 C1377 0.950 . S
H1373 C1378 0.949 . S
H1374 C1380 0.950 . S
H1375 C1381 0.950 . S
H1376 C1382 0.949 . S
C1377 H1372 0.950 . S
C1377 C1379 1.327 . S
C1377 C1383 1.429 . S
C1378 C1370 1.574 . S
C1378 H1373 0.949 . S
C1378 C1384 1.368 . S
C1379 C1363 1.349 . S
C1379 H1371 0.950 . S
C1379 C1377 1.327 . S
C1380 C1368 1.349 . S
C1380 H1374 0.950 . S
C1380 C1381 1.327 . S
C1381 H1375 0.950 . S
C1381 C1380 1.327 . S
C1381 C1385 1.429 . S
C1382 C1365 1.574 . S
C1382 H1376 0.949 . S
C1382 C1386 1.368 . S
C1383 C1364 1.429 . S
C1383 C1377 1.429 . S
C1383 C1384 1.523 . S
C1384 C1365 1.368 . S
C1384 C1378 1.368 . S
C1384 C1383 1.523 . S
C1385 C1369 1.429 . S
C1385 C1381 1.429 . S
C1385 C1386 1.523 . S
C1386 C1370 1.368 . S
C1386 C1382 1.368 . S
C1386 C1385 1.523 . S
H1387 C1362 0.950 . S
H1388 C1364 0.950 . S
H1389 C1365 0.949 . S
H1390 C1367 0.950 . S
H1391 C1369 0.950 . S
C673 C651 0.650 . S
C678 C69 0.669 . S
C703 C142 1.772 . S
C708 C405 1.411 . S
C733 C476 1.234 . S
C738 C224 1.194 . S
C763 C321 0.897 . S
C768 C560 0.523 . S
C793 C158 0.650 . S
C798 C562 0.669 . S
C823 C226 1.402 . S
C828 C657 1.773 . S
C853 C403 1.194 . S
C858 C319 1.234 . S
C883 C478 0.897 . S
C888 C67 0.523 . S
C913 C571 1.174 . S
C918 C56 1.174 . S
C943 C147 3.164 . S
C948 C662 3.164 . S
C973 C394 1.507 . S
C978 C237 1.507 . S
C1003 C308 3.491 . S
C1008 C487 3.491 . S
C1033 C392 2.107 . S
C1038 C235 2.107 . S
C1063 C310 0.979 . S
C1068 C489 0.979 . S
C1093 C573 2.652 1_455 S
C1098 C58 2.652 . S
C1123 C153 1.140 . S
C1128 C646 1.140 . S
C1153 C74 2.733 . S
C1158 C231 2.835 . S
C1183 C151 2.955 1_565 S
C1188 C326 2.865 . S
C1213 C410 2.835 . S
C1218 C567 2.733 . S
C1243 C644 2.955 . S
C1248 C483 2.865 . S
C1273 C63 2.493 . S
C1278 C242 2.540 . S
C1303 C140 2.681 . S
C1308 C315 2.699 . S
C1333 C399 2.540 . S
C1338 C578 2.493 . S
C1363 C494 2.699 . S
C1368 C655 2.681 . S
