# Generated by pormake.
# Topology wiu, (6)-cn, num edge types: 1
# Building blocks:
#     Node 0, Type 0, BuildingBlock: JUFBIX_clean_sbu_0, # of connection points: 6
#     Node 1, Type 0, BuildingBlock: JUFBIX_clean_sbu_0, # of connection points: 6
#     Node 2, Type 0, BuildingBlock: JUFBIX_clean_sbu_0, # of connection points: 6
#     Node 3, Type 0, BuildingBlock: JUFBIX_clean_sbu_0, # of connection points: 6
#     Node 4, Type 0, BuildingBlock: JUFBIX_clean_sbu_0, # of connection points: 6
#     Node 5, Type 0, BuildingBlock: JUFBIX_clean_sbu_0, # of connection points: 6
#     Node 6, Type 0, BuildingBlock: JUFBIX_clean_sbu_0, # of connection points: 6
#     Node 7, Type 0, BuildingBlock: JUFBIX_clean_sbu_0, # of connection points: 6
#     Node 8, Type 0, BuildingBlock: JUFBIX_clean_sbu_0, # of connection points: 6
#     Node 9, Type 0, BuildingBlock: JUFBIX_clean_sbu_0, # of connection points: 6
#     Node 10, Type 0, BuildingBlock: JUFBIX_clean_sbu_0, # of connection points: 6
#     Node 11, Type 0, BuildingBlock: JUFBIX_clean_sbu_0, # of connection points: 6
#     Node 12, Type 0, BuildingBlock: JUFBIX_clean_sbu_0, # of connection points: 6
#     Node 13, Type 0, BuildingBlock: JUFBIX_clean_sbu_0, # of connection points: 6
#     Node 14, Type 0, BuildingBlock: JUFBIX_clean_sbu_0, # of connection points: 6
#     Node 15, Type 0, BuildingBlock: JUFBIX_clean_sbu_0, # of connection points: 6
#     Edge 16, Type (0, 0), None
#     Edge 17, Type (0, 0), None
#     Edge 18, Type (0, 0), None
#     Edge 19, Type (0, 0), None
#     Edge 20, Type (0, 0), None
#     Edge 21, Type (0, 0), None
#     Edge 22, Type (0, 0), None
#     Edge 23, Type (0, 0), None
#     Edge 24, Type (0, 0), None
#     Edge 25, Type (0, 0), None
#     Edge 26, Type (0, 0), None
#     Edge 27, Type (0, 0), None
#     Edge 28, Type (0, 0), None
#     Edge 29, Type (0, 0), None
#     Edge 30, Type (0, 0), None
#     Edge 31, Type (0, 0), None
#     Edge 32, Type (0, 0), None
#     Edge 33, Type (0, 0), None
#     Edge 34, Type (0, 0), None
#     Edge 35, Type (0, 0), None
#     Edge 36, Type (0, 0), None
#     Edge 37, Type (0, 0), None
#     Edge 38, Type (0, 0), None
#     Edge 39, Type (0, 0), None
#     Edge 40, Type (0, 0), None
#     Edge 41, Type (0, 0), None
#     Edge 42, Type (0, 0), None
#     Edge 43, Type (0, 0), None
#     Edge 44, Type (0, 0), None
#     Edge 45, Type (0, 0), None
#     Edge 46, Type (0, 0), None
#     Edge 47, Type (0, 0), None
#     Edge 48, Type (0, 0), None
#     Edge 49, Type (0, 0), None
#     Edge 50, Type (0, 0), None
#     Edge 51, Type (0, 0), None
#     Edge 52, Type (0, 0), None
#     Edge 53, Type (0, 0), None
#     Edge 54, Type (0, 0), None
#     Edge 55, Type (0, 0), None
#     Edge 56, Type (0, 0), None
#     Edge 57, Type (0, 0), None
#     Edge 58, Type (0, 0), None
#     Edge 59, Type (0, 0), None
#     Edge 60, Type (0, 0), None
#     Edge 61, Type (0, 0), None
#     Edge 62, Type (0, 0), None
#     Edge 63, Type (0, 0), None
# Relax obj value: 0.544
# Max RMSD: 0.284
# Mean RMSD: 0.268
data_MOF--net-wiu--node1-JUFBIX_clean_sbu_0--edge1-none
_symmetry_space_group_name_H-M    P1
_symmetry_Int_Tables_number       1
_symmetry_cell_setting            triclinic
loop_
_symmetry_equiv_pos_as_xyz
'x, y, z'
_cell_length_a     13.236361
_cell_length_b     13.607002
_cell_length_c     33.811908
_cell_angle_alpha  102.83568
_cell_angle_beta   77.609821
_cell_angle_gamma 99.066871
loop_
_atom_site_label
_atom_site_type_symbol
_atom_site_fract_x
_atom_site_fract_y
_atom_site_fract_z
_atom_type_partial_charge
Co0 Co 0.29408 0.2148 0.1269 0.0
C1 C 0.15167 0.08199 0.1801 0.0
Co2 Co 0.35165 0.1809 0.17574 0.0
C3 C 0.24586 0.31539 1.06749 0.0
C4 C 0.1142 0.25255 0.1067 0.0
N5 N 0.21863 0.25287 0.09479 0.0
N6 N 0.16227 0.35432 1.06289 0.0
C7 C 0.08016 0.31324 0.08709 0.0
H8 H 0.3246 0.33177 1.0514 0.0
H9 H 0.06401 0.21723 0.13046 0.0
C10 C 0.48018 0.30007 0.13182 0.0
N11 N 0.42127 0.13546 0.20682 0.0
C12 C 0.48527 0.18507 0.23199 0.0
C13 C 0.44226 1.03824 0.19842 0.0
N14 N 0.5426 0.1216 0.24075 0.0
C15 C 0.51913 1.03033 0.21762 0.0
C16 C 0.44319 0.08012 0.08972 0.0
O17 O 0.41273 0.30295 0.11067 0.0
O18 O 0.45838 0.26089 0.16285 0.0
O19 O 0.42876 0.07882 0.12821 0.0
O20 O 0.36885 0.11444 0.07978 0.0
O21 O 0.23249 0.09239 0.19533 0.0
H22 H 0.40913 0.97719 0.17724 0.0
H23 H 0.48732 0.26562 0.24423 0.0
O24 O 0.1634 0.11632 0.14676 0.0
O25 O 0.24111 0.32929 0.1679 0.0
O26 O 0.29563 0.30061 0.21994 0.0
C27 C 0.25681 0.36174 0.20443 0.0
H28 H -4e-05 0.3214 0.08863 0.0
H29 H 0.54819 0.96044 0.21779 0.0
Co30 Co 0.58801 0.61696 0.3703 0.0
C31 C 0.71118 0.58335 0.42781 0.0
Co32 Co 0.62479 0.73235 0.42019 0.0
C33 C 0.58382 0.51677 0.2875 0.0
C34 C 0.65459 0.4387 0.32096 0.0
N35 N 0.59009 0.5102 0.32638 0.0
N36 N 0.64209 0.45244 0.25904 0.0
C37 C 0.68709 0.40465 0.28017 0.0
H38 H 0.54842 0.57513 0.28004 0.0
H39 H 0.68119 0.41253 0.34434 0.0
C40 C 0.50138 0.7667 0.37432 0.0
N41 N 0.629 0.83728 0.46461 0.0
C42 C 0.69611 0.85343 0.49077 0.0
C43 C 0.54378 0.87849 0.48727 0.0
N44 N 0.65304 0.89482 0.52937 0.0
C45 C 0.56084 0.91898 0.52627 0.0
C46 C 0.73114 0.78059 0.34153 0.0
O47 O 0.50851 0.68401 0.34882 0.0
O48 O 0.53158 0.78307 0.40776 0.0
O49 O 0.72275 0.81766 0.38062 0.0
O50 O 0.70758 0.6841 0.33314 0.0
O51 O 0.7288 0.67828 0.43523 0.0
H52 H 0.46938 0.86752 0.47801 0.0
H53 H 0.7676 0.8191 0.48409 0.0
O54 O 0.66599 0.54407 0.39754 0.0
O55 O 0.46113 0.55729 0.40346 0.0
O56 O 0.51109 0.65438 0.45811 0.0
C57 C 0.44337 0.58609 0.44284 0.0
H58 H 0.74223 0.35013 0.2673 0.0
H59 H 0.50355 0.94883 0.55219 0.0
Co60 Co 0.27531 0.84829 0.64338 0.0
C61 C 0.08571 0.83337 0.62254 0.0
Co62 Co 0.21851 0.99346 0.64235 0.0
C63 C 0.30841 0.69736 0.68865 0.0
C64 C 0.27284 0.63121 0.62909 0.0
N65 N 0.3019 0.72114 0.65204 0.0
N66 N 0.27716 0.59801 0.69021 0.0
C67 C 0.25595 0.55662 0.65234 0.0
H68 H 0.33193 0.75261 0.71425 0.0
H69 H 0.25812 0.62246 0.59834 0.0
C70 C 0.4162 1.00919 0.6706 0.0
N71 N 0.14552 0.09983 0.63208 0.0
C72 C 0.12384 0.0896 0.59298 0.0
C73 C 0.05109 0.11871 0.65585 0.0
N74 N 0.02078 0.08407 0.59155 0.0
C75 C 0.97551 0.10541 0.63153 0.0
C76 C 0.1673 0.94319 0.7177 0.0
O77 O 0.40764 0.91386 0.65573 0.0
O78 O 0.34545 1.06154 0.6668 0.0
O79 O 0.14223 1.00348 0.69849 0.0
O80 O 0.22542 0.87662 0.69826 0.0
O81 O 0.10717 0.92421 0.62218 0.0
H82 H 0.03254 0.12253 0.68883 0.0
H83 H 0.17998 0.07176 0.56586 0.0
O84 O 0.14695 0.78759 0.63393 0.0
O85 O 0.31723 0.82063 0.58381 0.0
O86 O 0.29341 0.97929 0.58765 0.0
C87 C 0.30375 0.89083 0.56612 0.0
H88 H 0.22896 0.47779 0.64224 0.0
H89 H 0.8928 0.10067 0.64278 0.0
Co90 Co 0.91205 0.52754 0.87599 0.0
C91 C 0.76059 0.65796 0.92271 0.0
Co92 Co 0.80952 0.45505 0.92141 0.0
C93 C 0.03844 0.5553 0.80079 0.0
C94 C 0.02041 0.69172 0.84597 0.0
N95 N 0.00115 0.59041 0.84022 0.0
N96 N 0.06671 0.63155 0.77979 0.0
C97 C 0.05461 0.71659 0.80863 0.0
H98 H 0.02371 0.47609 0.78687 0.0
H99 H 0.99146 0.74389 0.8738 0.0
C100 C 0.94598 0.34127 0.87288 0.0
N101 N 0.74344 0.39278 0.9675 0.0
C102 C 0.76401 0.43617 1.00571 0.0
C103 C 0.73638 0.29243 0.96751 0.0
N104 N 0.77881 0.36902 1.02753 0.0
C105 C 0.7568 0.2779 1.00425 0.0
C106 C 0.75825 0.36408 0.84117 0.0
O107 O 0.99418 0.42236 0.86274 0.0
O108 O 0.86956 0.34631 0.9016 0.0
O109 O 0.71421 0.3764 0.88031 0.0
O110 O 0.83128 0.43561 0.83218 0.0
O111 O 0.73879 0.58442 0.94279 0.0
H112 H 0.73222 0.23361 0.94034 0.0
H113 H 0.78627 0.51659 1.0143 0.0
O114 O 0.82445 0.64213 0.88866 0.0
O115 O 0.00165 0.60672 0.91558 0.0
O116 O 0.9188 0.5126 0.95683 0.0
C117 C -0.00441 0.57705 0.94889 0.0
H118 H 0.03516 0.78478 0.80308 0.0
H119 H 0.75785 0.20664 1.01299 0.0
Co120 Co 0.63893 0.94752 0.97238 0.0
C121 C 0.51041 0.82834 1.01629 0.0
Co122 Co 0.69651 0.9136 1.02121 0.0
C123 C 0.50531 0.94335 0.91613 0.0
C124 C 0.54831 0.09018 0.9497 0.0
N125 N 0.5693 0.99296 0.9413 0.0
N126 N 0.44797 1.00681 0.90737 0.0
C127 C 0.47143 0.09808 0.9305 0.0
H128 H 0.50327 0.8628 0.90389 0.0
H129 H 0.58143 0.15123 0.97088 0.0
C130 C 0.83891 1.04641 0.96801 0.0
N131 N 0.77197 0.87553 1.05332 0.0
C132 C 0.74473 0.81301 0.08062 0.0
C133 C 0.87639 0.87585 1.04141 0.0
N134 N 0.82831 0.77407 0.08522 0.0
C135 C 0.91043 0.81515 1.06102 0.0
C136 C 0.73376 0.76667 0.94368 0.0
O137 O 0.7581 1.03602 0.95278 0.0
O138 O 0.82719 1.01208 1.00135 0.0
O139 O 0.74948 0.79911 0.98021 0.0
O140 O 0.69494 0.8278 0.92818 0.0
O141 O 0.57786 0.82545 1.03744 0.0
H142 H 0.92658 0.91116 1.01765 0.0
H143 H 0.66599 0.79665 0.09671 0.0
O144 O 0.5322 0.86754 0.98527 0.0
O145 O 0.56184 1.04961 1.01991 0.0
O146 O 0.62174 1.01396 1.06833 0.0
C147 C 0.54739 1.04828 1.0584 0.0
H148 H 0.44236 0.16797 0.93033 0.0
H149 H 0.99063 0.80699 1.05948 0.0
Co150 Co 0.36579 0.39604 0.72791 0.0
C151 C 0.48919 0.36169 0.77379 0.0
Co152 Co 0.40257 0.51145 0.77781 0.0
C153 C 0.29447 0.27495 0.65733 0.0
C154 C 0.44681 0.2499 0.66083 0.0
N155 N 0.36158 0.2911 0.6835 0.0
N156 N 0.33755 0.23357 0.61874 0.0
C157 C 0.42974 0.20941 0.62184 0.0
H158 H 0.22298 0.30927 0.66402 0.0
H159 H 0.52121 0.26087 0.6701 0.0
C160 C 0.27943 0.54503 0.72029 0.0
N161 N 0.40049 0.6182 0.82173 0.0
C162 C 0.40676 0.61162 0.86061 0.0
C163 C 0.33599 0.6897 0.82715 0.0
N164 N 0.34849 0.67595 0.88907 0.0
C165 C 0.30349 0.72374 0.86794 0.0
C166 C 0.54722 0.54231 0.70527 0.0
O167 O 0.26179 0.4501 0.71287 0.0
O168 O 0.32459 0.58433 0.75057 0.0
O169 O 0.52944 0.57111 0.74465 0.0
O170 O 0.4795 0.474 0.69 0.0
O171 O 0.48208 0.44439 0.79928 0.0
H172 H 0.30939 0.71587 0.80377 0.0
H173 H 0.44216 0.55326 0.86807 0.0
O174 O 0.45899 0.34531 0.74035 0.0
O175 O 0.26782 0.31074 0.76749 0.0
O176 O 0.283 0.44429 0.81497 0.0
C177 C 0.25943 0.3478 0.80657 0.0
H178 H 0.48703 0.17956 0.59592 0.0
H179 H 0.24835 0.77826 0.88081 0.0
Co180 Co 0.77208 0.13494 0.50576 0.0
C181 C 0.57439 0.1192 0.47752 0.0
Co182 Co 0.71528 0.28011 0.50473 0.0
C183 C 0.86675 1.03884 0.55514 0.0
C184 C 0.93948 1.00967 0.49227 0.0
N185 N 0.84505 1.02855 0.51604 0.0
N186 N 0.96984 1.04455 0.55657 0.0
C187 C 0.01509 1.02307 0.51659 0.0
H188 H 0.8106 1.05664 0.58226 0.0
H189 H 0.95802 1.00578 0.45929 0.0
C190 C 0.90488 0.29503 0.52557 0.0
N191 N 0.68868 0.40725 0.49607 0.0
C192 C 0.68214 0.43104 0.45947 0.0
C193 C 0.71773 0.49719 0.51902 0.0
N194 N 0.7133 0.5304 0.45792 0.0
C195 C 0.73458 0.57179 0.49578 0.0
C196 C 0.68683 0.23758 0.58199 0.0
O197 O 0.88342 0.20419 0.52593 0.0
O198 O 0.84363 0.34082 0.51418 0.0
O199 O 0.67335 0.30778 0.5643 0.0
O200 O 0.69718 0.14912 0.56047 0.0
O201 O 0.58296 0.21453 0.49238 0.0
H202 H 0.7325 0.50593 0.54977 0.0
H203 H 0.65866 0.37578 0.43386 0.0
O204 O 0.64513 0.06685 0.48131 0.0
O205 O 0.84834 0.1249 0.44962 0.0
O206 O 0.76518 0.25177 0.44985 0.0
C207 C 0.82328 0.1852 0.43041 0.0
H208 H 0.09781 1.0278 0.50533 0.0
H209 H 0.7616 0.65061 0.50588 0.0
Co210 Co 0.18106 0.67336 0.22671 0.0
C211 C 0.04459 0.78713 0.27523 0.0
Co212 Co 0.07854 0.60086 0.27213 0.0
C213 C 0.22656 0.69224 0.14241 0.0
C214 C 0.2542 0.83598 0.1806 0.0
N215 N 0.24714 0.73562 0.18061 0.0
N216 N 0.21177 0.75938 0.12058 0.0
C217 C 0.23379 0.85051 0.14386 0.0
H218 H 0.2043 0.61181 0.13382 0.0
H219 H 0.25836 0.8948 0.20778 0.0
C220 C 0.22995 0.47043 0.2254 0.0
N221 N 0.98944 0.53799 0.30789 0.0
C222 C 0.95214 0.5731 0.34733 0.0
C223 C 0.97018 0.43668 0.30215 0.0
N224 N 0.92386 0.49686 0.36833 0.0
C225 C 0.93597 0.41181 0.33949 0.0
C226 C 0.99499 0.55135 0.19923 0.0
O227 O 0.25178 0.54398 0.20532 0.0
O228 O 0.16614 0.48627 0.25946 0.0
O229 O 0.98895 0.52166 0.23253 0.0
O230 O 0.07177 0.61582 0.19129 0.0
O231 O -0.00359 0.70603 0.28537 0.0
H232 H -0.00088 0.38451 0.27432 0.0
H233 H 0.96688 0.65231 0.36124 0.0
O234 O 0.12102 0.7821 0.24652 0.0
O235 O 0.27638 0.752 0.26781 0.0
O236 O 0.1593 0.69279 0.31594 0.0
C237 C 0.23233 0.76432 0.30695 0.0
H238 H 0.23274 0.92177 0.13512 0.0
H239 H 0.95541 0.34362 0.34504 0.0
Co240 Co 0.79408 0.71479 0.62691 0.0
C241 C 0.65167 0.58198 0.68011 0.0
Co242 Co 0.85165 0.68083 0.67574 0.0
C243 C 0.74586 0.81527 0.56747 0.0
C244 C 0.61418 0.75241 0.60668 0.0
N245 N 0.71863 0.75283 0.5948 0.0
N246 N 0.66221 0.85391 0.56279 0.0
C247 C 0.58007 0.81291 0.587 0.0
H248 H 0.82462 0.83178 0.55142 0.0
H249 H 0.56401 0.71717 0.63047 0.0
C250 C 0.98017 0.80004 0.63185 0.0
N251 N 0.92127 0.63535 0.70681 0.0
C252 C 0.98515 0.68493 0.73203 0.0
C253 C 0.94228 0.53812 0.69839 0.0
N254 N 0.04238 0.62138 0.74079 0.0
C255 C 0.01907 0.53013 0.71763 0.0
C256 C 0.94319 0.5801 0.58972 0.0
O257 O 0.91273 0.80296 0.61069 0.0
O258 O 0.95837 0.76077 0.66285 0.0
O259 O 0.92873 0.57875 0.62821 0.0
O260 O 0.86886 0.61445 0.57979 0.0
O261 O 0.73248 0.59235 0.69534 0.0
H262 H 0.90922 0.47709 0.67718 0.0
H263 H 0.98717 0.76547 0.7443 0.0
O264 O 0.66341 0.61628 0.64677 0.0
O265 O 0.74109 0.82926 0.66791 0.0
O266 O 0.79567 0.80059 0.71994 0.0
C267 C 0.75684 0.86172 0.70443 0.0
H268 H 0.49988 0.82107 0.58854 0.0
H269 H 0.04815 0.46025 0.71779 0.0
Co270 Co 0.08799 0.11689 0.8703 0.0
C271 C 0.2112 0.0833 0.92781 0.0
Co272 Co 0.12483 0.23225 0.92019 0.0
C273 C 0.08386 1.01672 0.7875 0.0
C274 C 0.15463 0.93868 0.82098 0.0
N275 N 0.09006 1.01012 0.82639 0.0
N276 N 0.14231 0.95254 0.75905 0.0
C277 C 0.18727 0.90472 0.78019 0.0
H278 H 0.04838 0.07503 0.78004 0.0
H279 H 0.18116 0.91247 0.84436 0.0
C280 C 0.00143 0.26662 0.87432 0.0
N281 N 0.12905 0.33718 0.96461 0.0
C282 C 0.1961 0.35327 0.9908 0.0
C283 C 0.04382 0.37848 0.98726 0.0
N284 N 0.15293 0.39473 1.02936 0.0
C285 C 0.0608 0.41899 1.02627 0.0
C286 C 0.23113 0.28051 0.84153 0.0
O287 O 0.00849 0.18394 0.84882 0.0
O288 O 0.0316 0.28294 0.90777 0.0
O289 O 0.22276 0.31758 0.88062 0.0
O290 O 0.20757 0.18402 0.83313 0.0
O291 O 0.22887 0.17822 0.93521 0.0
H292 H 0.96946 0.36757 0.97796 0.0
H293 H 0.26757 0.3189 0.98415 0.0
O294 O 0.16596 1.04402 0.89756 0.0
O295 O 0.9611 1.05725 0.90346 0.0
O296 O 0.01114 0.15428 0.95811 0.0
C297 C 0.94336 0.08604 0.94284 0.0
H298 H 0.24246 0.85025 0.76733 0.0
H299 H 0.00353 0.44893 1.05218 0.0
Co300 Co 0.77522 0.34825 0.14337 0.0
C301 C 0.58573 0.33336 0.12248 0.0
Co302 Co 0.71844 0.49348 0.14236 0.0
C303 C 0.80838 0.19738 0.18864 0.0
C304 C 0.77285 0.13119 0.12908 0.0
N305 N 0.80186 0.22113 0.15203 0.0
N306 N 0.77715 0.09804 0.19021 0.0
C307 C 0.75597 1.05661 0.15233 0.0
H308 H 0.83188 0.25265 0.21423 0.0
H309 H 0.75816 0.12242 0.09831 0.0
C310 C 0.91608 0.50918 0.17062 0.0
N311 N 0.64552 0.59988 0.13208 0.0
C312 C 0.62384 0.58961 0.09298 0.0
C313 C 0.5511 0.6188 0.15585 0.0
N314 N 0.52078 0.58409 0.09154 0.0
C315 C 0.47551 0.60548 0.13152 0.0
C316 C 0.66714 0.44315 0.21769 0.0
O317 O 0.90749 0.41385 0.15576 0.0
O318 O 0.84538 0.56156 0.16681 0.0
O319 O 0.64217 0.50352 0.19849 0.0
O320 O 0.72519 0.37653 0.19824 0.0
O321 O 0.6071 0.42424 0.1222 0.0
H322 H 0.53254 0.62265 0.18883 0.0
H323 H 0.67997 0.57171 1.06586 0.0
O324 O 0.64692 0.28748 0.13385 0.0
O325 O 0.81728 0.32063 0.08381 0.0
O326 O 0.79336 0.47929 0.08765 0.0
C327 C 0.80377 0.39084 1.06613 0.0
H328 H 0.72902 0.97777 0.14223 0.0
H329 H 0.3928 0.60076 0.14278 0.0
Co330 Co 0.41196 1.02753 0.37599 0.0
C331 C 0.26052 0.15796 0.42271 0.0
Co332 Co 0.30945 0.955 0.42141 0.0
C333 C 0.53826 1.05536 0.30078 0.0
C334 C 0.52023 0.19177 0.34599 0.0
N335 N 0.50105 0.09043 0.34023 0.0
N336 N 0.56641 0.13168 0.27983 0.0
C337 C 0.55434 0.21673 0.30866 0.0
H338 H 0.52357 0.97616 0.28685 0.0
H339 H 0.49131 0.24389 0.37384 0.0
C340 C 0.44587 0.84128 0.37286 0.0
N341 N 0.24336 0.89275 0.46751 0.0
C342 C 0.26393 0.93614 0.50571 0.0
C343 C 0.23631 0.79239 0.46751 0.0
N344 N 0.2787 0.869 0.52754 0.0
C345 C 0.25672 0.77787 0.50426 0.0
C346 C 0.25817 0.86407 0.34117 0.0
O347 O 0.49414 0.92237 0.36274 0.0
O348 O 0.36945 0.84622 0.40159 0.0
O349 O 0.21411 0.87639 0.38031 0.0
O350 O 0.3312 0.93559 0.33217 0.0
O351 O 0.23876 0.08442 0.4428 0.0
H352 H 0.23217 0.73357 0.44034 0.0
H353 H 0.28622 1.01656 0.51429 0.0
O354 O 0.32433 0.1421 0.38866 0.0
O355 O 0.50153 0.10674 0.4156 0.0
O356 O 0.41875 1.01251 0.45682 0.0
C357 C 0.49549 0.07703 0.4489 0.0
H358 H 0.53485 0.28492 0.30312 0.0
H359 H 0.25781 0.70662 0.51299 0.0
Co360 Co 0.13894 0.44759 0.47238 0.0
C361 C 0.01042 0.32838 0.51627 0.0
Co362 Co 0.1965 0.41361 0.5212 0.0
C363 C 0.00543 0.44348 0.41608 0.0
C364 C 0.04829 0.5903 0.44972 0.0
N365 N 0.06931 0.49307 0.44131 0.0
N366 N 0.94819 0.50703 0.40733 0.0
C367 C 0.97149 0.59828 0.43049 0.0
H368 H 0.00342 0.36295 0.40382 0.0
H369 H 0.08134 0.65133 0.47094 0.0
C370 C 0.33892 0.54642 0.468 0.0
N371 N 0.27196 0.37557 0.55331 0.0
C372 C 0.24473 0.31314 0.58064 0.0
C373 C 0.37641 0.37599 0.54143 0.0
N374 N 0.32838 0.27448 0.58532 0.0
C375 C 0.41052 0.31548 0.56111 0.0
C376 C 0.23373 0.26668 0.44368 0.0
O377 O 0.25811 0.53606 0.45277 0.0
O378 O 0.32718 0.51212 0.50134 0.0
O379 O 0.2495 0.29914 0.4802 0.0
O380 O 0.1949 0.32782 0.42818 0.0
O381 O 0.07786 0.32543 0.53742 0.0
H382 H 0.42658 0.41122 0.51764 0.0
H383 H 0.16597 0.29663 0.59669 0.0
O384 O 0.03222 0.36766 0.48527 0.0
O385 O 0.06187 0.54968 0.51991 0.0
O386 O 0.12173 0.51395 0.56833 0.0
C387 C 0.0474 0.54829 0.5584 0.0
H388 H 0.9424 0.66816 0.43032 0.0
H389 H 0.49071 0.30731 0.55957 0.0
Co390 Co 0.86576 0.89613 0.22792 0.0
C391 C 0.98914 0.86177 0.27379 0.0
Co392 Co 0.90259 1.01151 0.27781 0.0
C393 C 0.79448 0.77511 0.15731 0.0
C394 C 0.94677 0.74991 0.16085 0.0
N395 N 0.86154 0.7912 0.18349 0.0
N396 N 0.83765 0.73366 0.11875 0.0
C397 C 0.92979 0.7094 0.12184 0.0
H398 H 0.72301 0.80947 0.16396 0.0
H399 H 0.02113 0.76082 0.17014 0.0
C400 C 0.77941 1.04508 0.22029 0.0
N401 N 0.90052 0.11828 0.32172 0.0
C402 C 0.90672 0.11167 0.36061 0.0
C403 C 0.83595 0.18972 0.32714 0.0
N404 N 0.84827 0.17584 0.38906 0.0
C405 C 0.80331 0.22367 0.36792 0.0
C406 C 0.04722 1.04235 0.20527 0.0
O407 O 0.76173 0.95016 0.21289 0.0
O408 O 0.82462 0.08439 0.25055 0.0
O409 O 0.02948 0.07115 0.24465 0.0
O410 O 0.97945 0.9741 0.18999 0.0
O411 O 0.98209 0.94446 0.29929 0.0
H412 H 0.80942 0.21593 0.30375 0.0
H413 H 0.9422 1.05336 0.36807 0.0
O414 O 0.95898 0.84544 0.24035 0.0
O415 O 0.76781 0.81082 0.26749 0.0
O416 O 0.78301 0.94437 0.31497 0.0
C417 C 0.75944 0.84788 0.30657 0.0
H418 H 0.98706 0.67946 0.09593 0.0
H419 H 0.74812 0.27814 0.38079 0.0
Co420 Co 0.27214 0.63491 1.00575 0.0
C421 C 0.07451 0.61921 0.97749 0.0
Co422 Co 0.21537 0.78015 1.00475 0.0
C423 C 0.36675 0.53883 1.05514 0.0
C424 C 0.43948 0.50959 0.99227 0.0
N425 N 0.34505 0.5285 1.01604 0.0
N426 N 0.46984 0.54453 1.05657 0.0
C427 C 0.51509 0.523 1.01659 0.0
H428 H 0.31062 0.55669 0.08226 0.0
H429 H 0.45801 0.50566 0.95928 0.0
C430 C 0.40485 0.79505 1.02563 0.0
N431 N 0.18872 0.90726 0.99609 0.0
C432 C 0.18217 0.93102 0.95948 0.0
C433 C 0.21773 0.99721 1.01904 0.0
N434 N 0.21331 1.03038 0.95793 0.0
C435 C 0.23456 0.07179 0.99579 0.0
C436 C 0.18681 0.73757 0.08198 0.0
O437 O 0.3835 0.70416 1.02591 0.0
O438 O 0.34366 0.84093 1.01426 0.0
O439 O 0.1733 0.80777 1.0643 0.0
O440 O 0.19723 0.64912 1.06046 0.0
O441 O 0.0831 0.71454 0.99235 0.0
H442 H 0.23245 1.00598 1.04979 0.0
H443 H 0.15871 0.87574 0.93388 0.0
O444 O 0.1452 0.56683 0.98131 0.0
O445 O 0.34841 0.62485 0.94962 0.0
O446 O 0.2654 0.75186 0.94987 0.0
C447 C 0.32344 0.68523 0.93042 0.0
H448 H 0.5978 0.52771 1.00533 0.0
H449 H 0.26155 0.15063 1.00589 0.0
Co450 Co 0.68113 0.1734 0.72671 0.0
C451 C 0.54471 0.28711 0.77525 0.0
Co452 Co 0.57863 0.10087 0.77213 0.0
C453 C 0.72664 0.19226 0.64241 0.0
C454 C 0.75427 0.33601 0.6806 0.0
N455 N 0.74721 0.23566 0.68061 0.0
N456 N 0.71188 0.2594 0.62057 0.0
C457 C 0.73386 0.35054 0.64385 0.0
H458 H 0.70435 0.11184 0.63382 0.0
H459 H 0.75841 0.39484 0.70777 0.0
C460 C 0.73002 0.97044 0.7254 0.0
N461 N 0.48954 1.03797 0.80789 0.0
C462 C 0.45233 0.07305 0.84733 0.0
C463 C 0.47035 0.93663 0.80212 0.0
N464 N 0.42416 0.99672 0.86829 0.0
C465 C 0.43624 0.91167 0.83946 0.0
C466 C 0.49509 1.05136 0.69922 0.0
O467 O 0.75182 1.04398 0.70531 0.0
O468 O 0.66626 0.9863 0.75946 0.0
O469 O 0.48906 1.02165 0.73252 0.0
O470 O 0.57182 0.1159 0.6913 0.0
O471 O 0.49645 0.20602 0.78537 0.0
H472 H 0.49928 0.88451 0.77428 0.0
H473 H 0.46702 0.15225 0.86127 0.0
O474 O 0.62114 0.28219 0.74653 0.0
O475 O 0.77648 0.25201 0.76781 0.0
O476 O 0.65938 0.19281 0.81594 0.0
C477 C 0.73241 0.26434 0.80695 0.0
H478 H 0.73278 0.42179 0.63512 0.0
H479 H 0.45572 0.84348 0.845 0.0
loop_
_geom_bond_atom_site_label_1
_geom_bond_atom_site_label_2
_geom_bond_distance
_geom_bond_site_symmetry_2
_ccdc_geom_bond_type
Co0 N5 2.057 . S
Co0 O17 2.021 . S
Co0 O20 2.062 . S
Co0 O24 2.117 . S
Co0 O25 2.020 . S
C1 O21 1.259 . S
C1 O24 1.258 . S
Co2 N11 2.057 . S
Co2 O18 2.117 . S
Co2 O19 2.020 . S
Co2 O21 2.021 . S
Co2 O26 2.062 . S
C3 N5 1.316 1_556 S
C3 N6 1.347 . S
C3 H8 0.931 . S
C4 N5 1.375 . S
C4 C7 1.350 1_554 S
C4 H9 0.930 . S
N5 Co0 2.057 . S
N5 C3 1.316 1_554 S
N5 C4 1.375 . S
N6 C3 1.347 . S
N6 C7 1.373 . S
C7 C4 1.350 1_556 S
C7 N6 1.373 . S
C7 H28 0.931 . S
H8 C3 0.931 . S
H9 C4 0.930 . S
C10 O17 1.259 . S
C10 O18 1.258 . S
N11 Co2 2.057 . S
N11 C12 1.316 . S
N11 C13 1.375 . S
C12 N11 1.316 . S
C12 N14 1.347 . S
C12 H23 0.931 . S
C13 N11 1.375 . S
C13 C15 1.350 . S
C13 H22 0.930 . S
N14 C12 1.347 . S
N14 C15 1.373 . S
C15 C13 1.350 . S
C15 N14 1.373 . S
C15 H29 0.931 . S
C16 O19 1.256 . S
C16 O20 1.255 . S
O17 Co0 2.021 . S
O17 C10 1.259 . S
O18 Co2 2.117 . S
O18 C10 1.258 . S
O19 Co2 2.020 . S
O19 C16 1.256 . S
O20 Co0 2.062 . S
O20 C16 1.255 . S
O21 C1 1.259 . S
O21 Co2 2.021 . S
H22 C13 0.930 . S
H23 C12 0.931 . S
O24 Co0 2.117 . S
O24 C1 1.258 . S
O25 Co0 2.020 . S
O25 C27 1.256 . S
O26 Co2 2.062 . S
O26 C27 1.255 . S
C27 O25 1.256 . S
C27 O26 1.255 . S
H28 C7 0.931 . S
H29 C15 0.931 . S
Co30 N35 2.057 . S
Co30 O47 2.021 . S
Co30 O50 2.062 . S
Co30 O54 2.117 . S
Co30 O55 2.020 . S
C31 O51 1.259 . S
C31 O54 1.258 . S
Co32 N41 2.057 . S
Co32 O48 2.117 . S
Co32 O49 2.020 . S
Co32 O51 2.021 . S
Co32 O56 2.062 . S
C33 N35 1.316 . S
C33 N36 1.347 . S
C33 H38 0.931 . S
C34 N35 1.375 . S
C34 C37 1.350 . S
C34 H39 0.930 . S
N35 Co30 2.057 . S
N35 C33 1.316 . S
N35 C34 1.375 . S
N36 C33 1.347 . S
N36 C37 1.373 . S
C37 C34 1.350 . S
C37 N36 1.373 . S
C37 H58 0.931 . S
H38 C33 0.931 . S
H39 C34 0.930 . S
C40 O47 1.259 . S
C40 O48 1.258 . S
N41 Co32 2.057 . S
N41 C42 1.316 . S
N41 C43 1.375 . S
C42 N41 1.316 . S
C42 N44 1.347 . S
C42 H53 0.931 . S
C43 N41 1.375 . S
C43 C45 1.350 . S
C43 H52 0.930 . S
N44 C42 1.347 . S
N44 C45 1.373 . S
C45 C43 1.350 . S
C45 N44 1.373 . S
C45 H59 0.931 . S
C46 O49 1.256 . S
C46 O50 1.255 . S
O47 Co30 2.021 . S
O47 C40 1.259 . S
O48 Co32 2.117 . S
O48 C40 1.258 . S
O49 Co32 2.020 . S
O49 C46 1.256 . S
O50 Co30 2.062 . S
O50 C46 1.255 . S
O51 C31 1.259 . S
O51 Co32 2.021 . S
H52 C43 0.930 . S
H53 C42 0.931 . S
O54 Co30 2.117 . S
O54 C31 1.258 . S
O55 Co30 2.020 . S
O55 C57 1.256 . S
O56 Co32 2.062 . S
O56 C57 1.255 . S
C57 O55 1.256 . S
C57 O56 1.255 . S
H58 C37 0.931 . S
H59 C45 0.931 . S
Co60 N65 2.057 . S
Co60 O77 2.021 . S
Co60 O80 2.062 . S
Co60 O84 2.117 . S
Co60 O85 2.020 . S
C61 O81 1.259 . S
C61 O84 1.258 . S
Co62 N71 2.057 . S
Co62 O78 2.117 . S
Co62 O79 2.020 . S
Co62 O81 2.021 . S
Co62 O86 2.062 . S
C63 N65 1.316 . S
C63 N66 1.347 . S
C63 H68 0.931 . S
C64 N65 1.375 . S
C64 C67 1.350 . S
C64 H69 0.930 . S
N65 Co60 2.057 . S
N65 C63 1.316 . S
N65 C64 1.375 . S
N66 C63 1.347 . S
N66 C67 1.373 . S
C67 C64 1.350 . S
C67 N66 1.373 . S
C67 H88 0.931 . S
H68 C63 0.931 . S
H69 C64 0.930 . S
C70 O77 1.259 . S
C70 O78 1.258 . S
N71 Co62 2.057 . S
N71 C72 1.316 1_565 S
N71 C73 1.375 1_565 S
C72 N71 1.316 1_545 S
C72 N74 1.347 . S
C72 H83 0.931 1_445 S
C73 N71 1.375 1_545 S
C73 C75 1.350 . S
C73 H82 0.930 . S
N74 C72 1.347 . S
N74 C75 1.373 . S
C75 C73 1.350 . S
C75 N74 1.373 . S
C75 H89 0.931 . S
C76 O79 1.256 . S
C76 O80 1.255 . S
O77 Co60 2.021 . S
O77 C70 1.259 . S
O78 Co62 2.117 . S
O78 C70 1.258 . S
O79 Co62 2.020 . S
O79 C76 1.256 . S
O80 Co60 2.062 . S
O80 C76 1.255 . S
O81 C61 1.259 . S
O81 Co62 2.021 . S
H82 C73 0.930 . S
H83 C72 0.931 1_665 S
O84 Co60 2.117 . S
O84 C61 1.258 . S
O85 Co60 2.020 . S
O85 C87 1.256 . S
O86 Co62 2.062 . S
O86 C87 1.255 . S
C87 O85 1.256 . S
C87 O86 1.255 . S
H88 C67 0.931 . S
H89 C75 0.931 . S
Co90 N95 2.057 . S
Co90 O107 2.021 1_655 S
Co90 O110 2.062 . S
Co90 O114 2.117 . S
Co90 O115 2.020 1_655 S
C91 O111 1.259 . S
C91 O114 1.258 . S
Co92 N101 2.057 . S
Co92 O108 2.117 . S
Co92 O109 2.020 . S
Co92 O111 2.021 . S
Co92 O116 2.062 . S
C93 N95 1.316 1_455 S
C93 N96 1.347 . S
C93 H98 0.931 . S
C94 N95 1.375 . S
C94 C97 1.350 . S
C94 H99 0.930 . S
N95 Co90 2.057 . S
N95 C93 1.316 1_655 S
N95 C94 1.375 . S
N96 C93 1.347 . S
N96 C97 1.373 1_455 S
C97 C94 1.350 . S
C97 N96 1.373 1_655 S
C97 H118 0.931 . S
H98 C93 0.931 . S
H99 C94 0.930 . S
C100 O107 1.259 1_655 S
C100 O108 1.259 . S
N101 Co92 2.057 . S
N101 C102 1.316 . S
N101 C103 1.375 . S
C102 N101 1.316 . S
C102 N104 1.347 . S
C102 H113 0.931 . S
C103 N101 1.375 . S
C103 C105 1.350 . S
C103 H112 0.930 . S
N104 C102 1.347 . S
N104 C105 1.373 . S
C105 C103 1.350 . S
C105 N104 1.373 . S
C105 H119 0.931 . S
C106 O109 1.256 . S
C106 O110 1.255 . S
O107 Co90 2.021 1_455 S
O107 C100 1.259 1_455 S
O108 Co92 2.117 . S
O108 C100 1.259 . S
O109 Co92 2.020 . S
O109 C106 1.256 . S
O110 Co90 2.062 . S
O110 C106 1.255 . S
O111 C91 1.259 . S
O111 Co92 2.021 . S
H112 C103 0.930 . S
H113 C102 0.931 . S
O114 Co90 2.117 . S
O114 C91 1.258 . S
O115 Co90 2.020 1_455 S
O115 C117 1.256 . S
O116 Co92 2.062 . S
O116 C117 1.255 1_655 S
C117 O115 1.256 . S
C117 O116 1.255 1_455 S
H118 C97 0.931 . S
H119 C105 0.931 . S
Co120 N125 2.057 . S
Co120 O137 2.021 . S
Co120 O140 2.062 . S
Co120 O144 2.117 . S
Co120 O145 2.020 . S
C121 O141 1.259 . S
C121 O144 1.258 . S
Co122 N131 2.057 . S
Co122 O138 2.117 . S
Co122 O139 2.020 . S
Co122 O141 2.021 . S
Co122 O146 2.062 . S
C123 N125 1.316 . S
C123 N126 1.347 . S
C123 H128 0.931 . S
C124 N125 1.375 . S
C124 C127 1.350 . S
C124 H129 0.930 . S
N125 Co120 2.057 . S
N125 C123 1.316 . S
N125 C124 1.375 . S
N126 C123 1.347 . S
N126 C127 1.373 . S
C127 C124 1.350 . S
C127 N126 1.373 . S
C127 H148 0.931 . S
H128 C123 0.931 . S
H129 C124 0.930 . S
C130 O137 1.259 . S
C130 O138 1.258 . S
N131 Co122 2.057 . S
N131 C132 1.316 1_556 S
N131 C133 1.375 . S
C132 N131 1.316 1_554 S
C132 N134 1.347 . S
C132 H143 0.931 . S
C133 N131 1.375 . S
C133 C135 1.350 1_556 S
C133 H142 0.930 . S
N134 C132 1.347 . S
N134 C135 1.373 . S
C135 C133 1.350 1_554 S
C135 N134 1.373 . S
C135 H149 0.931 . S
C136 O139 1.256 . S
C136 O140 1.255 . S
O137 Co120 2.021 . S
O137 C130 1.259 . S
O138 Co122 2.117 . S
O138 C130 1.258 . S
O139 Co122 2.020 . S
O139 C136 1.256 . S
O140 Co120 2.062 . S
O140 C136 1.255 . S
O141 C121 1.259 . S
O141 Co122 2.021 . S
H142 C133 0.930 . S
H143 C132 0.931 . S
O144 Co120 2.117 . S
O144 C121 1.258 . S
O145 Co120 2.020 . S
O145 C147 1.256 . S
O146 Co122 2.062 . S
O146 C147 1.255 . S
C147 O145 1.256 . S
C147 O146 1.255 . S
H148 C127 0.931 . S
H149 C135 0.931 . S
Co150 N155 2.057 . S
Co150 O167 2.021 . S
Co150 O170 2.062 . S
Co150 O174 2.117 . S
Co150 O175 2.020 . S
C151 O171 1.259 . S
C151 O174 1.258 . S
Co152 N161 2.057 . S
Co152 O168 2.117 . S
Co152 O169 2.020 . S
Co152 O171 2.021 . S
Co152 O176 2.062 . S
C153 N155 1.316 . S
C153 N156 1.347 . S
C153 H158 0.931 . S
C154 N155 1.375 . S
C154 C157 1.350 . S
C154 H159 0.930 . S
N155 Co150 2.057 . S
N155 C153 1.316 . S
N155 C154 1.375 . S
N156 C153 1.347 . S
N156 C157 1.373 . S
C157 C154 1.350 . S
C157 N156 1.373 . S
C157 H178 0.931 . S
H158 C153 0.931 . S
H159 C154 0.930 . S
C160 O167 1.259 . S
C160 O168 1.258 . S
N161 Co152 2.057 . S
N161 C162 1.316 . S
N161 C163 1.375 . S
C162 N161 1.316 . S
C162 N164 1.347 . S
C162 H173 0.931 . S
C163 N161 1.375 . S
C163 C165 1.350 . S
C163 H172 0.930 . S
N164 C162 1.347 . S
N164 C165 1.373 . S
C165 C163 1.350 . S
C165 N164 1.373 . S
C165 H179 0.931 . S
C166 O169 1.256 . S
C166 O170 1.255 . S
O167 Co150 2.021 . S
O167 C160 1.259 . S
O168 Co152 2.117 . S
O168 C160 1.258 . S
O169 Co152 2.020 . S
O169 C166 1.256 . S
O170 Co150 2.062 . S
O170 C166 1.255 . S
O171 C151 1.259 . S
O171 Co152 2.021 . S
H172 C163 0.930 . S
H173 C162 0.931 . S
O174 Co150 2.117 . S
O174 C151 1.258 . S
O175 Co150 2.020 . S
O175 C177 1.256 . S
O176 Co152 2.062 . S
O176 C177 1.255 . S
C177 O175 1.256 . S
C177 O176 1.255 . S
H178 C157 0.931 . S
H179 C165 0.931 . S
Co180 N185 2.057 . S
Co180 O197 2.021 . S
Co180 O200 2.062 . S
Co180 O204 2.117 . S
Co180 O205 2.020 . S
C181 O201 1.259 . S
C181 O204 1.258 . S
Co182 N191 2.057 . S
Co182 O198 2.117 . S
Co182 O199 2.020 . S
Co182 O201 2.021 . S
Co182 O206 2.062 . S
C183 N185 1.316 1_565 S
C183 N186 1.347 . S
C183 H188 0.931 1_665 S
C184 N185 1.375 1_565 S
C184 C187 1.350 . S
C184 H189 0.930 . S
N185 Co180 2.057 . S
N185 C183 1.316 1_545 S
N185 C184 1.375 1_545 S
N186 C183 1.347 . S
N186 C187 1.373 . S
C187 C184 1.350 . S
C187 N186 1.373 . S
C187 H208 0.931 . S
H188 C183 0.931 1_445 S
H189 C184 0.930 . S
C190 O197 1.259 . S
C190 O198 1.258 . S
N191 Co182 2.057 . S
N191 C192 1.316 . S
N191 C193 1.375 . S
C192 N191 1.316 . S
C192 N194 1.347 . S
C192 H203 0.931 . S
C193 N191 1.375 . S
C193 C195 1.350 . S
C193 H202 0.930 . S
N194 C192 1.347 . S
N194 C195 1.373 . S
C195 C193 1.350 . S
C195 N194 1.373 . S
C195 H209 0.931 . S
C196 O199 1.256 . S
C196 O200 1.255 . S
O197 Co180 2.021 . S
O197 C190 1.259 . S
O198 Co182 2.117 . S
O198 C190 1.258 . S
O199 Co182 2.020 . S
O199 C196 1.256 . S
O200 Co180 2.062 . S
O200 C196 1.255 . S
O201 C181 1.259 . S
O201 Co182 2.021 . S
H202 C193 0.930 . S
H203 C192 0.931 . S
O204 Co180 2.117 . S
O204 C181 1.258 . S
O205 Co180 2.020 . S
O205 C207 1.256 . S
O206 Co182 2.062 . S
O206 C207 1.255 . S
C207 O205 1.256 . S
C207 O206 1.255 . S
H208 C187 0.931 . S
H209 C195 0.931 . S
Co210 N215 2.057 . S
Co210 O227 2.021 . S
Co210 O230 2.062 . S
Co210 O234 2.117 . S
Co210 O235 2.020 . S
C211 O231 1.259 1_455 S
C211 O234 1.259 . S
Co212 N221 2.057 . S
Co212 O228 2.117 . S
Co212 O229 2.020 1_455 S
Co212 O231 2.021 1_455 S
Co212 O236 2.062 . S
C213 N215 1.316 . S
C213 N216 1.347 . S
C213 H218 0.931 . S
C214 N215 1.375 . S
C214 C217 1.350 . S
C214 H219 0.930 . S
N215 Co210 2.057 . S
N215 C213 1.316 . S
N215 C214 1.375 . S
N216 C213 1.347 . S
N216 C217 1.373 . S
C217 C214 1.350 . S
C217 N216 1.373 . S
C217 H238 0.931 . S
H218 C213 0.931 . S
H219 C214 0.930 . S
C220 O227 1.259 . S
C220 O228 1.258 . S
N221 Co212 2.057 . S
N221 C222 1.316 1_455 S
N221 C223 1.375 . S
C222 N221 1.316 1_655 S
C222 N224 1.347 . S
C222 H233 0.931 . S
C223 N221 1.375 . S
C223 C225 1.350 . S
C223 H232 0.930 . S
N224 C222 1.347 . S
N224 C225 1.373 1_655 S
C225 C223 1.350 . S
C225 N224 1.373 1_455 S
C225 H239 0.931 . S
C226 O229 1.256 . S
C226 O230 1.255 1_655 S
O227 Co210 2.021 . S
O227 C220 1.259 . S
O228 Co212 2.117 . S
O228 C220 1.258 . S
O229 Co212 2.020 1_655 S
O229 C226 1.256 . S
O230 Co210 2.062 . S
O230 C226 1.255 1_455 S
O231 C211 1.259 1_655 S
O231 Co212 2.021 1_655 S
H232 C223 0.930 . S
H233 C222 0.931 . S
O234 Co210 2.117 . S
O234 C211 1.259 . S
O235 Co210 2.020 . S
O235 C237 1.256 . S
O236 Co212 2.062 . S
O236 C237 1.255 . S
C237 O235 1.256 . S
C237 O236 1.255 . S
H238 C217 0.931 . S
H239 C225 0.931 . S
Co240 N245 2.057 . S
Co240 O257 2.021 . S
Co240 O260 2.062 . S
Co240 O264 2.117 . S
Co240 O265 2.020 . S
C241 O261 1.259 . S
C241 O264 1.258 . S
Co242 N251 2.057 . S
Co242 O258 2.117 1_655 S
Co242 O259 2.020 . S
Co242 O261 2.021 . S
Co242 O266 2.062 . S
C243 N245 1.316 . S
C243 N246 1.347 . S
C243 H248 0.931 . S
C244 N245 1.375 . S
C244 C247 1.350 . S
C244 H249 0.930 . S
N245 Co240 2.057 . S
N245 C243 1.316 . S
N245 C244 1.375 . S
N246 C243 1.347 . S
N246 C247 1.373 . S
C247 C244 1.350 . S
C247 N246 1.373 . S
C247 H268 0.931 . S
H248 C243 0.931 . S
H249 C244 0.930 . S
C250 O257 1.259 1_455 S
C250 O258 1.258 . S
N251 Co242 2.057 . S
N251 C252 1.316 . S
N251 C253 1.375 1_655 S
C252 N251 1.316 . S
C252 N254 1.347 . S
C252 H263 0.931 . S
C253 N251 1.375 1_455 S
C253 C255 1.350 . S
C253 H262 0.930 . S
N254 C252 1.347 . S
N254 C255 1.373 1_655 S
C255 C253 1.350 . S
C255 N254 1.373 1_455 S
C255 H269 0.931 . S
C256 O259 1.256 . S
C256 O260 1.255 . S
O257 Co240 2.021 . S
O257 C250 1.259 1_655 S
O258 Co242 2.117 1_455 S
O258 C250 1.258 . S
O259 Co242 2.020 . S
O259 C256 1.256 . S
O260 Co240 2.062 . S
O260 C256 1.255 . S
O261 C241 1.259 . S
O261 Co242 2.021 . S
H262 C253 0.930 . S
H263 C252 0.931 . S
O264 Co240 2.117 . S
O264 C241 1.258 . S
O265 Co240 2.020 . S
O265 C267 1.256 . S
O266 Co242 2.062 . S
O266 C267 1.255 . S
C267 O265 1.256 . S
C267 O266 1.255 . S
H268 C247 0.931 . S
H269 C255 0.931 . S
Co270 N275 2.057 1_545 S
Co270 O287 2.021 1_455 S
Co270 O290 2.062 . S
Co270 O294 2.117 1_545 S
Co270 O295 2.020 1_445 S
C271 O291 1.259 1_565 S
C271 O294 1.258 . S
Co272 N281 2.057 . S
Co272 O288 2.117 . S
Co272 O289 2.020 . S
Co272 O291 2.021 . S
Co272 O296 2.062 1_455 S
C273 N275 1.316 1_655 S
C273 N276 1.347 . S
C273 H278 0.931 1_565 S
C274 N275 1.375 . S
C274 C277 1.350 . S
C274 H279 0.930 . S
N275 Co270 2.057 1_565 S
N275 C273 1.316 1_455 S
N275 C274 1.375 . S
N276 C273 1.347 . S
N276 C277 1.373 1_655 S
C277 C274 1.350 . S
C277 N276 1.373 1_455 S
C277 H298 0.931 . S
H278 C273 0.931 1_545 S
H279 C274 0.930 . S
C280 O287 1.259 . S
C280 O288 1.258 1_655 S
N281 Co272 2.057 . S
N281 C282 1.316 . S
N281 C283 1.375 . S
C282 N281 1.316 . S
C282 N284 1.347 . S
C282 H293 0.931 . S
C283 N281 1.375 . S
C283 C285 1.350 . S
C283 H292 0.930 . S
N284 C282 1.347 . S
N284 C285 1.373 . S
C285 C283 1.350 . S
C285 N284 1.373 . S
C285 H299 0.931 . S
C286 O289 1.256 . S
C286 O290 1.255 . S
O287 Co270 2.021 1_655 S
O287 C280 1.259 . S
O288 Co272 2.117 . S
O288 C280 1.258 1_455 S
O289 Co272 2.020 . S
O289 C286 1.256 . S
O290 Co270 2.062 . S
O290 C286 1.255 . S
O291 C271 1.259 1_545 S
O291 Co272 2.021 . S
H292 C283 0.930 . S
H293 C282 0.931 . S
O294 Co270 2.117 1_565 S
O294 C271 1.258 . S
O295 Co270 2.020 1_665 S
O295 C297 1.256 . S
O296 Co272 2.062 1_655 S
O296 C297 1.255 1_545 S
C297 O295 1.256 . S
C297 O296 1.255 1_565 S
H298 C277 0.931 . S
H299 C285 0.931 . S
Co300 N305 2.057 . S
Co300 O317 2.021 . S
Co300 O320 2.062 . S
Co300 O324 2.117 . S
Co300 O325 2.020 . S
C301 O321 1.259 . S
C301 O324 1.258 . S
Co302 N311 2.057 . S
Co302 O318 2.117 . S
Co302 O319 2.020 . S
Co302 O321 2.021 . S
Co302 O326 2.062 . S
C303 N305 1.316 . S
C303 N306 1.347 . S
C303 H308 0.931 . S
C304 N305 1.375 . S
C304 C307 1.350 1_545 S
C304 H309 0.930 . S
N305 Co300 2.057 . S
N305 C303 1.316 . S
N305 C304 1.375 . S
N306 C303 1.347 . S
N306 C307 1.373 1_545 S
C307 C304 1.350 1_565 S
C307 N306 1.373 1_565 S
C307 H328 0.931 . S
H308 C303 0.931 . S
H309 C304 0.930 . S
C310 O317 1.259 . S
C310 O318 1.258 . S
N311 Co302 2.057 . S
N311 C312 1.316 . S
N311 C313 1.375 . S
C312 N311 1.316 . S
C312 N314 1.347 . S
C312 H323 0.931 . S
C313 N311 1.375 . S
C313 C315 1.350 . S
C313 H322 0.930 . S
N314 C312 1.347 . S
N314 C315 1.373 . S
C315 C313 1.350 . S
C315 N314 1.373 . S
C315 H329 0.931 . S
C316 O319 1.256 . S
C316 O320 1.255 . S
O317 Co300 2.021 . S
O317 C310 1.259 . S
O318 Co302 2.117 . S
O318 C310 1.258 . S
O319 Co302 2.020 . S
O319 C316 1.256 . S
O320 Co300 2.062 . S
O320 C316 1.255 . S
O321 C301 1.259 . S
O321 Co302 2.021 . S
H322 C313 0.930 . S
H323 C312 0.931 . S
O324 Co300 2.117 . S
O324 C301 1.258 . S
O325 Co300 2.020 . S
O325 C327 1.256 . S
O326 Co302 2.062 . S
O326 C327 1.255 . S
C327 O325 1.256 . S
C327 O326 1.255 . S
H328 C307 0.931 . S
H329 C315 0.931 . S
Co330 N335 2.057 1_565 S
Co330 O347 2.021 . S
Co330 O350 2.062 . S
Co330 O354 2.117 1_565 S
Co330 O355 2.020 1_565 S
C331 O351 1.259 1_545 S
C331 O354 1.258 . S
Co332 N341 2.057 . S
Co332 O348 2.117 . S
Co332 O349 2.020 . S
Co332 O351 2.021 . S
Co332 O356 2.062 . S
C333 N335 1.316 1_565 S
C333 N336 1.347 1_565 S
C333 H338 0.931 . S
C334 N335 1.375 . S
C334 C337 1.350 . S
C334 H339 0.930 . S
N335 Co330 2.057 1_545 S
N335 C333 1.316 1_545 S
N335 C334 1.375 . S
N336 C333 1.347 1_545 S
N336 C337 1.373 . S
C337 C334 1.350 . S
C337 N336 1.373 . S
C337 H358 0.931 . S
H338 C333 0.931 . S
H339 C334 0.930 . S
C340 O347 1.259 . S
C340 O348 1.258 . S
N341 Co332 2.057 . S
N341 C342 1.316 . S
N341 C343 1.375 . S
C342 N341 1.316 . S
C342 N344 1.347 . S
C342 H353 0.931 . S
C343 N341 1.375 . S
C343 C345 1.350 . S
C343 H352 0.930 . S
N344 C342 1.347 . S
N344 C345 1.373 . S
C345 C343 1.350 . S
C345 N344 1.373 . S
C345 H359 0.931 . S
C346 O349 1.256 . S
C346 O350 1.255 . S
O347 Co330 2.021 . S
O347 C340 1.259 . S
O348 Co332 2.117 . S
O348 C340 1.258 . S
O349 Co332 2.020 . S
O349 C346 1.256 . S
O350 Co330 2.062 . S
O350 C346 1.255 . S
O351 C331 1.259 1_565 S
O351 Co332 2.021 . S
H352 C343 0.930 . S
H353 C342 0.931 . S
O354 Co330 2.117 1_545 S
O354 C331 1.258 . S
O355 Co330 2.020 1_545 S
O355 C357 1.256 . S
O356 Co332 2.062 . S
O356 C357 1.255 1_565 S
C357 O355 1.256 . S
C357 O356 1.255 1_545 S
H358 C337 0.931 . S
H359 C345 0.931 . S
Co360 N365 2.057 . S
Co360 O377 2.021 . S
Co360 O380 2.062 . S
Co360 O384 2.117 1_455 S
Co360 O385 2.020 . S
C361 O381 1.259 1_655 S
C361 O384 1.258 . S
Co362 N371 2.057 . S
Co362 O378 2.117 . S
Co362 O379 2.020 . S
Co362 O381 2.021 . S
Co362 O386 2.062 . S
C363 N365 1.316 . S
C363 N366 1.347 . S
C363 H368 0.931 . S
C364 N365 1.375 1_655 S
C364 C367 1.350 . S
C364 H369 0.930 . S
N365 Co360 2.057 . S
N365 C363 1.316 . S
N365 C364 1.375 1_455 S
N366 C363 1.347 . S
N366 C367 1.373 1_455 S
C367 C364 1.350 . S
C367 N366 1.373 1_655 S
C367 H388 0.931 . S
H368 C363 0.931 . S
H369 C364 0.930 . S
C370 O377 1.259 . S
C370 O378 1.258 . S
N371 Co362 2.057 . S
N371 C372 1.316 . S
N371 C373 1.375 . S
C372 N371 1.316 . S
C372 N374 1.347 . S
C372 H383 0.931 . S
C373 N371 1.375 . S
C373 C375 1.350 . S
C373 H382 0.930 . S
N374 C372 1.347 . S
N374 C375 1.373 . S
C375 C373 1.350 . S
C375 N374 1.373 . S
C375 H389 0.931 . S
C376 O379 1.256 . S
C376 O380 1.255 . S
O377 Co360 2.021 . S
O377 C370 1.259 . S
O378 Co362 2.117 . S
O378 C370 1.258 . S
O379 Co362 2.020 . S
O379 C376 1.256 . S
O380 Co360 2.062 . S
O380 C376 1.255 . S
O381 C361 1.259 1_455 S
O381 Co362 2.021 . S
H382 C373 0.930 . S
H383 C372 0.931 . S
O384 Co360 2.117 1_655 S
O384 C361 1.258 . S
O385 Co360 2.020 . S
O385 C387 1.256 . S
O386 Co362 2.062 . S
O386 C387 1.255 . S
C387 O385 1.256 . S
C387 O386 1.255 . S
H388 C367 0.931 . S
H389 C375 0.931 . S
Co390 N395 2.057 . S
Co390 O407 2.021 . S
Co390 O410 2.062 1_655 S
Co390 O414 2.117 . S
Co390 O415 2.020 . S
C391 O411 1.259 . S
C391 O414 1.258 1_455 S
Co392 N401 2.057 1_565 S
Co392 O408 2.117 1_565 S
Co392 O409 2.020 1_665 S
Co392 O411 2.021 1_655 S
Co392 O416 2.062 . S
C393 N395 1.316 . S
C393 N396 1.347 . S
C393 H398 0.931 . S
C394 N395 1.375 . S
C394 C397 1.350 . S
C394 H399 0.930 . S
N395 Co390 2.057 . S
N395 C393 1.316 . S
N395 C394 1.375 . S
N396 C393 1.347 . S
N396 C397 1.373 . S
C397 C394 1.350 . S
C397 N396 1.373 . S
C397 H418 0.931 . S
H398 C393 0.931 . S
H399 C394 0.930 . S
C400 O407 1.259 1_545 S
C400 O408 1.258 . S
N401 Co392 2.057 1_545 S
N401 C402 1.316 1_655 S
N401 C403 1.375 . S
C402 N401 1.316 1_455 S
C402 N404 1.347 . S
C402 H413 0.931 1_545 S
C403 N401 1.375 . S
C403 C405 1.350 . S
C403 H412 0.930 . S
N404 C402 1.347 . S
N404 C405 1.373 1_455 S
C405 C403 1.350 . S
C405 N404 1.373 1_655 S
C405 H419 0.931 . S
C406 O409 1.256 . S
C406 O410 1.255 1_545 S
O407 Co390 2.021 . S
O407 C400 1.259 1_565 S
O408 Co392 2.117 1_545 S
O408 C400 1.258 . S
O409 Co392 2.020 1_445 S
O409 C406 1.256 . S
O410 Co390 2.062 1_455 S
O410 C406 1.255 1_565 S
O411 C391 1.259 . S
O411 Co392 2.021 1_455 S
H412 C403 0.930 . S
H413 C402 0.931 1_565 S
O414 Co390 2.117 . S
O414 C391 1.258 1_655 S
O415 Co390 2.020 . S
O415 C417 1.256 . S
O416 Co392 2.062 . S
O416 C417 1.255 . S
C417 O415 1.256 . S
C417 O416 1.255 . S
H418 C397 0.931 . S
H419 C405 0.931 . S
Co420 N425 2.057 . S
Co420 O437 2.021 . S
Co420 O440 2.062 . S
Co420 O444 2.117 . S
Co420 O445 2.020 . S
C421 O441 1.259 . S
C421 O444 1.258 . S
Co422 N431 2.057 . S
Co422 O438 2.117 . S
Co422 O439 2.020 . S
Co422 O441 2.021 . S
Co422 O446 2.062 . S
C423 N425 1.316 . S
C423 N426 1.347 . S
C423 H428 0.931 . S
C424 N425 1.375 . S
C424 C427 1.350 . S
C424 H429 0.930 . S
N425 Co420 2.057 . S
N425 C423 1.316 . S
N425 C424 1.375 . S
N426 C423 1.347 . S
N426 C427 1.373 . S
C427 C424 1.350 . S
C427 N426 1.373 . S
C427 H448 0.931 . S
H428 C423 0.931 . S
H429 C424 0.930 . S
C430 O437 1.259 . S
C430 O438 1.258 . S
N431 Co422 2.057 . S
N431 C432 1.316 . S
N431 C433 1.375 . S
C432 N431 1.316 . S
C432 N434 1.347 . S
C432 H443 0.931 . S
C433 N431 1.375 . S
C433 C435 1.350 1_565 S
C433 H442 0.930 . S
N434 C432 1.347 . S
N434 C435 1.373 1_565 S
C435 C433 1.350 1_545 S
C435 N434 1.373 1_545 S
C435 H449 0.931 . S
C436 O439 1.256 . S
C436 O440 1.255 . S
O437 Co420 2.021 . S
O437 C430 1.259 . S
O438 Co422 2.117 . S
O438 C430 1.258 . S
O439 Co422 2.020 . S
O439 C436 1.256 . S
O440 Co420 2.062 . S
O440 C436 1.255 . S
O441 C421 1.259 . S
O441 Co422 2.021 . S
H442 C433 0.930 . S
H443 C432 0.931 . S
O444 Co420 2.117 . S
O444 C421 1.258 . S
O445 Co420 2.020 . S
O445 C447 1.256 . S
O446 Co422 2.062 . S
O446 C447 1.255 . S
C447 O445 1.256 . S
C447 O446 1.255 . S
H448 C427 0.931 . S
H449 C435 0.931 . S
Co450 N455 2.057 . S
Co450 O467 2.021 . S
Co450 O470 2.062 . S
Co450 O474 2.117 . S
Co450 O475 2.020 . S
C451 O471 1.259 . S
C451 O474 1.258 . S
Co452 N461 2.057 1_545 S
Co452 O468 2.117 1_545 S
Co452 O469 2.020 1_545 S
Co452 O471 2.021 . S
Co452 O476 2.062 . S
C453 N455 1.316 . S
C453 N456 1.347 . S
C453 H458 0.931 . S
C454 N455 1.375 . S
C454 C457 1.350 . S
C454 H459 0.930 . S
N455 Co450 2.057 . S
N455 C453 1.316 . S
N455 C454 1.375 . S
N456 C453 1.347 . S
N456 C457 1.373 . S
C457 C454 1.350 . S
C457 N456 1.373 . S
C457 H478 0.931 . S
H458 C453 0.931 . S
H459 C454 0.930 . S
C460 O467 1.259 1_565 S
C460 O468 1.258 . S
N461 Co452 2.057 1_565 S
N461 C462 1.316 1_565 S
N461 C463 1.375 . S
C462 N461 1.316 1_545 S
C462 N464 1.347 1_545 S
C462 H473 0.931 . S
C463 N461 1.375 . S
C463 C465 1.350 . S
C463 H472 0.930 . S
N464 C462 1.347 1_565 S
N464 C465 1.373 . S
C465 C463 1.350 . S
C465 N464 1.373 . S
C465 H479 0.931 . S
C466 O469 1.256 . S
C466 O470 1.255 1_565 S
O467 Co450 2.021 . S
O467 C460 1.259 1_545 S
O468 Co452 2.117 1_565 S
O468 C460 1.258 . S
O469 Co452 2.020 1_565 S
O469 C466 1.256 . S
O470 Co450 2.062 . S
O470 C466 1.255 1_545 S
O471 C451 1.259 . S
O471 Co452 2.021 . S
H472 C463 0.930 . S
H473 C462 0.931 . S
O474 Co450 2.117 . S
O474 C451 1.258 . S
O475 Co450 2.020 . S
O475 C477 1.256 . S
O476 Co452 2.062 . S
O476 C477 1.255 . S
C477 O475 1.256 . S
C477 O476 1.255 . S
H478 C457 0.931 . S
H479 C465 0.931 . S
C10 C301 1.575 . S
C40 C340 0.835 . S
C61 C250 1.575 . S
C280 C100 0.835 . S
C121 C430 1.575 . S
C451 C151 0.835 . S
C361 C190 1.575 . S
C211 C391 0.835 . S
C16 C147 3.439 1_544 S
C46 C417 2.904 . S
N74 N186 3.830 1_445 S
C106 C477 4.330 . S
C177 C286 2.904 . S
C346 C237 4.330 . S
C387 C256 3.439 1_455 S
N314 N426 3.830 1_554 S
C27 C220 2.548 . S
C57 C370 2.389 . S
N66 C160 1.895 . S
C117 C421 2.211 . S
C91 C136 2.548 . S
C166 C241 2.389 . S
N194 C31 1.895 . S
C310 C226 2.211 . S
C267 C460 2.548 . S
C130 C297 2.389 . S
C400 N306 1.895 . S
C181 C357 2.211 . S
C376 C331 2.548 . S
C406 C1 2.389 . S
C271 N434 1.895 . S
C466 C70 2.211 . S
N6 N284 2.063 . S
C316 N36 2.277 . S
C87 N344 1.651 . S
N254 N96 1.637 1_655 S
N396 N134 2.063 . S
C447 N164 2.277 . S
N456 C196 1.651 . S
N366 N224 1.637 1_455 S
N44 N246 2.062 . S
C76 N276 2.277 1_455 S
N104 C327 1.651 1_556 S
N336 N14 1.637 . S
N156 N374 2.062 . S
C207 N404 2.277 1_655 S
N216 C436 1.651 1_554 S
N126 N464 1.637 . S
