# Generated by pormake.
# Topology rkf, (6)-cn, num edge types: 1
# Building blocks:
#     Node 0, Type 0, BuildingBlock: GEDQOX_clean_sbu_0, # of connection points: 6
#     Node 1, Type 0, BuildingBlock: GEDQOX_clean_sbu_0, # of connection points: 6
#     Node 2, Type 0, BuildingBlock: GEDQOX_clean_sbu_0, # of connection points: 6
#     Node 3, Type 0, BuildingBlock: GEDQOX_clean_sbu_0, # of connection points: 6
#     Node 4, Type 0, BuildingBlock: GEDQOX_clean_sbu_0, # of connection points: 6
#     Node 5, Type 0, BuildingBlock: GEDQOX_clean_sbu_0, # of connection points: 6
#     Edge 6, Type (0, 0), BuildingBlock: KIFKEQ_clean_linker_1, # of connection points: 2
#     Edge 7, Type (0, 0), BuildingBlock: KIFKEQ_clean_linker_1, # of connection points: 2
#     Edge 8, Type (0, 0), BuildingBlock: KIFKEQ_clean_linker_1, # of connection points: 2
#     Edge 9, Type (0, 0), BuildingBlock: KIFKEQ_clean_linker_1, # of connection points: 2
#     Edge 10, Type (0, 0), BuildingBlock: KIFKEQ_clean_linker_1, # of connection points: 2
#     Edge 11, Type (0, 0), BuildingBlock: KIFKEQ_clean_linker_1, # of connection points: 2
#     Edge 12, Type (0, 0), BuildingBlock: KIFKEQ_clean_linker_1, # of connection points: 2
#     Edge 13, Type (0, 0), BuildingBlock: KIFKEQ_clean_linker_1, # of connection points: 2
#     Edge 14, Type (0, 0), BuildingBlock: KIFKEQ_clean_linker_1, # of connection points: 2
#     Edge 15, Type (0, 0), BuildingBlock: KIFKEQ_clean_linker_1, # of connection points: 2
#     Edge 16, Type (0, 0), BuildingBlock: KIFKEQ_clean_linker_1, # of connection points: 2
#     Edge 17, Type (0, 0), BuildingBlock: KIFKEQ_clean_linker_1, # of connection points: 2
#     Edge 18, Type (0, 0), BuildingBlock: KIFKEQ_clean_linker_1, # of connection points: 2
#     Edge 19, Type (0, 0), BuildingBlock: KIFKEQ_clean_linker_1, # of connection points: 2
#     Edge 20, Type (0, 0), BuildingBlock: KIFKEQ_clean_linker_1, # of connection points: 2
#     Edge 21, Type (0, 0), BuildingBlock: KIFKEQ_clean_linker_1, # of connection points: 2
#     Edge 22, Type (0, 0), BuildingBlock: KIFKEQ_clean_linker_1, # of connection points: 2
#     Edge 23, Type (0, 0), BuildingBlock: KIFKEQ_clean_linker_1, # of connection points: 2
# Relax obj value: 0.746
# Max RMSD: 0.305
# Mean RMSD: 0.276
data_MOF--net-rkf--node1-GEDQOX_clean_sbu_0--edge1-KIFKEQ_clean_linker_1
_symmetry_space_group_name_H-M    P1
_symmetry_Int_Tables_number       1
_symmetry_cell_setting            triclinic
loop_
_symmetry_equiv_pos_as_xyz
'x, y, z'
_cell_length_a     24.057476
_cell_length_b     23.235096
_cell_length_c     46.669311
_cell_angle_alpha  89.512232
_cell_angle_beta   89.877931
_cell_angle_gamma 123.78773
loop_
_atom_site_label
_atom_site_type_symbol
_atom_site_fract_x
_atom_site_fract_y
_atom_site_fract_z
_atom_type_partial_charge
Nd0 Nd 0.23119 0.01122 1.10329 0.0
Nd1 Nd 0.33455 0.14393 1.11751 0.0
C2 C 0.16008 0.87578 1.09444 0.0
C3 C 0.17207 0.82067 1.09728 0.0
C4 C 0.23102 0.8348 1.11009 0.0
C5 C 0.25759 0.79658 1.10251 0.0
C6 C 0.22582 0.7446 1.08167 0.0
C7 C 0.16142 0.72387 1.0726 0.0
C8 C 0.13498 0.762 1.08024 0.0
C9 C 0.19732 0.10232 1.08982 0.0
C10 C 0.29488 0.12275 1.0467 0.0
C11 C 0.42898 0.26592 0.13872 0.0
C12 C 0.44169 0.31386 0.16179 0.0
C13 C 0.39276 0.29651 0.1827 0.0
C14 C 0.41051 0.33322 0.20829 0.0
C15 C 0.47747 0.38737 0.21329 0.0
C16 C 0.5249 0.40819 0.19117 0.0
C17 C 0.50706 0.37152 0.16559 0.0
C18 C 0.38873 0.06411 1.11017 0.0
C19 C 0.2118 0.04825 0.17011 0.0
O20 O 0.15473 0.90299 1.1178 0.0
O21 O 0.19807 0.92239 1.07513 0.0
O22 O 0.17298 0.04454 1.07648 0.0
O23 O 0.22742 0.10396 1.11226 0.0
O24 O 0.26353 0.05613 1.05487 0.0
O25 O 0.32675 0.16925 1.06757 0.0
O26 O 0.38967 0.25926 1.11803 0.0
O27 O 0.41832 0.2069 0.14699 0.0
O28 O 0.40711 0.1206 1.09632 0.0
O29 O 0.33394 0.04462 1.12322 0.0
O30 O 0.27128 0.10706 0.16326 0.0
O31 O 0.18321 0.00168 0.14933 0.0
H32 H 0.25996 0.87987 1.12344 0.0
H33 H 0.30651 0.81288 1.11042 0.0
H34 H 0.13512 0.68419 1.0566 0.0
H35 H 0.08939 0.75046 1.07013 0.0
H36 H 0.34212 0.25174 0.1801 0.0
H37 H 0.37293 0.3154 0.22502 0.0
H38 H 0.57663 0.45005 0.19435 0.0
H39 H 0.5454 0.38531 0.1496 0.0
Nd40 Nd 0.31032 0.22978 0.51294 0.0
Nd41 Nd 0.20764 0.22465 0.52066 0.0
C42 C 0.4388 0.27986 0.50471 0.0
C43 C 0.47584 0.29801 0.47735 0.0
C44 C 0.52432 0.36812 0.47098 0.0
C45 C 0.5425 0.39037 0.44254 0.0
C46 C 0.51258 0.34261 0.42022 0.0
C47 C 0.47037 0.27165 0.42688 0.0
C48 C 0.45195 0.24947 0.4552 0.0
C49 C 0.23398 0.09747 0.51085 0.0
C50 C 0.20181 0.19015 0.45536 0.0
C51 C 0.11466 0.24494 0.53733 0.0
C52 C 0.10704 0.30335 0.53604 0.0
C53 C 0.07139 0.30992 0.55797 0.0
C54 C 0.07873 0.37299 0.56243 0.0
C55 C 0.12222 0.43129 0.54501 0.0
C56 C 0.15221 0.4221 0.52105 0.0
C57 C 0.1452 0.35875 0.51677 0.0
C58 C 0.32172 0.36142 0.50575 0.0
C59 C 0.23951 0.16937 0.57993 0.0
O60 O 0.41633 0.31802 0.51037 0.0
O61 O 0.39406 0.2146 0.51012 0.0
O62 O 0.27473 0.13272 0.48983 0.0
O63 O 0.21842 0.13099 0.52693 0.0
O64 O 0.26703 0.22197 0.46301 0.0
O65 O 0.16103 0.17285 0.47726 0.0
O66 O 0.16342 0.25543 0.55362 0.0
O67 O 0.11118 0.21456 0.5133 0.0
O68 O 0.27046 0.32346 0.48967 0.0
O69 O 0.31388 0.32298 0.52661 0.0
O70 O 0.19221 0.17041 0.56603 0.0
O71 O 0.29609 0.19479 0.56432 0.0
H72 H 0.54314 0.40654 0.4877 0.0
H73 H 0.57519 0.44537 0.43795 0.0
H74 H 0.44769 0.23373 0.40999 0.0
H75 H 0.4146 0.1951 0.45935 0.0
H76 H 0.04231 0.26824 0.57328 0.0
H77 H 0.05516 0.3771 0.58135 0.0
H78 H 0.18483 0.46503 0.50676 0.0
H79 H 0.17327 0.35467 0.49966 0.0
Nd80 Nd 0.17551 0.3087 0.77039 0.0
Nd81 Nd 0.07742 0.19912 0.78556 0.0
C82 C 0.2631 0.44528 0.76713 0.0
C83 C 0.26332 0.49988 0.75096 0.0
C84 C 0.20376 0.48564 0.73886 0.0
C85 C 0.20473 0.53149 0.7191 0.0
C86 C 0.26571 0.59171 0.71044 0.0
C87 C 0.32499 0.60807 0.72397 0.0
C88 C 0.32372 0.56243 0.7442 0.0
C89 C 0.22409 0.23398 0.75847 0.0
C90 C 0.08833 0.20117 0.71586 0.0
C91 C 0.95707 0.08798 0.79713 0.0
C92 C 0.9082 0.07905 0.81871 0.0
C93 C 0.87175 0.01756 0.83483 0.0
C94 C 0.83892 0.01521 0.86006 0.0
C95 C 0.84323 0.07485 0.8698 0.0
C96 C 0.87551 0.13458 0.85223 0.0
C97 C 0.90737 0.1365 0.82693 0.0
C98 C 0.06684 0.31367 0.79797 0.0
C99 C 0.17443 0.23744 0.83822 0.0
O100 O 0.21826 0.41449 0.78744 0.0
O101 O 0.26645 0.40133 0.75143 0.0
O102 O 0.22891 0.2796 0.74077 0.0
O103 O 0.18358 0.21954 0.7796 0.0
O104 O 0.12556 0.26866 0.72271 0.0
O105 O 0.06994 0.15955 0.73834 0.0
O106 O 0.01178 0.09814 0.80788 0.0
O107 O 0.96907 0.13031 0.77581 0.0
O108 O 0.07116 0.27515 0.81683 0.0
O109 O 0.07702 0.29659 0.77388 0.0
O110 O 0.11795 0.18544 0.82817 0.0
O111 O 0.20589 0.29367 0.82039 0.0
H112 H 0.15716 0.43663 0.74314 0.0
H113 H 0.15839 0.51636 0.70864 0.0
H114 H 0.37269 0.65387 0.71758 0.0
H115 H 0.3703 0.57391 0.75317 0.0
H116 H 0.87207 0.97276 0.82889 0.0
H117 H 0.81326 0.96781 0.87268 0.0
H118 H 0.8809 0.18189 0.85896 0.0
H119 H 0.93534 0.18469 0.8149 0.0
Nd120 Nd 0.926 0.09388 0.18136 0.0
Nd121 Nd 0.86338 0.96483 0.19222 0.0
C122 C 0.95243 0.21003 0.15734 0.0
C123 C 0.92757 0.21836 1.12971 0.0
C124 C 0.85844 0.18209 1.12466 0.0
C125 C 0.83435 0.17347 1.0968 0.0
C126 C 0.87893 0.20137 1.07345 0.0
C127 C 0.94808 0.24296 1.07864 0.0
C128 C 0.9722 0.25129 1.10657 0.0
C129 C 0.02705 0.07902 0.19179 0.0
C130 C 0.91477 0.99102 1.1256 0.0
C131 C 0.78902 0.8342 0.21001 0.0
C132 C 0.71562 0.78636 0.21075 0.0
C133 C 0.68455 0.74796 0.2358 0.0
C134 C 0.6182 0.72445 0.24181 0.0
C135 C 0.58253 0.74025 0.22301 0.0
C136 C 0.61046 0.76884 0.19595 0.0
C137 C 0.67668 0.79183 0.18986 0.0
C138 C 0.77114 -0.00032 0.17442 0.0
C139 C 0.94785 0.06654 0.24977 0.0
O140 O 0.90842 0.17805 0.17797 0.0
O141 O 0.99211 0.18864 0.15519 0.0
O142 O 0.02028 0.12458 0.20415 0.0
O143 O 0.97298 0.03283 0.17936 0.0
O144 O 0.92268 0.05099 1.13294 0.0
O145 O 0.89678 0.94633 0.14716 0.0
O146 O 0.81252 0.88679 0.22717 0.0
O147 O 0.8175 0.85266 0.18478 0.0
O148 O 0.77839 0.95392 0.16303 0.0
O149 O 0.8159 0.02955 0.19349 0.0
O150 O 0.91796 0.00321 0.23861 0.0
O151 O 0.95295 0.11448 0.23173 0.0
H152 H 0.82272 0.15633 0.14195 0.0
H153 H 0.78081 0.14185 1.0934 0.0
H154 H 0.9836 0.2647 1.06099 0.0
H155 H 0.0257 0.27914 1.10983 0.0
H156 H 0.71355 0.74286 0.25213 0.0
H157 H 0.59844 0.70251 0.26289 0.0
H158 H 0.58397 0.78086 0.18089 0.0
H159 H 0.6991 0.82008 0.17005 0.0
Nd160 Nd 0.90061 0.97068 0.4362 0.0
Nd161 Nd 0.91548 0.86433 0.44736 0.0
C162 C 0.84688 0.03867 0.4195 0.0
C163 C 0.79406 0.02164 0.39877 0.0
C164 C 0.74277 0.03079 0.40619 0.0
C165 C 0.68392 -0.00063 0.39011 0.0
C166 C 0.67594 0.95815 0.36668 0.0
C167 C 0.72906 0.95301 0.35821 0.0
C168 C 0.7876 0.98439 0.37411 0.0
C169 C 0.03199 0.01325 0.4465 0.0
C170 C 0.95835 0.92743 0.37876 0.0
C171 C 0.93448 0.77052 0.46863 0.0
C172 C 0.89685 0.71551 0.49022 0.0
C173 C 0.93169 0.70011 0.50936 0.0
C174 C 0.90065 0.66251 0.53452 0.0
C175 C 0.83424 0.64002 0.54101 0.0
C176 C 0.79799 0.65114 0.52065 0.0
C177 C 0.82915 0.68892 0.49554 0.0
C178 C 0.77886 0.80442 0.44056 0.0
C179 C 0.92951 0.96921 0.50482 0.0
O180 O 0.82598 -0.0029 0.44169 0.0
O181 O 0.90364 0.05201 0.40937 0.0
O182 O 0.00521 0.0442 0.45715 0.0
O183 O 0.99035 0.96743 0.43031 0.0
O184 O 0.92268 0.95326 0.38681 0.0
O185 O 0.96881 0.89486 0.39997 0.0
O186 O 0.96165 0.83247 0.47878 0.0
O187 O 0.90569 0.76335 0.44402 0.0
O188 O 0.81409 0.78841 0.42606 0.0
O189 O 0.819 0.85982 0.45443 0.0
O190 O 0.92816 0.91323 0.49578 0.0
O191 O 0.91985 0.00344 0.48473 0.0
H192 H 0.7466 0.05867 0.42538 0.0
H193 H 0.64342 0.00387 0.39691 0.0
H194 H 0.72394 0.92184 0.33999 0.0
H195 H 0.826 0.97594 0.36806 0.0
H196 H 0.9843 0.72137 0.50587 0.0
H197 H 0.93038 0.65575 0.54985 0.0
H198 H 0.74659 0.63385 0.52483 0.0
H199 H 0.80158 0.70112 0.48122 0.0
Nd200 Nd 0.9844 0.83071 0.84357 0.0
Nd201 Nd 0.11855 0.8869 0.85941 0.0
C202 C 0.85761 0.73903 0.83146 0.0
C203 C 0.82629 0.69524 0.80595 0.0
C204 C 0.84056 0.64647 0.79798 0.0
C205 C 0.82142 0.61505 0.77119 0.0
C206 C 0.78809 0.63205 0.75167 0.0
C207 C 0.76978 0.67715 0.76048 0.0
C208 C 0.78853 0.70823 0.78738 0.0
C209 C 0.05738 0.97226 0.84861 0.0
C210 C 0.09263 0.91346 0.78918 0.0
C211 C 0.24723 0.94363 0.86924 0.0
C212 C 0.28291 0.91037 0.87575 0.0
C213 C 0.33506 0.94098 0.89556 0.0
C214 C 0.35512 0.90148 0.90901 0.0
C215 C 0.32283 0.83051 0.90298 0.0
C216 C 0.2759 0.80229 0.8807 0.0
C217 C 0.25584 0.84183 0.86729 0.0
C218 C 0.05238 0.74294 0.85222 0.0
C219 C 0.01744 0.87352 0.91462 0.0
O220 O 0.89271 0.72474 0.84784 0.0
O221 O 0.88696 0.80557 0.82712 0.0
O222 O 0.00869 0.93836 0.83047 0.0
O223 O 0.05769 0.92959 0.86486 0.0
O224 O 0.02815 0.86795 0.79591 0.0
O225 O 0.13661 0.93153 0.81055 0.0
O226 O 0.20454 0.93429 0.88901 0.0
O227 O 0.22288 0.93522 0.8435 0.0
O228 O 0.08663 0.77741 0.87436 0.0
O229 O 0.04738 0.78419 0.83582 0.0
O230 O 0.08072 0.90356 0.90513 0.0
O231 O 0.96968 0.83602 0.89511 0.0
H232 H 0.86928 0.63484 0.81181 0.0
H233 H 0.83513 0.57948 0.76533 0.0
H234 H 0.7446 0.69192 0.74597 0.0
H235 H 0.77679 0.7455 0.793 0.0
H236 H 0.35611 -0.00642 0.90253 0.0
H237 H 0.39095 0.9249 0.92622 0.0
H238 H 0.25062 0.74807 0.87533 0.0
H239 H 0.21527 0.81702 0.85207 0.0
H240 H 0.05154 0.02253 0.14695 0.0
H241 H 0.14699 0.20817 0.19667 0.0
H242 H 0.06904 0.0871 1.10477 0.0
H243 H 0.17842 0.27809 0.15282 0.0
H244 H 0.29135 0.24209 1.09875 0.0
H245 H 0.24916 0.31256 1.11043 0.0
H246 H 0.07113 0.17822 1.0657 0.0
H247 H 0.11319 0.10763 1.0502 0.0
C248 C 0.08058 0.07852 0.14854 0.0
C249 C 0.08928 0.10959 0.17497 0.0
C250 C 0.08891 0.11661 1.12406 0.0
C251 C 0.12329 0.18987 1.12464 0.0
C252 C 0.14844 0.22218 0.15127 0.0
C253 C 0.13392 0.18222 0.1762 0.0
C254 C 0.24441 0.2282 1.08994 0.0
C255 C 0.20039 0.1629 1.07764 0.0
C256 C 0.21935 0.26811 1.09683 0.0
C257 C 0.14936 0.23169 1.09722 0.0
C258 C 0.12075 0.19341 1.07194 0.0
C259 C 0.14496 0.15342 1.06283 0.0
H260 H 0.08958 0.94757 0.42825 0.0
H261 H 0.05974 0.03376 0.50332 0.0
H262 H 0.11987 0.88298 0.45838 0.0
H263 H 0.06811 0.95451 0.5331 0.0
H264 H 0.18569 0.02562 0.56348 0.0
H265 H 0.11524 0.8982 0.56148 0.0
H266 H 0.21032 0.89805 0.48665 0.0
H267 H 0.28193 0.0255 0.48495 0.0
C268 C 0.08924 0.95243 0.45131 0.0
C269 C 0.07153 -0.00474 0.4636 0.0
C270 C 0.10351 0.91285 0.4686 0.0
C271 C 0.09985 0.91448 0.49881 0.0
C272 C 0.07581 0.95324 0.51034 0.0
C273 C 0.07042 -0.00081 0.49327 0.0
C274 C 0.19366 -0.0003 0.54641 0.0
C275 C 0.23048 0.03555 0.52138 0.0
C276 C 0.15303 0.92673 0.54505 0.0
C277 C 0.1431 0.89992 0.5171 0.0
C278 C 0.20526 0.92691 0.50337 0.0
C279 C 0.24689 -0.00039 0.50257 0.0
H280 H 0.08273 0.04057 0.79871 0.0
H281 H 0.17724 0.03764 0.87674 0.0
H282 H 0.18696 0.10154 0.77511 0.0
H283 H 0.28771 0.11164 0.85367 0.0
H284 H 0.31662 0.30726 0.79972 0.0
H285 H 0.34738 0.2431 0.82936 0.0
H286 H 0.31139 0.10871 0.76022 0.0
H287 H 0.27677 0.16993 0.72961 0.0
C288 C 0.12678 0.05646 0.81127 0.0
C289 C 0.12155 0.03336 0.83931 0.0
C290 C 0.188 0.09134 0.79755 0.0
C291 C 0.24751 0.1113 0.81219 0.0
C292 C 0.24303 0.09475 0.84143 0.0
C293 C 0.18022 0.05467 0.85479 0.0
C294 C 0.31787 0.26571 0.79012 0.0
C295 C 0.28558 0.23673 0.76396 0.0
C296 C 0.3364 0.2292 0.80701 0.0
C297 C 0.31317 0.1619 0.79828 0.0
C298 C 0.31534 0.15417 0.76843 0.0
C299 C 0.29605 0.1894 0.75078 0.0
H300 H 0.22409 0.0398 0.99862 0.0
H301 H 0.33842 0.25463 1.02126 0.0
H302 H 0.20265 0.06994 0.95128 0.0
H303 H 0.31522 0.28468 0.9739 0.0
H304 H 0.29485 0.32493 0.87239 0.0
H305 H 0.32545 0.30156 0.91975 0.0
H306 H 0.13973 0.1018 0.92268 0.0
H307 H 0.10874 0.12575 0.87669 0.0
C308 C 0.24516 0.09391 0.99392 0.0
C309 C 0.28434 0.14374 1.01535 0.0
C310 C 0.23145 0.11156 0.96616 0.0
C311 C 0.25491 0.18057 0.95718 0.0
C312 C 0.29504 0.23074 0.97848 0.0
C313 C 0.30878 0.21305 1.00638 0.0
C314 C 0.25987 0.27588 0.88293 0.0
C315 C 0.19841 0.22773 0.86887 0.0
C316 C 0.27777 0.26199 0.91082 0.0
C317 C 0.23639 0.19837 0.92669 0.0
C318 C 0.17528 0.15102 0.91245 0.0
C319 C 0.15698 0.16536 0.88519 0.0
H320 H 0.24653 0.17541 0.39903 0.0
H321 H 0.08347 0.17427 0.43719 0.0
H322 H 0.1896 0.14785 0.35214 0.0
H323 H 0.02719 0.14686 0.39114 0.0
H324 H 0.90084 0.04554 0.30776 0.0
H325 H 0.96115 0.076 0.35338 0.0
H326 H 0.14703 0.1633 0.30753 0.0
H327 H 0.08631 0.13402 0.26188 0.0
C328 C 0.19878 0.16974 0.39794 0.0
C329 C 0.17112 0.17706 0.42372 0.0
C330 C 0.16503 0.15341 0.37032 0.0
C331 C 0.10073 0.14282 0.36611 0.0
C332 C 0.07446 0.15164 0.39188 0.0
C333 C 0.10807 0.16825 0.41914 0.0
C334 C 0.95468 0.07176 0.30698 0.0
C335 C 0.98667 0.08662 0.27961 0.0
C336 C 0.99052 0.09003 0.3339 0.0
C337 C 0.06157 0.1235 0.33603 0.0
C338 C 0.09334 0.13788 0.30851 0.0
C339 C 0.05761 0.12089 0.28157 0.0
H340 H 0.01105 0.06205 0.69844 0.0
H341 H 0.11177 0.26406 0.65928 0.0
H342 H 0.97365 0.00838 0.6514 0.0
H343 H 0.07471 0.21013 0.61176 0.0
H344 H 0.96004 0.09695 0.52634 0.0
H345 H 0.99525 0.14956 0.57367 0.0
H346 H 0.98517 0.96988 0.60519 0.0
H347 H 0.94971 0.91683 0.5575 0.0
C348 C 0.026 0.09613 0.67995 0.0
C349 C 0.06582 0.16931 0.6844 0.0
C350 C 0.004 0.06435 0.65213 0.0
C351 C 0.01968 0.10262 0.6259 0.0
C352 C 0.05943 0.17613 0.63027 0.0
C353 C 0.08168 0.20809 0.65826 0.0
C354 C 0.96482 0.0675 0.54309 0.0
C355 C 0.95032 0.00053 0.53643 0.0
C356 C 0.98641 0.09906 0.57097 0.0
C357 C 0.99524 0.0667 0.59503 0.0
C358 C 0.97982 -0.00097 0.5885 0.0
C359 C 0.959 0.96765 0.56038 0.0
H360 H 0.96545 0.07363 1.07419 0.0
H361 H 0.8941 0.86754 1.10282 0.0
H362 H 0.9904 0.04752 1.02648 0.0
H363 H 0.91542 0.84015 1.05488 0.0
H364 H 0.90604 0.79239 0.95304 0.0
H365 H 0.88272 0.81882 1.00099 0.0
H366 H 0.06547 0.02099 0.99624 0.0
H367 H 0.08953 -0.00706 0.94891 0.0
C368 C 0.95473 0.02244 1.07072 0.0
C369 C 0.9279 0.974 1.09408 0.0
C370 C 0.96923 0.00693 1.04267 0.0
C371 C 0.95589 0.94075 1.03517 0.0
C372 C 0.92727 0.89182 1.05834 0.0
C373 C 0.91475 0.908 1.08658 0.0
C374 C 0.9421 0.84259 0.96198 0.0
C375 C 0.00108 0.88955 0.94568 0.0
C376 C 0.92847 0.85818 0.9902 0.0
C377 C 0.97133 0.92307 1.00416 0.0
C378 C 0.0296 0.9704 0.98755 0.0
C379 C 0.04416 0.95386 0.9598 0.0
H380 H 0.09429 0.98338 0.36358 0.0
H381 H 0.90887 0.91175 0.32135 0.0
H382 H 0.1522 0.01319 0.31683 0.0
H383 H 0.96587 0.93819 0.27445 0.0
H384 H 0.07716 0.94891 0.18734 0.0
H385 H 0.0196 0.92202 0.2339 0.0
H386 H 0.2024 0.08268 0.27271 0.0
H387 H 0.2596 0.11092 0.2257 0.0
C388 C 0.0647 0.97276 0.3445 0.0
C389 C 0.99477 0.94393 0.34796 0.0
C390 C 0.09893 0.99067 0.31686 0.0
C391 C 0.06614 0.97926 0.28988 0.0
C392 C 0.99573 0.94878 0.29341 0.0
C393 C 0.96195 0.93315 0.32111 0.0
C394 C 0.10617 0.97941 0.20552 0.0
C395 C 0.17531 0.03298 0.20094 0.0
C396 C 0.07204 0.96361 0.23308 0.0
C397 C 0.10403 -0.00147 0.25909 0.0
C398 C 0.17337 0.05222 0.25454 0.0
C399 C 0.20719 0.06919 0.22675 0.0
H400 H 0.01886 0.92374 0.74408 0.0
H401 H 0.22005 0.98628 0.76103 0.0
H402 H 0.05385 0.98161 0.69723 0.0
H403 H 0.25576 0.04383 0.71377 0.0
H404 H 0.11598 0.07005 0.60443 0.0
H405 H 0.08326 0.00999 0.65065 0.0
H406 H 0.29012 0.12016 0.67472 0.0
H407 H 0.3226 0.17824 0.62731 0.0
C408 C 0.07097 0.94925 0.73804 0.0
C409 C 0.11545 0.94847 0.75798 0.0
C410 C 0.09192 0.98365 0.71029 0.0
C411 C 0.1594 0.02033 0.69967 0.0
C412 C 0.20364 0.01859 0.71961 0.0
C413 C 0.18264 0.9844 0.74748 0.0
C414 C 0.15522 0.08264 0.61941 0.0
C415 C 0.2227 0.13154 0.61059 0.0
C416 C 0.13595 0.04753 0.64691 0.0
C417 C 0.18231 0.05878 0.66879 0.0
C418 C 0.2505 0.10751 0.65989 0.0
C419 C 0.2699 0.14202 0.63193 0.0
H420 H 0.52643 0.15622 1.11177 0.0
H421 H 0.37585 0.94388 1.13343 0.0
H422 H 0.61367 0.1409 1.12862 0.0
H423 H 0.46399 0.92759 0.1493 0.0
H424 H 0.65452 0.91131 0.14464 0.0
H425 H 0.56316 0.92372 1.13109 0.0
H426 H 0.66283 0.12069 0.17318 0.0
H427 H 0.75311 0.10666 0.18787 0.0
C428 C 0.51126 0.1057 1.11995 0.0
C429 C 0.44225 0.05145 1.12082 0.0
C430 C 0.56217 0.09699 1.12991 0.0
C431 C 0.54768 0.03284 0.14066 0.0
C432 C 0.4787 0.97805 0.14123 0.0
C433 C 0.42735 0.9874 1.13203 0.0
C434 C 0.65719 0.95728 0.15136 0.0
C435 C 0.71295 0.00796 0.16747 0.0
C436 C 0.60392 0.96435 0.14353 0.0
C437 C 0.604 0.02355 0.15062 0.0
C438 C 0.65977 0.07431 0.16684 0.0
C439 C 0.71213 0.06614 0.17548 0.0
H440 H 0.35859 0.42873 0.45284 0.0
H441 H 0.43554 0.4501 0.53798 0.0
H442 H 0.46367 0.53491 0.43779 0.0
H443 H 0.54111 0.5568 0.52307 0.0
H444 H 0.68545 0.68967 0.41045 0.0
H445 H 0.57843 0.58746 0.42604 0.0
H446 H 0.60335 0.67846 0.50906 0.0
H447 H 0.71132 0.78139 0.49317 0.0
C448 C 0.39772 0.45611 0.46855 0.0
C449 C 0.38705 0.42956 0.49684 0.0
C450 C 0.45903 0.51757 0.45979 0.0
C451 C 0.51297 0.55653 0.47894 0.0
C452 C 0.50182 0.5302 0.5074 0.0
C453 C 0.44067 0.46814 0.51606 0.0
C454 C 0.6679 0.68888 0.43193 0.0
C455 C 0.708 0.74578 0.45013 0.0
C456 C 0.60563 0.62941 0.44103 0.0
C457 C 0.58002 0.6227 0.46909 0.0
C458 C 0.62008 0.67992 0.48736 0.0
C459 C 0.68231 0.74012 0.47807 0.0
H460 H 0.05141 0.40023 0.76108 0.0
H461 H 0.0659 0.36612 0.85065 0.0
H462 H 0.04759 0.50075 0.77276 0.0
H463 H 0.0583 0.46319 0.86268 0.0
H464 H 0.10064 0.67581 0.88085 0.0
H465 H 0.1038 0.57731 0.86736 0.0
H466 H 0.00041 0.5592 0.78902 0.0
H467 H -0.00014 0.66112 0.80245 0.0
C468 C 0.05421 0.41413 0.78334 0.0
C469 C 0.06072 0.37469 0.80471 0.0
C470 C 0.051 0.47203 0.79024 0.0
C471 C 0.0534 0.49318 0.81896 0.0
C472 C 0.05812 0.45202 0.84023 0.0
C473 C 0.06185 0.3948 0.83329 0.0
C474 C 0.07799 0.65101 0.86073 0.0
C475 C 0.04956 0.67782 0.84306 0.0
C476 C 0.07938 0.59297 0.85289 0.0
C477 C 0.05173 0.55714 0.82692 0.0
C478 C 0.02306 0.58401 0.8091 0.0
C479 C 0.02215 0.64294 0.81694 0.0
H480 H 0.41747 0.42375 0.25246 0.0
H481 H 0.58532 0.4055 0.24114 0.0
H482 H 0.43629 0.43401 0.30412 0.0
H483 H 0.60363 0.41508 0.29251 0.0
H484 H 0.6241 0.43884 0.38903 0.0
H485 H 0.6273 0.47541 0.33912 0.0
H486 H 0.41197 0.33734 0.33541 0.0
H487 H 0.40895 0.30223 0.38474 0.0
C488 C 0.45935 0.42374 0.26093 0.0
C489 C 0.49915 0.41266 0.24284 0.0
C490 C 0.47012 0.42953 0.29045 0.0
C491 C 0.52053 0.42381 0.30237 0.0
C492 C 0.56457 0.41996 0.28399 0.0
C493 C 0.55399 0.41446 0.25447 0.0
C494 C 0.5777 0.41701 0.37744 0.0
C495 C 0.51645 0.36671 0.39042 0.0
C496 C 0.57945 0.43791 0.34902 0.0
C497 C 0.51984 0.40962 0.33343 0.0
C498 C 0.45868 0.3611 0.34692 0.0
C499 C 0.45703 0.33994 0.37503 0.0
H500 H 0.05279 0.47364 0.57559 0.0
H501 H 0.24778 0.55231 0.53883 0.0
H502 H 0.10343 0.56078 0.61189 0.0
H503 H 0.29766 0.64561 0.57274 0.0
H504 H 0.35018 0.62441 0.66556 0.0
H505 H 0.32526 0.63128 0.61657 0.0
H506 H 0.16108 0.64591 0.64349 0.0
H507 H 0.18479 0.63473 0.69323 0.0
C508 C 0.10635 0.51121 0.57453 0.0
C509 C 0.14653 0.50189 0.55581 0.0
C510 C 0.13582 0.56264 0.59529 0.0
C511 C 0.20605 0.60738 0.59697 0.0
C512 C 0.24401 0.60871 0.57363 0.0
C513 C 0.21486 0.55542 0.55361 0.0
C514 C 0.31048 0.63205 0.66118 0.0
C515 C 0.26786 0.62628 0.68319 0.0
C516 C 0.2958 0.63616 0.63267 0.0
C517 C 0.23823 0.63508 0.6255 0.0
C518 C 0.20339 0.64265 0.64791 0.0
C519 C 0.21736 0.63707 0.67652 0.0
H520 H 0.79138 0.14737 0.88971 0.0
H521 H 0.853 0.01328 0.91808 0.0
H522 H 0.78533 0.1748 0.93959 0.0
H523 H 0.84344 0.03813 0.9675 0.0
H524 H 0.91355 0.28215 1.02504 0.0
H525 H 0.88519 0.24224 0.97554 0.0
H526 H 0.76202 0.03059 1.00595 0.0
H527 H 0.79013 0.07026 1.0553 0.0
C528 C 0.8024 0.12269 0.90646 0.0
C529 C 0.8237 0.07884 0.89967 0.0
C530 C 0.79858 0.13824 0.93498 0.0
C531 C 0.81436 0.10893 0.95727 0.0
C532 C 0.8304 0.06096 0.95069 0.0
C533 C 0.83544 0.04639 0.92224 0.0
C534 C 0.87936 0.22729 1.0211 0.0
C535 C 0.85409 0.17933 1.04394 0.0
C536 C 0.86274 0.2045 0.99287 0.0
C537 C 0.82147 0.13335 0.98703 0.0
C538 C 0.79391 0.08568 1.00993 0.0
C539 C 0.80973 0.10848 1.03812 0.0
H540 H 0.47405 0.65011 0.25767 0.0
H541 H 0.57467 0.85204 0.21733 0.0
H542 H 0.43917 0.69197 0.29687 0.0
H543 H 0.54482 0.89488 0.2567 0.0
H544 H 0.60849 -0.00099 0.3342 0.0
H545 H 0.52385 0.92753 0.29847 0.0
H546 H 0.51759 0.74854 0.33083 0.0
H547 H 0.59827 0.81923 0.36659 0.0
C548 C 0.48628 0.70254 0.25653 0.0
C549 C 0.53081 0.74898 0.23545 0.0
C550 C 0.4671 0.72706 0.27922 0.0
C551 C 0.49525 0.79871 0.2816 0.0
C552 C 0.52486 0.84013 0.25681 0.0
C553 C 0.54229 0.81522 0.2338 0.0
C554 C 0.58637 0.94371 0.33419 0.0
C555 C 0.61115 0.91459 0.35221 0.0
C556 C 0.53825 0.90261 0.3136 0.0
C557 C 0.51623 0.83258 0.3103 0.0
C558 C 0.53342 0.80208 0.33176 0.0
C559 C 0.58065 0.84283 0.35235 0.0
H560 H 0.76234 0.67388 0.57358 0.0
H561 H 0.8462 0.5508 0.57539 0.0
H562 H 0.73697 0.65201 0.62438 0.0
H563 H 0.82059 0.52875 0.62657 0.0
H564 H 0.87668 0.62409 0.7182 0.0
H565 H 0.87191 0.60553 0.66703 0.0
H566 H 0.67691 0.57309 0.66436 0.0
H567 H 0.6815 0.59146 0.71603 0.0
C568 C 0.77337 0.64017 0.58459 0.0
C569 C 0.80696 0.61465 0.57041 0.0
C570 C 0.75878 0.62761 0.61384 0.0
C571 C 0.77743 0.58927 0.62966 0.0
C572 C 0.80668 0.55958 0.61509 0.0
C573 C 0.82133 0.57217 0.58578 0.0
C574 C 0.83175 0.61087 0.70698 0.0
C575 C 0.77963 0.60972 0.7213 0.0
C576 C 0.82902 0.60016 0.67751 0.0
C577 C 0.77417 0.58817 0.66151 0.0
C578 C 0.72031 0.5832 0.67601 0.0
C579 C 0.72299 0.59383 0.7056 0.0
H580 H 0.21917 0.70735 0.92423 0.0
H581 H 0.43329 0.84997 0.93064 0.0
H582 H 0.2157 0.65827 0.97013 0.0
H583 H 0.43046 0.79872 0.97694 0.0
H584 H 0.3549 0.83247 1.06368 0.0
H585 H 0.39716 0.82505 1.01843 0.0
H586 H 0.23086 0.61149 1.01104 0.0
H587 H 0.187 0.6199 1.05684 0.0
C588 C 0.26628 0.72596 0.93475 0.0
C589 C 0.32623 0.78447 0.92422 0.0
C590 C 0.26439 0.69735 0.96141 0.0
C591 C 0.32252 0.72649 0.97814 0.0
C592 C 0.38421 0.77691 0.96526 0.0
C593 C 0.38597 0.80624 0.93865 0.0
C594 C 0.32869 0.78256 1.05334 0.0
C595 C 0.26556 0.72781 1.06328 0.0
C596 C 0.35329 0.77818 1.02696 0.0
C597 C 0.3154 0.71878 1.01003 0.0
C598 C 0.2596 0.65932 1.02281 0.0
C599 C 0.23454 0.66395 1.04918 0.0
loop_
_geom_bond_atom_site_label_1
_geom_bond_atom_site_label_2
_geom_bond_distance
_geom_bond_site_symmetry_2
_ccdc_geom_bond_type
Nd0 C2 2.836 1_545 S
Nd0 O20 2.500 . S
Nd0 O21 2.492 1_545 S
Nd0 O22 2.487 . S
Nd0 O23 2.682 1_556 S
Nd0 O24 2.410 . S
Nd0 O29 2.414 1_556 S
Nd0 O31 2.424 1_556 S
Nd1 C11 2.836 . S
Nd1 O23 2.414 . S
Nd1 O25 2.424 1_554 S
Nd1 O26 2.500 . S
Nd1 O27 2.492 . S
Nd1 O28 2.487 . S
Nd1 O29 2.682 . S
Nd1 O30 2.410 . S
C2 Nd0 2.836 1_565 S
C2 C3 1.498 . S
C2 O20 1.258 1_565 S
C2 O21 1.239 . S
C3 C2 1.498 . S
C3 C4 1.366 . S
C3 C8 1.407 . S
C4 C3 1.366 . S
C4 C5 1.392 . S
C4 H32 0.930 1_565 S
C5 C4 1.392 . S
C5 C6 1.398 . S
C5 H33 0.929 . S
C6 C5 1.398 . S
C6 C7 1.352 . S
C7 C6 1.352 . S
C7 C8 1.384 . S
C7 H34 0.930 . S
C8 C3 1.407 . S
C8 C7 1.384 . S
C8 H35 0.929 . S
C9 O22 1.241 1_554 S
C9 O23 1.273 . S
C10 O24 1.251 . S
C10 O25 1.268 . S
C11 Nd1 2.836 . S
C11 C12 1.498 . S
C11 O26 1.258 . S
C11 O27 1.239 . S
C12 C11 1.498 . S
C12 C13 1.366 . S
C12 C17 1.407 . S
C13 C12 1.366 . S
C13 C14 1.392 . S
C13 H36 0.930 . S
C14 C13 1.392 . S
C14 C15 1.398 . S
C14 H37 0.929 . S
C15 C14 1.398 . S
C15 C16 1.352 . S
C16 C15 1.352 . S
C16 C17 1.384 . S
C16 H38 0.930 . S
C17 C12 1.407 . S
C17 C16 1.384 . S
C17 H39 0.929 . S
C18 O28 1.241 . S
C18 O29 1.273 . S
C19 O30 1.251 . S
C19 O31 1.268 . S
O20 Nd0 2.500 . S
O20 C2 1.258 1_545 S
O21 Nd0 2.492 1_565 S
O21 C2 1.239 . S
O22 Nd0 2.487 . S
O22 C9 1.241 1_556 S
O23 Nd0 2.682 1_554 S
O23 Nd1 2.414 . S
O23 C9 1.273 . S
O24 Nd0 2.410 . S
O24 C10 1.251 . S
O25 Nd1 2.424 1_556 S
O25 C10 1.268 . S
O26 Nd1 2.500 . S
O26 C11 1.258 . S
O27 Nd1 2.492 . S
O27 C11 1.239 . S
O28 Nd1 2.487 . S
O28 C18 1.241 . S
O29 Nd0 2.414 1_554 S
O29 Nd1 2.682 . S
O29 C18 1.273 . S
O30 Nd1 2.410 . S
O30 C19 1.251 . S
O31 Nd0 2.424 1_554 S
O31 C19 1.268 . S
H32 C4 0.930 1_545 S
H33 C5 0.929 . S
H34 C7 0.930 . S
H35 C8 0.929 . S
H36 C13 0.930 . S
H37 C14 0.929 . S
H38 C16 0.930 . S
H39 C17 0.929 . S
Nd40 C42 2.836 . S
Nd40 O60 2.500 . S
Nd40 O61 2.492 . S
Nd40 O62 2.487 . S
Nd40 O63 2.682 . S
Nd40 O64 2.410 . S
Nd40 O69 2.414 . S
Nd40 O71 2.424 . S
Nd41 C51 2.836 . S
Nd41 O63 2.414 . S
Nd41 O65 2.424 . S
Nd41 O66 2.500 . S
Nd41 O67 2.492 . S
Nd41 O68 2.487 . S
Nd41 O69 2.682 . S
Nd41 O70 2.410 . S
C42 Nd40 2.836 . S
C42 C43 1.498 . S
C42 O60 1.258 . S
C42 O61 1.239 . S
C43 C42 1.498 . S
C43 C44 1.366 . S
C43 C48 1.407 . S
C44 C43 1.366 . S
C44 C45 1.392 . S
C44 H72 0.930 . S
C45 C44 1.392 . S
C45 C46 1.398 . S
C45 H73 0.929 . S
C46 C45 1.398 . S
C46 C47 1.352 . S
C47 C46 1.352 . S
C47 C48 1.384 . S
C47 H74 0.930 . S
C48 C43 1.407 . S
C48 C47 1.384 . S
C48 H75 0.929 . S
C49 O62 1.241 . S
C49 O63 1.273 . S
C50 O64 1.251 . S
C50 O65 1.268 . S
C51 Nd41 2.836 . S
C51 C52 1.498 . S
C51 O66 1.258 . S
C51 O67 1.239 . S
C52 C51 1.498 . S
C52 C53 1.366 . S
C52 C57 1.407 . S
C53 C52 1.366 . S
C53 C54 1.392 . S
C53 H76 0.930 . S
C54 C53 1.392 . S
C54 C55 1.398 . S
C54 H77 0.929 . S
C55 C54 1.398 . S
C55 C56 1.352 . S
C56 C55 1.352 . S
C56 C57 1.384 . S
C56 H78 0.930 . S
C57 C52 1.407 . S
C57 C56 1.384 . S
C57 H79 0.929 . S
C58 O68 1.241 . S
C58 O69 1.273 . S
C59 O70 1.251 . S
C59 O71 1.268 . S
O60 Nd40 2.500 . S
O60 C42 1.258 . S
O61 Nd40 2.492 . S
O61 C42 1.239 . S
O62 Nd40 2.487 . S
O62 C49 1.241 . S
O63 Nd40 2.682 . S
O63 Nd41 2.414 . S
O63 C49 1.273 . S
O64 Nd40 2.410 . S
O64 C50 1.251 . S
O65 Nd41 2.424 . S
O65 C50 1.268 . S
O66 Nd41 2.500 . S
O66 C51 1.258 . S
O67 Nd41 2.492 . S
O67 C51 1.239 . S
O68 Nd41 2.487 . S
O68 C58 1.241 . S
O69 Nd40 2.414 . S
O69 Nd41 2.682 . S
O69 C58 1.273 . S
O70 Nd41 2.410 . S
O70 C59 1.251 . S
O71 Nd40 2.424 . S
O71 C59 1.268 . S
H72 C44 0.930 . S
H73 C45 0.929 . S
H74 C47 0.930 . S
H75 C48 0.929 . S
H76 C53 0.930 . S
H77 C54 0.929 . S
H78 C56 0.930 . S
H79 C57 0.929 . S
Nd80 C82 2.836 . S
Nd80 O100 2.500 . S
Nd80 O101 2.492 . S
Nd80 O102 2.487 . S
Nd80 O103 2.682 . S
Nd80 O104 2.410 . S
Nd80 O109 2.414 . S
Nd80 O111 2.424 . S
Nd81 C91 2.836 . S
Nd81 O103 2.414 . S
Nd81 O105 2.424 . S
Nd81 O106 2.500 . S
Nd81 O107 2.492 . S
Nd81 O108 2.487 . S
Nd81 O109 2.682 . S
Nd81 O110 2.410 . S
C82 Nd80 2.836 . S
C82 C83 1.498 . S
C82 O100 1.258 . S
C82 O101 1.239 . S
C83 C82 1.498 . S
C83 C84 1.366 . S
C83 C88 1.407 . S
C84 C83 1.366 . S
C84 C85 1.392 . S
C84 H112 0.930 . S
C85 C84 1.392 . S
C85 C86 1.398 . S
C85 H113 0.929 . S
C86 C85 1.398 . S
C86 C87 1.352 . S
C87 C86 1.352 . S
C87 C88 1.384 . S
C87 H114 0.930 . S
C88 C83 1.407 . S
C88 C87 1.384 . S
C88 H115 0.929 . S
C89 O102 1.241 . S
C89 O103 1.273 . S
C90 O104 1.251 . S
C90 O105 1.268 . S
C91 Nd81 2.836 . S
C91 C92 1.498 . S
C91 O106 1.258 . S
C91 O107 1.239 . S
C92 C91 1.498 . S
C92 C93 1.366 . S
C92 C97 1.407 1_455 S
C93 C92 1.366 . S
C93 C94 1.392 . S
C93 H116 0.930 . S
C94 C93 1.392 . S
C94 C95 1.398 1_455 S
C94 H117 0.929 . S
C95 C94 1.398 1_655 S
C95 C96 1.352 . S
C96 C95 1.352 . S
C96 C97 1.384 . S
C96 H118 0.930 . S
C97 C92 1.407 1_655 S
C97 C96 1.384 . S
C97 H119 0.929 . S
C98 O108 1.241 . S
C98 O109 1.273 . S
C99 O110 1.251 . S
C99 O111 1.268 . S
O100 Nd80 2.500 . S
O100 C82 1.258 . S
O101 Nd80 2.492 . S
O101 C82 1.239 . S
O102 Nd80 2.487 . S
O102 C89 1.241 . S
O103 Nd80 2.682 . S
O103 Nd81 2.414 . S
O103 C89 1.273 . S
O104 Nd80 2.410 . S
O104 C90 1.251 . S
O105 Nd81 2.424 . S
O105 C90 1.268 . S
O106 Nd81 2.500 . S
O106 C91 1.258 . S
O107 Nd81 2.492 . S
O107 C91 1.239 . S
O108 Nd81 2.487 . S
O108 C98 1.241 . S
O109 Nd80 2.414 . S
O109 Nd81 2.682 . S
O109 C98 1.273 . S
O110 Nd81 2.410 . S
O110 C99 1.251 . S
O111 Nd80 2.424 . S
O111 C99 1.268 . S
H112 C84 0.930 . S
H113 C85 0.929 . S
H114 C87 0.930 . S
H115 C88 0.929 . S
H116 C93 0.930 . S
H117 C94 0.929 . S
H118 C96 0.930 . S
H119 C97 0.929 . S
Nd120 C122 2.836 . S
Nd120 O140 2.500 . S
Nd120 O141 2.492 . S
Nd120 O142 2.487 . S
Nd120 O143 2.682 1_546 S
Nd120 O144 2.410 1_545 S
Nd120 O149 2.414 1_556 S
Nd120 O151 2.424 1_556 S
Nd121 C131 2.836 . S
Nd121 O143 2.414 . S
Nd121 O145 2.424 1_554 S
Nd121 O146 2.500 . S
Nd121 O147 2.492 . S
Nd121 O148 2.487 . S
Nd121 O149 2.682 1_565 S
Nd121 O150 2.410 1_565 S
C122 Nd120 2.836 . S
C122 C123 1.498 . S
C122 O140 1.258 . S
C122 O141 1.239 . S
C123 C122 1.498 . S
C123 C124 1.366 . S
C123 C128 1.407 . S
C124 C123 1.366 . S
C124 C125 1.392 . S
C124 H152 0.930 . S
C125 C124 1.392 . S
C125 C126 1.398 . S
C125 H153 0.929 . S
C126 C125 1.398 . S
C126 C127 1.352 . S
C127 C126 1.352 . S
C127 C128 1.384 . S
C127 H154 0.930 1_655 S
C128 C123 1.407 . S
C128 C127 1.384 . S
C128 H155 0.929 1_655 S
C129 O142 1.241 1_554 S
C129 O143 1.273 1_545 S
C130 O144 1.251 . S
C130 O145 1.268 . S
C131 Nd121 2.836 . S
C131 C132 1.498 . S
C131 O146 1.258 . S
C131 O147 1.239 . S
C132 C131 1.498 . S
C132 C133 1.366 . S
C132 C137 1.407 . S
C133 C132 1.366 . S
C133 C134 1.392 . S
C133 H156 0.930 . S
C134 C133 1.392 . S
C134 C135 1.398 . S
C134 H157 0.929 . S
C135 C134 1.398 . S
C135 C136 1.352 . S
C136 C135 1.352 . S
C136 C137 1.384 . S
C136 H158 0.930 . S
C137 C132 1.407 . S
C137 C136 1.384 . S
C137 H159 0.929 . S
C138 O148 1.241 . S
C138 O149 1.273 1_565 S
C139 O150 1.251 . S
C139 O151 1.268 . S
O140 Nd120 2.500 . S
O140 C122 1.258 . S
O141 Nd120 2.492 . S
O141 C122 1.239 . S
O142 Nd120 2.487 . S
O142 C129 1.241 1_556 S
O143 Nd120 2.682 1_564 S
O143 Nd121 2.414 . S
O143 C129 1.273 1_565 S
O144 Nd120 2.410 1_565 S
O144 C130 1.251 . S
O145 Nd121 2.424 1_556 S
O145 C130 1.268 . S
O146 Nd121 2.500 . S
O146 C131 1.258 . S
O147 Nd121 2.492 . S
O147 C131 1.239 . S
O148 Nd121 2.487 . S
O148 C138 1.241 . S
O149 Nd120 2.414 1_554 S
O149 Nd121 2.682 1_545 S
O149 C138 1.273 1_545 S
O150 Nd121 2.410 1_545 S
O150 C139 1.251 . S
O151 Nd120 2.424 1_554 S
O151 C139 1.268 . S
H152 C124 0.930 . S
H153 C125 0.929 . S
H154 C127 0.930 1_455 S
H155 C128 0.929 1_455 S
H156 C133 0.930 . S
H157 C134 0.929 . S
H158 C136 0.930 . S
H159 C137 0.929 . S
Nd160 C162 2.836 . S
Nd160 O180 2.500 . S
Nd160 O181 2.492 . S
Nd160 O182 2.487 1_655 S
Nd160 O183 2.682 1_655 S
Nd160 O184 2.410 . S
Nd160 O189 2.414 . S
Nd160 O191 2.424 . S
Nd161 C171 2.836 1_655 S
Nd161 O183 2.414 1_655 S
Nd161 O185 2.424 . S
Nd161 O186 2.500 1_655 S
Nd161 O187 2.492 . S
Nd161 O188 2.487 . S
Nd161 O189 2.682 . S
Nd161 O190 2.410 . S
C162 Nd160 2.836 . S
C162 C163 1.498 . S
C162 O180 1.258 . S
C162 O181 1.239 . S
C163 C162 1.498 . S
C163 C164 1.366 . S
C163 C168 1.407 . S
C164 C163 1.366 . S
C164 C165 1.392 . S
C164 H192 0.930 . S
C165 C164 1.392 . S
C165 C166 1.398 . S
C165 H193 0.929 . S
C166 C165 1.398 . S
C166 C167 1.352 . S
C167 C166 1.352 . S
C167 C168 1.384 . S
C167 H194 0.930 1_565 S
C168 C163 1.407 . S
C168 C167 1.384 . S
C168 H195 0.929 1_565 S
C169 O182 1.241 . S
C169 O183 1.273 . S
C170 O184 1.251 . S
C170 O185 1.268 . S
C171 Nd161 2.836 1_455 S
C171 C172 1.498 . S
C171 O186 1.258 . S
C171 O187 1.239 1_455 S
C172 C171 1.498 . S
C172 C173 1.366 . S
C172 C177 1.407 1_455 S
C173 C172 1.366 . S
C173 C174 1.392 . S
C173 H196 0.930 . S
C174 C173 1.392 . S
C174 C175 1.398 . S
C174 H197 0.929 . S
C175 C174 1.398 . S
C175 C176 1.352 . S
C176 C175 1.352 . S
C176 C177 1.384 1_455 S
C176 H198 0.930 1_455 S
C177 C172 1.407 1_655 S
C177 C176 1.384 1_655 S
C177 H199 0.929 . S
C178 O188 1.241 . S
C178 O189 1.273 . S
C179 O190 1.251 . S
C179 O191 1.268 . S
O180 Nd160 2.500 . S
O180 C162 1.258 . S
O181 Nd160 2.492 . S
O181 C162 1.239 . S
O182 Nd160 2.487 1_455 S
O182 C169 1.241 . S
O183 Nd160 2.682 1_455 S
O183 Nd161 2.414 1_455 S
O183 C169 1.273 . S
O184 Nd160 2.410 . S
O184 C170 1.251 . S
O185 Nd161 2.424 . S
O185 C170 1.268 . S
O186 Nd161 2.500 1_455 S
O186 C171 1.258 . S
O187 Nd161 2.492 . S
O187 C171 1.239 1_655 S
O188 Nd161 2.487 . S
O188 C178 1.241 . S
O189 Nd160 2.414 . S
O189 Nd161 2.682 . S
O189 C178 1.273 . S
O190 Nd161 2.410 . S
O190 C179 1.251 . S
O191 Nd160 2.424 . S
O191 C179 1.268 . S
H192 C164 0.930 . S
H193 C165 0.929 . S
H194 C167 0.930 1_545 S
H195 C168 0.929 1_545 S
H196 C173 0.930 . S
H197 C174 0.929 . S
H198 C176 0.930 1_655 S
H199 C177 0.929 . S
Nd200 C202 2.836 . S
Nd200 O220 2.500 . S
Nd200 O221 2.492 . S
Nd200 O222 2.487 . S
Nd200 O223 2.682 1_655 S
Nd200 O224 2.410 1_655 S
Nd200 O229 2.414 . S
Nd200 O231 2.424 . S
Nd201 C211 2.836 . S
Nd201 O223 2.414 . S
Nd201 O225 2.424 . S
Nd201 O226 2.500 . S
Nd201 O227 2.492 . S
Nd201 O228 2.487 . S
Nd201 O229 2.682 1_455 S
Nd201 O230 2.410 1_455 S
C202 Nd200 2.836 . S
C202 C203 1.498 . S
C202 O220 1.258 . S
C202 O221 1.239 . S
C203 C202 1.498 . S
C203 C204 1.366 . S
C203 C208 1.407 . S
C204 C203 1.366 . S
C204 C205 1.392 . S
C204 H232 0.930 . S
C205 C204 1.392 . S
C205 C206 1.398 . S
C205 H233 0.929 . S
C206 C205 1.398 . S
C206 C207 1.352 . S
C207 C206 1.352 . S
C207 C208 1.384 . S
C207 H234 0.930 . S
C208 C203 1.407 . S
C208 C207 1.384 . S
C208 H235 0.929 . S
C209 O222 1.241 . S
C209 O223 1.273 1_655 S
C210 O224 1.251 . S
C210 O225 1.268 . S
C211 Nd201 2.836 . S
C211 C212 1.498 . S
C211 O226 1.258 . S
C211 O227 1.239 . S
C212 C211 1.498 . S
C212 C213 1.366 . S
C212 C217 1.407 . S
C213 C212 1.366 . S
C213 C214 1.392 . S
C213 H236 0.930 . S
C214 C213 1.392 . S
C214 C215 1.398 . S
C214 H237 0.929 1_565 S
C215 C214 1.398 . S
C215 C216 1.352 . S
C216 C215 1.352 . S
C216 C217 1.384 . S
C216 H238 0.930 . S
C217 C212 1.407 . S
C217 C216 1.384 . S
C217 H239 0.929 . S
C218 O228 1.241 . S
C218 O229 1.273 1_455 S
C219 O230 1.251 . S
C219 O231 1.268 . S
O220 Nd200 2.500 . S
O220 C202 1.258 . S
O221 Nd200 2.492 . S
O221 C202 1.239 . S
O222 Nd200 2.487 . S
O222 C209 1.241 . S
O223 Nd200 2.682 1_455 S
O223 Nd201 2.414 . S
O223 C209 1.273 1_455 S
O224 Nd200 2.410 1_455 S
O224 C210 1.251 . S
O225 Nd201 2.424 . S
O225 C210 1.268 . S
O226 Nd201 2.500 . S
O226 C211 1.258 . S
O227 Nd201 2.492 . S
O227 C211 1.239 . S
O228 Nd201 2.487 . S
O228 C218 1.241 . S
O229 Nd200 2.414 . S
O229 Nd201 2.682 1_655 S
O229 C218 1.273 1_655 S
O230 Nd201 2.410 1_655 S
O230 C219 1.251 . S
O231 Nd200 2.424 . S
O231 C219 1.268 . S
H232 C204 0.930 . S
H233 C205 0.929 . S
H234 C207 0.930 . S
H235 C208 0.929 . S
H236 C213 0.930 . S
H237 C214 0.929 1_545 S
H238 C216 0.930 . S
H239 C217 0.929 . S
H240 C248 0.950 . S
H241 C253 0.950 1_565 S
H242 C250 0.950 . S
H243 C252 0.950 . S
H244 C254 0.950 . S
H245 C256 0.950 . S
H246 C258 0.950 . S
H247 C259 0.950 . S
C248 H240 0.950 . S
C248 C249 1.386 1_556 S
C248 C250 1.391 1_665 S
C249 C248 1.386 1_554 S
C249 C253 1.393 1_565 S
C250 H242 0.950 . S
C250 C248 1.391 1_445 S
C250 C251 1.400 1_556 S
C251 C250 1.400 1_554 S
C251 C252 1.398 . S
C251 C257 1.491 . S
C252 H243 0.950 . S
C252 C251 1.398 . S
C252 C253 1.391 1_455 S
C253 H241 0.950 1_545 S
C253 C249 1.393 1_545 S
C253 C252 1.391 1_655 S
C254 H244 0.950 . S
C254 C255 1.386 . S
C254 C256 1.391 . S
C255 C254 1.386 . S
C255 C259 1.393 1_554 S
C256 H245 0.950 . S
C256 C254 1.391 . S
C256 C257 1.400 . S
C257 C251 1.491 . S
C257 C256 1.400 . S
C257 C258 1.398 1_554 S
C258 H246 0.950 . S
C258 C257 1.398 1_556 S
C258 C259 1.391 . S
C259 H247 0.950 . S
C259 C255 1.393 1_556 S
C259 C258 1.391 . S
H260 C268 0.950 . S
H261 C273 0.950 . S
H262 C270 0.950 . S
H263 C272 0.950 1_655 S
H264 C274 0.950 1_655 S
H265 C276 0.950 1_655 S
H266 C278 0.950 . S
H267 C279 0.950 . S
C268 H260 0.950 . S
C268 C269 1.386 . S
C268 C270 1.391 1_565 S
C269 C268 1.386 . S
C269 C273 1.393 . S
C270 H262 0.950 . S
C270 C268 1.391 1_545 S
C270 C271 1.400 . S
C271 C270 1.400 . S
C271 C272 1.398 1_545 S
C271 C277 1.491 . S
C272 H263 0.950 1_455 S
C272 C271 1.398 1_565 S
C272 C273 1.391 . S
C273 H261 0.950 . S
C273 C269 1.393 . S
C273 C272 1.391 . S
C274 H264 0.950 1_455 S
C274 C275 1.386 . S
C274 C276 1.391 . S
C275 C274 1.386 . S
C275 C279 1.393 . S
C276 H265 0.950 1_455 S
C276 C274 1.391 . S
C276 C277 1.400 . S
C277 C271 1.491 . S
C277 C276 1.400 . S
C277 C278 1.398 . S
C278 H266 0.950 . S
C278 C277 1.398 . S
C278 C279 1.391 . S
C279 H267 0.950 . S
C279 C275 1.393 . S
C279 C278 1.391 . S
H280 C288 0.950 1_455 S
H281 C293 0.950 . S
H282 C290 0.950 . S
H283 C292 0.950 . S
H284 C294 0.950 . S
H285 C296 0.950 . S
H286 C298 0.950 . S
H287 C299 0.950 . S
C288 H280 0.950 1_655 S
C288 C289 1.386 . S
C288 C290 1.391 1_655 S
C289 C288 1.386 . S
C289 C293 1.393 . S
C290 H282 0.950 . S
C290 C288 1.391 1_455 S
C290 C291 1.400 1_565 S
C291 C290 1.400 1_545 S
C291 C292 1.398 1_455 S
C291 C297 1.491 . S
C292 H283 0.950 . S
C292 C291 1.398 1_655 S
C292 C293 1.391 1_545 S
C293 H281 0.950 . S
C293 C289 1.393 . S
C293 C292 1.391 1_565 S
C294 H284 0.950 . S
C294 C295 1.386 . S
C294 C296 1.391 . S
C295 C294 1.386 . S
C295 C299 1.393 . S
C296 H285 0.950 . S
C296 C294 1.391 . S
C296 C297 1.400 . S
C297 C291 1.491 . S
C297 C296 1.400 . S
C297 C298 1.398 . S
C298 H286 0.950 . S
C298 C297 1.398 . S
C298 C299 1.391 . S
C299 H287 0.950 . S
C299 C295 1.393 . S
C299 C298 1.391 . S
H300 C308 0.950 . S
H301 C313 0.950 . S
H302 C310 0.950 . S
H303 C312 0.950 . S
H304 C314 0.950 . S
H305 C316 0.950 . S
H306 C318 0.950 . S
H307 C319 0.950 . S
C308 H300 0.950 . S
C308 C309 1.386 . S
C308 C310 1.391 . S
C309 C308 1.386 . S
C309 C313 1.393 . S
C310 H302 0.950 . S
C310 C308 1.391 . S
C310 C311 1.400 . S
C311 C310 1.400 . S
C311 C312 1.398 . S
C311 C317 1.491 . S
C312 H303 0.950 . S
C312 C311 1.398 . S
C312 C313 1.391 . S
C313 H301 0.950 . S
C313 C309 1.393 . S
C313 C312 1.391 . S
C314 H304 0.950 . S
C314 C315 1.386 . S
C314 C316 1.391 . S
C315 C314 1.386 . S
C315 C319 1.393 . S
C316 H305 0.950 . S
C316 C314 1.391 . S
C316 C317 1.400 . S
C317 C311 1.491 . S
C317 C316 1.400 . S
C317 C318 1.398 . S
C318 H306 0.950 . S
C318 C317 1.398 . S
C318 C319 1.391 . S
C319 H307 0.950 . S
C319 C315 1.393 . S
C319 C318 1.391 . S
H320 C328 0.950 . S
H321 C333 0.950 . S
H322 C330 0.950 . S
H323 C332 0.950 . S
H324 C334 0.950 . S
H325 C336 0.950 . S
H326 C338 0.950 . S
H327 C339 0.950 . S
C328 H320 0.950 . S
C328 C329 1.386 . S
C328 C330 1.391 . S
C329 C328 1.386 . S
C329 C333 1.393 . S
C330 H322 0.950 . S
C330 C328 1.391 . S
C330 C331 1.400 . S
C331 C330 1.400 . S
C331 C332 1.398 . S
C331 C337 1.491 . S
C332 H323 0.950 . S
C332 C331 1.398 . S
C332 C333 1.391 . S
C333 H321 0.950 . S
C333 C329 1.393 . S
C333 C332 1.391 . S
C334 H324 0.950 . S
C334 C335 1.386 . S
C334 C336 1.391 . S
C335 C334 1.386 . S
C335 C339 1.393 . S
C336 H325 0.950 . S
C336 C334 1.391 . S
C336 C337 1.400 1_655 S
C337 C331 1.491 . S
C337 C336 1.400 1_455 S
C337 C338 1.398 . S
C338 H326 0.950 . S
C338 C337 1.398 . S
C338 C339 1.391 1_455 S
C339 H327 0.950 . S
C339 C335 1.393 . S
C339 C338 1.391 1_655 S
H340 C348 0.950 . S
H341 C353 0.950 . S
H342 C350 0.950 . S
H343 C352 0.950 . S
H344 C354 0.950 . S
H345 C356 0.950 . S
H346 C358 0.950 . S
H347 C359 0.950 . S
C348 H340 0.950 . S
C348 C349 1.386 1_655 S
C348 C350 1.391 . S
C349 C348 1.386 1_455 S
C349 C353 1.393 . S
C350 H342 0.950 . S
C350 C348 1.391 . S
C350 C351 1.400 1_655 S
C351 C350 1.400 1_455 S
C351 C352 1.398 . S
C351 C357 1.491 1_455 S
C352 H343 0.950 . S
C352 C351 1.398 . S
C352 C353 1.391 . S
C353 H341 0.950 . S
C353 C349 1.393 . S
C353 C352 1.391 . S
C354 H344 0.950 . S
C354 C355 1.386 1_445 S
C354 C356 1.391 . S
C355 C354 1.386 1_665 S
C355 C359 1.393 . S
C356 H345 0.950 . S
C356 C354 1.391 . S
C356 C357 1.400 1_455 S
C357 C351 1.491 1_655 S
C357 C356 1.400 1_655 S
C357 C358 1.398 1_545 S
C358 H346 0.950 . S
C358 C357 1.398 1_565 S
C358 C359 1.391 . S
C359 H347 0.950 . S
C359 C355 1.393 . S
C359 C358 1.391 . S
H360 C368 0.950 . S
H361 C373 0.950 . S
H362 C370 0.950 . S
H363 C372 0.950 . S
H364 C374 0.950 . S
H365 C376 0.950 . S
H366 C378 0.950 . S
H367 C379 0.950 . S
C368 H360 0.950 . S
C368 C369 1.386 . S
C368 C370 1.391 . S
C369 C368 1.386 . S
C369 C373 1.393 . S
C370 H362 0.950 . S
C370 C368 1.391 . S
C370 C371 1.400 . S
C371 C370 1.400 . S
C371 C372 1.398 . S
C371 C377 1.491 . S
C372 H363 0.950 . S
C372 C371 1.398 . S
C372 C373 1.391 . S
C373 H361 0.950 . S
C373 C369 1.393 . S
C373 C372 1.391 . S
C374 H364 0.950 . S
C374 C375 1.386 . S
C374 C376 1.391 . S
C375 C374 1.386 . S
C375 C379 1.393 . S
C376 H365 0.950 . S
C376 C374 1.391 . S
C376 C377 1.400 . S
C377 C371 1.491 . S
C377 C376 1.400 . S
C377 C378 1.398 . S
C378 H366 0.950 . S
C378 C377 1.398 . S
C378 C379 1.391 . S
C379 H367 0.950 . S
C379 C375 1.393 . S
C379 C378 1.391 . S
H380 C388 0.950 . S
H381 C393 0.950 . S
H382 C390 0.950 . S
H383 C392 0.950 . S
H384 C394 0.950 . S
H385 C396 0.950 . S
H386 C398 0.950 . S
H387 C399 0.942 1_545 S
C388 H380 0.950 . S
C388 C389 1.386 . S
C388 C390 1.391 . S
C389 C388 1.386 . S
C389 C393 1.393 . S
C390 H382 0.950 . S
C390 C388 1.391 . S
C390 C391 1.400 . S
C391 C390 1.400 . S
C391 C392 1.398 . S
C391 C397 1.491 . S
C392 H383 0.950 . S
C392 C391 1.398 . S
C392 C393 1.391 . S
C393 H381 0.950 . S
C393 C389 1.393 . S
C393 C392 1.391 . S
C394 H384 0.950 . S
C394 C395 1.386 . S
C394 C396 1.391 . S
C395 C394 1.386 . S
C395 C399 1.399 . S
C396 H385 0.950 . S
C396 C394 1.391 . S
C396 C397 1.400 . S
C397 C391 1.491 . S
C397 C396 1.400 . S
C397 C398 1.398 . S
C398 H386 0.950 . S
C398 C397 1.398 . S
C398 C399 1.392 . S
C399 H387 0.942 1_565 S
C399 C395 1.399 . S
C399 C398 1.392 . S
H400 C408 0.950 . S
H401 C413 0.950 . S
H402 C410 0.950 . S
H403 C412 0.950 . S
H404 C414 0.950 . S
H405 C416 0.950 . S
H406 C418 0.950 . S
H407 C419 0.950 . S
C408 H400 0.950 . S
C408 C409 1.386 . S
C408 C410 1.391 1_565 S
C409 C408 1.386 . S
C409 C413 1.393 . S
C410 H402 0.950 . S
C410 C408 1.391 1_545 S
C410 C411 1.400 . S
C411 C410 1.400 . S
C411 C412 1.398 . S
C411 C417 1.491 . S
C412 H403 0.950 . S
C412 C411 1.398 . S
C412 C413 1.391 1_545 S
C413 H401 0.950 . S
C413 C409 1.393 . S
C413 C412 1.391 1_565 S
C414 H404 0.950 . S
C414 C415 1.386 . S
C414 C416 1.391 . S
C415 C414 1.386 . S
C415 C419 1.393 . S
C416 H405 0.950 . S
C416 C414 1.391 . S
C416 C417 1.400 . S
C417 C411 1.491 . S
C417 C416 1.400 . S
C417 C418 1.398 . S
C418 H406 0.950 . S
C418 C417 1.398 . S
C418 C419 1.391 . S
C419 H407 0.950 . S
C419 C415 1.393 . S
C419 C418 1.391 . S
H420 C428 0.950 . S
H421 C433 0.950 . S
H422 C430 0.950 . S
H423 C432 0.950 1_565 S
H424 C434 0.950 . S
H425 C436 0.950 . S
H426 C438 0.950 . S
H427 C439 0.950 . S
C428 H420 0.950 . S
C428 C429 1.386 . S
C428 C430 1.391 . S
C429 C428 1.386 . S
C429 C433 1.393 1_554 S
C430 H422 0.950 . S
C430 C428 1.391 . S
C430 C431 1.400 . S
C431 C430 1.400 . S
C431 C432 1.398 1_554 S
C431 C437 1.491 . S
C432 H423 0.950 1_545 S
C432 C431 1.398 1_556 S
C432 C433 1.391 . S
C433 H421 0.950 . S
C433 C429 1.393 1_556 S
C433 C432 1.391 . S
C434 H424 0.950 . S
C434 C435 1.386 1_566 S
C434 C436 1.391 . S
C435 C434 1.386 1_544 S
C435 C439 1.393 . S
C436 H425 0.950 . S
C436 C434 1.391 . S
C436 C437 1.400 1_566 S
C437 C431 1.491 . S
C437 C436 1.400 1_544 S
C437 C438 1.398 . S
C438 H426 0.950 . S
C438 C437 1.398 . S
C438 C439 1.391 . S
C439 H427 0.950 . S
C439 C435 1.393 . S
C439 C438 1.391 . S
H440 C448 0.950 . S
H441 C453 0.950 . S
H442 C450 0.950 . S
H443 C452 0.950 . S
H444 C454 0.950 . S
H445 C456 0.950 . S
H446 C458 0.950 . S
H447 C459 0.950 . S
C448 H440 0.950 . S
C448 C449 1.386 . S
C448 C450 1.391 . S
C449 C448 1.386 . S
C449 C453 1.393 . S
C450 H442 0.950 . S
C450 C448 1.391 . S
C450 C451 1.400 . S
C451 C450 1.400 . S
C451 C452 1.398 . S
C451 C457 1.491 . S
C452 H443 0.950 . S
C452 C451 1.398 . S
C452 C453 1.391 . S
C453 H441 0.950 . S
C453 C449 1.393 . S
C453 C452 1.391 . S
C454 H444 0.950 . S
C454 C455 1.386 . S
C454 C456 1.391 . S
C455 C454 1.386 . S
C455 C459 1.393 . S
C456 H445 0.950 . S
C456 C454 1.391 . S
C456 C457 1.400 . S
C457 C451 1.491 . S
C457 C456 1.400 . S
C457 C458 1.398 . S
C458 H446 0.950 . S
C458 C457 1.398 . S
C458 C459 1.391 . S
C459 H447 0.950 . S
C459 C455 1.393 . S
C459 C458 1.391 . S
H460 C468 0.950 . S
H461 C473 0.950 . S
H462 C470 0.950 . S
H463 C472 0.950 . S
H464 C474 0.950 . S
H465 C476 0.950 1_655 S
H466 C478 0.950 . S
H467 C479 0.950 . S
C468 H460 0.950 . S
C468 C469 1.386 . S
C468 C470 1.391 . S
C469 C468 1.386 . S
C469 C473 1.393 . S
C470 H462 0.950 . S
C470 C468 1.391 . S
C470 C471 1.400 . S
C471 C470 1.400 . S
C471 C472 1.398 . S
C471 C477 1.491 . S
C472 H463 0.950 . S
C472 C471 1.398 . S
C472 C473 1.391 . S
C473 H461 0.950 . S
C473 C469 1.393 . S
C473 C472 1.391 . S
C474 H464 0.950 . S
C474 C475 1.386 1_655 S
C474 C476 1.391 1_655 S
C475 C474 1.386 1_455 S
C475 C479 1.393 . S
C476 H465 0.950 1_455 S
C476 C474 1.391 1_455 S
C476 C477 1.400 . S
C477 C471 1.491 . S
C477 C476 1.400 . S
C477 C478 1.398 . S
C478 H466 0.950 . S
C478 C477 1.398 . S
C478 C479 1.391 . S
C479 H467 0.950 . S
C479 C475 1.393 . S
C479 C478 1.391 . S
H480 C488 0.950 . S
H481 C493 0.950 . S
H482 C490 0.950 . S
H483 C492 0.950 . S
H484 C494 0.950 . S
H485 C496 0.950 . S
H486 C498 0.950 . S
H487 C499 0.950 . S
C488 H480 0.950 . S
C488 C489 1.386 . S
C488 C490 1.391 . S
C489 C488 1.386 . S
C489 C493 1.393 . S
C490 H482 0.950 . S
C490 C488 1.391 . S
C490 C491 1.400 . S
C491 C490 1.400 . S
C491 C492 1.398 . S
C491 C497 1.491 . S
C492 H483 0.950 . S
C492 C491 1.398 . S
C492 C493 1.391 . S
C493 H481 0.950 . S
C493 C489 1.393 . S
C493 C492 1.391 . S
C494 H484 0.950 . S
C494 C495 1.386 . S
C494 C496 1.391 . S
C495 C494 1.386 . S
C495 C499 1.393 . S
C496 H485 0.950 . S
C496 C494 1.391 . S
C496 C497 1.400 . S
C497 C491 1.491 . S
C497 C496 1.400 . S
C497 C498 1.398 . S
C498 H486 0.950 . S
C498 C497 1.398 . S
C498 C499 1.391 . S
C499 H487 0.950 . S
C499 C495 1.393 . S
C499 C498 1.391 . S
H500 C508 0.950 . S
H501 C513 0.950 . S
H502 C510 0.950 . S
H503 C512 0.950 . S
H504 C514 0.950 . S
H505 C516 0.950 . S
H506 C518 0.950 . S
H507 C519 0.950 . S
C508 H500 0.950 . S
C508 C509 1.386 . S
C508 C510 1.391 . S
C509 C508 1.386 . S
C509 C513 1.393 . S
C510 H502 0.950 . S
C510 C508 1.391 . S
C510 C511 1.400 . S
C511 C510 1.400 . S
C511 C512 1.398 . S
C511 C517 1.491 . S
C512 H503 0.950 . S
C512 C511 1.398 . S
C512 C513 1.391 . S
C513 H501 0.950 . S
C513 C509 1.393 . S
C513 C512 1.391 . S
C514 H504 0.950 . S
C514 C515 1.386 . S
C514 C516 1.391 . S
C515 C514 1.386 . S
C515 C519 1.393 . S
C516 H505 0.950 . S
C516 C514 1.391 . S
C516 C517 1.400 . S
C517 C511 1.491 . S
C517 C516 1.400 . S
C517 C518 1.398 . S
C518 H506 0.950 . S
C518 C517 1.398 . S
C518 C519 1.391 . S
C519 H507 0.950 . S
C519 C515 1.393 . S
C519 C518 1.391 . S
H520 C528 0.950 . S
H521 C533 0.950 1_455 S
H522 C530 0.950 . S
H523 C532 0.950 1_455 S
H524 C534 0.950 1_455 S
H525 C536 0.950 1_455 S
H526 C538 0.950 . S
H527 C539 0.950 . S
C528 H520 0.950 . S
C528 C529 1.386 . S
C528 C530 1.391 . S
C529 C528 1.386 . S
C529 C533 1.393 . S
C530 H522 0.950 . S
C530 C528 1.391 . S
C530 C531 1.400 . S
C531 C530 1.400 . S
C531 C532 1.398 . S
C531 C537 1.491 . S
C532 H523 0.950 1_655 S
C532 C531 1.398 . S
C532 C533 1.391 . S
C533 H521 0.950 1_655 S
C533 C529 1.393 . S
C533 C532 1.391 . S
C534 H524 0.950 1_655 S
C534 C535 1.386 . S
C534 C536 1.391 . S
C535 C534 1.386 . S
C535 C539 1.393 . S
C536 H525 0.950 1_655 S
C536 C534 1.391 . S
C536 C537 1.400 . S
C537 C531 1.491 . S
C537 C536 1.400 . S
C537 C538 1.398 . S
C538 H526 0.950 . S
C538 C537 1.398 . S
C538 C539 1.391 . S
C539 H527 0.950 . S
C539 C535 1.393 . S
C539 C538 1.391 . S
H540 C548 0.950 . S
H541 C553 0.950 . S
H542 C550 0.950 . S
H543 C552 0.950 . S
H544 C554 0.950 1_545 S
H545 C556 0.950 . S
H546 C558 0.950 . S
H547 C559 0.950 . S
C548 H540 0.950 . S
C548 C549 1.386 . S
C548 C550 1.391 . S
C549 C548 1.386 . S
C549 C553 1.393 . S
C550 H542 0.950 . S
C550 C548 1.391 . S
C550 C551 1.400 . S
C551 C550 1.400 . S
C551 C552 1.398 . S
C551 C557 1.491 . S
C552 H543 0.950 . S
C552 C551 1.398 . S
C552 C553 1.391 . S
C553 H541 0.950 . S
C553 C549 1.393 . S
C553 C552 1.391 . S
C554 H544 0.950 1_565 S
C554 C555 1.386 . S
C554 C556 1.391 . S
C555 C554 1.386 . S
C555 C559 1.393 . S
C556 H545 0.950 . S
C556 C554 1.391 . S
C556 C557 1.400 . S
C557 C551 1.491 . S
C557 C556 1.400 . S
C557 C558 1.398 . S
C558 H546 0.950 . S
C558 C557 1.398 . S
C558 C559 1.391 . S
C559 H547 0.950 . S
C559 C555 1.393 . S
C559 C558 1.391 . S
H560 C568 0.950 . S
H561 C573 0.950 . S
H562 C570 0.950 . S
H563 C572 0.950 . S
H564 C574 0.950 . S
H565 C576 0.950 . S
H566 C578 0.950 . S
H567 C579 0.950 . S
C568 H560 0.950 . S
C568 C569 1.386 . S
C568 C570 1.391 1_455 S
C569 C568 1.386 . S
C569 C573 1.393 . S
C570 H562 0.950 . S
C570 C568 1.391 1_655 S
C570 C571 1.400 . S
C571 C570 1.400 . S
C571 C572 1.398 1_655 S
C571 C577 1.491 . S
C572 H563 0.950 . S
C572 C571 1.398 1_455 S
C572 C573 1.391 . S
C573 H561 0.950 . S
C573 C569 1.393 . S
C573 C572 1.391 . S
C574 H564 0.950 . S
C574 C575 1.386 . S
C574 C576 1.391 . S
C575 C574 1.386 . S
C575 C579 1.393 . S
C576 H565 0.950 . S
C576 C574 1.391 . S
C576 C577 1.400 . S
C577 C571 1.491 . S
C577 C576 1.400 . S
C577 C578 1.398 . S
C578 H566 0.950 . S
C578 C577 1.398 . S
C578 C579 1.391 . S
C579 H567 0.950 . S
C579 C575 1.393 . S
C579 C578 1.391 . S
H580 C588 0.950 . S
H581 C593 0.950 . S
H582 C590 0.950 . S
H583 C592 0.950 . S
H584 C594 0.950 . S
H585 C596 0.950 . S
H586 C598 0.950 . S
H587 C599 0.950 . S
C588 H580 0.950 . S
C588 C589 1.386 . S
C588 C590 1.391 . S
C589 C588 1.386 . S
C589 C593 1.393 1_565 S
C590 H582 0.950 . S
C590 C588 1.391 . S
C590 C591 1.400 . S
C591 C590 1.400 . S
C591 C592 1.398 . S
C591 C597 1.491 . S
C592 H583 0.950 . S
C592 C591 1.398 . S
C592 C593 1.391 1_565 S
C593 H581 0.950 . S
C593 C589 1.393 1_545 S
C593 C592 1.391 1_545 S
C594 H584 0.950 . S
C594 C595 1.386 . S
C594 C596 1.391 . S
C595 C594 1.386 . S
C595 C599 1.393 . S
C596 H585 0.950 . S
C596 C594 1.391 . S
C596 C597 1.400 . S
C597 C591 1.491 . S
C597 C596 1.400 . S
C597 C598 1.398 . S
C598 H586 0.950 . S
C598 C597 1.398 . S
C598 C599 1.391 . S
C599 H587 0.950 . S
C599 C595 1.393 . S
C599 C598 1.391 . S
C249 C129 1.243 1_565 S
C255 C9 1.247 . S
C269 C169 1.900 . S
C275 C49 1.911 . S
C289 C209 1.084 . S
C295 C89 1.106 . S
C309 C10 4.368 . S
C315 C99 4.467 . S
C329 C50 4.487 . S
C335 C139 4.635 . S
C349 C90 4.765 . S
C355 C179 4.891 . S
C369 C130 4.372 . S
C375 C219 4.466 . S
C389 C170 4.482 1_455 S
C395 C19 4.635 1_565 S
C409 C210 4.758 . S
C415 C59 4.890 . S
C429 C18 1.205 . S
C435 C138 1.222 1_545 S
C449 C58 1.595 . S
C455 C178 1.608 . S
C469 C98 1.355 . S
C475 C218 1.339 . S
C489 C15 1.362 . S
C495 C46 1.172 . S
C509 C55 0.793 . S
C515 C86 0.777 . S
C529 C95 1.359 . S
C535 C126 1.498 . S
C549 C135 1.344 . S
C555 C166 1.168 . S
C569 C175 0.781 . S
C575 C206 0.761 . S
C589 C215 1.332 . S
C595 C6 1.467 . S
