# Generated by pormake.
# Topology wne, (6)-cn, num edge types: 1
# Building blocks:
#     Node 0, Type 0, BuildingBlock: OJICUG_clean_sbu_0, # of connection points: 6
#     Node 1, Type 0, BuildingBlock: OJICUG_clean_sbu_0, # of connection points: 6
#     Node 2, Type 0, BuildingBlock: OJICUG_clean_sbu_0, # of connection points: 6
#     Node 3, Type 0, BuildingBlock: OJICUG_clean_sbu_0, # of connection points: 6
#     Node 4, Type 0, BuildingBlock: OJICUG_clean_sbu_0, # of connection points: 6
#     Node 5, Type 0, BuildingBlock: OJICUG_clean_sbu_0, # of connection points: 6
#     Node 6, Type 0, BuildingBlock: OJICUG_clean_sbu_0, # of connection points: 6
#     Node 7, Type 0, BuildingBlock: OJICUG_clean_sbu_0, # of connection points: 6
#     Node 8, Type 0, BuildingBlock: OJICUG_clean_sbu_0, # of connection points: 6
#     Node 9, Type 0, BuildingBlock: OJICUG_clean_sbu_0, # of connection points: 6
#     Node 10, Type 0, BuildingBlock: OJICUG_clean_sbu_0, # of connection points: 6
#     Node 11, Type 0, BuildingBlock: OJICUG_clean_sbu_0, # of connection points: 6
#     Node 12, Type 0, BuildingBlock: OJICUG_clean_sbu_0, # of connection points: 6
#     Node 13, Type 0, BuildingBlock: OJICUG_clean_sbu_0, # of connection points: 6
#     Node 14, Type 0, BuildingBlock: OJICUG_clean_sbu_0, # of connection points: 6
#     Node 15, Type 0, BuildingBlock: OJICUG_clean_sbu_0, # of connection points: 6
#     Node 16, Type 0, BuildingBlock: OJICUG_clean_sbu_0, # of connection points: 6
#     Node 17, Type 0, BuildingBlock: OJICUG_clean_sbu_0, # of connection points: 6
#     Node 18, Type 0, BuildingBlock: OJICUG_clean_sbu_0, # of connection points: 6
#     Node 19, Type 0, BuildingBlock: OJICUG_clean_sbu_0, # of connection points: 6
#     Node 20, Type 0, BuildingBlock: OJICUG_clean_sbu_0, # of connection points: 6
#     Node 21, Type 0, BuildingBlock: OJICUG_clean_sbu_0, # of connection points: 6
#     Node 22, Type 0, BuildingBlock: OJICUG_clean_sbu_0, # of connection points: 6
#     Node 23, Type 0, BuildingBlock: OJICUG_clean_sbu_0, # of connection points: 6
#     Node 24, Type 0, BuildingBlock: OJICUG_clean_sbu_0, # of connection points: 6
#     Node 25, Type 0, BuildingBlock: OJICUG_clean_sbu_0, # of connection points: 6
#     Node 26, Type 0, BuildingBlock: OJICUG_clean_sbu_0, # of connection points: 6
#     Node 27, Type 0, BuildingBlock: OJICUG_clean_sbu_0, # of connection points: 6
#     Node 28, Type 0, BuildingBlock: OJICUG_clean_sbu_0, # of connection points: 6
#     Node 29, Type 0, BuildingBlock: OJICUG_clean_sbu_0, # of connection points: 6
#     Node 30, Type 0, BuildingBlock: OJICUG_clean_sbu_0, # of connection points: 6
#     Node 31, Type 0, BuildingBlock: OJICUG_clean_sbu_0, # of connection points: 6
#     Node 32, Type 0, BuildingBlock: OJICUG_clean_sbu_0, # of connection points: 6
#     Node 33, Type 0, BuildingBlock: OJICUG_clean_sbu_0, # of connection points: 6
#     Node 34, Type 0, BuildingBlock: OJICUG_clean_sbu_0, # of connection points: 6
#     Node 35, Type 0, BuildingBlock: OJICUG_clean_sbu_0, # of connection points: 6
#     Edge 36, Type (0, 0), BuildingBlock: AJUNOK_clean_linker_0, # of connection points: 2
#     Edge 37, Type (0, 0), BuildingBlock: AJUNOK_clean_linker_0, # of connection points: 2
#     Edge 38, Type (0, 0), BuildingBlock: AJUNOK_clean_linker_0, # of connection points: 2
#     Edge 39, Type (0, 0), BuildingBlock: AJUNOK_clean_linker_0, # of connection points: 2
#     Edge 40, Type (0, 0), BuildingBlock: AJUNOK_clean_linker_0, # of connection points: 2
#     Edge 41, Type (0, 0), BuildingBlock: AJUNOK_clean_linker_0, # of connection points: 2
#     Edge 42, Type (0, 0), BuildingBlock: AJUNOK_clean_linker_0, # of connection points: 2
#     Edge 43, Type (0, 0), BuildingBlock: AJUNOK_clean_linker_0, # of connection points: 2
#     Edge 44, Type (0, 0), BuildingBlock: AJUNOK_clean_linker_0, # of connection points: 2
#     Edge 45, Type (0, 0), BuildingBlock: AJUNOK_clean_linker_0, # of connection points: 2
#     Edge 46, Type (0, 0), BuildingBlock: AJUNOK_clean_linker_0, # of connection points: 2
#     Edge 47, Type (0, 0), BuildingBlock: AJUNOK_clean_linker_0, # of connection points: 2
#     Edge 48, Type (0, 0), BuildingBlock: AJUNOK_clean_linker_0, # of connection points: 2
#     Edge 49, Type (0, 0), BuildingBlock: AJUNOK_clean_linker_0, # of connection points: 2
#     Edge 50, Type (0, 0), BuildingBlock: AJUNOK_clean_linker_0, # of connection points: 2
#     Edge 51, Type (0, 0), BuildingBlock: AJUNOK_clean_linker_0, # of connection points: 2
#     Edge 52, Type (0, 0), BuildingBlock: AJUNOK_clean_linker_0, # of connection points: 2
#     Edge 53, Type (0, 0), BuildingBlock: AJUNOK_clean_linker_0, # of connection points: 2
#     Edge 54, Type (0, 0), BuildingBlock: AJUNOK_clean_linker_0, # of connection points: 2
#     Edge 55, Type (0, 0), BuildingBlock: AJUNOK_clean_linker_0, # of connection points: 2
#     Edge 56, Type (0, 0), BuildingBlock: AJUNOK_clean_linker_0, # of connection points: 2
#     Edge 57, Type (0, 0), BuildingBlock: AJUNOK_clean_linker_0, # of connection points: 2
#     Edge 58, Type (0, 0), BuildingBlock: AJUNOK_clean_linker_0, # of connection points: 2
#     Edge 59, Type (0, 0), BuildingBlock: AJUNOK_clean_linker_0, # of connection points: 2
#     Edge 60, Type (0, 0), BuildingBlock: AJUNOK_clean_linker_0, # of connection points: 2
#     Edge 61, Type (0, 0), BuildingBlock: AJUNOK_clean_linker_0, # of connection points: 2
#     Edge 62, Type (0, 0), BuildingBlock: AJUNOK_clean_linker_0, # of connection points: 2
#     Edge 63, Type (0, 0), BuildingBlock: AJUNOK_clean_linker_0, # of connection points: 2
#     Edge 64, Type (0, 0), BuildingBlock: AJUNOK_clean_linker_0, # of connection points: 2
#     Edge 65, Type (0, 0), BuildingBlock: AJUNOK_clean_linker_0, # of connection points: 2
#     Edge 66, Type (0, 0), BuildingBlock: AJUNOK_clean_linker_0, # of connection points: 2
#     Edge 67, Type (0, 0), BuildingBlock: AJUNOK_clean_linker_0, # of connection points: 2
#     Edge 68, Type (0, 0), BuildingBlock: AJUNOK_clean_linker_0, # of connection points: 2
#     Edge 69, Type (0, 0), BuildingBlock: AJUNOK_clean_linker_0, # of connection points: 2
#     Edge 70, Type (0, 0), BuildingBlock: AJUNOK_clean_linker_0, # of connection points: 2
#     Edge 71, Type (0, 0), BuildingBlock: AJUNOK_clean_linker_0, # of connection points: 2
#     Edge 72, Type (0, 0), BuildingBlock: AJUNOK_clean_linker_0, # of connection points: 2
#     Edge 73, Type (0, 0), BuildingBlock: AJUNOK_clean_linker_0, # of connection points: 2
#     Edge 74, Type (0, 0), BuildingBlock: AJUNOK_clean_linker_0, # of connection points: 2
#     Edge 75, Type (0, 0), BuildingBlock: AJUNOK_clean_linker_0, # of connection points: 2
#     Edge 76, Type (0, 0), BuildingBlock: AJUNOK_clean_linker_0, # of connection points: 2
#     Edge 77, Type (0, 0), BuildingBlock: AJUNOK_clean_linker_0, # of connection points: 2
#     Edge 78, Type (0, 0), BuildingBlock: AJUNOK_clean_linker_0, # of connection points: 2
#     Edge 79, Type (0, 0), BuildingBlock: AJUNOK_clean_linker_0, # of connection points: 2
#     Edge 80, Type (0, 0), BuildingBlock: AJUNOK_clean_linker_0, # of connection points: 2
#     Edge 81, Type (0, 0), BuildingBlock: AJUNOK_clean_linker_0, # of connection points: 2
#     Edge 82, Type (0, 0), BuildingBlock: AJUNOK_clean_linker_0, # of connection points: 2
#     Edge 83, Type (0, 0), BuildingBlock: AJUNOK_clean_linker_0, # of connection points: 2
#     Edge 84, Type (0, 0), BuildingBlock: AJUNOK_clean_linker_0, # of connection points: 2
#     Edge 85, Type (0, 0), BuildingBlock: AJUNOK_clean_linker_0, # of connection points: 2
#     Edge 86, Type (0, 0), BuildingBlock: AJUNOK_clean_linker_0, # of connection points: 2
#     Edge 87, Type (0, 0), BuildingBlock: AJUNOK_clean_linker_0, # of connection points: 2
#     Edge 88, Type (0, 0), BuildingBlock: AJUNOK_clean_linker_0, # of connection points: 2
#     Edge 89, Type (0, 0), BuildingBlock: AJUNOK_clean_linker_0, # of connection points: 2
#     Edge 90, Type (0, 0), BuildingBlock: AJUNOK_clean_linker_0, # of connection points: 2
#     Edge 91, Type (0, 0), BuildingBlock: AJUNOK_clean_linker_0, # of connection points: 2
#     Edge 92, Type (0, 0), BuildingBlock: AJUNOK_clean_linker_0, # of connection points: 2
#     Edge 93, Type (0, 0), BuildingBlock: AJUNOK_clean_linker_0, # of connection points: 2
#     Edge 94, Type (0, 0), BuildingBlock: AJUNOK_clean_linker_0, # of connection points: 2
#     Edge 95, Type (0, 0), BuildingBlock: AJUNOK_clean_linker_0, # of connection points: 2
#     Edge 96, Type (0, 0), BuildingBlock: AJUNOK_clean_linker_0, # of connection points: 2
#     Edge 97, Type (0, 0), BuildingBlock: AJUNOK_clean_linker_0, # of connection points: 2
#     Edge 98, Type (0, 0), BuildingBlock: AJUNOK_clean_linker_0, # of connection points: 2
#     Edge 99, Type (0, 0), BuildingBlock: AJUNOK_clean_linker_0, # of connection points: 2
#     Edge 100, Type (0, 0), BuildingBlock: AJUNOK_clean_linker_0, # of connection points: 2
#     Edge 101, Type (0, 0), BuildingBlock: AJUNOK_clean_linker_0, # of connection points: 2
#     Edge 102, Type (0, 0), BuildingBlock: AJUNOK_clean_linker_0, # of connection points: 2
#     Edge 103, Type (0, 0), BuildingBlock: AJUNOK_clean_linker_0, # of connection points: 2
#     Edge 104, Type (0, 0), BuildingBlock: AJUNOK_clean_linker_0, # of connection points: 2
#     Edge 105, Type (0, 0), BuildingBlock: AJUNOK_clean_linker_0, # of connection points: 2
#     Edge 106, Type (0, 0), BuildingBlock: AJUNOK_clean_linker_0, # of connection points: 2
#     Edge 107, Type (0, 0), BuildingBlock: AJUNOK_clean_linker_0, # of connection points: 2
#     Edge 108, Type (0, 0), BuildingBlock: AJUNOK_clean_linker_0, # of connection points: 2
#     Edge 109, Type (0, 0), BuildingBlock: AJUNOK_clean_linker_0, # of connection points: 2
#     Edge 110, Type (0, 0), BuildingBlock: AJUNOK_clean_linker_0, # of connection points: 2
#     Edge 111, Type (0, 0), BuildingBlock: AJUNOK_clean_linker_0, # of connection points: 2
#     Edge 112, Type (0, 0), BuildingBlock: AJUNOK_clean_linker_0, # of connection points: 2
#     Edge 113, Type (0, 0), BuildingBlock: AJUNOK_clean_linker_0, # of connection points: 2
#     Edge 114, Type (0, 0), BuildingBlock: AJUNOK_clean_linker_0, # of connection points: 2
#     Edge 115, Type (0, 0), BuildingBlock: AJUNOK_clean_linker_0, # of connection points: 2
#     Edge 116, Type (0, 0), BuildingBlock: AJUNOK_clean_linker_0, # of connection points: 2
#     Edge 117, Type (0, 0), BuildingBlock: AJUNOK_clean_linker_0, # of connection points: 2
#     Edge 118, Type (0, 0), BuildingBlock: AJUNOK_clean_linker_0, # of connection points: 2
#     Edge 119, Type (0, 0), BuildingBlock: AJUNOK_clean_linker_0, # of connection points: 2
#     Edge 120, Type (0, 0), BuildingBlock: AJUNOK_clean_linker_0, # of connection points: 2
#     Edge 121, Type (0, 0), BuildingBlock: AJUNOK_clean_linker_0, # of connection points: 2
#     Edge 122, Type (0, 0), BuildingBlock: AJUNOK_clean_linker_0, # of connection points: 2
#     Edge 123, Type (0, 0), BuildingBlock: AJUNOK_clean_linker_0, # of connection points: 2
#     Edge 124, Type (0, 0), BuildingBlock: AJUNOK_clean_linker_0, # of connection points: 2
#     Edge 125, Type (0, 0), BuildingBlock: AJUNOK_clean_linker_0, # of connection points: 2
#     Edge 126, Type (0, 0), BuildingBlock: AJUNOK_clean_linker_0, # of connection points: 2
#     Edge 127, Type (0, 0), BuildingBlock: AJUNOK_clean_linker_0, # of connection points: 2
#     Edge 128, Type (0, 0), BuildingBlock: AJUNOK_clean_linker_0, # of connection points: 2
#     Edge 129, Type (0, 0), BuildingBlock: AJUNOK_clean_linker_0, # of connection points: 2
#     Edge 130, Type (0, 0), BuildingBlock: AJUNOK_clean_linker_0, # of connection points: 2
#     Edge 131, Type (0, 0), BuildingBlock: AJUNOK_clean_linker_0, # of connection points: 2
#     Edge 132, Type (0, 0), BuildingBlock: AJUNOK_clean_linker_0, # of connection points: 2
#     Edge 133, Type (0, 0), BuildingBlock: AJUNOK_clean_linker_0, # of connection points: 2
#     Edge 134, Type (0, 0), BuildingBlock: AJUNOK_clean_linker_0, # of connection points: 2
#     Edge 135, Type (0, 0), BuildingBlock: AJUNOK_clean_linker_0, # of connection points: 2
#     Edge 136, Type (0, 0), BuildingBlock: AJUNOK_clean_linker_0, # of connection points: 2
#     Edge 137, Type (0, 0), BuildingBlock: AJUNOK_clean_linker_0, # of connection points: 2
#     Edge 138, Type (0, 0), BuildingBlock: AJUNOK_clean_linker_0, # of connection points: 2
#     Edge 139, Type (0, 0), BuildingBlock: AJUNOK_clean_linker_0, # of connection points: 2
#     Edge 140, Type (0, 0), BuildingBlock: AJUNOK_clean_linker_0, # of connection points: 2
#     Edge 141, Type (0, 0), BuildingBlock: AJUNOK_clean_linker_0, # of connection points: 2
#     Edge 142, Type (0, 0), BuildingBlock: AJUNOK_clean_linker_0, # of connection points: 2
#     Edge 143, Type (0, 0), BuildingBlock: AJUNOK_clean_linker_0, # of connection points: 2
# Relax obj value: 0.236
# Max RMSD: 0.266
# Mean RMSD: 0.266
data_MOF--net-wne--node1-OJICUG_clean_sbu_0--edge1-AJUNOK_clean_linker_0
_symmetry_space_group_name_H-M    P1
_symmetry_Int_Tables_number       1
_symmetry_cell_setting            triclinic
loop_
_symmetry_equiv_pos_as_xyz
'x, y, z'
_cell_length_a     48.771356
_cell_length_b     48.700468
_cell_length_c     31.072907
_cell_angle_alpha  90.061263
_cell_angle_beta   89.971262
_cell_angle_gamma 120.06315
loop_
_atom_site_label
_atom_site_type_symbol
_atom_site_fract_x
_atom_site_fract_y
_atom_site_fract_z
_atom_type_partial_charge
Sc0 Sc 0.25221 0.22451 -0.01052 0.0
Sc1 Sc 0.31653 0.25445 0.06038 0.0
Sc2 Sc 0.24678 0.18278 0.08515 0.0
O3 O 0.27177 0.22021 0.04505 0.0
C4 C 0.19248 0.19714 0.0499 0.0
C5 C 0.28891 0.29606 0.02231 0.0
C6 C 0.27959 0.2425 0.14746 0.0
C7 C 0.3222 0.24407 0.96177 0.0
C8 C 0.22919 0.14964 -0.00774 0.0
C9 C 0.31851 0.19585 0.10106 0.0
O10 O 0.20848 0.21228 0.01762 0.0
O11 O 0.30997 0.29218 0.04007 0.0
O12 O 0.25842 0.21421 0.13847 0.0
O13 O 0.29405 0.2373 0.95374 0.0
O14 O 0.23301 0.14876 0.03284 0.0
O15 O 0.33086 0.22328 0.08517 0.0
O16 O 0.23568 0.17513 0.97221 0.0
O17 O 0.33397 0.2502 -0.00067 0.0
O18 O 0.28832 0.17726 0.10253 0.0
O19 O 0.26523 0.27387 0.00275 0.0
O20 O 0.20217 0.18424 0.07728 0.0
O21 O 0.30207 0.26066 0.12268 0.0
Sc22 Sc 0.83443 0.03831 0.0015 0.0
Sc23 Sc 0.81472 0.0793 0.07334 0.0
Sc24 Sc 0.88798 0.08518 0.07841 0.0
O25 O 0.84593 0.06854 0.04986 0.0
C26 C 0.87112 1.01496 0.05122 0.0
C27 C 0.77022 1.00736 0.05638 0.0
C28 C 0.84183 0.06193 0.15424 0.0
C29 C 0.80653 0.07952 0.97105 0.0
C30 C 0.9085 0.09282 -0.01489 0.0
C31 C 0.87109 0.14155 0.09386 0.0
O32 O 0.84359 1.00869 0.04136 0.0
O33 O 0.78004 0.03105 0.08106 0.0
O34 O 0.86366 0.06038 0.13409 0.0
O35 O 0.823 0.06669 0.96257 0.0
O36 O 0.91125 0.10778 0.02006 0.0
O37 O 0.84827 0.12821 0.06786 0.0
O38 O 0.88398 0.06576 0.97629 0.0
O39 O 0.7984 0.0821 0.00929 0.0
O40 O 0.88728 0.12819 0.10389 0.0
O41 O 0.78461 1.00822 0.02153 0.0
O42 O 0.89294 0.04366 0.05831 0.0
O43 O 0.82812 0.07639 0.13928 0.0
Sc44 Sc 1.02191 0.80651 -0.01453 0.0
Sc45 Sc 0.98694 0.74739 0.06185 0.0
Sc46 Sc 0.98106 0.815 0.07132 0.0
O47 O 0.99594 0.78939 0.03876 0.0
C48 C 0.05127 0.86748 0.04009 0.0
C49 C 0.05744 0.77613 0.03659 0.0
C50 C 1.00714 0.79094 0.14361 0.0
C51 C 0.97941 0.73639 0.96024 0.0
C52 C 0.96909 0.82887 0.97807 0.0
C53 C 0.92405 0.74098 0.0856 0.0
O54 O 0.0549 0.84778 0.01805 0.0
O55 O 1.03561 0.76276 0.06405 0.0
O56 O 1.00637 0.81371 0.12532 0.0
O57 O 0.99033 0.76531 0.95092 0.0
O58 O 0.9575 0.8193 0.01556 0.0
O59 O 0.93772 0.73055 0.0617 0.0
O60 O 0.99353 0.82811 0.96421 0.0
O61 O 0.98093 0.72704 -0.00199 0.0
O62 O 0.93732 0.7708 0.09491 0.0
O63 O 0.05369 0.78769 0.00153 0.0
O64 O 1.02424 0.86126 0.05522 0.0
O65 O 0.99286 0.76282 0.12855 0.0
Sc66 Sc 0.19098 0.23586 0.37629 0.0
Sc67 Sc 0.25855 0.30816 0.3911 0.0
Sc68 Sc 0.2404 0.24667 0.46192 0.0
O69 O 0.22967 0.26389 0.41085 0.0
C70 C 0.16407 0.21965 0.46805 0.0
C71 C 0.20072 0.30697 0.36165 0.0
C72 C 0.26024 0.31442 0.49307 0.0
C73 C 0.24257 0.26709 0.30806 0.0
C74 C 0.21198 0.18634 0.40845 0.0
C75 C 0.30716 0.28644 0.41359 0.0
O76 O 0.16151 0.22947 0.4309 0.0
O77 O 0.22046 0.31734 0.39209 0.0
O78 O 0.24627 0.28494 0.50068 0.0
O79 O 0.22173 0.24124 0.32495 0.0
O80 O 0.23674 0.20832 0.42533 0.0
O81 O 0.29742 0.30027 0.38865 0.0
O82 O 0.18967 0.19094 0.39544 0.0
O83 O 0.25095 0.29425 0.32401 0.0
O84 O 0.29127 0.27025 0.44622 0.0
O85 O 0.18839 0.27776 0.34984 0.0
O86 O 0.18981 0.22131 0.48161 0.0
O87 O 0.26932 0.32626 0.45576 0.0
Sc88 Sc 0.82242 0.96315 0.3867 0.0
Sc89 Sc 0.75704 0.97276 0.39086 0.0
Sc90 Sc 0.81547 1.0075 0.46747 0.0
O91 O 0.79759 0.98004 0.41596 0.0
C92 C 0.83322 0.95201 0.48038 0.0
C93 C 0.74829 0.90881 0.36784 0.0
C94 C 0.74581 0.96853 0.49287 0.0
C95 C 0.80186 0.9891 0.31081 0.0
C96 C 0.87647 0.03251 0.41791 0.0
C97 C 0.786 0.04317 0.41578 0.0
O98 O 0.82179 0.93861 0.44429 0.0
O99 O 0.73801 0.92279 0.39161 0.0
O100 O 0.77429 0.97753 0.50281 0.0
O101 O 0.82446 0.98908 0.33103 0.0
O102 O 0.85595 0.03885 0.43157 0.0
O103 O 0.77475 1.02242 0.38651 0.0
O104 O 0.8691 1.00407 0.40758 0.0
O105 O 0.77377 0.97664 0.32552 0.0
O106 O 0.79625 0.03842 0.45117 0.0
O107 O 0.77821 0.9212 0.36036 0.0
O108 O 0.83661 0.9791 0.49058 0.0
O109 O 0.73659 0.9688 0.45447 0.0
Sc110 Sc 0.09279 0.87177 0.37738 0.0
Sc111 Sc 0.08998 0.79999 0.39072 0.0
Sc112 Sc 0.05372 0.82382 0.46501 0.0
O113 O 0.07949 0.83238 0.41163 0.0
C114 C 0.10365 0.8997 0.46954 0.0
C115 C 0.15164 0.85734 0.36545 0.0
C116 C 0.09716 0.79857 0.49275 0.0
C117 C 0.07245 0.8223 0.30498 0.0
C118 C 1.02201 0.85194 0.40914 0.0
C119 C 1.02027 0.75684 0.41695 0.0
O120 O 0.1155 0.9013 0.43236 0.0
O121 O 0.13897 0.83397 0.39089 0.0
O122 O 0.08683 0.81723 0.50079 0.0
O123 O 0.06927 0.84398 0.32274 0.0
O124 O 1.01923 0.82893 0.43112 0.0
O125 O 0.04143 0.76567 0.38836 0.0
O126 O 0.04866 0.87307 0.39325 0.0
O127 O 0.08502 0.80804 0.32345 0.0
O128 O 1.02421 0.77272 0.45149 0.0
O129 O 0.13739 0.87271 0.35507 0.0
O130 O 0.0799 0.87427 0.48414 0.0
O131 O 0.0955 0.78697 0.45542 0.0
Sc132 Sc 0.81977 0.82658 0.9599 0.0
Sc133 Sc 0.7591 0.80569 0.88734 0.0
Sc134 Sc 0.82904 0.87571 0.87398 0.0
O135 O 0.8024 0.83654 0.9082 0.0
C136 C 0.84552 0.90269 0.96626 0.0
C137 C 0.75129 0.80209 -0.01062 0.0
C138 C 0.75625 0.86299 0.86316 0.0
C139 C 0.78506 0.76087 0.90859 0.0
C140 C 0.87991 0.85593 0.90528 0.0
C141 C 0.79934 0.82556 0.80325 0.0
O142 O 0.84402 0.87705 0.98 0.0
O143 O 0.74083 0.79173 0.95179 0.0
O144 O 0.78546 0.87689 0.85066 0.0
O145 O 0.79792 0.77583 0.94349 0.0
O146 O 0.87459 0.8776 0.89114 0.0
O147 O 0.77217 0.81555 0.82003 0.0
O148 O 0.85891 0.83172 0.92441 0.0
O149 O 0.7716 0.77015 0.88235 0.0
O150 O 0.82473 0.84635 0.82104 0.0
O151 O 0.7805 0.81928 -0.00224 0.0
O152 O 0.83549 0.9049 0.92912 0.0
O153 O 0.7463 0.84116 0.8909 0.0
Sc154 Sc 0.24287 1.00896 0.95924 0.0
Sc155 Sc 0.25795 0.96415 0.8873 0.0
Sc156 Sc 0.18796 0.96499 0.88181 0.0
O157 O 0.22952 0.9787 0.91064 0.0
C158 C 0.16792 0.95657 0.97556 0.0
C159 C 0.26667 0.96361 -0.01078 0.0
C160 C 0.19982 0.90569 0.8637 0.0
C161 C 0.30671 0.03583 0.90334 0.0
C162 C 0.20776 0.03533 0.91181 0.0
C163 C 0.23458 0.9867 0.80751 0.0
O164 O 0.19345 0.98264 -0.01486 0.0
O165 O 0.27259 0.95876 0.95087 0.0
O166 O 0.186 0.92137 0.85341 0.0
O167 O 0.29231 0.03745 0.93689 0.0
O168 O 0.18514 1.00721 0.90389 0.0
O169 O 0.246 0.96981 0.82146 0.0
O170 O 0.23493 0.04024 0.92099 0.0
O171 O 0.29616 1.01091 0.88094 0.0
O172 O 0.214 0.99045 0.82744 0.0
O173 O 0.25338 0.97961 -0.00192 0.0
O174 O 0.16393 0.94218 0.93967 0.0
O175 O 0.22091 0.91644 0.89231 0.0
Sc176 Sc 0.04994 0.24398 0.96677 0.0
Sc177 Sc 0.093 0.3055 0.89568 0.0
Sc178 Sc 0.09408 0.23556 0.88662 0.0
O179 O 0.07965 0.26213 0.91743 0.0
C180 C 0.10294 0.22263 -0.01892 0.0
C181 C 0.09256 0.31277 -0.00202 0.0
C182 C 0.15291 0.30816 0.87189 0.0
C183 C 1.02137 0.28035 0.91371 0.0
C184 C 1.02334 0.18353 0.91364 0.0
C185 C 0.07341 0.26259 0.81296 0.0
O186 O 0.07681 0.2215 -0.0087 0.0
O187 O 0.09701 0.3241 0.96 0.0
O188 O 0.13791 0.27857 0.86151 0.0
O189 O 1.02091 0.2647 0.94699 0.0
O190 O 0.05137 0.18944 0.90424 0.0
O191 O 0.08909 0.29038 0.82898 0.0
O192 O 1.01846 0.20462 0.92898 0.0
O193 O 0.04541 0.29458 0.88967 0.0
O194 O 0.0696 0.23777 0.83171 0.0
O195 O 0.07886 0.28338 0.00607 0.0
O196 O 0.11641 0.23249 0.94453 0.0
O197 O 0.14147 0.31842 0.8998 0.0
Sc198 Sc 0.8309 0.80035 0.48748 0.0
Sc199 Sc 0.80728 0.73989 0.56095 0.0
Sc200 Sc 0.87937 0.81043 0.57692 0.0
O201 O 0.84029 0.78366 0.54132 0.0
C202 C 0.90528 0.82523 0.4792 0.0
C203 C 0.81242 0.7291 0.46507 0.0
C204 C 0.86817 0.7412 0.59834 0.0
C205 C 0.76394 0.76361 0.53014 0.0
C206 C 0.8623 0.86286 0.5434 0.0
C207 C 0.82224 0.78154 0.64392 0.0
O208 O 0.87809 0.8149 0.46145 0.0
O209 O 0.81359 0.72011 0.50311 0.0
O210 O 0.88806 0.77033 0.58958 0.0
O211 O 0.78473 0.78991 0.51413 0.0
O212 O 0.87471 0.85331 0.57167 0.0
O213 O 0.80154 0.76058 0.61907 0.0
O214 O 0.84745 0.84654 0.51109 0.0
O215 O 0.76856 0.74049 0.53088 0.0
O216 O 0.85151 0.79849 0.63453 0.0
O217 O 0.81312 0.75502 0.45655 0.0
O218 O 0.90911 0.82484 0.51991 0.0
O219 O 0.83887 0.72927 0.59266 0.0
Sc220 Sc 0.25236 0.03942 0.49906 0.0
Sc221 Sc 0.31204 0.07837 0.57304 0.0
Sc222 Sc 0.24416 0.08293 0.5804 0.0
O223 O 0.27003 0.06778 0.5496 0.0
C224 C 0.23214 0.09372 0.48697 0.0
C225 C 0.32184 0.08097 0.47149 0.0
C226 C 0.31772 0.13987 0.59533 0.0
C227 C 0.28419 1.00683 0.55331 0.0
C228 C 0.19134 1.01333 0.54947 0.0
C229 C 0.26846 0.05975 0.65399 0.0
O230 O 0.23106 0.06776 0.47554 0.0
O231 O 0.33168 0.08174 0.50968 0.0
O232 O 0.28819 0.126 0.6061 0.0
O233 O 0.27167 1.00882 0.5181 0.0
O234 O 0.19787 0.0414 0.56016 0.0
O235 O 0.29648 0.07571 0.63914 0.0
O236 O 0.21239 1.00789 0.53561 0.0
O237 O 0.29775 0.02984 0.57923 0.0
O238 O 0.24426 0.05661 0.63445 0.0
O239 O 0.29284 0.06916 0.46191 0.0
O240 O 0.24239 0.10676 0.52364 0.0
O241 O 0.3272 0.12718 0.56825 0.0
Sc242 Sc 1.01824 0.22144 0.50003 0.0
Sc243 Sc 0.97851 0.24152 0.5738 0.0
Sc244 Sc 0.98211 0.17348 0.58789 0.0
O245 O 0.99234 0.21181 0.5529 0.0
C246 C 0.96823 0.14496 0.49693 0.0
C247 C 0.97068 0.24232 0.47204 0.0
C248 C 0.92175 0.18419 0.60451 0.0
C249 C 0.04801 0.289 0.54757 0.0
C250 C 0.05114 0.19332 0.55131 0.0
C251 C 1.00486 0.22542 0.65591 0.0
O252 O 0.99198 0.1704 0.4818 0.0
O253 O 0.97019 0.25257 0.50957 0.0
O254 O 0.93853 0.17178 0.61616 0.0
O255 O 0.04659 0.27271 0.51436 0.0
O256 O 1.0246 0.17136 0.56599 0.0
O257 O 0.98618 0.23416 0.64072 0.0
O258 O 0.05374 0.21802 0.53455 0.0
O259 O 1.02563 0.27956 0.57448 0.0
O260 O 1.00948 0.20461 0.63819 0.0
O261 O 0.98458 0.22688 0.46355 0.0
O262 O 0.95705 0.14335 0.53468 0.0
O263 O 0.93108 0.20389 0.57405 0.0
Sc264 Sc 0.92238 0.5619 0.32854 0.0
Sc265 Sc 0.98255 0.58056 0.40146 0.0
Sc266 Sc 0.91308 0.50888 0.40777 0.0
O267 O 0.93993 0.55033 0.3782 0.0
C268 C 0.8611 0.52649 0.37746 0.0
C269 C 0.95685 0.62652 0.38275 0.0
C270 C 0.93744 0.5557 0.48236 0.0
C271 C 0.99179 0.58895 0.29927 0.0
C272 C 0.90273 0.48788 0.31373 0.0
C273 C 0.98517 0.52329 0.42565 0.0
O274 O 0.88269 0.55348 0.36592 0.0
O275 O 0.97115 0.61694 0.40697 0.0
O276 O 0.91316 0.5348 0.46249 0.0
O277 O 0.96252 0.57288 0.29069 0.0
O278 O 0.91266 0.4846 0.35031 0.0
O279 O 0.99576 0.54521 0.39804 0.0
O280 O 0.90066 0.51243 0.30361 0.0
O281 O 1.00255 0.59594 0.33762 0.0
O282 O 0.95551 0.5085 0.43519 0.0
O283 O 0.9422 0.61161 0.34871 0.0
O284 O 0.8673 0.5045 0.38635 0.0
O285 O 0.96559 0.56842 0.46744 0.0
Sc286 Sc 0.50542 0.38119 0.33033 0.0
Sc287 Sc 0.48666 0.4219 0.40387 0.0
Sc288 Sc 0.55587 0.41995 0.41583 0.0
O289 O 0.51621 0.4078 0.383 0.0
C290 C 0.53292 0.34805 0.38398 0.0
C291 C 0.43908 0.35231 0.3809 0.0
C292 C 0.5089 0.40421 0.48933 0.0
C293 C 0.48404 0.42791 0.30298 0.0
C294 C 0.58145 0.42932 0.32257 0.0
C295 C 0.54545 0.48126 0.42719 0.0
O296 O 0.50931 0.34579 0.36416 0.0
O297 O 0.44964 0.37428 0.40869 0.0
O298 O 0.52825 0.39772 0.47107 0.0
O299 O 0.50068 0.4154 0.29445 0.0
O300 O 0.58441 0.44157 0.35983 0.0
O301 O 0.52345 0.46969 0.39971 0.0
O302 O 0.55544 0.40558 0.30921 0.0
O303 O 0.47259 0.42675 0.34012 0.0
O304 O 0.55915 0.46565 0.43895 0.0
O305 O 0.45441 0.35408 0.34649 0.0
O306 O 0.555 0.37462 0.39905 0.0
O307 O 0.49647 0.41853 0.47068 0.0
Sc308 Sc 0.68206 0.13559 0.32798 0.0
Sc309 Sc 0.64689 0.07758 0.40517 0.0
Sc310 Sc 0.64775 0.14953 0.41898 0.0
O311 O 0.65791 0.121 0.38361 0.0
C312 C 0.71654 0.19962 0.38022 0.0
C313 C 0.71245 0.09851 0.36958 0.0
C314 C 0.67738 0.12183 0.48537 0.0
C315 C 0.62777 0.064 0.31044 0.0
C316 C 0.63351 0.16191 0.32162 0.0
C317 C 0.58929 0.08144 0.4448 0.0
O318 O 0.71334 0.18215 0.34851 0.0
O319 O 0.68452 0.07604 0.37339 0.0
O320 O 0.66515 0.13888 0.47627 0.0
O321 O 0.6527 0.08965 0.30014 0.0
O322 O 0.63092 0.16283 0.3625 0.0
O323 O 0.60608 0.06886 0.43915 0.0
O324 O 0.64926 0.15049 0.30332 0.0
O325 O 0.61871 0.05608 0.34915 0.0
O326 O 0.59886 0.11043 0.43466 0.0
O327 O 0.71796 0.12457 0.35266 0.0
O328 O 0.69574 0.19146 0.41002 0.0
O329 O 0.67554 0.09978 0.46124 0.0
Sc330 Sc 0.85456 0.56741 0.71195 0.0
Sc331 Sc 0.92662 0.63585 0.71926 0.0
Sc332 Sc 0.90638 0.57606 0.79297 0.0
O333 O 0.89562 0.59369 0.74265 0.0
C334 C 0.83164 0.55563 0.8047 0.0
C335 C 0.87084 0.64032 0.69509 0.0
C336 C 0.93359 0.64565 0.82121 0.0
C337 C 0.90231 0.59081 0.63888 0.0
C338 C 0.87113 0.51497 0.74337 0.0
C339 C 0.97139 0.6094 0.73951 0.0
O340 O 0.82933 0.56658 0.76838 0.0
O341 O 0.89213 0.64983 0.72338 0.0
O342 O 0.91727 0.61649 0.83081 0.0
O343 O 0.88093 0.56684 0.65854 0.0
O344 O 0.89805 0.53639 0.75543 0.0
O345 O 0.96193 0.62314 0.71408 0.0
O346 O 0.84943 0.52139 0.73373 0.0
O347 O 0.91448 0.61913 0.65309 0.0
O348 O 0.95644 0.59577 0.77406 0.0
O349 O 0.85562 0.6108 0.6843 0.0
O350 O 0.85637 0.55427 0.81609 0.0
O351 O 0.94183 0.65576 0.78287 0.0
Sc352 Sc 0.48941 0.30339 0.71199 0.0
Sc353 Sc 0.42052 0.30784 0.72535 0.0
Sc354 Sc 0.47907 0.34012 0.80283 0.0
O355 O 0.46311 0.31631 0.74711 0.0
C356 C 0.50154 0.28878 0.80903 0.0
C357 C 0.41978 0.2474 0.68701 0.0
C358 C 0.40698 0.2879 0.81983 0.0
C359 C 0.46548 0.33722 0.64707 0.0
C360 C 0.54262 0.37144 0.74947 0.0
C361 C 0.44575 0.37456 0.76211 0.0
O362 O 0.50204 0.28577 0.7682 0.0
O363 O 0.4091 0.26601 0.69122 0.0
O364 O 0.43288 0.31243 0.83068 0.0
O365 O 0.47981 0.32201 0.65532 0.0
O366 O 0.526 0.3695 0.78166 0.0
O367 O 0.422 0.34754 0.75599 0.0
O368 O 0.53297 0.35027 0.71993 0.0
O369 O 0.44341 0.33624 0.67011 0.0
O370 O 0.47085 0.3778 0.77919 0.0
O371 O 0.44827 0.25533 0.69763 0.0
O372 O 0.49152 0.30569 0.82733 0.0
O373 O 0.39887 0.27985 0.78094 0.0
Sc374 Sc 0.76614 0.20486 0.7221 0.0
Sc375 Sc 0.75979 0.13148 0.72835 0.0
Sc376 Sc 0.72101 0.15264 0.80207 0.0
O377 O 0.74981 0.16336 0.75196 0.0
C378 C 0.77467 0.22693 0.81586 0.0
C379 C 0.82265 0.18754 0.70922 0.0
C380 C 0.76117 0.12344 0.83019 0.0
C381 C 0.74433 0.15863 0.64617 0.0
C382 C 0.69603 0.18807 0.75031 0.0
C383 C 0.68829 0.08859 0.74721 0.0
O384 O 0.78873 0.22963 0.78011 0.0
O385 O 0.80881 0.16422 0.73443 0.0
O386 O 0.75032 0.14151 0.83973 0.0
O387 O 0.74144 0.17976 0.66617 0.0
O388 O 0.69014 0.16155 0.76485 0.0
O389 O 0.71106 0.09825 0.72091 0.0
O390 O 0.72429 0.20954 0.74032 0.0
O391 O 0.75857 0.14502 0.66197 0.0
O392 O 0.69062 0.10286 0.78276 0.0
O393 O 0.80942 0.20378 0.69847 0.0
O394 O 0.7484 0.20214 0.82614 0.0
O395 O 0.7617 0.11431 0.79188 0.0
Sc396 Sc 0.4805 0.15482 0.30395 0.0
Sc397 Sc 0.42047 0.13272 0.22943 0.0
Sc398 Sc 0.48972 0.20481 0.21909 0.0
O399 O 0.46331 0.16446 0.25149 0.0
C400 C 0.50406 0.23037 0.31242 0.0
C401 C 0.4112 0.12882 0.33138 0.0
C402 C 0.41656 0.18968 0.20361 0.0
C403 C 0.44721 0.0887 0.25293 0.0
C404 C 0.54128 0.18584 0.25043 0.0
C405 C 0.46233 0.15681 0.14521 0.0
O406 O 0.50335 0.20501 0.32565 0.0
O407 O 0.40106 0.11887 0.29352 0.0
O408 O 0.44641 0.20534 0.1947 0.0
O409 O 0.46029 0.10417 0.2874 0.0
O410 O 0.53551 0.20725 0.23642 0.0
O411 O 0.43511 0.14214 0.16274 0.0
O412 O 0.52066 0.16153 0.26982 0.0
O413 O 0.43374 0.0977 0.22634 0.0
O414 O 0.48692 0.17815 0.16394 0.0
O415 O 0.4403 0.14616 0.34007 0.0
O416 O 0.49441 0.23266 0.27514 0.0
O417 O 0.40575 0.16697 0.23011 0.0
Sc418 Sc 0.90992 0.34075 0.30914 0.0
Sc419 Sc 0.93794 0.30823 0.23421 0.0
Sc420 Sc 0.86424 0.30279 0.21721 0.0
O421 O 0.90319 0.31645 0.2538 0.0
C422 C 0.83657 0.28793 0.31439 0.0
C423 C 0.93243 0.29106 0.33035 0.0
C424 C 0.87869 0.24699 0.1947 0.0
C425 C 0.97837 0.37619 0.27002 0.0
C426 C 0.87727 0.37045 0.25288 0.0
C427 C 0.922 0.33379 0.15103 0.0
O428 O 0.86317 0.3055 0.33309 0.0
O429 O 0.93295 0.28241 0.29189 0.0
O430 O 0.85795 0.25521 0.20255 0.0
O431 O 0.95579 0.37884 0.28592 0.0
O432 O 0.86681 0.34923 0.2235 0.0
O433 O 0.94301 0.33417 0.17581 0.0
O434 O 0.89146 0.36901 0.28597 0.0
O435 O 0.97566 0.34946 0.26309 0.0
O436 O 0.89267 0.32071 0.16033 0.0
O437 O 0.92939 0.31482 0.33987 0.0
O438 O 0.83348 0.28501 0.27342 0.0
O439 O 0.90769 0.26496 0.20262 0.0
Sc440 Sc 0.72308 0.57702 0.28818 0.0
Sc441 Sc 0.76602 0.63861 0.21778 0.0
Sc442 Sc 0.7626 0.56694 0.20339 0.0
O443 O 0.75134 0.59465 0.23765 0.0
C444 C 0.77355 0.55125 0.29466 0.0
C445 C 0.77093 0.64498 0.32004 0.0
C446 C 0.82301 0.63832 0.18814 0.0
C447 C 0.69539 0.61609 0.23978 0.0
C448 C 0.69282 0.51679 0.23605 0.0
C449 C 0.74057 0.59641 0.13506 0.0
O450 O 0.74895 0.55218 0.30788 0.0
O451 O 0.7736 0.6568 0.28267 0.0
O452 O 0.80642 0.60916 0.17607 0.0
O453 O 0.69497 0.59971 0.27223 0.0
O454 O 0.72009 0.52178 0.22425 0.0
O455 O 0.75892 0.62391 0.15065 0.0
O456 O 0.68931 0.53906 0.25004 0.0
O457 O 0.71925 0.63038 0.21547 0.0
O458 O 0.73614 0.57089 0.15231 0.0
O459 O 0.75509 0.61543 0.32744 0.0
O460 O 0.78639 0.56185 0.25793 0.0
O461 O 0.81338 0.64826 0.21875 0.0
Sc462 Sc 0.50568 0.13827 0.82539 0.0
Sc463 Sc 0.48006 0.08263 0.90581 0.0
Sc464 Sc 0.55207 0.15157 0.91605 0.0
O465 O 0.51332 0.12395 0.88177 0.0
C466 C 0.58159 0.16469 0.82497 0.0
C467 C 0.47994 0.06859 0.80541 0.0
C468 C 0.53674 0.07849 0.93528 0.0
C469 C 0.43785 0.10732 0.87101 0.0
C470 C 0.53196 0.20036 0.87681 0.0
C471 C 0.50017 0.12742 -0.01422 0.0
O472 O 0.5564 0.16214 0.80819 0.0
O473 O 0.46697 0.06087 0.84244 0.0
O474 O 0.55248 0.10864 0.94309 0.0
O475 O 0.4541 0.11646 0.83625 0.0
O476 O 0.55304 0.19601 0.89537 0.0
O477 O 0.48791 0.09912 0.97189 0.0
O478 O 0.51012 0.17944 0.85388 0.0
O479 O 0.44694 0.09837 0.90336 0.0
O480 O 0.52329 0.15047 0.96729 0.0
O481 O 0.50018 0.09687 0.79579 0.0
O482 O 0.58254 0.15605 0.86342 0.0
O483 O 0.51298 0.06655 0.91046 0.0
Sc484 Sc 0.92184 0.37758 0.82914 0.0
Sc485 Sc 0.98246 0.41645 0.90236 0.0
Sc486 Sc 0.91164 0.41435 0.91839 0.0
O487 O 0.93877 0.40345 0.88235 0.0
C488 C 0.89491 0.42678 0.82688 0.0
C489 C 0.99034 0.42233 0.8001 0.0
C490 C 0.98389 0.475 0.93118 0.0
C491 C 0.95728 0.34622 0.87732 0.0
C492 C 0.86173 0.34415 0.88498 0.0
C493 C 0.9427 0.39431 -0.01271 0.0
O494 O 0.89749 0.40378 0.81114 0.0
O495 O 1.0009 0.42232 0.83758 0.0
O496 O 0.95452 0.45897 0.94264 0.0
O497 O 0.94397 0.34872 0.84321 0.0
O498 O 0.86665 0.37034 0.90159 0.0
O499 O 0.96963 0.41157 0.96992 0.0
O500 O 0.88228 0.34227 0.86261 0.0
O501 O 0.97068 0.36842 0.90452 0.0
O502 O 0.91694 0.38894 0.97002 0.0
O503 O 0.96114 0.41084 0.79249 0.0
O504 O 0.90411 0.4377 0.86484 0.0
O505 O 0.99437 0.46466 0.90192 0.0
Sc506 Sc 0.68723 0.5648 0.82159 0.0
Sc507 Sc 0.65116 0.58728 0.89817 0.0
Sc508 Sc 0.6467 0.51481 0.90664 0.0
O509 O 0.66103 0.5552 0.87453 0.0
C510 C 0.63352 0.49006 0.81281 0.0
C511 C 0.64673 0.59409 0.79657 0.0
C512 C 0.58945 0.53108 0.92201 0.0
C513 C 0.72144 0.63051 0.87407 0.0
C514 C 0.71618 0.53194 0.87361 0.0
C515 C 0.67019 0.56338 0.97966 0.0
O516 O 0.65858 0.51496 0.79945 0.0
O517 O 0.64732 0.60352 0.83496 0.0
O518 O 0.60346 0.51538 0.93185 0.0
O519 O 0.71818 0.61525 0.83903 0.0
O520 O 0.68895 0.51102 0.88802 0.0
O521 O 0.65458 0.57562 0.96445 0.0
O522 O 0.72037 0.55645 0.8541 0.0
O523 O 0.69986 0.62094 0.90221 0.0
O524 O 0.67304 0.542 0.96047 0.0
O525 O 0.65608 0.5749 0.78676 0.0
O526 O 0.62231 0.48763 0.85067 0.0
O527 O 0.60207 0.554 0.8959 0.0
Sc528 Sc 0.58826 0.89363 0.66084 0.0
Sc529 Sc 0.64761 0.91753 0.73625 0.0
Sc530 Sc 0.57909 0.84597 0.74859 0.0
O531 O 0.60535 0.88501 0.71403 0.0
C532 C 0.52744 0.86367 0.71452 0.0
C533 C 0.61972 0.9597 0.7105 0.0
C534 C 0.60577 0.89769 0.81814 0.0
C535 C 0.65734 0.92164 0.63408 0.0
C536 C 0.56374 0.81785 0.65703 0.0
C537 C 0.65279 0.86168 0.76291 0.0
O538 O 0.54803 0.88758 0.69433 0.0
O539 O 0.6323 0.95098 0.73887 0.0
O540 O 0.58142 0.87526 0.80049 0.0
O541 O 0.62873 0.90179 0.62524 0.0
O542 O 0.57398 0.81646 0.69438 0.0
O543 O 0.66321 0.88399 0.73574 0.0
O544 O 0.56511 0.84309 0.64208 0.0
O545 O 0.6666 0.93201 0.67206 0.0
O546 O 0.62313 0.84659 0.77343 0.0
O547 O 0.6088 0.94451 0.67522 0.0
O548 O 0.53324 0.84268 0.73003 0.0
O549 O 0.63349 0.90799 0.80319 0.0
Sc550 Sc 0.16801 0.70884 0.65598 0.0
Sc551 Sc 0.14458 0.74401 0.73295 0.0
Sc552 Sc 0.21729 0.74862 0.74236 0.0
O553 O 0.17708 0.73445 0.70975 0.0
C554 C 0.19866 0.67833 0.70973 0.0
C555 C 0.10176 0.67405 0.70619 0.0
C556 C 0.16874 0.72562 0.816 0.0
C557 C 0.14111 0.75174 0.63156 0.0
C558 C 0.2433 0.76044 0.64937 0.0
C559 C 0.20151 0.80633 0.75739 0.0
O560 O 0.17527 0.675 0.68817 0.0
O561 O 0.11074 0.69517 0.73495 0.0
O562 O 0.19078 0.72396 0.79688 0.0
O563 O 0.15933 0.74121 0.6217 0.0
O564 O 0.24531 0.7721 0.6868 0.0
O565 O 0.17767 0.79328 0.73287 0.0
O566 O 0.21799 0.73631 0.63517 0.0
O567 O 0.13031 0.75002 0.66939 0.0
O568 O 0.21756 0.79257 0.76648 0.0
O569 O 0.11738 0.67814 0.67137 0.0
O570 O 0.21958 0.70517 0.72542 0.0
O571 O 0.15418 0.7386 0.79949 0.0
Sc572 Sc 0.34844 0.46986 0.66191 0.0
Sc573 Sc 0.30991 0.41051 0.73679 0.0
Sc574 Sc 0.31167 0.4816 0.74968 0.0
O575 O 0.3228 0.45389 0.71528 0.0
C576 C 0.38192 0.53116 0.71472 0.0
C577 C 0.38019 0.4353 0.71227 0.0
C578 C 0.33355 0.45235 0.81878 0.0
C579 C 0.3021 0.40084 0.63578 0.0
C580 C 0.29888 0.49652 0.65771 0.0
C581 C 0.25115 0.40946 0.76405 0.0
O582 O 0.38381 0.50992 0.69408 0.0
O583 O 0.35787 0.42211 0.73927 0.0
O584 O 0.33742 0.47752 0.8013 0.0
O585 O 0.31463 0.43001 0.62708 0.0
O586 O 0.28792 0.48764 0.69567 0.0
O587 O 0.26187 0.39873 0.73573 0.0
O588 O 0.32208 0.49403 0.64252 0.0
O589 O 0.30327 0.39068 0.67303 0.0
O590 O 0.26715 0.43894 0.77538 0.0
O591 O 0.37768 0.44807 0.67753 0.0
O592 O 0.35572 0.52655 0.73102 0.0
O593 O 0.31523 0.4249 0.80347 0.0
Sc594 Sc 0.52639 0.90506 0.04708 0.0
Sc595 Sc 0.59772 0.97413 0.06616 0.0
Sc596 Sc 0.57197 0.91085 0.13668 0.0
O597 O 0.56508 0.93014 0.08371 0.0
C598 C 0.49651 0.88693 0.1384 0.0
C599 C 0.54093 0.97836 0.03604 0.0
C600 C 0.59351 0.97907 0.1681 0.0
C601 C 0.57873 0.93576 0.97812 0.0
C602 C 0.5439 0.85226 0.07789 0.0
C603 C 0.64085 0.94669 0.09355 0.0
O604 O 0.49571 0.89735 0.10101 0.0
O605 O 0.56359 0.98879 0.0625 0.0
O606 O 0.57831 0.9495 0.17493 0.0
O607 O 0.55553 0.91076 -0.0066 0.0
O608 O 0.56656 0.87162 0.10116 0.0
O609 O 0.63364 0.96203 0.06763 0.0
O610 O 0.52378 0.85886 0.06133 0.0
O611 O 0.59344 0.96192 -0.00153 0.0
O612 O 0.62319 0.93117 0.12529 0.0
O613 O 0.5258 0.94884 0.02518 0.0
O614 O 0.52126 0.88758 0.15368 0.0
O615 O 0.60564 0.99114 0.13177 0.0
Sc616 Sc 0.15917 0.63251 0.05035 0.0
Sc617 Sc 0.09189 0.63835 0.05638 0.0
Sc618 Sc 0.15103 0.67646 0.13136 0.0
O619 O 0.13359 0.64828 0.08041 0.0
C620 C 0.17261 0.62313 0.1435 0.0
C621 C 0.08559 0.57565 0.03561 0.0
C622 C 0.08142 0.63537 0.15824 0.0
C623 C 0.13571 0.65614 0.97533 0.0
C624 C 0.21194 0.70279 0.07991 0.0
C625 C 0.11961 0.7096 0.07686 0.0
O626 O 0.16129 0.60941 0.10755 0.0
O627 O 0.07565 0.58918 0.06061 0.0
O628 O 0.11026 0.64614 0.16796 0.0
O629 O 0.15904 0.65763 -0.00464 0.0
O630 O 0.19124 0.70817 0.09548 0.0
O631 O 0.10691 0.68698 0.05027 0.0
O632 O 0.20546 0.67472 0.0691 0.0
O633 O 0.10761 0.64142 -0.00973 0.0
O634 O 0.13152 0.70716 0.11243 0.0
O635 O 0.11523 0.58913 0.02562 0.0
O636 O 0.17338 0.64896 0.15479 0.0
O637 O 0.07219 0.6352 0.1198 0.0
Sc638 Sc 0.42476 0.532 0.0438 0.0
Sc639 Sc 0.42312 0.45999 0.06246 0.0
Sc640 Sc 0.38544 0.4845 0.13332 0.0
O641 O 0.41207 0.49323 0.08004 0.0
C642 C 0.4371 0.55849 0.14129 0.0
C643 C 0.48319 0.52058 0.0237 0.0
C644 C 0.43582 0.46424 0.15887 0.0
C645 C 0.39876 0.47442 0.97747 0.0
C646 C 0.35603 0.51719 0.07749 0.0
C647 C 0.35413 0.4179 0.0894 0.0
O648 O 0.44071 0.56208 0.10045 0.0
O649 O 0.46665 0.49158 0.03284 0.0
O650 O 0.41013 0.46432 0.16539 0.0
O651 O 0.40859 0.5032 -0.01234 0.0
O652 O 0.35748 0.50289 0.11029 0.0
O653 O 0.3816 0.42156 0.09037 0.0
O654 O 0.37754 0.52817 0.04851 0.0
O655 O 0.39942 0.45398 0.00225 0.0
O656 O 0.3491 0.4392 0.10482 0.0
O657 O 0.4732 0.5402 0.02984 0.0
O658 O 0.4197 0.53143 0.15942 0.0
O659 O 0.44747 0.46668 0.1216 0.0
Sc660 Sc 0.14796 0.4861 0.63128 0.0
Sc661 Sc 0.08894 0.46513 0.55608 0.0
Sc662 Sc 0.15688 0.53854 0.55049 0.0
O663 O 0.13088 0.49681 0.57989 0.0
C664 C 0.17003 0.56083 0.644 0.0
C665 C 0.07848 0.45989 0.65802 0.0
C666 C 0.08396 0.5224 0.53391 0.0
C667 C 0.11497 0.42059 0.57898 0.0
C668 C 0.20888 0.52007 0.58031 0.0
C669 C 0.13289 0.4931 0.47362 0.0
O670 O 0.17115 0.53592 0.65467 0.0
O671 O 0.06867 0.45019 0.61988 0.0
O672 O 0.11375 0.53884 0.52523 0.0
O673 O 0.12727 0.43564 0.61395 0.0
O674 O 0.20268 0.54186 0.56969 0.0
O675 O 0.1053 0.47679 0.48996 0.0
O676 O 0.18782 0.49377 0.59506 0.0
O677 O 0.10264 0.43031 0.55162 0.0
O678 O 0.15651 0.51439 0.49405 0.0
O679 O 0.10755 0.47679 0.6676 0.0
O680 O 0.15873 0.56334 0.60818 0.0
O681 O 0.07351 0.4987 0.55858 0.0
Sc682 Sc 0.57123 0.67762 0.6318 0.0
Sc683 Sc 0.59624 0.64459 0.55523 0.0
Sc684 Sc 0.52129 0.63446 0.54921 0.0
O685 O 0.56225 0.65073 0.57999 0.0
C686 C 0.49731 0.62277 0.64192 0.0
C687 C 0.60206 0.63947 0.6573 0.0
C688 C 0.54226 0.5807 0.53147 0.0
C689 C 0.63686 0.71408 0.58169 0.0
C690 C 0.5369 0.70364 0.58033 0.0
C691 C 0.56954 0.66201 0.47537 0.0
O692 O 0.52127 0.64936 0.65326 0.0
O693 O 0.61274 0.64131 0.61919 0.0
O694 O 0.52459 0.59287 0.52333 0.0
O695 O 0.62192 0.70814 0.61734 0.0
O696 O 0.5156 0.67541 0.56959 0.0
O697 O 0.58358 0.64775 0.48947 0.0
O698 O 0.5632 0.70946 0.59561 0.0
O699 O 0.62671 0.69452 0.55096 0.0
O700 O 0.54649 0.66141 0.49498 0.0
O701 O 0.58126 0.64679 0.66684 0.0
O702 O 0.49582 0.60956 0.6058 0.0
O703 O 0.56597 0.59456 0.55621 0.0
Sc704 Sc 0.38382 0.9105 0.63594 0.0
Sc705 Sc 0.41981 0.97245 0.56361 0.0
Sc706 Sc 0.42738 0.90609 0.5508 0.0
O707 O 0.41109 0.93007 0.58424 0.0
C708 C 0.43794 0.89011 0.64302 0.0
C709 C 0.42552 0.97952 0.66594 0.0
C710 C 0.48267 0.98066 0.53767 0.0
C711 C 0.34884 0.94233 0.58816 0.0
C712 C 0.3577 0.85151 0.57932 0.0
C713 C 0.40371 0.93194 0.47806 0.0
O714 O 0.41222 0.88869 0.6558 0.0
O715 O 0.42536 0.99031 0.62864 0.0
O716 O 0.47007 0.95104 0.5279 0.0
O717 O 0.35215 0.9293 0.6219 0.0
O718 O 0.3856 0.85889 0.5666 0.0
O719 O 0.41482 0.95888 0.4963 0.0
O720 O 0.35225 0.87096 0.59885 0.0
O721 O 0.37091 0.95673 0.56124 0.0
O722 O 0.40293 0.90813 0.4959 0.0
O723 O 0.41381 0.95029 0.67417 0.0
O724 O 0.45082 0.90194 0.6068 0.0
O725 O 0.46928 0.99011 0.56369 0.0
Sc726 Sc 0.16686 0.47281 0.15985 0.0
Sc727 Sc 0.14548 0.41628 0.23872 0.0
Sc728 Sc 0.21985 0.48264 0.24035 0.0
O729 O 0.17785 0.45685 0.21208 0.0
C730 C 0.24034 0.49194 0.14508 0.0
C731 C 0.1368 0.40243 0.13796 0.0
C732 C 0.20167 0.40861 0.25768 0.0
C733 C 0.10374 0.44514 0.2163 0.0
C734 C 0.20207 0.53511 0.20974 0.0
C735 C 0.17357 0.46231 0.31668 0.0
O736 O 0.21569 0.49342 0.13441 0.0
O737 O 0.12698 0.39452 0.17649 0.0
O738 O 0.21886 0.4386 0.26569 0.0
O739 O 0.11708 0.45412 0.17949 0.0
O740 O 0.22365 0.52885 0.22137 0.0
O741 O 0.15986 0.43366 0.30369 0.0
O742 O 0.17663 0.51466 0.19223 0.0
O743 O 0.1138 0.43379 0.24461 0.0
O744 O 0.19611 0.48453 0.29603 0.0
O745 O 0.15581 0.43077 0.12694 0.0
O746 O 0.24379 0.48284 0.18219 0.0
O747 O 0.17676 0.39797 0.23529 0.0
Sc748 Sc 0.59202 0.70962 0.15424 0.0
Sc749 Sc 0.65025 0.74751 0.23134 0.0
Sc750 Sc 0.57963 0.74794 0.23986 0.0
O751 O 0.60745 0.73542 0.20805 0.0
C752 C 0.56702 0.7601 0.14606 0.0
C753 C 0.66167 0.75603 0.12973 0.0
C754 C 0.65148 0.80727 0.25868 0.0
C755 C 0.62633 0.67765 0.2045 0.0
C756 C 0.53024 0.6771 0.2065 0.0
C757 C 0.60645 0.7277 0.31446 0.0
O758 O 0.56863 0.73608 0.13236 0.0
O759 O 0.67145 0.75578 0.16771 0.0
O760 O 0.62143 0.79231 0.26607 0.0
O761 O 0.61343 0.68033 0.17014 0.0
O762 O 0.53502 0.70373 0.22152 0.0
O763 O 0.6339 0.74018 0.29752 0.0
O764 O 0.55121 0.67461 0.186 0.0
O765 O 0.63869 0.69945 0.23236 0.0
O766 O 0.5821 0.72416 0.29494 0.0
O767 O 0.63258 0.74295 0.12031 0.0
O768 O 0.57532 0.7713 0.18397 0.0
O769 O 0.66348 0.79618 0.23278 0.0
Sc770 Sc 0.35286 0.89378 0.16209 0.0
Sc771 Sc 0.31349 0.91498 0.23539 0.0
Sc772 Sc 0.31169 0.84365 0.24591 0.0
O773 O 0.32514 0.88378 0.21336 0.0
C774 C 0.30033 0.81813 0.1538 0.0
C775 C 0.30842 0.91844 0.13297 0.0
C776 C 0.2536 0.85811 0.26271 0.0
C777 C 0.38454 0.95982 0.21279 0.0
C778 C 0.38133 0.86163 0.21386 0.0
C779 C 0.33629 0.89399 0.31733 0.0
O780 O 0.32549 0.84331 0.14102 0.0
O781 O 0.30691 0.92779 0.17085 0.0
O782 O 0.26855 0.84343 0.2727 0.0
O783 O 0.38303 0.94439 0.17868 0.0
O784 O 0.35375 0.83989 0.22583 0.0
O785 O 0.32025 0.90594 0.30213 0.0
O786 O 0.38579 0.88737 0.19829 0.0
O787 O 0.36138 0.95097 0.23811 0.0
O788 O 0.33798 0.87172 0.29861 0.0
O789 O 0.32182 0.90249 0.12472 0.0
O790 O 0.28759 0.8161 0.19048 0.0
O791 O 0.26482 0.8799 0.23493 0.0
C792 C 0.22956 0.12016 0.92585 0.0
C793 C 0.2174 0.11965 0.96713 0.0
C794 C 0.22267 0.09185 0.90464 0.0
C795 C 0.2026 0.06192 0.92323 0.0
H796 H 0.24639 0.14256 0.9112 0.0
H797 H 0.23519 0.09344 0.87508 0.0
S798 S 0.16056 0.04745 0.02736 0.0
N799 N 0.18133 0.08652 0.02344 0.0
N800 N 0.16802 0.03357 -0.01695 0.0
C801 C 0.18794 0.0611 0.96248 0.0
C802 C 0.19549 0.08987 -0.0154 0.0
C803 C 0.96649 0.14557 0.90042 0.0
C804 C 0.99571 0.15101 0.91727 0.0
C805 C 0.93742 0.12373 0.91961 0.0
C806 C 0.93661 0.10663 0.9564 0.0
H807 H 0.96629 0.16087 0.87525 0.0
H808 H 0.91588 0.12255 0.90815 0.0
S809 S 1.00568 0.10841 0.00909 0.0
N810 N 1.02136 0.1344 0.96953 0.0
N811 N 0.96697 0.09354 0.00565 0.0
C812 C 0.96527 0.10939 0.97073 0.0
C813 C 0.99478 0.13139 0.95096 0.0
C814 C 0.91747 0.83642 0.89262 0.0
C815 C 0.91205 0.86014 0.90991 0.0
C816 C 0.93835 0.82814 0.91251 0.0
C817 C 0.95405 0.84289 0.95093 0.0
H818 H 0.90301 0.82193 0.86612 0.0
H819 H 0.93996 0.80824 0.89992 0.0
S820 S 0.95142 0.90907 0.00617 0.0
N821 N 0.92716 0.90056 0.96485 0.0
N822 N 0.96572 0.88474 0.00264 0.0
C823 C 0.95101 0.86842 0.96633 0.0
C824 C 0.93033 0.87724 0.9456 0.0
C825 C 0.1081 0.21049 0.55903 0.0
C826 C 0.07819 0.18854 0.54191 0.0
C827 C 0.13635 0.21849 0.53681 0.0
C828 C 0.13554 0.20546 0.4961 0.0
H829 H 0.10952 0.22383 0.5877 0.0
H830 H 0.15863 0.23704 0.54972 0.0
S831 S 0.06384 0.14405 0.4398 0.0
N832 N 0.05002 0.15132 0.48432 0.0
N833 N 0.10276 0.16694 0.44198 0.0
C834 C 0.10607 0.18163 0.48042 0.0
C835 C 0.07749 0.17292 0.50356 0.0
C836 C 0.82697 0.91457 0.53988 0.0
C837 C 0.84626 0.93683 0.50875 0.0
C838 C 0.8355 0.89341 0.55819 0.0
C839 C 0.86352 0.89375 0.54589 0.0
H840 H 0.80395 0.91163 0.54732 0.0
H841 H 0.81827 0.8743 0.57817 0.0
S842 S 0.92372 0.9501 0.46954 0.0
N843 N 0.89596 0.9601 0.4697 0.0
N844 N 0.9119 0.92053 0.5041 0.0
C845 C 0.88433 0.91803 0.51809 0.0
C846 C 0.87562 0.93939 0.49929 0.0
C847 C 0.1291 0.9288 0.53818 0.0
C848 C 0.11823 0.92898 0.49634 0.0
C849 C 0.14937 0.95744 0.55973 0.0
C850 C 0.15884 0.98718 0.54065 0.0
H851 H 0.12432 0.90661 0.5527 0.0
H852 H 0.16036 0.95632 0.58948 0.0
S853 S 0.13174 1.00008 0.43522 0.0
N854 N 0.11468 0.96109 0.43927 0.0
N855 N 0.15203 1.0146 0.48018 0.0
C856 C 0.14496 0.98736 0.50116 0.0
C857 C 0.125 0.95834 0.47878 0.0
C858 C 0.88898 0.98982 -0.00204 0.0
C859 C 0.87764 0.9893 0.03976 0.0
C860 C 0.87996 0.96152 0.97528 0.0
C861 C 0.85989 0.9316 -0.00611 0.0
H862 H 0.90175 1.01212 -0.01923 0.0
H863 H 0.88724 0.9631 0.942 0.0
S864 S 0.82779 0.91733 0.10479 0.0
N865 N 0.84798 0.95639 0.10033 0.0
N866 N 0.83229 0.90329 0.05852 0.0
C867 C 0.85132 0.93075 0.03723 0.0
C868 C 0.85997 0.95959 0.05999 0.0
C869 C 0.11256 0.94302 -0.00753 0.0
C870 C 0.14034 0.94308 0.00511 0.0
C871 C 0.0829 0.9217 0.01067 0.0
C872 C 0.07997 0.89932 0.04161 0.0
H873 H 0.11333 0.95755 0.96559 0.0
H874 H 0.06182 0.91999 -0.00359 0.0
S875 S 0.1461 0.89257 0.08927 0.0
N876 N 0.16357 0.92168 0.05398 0.0
N877 N 0.108 0.88111 0.08733 0.0
C878 C 0.10811 0.90161 0.05762 0.0
C879 C 0.13826 0.92347 0.03938 0.0
C880 C 0.138 0.17398 0.02281 0.0
C881 C 0.16112 0.1949 0.05211 0.0
C882 C 0.11697 0.18181 0.00263 0.0
C883 C 0.11788 0.21057 0.01159 0.0
H884 H 0.13883 0.15341 0.01126 0.0
H885 H 0.10169 0.16648 0.9773 0.0
S886 S 0.17024 0.27111 0.0907 0.0
N887 N 0.18093 0.24384 0.09262 0.0
N888 N 0.1409 0.25809 0.05559 0.0
C889 C 0.13834 0.22996 0.04422 0.0
C890 C 0.15992 0.2221 0.0645 0.0
C891 C 0.9648 0.83034 0.39576 0.0
C892 C 0.99369 0.85557 0.41142 0.0
C893 C 0.93559 0.82213 0.41537 0.0
C894 C 0.93435 0.83847 0.45198 0.0
H895 H 0.96514 0.81474 0.37113 0.0
H896 H 0.91438 0.80115 0.40427 0.0
S897 S 1.00228 0.90968 0.50078 0.0
N898 N 1.01835 0.89944 0.46166 0.0
N899 N 0.96387 0.884 0.49889 0.0
C900 C 0.96258 0.86566 0.46509 0.0
C901 C 0.99211 0.87431 0.44458 0.0
C902 C 0.19503 0.11364 0.46962 0.0
C903 C 0.22061 0.10961 0.45728 0.0
C904 C 0.18864 0.13537 0.44827 0.0
C905 C 0.20807 0.15434 0.41444 0.0
H906 H 0.18122 0.10152 0.49785 0.0
H907 H 0.17068 0.13985 0.4615 0.0
S908 S 0.27632 0.15081 0.36785 0.0
N909 N 0.26346 0.12407 0.40666 0.0
N910 N 0.25242 0.16571 0.36776 0.0
C911 C 0.23213 0.14861 0.39986 0.0
C912 C 0.23823 0.12611 0.42104 0.0
C913 C 0.94152 0.11626 0.42858 0.0
C914 C 0.95266 0.1157 0.47011 0.0
C915 C 0.91994 0.08788 0.4075 0.0
C916 C 0.90935 0.05796 0.42672 0.0
H917 H 0.94714 0.13869 0.41404 0.0
H918 H 0.90898 0.08947 0.378 0.0
S919 S 0.93614 0.04373 0.53157 0.0
N920 N 0.95497 0.08278 0.52705 0.0
N921 N 0.91504 0.02977 0.48712 0.0
C922 C 0.92326 0.05721 0.46592 0.0
C923 C 0.94464 0.08599 0.48778 0.0
C924 C 0.86195 0.43262 0.29489 0.0
C925 C 0.89043 0.46028 0.28426 0.0
C926 C 0.85457 0.40292 0.27787 0.0
C927 C 0.87548 0.3998 0.24976 0.0
H928 H 0.84669 0.43349 0.31957 0.0
H929 H 0.83425 0.38188 0.29073 0.0
S930 S 0.95119 0.46557 0.20789 0.0
N931 N 0.93793 0.48323 0.24039 0.0
N932 N 0.9242 0.42744 0.20862 0.0
C933 C 0.90241 0.42775 0.23558 0.0
C934 C 0.90994 0.458 0.25293 0.0
C935 C 0.63588 0.47614 0.23029 0.0
C936 C 0.66616 0.48489 0.24669 0.0
C937 C 0.60805 0.45562 0.25316 0.0
C938 C 0.60963 0.44387 0.29384 0.0
H939 H 0.63382 0.48762 0.20161 0.0
H940 H 0.58547 0.45131 0.24076 0.0
S941 S 0.68258 0.45614 0.34837 0.0
N942 N 0.69553 0.47698 0.30355 0.0
N943 N 0.64357 0.43937 0.34715 0.0
C944 C 0.63949 0.45027 0.30883 0.0
C945 C 0.66767 0.47043 0.285 0.0
C946 C 0.5786 0.16608 0.23788 0.0
C947 C 0.57356 0.19031 0.25412 0.0
C948 C 0.60006 0.15855 0.25756 0.0
C949 C 0.61678 0.17453 0.29489 0.0
H950 H 0.56347 0.15071 0.21247 0.0
H951 H 0.60141 0.13832 0.24574 0.0
S952 S 0.61609 0.24323 0.34587 0.0
N953 N 0.59032 0.23286 0.30607 0.0
N954 N 0.63029 0.21878 0.34338 0.0
C955 C 0.61424 0.20077 0.30882 0.0
C956 C 0.59284 0.20872 0.28826 0.0
C957 C 0.77409 0.51749 0.81577 0.0
C958 C 0.803 0.54179 0.83247 0.0
C959 C 0.74492 0.50987 0.83476 0.0
C960 C 0.74355 0.52674 0.87069 0.0
H961 H 0.77389 0.50596 0.78582 0.0
H962 H 0.7233 0.49344 0.8181 0.0
S963 S 0.81267 0.58956 0.92984 0.0
N964 N 0.82864 0.57985 0.89 0.0
N965 N 0.7739 0.5664 0.92493 0.0
C966 C 0.77245 0.54893 0.89 0.0
C967 C 0.80217 0.55633 0.87101 0.0
C968 C 0.55107 0.25181 0.841 0.0
C969 C 0.53358 0.23142 0.87487 0.0
C970 C 0.54149 0.27169 0.82154 0.0
C971 C 0.51434 0.27237 0.83567 0.0
H972 H 0.57012 0.24978 0.82624 0.0
H973 H 0.55441 0.28532 0.79358 0.0
S974 S 0.46274 0.22653 0.92682 0.0
N975 N 0.48942 0.21514 0.92404 0.0
N976 N 0.47228 0.25355 0.88881 0.0
C977 C 0.49858 0.25458 0.87229 0.0
C978 C 0.50804 0.23391 0.8916 0.0
C979 C 0.80746 0.25725 0.87944 0.0
C980 C 0.78843 0.25518 0.8443 0.0
C981 C 0.82807 0.28675 0.89871 0.0
C982 C 0.83023 0.3151 0.88361 0.0
H983 H 0.80861 0.23655 0.88948 0.0
H984 H 0.84499 0.28785 0.92224 0.0
S985 S 0.78173 0.32131 0.79668 0.0
N986 N 0.77016 0.28312 0.79855 0.0
N987 N 0.80863 0.33832 0.83494 0.0
C988 C 0.80873 0.31262 0.85172 0.0
C989 C 0.78804 0.28272 0.8318 0.0
C990 C 0.5435 0.2878 0.32466 0.0
C991 C 0.51787 0.25925 0.34013 0.0
C992 C 0.55248 0.31714 0.34455 0.0
C993 C 0.53575 0.31918 0.38019 0.0
H994 H 0.55537 0.28771 0.29521 0.0
H995 H 0.5702 0.33865 0.32888 0.0
S996 S 0.46879 0.25108 0.43544 0.0
N997 N 0.47803 0.23453 0.39579 0.0
N998 N 0.49397 0.28962 0.43211 0.0
C999 C 0.51178 0.29048 0.39794 0.0
C1000 C 0.50299 0.26055 0.37812 0.0
C1001 C 0.7502 0.2516 0.34677 0.0
C1002 C 0.74665 0.23023 0.37969 0.0
C1003 C 0.77977 0.27137 0.32749 0.0
C1004 C 0.80718 0.27102 0.34078 0.0
H1005 H 0.72939 0.25054 0.33255 0.0
H1006 H 0.78084 0.28581 0.30033 0.0
S1007 S 0.81148 0.22221 0.42909 0.0
N1008 N 0.77362 0.21182 0.42704 0.0
N1009 N 0.82947 0.24994 0.39205 0.0
C1010 C 0.80462 0.2521 0.37644 0.0
C1011 C 0.7743 0.23154 0.39565 0.0
C1012 C 0.79877 0.54855 0.36383 0.0
C1013 C 0.78778 0.53674 0.32229 0.0
C1014 C 0.81927 0.5408 0.38578 0.0
C1015 C 0.82887 0.52042 0.36742 0.0
H1016 H 0.79394 0.56611 0.37772 0.0
H1017 H 0.83023 0.55337 0.41532 0.0
S1018 S 0.80172 0.47873 0.26294 0.0
N1019 N 0.78438 0.50038 0.26622 0.0
N1020 N 0.82219 0.48538 0.30789 0.0
C1021 C 0.81497 0.50568 0.32822 0.0
C1022 C 0.79473 0.51407 0.30544 0.0
C1023 C 0.64047 0.1743 0.73783 0.0
C1024 C 0.66993 0.19469 0.75749 0.0
C1025 C 0.61164 0.16662 0.75811 0.0
C1026 C 0.61131 0.17846 0.79927 0.0
H1027 H 0.63968 0.16165 0.70871 0.0
H1028 H 0.58963 0.14914 0.74324 0.0
S1029 S 0.68168 0.23661 0.86127 0.0
N1030 N 0.69666 0.22981 0.81757 0.0
N1031 N 0.64279 0.21497 0.85615 0.0
C1032 C 0.64048 0.20114 0.8173 0.0
C1033 C 0.6697 0.20948 0.79617 0.0
C1034 C 0.88407 0.47219 0.73545 0.0
C1035 C 0.86456 0.4827 0.75413 0.0
C1036 C 0.89181 0.45181 0.75772 0.0
C1037 C 0.88098 0.44195 0.79995 0.0
H1038 H 0.89598 0.48233 0.70524 0.0
H1039 H 0.90858 0.4461 0.74331 0.0
S1040 S 0.82532 0.45859 0.86049 0.0
N1041 N 0.83124 0.47808 0.81479 0.0
N1042 N 0.84632 0.44058 0.85714 0.0
C1043 C 0.85918 0.44989 0.8173 0.0
C1044 C 0.85071 0.46993 0.79417 0.0
C1045 C 0.61764 0.43379 0.79723 0.0
C1046 C 0.61754 0.46152 0.78487 0.0
C1047 C 0.59632 0.40414 0.77908 0.0
C1048 C 0.57375 0.40098 0.74827 0.0
H1049 H 0.6327 0.43465 0.82345 0.0
H1050 H 0.59507 0.3831 0.79287 0.0
S1051 S 0.56575 0.46682 0.70219 0.0
N1052 N 0.59519 0.48449 0.73699 0.0
N1053 N 0.5545 0.42869 0.7038 0.0
C1054 C 0.57533 0.42896 0.73303 0.0
C1055 C 0.59728 0.45925 0.75124 0.0
C1056 C 0.55929 0.78798 0.58888 0.0
C1057 C 0.5487 0.78835 0.63084 0.0
C1058 C 0.55041 0.75905 0.56786 0.0
C1059 C 0.53017 0.72962 0.58772 0.0
H1060 H 0.57674 0.80993 0.57387 0.0
H1061 H 0.56224 0.75967 0.53803 0.0
S1062 S 0.49083 0.71827 0.69342 0.0
N1063 N 0.51313 0.75716 0.6886 0.0
N1064 N 0.49609 0.7031 0.64871 0.0
C1065 C 0.51636 0.73003 0.62718 0.0
C1066 C 0.52591 0.75932 0.649 0.0
C1067 C 0.27298 0.79027 0.58341 0.0
C1068 C 0.2723 0.77535 0.62238 0.0
C1069 C 0.30204 0.81169 0.56383 0.0
C1070 C 0.33125 0.8185 0.58222 0.0
H1071 H 0.25128 0.7878 0.57029 0.0
H1072 H 0.30174 0.82576 0.53702 0.0
S1073 S 0.34158 0.78058 0.67926 0.0
N1074 N 0.30282 0.7651 0.67509 0.0
N1075 N 0.35712 0.8048 0.63784 0.0
C1076 C 0.33044 0.80056 0.618 0.0
C1077 C 0.30103 0.7793 0.63841 0.0
C1078 C 0.25012 0.50525 0.56926 0.0
C1079 C 0.24142 0.52623 0.58791 0.0
C1080 C 0.27125 0.49779 0.59006 0.0
C1081 C 0.28375 0.51049 0.63077 0.0
H1082 H 0.23802 0.49204 0.54059 0.0
H1083 H 0.27541 0.47979 0.57611 0.0
S1084 S 0.27229 0.57008 0.69025 0.0
N1085 N 0.25037 0.56263 0.64658 0.0
N1086 N 0.2893 0.54816 0.6862 0.0
C1087 C 0.27758 0.53367 0.64774 0.0
C1088 C 0.25674 0.54178 0.62607 0.0
C1089 C 0.40891 0.84279 0.16646 0.0
C1090 C 0.40809 0.85606 0.20636 0.0
C1091 C 0.43782 0.85151 0.14577 0.0
C1092 C 0.46705 0.87325 0.16465 0.0
H1093 H 0.3871 0.82846 0.14881 0.0
H1094 H 0.43723 0.84259 0.11363 0.0
S1095 S 0.47801 0.91171 0.27109 0.0
N1096 N 0.43915 0.89004 0.26543 0.0
N1097 N 0.49342 0.90519 0.22757 0.0
C1098 C 0.46666 0.88418 0.20637 0.0
C1099 C 0.4372 0.87581 0.22701 0.0
C1100 C 0.21277 0.60614 0.15266 0.0
C1101 C 0.18806 0.60955 0.17052 0.0
C1102 C 0.22221 0.5858 0.17118 0.0
C1103 C 0.20681 0.56758 0.20777 0.0
H1104 H 0.22319 0.61737 0.12222 0.0
H1105 H 0.23875 0.58128 0.15358 0.0
S1106 S 0.14363 0.57102 0.26994 0.0
N1107 N 0.15121 0.5961 0.22982 0.0
N1108 N 0.16815 0.55715 0.26387 0.0
C1109 C 0.18438 0.57335 0.2283 0.0
C1110 C 0.17504 0.59437 0.20974 0.0
C1111 C 0.47813 0.64585 0.17124 0.0
C1112 C 0.49857 0.6482 0.20469 0.0
C1113 C 0.45661 0.6163 0.15299 0.0
C1114 C 0.45434 0.58784 0.16785 0.0
H1115 H 0.48119 0.66719 0.15588 0.0
H1116 H 0.44305 0.61593 0.12516 0.0
S1117 S 0.49964 0.5808 0.25862 0.0
N1118 N 0.51306 0.61931 0.25465 0.0
N1119 N 0.47192 0.56375 0.22136 0.0
C1120 C 0.4723 0.58956 0.20412 0.0
C1121 C 0.49456 0.61974 0.22228 0.0
C1122 C 0.2198 0.64709 0.67543 0.0
C1123 C 0.20215 0.64986 0.70927 0.0
C1124 C 0.21096 0.61739 0.65691 0.0
C1125 C 0.18453 0.58935 0.67205 0.0
H1126 H 0.238 0.66826 0.65965 0.0
H1127 H 0.2233 0.61666 0.6283 0.0
S1128 S 0.13344 0.58318 0.76388 0.0
N1129 N 0.15923 0.62154 0.76012 0.0
N1130 N 0.14323 0.56579 0.72601 0.0
C1131 C 0.16892 0.59136 0.70876 0.0
C1132 C 0.17771 0.62161 0.72734 0.0
C1133 C 0.44124 0.6062 0.66154 0.0
C1134 C 0.46966 0.60656 0.67114 0.0
C1135 C 0.41251 0.58476 0.68202 0.0
C1136 C 0.41119 0.56262 0.71226 0.0
H1137 H 0.44079 0.62101 0.63587 0.0
H1138 H 0.39076 0.5831 0.67049 0.0
S1139 S 0.4796 0.55577 0.75063 0.0
N1140 N 0.49525 0.58508 0.71541 0.0
N1141 N 0.44147 0.54416 0.75258 0.0
C1142 C 0.44004 0.5647 0.72439 0.0
C1143 C 0.46921 0.58671 0.704 0.0
C1144 C 0.48959 0.88251 0.728 0.0
C1145 C 0.49515 0.85899 0.71041 0.0
C1146 C 0.46863 0.8907 0.70829 0.0
C1147 C 0.45293 0.876 0.66986 0.0
H1148 H 0.50408 0.89701 0.75446 0.0
H1149 H 0.46694 0.91052 0.72101 0.0
S1150 S 0.45577 0.81014 0.6141 0.0
N1151 N 0.48013 0.81867 0.65531 0.0
N1152 N 0.44131 0.83433 0.61789 0.0
C1153 C 0.45602 0.85057 0.65424 0.0
C1154 C 0.47684 0.84187 0.67476 0.0
C1155 C 0.29485 0.53256 0.12182 0.0
C1156 C 0.26733 0.5031 0.11467 0.0
C1157 C 0.32381 0.54018 0.10208 0.0
C1158 C 0.32641 0.51846 0.07482 0.0
H1159 H 0.2946 0.54876 0.14555 0.0
H1160 H 0.34503 0.5615 0.11238 0.0
S1161 S 0.26044 0.43953 0.04228 0.0
N1162 N 0.24368 0.4535 0.07519 0.0
N1163 N 0.29806 0.46752 0.03864 0.0
C1164 C 0.2983 0.49027 0.06428 0.0
C1165 C 0.26881 0.48254 0.0843 0.0
C1166 C 0.52828 0.77832 0.13155 0.0
C1167 C 0.5544 0.77574 0.11771 0.0
C1168 C 0.52069 0.79974 0.11203 0.0
C1169 C 0.53942 0.81991 0.07862 0.0
H1170 H 0.51504 0.76538 0.15974 0.0
H1171 H 0.50257 0.8033 0.12679 0.0
S1172 S 0.60819 0.81997 0.02763 0.0
N1173 N 0.59674 0.79254 0.06544 0.0
N1174 N 0.58325 0.83357 0.02983 0.0
C1175 C 0.56371 0.81534 0.06195 0.0
C1176 C 0.57113 0.79318 0.08137 0.0
C1177 C 0.27957 0.75996 0.14534 0.0
C1178 C 0.286 0.78898 0.12678 0.0
C1179 C 0.25955 0.7308 0.12498 0.0
C1180 C 0.24457 0.72953 0.08576 0.0
H1181 H 0.28835 0.75968 0.17727 0.0
H1182 H 0.25268 0.70913 0.14266 0.0
S1183 S 0.25672 0.79875 0.0213 0.0
N1184 N 0.27903 0.81473 0.06438 0.0
N1185 N 0.24037 0.75994 0.02698 0.0
C1186 C 0.25329 0.75847 0.06501 0.0
C1187 C 0.27415 0.78822 0.08538 0.0
C1188 C 0.33609 0.17795 0.16659 0.0
C1189 C 0.34162 0.18907 0.12392 0.0
C1190 C 0.36072 0.17948 0.19237 0.0
C1191 C 0.39221 0.19248 0.17699 0.0
H1192 H 0.31293 0.16932 0.18087 0.0
H1193 H 0.35499 0.17051 0.22497 0.0
S1194 S 0.41867 0.22268 0.06623 0.0
N1195 N 0.38077 0.2121 0.06675 0.0
N1196 N 0.42657 0.21482 0.11485 0.0
C1197 C 0.3978 0.20301 0.13404 0.0
C1198 C 0.37273 0.20128 0.10774 0.0
C1199 C 0.88748 0.17685 0.15998 0.0
C1200 C 0.87339 0.16913 0.11894 0.0
C1201 C 0.88664 0.20029 0.18573 0.0
C1202 C 0.8713 0.21693 0.17213 0.0
H1203 H 0.89913 0.16458 0.17253 0.0
H1204 H 0.89893 0.20613 0.21634 0.0
S1205 S 0.8318 0.20707 0.06691 0.0
N1206 N 0.84413 0.18108 0.0656 0.0
N1207 N 0.84263 0.22466 0.1143 0.0
C1208 C 0.85688 0.20934 0.1315 0.0
C1209 C 0.85797 0.18571 0.10493 0.0
C1210 C 0.86755 0.69482 0.17765 0.0
C1211 C 0.84935 0.66353 0.1612 0.0
C1212 C 0.88997 0.72029 0.15236 0.0
C1213 C 0.89544 0.71591 0.10916 0.0
H1214 H 0.86453 0.69984 0.21073 0.0
H1215 H 0.90396 0.74332 0.16737 0.0
S1216 S 0.85336 0.63951 0.04905 0.0
N1217 N 0.83792 0.63035 0.09782 0.0
N1218 N 0.87974 0.67776 0.05043 0.0
C1219 C 0.87702 0.68491 0.09195 0.0
C1220 C 0.85425 0.65894 0.1178 0.0
C1221 C 0.21306 0.38793 0.32592 0.0
C1222 C 0.20544 0.38396 0.28187 0.0
C1223 C 0.21003 0.36255 0.35141 0.0
C1224 C 0.19923 0.3318 0.33428 0.0
H1225 H 0.22026 0.4105 0.34133 0.0
H1226 H 0.2163 0.36719 0.38514 0.0
S1227 S 0.17848 0.30944 0.21965 0.0
N1228 N 0.18784 0.34704 0.22167 0.0
N1229 N 0.18273 0.29985 0.26918 0.0
C1230 C 0.19214 0.32771 0.29 0.0
C1231 C 0.19515 0.35357 0.26403 0.0
C1232 C 0.70671 0.853 0.27281 0.0
C1233 C 0.6747 0.83467 0.28615 0.0
C1234 C 0.73058 0.87557 0.29996 0.0
C1235 C 0.72381 0.88113 0.34203 0.0
H1236 H 0.71359 0.84969 0.24093 0.0
H1237 H 0.75442 0.88934 0.28737 0.0
S1238 S 0.64444 0.83879 0.39421 0.0
N1239 N 0.63811 0.82323 0.34547 0.0
N1240 N 0.68252 0.86561 0.39616 0.0
C1241 C 0.69196 0.86292 0.35598 0.0
C1242 C 0.66762 0.83988 0.32826 0.0
C1243 C 0.20694 0.86674 0.27207 0.0
C1244 C 0.22657 0.85566 0.28918 0.0
C1245 C 0.18422 0.86928 0.29736 0.0
C1246 C 0.18006 0.86107 0.34124 0.0
H1247 H 0.20916 0.87363 0.23855 0.0
H1248 H 0.16911 0.87675 0.28197 0.0
S1249 S 0.22682 0.83317 0.40318 0.0
N1250 N 0.24113 0.83807 0.35384 0.0
N1251 N 0.19877 0.84269 0.40121 0.0
C1252 C 0.19994 0.85054 0.35901 0.0
C1253 C 0.22295 0.8478 0.33316 0.0
C1254 C 0.7338 0.8725 0.79463 0.0
C1255 C 0.73084 0.86564 0.83896 0.0
C1256 C 0.70799 0.8695 0.77013 0.0
C1257 C 0.67774 0.85918 0.78847 0.0
H1258 H 0.75598 0.87943 0.77837 0.0
H1259 H 0.71188 0.87553 0.73627 0.0
S1260 S 0.65769 0.83998 0.90384 0.0
N1261 N 0.69514 0.84918 0.90053 0.0
N1262 N 0.64718 0.84355 0.85459 0.0
C1263 C 0.67454 0.85247 0.8328 0.0
C1264 C 0.70084 0.85577 0.85787 0.0
C1265 C 0.21304 0.83803 0.82624 0.0
C1266 C 0.20502 0.83443 0.78231 0.0
C1267 C 0.20988 0.86006 0.85233 0.0
C1268 C 0.1984 0.87959 0.83598 0.0
H1269 H 0.22073 0.82291 0.84108 0.0
H1270 H 0.21654 0.86178 0.8859 0.0
S1271 S 0.17643 0.88132 0.72209 0.0
N1272 N 0.1865 0.85361 0.72307 0.0
N1273 N 0.18083 0.89481 0.77187 0.0
C1274 C 0.19087 0.87664 0.79189 0.0
C1275 C 0.19418 0.85427 0.76525 0.0
C1276 C 0.19929 0.36379 0.86088 0.0
C1277 C 0.17912 0.33291 0.84436 0.0
C1278 C 0.22122 0.389 0.83459 0.0
C1279 C 0.22385 0.38475 0.79024 0.0
H1280 H 0.19812 0.3686 0.89467 0.0
H1281 H 0.23683 0.41172 0.84947 0.0
S1282 S 0.17478 0.30957 0.72972 0.0
N1283 N 0.16236 0.3004 0.77987 0.0
N1284 N 0.20282 0.34726 0.73064 0.0
C1285 C 0.20326 0.35417 0.77313 0.0
C1286 C 0.18124 0.32848 0.79999 0.0
C1287 C 0.8856 0.7225 0.66202 0.0
C1288 C 0.87682 0.71883 0.61845 0.0
C1289 C 0.88259 0.69674 0.68651 0.0
C1290 C 0.87024 0.66592 0.6688 0.0
H1291 H 0.89306 0.74493 0.67803 0.0
H1292 H 0.88957 0.70097 0.72004 0.0
S1293 S 0.84563 0.64435 0.55508 0.0
N1294 N 0.8564 0.68231 0.55805 0.0
N1295 N 0.85115 0.63424 0.60367 0.0
C1296 C 0.86224 0.66223 0.62488 0.0
C1297 C 0.86549 0.68852 0.59993 0.0
C1298 C 0.37439 0.18456 0.60245 0.0
C1299 C 0.3434 0.16739 0.62002 0.0
C1300 C 0.4002 0.2084 0.62584 0.0
C1301 C 0.39642 0.21602 0.6682 0.0
H1302 H 0.37878 0.17984 0.56985 0.0
H1303 H 0.42284 0.22204 0.60984 0.0
S1304 S 0.32141 0.1774 0.73085 0.0
N1305 N 0.3114 0.15912 0.68383 0.0
N1306 N 0.35952 0.2039 0.72736 0.0
C1307 C 0.36588 0.19858 0.6866 0.0
C1308 C 0.33957 0.17441 0.66276 0.0
C1309 C 0.87733 0.19594 0.61576 0.0
C1310 C 0.89547 0.18275 0.63177 0.0
C1311 C 0.8554 0.19932 0.64153 0.0
C1312 C 0.85027 0.18962 0.68478 0.0
H1313 H 0.88015 0.20399 0.58272 0.0
H1314 H 0.84162 0.20868 0.62691 0.0
S1315 S 0.89167 0.15423 0.74349 0.0
N1316 N 0.90681 0.16049 0.69454 0.0
N1317 N 0.86569 0.16653 0.74283 0.0
C1318 C 0.86831 0.17653 0.70143 0.0
C1319 C 0.89069 0.17309 0.67509 0.0
C1320 C 0.04151 0.53621 0.4399 0.0
C1321 C 1.00943 0.52116 0.45328 0.0
C1322 C 0.06582 0.53831 0.4668 0.0
C1323 C 0.05937 0.52559 0.50864 0.0
H1324 H 0.04807 0.54661 0.4081 0.0
H1325 H 0.08969 0.54916 0.45413 0.0
S1326 S 0.97983 0.48495 0.56061 0.0
N1327 N 0.97304 0.49407 0.51215 0.0
N1328 N 1.01826 0.49818 0.56268 0.0
C1329 C 1.02746 0.51091 0.52273 0.0
C1330 C 1.0027 0.50857 0.49518 0.0
C1331 C 0.55168 0.53439 0.52237 0.0
C1332 C 0.54059 0.55397 0.50512 0.0
C1333 C 0.55513 0.51226 0.49678 0.0
C1334 C 0.54819 0.50898 0.45244 0.0
H1335 H 0.55781 0.53622 0.55616 0.0
H1336 H 0.56242 0.497 0.51219 0.0
S1337 S 0.52185 0.55694 0.3901 0.0
N1338 N 0.52485 0.56986 0.43998 0.0
N1339 N 0.53165 0.52906 0.39196 0.0
C1340 C 0.53801 0.52913 0.43458 0.0
C1341 C 0.53408 0.55128 0.46076 0.0
C1342 C 0.5522 0.06265 0.50787 0.0
C1343 C 0.55788 0.05939 0.46434 0.0
C1344 C 0.52858 0.03681 0.53149 0.0
C1345 C 0.51002 1.00628 0.51299 0.0
H1346 H 0.56722 0.0848 0.52446 0.0
H1347 H 0.52518 0.04069 0.56493 0.0
S1348 S 0.51445 0.98582 0.39913 0.0
N1349 N 0.54208 1.02356 0.40316 0.0
N1350 N 0.49803 0.97535 0.44725 0.0
C1351 C 0.51502 1.00302 0.46918 0.0
C1352 C 0.53873 0.02939 0.44506 0.0
C1353 C 0.52844 0.99892 0.9684 0.0
C1354 C 0.53734 1.00321 0.01203 0.0
C1355 C 0.53027 1.02399 0.94344 0.0
C1356 C 0.54124 0.05474 0.96062 0.0
H1357 H 0.52077 0.97625 0.953 0.0
H1358 H 0.52262 1.01907 0.91019 0.0
S1359 S 0.56594 0.07828 0.07382 0.0
N1360 N 0.55673 0.04073 0.07174 0.0
N1361 N 0.55997 0.08734 0.02485 0.0
C1362 C 0.55012 0.05933 0.0042 0.0
C1363 C 0.54813 0.03377 0.02978 0.0
C1364 C 0.03989 0.52032 0.942 0.0
C1365 C 1.00862 0.50179 0.95806 0.0
C1366 C 0.06509 0.54265 0.96776 0.0
C1367 C 0.06042 0.54768 0.01107 0.0
H1368 H 0.04513 0.5175 0.90895 0.0
H1369 H 0.08819 0.55679 0.95313 0.0
S1370 S 0.98385 0.50467 0.0702 0.0
N1371 N 0.97508 0.48964 0.02115 0.0
N1372 N 1.02197 0.53135 0.06935 0.0
C1373 C 1.02938 0.52907 0.02781 0.0
C1374 C 1.0037 0.50638 0.00149 0.0
C1375 C 0.53139 0.51515 0.01486 0.0
C1376 C 0.51344 0.52902 0.00087 0.0
C1377 C 0.555 0.51481 -0.01107 0.0
C1378 C 0.56164 0.52799 0.94732 0.0
H1379 H 0.52644 0.50353 0.04594 0.0
H1380 H 0.56827 0.50431 0.0018 0.0
S1381 S 0.52028 0.56575 0.89416 0.0
N1382 N 0.50347 0.55541 0.94206 0.0
N1383 N 0.54735 0.55486 0.8931 0.0
C1384 C 0.54381 0.542 0.93294 0.0
C1385 C 0.51999 0.54256 0.95966 0.0
C1386 C 0.37587 0.26404 0.93174 0.0
C1387 C 0.34299 0.24817 0.92528 0.0
C1388 C 0.39647 0.27475 0.89692 0.0
C1389 C 0.38489 0.27001 0.85453 0.0
H1390 H 0.38594 0.27009 0.96378 0.0
H1391 H 0.42167 0.28838 0.90348 0.0
S1392 S 0.30096 0.22196 0.8205 0.0
N1393 N 0.29974 0.22212 0.87357 0.0
N1394 N 0.33883 0.24301 0.80771 0.0
C1395 C 0.35222 0.25082 0.84748 0.0
C1396 C 0.33112 0.23973 0.88307 0.0
C1397 C 0.77219 0.09924 0.94118 0.0
C1398 C 0.79587 0.09126 0.9347 0.0
C1399 C 0.76113 0.10966 0.90709 0.0
C1400 C 0.77323 0.11231 0.86529 0.0
H1401 H 0.76181 0.09716 0.97269 0.0
H1402 H 0.74265 0.1153 0.91348 0.0
S1403 S 0.83715 0.09678 0.83158 0.0
N1404 N 0.83236 0.08845 0.88343 0.0
N1405 N 0.81117 0.10781 0.81938 0.0
C1406 C 0.79719 0.10489 0.85831 0.0
C1407 C 0.80864 0.09445 0.89303 0.0
C1408 C 0.95076 0.66067 0.89686 0.0
C1409 C 0.94399 0.66871 0.8564 0.0
C1410 C 0.96162 0.68251 0.93063 0.0
C1411 C 0.96588 0.71304 0.92509 0.0
H1412 H 0.94835 0.63757 0.90221 0.0
H1413 H 0.96733 0.67557 0.96093 0.0
S1414 S 0.9474 0.74399 0.8265 0.0
N1415 N 0.93968 0.70797 0.81332 0.0
N1416 N 0.95968 0.74916 0.8769 0.0
C1417 C 0.95794 0.72089 0.88509 0.0
C1418 C 0.94714 0.69869 0.85067 0.0
C1419 C 0.27366 0.32664 0.56999 0.0
C1420 C 0.2679 0.33582 0.52971 0.0
C1421 C 0.28361 0.34749 0.60473 0.0
C1422 C 0.288 0.37813 0.60029 0.0
H1423 H 0.27163 0.30362 0.57436 0.0
H1424 H 0.28897 0.33987 0.63474 0.0
S1425 S 0.27084 0.41139 0.5031 0.0
N1426 N 0.26372 0.37586 0.48824 0.0
N1427 N 0.28213 0.41527 0.55388 0.0
C1428 C 0.28044 0.38689 0.56077 0.0
C1429 C 0.27051 0.36567 0.52532 0.0
C1430 C 0.67188 0.91939 0.55774 0.0
C1431 C 0.68024 0.93429 0.59836 0.0
C1432 C 0.69286 0.93117 0.52304 0.0
C1433 C 0.72291 0.95801 0.52804 0.0
H1434 H 0.64907 0.89827 0.55267 0.0
H1435 H 0.68589 0.91872 0.49253 0.0
S1436 S 0.75533 1.00773 0.62581 0.0
N1437 N 0.72 0.97885 0.64032 0.0
N1438 N 0.75947 1.00066 0.57499 0.0
C1439 C 0.73135 0.97366 0.56791 0.0
C1440 C 0.71002 0.96185 0.60317 0.0
C1441 C 0.11891 0.76564 0.5211 0.0
C1442 C 0.1099 0.7885 0.52859 0.0
C1443 C 0.12933 0.75422 0.55464 0.0
C1444 C 0.13097 0.76508 0.59697 0.0
H1445 H 0.11751 0.75604 0.48919 0.0
H1446 H 0.13551 0.73622 0.54741 0.0
S1447 S 0.1129 0.82675 0.63358 0.0
N1448 N 0.10529 0.82314 0.58149 0.0
N1449 N 0.12479 0.80122 0.6446 0.0
C1450 C 0.12284 0.78844 0.605 0.0
C1451 C 0.11239 0.80032 0.57077 0.0
C1452 C 0.71667 0.77951 0.10103 0.0
C1453 C 0.68471 0.77037 0.09429 0.0
C1454 C 0.7383 0.79054 0.06703 0.0
C1455 C 0.72867 0.79263 0.02511 0.0
H1456 H 0.72496 0.77738 0.13251 0.0
H1457 H 0.76251 0.79652 0.07344 0.0
S1458 S 0.64879 0.77549 -0.00893 0.0
N1459 N 0.64523 0.767 0.04287 0.0
N1460 N 0.68608 0.78755 0.97915 0.0
C1461 C 0.69721 0.78491 0.01815 0.0
C1462 C 0.67519 0.77386 0.05271 0.0
C1463 C 0.2791 0.96357 0.06685 0.0
C1464 C 0.27604 0.95063 0.02542 0.0
C1465 C 0.28878 0.95245 0.10169 0.0
C1466 C 0.29573 0.92793 0.09644 0.0
H1467 H 0.27463 0.98295 0.0724 0.0
H1468 H 0.29153 0.96374 0.1327 0.0
S1469 S 0.28827 0.88382 -0.00476 0.0
N1470 N 0.27851 0.91052 -0.01843 0.0
N1471 N 0.29663 0.88938 0.04706 0.0
C1472 C 0.2917 0.91399 0.0554 0.0
C1473 C 0.28193 0.92543 0.01989 0.0
C1474 C 0.14109 0.38621 0.06378 0.0
C1475 C 0.12539 0.37832 0.10381 0.0
C1476 C 0.13025 0.36482 0.02967 0.0
C1477 C 0.10355 0.33467 0.03448 0.0
H1478 H 0.16194 0.40919 0.05847 0.0
H1479 H 0.14303 0.3719 -0.00056 0.0
S1480 S 0.05364 0.30224 0.13217 0.0
N1481 N 0.08157 0.33823 0.14615 0.0
N1482 N 0.06126 0.29768 0.08175 0.0
C1483 C 0.08775 0.32615 0.07434 0.0
C1484 C 0.09869 0.34807 0.10913 0.0
C1485 C 0.78644 0.67483 0.43458 0.0
C1486 C 0.80667 0.70751 0.4291 0.0
C1487 C 0.77589 0.65458 0.39907 0.0
C1488 C 0.78535 0.6664 0.35701 0.0
H1489 H 0.77729 0.66508 0.46614 0.0
H1490 H 0.75914 0.62971 0.40465 0.0
S1491 S 0.84335 0.74957 0.32726 0.0
N1492 N 0.83942 0.75041 0.37992 0.0
N1493 N 0.81981 0.71229 0.31284 0.0
C1494 C 0.80758 0.69877 0.35163 0.0
C1495 C 0.81821 0.71936 0.38782 0.0
C1496 C 0.33599 0.08128 0.39492 0.0
C1497 C 0.34492 0.09403 0.43649 0.0
C1498 C 0.35743 0.09314 0.36089 0.0
C1499 C 0.3885 0.11827 0.36726 0.0
H1500 H 0.31239 0.06162 0.38871 0.0
H1501 H 0.34967 0.08208 0.32961 0.0
S1502 S 0.42233 0.16188 0.46966 0.0
N1503 N 0.38589 0.13424 0.48203 0.0
N1504 N 0.42646 0.15699 0.41798 0.0
C1505 C 0.39743 0.13186 0.40862 0.0
C1506 C 0.37557 0.11958 0.4433 0.0
C1507 C 0.96655 0.24949 0.3936 0.0
C1508 C 0.957 0.25092 0.43593 0.0
C1509 C 0.95717 0.26112 0.35907 0.0
C1510 C 0.93801 0.27463 0.36576 0.0
H1511 H 0.98252 0.24058 0.38712 0.0
H1512 H 0.96627 0.26091 0.32732 0.0
S1513 S 0.90164 0.27851 0.46886 0.0
N1514 N 0.92375 0.26288 0.48169 0.0
N1515 N 0.90618 0.28495 0.41651 0.0
C1516 C 0.92644 0.2742 0.40736 0.0
C1517 C 0.93593 0.26229 0.44255 0.0
C1518 C 0.06757 0.62116 0.23537 0.0
C1519 C 0.05787 0.6231 0.1933 0.0
C1520 C 0.04608 0.61013 0.26947 0.0
C1521 C 1.01406 0.60047 0.26283 0.0
H1522 H 0.09198 0.62818 0.24222 0.0
H1523 H 0.05466 0.60898 0.30123 0.0
S1524 S 0.97649 0.60141 0.15909 0.0
N1525 N 1.01399 0.6147 0.14705 0.0
N1526 N 0.97358 0.59403 0.21118 0.0
C1527 C 1.00393 0.60223 0.22094 0.0
C1528 C 1.02585 0.61352 0.18621 0.0
C1529 C 0.44681 0.44247 0.27092 0.0
C1530 C 0.47476 0.44116 0.26743 0.0
C1531 C 0.43505 0.45098 0.23587 0.0
C1532 C 0.45089 0.45854 0.19599 0.0
H1533 H 0.43305 0.43558 0.30042 0.0
H1534 H 0.41282 0.45057 0.23992 0.0
S1535 S 0.52816 0.46404 0.1727 0.0
N1536 N 0.52028 0.45188 0.2231 0.0
N1537 N 0.49808 0.46801 0.15659 0.0
C1538 C 0.48003 0.45937 0.19286 0.0
C1539 C 0.49203 0.45063 0.22873 0.0
C1540 C 0.60246 1.00922 0.28205 0.0
C1541 C 0.61193 0.04124 0.2757 0.0
C1542 C 0.59549 0.98892 0.2469 0.0
C1543 C 0.59782 1.00012 0.20449 0.0
H1544 H 0.6026 1.00035 0.31397 0.0
H1545 H 0.58977 0.96472 0.253 0.0
S1546 S 0.6149 0.08049 0.17225 0.0
N1547 N 0.61848 0.08218 0.22515 0.0
N1548 N 0.60527 0.04393 0.15878 0.0
C1549 C 0.60457 0.03143 0.19815 0.0
C1550 C 0.61157 0.05202 0.23392 0.0
C1551 C 0.42666 0.99443 0.74234 0.0
C1552 C 0.44043 1.0019 0.70126 0.0
C1553 C 0.44029 1.01568 0.77646 0.0
C1554 C 0.46833 0.04489 0.77059 0.0
H1555 H 0.40476 0.97237 0.74787 0.0
H1556 H 0.42823 1.00947 0.80723 0.0
S1557 S 0.51587 0.07299 0.66997 0.0
N1558 N 0.48477 0.0386 0.65698 0.0
N1559 N 0.51113 0.07856 0.72122 0.0
C1560 C 0.48318 0.05179 0.72992 0.0
C1561 C 0.46898 0.0303 0.69514 0.0
C1562 C 0.06516 0.44979 0.73553 0.0
C1563 C 0.05546 0.45082 0.69326 0.0
C1564 C 0.04414 0.44137 0.76993 0.0
C1565 C 1.01258 0.43375 0.76345 0.0
H1566 H 0.08912 0.45503 0.74215 0.0
H1567 H 0.05268 0.44029 0.80171 0.0
S1568 S 0.9763 0.43583 0.65911 0.0
N1569 N 1.01298 0.44552 0.64681 0.0
N1570 N 0.97316 0.42978 0.71157 0.0
C1571 C 1.00278 0.43561 0.72135 0.0
C1572 C 1.02427 0.44404 0.68622 0.0
C1573 C 0.62179 0.60507 0.68574 0.0
C1574 C 0.61478 0.62933 0.69245 0.0
C1575 C 0.63191 0.59371 0.7198 0.0
C1576 C 0.6357 0.60652 0.76155 0.0
H1577 H 0.61866 0.59427 0.65428 0.0
H1578 H 0.63655 0.57456 0.71324 0.0
S1579 S 0.62322 0.67288 0.7941 0.0
N1580 N 0.61404 0.66736 0.74251 0.0
N1581 N 0.63341 0.6463 0.80674 0.0
C1582 C 0.62955 0.6315 0.76822 0.0
C1583 C 0.61904 0.64287 0.73356 0.0
C1584 C 0.26149 0.28448 0.23352 0.0
C1585 C 0.25775 0.26506 0.26897 0.0
C1586 C 0.27142 0.27886 0.19392 0.0
C1587 C 0.27786 0.25399 0.18965 0.0
H1588 H 0.25482 0.30258 0.23569 0.0
H1589 H 0.27199 0.29243 0.16605 0.0
S1590 S 0.27865 0.20177 0.27504 0.0
N1591 N 0.26616 0.22375 0.29915 0.0
N1592 N 0.28496 0.21347 0.22441 0.0
C1593 C 0.27713 0.23661 0.22571 0.0
C1594 C 0.26695 0.24208 0.26567 0.0
C1595 C 0.84428 0.02572 0.20795 0.0
C1596 C 0.83097 0.04423 0.19495 0.0
C1597 C 0.83371 1.00697 0.2446 0.0
C1598 C 0.80934 1.00585 0.26971 0.0
H1599 H 0.86305 0.02542 0.18967 0.0
H1600 H 0.84495 0.99343 0.25354 0.0
S1601 S 0.76685 0.05011 0.25106 0.0
N1602 N 0.79211 0.06042 0.21065 0.0
N1603 N 0.7723 1.02495 0.2803 0.0
C1604 C 0.79549 1.02391 0.25733 0.0
C1605 C 0.80637 0.04325 0.21983 0.0
C1606 C 1.02121 0.77429 0.21254 0.0
C1607 C 1.02635 0.79827 0.18298 0.0
C1608 C 0.03807 0.78182 0.25137 0.0
C1609 C 0.06041 0.81344 0.2613 0.0
H1610 H 1.00327 0.74986 0.20648 0.0
H1611 H 1.03235 0.76318 0.27468 0.0
S1612 S 0.0868 0.88396 0.19201 0.0
N1613 N 0.05874 0.85435 0.16416 0.0
N1614 N 0.08975 0.86807 0.23737 0.0
C1615 C 0.06734 0.83716 0.23095 0.0
C1616 C 0.05045 0.82967 0.19164 0.0
C1617 C 0.83245 0.79378 0.72101 0.0
C1618 C 0.81251 0.78787 0.68549 0.0
C1619 C 0.82738 0.80537 0.75931 0.0
C1620 C 0.8021 0.81123 0.7634 0.0
H1621 H 0.85271 0.79034 0.71872 0.0
H1622 H 0.84367 0.81019 0.78577 0.0
S1623 S 0.74296 0.79932 0.68 0.0
N1624 N 0.76666 0.78874 0.65649 0.0
N1625 N 0.75627 0.80942 0.72973 0.0
C1626 C 0.7811 0.80412 0.72888 0.0
C1627 C 0.78654 0.79268 0.68949 0.0
C1628 C 0.23709 0.99016 0.72844 0.0
C1629 C 0.24722 1.00495 0.76849 0.0
C1630 C 0.24459 1.00844 0.69113 0.0
C1631 C 0.26325 0.04166 0.69314 0.0
H1632 H 0.22212 0.96462 0.72621 0.0
H1633 H 0.23538 0.99662 0.66057 0.0
S1634 S 0.29481 0.0912 0.79068 0.0
N1635 N 0.2754 0.05433 0.80869 0.0
N1636 N 0.29168 0.0886 0.73768 0.0
C1637 C 0.27431 0.05659 0.73284 0.0
C1638 C 0.26568 0.03814 0.77092 0.0
C1639 C 0.05513 0.25552 0.69524 0.0
C1640 C 1.02184 0.23951 0.6956 0.0
C1641 C 0.07225 0.2651 0.73368 0.0
C1642 C 0.05627 0.25819 0.77309 0.0
H1643 H 0.06788 0.25971 0.66514 0.0
H1644 H 0.09784 0.27635 0.73272 0.0
S1645 S 0.9696 0.21792 0.79082 0.0
N1646 N 0.97368 0.21875 0.73794 0.0
N1647 N 1.0059 0.23553 0.81071 0.0
C1648 C 1.0231 0.24318 0.77377 0.0
C1649 C 1.00577 0.23413 0.73469 0.0
C1650 C 0.91026 0.59584 0.56015 0.0
C1651 C 0.91458 0.5848 0.59967 0.0
C1652 C 0.91826 0.58643 0.52195 0.0
C1653 C 0.93216 0.56721 0.52275 0.0
H1654 H 0.89924 0.6104 0.5587 0.0
H1655 H 0.91286 0.59352 0.49155 0.0
S1656 S 0.948 0.53223 0.61832 0.0
N1657 N 0.93225 0.55283 0.63775 0.0
N1658 N 0.94981 0.5374 0.56561 0.0
C1659 C 0.93737 0.55678 0.56208 0.0
C1660 C 0.92798 0.56515 0.6008 0.0
C1661 C 0.46665 0.37803 0.54394 0.0
C1662 C 0.49891 0.39267 0.53289 0.0
C1663 C 0.45576 0.36108 0.58239 0.0
C1664 C 0.47696 0.35846 0.61018 0.0
H1665 H 0.44956 0.37801 0.52165 0.0
H1666 H 0.43058 0.34861 0.58921 0.0
S1667 S 0.56443 0.39854 0.59971 0.0
N1668 N 0.55235 0.40779 0.55527 0.0
N1669 N 0.53201 0.37605 0.62774 0.0
C1670 C 0.50956 0.37536 0.60108 0.0
C1671 C 0.52054 0.39249 0.56221 0.0
C1672 C 0.68084 0.13425 0.56267 0.0
C1673 C 0.69422 0.12835 0.52638 0.0
C1674 C 0.69737 0.14377 0.60137 0.0
C1675 C 0.72776 0.14756 0.60512 0.0
H1676 H 0.65756 0.13189 0.56095 0.0
H1677 H 0.68626 0.14826 0.62861 0.0
S1678 S 0.77394 0.13673 0.51895 0.0
N1679 N 0.74018 0.12848 0.49574 0.0
N1680 N 0.77091 0.14513 0.56967 0.0
C1681 C 0.7413 0.14123 0.56941 0.0
C1682 C 0.72458 0.13194 0.52962 0.0
C1683 C 0.45797 0.1171 0.09186 0.0
C1684 C 0.46635 0.14847 0.1017 0.0
C1685 C 0.46835 0.11009 0.05359 0.0
C1686 C 0.48727 0.13436 0.0244 0.0
H1687 H 0.44494 0.09827 0.11489 0.0
H1688 H 0.46257 0.08585 0.04771 0.0
S1689 S 0.51028 0.21947 0.0332 0.0
N1690 N 0.49088 0.20313 0.07809 0.0
N1691 N 0.51005 0.19036 0.00567 0.0
C1692 C 0.49365 0.16549 0.03286 0.0
C1693 C 0.48323 0.17246 0.07173 0.0
C1694 C 0.9138 0.33191 0.07282 0.0
C1695 C 0.93126 0.34897 0.10896 0.0
C1696 C 0.91839 0.34682 0.03311 0.0
C1697 C 0.94082 0.3791 0.02835 0.0
H1698 H 0.8958 0.3071 0.07561 0.0
H1699 H 0.90395 0.33313 0.00607 0.0
S1700 S 0.99149 0.43448 0.11338 0.0
N1701 N 0.9706 0.40006 0.13809 0.0
N1702 N 0.98066 0.4278 0.06233 0.0
C1703 C 0.95915 0.39627 0.06377 0.0
C1704 C 0.95398 0.38121 0.10453 0.0
C1705 C 0.69002 0.57648 0.09689 0.0
C1706 C 0.7233 0.59342 0.09575 0.0
C1707 C 0.67248 0.56825 0.0588 0.0
C1708 C 0.68802 0.5762 0.01904 0.0
H1709 H 0.6776 0.56867 0.12732 0.0
H1710 H 0.64686 0.55429 0.06036 0.0
S1711 S 0.7745 0.62184 -0.00049 0.0
N1712 N 0.77101 0.61968 0.05245 0.0
N1713 N 0.738 0.60276 0.98031 0.0
C1714 C 0.7212 0.59403 0.01759 0.0
C1715 C 0.73896 0.60311 0.05631 0.0
C1716 C 0.62392 0.92397 0.88972 0.0
C1717 C 0.60117 0.91223 0.85671 0.0
C1718 C 0.6177 0.93444 0.92855 0.0
C1719 C 0.58876 0.93354 0.93485 0.0
H1720 H 0.64577 0.92344 0.88645 0.0
H1721 H 0.63462 0.94132 0.9546 0.0
S1722 S 0.52458 0.91128 0.85545 0.0
N1723 N 0.55092 0.90513 0.83046 0.0
N1724 N 0.53926 0.92434 0.90389 0.0
C1725 C 0.5671 0.92437 0.901 0.0
C1726 C 0.57332 0.91382 0.86166 0.0
C1727 C 0.17407 0.69019 0.91996 0.0
C1728 C 0.1425 0.67369 0.93451 0.0
C1729 C 0.18235 0.70827 0.88276 0.0
C1730 C 0.15948 0.7106 0.85831 0.0
H1731 H 0.19285 0.68922 0.93726 0.0
H1732 H 0.20693 0.72008 0.87266 0.0
S1733 S 0.07371 0.67319 0.88247 0.0
N1734 N 0.08825 0.66179 0.92215 0.0
N1735 N 0.1041 0.69582 0.85106 0.0
C1736 C 0.12793 0.69503 0.87263 0.0
C1737 C 0.11935 0.67644 0.91091 0.0
C1738 C 0.35552 0.4377 0.92897 0.0
C1739 C 0.38522 0.46499 0.93477 0.0
C1740 C 0.33904 0.43285 0.89033 0.0
C1741 C 0.35187 0.4555 0.8573 0.0
H1742 H 0.34409 0.42124 0.95517 0.0
H1743 H 0.31556 0.4123 0.8872 0.0
S1744 S 0.43142 0.52774 0.85497 0.0
N1745 N 0.42876 0.51226 0.90299 0.0
N1746 N 0.3976 0.50378 0.83065 0.0
C1747 C 0.38252 0.48166 0.86187 0.0
C1748 C 0.39933 0.48621 0.90064 0.0
C1749 C 0.12666 0.45401 0.4178 0.0
C1750 C 0.13898 0.4857 0.4304 0.0
C1751 C 0.13805 0.4465 0.38096 0.0
C1752 C 0.16189 0.47054 0.35554 0.0
H1753 H 0.10929 0.43494 0.43762 0.0
H1754 H 0.12852 0.42172 0.37289 0.0
S1755 S 0.19727 0.55759 0.37161 0.0
N1756 N 0.17295 0.54128 0.41264 0.0
N1757 N 0.19429 0.52765 0.34304 0.0
C1758 C 0.17271 0.50249 0.36654 0.0
C1759 C 0.16118 0.50995 0.40402 0.0
C1760 C 0.61218 0.69448 0.36978 0.0
C1761 C 0.60175 0.71551 0.35813 0.0
C1762 C 0.60177 0.67718 0.40804 0.0
C1763 C 0.58093 0.68082 0.4357 0.0
H1764 H 0.62713 0.69025 0.34824 0.0
H1765 H 0.60944 0.66033 0.41535 0.0
S1766 S 0.55208 0.73801 0.42229 0.0
N1767 N 0.57304 0.74224 0.37856 0.0
N1768 N 0.55396 0.7106 0.45119 0.0
C1769 C 0.57228 0.70366 0.42548 0.0
C1770 C 0.58265 0.72089 0.38648 0.0
C1771 C 0.39192 0.90491 0.4081 0.0
C1772 C 0.39003 0.92702 0.43491 0.0
C1773 C 0.37462 0.89485 0.37021 0.0
C1774 C 0.35451 0.90636 0.35752 0.0
H1775 H 0.40628 0.89457 0.41706 0.0
H1776 H 0.37686 0.87743 0.35114 0.0
S1777 S 0.34366 0.96714 0.415 0.0
N1778 N 0.36857 0.96212 0.44544 0.0
N1779 N 0.33561 0.94309 0.37344 0.0
C1780 C 0.35355 0.92976 0.38306 0.0
C1781 C 0.37151 0.9402 0.42191 0.0
C1782 C 0.32153 0.35237 0.00689 0.0
C1783 C 0.294 0.32846 0.02637 0.0
C1784 C 0.33935 0.38204 0.02638 0.0
C1785 C 0.32982 0.38984 0.06515 0.0
H1786 H 0.33176 0.34675 0.97965 0.0
H1787 H 0.36225 0.39793 0.01263 0.0
S1788 S 0.25564 0.33775 0.12414 0.0
N1789 N 0.25545 0.31563 0.08356 0.0
N1790 N 0.28815 0.37267 0.11863 0.0
C1791 C 0.30014 0.36764 0.08197 0.0
C1792 C 0.28232 0.33672 0.06274 0.0
C1793 C 0.68308 0.95234 0.04364 0.0
C1794 C 0.67241 0.95008 0.08647 0.0
C1795 C 0.71546 0.96738 0.03374 0.0
C1796 C 0.73819 0.98068 0.06648 0.0
H1797 H 0.66638 0.94514 0.01727 0.0
H1798 H 0.72258 0.97164 0.00026 0.0
S1799 S 0.72247 0.97325 0.18413 0.0
N1800 N 0.6869 0.95657 0.162 0.0
N1801 N 0.74788 0.98446 0.14375 0.0
C1802 C 0.7277 0.97437 0.10964 0.0
C1803 C 0.6947 0.9591 0.11963 0.0
C1804 C 0.09557 0.75947 0.01229 0.0
C1805 C 0.08525 0.77228 0.04454 0.0
C1806 C 0.11071 0.74237 0.02317 0.0
C1807 C 0.11572 0.73727 0.06663 0.0
H1808 H 0.08878 0.75944 0.97908 0.0
H1809 H 0.11568 0.73042 -0.00253 0.0
S1810 S 0.10102 0.77399 0.16174 0.0
N1811 N 0.08758 0.78527 0.12061 0.0
N1812 N 0.11521 0.75236 0.14103 0.0
C1813 C 0.10979 0.75404 0.09848 0.0
C1814 C 0.09471 0.77175 0.08736 0.0
C1815 C 0.39436 0.31926 0.43057 0.0
C1816 C 0.40608 0.32634 0.38797 0.0
C1817 C 0.36173 0.30281 0.43917 0.0
C1818 C 0.33977 0.29301 0.40542 0.0
H1819 H 0.41051 0.32869 0.4576 0.0
H1820 H 0.35384 0.30048 0.47226 0.0
S1821 S 0.3578 0.299 0.28852 0.0
N1822 N 0.39294 0.31729 0.31195 0.0
N1823 N 0.33162 0.2863 0.32801 0.0
C1824 C 0.35111 0.29651 0.36283 0.0
C1825 C 0.38431 0.31314 0.35408 0.0
C1826 C 0.78325 0.08595 0.37509 0.0
C1827 C 0.77656 0.06744 0.41276 0.0
C1828 C 0.76442 0.09914 0.36289 0.0
C1829 C 0.7375 0.0928 0.38701 0.0
H1830 H 0.80159 0.08814 0.35329 0.0
H1831 H 0.76917 0.11167 0.33257 0.0
S1832 S 0.71059 0.04609 0.48864 0.0
N1833 N 0.7432 0.04584 0.47554 0.0
N1834 N 0.70591 0.06714 0.45084 0.0
C1835 C 0.73171 0.0755 0.42572 0.0
C1836 C 0.75181 0.06381 0.43916 0.0
C1837 C 0.98366 0.71287 0.36897 0.0
C1838 C 0.99323 0.72441 0.41127 0.0
C1839 C 0.96805 0.68029 0.35995 0.0
C1840 C 0.96171 0.65833 0.39299 0.0
H1841 H 0.99102 0.72926 0.34214 0.0
H1842 H 0.96403 0.67266 0.32664 0.0
S1843 S 0.97453 0.67598 0.51007 0.0
N1844 N 0.9896 0.71114 0.48705 0.0
N1845 N 0.96038 0.64994 0.47039 0.0
C1846 C 0.96722 0.66942 0.43591 0.0
C1847 C 0.98291 0.70254 0.44505 0.0
C1848 C 0.75559 0.67438 0.92404 0.0
C1849 C 0.74842 0.66295 0.88129 0.0
C1850 C 0.7715 0.70691 0.93319 0.0
C1851 C 0.78059 0.72906 0.89983 0.0
H1852 H 0.74598 0.65814 0.95086 0.0
H1853 H 0.77345 0.71443 0.96643 0.0
S1854 S 0.77511 0.71206 0.78258 0.0
N1855 N 0.75734 0.67668 0.80545 0.0
N1856 N 0.78755 0.73796 0.82249 0.0
C1857 C 0.77767 0.71816 0.85701 0.0
C1858 C 0.7615 0.68499 0.84772 0.0
C1859 C 0.35948 0.08272 0.92228 0.0
C1860 C 0.33853 0.06219 0.89094 0.0
C1861 C 0.39198 0.10121 0.91348 0.0
C1862 C 0.40456 0.09991 0.87304 0.0
H1863 H 0.35132 0.08235 0.95482 0.0
H1864 H 0.40778 0.1143 0.93978 0.0
S1865 S 0.3586 0.05615 0.77695 0.0
N1866 N 0.33191 0.04634 0.81535 0.0
N1867 N 0.39289 0.08123 0.79932 0.0
C1868 C 0.38338 0.08294 0.83987 0.0
C1869 C 0.35035 0.06391 0.84879 0.0
C1870 C 0.97483 0.30929 0.8512 0.0
C1871 C 0.96203 0.31895 0.88426 0.0
C1872 C 0.99119 0.29325 0.86085 0.0
C1873 C 0.99502 0.28616 0.90378 0.0
H1874 H 0.9753 0.31714 0.81845 0.0
H1875 H 1.00341 0.28903 0.83484 0.0
S1876 S 0.95888 0.29973 0.00038 0.0
N1877 N 0.94883 0.3152 0.96034 0.0
N1878 N 0.97958 0.28495 0.9784 0.0
C1879 C 0.97856 0.29187 0.93627 0.0
C1880 C 0.96206 0.30836 0.92648 0.0
C1881 C 0.71494 0.76892 0.52994 0.0
C1882 C 0.73399 0.75853 0.54984 0.0
C1883 C 0.68356 0.75757 0.54396 0.0
C1884 C 0.67102 0.73691 0.57955 0.0
H1885 H 0.72322 0.78342 0.50122 0.0
H1886 H 0.66823 0.7629 0.52485 0.0
S1887 S 0.71229 0.70576 0.64571 0.0
N1888 N 0.73808 0.72735 0.60824 0.0
N1889 N 0.68097 0.70943 0.63681 0.0
C1890 C 0.69101 0.72935 0.60236 0.0
C1891 C 0.72198 0.73916 0.58678 0.0
C1892 C 0.31243 0.94871 0.53888 0.0
C1893 C 0.32091 0.94605 0.5815 0.0
C1894 C 0.29642 0.96518 0.52958 0.0
C1895 C 0.28835 0.97936 0.56276 0.0
H1896 H 0.32113 0.94086 0.51222 0.0
H1897 H 0.2936 0.96975 0.49623 0.0
S1898 S 0.29684 0.97106 0.68016 0.0
N1899 N 0.31397 0.95286 0.65731 0.0
N1900 N 0.28339 0.98336 0.6402 0.0
C1901 C 0.29226 0.97246 0.60571 0.0
C1902 C 0.30863 0.95578 0.61509 0.0
C1903 C 0.09797 0.3662 0.60579 0.0
C1904 C 0.10912 0.38804 0.57182 0.0
C1905 C 0.08105 0.33353 0.59743 0.0
C1906 C 0.07471 0.32161 0.55487 0.0
H1907 H 0.09943 0.37427 0.63866 0.0
H1908 H 0.07055 0.31756 0.62448 0.0
S1909 S 0.10652 0.3691 0.45555 0.0
N1910 N 0.11873 0.39561 0.49471 0.0
N1911 N 0.08644 0.33411 0.47912 0.0
C1912 C 0.08951 0.34306 0.52108 0.0
C1913 C 0.10681 0.37636 0.52958 0.0
C1914 C 1.02525 0.62161 0.76338 0.0
C1915 C 1.00329 0.61425 0.73004 0.0
C1916 C 0.05784 0.63763 0.75454 0.0
C1917 C 0.06943 0.64675 0.71216 0.0
H1918 H 1.01757 0.61808 0.79664 0.0
H1919 H 0.07413 0.64563 0.78149 0.0
S1920 S 1.02112 0.62542 0.61289 0.0
N1921 N 0.99505 0.61143 0.65247 0.0
N1922 N 0.05623 0.64157 0.6362 0.0
C1923 C 0.04762 0.63543 0.67826 0.0
C1924 C 1.01449 0.61922 0.68718 0.0
C1925 C 0.435 0.40246 0.70402 0.0
C1926 C 0.44253 0.40166 0.74771 0.0
C1927 C 0.41815 0.41744 0.69093 0.0
C1928 C 0.40814 0.43187 0.72131 0.0
H1929 H 0.4393 0.38866 0.68044 0.0
H1930 H 0.40994 0.41457 0.65794 0.0
S1931 S 0.42781 0.44216 0.8378 0.0
N1932 N 0.44325 0.42092 0.81978 0.0
N1933 N 0.41188 0.44941 0.79552 0.0
C1934 C 0.4191 0.43468 0.76404 0.0
C1935 C 0.43625 0.41946 0.77724 0.0
C1936 C 0.65544 0.04653 0.69413 0.0
C1937 C 0.66042 0.05726 0.73726 0.0
C1938 C 0.6377 1.01417 0.68419 0.0
C1939 C 0.62426 0.99167 0.71714 0.0
H1940 H 0.6679 0.06294 0.66812 0.0
H1941 H 0.63773 1.00671 0.65134 0.0
S1942 S 0.62189 1.00787 0.83342 0.0
N1943 N 0.64442 0.04324 0.81183 0.0
N1944 N 0.61044 0.98239 0.79306 0.0
C1945 C 0.62465 1.00243 0.75942 0.0
C1946 C 0.64294 0.03534 0.76959 0.0
C1947 C 0.43984 0.04686 0.20065 0.0
C1948 C 0.44329 0.05704 0.24398 0.0
C1949 C 0.4243 1.01455 0.18991 0.0
C1950 C 0.41192 0.99148 0.22225 0.0
H1951 H 0.44641 0.06389 0.17474 0.0
H1952 H 0.41892 1.00778 0.15641 0.0
S1953 S 0.42296 1.00564 0.3401 0.0
N1954 N 0.4391 0.04154 0.31899 0.0
N1955 N 0.41047 0.98075 0.299 0.0
C1956 C 0.41964 1.00142 0.26547 0.0
C1957 C 0.43527 0.03431 0.27637 0.0
C1958 C 1.01631 0.4016 0.21076 0.0
C1959 C 1.00774 0.40357 0.2535 0.0
C1960 C 0.04747 0.4199 0.19609 0.0
C1961 C 0.07161 0.43974 0.22445 0.0
H1962 H 0.99949 0.3832 0.18973 0.0
H1963 H 0.05321 0.41512 0.16427 0.0
S1964 S 0.06161 0.45631 0.33829 0.0
N1965 N 1.02542 0.42989 0.32255 0.0
N1966 N 0.0847 0.46337 0.2959 0.0
C1967 C 0.06307 0.44423 0.26622 0.0
C1968 C 1.03097 0.42616 0.28072 0.0
C1969 C 0.64739 0.64379 0.17763 0.0
C1970 C 0.63261 0.65122 0.21061 0.0
C1971 C 0.66512 0.62913 0.18713 0.0
C1972 C 0.66867 0.62144 0.22989 0.0
H1973 H 0.6481 0.65226 0.14519 0.0
H1974 H 0.67825 0.62614 0.16117 0.0
S1975 S 0.62708 0.62814 0.32549 0.0
N1976 N 0.61687 0.64386 0.28591 0.0
N1977 N 0.65049 0.61648 0.30375 0.0
C1978 C 0.65038 0.62476 0.26204 0.0
C1979 C 0.6323 0.6397 0.25235 0.0
loop_
_geom_bond_atom_site_label_1
_geom_bond_atom_site_label_2
_geom_bond_distance
_geom_bond_site_symmetry_2
_ccdc_geom_bond_type
Sc0 O3 2.025 . S
Sc0 O10 2.105 . S
Sc0 O13 2.105 1_554 S
Sc0 O16 2.105 1_554 S
Sc0 O19 2.105 . S
Sc1 O3 2.025 . S
Sc1 O11 2.105 . S
Sc1 O15 2.105 . S
Sc1 O17 2.105 . S
Sc1 O21 2.105 . S
Sc2 O3 2.025 . S
Sc2 O12 2.105 . S
Sc2 O14 2.105 . S
Sc2 O18 2.105 . S
Sc2 O20 2.105 . S
O3 Sc0 2.025 . S
O3 Sc1 2.025 . S
O3 Sc2 2.025 . S
C4 O10 1.268 . S
C4 O20 1.268 . S
C5 O11 1.268 . S
C5 O19 1.268 . S
C6 O12 1.268 . S
C6 O21 1.268 . S
C7 O13 1.268 1_554 S
C7 O17 1.268 . S
C8 O14 1.268 . S
C8 O16 1.268 1_554 S
C9 O15 1.268 . S
C9 O18 1.268 . S
O10 Sc0 2.105 . S
O10 C4 1.268 . S
O11 Sc1 2.105 . S
O11 C5 1.268 . S
O12 Sc2 2.105 . S
O12 C6 1.268 . S
O13 Sc0 2.105 1_556 S
O13 C7 1.268 1_556 S
O14 Sc2 2.105 . S
O14 C8 1.268 . S
O15 Sc1 2.105 . S
O15 C9 1.268 . S
O16 Sc0 2.105 1_556 S
O16 C8 1.268 1_556 S
O17 Sc1 2.105 . S
O17 C7 1.268 . S
O18 Sc2 2.105 . S
O18 C9 1.268 . S
O19 Sc0 2.105 . S
O19 C5 1.268 . S
O20 Sc2 2.105 . S
O20 C4 1.268 . S
O21 Sc1 2.105 . S
O21 C6 1.268 . S
Sc22 O25 2.025 . S
Sc22 O32 2.105 1_545 S
Sc22 O35 2.105 1_554 S
Sc22 O38 2.105 1_554 S
Sc22 O41 2.111 . S
Sc23 O25 2.025 . S
Sc23 O33 2.105 . S
Sc23 O37 2.105 . S
Sc23 O39 2.105 . S
Sc23 O43 2.105 . S
Sc24 O25 2.025 . S
Sc24 O34 2.105 . S
Sc24 O36 2.105 . S
Sc24 O40 2.105 . S
Sc24 O42 2.105 . S
O25 Sc22 2.025 . S
O25 Sc23 2.025 . S
O25 Sc24 2.025 . S
C26 O32 1.268 . S
C26 O42 1.268 1_565 S
C27 O33 1.268 1_565 S
C27 O41 1.275 1_565 S
C28 O34 1.268 . S
C28 O43 1.268 . S
C29 O35 1.268 1_554 S
C29 O39 1.268 . S
C30 O36 1.268 . S
C30 O38 1.268 1_554 S
C31 O37 1.268 . S
C31 O40 1.268 . S
O32 Sc22 2.105 1_565 S
O32 C26 1.268 . S
O33 Sc23 2.105 . S
O33 C27 1.268 1_545 S
O34 Sc24 2.105 . S
O34 C28 1.268 . S
O35 Sc22 2.105 1_556 S
O35 C29 1.268 1_556 S
O36 Sc24 2.105 . S
O36 C30 1.268 . S
O37 Sc23 2.105 . S
O37 C31 1.268 . S
O38 Sc22 2.105 1_556 S
O38 C30 1.268 1_556 S
O39 Sc23 2.105 . S
O39 C29 1.268 . S
O40 Sc24 2.105 . S
O40 C31 1.268 . S
O41 Sc22 2.111 . S
O41 C27 1.275 1_545 S
O42 Sc24 2.105 . S
O42 C26 1.268 1_545 S
O43 Sc23 2.105 . S
O43 C28 1.268 . S
Sc44 O47 2.025 . S
Sc44 O54 2.105 1_655 S
Sc44 O57 2.105 1_554 S
Sc44 O60 2.105 1_554 S
Sc44 O63 2.134 . S
Sc45 O47 2.025 . S
Sc45 O55 2.105 . S
Sc45 O59 2.105 . S
Sc45 O61 2.105 . S
Sc45 O65 2.105 . S
Sc46 O47 2.025 . S
Sc46 O56 2.105 . S
Sc46 O58 2.105 . S
Sc46 O62 2.105 . S
Sc46 O64 2.105 . S
O47 Sc44 2.025 . S
O47 Sc45 2.025 . S
O47 Sc46 2.025 . S
C48 O54 1.268 . S
C48 O64 1.268 1_455 S
C49 O55 1.268 1_455 S
C49 O63 1.255 1_455 S
C50 O56 1.268 . S
C50 O65 1.268 . S
C51 O57 1.268 1_554 S
C51 O61 1.268 . S
C52 O58 1.268 . S
C52 O60 1.268 1_554 S
C53 O59 1.268 . S
C53 O62 1.268 . S
O54 Sc44 2.105 1_455 S
O54 C48 1.268 . S
O55 Sc45 2.105 . S
O55 C49 1.268 1_655 S
O56 Sc46 2.105 . S
O56 C50 1.268 . S
O57 Sc44 2.105 1_556 S
O57 C51 1.268 1_556 S
O58 Sc46 2.105 . S
O58 C52 1.268 . S
O59 Sc45 2.105 . S
O59 C53 1.268 . S
O60 Sc44 2.105 1_556 S
O60 C52 1.268 1_556 S
O61 Sc45 2.105 . S
O61 C51 1.268 . S
O62 Sc46 2.105 . S
O62 C53 1.268 . S
O63 Sc44 2.134 . S
O63 C49 1.255 1_655 S
O64 Sc46 2.105 . S
O64 C48 1.268 1_655 S
O65 Sc45 2.105 . S
O65 C50 1.268 . S
Sc66 O69 2.025 . S
Sc66 O76 2.105 . S
Sc66 O79 2.105 . S
Sc66 O82 2.105 . S
Sc66 O85 2.105 . S
Sc67 O69 2.025 . S
Sc67 O77 2.105 . S
Sc67 O81 2.105 . S
Sc67 O83 2.105 . S
Sc67 O87 2.105 . S
Sc68 O69 2.025 . S
Sc68 O78 2.105 . S
Sc68 O80 2.105 . S
Sc68 O84 2.105 . S
Sc68 O86 2.105 . S
O69 Sc66 2.025 . S
O69 Sc67 2.025 . S
O69 Sc68 2.025 . S
C70 O76 1.268 . S
C70 O86 1.268 . S
C71 O77 1.268 . S
C71 O85 1.268 . S
C72 O78 1.268 . S
C72 O87 1.268 . S
C73 O79 1.268 . S
C73 O83 1.268 . S
C74 O80 1.268 . S
C74 O82 1.268 . S
C75 O81 1.268 . S
C75 O84 1.268 . S
O76 Sc66 2.105 . S
O76 C70 1.268 . S
O77 Sc67 2.105 . S
O77 C71 1.268 . S
O78 Sc68 2.105 . S
O78 C72 1.268 . S
O79 Sc66 2.105 . S
O79 C73 1.268 . S
O80 Sc68 2.105 . S
O80 C74 1.268 . S
O81 Sc67 2.105 . S
O81 C75 1.268 . S
O82 Sc66 2.105 . S
O82 C74 1.268 . S
O83 Sc67 2.105 . S
O83 C73 1.268 . S
O84 Sc68 2.105 . S
O84 C75 1.268 . S
O85 Sc66 2.105 . S
O85 C71 1.268 . S
O86 Sc68 2.105 . S
O86 C70 1.268 . S
O87 Sc67 2.105 . S
O87 C72 1.268 . S
Sc88 O91 2.025 . S
Sc88 O98 2.105 . S
Sc88 O101 2.105 . S
Sc88 O104 2.105 . S
Sc88 O107 2.105 . S
Sc89 O91 2.025 . S
Sc89 O99 2.105 . S
Sc89 O103 2.105 . S
Sc89 O105 2.105 . S
Sc89 O109 2.105 . S
Sc90 O91 2.025 . S
Sc90 O100 2.105 . S
Sc90 O102 2.105 1_565 S
Sc90 O106 2.134 . S
Sc90 O108 2.105 . S
O91 Sc88 2.025 . S
O91 Sc89 2.025 . S
O91 Sc90 2.025 . S
C92 O98 1.268 . S
C92 O108 1.268 . S
C93 O99 1.268 . S
C93 O107 1.268 . S
C94 O100 1.268 . S
C94 O109 1.268 . S
C95 O101 1.268 . S
C95 O105 1.268 . S
C96 O102 1.268 . S
C96 O104 1.268 1_545 S
C97 O103 1.268 1_545 S
C97 O106 1.255 1_545 S
O98 Sc88 2.105 . S
O98 C92 1.268 . S
O99 Sc89 2.105 . S
O99 C93 1.268 . S
O100 Sc90 2.105 . S
O100 C94 1.268 . S
O101 Sc88 2.105 . S
O101 C95 1.268 . S
O102 Sc90 2.105 1_545 S
O102 C96 1.268 . S
O103 Sc89 2.105 . S
O103 C97 1.268 1_565 S
O104 Sc88 2.105 . S
O104 C96 1.268 1_565 S
O105 Sc89 2.105 . S
O105 C95 1.268 . S
O106 Sc90 2.134 . S
O106 C97 1.255 1_565 S
O107 Sc88 2.105 . S
O107 C93 1.268 . S
O108 Sc90 2.105 . S
O108 C92 1.268 . S
O109 Sc89 2.105 . S
O109 C94 1.268 . S
Sc110 O113 2.025 . S
Sc110 O120 2.105 . S
Sc110 O123 2.105 . S
Sc110 O126 2.105 . S
Sc110 O129 2.105 . S
Sc111 O113 2.025 . S
Sc111 O121 2.105 . S
Sc111 O125 2.105 . S
Sc111 O127 2.105 . S
Sc111 O131 2.105 . S
Sc112 O113 2.025 . S
Sc112 O122 2.105 . S
Sc112 O124 2.105 1_455 S
Sc112 O128 2.111 . S
Sc112 O130 2.105 . S
O113 Sc110 2.025 . S
O113 Sc111 2.025 . S
O113 Sc112 2.025 . S
C114 O120 1.268 . S
C114 O130 1.268 . S
C115 O121 1.268 . S
C115 O129 1.268 . S
C116 O122 1.268 . S
C116 O131 1.268 . S
C117 O123 1.268 . S
C117 O127 1.268 . S
C118 O124 1.268 . S
C118 O126 1.268 1_655 S
C119 O125 1.268 1_655 S
C119 O128 1.275 1_655 S
O120 Sc110 2.105 . S
O120 C114 1.268 . S
O121 Sc111 2.105 . S
O121 C115 1.268 . S
O122 Sc112 2.105 . S
O122 C116 1.268 . S
O123 Sc110 2.105 . S
O123 C117 1.268 . S
O124 Sc112 2.105 1_655 S
O124 C118 1.268 . S
O125 Sc111 2.105 . S
O125 C119 1.268 1_455 S
O126 Sc110 2.105 . S
O126 C118 1.268 1_455 S
O127 Sc111 2.105 . S
O127 C117 1.268 . S
O128 Sc112 2.111 . S
O128 C119 1.275 1_455 S
O129 Sc110 2.105 . S
O129 C115 1.268 . S
O130 Sc112 2.105 . S
O130 C114 1.268 . S
O131 Sc111 2.105 . S
O131 C116 1.268 . S
Sc132 O135 2.025 . S
Sc132 O142 2.105 1_556 S
Sc132 O145 2.105 . S
Sc132 O148 2.105 . S
Sc132 O151 2.105 1_556 S
Sc133 O135 2.025 . S
Sc133 O143 2.105 . S
Sc133 O147 2.105 . S
Sc133 O149 2.105 . S
Sc133 O153 2.105 . S
Sc134 O135 2.025 . S
Sc134 O144 2.105 . S
Sc134 O146 2.105 . S
Sc134 O150 2.105 . S
Sc134 O152 2.105 . S
O135 Sc132 2.025 . S
O135 Sc133 2.025 . S
O135 Sc134 2.025 . S
C136 O142 1.268 1_556 S
C136 O152 1.268 . S
C137 O143 1.268 . S
C137 O151 1.268 1_556 S
C138 O144 1.268 . S
C138 O153 1.268 . S
C139 O145 1.268 . S
C139 O149 1.268 . S
C140 O146 1.268 . S
C140 O148 1.268 . S
C141 O147 1.268 . S
C141 O150 1.268 . S
O142 Sc132 2.105 1_554 S
O142 C136 1.268 1_554 S
O143 Sc133 2.105 . S
O143 C137 1.268 . S
O144 Sc134 2.105 . S
O144 C138 1.268 . S
O145 Sc132 2.105 . S
O145 C139 1.268 . S
O146 Sc134 2.105 . S
O146 C140 1.268 . S
O147 Sc133 2.105 . S
O147 C141 1.268 . S
O148 Sc132 2.105 . S
O148 C140 1.268 . S
O149 Sc133 2.105 . S
O149 C139 1.268 . S
O150 Sc134 2.105 . S
O150 C141 1.268 . S
O151 Sc132 2.105 1_554 S
O151 C137 1.268 1_554 S
O152 Sc134 2.105 . S
O152 C136 1.268 . S
O153 Sc133 2.105 . S
O153 C138 1.268 . S
Sc154 O157 2.025 . S
Sc154 O164 2.105 1_556 S
Sc154 O167 2.111 . S
Sc154 O170 2.105 1_565 S
Sc154 O173 2.105 1_556 S
Sc155 O157 2.025 . S
Sc155 O165 2.105 . S
Sc155 O169 2.105 . S
Sc155 O171 2.105 . S
Sc155 O175 2.105 . S
Sc156 O157 2.025 . S
Sc156 O166 2.105 . S
Sc156 O168 2.105 . S
Sc156 O172 2.105 . S
Sc156 O174 2.105 . S
O157 Sc154 2.025 . S
O157 Sc155 2.025 . S
O157 Sc156 2.025 . S
C158 O164 1.268 1_556 S
C158 O174 1.268 . S
C159 O165 1.268 . S
C159 O173 1.268 1_556 S
C160 O166 1.268 . S
C160 O175 1.268 . S
C161 O167 1.275 1_545 S
C161 O171 1.268 1_545 S
C162 O168 1.268 1_545 S
C162 O170 1.268 . S
C163 O169 1.268 . S
C163 O172 1.268 . S
O164 Sc154 2.105 1_554 S
O164 C158 1.268 1_554 S
O165 Sc155 2.105 . S
O165 C159 1.268 . S
O166 Sc156 2.105 . S
O166 C160 1.268 . S
O167 Sc154 2.111 . S
O167 C161 1.275 1_565 S
O168 Sc156 2.105 . S
O168 C162 1.268 1_565 S
O169 Sc155 2.105 . S
O169 C163 1.268 . S
O170 Sc154 2.105 1_545 S
O170 C162 1.268 . S
O171 Sc155 2.105 . S
O171 C161 1.268 1_565 S
O172 Sc156 2.105 . S
O172 C163 1.268 . S
O173 Sc154 2.105 1_554 S
O173 C159 1.268 1_554 S
O174 Sc156 2.105 . S
O174 C158 1.268 . S
O175 Sc155 2.105 . S
O175 C160 1.268 . S
Sc176 O179 2.025 . S
Sc176 O186 2.105 1_556 S
Sc176 O189 2.134 . S
Sc176 O192 2.105 1_455 S
Sc176 O195 2.105 1_556 S
Sc177 O179 2.025 . S
Sc177 O187 2.105 . S
Sc177 O191 2.105 . S
Sc177 O193 2.105 . S
Sc177 O197 2.105 . S
Sc178 O179 2.025 . S
Sc178 O188 2.105 . S
Sc178 O190 2.105 . S
Sc178 O194 2.105 . S
Sc178 O196 2.105 . S
O179 Sc176 2.025 . S
O179 Sc177 2.025 . S
O179 Sc178 2.025 . S
C180 O186 1.268 1_556 S
C180 O196 1.268 . S
C181 O187 1.268 . S
C181 O195 1.268 1_556 S
C182 O188 1.268 . S
C182 O197 1.268 . S
C183 O189 1.255 1_655 S
C183 O193 1.268 1_655 S
C184 O190 1.268 1_655 S
C184 O192 1.268 . S
C185 O191 1.268 . S
C185 O194 1.268 . S
O186 Sc176 2.105 1_554 S
O186 C180 1.268 1_554 S
O187 Sc177 2.105 . S
O187 C181 1.268 . S
O188 Sc178 2.105 . S
O188 C182 1.268 . S
O189 Sc176 2.134 . S
O189 C183 1.255 1_455 S
O190 Sc178 2.105 . S
O190 C184 1.268 1_455 S
O191 Sc177 2.105 . S
O191 C185 1.268 . S
O192 Sc176 2.105 1_655 S
O192 C184 1.268 . S
O193 Sc177 2.105 . S
O193 C183 1.268 1_455 S
O194 Sc178 2.105 . S
O194 C185 1.268 . S
O195 Sc176 2.105 1_554 S
O195 C181 1.268 1_554 S
O196 Sc178 2.105 . S
O196 C180 1.268 . S
O197 Sc177 2.105 . S
O197 C182 1.268 . S
Sc198 O201 2.025 . S
Sc198 O208 2.105 . S
Sc198 O211 2.105 . S
Sc198 O214 2.105 . S
Sc198 O217 2.105 . S
Sc199 O201 2.025 . S
Sc199 O209 2.105 . S
Sc199 O213 2.105 . S
Sc199 O215 2.105 . S
Sc199 O219 2.105 . S
Sc200 O201 2.025 . S
Sc200 O210 2.105 . S
Sc200 O212 2.105 . S
Sc200 O216 2.105 . S
Sc200 O218 2.105 . S
O201 Sc198 2.025 . S
O201 Sc199 2.025 . S
O201 Sc200 2.025 . S
C202 O208 1.268 . S
C202 O218 1.268 . S
C203 O209 1.268 . S
C203 O217 1.268 . S
C204 O210 1.268 . S
C204 O219 1.268 . S
C205 O211 1.268 . S
C205 O215 1.268 . S
C206 O212 1.268 . S
C206 O214 1.268 . S
C207 O213 1.268 . S
C207 O216 1.268 . S
O208 Sc198 2.105 . S
O208 C202 1.268 . S
O209 Sc199 2.105 . S
O209 C203 1.268 . S
O210 Sc200 2.105 . S
O210 C204 1.268 . S
O211 Sc198 2.105 . S
O211 C205 1.268 . S
O212 Sc200 2.105 . S
O212 C206 1.268 . S
O213 Sc199 2.105 . S
O213 C207 1.268 . S
O214 Sc198 2.105 . S
O214 C206 1.268 . S
O215 Sc199 2.105 . S
O215 C205 1.268 . S
O216 Sc200 2.105 . S
O216 C207 1.268 . S
O217 Sc198 2.105 . S
O217 C203 1.268 . S
O218 Sc200 2.105 . S
O218 C202 1.268 . S
O219 Sc199 2.105 . S
O219 C204 1.268 . S
Sc220 O223 2.025 . S
Sc220 O230 2.105 . S
Sc220 O233 2.134 . S
Sc220 O236 2.105 1_545 S
Sc220 O239 2.105 . S
Sc221 O223 2.025 . S
Sc221 O231 2.105 . S
Sc221 O235 2.105 . S
Sc221 O237 2.105 . S
Sc221 O241 2.105 . S
Sc222 O223 2.025 . S
Sc222 O232 2.105 . S
Sc222 O234 2.105 . S
Sc222 O238 2.105 . S
Sc222 O240 2.105 . S
O223 Sc220 2.025 . S
O223 Sc221 2.025 . S
O223 Sc222 2.025 . S
C224 O230 1.268 . S
C224 O240 1.268 . S
C225 O231 1.268 . S
C225 O239 1.268 . S
C226 O232 1.268 . S
C226 O241 1.268 . S
C227 O233 1.255 1_565 S
C227 O237 1.268 1_565 S
C228 O234 1.268 1_565 S
C228 O236 1.268 . S
C229 O235 1.268 . S
C229 O238 1.268 . S
O230 Sc220 2.105 . S
O230 C224 1.268 . S
O231 Sc221 2.105 . S
O231 C225 1.268 . S
O232 Sc222 2.105 . S
O232 C226 1.268 . S
O233 Sc220 2.134 . S
O233 C227 1.255 1_545 S
O234 Sc222 2.105 . S
O234 C228 1.268 1_545 S
O235 Sc221 2.105 . S
O235 C229 1.268 . S
O236 Sc220 2.105 1_565 S
O236 C228 1.268 . S
O237 Sc221 2.105 . S
O237 C227 1.268 1_545 S
O238 Sc222 2.105 . S
O238 C229 1.268 . S
O239 Sc220 2.105 . S
O239 C225 1.268 . S
O240 Sc222 2.105 . S
O240 C224 1.268 . S
O241 Sc221 2.105 . S
O241 C226 1.268 . S
Sc242 O245 2.025 . S
Sc242 O252 2.105 . S
Sc242 O255 2.111 . S
Sc242 O258 2.105 1_655 S
Sc242 O261 2.105 . S
Sc243 O245 2.025 . S
Sc243 O253 2.105 . S
Sc243 O257 2.105 . S
Sc243 O259 2.105 . S
Sc243 O263 2.105 . S
Sc244 O245 2.025 . S
Sc244 O254 2.105 . S
Sc244 O256 2.105 . S
Sc244 O260 2.105 . S
Sc244 O262 2.105 . S
O245 Sc242 2.025 . S
O245 Sc243 2.025 . S
O245 Sc244 2.025 . S
C246 O252 1.268 . S
C246 O262 1.268 . S
C247 O253 1.268 . S
C247 O261 1.268 . S
C248 O254 1.268 . S
C248 O263 1.268 . S
C249 O255 1.275 1_455 S
C249 O259 1.268 1_455 S
C250 O256 1.268 1_455 S
C250 O258 1.268 . S
C251 O257 1.268 . S
C251 O260 1.268 . S
O252 Sc242 2.105 . S
O252 C246 1.268 . S
O253 Sc243 2.105 . S
O253 C247 1.268 . S
O254 Sc244 2.105 . S
O254 C248 1.268 . S
O255 Sc242 2.111 . S
O255 C249 1.275 1_655 S
O256 Sc244 2.105 . S
O256 C250 1.268 1_655 S
O257 Sc243 2.105 . S
O257 C251 1.268 . S
O258 Sc242 2.105 1_455 S
O258 C250 1.268 . S
O259 Sc243 2.105 . S
O259 C249 1.268 1_655 S
O260 Sc244 2.105 . S
O260 C251 1.268 . S
O261 Sc242 2.105 . S
O261 C247 1.268 . S
O262 Sc244 2.105 . S
O262 C246 1.268 . S
O263 Sc243 2.105 . S
O263 C248 1.268 . S
Sc264 O267 2.025 . S
Sc264 O274 2.105 . S
Sc264 O277 2.105 . S
Sc264 O280 2.105 . S
Sc264 O283 2.105 . S
Sc265 O267 2.025 . S
Sc265 O275 2.105 . S
Sc265 O279 2.105 . S
Sc265 O281 2.105 . S
Sc265 O285 2.105 . S
Sc266 O267 2.025 . S
Sc266 O276 2.105 . S
Sc266 O278 2.105 . S
Sc266 O282 2.105 . S
Sc266 O284 2.105 . S
O267 Sc264 2.025 . S
O267 Sc265 2.025 . S
O267 Sc266 2.025 . S
C268 O274 1.268 . S
C268 O284 1.268 . S
C269 O275 1.268 . S
C269 O283 1.268 . S
C270 O276 1.268 . S
C270 O285 1.268 . S
C271 O277 1.268 . S
C271 O281 1.268 . S
C272 O278 1.268 . S
C272 O280 1.268 . S
C273 O279 1.268 . S
C273 O282 1.268 . S
O274 Sc264 2.105 . S
O274 C268 1.268 . S
O275 Sc265 2.105 . S
O275 C269 1.268 . S
O276 Sc266 2.105 . S
O276 C270 1.268 . S
O277 Sc264 2.105 . S
O277 C271 1.268 . S
O278 Sc266 2.105 . S
O278 C272 1.268 . S
O279 Sc265 2.105 . S
O279 C273 1.268 . S
O280 Sc264 2.105 . S
O280 C272 1.268 . S
O281 Sc265 2.105 . S
O281 C271 1.268 . S
O282 Sc266 2.105 . S
O282 C273 1.268 . S
O283 Sc264 2.105 . S
O283 C269 1.268 . S
O284 Sc266 2.105 . S
O284 C268 1.268 . S
O285 Sc265 2.105 . S
O285 C270 1.268 . S
Sc286 O289 2.025 . S
Sc286 O296 2.105 . S
Sc286 O299 2.105 . S
Sc286 O302 2.105 . S
Sc286 O305 2.105 . S
Sc287 O289 2.025 . S
Sc287 O297 2.105 . S
Sc287 O301 2.105 . S
Sc287 O303 2.105 . S
Sc287 O307 2.105 . S
Sc288 O289 2.025 . S
Sc288 O298 2.105 . S
Sc288 O300 2.105 . S
Sc288 O304 2.105 . S
Sc288 O306 2.105 . S
O289 Sc286 2.025 . S
O289 Sc287 2.025 . S
O289 Sc288 2.025 . S
C290 O296 1.268 . S
C290 O306 1.268 . S
C291 O297 1.268 . S
C291 O305 1.268 . S
C292 O298 1.268 . S
C292 O307 1.268 . S
C293 O299 1.268 . S
C293 O303 1.268 . S
C294 O300 1.268 . S
C294 O302 1.268 . S
C295 O301 1.268 . S
C295 O304 1.268 . S
O296 Sc286 2.105 . S
O296 C290 1.268 . S
O297 Sc287 2.105 . S
O297 C291 1.268 . S
O298 Sc288 2.105 . S
O298 C292 1.268 . S
O299 Sc286 2.105 . S
O299 C293 1.268 . S
O300 Sc288 2.105 . S
O300 C294 1.268 . S
O301 Sc287 2.105 . S
O301 C295 1.268 . S
O302 Sc286 2.105 . S
O302 C294 1.268 . S
O303 Sc287 2.105 . S
O303 C293 1.268 . S
O304 Sc288 2.105 . S
O304 C295 1.268 . S
O305 Sc286 2.105 . S
O305 C291 1.268 . S
O306 Sc288 2.105 . S
O306 C290 1.268 . S
O307 Sc287 2.105 . S
O307 C292 1.268 . S
Sc308 O311 2.025 . S
Sc308 O318 2.105 . S
Sc308 O321 2.105 . S
Sc308 O324 2.105 . S
Sc308 O327 2.105 . S
Sc309 O311 2.025 . S
Sc309 O319 2.105 . S
Sc309 O323 2.105 . S
Sc309 O325 2.105 . S
Sc309 O329 2.105 . S
Sc310 O311 2.025 . S
Sc310 O320 2.105 . S
Sc310 O322 2.105 . S
Sc310 O326 2.105 . S
Sc310 O328 2.105 . S
O311 Sc308 2.025 . S
O311 Sc309 2.025 . S
O311 Sc310 2.025 . S
C312 O318 1.268 . S
C312 O328 1.268 . S
C313 O319 1.268 . S
C313 O327 1.268 . S
C314 O320 1.268 . S
C314 O329 1.268 . S
C315 O321 1.268 . S
C315 O325 1.268 . S
C316 O322 1.268 . S
C316 O324 1.268 . S
C317 O323 1.268 . S
C317 O326 1.268 . S
O318 Sc308 2.105 . S
O318 C312 1.268 . S
O319 Sc309 2.105 . S
O319 C313 1.268 . S
O320 Sc310 2.105 . S
O320 C314 1.268 . S
O321 Sc308 2.105 . S
O321 C315 1.268 . S
O322 Sc310 2.105 . S
O322 C316 1.268 . S
O323 Sc309 2.105 . S
O323 C317 1.268 . S
O324 Sc308 2.105 . S
O324 C316 1.268 . S
O325 Sc309 2.105 . S
O325 C315 1.268 . S
O326 Sc310 2.105 . S
O326 C317 1.268 . S
O327 Sc308 2.105 . S
O327 C313 1.268 . S
O328 Sc310 2.105 . S
O328 C312 1.268 . S
O329 Sc309 2.105 . S
O329 C314 1.268 . S
Sc330 O333 2.025 . S
Sc330 O340 2.105 . S
Sc330 O343 2.105 . S
Sc330 O346 2.105 . S
Sc330 O349 2.105 . S
Sc331 O333 2.025 . S
Sc331 O341 2.105 . S
Sc331 O345 2.105 . S
Sc331 O347 2.105 . S
Sc331 O351 2.105 . S
Sc332 O333 2.025 . S
Sc332 O342 2.105 . S
Sc332 O344 2.105 . S
Sc332 O348 2.105 . S
Sc332 O350 2.105 . S
O333 Sc330 2.025 . S
O333 Sc331 2.025 . S
O333 Sc332 2.025 . S
C334 O340 1.268 . S
C334 O350 1.268 . S
C335 O341 1.268 . S
C335 O349 1.268 . S
C336 O342 1.268 . S
C336 O351 1.268 . S
C337 O343 1.268 . S
C337 O347 1.268 . S
C338 O344 1.268 . S
C338 O346 1.268 . S
C339 O345 1.268 . S
C339 O348 1.268 . S
O340 Sc330 2.105 . S
O340 C334 1.268 . S
O341 Sc331 2.105 . S
O341 C335 1.268 . S
O342 Sc332 2.105 . S
O342 C336 1.268 . S
O343 Sc330 2.105 . S
O343 C337 1.268 . S
O344 Sc332 2.105 . S
O344 C338 1.268 . S
O345 Sc331 2.105 . S
O345 C339 1.268 . S
O346 Sc330 2.105 . S
O346 C338 1.268 . S
O347 Sc331 2.105 . S
O347 C337 1.268 . S
O348 Sc332 2.105 . S
O348 C339 1.268 . S
O349 Sc330 2.105 . S
O349 C335 1.268 . S
O350 Sc332 2.105 . S
O350 C334 1.268 . S
O351 Sc331 2.105 . S
O351 C336 1.268 . S
Sc352 O355 2.025 . S
Sc352 O362 2.105 . S
Sc352 O365 2.105 . S
Sc352 O368 2.105 . S
Sc352 O371 2.105 . S
Sc353 O355 2.025 . S
Sc353 O363 2.105 . S
Sc353 O367 2.105 . S
Sc353 O369 2.105 . S
Sc353 O373 2.105 . S
Sc354 O355 2.025 . S
Sc354 O364 2.105 . S
Sc354 O366 2.105 . S
Sc354 O370 2.105 . S
Sc354 O372 2.105 . S
O355 Sc352 2.025 . S
O355 Sc353 2.025 . S
O355 Sc354 2.025 . S
C356 O362 1.268 . S
C356 O372 1.268 . S
C357 O363 1.268 . S
C357 O371 1.268 . S
C358 O364 1.268 . S
C358 O373 1.268 . S
C359 O365 1.268 . S
C359 O369 1.268 . S
C360 O366 1.268 . S
C360 O368 1.268 . S
C361 O367 1.268 . S
C361 O370 1.268 . S
O362 Sc352 2.105 . S
O362 C356 1.268 . S
O363 Sc353 2.105 . S
O363 C357 1.268 . S
O364 Sc354 2.105 . S
O364 C358 1.268 . S
O365 Sc352 2.105 . S
O365 C359 1.268 . S
O366 Sc354 2.105 . S
O366 C360 1.268 . S
O367 Sc353 2.105 . S
O367 C361 1.268 . S
O368 Sc352 2.105 . S
O368 C360 1.268 . S
O369 Sc353 2.105 . S
O369 C359 1.268 . S
O370 Sc354 2.105 . S
O370 C361 1.268 . S
O371 Sc352 2.105 . S
O371 C357 1.268 . S
O372 Sc354 2.105 . S
O372 C356 1.268 . S
O373 Sc353 2.105 . S
O373 C358 1.268 . S
Sc374 O377 2.025 . S
Sc374 O384 2.105 . S
Sc374 O387 2.105 . S
Sc374 O390 2.105 . S
Sc374 O393 2.105 . S
Sc375 O377 2.025 . S
Sc375 O385 2.105 . S
Sc375 O389 2.105 . S
Sc375 O391 2.105 . S
Sc375 O395 2.105 . S
Sc376 O377 2.025 . S
Sc376 O386 2.105 . S
Sc376 O388 2.105 . S
Sc376 O392 2.105 . S
Sc376 O394 2.105 . S
O377 Sc374 2.025 . S
O377 Sc375 2.025 . S
O377 Sc376 2.025 . S
C378 O384 1.268 . S
C378 O394 1.268 . S
C379 O385 1.268 . S
C379 O393 1.268 . S
C380 O386 1.268 . S
C380 O395 1.268 . S
C381 O387 1.268 . S
C381 O391 1.268 . S
C382 O388 1.268 . S
C382 O390 1.268 . S
C383 O389 1.268 . S
C383 O392 1.268 . S
O384 Sc374 2.105 . S
O384 C378 1.268 . S
O385 Sc375 2.105 . S
O385 C379 1.268 . S
O386 Sc376 2.105 . S
O386 C380 1.268 . S
O387 Sc374 2.105 . S
O387 C381 1.268 . S
O388 Sc376 2.105 . S
O388 C382 1.268 . S
O389 Sc375 2.105 . S
O389 C383 1.268 . S
O390 Sc374 2.105 . S
O390 C382 1.268 . S
O391 Sc375 2.105 . S
O391 C381 1.268 . S
O392 Sc376 2.105 . S
O392 C383 1.268 . S
O393 Sc374 2.105 . S
O393 C379 1.268 . S
O394 Sc376 2.105 . S
O394 C378 1.268 . S
O395 Sc375 2.105 . S
O395 C380 1.268 . S
Sc396 O399 2.025 . S
Sc396 O406 2.105 . S
Sc396 O409 2.105 . S
Sc396 O412 2.105 . S
Sc396 O415 2.105 . S
Sc397 O399 2.025 . S
Sc397 O407 2.105 . S
Sc397 O411 2.105 . S
Sc397 O413 2.105 . S
Sc397 O417 2.105 . S
Sc398 O399 2.025 . S
Sc398 O408 2.105 . S
Sc398 O410 2.105 . S
Sc398 O414 2.105 . S
Sc398 O416 2.105 . S
O399 Sc396 2.025 . S
O399 Sc397 2.025 . S
O399 Sc398 2.025 . S
C400 O406 1.268 . S
C400 O416 1.268 . S
C401 O407 1.268 . S
C401 O415 1.268 . S
C402 O408 1.268 . S
C402 O417 1.268 . S
C403 O409 1.268 . S
C403 O413 1.268 . S
C404 O410 1.268 . S
C404 O412 1.268 . S
C405 O411 1.268 . S
C405 O414 1.268 . S
O406 Sc396 2.105 . S
O406 C400 1.268 . S
O407 Sc397 2.105 . S
O407 C401 1.268 . S
O408 Sc398 2.105 . S
O408 C402 1.268 . S
O409 Sc396 2.105 . S
O409 C403 1.268 . S
O410 Sc398 2.105 . S
O410 C404 1.268 . S
O411 Sc397 2.105 . S
O411 C405 1.268 . S
O412 Sc396 2.105 . S
O412 C404 1.268 . S
O413 Sc397 2.105 . S
O413 C403 1.268 . S
O414 Sc398 2.105 . S
O414 C405 1.268 . S
O415 Sc396 2.105 . S
O415 C401 1.268 . S
O416 Sc398 2.105 . S
O416 C400 1.268 . S
O417 Sc397 2.105 . S
O417 C402 1.268 . S
Sc418 O421 2.025 . S
Sc418 O428 2.105 . S
Sc418 O431 2.105 . S
Sc418 O434 2.105 . S
Sc418 O437 2.105 . S
Sc419 O421 2.025 . S
Sc419 O429 2.105 . S
Sc419 O433 2.105 . S
Sc419 O435 2.105 . S
Sc419 O439 2.105 . S
Sc420 O421 2.025 . S
Sc420 O430 2.105 . S
Sc420 O432 2.105 . S
Sc420 O436 2.105 . S
Sc420 O438 2.105 . S
O421 Sc418 2.025 . S
O421 Sc419 2.025 . S
O421 Sc420 2.025 . S
C422 O428 1.268 . S
C422 O438 1.268 . S
C423 O429 1.268 . S
C423 O437 1.268 . S
C424 O430 1.268 . S
C424 O439 1.268 . S
C425 O431 1.268 . S
C425 O435 1.268 . S
C426 O432 1.268 . S
C426 O434 1.268 . S
C427 O433 1.268 . S
C427 O436 1.268 . S
O428 Sc418 2.105 . S
O428 C422 1.268 . S
O429 Sc419 2.105 . S
O429 C423 1.268 . S
O430 Sc420 2.105 . S
O430 C424 1.268 . S
O431 Sc418 2.105 . S
O431 C425 1.268 . S
O432 Sc420 2.105 . S
O432 C426 1.268 . S
O433 Sc419 2.105 . S
O433 C427 1.268 . S
O434 Sc418 2.105 . S
O434 C426 1.268 . S
O435 Sc419 2.105 . S
O435 C425 1.268 . S
O436 Sc420 2.105 . S
O436 C427 1.268 . S
O437 Sc418 2.105 . S
O437 C423 1.268 . S
O438 Sc420 2.105 . S
O438 C422 1.268 . S
O439 Sc419 2.105 . S
O439 C424 1.268 . S
Sc440 O443 2.025 . S
Sc440 O450 2.105 . S
Sc440 O453 2.105 . S
Sc440 O456 2.105 . S
Sc440 O459 2.105 . S
Sc441 O443 2.025 . S
Sc441 O451 2.105 . S
Sc441 O455 2.105 . S
Sc441 O457 2.105 . S
Sc441 O461 2.105 . S
Sc442 O443 2.025 . S
Sc442 O452 2.105 . S
Sc442 O454 2.105 . S
Sc442 O458 2.105 . S
Sc442 O460 2.105 . S
O443 Sc440 2.025 . S
O443 Sc441 2.025 . S
O443 Sc442 2.025 . S
C444 O450 1.268 . S
C444 O460 1.268 . S
C445 O451 1.268 . S
C445 O459 1.268 . S
C446 O452 1.268 . S
C446 O461 1.268 . S
C447 O453 1.268 . S
C447 O457 1.268 . S
C448 O454 1.268 . S
C448 O456 1.268 . S
C449 O455 1.268 . S
C449 O458 1.268 . S
O450 Sc440 2.105 . S
O450 C444 1.268 . S
O451 Sc441 2.105 . S
O451 C445 1.268 . S
O452 Sc442 2.105 . S
O452 C446 1.268 . S
O453 Sc440 2.105 . S
O453 C447 1.268 . S
O454 Sc442 2.105 . S
O454 C448 1.268 . S
O455 Sc441 2.105 . S
O455 C449 1.268 . S
O456 Sc440 2.105 . S
O456 C448 1.268 . S
O457 Sc441 2.105 . S
O457 C447 1.268 . S
O458 Sc442 2.105 . S
O458 C449 1.268 . S
O459 Sc440 2.105 . S
O459 C445 1.268 . S
O460 Sc442 2.105 . S
O460 C444 1.268 . S
O461 Sc441 2.105 . S
O461 C446 1.268 . S
Sc462 O465 2.025 . S
Sc462 O472 2.105 . S
Sc462 O475 2.105 . S
Sc462 O478 2.105 . S
Sc462 O481 2.105 . S
Sc463 O465 2.025 . S
Sc463 O473 2.105 . S
Sc463 O477 2.105 . S
Sc463 O479 2.105 . S
Sc463 O483 2.105 . S
Sc464 O465 2.025 . S
Sc464 O474 2.105 . S
Sc464 O476 2.105 . S
Sc464 O480 2.105 . S
Sc464 O482 2.105 . S
O465 Sc462 2.025 . S
O465 Sc463 2.025 . S
O465 Sc464 2.025 . S
C466 O472 1.268 . S
C466 O482 1.268 . S
C467 O473 1.268 . S
C467 O481 1.268 . S
C468 O474 1.268 . S
C468 O483 1.268 . S
C469 O475 1.268 . S
C469 O479 1.268 . S
C470 O476 1.268 . S
C470 O478 1.268 . S
C471 O477 1.268 1_554 S
C471 O480 1.268 1_554 S
O472 Sc462 2.105 . S
O472 C466 1.268 . S
O473 Sc463 2.105 . S
O473 C467 1.268 . S
O474 Sc464 2.105 . S
O474 C468 1.268 . S
O475 Sc462 2.105 . S
O475 C469 1.268 . S
O476 Sc464 2.105 . S
O476 C470 1.268 . S
O477 Sc463 2.105 . S
O477 C471 1.268 1_556 S
O478 Sc462 2.105 . S
O478 C470 1.268 . S
O479 Sc463 2.105 . S
O479 C469 1.268 . S
O480 Sc464 2.105 . S
O480 C471 1.268 1_556 S
O481 Sc462 2.105 . S
O481 C467 1.268 . S
O482 Sc464 2.105 . S
O482 C466 1.268 . S
O483 Sc463 2.105 . S
O483 C468 1.268 . S
Sc484 O487 2.025 . S
Sc484 O494 2.105 . S
Sc484 O497 2.105 . S
Sc484 O500 2.105 . S
Sc484 O503 2.105 . S
Sc485 O487 2.025 . S
Sc485 O495 2.105 . S
Sc485 O499 2.105 . S
Sc485 O501 2.105 . S
Sc485 O505 2.105 . S
Sc486 O487 2.025 . S
Sc486 O496 2.105 . S
Sc486 O498 2.105 . S
Sc486 O502 2.105 . S
Sc486 O504 2.105 . S
O487 Sc484 2.025 . S
O487 Sc485 2.025 . S
O487 Sc486 2.025 . S
C488 O494 1.268 . S
C488 O504 1.268 . S
C489 O495 1.268 . S
C489 O503 1.268 . S
C490 O496 1.268 . S
C490 O505 1.268 . S
C491 O497 1.268 . S
C491 O501 1.268 . S
C492 O498 1.268 . S
C492 O500 1.268 . S
C493 O499 1.268 1_554 S
C493 O502 1.268 1_554 S
O494 Sc484 2.105 . S
O494 C488 1.268 . S
O495 Sc485 2.105 . S
O495 C489 1.268 . S
O496 Sc486 2.105 . S
O496 C490 1.268 . S
O497 Sc484 2.105 . S
O497 C491 1.268 . S
O498 Sc486 2.105 . S
O498 C492 1.268 . S
O499 Sc485 2.105 . S
O499 C493 1.268 1_556 S
O500 Sc484 2.105 . S
O500 C492 1.268 . S
O501 Sc485 2.105 . S
O501 C491 1.268 . S
O502 Sc486 2.105 . S
O502 C493 1.268 1_556 S
O503 Sc484 2.105 . S
O503 C489 1.268 . S
O504 Sc486 2.105 . S
O504 C488 1.268 . S
O505 Sc485 2.105 . S
O505 C490 1.268 . S
Sc506 O509 2.025 . S
Sc506 O516 2.105 . S
Sc506 O519 2.105 . S
Sc506 O522 2.105 . S
Sc506 O525 2.105 . S
Sc507 O509 2.025 . S
Sc507 O517 2.105 . S
Sc507 O521 2.105 . S
Sc507 O523 2.105 . S
Sc507 O527 2.105 . S
Sc508 O509 2.025 . S
Sc508 O518 2.105 . S
Sc508 O520 2.105 . S
Sc508 O524 2.105 . S
Sc508 O526 2.105 . S
O509 Sc506 2.025 . S
O509 Sc507 2.025 . S
O509 Sc508 2.025 . S
C510 O516 1.268 . S
C510 O526 1.268 . S
C511 O517 1.268 . S
C511 O525 1.268 . S
C512 O518 1.268 . S
C512 O527 1.268 . S
C513 O519 1.268 . S
C513 O523 1.268 . S
C514 O520 1.268 . S
C514 O522 1.268 . S
C515 O521 1.268 1_554 S
C515 O524 1.268 1_554 S
O516 Sc506 2.105 . S
O516 C510 1.268 . S
O517 Sc507 2.105 . S
O517 C511 1.268 . S
O518 Sc508 2.105 . S
O518 C512 1.268 . S
O519 Sc506 2.105 . S
O519 C513 1.268 . S
O520 Sc508 2.105 . S
O520 C514 1.268 . S
O521 Sc507 2.105 . S
O521 C515 1.268 1_556 S
O522 Sc506 2.105 . S
O522 C514 1.268 . S
O523 Sc507 2.105 . S
O523 C513 1.268 . S
O524 Sc508 2.105 . S
O524 C515 1.268 1_556 S
O525 Sc506 2.105 . S
O525 C511 1.268 . S
O526 Sc508 2.105 . S
O526 C510 1.268 . S
O527 Sc507 2.105 . S
O527 C512 1.268 . S
Sc528 O531 2.025 . S
Sc528 O538 2.105 . S
Sc528 O541 2.105 . S
Sc528 O544 2.105 . S
Sc528 O547 2.105 . S
Sc529 O531 2.025 . S
Sc529 O539 2.105 . S
Sc529 O543 2.105 . S
Sc529 O545 2.105 . S
Sc529 O549 2.105 . S
Sc530 O531 2.025 . S
Sc530 O540 2.105 . S
Sc530 O542 2.105 . S
Sc530 O546 2.105 . S
Sc530 O548 2.105 . S
O531 Sc528 2.025 . S
O531 Sc529 2.025 . S
O531 Sc530 2.025 . S
C532 O538 1.268 . S
C532 O548 1.268 . S
C533 O539 1.268 . S
C533 O547 1.268 . S
C534 O540 1.268 . S
C534 O549 1.268 . S
C535 O541 1.268 . S
C535 O545 1.268 . S
C536 O542 1.268 . S
C536 O544 1.268 . S
C537 O543 1.268 . S
C537 O546 1.268 . S
O538 Sc528 2.105 . S
O538 C532 1.268 . S
O539 Sc529 2.105 . S
O539 C533 1.268 . S
O540 Sc530 2.105 . S
O540 C534 1.268 . S
O541 Sc528 2.105 . S
O541 C535 1.268 . S
O542 Sc530 2.105 . S
O542 C536 1.268 . S
O543 Sc529 2.105 . S
O543 C537 1.268 . S
O544 Sc528 2.105 . S
O544 C536 1.268 . S
O545 Sc529 2.105 . S
O545 C535 1.268 . S
O546 Sc530 2.105 . S
O546 C537 1.268 . S
O547 Sc528 2.105 . S
O547 C533 1.268 . S
O548 Sc530 2.105 . S
O548 C532 1.268 . S
O549 Sc529 2.105 . S
O549 C534 1.268 . S
Sc550 O553 2.025 . S
Sc550 O560 2.105 . S
Sc550 O563 2.105 . S
Sc550 O566 2.105 . S
Sc550 O569 2.105 . S
Sc551 O553 2.025 . S
Sc551 O561 2.105 . S
Sc551 O565 2.105 . S
Sc551 O567 2.105 . S
Sc551 O571 2.105 . S
Sc552 O553 2.025 . S
Sc552 O562 2.105 . S
Sc552 O564 2.105 . S
Sc552 O568 2.105 . S
Sc552 O570 2.105 . S
O553 Sc550 2.025 . S
O553 Sc551 2.025 . S
O553 Sc552 2.025 . S
C554 O560 1.268 . S
C554 O570 1.268 . S
C555 O561 1.268 . S
C555 O569 1.268 . S
C556 O562 1.268 . S
C556 O571 1.268 . S
C557 O563 1.268 . S
C557 O567 1.268 . S
C558 O564 1.268 . S
C558 O566 1.268 . S
C559 O565 1.268 . S
C559 O568 1.268 . S
O560 Sc550 2.105 . S
O560 C554 1.268 . S
O561 Sc551 2.105 . S
O561 C555 1.268 . S
O562 Sc552 2.105 . S
O562 C556 1.268 . S
O563 Sc550 2.105 . S
O563 C557 1.268 . S
O564 Sc552 2.105 . S
O564 C558 1.268 . S
O565 Sc551 2.105 . S
O565 C559 1.268 . S
O566 Sc550 2.105 . S
O566 C558 1.268 . S
O567 Sc551 2.105 . S
O567 C557 1.268 . S
O568 Sc552 2.105 . S
O568 C559 1.268 . S
O569 Sc550 2.105 . S
O569 C555 1.268 . S
O570 Sc552 2.105 . S
O570 C554 1.268 . S
O571 Sc551 2.105 . S
O571 C556 1.268 . S
Sc572 O575 2.025 . S
Sc572 O582 2.105 . S
Sc572 O585 2.105 . S
Sc572 O588 2.105 . S
Sc572 O591 2.105 . S
Sc573 O575 2.025 . S
Sc573 O583 2.105 . S
Sc573 O587 2.105 . S
Sc573 O589 2.105 . S
Sc573 O593 2.105 . S
Sc574 O575 2.025 . S
Sc574 O584 2.105 . S
Sc574 O586 2.105 . S
Sc574 O590 2.105 . S
Sc574 O592 2.105 . S
O575 Sc572 2.025 . S
O575 Sc573 2.025 . S
O575 Sc574 2.025 . S
C576 O582 1.268 . S
C576 O592 1.268 . S
C577 O583 1.268 . S
C577 O591 1.268 . S
C578 O584 1.268 . S
C578 O593 1.268 . S
C579 O585 1.268 . S
C579 O589 1.268 . S
C580 O586 1.268 . S
C580 O588 1.268 . S
C581 O587 1.268 . S
C581 O590 1.268 . S
O582 Sc572 2.105 . S
O582 C576 1.268 . S
O583 Sc573 2.105 . S
O583 C577 1.268 . S
O584 Sc574 2.105 . S
O584 C578 1.268 . S
O585 Sc572 2.105 . S
O585 C579 1.268 . S
O586 Sc574 2.105 . S
O586 C580 1.268 . S
O587 Sc573 2.105 . S
O587 C581 1.268 . S
O588 Sc572 2.105 . S
O588 C580 1.268 . S
O589 Sc573 2.105 . S
O589 C579 1.268 . S
O590 Sc574 2.105 . S
O590 C581 1.268 . S
O591 Sc572 2.105 . S
O591 C577 1.268 . S
O592 Sc574 2.105 . S
O592 C576 1.268 . S
O593 Sc573 2.105 . S
O593 C578 1.268 . S
Sc594 O597 2.025 . S
Sc594 O604 2.105 . S
Sc594 O607 2.105 . S
Sc594 O610 2.105 . S
Sc594 O613 2.105 . S
Sc595 O597 2.025 . S
Sc595 O605 2.105 . S
Sc595 O609 2.105 . S
Sc595 O611 2.105 . S
Sc595 O615 2.105 . S
Sc596 O597 2.025 . S
Sc596 O606 2.105 . S
Sc596 O608 2.105 . S
Sc596 O612 2.105 . S
Sc596 O614 2.105 . S
O597 Sc594 2.025 . S
O597 Sc595 2.025 . S
O597 Sc596 2.025 . S
C598 O604 1.268 . S
C598 O614 1.268 . S
C599 O605 1.268 . S
C599 O613 1.268 . S
C600 O606 1.268 . S
C600 O615 1.268 . S
C601 O607 1.268 1_556 S
C601 O611 1.268 1_556 S
C602 O608 1.268 . S
C602 O610 1.268 . S
C603 O609 1.268 . S
C603 O612 1.268 . S
O604 Sc594 2.105 . S
O604 C598 1.268 . S
O605 Sc595 2.105 . S
O605 C599 1.268 . S
O606 Sc596 2.105 . S
O606 C600 1.268 . S
O607 Sc594 2.105 . S
O607 C601 1.268 1_554 S
O608 Sc596 2.105 . S
O608 C602 1.268 . S
O609 Sc595 2.105 . S
O609 C603 1.268 . S
O610 Sc594 2.105 . S
O610 C602 1.268 . S
O611 Sc595 2.105 . S
O611 C601 1.268 1_554 S
O612 Sc596 2.105 . S
O612 C603 1.268 . S
O613 Sc594 2.105 . S
O613 C599 1.268 . S
O614 Sc596 2.105 . S
O614 C598 1.268 . S
O615 Sc595 2.105 . S
O615 C600 1.268 . S
Sc616 O619 2.025 . S
Sc616 O626 2.105 . S
Sc616 O629 2.105 . S
Sc616 O632 2.105 . S
Sc616 O635 2.105 . S
Sc617 O619 2.025 . S
Sc617 O627 2.105 . S
Sc617 O631 2.105 . S
Sc617 O633 2.105 . S
Sc617 O637 2.105 . S
Sc618 O619 2.025 . S
Sc618 O628 2.105 . S
Sc618 O630 2.105 . S
Sc618 O634 2.105 . S
Sc618 O636 2.105 . S
O619 Sc616 2.025 . S
O619 Sc617 2.025 . S
O619 Sc618 2.025 . S
C620 O626 1.268 . S
C620 O636 1.268 . S
C621 O627 1.268 . S
C621 O635 1.268 . S
C622 O628 1.268 . S
C622 O637 1.268 . S
C623 O629 1.268 1_556 S
C623 O633 1.268 1_556 S
C624 O630 1.268 . S
C624 O632 1.268 . S
C625 O631 1.268 . S
C625 O634 1.268 . S
O626 Sc616 2.105 . S
O626 C620 1.268 . S
O627 Sc617 2.105 . S
O627 C621 1.268 . S
O628 Sc618 2.105 . S
O628 C622 1.268 . S
O629 Sc616 2.105 . S
O629 C623 1.268 1_554 S
O630 Sc618 2.105 . S
O630 C624 1.268 . S
O631 Sc617 2.105 . S
O631 C625 1.268 . S
O632 Sc616 2.105 . S
O632 C624 1.268 . S
O633 Sc617 2.105 . S
O633 C623 1.268 1_554 S
O634 Sc618 2.105 . S
O634 C625 1.268 . S
O635 Sc616 2.105 . S
O635 C621 1.268 . S
O636 Sc618 2.105 . S
O636 C620 1.268 . S
O637 Sc617 2.105 . S
O637 C622 1.268 . S
Sc638 O641 2.025 . S
Sc638 O648 2.105 . S
Sc638 O651 2.105 . S
Sc638 O654 2.105 . S
Sc638 O657 2.105 . S
Sc639 O641 2.025 . S
Sc639 O649 2.105 . S
Sc639 O653 2.105 . S
Sc639 O655 2.105 . S
Sc639 O659 2.105 . S
Sc640 O641 2.025 . S
Sc640 O650 2.105 . S
Sc640 O652 2.105 . S
Sc640 O656 2.105 . S
Sc640 O658 2.105 . S
O641 Sc638 2.025 . S
O641 Sc639 2.025 . S
O641 Sc640 2.025 . S
C642 O648 1.268 . S
C642 O658 1.268 . S
C643 O649 1.268 . S
C643 O657 1.268 . S
C644 O650 1.268 . S
C644 O659 1.268 . S
C645 O651 1.268 1_556 S
C645 O655 1.268 1_556 S
C646 O652 1.268 . S
C646 O654 1.268 . S
C647 O653 1.268 . S
C647 O656 1.268 . S
O648 Sc638 2.105 . S
O648 C642 1.268 . S
O649 Sc639 2.105 . S
O649 C643 1.268 . S
O650 Sc640 2.105 . S
O650 C644 1.268 . S
O651 Sc638 2.105 . S
O651 C645 1.268 1_554 S
O652 Sc640 2.105 . S
O652 C646 1.268 . S
O653 Sc639 2.105 . S
O653 C647 1.268 . S
O654 Sc638 2.105 . S
O654 C646 1.268 . S
O655 Sc639 2.105 . S
O655 C645 1.268 1_554 S
O656 Sc640 2.105 . S
O656 C647 1.268 . S
O657 Sc638 2.105 . S
O657 C643 1.268 . S
O658 Sc640 2.105 . S
O658 C642 1.268 . S
O659 Sc639 2.105 . S
O659 C644 1.268 . S
Sc660 O663 2.025 . S
Sc660 O670 2.105 . S
Sc660 O673 2.105 . S
Sc660 O676 2.105 . S
Sc660 O679 2.105 . S
Sc661 O663 2.025 . S
Sc661 O671 2.105 . S
Sc661 O675 2.105 . S
Sc661 O677 2.105 . S
Sc661 O681 2.105 . S
Sc662 O663 2.025 . S
Sc662 O672 2.105 . S
Sc662 O674 2.105 . S
Sc662 O678 2.105 . S
Sc662 O680 2.105 . S
O663 Sc660 2.025 . S
O663 Sc661 2.025 . S
O663 Sc662 2.025 . S
C664 O670 1.268 . S
C664 O680 1.268 . S
C665 O671 1.268 . S
C665 O679 1.268 . S
C666 O672 1.268 . S
C666 O681 1.268 . S
C667 O673 1.268 . S
C667 O677 1.268 . S
C668 O674 1.268 . S
C668 O676 1.268 . S
C669 O675 1.268 . S
C669 O678 1.268 . S
O670 Sc660 2.105 . S
O670 C664 1.268 . S
O671 Sc661 2.105 . S
O671 C665 1.268 . S
O672 Sc662 2.105 . S
O672 C666 1.268 . S
O673 Sc660 2.105 . S
O673 C667 1.268 . S
O674 Sc662 2.105 . S
O674 C668 1.268 . S
O675 Sc661 2.105 . S
O675 C669 1.268 . S
O676 Sc660 2.105 . S
O676 C668 1.268 . S
O677 Sc661 2.105 . S
O677 C667 1.268 . S
O678 Sc662 2.105 . S
O678 C669 1.268 . S
O679 Sc660 2.105 . S
O679 C665 1.268 . S
O680 Sc662 2.105 . S
O680 C664 1.268 . S
O681 Sc661 2.105 . S
O681 C666 1.268 . S
Sc682 O685 2.025 . S
Sc682 O692 2.105 . S
Sc682 O695 2.105 . S
Sc682 O698 2.105 . S
Sc682 O701 2.105 . S
Sc683 O685 2.025 . S
Sc683 O693 2.105 . S
Sc683 O697 2.105 . S
Sc683 O699 2.105 . S
Sc683 O703 2.105 . S
Sc684 O685 2.025 . S
Sc684 O694 2.105 . S
Sc684 O696 2.105 . S
Sc684 O700 2.105 . S
Sc684 O702 2.105 . S
O685 Sc682 2.025 . S
O685 Sc683 2.025 . S
O685 Sc684 2.025 . S
C686 O692 1.268 . S
C686 O702 1.268 . S
C687 O693 1.268 . S
C687 O701 1.268 . S
C688 O694 1.268 . S
C688 O703 1.268 . S
C689 O695 1.268 . S
C689 O699 1.268 . S
C690 O696 1.268 . S
C690 O698 1.268 . S
C691 O697 1.268 . S
C691 O700 1.268 . S
O692 Sc682 2.105 . S
O692 C686 1.268 . S
O693 Sc683 2.105 . S
O693 C687 1.268 . S
O694 Sc684 2.105 . S
O694 C688 1.268 . S
O695 Sc682 2.105 . S
O695 C689 1.268 . S
O696 Sc684 2.105 . S
O696 C690 1.268 . S
O697 Sc683 2.105 . S
O697 C691 1.268 . S
O698 Sc682 2.105 . S
O698 C690 1.268 . S
O699 Sc683 2.105 . S
O699 C689 1.268 . S
O700 Sc684 2.105 . S
O700 C691 1.268 . S
O701 Sc682 2.105 . S
O701 C687 1.268 . S
O702 Sc684 2.105 . S
O702 C686 1.268 . S
O703 Sc683 2.105 . S
O703 C688 1.268 . S
Sc704 O707 2.025 . S
Sc704 O714 2.105 . S
Sc704 O717 2.105 . S
Sc704 O720 2.105 . S
Sc704 O723 2.105 . S
Sc705 O707 2.025 . S
Sc705 O715 2.105 . S
Sc705 O719 2.105 . S
Sc705 O721 2.105 . S
Sc705 O725 2.105 . S
Sc706 O707 2.025 . S
Sc706 O716 2.105 . S
Sc706 O718 2.105 . S
Sc706 O722 2.105 . S
Sc706 O724 2.105 . S
O707 Sc704 2.025 . S
O707 Sc705 2.025 . S
O707 Sc706 2.025 . S
C708 O714 1.268 . S
C708 O724 1.268 . S
C709 O715 1.268 . S
C709 O723 1.268 . S
C710 O716 1.268 . S
C710 O725 1.268 . S
C711 O717 1.268 . S
C711 O721 1.268 . S
C712 O718 1.268 . S
C712 O720 1.268 . S
C713 O719 1.268 . S
C713 O722 1.268 . S
O714 Sc704 2.105 . S
O714 C708 1.268 . S
O715 Sc705 2.105 . S
O715 C709 1.268 . S
O716 Sc706 2.105 . S
O716 C710 1.268 . S
O717 Sc704 2.105 . S
O717 C711 1.268 . S
O718 Sc706 2.105 . S
O718 C712 1.268 . S
O719 Sc705 2.105 . S
O719 C713 1.268 . S
O720 Sc704 2.105 . S
O720 C712 1.268 . S
O721 Sc705 2.105 . S
O721 C711 1.268 . S
O722 Sc706 2.105 . S
O722 C713 1.268 . S
O723 Sc704 2.105 . S
O723 C709 1.268 . S
O724 Sc706 2.105 . S
O724 C708 1.268 . S
O725 Sc705 2.105 . S
O725 C710 1.268 . S
Sc726 O729 2.025 . S
Sc726 O736 2.105 . S
Sc726 O739 2.105 . S
Sc726 O742 2.105 . S
Sc726 O745 2.105 . S
Sc727 O729 2.025 . S
Sc727 O737 2.105 . S
Sc727 O741 2.105 . S
Sc727 O743 2.105 . S
Sc727 O747 2.105 . S
Sc728 O729 2.025 . S
Sc728 O738 2.105 . S
Sc728 O740 2.105 . S
Sc728 O744 2.105 . S
Sc728 O746 2.105 . S
O729 Sc726 2.025 . S
O729 Sc727 2.025 . S
O729 Sc728 2.025 . S
C730 O736 1.268 . S
C730 O746 1.268 . S
C731 O737 1.268 . S
C731 O745 1.268 . S
C732 O738 1.268 . S
C732 O747 1.268 . S
C733 O739 1.268 . S
C733 O743 1.268 . S
C734 O740 1.268 . S
C734 O742 1.268 . S
C735 O741 1.268 . S
C735 O744 1.268 . S
O736 Sc726 2.105 . S
O736 C730 1.268 . S
O737 Sc727 2.105 . S
O737 C731 1.268 . S
O738 Sc728 2.105 . S
O738 C732 1.268 . S
O739 Sc726 2.105 . S
O739 C733 1.268 . S
O740 Sc728 2.105 . S
O740 C734 1.268 . S
O741 Sc727 2.105 . S
O741 C735 1.268 . S
O742 Sc726 2.105 . S
O742 C734 1.268 . S
O743 Sc727 2.105 . S
O743 C733 1.268 . S
O744 Sc728 2.105 . S
O744 C735 1.268 . S
O745 Sc726 2.105 . S
O745 C731 1.268 . S
O746 Sc728 2.105 . S
O746 C730 1.268 . S
O747 Sc727 2.105 . S
O747 C732 1.268 . S
Sc748 O751 2.025 . S
Sc748 O758 2.105 . S
Sc748 O761 2.105 . S
Sc748 O764 2.105 . S
Sc748 O767 2.105 . S
Sc749 O751 2.025 . S
Sc749 O759 2.105 . S
Sc749 O763 2.105 . S
Sc749 O765 2.105 . S
Sc749 O769 2.105 . S
Sc750 O751 2.025 . S
Sc750 O760 2.105 . S
Sc750 O762 2.105 . S
Sc750 O766 2.105 . S
Sc750 O768 2.105 . S
O751 Sc748 2.025 . S
O751 Sc749 2.025 . S
O751 Sc750 2.025 . S
C752 O758 1.268 . S
C752 O768 1.268 . S
C753 O759 1.268 . S
C753 O767 1.268 . S
C754 O760 1.268 . S
C754 O769 1.268 . S
C755 O761 1.268 . S
C755 O765 1.268 . S
C756 O762 1.268 . S
C756 O764 1.268 . S
C757 O763 1.268 . S
C757 O766 1.268 . S
O758 Sc748 2.105 . S
O758 C752 1.268 . S
O759 Sc749 2.105 . S
O759 C753 1.268 . S
O760 Sc750 2.105 . S
O760 C754 1.268 . S
O761 Sc748 2.105 . S
O761 C755 1.268 . S
O762 Sc750 2.105 . S
O762 C756 1.268 . S
O763 Sc749 2.105 . S
O763 C757 1.268 . S
O764 Sc748 2.105 . S
O764 C756 1.268 . S
O765 Sc749 2.105 . S
O765 C755 1.268 . S
O766 Sc750 2.105 . S
O766 C757 1.268 . S
O767 Sc748 2.105 . S
O767 C753 1.268 . S
O768 Sc750 2.105 . S
O768 C752 1.268 . S
O769 Sc749 2.105 . S
O769 C754 1.268 . S
Sc770 O773 2.025 . S
Sc770 O780 2.105 . S
Sc770 O783 2.105 . S
Sc770 O786 2.105 . S
Sc770 O789 2.105 . S
Sc771 O773 2.025 . S
Sc771 O781 2.105 . S
Sc771 O785 2.105 . S
Sc771 O787 2.105 . S
Sc771 O791 2.105 . S
Sc772 O773 2.025 . S
Sc772 O782 2.105 . S
Sc772 O784 2.105 . S
Sc772 O788 2.105 . S
Sc772 O790 2.105 . S
O773 Sc770 2.025 . S
O773 Sc771 2.025 . S
O773 Sc772 2.025 . S
C774 O780 1.268 . S
C774 O790 1.268 . S
C775 O781 1.268 . S
C775 O789 1.268 . S
C776 O782 1.268 . S
C776 O791 1.268 . S
C777 O783 1.268 . S
C777 O787 1.268 . S
C778 O784 1.268 . S
C778 O786 1.268 . S
C779 O785 1.268 . S
C779 O788 1.268 . S
O780 Sc770 2.105 . S
O780 C774 1.268 . S
O781 Sc771 2.105 . S
O781 C775 1.268 . S
O782 Sc772 2.105 . S
O782 C776 1.268 . S
O783 Sc770 2.105 . S
O783 C777 1.268 . S
O784 Sc772 2.105 . S
O784 C778 1.268 . S
O785 Sc771 2.105 . S
O785 C779 1.268 . S
O786 Sc770 2.105 . S
O786 C778 1.268 . S
O787 Sc771 2.105 . S
O787 C777 1.268 . S
O788 Sc772 2.105 . S
O788 C779 1.268 . S
O789 Sc770 2.105 . S
O789 C775 1.268 . S
O790 Sc772 2.105 . S
O790 C774 1.268 . S
O791 Sc771 2.105 . S
O791 C776 1.268 . S
C792 C793 1.369 . S
C792 C794 1.419 . S
C792 H796 0.930 . S
C793 C792 1.369 . S
C793 C802 1.429 1_556 S
C794 C792 1.419 . S
C794 C795 1.363 . S
C794 H797 0.929 . S
C795 C794 1.363 . S
C795 C801 1.430 1_556 S
H796 C792 0.930 . S
H797 C794 0.929 . S
S798 N799 1.613 . S
S798 N800 1.610 . S
N799 S798 1.613 . S
N799 C802 1.350 . S
N800 S798 1.610 . S
N800 C801 1.350 . S
C801 C795 1.430 1_554 S
C801 N800 1.350 . S
C801 C802 1.433 . S
C802 C793 1.429 1_554 S
C802 N799 1.350 . S
C802 C801 1.433 . S
C803 C804 1.369 . S
C803 C805 1.419 . S
C803 H807 0.930 . S
C804 C803 1.369 . S
C804 C813 1.429 . S
C805 C803 1.419 . S
C805 C806 1.363 . S
C805 H808 0.929 . S
C806 C805 1.363 . S
C806 C812 1.428 . S
H807 C803 0.930 . S
H808 C805 0.929 . S
S809 N810 1.613 . S
S809 N811 1.610 . S
N810 S809 1.613 . S
N810 C813 1.350 . S
N811 S809 1.610 . S
N811 C812 1.351 . S
C812 C806 1.428 . S
C812 N811 1.351 . S
C812 C813 1.434 . S
C813 C804 1.429 . S
C813 N810 1.350 . S
C813 C812 1.434 . S
C814 C815 1.369 . S
C814 C816 1.419 . S
C814 H818 0.930 . S
C815 C814 1.369 . S
C815 C824 1.429 . S
C816 C814 1.419 . S
C816 C817 1.363 . S
C816 H819 0.929 . S
C817 C816 1.363 . S
C817 C823 1.428 . S
H818 C814 0.930 . S
H819 C816 0.929 . S
S820 N821 1.613 1_554 S
S820 N822 1.610 . S
N821 S820 1.613 1_556 S
N821 C824 1.350 . S
N822 S820 1.610 . S
N822 C823 1.351 1_554 S
C823 C817 1.428 . S
C823 N822 1.351 1_556 S
C823 C824 1.434 . S
C824 C815 1.429 . S
C824 N821 1.350 . S
C824 C823 1.434 . S
C825 C826 1.369 . S
C825 C827 1.419 . S
C825 H829 0.930 . S
C826 C825 1.369 . S
C826 C835 1.429 . S
C827 C825 1.419 . S
C827 C828 1.363 . S
C827 H830 0.929 . S
C828 C827 1.363 . S
C828 C834 1.428 . S
H829 C825 0.930 . S
H830 C827 0.929 . S
S831 N832 1.613 . S
S831 N833 1.610 . S
N832 S831 1.613 . S
N832 C835 1.350 . S
N833 S831 1.610 . S
N833 C834 1.351 . S
C834 C828 1.428 . S
C834 N833 1.351 . S
C834 C835 1.434 . S
C835 C826 1.429 . S
C835 N832 1.350 . S
C835 C834 1.434 . S
C836 C837 1.369 . S
C836 C838 1.419 . S
C836 H840 0.930 . S
C837 C836 1.369 . S
C837 C846 1.429 . S
C838 C836 1.419 . S
C838 C839 1.363 . S
C838 H841 0.929 . S
C839 C838 1.363 . S
C839 C845 1.428 . S
H840 C836 0.930 . S
H841 C838 0.929 . S
S842 N843 1.613 . S
S842 N844 1.610 . S
N843 S842 1.613 . S
N843 C846 1.350 . S
N844 S842 1.610 . S
N844 C845 1.351 . S
C845 C839 1.428 . S
C845 N844 1.351 . S
C845 C846 1.434 . S
C846 C837 1.429 . S
C846 N843 1.350 . S
C846 C845 1.434 . S
C847 C848 1.369 . S
C847 C849 1.419 . S
C847 H851 0.930 . S
C848 C847 1.369 . S
C848 C857 1.429 . S
C849 C847 1.419 . S
C849 C850 1.363 . S
C849 H852 0.929 . S
C850 C849 1.363 . S
C850 C856 1.428 . S
H851 C847 0.930 . S
H852 C849 0.929 . S
S853 N854 1.613 . S
S853 N855 1.610 . S
N854 S853 1.613 . S
N854 C857 1.350 . S
N855 S853 1.610 . S
N855 C856 1.351 . S
C856 C850 1.428 . S
C856 N855 1.351 . S
C856 C857 1.434 . S
C857 C848 1.429 . S
C857 N854 1.350 . S
C857 C856 1.434 . S
C858 C859 1.369 . S
C858 C860 1.419 . S
C858 H862 0.930 . S
C859 C858 1.369 . S
C859 C868 1.429 . S
C860 C858 1.419 . S
C860 C861 1.363 . S
C860 H863 0.929 . S
C861 C860 1.363 . S
C861 C867 1.428 . S
H862 C858 0.930 . S
H863 C860 0.929 . S
S864 N865 1.613 . S
S864 N866 1.610 . S
N865 S864 1.613 . S
N865 C868 1.350 . S
N866 S864 1.610 . S
N866 C867 1.351 . S
C867 C861 1.428 . S
C867 N866 1.351 . S
C867 C868 1.434 . S
C868 C859 1.429 . S
C868 N865 1.350 . S
C868 C867 1.434 . S
C869 C870 1.369 1_556 S
C869 C871 1.419 1_556 S
C869 H873 0.930 . S
C870 C869 1.369 1_554 S
C870 C879 1.429 . S
C871 C869 1.419 1_554 S
C871 C872 1.363 . S
C871 H874 0.929 1_554 S
C872 C871 1.363 . S
C872 C878 1.428 . S
H873 C869 0.930 . S
H874 C871 0.929 1_556 S
S875 N876 1.613 . S
S875 N877 1.610 . S
N876 S875 1.613 . S
N876 C879 1.350 . S
N877 S875 1.610 . S
N877 C878 1.351 . S
C878 C872 1.428 . S
C878 N877 1.351 . S
C878 C879 1.434 . S
C879 C870 1.429 . S
C879 N876 1.350 . S
C879 C878 1.434 . S
C880 C881 1.369 . S
C880 C882 1.419 . S
C880 H884 0.930 . S
C881 C880 1.369 . S
C881 C890 1.429 . S
C882 C880 1.419 . S
C882 C883 1.363 . S
C882 H885 0.929 . S
C883 C882 1.363 . S
C883 C889 1.428 . S
H884 C880 0.930 . S
H885 C882 0.929 . S
S886 N887 1.613 . S
S886 N888 1.610 . S
N887 S886 1.613 . S
N887 C890 1.350 . S
N888 S886 1.610 . S
N888 C889 1.351 . S
C889 C883 1.428 . S
C889 N888 1.351 . S
C889 C890 1.434 . S
C890 C881 1.429 . S
C890 N887 1.350 . S
C890 C889 1.434 . S
C891 C892 1.369 . S
C891 C893 1.419 . S
C891 H895 0.930 . S
C892 C891 1.369 . S
C892 C901 1.429 . S
C893 C891 1.419 . S
C893 C894 1.363 . S
C893 H896 0.929 . S
C894 C893 1.363 . S
C894 C900 1.428 . S
H895 C891 0.930 . S
H896 C893 0.929 . S
S897 N898 1.613 . S
S897 N899 1.610 . S
N898 S897 1.613 . S
N898 C901 1.350 . S
N899 S897 1.610 . S
N899 C900 1.351 . S
C900 C894 1.428 . S
C900 N899 1.351 . S
C900 C901 1.434 . S
C901 C892 1.429 . S
C901 N898 1.350 . S
C901 C900 1.434 . S
C902 C903 1.369 . S
C902 C904 1.419 . S
C902 H906 0.930 . S
C903 C902 1.369 . S
C903 C912 1.429 . S
C904 C902 1.419 . S
C904 C905 1.363 . S
C904 H907 0.929 . S
C905 C904 1.363 . S
C905 C911 1.428 . S
H906 C902 0.930 . S
H907 C904 0.929 . S
S908 N909 1.613 . S
S908 N910 1.610 . S
N909 S908 1.613 . S
N909 C912 1.350 . S
N910 S908 1.610 . S
N910 C911 1.351 . S
C911 C905 1.428 . S
C911 N910 1.351 . S
C911 C912 1.434 . S
C912 C903 1.429 . S
C912 N909 1.350 . S
C912 C911 1.434 . S
C913 C914 1.369 . S
C913 C915 1.419 . S
C913 H917 0.930 . S
C914 C913 1.369 . S
C914 C923 1.429 . S
C915 C913 1.419 . S
C915 C916 1.363 . S
C915 H918 0.929 . S
C916 C915 1.363 . S
C916 C922 1.428 . S
H917 C913 0.930 . S
H918 C915 0.929 . S
S919 N920 1.613 . S
S919 N921 1.610 . S
N920 S919 1.613 . S
N920 C923 1.350 . S
N921 S919 1.610 . S
N921 C922 1.351 . S
C922 C916 1.428 . S
C922 N921 1.351 . S
C922 C923 1.434 . S
C923 C914 1.429 . S
C923 N920 1.350 . S
C923 C922 1.434 . S
C924 C925 1.369 . S
C924 C926 1.419 . S
C924 H928 0.930 . S
C925 C924 1.369 . S
C925 C934 1.429 . S
C926 C924 1.419 . S
C926 C927 1.363 . S
C926 H929 0.929 . S
C927 C926 1.363 . S
C927 C933 1.428 . S
H928 C924 0.930 . S
H929 C926 0.929 . S
S930 N931 1.613 . S
S930 N932 1.610 . S
N931 S930 1.613 . S
N931 C934 1.350 . S
N932 S930 1.610 . S
N932 C933 1.351 . S
C933 C927 1.428 . S
C933 N932 1.351 . S
C933 C934 1.434 . S
C934 C925 1.429 . S
C934 N931 1.350 . S
C934 C933 1.434 . S
C935 C936 1.369 . S
C935 C937 1.419 . S
C935 H939 0.930 . S
C936 C935 1.369 . S
C936 C945 1.429 . S
C937 C935 1.419 . S
C937 C938 1.363 . S
C937 H940 0.929 . S
C938 C937 1.363 . S
C938 C944 1.428 . S
H939 C935 0.930 . S
H940 C937 0.929 . S
S941 N942 1.613 . S
S941 N943 1.610 . S
N942 S941 1.613 . S
N942 C945 1.350 . S
N943 S941 1.610 . S
N943 C944 1.351 . S
C944 C938 1.428 . S
C944 N943 1.351 . S
C944 C945 1.434 . S
C945 C936 1.429 . S
C945 N942 1.350 . S
C945 C944 1.434 . S
C946 C947 1.369 . S
C946 C948 1.419 . S
C946 H950 0.930 . S
C947 C946 1.369 . S
C947 C956 1.429 . S
C948 C946 1.419 . S
C948 C949 1.363 . S
C948 H951 0.929 . S
C949 C948 1.363 . S
C949 C955 1.428 . S
H950 C946 0.930 . S
H951 C948 0.929 . S
S952 N953 1.613 . S
S952 N954 1.610 . S
N953 S952 1.613 . S
N953 C956 1.350 . S
N954 S952 1.610 . S
N954 C955 1.351 . S
C955 C949 1.428 . S
C955 N954 1.351 . S
C955 C956 1.434 . S
C956 C947 1.429 . S
C956 N953 1.350 . S
C956 C955 1.434 . S
C957 C958 1.369 . S
C957 C959 1.419 . S
C957 H961 0.930 . S
C958 C957 1.369 . S
C958 C967 1.429 . S
C959 C957 1.419 . S
C959 C960 1.363 . S
C959 H962 0.929 . S
C960 C959 1.363 . S
C960 C966 1.428 . S
H961 C957 0.930 . S
H962 C959 0.929 . S
S963 N964 1.613 . S
S963 N965 1.610 . S
N964 S963 1.613 . S
N964 C967 1.350 . S
N965 S963 1.610 . S
N965 C966 1.351 . S
C966 C960 1.428 . S
C966 N965 1.351 . S
C966 C967 1.434 . S
C967 C958 1.429 . S
C967 N964 1.350 . S
C967 C966 1.434 . S
C968 C969 1.369 . S
C968 C970 1.419 . S
C968 H972 0.930 . S
C969 C968 1.369 . S
C969 C978 1.429 . S
C970 C968 1.419 . S
C970 C971 1.363 . S
C970 H973 0.929 . S
C971 C970 1.363 . S
C971 C977 1.428 . S
H972 C968 0.930 . S
H973 C970 0.929 . S
S974 N975 1.613 . S
S974 N976 1.610 . S
N975 S974 1.613 . S
N975 C978 1.350 . S
N976 S974 1.610 . S
N976 C977 1.351 . S
C977 C971 1.428 . S
C977 N976 1.351 . S
C977 C978 1.434 . S
C978 C969 1.429 . S
C978 N975 1.350 . S
C978 C977 1.434 . S
C979 C980 1.369 . S
C979 C981 1.419 . S
C979 H983 0.930 . S
C980 C979 1.369 . S
C980 C989 1.429 . S
C981 C979 1.419 . S
C981 C982 1.363 . S
C981 H984 0.929 . S
C982 C981 1.363 . S
C982 C988 1.428 . S
H983 C979 0.930 . S
H984 C981 0.929 . S
S985 N986 1.613 . S
S985 N987 1.610 . S
N986 S985 1.613 . S
N986 C989 1.350 . S
N987 S985 1.610 . S
N987 C988 1.351 . S
C988 C982 1.428 . S
C988 N987 1.351 . S
C988 C989 1.434 . S
C989 C980 1.429 . S
C989 N986 1.350 . S
C989 C988 1.434 . S
C990 C991 1.369 . S
C990 C992 1.419 . S
C990 H994 0.930 . S
C991 C990 1.369 . S
C991 C1000 1.429 . S
C992 C990 1.419 . S
C992 C993 1.363 . S
C992 H995 0.929 . S
C993 C992 1.363 . S
C993 C999 1.428 . S
H994 C990 0.930 . S
H995 C992 0.929 . S
S996 N997 1.613 . S
S996 N998 1.610 . S
N997 S996 1.613 . S
N997 C1000 1.350 . S
N998 S996 1.610 . S
N998 C999 1.351 . S
C999 C993 1.428 . S
C999 N998 1.351 . S
C999 C1000 1.434 . S
C1000 C991 1.429 . S
C1000 N997 1.350 . S
C1000 C999 1.434 . S
C1001 C1002 1.369 . S
C1001 C1003 1.419 . S
C1001 H1005 0.930 . S
C1002 C1001 1.369 . S
C1002 C1011 1.429 . S
C1003 C1001 1.419 . S
C1003 C1004 1.363 . S
C1003 H1006 0.929 . S
C1004 C1003 1.363 . S
C1004 C1010 1.428 . S
H1005 C1001 0.930 . S
H1006 C1003 0.929 . S
S1007 N1008 1.613 . S
S1007 N1009 1.610 . S
N1008 S1007 1.613 . S
N1008 C1011 1.350 . S
N1009 S1007 1.610 . S
N1009 C1010 1.351 . S
C1010 C1004 1.428 . S
C1010 N1009 1.351 . S
C1010 C1011 1.434 . S
C1011 C1002 1.429 . S
C1011 N1008 1.350 . S
C1011 C1010 1.434 . S
C1012 C1013 1.369 . S
C1012 C1014 1.419 . S
C1012 H1016 0.930 . S
C1013 C1012 1.369 . S
C1013 C1022 1.429 . S
C1014 C1012 1.419 . S
C1014 C1015 1.363 . S
C1014 H1017 0.929 . S
C1015 C1014 1.363 . S
C1015 C1021 1.428 . S
H1016 C1012 0.930 . S
H1017 C1014 0.929 . S
S1018 N1019 1.613 . S
S1018 N1020 1.610 . S
N1019 S1018 1.613 . S
N1019 C1022 1.350 . S
N1020 S1018 1.610 . S
N1020 C1021 1.351 . S
C1021 C1015 1.428 . S
C1021 N1020 1.351 . S
C1021 C1022 1.434 . S
C1022 C1013 1.429 . S
C1022 N1019 1.350 . S
C1022 C1021 1.434 . S
C1023 C1024 1.369 . S
C1023 C1025 1.419 . S
C1023 H1027 0.930 . S
C1024 C1023 1.369 . S
C1024 C1033 1.429 . S
C1025 C1023 1.419 . S
C1025 C1026 1.363 . S
C1025 H1028 0.929 . S
C1026 C1025 1.363 . S
C1026 C1032 1.428 . S
H1027 C1023 0.930 . S
H1028 C1025 0.929 . S
S1029 N1030 1.613 . S
S1029 N1031 1.610 . S
N1030 S1029 1.613 . S
N1030 C1033 1.350 . S
N1031 S1029 1.610 . S
N1031 C1032 1.351 . S
C1032 C1026 1.428 . S
C1032 N1031 1.351 . S
C1032 C1033 1.434 . S
C1033 C1024 1.429 . S
C1033 N1030 1.350 . S
C1033 C1032 1.434 . S
C1034 C1035 1.369 . S
C1034 C1036 1.419 . S
C1034 H1038 0.930 . S
C1035 C1034 1.369 . S
C1035 C1044 1.429 . S
C1036 C1034 1.419 . S
C1036 C1037 1.363 . S
C1036 H1039 0.929 . S
C1037 C1036 1.363 . S
C1037 C1043 1.428 . S
H1038 C1034 0.930 . S
H1039 C1036 0.929 . S
S1040 N1041 1.613 . S
S1040 N1042 1.610 . S
N1041 S1040 1.613 . S
N1041 C1044 1.350 . S
N1042 S1040 1.610 . S
N1042 C1043 1.351 . S
C1043 C1037 1.428 . S
C1043 N1042 1.351 . S
C1043 C1044 1.434 . S
C1044 C1035 1.429 . S
C1044 N1041 1.350 . S
C1044 C1043 1.434 . S
C1045 C1046 1.369 . S
C1045 C1047 1.419 . S
C1045 H1049 0.930 . S
C1046 C1045 1.369 . S
C1046 C1055 1.429 . S
C1047 C1045 1.419 . S
C1047 C1048 1.363 . S
C1047 H1050 0.929 . S
C1048 C1047 1.363 . S
C1048 C1054 1.428 . S
H1049 C1045 0.930 . S
H1050 C1047 0.929 . S
S1051 N1052 1.613 . S
S1051 N1053 1.610 . S
N1052 S1051 1.613 . S
N1052 C1055 1.350 . S
N1053 S1051 1.610 . S
N1053 C1054 1.351 . S
C1054 C1048 1.428 . S
C1054 N1053 1.351 . S
C1054 C1055 1.434 . S
C1055 C1046 1.429 . S
C1055 N1052 1.350 . S
C1055 C1054 1.434 . S
C1056 C1057 1.369 . S
C1056 C1058 1.419 . S
C1056 H1060 0.930 . S
C1057 C1056 1.369 . S
C1057 C1066 1.429 . S
C1058 C1056 1.419 . S
C1058 C1059 1.363 . S
C1058 H1061 0.929 . S
C1059 C1058 1.363 . S
C1059 C1065 1.428 . S
H1060 C1056 0.930 . S
H1061 C1058 0.929 . S
S1062 N1063 1.613 . S
S1062 N1064 1.610 . S
N1063 S1062 1.613 . S
N1063 C1066 1.350 . S
N1064 S1062 1.610 . S
N1064 C1065 1.351 . S
C1065 C1059 1.428 . S
C1065 N1064 1.351 . S
C1065 C1066 1.434 . S
C1066 C1057 1.429 . S
C1066 N1063 1.350 . S
C1066 C1065 1.434 . S
C1067 C1068 1.369 . S
C1067 C1069 1.419 . S
C1067 H1071 0.930 . S
C1068 C1067 1.369 . S
C1068 C1077 1.429 . S
C1069 C1067 1.419 . S
C1069 C1070 1.363 . S
C1069 H1072 0.929 . S
C1070 C1069 1.363 . S
C1070 C1076 1.428 . S
H1071 C1067 0.930 . S
H1072 C1069 0.929 . S
S1073 N1074 1.613 . S
S1073 N1075 1.610 . S
N1074 S1073 1.613 . S
N1074 C1077 1.350 . S
N1075 S1073 1.610 . S
N1075 C1076 1.351 . S
C1076 C1070 1.428 . S
C1076 N1075 1.351 . S
C1076 C1077 1.434 . S
C1077 C1068 1.429 . S
C1077 N1074 1.350 . S
C1077 C1076 1.434 . S
C1078 C1079 1.369 . S
C1078 C1080 1.419 . S
C1078 H1082 0.930 . S
C1079 C1078 1.369 . S
C1079 C1088 1.429 . S
C1080 C1078 1.419 . S
C1080 C1081 1.363 . S
C1080 H1083 0.929 . S
C1081 C1080 1.363 . S
C1081 C1087 1.428 . S
H1082 C1078 0.930 . S
H1083 C1080 0.929 . S
S1084 N1085 1.613 . S
S1084 N1086 1.610 . S
N1085 S1084 1.613 . S
N1085 C1088 1.350 . S
N1086 S1084 1.610 . S
N1086 C1087 1.351 . S
C1087 C1081 1.428 . S
C1087 N1086 1.351 . S
C1087 C1088 1.434 . S
C1088 C1079 1.429 . S
C1088 N1085 1.350 . S
C1088 C1087 1.434 . S
C1089 C1090 1.369 . S
C1089 C1091 1.419 . S
C1089 H1093 0.930 . S
C1090 C1089 1.369 . S
C1090 C1099 1.429 . S
C1091 C1089 1.419 . S
C1091 C1092 1.363 . S
C1091 H1094 0.929 . S
C1092 C1091 1.363 . S
C1092 C1098 1.428 . S
H1093 C1089 0.930 . S
H1094 C1091 0.929 . S
S1095 N1096 1.613 . S
S1095 N1097 1.610 . S
N1096 S1095 1.613 . S
N1096 C1099 1.350 . S
N1097 S1095 1.610 . S
N1097 C1098 1.351 . S
C1098 C1092 1.428 . S
C1098 N1097 1.351 . S
C1098 C1099 1.434 . S
C1099 C1090 1.429 . S
C1099 N1096 1.350 . S
C1099 C1098 1.434 . S
C1100 C1101 1.369 . S
C1100 C1102 1.419 . S
C1100 H1104 0.930 . S
C1101 C1100 1.369 . S
C1101 C1110 1.429 . S
C1102 C1100 1.419 . S
C1102 C1103 1.363 . S
C1102 H1105 0.929 . S
C1103 C1102 1.363 . S
C1103 C1109 1.428 . S
H1104 C1100 0.930 . S
H1105 C1102 0.929 . S
S1106 N1107 1.613 . S
S1106 N1108 1.610 . S
N1107 S1106 1.613 . S
N1107 C1110 1.350 . S
N1108 S1106 1.610 . S
N1108 C1109 1.351 . S
C1109 C1103 1.428 . S
C1109 N1108 1.351 . S
C1109 C1110 1.434 . S
C1110 C1101 1.429 . S
C1110 N1107 1.350 . S
C1110 C1109 1.434 . S
C1111 C1112 1.369 . S
C1111 C1113 1.419 . S
C1111 H1115 0.930 . S
C1112 C1111 1.369 . S
C1112 C1121 1.429 . S
C1113 C1111 1.419 . S
C1113 C1114 1.363 . S
C1113 H1116 0.929 . S
C1114 C1113 1.363 . S
C1114 C1120 1.428 . S
H1115 C1111 0.930 . S
H1116 C1113 0.929 . S
S1117 N1118 1.613 . S
S1117 N1119 1.610 . S
N1118 S1117 1.613 . S
N1118 C1121 1.350 . S
N1119 S1117 1.610 . S
N1119 C1120 1.351 . S
C1120 C1114 1.428 . S
C1120 N1119 1.351 . S
C1120 C1121 1.434 . S
C1121 C1112 1.429 . S
C1121 N1118 1.350 . S
C1121 C1120 1.434 . S
C1122 C1123 1.369 . S
C1122 C1124 1.419 . S
C1122 H1126 0.930 . S
C1123 C1122 1.369 . S
C1123 C1132 1.429 . S
C1124 C1122 1.419 . S
C1124 C1125 1.363 . S
C1124 H1127 0.929 . S
C1125 C1124 1.363 . S
C1125 C1131 1.428 . S
H1126 C1122 0.930 . S
H1127 C1124 0.929 . S
S1128 N1129 1.613 . S
S1128 N1130 1.610 . S
N1129 S1128 1.613 . S
N1129 C1132 1.350 . S
N1130 S1128 1.610 . S
N1130 C1131 1.351 . S
C1131 C1125 1.428 . S
C1131 N1130 1.351 . S
C1131 C1132 1.434 . S
C1132 C1123 1.429 . S
C1132 N1129 1.350 . S
C1132 C1131 1.434 . S
C1133 C1134 1.369 . S
C1133 C1135 1.419 . S
C1133 H1137 0.930 . S
C1134 C1133 1.369 . S
C1134 C1143 1.429 . S
C1135 C1133 1.419 . S
C1135 C1136 1.363 . S
C1135 H1138 0.929 . S
C1136 C1135 1.363 . S
C1136 C1142 1.428 . S
H1137 C1133 0.930 . S
H1138 C1135 0.929 . S
S1139 N1140 1.613 . S
S1139 N1141 1.610 . S
N1140 S1139 1.613 . S
N1140 C1143 1.350 . S
N1141 S1139 1.610 . S
N1141 C1142 1.351 . S
C1142 C1136 1.428 . S
C1142 N1141 1.351 . S
C1142 C1143 1.434 . S
C1143 C1134 1.429 . S
C1143 N1140 1.350 . S
C1143 C1142 1.434 . S
C1144 C1145 1.369 . S
C1144 C1146 1.419 . S
C1144 H1148 0.930 . S
C1145 C1144 1.369 . S
C1145 C1154 1.429 . S
C1146 C1144 1.419 . S
C1146 C1147 1.363 . S
C1146 H1149 0.929 . S
C1147 C1146 1.363 . S
C1147 C1153 1.428 . S
H1148 C1144 0.930 . S
H1149 C1146 0.929 . S
S1150 N1151 1.613 . S
S1150 N1152 1.610 . S
N1151 S1150 1.613 . S
N1151 C1154 1.350 . S
N1152 S1150 1.610 . S
N1152 C1153 1.351 . S
C1153 C1147 1.428 . S
C1153 N1152 1.351 . S
C1153 C1154 1.434 . S
C1154 C1145 1.429 . S
C1154 N1151 1.350 . S
C1154 C1153 1.434 . S
C1155 C1156 1.369 . S
C1155 C1157 1.419 . S
C1155 H1159 0.930 . S
C1156 C1155 1.369 . S
C1156 C1165 1.429 . S
C1157 C1155 1.419 . S
C1157 C1158 1.363 . S
C1157 H1160 0.929 . S
C1158 C1157 1.363 . S
C1158 C1164 1.428 . S
H1159 C1155 0.930 . S
H1160 C1157 0.929 . S
S1161 N1162 1.613 . S
S1161 N1163 1.610 . S
N1162 S1161 1.613 . S
N1162 C1165 1.350 . S
N1163 S1161 1.610 . S
N1163 C1164 1.351 . S
C1164 C1158 1.428 . S
C1164 N1163 1.351 . S
C1164 C1165 1.434 . S
C1165 C1156 1.429 . S
C1165 N1162 1.350 . S
C1165 C1164 1.434 . S
C1166 C1167 1.369 . S
C1166 C1168 1.419 . S
C1166 H1170 0.930 . S
C1167 C1166 1.369 . S
C1167 C1176 1.429 . S
C1168 C1166 1.419 . S
C1168 C1169 1.363 . S
C1168 H1171 0.929 . S
C1169 C1168 1.363 . S
C1169 C1175 1.428 . S
H1170 C1166 0.930 . S
H1171 C1168 0.929 . S
S1172 N1173 1.613 . S
S1172 N1174 1.610 . S
N1173 S1172 1.613 . S
N1173 C1176 1.350 . S
N1174 S1172 1.610 . S
N1174 C1175 1.351 . S
C1175 C1169 1.428 . S
C1175 N1174 1.351 . S
C1175 C1176 1.434 . S
C1176 C1167 1.429 . S
C1176 N1173 1.350 . S
C1176 C1175 1.434 . S
C1177 C1178 1.369 . S
C1177 C1179 1.419 . S
C1177 H1181 0.930 . S
C1178 C1177 1.369 . S
C1178 C1187 1.429 . S
C1179 C1177 1.419 . S
C1179 C1180 1.363 . S
C1179 H1182 0.929 . S
C1180 C1179 1.363 . S
C1180 C1186 1.428 . S
H1181 C1177 0.930 . S
H1182 C1179 0.929 . S
S1183 N1184 1.613 . S
S1183 N1185 1.610 . S
N1184 S1183 1.613 . S
N1184 C1187 1.350 . S
N1185 S1183 1.610 . S
N1185 C1186 1.351 . S
C1186 C1180 1.428 . S
C1186 N1185 1.351 . S
C1186 C1187 1.434 . S
C1187 C1178 1.429 . S
C1187 N1184 1.350 . S
C1187 C1186 1.434 . S
C1188 C1189 1.369 . S
C1188 C1190 1.419 . S
C1188 H1192 0.930 . S
C1189 C1188 1.369 . S
C1189 C1198 1.429 . S
C1190 C1188 1.419 . S
C1190 C1191 1.363 . S
C1190 H1193 0.929 . S
C1191 C1190 1.363 . S
C1191 C1197 1.428 . S
H1192 C1188 0.930 . S
H1193 C1190 0.929 . S
S1194 N1195 1.613 . S
S1194 N1196 1.610 . S
N1195 S1194 1.613 . S
N1195 C1198 1.350 . S
N1196 S1194 1.610 . S
N1196 C1197 1.351 . S
C1197 C1191 1.428 . S
C1197 N1196 1.351 . S
C1197 C1198 1.434 . S
C1198 C1189 1.429 . S
C1198 N1195 1.350 . S
C1198 C1197 1.434 . S
C1199 C1200 1.369 . S
C1199 C1201 1.419 . S
C1199 H1203 0.930 . S
C1200 C1199 1.369 . S
C1200 C1209 1.429 . S
C1201 C1199 1.419 . S
C1201 C1202 1.363 . S
C1201 H1204 0.929 . S
C1202 C1201 1.363 . S
C1202 C1208 1.428 . S
H1203 C1199 0.930 . S
H1204 C1201 0.929 . S
S1205 N1206 1.613 . S
S1205 N1207 1.610 . S
N1206 S1205 1.613 . S
N1206 C1209 1.350 . S
N1207 S1205 1.610 . S
N1207 C1208 1.351 . S
C1208 C1202 1.428 . S
C1208 N1207 1.351 . S
C1208 C1209 1.434 . S
C1209 C1200 1.429 . S
C1209 N1206 1.350 . S
C1209 C1208 1.434 . S
C1210 C1211 1.369 . S
C1210 C1212 1.419 . S
C1210 H1214 0.930 . S
C1211 C1210 1.369 . S
C1211 C1220 1.429 . S
C1212 C1210 1.419 . S
C1212 C1213 1.363 . S
C1212 H1215 0.929 . S
C1213 C1212 1.363 . S
C1213 C1219 1.428 . S
H1214 C1210 0.930 . S
H1215 C1212 0.929 . S
S1216 N1217 1.613 . S
S1216 N1218 1.610 . S
N1217 S1216 1.613 . S
N1217 C1220 1.350 . S
N1218 S1216 1.610 . S
N1218 C1219 1.351 . S
C1219 C1213 1.428 . S
C1219 N1218 1.351 . S
C1219 C1220 1.434 . S
C1220 C1211 1.429 . S
C1220 N1217 1.350 . S
C1220 C1219 1.434 . S
C1221 C1222 1.369 . S
C1221 C1223 1.419 . S
C1221 H1225 0.930 . S
C1222 C1221 1.369 . S
C1222 C1231 1.429 . S
C1223 C1221 1.419 . S
C1223 C1224 1.363 . S
C1223 H1226 0.929 . S
C1224 C1223 1.363 . S
C1224 C1230 1.428 . S
H1225 C1221 0.930 . S
H1226 C1223 0.929 . S
S1227 N1228 1.613 . S
S1227 N1229 1.610 . S
N1228 S1227 1.613 . S
N1228 C1231 1.350 . S
N1229 S1227 1.610 . S
N1229 C1230 1.351 . S
C1230 C1224 1.428 . S
C1230 N1229 1.351 . S
C1230 C1231 1.434 . S
C1231 C1222 1.429 . S
C1231 N1228 1.350 . S
C1231 C1230 1.434 . S
C1232 C1233 1.369 . S
C1232 C1234 1.419 . S
C1232 H1236 0.930 . S
C1233 C1232 1.369 . S
C1233 C1242 1.429 . S
C1234 C1232 1.419 . S
C1234 C1235 1.363 . S
C1234 H1237 0.929 . S
C1235 C1234 1.363 . S
C1235 C1241 1.428 . S
H1236 C1232 0.930 . S
H1237 C1234 0.929 . S
S1238 N1239 1.613 . S
S1238 N1240 1.610 . S
N1239 S1238 1.613 . S
N1239 C1242 1.350 . S
N1240 S1238 1.610 . S
N1240 C1241 1.351 . S
C1241 C1235 1.428 . S
C1241 N1240 1.351 . S
C1241 C1242 1.434 . S
C1242 C1233 1.429 . S
C1242 N1239 1.350 . S
C1242 C1241 1.434 . S
C1243 C1244 1.369 . S
C1243 C1245 1.419 . S
C1243 H1247 0.930 . S
C1244 C1243 1.369 . S
C1244 C1253 1.429 . S
C1245 C1243 1.419 . S
C1245 C1246 1.363 . S
C1245 H1248 0.929 . S
C1246 C1245 1.363 . S
C1246 C1252 1.428 . S
H1247 C1243 0.930 . S
H1248 C1245 0.929 . S
S1249 N1250 1.613 . S
S1249 N1251 1.610 . S
N1250 S1249 1.613 . S
N1250 C1253 1.350 . S
N1251 S1249 1.610 . S
N1251 C1252 1.351 . S
C1252 C1246 1.428 . S
C1252 N1251 1.351 . S
C1252 C1253 1.434 . S
C1253 C1244 1.429 . S
C1253 N1250 1.350 . S
C1253 C1252 1.434 . S
C1254 C1255 1.369 . S
C1254 C1256 1.419 . S
C1254 H1258 0.930 . S
C1255 C1254 1.369 . S
C1255 C1264 1.429 . S
C1256 C1254 1.419 . S
C1256 C1257 1.363 . S
C1256 H1259 0.929 . S
C1257 C1256 1.363 . S
C1257 C1263 1.428 . S
H1258 C1254 0.930 . S
H1259 C1256 0.929 . S
S1260 N1261 1.613 . S
S1260 N1262 1.610 . S
N1261 S1260 1.613 . S
N1261 C1264 1.350 . S
N1262 S1260 1.610 . S
N1262 C1263 1.351 . S
C1263 C1257 1.428 . S
C1263 N1262 1.351 . S
C1263 C1264 1.434 . S
C1264 C1255 1.429 . S
C1264 N1261 1.350 . S
C1264 C1263 1.434 . S
C1265 C1266 1.369 . S
C1265 C1267 1.419 . S
C1265 H1269 0.930 . S
C1266 C1265 1.369 . S
C1266 C1275 1.429 . S
C1267 C1265 1.419 . S
C1267 C1268 1.363 . S
C1267 H1270 0.929 . S
C1268 C1267 1.363 . S
C1268 C1274 1.428 . S
H1269 C1265 0.930 . S
H1270 C1267 0.929 . S
S1271 N1272 1.613 . S
S1271 N1273 1.610 . S
N1272 S1271 1.613 . S
N1272 C1275 1.350 . S
N1273 S1271 1.610 . S
N1273 C1274 1.351 . S
C1274 C1268 1.428 . S
C1274 N1273 1.351 . S
C1274 C1275 1.434 . S
C1275 C1266 1.429 . S
C1275 N1272 1.350 . S
C1275 C1274 1.434 . S
C1276 C1277 1.369 . S
C1276 C1278 1.419 . S
C1276 H1280 0.930 . S
C1277 C1276 1.369 . S
C1277 C1286 1.429 . S
C1278 C1276 1.419 . S
C1278 C1279 1.363 . S
C1278 H1281 0.929 . S
C1279 C1278 1.363 . S
C1279 C1285 1.428 . S
H1280 C1276 0.930 . S
H1281 C1278 0.929 . S
S1282 N1283 1.613 . S
S1282 N1284 1.610 . S
N1283 S1282 1.613 . S
N1283 C1286 1.350 . S
N1284 S1282 1.610 . S
N1284 C1285 1.351 . S
C1285 C1279 1.428 . S
C1285 N1284 1.351 . S
C1285 C1286 1.434 . S
C1286 C1277 1.429 . S
C1286 N1283 1.350 . S
C1286 C1285 1.434 . S
C1287 C1288 1.369 . S
C1287 C1289 1.419 . S
C1287 H1291 0.930 . S
C1288 C1287 1.369 . S
C1288 C1297 1.429 . S
C1289 C1287 1.419 . S
C1289 C1290 1.363 . S
C1289 H1292 0.929 . S
C1290 C1289 1.363 . S
C1290 C1296 1.428 . S
H1291 C1287 0.930 . S
H1292 C1289 0.929 . S
S1293 N1294 1.613 . S
S1293 N1295 1.610 . S
N1294 S1293 1.613 . S
N1294 C1297 1.350 . S
N1295 S1293 1.610 . S
N1295 C1296 1.351 . S
C1296 C1290 1.428 . S
C1296 N1295 1.351 . S
C1296 C1297 1.434 . S
C1297 C1288 1.429 . S
C1297 N1294 1.350 . S
C1297 C1296 1.434 . S
C1298 C1299 1.369 . S
C1298 C1300 1.419 . S
C1298 H1302 0.930 . S
C1299 C1298 1.369 . S
C1299 C1308 1.429 . S
C1300 C1298 1.419 . S
C1300 C1301 1.363 . S
C1300 H1303 0.929 . S
C1301 C1300 1.363 . S
C1301 C1307 1.428 . S
H1302 C1298 0.930 . S
H1303 C1300 0.929 . S
S1304 N1305 1.613 . S
S1304 N1306 1.610 . S
N1305 S1304 1.613 . S
N1305 C1308 1.350 . S
N1306 S1304 1.610 . S
N1306 C1307 1.351 . S
C1307 C1301 1.428 . S
C1307 N1306 1.351 . S
C1307 C1308 1.434 . S
C1308 C1299 1.429 . S
C1308 N1305 1.350 . S
C1308 C1307 1.434 . S
C1309 C1310 1.369 . S
C1309 C1311 1.419 . S
C1309 H1313 0.930 . S
C1310 C1309 1.369 . S
C1310 C1319 1.429 . S
C1311 C1309 1.419 . S
C1311 C1312 1.363 . S
C1311 H1314 0.929 . S
C1312 C1311 1.363 . S
C1312 C1318 1.428 . S
H1313 C1309 0.930 . S
H1314 C1311 0.929 . S
S1315 N1316 1.613 . S
S1315 N1317 1.610 . S
N1316 S1315 1.613 . S
N1316 C1319 1.350 . S
N1317 S1315 1.610 . S
N1317 C1318 1.351 . S
C1318 C1312 1.428 . S
C1318 N1317 1.351 . S
C1318 C1319 1.434 . S
C1319 C1310 1.429 . S
C1319 N1316 1.350 . S
C1319 C1318 1.434 . S
C1320 C1321 1.369 . S
C1320 C1322 1.419 1_655 S
C1320 H1324 0.930 . S
C1321 C1320 1.369 . S
C1321 C1330 1.429 . S
C1322 C1320 1.419 1_455 S
C1322 C1323 1.363 . S
C1322 H1325 0.929 . S
C1323 C1322 1.363 . S
C1323 C1329 1.428 . S
H1324 C1320 0.930 . S
H1325 C1322 0.929 . S
S1326 N1327 1.613 . S
S1326 N1328 1.610 1_655 S
N1327 S1326 1.613 . S
N1327 C1330 1.350 . S
N1328 S1326 1.610 1_455 S
N1328 C1329 1.351 . S
C1329 C1323 1.428 . S
C1329 N1328 1.351 . S
C1329 C1330 1.434 1_455 S
C1330 C1321 1.429 . S
C1330 N1327 1.350 . S
C1330 C1329 1.434 1_655 S
C1331 C1332 1.369 . S
C1331 C1333 1.419 . S
C1331 H1335 0.930 . S
C1332 C1331 1.369 . S
C1332 C1341 1.429 . S
C1333 C1331 1.419 . S
C1333 C1334 1.363 . S
C1333 H1336 0.929 . S
C1334 C1333 1.363 . S
C1334 C1340 1.428 . S
H1335 C1331 0.930 . S
H1336 C1333 0.929 . S
S1337 N1338 1.613 . S
S1337 N1339 1.610 . S
N1338 S1337 1.613 . S
N1338 C1341 1.350 . S
N1339 S1337 1.610 . S
N1339 C1340 1.351 . S
C1340 C1334 1.428 . S
C1340 N1339 1.351 . S
C1340 C1341 1.434 . S
C1341 C1332 1.429 . S
C1341 N1338 1.350 . S
C1341 C1340 1.434 . S
C1342 C1343 1.369 . S
C1342 C1344 1.419 1_545 S
C1342 H1346 0.930 . S
C1343 C1342 1.369 . S
C1343 C1352 1.429 . S
C1344 C1342 1.419 1_565 S
C1344 C1345 1.363 . S
C1344 H1347 0.929 . S
C1345 C1344 1.363 . S
C1345 C1351 1.428 . S
H1346 C1342 0.930 . S
H1347 C1344 0.929 . S
S1348 N1349 1.578 1_565 S
S1348 N1350 1.610 . S
N1349 S1348 1.578 1_545 S
N1349 C1352 1.362 . S
N1350 S1348 1.610 . S
N1350 C1351 1.351 . S
C1351 C1345 1.428 . S
C1351 N1350 1.351 . S
C1351 C1352 1.434 1_565 S
C1352 C1343 1.429 . S
C1352 N1349 1.362 . S
C1352 C1351 1.434 1_545 S
C1353 C1354 1.369 1_556 S
C1353 C1355 1.419 1_565 S
C1353 H1357 0.930 . S
C1354 C1353 1.369 1_554 S
C1354 C1363 1.429 . S
C1355 C1353 1.419 1_545 S
C1355 C1356 1.363 . S
C1355 H1358 0.929 . S
C1356 C1355 1.363 . S
C1356 C1362 1.428 1_556 S
H1357 C1353 0.930 . S
H1358 C1355 0.929 . S
S1359 N1360 1.613 1_545 S
S1359 N1361 1.610 . S
N1360 S1359 1.613 1_565 S
N1360 C1363 1.350 . S
N1361 S1359 1.610 . S
N1361 C1362 1.351 . S
C1362 C1356 1.428 1_554 S
C1362 N1361 1.351 . S
C1362 C1363 1.434 1_545 S
C1363 C1354 1.429 . S
C1363 N1360 1.350 . S
C1363 C1362 1.434 1_565 S
C1364 C1365 1.369 . S
C1364 C1366 1.419 1_655 S
C1364 H1368 0.930 . S
C1365 C1364 1.369 . S
C1365 C1374 1.429 1_556 S
C1366 C1364 1.419 1_455 S
C1366 C1367 1.363 1_556 S
C1366 H1369 0.929 . S
C1367 C1366 1.363 1_554 S
C1367 C1373 1.428 . S
H1368 C1364 0.930 . S
H1369 C1366 0.929 . S
S1370 N1371 1.613 . S
S1370 N1372 1.610 1_655 S
N1371 S1370 1.613 . S
N1371 C1374 1.350 . S
N1372 S1370 1.610 1_455 S
N1372 C1373 1.351 . S
C1373 C1367 1.428 . S
C1373 N1372 1.351 . S
C1373 C1374 1.434 1_455 S
C1374 C1365 1.429 1_554 S
C1374 N1371 1.350 . S
C1374 C1373 1.434 1_655 S
C1375 C1376 1.369 . S
C1375 C1377 1.419 . S
C1375 H1379 0.930 . S
C1376 C1375 1.369 . S
C1376 C1385 1.429 1_554 S
C1377 C1375 1.419 . S
C1377 C1378 1.363 1_554 S
C1377 H1380 0.929 . S
C1378 C1377 1.363 1_556 S
C1378 C1384 1.428 . S
H1379 C1375 0.930 . S
H1380 C1377 0.929 . S
S1381 N1382 1.613 . S
S1381 N1383 1.610 . S
N1382 S1381 1.613 . S
N1382 C1385 1.350 . S
N1383 S1381 1.610 . S
N1383 C1384 1.351 . S
C1384 C1378 1.428 . S
C1384 N1383 1.351 . S
C1384 C1385 1.434 . S
C1385 C1376 1.429 1_556 S
C1385 N1382 1.350 . S
C1385 C1384 1.434 . S
C1386 C1387 1.369 . S
C1386 C1388 1.419 . S
C1386 H1390 0.930 . S
C1387 C1386 1.369 . S
C1387 C1396 1.429 . S
C1388 C1386 1.419 . S
C1388 C1389 1.363 . S
C1388 H1391 0.929 . S
C1389 C1388 1.363 . S
C1389 C1395 1.428 . S
H1390 C1386 0.930 . S
H1391 C1388 0.929 . S
S1392 N1393 1.613 . S
S1392 N1394 1.610 . S
N1393 S1392 1.613 . S
N1393 C1396 1.350 . S
N1394 S1392 1.610 . S
N1394 C1395 1.351 . S
C1395 C1389 1.428 . S
C1395 N1394 1.351 . S
C1395 C1396 1.434 . S
C1396 C1387 1.429 . S
C1396 N1393 1.350 . S
C1396 C1395 1.434 . S
C1397 C1398 1.369 . S
C1397 C1399 1.419 . S
C1397 H1401 0.930 . S
C1398 C1397 1.369 . S
C1398 C1407 1.429 . S
C1399 C1397 1.419 . S
C1399 C1400 1.363 . S
C1399 H1402 0.929 . S
C1400 C1399 1.363 . S
C1400 C1406 1.428 . S
H1401 C1397 0.930 . S
H1402 C1399 0.929 . S
S1403 N1404 1.613 . S
S1403 N1405 1.610 . S
N1404 S1403 1.613 . S
N1404 C1407 1.350 . S
N1405 S1403 1.610 . S
N1405 C1406 1.351 . S
C1406 C1400 1.428 . S
C1406 N1405 1.351 . S
C1406 C1407 1.434 . S
C1407 C1398 1.429 . S
C1407 N1404 1.350 . S
C1407 C1406 1.434 . S
C1408 C1409 1.369 . S
C1408 C1410 1.419 . S
C1408 H1412 0.930 . S
C1409 C1408 1.369 . S
C1409 C1418 1.429 . S
C1410 C1408 1.419 . S
C1410 C1411 1.363 . S
C1410 H1413 0.929 . S
C1411 C1410 1.363 . S
C1411 C1417 1.428 . S
H1412 C1408 0.930 . S
H1413 C1410 0.929 . S
S1414 N1415 1.613 . S
S1414 N1416 1.610 . S
N1415 S1414 1.613 . S
N1415 C1418 1.350 . S
N1416 S1414 1.610 . S
N1416 C1417 1.351 . S
C1417 C1411 1.428 . S
C1417 N1416 1.351 . S
C1417 C1418 1.434 . S
C1418 C1409 1.429 . S
C1418 N1415 1.350 . S
C1418 C1417 1.434 . S
C1419 C1420 1.369 . S
C1419 C1421 1.419 . S
C1419 H1423 0.930 . S
C1420 C1419 1.369 . S
C1420 C1429 1.429 . S
C1421 C1419 1.419 . S
C1421 C1422 1.363 . S
C1421 H1424 0.929 . S
C1422 C1421 1.363 . S
C1422 C1428 1.428 . S
H1423 C1419 0.930 . S
H1424 C1421 0.929 . S
S1425 N1426 1.613 . S
S1425 N1427 1.610 . S
N1426 S1425 1.613 . S
N1426 C1429 1.350 . S
N1427 S1425 1.610 . S
N1427 C1428 1.351 . S
C1428 C1422 1.428 . S
C1428 N1427 1.351 . S
C1428 C1429 1.434 . S
C1429 C1420 1.429 . S
C1429 N1426 1.350 . S
C1429 C1428 1.434 . S
C1430 C1431 1.369 . S
C1430 C1432 1.419 . S
C1430 H1434 0.930 . S
C1431 C1430 1.369 . S
C1431 C1440 1.429 . S
C1432 C1430 1.419 . S
C1432 C1433 1.363 . S
C1432 H1435 0.929 . S
C1433 C1432 1.363 . S
C1433 C1439 1.428 . S
H1434 C1430 0.930 . S
H1435 C1432 0.929 . S
S1436 N1437 1.613 . S
S1436 N1438 1.610 . S
N1437 S1436 1.613 . S
N1437 C1440 1.350 . S
N1438 S1436 1.610 . S
N1438 C1439 1.351 . S
C1439 C1433 1.428 . S
C1439 N1438 1.351 . S
C1439 C1440 1.434 . S
C1440 C1431 1.429 . S
C1440 N1437 1.350 . S
C1440 C1439 1.434 . S
C1441 C1442 1.369 . S
C1441 C1443 1.419 . S
C1441 H1445 0.930 . S
C1442 C1441 1.369 . S
C1442 C1451 1.429 . S
C1443 C1441 1.419 . S
C1443 C1444 1.363 . S
C1443 H1446 0.929 . S
C1444 C1443 1.363 . S
C1444 C1450 1.428 . S
H1445 C1441 0.930 . S
H1446 C1443 0.929 . S
S1447 N1448 1.613 . S
S1447 N1449 1.610 . S
N1448 S1447 1.613 . S
N1448 C1451 1.350 . S
N1449 S1447 1.610 . S
N1449 C1450 1.351 . S
C1450 C1444 1.428 . S
C1450 N1449 1.351 . S
C1450 C1451 1.434 . S
C1451 C1442 1.429 . S
C1451 N1448 1.350 . S
C1451 C1450 1.434 . S
C1452 C1453 1.369 . S
C1452 C1454 1.419 . S
C1452 H1456 0.930 . S
C1453 C1452 1.369 . S
C1453 C1462 1.429 . S
C1454 C1452 1.419 . S
C1454 C1455 1.363 . S
C1454 H1457 0.929 . S
C1455 C1454 1.363 . S
C1455 C1461 1.428 . S
H1456 C1452 0.930 . S
H1457 C1454 0.929 . S
S1458 N1459 1.613 . S
S1458 N1460 1.610 . S
N1459 S1458 1.613 . S
N1459 C1462 1.350 . S
N1460 S1458 1.610 . S
N1460 C1461 1.351 . S
C1461 C1455 1.428 . S
C1461 N1460 1.351 . S
C1461 C1462 1.434 . S
C1462 C1453 1.429 . S
C1462 N1459 1.350 . S
C1462 C1461 1.434 . S
C1463 C1464 1.369 . S
C1463 C1465 1.419 . S
C1463 H1467 0.930 . S
C1464 C1463 1.369 . S
C1464 C1473 1.429 . S
C1465 C1463 1.419 . S
C1465 C1466 1.363 . S
C1465 H1468 0.929 . S
C1466 C1465 1.363 . S
C1466 C1472 1.428 . S
H1467 C1463 0.930 . S
H1468 C1465 0.929 . S
S1469 N1470 1.613 . S
S1469 N1471 1.610 . S
N1470 S1469 1.613 . S
N1470 C1473 1.350 . S
N1471 S1469 1.610 . S
N1471 C1472 1.351 . S
C1472 C1466 1.428 . S
C1472 N1471 1.351 . S
C1472 C1473 1.434 . S
C1473 C1464 1.429 . S
C1473 N1470 1.350 . S
C1473 C1472 1.434 . S
C1474 C1475 1.369 . S
C1474 C1476 1.419 . S
C1474 H1478 0.930 . S
C1475 C1474 1.369 . S
C1475 C1484 1.429 . S
C1476 C1474 1.419 . S
C1476 C1477 1.363 . S
C1476 H1479 0.929 . S
C1477 C1476 1.363 . S
C1477 C1483 1.428 . S
H1478 C1474 0.930 . S
H1479 C1476 0.929 . S
S1480 N1481 1.613 . S
S1480 N1482 1.610 . S
N1481 S1480 1.613 . S
N1481 C1484 1.350 . S
N1482 S1480 1.610 . S
N1482 C1483 1.351 . S
C1483 C1477 1.428 . S
C1483 N1482 1.351 . S
C1483 C1484 1.434 . S
C1484 C1475 1.429 . S
C1484 N1481 1.350 . S
C1484 C1483 1.434 . S
C1485 C1486 1.369 . S
C1485 C1487 1.419 . S
C1485 H1489 0.930 . S
C1486 C1485 1.369 . S
C1486 C1495 1.429 . S
C1487 C1485 1.419 . S
C1487 C1488 1.363 . S
C1487 H1490 0.929 . S
C1488 C1487 1.363 . S
C1488 C1494 1.428 . S
H1489 C1485 0.930 . S
H1490 C1487 0.929 . S
S1491 N1492 1.613 . S
S1491 N1493 1.610 . S
N1492 S1491 1.613 . S
N1492 C1495 1.350 . S
N1493 S1491 1.610 . S
N1493 C1494 1.351 . S
C1494 C1488 1.428 . S
C1494 N1493 1.351 . S
C1494 C1495 1.434 . S
C1495 C1486 1.429 . S
C1495 N1492 1.350 . S
C1495 C1494 1.434 . S
C1496 C1497 1.369 . S
C1496 C1498 1.419 . S
C1496 H1500 0.930 . S
C1497 C1496 1.369 . S
C1497 C1506 1.429 . S
C1498 C1496 1.419 . S
C1498 C1499 1.363 . S
C1498 H1501 0.929 . S
C1499 C1498 1.363 . S
C1499 C1505 1.428 . S
H1500 C1496 0.930 . S
H1501 C1498 0.929 . S
S1502 N1503 1.613 . S
S1502 N1504 1.610 . S
N1503 S1502 1.613 . S
N1503 C1506 1.350 . S
N1504 S1502 1.610 . S
N1504 C1505 1.351 . S
C1505 C1499 1.428 . S
C1505 N1504 1.351 . S
C1505 C1506 1.434 . S
C1506 C1497 1.429 . S
C1506 N1503 1.350 . S
C1506 C1505 1.434 . S
C1507 C1508 1.369 . S
C1507 C1509 1.419 . S
C1507 H1511 0.930 . S
C1508 C1507 1.369 . S
C1508 C1517 1.429 . S
C1509 C1507 1.419 . S
C1509 C1510 1.363 . S
C1509 H1512 0.929 . S
C1510 C1509 1.363 . S
C1510 C1516 1.428 . S
H1511 C1507 0.930 . S
H1512 C1509 0.929 . S
S1513 N1514 1.613 . S
S1513 N1515 1.610 . S
N1514 S1513 1.613 . S
N1514 C1517 1.350 . S
N1515 S1513 1.610 . S
N1515 C1516 1.351 . S
C1516 C1510 1.428 . S
C1516 N1515 1.351 . S
C1516 C1517 1.434 . S
C1517 C1508 1.429 . S
C1517 N1514 1.350 . S
C1517 C1516 1.434 . S
C1518 C1519 1.369 . S
C1518 C1520 1.419 . S
C1518 H1522 0.930 . S
C1519 C1518 1.369 . S
C1519 C1528 1.429 1_455 S
C1520 C1518 1.419 . S
C1520 C1521 1.363 1_455 S
C1520 H1523 0.929 . S
C1521 C1520 1.363 1_655 S
C1521 C1527 1.428 . S
H1522 C1518 0.930 . S
H1523 C1520 0.929 . S
S1524 N1525 1.613 . S
S1524 N1526 1.610 . S
N1525 S1524 1.613 . S
N1525 C1528 1.350 . S
N1526 S1524 1.610 . S
N1526 C1527 1.351 . S
C1527 C1521 1.428 . S
C1527 N1526 1.351 . S
C1527 C1528 1.434 . S
C1528 C1519 1.429 1_655 S
C1528 N1525 1.350 . S
C1528 C1527 1.434 . S
C1529 C1530 1.369 . S
C1529 C1531 1.419 . S
C1529 H1533 0.930 . S
C1530 C1529 1.369 . S
C1530 C1539 1.429 . S
C1531 C1529 1.419 . S
C1531 C1532 1.363 . S
C1531 H1534 0.929 . S
C1532 C1531 1.363 . S
C1532 C1538 1.428 . S
H1533 C1529 0.930 . S
H1534 C1531 0.929 . S
S1535 N1536 1.613 . S
S1535 N1537 1.610 . S
N1536 S1535 1.613 . S
N1536 C1539 1.350 . S
N1537 S1535 1.610 . S
N1537 C1538 1.351 . S
C1538 C1532 1.428 . S
C1538 N1537 1.351 . S
C1538 C1539 1.434 . S
C1539 C1530 1.429 . S
C1539 N1536 1.350 . S
C1539 C1538 1.434 . S
C1540 C1541 1.369 1_565 S
C1540 C1542 1.419 . S
C1540 H1544 0.930 . S
C1541 C1540 1.369 1_545 S
C1541 C1550 1.429 . S
C1542 C1540 1.419 . S
C1542 C1543 1.363 . S
C1542 H1545 0.929 . S
C1543 C1542 1.363 . S
C1543 C1549 1.428 1_565 S
H1544 C1540 0.930 . S
H1545 C1542 0.929 . S
S1546 N1547 1.613 . S
S1546 N1548 1.610 . S
N1547 S1546 1.613 . S
N1547 C1550 1.350 . S
N1548 S1546 1.610 . S
N1548 C1549 1.351 . S
C1549 C1543 1.428 1_545 S
C1549 N1548 1.351 . S
C1549 C1550 1.434 . S
C1550 C1541 1.429 . S
C1550 N1547 1.350 . S
C1550 C1549 1.434 . S
C1551 C1552 1.369 . S
C1551 C1553 1.419 . S
C1551 H1555 0.930 . S
C1552 C1551 1.369 . S
C1552 C1561 1.429 1_565 S
C1553 C1551 1.419 . S
C1553 C1554 1.363 1_565 S
C1553 H1556 0.929 . S
C1554 C1553 1.363 1_545 S
C1554 C1560 1.428 . S
H1555 C1551 0.930 . S
H1556 C1553 0.929 . S
S1557 N1558 1.613 . S
S1557 N1559 1.610 . S
N1558 S1557 1.613 . S
N1558 C1561 1.350 . S
N1559 S1557 1.610 . S
N1559 C1560 1.351 . S
C1560 C1554 1.428 . S
C1560 N1559 1.351 . S
C1560 C1561 1.434 . S
C1561 C1552 1.429 1_545 S
C1561 N1558 1.350 . S
C1561 C1560 1.434 . S
C1562 C1563 1.369 . S
C1562 C1564 1.419 . S
C1562 H1566 0.930 . S
C1563 C1562 1.369 . S
C1563 C1572 1.429 1_455 S
C1564 C1562 1.419 . S
C1564 C1565 1.363 1_455 S
C1564 H1567 0.929 . S
C1565 C1564 1.363 1_655 S
C1565 C1571 1.428 . S
H1566 C1562 0.930 . S
H1567 C1564 0.929 . S
S1568 N1569 1.613 . S
S1568 N1570 1.610 . S
N1569 S1568 1.613 . S
N1569 C1572 1.350 . S
N1570 S1568 1.610 . S
N1570 C1571 1.351 . S
C1571 C1565 1.428 . S
C1571 N1570 1.351 . S
C1571 C1572 1.434 . S
C1572 C1563 1.429 1_655 S
C1572 N1569 1.350 . S
C1572 C1571 1.434 . S
C1573 C1574 1.369 . S
C1573 C1575 1.419 . S
C1573 H1577 0.930 . S
C1574 C1573 1.369 . S
C1574 C1583 1.429 . S
C1575 C1573 1.419 . S
C1575 C1576 1.363 . S
C1575 H1578 0.929 . S
C1576 C1575 1.363 . S
C1576 C1582 1.428 . S
H1577 C1573 0.930 . S
H1578 C1575 0.929 . S
S1579 N1580 1.613 . S
S1579 N1581 1.610 . S
N1580 S1579 1.613 . S
N1580 C1583 1.350 . S
N1581 S1579 1.610 . S
N1581 C1582 1.351 . S
C1582 C1576 1.428 . S
C1582 N1581 1.351 . S
C1582 C1583 1.434 . S
C1583 C1574 1.429 . S
C1583 N1580 1.350 . S
C1583 C1582 1.434 . S
C1584 C1585 1.369 . S
C1584 C1586 1.419 . S
C1584 H1588 0.930 . S
C1585 C1584 1.369 . S
C1585 C1594 1.429 . S
C1586 C1584 1.419 . S
C1586 C1587 1.363 . S
C1586 H1589 0.929 . S
C1587 C1586 1.363 . S
C1587 C1593 1.428 . S
H1588 C1584 0.930 . S
H1589 C1586 0.929 . S
S1590 N1591 1.613 . S
S1590 N1592 1.610 . S
N1591 S1590 1.613 . S
N1591 C1594 1.350 . S
N1592 S1590 1.610 . S
N1592 C1593 1.351 . S
C1593 C1587 1.428 . S
C1593 N1592 1.351 . S
C1593 C1594 1.434 . S
C1594 C1585 1.429 . S
C1594 N1591 1.350 . S
C1594 C1593 1.434 . S
C1595 C1596 1.369 1_565 S
C1595 C1597 1.419 . S
C1595 H1599 0.930 . S
C1596 C1595 1.369 1_545 S
C1596 C1605 1.429 . S
C1597 C1595 1.419 . S
C1597 C1598 1.363 . S
C1597 H1600 0.929 . S
C1598 C1597 1.363 . S
C1598 C1604 1.428 1_565 S
H1599 C1595 0.930 . S
H1600 C1597 0.929 . S
S1601 N1602 1.613 . S
S1601 N1603 1.610 . S
N1602 S1601 1.613 . S
N1602 C1605 1.350 . S
N1603 S1601 1.610 . S
N1603 C1604 1.351 . S
C1604 C1598 1.428 1_545 S
C1604 N1603 1.351 . S
C1604 C1605 1.434 . S
C1605 C1596 1.429 . S
C1605 N1602 1.350 . S
C1605 C1604 1.434 . S
C1606 C1607 1.369 . S
C1606 C1608 1.419 1_655 S
C1606 H1610 0.930 . S
C1607 C1606 1.369 . S
C1607 C1616 1.429 . S
C1608 C1606 1.419 1_455 S
C1608 C1609 1.363 . S
C1608 H1611 0.929 . S
C1609 C1608 1.363 . S
C1609 C1615 1.428 . S
H1610 C1606 0.930 . S
H1611 C1608 0.929 . S
S1612 N1613 1.613 . S
S1612 N1614 1.610 1_655 S
N1613 S1612 1.613 . S
N1613 C1616 1.350 . S
N1614 S1612 1.610 1_455 S
N1614 C1615 1.351 . S
C1615 C1609 1.428 . S
C1615 N1614 1.351 . S
C1615 C1616 1.434 1_455 S
C1616 C1607 1.429 . S
C1616 N1613 1.350 . S
C1616 C1615 1.434 1_655 S
C1617 C1618 1.369 . S
C1617 C1619 1.419 . S
C1617 H1621 0.930 . S
C1618 C1617 1.369 . S
C1618 C1627 1.429 . S
C1619 C1617 1.419 . S
C1619 C1620 1.363 . S
C1619 H1622 0.929 . S
C1620 C1619 1.363 . S
C1620 C1626 1.428 . S
H1621 C1617 0.930 . S
H1622 C1619 0.929 . S
S1623 N1624 1.613 . S
S1623 N1625 1.610 . S
N1624 S1623 1.613 . S
N1624 C1627 1.350 . S
N1625 S1623 1.610 . S
N1625 C1626 1.351 . S
C1626 C1620 1.428 . S
C1626 N1625 1.351 . S
C1626 C1627 1.434 . S
C1627 C1618 1.429 . S
C1627 N1624 1.350 . S
C1627 C1626 1.434 . S
C1628 C1629 1.369 . S
C1628 C1630 1.419 . S
C1628 H1632 0.930 . S
C1629 C1628 1.369 . S
C1629 C1638 1.429 1_565 S
C1630 C1628 1.419 . S
C1630 C1631 1.363 1_565 S
C1630 H1633 0.929 . S
C1631 C1630 1.363 1_545 S
C1631 C1637 1.428 . S
H1632 C1628 0.930 . S
H1633 C1630 0.929 . S
S1634 N1635 1.613 . S
S1634 N1636 1.610 . S
N1635 S1634 1.613 . S
N1635 C1638 1.350 . S
N1636 S1634 1.610 . S
N1636 C1637 1.351 . S
C1637 C1631 1.428 . S
C1637 N1636 1.351 . S
C1637 C1638 1.434 . S
C1638 C1629 1.429 1_545 S
C1638 N1635 1.350 . S
C1638 C1637 1.434 . S
C1639 C1640 1.369 1_455 S
C1639 C1641 1.419 . S
C1639 H1643 0.930 . S
C1640 C1639 1.369 1_655 S
C1640 C1649 1.429 . S
C1641 C1639 1.419 . S
C1641 C1642 1.363 . S
C1641 H1644 0.929 . S
C1642 C1641 1.363 . S
C1642 C1648 1.428 1_455 S
H1643 C1639 0.930 . S
H1644 C1641 0.929 . S
S1645 N1646 1.613 . S
S1645 N1647 1.610 . S
N1646 S1645 1.613 . S
N1646 C1649 1.350 . S
N1647 S1645 1.610 . S
N1647 C1648 1.351 . S
C1648 C1642 1.428 1_655 S
C1648 N1647 1.351 . S
C1648 C1649 1.434 . S
C1649 C1640 1.429 . S
C1649 N1646 1.350 . S
C1649 C1648 1.434 . S
C1650 C1651 1.369 . S
C1650 C1652 1.419 . S
C1650 H1654 0.930 . S
C1651 C1650 1.369 . S
C1651 C1660 1.429 . S
C1652 C1650 1.419 . S
C1652 C1653 1.363 . S
C1652 H1655 0.929 . S
C1653 C1652 1.363 . S
C1653 C1659 1.428 . S
H1654 C1650 0.930 . S
H1655 C1652 0.929 . S
S1656 N1657 1.613 . S
S1656 N1658 1.610 . S
N1657 S1656 1.613 . S
N1657 C1660 1.350 . S
N1658 S1656 1.610 . S
N1658 C1659 1.351 . S
C1659 C1653 1.428 . S
C1659 N1658 1.351 . S
C1659 C1660 1.434 . S
C1660 C1651 1.429 . S
C1660 N1657 1.350 . S
C1660 C1659 1.434 . S
C1661 C1662 1.369 . S
C1661 C1663 1.419 . S
C1661 H1665 0.930 . S
C1662 C1661 1.369 . S
C1662 C1671 1.429 . S
C1663 C1661 1.419 . S
C1663 C1664 1.363 . S
C1663 H1666 0.929 . S
C1664 C1663 1.363 . S
C1664 C1670 1.428 . S
H1665 C1661 0.930 . S
H1666 C1663 0.929 . S
S1667 N1668 1.613 . S
S1667 N1669 1.610 . S
N1668 S1667 1.613 . S
N1668 C1671 1.350 . S
N1669 S1667 1.610 . S
N1669 C1670 1.351 . S
C1670 C1664 1.428 . S
C1670 N1669 1.351 . S
C1670 C1671 1.434 . S
C1671 C1662 1.429 . S
C1671 N1668 1.350 . S
C1671 C1670 1.434 . S
C1672 C1673 1.369 . S
C1672 C1674 1.419 . S
C1672 H1676 0.930 . S
C1673 C1672 1.369 . S
C1673 C1682 1.429 . S
C1674 C1672 1.419 . S
C1674 C1675 1.363 . S
C1674 H1677 0.929 . S
C1675 C1674 1.363 . S
C1675 C1681 1.428 . S
H1676 C1672 0.930 . S
H1677 C1674 0.929 . S
S1678 N1679 1.613 . S
S1678 N1680 1.610 . S
N1679 S1678 1.613 . S
N1679 C1682 1.350 . S
N1680 S1678 1.610 . S
N1680 C1681 1.351 . S
C1681 C1675 1.428 . S
C1681 N1680 1.351 . S
C1681 C1682 1.434 . S
C1682 C1673 1.429 . S
C1682 N1679 1.350 . S
C1682 C1681 1.434 . S
C1683 C1684 1.369 . S
C1683 C1685 1.419 . S
C1683 H1687 0.930 . S
C1684 C1683 1.369 . S
C1684 C1693 1.429 . S
C1685 C1683 1.419 . S
C1685 C1686 1.363 . S
C1685 H1688 0.929 . S
C1686 C1685 1.363 . S
C1686 C1692 1.428 . S
H1687 C1683 0.930 . S
H1688 C1685 0.929 . S
S1689 N1690 1.613 . S
S1689 N1691 1.610 . S
N1690 S1689 1.613 . S
N1690 C1693 1.350 . S
N1691 S1689 1.610 . S
N1691 C1692 1.351 . S
C1692 C1686 1.428 . S
C1692 N1691 1.351 . S
C1692 C1693 1.434 . S
C1693 C1684 1.429 . S
C1693 N1690 1.350 . S
C1693 C1692 1.434 . S
C1694 C1695 1.369 . S
C1694 C1696 1.419 . S
C1694 H1698 0.930 . S
C1695 C1694 1.369 . S
C1695 C1704 1.429 . S
C1696 C1694 1.419 . S
C1696 C1697 1.363 . S
C1696 H1699 0.929 . S
C1697 C1696 1.363 . S
C1697 C1703 1.428 . S
H1698 C1694 0.930 . S
H1699 C1696 0.929 . S
S1700 N1701 1.613 . S
S1700 N1702 1.610 . S
N1701 S1700 1.613 . S
N1701 C1704 1.350 . S
N1702 S1700 1.610 . S
N1702 C1703 1.351 . S
C1703 C1697 1.428 . S
C1703 N1702 1.351 . S
C1703 C1704 1.434 . S
C1704 C1695 1.429 . S
C1704 N1701 1.350 . S
C1704 C1703 1.434 . S
C1705 C1706 1.369 . S
C1705 C1707 1.419 . S
C1705 H1709 0.930 . S
C1706 C1705 1.369 . S
C1706 C1715 1.429 . S
C1707 C1705 1.419 . S
C1707 C1708 1.363 . S
C1707 H1710 0.929 . S
C1708 C1707 1.363 . S
C1708 C1714 1.428 . S
H1709 C1705 0.930 . S
H1710 C1707 0.929 . S
S1711 N1712 1.613 . S
S1711 N1713 1.610 . S
N1712 S1711 1.613 . S
N1712 C1715 1.350 . S
N1713 S1711 1.610 . S
N1713 C1714 1.351 . S
C1714 C1708 1.428 . S
C1714 N1713 1.351 . S
C1714 C1715 1.434 . S
C1715 C1706 1.429 . S
C1715 N1712 1.350 . S
C1715 C1714 1.434 . S
C1716 C1717 1.369 . S
C1716 C1718 1.419 . S
C1716 H1720 0.930 . S
C1717 C1716 1.369 . S
C1717 C1726 1.429 . S
C1718 C1716 1.419 . S
C1718 C1719 1.363 . S
C1718 H1721 0.929 . S
C1719 C1718 1.363 . S
C1719 C1725 1.428 . S
H1720 C1716 0.930 . S
H1721 C1718 0.929 . S
S1722 N1723 1.613 . S
S1722 N1724 1.610 . S
N1723 S1722 1.613 . S
N1723 C1726 1.350 . S
N1724 S1722 1.610 . S
N1724 C1725 1.351 . S
C1725 C1719 1.428 . S
C1725 N1724 1.351 . S
C1725 C1726 1.434 . S
C1726 C1717 1.429 . S
C1726 N1723 1.350 . S
C1726 C1725 1.434 . S
C1727 C1728 1.369 . S
C1727 C1729 1.419 . S
C1727 H1731 0.930 . S
C1728 C1727 1.369 . S
C1728 C1737 1.429 . S
C1729 C1727 1.419 . S
C1729 C1730 1.363 . S
C1729 H1732 0.929 . S
C1730 C1729 1.363 . S
C1730 C1736 1.428 . S
H1731 C1727 0.930 . S
H1732 C1729 0.929 . S
S1733 N1734 1.613 . S
S1733 N1735 1.610 . S
N1734 S1733 1.613 . S
N1734 C1737 1.350 . S
N1735 S1733 1.610 . S
N1735 C1736 1.351 . S
C1736 C1730 1.428 . S
C1736 N1735 1.351 . S
C1736 C1737 1.434 . S
C1737 C1728 1.429 . S
C1737 N1734 1.350 . S
C1737 C1736 1.434 . S
C1738 C1739 1.369 . S
C1738 C1740 1.419 . S
C1738 H1742 0.930 . S
C1739 C1738 1.369 . S
C1739 C1748 1.429 . S
C1740 C1738 1.419 . S
C1740 C1741 1.363 . S
C1740 H1743 0.929 . S
C1741 C1740 1.363 . S
C1741 C1747 1.428 . S
H1742 C1738 0.930 . S
H1743 C1740 0.929 . S
S1744 N1745 1.613 . S
S1744 N1746 1.610 . S
N1745 S1744 1.613 . S
N1745 C1748 1.350 . S
N1746 S1744 1.610 . S
N1746 C1747 1.351 . S
C1747 C1741 1.428 . S
C1747 N1746 1.351 . S
C1747 C1748 1.434 . S
C1748 C1739 1.429 . S
C1748 N1745 1.350 . S
C1748 C1747 1.434 . S
C1749 C1750 1.369 . S
C1749 C1751 1.419 . S
C1749 H1753 0.930 . S
C1750 C1749 1.369 . S
C1750 C1759 1.429 . S
C1751 C1749 1.419 . S
C1751 C1752 1.363 . S
C1751 H1754 0.929 . S
C1752 C1751 1.363 . S
C1752 C1758 1.428 . S
H1753 C1749 0.930 . S
H1754 C1751 0.929 . S
S1755 N1756 1.613 . S
S1755 N1757 1.610 . S
N1756 S1755 1.613 . S
N1756 C1759 1.350 . S
N1757 S1755 1.610 . S
N1757 C1758 1.351 . S
C1758 C1752 1.428 . S
C1758 N1757 1.351 . S
C1758 C1759 1.434 . S
C1759 C1750 1.429 . S
C1759 N1756 1.350 . S
C1759 C1758 1.434 . S
C1760 C1761 1.369 . S
C1760 C1762 1.419 . S
C1760 H1764 0.930 . S
C1761 C1760 1.369 . S
C1761 C1770 1.429 . S
C1762 C1760 1.419 . S
C1762 C1763 1.363 . S
C1762 H1765 0.929 . S
C1763 C1762 1.363 . S
C1763 C1769 1.428 . S
H1764 C1760 0.930 . S
H1765 C1762 0.929 . S
S1766 N1767 1.613 . S
S1766 N1768 1.610 . S
N1767 S1766 1.613 . S
N1767 C1770 1.350 . S
N1768 S1766 1.610 . S
N1768 C1769 1.351 . S
C1769 C1763 1.428 . S
C1769 N1768 1.351 . S
C1769 C1770 1.434 . S
C1770 C1761 1.429 . S
C1770 N1767 1.350 . S
C1770 C1769 1.434 . S
C1771 C1772 1.369 . S
C1771 C1773 1.419 . S
C1771 H1775 0.930 . S
C1772 C1771 1.369 . S
C1772 C1781 1.429 . S
C1773 C1771 1.419 . S
C1773 C1774 1.363 . S
C1773 H1776 0.929 . S
C1774 C1773 1.363 . S
C1774 C1780 1.428 . S
H1775 C1771 0.930 . S
H1776 C1773 0.929 . S
S1777 N1778 1.613 . S
S1777 N1779 1.610 . S
N1778 S1777 1.613 . S
N1778 C1781 1.350 . S
N1779 S1777 1.610 . S
N1779 C1780 1.351 . S
C1780 C1774 1.428 . S
C1780 N1779 1.351 . S
C1780 C1781 1.434 . S
C1781 C1772 1.429 . S
C1781 N1778 1.350 . S
C1781 C1780 1.434 . S
C1782 C1783 1.369 . S
C1782 C1784 1.419 . S
C1782 H1786 0.930 . S
C1783 C1782 1.369 . S
C1783 C1792 1.429 . S
C1784 C1782 1.419 . S
C1784 C1785 1.363 . S
C1784 H1787 0.929 . S
C1785 C1784 1.363 . S
C1785 C1791 1.428 . S
H1786 C1782 0.930 . S
H1787 C1784 0.929 . S
S1788 N1789 1.613 . S
S1788 N1790 1.610 . S
N1789 S1788 1.613 . S
N1789 C1792 1.350 . S
N1790 S1788 1.610 . S
N1790 C1791 1.351 . S
C1791 C1785 1.428 . S
C1791 N1790 1.351 . S
C1791 C1792 1.434 . S
C1792 C1783 1.429 . S
C1792 N1789 1.350 . S
C1792 C1791 1.434 . S
C1793 C1794 1.369 . S
C1793 C1795 1.419 . S
C1793 H1797 0.930 . S
C1794 C1793 1.369 . S
C1794 C1803 1.429 . S
C1795 C1793 1.419 . S
C1795 C1796 1.363 . S
C1795 H1798 0.929 . S
C1796 C1795 1.363 . S
C1796 C1802 1.428 . S
H1797 C1793 0.930 . S
H1798 C1795 0.929 . S
S1799 N1800 1.613 . S
S1799 N1801 1.610 . S
N1800 S1799 1.613 . S
N1800 C1803 1.350 . S
N1801 S1799 1.610 . S
N1801 C1802 1.351 . S
C1802 C1796 1.428 . S
C1802 N1801 1.351 . S
C1802 C1803 1.434 . S
C1803 C1794 1.429 . S
C1803 N1800 1.350 . S
C1803 C1802 1.434 . S
C1804 C1805 1.369 . S
C1804 C1806 1.419 . S
C1804 H1808 0.930 . S
C1805 C1804 1.369 . S
C1805 C1814 1.429 . S
C1806 C1804 1.419 . S
C1806 C1807 1.363 . S
C1806 H1809 0.929 . S
C1807 C1806 1.363 . S
C1807 C1813 1.428 . S
H1808 C1804 0.930 . S
H1809 C1806 0.929 . S
S1810 N1811 1.613 . S
S1810 N1812 1.572 1_655 S
N1811 S1810 1.613 . S
N1811 C1814 1.318 1_655 S
N1812 S1810 1.572 1_455 S
N1812 C1813 1.351 . S
C1813 C1807 1.428 . S
C1813 N1812 1.351 . S
C1813 C1814 1.434 . S
C1814 C1805 1.429 . S
C1814 N1811 1.318 1_455 S
C1814 C1813 1.434 . S
C1815 C1816 1.369 . S
C1815 C1817 1.419 . S
C1815 H1819 0.930 . S
C1816 C1815 1.369 . S
C1816 C1825 1.429 . S
C1817 C1815 1.419 . S
C1817 C1818 1.363 . S
C1817 H1820 0.929 . S
C1818 C1817 1.363 . S
C1818 C1824 1.428 . S
H1819 C1815 0.930 . S
H1820 C1817 0.929 . S
S1821 N1822 1.613 . S
S1821 N1823 1.610 . S
N1822 S1821 1.613 . S
N1822 C1825 1.350 . S
N1823 S1821 1.610 . S
N1823 C1824 1.351 . S
C1824 C1818 1.428 . S
C1824 N1823 1.351 . S
C1824 C1825 1.434 . S
C1825 C1816 1.429 . S
C1825 N1822 1.350 . S
C1825 C1824 1.434 . S
C1826 C1827 1.369 . S
C1826 C1828 1.419 . S
C1826 H1830 0.930 . S
C1827 C1826 1.369 . S
C1827 C1836 1.429 . S
C1828 C1826 1.419 . S
C1828 C1829 1.363 . S
C1828 H1831 0.929 . S
C1829 C1828 1.363 . S
C1829 C1835 1.428 . S
H1830 C1826 0.930 . S
H1831 C1828 0.929 . S
S1832 N1833 1.613 . S
S1832 N1834 1.610 . S
N1833 S1832 1.613 . S
N1833 C1836 1.350 . S
N1834 S1832 1.610 . S
N1834 C1835 1.351 . S
C1835 C1829 1.428 . S
C1835 N1834 1.351 . S
C1835 C1836 1.434 . S
C1836 C1827 1.429 . S
C1836 N1833 1.350 . S
C1836 C1835 1.434 . S
C1837 C1838 1.369 . S
C1837 C1839 1.419 . S
C1837 H1841 0.930 . S
C1838 C1837 1.369 . S
C1838 C1847 1.429 . S
C1839 C1837 1.419 . S
C1839 C1840 1.363 . S
C1839 H1842 0.929 . S
C1840 C1839 1.363 . S
C1840 C1846 1.428 . S
H1841 C1837 0.930 . S
H1842 C1839 0.929 . S
S1843 N1844 1.613 . S
S1843 N1845 1.610 1_455 S
N1844 S1843 1.613 . S
N1844 C1847 1.350 1_455 S
N1845 S1843 1.610 1_655 S
N1845 C1846 1.351 . S
C1846 C1840 1.428 . S
C1846 N1845 1.351 . S
C1846 C1847 1.434 . S
C1847 C1838 1.429 . S
C1847 N1844 1.350 1_655 S
C1847 C1846 1.434 . S
C1848 C1849 1.369 . S
C1848 C1850 1.419 . S
C1848 H1852 0.930 . S
C1849 C1848 1.369 . S
C1849 C1858 1.429 . S
C1850 C1848 1.419 . S
C1850 C1851 1.363 . S
C1850 H1853 0.929 . S
C1851 C1850 1.363 . S
C1851 C1857 1.428 . S
H1852 C1848 0.930 . S
H1853 C1850 0.929 . S
S1854 N1855 1.613 . S
S1854 N1856 1.610 . S
N1855 S1854 1.613 . S
N1855 C1858 1.350 . S
N1856 S1854 1.610 . S
N1856 C1857 1.351 . S
C1857 C1851 1.428 . S
C1857 N1856 1.351 . S
C1857 C1858 1.434 . S
C1858 C1849 1.429 . S
C1858 N1855 1.350 . S
C1858 C1857 1.434 . S
C1859 C1860 1.369 . S
C1859 C1861 1.419 . S
C1859 H1863 0.930 . S
C1860 C1859 1.369 . S
C1860 C1869 1.429 . S
C1861 C1859 1.419 . S
C1861 C1862 1.363 . S
C1861 H1864 0.929 . S
C1862 C1861 1.363 . S
C1862 C1868 1.428 . S
H1863 C1859 0.930 . S
H1864 C1861 0.929 . S
S1865 N1866 1.613 . S
S1865 N1867 1.610 . S
N1866 S1865 1.613 . S
N1866 C1869 1.350 . S
N1867 S1865 1.610 . S
N1867 C1868 1.351 . S
C1868 C1862 1.428 . S
C1868 N1867 1.351 . S
C1868 C1869 1.434 . S
C1869 C1860 1.429 . S
C1869 N1866 1.350 . S
C1869 C1868 1.434 . S
C1870 C1871 1.369 . S
C1870 C1872 1.419 . S
C1870 H1874 0.930 . S
C1871 C1870 1.369 . S
C1871 C1880 1.429 . S
C1872 C1870 1.419 . S
C1872 C1873 1.363 . S
C1872 H1875 0.929 . S
C1873 C1872 1.363 . S
C1873 C1879 1.428 . S
H1874 C1870 0.930 . S
H1875 C1872 0.929 . S
S1876 N1877 1.613 1_554 S
S1876 N1878 1.610 . S
N1877 S1876 1.613 1_556 S
N1877 C1880 1.350 . S
N1878 S1876 1.610 . S
N1878 C1879 1.351 1_554 S
C1879 C1873 1.428 . S
C1879 N1878 1.351 1_556 S
C1879 C1880 1.434 . S
C1880 C1871 1.429 . S
C1880 N1877 1.350 . S
C1880 C1879 1.434 . S
C1881 C1882 1.369 . S
C1881 C1883 1.419 . S
C1881 H1885 0.930 . S
C1882 C1881 1.369 . S
C1882 C1891 1.429 . S
C1883 C1881 1.419 . S
C1883 C1884 1.363 . S
C1883 H1886 0.929 . S
C1884 C1883 1.363 . S
C1884 C1890 1.428 . S
H1885 C1881 0.930 . S
H1886 C1883 0.929 . S
S1887 N1888 1.613 . S
S1887 N1889 1.610 . S
N1888 S1887 1.613 . S
N1888 C1891 1.350 . S
N1889 S1887 1.610 . S
N1889 C1890 1.351 . S
C1890 C1884 1.428 . S
C1890 N1889 1.351 . S
C1890 C1891 1.434 . S
C1891 C1882 1.429 . S
C1891 N1888 1.350 . S
C1891 C1890 1.434 . S
C1892 C1893 1.369 . S
C1892 C1894 1.419 . S
C1892 H1896 0.930 . S
C1893 C1892 1.369 . S
C1893 C1902 1.429 . S
C1894 C1892 1.419 . S
C1894 C1895 1.363 . S
C1894 H1897 0.929 . S
C1895 C1894 1.363 . S
C1895 C1901 1.428 . S
H1896 C1892 0.930 . S
H1897 C1894 0.929 . S
S1898 N1899 1.613 1_545 S
S1898 N1900 1.610 . S
N1899 S1898 1.613 1_565 S
N1899 C1902 1.350 . S
N1900 S1898 1.610 . S
N1900 C1901 1.351 1_545 S
C1901 C1895 1.428 . S
C1901 N1900 1.351 1_565 S
C1901 C1902 1.434 . S
C1902 C1893 1.429 . S
C1902 N1899 1.350 . S
C1902 C1901 1.434 . S
C1903 C1904 1.369 . S
C1903 C1905 1.419 . S
C1903 H1907 0.930 . S
C1904 C1903 1.369 . S
C1904 C1913 1.429 . S
C1905 C1903 1.419 . S
C1905 C1906 1.363 . S
C1905 H1908 0.929 1_455 S
C1906 C1905 1.363 . S
C1906 C1912 1.428 . S
H1907 C1903 0.930 . S
H1908 C1905 0.929 1_655 S
S1909 N1910 1.613 . S
S1909 N1911 1.610 . S
N1910 S1909 1.613 . S
N1910 C1913 1.350 . S
N1911 S1909 1.610 . S
N1911 C1912 1.351 . S
C1912 C1906 1.428 . S
C1912 N1911 1.351 . S
C1912 C1913 1.434 . S
C1913 C1904 1.429 . S
C1913 N1910 1.350 . S
C1913 C1912 1.434 . S
C1914 C1915 1.369 . S
C1914 C1916 1.419 1_655 S
C1914 H1918 0.930 . S
C1915 C1914 1.369 . S
C1915 C1924 1.429 . S
C1916 C1914 1.419 1_455 S
C1916 C1917 1.363 . S
C1916 H1919 0.929 . S
C1917 C1916 1.363 . S
C1917 C1923 1.428 . S
H1918 C1914 0.930 . S
H1919 C1916 0.929 . S
S1920 N1921 1.613 . S
S1920 N1922 1.610 1_655 S
N1921 S1920 1.613 . S
N1921 C1924 1.350 . S
N1922 S1920 1.610 1_455 S
N1922 C1923 1.351 . S
C1923 C1917 1.428 . S
C1923 N1922 1.351 . S
C1923 C1924 1.434 1_455 S
C1924 C1915 1.429 . S
C1924 N1921 1.350 . S
C1924 C1923 1.434 1_655 S
C1925 C1926 1.369 . S
C1925 C1927 1.419 . S
C1925 H1929 0.930 . S
C1926 C1925 1.369 . S
C1926 C1935 1.429 . S
C1927 C1925 1.419 . S
C1927 C1928 1.363 . S
C1927 H1930 0.929 . S
C1928 C1927 1.363 . S
C1928 C1934 1.428 . S
H1929 C1925 0.930 . S
H1930 C1927 0.929 . S
S1931 N1932 1.613 . S
S1931 N1933 1.610 . S
N1932 S1931 1.613 . S
N1932 C1935 1.350 . S
N1933 S1931 1.610 . S
N1933 C1934 1.351 . S
C1934 C1928 1.428 . S
C1934 N1933 1.351 . S
C1934 C1935 1.434 . S
C1935 C1926 1.429 . S
C1935 N1932 1.350 . S
C1935 C1934 1.434 . S
C1936 C1937 1.369 . S
C1936 C1938 1.419 1_545 S
C1936 H1940 0.930 . S
C1937 C1936 1.369 . S
C1937 C1946 1.429 . S
C1938 C1936 1.419 1_565 S
C1938 C1939 1.363 . S
C1938 H1941 0.929 . S
C1939 C1938 1.363 . S
C1939 C1945 1.428 . S
H1940 C1936 0.930 . S
H1941 C1938 0.929 . S
S1942 N1943 1.613 1_565 S
S1942 N1944 1.610 . S
N1943 S1942 1.613 1_545 S
N1943 C1946 1.350 . S
N1944 S1942 1.610 . S
N1944 C1945 1.351 . S
C1945 C1939 1.428 . S
C1945 N1944 1.351 . S
C1945 C1946 1.434 1_565 S
C1946 C1937 1.429 . S
C1946 N1943 1.350 . S
C1946 C1945 1.434 1_545 S
C1947 C1948 1.369 . S
C1947 C1949 1.419 1_545 S
C1947 H1951 0.930 . S
C1948 C1947 1.369 . S
C1948 C1957 1.429 . S
C1949 C1947 1.419 1_565 S
C1949 C1950 1.363 . S
C1949 H1952 0.929 . S
C1950 C1949 1.363 . S
C1950 C1956 1.428 . S
H1951 C1947 0.930 . S
H1952 C1949 0.929 . S
S1953 N1954 1.613 1_565 S
S1953 N1955 1.610 . S
N1954 S1953 1.613 1_545 S
N1954 C1957 1.350 . S
N1955 S1953 1.610 . S
N1955 C1956 1.351 . S
C1956 C1950 1.428 . S
C1956 N1955 1.351 . S
C1956 C1957 1.434 1_565 S
C1957 C1948 1.429 . S
C1957 N1954 1.350 . S
C1957 C1956 1.434 1_545 S
C1958 C1959 1.369 . S
C1958 C1960 1.419 1_655 S
C1958 H1962 0.930 . S
C1959 C1958 1.369 . S
C1959 C1968 1.429 . S
C1960 C1958 1.419 1_455 S
C1960 C1961 1.363 . S
C1960 H1963 0.929 . S
C1961 C1960 1.363 . S
C1961 C1967 1.428 . S
H1962 C1958 0.930 . S
H1963 C1960 0.929 . S
S1964 N1965 1.613 1_455 S
S1964 N1966 1.610 . S
N1965 S1964 1.613 1_655 S
N1965 C1968 1.350 . S
N1966 S1964 1.610 . S
N1966 C1967 1.351 . S
C1967 C1961 1.428 . S
C1967 N1966 1.351 . S
C1967 C1968 1.434 1_455 S
C1968 C1959 1.429 . S
C1968 N1965 1.350 . S
C1968 C1967 1.434 1_655 S
C1969 C1970 1.369 . S
C1969 C1971 1.419 . S
C1969 H1973 0.930 . S
C1970 C1969 1.369 . S
C1970 C1979 1.429 . S
C1971 C1969 1.419 . S
C1971 C1972 1.363 . S
C1971 H1974 0.929 . S
C1972 C1971 1.363 . S
C1972 C1978 1.428 . S
H1973 C1969 0.930 . S
H1974 C1971 0.929 . S
S1975 N1976 1.613 . S
S1975 N1977 1.610 . S
N1976 S1975 1.613 . S
N1976 C1979 1.350 . S
N1977 S1975 1.610 . S
N1977 C1978 1.351 . S
C1978 C1972 1.428 . S
C1978 N1977 1.351 . S
C1978 C1979 1.434 . S
C1979 C1970 1.429 . S
C1979 N1976 1.350 . S
C1979 C1978 1.434 . S
C793 C8 1.582 1_556 S
C795 C162 1.567 . S
C804 C184 1.572 . S
C806 C30 1.581 1_556 S
C815 C140 1.571 . S
C817 C52 1.581 1_556 S
C826 C250 1.568 . S
C828 C70 1.580 . S
C837 C92 1.580 . S
C839 C206 1.567 . S
C848 C114 1.581 . S
C850 C228 1.567 . S
C859 C26 1.569 . S
C861 C136 1.584 1_554 S
C870 C158 1.584 1_554 S
C872 C48 1.572 . S
C881 C4 1.570 . S
C883 C180 1.584 1_554 S
C892 C118 1.569 . S
C894 C202 1.580 . S
C903 C224 1.583 . S
C905 C74 1.568 . S
C914 C246 1.580 . S
C916 C96 1.567 . S
C925 C272 1.585 . S
C927 C426 1.571 . S
C936 C448 1.567 . S
C938 C294 1.581 . S
C947 C404 1.568 . S
C949 C316 1.580 . S
C958 C334 1.584 . S
C960 C514 1.572 . S
C969 C470 1.566 . S
C971 C356 1.582 . S
C980 C378 1.581 . S
C982 C492 1.567 . S
C991 C400 1.581 . S
C993 C290 1.567 . S
C1002 C312 1.572 . S
C1004 C422 1.584 . S
C1013 C444 1.582 . S
C1015 C268 1.572 . S
C1024 C382 1.567 . S
C1026 C466 1.581 . S
C1035 C338 1.567 . S
C1037 C488 1.581 . S
C1046 C510 1.581 . S
C1048 C360 1.567 . S
C1057 C536 1.581 . S
C1059 C690 1.567 . S
C1068 C558 1.580 . S
C1070 C712 1.568 . S
C1079 C668 1.569 . S
C1081 C580 1.580 . S
C1090 C778 1.568 . S
C1092 C598 1.583 . S
C1101 C620 1.585 . S
C1103 C734 1.570 . S
C1112 C756 1.572 . S
C1114 C642 1.584 . S
C1123 C554 1.572 . S
C1125 C664 1.582 . S
C1134 C686 1.584 . S
C1136 C576 1.569 . S
C1145 C532 1.566 . S
C1147 C708 1.582 . S
C1156 C730 1.582 . S
C1158 C646 1.567 . S
C1167 C752 1.582 . S
C1169 C602 1.568 . S
C1178 C774 1.584 . S
C1180 C624 1.570 . S
C1189 C9 1.813 . S
C1191 C402 1.803 . S
C1200 C31 1.808 . S
C1202 C424 1.807 . S
C1211 C446 1.807 . S
C1213 C53 1.808 . S
C1222 C732 1.810 . S
C1224 C71 1.805 . S
C1233 C754 1.811 . S
C1235 C93 1.804 . S
C1244 C776 1.812 . S
C1246 C115 1.804 . S
C1255 C138 1.802 . S
C1257 C537 1.811 . S
C1266 C559 1.809 . S
C1268 C160 1.807 . S
C1277 C182 1.810 . S
C1279 C581 1.806 . S
C1288 C204 1.807 . S
C1290 C335 1.807 . S
C1299 C226 1.803 . S
C1301 C357 1.811 . S
C1310 C248 1.803 . S
C1312 C379 1.811 . S
C1321 C273 1.812 . S
C1323 C666 1.803 . S
C1332 C688 1.812 . S
C1334 C295 1.804 . S
C1343 C317 1.807 . S
C1345 C710 1.808 . S
C1354 C599 1.805 . S
C1356 C468 1.810 . S
C1365 C490 1.809 . S
C1367 C621 1.807 . S
C1376 C643 1.809 . S
C1378 C512 1.806 . S
C1387 C7 1.534 1_556 S
C1389 C358 1.541 . S
C1398 C29 1.541 1_556 S
C1400 C380 1.541 . S
C1409 C336 1.543 . S
C1411 C51 1.537 1_556 S
C1420 C72 1.536 . S
C1422 C579 1.533 . S
C1431 C535 1.534 . S
C1433 C94 1.534 . S
C1442 C116 1.536 . S
C1444 C557 1.542 . S
C1453 C753 1.532 . S
C1455 C137 1.540 1_554 S
C1464 C159 1.540 1_554 S
C1466 C775 1.541 . S
C1475 C731 1.537 . S
C1477 C181 1.533 1_554 S
C1486 C203 1.532 . S
C1488 C445 1.540 . S
C1497 C225 1.542 . S
C1499 C401 1.540 . S
C1508 C247 1.543 . S
C1510 C423 1.536 . S
C1519 C622 1.535 . S
C1521 C271 1.533 . S
C1530 C293 1.532 . S
C1532 C644 1.537 . S
C1541 C315 1.537 . S
C1543 C600 1.542 . S
C1552 C709 1.543 . S
C1554 C467 1.536 . S
C1563 C665 1.541 . S
C1565 C489 1.534 . S
C1574 C687 1.535 . S
C1576 C511 1.534 . S
C1585 C73 1.057 . S
C1587 C6 1.049 . S
C1596 C28 1.048 . S
C1598 C95 1.056 . S
C1607 C50 1.053 . S
C1609 C117 1.051 . S
C1618 C207 1.057 . S
C1620 C141 1.049 . S
C1629 C163 1.057 . S
C1631 C229 1.050 . S
C1640 C251 1.050 . S
C1642 C185 1.055 . S
C1651 C337 1.055 . S
C1653 C270 1.051 . S
C1662 C292 1.052 . S
C1664 C359 1.052 . S
C1673 C314 1.056 . S
C1675 C381 1.050 . S
C1684 C405 1.049 . S
C1686 C471 1.054 . S
C1695 C427 1.057 . S
C1697 C493 1.049 . S
C1706 C449 1.049 . S
C1708 C515 1.056 . S
C1717 C534 1.056 . S
C1719 C601 1.050 . S
C1728 C623 1.049 . S
C1730 C556 1.055 . S
C1739 C645 1.048 . S
C1741 C578 1.056 . S
C1750 C669 1.048 . S
C1752 C735 1.056 . S
C1761 C757 1.048 . S
C1763 C691 1.056 . S
C1772 C713 1.057 . S
C1774 C779 1.049 . S
C1783 C5 1.719 . S
C1785 C647 1.720 . S
C1794 C603 1.720 . S
C1796 C27 1.716 . S
C1805 C49 1.713 . S
C1807 C625 1.717 . S
C1816 C291 1.720 . S
C1818 C75 1.717 . S
C1827 C97 1.715 . S
C1829 C313 1.713 . S
C1838 C119 1.713 . S
C1840 C269 1.713 . S
C1849 C513 1.719 . S
C1851 C139 1.715 . S
C1860 C161 1.713 . S
C1862 C469 1.717 . S
C1871 C491 1.712 . S
C1873 C183 1.717 . S
C1882 C205 1.712 . S
C1884 C689 1.714 . S
C1893 C711 1.714 . S
C1895 C227 1.713 . S
C1904 C667 1.717 . S
C1906 C249 1.720 . S
C1915 C339 1.712 . S
C1917 C555 1.715 . S
C1926 C361 1.718 . S
C1928 C577 1.715 . S
C1937 C383 1.717 . S
C1939 C533 1.714 . S
C1948 C403 1.720 . S
C1950 C777 1.716 . S
C1959 C425 1.720 . S
C1961 C733 1.719 . S
C1970 C755 1.714 . S
C1972 C447 1.718 . S
