# Generated by pormake.
# Topology wjr, (5)-cn, num edge types: 1
# Building blocks:
#     Node 0, Type 0, BuildingBlock: XOMCOT_clean_sbu_1, # of connection points: 5
#     Node 1, Type 0, BuildingBlock: XOMCOT_clean_sbu_1, # of connection points: 5
#     Node 2, Type 0, BuildingBlock: XOMCOT_clean_sbu_1, # of connection points: 5
#     Node 3, Type 0, BuildingBlock: XOMCOT_clean_sbu_1, # of connection points: 5
#     Node 4, Type 0, BuildingBlock: XOMCOT_clean_sbu_1, # of connection points: 5
#     Node 5, Type 0, BuildingBlock: XOMCOT_clean_sbu_1, # of connection points: 5
#     Node 6, Type 0, BuildingBlock: XOMCOT_clean_sbu_1, # of connection points: 5
#     Node 7, Type 0, BuildingBlock: XOMCOT_clean_sbu_1, # of connection points: 5
#     Node 8, Type 0, BuildingBlock: XOMCOT_clean_sbu_1, # of connection points: 5
#     Node 9, Type 0, BuildingBlock: XOMCOT_clean_sbu_1, # of connection points: 5
#     Node 10, Type 0, BuildingBlock: XOMCOT_clean_sbu_1, # of connection points: 5
#     Node 11, Type 0, BuildingBlock: XOMCOT_clean_sbu_1, # of connection points: 5
#     Node 12, Type 0, BuildingBlock: XOMCOT_clean_sbu_1, # of connection points: 5
#     Node 13, Type 0, BuildingBlock: XOMCOT_clean_sbu_1, # of connection points: 5
#     Node 14, Type 0, BuildingBlock: XOMCOT_clean_sbu_1, # of connection points: 5
#     Node 15, Type 0, BuildingBlock: XOMCOT_clean_sbu_1, # of connection points: 5
#     Node 16, Type 0, BuildingBlock: XOMCOT_clean_sbu_1, # of connection points: 5
#     Node 17, Type 0, BuildingBlock: XOMCOT_clean_sbu_1, # of connection points: 5
#     Node 18, Type 0, BuildingBlock: XOMCOT_clean_sbu_1, # of connection points: 5
#     Node 19, Type 0, BuildingBlock: XOMCOT_clean_sbu_1, # of connection points: 5
#     Node 20, Type 0, BuildingBlock: XOMCOT_clean_sbu_1, # of connection points: 5
#     Node 21, Type 0, BuildingBlock: XOMCOT_clean_sbu_1, # of connection points: 5
#     Node 22, Type 0, BuildingBlock: XOMCOT_clean_sbu_1, # of connection points: 5
#     Node 23, Type 0, BuildingBlock: XOMCOT_clean_sbu_1, # of connection points: 5
#     Edge 24, Type (0, 0), BuildingBlock: XUDNAN_clean_linker_2, # of connection points: 2
#     Edge 25, Type (0, 0), BuildingBlock: XUDNAN_clean_linker_2, # of connection points: 2
#     Edge 26, Type (0, 0), BuildingBlock: XUDNAN_clean_linker_2, # of connection points: 2
#     Edge 27, Type (0, 0), BuildingBlock: XUDNAN_clean_linker_2, # of connection points: 2
#     Edge 28, Type (0, 0), BuildingBlock: XUDNAN_clean_linker_2, # of connection points: 2
#     Edge 29, Type (0, 0), BuildingBlock: XUDNAN_clean_linker_2, # of connection points: 2
#     Edge 30, Type (0, 0), BuildingBlock: XUDNAN_clean_linker_2, # of connection points: 2
#     Edge 31, Type (0, 0), BuildingBlock: XUDNAN_clean_linker_2, # of connection points: 2
#     Edge 32, Type (0, 0), BuildingBlock: XUDNAN_clean_linker_2, # of connection points: 2
#     Edge 33, Type (0, 0), BuildingBlock: XUDNAN_clean_linker_2, # of connection points: 2
#     Edge 34, Type (0, 0), BuildingBlock: XUDNAN_clean_linker_2, # of connection points: 2
#     Edge 35, Type (0, 0), BuildingBlock: XUDNAN_clean_linker_2, # of connection points: 2
#     Edge 36, Type (0, 0), BuildingBlock: XUDNAN_clean_linker_2, # of connection points: 2
#     Edge 37, Type (0, 0), BuildingBlock: XUDNAN_clean_linker_2, # of connection points: 2
#     Edge 38, Type (0, 0), BuildingBlock: XUDNAN_clean_linker_2, # of connection points: 2
#     Edge 39, Type (0, 0), BuildingBlock: XUDNAN_clean_linker_2, # of connection points: 2
#     Edge 40, Type (0, 0), BuildingBlock: XUDNAN_clean_linker_2, # of connection points: 2
#     Edge 41, Type (0, 0), BuildingBlock: XUDNAN_clean_linker_2, # of connection points: 2
#     Edge 42, Type (0, 0), BuildingBlock: XUDNAN_clean_linker_2, # of connection points: 2
#     Edge 43, Type (0, 0), BuildingBlock: XUDNAN_clean_linker_2, # of connection points: 2
#     Edge 44, Type (0, 0), BuildingBlock: XUDNAN_clean_linker_2, # of connection points: 2
#     Edge 45, Type (0, 0), BuildingBlock: XUDNAN_clean_linker_2, # of connection points: 2
#     Edge 46, Type (0, 0), BuildingBlock: XUDNAN_clean_linker_2, # of connection points: 2
#     Edge 47, Type (0, 0), BuildingBlock: XUDNAN_clean_linker_2, # of connection points: 2
#     Edge 48, Type (0, 0), BuildingBlock: XUDNAN_clean_linker_2, # of connection points: 2
#     Edge 49, Type (0, 0), BuildingBlock: XUDNAN_clean_linker_2, # of connection points: 2
#     Edge 50, Type (0, 0), BuildingBlock: XUDNAN_clean_linker_2, # of connection points: 2
#     Edge 51, Type (0, 0), BuildingBlock: XUDNAN_clean_linker_2, # of connection points: 2
#     Edge 52, Type (0, 0), BuildingBlock: XUDNAN_clean_linker_2, # of connection points: 2
#     Edge 53, Type (0, 0), BuildingBlock: XUDNAN_clean_linker_2, # of connection points: 2
#     Edge 54, Type (0, 0), BuildingBlock: XUDNAN_clean_linker_2, # of connection points: 2
#     Edge 55, Type (0, 0), BuildingBlock: XUDNAN_clean_linker_2, # of connection points: 2
#     Edge 56, Type (0, 0), BuildingBlock: XUDNAN_clean_linker_2, # of connection points: 2
#     Edge 57, Type (0, 0), BuildingBlock: XUDNAN_clean_linker_2, # of connection points: 2
#     Edge 58, Type (0, 0), BuildingBlock: XUDNAN_clean_linker_2, # of connection points: 2
#     Edge 59, Type (0, 0), BuildingBlock: XUDNAN_clean_linker_2, # of connection points: 2
#     Edge 60, Type (0, 0), BuildingBlock: XUDNAN_clean_linker_2, # of connection points: 2
#     Edge 61, Type (0, 0), BuildingBlock: XUDNAN_clean_linker_2, # of connection points: 2
#     Edge 62, Type (0, 0), BuildingBlock: XUDNAN_clean_linker_2, # of connection points: 2
#     Edge 63, Type (0, 0), BuildingBlock: XUDNAN_clean_linker_2, # of connection points: 2
#     Edge 64, Type (0, 0), BuildingBlock: XUDNAN_clean_linker_2, # of connection points: 2
#     Edge 65, Type (0, 0), BuildingBlock: XUDNAN_clean_linker_2, # of connection points: 2
#     Edge 66, Type (0, 0), BuildingBlock: XUDNAN_clean_linker_2, # of connection points: 2
#     Edge 67, Type (0, 0), BuildingBlock: XUDNAN_clean_linker_2, # of connection points: 2
#     Edge 68, Type (0, 0), BuildingBlock: XUDNAN_clean_linker_2, # of connection points: 2
#     Edge 69, Type (0, 0), BuildingBlock: XUDNAN_clean_linker_2, # of connection points: 2
#     Edge 70, Type (0, 0), BuildingBlock: XUDNAN_clean_linker_2, # of connection points: 2
#     Edge 71, Type (0, 0), BuildingBlock: XUDNAN_clean_linker_2, # of connection points: 2
#     Edge 72, Type (0, 0), BuildingBlock: XUDNAN_clean_linker_2, # of connection points: 2
#     Edge 73, Type (0, 0), BuildingBlock: XUDNAN_clean_linker_2, # of connection points: 2
#     Edge 74, Type (0, 0), BuildingBlock: XUDNAN_clean_linker_2, # of connection points: 2
#     Edge 75, Type (0, 0), BuildingBlock: XUDNAN_clean_linker_2, # of connection points: 2
#     Edge 76, Type (0, 0), BuildingBlock: XUDNAN_clean_linker_2, # of connection points: 2
#     Edge 77, Type (0, 0), BuildingBlock: XUDNAN_clean_linker_2, # of connection points: 2
#     Edge 78, Type (0, 0), BuildingBlock: XUDNAN_clean_linker_2, # of connection points: 2
#     Edge 79, Type (0, 0), BuildingBlock: XUDNAN_clean_linker_2, # of connection points: 2
#     Edge 80, Type (0, 0), BuildingBlock: XUDNAN_clean_linker_2, # of connection points: 2
#     Edge 81, Type (0, 0), BuildingBlock: XUDNAN_clean_linker_2, # of connection points: 2
#     Edge 82, Type (0, 0), BuildingBlock: XUDNAN_clean_linker_2, # of connection points: 2
#     Edge 83, Type (0, 0), BuildingBlock: XUDNAN_clean_linker_2, # of connection points: 2
# Relax obj value: 0.614
# Max RMSD: 0.257
# Mean RMSD: 0.257
data_MOF--net-wjr--node1-XOMCOT_clean_sbu_1--edge1-XUDNAN_clean_linker_2
_symmetry_space_group_name_H-M    P1
_symmetry_Int_Tables_number       1
_symmetry_cell_setting            triclinic
loop_
_symmetry_equiv_pos_as_xyz
'x, y, z'
_cell_length_a     63.624349
_cell_length_b     63.59725
_cell_length_c     48.100271
_cell_angle_alpha  89.962066
_cell_angle_beta   90.010766
_cell_angle_gamma 119.96592
loop_
_atom_site_label
_atom_site_type_symbol
_atom_site_fract_x
_atom_site_fract_y
_atom_site_fract_z
_atom_type_partial_charge
C0 C 0.45918 0.15216 0.14608 0.0
C1 C 0.4583 0.1696 0.16227 0.0
N2 N 0.48057 0.18425 0.17286 0.0
N3 N 0.48192 0.1557 0.14632 0.0
C4 C 0.49458 0.17563 0.16244 0.0
H5 H 0.44392 0.13703 0.13601 0.0
Co6 Co 0.49152 0.13412 0.13173 0.0
C7 C 0.54003 0.1549 0.15683 0.0
O8 O 0.55042 0.15536 0.13307 0.0
N9 N 0.5011 0.11228 0.11736 0.0
C10 C 0.51179 0.09281 0.08711 0.0
C11 C 0.50539 0.11037 0.09027 0.0
C12 C 0.50461 0.0952 0.13024 0.0
N13 N 0.51119 0.08314 0.11219 0.0
O14 O 0.51204 0.15822 0.10519 0.0
H15 H 0.50379 0.12092 0.07365 0.0
H16 H 0.50254 0.09178 0.1524 0.0
O17 O 0.51721 0.1461 0.15814 0.0
C18 C 0.50072 0.16241 0.08612 0.0
O19 O 0.47692 0.15128 0.08727 0.0
N20 N 0.4705 0.11049 0.1563 0.0
C21 C 0.43532 0.07415 0.18943 0.0
C22 C 0.45425 0.09525 0.20143 0.0
C23 C 0.4717 0.11327 0.18446 0.0
C24 C 0.45191 0.09051 0.14418 0.0
C25 C 0.43425 0.07193 0.16038 0.0
H26 H 0.48577 0.12966 0.19396 0.0
H27 H 0.45091 0.089 0.12176 0.0
H28 H 0.51361 0.18331 0.16717 0.0
H29 H 0.44214 0.17043 0.16728 0.0
H30 H 0.51614 0.08722 0.06771 0.0
H31 H 0.45543 0.09799 0.22372 0.0
H32 H 0.42012 0.05589 0.15021 0.0
C33 C 0.31234 0.46895 0.13618 0.0
C34 C 0.28971 0.46469 0.14413 0.0
N35 N 0.29219 0.47723 0.16762 0.0
N36 N 0.32916 0.48377 0.15475 0.0
C37 C 0.31621 0.48894 0.17319 0.0
H38 H 0.3163 0.46151 0.11803 0.0
Co39 Co 0.363 0.49486 0.15122 0.0
C40 C 0.36735 0.52 0.20561 0.0
O41 O 0.35408 0.49979 0.21953 0.0
N42 N 0.39702 0.50681 0.14692 0.0
C43 C 0.43616 0.53434 0.14303 0.0
C44 C 0.41317 0.53077 0.14582 0.0
C45 C 0.41087 0.4961 0.14441 0.0
N46 N 0.435 0.51258 0.14242 0.0
O47 O 0.36474 0.51683 0.12304 0.0
H48 H 0.40851 0.54494 0.14692 0.0
H49 H 0.40341 0.47664 0.14471 0.0
O50 O 0.37082 0.51949 0.17952 0.0
C51 C 0.36689 0.50896 0.09955 0.0
O52 O 0.3672 0.48845 0.09857 0.0
N53 N 0.36096 0.47173 0.17712 0.0
C54 C 0.35961 0.43404 0.20798 0.0
C55 C 0.37736 0.45816 0.21329 0.0
C56 C 0.37785 0.47677 0.19745 0.0
C57 C 0.34385 0.44825 0.17157 0.0
C58 C 0.34249 0.42918 0.18716 0.0
H59 H 0.39232 0.49518 0.20088 0.0
H60 H 0.33188 0.44393 0.15402 0.0
H61 H 0.32395 0.50185 0.18977 0.0
H62 H 0.27277 0.45303 0.13359 0.0
H63 H 0.45244 0.55186 0.14128 0.0
H64 H 0.39119 0.46251 0.22894 0.0
H65 H 0.32912 0.41069 0.18179 0.0
C66 C 0.85458 0.30682 0.13535 0.0
C67 C 0.83598 0.28984 0.15163 0.0
N68 N 0.82898 0.30159 0.16931 0.0
N69 N 0.85925 0.32926 0.1425 0.0
C70 C 0.84321 0.32542 0.16315 0.0
H71 H 0.86477 0.30311 0.12008 0.0
Co72 Co 0.88494 0.35865 0.12825 0.0
C73 C 0.88854 0.38894 0.17878 0.0
O74 O 0.90882 0.39135 0.18874 0.0
N75 N 0.91072 0.38852 0.11383 0.0
C76 C 0.93287 0.41935 0.08505 0.0
C77 C 0.91302 0.39636 0.08731 0.0
C78 C 0.93 0.40699 0.12702 0.0
N79 N 0.94357 0.4261 0.11013 0.0
O80 O 0.86228 0.3617 0.10458 0.0
H81 H 0.90104 0.38611 0.0705 0.0
H82 H 0.93414 0.40657 0.14863 0.0
O83 O 0.87917 0.37692 0.15654 0.0
C84 C 0.85613 0.34749 0.08376 0.0
O85 O 0.86599 0.33378 0.08055 0.0
N86 N 0.9069 0.35395 0.14957 0.0
C87 C 0.94012 0.34397 0.17566 0.0
C88 C 0.92024 0.34228 0.19035 0.0
C89 C 0.90348 0.3467 0.17671 0.0
C90 C 0.92507 0.35398 0.13451 0.0
C91 C 0.94198 0.34925 0.14715 0.0
H92 H 0.88802 0.34476 0.18817 0.0
H93 H 0.92641 0.35761 0.11242 0.0
H94 H 0.84246 0.33983 0.17421 0.0
H95 H 0.82912 0.27047 0.15153 0.0
H96 H 0.93904 0.43017 0.06628 0.0
H97 H 0.91787 0.33818 0.21235 0.0
H98 H 0.95639 0.3498 0.13465 0.0
C99 C 0.55489 0.85538 0.16456 0.0
C100 C 0.55651 0.83754 0.17887 0.0
N101 N 0.53488 0.8226 0.19071 0.0
N102 N 0.53238 0.85225 0.16739 0.0
C103 C 0.52035 0.83132 0.18226 0.0
H104 H 0.56961 0.86978 0.15317 0.0
Co105 Co 0.52078 0.87343 0.15506 0.0
C106 C 0.50104 0.8606 0.2129 0.0
O107 O 0.52141 0.86329 0.22312 0.0
N108 N 0.50881 0.89418 0.14332 0.0
C109 C 0.48305 0.90822 0.13946 0.0
C110 C 0.4852 0.88802 0.14424 0.0
C111 C 0.52057 0.91829 0.13719 0.0
N112 N 0.50537 0.92742 0.13529 0.0
O113 O 0.49552 0.84753 0.13381 0.0
H114 H 0.47048 0.87012 0.14942 0.0
H115 H 0.54006 0.92934 0.1358 0.0
O116 O 0.49939 0.86442 0.18711 0.0
C117 C 0.50036 0.83696 0.1144 0.0
O118 O 0.52242 0.84038 0.11231 0.0
N119 N 0.54626 0.89999 0.17315 0.0
C120 C 0.58192 0.94787 0.18273 0.0
C121 C 0.56134 0.93653 0.19977 0.0
C122 C 0.54346 0.91272 0.19431 0.0
C123 C 0.56679 0.91049 0.15729 0.0
C124 C 0.58511 0.93431 0.16205 0.0
H125 H 0.52646 0.90601 0.20501 0.0
H126 H 0.56767 0.90151 0.13865 0.0
H127 H 0.50148 0.82336 0.18805 0.0
H128 H 0.57271 0.83616 0.18072 0.0
H129 H 0.46632 0.90876 0.13966 0.0
H130 H 0.55817 0.94662 0.21576 0.0
H131 H 0.6004 0.94271 0.14792 0.0
C132 C 0.70524 0.53031 0.14417 0.0
C133 C 0.72132 0.52772 0.16112 0.0
N134 N 0.70953 0.51593 0.18439 0.0
N135 N 0.68334 0.52015 0.15658 0.0
C136 C 0.68642 0.51099 0.18071 0.0
H137 H 0.70972 0.54065 0.12507 0.0
Co138 Co 0.65814 0.5256 0.14525 0.0
C139 C 0.61983 0.50028 0.18699 0.0
O140 O 0.61765 0.51972 0.18925 0.0
N141 N 0.63237 0.53135 0.13282 0.0
C142 C 0.61306 0.5504 0.11767 0.0
C143 C 0.63526 0.55222 0.12184 0.0
C144 C 0.60779 0.51642 0.13265 0.0
N145 N 0.59567 0.52797 0.12492 0.0
O146 O 0.64947 0.50215 0.11627 0.0
H147 H 0.65234 0.56799 0.11675 0.0
H148 H 0.59876 0.49767 0.13925 0.0
O149 O 0.63557 0.50023 0.17047 0.0
C150 C 0.65627 0.51226 0.09259 0.0
O151 O 0.66811 0.53606 0.09109 0.0
N152 N 0.66838 0.5501 0.17278 0.0
C153 C 0.67385 0.58651 0.20828 0.0
C154 C 0.66938 0.56422 0.21905 0.0
C155 C 0.66701 0.54623 0.20085 0.0
C156 C 0.67883 0.57333 0.16315 0.0
C157 C 0.68089 0.59191 0.18044 0.0
H158 H 0.66171 0.52868 0.20948 0.0
H159 H 0.68401 0.57715 0.14158 0.0
H160 H 0.6724 0.50208 0.19621 0.0
H161 H 0.74065 0.53583 0.15769 0.0
H162 H 0.60996 0.56464 0.11002 0.0
H163 H 0.66503 0.55984 0.24084 0.0
H164 H 0.68564 0.60939 0.17158 0.0
C165 C 0.17421 0.70371 0.14847 0.0
C166 C 0.1953 0.72085 0.16089 0.0
N167 N 0.19419 0.71561 0.18817 0.0
N168 N 0.1598 0.68744 0.16765 0.0
C169 C 0.17237 0.69529 0.19183 0.0
H170 H 0.16962 0.70321 0.12675 0.0
Co171 Co 0.12929 0.66109 0.15902 0.0
C172 C 0.11709 0.62647 0.2054 0.0
O173 O 0.09453 0.62194 0.20511 0.0
N174 N 0.09812 0.63417 0.14916 0.0
C175 C 0.06029 0.612 0.13318 0.0
C176 C 0.07867 0.63505 0.13931 0.0
C177 C 0.09115 0.61018 0.14778 0.0
N178 N 0.06803 0.59624 0.13869 0.0
O179 O 0.14396 0.64907 0.13377 0.0
H180 H 0.07775 0.65133 0.13602 0.0
H181 H 0.10289 0.60306 0.15327 0.0
O182 O 0.13269 0.64216 0.18875 0.0
C183 C 0.14012 0.65324 0.10897 0.0
O184 O 0.12804 0.66474 0.10484 0.0
N185 N 0.11497 0.67447 0.18185 0.0
C186 C 0.08255 0.68678 0.20475 0.0
C187 C 0.09437 0.67781 0.22169 0.0
C188 C 0.11131 0.67258 0.20991 0.0
C189 C 0.10761 0.68763 0.16657 0.0
C190 C 0.09125 0.69394 0.17757 0.0
H191 H 0.12016 0.66569 0.22315 0.0
H192 H 0.11266 0.6912 0.14488 0.0
H193 H 0.16585 0.68618 0.2116 0.0
H194 H 0.21023 0.73624 0.15067 0.0
H195 H 0.04243 0.60723 0.12559 0.0
H196 H 0.08931 0.67295 0.24321 0.0
H197 H 0.08401 0.70246 0.16414 0.0
C198 C 0.85637 0.55071 0.35424 0.0
C199 C 0.83532 0.55072 0.34713 0.0
N200 N 0.8214 0.53072 0.33189 0.0
N201 N 0.85582 0.53091 0.34331 0.0
C202 C 0.83387 0.51871 0.33071 0.0
H203 H 0.87179 0.56504 0.36505 0.0
Co204 Co 0.88186 0.52463 0.34202 0.0
C205 C 0.85897 0.50104 0.28512 0.0
O206 O 0.85316 0.51652 0.27476 0.0
N207 N 0.90771 0.51737 0.34 0.0
C208 C 0.93632 0.51208 0.31992 0.0
C209 C 0.91832 0.51755 0.31558 0.0
C210 C 0.91978 0.5115 0.35905 0.0
N211 N 0.93743 0.50833 0.34728 0.0
O212 O 0.86371 0.49705 0.36545 0.0
H213 H 0.91345 0.52171 0.29561 0.0
H214 H 0.91603 0.50995 0.3811 0.0
O215 O 0.86883 0.50442 0.30906 0.0
C216 C 0.86967 0.50443 0.39035 0.0
O217 O 0.88612 0.52726 0.39455 0.0
N218 N 0.90082 0.55369 0.32141 0.0
C219 C 0.93275 0.59726 0.29439 0.0
C220 C 0.90799 0.58436 0.28746 0.0
C221 C 0.89235 0.56274 0.3013 0.0
C222 C 0.92411 0.56755 0.3306 0.0
C223 C 0.94052 0.58873 0.31684 0.0
H224 H 0.87336 0.55406 0.29655 0.0
H225 H 0.93039 0.56191 0.34845 0.0
H226 H 0.82729 0.50165 0.31999 0.0
H227 H 0.83139 0.56515 0.3511 0.0
H228 H 0.9475 0.51063 0.30394 0.0
H229 H 0.9006 0.59086 0.27155 0.0
H230 H 0.95924 0.59777 0.32352 0.0
C231 C 0.30531 0.85074 0.36817 0.0
C232 C 0.28777 0.83202 0.35254 0.0
N233 N 0.29876 0.82465 0.33411 0.0
N234 N 0.3274 0.85536 0.35977 0.0
C235 C 0.32281 0.83895 0.33933 0.0
H236 H 0.30223 0.86106 0.38387 0.0
Co237 Co 0.35685 0.8817 0.37244 0.0
C238 C 0.38698 0.88318 0.32338 0.0
O239 O 0.38912 0.90321 0.31291 0.0
N240 N 0.38649 0.90808 0.38616 0.0
C241 C 0.41335 0.93211 0.41783 0.0
C242 C 0.39048 0.91262 0.41362 0.0
C243 C 0.40724 0.92561 0.37407 0.0
N244 N 0.42396 0.94034 0.39291 0.0
O245 O 0.36017 0.86112 0.39908 0.0
H246 H 0.37745 0.90232 0.42967 0.0
H247 H 0.41033 0.92771 0.35201 0.0
O248 O 0.37513 0.8741 0.3458 0.0
C249 C 0.35567 0.83938 0.40236 0.0
O250 O 0.34567 0.82341 0.3823 0.0
N251 N 0.35251 0.9025 0.34817 0.0
C252 C 0.3508 0.93748 0.31536 0.0
C253 C 0.34385 0.91457 0.30435 0.0
C254 C 0.34447 0.89709 0.32132 0.0
C255 C 0.35586 0.92346 0.35998 0.0
C256 C 0.35573 0.94151 0.34379 0.0
H257 H 0.34046 0.88004 0.31209 0.0
H258 H 0.35971 0.92674 0.38194 0.0
H259 H 0.33697 0.83815 0.32784 0.0
H260 H 0.26847 0.82527 0.35387 0.0
H261 H 0.42144 0.9398 0.43776 0.0
H262 H 0.33972 0.91079 0.28245 0.0
H263 H 0.36046 0.95882 0.35312 0.0
C264 C 0.46689 0.2973 0.35808 0.0
C265 C 0.47095 0.28041 0.34494 0.0
N266 N 0.48188 0.28981 0.3205 0.0
N267 N 0.4754 0.31737 0.34212 0.0
C268 C 0.48462 0.31226 0.31932 0.0
H269 H 0.45795 0.29498 0.37788 0.0
Co270 Co 0.47249 0.34436 0.35216 0.0
C271 C 0.49346 0.37733 0.30452 0.0
O272 O 0.47443 0.38029 0.30377 0.0
N273 N 0.46967 0.37207 0.36388 0.0
C274 C 0.45611 0.39362 0.38654 0.0
C275 C 0.45276 0.37086 0.38179 0.0
C276 C 0.48421 0.39644 0.35978 0.0
N277 N 0.47588 0.40997 0.37247 0.0
O278 O 0.4991 0.35459 0.37695 0.0
H279 H 0.4392 0.35458 0.39195 0.0
H280 H 0.50105 0.4043 0.34835 0.0
O281 O 0.49487 0.36349 0.32276 0.0
C282 C 0.49242 0.34861 0.40198 0.0
O283 O 0.46916 0.33662 0.40783 0.0
N284 N 0.44513 0.33291 0.32844 0.0
C285 C 0.4069 0.3265 0.2952 0.0
C286 C 0.42704 0.32657 0.28335 0.0
C287 C 0.44596 0.32955 0.30047 0.0
C288 C 0.42345 0.32698 0.3404 0.0
C289 C 0.40417 0.32447 0.32414 0.0
H290 H 0.46207 0.33152 0.29072 0.0
H291 H 0.42139 0.32544 0.36262 0.0
H292 H 0.49311 0.32459 0.30209 0.0
H293 H 0.46574 0.26238 0.35237 0.0
H294 H 0.44468 0.39758 0.39957 0.0
H295 H 0.42928 0.32691 0.26099 0.0
H296 H 0.38837 0.32322 0.33424 0.0
C297 C 0.1678 0.46759 0.35299 0.0
C298 C 0.18635 0.47085 0.3356 0.0
N299 N 0.18225 0.47699 0.31018 0.0
N300 N 0.15194 0.47178 0.33889 0.0
C301 C 0.16138 0.47766 0.31287 0.0
H302 H 0.16548 0.46121 0.37418 0.0
Co303 Co 0.12125 0.465 0.35205 0.0
C304 C 0.11006 0.49841 0.31962 0.0
O305 O 0.08694 0.48208 0.31738 0.0
N306 N 0.09014 0.45745 0.3662 0.0
C307 C 0.05224 0.4358 0.38219 0.0
C308 C 0.07225 0.43491 0.37299 0.0
C309 C 0.08078 0.47187 0.37304 0.0
N310 N 0.05747 0.45905 0.3818 0.0
O311 O 0.13579 0.48528 0.3837 0.0
H312 H 0.07341 0.41861 0.37132 0.0
H313 H 0.09062 0.49143 0.37106 0.0
O314 O 0.1248 0.4932 0.33161 0.0
C315 C 0.13526 0.47274 0.40458 0.0
O316 O 0.12587 0.4492 0.40144 0.0
N317 N 0.10685 0.44341 0.32215 0.0
C318 C 0.07994 0.40535 0.28539 0.0
C319 C 0.08871 0.4296 0.27739 0.0
C320 C 0.10269 0.44836 0.29577 0.0
C321 C 0.10111 0.42037 0.32905 0.0
C322 C 0.08753 0.40101 0.31108 0.0
H323 H 0.10979 0.46664 0.28849 0.0
H324 H 0.10621 0.41689 0.34925 0.0
H325 H 0.15264 0.4815 0.29596 0.0
H326 H 0.20088 0.46741 0.34093 0.0
H327 H 0.03481 0.42039 0.38759 0.0
H328 H 0.08396 0.4343 0.25768 0.0
H329 H 0.08232 0.38279 0.31778 0.0
C330 C 0.69427 0.17462 0.34691 0.0
C331 C 0.71596 0.19331 0.33714 0.0
N332 N 0.7126 0.1985 0.31094 0.0
N333 N 0.67708 0.16818 0.32711 0.0
C334 C 0.68898 0.18296 0.30532 0.0
H335 H 0.69142 0.16653 0.36728 0.0
Co336 Co 0.64363 0.1448 0.32866 0.0
C337 C 0.63635 0.18665 0.31703 0.0
O338 O 0.63922 0.19441 0.3428 0.0
N339 N 0.60982 0.12152 0.32958 0.0
C340 C 0.5699 0.10318 0.32237 0.0
C341 C 0.59184 0.12362 0.3173 0.0
C342 C 0.59808 0.09938 0.34202 0.0
N343 N 0.57366 0.08778 0.33796 0.0
O344 O 0.64098 0.15595 0.36455 0.0
H345 H 0.5942 0.13898 0.30526 0.0
H346 H 0.60732 0.09184 0.35366 0.0
O347 O 0.63735 0.16775 0.31085 0.0
C348 C 0.64439 0.14401 0.38345 0.0
O349 O 0.64918 0.12693 0.37607 0.0
N350 N 0.64627 0.13263 0.29473 0.0
C351 C 0.64935 0.10834 0.24838 0.0
C352 C 0.63714 0.12156 0.24686 0.0
C353 C 0.6357 0.13358 0.27042 0.0
C354 C 0.65893 0.12066 0.29631 0.0
C355 C 0.66086 0.1085 0.27332 0.0
H356 H 0.62531 0.14274 0.26931 0.0
H357 H 0.66688 0.1199 0.31591 0.0
H358 H 0.68033 0.18276 0.28586 0.0
H359 H 0.73294 0.20237 0.34843 0.0
H360 H 0.55243 0.10023 0.31553 0.0
H361 H 0.62788 0.1217 0.22802 0.0
H362 H 0.66993 0.09804 0.27567 0.0
C363 C 0.55685 0.69946 0.35685 0.0
C364 C 0.55878 0.71997 0.34485 0.0
N365 N 0.53669 0.71497 0.33595 0.0
N366 N 0.53371 0.681 0.35511 0.0
C367 C 0.52171 0.69173 0.34404 0.0
H368 H 0.57178 0.69844 0.36594 0.0
Co369 Co 0.52121 0.64726 0.36465 0.0
C370 C 0.4936 0.64376 0.3134 0.0
O371 O 0.51357 0.65981 0.30077 0.0
N372 N 0.50839 0.61393 0.37425 0.0
C373 C 0.48108 0.57579 0.38527 0.0
C374 C 0.48538 0.59918 0.38283 0.0
C375 C 0.51771 0.59885 0.37172 0.0
N376 N 0.50136 0.57545 0.37808 0.0
O377 O 0.5026 0.65068 0.39382 0.0
H378 H 0.47211 0.60485 0.38601 0.0
H379 H 0.53597 0.60474 0.36466 0.0
O380 O 0.49441 0.63735 0.33843 0.0
C381 C 0.51648 0.66179 0.41425 0.0
O382 O 0.5397 0.66899 0.412 0.0
N383 N 0.54114 0.64433 0.33812 0.0
C384 C 0.57552 0.64148 0.30516 0.0
C385 C 0.5509 0.62871 0.29784 0.0
C386 C 0.53386 0.6299 0.31501 0.0
C387 C 0.56468 0.65509 0.34657 0.0
C388 C 0.58232 0.65454 0.33006 0.0
H389 H 0.51488 0.61845 0.31022 0.0
H390 H 0.56963 0.66327 0.36691 0.0
H391 H 0.50236 0.68225 0.34068 0.0
H392 H 0.57545 0.73707 0.34237 0.0
H393 H 0.46388 0.56003 0.39059 0.0
H394 H 0.54481 0.61749 0.27937 0.0
H395 H 0.6009 0.66328 0.33735 0.0
C396 C 0.53378 0.84796 0.87974 0.0
C397 C 0.53694 0.83017 0.86723 0.0
N398 N 0.52002 0.81957 0.84728 0.0
N399 N 0.51567 0.84953 0.867 0.0
C400 C 0.50693 0.83097 0.84839 0.0
H401 H 0.54461 0.85955 0.89661 0.0
Co402 Co 0.50663 0.87389 0.87379 0.0
C403 C 0.47939 0.85522 0.82016 0.0
O404 O 0.4991 0.86101 0.80572 0.0
N405 N 0.4971 0.8976 0.88053 0.0
C406 C 0.47376 0.91455 0.88203 0.0
C407 C 0.47398 0.89306 0.88007 0.0
C408 C 0.5106 0.92209 0.88355 0.0
N409 N 0.49682 0.93291 0.88403 0.0
O410 O 0.48501 0.8535 0.90238 0.0
H411 H 0.4582 0.87524 0.87763 0.0
H412 H 0.53024 0.9319 0.88384 0.0
O413 O 0.48065 0.85894 0.84637 0.0
C414 C 0.49114 0.86245 0.92671 0.0
O415 O 0.51026 0.88414 0.92964 0.0
N416 N 0.52943 0.89495 0.84768 0.0
C417 C 0.56684 0.93044 0.81597 0.0
C418 C 0.54285 0.92489 0.81152 0.0
C419 C 0.52438 0.90722 0.82785 0.0
C420 C 0.55289 0.90116 0.85295 0.0
C421 C 0.57182 0.91833 0.83681 0.0
H422 H 0.50612 0.90397 0.82518 0.0
H423 H 0.55735 0.8939 0.87072 0.0
H424 H 0.49128 0.82556 0.83557 0.0
H425 H 0.55074 0.82557 0.87226 0.0
H426 H 0.45781 0.91651 0.8818 0.0
H427 H 0.53852 0.93449 0.796 0.0
H428 H 0.59031 0.92307 0.84161 0.0
C429 C 0.71295 0.54418 0.84904 0.0
C430 C 0.72934 0.54224 0.83214 0.0
N431 N 0.71701 0.52494 0.81296 0.0
N432 N 0.69021 0.52817 0.84081 0.0
C433 C 0.69328 0.51641 0.81896 0.0
H434 H 0.71736 0.55756 0.86521 0.0
Co435 Co 0.66273 0.52922 0.85402 0.0
C436 C 0.63049 0.50848 0.80503 0.0
O437 O 0.62681 0.52703 0.80348 0.0
N438 N 0.63506 0.53036 0.86825 0.0
C439 C 0.61388 0.54085 0.8964 0.0
C440 C 0.63634 0.54364 0.89075 0.0
C441 C 0.61098 0.51844 0.86179 0.0
N442 N 0.59783 0.5251 0.87797 0.0
O443 O 0.65435 0.50235 0.87817 0.0
H444 H 0.65261 0.55443 0.9028 0.0
H445 H 0.60291 0.50476 0.84591 0.0
O446 O 0.6434 0.50719 0.82454 0.0
C447 C 0.66639 0.50879 0.90072 0.0
O448 O 0.68366 0.53147 0.90344 0.0
N449 N 0.67218 0.55701 0.83177 0.0
C450 C 0.68119 0.59792 0.8015 0.0
C451 C 0.68053 0.57798 0.78819 0.0
C452 C 0.67674 0.55795 0.80388 0.0
C453 C 0.67669 0.57763 0.84537 0.0
C454 C 0.68092 0.59824 0.83063 0.0
H455 H 0.67576 0.54258 0.79318 0.0
H456 H 0.67656 0.5781 0.86773 0.0
H457 H 0.67853 0.50328 0.80623 0.0
H458 H 0.74888 0.55342 0.83328 0.0
H459 H 0.60967 0.54943 0.91323 0.0
H460 H 0.68122 0.577 0.76577 0.0
H461 H 0.68283 0.61384 0.8419 0.0
C462 C 0.16142 0.68543 0.86184 0.0
C463 C 0.17851 0.70278 0.84458 0.0
N464 N 0.18146 0.69164 0.82235 0.0
N465 N 0.1536 0.66323 0.85091 0.0
C466 C 0.16628 0.66763 0.82682 0.0
H467 H 0.15415 0.68908 0.8803 0.0
Co468 Co 0.12637 0.63457 0.86375 0.0
C469 C 0.13952 0.59792 0.84999 0.0
O470 O 0.13396 0.58862 0.87512 0.0
N471 N 0.09834 0.60606 0.8764 0.0
C472 C 0.06596 0.58287 0.90244 0.0
C473 C 0.08637 0.60527 0.89984 0.0
C474 C 0.0843 0.58384 0.86466 0.0
N475 N 0.06446 0.56925 0.88027 0.0
O476 O 0.14418 0.63369 0.89552 0.0
H477 H 0.09156 0.62028 0.91386 0.0
H478 H 0.08813 0.57876 0.84464 0.0
O479 O 0.13688 0.61579 0.8433 0.0
C480 C 0.14369 0.64499 0.91707 0.0
O481 O 0.1323 0.6574 0.91602 0.0
N482 N 0.10868 0.63595 0.83405 0.0
C483 C 0.07789 0.63801 0.79476 0.0
C484 C 0.09391 0.62984 0.78735 0.0
C485 C 0.10918 0.62884 0.80741 0.0
C486 C 0.09397 0.64487 0.84133 0.0
C487 C 0.07822 0.6459 0.822 0.0
H488 H 0.12098 0.62198 0.80143 0.0
H489 H 0.09409 0.65061 0.86253 0.0
H490 H 0.16323 0.6537 0.81187 0.0
H491 H 0.18745 0.72221 0.84775 0.0
H492 H 0.05314 0.57722 0.91944 0.0
H493 H 0.0939 0.6233 0.76656 0.0
H494 H 0.06611 0.65236 0.82839 0.0
C495 C 0.46361 0.15829 0.82987 0.0
C496 C 0.46155 0.17645 0.81693 0.0
N497 N 0.48394 0.19541 0.81268 0.0
N498 N 0.48729 0.16528 0.8334 0.0
C499 C 0.49912 0.18858 0.82399 0.0
H500 H 0.44844 0.141 0.83571 0.0
Co501 Co 0.5013 0.14645 0.84678 0.0
C502 C 0.52822 0.16807 0.79403 0.0
O503 O 0.50864 0.16534 0.78153 0.0
N504 N 0.51568 0.1284 0.86004 0.0
C505 C 0.54516 0.12117 0.87249 0.0
C506 C 0.53967 0.1387 0.86502 0.0
C507 C 0.50693 0.10431 0.86476 0.0
N508 N 0.52461 0.0994 0.87242 0.0
O509 O 0.52007 0.17142 0.87306 0.0
H510 H 0.5526 0.15783 0.86263 0.0
H511 H 0.48805 0.09061 0.86239 0.0
O512 O 0.52715 0.16136 0.81931 0.0
C513 C 0.50725 0.17193 0.89307 0.0
O514 O 0.48356 0.15799 0.89165 0.0
N515 N 0.48167 0.12058 0.82322 0.0
C516 C 0.4489 0.07787 0.79628 0.0
C517 C 0.47279 0.0918 0.78658 0.0
C518 C 0.4891 0.11278 0.8008 0.0
C519 C 0.45899 0.10646 0.83381 0.0
C520 C 0.44213 0.08531 0.82039 0.0
H521 H 0.5078 0.12182 0.79439 0.0
H522 H 0.45421 0.11133 0.85338 0.0
H523 H 0.51868 0.19971 0.82352 0.0
H524 H 0.44478 0.17547 0.8105 0.0
H525 H 0.56318 0.12428 0.87679 0.0
H526 H 0.47901 0.0863 0.76852 0.0
H527 H 0.42427 0.07444 0.82943 0.0
C528 C 0.31424 0.4648 0.86735 0.0
C529 C 0.29203 0.46111 0.8584 0.0
N530 N 0.29595 0.4768 0.83765 0.0
N531 N 0.33222 0.48242 0.85198 0.0
C532 C 0.32026 0.48994 0.83485 0.0
H533 H 0.31705 0.45536 0.88436 0.0
Co534 Co 0.36613 0.49435 0.85765 0.0
C535 C 0.36958 0.51679 0.80194 0.0
O536 O 0.35415 0.49594 0.7904 0.0
N537 N 0.39996 0.50688 0.86393 0.0
C538 C 0.43911 0.53425 0.86876 0.0
C539 C 0.41616 0.53082 0.86554 0.0
C540 C 0.41368 0.49606 0.86657 0.0
N541 N 0.43772 0.5124 0.86932 0.0
O542 O 0.36645 0.51697 0.88386 0.0
H543 H 0.41162 0.54505 0.86396 0.0
H544 H 0.4062 0.4766 0.86603 0.0
O545 O 0.37469 0.51783 0.82778 0.0
C546 C 0.36635 0.50848 0.90781 0.0
O547 O 0.36543 0.48741 0.90959 0.0
N548 N 0.3657 0.47072 0.83396 0.0
C549 C 0.3695 0.43345 0.80862 0.0
C550 C 0.35336 0.42846 0.83063 0.0
C551 C 0.35192 0.44743 0.84317 0.0
C552 C 0.38186 0.47589 0.81275 0.0
C553 C 0.38362 0.45743 0.79937 0.0
H554 H 0.34097 0.4436 0.86156 0.0
H555 H 0.39468 0.49445 0.80726 0.0
H556 H 0.32879 0.50556 0.82147 0.0
H557 H 0.2744 0.44778 0.86633 0.0
H558 H 0.45566 0.55165 0.86961 0.0
H559 H 0.34269 0.41022 0.83881 0.0
H560 H 0.39709 0.46208 0.78319 0.0
C561 C 0.8389 0.28949 0.84537 0.0
C562 C 0.82102 0.27022 0.83095 0.0
N563 N 0.80756 0.27782 0.81735 0.0
N564 N 0.83744 0.30969 0.84058 0.0
C565 C 0.81724 0.30146 0.82449 0.0
H566 H 0.85195 0.28841 0.85867 0.0
Co567 Co 0.85988 0.34207 0.85326 0.0
C568 C 0.84427 0.35351 0.79913 0.0
O569 O 0.84824 0.33829 0.78467 0.0
N570 N 0.88169 0.37421 0.86565 0.0
C571 C 0.89465 0.41289 0.87614 0.0
C572 C 0.87463 0.39043 0.87193 0.0
C573 C 0.90636 0.38745 0.86649 0.0
N574 N 0.91475 0.4112 0.87246 0.0
O575 O 0.83599 0.34052 0.87875 0.0
H576 H 0.85602 0.38654 0.87193 0.0
H577 H 0.918 0.38006 0.86177 0.0
O578 O 0.8483 0.35586 0.82527 0.0
C579 C 0.83014 0.32596 0.8992 0.0
O580 O 0.83854 0.31087 0.90036 0.0
N581 N 0.88441 0.34348 0.83041 0.0
C582 C 0.9255 0.34645 0.80627 0.0
C583 C 0.91632 0.36106 0.79658 0.0
C584 C 0.89592 0.35959 0.80927 0.0
C585 C 0.89407 0.33025 0.8409 0.0
C586 C 0.91414 0.33084 0.82862 0.0
H587 H 0.89062 0.37264 0.80335 0.0
H588 H 0.88728 0.3205 0.86015 0.0
H589 H 0.80993 0.31262 0.81749 0.0
H590 H 0.81829 0.25201 0.83042 0.0
H591 H 0.89431 0.42949 0.87994 0.0
H592 H 0.92536 0.37412 0.78007 0.0
H593 H 0.92161 0.32037 0.83764 0.0
C594 C 0.16628 0.45502 0.65492 0.0
C595 C 0.18567 0.45893 0.67129 0.0
N596 N 0.18795 0.4742 0.69194 0.0
N597 N 0.15633 0.46789 0.6649 0.0
C598 C 0.17027 0.47973 0.68726 0.0
H599 H 0.15887 0.44212 0.63806 0.0
Co600 Co 0.12613 0.46375 0.65292 0.0
C601 C 0.11579 0.49061 0.69549 0.0
O602 O 0.09362 0.47214 0.6981 0.0
N603 N 0.09555 0.4594 0.6397 0.0
C604 C 0.05985 0.44308 0.61783 0.0
C605 C 0.07951 0.4405 0.62412 0.0
C606 C 0.0857 0.47413 0.6406 0.0
N607 N 0.06348 0.46423 0.62847 0.0
O608 O 0.14164 0.4862 0.62324 0.0
H609 H 0.08209 0.42591 0.6168 0.0
H610 H 0.09491 0.49212 0.64942 0.0
O611 O 0.13027 0.48993 0.67756 0.0
C612 C 0.14201 0.47433 0.60214 0.0
O613 O 0.13305 0.45081 0.60475 0.0
N614 N 0.11082 0.43995 0.68108 0.0
C615 C 0.0816 0.40472 0.71929 0.0
C616 C 0.10084 0.42691 0.72841 0.0
C617 C 0.11557 0.44417 0.70891 0.0
C618 C 0.09547 0.41687 0.67227 0.0
C619 C 0.08008 0.39903 0.69097 0.0
H620 H 0.12949 0.46147 0.71653 0.0
H621 H 0.09447 0.41238 0.65057 0.0
H622 H 0.1667 0.49104 0.70099 0.0
H623 H 0.19594 0.44961 0.66954 0.0
H624 H 0.04414 0.43013 0.6062 0.0
H625 H 0.10332 0.43159 0.75029 0.0
H626 H 0.06607 0.3817 0.68307 0.0
C627 C 0.69809 0.14379 0.63642 0.0
C628 C 0.71611 0.16293 0.65091 0.0
N629 N 0.70596 0.1732 0.66635 0.0
N630 N 0.67651 0.14186 0.64241 0.0
C631 C 0.68197 0.16042 0.66029 0.0
H632 H 0.7004 0.13099 0.62387 0.0
Co633 Co 0.64665 0.1144 0.63247 0.0
C634 C 0.618 0.11781 0.68006 0.0
O635 O 0.61379 0.09731 0.69152 0.0
N636 N 0.61666 0.0865 0.62149 0.0
C637 C 0.59226 0.05457 0.59517 0.0
C638 C 0.61505 0.07455 0.59767 0.0
C639 C 0.59408 0.07344 0.63277 0.0
N640 N 0.57898 0.05373 0.61736 0.0
O641 O 0.64291 0.1323 0.60285 0.0
H642 H 0.62984 0.07966 0.58324 0.0
H643 H 0.58861 0.0778 0.65202 0.0
O644 O 0.62972 0.12507 0.65725 0.0
C645 C 0.65555 0.13321 0.58191 0.0
O646 O 0.66909 0.12303 0.58399 0.0
N647 N 0.65174 0.09648 0.66013 0.0
C648 C 0.65838 0.06755 0.69831 0.0
C649 C 0.66282 0.09064 0.70592 0.0
C650 C 0.65978 0.10502 0.68636 0.0
C651 C 0.65024 0.07532 0.65163 0.0
C652 C 0.65307 0.06033 0.67051 0.0
H653 H 0.66253 0.12241 0.69295 0.0
H654 H 0.64635 0.06968 0.63022 0.0
H655 H 0.66843 0.16306 0.6708 0.0
H656 H 0.73509 0.16807 0.65108 0.0
H657 H 0.58601 0.04165 0.57824 0.0
H658 H 0.66744 0.09703 0.72714 0.0
H659 H 0.64978 0.0427 0.6637 0.0
C660 C 0.56375 0.7174 0.67194 0.0
C661 C 0.56327 0.73491 0.68826 0.0
N662 N 0.54055 0.7263 0.69782 0.0
N663 N 0.54154 0.69726 0.67146 0.0
C664 C 0.52761 0.70392 0.68635 0.0
H665 H 0.57964 0.71952 0.66142 0.0
Co666 Co 0.53282 0.66617 0.65536 0.0
C667 C 0.50134 0.65022 0.70629 0.0
O668 O 0.51867 0.66462 0.72346 0.0
N669 N 0.52341 0.63499 0.63976 0.0
C670 C 0.49814 0.59762 0.62424 0.0
C671 C 0.50099 0.62011 0.62955 0.0
C672 C 0.53388 0.62081 0.64025 0.0
N673 N 0.51875 0.59783 0.63119 0.0
O674 O 0.51244 0.67007 0.6291 0.0
H675 H 0.48682 0.6247 0.62779 0.0
H676 H 0.55192 0.62686 0.64813 0.0
O677 O 0.50576 0.64997 0.68049 0.0
C678 C 0.52444 0.68354 0.60878 0.0
O679 O 0.54824 0.69542 0.61044 0.0
N680 N 0.55458 0.66308 0.67871 0.0
C681 C 0.59275 0.6598 0.7026 0.0
C682 C 0.56891 0.64547 0.71252 0.0
C683 C 0.54995 0.64709 0.69996 0.0
C684 C 0.57739 0.67614 0.6681 0.0
C685 C 0.59681 0.67535 0.68013 0.0
H686 H 0.53162 0.6343 0.70611 0.0
H687 H 0.58034 0.68646 0.64922 0.0
H688 H 0.50838 0.69225 0.68956 0.0
H689 H 0.57864 0.75257 0.6929 0.0
H690 H 0.48148 0.58186 0.61752 0.0
H691 H 0.56474 0.63224 0.72886 0.0
H692 H 0.61476 0.68642 0.67139 0.0
C693 C 0.85085 0.53931 0.63643 0.0
C694 C 0.83274 0.54197 0.64857 0.0
N695 N 0.81639 0.5206 0.6598 0.0
N696 N 0.8467 0.51652 0.64067 0.0
C697 C 0.82459 0.50524 0.65332 0.0
H698 H 0.86622 0.55357 0.6257 0.0
Co699 Co 0.86829 0.50409 0.63308 0.0
C700 C 0.84669 0.48033 0.68703 0.0
O701 O 0.85069 0.50107 0.69762 0.0
N702 N 0.88906 0.4912 0.6255 0.0
C703 C 0.90028 0.46358 0.61846 0.0
C704 C 0.88093 0.46741 0.62107 0.0
C705 C 0.91363 0.50149 0.62536 0.0
N706 N 0.92095 0.48499 0.62133 0.0
O707 O 0.84615 0.48311 0.60533 0.0
H708 H 0.862 0.45347 0.62072 0.0
H709 H 0.92595 0.52062 0.62878 0.0
O710 O 0.85269 0.47936 0.66188 0.0
C711 C 0.85512 0.49421 0.58254 0.0
O712 O 0.8742 0.51612 0.58363 0.0
N713 N 0.89178 0.52637 0.65761 0.0
C714 C 0.93312 0.56267 0.68378 0.0
C715 C 0.92096 0.53899 0.69453 0.0
C716 C 0.90064 0.52094 0.68075 0.0
C717 C 0.90416 0.549 0.6463 0.0
C718 C 0.92439 0.56758 0.65939 0.0
H719 H 0.89329 0.50244 0.68764 0.0
H720 H 0.89941 0.55227 0.62588 0.0
H721 H 0.8152 0.48632 0.65924 0.0
H722 H 0.83206 0.55862 0.64972 0.0
H723 H 0.89912 0.44612 0.61597 0.0
H724 H 0.92796 0.53409 0.71241 0.0
H725 H 0.93367 0.58538 0.64983 0.0
C726 C 0.29707 0.83962 0.65723 0.0
C727 C 0.2759 0.82064 0.66752 0.0
N728 N 0.27975 0.80219 0.67365 0.0
N729 N 0.31474 0.83371 0.65754 0.0
C730 C 0.30296 0.81011 0.6659 0.0
H731 H 0.29918 0.85679 0.65085 0.0
Co732 Co 0.34891 0.85413 0.65112 0.0
C733 C 0.34759 0.82784 0.70264 0.0
O734 O 0.33052 0.83146 0.71296 0.0
N735 N 0.38276 0.87393 0.64441 0.0
C736 C 0.42152 0.8848 0.63781 0.0
C737 C 0.39835 0.86556 0.64112 0.0
C738 C 0.397 0.89845 0.64287 0.0
N739 N 0.42077 0.90558 0.63901 0.0
O740 O 0.34691 0.83289 0.62193 0.0
H741 H 0.39323 0.84658 0.64155 0.0
H742 H 0.39011 0.91087 0.64473 0.0
O743 O 0.35605 0.83573 0.67832 0.0
C744 C 0.34764 0.84336 0.59911 0.0
O745 O 0.34802 0.86421 0.59998 0.0
N746 N 0.35142 0.87673 0.67793 0.0
C747 C 0.36152 0.91796 0.70842 0.0
C748 C 0.34737 0.91197 0.68432 0.0
C749 C 0.34308 0.8916 0.66904 0.0
C750 C 0.36593 0.88285 0.70094 0.0
C751 C 0.37059 0.90295 0.7169 0.0
H752 H 0.33488 0.88888 0.64876 0.0
H753 H 0.37572 0.87359 0.70605 0.0
H754 H 0.31182 0.7995 0.66852 0.0
H755 H 0.25923 0.82084 0.67129 0.0
H756 H 0.43778 0.88354 0.63554 0.0
H757 H 0.3412 0.92385 0.67624 0.0
H758 H 0.3823 0.90744 0.7349 0.0
C759 C 0.4867 0.32089 0.63059 0.0
C760 C 0.4864 0.30265 0.64636 0.0
N761 N 0.49806 0.31224 0.6705 0.0
N762 N 0.49856 0.34199 0.64458 0.0
C763 C 0.50537 0.33618 0.66879 0.0
H764 H 0.47811 0.31881 0.61059 0.0
Co765 Co 0.4999 0.3709 0.63368 0.0
C766 C 0.54971 0.4075 0.64652 0.0
O767 O 0.55229 0.41787 0.62216 0.0
N768 N 0.50039 0.39964 0.62265 0.0
C769 C 0.49476 0.42478 0.59566 0.0
C770 C 0.49246 0.40214 0.5976 0.0
C771 C 0.50718 0.42099 0.63581 0.0
N772 N 0.50404 0.43679 0.61972 0.0
O773 O 0.51711 0.37228 0.60063 0.0
H774 H 0.48547 0.38831 0.58165 0.0
H775 H 0.51415 0.42479 0.65683 0.0
O776 O 0.52971 0.38895 0.65327 0.0
C777 C 0.53313 0.36731 0.5924 0.0
O778 O 0.54253 0.35828 0.60976 0.0
N779 N 0.48172 0.36891 0.66443 0.0
C780 C 0.44861 0.36503 0.70435 0.0
C781 C 0.47332 0.37576 0.71096 0.0
C782 C 0.48976 0.37765 0.69053 0.0
C783 C 0.4577 0.35752 0.65806 0.0
C784 C 0.44077 0.35544 0.67772 0.0
H785 H 0.50881 0.38659 0.69564 0.0
H786 H 0.45184 0.35064 0.63724 0.0
H787 H 0.51437 0.34901 0.68546 0.0
H788 H 0.47786 0.28368 0.64064 0.0
H789 H 0.49028 0.43192 0.57761 0.0
H790 H 0.48 0.38364 0.73127 0.0
H791 H 0.4218 0.34701 0.67196 0.0
H792 H 0.48428 0.04156 0.14215 0.0
H793 H 0.54952 0.08063 0.09279 0.0
H794 H 0.5567 0.04589 0.09614 0.0
H795 H 0.50636 0.00875 0.18741 0.0
H796 H 0.47724 0.98131 0.1876 0.0
H797 H 0.47895 0.01037 0.18443 0.0
H798 H 0.45374 0.99593 0.13906 0.0
H799 H 0.45216 0.96695 0.14195 0.0
H800 H 0.46415 0.98483 0.11081 0.0
H801 H 0.55535 0.0058 0.10202 0.0
H802 H 0.54515 0.96326 0.10923 0.0
H803 H 0.47996 0.94914 0.15353 0.0
C804 C 0.50039 0.04294 0.13275 0.0
C805 C 0.51656 0.06392 0.11748 0.0
C806 C 0.53705 0.0648 0.1047 0.0
C807 C 0.54126 0.04516 0.10652 0.0
C808 C 0.52469 0.02449 0.12105 0.0
C809 C 0.50467 0.02322 0.13404 0.0
C810 C 0.48879 0.99816 0.14658 0.0
C811 C 0.48778 0.99975 0.1784 0.0
C812 C 0.4632 0.98574 0.13383 0.0
C813 C 0.50265 0.98544 0.13797 0.0
C814 C 0.5235 1.00107 0.12364 0.0
C815 C 0.53908 0.99343 0.1133 0.0
C816 C 0.53318 0.96919 0.11758 0.0
C817 C 0.51166 0.95259 0.13176 0.0
C818 C 0.49637 0.9611 0.14223 0.0
H819 H 0.5756 0.55495 0.14057 0.0
H820 H 0.55749 0.48232 0.116 0.0
H821 H 0.51359 0.46922 0.11931 0.0
H822 H 0.52667 0.53651 0.19045 0.0
H823 H 0.52241 0.56182 0.18239 0.0
H824 H 0.55191 0.56473 0.17853 0.0
H825 H 0.55344 0.57768 0.12716 0.0
H826 H 0.52398 0.57482 0.13078 0.0
H827 H 0.52925 0.55828 0.10387 0.0
H828 H 0.47079 0.46536 0.12292 0.0
H829 H 0.43499 0.47073 0.12804 0.0
H830 H 0.4827 0.54561 0.15258 0.0
C831 C 0.56244 0.5363 0.13571 0.0
C832 C 0.57001 0.51974 0.12758 0.0
C833 C 0.55212 0.49533 0.12218 0.0
C834 C 0.52716 0.48778 0.12397 0.0
C835 C 0.52035 0.50476 0.13168 0.0
C836 C 0.53763 0.52846 0.13778 0.0
C837 C 0.52601 0.54335 0.1458 0.0
C838 C 0.53211 0.55211 0.17609 0.0
C839 C 0.53362 0.56479 0.1257 0.0
C840 C 0.49942 0.52461 0.14254 0.0
C841 C 0.49632 0.5024 0.13447 0.0
C842 C 0.47314 0.48269 0.12945 0.0
C843 C 0.45281 0.48589 0.1325 0.0
C844 C 0.45565 0.50866 0.1405 0.0
C845 C 0.47946 0.52801 0.14593 0.0
H846 H 0.03086 0.56959 0.10286 0.0
H847 H 0.07228 0.56318 0.1706 0.0
H848 H 0.04562 0.51851 0.16993 0.0
H849 H 0.97281 0.52377 0.12569 0.0
H850 H 0.96143 0.51274 0.09129 0.0
H851 H 0.98455 0.54393 0.09623 0.0
H852 H 0.01225 0.53863 0.06085 0.0
H853 H 0.98917 0.50742 0.05571 0.0
H854 H 0.01933 0.51476 0.06599 0.0
H855 H 0.01217 0.47425 0.16366 0.0
H856 H 0.97689 0.43467 0.15059 0.0
H857 H 0.95776 0.47026 0.08667 0.0
C858 C 0.03442 0.55882 0.1175 0.0
C859 C 0.05375 0.57001 0.13681 0.0
C860 C 0.05785 0.55511 0.15539 0.0
C861 C 0.04266 0.52969 0.15527 0.0
C862 C 0.02353 0.51933 0.13625 0.0
C863 C 0.01956 0.53346 0.11752 0.0
C864 C 0.99764 0.518 0.09939 0.0
C865 C 0.97795 0.52503 0.1034 0.0
C866 C 0.00505 0.51981 0.06866 0.0
C867 C 0.98962 0.49294 0.11104 0.0
C868 C 0.00473 0.49404 0.13234 0.0
C869 C 1.00037 0.47323 0.14687 0.0
C870 C 0.98017 0.4508 0.13941 0.0
C871 C 0.96452 0.4492 0.11749 0.0
C872 C 0.96953 0.47069 0.10317 0.0
H873 H 0.05312 0.49161 0.34944 0.0
H874 H 0.02155 0.4438 0.42012 0.0
H875 H 0.98856 0.45381 0.42181 0.0
H876 H 0.03684 0.53799 0.36944 0.0
H877 H 0.03106 0.54187 0.33361 0.0
H878 H 0.05285 0.53258 0.34208 0.0
H879 H 0.02922 0.49517 0.30941 0.0
H880 H 0.00725 0.50445 0.30241 0.0
H881 H 0.99754 0.47459 0.31612 0.0
H882 H 0.95722 0.46742 0.41338 0.0
H883 H 0.93025 0.48176 0.39457 0.0
H884 H 0.9824 0.51985 0.32893 0.0
C885 C 0.03967 0.48384 0.36577 0.0
C886 C 0.04013 0.46728 0.38499 0.0
C887 C 0.02164 0.45672 0.4054 0.0
C888 C 1.00285 0.46232 0.40649 0.0
C889 C 1.00262 0.47836 0.38683 0.0
C890 C 0.02057 0.4889 0.36682 0.0
C891 C 0.01524 0.50394 0.34667 0.0
C892 C 0.03516 0.53073 0.34804 0.0
C893 C 0.01213 0.49394 0.3169 0.0
C894 C 0.99145 0.50018 0.35827 0.0
C895 C 0.98448 0.48555 0.38159 0.0
C896 C 0.96265 0.47903 0.39523 0.0
C897 C 0.94746 0.48735 0.38449 0.0
C898 C 0.95402 0.50184 0.36016 0.0
C899 C 0.97658 0.50858 0.34735 0.0
H900 H 0.43994 0.97232 0.34925 0.0
H901 H 0.46337 0.95383 0.42549 0.0
H902 H 0.50471 0.98847 0.41858 0.0
H903 H 0.49609 0.9927 0.31008 0.0
H904 H 0.49447 0.01727 0.29346 0.0
H905 H 0.46703 0.99028 0.30374 0.0
H906 H 0.45419 0.01639 0.33304 0.0
H907 H 0.48144 0.04323 0.32205 0.0
H908 H 0.4749 0.03706 0.35858 0.0
H909 H 0.54362 0.0259 0.40399 0.0
H910 H 0.57636 0.064 0.38384 0.0
H911 H 0.52799 0.0585 0.31701 0.0
C912 C 0.45386 0.9754 0.36427 0.0
C913 C 0.44833 0.96025 0.38795 0.0
C914 C 0.46703 0.96523 0.40736 0.0
C915 C 0.49065 0.98482 0.40352 0.0
C916 C 0.49547 0.99952 0.38017 0.0
C917 C 0.47759 0.99513 0.36089 0.0
C918 C 0.48737 0.01438 0.33824 0.0
C919 C 0.48617 0.00297 0.30969 0.0
C920 C 0.47367 0.02861 0.33797 0.0
C921 C 0.51347 0.03023 0.34784 0.0
C922 C 0.51781 0.02127 0.37197 0.0
C923 C 0.54044 0.03303 0.38501 0.0
C924 C 0.55905 0.05465 0.37329 0.0
C925 C 0.555 0.06453 0.3488 0.0
C926 C 0.53183 0.0518 0.33588 0.0
H927 H 0.46333 0.43758 0.40493 0.0
H928 H 0.50939 0.44249 0.33564 0.0
H929 H 0.52313 0.48616 0.33128 0.0
H930 H 0.44343 0.47571 0.37569 0.0
H931 H 0.44259 0.48899 0.40846 0.0
H932 H 0.43808 0.45872 0.40747 0.0
H933 H 0.47334 0.47125 0.44244 0.0
H934 H 0.47798 0.50159 0.44354 0.0
H935 H 0.50278 0.4968 0.43462 0.0
H936 H 0.53076 0.53011 0.33368 0.0
H937 H 0.52984 0.56818 0.34129 0.0
H938 H 0.47758 0.53338 0.40767 0.0
C939 C 0.47634 0.44757 0.38879 0.0
C940 C 0.48521 0.43607 0.37076 0.0
C941 C 0.50242 0.45052 0.35012 0.0
C942 C 0.51031 0.47549 0.34737 0.0
C943 C 0.50088 0.48599 0.36532 0.0
C944 C 0.48421 0.47236 0.38559 0.0
C945 C 0.47585 0.48747 0.4015 0.0
C946 C 0.44836 0.4771 0.39806 0.0
C947 C 0.48292 0.48939 0.43235 0.0
C948 C 0.49019 0.51174 0.38691 0.0
C949 C 0.50476 0.5107 0.36627 0.0
C950 C 0.51944 0.53101 0.34989 0.0
C951 C 0.51892 0.55268 0.35447 0.0
C952 C 0.50364 0.55393 0.37509 0.0
C953 C 0.48934 0.5331 0.39161 0.0
H954 H 0.49052 0.05387 0.85393 0.0
H955 H 0.55507 0.09191 0.90506 0.0
H956 H 0.55515 0.05377 0.91275 0.0
H957 H 0.4618 0.99845 0.89579 0.0
H958 H 0.44955 0.97862 0.86615 0.0
H959 H 0.45432 0.00901 0.86455 0.0
H960 H 0.48127 0.01793 0.82075 0.0
H961 H 0.47593 0.98731 0.82206 0.0
H962 H 0.50654 0.0126 0.8218 0.0
H963 H 0.54966 0.01177 0.91351 0.0
H964 H 0.53675 0.96814 0.91013 0.0
H965 H 0.47493 0.95624 0.86031 0.0
C966 C 0.50447 0.05413 0.86704 0.0
C967 C 0.52299 0.07623 0.87854 0.0
C968 C 0.54098 0.07556 0.89542 0.0
C969 C 0.54113 0.05386 0.90009 0.0
C970 C 0.52304 0.0326 0.88801 0.0
C971 C 0.50486 0.03244 0.87209 0.0
C972 C 0.48759 0.00692 0.86158 0.0
C973 C 0.46179 0.99771 0.87269 0.0
C974 C 0.48785 0.00613 0.82964 0.0
C975 C 0.49888 0.99289 0.87419 0.0
C976 C 0.51947 0.00814 0.88914 0.0
C977 C 0.53345 0.99961 0.90202 0.0
C978 C 0.52608 0.9748 0.89987 0.0
C979 C 0.50475 0.95861 0.8852 0.0
C980 C 0.4911 0.96798 0.87211 0.0
H981 H 0.48244 0.54225 0.89154 0.0
H982 H 0.43998 0.47331 0.84935 0.0
H983 H 0.47603 0.46808 0.84822 0.0
H984 H 0.53672 0.56187 0.85299 0.0
H985 H 0.55649 0.57641 0.88218 0.0
H986 H 0.527 0.5738 0.88105 0.0
H987 H 0.51642 0.55201 0.92881 0.0
H988 H 0.54592 0.55459 0.93011 0.0
H989 H 0.51899 0.52525 0.93344 0.0
H990 H 0.51831 0.47186 0.84963 0.0
H991 H 0.56143 0.48343 0.85481 0.0
H992 H 0.57581 0.55029 0.89525 0.0
C993 C 0.48058 0.526 0.88204 0.0
C994 C 0.45817 0.50821 0.87047 0.0
C995 C 0.45672 0.48709 0.85865 0.0
C996 C 0.47721 0.48405 0.85777 0.0
C997 C 0.4991 0.5022 0.86892 0.0
C998 C 0.50079 0.52269 0.88099 0.0
C999 C 0.5264 0.53985 0.89101 0.0
C1000 C 0.53729 0.56443 0.8759 0.0
C1001 C 0.52695 0.54311 0.92273 0.0
C1002 C 0.53904 0.52599 0.88253 0.0
C1003 C 0.52305 0.50429 0.86982 0.0
C1004 C 0.53087 0.48878 0.85967 0.0
C1005 C 0.55553 0.49559 0.86258 0.0
C1006 C 0.57228 0.51778 0.87558 0.0
C1007 C 0.56363 0.53302 0.88567 0.0
H1008 H 0.93253 0.45473 0.89867 0.0
H1009 H 0.9534 0.41413 0.84387 0.0
H1010 H 0.9945 0.4501 0.83963 0.0
H1011 H 0.96355 0.51076 0.86208 0.0
H1012 H 0.97195 0.52907 0.89311 0.0
H1013 H 0.94486 0.49972 0.89276 0.0
H1014 H 0.96039 0.48664 0.93554 0.0
H1015 H 0.98748 0.516 0.93609 0.0
H1016 H 0.98977 0.48891 0.93417 0.0
H1017 H 0.03375 0.4925 0.84027 0.0
H1018 H 0.06646 0.53508 0.84764 0.0
H1019 H 0.0182 0.54706 0.90043 0.0
C1020 C 0.94565 0.45327 0.88574 0.0
C1021 C 0.93949 0.43141 0.8716 0.0
C1022 C 0.95756 0.43044 0.85523 0.0
C1023 C 0.98098 0.45091 0.85252 0.0
C1024 C 0.98618 0.47232 0.86634 0.0
C1025 C 0.96894 0.47346 0.88275 0.0
C1026 C 0.97864 0.49849 0.8952 0.0
C1027 C 0.96387 0.51019 0.88518 0.0
C1028 C 0.9791 0.49744 0.92714 0.0
C1029 C 0.00406 0.51142 0.88326 0.0
C1030 C 0.00822 0.49617 0.86662 0.0
C1031 C 0.03056 0.50448 0.85333 0.0
C1032 C 0.04903 0.52878 0.85747 0.0
C1033 C 0.04517 0.5446 0.87477 0.0
C1034 C 0.02216 0.53558 0.88749 0.0
H1035 H 0.93764 0.45802 0.59564 0.0
H1036 H 0.95947 0.51936 0.65085 0.0
H1037 H 0.99962 0.5225 0.65674 0.0
H1038 H 0.96506 0.43036 0.63285 0.0
H1039 H 0.97414 0.42033 0.60244 0.0
H1040 H 0.94805 0.42428 0.60099 0.0
H1041 H 0.96691 0.45372 0.55931 0.0
H1042 H 0.99305 0.44978 0.56057 0.0
H1043 H 0.99686 0.4798 0.56258 0.0
H1044 H 0.03659 0.51641 0.65947 0.0
H1045 H 0.0667 0.5029 0.6576 0.0
H1046 H 0.02058 0.44611 0.59946 0.0
C1047 C 0.95088 0.47224 0.60884 0.0
C1048 C 0.94526 0.48845 0.62277 0.0
C1049 C 0.96333 0.50692 0.63965 0.0
C1050 C 0.98618 0.50874 0.64324 0.0
C1051 C 0.9909 0.49213 0.62961 0.0
C1052 C 0.97376 0.47439 0.61251 0.0
C1053 C 0.98293 0.45831 0.60076 0.0
C1054 C 0.96657 0.43175 0.60981 0.0
C1055 C 0.98507 0.46054 0.56892 0.0
C1056 C 0.00772 0.46939 0.61433 0.0
C1057 C 0.01207 0.48891 0.63084 0.0
C1058 C 0.03341 0.50131 0.64628 0.0
C1059 C 0.05057 0.49348 0.64497 0.0
C1060 C 0.0465 0.47335 0.62827 0.0
C1061 C 0.0247 0.46147 0.61256 0.0
H1062 H 0.55588 0.0065 0.60023 0.0
H1063 H 0.54563 0.05805 0.64896 0.0
H1064 H 0.50347 0.026 0.65928 0.0
H1065 H 0.49599 0.97488 0.5701 0.0
H1066 H 0.49402 0.94563 0.57173 0.0
H1067 H 0.52316 0.97273 0.56817 0.0
H1068 H 0.53846 0.96101 0.61222 0.0
H1069 H 0.50938 0.93388 0.61591 0.0
H1070 H 0.52175 0.95515 0.64428 0.0
H1071 H 0.4615 0.98742 0.66379 0.0
H1072 H 0.42526 0.94625 0.66381 0.0
H1073 H 0.46355 0.9206 0.61193 0.0
C1074 C 0.54478 0.01124 0.61283 0.0
C1075 C 0.55424 0.03502 0.62361 0.0
C1076 C 0.53902 0.04005 0.64056 0.0
C1077 C 0.51494 0.02194 0.64641 0.0
C1078 C 0.50623 0.99875 0.63529 0.0
C1079 C 0.52081 0.9934 0.61895 0.0
C1080 C 0.50744 0.96703 0.60993 0.0
C1081 C 0.50501 0.96496 0.57809 0.0
C1082 C 0.52001 0.95348 0.62127 0.0
C1083 C 0.48302 0.95827 0.6237 0.0
C1084 C 0.48254 0.9768 0.63815 0.0
C1085 C 0.46177 0.97285 0.65248 0.0
C1086 C 0.44116 0.9494 0.65223 0.0
C1087 C 0.44142 0.93004 0.63789 0.0
C1088 C 0.46272 0.93481 0.62335 0.0
H1089 H 0.48442 0.4621 0.59593 0.0
H1090 H 0.53652 0.46784 0.65793 0.0
H1091 H 0.54713 0.51035 0.66714 0.0
H1092 H 0.51974 0.52223 0.568 0.0
H1093 H 0.49381 0.52605 0.56256 0.0
H1094 H 0.49034 0.49618 0.56134 0.0
H1095 H 0.45705 0.48151 0.59929 0.0
H1096 H 0.46034 0.5113 0.60055 0.0
H1097 H 0.46364 0.49761 0.63185 0.0
H1098 H 0.55218 0.55335 0.66885 0.0
H1099 H 0.54955 0.59077 0.66465 0.0
H1100 H 0.49487 0.55638 0.60045 0.0
C1101 C 0.49822 0.47223 0.61131 0.0
C1102 C 0.50971 0.46143 0.62606 0.0
C1103 C 0.5273 0.47548 0.64645 0.0
C1104 C 0.53356 0.49976 0.65169 0.0
C1105 C 0.52205 0.50986 0.63646 0.0
C1106 C 0.50465 0.49639 0.61677 0.0
C1107 C 0.49464 0.51114 0.60334 0.0
C1108 C 0.49996 0.51407 0.57195 0.0
C1109 C 0.4673 0.49971 0.60911 0.0
C1110 C 0.50909 0.5351 0.61845 0.0
C1111 C 0.52488 0.53414 0.63745 0.0
C1112 C 0.53988 0.55421 0.65395 0.0
C1113 C 0.5384 0.57554 0.65126 0.0
C1114 C 0.52198 0.57676 0.63222 0.0
C1115 C 0.50745 0.55619 0.61544 0.0
H1116 H 0.46208 0.27623 0.26918 0.0
H1117 H 0.51399 0.27433 0.32566 0.0
H1118 H 0.52199 0.24982 0.29168 0.0
H1119 H 0.43603 0.21504 0.24802 0.0
H1120 H 0.4308 0.22015 0.21246 0.0
H1121 H 0.4315 0.24009 0.23944 0.0
H1122 H 0.46514 0.27709 0.21294 0.0
H1123 H 0.46449 0.25723 0.1858 0.0
H1124 H 0.4926 0.27728 0.20322 0.0
H1125 H 0.52295 0.22413 0.25255 0.0
H1126 H 0.51474 0.19651 0.21311 0.0
H1127 H 0.46018 0.21261 0.18255 0.0
C1128 C 0.47554 0.27108 0.2739 0.0
C1129 C 0.48792 0.27751 0.29963 0.0
C1130 C 0.50474 0.26982 0.3058 0.0
C1131 C 0.50935 0.25595 0.28664 0.0
C1132 C 0.49668 0.24961 0.26152 0.0
C1133 C 0.47996 0.25676 0.25517 0.0
C1134 C 0.46725 0.24565 0.22785 0.0
C1135 C 0.43977 0.22926 0.23222 0.0
C1136 C 0.4727 0.2655 0.20617 0.0
C1137 C 0.47917 0.23089 0.22004 0.0
C1138 C 0.49639 0.23381 0.23953 0.0
C1139 C 0.50959 0.22182 0.2371 0.0
C1140 C 0.50487 0.20619 0.21444 0.0
C1141 C 0.48683 0.20227 0.19452 0.0
C1142 C 0.47402 0.21508 0.19738 0.0
H1143 H 0.29304 0.48646 0.22314 0.0
H1144 H 0.24808 0.46887 0.14938 0.0
H1145 H 0.21551 0.46877 0.1775 0.0
H1146 H 0.24598 0.44942 0.27001 0.0
H1147 H 0.25815 0.47043 0.29863 0.0
H1148 H 0.27819 0.4701 0.27244 0.0
H1149 H 0.29506 0.51592 0.2633 0.0
H1150 H 0.27508 0.51641 0.28951 0.0
H1151 H 0.27441 0.5266 0.25472 0.0
H1152 H 0.18723 0.46956 0.21442 0.0
H1153 H 0.16543 0.46974 0.25676 0.0
H1154 H 0.22943 0.4878 0.30604 0.0
C1155 C 0.27654 0.48297 0.21271 0.0
C1156 C 0.27329 0.47778 0.18388 0.0
C1157 C 0.25105 0.47273 0.17139 0.0
C1158 C 0.23247 0.47278 0.18719 0.0
C1159 C 0.23631 0.47793 0.21554 0.0
C1160 C 0.25782 0.48291 0.22817 0.0
C1161 C 0.25716 0.48708 0.25912 0.0
C1162 C 0.26003 0.46813 0.27604 0.0
C1163 C 0.27658 0.51305 0.26712 0.0
C1164 C 0.23182 0.48344 0.26204 0.0
C1165 C 0.22011 0.47832 0.23666 0.0
C1166 C 0.19632 0.47373 0.23435 0.0
C1167 C 0.1841 0.47404 0.25859 0.0
C1168 C 0.19559 0.47882 0.28497 0.0
C1169 C 0.21993 0.48388 0.28639 0.0
H1170 H 0.78815 0.25698 0.17185 0.0
H1171 H 0.83281 0.32207 0.21987 0.0
H1172 H 0.80671 0.30315 0.26085 0.0
H1173 H 0.73005 0.24338 0.20366 0.0
H1174 H 0.71805 0.21103 0.20294 0.0
H1175 H 0.73957 0.23007 0.17694 0.0
H1176 H 0.7675 0.21275 0.18983 0.0
H1177 H 0.74612 0.19373 0.21591 0.0
H1178 H 0.77721 0.21436 0.22537 0.0
H1179 H 0.77801 0.27595 0.29775 0.0
H1180 H 0.74666 0.24347 0.32706 0.0
H1181 H 0.71901 0.19639 0.25516 0.0
C1182 C 0.79229 0.26729 0.19094 0.0
C1183 C 0.81253 0.29109 0.19257 0.0
C1184 C 0.81726 0.30401 0.21793 0.0
C1185 C 0.8026 0.29334 0.2414 0.0
C1186 C 0.783 0.26978 0.23919 0.0
C1187 C 0.77758 0.257 0.21452 0.0
C1188 C 0.75551 0.23186 0.21785 0.0
C1189 C 0.73456 0.22892 0.19924 0.0
C1190 C 0.76198 0.21201 0.21189 0.0
C1191 C 0.74971 0.23231 0.2484 0.0
C1192 C 0.76588 0.25436 0.2603 0.0
C1193 C 0.76507 0.25874 0.28856 0.0
C1194 C 0.74731 0.24016 0.30509 0.0
C1195 C 0.73036 0.21751 0.29337 0.0
C1196 C 0.7315 0.21367 0.26456 0.0
H1197 H 0.56769 0.81527 0.2199 0.0
H1198 H 0.49036 0.78739 0.20974 0.0
H1199 H 0.48219 0.7577 0.24719 0.0
H1200 H 0.56368 0.7575 0.23217 0.0
H1201 H 0.58817 0.76984 0.257 0.0
H1202 H 0.58753 0.78871 0.22948 0.0
H1203 H 0.59016 0.81989 0.266 0.0
H1204 H 0.59048 0.80096 0.29366 0.0
H1205 H 0.56784 0.81009 0.29334 0.0
H1206 H 0.48279 0.73085 0.28691 0.0
H1207 H 0.49196 0.70877 0.32268 0.0
H1208 H 0.56884 0.7541 0.30494 0.0
C1209 C 0.54895 0.80283 0.22501 0.0
C1210 C 0.52973 0.80396 0.21144 0.0
C1211 C 0.50555 0.78728 0.21968 0.0
C1212 C 0.50068 0.77023 0.24101 0.0
C1213 C 0.52014 0.76992 0.25401 0.0
C1214 C 0.54378 0.78573 0.24611 0.0
C1215 C 0.56157 0.78175 0.26307 0.0
C1216 C 0.57608 0.77398 0.24431 0.0
C1217 C 0.57851 0.80453 0.28002 0.0
C1218 C 0.5443 0.76119 0.28182 0.0
C1219 C 0.52047 0.75461 0.27643 0.0
C1220 C 0.50142 0.73587 0.29116 0.0
C1221 C 0.50686 0.72335 0.31151 0.0
C1222 C 0.5312 0.72945 0.31703 0.0
C1223 C 0.55004 0.74892 0.30194 0.0
H1224 H 0.74798 0.5086 0.19071 0.0
H1225 H 0.69715 0.52195 0.23655 0.0
H1226 H 0.71889 0.5248 0.28016 0.0
H1227 H 0.75548 0.4719 0.24546 0.0
H1228 H 0.78726 0.48418 0.238 0.0
H1229 H 0.76671 0.4816 0.21067 0.0
H1230 H 0.79355 0.5275 0.20012 0.0
H1231 H 0.81407 0.53017 0.22745 0.0
H1232 H 0.80053 0.5492 0.22769 0.0
H1233 H 0.74921 0.53097 0.31814 0.0
H1234 H 0.78347 0.53613 0.3477 0.0
H1235 H 0.81286 0.51616 0.27799 0.0
C1236 C 0.74124 0.51174 0.21002 0.0
C1237 C 0.72071 0.51486 0.21017 0.0
C1238 C 0.71252 0.51905 0.23589 0.0
C1239 C 0.72488 0.52087 0.26079 0.0
C1240 C 0.74525 0.51808 0.25985 0.0
C1241 C 0.75315 0.5132 0.23518 0.0
C1242 C 0.7758 0.5114 0.23979 0.0
C1243 C 0.77102 0.48574 0.23309 0.0
C1244 C 0.79725 0.53072 0.22275 0.0
C1245 C 0.77973 0.5166 0.27072 0.0
C1246 C 0.762 0.52054 0.28193 0.0
C1247 C 0.7629 0.52743 0.30968 0.0
C1248 C 0.7824 0.53038 0.32632 0.0
C1249 C 0.80056 0.5261 0.31533 0.0
C1250 C 0.79895 0.51891 0.28721 0.0
H1251 H 0.25041 0.79073 0.3277 0.0
H1252 H 0.32095 0.81914 0.28819 0.0
H1253 H 0.30174 0.79166 0.24888 0.0
H1254 H 0.22469 0.72788 0.3036 0.0
H1255 H 0.19496 0.72403 0.29784 0.0
H1256 H 0.21432 0.74446 0.32447 0.0
H1257 H 0.21046 0.77947 0.30222 0.0
H1258 H 0.19109 0.75916 0.27558 0.0
H1259 H 0.2182 0.78685 0.2661 0.0
H1260 H 0.27507 0.76357 0.21197 0.0
H1261 H 0.2424 0.73664 0.17988 0.0
H1262 H 0.18857 0.72609 0.2419 0.0
C1263 C 0.26196 0.7912 0.31096 0.0
C1264 C 0.28745 0.80733 0.31158 0.0
C1265 C 0.30158 0.80695 0.28893 0.0
C1266 C 0.29077 0.79137 0.26623 0.0
C1267 C 0.26572 0.77606 0.26622 0.0
C1268 C 0.25144 0.77576 0.28798 0.0
C1269 C 0.22474 0.75829 0.28203 0.0
C1270 C 0.21405 0.73743 0.30325 0.0
C1271 C 0.21028 0.77175 0.28144 0.0
C1272 C 0.22626 0.74923 0.25328 0.0
C1273 C 0.25015 0.75966 0.24473 0.0
C1274 C 0.25632 0.75515 0.21853 0.0
C1275 C 0.23763 0.73991 0.20039 0.0
C1276 C 0.21296 0.72923 0.20838 0.0
C1277 C 0.20726 0.73366 0.23542 0.0
H1278 H 0.5564 0.81381 0.82519 0.0
H1279 H 0.47877 0.78576 0.82161 0.0
H1280 H 0.47545 0.75866 0.78303 0.0
H1281 H 0.56581 0.81462 0.75242 0.0
H1282 H 0.58836 0.80544 0.75462 0.0
H1283 H 0.58455 0.82169 0.78299 0.0
H1284 H 0.5776 0.78718 0.81697 0.0
H1285 H 0.58166 0.77094 0.78875 0.0
H1286 H 0.55439 0.75645 0.80941 0.0
H1287 H 0.48084 0.7353 0.74338 0.0
H1288 H 0.49444 0.7174 0.70692 0.0
H1289 H 0.5685 0.7605 0.73652 0.0
C1290 C 0.53863 0.80163 0.81669 0.0
C1291 C 0.51783 0.80198 0.8266 0.0
C1292 C 0.49501 0.78605 0.81434 0.0
C1293 C 0.49292 0.7705 0.79243 0.0
C1294 C 0.51383 0.77097 0.78281 0.0
C1295 C 0.53624 0.78605 0.79465 0.0
C1296 C 0.55599 0.78354 0.77993 0.0
C1297 C 0.57478 0.80776 0.76671 0.0
C1298 C 0.56812 0.77395 0.79996 0.0
C1299 C 0.54124 0.76485 0.75788 0.0
C1300 C 0.51694 0.75774 0.75992 0.0
C1301 C 0.49984 0.74069 0.74171 0.0
C1302 C 0.50774 0.73053 0.72104 0.0
C1303 C 0.53259 0.73746 0.71852 0.0
C1304 C 0.54944 0.75496 0.73735 0.0
H1305 H 0.81589 0.55341 0.69566 0.0
H1306 H 0.77423 0.47828 0.66959 0.0
H1307 H 0.7432 0.47101 0.70534 0.0
H1308 H 0.80541 0.54219 0.76782 0.0
H1309 H 0.80378 0.56919 0.77472 0.0
H1310 H 0.82165 0.56861 0.74604 0.0
H1311 H 0.7977 0.58058 0.71216 0.0
H1312 H 0.77984 0.58136 0.74077 0.0
H1313 H 0.76507 0.56252 0.71099 0.0
H1314 H 0.71657 0.47239 0.74508 0.0
H1315 H 0.69847 0.48177 0.78557 0.0
H1316 H 0.75872 0.55569 0.78554 0.0
C1317 C 0.80002 0.53552 0.69698 0.0
C1318 C 0.79739 0.51649 0.67942 0.0
C1319 C 0.77665 0.49316 0.68267 0.0
C1320 C 0.7589 0.4889 0.70291 0.0
C1321 C 0.76219 0.5081 0.71997 0.0
C1322 C 0.78235 0.53093 0.7172 0.0
C1323 C 0.78239 0.5483 0.73878 0.0
C1324 C 0.80462 0.55761 0.75797 0.0
C1325 C 0.78117 0.56944 0.72484 0.0
C1326 C 0.75914 0.53175 0.75428 0.0
C1327 C 0.74755 0.50867 0.74306 0.0
C1328 C 0.72559 0.49042 0.75398 0.0
C1329 C 0.71538 0.49591 0.77694 0.0
C1330 C 0.72722 0.51938 0.78903 0.0
C1331 C 0.74935 0.53744 0.77726 0.0
H1332 H 0.24884 0.7996 0.71429 0.0
H1333 H 0.27738 0.75818 0.67396 0.0
H1334 H 0.25407 0.72416 0.70676 0.0
H1335 H 0.25239 0.782 0.78271 0.0
H1336 H 0.22498 0.78101 0.79437 0.0
H1337 H 0.24239 0.80104 0.76647 0.0
H1338 H 0.2045 0.78155 0.73458 0.0
H1339 H 0.1869 0.76157 0.76247 0.0
H1340 H 0.18839 0.74915 0.72934 0.0
H1341 H 0.22767 0.69476 0.7456 0.0
H1342 H 0.2025 0.67404 0.78701 0.0
H1343 H 0.19257 0.7358 0.80149 0.0
C1344 C 0.24979 0.78319 0.71181 0.0
C1345 C 0.26472 0.78148 0.69116 0.0
C1346 C 0.26602 0.7599 0.68948 0.0
C1347 C 0.25279 0.74048 0.70801 0.0
C1348 C 0.23843 0.74293 0.72828 0.0
C1349 C 0.23695 0.76383 0.73023 0.0
C1350 C 0.22134 0.76267 0.75461 0.0
C1351 C 0.23617 0.78288 0.77578 0.0
C1352 C 0.19895 0.7638 0.74465 0.0
C1353 C 0.21429 0.73789 0.76627 0.0
C1354 C 0.22409 0.7266 0.75076 0.0
C1355 C 0.21993 0.70351 0.75781 0.0
C1356 C 0.20555 0.69182 0.78132 0.0
C1357 C 0.19569 0.70331 0.79775 0.0
C1358 C 0.20012 0.72661 0.7898 0.0
H1359 H 0.45851 0.1977 0.76847 0.0
H1360 H 0.52386 0.24053 0.81674 0.0
H1361 H 0.53474 0.27584 0.78592 0.0
H1362 H 0.48461 0.2213 0.70228 0.0
H1363 H 0.45786 0.22057 0.68867 0.0
H1364 H 0.45504 0.19929 0.71515 0.0
H1365 H 0.43135 0.21352 0.74638 0.0
H1366 H 0.43399 0.23477 0.71994 0.0
H1367 H 0.44463 0.24528 0.7547 0.0
H1368 H 0.53792 0.30682 0.74912 0.0
H1369 H 0.53408 0.32942 0.70927 0.0
H1370 H 0.46693 0.26536 0.68533 0.0
C1371 C 0.47492 0.21458 0.77294 0.0
C1372 C 0.49017 0.21638 0.79536 0.0
C1373 C 0.51188 0.2387 0.79977 0.0
C1374 C 0.51815 0.25886 0.7824 0.0
C1375 C 0.50263 0.25638 0.76049 0.0
C1376 C 0.48152 0.2347 0.75572 0.0
C1377 C 0.46824 0.23629 0.73036 0.0
C1378 C 0.46634 0.2183 0.70778 0.0
C1379 C 0.44306 0.23223 0.73833 0.0
C1380 C 0.4851 0.26229 0.72151 0.0
C1381 C 0.50478 0.27371 0.73919 0.0
C1382 C 0.52258 0.29795 0.73518 0.0
C1383 C 0.52021 0.3107 0.71254 0.0
C1384 C 0.50031 0.2992 0.69396 0.0
C1385 C 0.48258 0.27464 0.69876 0.0
H1386 H 0.23365 0.48121 0.69583 0.0
H1387 H 0.17397 0.4757 0.74485 0.0
H1388 H 0.196 0.4776 0.78799 0.0
H1389 H 0.24747 0.44465 0.73801 0.0
H1390 H 0.27992 0.4627 0.73406 0.0
H1391 H 0.26028 0.46266 0.7071 0.0
H1392 H 0.28083 0.50948 0.71019 0.0
H1393 H 0.30067 0.50968 0.73707 0.0
H1394 H 0.28234 0.52353 0.74324 0.0
H1395 H 0.22268 0.47525 0.82579 0.0
H1396 H 0.25385 0.47344 0.85509 0.0
H1397 H 0.2973 0.48313 0.78181 0.0
C1398 C 0.22545 0.48082 0.71568 0.0
C1399 C 0.20214 0.47845 0.71695 0.0
C1400 C 0.19194 0.47791 0.74332 0.0
C1401 C 0.20426 0.4788 0.76796 0.0
C1402 C 0.227 0.48064 0.76596 0.0
C1403 C 0.23771 0.48212 0.74048 0.0
C1404 C 0.26218 0.48372 0.74404 0.0
C1405 C 0.26246 0.46215 0.72997 0.0
C1406 C 0.28272 0.50805 0.73298 0.0
C1407 C 0.26331 0.48231 0.77545 0.0
C1408 C 0.24278 0.48039 0.78774 0.0
C1409 C 0.23901 0.4772 0.8164 0.0
C1410 C 0.25671 0.47607 0.83288 0.0
C1411 C 0.27807 0.47848 0.82076 0.0
C1412 C 0.28138 0.48179 0.79167 0.0
H1413 H 0.74521 0.18084 0.69682 0.0
H1414 H 0.69298 0.20514 0.68668 0.0
H1415 H 0.71278 0.2346 0.72509 0.0
H1416 H 0.74851 0.18444 0.77085 0.0
H1417 H 0.78051 0.19465 0.77197 0.0
H1418 H 0.76228 0.17589 0.74366 0.0
H1419 H 0.79097 0.20832 0.70826 0.0
H1420 H 0.80938 0.2271 0.73645 0.0
H1421 H 0.797 0.2391 0.71144 0.0
H1422 H 0.73971 0.26236 0.76476 0.0
H1423 H 0.76994 0.28445 0.80178 0.0
H1424 H 0.80365 0.241 0.78497 0.0
C1425 C 0.73805 0.19254 0.70228 0.0
C1426 C 0.71763 0.1908 0.68839 0.0
C1427 C 0.70855 0.20609 0.69697 0.0
C1428 C 0.71974 0.22292 0.71873 0.0
C1429 C 0.7399 0.22414 0.7319 0.0
C1430 C 0.74885 0.20923 0.72395 0.0
C1431 C 0.77048 0.21368 0.74143 0.0
C1432 C 0.76511 0.1908 0.75796 0.0
C1433 C 0.7933 0.22258 0.72332 0.0
C1434 C 0.77249 0.23354 0.76046 0.0
C1435 C 0.75479 0.23946 0.75471 0.0
C1436 C 0.75356 0.25775 0.76942 0.0
C1437 C 0.77087 0.27027 0.79038 0.0
C1438 C 0.78912 0.26439 0.79662 0.0
C1439 C 0.78971 0.24568 0.78132 0.0
H1440 H 0.44349 0.05781 0.23852 0.0
H1441 H 0.38632 0.04528 0.18013 0.0
H1442 H 0.35704 0.01031 0.20823 0.0
H1443 H 0.42583 0.9977 0.25052 0.0
H1444 H 0.43298 1.00092 0.28704 0.0
H1445 H 0.44926 0.02633 0.26406 0.0
H1446 H 0.43749 0.05262 0.2938 0.0
H1447 H 0.42135 0.02765 0.31752 0.0
H1448 H 0.406 0.04189 0.30152 0.0
H1449 H 0.33516 0.97423 0.24021 0.0
H1450 H 0.32234 0.94095 0.27469 0.0
H1451 H 0.3934 0.97938 0.31305 0.0
C1452 C 0.4247 0.04817 0.23197 0.0
C1453 C 0.41721 0.0543 0.20713 0.0
C1454 C 0.39255 0.04072 0.19892 0.0
C1455 C 0.37574 0.02098 0.21486 0.0
C1456 C 0.38385 0.0153 0.23908 0.0
C1457 C 0.40771 0.02867 0.24771 0.0
C1458 C 0.41221 0.01819 0.27371 0.0
C1459 C 0.43118 0.01033 0.2685 0.0
C1460 C 0.4197 0.03616 0.29808 0.0
C1461 C 0.38723 0.99658 0.27811 0.0
C1462 C 0.37106 0.99513 0.25796 0.0
C1463 C 0.34747 0.97544 0.25647 0.0
C1464 C 0.34035 0.95668 0.276 0.0
C1465 C 0.35675 0.95805 0.29673 0.0
C1466 C 0.38029 0.97837 0.29793 0.0
H1467 H 0.39897 0.4285 0.21217 0.0
H1468 H 0.32261 0.3939 0.23321 0.0
H1469 H 0.32481 0.35932 0.25406 0.0
H1470 H 0.3995 0.37358 0.19395 0.0
H1471 H 0.42929 0.3842 0.20833 0.0
H1472 H 0.42129 0.40561 0.19452 0.0
H1473 H 0.43239 0.42877 0.2415 0.0
H1474 H 0.4409 0.40775 0.25514 0.0
H1475 H 0.41865 0.41235 0.2731 0.0
H1476 H 0.33678 0.3302 0.27574 0.0
H1477 H 0.35753 0.30972 0.29658 0.0
H1478 H 0.42505 0.3634 0.25844 0.0
C1479 C 0.38276 0.41371 0.22136 0.0
C1480 C 0.36071 0.41384 0.22152 0.0
C1481 C 0.3397 0.39401 0.23311 0.0
C1482 C 0.34076 0.37434 0.24483 0.0
C1483 C 0.36287 0.37473 0.24423 0.0
C1484 C 0.38343 0.39392 0.23269 0.0
C1485 C 0.40513 0.39047 0.23509 0.0
C1486 C 0.41433 0.38833 0.20625 0.0
C1487 C 0.42545 0.41104 0.25224 0.0
C1488 C 0.39377 0.3666 0.25042 0.0
C1489 C 0.36938 0.35763 0.25548 0.0
C1490 C 0.35576 0.3368 0.27146 0.0
C1491 C 0.36763 0.32528 0.28317 0.0
C1492 C 0.39274 0.33464 0.2786 0.0
C1493 C 0.40565 0.35518 0.26144 0.0
H1494 H 0.07339 0.40318 0.22856 0.0
H1495 H 0.04216 0.36207 0.30433 0.0
H1496 H 0.00538 0.33424 0.27879 0.0
H1497 H 0.02526 0.40721 0.21319 0.0
H1498 H 0.02669 0.40567 0.17586 0.0
H1499 H 0.05377 0.41634 0.19608 0.0
H1500 H 0.06139 0.38346 0.1743 0.0
H1501 H 0.03421 0.3727 0.15376 0.0
H1502 H 0.03803 0.35198 0.17593 0.0
H1503 H 0.9687 0.31745 0.24949 0.0
H1504 H 0.93568 0.31431 0.21985 0.0
H1505 H 0.98889 0.3699 0.16544 0.0
C1506 C 0.05912 0.38798 0.23971 0.0
C1507 C 0.06087 0.3851 0.26861 0.0
C1508 C 0.04176 0.36464 0.28214 0.0
C1509 C 0.02058 0.34864 0.26775 0.0
C1510 C 0.01865 0.35328 0.23985 0.0
C1511 C 0.03753 0.37242 0.22588 0.0
C1512 C 0.02931 0.37683 0.19804 0.0
C1513 C 0.03402 0.40304 0.1957 0.0
C1514 C 0.04146 0.37088 0.17409 0.0
C1515 C 1.0025 0.35853 0.19956 0.0
C1516 C 0.99687 0.34441 0.22324 0.0
C1517 C 0.97294 0.32807 0.2306 0.0
C1518 C 0.95427 0.32667 0.21383 0.0
C1519 C 0.95962 0.34199 0.19034 0.0
C1520 C 0.98411 0.35748 0.18277 0.0
H1521 H 0.56779 0.98156 0.18483 0.0
H1522 H 0.63171 0.97383 0.18289 0.0
H1523 H 0.65773 0.01835 0.18816 0.0
H1524 H 0.59548 0.04313 0.15094 0.0
H1525 H 0.57908 0.05241 0.1737 0.0
H1526 H 0.56582 0.02107 0.16351 0.0
H1527 H 0.55994 0.00753 0.21485 0.0
H1528 H 0.57247 0.03852 0.22542 0.0
H1529 H 0.58559 0.02093 0.23811 0.0
H1530 H 0.67571 0.06151 0.20254 0.0
H1531 H 0.68389 0.09856 0.22792 0.0
H1532 H 0.60801 0.07773 0.2209 0.0
C1533 C 0.58731 0.98932 0.18513 0.0
C1534 C 0.59786 0.97443 0.18384 0.0
C1535 C 0.62339 0.98509 0.18388 0.0
C1536 C 0.63824 0.0103 0.18663 0.0
C1537 C 0.6272 0.02448 0.18875 0.0
C1538 C 0.60226 0.01431 0.18787 0.0
C1539 C 0.59456 0.03267 0.19463 0.0
C1540 C 0.58308 0.03763 0.16916 0.0
C1541 C 0.57716 0.02443 0.21975 0.0
C1542 C 0.61895 0.05439 0.20148 0.0
C1543 C 0.63765 0.04959 0.19708 0.0
C1544 C 0.66135 0.06572 0.20545 0.0
C1545 C 0.66581 0.08665 0.21994 0.0
C1546 C 0.64657 0.091 0.22624 0.0
C1547 C 0.62319 0.07527 0.21564 0.0
H1548 H 0.57148 0.59991 0.28449 0.0
H1549 H 0.62088 0.67752 0.28979 0.0
H1550 H 0.65244 0.67254 0.2654 0.0
H1551 H 0.61431 0.58194 0.29788 0.0
H1552 H 0.60132 0.55671 0.27405 0.0
H1553 H 0.58232 0.56673 0.29013 0.0
H1554 H 0.56804 0.57252 0.24161 0.0
H1555 H 0.58671 0.56213 0.22541 0.0
H1556 H 0.5903 0.59118 0.21602 0.0
H1557 H 0.67864 0.65837 0.24042 0.0
H1558 H 0.69683 0.63601 0.21775 0.0
H1559 H 0.62978 0.56833 0.23127 0.0
C1560 C 0.58874 0.61594 0.27997 0.0
C1561 C 0.59375 0.63911 0.28868 0.0
C1562 C 0.61679 0.6596 0.28317 0.0
C1563 C 0.63475 0.65695 0.26934 0.0
C1564 C 0.62929 0.63371 0.26136 0.0
C1565 C 0.60679 0.61361 0.26644 0.0
C1566 C 0.60556 0.5905 0.25676 0.0
C1567 C 0.6006 0.57295 0.28117 0.0
C1568 C 0.58654 0.57838 0.23358 0.0
C1569 C 0.63098 0.60066 0.24574 0.0
C1570 C 0.64445 0.6256 0.24821 0.0
C1571 C 0.66832 0.63881 0.23856 0.0
C1572 C 0.67853 0.62607 0.22586 0.0
C1573 C 0.66489 0.60051 0.22356 0.0
C1574 C 0.6409 0.58782 0.23364 0.0
H1575 H 0.97656 0.63651 0.31105 0.0
H1576 H 0.93033 0.60549 0.23858 0.0
H1577 H 0.96274 0.63538 0.209 0.0
H1578 H 0.01571 0.70124 0.28345 0.0
H1579 H 0.04249 0.70297 0.29848 0.0
H1580 H 0.01352 0.68552 0.31548 0.0
H1581 H 0.01881 0.64767 0.31489 0.0
H1582 H 0.04761 0.66491 0.29797 0.0
H1583 H 0.02432 0.63731 0.28226 0.0
H1584 H 1.00158 0.66023 0.18604 0.0
H1585 H 0.04341 0.6755 0.17143 0.0
H1586 H 0.06694 0.69007 0.25759 0.0
C1587 C 0.97295 0.63617 0.28905 0.0
C1588 C 0.95061 0.61835 0.27741 0.0
C1589 C 0.94685 0.61909 0.24844 0.0
C1590 C 0.9653 0.63609 0.2313 0.0
C1591 C 0.98755 0.65231 0.24325 0.0
C1592 C 0.99146 0.65257 0.27152 0.0
C1593 C 0.01818 0.66825 0.27848 0.0
C1594 C 0.02274 0.69084 0.29494 0.0
C1595 C 0.02777 0.65366 0.2943 0.0
C1596 C 0.02884 0.67507 0.24951 0.0
C1597 C 0.01075 0.66653 0.22961 0.0
C1598 C 0.01593 0.66768 0.20139 0.0
C1599 C 0.04001 0.67662 0.19327 0.0
C1600 C 0.05882 0.68418 0.21331 0.0
C1601 C 0.05313 0.68446 0.2417 0.0
H1602 H 0.57553 0.97645 0.81142 0.0
H1603 H 0.60294 0.92912 0.7867 0.0
H1604 H 0.63545 0.96267 0.75934 0.0
H1605 H 0.58203 0.00416 0.74864 0.0
H1606 H 0.59092 0.03377 0.76253 0.0
H1607 H 0.57261 0.00719 0.78305 0.0
H1608 H 0.60457 0.02473 0.82261 0.0
H1609 H 0.62317 0.05133 0.80192 0.0
H1610 H 0.63567 0.03343 0.81536 0.0
H1611 H 0.66013 0.99898 0.72904 0.0
H1612 H 0.67477 0.03487 0.69832 0.0
H1613 H 0.63215 0.05854 0.74519 0.0
C1614 C 0.58862 0.97333 0.8005 0.0
C1615 C 0.58686 0.95041 0.80078 0.0
C1616 C 0.60422 0.94675 0.78656 0.0
C1617 C 0.62273 0.96568 0.77119 0.0
C1618 C 0.6238 0.98811 0.77097 0.0
C1619 C 0.6073 0.99204 0.78551 0.0
C1620 C 0.61089 0.01697 0.78007 0.0
C1621 C 0.58775 0.01541 0.76783 0.0
C1622 C 0.61907 0.03253 0.80657 0.0
C1623 C 0.63111 0.02602 0.75897 0.0
C1624 C 0.63864 0.00935 0.75426 0.0
C1625 C 0.65492 0.0125 0.73306 0.0
C1626 C 0.66308 0.03283 0.71571 0.0
C1627 C 0.65488 0.04958 0.7198 0.0
C1628 C 0.63942 0.0465 0.74228 0.0
H1629 H 0.65349 0.61788 0.81524 0.0
H1630 H 0.70073 0.61767 0.75027 0.0
H1631 H 0.68704 0.63939 0.71925 0.0
H1632 H 0.6057 0.60363 0.77616 0.0
H1633 H 0.59578 0.62262 0.79263 0.0
H1634 H 0.61321 0.61252 0.812 0.0
H1635 H 0.64547 0.65693 0.82359 0.0
H1636 H 0.62781 0.6673 0.80482 0.0
H1637 H 0.65919 0.67873 0.79587 0.0
H1638 H 0.66206 0.65277 0.69288 0.0
H1639 H 0.63005 0.65968 0.67406 0.0
H1640 H 0.60061 0.65312 0.75708 0.0
C1641 C 0.662 0.62348 0.79504 0.0
C1642 C 0.67824 0.61609 0.78525 0.0
C1643 C 0.68814 0.62299 0.75818 0.0
C1644 C 0.6806 0.63548 0.74048 0.0
C1645 C 0.66353 0.6413 0.75038 0.0
C1646 C 0.65476 0.63598 0.77726 0.0
C1647 C 0.63449 0.64149 0.7819 0.0
C1648 C 0.61092 0.61871 0.7912 0.0
C1649 C 0.64221 0.66236 0.80278 0.0
C1650 C 0.63215 0.64927 0.75295 0.0
C1651 C 0.64933 0.64946 0.73517 0.0
C1652 C 0.64907 0.65352 0.70677 0.0
C1653 C 0.63079 0.65746 0.69629 0.0
C1654 C 0.61296 0.65727 0.71417 0.0
C1655 C 0.61399 0.65347 0.7429 0.0
H1656 H 0.02958 0.61702 0.80426 0.0
H1657 H 0.08421 0.65251 0.74035 0.0
H1658 H 0.05193 0.64234 0.70551 0.0
H1659 H 0.99201 0.56811 0.76623 0.0
H1660 H 0.96381 0.56425 0.77952 0.0
H1661 H 0.99072 0.57894 0.80048 0.0
H1662 H 0.98584 0.61685 0.80546 0.0
H1663 H 0.95861 0.60213 0.78474 0.0
H1664 H 0.98311 0.63156 0.77474 0.0
H1665 H 0.0145 0.62262 0.67696 0.0
H1666 H 0.97468 0.59468 0.65642 0.0
H1667 H 0.94414 0.57199 0.73903 0.0
C1668 C 0.03471 0.62354 0.78316 0.0
C1669 C 0.05926 0.6358 0.77491 0.0
C1670 C 0.06542 0.64321 0.74695 0.0
C1671 C 0.04725 0.63765 0.72714 0.0
C1672 C 0.02312 0.62477 0.73576 0.0
C1673 C 0.01682 0.61795 0.76316 0.0
C1674 C 0.98974 0.60146 0.76642 0.0
C1675 C 0.98374 0.57674 0.77888 0.0
C1676 C 0.97867 0.61374 0.78387 0.0
C1677 C 0.98192 0.59907 0.73639 0.0
C1678 C 1.00136 0.61306 0.7191 0.0
C1679 C 0.99902 0.61211 0.6903 0.0
C1680 C 0.97629 0.5962 0.67883 0.0
C1681 C 0.95625 0.58136 0.69618 0.0
C1682 C 0.9591 0.58322 0.7253 0.0
H1683 H 0.45825 0.04337 0.77545 0.0
H1684 H 0.40044 0.06009 0.78657 0.0
H1685 H 0.37129 0.02058 0.76567 0.0
H1686 H 0.43756 0.01356 0.70845 0.0
H1687 H 0.44677 0.99157 0.71598 0.0
H1688 H 0.46285 0.02134 0.73132 0.0
H1689 H 0.45514 1.00167 0.77991 0.0
H1690 H 0.43833 0.97176 0.76519 0.0
H1691 H 0.42452 0.98131 0.79129 0.0
H1692 H 0.34847 0.97893 0.74395 0.0
H1693 H 0.33402 0.93859 0.72245 0.0
H1694 H 0.40738 0.95054 0.72489 0.0
C1695 C 0.43956 0.03897 0.77306 0.0
C1696 C 0.4316 0.05481 0.78255 0.0
C1697 C 0.40685 0.04808 0.77964 0.0
C1698 C 0.39021 0.02577 0.7677 0.0
C1699 C 0.39868 0.01053 0.75873 0.0
C1700 C 0.4228 0.01693 0.76111 0.0
C1701 C 0.42731 0.99731 0.75004 0.0
C1702 C 0.44464 0.0065 0.72496 0.0
C1703 C 0.43686 0.98741 0.773 0.0
C1704 C 0.40189 0.97874 0.74138 0.0
C1705 C 0.3856 0.98666 0.74643 0.0
C1706 C 0.36106 0.97253 0.73988 0.0
C1707 C 0.35303 0.94973 0.72769 0.0
C1708 C 0.36954 0.94141 0.7224 0.0
C1709 C 0.39423 0.95618 0.72933 0.0
H1710 H 0.37167 0.42291 0.75428 0.0
H1711 H 0.37892 0.40254 0.83819 0.0
H1712 H 0.39423 0.37648 0.8197 0.0
H1713 H 0.35594 0.36288 0.72025 0.0
H1714 H 0.37332 0.37836 0.68979 0.0
H1715 H 0.35808 0.39101 0.70934 0.0
H1716 H 0.39885 0.43131 0.71469 0.0
H1717 H 0.41421 0.41879 0.69547 0.0
H1718 H 0.42449 0.43075 0.72987 0.0
H1719 H 0.41672 0.36028 0.79301 0.0
H1720 H 0.44177 0.3526 0.75958 0.0
H1721 H 0.4185 0.3824 0.69319 0.0
C1722 C 0.3757 0.41226 0.76862 0.0
C1723 C 0.374 0.41447 0.79753 0.0
C1724 C 0.37974 0.40067 0.81589 0.0
C1725 C 0.38847 0.38588 0.80559 0.0
C1726 C 0.39088 0.38483 0.77692 0.0
C1727 C 0.38421 0.39729 0.75865 0.0
C1728 C 0.391 0.3953 0.72908 0.0
C1729 C 0.36822 0.38103 0.71105 0.0
C1730 C 0.40816 0.42053 0.71658 0.0
C1731 C 0.40382 0.38103 0.73376 0.0
C1732 C 0.40333 0.37485 0.76141 0.0
C1733 C 0.41659 0.3643 0.77117 0.0
C1734 C 0.43086 0.36016 0.75217 0.0
C1735 C 0.43158 0.36651 0.72388 0.0
C1736 C 0.41754 0.37663 0.71457 0.0
H1737 H 0.06054 0.42209 0.75387 0.0
H1738 H 0.05466 0.35489 0.72456 0.0
H1739 H 0.01488 0.33175 0.74819 0.0
H1740 H 0.02788 0.39893 0.82169 0.0
H1741 H 0.01382 0.41735 0.81807 0.0
H1742 H 0.04367 0.42775 0.804 0.0
H1743 H 0.02853 0.43277 0.75582 0.0
H1744 H 0.99854 0.42182 0.76943 0.0
H1745 H 1.00298 0.40703 0.7399 0.0
H1746 H 0.97364 0.31672 0.76991 0.0
H1747 H 0.93466 0.31106 0.7881 0.0
H1748 H 0.96798 0.3887 0.80071 0.0
C1749 C 0.0515 0.40245 0.75351 0.0
C1750 C 0.06083 0.3902 0.73787 0.0
C1751 C 0.04786 0.36454 0.73672 0.0
C1752 C 0.02533 0.35131 0.7501 0.0
C1753 C 0.0162 0.36411 0.76441 0.0
C1754 C 0.02904 0.38914 0.76636 0.0
C1755 C 0.01423 0.39894 0.77979 0.0
C1756 C 0.02558 0.41147 0.80754 0.0
C1757 C 0.01088 0.41614 0.76004 0.0
C1758 C 0.99071 0.37559 0.78426 0.0
C1759 C 0.99225 0.35562 0.77578 0.0
C1760 C 0.97233 0.33219 0.77692 0.0
C1761 C 0.95032 0.32915 0.7871 0.0
C1762 C 0.94847 0.34951 0.7954 0.0
C1763 C 0.96894 0.37291 0.79412 0.0
H1764 H 0.58787 0.16886 0.16671 0.0
H1765 H 0.52459 0.16594 0.20451 0.0
H1766 H 0.54808 0.18568 0.24634 0.0
H1767 H 0.60354 0.14928 0.22519 0.0
H1768 H 0.63592 0.16726 0.22023 0.0
H1769 H 0.61602 0.15886 0.19081 0.0
H1770 H 0.63565 0.20445 0.17758 0.0
H1771 H 0.6551 0.21276 0.20767 0.0
H1772 H 0.63584 0.22571 0.20249 0.0
H1773 H 0.57572 0.20017 0.28621 0.0
H1774 H 0.60225 0.20016 0.32363 0.0
H1775 H 0.64703 0.19122 0.26234 0.0
C1776 C 0.57923 0.17302 0.18353 0.0
C1777 C 0.55462 0.16664 0.18189 0.0
C1778 C 0.54361 0.17138 0.2048 0.0
C1779 C 0.55688 0.18275 0.22871 0.0
C1780 C 0.58111 0.18889 0.22975 0.0
C1781 C 0.5921 0.18376 0.20799 0.0
C1782 C 0.61674 0.1878 0.21646 0.0
C1783 C 0.6181 0.16441 0.21299 0.0
C1784 C 0.63703 0.20894 0.20007 0.0
C1785 C 0.61712 0.19447 0.24677 0.0
C1786 C 0.5969 0.1961 0.25367 0.0
C1787 C 0.59191 0.19947 0.28105 0.0
C1788 C 0.60714 0.19963 0.30218 0.0
C1789 C 0.62662 0.19585 0.29565 0.0
C1790 C 0.63241 0.19458 0.26761 0.0
H1791 H 0.45362 0.60003 0.3248 0.0
H1792 H 0.48288 0.65954 0.26571 0.0
H1793 H 0.44773 0.63611 0.23502 0.0
H1794 H 0.43757 0.55583 0.27802 0.0
H1795 H 0.41 0.53332 0.29456 0.0
H1796 H 0.43372 0.55668 0.31507 0.0
H1797 H 0.40368 0.56956 0.33396 0.0
H1798 H 0.37968 0.54603 0.31355 0.0
H1799 H 0.38665 0.57708 0.30997 0.0
H1800 H 0.41518 0.60403 0.20694 0.0
H1801 H 0.38716 0.56553 0.18359 0.0
H1802 H 0.37834 0.52663 0.26077 0.0
C1803 C 0.45209 0.60847 0.30593 0.0
C1804 C 0.47081 0.63155 0.29759 0.0
C1805 C 0.46865 0.64182 0.27241 0.0
C1806 C 0.44867 0.62874 0.25496 0.0
C1807 C 0.43097 0.60554 0.26316 0.0
C1808 C 0.43233 0.59555 0.28819 0.0
C1809 C 0.41296 0.56909 0.29025 0.0
C1810 C 0.42425 0.5528 0.29471 0.0
C1811 C 0.39465 0.56522 0.3133 0.0
C1812 C 0.40153 0.56538 0.26178 0.0
C1813 C 0.4118 0.58676 0.24673 0.0
C1814 C 0.40646 0.5873 0.21873 0.0
C1815 C 0.39064 0.56535 0.20561 0.0
C1816 C 0.38046 0.54322 0.2205 0.0
C1817 C 0.38539 0.54338 0.24911 0.0
H1818 H 0.87956 0.47288 0.29365 0.0
H1819 H 0.83181 0.48311 0.23776 0.0
H1820 H 0.83028 0.4514 0.20675 0.0
H1821 H 0.91514 0.46915 0.24235 0.0
H1822 H 0.92021 0.44688 0.25955 0.0
H1823 H 0.91409 0.46699 0.27975 0.0
H1824 H 0.87782 0.43028 0.30352 0.0
H1825 H 0.88387 0.40989 0.28359 0.0
H1826 H 0.85422 0.40701 0.28247 0.0
H1827 H 0.83714 0.42152 0.17985 0.0
H1828 H 0.85333 0.39738 0.15805 0.0
H1829 H 0.89829 0.4088 0.23072 0.0
C1830 C 0.86836 0.46814 0.27521 0.0
C1831 C 0.85578 0.48041 0.2681 0.0
C1832 C 0.84159 0.47389 0.24358 0.0
C1833 C 0.84052 0.45584 0.22593 0.0
C1834 C 0.85376 0.44461 0.23316 0.0
C1835 C 0.86742 0.45054 0.25722 0.0
C1836 C 0.88213 0.43786 0.25882 0.0
C1837 C 0.9095 0.45632 0.26018 0.0
C1838 C 0.87401 0.42021 0.28357 0.0
C1839 C 0.87517 0.42441 0.23148 0.0
C1840 C 0.85841 0.4281 0.21723 0.0
C1841 C 0.85007 0.41829 0.19093 0.0
C1842 C 0.85938 0.40464 0.17872 0.0
C1843 C 0.87712 0.40132 0.19268 0.0
C1844 C 0.88476 0.41104 0.21954 0.0
H1845 H 0.40146 0.88845 0.26954 0.0
H1846 H 0.4019 0.85357 0.3469 0.0
H1847 H 0.42817 0.83973 0.3252 0.0
H1848 H 0.40217 0.84226 0.22252 0.0
H1849 H 0.42145 0.86516 0.19783 0.0
H1850 H 0.40024 0.86943 0.21849 0.0
H1851 H 0.43544 0.91055 0.23616 0.0
H1852 H 0.45668 0.90633 0.21571 0.0
H1853 H 0.4613 0.91138 0.25263 0.0
H1854 H 0.45951 0.83565 0.29724 0.0
H1855 H 0.49074 0.83881 0.26405 0.0
H1856 H 0.46754 0.87447 0.2047 0.0
C1857 C 0.40669 0.87748 0.28175 0.0
C1858 C 0.39983 0.87213 0.30985 0.0
C1859 C 0.40694 0.85774 0.32524 0.0
C1860 C 0.42183 0.84982 0.3131 0.0
C1861 C 0.42889 0.85605 0.28549 0.0
C1862 C 0.42117 0.86919 0.26988 0.0
C1863 C 0.43237 0.87481 0.24122 0.0
C1864 C 0.41289 0.86215 0.21868 0.0
C1865 C 0.44733 0.9024 0.23616 0.0
C1866 C 0.44842 0.86368 0.2435 0.0
C1867 C 0.44614 0.85284 0.2691 0.0
C1868 C 0.46101 0.84353 0.27688 0.0
C1869 C 0.47875 0.84552 0.25803 0.0
C1870 C 0.48123 0.85657 0.23178 0.0
C1871 C 0.46559 0.86535 0.22435 0.0
H1872 H 0.5768 0.49007 0.20955 0.0
H1873 H 0.62565 0.46145 0.20007 0.0
H1874 H 0.59778 0.42553 0.22827 0.0
H1875 H 0.55991 0.47209 0.27932 0.0
H1876 H 0.52886 0.46464 0.27444 0.0
H1877 H 0.5524 0.4875 0.25305 0.0
H1878 H 0.52942 0.4641 0.20869 0.0
H1879 H 0.50577 0.44116 0.22994 0.0
H1880 H 0.52117 0.43272 0.20471 0.0
H1881 H 0.56543 0.39413 0.26001 0.0
H1882 H 0.53038 0.36887 0.29059 0.0
H1883 H 0.50285 0.41819 0.27668 0.0
C1884 C 0.58169 0.47627 0.21337 0.0
C1885 C 0.60337 0.47849 0.20288 0.0
C1886 C 0.60902 0.45995 0.20799 0.0
C1887 C 0.59336 0.43958 0.22396 0.0
C1888 C 0.57214 0.43807 0.23419 0.0
C1889 C 0.56624 0.45586 0.22887 0.0
C1890 C 0.54251 0.45017 0.24217 0.0
C1891 C 0.54615 0.46976 0.26351 0.0
C1892 C 0.5236 0.44683 0.22006 0.0
C1893 C 0.53603 0.42648 0.25618 0.0
C1894 C 0.55332 0.41977 0.2515 0.0
C1895 C 0.55165 0.39906 0.26356 0.0
C1896 C 0.53177 0.38489 0.2809 0.0
C1897 C 0.51389 0.39152 0.28569 0.0
C1898 C 0.51605 0.41246 0.273 0.0
H1899 H 0.09094 0.599 0.24924 0.0
H1900 H 0.15835 0.62281 0.20454 0.0
H1901 H 0.16694 0.59597 0.23389 0.0
H1902 H 0.11477 0.59332 0.31713 0.0
H1903 H 0.08701 0.56698 0.32746 0.0
H1904 H 0.08613 0.58956 0.30561 0.0
H1905 H 0.06192 0.55864 0.2674 0.0
H1906 H 0.06058 0.53486 0.28875 0.0
H1907 H 0.0726 0.53917 0.25398 0.0
H1908 H 0.16539 0.56272 0.26459 0.0
H1909 H 0.1533 0.52566 0.29266 0.0
H1910 H 0.08659 0.52387 0.31574 0.0
C1911 C 0.10773 0.59891 0.24588 0.0
C1912 C 0.12394 0.61287 0.22461 0.0
C1913 C 0.14574 0.6123 0.22089 0.0
C1914 C 0.15078 0.59716 0.23747 0.0
C1915 C 0.13401 0.5831 0.25786 0.0
C1916 C 0.11304 0.58408 0.26221 0.0
C1917 C 0.09715 0.56623 0.28413 0.0
C1918 C 0.09618 0.57981 0.3101 0.0
C1919 C 0.07157 0.5487 0.27287 0.0
C1920 C 0.11135 0.55348 0.28974 0.0
C1921 C 0.13301 0.56399 0.27521 0.0
C1922 C 0.14864 0.55456 0.27633 0.0
C1923 C 0.14166 0.53357 0.29226 0.0
C1924 C 0.11902 0.52206 0.30611 0.0
C1925 C 0.10398 0.53241 0.30523 0.0
H1926 H 0.47066 0.85155 0.76444 0.0
H1927 H 0.43454 0.83228 0.84461 0.0
H1928 H 0.39485 0.81476 0.82112 0.0
H1929 H 0.4357 0.87258 0.73628 0.0
H1930 H 0.43517 0.86191 0.70144 0.0
H1931 H 0.46006 0.86822 0.72409 0.0
H1932 H 0.4521 0.82441 0.71671 0.0
H1933 H 0.42696 0.81795 0.69413 0.0
H1934 H 0.42245 0.79893 0.72392 0.0
H1935 H 0.36018 0.80536 0.79005 0.0
H1936 H 0.33366 0.80769 0.75428 0.0
H1937 H 0.39228 0.83295 0.69429 0.0
C1938 C 0.45437 0.84302 0.77702 0.0
C1939 C 0.45561 0.8431 0.80628 0.0
C1940 C 0.43396 0.83234 0.82211 0.0
C1941 C 0.41133 0.82214 0.80895 0.0
C1942 C 0.41074 0.82274 0.78001 0.0
C1943 C 0.4317 0.83294 0.76423 0.0
C1944 C 0.42642 0.8344 0.73386 0.0
C1945 C 0.44014 0.86084 0.72333 0.0
C1946 C 0.43233 0.81793 0.71611 0.0
C1947 C 0.39938 0.82465 0.73525 0.0
C1948 C 0.39056 0.81743 0.76192 0.0
C1949 C 0.36672 0.81045 0.76897 0.0
C1950 C 0.35181 0.81188 0.74853 0.0
C1951 C 0.36095 0.82049 0.72155 0.0
C1952 C 0.38466 0.82587 0.71458 0.0
H1953 H 0.57542 0.4558 0.65681 0.0
H1954 H 0.56257 0.38602 0.68652 0.0
H1955 H 0.5865 0.40557 0.7288 0.0
H1956 H 0.63742 0.49448 0.68907 0.0
H1957 H 0.63046 0.51794 0.6975 0.0
H1958 H 0.61745 0.4995 0.66697 0.0
H1959 H 0.57491 0.48846 0.68457 0.0
H1960 H 0.5872 0.50578 0.71579 0.0
H1961 H 0.56464 0.47405 0.718 0.0
H1962 H 0.60725 0.4316 0.76994 0.0
H1963 H 0.62257 0.46215 0.8076 0.0
H1964 H 0.61886 0.51408 0.7522 0.0
C1965 C 0.57867 0.44491 0.67165 0.0
C1966 C 0.56781 0.41962 0.66835 0.0
C1967 C 0.57124 0.40555 0.6887 0.0
C1968 C 0.58478 0.41648 0.71267 0.0
C1969 C 0.5945 0.4414 0.71594 0.0
C1970 C 0.59169 0.45548 0.69594 0.0
C1971 C 0.60093 0.48111 0.70614 0.0
C1972 C 0.62288 0.49933 0.6889 0.0
C1973 C 0.5807 0.4877 0.70614 0.0
C1974 C 0.60838 0.47893 0.73534 0.0
C1975 C 0.60514 0.45611 0.74037 0.0
C1976 C 0.61011 0.44962 0.76619 0.0
C1977 C 0.61866 0.46699 0.78744 0.0
C1978 C 0.62158 0.49027 0.78278 0.0
C1979 C 0.6165 0.49629 0.75638 0.0
H1980 H 0.09897 0.48764 0.74798 0.0
H1981 H 0.15358 0.53714 0.69001 0.0
H1982 H 0.16874 0.56959 0.72567 0.0
H1983 H 0.08477 0.52911 0.77893 0.0
H1984 H 0.08104 0.51627 0.81323 0.0
H1985 H 0.07566 0.4975 0.78317 0.0
H1986 H 0.10683 0.48599 0.80213 0.0
H1987 H 0.11264 0.5054 0.83184 0.0
H1988 H 0.13735 0.50964 0.80976 0.0
H1989 H 0.1747 0.59733 0.76576 0.0
H1990 H 0.17203 0.6181 0.80796 0.0
H1991 H 0.11573 0.54937 0.84074 0.0
C1992 C 0.1141 0.50533 0.74275 0.0
C1993 C 0.12496 0.51013 0.71623 0.0
C1994 C 0.14499 0.53328 0.71026 0.0
C1995 C 0.15375 0.5517 0.73037 0.0
C1996 C 0.14256 0.54637 0.75638 0.0
C1997 C 0.12332 0.52367 0.76267 0.0
C1998 C 0.11414 0.52262 0.79191 0.0
C1999 C 0.08733 0.51601 0.79177 0.0
C2000 C 0.11798 0.50486 0.80997 0.0
C2001 C 0.13066 0.54859 0.80083 0.0
C2002 C 0.14698 0.56199 0.78007 0.0
C2003 C 0.16245 0.58694 0.78242 0.0
C2004 C 0.16084 0.59856 0.80638 0.0
C2005 C 0.14413 0.58512 0.82766 0.0
C2006 C 0.12927 0.5598 0.82514 0.0
H2007 H 0.55802 0.14988 0.80353 0.0
H2008 H 0.54315 0.19247 0.74472 0.0
H2009 H 0.57092 0.18971 0.71087 0.0
H2010 H 0.62246 0.16957 0.78101 0.0
H2011 H 0.61693 0.13909 0.78564 0.0
H2012 H 0.60189 0.15042 0.8077 0.0
H2013 H 0.56042 0.1137 0.79389 0.0
H2014 H 0.57509 0.1025 0.77133 0.0
H2015 H 0.55208 0.10831 0.75768 0.0
H2016 H 0.59434 0.17642 0.68099 0.0
H2017 H 0.61064 0.15308 0.65727 0.0
H2018 H 0.60694 0.11651 0.73483 0.0
C2019 C 0.56156 0.15966 0.78408 0.0
C2020 C 0.54884 0.17173 0.7768 0.0
C2021 C 0.55304 0.1834 0.7507 0.0
C2022 C 0.56879 0.18196 0.73142 0.0
C2023 C 0.58001 0.16868 0.73863 0.0
C2024 C 0.57666 0.15784 0.76444 0.0
C2025 C 0.58716 0.14114 0.76552 0.0
C2026 C 0.60838 0.15063 0.78619 0.0
C2027 C 0.56751 0.11488 0.77249 0.0
C2028 C 0.59591 0.14337 0.73592 0.0
C2029 C 0.59229 0.15985 0.72092 0.0
C2030 C 0.59763 0.16378 0.69263 0.0
C2031 C 0.60675 0.15038 0.67933 0.0
C2032 C 0.60982 0.13292 0.69424 0.0
C2033 C 0.60464 0.12968 0.72292 0.0
H2034 H 0.40941 0.5595 0.81654 0.0
H2035 H 0.36031 0.52288 0.74785 0.0
H2036 H 0.38634 0.55722 0.71705 0.0
H2037 H 0.42878 0.62351 0.79482 0.0
H2038 H 0.45947 0.63396 0.80605 0.0
H2039 H 0.43446 0.6091 0.82387 0.0
H2040 H 0.45396 0.58233 0.81538 0.0
H2041 H 0.47884 0.60691 0.79739 0.0
H2042 H 0.46117 0.57802 0.78036 0.0
H2043 H 0.42051 0.59156 0.69245 0.0
H2044 H 0.46031 0.62361 0.67562 0.0
H2045 H 0.48742 0.63767 0.76037 0.0
C2046 C 0.40367 0.55902 0.79526 0.0
C2047 C 0.38284 0.5386 0.78457 0.0
C2048 C 0.37622 0.53841 0.75645 0.0
C2049 C 0.39081 0.55788 0.73886 0.0
C2050 C 0.41177 0.57737 0.74983 0.0
C2051 C 0.41809 0.57817 0.77746 0.0
C2052 C 0.44298 0.59957 0.78334 0.0
C2053 C 0.44131 0.61761 0.80319 0.0
C2054 C 0.46024 0.59119 0.79477 0.0
C2055 C 0.45018 0.61004 0.75442 0.0
C2056 C 0.43174 0.59724 0.7355 0.0
C2057 C 0.4349 0.60206 0.70712 0.0
C2058 C 0.45762 0.62019 0.69777 0.0
C2059 C 0.47689 0.63315 0.71676 0.0
C2060 C 0.4729 0.62834 0.74546 0.0
H2061 H 0.84939 0.43938 0.67767 0.0
H2062 H 0.82543 0.47372 0.73795 0.0
H2063 H 0.81647 0.44086 0.77136 0.0
H2064 H 0.80603 0.37473 0.6985 0.0
H2065 H 0.82882 0.36619 0.69313 0.0
H2066 H 0.82895 0.38977 0.67216 0.0
H2067 H 0.87341 0.4192 0.68679 0.0
H2068 H 0.8734 0.39589 0.70792 0.0
H2069 H 0.88083 0.42465 0.72323 0.0
H2070 H 0.8165 0.40871 0.80039 0.0
H2071 H 0.82463 0.37866 0.82295 0.0
H2072 H 0.84823 0.3648 0.74384 0.0
C2073 C 0.84149 0.43954 0.69755 0.0
C2074 C 0.83799 0.45898 0.70524 0.0
C2075 C 0.82822 0.45894 0.73168 0.0
C2076 C 0.82295 0.4403 0.75073 0.0
C2077 C 0.82741 0.42181 0.74289 0.0
C2078 C 0.83625 0.42114 0.71684 0.0
C2079 C 0.84203 0.40082 0.71471 0.0
C2080 C 0.82546 0.38174 0.69336 0.0
C2081 C 0.86901 0.41074 0.70777 0.0
C2082 C 0.83608 0.39087 0.744 0.0
C2083 C 0.82733 0.40301 0.75978 0.0
C2084 C 0.82279 0.39867 0.78813 0.0
C2085 C 0.82759 0.38169 0.80077 0.0
C2086 C 0.83686 0.36932 0.78505 0.0
C2087 C 0.84066 0.37363 0.75622 0.0
H2088 H 0.4832 0.18091 0.04795 0.0
H2089 H 0.54496 0.17183 0.06554 0.0
H2090 H 0.55957 0.18414 0.01734 0.0
H2091 H 0.4691 0.15284 0.98801 0.0
H2092 H 0.45955 0.17166 0.97031 0.0
H2093 H 0.45829 0.16979 0.00747 0.0
H2094 H 0.48524 0.21655 0.01093 0.0
H2095 H 0.48651 0.2186 0.97351 0.0
H2096 H 0.51417 0.23168 0.99347 0.0
H2097 H 0.5617 0.18746 0.9651 0.0
H2098 H 0.55056 0.18041 0.91531 0.0
H2099 H 0.48724 0.18701 0.93205 0.0
C2100 C 0.50035 0.18251 0.04198 0.0
C2101 C 0.513 0.17552 0.06041 0.0
C2102 C 0.53517 0.17745 0.05183 0.0
C2103 C 0.54359 0.18445 0.02446 0.0
C2104 C 0.52986 0.18987 0.0062 0.0
C2105 C 0.50886 0.18936 0.01486 0.0
C2106 C 0.49516 0.19194 0.99064 0.0
C2107 C 0.46902 0.17027 0.98902 0.0
C2108 C 0.49529 0.21614 0.99224 0.0
C2109 C 0.51057 0.19196 0.96674 0.0
C2110 C 0.53099 0.19161 0.97602 0.0
C2111 C 0.54619 0.18847 0.95761 0.0
C2112 C 0.53978 0.18456 0.92931 0.0
C2113 C 0.51813 0.18335 0.91995 0.0
C2114 C 0.50408 0.18823 0.93869 0.0
H2115 H 0.4009 0.51841 0.06128 0.0
H2116 H 0.33948 0.52776 0.07904 0.0
H2117 H 0.3391 0.53955 0.02991 0.0
H2118 H 0.42904 0.56701 0.00327 0.0
H2119 H 0.43763 0.5479 0.98457 0.0
H2120 H 0.43769 0.54798 0.02207 0.0
H2121 H 0.40928 0.50131 0.02206 0.0
H2122 H 0.40898 0.5011 0.98487 0.0
H2123 H 0.38077 0.48843 0.00375 0.0
H2124 H 0.33886 0.53933 0.97733 0.0
H2125 H 0.33896 0.52734 0.92823 0.0
H2126 H 0.40081 0.51857 0.94554 0.0
C2127 C 0.38817 0.52413 0.055 0.0
C2128 C 0.3704 0.5225 0.07363 0.0
C2129 C 0.35354 0.52945 0.06497 0.0
C2130 C 0.35323 0.53612 0.03713 0.0
C2131 C 0.37026 0.53623 0.01864 0.0
C2132 C 0.3878 0.5309 0.02751 0.0
C2133 C 0.40154 0.52832 0.00339 0.0
C2134 C 0.42805 0.54905 0.00333 0.0
C2135 C 0.4 0.50332 0.00354 0.0
C2136 C 0.38763 0.53081 0.97941 0.0
C2137 C 0.37016 0.53618 0.98839 0.0
C2138 C 0.35299 0.53597 0.97001 0.0
C2139 C 0.35317 0.52922 0.94217 0.0
C2140 C 0.37013 0.52245 0.93339 0.0
C2141 C 0.38805 0.52424 0.95188 0.0
H2142 H 0.86663 0.38114 0.04352 0.0
H2143 H 0.81085 0.31117 0.07328 0.0
H2144 H 0.78994 0.30307 0.0281 0.0
H2145 H 0.82616 0.39139 0.98908 0.0
H2146 H 0.85146 0.40465 0.96535 0.0
H2147 H 0.85662 0.40916 0.0023 0.0
H2148 H 0.88609 0.39227 0.9996 0.0
H2149 H 0.8809 0.38754 0.96298 0.0
H2150 H 0.87552 0.36247 0.98517 0.0
H2151 H 0.78342 0.29661 0.97824 0.0
H2152 H 0.79106 0.2932 0.92861 0.0
H2153 H 0.85002 0.36745 0.92885 0.0
C2154 C 0.84915 0.3649 0.04094 0.0
C2155 C 0.83983 0.34706 0.06193 0.0
C2156 C 0.81773 0.32532 0.05761 0.0
C2157 C 0.80579 0.32059 0.03196 0.0
C2158 C 0.81626 0.3378 0.0108 0.0
C2159 C 0.83727 0.35983 0.01515 0.0
C2160 C 0.84751 0.37297 0.98784 0.0
C2161 C 0.84529 0.3959 0.98604 0.0
C2162 C 0.87404 0.37913 0.98367 0.0
C2163 C 0.8305 0.35389 0.96739 0.0
C2164 C 0.81211 0.33406 0.98109 0.0
C2165 C 0.79699 0.31239 0.96715 0.0
C2166 C 0.80139 0.31056 0.93895 0.0
C2167 C 0.82051 0.33036 0.92492 0.0
C2168 C 0.8345 0.35257 0.93895 0.0
H2169 H 0.48268 0.86172 0.08709 0.0
H2170 H 0.48741 0.79629 0.08363 0.0
H2171 H 0.47378 0.79017 0.03465 0.0
H2172 H 0.43305 0.8451 0.03116 0.0
H2173 H 0.4492 0.87576 0.01809 0.0
H2174 H 0.44989 0.87002 0.05472 0.0
H2175 H 0.49683 0.89336 0.05331 0.0
H2176 H 0.49636 0.89891 0.01688 0.0
H2177 H 0.51223 0.88388 0.02926 0.0
H2178 H 0.46892 0.79605 0.9842 0.0
H2179 H 0.47737 0.81511 0.93758 0.0
H2180 H 0.48034 0.87902 0.9731 0.0
C2181 C 0.47926 0.84529 0.07647 0.0
C2182 C 0.48515 0.82895 0.08926 0.0
C2183 C 0.48218 0.80852 0.07433 0.0
C2184 C 0.47446 0.80496 0.0465 0.0
C2185 C 0.47019 0.82223 0.03381 0.0
C2186 C 0.47248 0.84206 0.04842 0.0
C2187 C 0.47254 0.86085 0.029 0.0
C2188 C 0.44981 0.86305 0.03351 0.0
C2189 C 0.49587 0.88568 0.03231 0.0
C2190 C 0.47164 0.84936 0.00115 0.0
C2191 C 0.46916 0.8266 0.00429 0.0
C2192 C 0.47027 0.81357 0.98148 0.0
C2193 C 0.47499 0.82446 0.95505 0.0
C2194 C 0.47923 0.84836 0.95193 0.0
C2195 C 0.47671 0.86053 0.97505 0.0
H2196 H 0.62988 0.51491 0.05064 0.0
H2197 H 0.67066 0.48041 0.07569 0.0
H2198 H 0.66943 0.46648 0.02724 0.0
H2199 H 0.5926 0.46892 0.99295 0.0
H2200 H 0.59417 0.49314 0.97192 0.0
H2201 H 0.5928 0.49452 0.00929 0.0
H2202 H 0.6321 0.53652 0.00885 0.0
H2203 H 0.63362 0.5352 0.97175 0.0
H2204 H 0.65902 0.53951 0.99262 0.0
H2205 H 0.67354 0.4668 0.97528 0.0
H2206 H 0.68018 0.47902 0.92567 0.0
H2207 H 0.63379 0.51017 0.93446 0.0
C2208 C 0.63743 0.50335 0.04604 0.0
C2209 C 0.64998 0.49828 0.06665 0.0
C2210 C 0.66046 0.48388 0.06012 0.0
C2211 C 0.65986 0.47598 0.03267 0.0
C2212 C 0.64819 0.48219 0.01234 0.0
C2213 C 0.63659 0.49505 0.01893 0.0
C2214 C 0.6281 0.50225 0.99311 0.0
C2215 C 0.60026 0.4889 0.99174 0.0
C2216 C 0.63888 0.52999 0.9915 0.0
C2217 C 0.63842 0.4932 0.97084 0.0
C2218 C 0.64959 0.48127 0.98222 0.0
C2219 C 0.66393 0.47508 0.96601 0.0
C2220 C 0.66756 0.48196 0.93784 0.0
C2221 C 0.65665 0.49458 0.92625 0.0
C2222 C 0.64127 0.49944 0.94268 0.0
H2223 H 0.11165 0.61761 0.95597 0.0
H2224 H 0.18859 0.66127 0.94011 0.0
H2225 H 0.19693 0.65921 0.99018 0.0
H2226 H 0.11039 0.64648 0.01164 0.0
H2227 H 0.08762 0.62082 0.03083 0.0
H2228 H 0.08839 0.61949 0.99369 0.0
H2229 H 0.09163 0.58052 0.99679 0.0
H2230 H 0.0908 0.58171 0.03421 0.0
H2231 H 0.11547 0.58062 0.01717 0.0
H2232 H 0.19592 0.66048 0.04253 0.0
H2233 H 0.18566 0.66613 0.09068 0.0
H2234 H 0.10935 0.62183 0.07178 0.0
C2235 C 0.13027 0.62571 0.96292 0.0
C2236 C 0.14954 0.63919 0.94446 0.0
C2237 C 0.1737 0.65039 0.95408 0.0
C2238 C 0.17852 0.64925 0.98243 0.0
C2239 C 0.15894 0.6366 0.00055 0.0
C2240 C 0.13525 0.62471 0.99097 0.0
C2241 C 0.11719 0.6159 0.01462 0.0
C2242 C 0.09993 0.62632 0.01256 0.0
C2243 C 0.10294 0.58803 0.01576 0.0
C2244 C 0.13429 0.62631 0.03902 0.0
C2245 C 0.15834 0.63749 0.03074 0.0
C2246 C 0.17721 0.65111 0.04936 0.0
C2247 C 0.1713 0.65416 0.07668 0.0
C2248 C 0.14678 0.64391 0.08473 0.0
C2249 C 0.12821 0.62915 0.06608 0.0
H2250 H 0.89453 0.49752 0.43074 0.0
H2251 H 0.82191 0.47858 0.40586 0.0
H2252 H 0.80721 0.4642 0.45374 0.0
H2253 H 0.87629 0.44779 0.48687 0.0
H2254 H 0.90134 0.46879 0.50818 0.0
H2255 H 0.90412 0.47035 0.47082 0.0
H2256 H 0.91597 0.51566 0.47251 0.0
H2257 H 0.91296 0.51422 0.50957 0.0
H2258 H 0.89576 0.52406 0.489 0.0
H2259 H 0.8032 0.46215 0.50651 0.0
H2260 H 0.81036 0.47179 0.55692 0.0
H2261 H 0.88549 0.49152 0.54639 0.0
C2262 C 0.87529 0.48904 0.43511 0.0
C2263 C 0.8592 0.4886 0.41474 0.0
C2264 C 0.83431 0.47833 0.42112 0.0
C2265 C 0.82589 0.47026 0.44831 0.0
C2266 C 0.84257 0.4722 0.46855 0.0
C2267 C 0.86672 0.48085 0.46195 0.0
C2268 C 0.88188 0.48474 0.48768 0.0
C2269 C 0.89146 0.46684 0.48843 0.0
C2270 C 0.90283 0.51123 0.4898 0.0
C2271 C 0.863 0.47882 0.50996 0.0
C2272 C 0.84024 0.47097 0.49876 0.0
C2273 C 0.82075 0.4675 0.51551 0.0
C2274 C 0.82489 0.47293 0.54411 0.0
C2275 C 0.84837 0.48203 0.55533 0.0
C2276 C 0.86727 0.4841 0.53823 0.0
H2277 H 0.38508 0.86833 0.44326 0.0
H2278 H 0.33067 0.7938 0.42584 0.0
H2279 H 0.32814 0.78428 0.4761 0.0
H2280 H 0.4133 0.85622 0.50634 0.0
H2281 H 0.417 0.88325 0.52298 0.0
H2282 H 0.41912 0.88224 0.48567 0.0
H2283 H 0.38592 0.89412 0.48067 0.0
H2284 H 0.38322 0.89476 0.51771 0.0
H2285 H 0.35682 0.87563 0.49703 0.0
H2286 H 0.32604 0.78522 0.52911 0.0
H2287 H 0.32431 0.79683 0.57809 0.0
H2288 H 0.37866 0.87103 0.55929 0.0
C2289 C 0.37321 0.8498 0.44989 0.0
C2290 C 0.35806 0.83182 0.43072 0.0
C2291 C 0.34266 0.8078 0.44018 0.0
C2292 C 0.3411 0.80226 0.46871 0.0
C2293 C 0.35532 0.82086 0.48733 0.0
C2294 C 0.37136 0.84411 0.47811 0.0
C2295 C 0.3821 0.8618 0.50196 0.0
C2296 C 0.40951 0.87144 0.50438 0.0
C2297 C 0.37666 0.88277 0.49916 0.0
C2298 C 0.36852 0.84528 0.52599 0.0
C2299 C 0.35367 0.82156 0.51746 0.0
C2300 C 0.33798 0.80363 0.53605 0.0
C2301 C 0.33709 0.81031 0.56377 0.0
C2302 C 0.35135 0.83476 0.57218 0.0
C2303 C 0.36764 0.85217 0.55325 0.0
H2304 H 0.49734 0.38026 0.44165 0.0
H2305 H 0.52466 0.3336 0.41456 0.0
H2306 H 0.54604 0.33993 0.45963 0.0
H2307 H 0.55219 0.42264 0.4867 0.0
H2308 H 0.53239 0.42502 0.51173 0.0
H2309 H 0.52467 0.42155 0.4753 0.0
H2310 H 0.48304 0.38389 0.4868 0.0
H2311 H 0.49069 0.3871 0.52301 0.0
H2312 H 0.48214 0.35888 0.50554 0.0
H2313 H 0.55604 0.34391 0.51099 0.0
H2314 H 0.55489 0.34638 0.56233 0.0
H2315 H 0.52269 0.3922 0.55446 0.0
C2316 C 0.50881 0.37237 0.44486 0.0
C2317 C 0.50988 0.35686 0.42485 0.0
C2318 C 0.52425 0.34602 0.42966 0.0
C2319 C 0.53637 0.34951 0.45515 0.0
C2320 C 0.5342 0.36425 0.47515 0.0
C2321 C 0.52117 0.37596 0.46994 0.0
C2322 C 0.51893 0.3883 0.49566 0.0
C2323 C 0.53289 0.41603 0.49213 0.0
C2324 C 0.49212 0.37896 0.50318 0.0
C2325 C 0.53115 0.38029 0.51666 0.0
C2326 C 0.54031 0.36683 0.50452 0.0
C2327 C 0.54959 0.35502 0.5206 0.0
C2328 C 0.54886 0.35648 0.54974 0.0
C2329 C 0.53866 0.36944 0.56235 0.0
C2330 C 0.53067 0.38222 0.54545 0.0
H2331 H 0.15319 0.45618 0.44426 0.0
H2332 H 0.13569 0.51261 0.42764 0.0
H2333 H 0.1431 0.52491 0.47729 0.0
H2334 H 0.12263 0.43648 0.50412 0.0
H2335 H 0.14387 0.42998 0.52146 0.0
H2336 H 0.1424 0.42951 0.48423 0.0
H2337 H 0.18832 0.46113 0.48163 0.0
H2338 H 0.18997 0.46164 0.51906 0.0
H2339 H 0.20003 0.48948 0.50003 0.0
H2340 H 0.14495 0.52542 0.53055 0.0
H2341 H 0.14115 0.51412 0.58048 0.0
H2342 H 0.15827 0.45794 0.56058 0.0
C2343 C 0.15165 0.47163 0.4509 0.0
C2344 C 0.14394 0.48351 0.43229 0.0
C2345 C 0.1419 0.5035 0.44163 0.0
C2346 C 0.14606 0.51056 0.46977 0.0
C2347 C 0.15275 0.49775 0.48794 0.0
C2348 C 0.15592 0.47894 0.47862 0.0
C2349 C 0.16049 0.46615 0.50229 0.0
C2350 C 0.1412 0.43895 0.50306 0.0
C2351 C 0.18624 0.46983 0.50065 0.0
C2352 C 0.15798 0.47967 0.52665 0.0
C2353 C 0.15402 0.4982 0.51818 0.0
C2354 C 0.14866 0.51137 0.53736 0.0
C2355 C 0.1466 0.50492 0.56568 0.0
C2356 C 0.14955 0.48526 0.57427 0.0
C2357 C 0.15615 0.4732 0.55458 0.0
H2358 H 0.676 0.14464 0.42089 0.0
H2359 H 0.61509 0.15671 0.41244 0.0
H2360 H 0.61413 0.16086 0.4638 0.0
H2361 H 0.65625 0.10814 0.47759 0.0
H2362 H 0.68554 0.11985 0.49378 0.0
H2363 H 0.68344 0.1217 0.45674 0.0
H2364 H 0.7123 0.16831 0.45863 0.0
H2365 H 0.71463 0.16659 0.49582 0.0
H2366 H 0.70509 0.18654 0.48105 0.0
H2367 H 0.61634 0.15684 0.51692 0.0
H2368 H 0.62255 0.147 0.56512 0.0
H2369 H 0.68336 0.13985 0.53667 0.0
C2370 C 0.66281 0.14872 0.42983 0.0
C2371 C 0.64558 0.15031 0.41301 0.0
C2372 C 0.62856 0.15565 0.4252 0.0
C2373 C 0.62791 0.158 0.45427 0.0
C2374 C 0.64482 0.15557 0.47048 0.0
C2375 C 0.66225 0.15153 0.45847 0.0
C2376 C 0.67739 0.14792 0.48001 0.0
C2377 C 0.67551 0.12292 0.47684 0.0
C2378 C 0.70392 0.16858 0.4788 0.0
C2379 C 0.66506 0.14931 0.50614 0.0
C2380 C 0.64647 0.15398 0.5005 0.0
C2381 C 0.63121 0.15373 0.52156 0.0
C2382 C 0.63485 0.14813 0.54887 0.0
C2383 C 0.65347 0.14273 0.55464 0.0
C2384 C 0.66905 0.14405 0.53304 0.0
H2385 H 0.54488 0.71314 0.56444 0.0
H2386 H 0.47887 0.64897 0.59081 0.0
H2387 H 0.4651 0.6406 0.54189 0.0
H2388 H 0.51837 0.72863 0.50174 0.0
H2389 H 0.54592 0.73786 0.48244 0.0
H2390 H 0.54712 0.74225 0.51957 0.0
H2391 H 0.56994 0.71823 0.52476 0.0
H2392 H 0.56862 0.71357 0.48792 0.0
H2393 H 0.55641 0.68783 0.51106 0.0
H2394 H 0.46286 0.63471 0.48936 0.0
H2395 H 0.4728 0.632 0.44003 0.0
H2396 H 0.54064 0.6995 0.4491 0.0
C2397 C 0.52706 0.69786 0.56009 0.0
C2398 C 0.51295 0.68175 0.58142 0.0
C2399 C 0.48991 0.66173 0.57483 0.0
C2400 C 0.48194 0.65684 0.54705 0.0
C2401 C 0.49705 0.67236 0.52623 0.0
C2402 C 0.519 0.69273 0.5326 0.0
C2403 C 0.53366 0.70464 0.50674 0.0
C2404 C 0.53642 0.72984 0.50237 0.0
C2405 C 0.5586 0.70612 0.50769 0.0
C2406 C 0.51735 0.68696 0.48489 0.0
C2407 C 0.49595 0.6688 0.49623 0.0
C2408 C 0.47928 0.64917 0.48019 0.0
C2409 C 0.485 0.64777 0.4522 0.0
C2410 C 0.50741 0.66562 0.4409 0.0
C2411 C 0.52327 0.68575 0.45724 0.0
loop_
_geom_bond_atom_site_label_1
_geom_bond_atom_site_label_2
_geom_bond_distance
_geom_bond_site_symmetry_2
_ccdc_geom_bond_type
C0 C1 1.351 . S
C0 N3 1.368 . S
C0 H5 0.931 . S
C1 C0 1.351 . S
C1 N2 1.373 . S
C1 H29 0.930 . S
N2 C1 1.373 . S
N2 C4 1.340 . S
N3 C0 1.368 . S
N3 C4 1.321 . S
N3 Co6 2.135 . S
C4 N2 1.340 . S
C4 N3 1.321 . S
C4 H28 0.930 . S
H5 C0 0.931 . S
Co6 N3 2.135 . S
Co6 N9 2.121 . S
Co6 O14 2.055 . S
Co6 O17 2.039 . S
Co6 N20 2.140 . S
C7 O8 1.227 . S
C7 O17 1.265 . S
O8 C7 1.227 . S
N9 Co6 2.121 . S
N9 C11 1.375 . S
N9 C12 1.313 . S
C10 C11 1.338 . S
C10 N13 1.377 . S
C10 H30 0.930 . S
C11 N9 1.375 . S
C11 C10 1.338 . S
C11 H15 0.931 . S
C12 N9 1.313 . S
C12 N13 1.344 . S
C12 H16 0.930 . S
N13 C10 1.377 . S
N13 C12 1.344 . S
O14 Co6 2.055 . S
O14 C18 1.253 . S
H15 C11 0.931 . S
H16 C12 0.930 . S
O17 Co6 2.039 . S
O17 C7 1.265 . S
C18 O14 1.253 . S
C18 O19 1.227 . S
O19 C18 1.227 . S
N20 Co6 2.140 . S
N20 C23 1.346 . S
N20 C24 1.345 . S
C21 C22 1.387 . S
C21 C25 1.391 . S
C22 C21 1.387 . S
C22 C23 1.369 . S
C22 H31 0.929 . S
C23 N20 1.346 . S
C23 C22 1.369 . S
C23 H26 0.928 . S
C24 N20 1.345 . S
C24 C25 1.371 . S
C24 H27 0.931 . S
C25 C21 1.391 . S
C25 C24 1.371 . S
C25 H32 0.930 . S
H26 C23 0.928 . S
H27 C24 0.931 . S
H28 C4 0.930 . S
H29 C1 0.930 . S
H30 C10 0.930 . S
H31 C22 0.929 . S
H32 C25 0.930 . S
C33 C34 1.351 . S
C33 N36 1.368 . S
C33 H38 0.931 . S
C34 C33 1.351 . S
C34 N35 1.373 . S
C34 H62 0.930 . S
N35 C34 1.373 . S
N35 C37 1.340 . S
N36 C33 1.368 . S
N36 C37 1.321 . S
N36 Co39 2.135 . S
C37 N35 1.340 . S
C37 N36 1.321 . S
C37 H61 0.930 . S
H38 C33 0.931 . S
Co39 N36 2.135 . S
Co39 N42 2.121 . S
Co39 O47 2.055 . S
Co39 O50 2.039 . S
Co39 N53 2.140 . S
C40 O41 1.227 . S
C40 O50 1.265 . S
O41 C40 1.227 . S
N42 Co39 2.121 . S
N42 C44 1.375 . S
N42 C45 1.313 . S
C43 C44 1.338 . S
C43 N46 1.377 . S
C43 H63 0.930 . S
C44 N42 1.375 . S
C44 C43 1.338 . S
C44 H48 0.931 . S
C45 N42 1.313 . S
C45 N46 1.344 . S
C45 H49 0.930 . S
N46 C43 1.377 . S
N46 C45 1.344 . S
O47 Co39 2.055 . S
O47 C51 1.253 . S
H48 C44 0.931 . S
H49 C45 0.930 . S
O50 Co39 2.039 . S
O50 C40 1.265 . S
C51 O47 1.253 . S
C51 O52 1.227 . S
O52 C51 1.227 . S
N53 Co39 2.140 . S
N53 C56 1.346 . S
N53 C57 1.345 . S
C54 C55 1.387 . S
C54 C58 1.391 . S
C55 C54 1.387 . S
C55 C56 1.369 . S
C55 H64 0.929 . S
C56 N53 1.346 . S
C56 C55 1.369 . S
C56 H59 0.928 . S
C57 N53 1.345 . S
C57 C58 1.371 . S
C57 H60 0.931 . S
C58 C54 1.391 . S
C58 C57 1.371 . S
C58 H65 0.930 . S
H59 C56 0.928 . S
H60 C57 0.931 . S
H61 C37 0.930 . S
H62 C34 0.930 . S
H63 C43 0.930 . S
H64 C55 0.929 . S
H65 C58 0.930 . S
C66 C67 1.351 . S
C66 N69 1.368 . S
C66 H71 0.931 . S
C67 C66 1.351 . S
C67 N68 1.373 . S
C67 H95 0.930 . S
N68 C67 1.373 . S
N68 C70 1.340 . S
N69 C66 1.368 . S
N69 C70 1.321 . S
N69 Co72 2.135 . S
C70 N68 1.340 . S
C70 N69 1.321 . S
C70 H94 0.930 . S
H71 C66 0.931 . S
Co72 N69 2.135 . S
Co72 N75 2.121 . S
Co72 O80 2.055 . S
Co72 O83 2.039 . S
Co72 N86 2.140 . S
C73 O74 1.227 . S
C73 O83 1.265 . S
O74 C73 1.227 . S
N75 Co72 2.121 . S
N75 C77 1.375 . S
N75 C78 1.313 . S
C76 C77 1.338 . S
C76 N79 1.377 . S
C76 H96 0.930 . S
C77 N75 1.375 . S
C77 C76 1.338 . S
C77 H81 0.931 . S
C78 N75 1.313 . S
C78 N79 1.344 . S
C78 H82 0.930 . S
N79 C76 1.377 . S
N79 C78 1.344 . S
O80 Co72 2.055 . S
O80 C84 1.253 . S
H81 C77 0.931 . S
H82 C78 0.930 . S
O83 Co72 2.039 . S
O83 C73 1.265 . S
C84 O80 1.253 . S
C84 O85 1.227 . S
O85 C84 1.227 . S
N86 Co72 2.140 . S
N86 C89 1.346 . S
N86 C90 1.345 . S
C87 C88 1.387 . S
C87 C91 1.391 . S
C88 C87 1.387 . S
C88 C89 1.369 . S
C88 H97 0.929 . S
C89 N86 1.346 . S
C89 C88 1.369 . S
C89 H92 0.928 . S
C90 N86 1.345 . S
C90 C91 1.371 . S
C90 H93 0.931 . S
C91 C87 1.391 . S
C91 C90 1.371 . S
C91 H98 0.930 . S
H92 C89 0.928 . S
H93 C90 0.931 . S
H94 C70 0.930 . S
H95 C67 0.930 . S
H96 C76 0.930 . S
H97 C88 0.929 . S
H98 C91 0.930 . S
C99 C100 1.351 . S
C99 N102 1.368 . S
C99 H104 0.931 . S
C100 C99 1.351 . S
C100 N101 1.373 . S
C100 H128 0.930 . S
N101 C100 1.373 . S
N101 C103 1.340 . S
N102 C99 1.368 . S
N102 C103 1.321 . S
N102 Co105 2.135 . S
C103 N101 1.340 . S
C103 N102 1.321 . S
C103 H127 0.930 . S
H104 C99 0.931 . S
Co105 N102 2.135 . S
Co105 N108 2.121 . S
Co105 O113 2.055 . S
Co105 O116 2.039 . S
Co105 N119 2.140 . S
C106 O107 1.227 . S
C106 O116 1.265 . S
O107 C106 1.227 . S
N108 Co105 2.121 . S
N108 C110 1.375 . S
N108 C111 1.313 . S
C109 C110 1.338 . S
C109 N112 1.377 . S
C109 H129 0.930 . S
C110 N108 1.375 . S
C110 C109 1.338 . S
C110 H114 0.931 . S
C111 N108 1.313 . S
C111 N112 1.344 . S
C111 H115 0.930 . S
N112 C109 1.377 . S
N112 C111 1.344 . S
O113 Co105 2.055 . S
O113 C117 1.253 . S
H114 C110 0.931 . S
H115 C111 0.930 . S
O116 Co105 2.039 . S
O116 C106 1.265 . S
C117 O113 1.253 . S
C117 O118 1.227 . S
O118 C117 1.227 . S
N119 Co105 2.140 . S
N119 C122 1.346 . S
N119 C123 1.345 . S
C120 C121 1.387 . S
C120 C124 1.391 . S
C121 C120 1.387 . S
C121 C122 1.369 . S
C121 H130 0.929 . S
C122 N119 1.346 . S
C122 C121 1.369 . S
C122 H125 0.928 . S
C123 N119 1.345 . S
C123 C124 1.371 . S
C123 H126 0.931 . S
C124 C120 1.391 . S
C124 C123 1.371 . S
C124 H131 0.930 . S
H125 C122 0.928 . S
H126 C123 0.931 . S
H127 C103 0.930 . S
H128 C100 0.930 . S
H129 C109 0.930 . S
H130 C121 0.929 . S
H131 C124 0.930 . S
C132 C133 1.351 . S
C132 N135 1.368 . S
C132 H137 0.931 . S
C133 C132 1.351 . S
C133 N134 1.373 . S
C133 H161 0.930 . S
N134 C133 1.373 . S
N134 C136 1.340 . S
N135 C132 1.368 . S
N135 C136 1.321 . S
N135 Co138 2.135 . S
C136 N134 1.340 . S
C136 N135 1.321 . S
C136 H160 0.930 . S
H137 C132 0.931 . S
Co138 N135 2.135 . S
Co138 N141 2.121 . S
Co138 O146 2.055 . S
Co138 O149 2.039 . S
Co138 N152 2.140 . S
C139 O140 1.227 . S
C139 O149 1.265 . S
O140 C139 1.227 . S
N141 Co138 2.121 . S
N141 C143 1.375 . S
N141 C144 1.313 . S
C142 C143 1.338 . S
C142 N145 1.377 . S
C142 H162 0.930 . S
C143 N141 1.375 . S
C143 C142 1.338 . S
C143 H147 0.931 . S
C144 N141 1.313 . S
C144 N145 1.344 . S
C144 H148 0.930 . S
N145 C142 1.377 . S
N145 C144 1.344 . S
O146 Co138 2.055 . S
O146 C150 1.253 . S
H147 C143 0.931 . S
H148 C144 0.930 . S
O149 Co138 2.039 . S
O149 C139 1.265 . S
C150 O146 1.253 . S
C150 O151 1.227 . S
O151 C150 1.227 . S
N152 Co138 2.140 . S
N152 C155 1.346 . S
N152 C156 1.345 . S
C153 C154 1.387 . S
C153 C157 1.391 . S
C154 C153 1.387 . S
C154 C155 1.369 . S
C154 H163 0.929 . S
C155 N152 1.346 . S
C155 C154 1.369 . S
C155 H158 0.928 . S
C156 N152 1.345 . S
C156 C157 1.371 . S
C156 H159 0.931 . S
C157 C153 1.391 . S
C157 C156 1.371 . S
C157 H164 0.930 . S
H158 C155 0.928 . S
H159 C156 0.931 . S
H160 C136 0.930 . S
H161 C133 0.930 . S
H162 C142 0.930 . S
H163 C154 0.929 . S
H164 C157 0.930 . S
C165 C166 1.351 . S
C165 N168 1.368 . S
C165 H170 0.931 . S
C166 C165 1.351 . S
C166 N167 1.373 . S
C166 H194 0.930 . S
N167 C166 1.373 . S
N167 C169 1.340 . S
N168 C165 1.368 . S
N168 C169 1.321 . S
N168 Co171 2.135 . S
C169 N167 1.340 . S
C169 N168 1.321 . S
C169 H193 0.930 . S
H170 C165 0.931 . S
Co171 N168 2.135 . S
Co171 N174 2.121 . S
Co171 O179 2.055 . S
Co171 O182 2.039 . S
Co171 N185 2.140 . S
C172 O173 1.227 . S
C172 O182 1.265 . S
O173 C172 1.227 . S
N174 Co171 2.121 . S
N174 C176 1.375 . S
N174 C177 1.313 . S
C175 C176 1.338 . S
C175 N178 1.377 . S
C175 H195 0.930 . S
C176 N174 1.375 . S
C176 C175 1.338 . S
C176 H180 0.931 . S
C177 N174 1.313 . S
C177 N178 1.344 . S
C177 H181 0.930 . S
N178 C175 1.377 . S
N178 C177 1.344 . S
O179 Co171 2.055 . S
O179 C183 1.253 . S
H180 C176 0.931 . S
H181 C177 0.930 . S
O182 Co171 2.039 . S
O182 C172 1.265 . S
C183 O179 1.253 . S
C183 O184 1.227 . S
O184 C183 1.227 . S
N185 Co171 2.140 . S
N185 C188 1.346 . S
N185 C189 1.345 . S
C186 C187 1.387 . S
C186 C190 1.391 . S
C187 C186 1.387 . S
C187 C188 1.369 . S
C187 H196 0.929 . S
C188 N185 1.346 . S
C188 C187 1.369 . S
C188 H191 0.928 . S
C189 N185 1.345 . S
C189 C190 1.371 . S
C189 H192 0.931 . S
C190 C186 1.391 . S
C190 C189 1.371 . S
C190 H197 0.930 . S
H191 C188 0.928 . S
H192 C189 0.931 . S
H193 C169 0.930 . S
H194 C166 0.930 . S
H195 C175 0.930 . S
H196 C187 0.929 . S
H197 C190 0.930 . S
C198 C199 1.351 . S
C198 N201 1.368 . S
C198 H203 0.931 . S
C199 C198 1.351 . S
C199 N200 1.373 . S
C199 H227 0.930 . S
N200 C199 1.373 . S
N200 C202 1.340 . S
N201 C198 1.368 . S
N201 C202 1.321 . S
N201 Co204 2.135 . S
C202 N200 1.340 . S
C202 N201 1.321 . S
C202 H226 0.930 . S
H203 C198 0.931 . S
Co204 N201 2.135 . S
Co204 N207 2.121 . S
Co204 O212 2.055 . S
Co204 O215 2.039 . S
Co204 N218 2.140 . S
C205 O206 1.227 . S
C205 O215 1.265 . S
O206 C205 1.227 . S
N207 Co204 2.121 . S
N207 C209 1.375 . S
N207 C210 1.313 . S
C208 C209 1.338 . S
C208 N211 1.377 . S
C208 H228 0.930 . S
C209 N207 1.375 . S
C209 C208 1.338 . S
C209 H213 0.931 . S
C210 N207 1.313 . S
C210 N211 1.344 . S
C210 H214 0.930 . S
N211 C208 1.377 . S
N211 C210 1.344 . S
O212 Co204 2.055 . S
O212 C216 1.253 . S
H213 C209 0.931 . S
H214 C210 0.930 . S
O215 Co204 2.039 . S
O215 C205 1.265 . S
C216 O212 1.253 . S
C216 O217 1.227 . S
O217 C216 1.227 . S
N218 Co204 2.140 . S
N218 C221 1.346 . S
N218 C222 1.345 . S
C219 C220 1.387 . S
C219 C223 1.391 . S
C220 C219 1.387 . S
C220 C221 1.369 . S
C220 H229 0.929 . S
C221 N218 1.346 . S
C221 C220 1.369 . S
C221 H224 0.928 . S
C222 N218 1.345 . S
C222 C223 1.371 . S
C222 H225 0.931 . S
C223 C219 1.391 . S
C223 C222 1.371 . S
C223 H230 0.930 . S
H224 C221 0.928 . S
H225 C222 0.931 . S
H226 C202 0.930 . S
H227 C199 0.930 . S
H228 C208 0.930 . S
H229 C220 0.929 . S
H230 C223 0.930 . S
C231 C232 1.351 . S
C231 N234 1.368 . S
C231 H236 0.931 . S
C232 C231 1.351 . S
C232 N233 1.373 . S
C232 H260 0.930 . S
N233 C232 1.373 . S
N233 C235 1.340 . S
N234 C231 1.368 . S
N234 C235 1.321 . S
N234 Co237 2.135 . S
C235 N233 1.340 . S
C235 N234 1.321 . S
C235 H259 0.930 . S
H236 C231 0.931 . S
Co237 N234 2.135 . S
Co237 N240 2.121 . S
Co237 O245 2.055 . S
Co237 O248 2.039 . S
Co237 N251 2.140 . S
C238 O239 1.227 . S
C238 O248 1.265 . S
O239 C238 1.227 . S
N240 Co237 2.121 . S
N240 C242 1.375 . S
N240 C243 1.313 . S
C241 C242 1.338 . S
C241 N244 1.377 . S
C241 H261 0.930 . S
C242 N240 1.375 . S
C242 C241 1.338 . S
C242 H246 0.931 . S
C243 N240 1.313 . S
C243 N244 1.344 . S
C243 H247 0.930 . S
N244 C241 1.377 . S
N244 C243 1.344 . S
O245 Co237 2.055 . S
O245 C249 1.253 . S
H246 C242 0.931 . S
H247 C243 0.930 . S
O248 Co237 2.039 . S
O248 C238 1.265 . S
C249 O245 1.253 . S
C249 O250 1.227 . S
O250 C249 1.227 . S
N251 Co237 2.140 . S
N251 C254 1.346 . S
N251 C255 1.345 . S
C252 C253 1.387 . S
C252 C256 1.391 . S
C253 C252 1.387 . S
C253 C254 1.369 . S
C253 H262 0.929 . S
C254 N251 1.346 . S
C254 C253 1.369 . S
C254 H257 0.928 . S
C255 N251 1.345 . S
C255 C256 1.371 . S
C255 H258 0.931 . S
C256 C252 1.391 . S
C256 C255 1.371 . S
C256 H263 0.930 . S
H257 C254 0.928 . S
H258 C255 0.931 . S
H259 C235 0.930 . S
H260 C232 0.930 . S
H261 C241 0.930 . S
H262 C253 0.929 . S
H263 C256 0.930 . S
C264 C265 1.351 . S
C264 N267 1.368 . S
C264 H269 0.931 . S
C265 C264 1.351 . S
C265 N266 1.373 . S
C265 H293 0.930 . S
N266 C265 1.373 . S
N266 C268 1.340 . S
N267 C264 1.368 . S
N267 C268 1.321 . S
N267 Co270 2.135 . S
C268 N266 1.340 . S
C268 N267 1.321 . S
C268 H292 0.930 . S
H269 C264 0.931 . S
Co270 N267 2.135 . S
Co270 N273 2.121 . S
Co270 O278 2.055 . S
Co270 O281 2.039 . S
Co270 N284 2.140 . S
C271 O272 1.227 . S
C271 O281 1.265 . S
O272 C271 1.227 . S
N273 Co270 2.121 . S
N273 C275 1.375 . S
N273 C276 1.313 . S
C274 C275 1.338 . S
C274 N277 1.377 . S
C274 H294 0.930 . S
C275 N273 1.375 . S
C275 C274 1.338 . S
C275 H279 0.931 . S
C276 N273 1.313 . S
C276 N277 1.344 . S
C276 H280 0.930 . S
N277 C274 1.377 . S
N277 C276 1.344 . S
O278 Co270 2.055 . S
O278 C282 1.253 . S
H279 C275 0.931 . S
H280 C276 0.930 . S
O281 Co270 2.039 . S
O281 C271 1.265 . S
C282 O278 1.253 . S
C282 O283 1.227 . S
O283 C282 1.227 . S
N284 Co270 2.140 . S
N284 C287 1.346 . S
N284 C288 1.345 . S
C285 C286 1.387 . S
C285 C289 1.391 . S
C286 C285 1.387 . S
C286 C287 1.369 . S
C286 H295 0.929 . S
C287 N284 1.346 . S
C287 C286 1.369 . S
C287 H290 0.928 . S
C288 N284 1.345 . S
C288 C289 1.371 . S
C288 H291 0.931 . S
C289 C285 1.391 . S
C289 C288 1.371 . S
C289 H296 0.930 . S
H290 C287 0.928 . S
H291 C288 0.931 . S
H292 C268 0.930 . S
H293 C265 0.930 . S
H294 C274 0.930 . S
H295 C286 0.929 . S
H296 C289 0.930 . S
C297 C298 1.351 . S
C297 N300 1.368 . S
C297 H302 0.931 . S
C298 C297 1.351 . S
C298 N299 1.373 . S
C298 H326 0.930 . S
N299 C298 1.373 . S
N299 C301 1.340 . S
N300 C297 1.368 . S
N300 C301 1.321 . S
N300 Co303 2.135 . S
C301 N299 1.340 . S
C301 N300 1.321 . S
C301 H325 0.930 . S
H302 C297 0.931 . S
Co303 N300 2.135 . S
Co303 N306 2.121 . S
Co303 O311 2.055 . S
Co303 O314 2.039 . S
Co303 N317 2.140 . S
C304 O305 1.227 . S
C304 O314 1.265 . S
O305 C304 1.227 . S
N306 Co303 2.121 . S
N306 C308 1.375 . S
N306 C309 1.313 . S
C307 C308 1.338 . S
C307 N310 1.377 . S
C307 H327 0.930 . S
C308 N306 1.375 . S
C308 C307 1.338 . S
C308 H312 0.931 . S
C309 N306 1.313 . S
C309 N310 1.344 . S
C309 H313 0.930 . S
N310 C307 1.377 . S
N310 C309 1.344 . S
O311 Co303 2.055 . S
O311 C315 1.253 . S
H312 C308 0.931 . S
H313 C309 0.930 . S
O314 Co303 2.039 . S
O314 C304 1.265 . S
C315 O311 1.253 . S
C315 O316 1.227 . S
O316 C315 1.227 . S
N317 Co303 2.140 . S
N317 C320 1.346 . S
N317 C321 1.345 . S
C318 C319 1.387 . S
C318 C322 1.391 . S
C319 C318 1.387 . S
C319 C320 1.369 . S
C319 H328 0.929 . S
C320 N317 1.346 . S
C320 C319 1.369 . S
C320 H323 0.928 . S
C321 N317 1.345 . S
C321 C322 1.371 . S
C321 H324 0.931 . S
C322 C318 1.391 . S
C322 C321 1.371 . S
C322 H329 0.930 . S
H323 C320 0.928 . S
H324 C321 0.931 . S
H325 C301 0.930 . S
H326 C298 0.930 . S
H327 C307 0.930 . S
H328 C319 0.929 . S
H329 C322 0.930 . S
C330 C331 1.351 . S
C330 N333 1.368 . S
C330 H335 0.931 . S
C331 C330 1.351 . S
C331 N332 1.373 . S
C331 H359 0.930 . S
N332 C331 1.373 . S
N332 C334 1.340 . S
N333 C330 1.368 . S
N333 C334 1.321 . S
N333 Co336 2.135 . S
C334 N332 1.340 . S
C334 N333 1.321 . S
C334 H358 0.930 . S
H335 C330 0.931 . S
Co336 N333 2.135 . S
Co336 N339 2.121 . S
Co336 O344 2.055 . S
Co336 O347 2.039 . S
Co336 N350 2.140 . S
C337 O338 1.227 . S
C337 O347 1.265 . S
O338 C337 1.227 . S
N339 Co336 2.121 . S
N339 C341 1.375 . S
N339 C342 1.313 . S
C340 C341 1.338 . S
C340 N343 1.377 . S
C340 H360 0.930 . S
C341 N339 1.375 . S
C341 C340 1.338 . S
C341 H345 0.931 . S
C342 N339 1.313 . S
C342 N343 1.344 . S
C342 H346 0.930 . S
N343 C340 1.377 . S
N343 C342 1.344 . S
O344 Co336 2.055 . S
O344 C348 1.253 . S
H345 C341 0.931 . S
H346 C342 0.930 . S
O347 Co336 2.039 . S
O347 C337 1.265 . S
C348 O344 1.253 . S
C348 O349 1.227 . S
O349 C348 1.227 . S
N350 Co336 2.140 . S
N350 C353 1.346 . S
N350 C354 1.345 . S
C351 C352 1.387 . S
C351 C355 1.391 . S
C352 C351 1.387 . S
C352 C353 1.369 . S
C352 H361 0.929 . S
C353 N350 1.346 . S
C353 C352 1.369 . S
C353 H356 0.928 . S
C354 N350 1.345 . S
C354 C355 1.371 . S
C354 H357 0.931 . S
C355 C351 1.391 . S
C355 C354 1.371 . S
C355 H362 0.930 . S
H356 C353 0.928 . S
H357 C354 0.931 . S
H358 C334 0.930 . S
H359 C331 0.930 . S
H360 C340 0.930 . S
H361 C352 0.929 . S
H362 C355 0.930 . S
C363 C364 1.351 . S
C363 N366 1.368 . S
C363 H368 0.931 . S
C364 C363 1.351 . S
C364 N365 1.373 . S
C364 H392 0.930 . S
N365 C364 1.373 . S
N365 C367 1.340 . S
N366 C363 1.368 . S
N366 C367 1.321 . S
N366 Co369 2.135 . S
C367 N365 1.340 . S
C367 N366 1.321 . S
C367 H391 0.930 . S
H368 C363 0.931 . S
Co369 N366 2.135 . S
Co369 N372 2.121 . S
Co369 O377 2.055 . S
Co369 O380 2.039 . S
Co369 N383 2.140 . S
C370 O371 1.227 . S
C370 O380 1.265 . S
O371 C370 1.227 . S
N372 Co369 2.121 . S
N372 C374 1.375 . S
N372 C375 1.313 . S
C373 C374 1.338 . S
C373 N376 1.377 . S
C373 H393 0.930 . S
C374 N372 1.375 . S
C374 C373 1.338 . S
C374 H378 0.931 . S
C375 N372 1.313 . S
C375 N376 1.344 . S
C375 H379 0.930 . S
N376 C373 1.377 . S
N376 C375 1.344 . S
O377 Co369 2.055 . S
O377 C381 1.253 . S
H378 C374 0.931 . S
H379 C375 0.930 . S
O380 Co369 2.039 . S
O380 C370 1.265 . S
C381 O377 1.253 . S
C381 O382 1.227 . S
O382 C381 1.227 . S
N383 Co369 2.140 . S
N383 C386 1.346 . S
N383 C387 1.345 . S
C384 C385 1.387 . S
C384 C388 1.391 . S
C385 C384 1.387 . S
C385 C386 1.369 . S
C385 H394 0.929 . S
C386 N383 1.346 . S
C386 C385 1.369 . S
C386 H389 0.928 . S
C387 N383 1.345 . S
C387 C388 1.371 . S
C387 H390 0.931 . S
C388 C384 1.391 . S
C388 C387 1.371 . S
C388 H395 0.930 . S
H389 C386 0.928 . S
H390 C387 0.931 . S
H391 C367 0.930 . S
H392 C364 0.930 . S
H393 C373 0.930 . S
H394 C385 0.929 . S
H395 C388 0.930 . S
C396 C397 1.351 . S
C396 N399 1.368 . S
C396 H401 0.931 . S
C397 C396 1.351 . S
C397 N398 1.373 . S
C397 H425 0.930 . S
N398 C397 1.373 . S
N398 C400 1.340 . S
N399 C396 1.368 . S
N399 C400 1.321 . S
N399 Co402 2.135 . S
C400 N398 1.340 . S
C400 N399 1.321 . S
C400 H424 0.930 . S
H401 C396 0.931 . S
Co402 N399 2.135 . S
Co402 N405 2.121 . S
Co402 O410 2.055 . S
Co402 O413 2.039 . S
Co402 N416 2.140 . S
C403 O404 1.227 . S
C403 O413 1.265 . S
O404 C403 1.227 . S
N405 Co402 2.121 . S
N405 C407 1.375 . S
N405 C408 1.313 . S
C406 C407 1.338 . S
C406 N409 1.377 . S
C406 H426 0.930 . S
C407 N405 1.375 . S
C407 C406 1.338 . S
C407 H411 0.931 . S
C408 N405 1.313 . S
C408 N409 1.344 . S
C408 H412 0.930 . S
N409 C406 1.377 . S
N409 C408 1.344 . S
O410 Co402 2.055 . S
O410 C414 1.253 . S
H411 C407 0.931 . S
H412 C408 0.930 . S
O413 Co402 2.039 . S
O413 C403 1.265 . S
C414 O410 1.253 . S
C414 O415 1.227 . S
O415 C414 1.227 . S
N416 Co402 2.140 . S
N416 C419 1.346 . S
N416 C420 1.345 . S
C417 C418 1.387 . S
C417 C421 1.391 . S
C418 C417 1.387 . S
C418 C419 1.369 . S
C418 H427 0.929 . S
C419 N416 1.346 . S
C419 C418 1.369 . S
C419 H422 0.928 . S
C420 N416 1.345 . S
C420 C421 1.371 . S
C420 H423 0.931 . S
C421 C417 1.391 . S
C421 C420 1.371 . S
C421 H428 0.930 . S
H422 C419 0.928 . S
H423 C420 0.931 . S
H424 C400 0.930 . S
H425 C397 0.930 . S
H426 C406 0.930 . S
H427 C418 0.929 . S
H428 C421 0.930 . S
C429 C430 1.351 . S
C429 N432 1.368 . S
C429 H434 0.931 . S
C430 C429 1.351 . S
C430 N431 1.373 . S
C430 H458 0.930 . S
N431 C430 1.373 . S
N431 C433 1.340 . S
N432 C429 1.368 . S
N432 C433 1.321 . S
N432 Co435 2.135 . S
C433 N431 1.340 . S
C433 N432 1.321 . S
C433 H457 0.930 . S
H434 C429 0.931 . S
Co435 N432 2.135 . S
Co435 N438 2.121 . S
Co435 O443 2.055 . S
Co435 O446 2.039 . S
Co435 N449 2.140 . S
C436 O437 1.227 . S
C436 O446 1.265 . S
O437 C436 1.227 . S
N438 Co435 2.121 . S
N438 C440 1.375 . S
N438 C441 1.313 . S
C439 C440 1.338 . S
C439 N442 1.377 . S
C439 H459 0.930 . S
C440 N438 1.375 . S
C440 C439 1.338 . S
C440 H444 0.931 . S
C441 N438 1.313 . S
C441 N442 1.344 . S
C441 H445 0.930 . S
N442 C439 1.377 . S
N442 C441 1.344 . S
O443 Co435 2.055 . S
O443 C447 1.253 . S
H444 C440 0.931 . S
H445 C441 0.930 . S
O446 Co435 2.039 . S
O446 C436 1.265 . S
C447 O443 1.253 . S
C447 O448 1.227 . S
O448 C447 1.227 . S
N449 Co435 2.140 . S
N449 C452 1.346 . S
N449 C453 1.345 . S
C450 C451 1.387 . S
C450 C454 1.391 . S
C451 C450 1.387 . S
C451 C452 1.369 . S
C451 H460 0.929 . S
C452 N449 1.346 . S
C452 C451 1.369 . S
C452 H455 0.928 . S
C453 N449 1.345 . S
C453 C454 1.371 . S
C453 H456 0.931 . S
C454 C450 1.391 . S
C454 C453 1.371 . S
C454 H461 0.930 . S
H455 C452 0.928 . S
H456 C453 0.931 . S
H457 C433 0.930 . S
H458 C430 0.930 . S
H459 C439 0.930 . S
H460 C451 0.929 . S
H461 C454 0.930 . S
C462 C463 1.351 . S
C462 N465 1.368 . S
C462 H467 0.931 . S
C463 C462 1.351 . S
C463 N464 1.373 . S
C463 H491 0.930 . S
N464 C463 1.373 . S
N464 C466 1.340 . S
N465 C462 1.368 . S
N465 C466 1.321 . S
N465 Co468 2.135 . S
C466 N464 1.340 . S
C466 N465 1.321 . S
C466 H490 0.930 . S
H467 C462 0.931 . S
Co468 N465 2.135 . S
Co468 N471 2.121 . S
Co468 O476 2.055 . S
Co468 O479 2.039 . S
Co468 N482 2.140 . S
C469 O470 1.227 . S
C469 O479 1.265 . S
O470 C469 1.227 . S
N471 Co468 2.121 . S
N471 C473 1.375 . S
N471 C474 1.313 . S
C472 C473 1.338 . S
C472 N475 1.377 . S
C472 H492 0.930 . S
C473 N471 1.375 . S
C473 C472 1.338 . S
C473 H477 0.931 . S
C474 N471 1.313 . S
C474 N475 1.344 . S
C474 H478 0.930 . S
N475 C472 1.377 . S
N475 C474 1.344 . S
O476 Co468 2.055 . S
O476 C480 1.253 . S
H477 C473 0.931 . S
H478 C474 0.930 . S
O479 Co468 2.039 . S
O479 C469 1.265 . S
C480 O476 1.253 . S
C480 O481 1.227 . S
O481 C480 1.227 . S
N482 Co468 2.140 . S
N482 C485 1.346 . S
N482 C486 1.345 . S
C483 C484 1.387 . S
C483 C487 1.391 . S
C484 C483 1.387 . S
C484 C485 1.369 . S
C484 H493 0.929 . S
C485 N482 1.346 . S
C485 C484 1.369 . S
C485 H488 0.928 . S
C486 N482 1.345 . S
C486 C487 1.371 . S
C486 H489 0.931 . S
C487 C483 1.391 . S
C487 C486 1.371 . S
C487 H494 0.930 . S
H488 C485 0.928 . S
H489 C486 0.931 . S
H490 C466 0.930 . S
H491 C463 0.930 . S
H492 C472 0.930 . S
H493 C484 0.929 . S
H494 C487 0.930 . S
C495 C496 1.351 . S
C495 N498 1.368 . S
C495 H500 0.931 . S
C496 C495 1.351 . S
C496 N497 1.373 . S
C496 H524 0.930 . S
N497 C496 1.373 . S
N497 C499 1.340 . S
N498 C495 1.368 . S
N498 C499 1.321 . S
N498 Co501 2.135 . S
C499 N497 1.340 . S
C499 N498 1.321 . S
C499 H523 0.930 . S
H500 C495 0.931 . S
Co501 N498 2.135 . S
Co501 N504 2.121 . S
Co501 O509 2.055 . S
Co501 O512 2.039 . S
Co501 N515 2.140 . S
C502 O503 1.227 . S
C502 O512 1.265 . S
O503 C502 1.227 . S
N504 Co501 2.121 . S
N504 C506 1.375 . S
N504 C507 1.313 . S
C505 C506 1.338 . S
C505 N508 1.377 . S
C505 H525 0.930 . S
C506 N504 1.375 . S
C506 C505 1.338 . S
C506 H510 0.931 . S
C507 N504 1.313 . S
C507 N508 1.344 . S
C507 H511 0.930 . S
N508 C505 1.377 . S
N508 C507 1.344 . S
O509 Co501 2.055 . S
O509 C513 1.253 . S
H510 C506 0.931 . S
H511 C507 0.930 . S
O512 Co501 2.039 . S
O512 C502 1.265 . S
C513 O509 1.253 . S
C513 O514 1.227 . S
O514 C513 1.227 . S
N515 Co501 2.140 . S
N515 C518 1.346 . S
N515 C519 1.345 . S
C516 C517 1.387 . S
C516 C520 1.391 . S
C517 C516 1.387 . S
C517 C518 1.369 . S
C517 H526 0.929 . S
C518 N515 1.346 . S
C518 C517 1.369 . S
C518 H521 0.928 . S
C519 N515 1.345 . S
C519 C520 1.371 . S
C519 H522 0.931 . S
C520 C516 1.391 . S
C520 C519 1.371 . S
C520 H527 0.930 . S
H521 C518 0.928 . S
H522 C519 0.931 . S
H523 C499 0.930 . S
H524 C496 0.930 . S
H525 C505 0.930 . S
H526 C517 0.929 . S
H527 C520 0.930 . S
C528 C529 1.351 . S
C528 N531 1.368 . S
C528 H533 0.931 . S
C529 C528 1.351 . S
C529 N530 1.373 . S
C529 H557 0.930 . S
N530 C529 1.373 . S
N530 C532 1.340 . S
N531 C528 1.368 . S
N531 C532 1.321 . S
N531 Co534 2.135 . S
C532 N530 1.340 . S
C532 N531 1.321 . S
C532 H556 0.930 . S
H533 C528 0.931 . S
Co534 N531 2.135 . S
Co534 N537 2.121 . S
Co534 O542 2.055 . S
Co534 O545 2.039 . S
Co534 N548 2.140 . S
C535 O536 1.227 . S
C535 O545 1.265 . S
O536 C535 1.227 . S
N537 Co534 2.121 . S
N537 C539 1.375 . S
N537 C540 1.313 . S
C538 C539 1.338 . S
C538 N541 1.377 . S
C538 H558 0.930 . S
C539 N537 1.375 . S
C539 C538 1.338 . S
C539 H543 0.931 . S
C540 N537 1.313 . S
C540 N541 1.344 . S
C540 H544 0.930 . S
N541 C538 1.377 . S
N541 C540 1.344 . S
O542 Co534 2.055 . S
O542 C546 1.253 . S
H543 C539 0.931 . S
H544 C540 0.930 . S
O545 Co534 2.039 . S
O545 C535 1.265 . S
C546 O542 1.253 . S
C546 O547 1.227 . S
O547 C546 1.227 . S
N548 Co534 2.140 . S
N548 C551 1.346 . S
N548 C552 1.345 . S
C549 C550 1.387 . S
C549 C553 1.391 . S
C550 C549 1.387 . S
C550 C551 1.369 . S
C550 H559 0.929 . S
C551 N548 1.346 . S
C551 C550 1.369 . S
C551 H554 0.928 . S
C552 N548 1.345 . S
C552 C553 1.371 . S
C552 H555 0.931 . S
C553 C549 1.391 . S
C553 C552 1.371 . S
C553 H560 0.930 . S
H554 C551 0.928 . S
H555 C552 0.931 . S
H556 C532 0.930 . S
H557 C529 0.930 . S
H558 C538 0.930 . S
H559 C550 0.929 . S
H560 C553 0.930 . S
C561 C562 1.351 . S
C561 N564 1.368 . S
C561 H566 0.931 . S
C562 C561 1.351 . S
C562 N563 1.373 . S
C562 H590 0.930 . S
N563 C562 1.373 . S
N563 C565 1.340 . S
N564 C561 1.368 . S
N564 C565 1.321 . S
N564 Co567 2.135 . S
C565 N563 1.340 . S
C565 N564 1.321 . S
C565 H589 0.930 . S
H566 C561 0.931 . S
Co567 N564 2.135 . S
Co567 N570 2.121 . S
Co567 O575 2.055 . S
Co567 O578 2.039 . S
Co567 N581 2.140 . S
C568 O569 1.227 . S
C568 O578 1.265 . S
O569 C568 1.227 . S
N570 Co567 2.121 . S
N570 C572 1.375 . S
N570 C573 1.313 . S
C571 C572 1.338 . S
C571 N574 1.377 . S
C571 H591 0.930 . S
C572 N570 1.375 . S
C572 C571 1.338 . S
C572 H576 0.931 . S
C573 N570 1.313 . S
C573 N574 1.344 . S
C573 H577 0.930 . S
N574 C571 1.377 . S
N574 C573 1.344 . S
O575 Co567 2.055 . S
O575 C579 1.253 . S
H576 C572 0.931 . S
H577 C573 0.930 . S
O578 Co567 2.039 . S
O578 C568 1.265 . S
C579 O575 1.253 . S
C579 O580 1.227 . S
O580 C579 1.227 . S
N581 Co567 2.140 . S
N581 C584 1.346 . S
N581 C585 1.345 . S
C582 C583 1.387 . S
C582 C586 1.391 . S
C583 C582 1.387 . S
C583 C584 1.369 . S
C583 H592 0.929 . S
C584 N581 1.346 . S
C584 C583 1.369 . S
C584 H587 0.928 . S
C585 N581 1.345 . S
C585 C586 1.371 . S
C585 H588 0.931 . S
C586 C582 1.391 . S
C586 C585 1.371 . S
C586 H593 0.930 . S
H587 C584 0.928 . S
H588 C585 0.931 . S
H589 C565 0.930 . S
H590 C562 0.930 . S
H591 C571 0.930 . S
H592 C583 0.929 . S
H593 C586 0.930 . S
C594 C595 1.351 . S
C594 N597 1.368 . S
C594 H599 0.931 . S
C595 C594 1.351 . S
C595 N596 1.373 . S
C595 H623 0.930 . S
N596 C595 1.373 . S
N596 C598 1.340 . S
N597 C594 1.368 . S
N597 C598 1.321 . S
N597 Co600 2.135 . S
C598 N596 1.340 . S
C598 N597 1.321 . S
C598 H622 0.930 . S
H599 C594 0.931 . S
Co600 N597 2.135 . S
Co600 N603 2.121 . S
Co600 O608 2.055 . S
Co600 O611 2.039 . S
Co600 N614 2.140 . S
C601 O602 1.227 . S
C601 O611 1.265 . S
O602 C601 1.227 . S
N603 Co600 2.121 . S
N603 C605 1.375 . S
N603 C606 1.313 . S
C604 C605 1.338 . S
C604 N607 1.377 . S
C604 H624 0.930 . S
C605 N603 1.375 . S
C605 C604 1.338 . S
C605 H609 0.931 . S
C606 N603 1.313 . S
C606 N607 1.344 . S
C606 H610 0.930 . S
N607 C604 1.377 . S
N607 C606 1.344 . S
O608 Co600 2.055 . S
O608 C612 1.253 . S
H609 C605 0.931 . S
H610 C606 0.930 . S
O611 Co600 2.039 . S
O611 C601 1.265 . S
C612 O608 1.253 . S
C612 O613 1.227 . S
O613 C612 1.227 . S
N614 Co600 2.140 . S
N614 C617 1.346 . S
N614 C618 1.345 . S
C615 C616 1.387 . S
C615 C619 1.391 . S
C616 C615 1.387 . S
C616 C617 1.369 . S
C616 H625 0.929 . S
C617 N614 1.346 . S
C617 C616 1.369 . S
C617 H620 0.928 . S
C618 N614 1.345 . S
C618 C619 1.371 . S
C618 H621 0.931 . S
C619 C615 1.391 . S
C619 C618 1.371 . S
C619 H626 0.930 . S
H620 C617 0.928 . S
H621 C618 0.931 . S
H622 C598 0.930 . S
H623 C595 0.930 . S
H624 C604 0.930 . S
H625 C616 0.929 . S
H626 C619 0.930 . S
C627 C628 1.351 . S
C627 N630 1.368 . S
C627 H632 0.931 . S
C628 C627 1.351 . S
C628 N629 1.373 . S
C628 H656 0.930 . S
N629 C628 1.373 . S
N629 C631 1.340 . S
N630 C627 1.368 . S
N630 C631 1.321 . S
N630 Co633 2.135 . S
C631 N629 1.340 . S
C631 N630 1.321 . S
C631 H655 0.930 . S
H632 C627 0.931 . S
Co633 N630 2.135 . S
Co633 N636 2.121 . S
Co633 O641 2.055 . S
Co633 O644 2.039 . S
Co633 N647 2.140 . S
C634 O635 1.227 . S
C634 O644 1.265 . S
O635 C634 1.227 . S
N636 Co633 2.121 . S
N636 C638 1.375 . S
N636 C639 1.313 . S
C637 C638 1.338 . S
C637 N640 1.377 . S
C637 H657 0.930 . S
C638 N636 1.375 . S
C638 C637 1.338 . S
C638 H642 0.931 . S
C639 N636 1.313 . S
C639 N640 1.344 . S
C639 H643 0.930 . S
N640 C637 1.377 . S
N640 C639 1.344 . S
O641 Co633 2.055 . S
O641 C645 1.253 . S
H642 C638 0.931 . S
H643 C639 0.930 . S
O644 Co633 2.039 . S
O644 C634 1.265 . S
C645 O641 1.253 . S
C645 O646 1.227 . S
O646 C645 1.227 . S
N647 Co633 2.140 . S
N647 C650 1.346 . S
N647 C651 1.345 . S
C648 C649 1.387 . S
C648 C652 1.391 . S
C649 C648 1.387 . S
C649 C650 1.369 . S
C649 H658 0.929 . S
C650 N647 1.346 . S
C650 C649 1.369 . S
C650 H653 0.928 . S
C651 N647 1.345 . S
C651 C652 1.371 . S
C651 H654 0.931 . S
C652 C648 1.391 . S
C652 C651 1.371 . S
C652 H659 0.930 . S
H653 C650 0.928 . S
H654 C651 0.931 . S
H655 C631 0.930 . S
H656 C628 0.930 . S
H657 C637 0.930 . S
H658 C649 0.929 . S
H659 C652 0.930 . S
C660 C661 1.351 . S
C660 N663 1.368 . S
C660 H665 0.931 . S
C661 C660 1.351 . S
C661 N662 1.373 . S
C661 H689 0.930 . S
N662 C661 1.373 . S
N662 C664 1.340 . S
N663 C660 1.368 . S
N663 C664 1.321 . S
N663 Co666 2.135 . S
C664 N662 1.340 . S
C664 N663 1.321 . S
C664 H688 0.930 . S
H665 C660 0.931 . S
Co666 N663 2.135 . S
Co666 N669 2.121 . S
Co666 O674 2.055 . S
Co666 O677 2.039 . S
Co666 N680 2.140 . S
C667 O668 1.227 . S
C667 O677 1.265 . S
O668 C667 1.227 . S
N669 Co666 2.121 . S
N669 C671 1.375 . S
N669 C672 1.313 . S
C670 C671 1.338 . S
C670 N673 1.377 . S
C670 H690 0.930 . S
C671 N669 1.375 . S
C671 C670 1.338 . S
C671 H675 0.931 . S
C672 N669 1.313 . S
C672 N673 1.344 . S
C672 H676 0.930 . S
N673 C670 1.377 . S
N673 C672 1.344 . S
O674 Co666 2.055 . S
O674 C678 1.253 . S
H675 C671 0.931 . S
H676 C672 0.930 . S
O677 Co666 2.039 . S
O677 C667 1.265 . S
C678 O674 1.253 . S
C678 O679 1.227 . S
O679 C678 1.227 . S
N680 Co666 2.140 . S
N680 C683 1.346 . S
N680 C684 1.345 . S
C681 C682 1.387 . S
C681 C685 1.391 . S
C682 C681 1.387 . S
C682 C683 1.369 . S
C682 H691 0.929 . S
C683 N680 1.346 . S
C683 C682 1.369 . S
C683 H686 0.928 . S
C684 N680 1.345 . S
C684 C685 1.371 . S
C684 H687 0.931 . S
C685 C681 1.391 . S
C685 C684 1.371 . S
C685 H692 0.930 . S
H686 C683 0.928 . S
H687 C684 0.931 . S
H688 C664 0.930 . S
H689 C661 0.930 . S
H690 C670 0.930 . S
H691 C682 0.929 . S
H692 C685 0.930 . S
C693 C694 1.351 . S
C693 N696 1.368 . S
C693 H698 0.931 . S
C694 C693 1.351 . S
C694 N695 1.373 . S
C694 H722 0.930 . S
N695 C694 1.373 . S
N695 C697 1.340 . S
N696 C693 1.368 . S
N696 C697 1.321 . S
N696 Co699 2.135 . S
C697 N695 1.340 . S
C697 N696 1.321 . S
C697 H721 0.930 . S
H698 C693 0.931 . S
Co699 N696 2.135 . S
Co699 N702 2.121 . S
Co699 O707 2.055 . S
Co699 O710 2.039 . S
Co699 N713 2.140 . S
C700 O701 1.227 . S
C700 O710 1.265 . S
O701 C700 1.227 . S
N702 Co699 2.121 . S
N702 C704 1.375 . S
N702 C705 1.313 . S
C703 C704 1.338 . S
C703 N706 1.377 . S
C703 H723 0.930 . S
C704 N702 1.375 . S
C704 C703 1.338 . S
C704 H708 0.931 . S
C705 N702 1.313 . S
C705 N706 1.344 . S
C705 H709 0.930 . S
N706 C703 1.377 . S
N706 C705 1.344 . S
O707 Co699 2.055 . S
O707 C711 1.253 . S
H708 C704 0.931 . S
H709 C705 0.930 . S
O710 Co699 2.039 . S
O710 C700 1.265 . S
C711 O707 1.253 . S
C711 O712 1.227 . S
O712 C711 1.227 . S
N713 Co699 2.140 . S
N713 C716 1.346 . S
N713 C717 1.345 . S
C714 C715 1.387 . S
C714 C718 1.391 . S
C715 C714 1.387 . S
C715 C716 1.369 . S
C715 H724 0.929 . S
C716 N713 1.346 . S
C716 C715 1.369 . S
C716 H719 0.928 . S
C717 N713 1.345 . S
C717 C718 1.371 . S
C717 H720 0.931 . S
C718 C714 1.391 . S
C718 C717 1.371 . S
C718 H725 0.930 . S
H719 C716 0.928 . S
H720 C717 0.931 . S
H721 C697 0.930 . S
H722 C694 0.930 . S
H723 C703 0.930 . S
H724 C715 0.929 . S
H725 C718 0.930 . S
C726 C727 1.351 . S
C726 N729 1.368 . S
C726 H731 0.931 . S
C727 C726 1.351 . S
C727 N728 1.373 . S
C727 H755 0.930 . S
N728 C727 1.373 . S
N728 C730 1.340 . S
N729 C726 1.368 . S
N729 C730 1.321 . S
N729 Co732 2.135 . S
C730 N728 1.340 . S
C730 N729 1.321 . S
C730 H754 0.930 . S
H731 C726 0.931 . S
Co732 N729 2.135 . S
Co732 N735 2.121 . S
Co732 O740 2.055 . S
Co732 O743 2.039 . S
Co732 N746 2.140 . S
C733 O734 1.227 . S
C733 O743 1.265 . S
O734 C733 1.227 . S
N735 Co732 2.121 . S
N735 C737 1.375 . S
N735 C738 1.313 . S
C736 C737 1.338 . S
C736 N739 1.377 . S
C736 H756 0.930 . S
C737 N735 1.375 . S
C737 C736 1.338 . S
C737 H741 0.931 . S
C738 N735 1.313 . S
C738 N739 1.344 . S
C738 H742 0.930 . S
N739 C736 1.377 . S
N739 C738 1.344 . S
O740 Co732 2.055 . S
O740 C744 1.253 . S
H741 C737 0.931 . S
H742 C738 0.930 . S
O743 Co732 2.039 . S
O743 C733 1.265 . S
C744 O740 1.253 . S
C744 O745 1.227 . S
O745 C744 1.227 . S
N746 Co732 2.140 . S
N746 C749 1.346 . S
N746 C750 1.345 . S
C747 C748 1.387 . S
C747 C751 1.391 . S
C748 C747 1.387 . S
C748 C749 1.369 . S
C748 H757 0.929 . S
C749 N746 1.346 . S
C749 C748 1.369 . S
C749 H752 0.928 . S
C750 N746 1.345 . S
C750 C751 1.371 . S
C750 H753 0.931 . S
C751 C747 1.391 . S
C751 C750 1.371 . S
C751 H758 0.930 . S
H752 C749 0.928 . S
H753 C750 0.931 . S
H754 C730 0.930 . S
H755 C727 0.930 . S
H756 C736 0.930 . S
H757 C748 0.929 . S
H758 C751 0.930 . S
C759 C760 1.351 . S
C759 N762 1.368 . S
C759 H764 0.931 . S
C760 C759 1.351 . S
C760 N761 1.373 . S
C760 H788 0.930 . S
N761 C760 1.373 . S
N761 C763 1.340 . S
N762 C759 1.368 . S
N762 C763 1.321 . S
N762 Co765 2.135 . S
C763 N761 1.340 . S
C763 N762 1.321 . S
C763 H787 0.930 . S
H764 C759 0.931 . S
Co765 N762 2.135 . S
Co765 N768 2.121 . S
Co765 O773 2.055 . S
Co765 O776 2.039 . S
Co765 N779 2.140 . S
C766 O767 1.227 . S
C766 O776 1.265 . S
O767 C766 1.227 . S
N768 Co765 2.121 . S
N768 C770 1.375 . S
N768 C771 1.313 . S
C769 C770 1.338 . S
C769 N772 1.377 . S
C769 H789 0.930 . S
C770 N768 1.375 . S
C770 C769 1.338 . S
C770 H774 0.931 . S
C771 N768 1.313 . S
C771 N772 1.344 . S
C771 H775 0.930 . S
N772 C769 1.377 . S
N772 C771 1.344 . S
O773 Co765 2.055 . S
O773 C777 1.253 . S
H774 C770 0.931 . S
H775 C771 0.930 . S
O776 Co765 2.039 . S
O776 C766 1.265 . S
C777 O773 1.253 . S
C777 O778 1.227 . S
O778 C777 1.227 . S
N779 Co765 2.140 . S
N779 C782 1.346 . S
N779 C783 1.345 . S
C780 C781 1.387 . S
C780 C784 1.391 . S
C781 C780 1.387 . S
C781 C782 1.369 . S
C781 H790 0.929 . S
C782 N779 1.346 . S
C782 C781 1.369 . S
C782 H785 0.928 . S
C783 N779 1.345 . S
C783 C784 1.371 . S
C783 H786 0.931 . S
C784 C780 1.391 . S
C784 C783 1.371 . S
C784 H791 0.930 . S
H785 C782 0.928 . S
H786 C783 0.931 . S
H787 C763 0.930 . S
H788 C760 0.930 . S
H789 C769 0.930 . S
H790 C781 0.929 . S
H791 C784 0.930 . S
H792 C804 0.930 . S
H793 C806 0.930 . S
H794 C807 0.930 . S
H795 C811 0.959 . S
H796 C811 0.959 . S
H797 C811 0.961 . S
H798 C812 0.960 1_545 S
H799 C812 0.961 . S
H800 C812 0.959 . S
H801 C815 0.929 . S
H802 C816 0.931 . S
H803 C818 0.930 . S
C804 H792 0.930 . S
C804 C805 1.399 . S
C804 C809 1.399 . S
C805 C804 1.399 . S
C805 C806 1.376 . S
C806 H793 0.930 . S
C806 C805 1.376 . S
C806 C807 1.388 . S
C807 H794 0.930 . S
C807 C806 1.388 . S
C807 C808 1.390 . S
C808 C807 1.390 . S
C808 C809 1.394 . S
C808 C814 1.465 1_545 S
C809 C804 1.399 . S
C809 C808 1.394 . S
C809 C810 1.516 . S
C810 C809 1.516 . S
C810 C811 1.502 . S
C810 C812 1.561 1_545 S
C810 C813 1.526 1_545 S
C811 H795 0.959 . S
C811 H796 0.959 . S
C811 H797 0.961 . S
C811 C810 1.502 . S
C812 H798 0.960 1_565 S
C812 H799 0.961 . S
C812 H800 0.959 . S
C812 C810 1.561 1_565 S
C813 C810 1.526 1_565 S
C813 C814 1.396 . S
C813 C818 1.390 . S
C814 C808 1.465 1_565 S
C814 C813 1.396 . S
C814 C815 1.399 . S
C815 H801 0.929 . S
C815 C814 1.399 . S
C815 C816 1.385 . S
C816 H802 0.931 . S
C816 C815 1.385 . S
C816 C817 1.389 . S
C817 C816 1.389 . S
C817 C818 1.387 . S
C818 H803 0.930 . S
C818 C813 1.390 . S
C818 C817 1.387 . S
H819 C831 0.930 . S
H820 C833 0.930 . S
H821 C834 0.930 . S
H822 C838 0.959 . S
H823 C838 0.959 . S
H824 C838 0.961 . S
H825 C839 0.960 . S
H826 C839 0.961 . S
H827 C839 0.959 . S
H828 C842 0.929 . S
H829 C843 0.931 . S
H830 C845 0.930 . S
C831 H819 0.930 . S
C831 C832 1.399 . S
C831 C836 1.399 . S
C832 C831 1.399 . S
C832 C833 1.376 . S
C833 H820 0.930 . S
C833 C832 1.376 . S
C833 C834 1.388 . S
C834 H821 0.930 . S
C834 C833 1.388 . S
C834 C835 1.390 . S
C835 C834 1.390 . S
C835 C836 1.394 . S
C835 C841 1.465 . S
C836 C831 1.399 . S
C836 C835 1.394 . S
C836 C837 1.516 . S
C837 C836 1.516 . S
C837 C838 1.502 . S
C837 C839 1.561 . S
C837 C840 1.526 . S
C838 H822 0.959 . S
C838 H823 0.959 . S
C838 H824 0.961 . S
C838 C837 1.502 . S
C839 H825 0.960 . S
C839 H826 0.961 . S
C839 H827 0.959 . S
C839 C837 1.561 . S
C840 C837 1.526 . S
C840 C841 1.396 . S
C840 C845 1.390 . S
C841 C835 1.465 . S
C841 C840 1.396 . S
C841 C842 1.399 . S
C842 H828 0.929 . S
C842 C841 1.399 . S
C842 C843 1.385 . S
C843 H829 0.931 . S
C843 C842 1.385 . S
C843 C844 1.389 . S
C844 C843 1.389 . S
C844 C845 1.387 . S
C845 H830 0.930 . S
C845 C840 1.390 . S
C845 C844 1.387 . S
H846 C858 0.930 . S
H847 C860 0.930 . S
H848 C861 0.930 . S
H849 C865 0.959 . S
H850 C865 0.959 . S
H851 C865 0.961 . S
H852 C866 0.960 . S
H853 C866 0.961 1_655 S
H854 C866 0.959 . S
H855 C869 0.929 . S
H856 C870 0.931 . S
H857 C872 0.930 . S
C858 H846 0.930 . S
C858 C859 1.399 . S
C858 C863 1.399 . S
C859 C858 1.399 . S
C859 C860 1.376 . S
C860 H847 0.930 . S
C860 C859 1.376 . S
C860 C861 1.388 . S
C861 H848 0.930 . S
C861 C860 1.388 . S
C861 C862 1.390 . S
C862 C861 1.390 . S
C862 C863 1.394 . S
C862 C868 1.465 1_455 S
C863 C858 1.399 . S
C863 C862 1.394 . S
C863 C864 1.516 1_455 S
C864 C863 1.516 1_655 S
C864 C865 1.502 . S
C864 C866 1.561 1_655 S
C864 C867 1.526 . S
C865 H849 0.959 . S
C865 H850 0.959 . S
C865 H851 0.961 . S
C865 C864 1.502 . S
C866 H852 0.960 . S
C866 H853 0.961 1_455 S
C866 H854 0.959 . S
C866 C864 1.561 1_455 S
C867 C864 1.526 . S
C867 C868 1.396 . S
C867 C872 1.390 . S
C868 C862 1.465 1_655 S
C868 C867 1.396 . S
C868 C869 1.399 . S
C869 H855 0.929 . S
C869 C868 1.399 . S
C869 C870 1.385 . S
C870 H856 0.931 . S
C870 C869 1.385 . S
C870 C871 1.389 . S
C871 C870 1.389 . S
C871 C872 1.387 . S
C872 H857 0.930 . S
C872 C867 1.390 . S
C872 C871 1.387 . S
H873 C885 0.930 . S
H874 C887 0.930 . S
H875 C888 0.930 . S
H876 C892 0.959 . S
H877 C892 0.959 . S
H878 C892 0.961 . S
H879 C893 0.960 1_455 S
H880 C893 0.961 . S
H881 C893 0.959 . S
H882 C896 0.929 . S
H883 C897 0.931 . S
H884 C899 0.930 . S
C885 H873 0.930 . S
C885 C886 1.399 . S
C885 C890 1.399 . S
C886 C885 1.399 . S
C886 C887 1.376 . S
C887 H874 0.930 . S
C887 C886 1.376 . S
C887 C888 1.388 . S
C888 H875 0.930 . S
C888 C887 1.388 . S
C888 C889 1.390 . S
C889 C888 1.390 . S
C889 C890 1.394 . S
C889 C895 1.465 1_455 S
C890 C885 1.399 . S
C890 C889 1.394 . S
C890 C891 1.516 . S
C891 C890 1.516 . S
C891 C892 1.502 . S
C891 C893 1.561 1_455 S
C891 C894 1.526 1_455 S
C892 H876 0.959 . S
C892 H877 0.959 . S
C892 H878 0.961 . S
C892 C891 1.502 . S
C893 H879 0.960 1_655 S
C893 H880 0.961 . S
C893 H881 0.959 . S
C893 C891 1.561 1_655 S
C894 C891 1.526 1_655 S
C894 C895 1.396 . S
C894 C899 1.390 . S
C895 C889 1.465 1_655 S
C895 C894 1.396 . S
C895 C896 1.399 . S
C896 H882 0.929 . S
C896 C895 1.399 . S
C896 C897 1.385 . S
C897 H883 0.931 . S
C897 C896 1.385 . S
C897 C898 1.389 . S
C898 C897 1.389 . S
C898 C899 1.387 . S
C899 H884 0.930 . S
C899 C894 1.390 . S
C899 C898 1.387 . S
H900 C912 0.930 . S
H901 C914 0.930 . S
H902 C915 0.930 . S
H903 C919 0.959 . S
H904 C919 0.959 . S
H905 C919 0.961 . S
H906 C920 0.961 1_565 S
H907 C920 0.961 . S
H908 C920 0.957 . S
H909 C923 0.929 . S
H910 C924 0.931 . S
H911 C926 0.930 . S
C912 H900 0.930 . S
C912 C913 1.399 . S
C912 C917 1.399 . S
C913 C912 1.399 . S
C913 C914 1.376 . S
C914 H901 0.930 . S
C914 C913 1.376 . S
C914 C915 1.388 . S
C915 H902 0.930 . S
C915 C914 1.388 . S
C915 C916 1.390 . S
C916 C915 1.390 . S
C916 C917 1.394 . S
C916 C922 1.465 1_565 S
C917 C912 1.399 . S
C917 C916 1.394 . S
C917 C918 1.516 . S
C918 C917 1.516 . S
C918 C919 1.502 . S
C918 C920 1.562 1_565 S
C918 C921 1.526 1_565 S
C919 H903 0.959 . S
C919 H904 0.959 . S
C919 H905 0.961 . S
C919 C918 1.502 . S
C920 H906 0.961 1_545 S
C920 H907 0.961 . S
C920 H908 0.957 . S
C920 C918 1.562 1_545 S
C921 C918 1.526 1_545 S
C921 C922 1.396 . S
C921 C926 1.390 . S
C922 C916 1.465 1_545 S
C922 C921 1.396 . S
C922 C923 1.399 . S
C923 H909 0.929 . S
C923 C922 1.399 . S
C923 C924 1.385 . S
C924 H910 0.931 . S
C924 C923 1.385 . S
C924 C925 1.389 . S
C925 C924 1.389 . S
C925 C926 1.387 . S
C926 H911 0.930 . S
C926 C921 1.390 . S
C926 C925 1.387 . S
H927 C939 0.930 . S
H928 C941 0.930 . S
H929 C942 0.930 . S
H930 C946 0.959 . S
H931 C946 0.959 . S
H932 C946 0.961 . S
H933 C947 0.960 . S
H934 C947 0.961 . S
H935 C947 0.959 . S
H936 C950 0.929 . S
H937 C951 0.931 . S
H938 C953 0.930 . S
C939 H927 0.930 . S
C939 C940 1.399 . S
C939 C944 1.399 . S
C940 C939 1.399 . S
C940 C941 1.376 . S
C941 H928 0.930 . S
C941 C940 1.376 . S
C941 C942 1.388 . S
C942 H929 0.930 . S
C942 C941 1.388 . S
C942 C943 1.390 . S
C943 C942 1.390 . S
C943 C944 1.394 . S
C943 C949 1.465 . S
C944 C939 1.399 . S
C944 C943 1.394 . S
C944 C945 1.516 . S
C945 C944 1.516 . S
C945 C946 1.502 . S
C945 C947 1.561 . S
C945 C948 1.526 . S
C946 H930 0.959 . S
C946 H931 0.959 . S
C946 H932 0.961 . S
C946 C945 1.502 . S
C947 H933 0.960 . S
C947 H934 0.961 . S
C947 H935 0.959 . S
C947 C945 1.561 . S
C948 C945 1.526 . S
C948 C949 1.396 . S
C948 C953 1.390 . S
C949 C943 1.465 . S
C949 C948 1.396 . S
C949 C950 1.399 . S
C950 H936 0.929 . S
C950 C949 1.399 . S
C950 C951 1.385 . S
C951 H937 0.931 . S
C951 C950 1.385 . S
C951 C952 1.389 . S
C952 C951 1.389 . S
C952 C953 1.387 . S
C953 H938 0.930 . S
C953 C948 1.390 . S
C953 C952 1.387 . S
H954 C966 0.930 . S
H955 C968 0.930 . S
H956 C969 0.930 . S
H957 C973 0.959 . S
H958 C973 0.959 . S
H959 C973 0.961 . S
H960 C974 0.960 . S
H961 C974 0.961 1_565 S
H962 C974 0.959 . S
H963 C977 0.929 . S
H964 C978 0.931 . S
H965 C980 0.930 . S
C966 H954 0.930 . S
C966 C967 1.399 . S
C966 C971 1.399 . S
C967 C966 1.399 . S
C967 C968 1.376 . S
C968 H955 0.930 . S
C968 C967 1.376 . S
C968 C969 1.388 . S
C969 H956 0.930 . S
C969 C968 1.388 . S
C969 C970 1.390 . S
C970 C969 1.390 . S
C970 C971 1.394 . S
C970 C976 1.465 1_545 S
C971 C966 1.399 . S
C971 C970 1.394 . S
C971 C972 1.516 1_545 S
C972 C971 1.516 1_565 S
C972 C973 1.502 . S
C972 C974 1.561 1_565 S
C972 C975 1.526 . S
C973 H957 0.959 . S
C973 H958 0.959 . S
C973 H959 0.961 . S
C973 C972 1.502 . S
C974 H960 0.960 . S
C974 H961 0.961 1_545 S
C974 H962 0.959 . S
C974 C972 1.561 1_545 S
C975 C972 1.526 . S
C975 C976 1.396 . S
C975 C980 1.390 . S
C976 C970 1.465 1_565 S
C976 C975 1.396 . S
C976 C977 1.399 . S
C977 H963 0.929 . S
C977 C976 1.399 . S
C977 C978 1.385 . S
C978 H964 0.931 . S
C978 C977 1.385 . S
C978 C979 1.389 . S
C979 C978 1.389 . S
C979 C980 1.387 . S
C980 H965 0.930 . S
C980 C975 1.390 . S
C980 C979 1.387 . S
H981 C993 0.930 . S
H982 C995 0.930 . S
H983 C996 0.930 . S
H984 C1000 0.959 . S
H985 C1000 0.959 . S
H986 C1000 0.961 . S
H987 C1001 0.960 . S
H988 C1001 0.961 . S
H989 C1001 0.959 . S
H990 C1004 0.929 . S
H991 C1005 0.931 . S
H992 C1007 0.930 . S
C993 H981 0.930 . S
C993 C994 1.399 . S
C993 C998 1.399 . S
C994 C993 1.399 . S
C994 C995 1.376 . S
C995 H982 0.930 . S
C995 C994 1.376 . S
C995 C996 1.388 . S
C996 H983 0.930 . S
C996 C995 1.388 . S
C996 C997 1.390 . S
C997 C996 1.390 . S
C997 C998 1.394 . S
C997 C1003 1.465 . S
C998 C993 1.399 . S
C998 C997 1.394 . S
C998 C999 1.516 . S
C999 C998 1.516 . S
C999 C1000 1.502 . S
C999 C1001 1.561 . S
C999 C1002 1.526 . S
C1000 H984 0.959 . S
C1000 H985 0.959 . S
C1000 H986 0.961 . S
C1000 C999 1.502 . S
C1001 H987 0.960 . S
C1001 H988 0.961 . S
C1001 H989 0.959 . S
C1001 C999 1.561 . S
C1002 C999 1.526 . S
C1002 C1003 1.396 . S
C1002 C1007 1.390 . S
C1003 C997 1.465 . S
C1003 C1002 1.396 . S
C1003 C1004 1.399 . S
C1004 H990 0.929 . S
C1004 C1003 1.399 . S
C1004 C1005 1.385 . S
C1005 H991 0.931 . S
C1005 C1004 1.385 . S
C1005 C1006 1.389 . S
C1006 C1005 1.389 . S
C1006 C1007 1.387 . S
C1007 H992 0.930 . S
C1007 C1002 1.390 . S
C1007 C1006 1.387 . S
H1008 C1020 0.930 . S
H1009 C1022 0.930 . S
H1010 C1023 0.930 . S
H1011 C1027 0.959 . S
H1012 C1027 0.959 1_455 S
H1013 C1027 0.961 . S
H1014 C1028 0.960 . S
H1015 C1028 0.961 . S
H1016 C1028 0.959 . S
H1017 C1031 0.929 . S
H1018 C1032 0.931 . S
H1019 C1034 0.930 . S
C1020 H1008 0.930 . S
C1020 C1021 1.399 . S
C1020 C1025 1.399 . S
C1021 C1020 1.399 . S
C1021 C1022 1.376 . S
C1022 H1009 0.930 . S
C1022 C1021 1.376 . S
C1022 C1023 1.388 . S
C1023 H1010 0.930 . S
C1023 C1022 1.388 . S
C1023 C1024 1.390 . S
C1024 C1023 1.390 . S
C1024 C1025 1.394 . S
C1024 C1030 1.465 1_655 S
C1025 C1020 1.399 . S
C1025 C1024 1.394 . S
C1025 C1026 1.516 1_655 S
C1026 C1025 1.516 1_455 S
C1026 C1027 1.502 1_455 S
C1026 C1028 1.561 . S
C1026 C1029 1.526 . S
C1027 H1011 0.959 . S
C1027 H1012 0.959 1_655 S
C1027 H1013 0.961 . S
C1027 C1026 1.502 1_655 S
C1028 H1014 0.960 . S
C1028 H1015 0.961 . S
C1028 H1016 0.959 . S
C1028 C1026 1.561 . S
C1029 C1026 1.526 . S
C1029 C1030 1.396 . S
C1029 C1034 1.390 . S
C1030 C1024 1.465 1_455 S
C1030 C1029 1.396 . S
C1030 C1031 1.399 . S
C1031 H1017 0.929 . S
C1031 C1030 1.399 . S
C1031 C1032 1.385 . S
C1032 H1018 0.931 . S
C1032 C1031 1.385 . S
C1032 C1033 1.389 . S
C1033 C1032 1.389 . S
C1033 C1034 1.387 . S
C1034 H1019 0.930 . S
C1034 C1029 1.390 . S
C1034 C1033 1.387 . S
H1035 C1047 0.930 . S
H1036 C1049 0.930 . S
H1037 C1050 0.930 . S
H1038 C1054 0.959 . S
H1039 C1054 0.959 . S
H1040 C1054 0.961 . S
H1041 C1055 0.960 1_655 S
H1042 C1055 0.961 . S
H1043 C1055 0.959 . S
H1044 C1058 0.929 . S
H1045 C1059 0.931 . S
H1046 C1061 0.930 . S
C1047 H1035 0.930 . S
C1047 C1048 1.399 . S
C1047 C1052 1.399 . S
C1048 C1047 1.399 . S
C1048 C1049 1.376 . S
C1049 H1036 0.930 . S
C1049 C1048 1.376 . S
C1049 C1050 1.388 . S
C1050 H1037 0.930 . S
C1050 C1049 1.388 . S
C1050 C1051 1.390 . S
C1051 C1050 1.390 . S
C1051 C1052 1.394 . S
C1051 C1057 1.465 1_655 S
C1052 C1047 1.399 . S
C1052 C1051 1.394 . S
C1052 C1053 1.516 . S
C1053 C1052 1.516 . S
C1053 C1054 1.502 . S
C1053 C1055 1.561 1_655 S
C1053 C1056 1.526 1_655 S
C1054 H1038 0.959 . S
C1054 H1039 0.959 . S
C1054 H1040 0.961 . S
C1054 C1053 1.502 . S
C1055 H1041 0.960 1_455 S
C1055 H1042 0.961 . S
C1055 H1043 0.959 . S
C1055 C1053 1.561 1_455 S
C1056 C1053 1.526 1_455 S
C1056 C1057 1.396 . S
C1056 C1061 1.390 . S
C1057 C1051 1.465 1_455 S
C1057 C1056 1.396 . S
C1057 C1058 1.399 . S
C1058 H1044 0.929 . S
C1058 C1057 1.399 . S
C1058 C1059 1.385 . S
C1059 H1045 0.931 . S
C1059 C1058 1.385 . S
C1059 C1060 1.389 . S
C1060 C1059 1.389 . S
C1060 C1061 1.387 . S
C1061 H1046 0.930 . S
C1061 C1056 1.390 . S
C1061 C1060 1.387 . S
H1062 C1074 0.930 . S
H1063 C1076 0.930 . S
H1064 C1077 0.930 . S
H1065 C1081 0.959 . S
H1066 C1081 0.959 . S
H1067 C1081 0.961 . S
H1068 C1082 0.960 . S
H1069 C1082 0.961 . S
H1070 C1082 0.959 . S
H1071 C1085 0.929 . S
H1072 C1086 0.931 . S
H1073 C1088 0.930 . S
C1074 H1062 0.930 . S
C1074 C1075 1.399 . S
C1074 C1079 1.399 . S
C1075 C1074 1.399 . S
C1075 C1076 1.376 . S
C1076 H1063 0.930 . S
C1076 C1075 1.376 . S
C1076 C1077 1.388 . S
C1077 H1064 0.930 . S
C1077 C1076 1.388 . S
C1077 C1078 1.390 . S
C1078 C1077 1.390 . S
C1078 C1079 1.394 . S
C1078 C1084 1.465 1_545 S
C1079 C1074 1.399 . S
C1079 C1078 1.394 . S
C1079 C1080 1.516 1_545 S
C1080 C1079 1.516 1_565 S
C1080 C1081 1.502 . S
C1080 C1082 1.561 . S
C1080 C1083 1.526 . S
C1081 H1065 0.959 . S
C1081 H1066 0.959 . S
C1081 H1067 0.961 . S
C1081 C1080 1.502 . S
C1082 H1068 0.960 . S
C1082 H1069 0.961 . S
C1082 H1070 0.959 . S
C1082 C1080 1.561 . S
C1083 C1080 1.526 . S
C1083 C1084 1.396 . S
C1083 C1088 1.390 . S
C1084 C1078 1.465 1_565 S
C1084 C1083 1.396 . S
C1084 C1085 1.399 . S
C1085 H1071 0.929 . S
C1085 C1084 1.399 . S
C1085 C1086 1.385 . S
C1086 H1072 0.931 . S
C1086 C1085 1.385 . S
C1086 C1087 1.389 . S
C1087 C1086 1.389 . S
C1087 C1088 1.387 . S
C1088 H1073 0.930 . S
C1088 C1083 1.390 . S
C1088 C1087 1.387 . S
H1089 C1101 0.930 . S
H1090 C1103 0.930 . S
H1091 C1104 0.930 . S
H1092 C1108 0.959 . S
H1093 C1108 0.959 . S
H1094 C1108 0.961 . S
H1095 C1109 0.960 . S
H1096 C1109 0.961 . S
H1097 C1109 0.959 . S
H1098 C1112 0.929 . S
H1099 C1113 0.931 . S
H1100 C1115 0.930 . S
C1101 H1089 0.930 . S
C1101 C1102 1.399 . S
C1101 C1106 1.399 . S
C1102 C1101 1.399 . S
C1102 C1103 1.376 . S
C1103 H1090 0.930 . S
C1103 C1102 1.376 . S
C1103 C1104 1.388 . S
C1104 H1091 0.930 . S
C1104 C1103 1.388 . S
C1104 C1105 1.390 . S
C1105 C1104 1.390 . S
C1105 C1106 1.394 . S
C1105 C1111 1.465 . S
C1106 C1101 1.399 . S
C1106 C1105 1.394 . S
C1106 C1107 1.516 . S
C1107 C1106 1.516 . S
C1107 C1108 1.502 . S
C1107 C1109 1.561 . S
C1107 C1110 1.526 . S
C1108 H1092 0.959 . S
C1108 H1093 0.959 . S
C1108 H1094 0.961 . S
C1108 C1107 1.502 . S
C1109 H1095 0.960 . S
C1109 H1096 0.961 . S
C1109 H1097 0.959 . S
C1109 C1107 1.561 . S
C1110 C1107 1.526 . S
C1110 C1111 1.396 . S
C1110 C1115 1.390 . S
C1111 C1105 1.465 . S
C1111 C1110 1.396 . S
C1111 C1112 1.399 . S
C1112 H1098 0.929 . S
C1112 C1111 1.399 . S
C1112 C1113 1.385 . S
C1113 H1099 0.931 . S
C1113 C1112 1.385 . S
C1113 C1114 1.389 . S
C1114 C1113 1.389 . S
C1114 C1115 1.387 . S
C1115 H1100 0.930 . S
C1115 C1110 1.390 . S
C1115 C1114 1.387 . S
H1116 C1128 0.930 . S
H1117 C1130 0.930 . S
H1118 C1131 0.930 . S
H1119 C1135 0.959 . S
H1120 C1135 0.959 . S
H1121 C1135 0.961 . S
H1122 C1136 0.960 . S
H1123 C1136 0.961 . S
H1124 C1136 0.959 . S
H1125 C1139 0.929 . S
H1126 C1140 0.931 . S
H1127 C1142 0.930 . S
C1128 H1116 0.930 . S
C1128 C1129 1.399 . S
C1128 C1133 1.399 . S
C1129 C1128 1.399 . S
C1129 C1130 1.376 . S
C1130 H1117 0.930 . S
C1130 C1129 1.376 . S
C1130 C1131 1.388 . S
C1131 H1118 0.930 . S
C1131 C1130 1.388 . S
C1131 C1132 1.390 . S
C1132 C1131 1.390 . S
C1132 C1133 1.394 . S
C1132 C1138 1.465 . S
C1133 C1128 1.399 . S
C1133 C1132 1.394 . S
C1133 C1134 1.516 . S
C1134 C1133 1.516 . S
C1134 C1135 1.502 . S
C1134 C1136 1.561 . S
C1134 C1137 1.526 . S
C1135 H1119 0.959 . S
C1135 H1120 0.959 . S
C1135 H1121 0.961 . S
C1135 C1134 1.502 . S
C1136 H1122 0.960 . S
C1136 H1123 0.961 . S
C1136 H1124 0.959 . S
C1136 C1134 1.561 . S
C1137 C1134 1.526 . S
C1137 C1138 1.396 . S
C1137 C1142 1.390 . S
C1138 C1132 1.465 . S
C1138 C1137 1.396 . S
C1138 C1139 1.399 . S
C1139 H1125 0.929 . S
C1139 C1138 1.399 . S
C1139 C1140 1.385 . S
C1140 H1126 0.931 . S
C1140 C1139 1.385 . S
C1140 C1141 1.389 . S
C1141 C1140 1.389 . S
C1141 C1142 1.387 . S
C1142 H1127 0.930 . S
C1142 C1137 1.390 . S
C1142 C1141 1.387 . S
H1143 C1155 0.930 . S
H1144 C1157 0.930 . S
H1145 C1158 0.930 . S
H1146 C1162 0.959 . S
H1147 C1162 0.959 . S
H1148 C1162 0.961 . S
H1149 C1163 0.960 . S
H1150 C1163 0.961 . S
H1151 C1163 0.959 . S
H1152 C1166 0.929 . S
H1153 C1167 0.931 . S
H1154 C1169 0.930 . S
C1155 H1143 0.930 . S
C1155 C1156 1.399 . S
C1155 C1160 1.399 . S
C1156 C1155 1.399 . S
C1156 C1157 1.376 . S
C1157 H1144 0.930 . S
C1157 C1156 1.376 . S
C1157 C1158 1.388 . S
C1158 H1145 0.930 . S
C1158 C1157 1.388 . S
C1158 C1159 1.390 . S
C1159 C1158 1.390 . S
C1159 C1160 1.394 . S
C1159 C1165 1.465 . S
C1160 C1155 1.399 . S
C1160 C1159 1.394 . S
C1160 C1161 1.516 . S
C1161 C1160 1.516 . S
C1161 C1162 1.502 . S
C1161 C1163 1.561 . S
C1161 C1164 1.526 . S
C1162 H1146 0.959 . S
C1162 H1147 0.959 . S
C1162 H1148 0.961 . S
C1162 C1161 1.502 . S
C1163 H1149 0.960 . S
C1163 H1150 0.961 . S
C1163 H1151 0.959 . S
C1163 C1161 1.561 . S
C1164 C1161 1.526 . S
C1164 C1165 1.396 . S
C1164 C1169 1.390 . S
C1165 C1159 1.465 . S
C1165 C1164 1.396 . S
C1165 C1166 1.399 . S
C1166 H1152 0.929 . S
C1166 C1165 1.399 . S
C1166 C1167 1.385 . S
C1167 H1153 0.931 . S
C1167 C1166 1.385 . S
C1167 C1168 1.389 . S
C1168 C1167 1.389 . S
C1168 C1169 1.387 . S
C1169 H1154 0.930 . S
C1169 C1164 1.390 . S
C1169 C1168 1.387 . S
H1170 C1182 0.930 . S
H1171 C1184 0.930 . S
H1172 C1185 0.930 . S
H1173 C1189 0.959 . S
H1174 C1189 0.959 . S
H1175 C1189 0.961 . S
H1176 C1190 0.960 . S
H1177 C1190 0.961 . S
H1178 C1190 0.959 . S
H1179 C1193 0.929 . S
H1180 C1194 0.931 . S
H1181 C1196 0.930 . S
C1182 H1170 0.930 . S
C1182 C1183 1.399 . S
C1182 C1187 1.399 . S
C1183 C1182 1.399 . S
C1183 C1184 1.376 . S
C1184 H1171 0.930 . S
C1184 C1183 1.376 . S
C1184 C1185 1.388 . S
C1185 H1172 0.930 . S
C1185 C1184 1.388 . S
C1185 C1186 1.390 . S
C1186 C1185 1.390 . S
C1186 C1187 1.394 . S
C1186 C1192 1.465 . S
C1187 C1182 1.399 . S
C1187 C1186 1.394 . S
C1187 C1188 1.516 . S
C1188 C1187 1.516 . S
C1188 C1189 1.502 . S
C1188 C1190 1.561 . S
C1188 C1191 1.526 . S
C1189 H1173 0.959 . S
C1189 H1174 0.959 . S
C1189 H1175 0.961 . S
C1189 C1188 1.502 . S
C1190 H1176 0.960 . S
C1190 H1177 0.961 . S
C1190 H1178 0.959 . S
C1190 C1188 1.561 . S
C1191 C1188 1.526 . S
C1191 C1192 1.396 . S
C1191 C1196 1.390 . S
C1192 C1186 1.465 . S
C1192 C1191 1.396 . S
C1192 C1193 1.399 . S
C1193 H1179 0.929 . S
C1193 C1192 1.399 . S
C1193 C1194 1.385 . S
C1194 H1180 0.931 . S
C1194 C1193 1.385 . S
C1194 C1195 1.389 . S
C1195 C1194 1.389 . S
C1195 C1196 1.387 . S
C1196 H1181 0.930 . S
C1196 C1191 1.390 . S
C1196 C1195 1.387 . S
H1197 C1209 0.930 . S
H1198 C1211 0.930 . S
H1199 C1212 0.930 . S
H1200 C1216 0.959 . S
H1201 C1216 0.959 . S
H1202 C1216 0.961 . S
H1203 C1217 0.960 . S
H1204 C1217 0.961 . S
H1205 C1217 0.959 . S
H1206 C1220 0.929 . S
H1207 C1221 0.931 . S
H1208 C1223 0.930 . S
C1209 H1197 0.930 . S
C1209 C1210 1.399 . S
C1209 C1214 1.399 . S
C1210 C1209 1.399 . S
C1210 C1211 1.376 . S
C1211 H1198 0.930 . S
C1211 C1210 1.376 . S
C1211 C1212 1.388 . S
C1212 H1199 0.930 . S
C1212 C1211 1.388 . S
C1212 C1213 1.390 . S
C1213 C1212 1.390 . S
C1213 C1214 1.394 . S
C1213 C1219 1.465 . S
C1214 C1209 1.399 . S
C1214 C1213 1.394 . S
C1214 C1215 1.516 . S
C1215 C1214 1.516 . S
C1215 C1216 1.502 . S
C1215 C1217 1.561 . S
C1215 C1218 1.526 . S
C1216 H1200 0.959 . S
C1216 H1201 0.959 . S
C1216 H1202 0.961 . S
C1216 C1215 1.502 . S
C1217 H1203 0.960 . S
C1217 H1204 0.961 . S
C1217 H1205 0.959 . S
C1217 C1215 1.561 . S
C1218 C1215 1.526 . S
C1218 C1219 1.396 . S
C1218 C1223 1.390 . S
C1219 C1213 1.465 . S
C1219 C1218 1.396 . S
C1219 C1220 1.399 . S
C1220 H1206 0.929 . S
C1220 C1219 1.399 . S
C1220 C1221 1.385 . S
C1221 H1207 0.931 . S
C1221 C1220 1.385 . S
C1221 C1222 1.389 . S
C1222 C1221 1.389 . S
C1222 C1223 1.387 . S
C1223 H1208 0.930 . S
C1223 C1218 1.390 . S
C1223 C1222 1.387 . S
H1224 C1236 0.930 . S
H1225 C1238 0.930 . S
H1226 C1239 0.930 . S
H1227 C1243 0.959 . S
H1228 C1243 0.959 . S
H1229 C1243 0.961 . S
H1230 C1244 0.960 . S
H1231 C1244 0.961 . S
H1232 C1244 0.959 . S
H1233 C1247 0.929 . S
H1234 C1248 0.931 . S
H1235 C1250 0.930 . S
C1236 H1224 0.930 . S
C1236 C1237 1.399 . S
C1236 C1241 1.399 . S
C1237 C1236 1.399 . S
C1237 C1238 1.376 . S
C1238 H1225 0.930 . S
C1238 C1237 1.376 . S
C1238 C1239 1.388 . S
C1239 H1226 0.930 . S
C1239 C1238 1.388 . S
C1239 C1240 1.390 . S
C1240 C1239 1.390 . S
C1240 C1241 1.394 . S
C1240 C1246 1.465 . S
C1241 C1236 1.399 . S
C1241 C1240 1.394 . S
C1241 C1242 1.516 . S
C1242 C1241 1.516 . S
C1242 C1243 1.502 . S
C1242 C1244 1.561 . S
C1242 C1245 1.526 . S
C1243 H1227 0.959 . S
C1243 H1228 0.959 . S
C1243 H1229 0.961 . S
C1243 C1242 1.502 . S
C1244 H1230 0.960 . S
C1244 H1231 0.961 . S
C1244 H1232 0.959 . S
C1244 C1242 1.561 . S
C1245 C1242 1.526 . S
C1245 C1246 1.396 . S
C1245 C1250 1.390 . S
C1246 C1240 1.465 . S
C1246 C1245 1.396 . S
C1246 C1247 1.399 . S
C1247 H1233 0.929 . S
C1247 C1246 1.399 . S
C1247 C1248 1.385 . S
C1248 H1234 0.931 . S
C1248 C1247 1.385 . S
C1248 C1249 1.389 . S
C1249 C1248 1.389 . S
C1249 C1250 1.387 . S
C1250 H1235 0.930 . S
C1250 C1245 1.390 . S
C1250 C1249 1.387 . S
H1251 C1263 0.930 . S
H1252 C1265 0.930 . S
H1253 C1266 0.930 . S
H1254 C1270 0.959 . S
H1255 C1270 0.959 . S
H1256 C1270 0.961 . S
H1257 C1271 0.960 . S
H1258 C1271 0.961 . S
H1259 C1271 0.959 . S
H1260 C1274 0.929 . S
H1261 C1275 0.931 . S
H1262 C1277 0.930 . S
C1263 H1251 0.930 . S
C1263 C1264 1.399 . S
C1263 C1268 1.399 . S
C1264 C1263 1.399 . S
C1264 C1265 1.376 . S
C1265 H1252 0.930 . S
C1265 C1264 1.376 . S
C1265 C1266 1.388 . S
C1266 H1253 0.930 . S
C1266 C1265 1.388 . S
C1266 C1267 1.390 . S
C1267 C1266 1.390 . S
C1267 C1268 1.394 . S
C1267 C1273 1.465 . S
C1268 C1263 1.399 . S
C1268 C1267 1.394 . S
C1268 C1269 1.516 . S
C1269 C1268 1.516 . S
C1269 C1270 1.502 . S
C1269 C1271 1.561 . S
C1269 C1272 1.526 . S
C1270 H1254 0.959 . S
C1270 H1255 0.959 . S
C1270 H1256 0.961 . S
C1270 C1269 1.502 . S
C1271 H1257 0.960 . S
C1271 H1258 0.961 . S
C1271 H1259 0.959 . S
C1271 C1269 1.561 . S
C1272 C1269 1.526 . S
C1272 C1273 1.396 . S
C1272 C1277 1.390 . S
C1273 C1267 1.465 . S
C1273 C1272 1.396 . S
C1273 C1274 1.399 . S
C1274 H1260 0.929 . S
C1274 C1273 1.399 . S
C1274 C1275 1.385 . S
C1275 H1261 0.931 . S
C1275 C1274 1.385 . S
C1275 C1276 1.389 . S
C1276 C1275 1.389 . S
C1276 C1277 1.387 . S
C1277 H1262 0.930 . S
C1277 C1272 1.390 . S
C1277 C1276 1.387 . S
H1278 C1290 0.930 . S
H1279 C1292 0.930 . S
H1280 C1293 0.930 . S
H1281 C1297 0.959 . S
H1282 C1297 0.959 . S
H1283 C1297 0.961 . S
H1284 C1298 0.960 . S
H1285 C1298 0.961 . S
H1286 C1298 0.959 . S
H1287 C1301 0.929 . S
H1288 C1302 0.931 . S
H1289 C1304 0.930 . S
C1290 H1278 0.930 . S
C1290 C1291 1.399 . S
C1290 C1295 1.399 . S
C1291 C1290 1.399 . S
C1291 C1292 1.376 . S
C1292 H1279 0.930 . S
C1292 C1291 1.376 . S
C1292 C1293 1.388 . S
C1293 H1280 0.930 . S
C1293 C1292 1.388 . S
C1293 C1294 1.390 . S
C1294 C1293 1.390 . S
C1294 C1295 1.394 . S
C1294 C1300 1.465 . S
C1295 C1290 1.399 . S
C1295 C1294 1.394 . S
C1295 C1296 1.516 . S
C1296 C1295 1.516 . S
C1296 C1297 1.502 . S
C1296 C1298 1.561 . S
C1296 C1299 1.526 . S
C1297 H1281 0.959 . S
C1297 H1282 0.959 . S
C1297 H1283 0.961 . S
C1297 C1296 1.502 . S
C1298 H1284 0.960 . S
C1298 H1285 0.961 . S
C1298 H1286 0.959 . S
C1298 C1296 1.561 . S
C1299 C1296 1.526 . S
C1299 C1300 1.396 . S
C1299 C1304 1.390 . S
C1300 C1294 1.465 . S
C1300 C1299 1.396 . S
C1300 C1301 1.399 . S
C1301 H1287 0.929 . S
C1301 C1300 1.399 . S
C1301 C1302 1.385 . S
C1302 H1288 0.931 . S
C1302 C1301 1.385 . S
C1302 C1303 1.389 . S
C1303 C1302 1.389 . S
C1303 C1304 1.387 . S
C1304 H1289 0.930 . S
C1304 C1299 1.390 . S
C1304 C1303 1.387 . S
H1305 C1317 0.930 . S
H1306 C1319 0.930 . S
H1307 C1320 0.930 . S
H1308 C1324 0.959 . S
H1309 C1324 0.959 . S
H1310 C1324 0.961 . S
H1311 C1325 0.960 . S
H1312 C1325 0.961 . S
H1313 C1325 0.959 . S
H1314 C1328 0.929 . S
H1315 C1329 0.931 . S
H1316 C1331 0.930 . S
C1317 H1305 0.930 . S
C1317 C1318 1.399 . S
C1317 C1322 1.399 . S
C1318 C1317 1.399 . S
C1318 C1319 1.376 . S
C1319 H1306 0.930 . S
C1319 C1318 1.376 . S
C1319 C1320 1.388 . S
C1320 H1307 0.930 . S
C1320 C1319 1.388 . S
C1320 C1321 1.390 . S
C1321 C1320 1.390 . S
C1321 C1322 1.394 . S
C1321 C1327 1.465 . S
C1322 C1317 1.399 . S
C1322 C1321 1.394 . S
C1322 C1323 1.516 . S
C1323 C1322 1.516 . S
C1323 C1324 1.502 . S
C1323 C1325 1.561 . S
C1323 C1326 1.526 . S
C1324 H1308 0.959 . S
C1324 H1309 0.959 . S
C1324 H1310 0.961 . S
C1324 C1323 1.502 . S
C1325 H1311 0.960 . S
C1325 H1312 0.961 . S
C1325 H1313 0.959 . S
C1325 C1323 1.561 . S
C1326 C1323 1.526 . S
C1326 C1327 1.396 . S
C1326 C1331 1.390 . S
C1327 C1321 1.465 . S
C1327 C1326 1.396 . S
C1327 C1328 1.399 . S
C1328 H1314 0.929 . S
C1328 C1327 1.399 . S
C1328 C1329 1.385 . S
C1329 H1315 0.931 . S
C1329 C1328 1.385 . S
C1329 C1330 1.389 . S
C1330 C1329 1.389 . S
C1330 C1331 1.387 . S
C1331 H1316 0.930 . S
C1331 C1326 1.390 . S
C1331 C1330 1.387 . S
H1332 C1344 0.930 . S
H1333 C1346 0.930 . S
H1334 C1347 0.930 . S
H1335 C1351 0.959 . S
H1336 C1351 0.959 . S
H1337 C1351 0.961 . S
H1338 C1352 0.960 . S
H1339 C1352 0.961 . S
H1340 C1352 0.959 . S
H1341 C1355 0.929 . S
H1342 C1356 0.931 . S
H1343 C1358 0.930 . S
C1344 H1332 0.930 . S
C1344 C1345 1.399 . S
C1344 C1349 1.399 . S
C1345 C1344 1.399 . S
C1345 C1346 1.376 . S
C1346 H1333 0.930 . S
C1346 C1345 1.376 . S
C1346 C1347 1.388 . S
C1347 H1334 0.930 . S
C1347 C1346 1.388 . S
C1347 C1348 1.390 . S
C1348 C1347 1.390 . S
C1348 C1349 1.394 . S
C1348 C1354 1.465 . S
C1349 C1344 1.399 . S
C1349 C1348 1.394 . S
C1349 C1350 1.516 . S
C1350 C1349 1.516 . S
C1350 C1351 1.502 . S
C1350 C1352 1.561 . S
C1350 C1353 1.526 . S
C1351 H1335 0.959 . S
C1351 H1336 0.959 . S
C1351 H1337 0.961 . S
C1351 C1350 1.502 . S
C1352 H1338 0.960 . S
C1352 H1339 0.961 . S
C1352 H1340 0.959 . S
C1352 C1350 1.561 . S
C1353 C1350 1.526 . S
C1353 C1354 1.396 . S
C1353 C1358 1.390 . S
C1354 C1348 1.465 . S
C1354 C1353 1.396 . S
C1354 C1355 1.399 . S
C1355 H1341 0.929 . S
C1355 C1354 1.399 . S
C1355 C1356 1.385 . S
C1356 H1342 0.931 . S
C1356 C1355 1.385 . S
C1356 C1357 1.389 . S
C1357 C1356 1.389 . S
C1357 C1358 1.387 . S
C1358 H1343 0.930 . S
C1358 C1353 1.390 . S
C1358 C1357 1.387 . S
H1359 C1371 0.930 . S
H1360 C1373 0.930 . S
H1361 C1374 0.930 . S
H1362 C1378 0.959 . S
H1363 C1378 0.959 . S
H1364 C1378 0.961 . S
H1365 C1379 0.960 . S
H1366 C1379 0.961 . S
H1367 C1379 0.959 . S
H1368 C1382 0.929 . S
H1369 C1383 0.931 . S
H1370 C1385 0.930 . S
C1371 H1359 0.930 . S
C1371 C1372 1.399 . S
C1371 C1376 1.399 . S
C1372 C1371 1.399 . S
C1372 C1373 1.376 . S
C1373 H1360 0.930 . S
C1373 C1372 1.376 . S
C1373 C1374 1.388 . S
C1374 H1361 0.930 . S
C1374 C1373 1.388 . S
C1374 C1375 1.390 . S
C1375 C1374 1.390 . S
C1375 C1376 1.394 . S
C1375 C1381 1.465 . S
C1376 C1371 1.399 . S
C1376 C1375 1.394 . S
C1376 C1377 1.516 . S
C1377 C1376 1.516 . S
C1377 C1378 1.502 . S
C1377 C1379 1.561 . S
C1377 C1380 1.526 . S
C1378 H1362 0.959 . S
C1378 H1363 0.959 . S
C1378 H1364 0.961 . S
C1378 C1377 1.502 . S
C1379 H1365 0.960 . S
C1379 H1366 0.961 . S
C1379 H1367 0.959 . S
C1379 C1377 1.561 . S
C1380 C1377 1.526 . S
C1380 C1381 1.396 . S
C1380 C1385 1.390 . S
C1381 C1375 1.465 . S
C1381 C1380 1.396 . S
C1381 C1382 1.399 . S
C1382 H1368 0.929 . S
C1382 C1381 1.399 . S
C1382 C1383 1.385 . S
C1383 H1369 0.931 . S
C1383 C1382 1.385 . S
C1383 C1384 1.389 . S
C1384 C1383 1.389 . S
C1384 C1385 1.387 . S
C1385 H1370 0.930 . S
C1385 C1380 1.390 . S
C1385 C1384 1.387 . S
H1386 C1398 0.930 . S
H1387 C1400 0.930 . S
H1388 C1401 0.930 . S
H1389 C1405 0.959 . S
H1390 C1405 0.959 . S
H1391 C1405 0.961 . S
H1392 C1406 0.960 . S
H1393 C1406 0.961 . S
H1394 C1406 0.959 . S
H1395 C1409 0.929 . S
H1396 C1410 0.931 . S
H1397 C1412 0.930 . S
C1398 H1386 0.930 . S
C1398 C1399 1.399 . S
C1398 C1403 1.399 . S
C1399 C1398 1.399 . S
C1399 C1400 1.376 . S
C1400 H1387 0.930 . S
C1400 C1399 1.376 . S
C1400 C1401 1.388 . S
C1401 H1388 0.930 . S
C1401 C1400 1.388 . S
C1401 C1402 1.390 . S
C1402 C1401 1.390 . S
C1402 C1403 1.394 . S
C1402 C1408 1.465 . S
C1403 C1398 1.399 . S
C1403 C1402 1.394 . S
C1403 C1404 1.516 . S
C1404 C1403 1.516 . S
C1404 C1405 1.502 . S
C1404 C1406 1.561 . S
C1404 C1407 1.526 . S
C1405 H1389 0.959 . S
C1405 H1390 0.959 . S
C1405 H1391 0.961 . S
C1405 C1404 1.502 . S
C1406 H1392 0.960 . S
C1406 H1393 0.961 . S
C1406 H1394 0.959 . S
C1406 C1404 1.561 . S
C1407 C1404 1.526 . S
C1407 C1408 1.396 . S
C1407 C1412 1.390 . S
C1408 C1402 1.465 . S
C1408 C1407 1.396 . S
C1408 C1409 1.399 . S
C1409 H1395 0.929 . S
C1409 C1408 1.399 . S
C1409 C1410 1.385 . S
C1410 H1396 0.931 . S
C1410 C1409 1.385 . S
C1410 C1411 1.389 . S
C1411 C1410 1.389 . S
C1411 C1412 1.387 . S
C1412 H1397 0.930 . S
C1412 C1407 1.390 . S
C1412 C1411 1.387 . S
H1413 C1425 0.930 . S
H1414 C1427 0.930 . S
H1415 C1428 0.930 . S
H1416 C1432 0.959 . S
H1417 C1432 0.959 . S
H1418 C1432 0.961 . S
H1419 C1433 0.960 . S
H1420 C1433 0.961 . S
H1421 C1433 0.959 . S
H1422 C1436 0.929 . S
H1423 C1437 0.931 . S
H1424 C1439 0.930 . S
C1425 H1413 0.930 . S
C1425 C1426 1.399 . S
C1425 C1430 1.399 . S
C1426 C1425 1.399 . S
C1426 C1427 1.376 . S
C1427 H1414 0.930 . S
C1427 C1426 1.376 . S
C1427 C1428 1.388 . S
C1428 H1415 0.930 . S
C1428 C1427 1.388 . S
C1428 C1429 1.390 . S
C1429 C1428 1.390 . S
C1429 C1430 1.394 . S
C1429 C1435 1.465 . S
C1430 C1425 1.399 . S
C1430 C1429 1.394 . S
C1430 C1431 1.516 . S
C1431 C1430 1.516 . S
C1431 C1432 1.502 . S
C1431 C1433 1.561 . S
C1431 C1434 1.526 . S
C1432 H1416 0.959 . S
C1432 H1417 0.959 . S
C1432 H1418 0.961 . S
C1432 C1431 1.502 . S
C1433 H1419 0.960 . S
C1433 H1420 0.961 . S
C1433 H1421 0.959 . S
C1433 C1431 1.561 . S
C1434 C1431 1.526 . S
C1434 C1435 1.396 . S
C1434 C1439 1.390 . S
C1435 C1429 1.465 . S
C1435 C1434 1.396 . S
C1435 C1436 1.399 . S
C1436 H1422 0.929 . S
C1436 C1435 1.399 . S
C1436 C1437 1.385 . S
C1437 H1423 0.931 . S
C1437 C1436 1.385 . S
C1437 C1438 1.389 . S
C1438 C1437 1.389 . S
C1438 C1439 1.387 . S
C1439 H1424 0.930 . S
C1439 C1434 1.390 . S
C1439 C1438 1.387 . S
H1440 C1452 0.930 . S
H1441 C1454 0.930 . S
H1442 C1455 0.930 1_565 S
H1443 C1459 0.959 . S
H1444 C1459 0.959 . S
H1445 C1459 0.961 . S
H1446 C1460 0.960 . S
H1447 C1460 0.961 . S
H1448 C1460 0.959 . S
H1449 C1463 0.929 . S
H1450 C1464 0.931 . S
H1451 C1466 0.930 . S
C1452 H1440 0.930 . S
C1452 C1453 1.399 . S
C1452 C1457 1.399 . S
C1453 C1452 1.399 . S
C1453 C1454 1.376 . S
C1454 H1441 0.930 . S
C1454 C1453 1.376 . S
C1454 C1455 1.388 . S
C1455 H1442 0.930 1_545 S
C1455 C1454 1.388 . S
C1455 C1456 1.390 . S
C1456 C1455 1.390 . S
C1456 C1457 1.394 . S
C1456 C1462 1.465 1_545 S
C1457 C1452 1.399 . S
C1457 C1456 1.394 . S
C1457 C1458 1.516 . S
C1458 C1457 1.516 . S
C1458 C1459 1.502 . S
C1458 C1460 1.561 . S
C1458 C1461 1.526 1_545 S
C1459 H1443 0.959 . S
C1459 H1444 0.959 . S
C1459 H1445 0.961 . S
C1459 C1458 1.502 . S
C1460 H1446 0.960 . S
C1460 H1447 0.961 . S
C1460 H1448 0.959 . S
C1460 C1458 1.561 . S
C1461 C1458 1.526 1_565 S
C1461 C1462 1.396 . S
C1461 C1466 1.390 . S
C1462 C1456 1.465 1_565 S
C1462 C1461 1.396 . S
C1462 C1463 1.399 . S
C1463 H1449 0.929 . S
C1463 C1462 1.399 . S
C1463 C1464 1.385 . S
C1464 H1450 0.931 . S
C1464 C1463 1.385 . S
C1464 C1465 1.389 . S
C1465 C1464 1.389 . S
C1465 C1466 1.387 . S
C1466 H1451 0.930 . S
C1466 C1461 1.390 . S
C1466 C1465 1.387 . S
H1467 C1479 0.930 . S
H1468 C1481 0.930 . S
H1469 C1482 0.930 . S
H1470 C1486 0.959 . S
H1471 C1486 0.959 . S
H1472 C1486 0.961 . S
H1473 C1487 0.960 . S
H1474 C1487 0.961 . S
H1475 C1487 0.959 . S
H1476 C1490 0.929 . S
H1477 C1491 0.931 . S
H1478 C1493 0.930 . S
C1479 H1467 0.930 . S
C1479 C1480 1.399 . S
C1479 C1484 1.399 . S
C1480 C1479 1.399 . S
C1480 C1481 1.376 . S
C1481 H1468 0.930 . S
C1481 C1480 1.376 . S
C1481 C1482 1.388 . S
C1482 H1469 0.930 . S
C1482 C1481 1.388 . S
C1482 C1483 1.390 . S
C1483 C1482 1.390 . S
C1483 C1484 1.394 . S
C1483 C1489 1.465 . S
C1484 C1479 1.399 . S
C1484 C1483 1.394 . S
C1484 C1485 1.516 . S
C1485 C1484 1.516 . S
C1485 C1486 1.502 . S
C1485 C1487 1.561 . S
C1485 C1488 1.526 . S
C1486 H1470 0.959 . S
C1486 H1471 0.959 . S
C1486 H1472 0.961 . S
C1486 C1485 1.502 . S
C1487 H1473 0.960 . S
C1487 H1474 0.961 . S
C1487 H1475 0.959 . S
C1487 C1485 1.561 . S
C1488 C1485 1.526 . S
C1488 C1489 1.396 . S
C1488 C1493 1.390 . S
C1489 C1483 1.465 . S
C1489 C1488 1.396 . S
C1489 C1490 1.399 . S
C1490 H1476 0.929 . S
C1490 C1489 1.399 . S
C1490 C1491 1.385 . S
C1491 H1477 0.931 . S
C1491 C1490 1.385 . S
C1491 C1492 1.389 . S
C1492 C1491 1.389 . S
C1492 C1493 1.387 . S
C1493 H1478 0.930 . S
C1493 C1488 1.390 . S
C1493 C1492 1.387 . S
H1494 C1506 0.930 . S
H1495 C1508 0.930 . S
H1496 C1509 0.956 . S
H1497 C1513 0.959 . S
H1498 C1513 0.959 . S
H1499 C1513 0.961 . S
H1500 C1514 0.960 . S
H1501 C1514 0.961 1_655 S
H1502 C1514 0.959 1_655 S
H1503 C1517 0.929 . S
H1504 C1518 0.931 . S
H1505 C1520 0.930 . S
C1506 H1494 0.930 . S
C1506 C1507 1.399 . S
C1506 C1511 1.399 . S
C1507 C1506 1.399 . S
C1507 C1508 1.376 . S
C1508 H1495 0.930 . S
C1508 C1507 1.376 . S
C1508 C1509 1.388 . S
C1509 H1496 0.956 . S
C1509 C1508 1.388 . S
C1509 C1510 1.390 . S
C1510 C1509 1.390 . S
C1510 C1511 1.394 . S
C1510 C1516 1.465 1_455 S
C1511 C1506 1.399 . S
C1511 C1510 1.394 . S
C1511 C1512 1.516 . S
C1512 C1511 1.516 . S
C1512 C1513 1.502 . S
C1512 C1514 1.561 . S
C1512 C1515 1.526 1_455 S
C1513 H1497 0.959 . S
C1513 H1498 0.959 . S
C1513 H1499 0.961 . S
C1513 C1512 1.502 . S
C1514 H1500 0.960 . S
C1514 H1501 0.961 1_455 S
C1514 H1502 0.959 1_455 S
C1514 C1512 1.561 . S
C1515 C1512 1.526 1_655 S
C1515 C1516 1.396 . S
C1515 C1520 1.390 . S
C1516 C1510 1.465 1_655 S
C1516 C1515 1.396 . S
C1516 C1517 1.399 . S
C1517 H1503 0.929 . S
C1517 C1516 1.399 . S
C1517 C1518 1.385 . S
C1518 H1504 0.931 . S
C1518 C1517 1.385 . S
C1518 C1519 1.389 . S
C1519 C1518 1.389 . S
C1519 C1520 1.387 . S
C1520 H1505 0.930 . S
C1520 C1515 1.390 . S
C1520 C1519 1.387 . S
H1521 C1533 0.930 . S
H1522 C1535 0.930 . S
H1523 C1536 0.930 . S
H1524 C1540 0.959 . S
H1525 C1540 0.959 . S
H1526 C1540 0.961 . S
H1527 C1541 0.960 . S
H1528 C1541 0.961 . S
H1529 C1541 0.959 . S
H1530 C1544 0.929 1_565 S
H1531 C1545 0.931 . S
H1532 C1547 0.930 . S
C1533 H1521 0.930 . S
C1533 C1534 1.399 . S
C1533 C1538 1.399 . S
C1534 C1533 1.399 . S
C1534 C1535 1.376 . S
C1535 H1522 0.930 . S
C1535 C1534 1.376 . S
C1535 C1536 1.388 . S
C1536 H1523 0.930 . S
C1536 C1535 1.388 . S
C1536 C1537 1.390 . S
C1537 C1536 1.390 . S
C1537 C1538 1.394 . S
C1537 C1543 1.465 1_565 S
C1538 C1533 1.399 . S
C1538 C1537 1.394 . S
C1538 C1539 1.516 1_565 S
C1539 C1538 1.516 1_545 S
C1539 C1540 1.502 . S
C1539 C1541 1.561 . S
C1539 C1542 1.526 . S
C1540 H1524 0.959 . S
C1540 H1525 0.959 . S
C1540 H1526 0.961 . S
C1540 C1539 1.502 . S
C1541 H1527 0.960 . S
C1541 H1528 0.961 . S
C1541 H1529 0.959 . S
C1541 C1539 1.561 . S
C1542 C1539 1.526 . S
C1542 C1543 1.396 . S
C1542 C1547 1.390 . S
C1543 C1537 1.465 1_545 S
C1543 C1542 1.396 . S
C1543 C1544 1.399 . S
C1544 H1530 0.929 1_545 S
C1544 C1543 1.399 . S
C1544 C1545 1.385 . S
C1545 H1531 0.931 . S
C1545 C1544 1.385 . S
C1545 C1546 1.389 . S
C1546 C1545 1.389 . S
C1546 C1547 1.387 . S
C1547 H1532 0.930 . S
C1547 C1542 1.390 . S
C1547 C1546 1.387 . S
H1548 C1560 0.930 . S
H1549 C1562 0.930 . S
H1550 C1563 0.930 . S
H1551 C1567 0.959 . S
H1552 C1567 0.959 . S
H1553 C1567 0.961 . S
H1554 C1568 0.960 . S
H1555 C1568 0.961 . S
H1556 C1568 0.959 . S
H1557 C1571 0.929 . S
H1558 C1572 0.931 . S
H1559 C1574 0.930 . S
C1560 H1548 0.930 . S
C1560 C1561 1.399 . S
C1560 C1565 1.399 . S
C1561 C1560 1.399 . S
C1561 C1562 1.376 . S
C1562 H1549 0.930 . S
C1562 C1561 1.376 . S
C1562 C1563 1.388 . S
C1563 H1550 0.930 . S
C1563 C1562 1.388 . S
C1563 C1564 1.390 . S
C1564 C1563 1.390 . S
C1564 C1565 1.394 . S
C1564 C1570 1.465 . S
C1565 C1560 1.399 . S
C1565 C1564 1.394 . S
C1565 C1566 1.516 . S
C1566 C1565 1.516 . S
C1566 C1567 1.502 . S
C1566 C1568 1.561 . S
C1566 C1569 1.526 . S
C1567 H1551 0.959 . S
C1567 H1552 0.959 . S
C1567 H1553 0.961 . S
C1567 C1566 1.502 . S
C1568 H1554 0.960 . S
C1568 H1555 0.961 . S
C1568 H1556 0.959 . S
C1568 C1566 1.561 . S
C1569 C1566 1.526 . S
C1569 C1570 1.396 . S
C1569 C1574 1.390 . S
C1570 C1564 1.465 . S
C1570 C1569 1.396 . S
C1570 C1571 1.399 . S
C1571 H1557 0.929 . S
C1571 C1570 1.399 . S
C1571 C1572 1.385 . S
C1572 H1558 0.931 . S
C1572 C1571 1.385 . S
C1572 C1573 1.389 . S
C1573 C1572 1.389 . S
C1573 C1574 1.387 . S
C1574 H1559 0.930 . S
C1574 C1569 1.390 . S
C1574 C1573 1.387 . S
H1575 C1587 0.930 . S
H1576 C1589 0.930 . S
H1577 C1590 0.930 . S
H1578 C1594 0.959 . S
H1579 C1594 0.959 . S
H1580 C1594 0.961 . S
H1581 C1595 0.960 . S
H1582 C1595 0.961 . S
H1583 C1595 0.959 . S
H1584 C1598 0.929 1_655 S
H1585 C1599 0.931 . S
H1586 C1601 0.930 . S
C1587 H1575 0.930 . S
C1587 C1588 1.399 . S
C1587 C1592 1.399 . S
C1588 C1587 1.399 . S
C1588 C1589 1.376 . S
C1589 H1576 0.930 . S
C1589 C1588 1.376 . S
C1589 C1590 1.388 . S
C1590 H1577 0.930 . S
C1590 C1589 1.388 . S
C1590 C1591 1.390 . S
C1591 C1590 1.390 . S
C1591 C1592 1.394 . S
C1591 C1597 1.465 1_655 S
C1592 C1587 1.399 . S
C1592 C1591 1.394 . S
C1592 C1593 1.516 1_655 S
C1593 C1592 1.516 1_455 S
C1593 C1594 1.502 . S
C1593 C1595 1.561 . S
C1593 C1596 1.526 . S
C1594 H1578 0.959 . S
C1594 H1579 0.959 . S
C1594 H1580 0.961 . S
C1594 C1593 1.502 . S
C1595 H1581 0.960 . S
C1595 H1582 0.961 . S
C1595 H1583 0.959 . S
C1595 C1593 1.561 . S
C1596 C1593 1.526 . S
C1596 C1597 1.396 . S
C1596 C1601 1.390 . S
C1597 C1591 1.465 1_455 S
C1597 C1596 1.396 . S
C1597 C1598 1.399 . S
C1598 H1584 0.929 1_455 S
C1598 C1597 1.399 . S
C1598 C1599 1.385 . S
C1599 H1585 0.931 . S
C1599 C1598 1.385 . S
C1599 C1600 1.389 . S
C1600 C1599 1.389 . S
C1600 C1601 1.387 . S
C1601 H1586 0.930 . S
C1601 C1596 1.390 . S
C1601 C1600 1.387 . S
H1602 C1614 0.930 . S
H1603 C1616 0.930 . S
H1604 C1617 0.930 . S
H1605 C1621 0.959 . S
H1606 C1621 0.959 . S
H1607 C1621 0.961 . S
H1608 C1622 0.960 . S
H1609 C1622 0.961 . S
H1610 C1622 0.959 . S
H1611 C1625 0.931 . S
H1612 C1626 0.931 . S
H1613 C1628 0.930 . S
C1614 H1602 0.930 . S
C1614 C1615 1.399 . S
C1614 C1619 1.399 . S
C1615 C1614 1.399 . S
C1615 C1616 1.376 . S
C1616 H1603 0.930 . S
C1616 C1615 1.376 . S
C1616 C1617 1.388 . S
C1617 H1604 0.930 . S
C1617 C1616 1.388 . S
C1617 C1618 1.390 . S
C1618 C1617 1.390 . S
C1618 C1619 1.394 . S
C1618 C1624 1.465 1_565 S
C1619 C1614 1.399 . S
C1619 C1618 1.394 . S
C1619 C1620 1.516 1_565 S
C1620 C1619 1.516 1_545 S
C1620 C1621 1.502 . S
C1620 C1622 1.561 . S
C1620 C1623 1.526 . S
C1621 H1605 0.959 . S
C1621 H1606 0.959 . S
C1621 H1607 0.961 . S
C1621 C1620 1.502 . S
C1622 H1608 0.960 . S
C1622 H1609 0.961 . S
C1622 H1610 0.959 . S
C1622 C1620 1.561 . S
C1623 C1620 1.526 . S
C1623 C1624 1.396 . S
C1623 C1628 1.390 . S
C1624 C1618 1.465 1_545 S
C1624 C1623 1.396 . S
C1624 C1625 1.399 . S
C1625 H1611 0.931 . S
C1625 C1624 1.399 . S
C1625 C1626 1.385 . S
C1626 H1612 0.931 . S
C1626 C1625 1.385 . S
C1626 C1627 1.389 . S
C1627 C1626 1.389 . S
C1627 C1628 1.387 . S
C1628 H1613 0.930 . S
C1628 C1623 1.390 . S
C1628 C1627 1.387 . S
H1629 C1641 0.930 . S
H1630 C1643 0.930 . S
H1631 C1644 0.930 . S
H1632 C1648 0.959 . S
H1633 C1648 0.959 . S
H1634 C1648 0.961 . S
H1635 C1649 0.960 . S
H1636 C1649 0.961 . S
H1637 C1649 0.959 . S
H1638 C1652 0.929 . S
H1639 C1653 0.931 . S
H1640 C1655 0.930 . S
C1641 H1629 0.930 . S
C1641 C1642 1.399 . S
C1641 C1646 1.399 . S
C1642 C1641 1.399 . S
C1642 C1643 1.376 . S
C1643 H1630 0.930 . S
C1643 C1642 1.376 . S
C1643 C1644 1.388 . S
C1644 H1631 0.930 . S
C1644 C1643 1.388 . S
C1644 C1645 1.390 . S
C1645 C1644 1.390 . S
C1645 C1646 1.394 . S
C1645 C1651 1.465 . S
C1646 C1641 1.399 . S
C1646 C1645 1.394 . S
C1646 C1647 1.516 . S
C1647 C1646 1.516 . S
C1647 C1648 1.502 . S
C1647 C1649 1.561 . S
C1647 C1650 1.526 . S
C1648 H1632 0.959 . S
C1648 H1633 0.959 . S
C1648 H1634 0.961 . S
C1648 C1647 1.502 . S
C1649 H1635 0.960 . S
C1649 H1636 0.961 . S
C1649 H1637 0.959 . S
C1649 C1647 1.561 . S
C1650 C1647 1.526 . S
C1650 C1651 1.396 . S
C1650 C1655 1.390 . S
C1651 C1645 1.465 . S
C1651 C1650 1.396 . S
C1651 C1652 1.399 . S
C1652 H1638 0.929 . S
C1652 C1651 1.399 . S
C1652 C1653 1.385 . S
C1653 H1639 0.931 . S
C1653 C1652 1.385 . S
C1653 C1654 1.389 . S
C1654 C1653 1.389 . S
C1654 C1655 1.387 . S
C1655 H1640 0.930 . S
C1655 C1650 1.390 . S
C1655 C1654 1.387 . S
H1656 C1668 0.930 . S
H1657 C1670 0.930 . S
H1658 C1671 0.930 . S
H1659 C1675 0.959 . S
H1660 C1675 0.959 . S
H1661 C1675 0.961 . S
H1662 C1676 0.975 . S
H1663 C1676 0.961 . S
H1664 C1676 0.959 . S
H1665 C1679 0.929 1_455 S
H1666 C1680 0.931 . S
H1667 C1682 0.930 . S
C1668 H1656 0.930 . S
C1668 C1669 1.399 . S
C1668 C1673 1.399 . S
C1669 C1668 1.399 . S
C1669 C1670 1.376 . S
C1670 H1657 0.930 . S
C1670 C1669 1.376 . S
C1670 C1671 1.388 . S
C1671 H1658 0.930 . S
C1671 C1670 1.388 . S
C1671 C1672 1.390 . S
C1672 C1671 1.390 . S
C1672 C1673 1.394 . S
C1672 C1678 1.465 1_455 S
C1673 C1668 1.399 . S
C1673 C1672 1.394 . S
C1673 C1674 1.516 1_455 S
C1674 C1673 1.516 1_655 S
C1674 C1675 1.502 . S
C1674 C1676 1.561 . S
C1674 C1677 1.526 . S
C1675 H1659 0.959 . S
C1675 H1660 0.959 . S
C1675 H1661 0.961 . S
C1675 C1674 1.502 . S
C1676 H1662 0.975 . S
C1676 H1663 0.961 . S
C1676 H1664 0.959 . S
C1676 C1674 1.561 . S
C1677 C1674 1.526 . S
C1677 C1678 1.396 . S
C1677 C1682 1.390 . S
C1678 C1672 1.465 1_655 S
C1678 C1677 1.396 . S
C1678 C1679 1.399 . S
C1679 H1665 0.929 1_655 S
C1679 C1678 1.399 . S
C1679 C1680 1.385 . S
C1680 H1666 0.931 . S
C1680 C1679 1.385 . S
C1680 C1681 1.389 . S
C1681 C1680 1.389 . S
C1681 C1682 1.387 . S
C1682 H1667 0.930 . S
C1682 C1677 1.390 . S
C1682 C1681 1.387 . S
H1683 C1695 0.930 . S
H1684 C1697 0.930 . S
H1685 C1698 0.930 1_565 S
H1686 C1702 0.959 . S
H1687 C1702 0.959 . S
H1688 C1702 0.961 . S
H1689 C1703 0.960 . S
H1690 C1703 0.961 . S
H1691 C1703 0.959 . S
H1692 C1706 0.929 . S
H1693 C1707 0.931 . S
H1694 C1709 0.930 . S
C1695 H1683 0.930 . S
C1695 C1696 1.399 . S
C1695 C1700 1.399 . S
C1696 C1695 1.399 . S
C1696 C1697 1.376 . S
C1697 H1684 0.930 . S
C1697 C1696 1.376 . S
C1697 C1698 1.388 . S
C1698 H1685 0.930 1_545 S
C1698 C1697 1.388 . S
C1698 C1699 1.390 . S
C1699 C1698 1.390 . S
C1699 C1700 1.394 . S
C1699 C1705 1.465 1_545 S
C1700 C1695 1.399 . S
C1700 C1699 1.394 . S
C1700 C1701 1.516 . S
C1701 C1700 1.516 . S
C1701 C1702 1.502 . S
C1701 C1703 1.561 . S
C1701 C1704 1.526 1_545 S
C1702 H1686 0.959 . S
C1702 H1687 0.959 . S
C1702 H1688 0.961 . S
C1702 C1701 1.502 . S
C1703 H1689 0.960 . S
C1703 H1690 0.961 . S
C1703 H1691 0.959 . S
C1703 C1701 1.561 . S
C1704 C1701 1.526 1_565 S
C1704 C1705 1.396 . S
C1704 C1709 1.390 . S
C1705 C1699 1.465 1_565 S
C1705 C1704 1.396 . S
C1705 C1706 1.399 . S
C1706 H1692 0.929 . S
C1706 C1705 1.399 . S
C1706 C1707 1.385 . S
C1707 H1693 0.931 . S
C1707 C1706 1.385 . S
C1707 C1708 1.389 . S
C1708 C1707 1.389 . S
C1708 C1709 1.387 . S
C1709 H1694 0.930 . S
C1709 C1704 1.390 . S
C1709 C1708 1.387 . S
H1710 C1722 0.930 . S
H1711 C1724 0.930 . S
H1712 C1725 0.930 . S
H1713 C1729 0.959 . S
H1714 C1729 0.959 . S
H1715 C1729 0.961 . S
H1716 C1730 0.960 . S
H1717 C1730 0.961 . S
H1718 C1730 0.959 . S
H1719 C1733 0.929 . S
H1720 C1734 0.931 . S
H1721 C1736 0.930 . S
C1722 H1710 0.930 . S
C1722 C1723 1.399 . S
C1722 C1727 1.399 . S
C1723 C1722 1.399 . S
C1723 C1724 1.376 . S
C1724 H1711 0.930 . S
C1724 C1723 1.376 . S
C1724 C1725 1.388 . S
C1725 H1712 0.930 . S
C1725 C1724 1.388 . S
C1725 C1726 1.390 . S
C1726 C1725 1.390 . S
C1726 C1727 1.394 . S
C1726 C1732 1.465 . S
C1727 C1722 1.399 . S
C1727 C1726 1.394 . S
C1727 C1728 1.516 . S
C1728 C1727 1.516 . S
C1728 C1729 1.502 . S
C1728 C1730 1.561 . S
C1728 C1731 1.526 . S
C1729 H1713 0.959 . S
C1729 H1714 0.959 . S
C1729 H1715 0.961 . S
C1729 C1728 1.502 . S
C1730 H1716 0.960 . S
C1730 H1717 0.961 . S
C1730 H1718 0.959 . S
C1730 C1728 1.561 . S
C1731 C1728 1.526 . S
C1731 C1732 1.396 . S
C1731 C1736 1.390 . S
C1732 C1726 1.465 . S
C1732 C1731 1.396 . S
C1732 C1733 1.399 . S
C1733 H1719 0.929 . S
C1733 C1732 1.399 . S
C1733 C1734 1.385 . S
C1734 H1720 0.931 . S
C1734 C1733 1.385 . S
C1734 C1735 1.389 . S
C1735 C1734 1.389 . S
C1735 C1736 1.387 . S
C1736 H1721 0.930 . S
C1736 C1731 1.390 . S
C1736 C1735 1.387 . S
H1737 C1749 0.930 . S
H1738 C1751 0.930 . S
H1739 C1752 0.930 1_655 S
H1740 C1756 0.959 . S
H1741 C1756 0.959 . S
H1742 C1756 0.961 . S
H1743 C1757 0.960 . S
H1744 C1757 0.961 1_655 S
H1745 C1757 0.959 1_655 S
H1746 C1760 0.929 . S
H1747 C1761 0.931 . S
H1748 C1763 0.930 . S
C1749 H1737 0.930 . S
C1749 C1750 1.399 . S
C1749 C1754 1.399 . S
C1750 C1749 1.399 . S
C1750 C1751 1.376 . S
C1751 H1738 0.930 . S
C1751 C1750 1.376 . S
C1751 C1752 1.388 . S
C1752 H1739 0.930 1_455 S
C1752 C1751 1.388 . S
C1752 C1753 1.390 . S
C1753 C1752 1.390 . S
C1753 C1754 1.394 . S
C1753 C1759 1.465 1_455 S
C1754 C1749 1.399 . S
C1754 C1753 1.394 . S
C1754 C1755 1.516 . S
C1755 C1754 1.516 . S
C1755 C1756 1.502 . S
C1755 C1757 1.561 . S
C1755 C1758 1.526 1_455 S
C1756 H1740 0.959 . S
C1756 H1741 0.959 . S
C1756 H1742 0.961 . S
C1756 C1755 1.502 . S
C1757 H1743 0.960 . S
C1757 H1744 0.961 1_455 S
C1757 H1745 0.959 1_455 S
C1757 C1755 1.561 . S
C1758 C1755 1.526 1_655 S
C1758 C1759 1.396 . S
C1758 C1763 1.390 . S
C1759 C1753 1.465 1_655 S
C1759 C1758 1.396 . S
C1759 C1760 1.399 . S
C1760 H1746 0.929 . S
C1760 C1759 1.399 . S
C1760 C1761 1.385 . S
C1761 H1747 0.931 . S
C1761 C1760 1.385 . S
C1761 C1762 1.389 . S
C1762 C1761 1.389 . S
C1762 C1763 1.387 . S
C1763 H1748 0.930 . S
C1763 C1758 1.390 . S
C1763 C1762 1.387 . S
H1764 C1776 0.930 . S
H1765 C1778 0.930 . S
H1766 C1779 0.930 . S
H1767 C1783 0.959 . S
H1768 C1783 0.959 . S
H1769 C1783 0.961 . S
H1770 C1784 0.960 . S
H1771 C1784 0.961 . S
H1772 C1784 0.959 . S
H1773 C1787 0.929 . S
H1774 C1788 0.931 . S
H1775 C1790 0.930 . S
C1776 H1764 0.930 . S
C1776 C1777 1.399 . S
C1776 C1781 1.399 . S
C1777 C1776 1.399 . S
C1777 C1778 1.376 . S
C1778 H1765 0.930 . S
C1778 C1777 1.376 . S
C1778 C1779 1.388 . S
C1779 H1766 0.930 . S
C1779 C1778 1.388 . S
C1779 C1780 1.390 . S
C1780 C1779 1.390 . S
C1780 C1781 1.394 . S
C1780 C1786 1.465 . S
C1781 C1776 1.399 . S
C1781 C1780 1.394 . S
C1781 C1782 1.516 . S
C1782 C1781 1.516 . S
C1782 C1783 1.502 . S
C1782 C1784 1.561 . S
C1782 C1785 1.526 . S
C1783 H1767 0.959 . S
C1783 H1768 0.959 . S
C1783 H1769 0.961 . S
C1783 C1782 1.502 . S
C1784 H1770 0.960 . S
C1784 H1771 0.961 . S
C1784 H1772 0.959 . S
C1784 C1782 1.561 . S
C1785 C1782 1.526 . S
C1785 C1786 1.396 . S
C1785 C1790 1.390 . S
C1786 C1780 1.465 . S
C1786 C1785 1.396 . S
C1786 C1787 1.399 . S
C1787 H1773 0.929 . S
C1787 C1786 1.399 . S
C1787 C1788 1.385 . S
C1788 H1774 0.931 . S
C1788 C1787 1.385 . S
C1788 C1789 1.389 . S
C1789 C1788 1.389 . S
C1789 C1790 1.387 . S
C1790 H1775 0.930 . S
C1790 C1785 1.390 . S
C1790 C1789 1.387 . S
H1791 C1803 0.930 . S
H1792 C1805 0.930 . S
H1793 C1806 0.930 . S
H1794 C1810 0.959 . S
H1795 C1810 0.959 . S
H1796 C1810 0.961 . S
H1797 C1811 0.960 . S
H1798 C1811 0.961 . S
H1799 C1811 0.959 . S
H1800 C1814 0.929 . S
H1801 C1815 0.931 . S
H1802 C1817 0.930 . S
C1803 H1791 0.930 . S
C1803 C1804 1.399 . S
C1803 C1808 1.399 . S
C1804 C1803 1.399 . S
C1804 C1805 1.376 . S
C1805 H1792 0.930 . S
C1805 C1804 1.376 . S
C1805 C1806 1.388 . S
C1806 H1793 0.930 . S
C1806 C1805 1.388 . S
C1806 C1807 1.390 . S
C1807 C1806 1.390 . S
C1807 C1808 1.394 . S
C1807 C1813 1.465 . S
C1808 C1803 1.399 . S
C1808 C1807 1.394 . S
C1808 C1809 1.516 . S
C1809 C1808 1.516 . S
C1809 C1810 1.502 . S
C1809 C1811 1.561 . S
C1809 C1812 1.526 . S
C1810 H1794 0.959 . S
C1810 H1795 0.959 . S
C1810 H1796 0.961 . S
C1810 C1809 1.502 . S
C1811 H1797 0.960 . S
C1811 H1798 0.961 . S
C1811 H1799 0.959 . S
C1811 C1809 1.561 . S
C1812 C1809 1.526 . S
C1812 C1813 1.396 . S
C1812 C1817 1.390 . S
C1813 C1807 1.465 . S
C1813 C1812 1.396 . S
C1813 C1814 1.399 . S
C1814 H1800 0.929 . S
C1814 C1813 1.399 . S
C1814 C1815 1.385 . S
C1815 H1801 0.931 . S
C1815 C1814 1.385 . S
C1815 C1816 1.389 . S
C1816 C1815 1.389 . S
C1816 C1817 1.387 . S
C1817 H1802 0.930 . S
C1817 C1812 1.390 . S
C1817 C1816 1.387 . S
H1818 C1830 0.930 . S
H1819 C1832 0.930 . S
H1820 C1833 0.930 . S
H1821 C1837 0.959 . S
H1822 C1837 0.959 . S
H1823 C1837 0.961 . S
H1824 C1838 0.960 . S
H1825 C1838 0.961 . S
H1826 C1838 0.959 . S
H1827 C1841 0.929 . S
H1828 C1842 0.931 . S
H1829 C1844 0.930 . S
C1830 H1818 0.930 . S
C1830 C1831 1.399 . S
C1830 C1835 1.399 . S
C1831 C1830 1.399 . S
C1831 C1832 1.376 . S
C1832 H1819 0.930 . S
C1832 C1831 1.376 . S
C1832 C1833 1.388 . S
C1833 H1820 0.930 . S
C1833 C1832 1.388 . S
C1833 C1834 1.390 . S
C1834 C1833 1.390 . S
C1834 C1835 1.394 . S
C1834 C1840 1.465 . S
C1835 C1830 1.399 . S
C1835 C1834 1.394 . S
C1835 C1836 1.516 . S
C1836 C1835 1.516 . S
C1836 C1837 1.502 . S
C1836 C1838 1.561 . S
C1836 C1839 1.526 . S
C1837 H1821 0.959 . S
C1837 H1822 0.959 . S
C1837 H1823 0.961 . S
C1837 C1836 1.502 . S
C1838 H1824 0.960 . S
C1838 H1825 0.961 . S
C1838 H1826 0.959 . S
C1838 C1836 1.561 . S
C1839 C1836 1.526 . S
C1839 C1840 1.396 . S
C1839 C1844 1.390 . S
C1840 C1834 1.465 . S
C1840 C1839 1.396 . S
C1840 C1841 1.399 . S
C1841 H1827 0.929 . S
C1841 C1840 1.399 . S
C1841 C1842 1.385 . S
C1842 H1828 0.931 . S
C1842 C1841 1.385 . S
C1842 C1843 1.389 . S
C1843 C1842 1.389 . S
C1843 C1844 1.387 . S
C1844 H1829 0.930 . S
C1844 C1839 1.390 . S
C1844 C1843 1.387 . S
H1845 C1857 0.930 . S
H1846 C1859 0.930 . S
H1847 C1860 0.930 . S
H1848 C1864 0.959 . S
H1849 C1864 0.959 . S
H1850 C1864 0.961 . S
H1851 C1865 0.960 . S
H1852 C1865 0.961 . S
H1853 C1865 0.959 . S
H1854 C1868 0.929 . S
H1855 C1869 0.931 . S
H1856 C1871 0.930 . S
C1857 H1845 0.930 . S
C1857 C1858 1.399 . S
C1857 C1862 1.399 . S
C1858 C1857 1.399 . S
C1858 C1859 1.376 . S
C1859 H1846 0.930 . S
C1859 C1858 1.376 . S
C1859 C1860 1.388 . S
C1860 H1847 0.930 . S
C1860 C1859 1.388 . S
C1860 C1861 1.390 . S
C1861 C1860 1.390 . S
C1861 C1862 1.394 . S
C1861 C1867 1.465 . S
C1862 C1857 1.399 . S
C1862 C1861 1.394 . S
C1862 C1863 1.516 . S
C1863 C1862 1.516 . S
C1863 C1864 1.502 . S
C1863 C1865 1.561 . S
C1863 C1866 1.526 . S
C1864 H1848 0.959 . S
C1864 H1849 0.959 . S
C1864 H1850 0.961 . S
C1864 C1863 1.502 . S
C1865 H1851 0.960 . S
C1865 H1852 0.961 . S
C1865 H1853 0.959 . S
C1865 C1863 1.561 . S
C1866 C1863 1.526 . S
C1866 C1867 1.396 . S
C1866 C1871 1.390 . S
C1867 C1861 1.465 . S
C1867 C1866 1.396 . S
C1867 C1868 1.399 . S
C1868 H1854 0.929 . S
C1868 C1867 1.399 . S
C1868 C1869 1.385 . S
C1869 H1855 0.931 . S
C1869 C1868 1.385 . S
C1869 C1870 1.389 . S
C1870 C1869 1.389 . S
C1870 C1871 1.387 . S
C1871 H1856 0.930 . S
C1871 C1866 1.390 . S
C1871 C1870 1.387 . S
H1872 C1884 0.930 . S
H1873 C1886 0.930 . S
H1874 C1887 0.930 . S
H1875 C1891 0.959 . S
H1876 C1891 0.959 . S
H1877 C1891 0.961 . S
H1878 C1892 0.960 . S
H1879 C1892 0.961 . S
H1880 C1892 0.959 . S
H1881 C1895 0.929 . S
H1882 C1896 0.931 . S
H1883 C1898 0.930 . S
C1884 H1872 0.930 . S
C1884 C1885 1.399 . S
C1884 C1889 1.399 . S
C1885 C1884 1.399 . S
C1885 C1886 1.376 . S
C1886 H1873 0.930 . S
C1886 C1885 1.376 . S
C1886 C1887 1.388 . S
C1887 H1874 0.930 . S
C1887 C1886 1.388 . S
C1887 C1888 1.390 . S
C1888 C1887 1.390 . S
C1888 C1889 1.394 . S
C1888 C1894 1.465 . S
C1889 C1884 1.399 . S
C1889 C1888 1.394 . S
C1889 C1890 1.516 . S
C1890 C1889 1.516 . S
C1890 C1891 1.502 . S
C1890 C1892 1.561 . S
C1890 C1893 1.526 . S
C1891 H1875 0.959 . S
C1891 H1876 0.959 . S
C1891 H1877 0.961 . S
C1891 C1890 1.502 . S
C1892 H1878 0.960 . S
C1892 H1879 0.961 . S
C1892 H1880 0.959 . S
C1892 C1890 1.561 . S
C1893 C1890 1.526 . S
C1893 C1894 1.396 . S
C1893 C1898 1.390 . S
C1894 C1888 1.465 . S
C1894 C1893 1.396 . S
C1894 C1895 1.399 . S
C1895 H1881 0.929 . S
C1895 C1894 1.399 . S
C1895 C1896 1.385 . S
C1896 H1882 0.931 . S
C1896 C1895 1.385 . S
C1896 C1897 1.389 . S
C1897 C1896 1.389 . S
C1897 C1898 1.387 . S
C1898 H1883 0.930 . S
C1898 C1893 1.390 . S
C1898 C1897 1.387 . S
H1899 C1911 0.930 . S
H1900 C1913 0.930 . S
H1901 C1914 0.930 . S
H1902 C1918 0.959 . S
H1903 C1918 0.959 . S
H1904 C1918 0.961 . S
H1905 C1919 0.960 . S
H1906 C1919 0.961 . S
H1907 C1919 0.959 . S
H1908 C1922 0.929 . S
H1909 C1923 0.931 . S
H1910 C1925 0.930 . S
C1911 H1899 0.930 . S
C1911 C1912 1.399 . S
C1911 C1916 1.399 . S
C1912 C1911 1.399 . S
C1912 C1913 1.376 . S
C1913 H1900 0.930 . S
C1913 C1912 1.376 . S
C1913 C1914 1.388 . S
C1914 H1901 0.930 . S
C1914 C1913 1.388 . S
C1914 C1915 1.390 . S
C1915 C1914 1.390 . S
C1915 C1916 1.394 . S
C1915 C1921 1.465 . S
C1916 C1911 1.399 . S
C1916 C1915 1.394 . S
C1916 C1917 1.516 . S
C1917 C1916 1.516 . S
C1917 C1918 1.502 . S
C1917 C1919 1.561 . S
C1917 C1920 1.526 . S
C1918 H1902 0.959 . S
C1918 H1903 0.959 . S
C1918 H1904 0.961 . S
C1918 C1917 1.502 . S
C1919 H1905 0.960 . S
C1919 H1906 0.961 . S
C1919 H1907 0.959 . S
C1919 C1917 1.561 . S
C1920 C1917 1.526 . S
C1920 C1921 1.396 . S
C1920 C1925 1.390 . S
C1921 C1915 1.465 . S
C1921 C1920 1.396 . S
C1921 C1922 1.399 . S
C1922 H1908 0.929 . S
C1922 C1921 1.399 . S
C1922 C1923 1.385 . S
C1923 H1909 0.931 . S
C1923 C1922 1.385 . S
C1923 C1924 1.389 . S
C1924 C1923 1.389 . S
C1924 C1925 1.387 . S
C1925 H1910 0.930 . S
C1925 C1920 1.390 . S
C1925 C1924 1.387 . S
H1926 C1938 0.930 . S
H1927 C1940 0.930 . S
H1928 C1941 0.930 . S
H1929 C1945 0.959 . S
H1930 C1945 0.959 . S
H1931 C1945 0.961 . S
H1932 C1946 0.960 . S
H1933 C1946 0.961 . S
H1934 C1946 0.959 . S
H1935 C1949 0.929 . S
H1936 C1950 0.931 . S
H1937 C1952 0.930 . S
C1938 H1926 0.930 . S
C1938 C1939 1.399 . S
C1938 C1943 1.399 . S
C1939 C1938 1.399 . S
C1939 C1940 1.376 . S
C1940 H1927 0.930 . S
C1940 C1939 1.376 . S
C1940 C1941 1.388 . S
C1941 H1928 0.930 . S
C1941 C1940 1.388 . S
C1941 C1942 1.390 . S
C1942 C1941 1.390 . S
C1942 C1943 1.394 . S
C1942 C1948 1.465 . S
C1943 C1938 1.399 . S
C1943 C1942 1.394 . S
C1943 C1944 1.516 . S
C1944 C1943 1.516 . S
C1944 C1945 1.502 . S
C1944 C1946 1.561 . S
C1944 C1947 1.526 . S
C1945 H1929 0.959 . S
C1945 H1930 0.959 . S
C1945 H1931 0.961 . S
C1945 C1944 1.502 . S
C1946 H1932 0.960 . S
C1946 H1933 0.961 . S
C1946 H1934 0.959 . S
C1946 C1944 1.561 . S
C1947 C1944 1.526 . S
C1947 C1948 1.396 . S
C1947 C1952 1.390 . S
C1948 C1942 1.465 . S
C1948 C1947 1.396 . S
C1948 C1949 1.399 . S
C1949 H1935 0.929 . S
C1949 C1948 1.399 . S
C1949 C1950 1.385 . S
C1950 H1936 0.931 . S
C1950 C1949 1.385 . S
C1950 C1951 1.389 . S
C1951 C1950 1.389 . S
C1951 C1952 1.387 . S
C1952 H1937 0.930 . S
C1952 C1947 1.390 . S
C1952 C1951 1.387 . S
H1953 C1965 0.930 . S
H1954 C1967 0.930 . S
H1955 C1968 0.930 . S
H1956 C1972 0.959 . S
H1957 C1972 0.959 . S
H1958 C1972 0.961 . S
H1959 C1973 0.960 . S
H1960 C1973 0.961 . S
H1961 C1973 0.959 . S
H1962 C1976 0.929 . S
H1963 C1977 0.931 . S
H1964 C1979 0.930 . S
C1965 H1953 0.930 . S
C1965 C1966 1.399 . S
C1965 C1970 1.399 . S
C1966 C1965 1.399 . S
C1966 C1967 1.376 . S
C1967 H1954 0.930 . S
C1967 C1966 1.376 . S
C1967 C1968 1.388 . S
C1968 H1955 0.930 . S
C1968 C1967 1.388 . S
C1968 C1969 1.390 . S
C1969 C1968 1.390 . S
C1969 C1970 1.394 . S
C1969 C1975 1.465 . S
C1970 C1965 1.399 . S
C1970 C1969 1.394 . S
C1970 C1971 1.516 . S
C1971 C1970 1.516 . S
C1971 C1972 1.502 . S
C1971 C1973 1.561 . S
C1971 C1974 1.526 . S
C1972 H1956 0.959 . S
C1972 H1957 0.959 . S
C1972 H1958 0.961 . S
C1972 C1971 1.502 . S
C1973 H1959 0.960 . S
C1973 H1960 0.961 . S
C1973 H1961 0.959 . S
C1973 C1971 1.561 . S
C1974 C1971 1.526 . S
C1974 C1975 1.396 . S
C1974 C1979 1.390 . S
C1975 C1969 1.465 . S
C1975 C1974 1.396 . S
C1975 C1976 1.399 . S
C1976 H1962 0.929 . S
C1976 C1975 1.399 . S
C1976 C1977 1.385 . S
C1977 H1963 0.931 . S
C1977 C1976 1.385 . S
C1977 C1978 1.389 . S
C1978 C1977 1.389 . S
C1978 C1979 1.387 . S
C1979 H1964 0.930 . S
C1979 C1974 1.390 . S
C1979 C1978 1.387 . S
H1980 C1992 0.930 . S
H1981 C1994 0.930 . S
H1982 C1995 0.930 . S
H1983 C1999 0.959 . S
H1984 C1999 0.959 . S
H1985 C1999 0.961 . S
H1986 C2000 0.960 . S
H1987 C2000 0.961 . S
H1988 C2000 0.959 . S
H1989 C2003 0.929 . S
H1990 C2004 0.931 . S
H1991 C2006 0.930 . S
C1992 H1980 0.930 . S
C1992 C1993 1.399 . S
C1992 C1997 1.399 . S
C1993 C1992 1.399 . S
C1993 C1994 1.376 . S
C1994 H1981 0.930 . S
C1994 C1993 1.376 . S
C1994 C1995 1.388 . S
C1995 H1982 0.930 . S
C1995 C1994 1.388 . S
C1995 C1996 1.390 . S
C1996 C1995 1.390 . S
C1996 C1997 1.394 . S
C1996 C2002 1.465 . S
C1997 C1992 1.399 . S
C1997 C1996 1.394 . S
C1997 C1998 1.516 . S
C1998 C1997 1.516 . S
C1998 C1999 1.502 . S
C1998 C2000 1.561 . S
C1998 C2001 1.526 . S
C1999 H1983 0.959 . S
C1999 H1984 0.959 . S
C1999 H1985 0.961 . S
C1999 C1998 1.502 . S
C2000 H1986 0.960 . S
C2000 H1987 0.961 . S
C2000 H1988 0.959 . S
C2000 C1998 1.561 . S
C2001 C1998 1.526 . S
C2001 C2002 1.396 . S
C2001 C2006 1.390 . S
C2002 C1996 1.465 . S
C2002 C2001 1.396 . S
C2002 C2003 1.399 . S
C2003 H1989 0.929 . S
C2003 C2002 1.399 . S
C2003 C2004 1.385 . S
C2004 H1990 0.931 . S
C2004 C2003 1.385 . S
C2004 C2005 1.389 . S
C2005 C2004 1.389 . S
C2005 C2006 1.387 . S
C2006 H1991 0.930 . S
C2006 C2001 1.390 . S
C2006 C2005 1.387 . S
H2007 C2019 0.930 . S
H2008 C2021 0.930 . S
H2009 C2022 0.930 . S
H2010 C2026 0.959 . S
H2011 C2026 0.959 . S
H2012 C2026 0.961 . S
H2013 C2027 0.960 . S
H2014 C2027 0.961 . S
H2015 C2027 0.959 . S
H2016 C2030 0.929 . S
H2017 C2031 0.931 . S
H2018 C2033 0.930 . S
C2019 H2007 0.930 . S
C2019 C2020 1.399 . S
C2019 C2024 1.399 . S
C2020 C2019 1.399 . S
C2020 C2021 1.376 . S
C2021 H2008 0.930 . S
C2021 C2020 1.376 . S
C2021 C2022 1.388 . S
C2022 H2009 0.930 . S
C2022 C2021 1.388 . S
C2022 C2023 1.390 . S
C2023 C2022 1.390 . S
C2023 C2024 1.394 . S
C2023 C2029 1.465 . S
C2024 C2019 1.399 . S
C2024 C2023 1.394 . S
C2024 C2025 1.516 . S
C2025 C2024 1.516 . S
C2025 C2026 1.502 . S
C2025 C2027 1.561 . S
C2025 C2028 1.526 . S
C2026 H2010 0.959 . S
C2026 H2011 0.959 . S
C2026 H2012 0.961 . S
C2026 C2025 1.502 . S
C2027 H2013 0.960 . S
C2027 H2014 0.961 . S
C2027 H2015 0.959 . S
C2027 C2025 1.561 . S
C2028 C2025 1.526 . S
C2028 C2029 1.396 . S
C2028 C2033 1.390 . S
C2029 C2023 1.465 . S
C2029 C2028 1.396 . S
C2029 C2030 1.399 . S
C2030 H2016 0.929 . S
C2030 C2029 1.399 . S
C2030 C2031 1.385 . S
C2031 H2017 0.931 . S
C2031 C2030 1.385 . S
C2031 C2032 1.389 . S
C2032 C2031 1.389 . S
C2032 C2033 1.387 . S
C2033 H2018 0.930 . S
C2033 C2028 1.390 . S
C2033 C2032 1.387 . S
H2034 C2046 0.930 . S
H2035 C2048 0.930 . S
H2036 C2049 0.930 . S
H2037 C2053 0.959 . S
H2038 C2053 0.959 . S
H2039 C2053 0.961 . S
H2040 C2054 0.960 . S
H2041 C2054 0.961 . S
H2042 C2054 0.959 . S
H2043 C2057 0.929 . S
H2044 C2058 0.931 . S
H2045 C2060 0.930 . S
C2046 H2034 0.930 . S
C2046 C2047 1.399 . S
C2046 C2051 1.399 . S
C2047 C2046 1.399 . S
C2047 C2048 1.376 . S
C2048 H2035 0.930 . S
C2048 C2047 1.376 . S
C2048 C2049 1.388 . S
C2049 H2036 0.930 . S
C2049 C2048 1.388 . S
C2049 C2050 1.390 . S
C2050 C2049 1.390 . S
C2050 C2051 1.394 . S
C2050 C2056 1.465 . S
C2051 C2046 1.399 . S
C2051 C2050 1.394 . S
C2051 C2052 1.516 . S
C2052 C2051 1.516 . S
C2052 C2053 1.502 . S
C2052 C2054 1.561 . S
C2052 C2055 1.526 . S
C2053 H2037 0.959 . S
C2053 H2038 0.959 . S
C2053 H2039 0.961 . S
C2053 C2052 1.502 . S
C2054 H2040 0.960 . S
C2054 H2041 0.961 . S
C2054 H2042 0.959 . S
C2054 C2052 1.561 . S
C2055 C2052 1.526 . S
C2055 C2056 1.396 . S
C2055 C2060 1.390 . S
C2056 C2050 1.465 . S
C2056 C2055 1.396 . S
C2056 C2057 1.399 . S
C2057 H2043 0.929 . S
C2057 C2056 1.399 . S
C2057 C2058 1.385 . S
C2058 H2044 0.931 . S
C2058 C2057 1.385 . S
C2058 C2059 1.389 . S
C2059 C2058 1.389 . S
C2059 C2060 1.387 . S
C2060 H2045 0.930 . S
C2060 C2055 1.390 . S
C2060 C2059 1.387 . S
H2061 C2073 0.930 . S
H2062 C2075 0.930 . S
H2063 C2076 0.930 . S
H2064 C2080 0.959 . S
H2065 C2080 0.959 . S
H2066 C2080 0.961 . S
H2067 C2081 0.960 . S
H2068 C2081 0.961 . S
H2069 C2081 0.959 . S
H2070 C2084 0.929 . S
H2071 C2085 0.931 . S
H2072 C2087 0.930 . S
C2073 H2061 0.930 . S
C2073 C2074 1.399 . S
C2073 C2078 1.399 . S
C2074 C2073 1.399 . S
C2074 C2075 1.376 . S
C2075 H2062 0.930 . S
C2075 C2074 1.376 . S
C2075 C2076 1.388 . S
C2076 H2063 0.930 . S
C2076 C2075 1.388 . S
C2076 C2077 1.390 . S
C2077 C2076 1.390 . S
C2077 C2078 1.394 . S
C2077 C2083 1.465 . S
C2078 C2073 1.399 . S
C2078 C2077 1.394 . S
C2078 C2079 1.516 . S
C2079 C2078 1.516 . S
C2079 C2080 1.502 . S
C2079 C2081 1.561 . S
C2079 C2082 1.526 . S
C2080 H2064 0.959 . S
C2080 H2065 0.959 . S
C2080 H2066 0.961 . S
C2080 C2079 1.502 . S
C2081 H2067 0.960 . S
C2081 H2068 0.961 . S
C2081 H2069 0.959 . S
C2081 C2079 1.561 . S
C2082 C2079 1.526 . S
C2082 C2083 1.396 . S
C2082 C2087 1.390 . S
C2083 C2077 1.465 . S
C2083 C2082 1.396 . S
C2083 C2084 1.399 . S
C2084 H2070 0.929 . S
C2084 C2083 1.399 . S
C2084 C2085 1.385 . S
C2085 H2071 0.931 . S
C2085 C2084 1.385 . S
C2085 C2086 1.389 . S
C2086 C2085 1.389 . S
C2086 C2087 1.387 . S
C2087 H2072 0.930 . S
C2087 C2082 1.390 . S
C2087 C2086 1.387 . S
H2088 C2100 0.930 . S
H2089 C2102 0.930 . S
H2090 C2103 0.930 . S
H2091 C2107 0.962 . S
H2092 C2107 0.980 . S
H2093 C2107 0.939 1_554 S
H2094 C2108 0.957 1_554 S
H2095 C2108 0.964 . S
H2096 C2108 0.959 . S
H2097 C2111 0.929 . S
H2098 C2112 0.931 . S
H2099 C2114 0.930 . S
C2100 H2088 0.930 . S
C2100 C2101 1.399 . S
C2100 C2105 1.399 . S
C2101 C2100 1.399 . S
C2101 C2102 1.376 . S
C2102 H2089 0.930 . S
C2102 C2101 1.376 . S
C2102 C2103 1.388 . S
C2103 H2090 0.930 . S
C2103 C2102 1.388 . S
C2103 C2104 1.390 . S
C2104 C2103 1.390 . S
C2104 C2105 1.394 . S
C2104 C2110 1.465 1_554 S
C2105 C2100 1.399 . S
C2105 C2104 1.394 . S
C2105 C2106 1.516 1_554 S
C2106 C2105 1.516 1_556 S
C2106 C2107 1.502 . S
C2106 C2108 1.561 . S
C2106 C2109 1.526 . S
C2107 H2091 0.962 . S
C2107 H2092 0.980 . S
C2107 H2093 0.939 1_556 S
C2107 C2106 1.502 . S
C2108 H2094 0.957 1_556 S
C2108 H2095 0.964 . S
C2108 H2096 0.959 . S
C2108 C2106 1.561 . S
C2109 C2106 1.526 . S
C2109 C2110 1.396 . S
C2109 C2114 1.390 . S
C2110 C2104 1.465 1_556 S
C2110 C2109 1.396 . S
C2110 C2111 1.399 . S
C2111 H2097 0.929 . S
C2111 C2110 1.399 . S
C2111 C2112 1.385 . S
C2112 H2098 0.931 . S
C2112 C2111 1.385 . S
C2112 C2113 1.389 . S
C2113 C2112 1.389 . S
C2113 C2114 1.387 . S
C2114 H2099 0.930 . S
C2114 C2109 1.390 . S
C2114 C2113 1.387 . S
H2115 C2127 0.930 . S
H2116 C2129 0.930 . S
H2117 C2130 0.930 . S
H2118 C2134 0.962 . S
H2119 C2134 0.980 . S
H2120 C2134 0.939 1_554 S
H2121 C2135 0.957 1_554 S
H2122 C2135 0.964 . S
H2123 C2135 0.959 . S
H2124 C2138 0.929 . S
H2125 C2139 0.931 . S
H2126 C2141 0.930 . S
C2127 H2115 0.930 . S
C2127 C2128 1.399 . S
C2127 C2132 1.399 . S
C2128 C2127 1.399 . S
C2128 C2129 1.376 . S
C2129 H2116 0.930 . S
C2129 C2128 1.376 . S
C2129 C2130 1.388 . S
C2130 H2117 0.930 . S
C2130 C2129 1.388 . S
C2130 C2131 1.390 . S
C2131 C2130 1.390 . S
C2131 C2132 1.394 . S
C2131 C2137 1.465 1_554 S
C2132 C2127 1.399 . S
C2132 C2131 1.394 . S
C2132 C2133 1.516 1_554 S
C2133 C2132 1.516 1_556 S
C2133 C2134 1.502 . S
C2133 C2135 1.561 . S
C2133 C2136 1.526 . S
C2134 H2118 0.962 . S
C2134 H2119 0.980 . S
C2134 H2120 0.939 1_556 S
C2134 C2133 1.502 . S
C2135 H2121 0.957 1_556 S
C2135 H2122 0.964 . S
C2135 H2123 0.959 . S
C2135 C2133 1.561 . S
C2136 C2133 1.526 . S
C2136 C2137 1.396 . S
C2136 C2141 1.390 . S
C2137 C2131 1.465 1_556 S
C2137 C2136 1.396 . S
C2137 C2138 1.399 . S
C2138 H2124 0.929 . S
C2138 C2137 1.399 . S
C2138 C2139 1.385 . S
C2139 H2125 0.931 . S
C2139 C2138 1.385 . S
C2139 C2140 1.389 . S
C2140 C2139 1.389 . S
C2140 C2141 1.387 . S
C2141 H2126 0.930 . S
C2141 C2136 1.390 . S
C2141 C2140 1.387 . S
H2142 C2154 0.930 . S
H2143 C2156 0.930 . S
H2144 C2157 0.930 . S
H2145 C2161 0.962 . S
H2146 C2161 0.980 . S
H2147 C2161 0.939 1_554 S
H2148 C2162 0.957 1_554 S
H2149 C2162 0.964 . S
H2150 C2162 0.959 . S
H2151 C2165 0.929 . S
H2152 C2166 0.931 . S
H2153 C2168 0.930 . S
C2154 H2142 0.930 . S
C2154 C2155 1.399 . S
C2154 C2159 1.399 . S
C2155 C2154 1.399 . S
C2155 C2156 1.376 . S
C2156 H2143 0.930 . S
C2156 C2155 1.376 . S
C2156 C2157 1.388 . S
C2157 H2144 0.930 . S
C2157 C2156 1.388 . S
C2157 C2158 1.390 . S
C2158 C2157 1.390 . S
C2158 C2159 1.394 . S
C2158 C2164 1.465 1_554 S
C2159 C2154 1.399 . S
C2159 C2158 1.394 . S
C2159 C2160 1.516 1_554 S
C2160 C2159 1.516 1_556 S
C2160 C2161 1.502 . S
C2160 C2162 1.561 . S
C2160 C2163 1.526 . S
C2161 H2145 0.962 . S
C2161 H2146 0.980 . S
C2161 H2147 0.939 1_556 S
C2161 C2160 1.502 . S
C2162 H2148 0.957 1_556 S
C2162 H2149 0.964 . S
C2162 H2150 0.959 . S
C2162 C2160 1.561 . S
C2163 C2160 1.526 . S
C2163 C2164 1.396 . S
C2163 C2168 1.390 . S
C2164 C2158 1.465 1_556 S
C2164 C2163 1.396 . S
C2164 C2165 1.399 . S
C2165 H2151 0.929 . S
C2165 C2164 1.399 . S
C2165 C2166 1.385 . S
C2166 H2152 0.931 . S
C2166 C2165 1.385 . S
C2166 C2167 1.389 . S
C2167 C2166 1.389 . S
C2167 C2168 1.387 . S
C2168 H2153 0.930 . S
C2168 C2163 1.390 . S
C2168 C2167 1.387 . S
H2169 C2181 0.930 . S
H2170 C2183 0.930 . S
H2171 C2184 0.930 . S
H2172 C2188 0.962 . S
H2173 C2188 0.980 . S
H2174 C2188 0.939 1_554 S
H2175 C2189 0.957 1_554 S
H2176 C2189 0.964 . S
H2177 C2189 0.959 . S
H2178 C2192 0.929 . S
H2179 C2193 0.931 . S
H2180 C2195 0.930 . S
C2181 H2169 0.930 . S
C2181 C2182 1.399 . S
C2181 C2186 1.399 . S
C2182 C2181 1.399 . S
C2182 C2183 1.376 . S
C2183 H2170 0.930 . S
C2183 C2182 1.376 . S
C2183 C2184 1.388 . S
C2184 H2171 0.930 . S
C2184 C2183 1.388 . S
C2184 C2185 1.390 . S
C2185 C2184 1.390 . S
C2185 C2186 1.394 . S
C2185 C2191 1.465 1_554 S
C2186 C2181 1.399 . S
C2186 C2185 1.394 . S
C2186 C2187 1.516 1_554 S
C2187 C2186 1.516 1_556 S
C2187 C2188 1.502 . S
C2187 C2189 1.561 . S
C2187 C2190 1.526 . S
C2188 H2172 0.962 . S
C2188 H2173 0.980 . S
C2188 H2174 0.939 1_556 S
C2188 C2187 1.502 . S
C2189 H2175 0.957 1_556 S
C2189 H2176 0.964 . S
C2189 H2177 0.959 . S
C2189 C2187 1.561 . S
C2190 C2187 1.526 . S
C2190 C2191 1.396 . S
C2190 C2195 1.390 . S
C2191 C2185 1.465 1_556 S
C2191 C2190 1.396 . S
C2191 C2192 1.399 . S
C2192 H2178 0.929 . S
C2192 C2191 1.399 . S
C2192 C2193 1.385 . S
C2193 H2179 0.931 . S
C2193 C2192 1.385 . S
C2193 C2194 1.389 . S
C2194 C2193 1.389 . S
C2194 C2195 1.387 . S
C2195 H2180 0.930 . S
C2195 C2190 1.390 . S
C2195 C2194 1.387 . S
H2196 C2208 0.930 . S
H2197 C2210 0.930 . S
H2198 C2211 0.930 . S
H2199 C2215 0.962 . S
H2200 C2215 0.980 . S
H2201 C2215 0.939 1_554 S
H2202 C2216 0.957 1_554 S
H2203 C2216 0.964 . S
H2204 C2216 0.959 . S
H2205 C2219 0.929 . S
H2206 C2220 0.931 . S
H2207 C2222 0.930 . S
C2208 H2196 0.930 . S
C2208 C2209 1.399 . S
C2208 C2213 1.399 . S
C2209 C2208 1.399 . S
C2209 C2210 1.376 . S
C2210 H2197 0.930 . S
C2210 C2209 1.376 . S
C2210 C2211 1.388 . S
C2211 H2198 0.930 . S
C2211 C2210 1.388 . S
C2211 C2212 1.390 . S
C2212 C2211 1.390 . S
C2212 C2213 1.394 . S
C2212 C2218 1.465 1_554 S
C2213 C2208 1.399 . S
C2213 C2212 1.394 . S
C2213 C2214 1.516 1_554 S
C2214 C2213 1.516 1_556 S
C2214 C2215 1.502 . S
C2214 C2216 1.561 . S
C2214 C2217 1.526 . S
C2215 H2199 0.962 . S
C2215 H2200 0.980 . S
C2215 H2201 0.939 1_556 S
C2215 C2214 1.502 . S
C2216 H2202 0.957 1_556 S
C2216 H2203 0.964 . S
C2216 H2204 0.959 . S
C2216 C2214 1.561 . S
C2217 C2214 1.526 . S
C2217 C2218 1.396 . S
C2217 C2222 1.390 . S
C2218 C2212 1.465 1_556 S
C2218 C2217 1.396 . S
C2218 C2219 1.399 . S
C2219 H2205 0.929 . S
C2219 C2218 1.399 . S
C2219 C2220 1.385 . S
C2220 H2206 0.931 . S
C2220 C2219 1.385 . S
C2220 C2221 1.389 . S
C2221 C2220 1.389 . S
C2221 C2222 1.387 . S
C2222 H2207 0.930 . S
C2222 C2217 1.390 . S
C2222 C2221 1.387 . S
H2223 C2235 0.930 . S
H2224 C2237 0.930 . S
H2225 C2238 0.930 . S
H2226 C2242 0.962 . S
H2227 C2242 0.980 . S
H2228 C2242 0.939 1_556 S
H2229 C2243 0.957 1_556 S
H2230 C2243 0.964 . S
H2231 C2243 0.959 . S
H2232 C2246 0.929 . S
H2233 C2247 0.931 . S
H2234 C2249 0.930 . S
C2235 H2223 0.930 . S
C2235 C2236 1.399 . S
C2235 C2240 1.399 . S
C2236 C2235 1.399 . S
C2236 C2237 1.376 . S
C2237 H2224 0.930 . S
C2237 C2236 1.376 . S
C2237 C2238 1.388 . S
C2238 H2225 0.930 . S
C2238 C2237 1.388 . S
C2238 C2239 1.390 . S
C2239 C2238 1.390 . S
C2239 C2240 1.394 . S
C2239 C2245 1.465 1_556 S
C2240 C2235 1.399 . S
C2240 C2239 1.394 . S
C2240 C2241 1.516 1_556 S
C2241 C2240 1.516 1_554 S
C2241 C2242 1.502 . S
C2241 C2243 1.561 . S
C2241 C2244 1.526 . S
C2242 H2226 0.962 . S
C2242 H2227 0.980 . S
C2242 H2228 0.939 1_554 S
C2242 C2241 1.502 . S
C2243 H2229 0.957 1_554 S
C2243 H2230 0.964 . S
C2243 H2231 0.959 . S
C2243 C2241 1.561 . S
C2244 C2241 1.526 . S
C2244 C2245 1.396 . S
C2244 C2249 1.390 . S
C2245 C2239 1.465 1_554 S
C2245 C2244 1.396 . S
C2245 C2246 1.399 . S
C2246 H2232 0.929 . S
C2246 C2245 1.399 . S
C2246 C2247 1.385 . S
C2247 H2233 0.931 . S
C2247 C2246 1.385 . S
C2247 C2248 1.389 . S
C2248 C2247 1.389 . S
C2248 C2249 1.387 . S
C2249 H2234 0.930 . S
C2249 C2244 1.390 . S
C2249 C2248 1.387 . S
H2250 C2262 0.930 . S
H2251 C2264 0.930 . S
H2252 C2265 0.930 . S
H2253 C2269 0.959 . S
H2254 C2269 0.959 . S
H2255 C2269 0.961 . S
H2256 C2270 0.960 . S
H2257 C2270 0.961 . S
H2258 C2270 0.959 . S
H2259 C2273 0.929 . S
H2260 C2274 0.931 . S
H2261 C2276 0.930 . S
C2262 H2250 0.930 . S
C2262 C2263 1.399 . S
C2262 C2267 1.399 . S
C2263 C2262 1.399 . S
C2263 C2264 1.376 . S
C2264 H2251 0.930 . S
C2264 C2263 1.376 . S
C2264 C2265 1.388 . S
C2265 H2252 0.930 . S
C2265 C2264 1.388 . S
C2265 C2266 1.390 . S
C2266 C2265 1.390 . S
C2266 C2267 1.394 . S
C2266 C2272 1.465 . S
C2267 C2262 1.399 . S
C2267 C2266 1.394 . S
C2267 C2268 1.516 . S
C2268 C2267 1.516 . S
C2268 C2269 1.502 . S
C2268 C2270 1.561 . S
C2268 C2271 1.526 . S
C2269 H2253 0.959 . S
C2269 H2254 0.959 . S
C2269 H2255 0.961 . S
C2269 C2268 1.502 . S
C2270 H2256 0.960 . S
C2270 H2257 0.961 . S
C2270 H2258 0.959 . S
C2270 C2268 1.561 . S
C2271 C2268 1.526 . S
C2271 C2272 1.396 . S
C2271 C2276 1.390 . S
C2272 C2266 1.465 . S
C2272 C2271 1.396 . S
C2272 C2273 1.399 . S
C2273 H2259 0.929 . S
C2273 C2272 1.399 . S
C2273 C2274 1.385 . S
C2274 H2260 0.931 . S
C2274 C2273 1.385 . S
C2274 C2275 1.389 . S
C2275 C2274 1.389 . S
C2275 C2276 1.387 . S
C2276 H2261 0.930 . S
C2276 C2271 1.390 . S
C2276 C2275 1.387 . S
H2277 C2289 0.930 . S
H2278 C2291 0.930 . S
H2279 C2292 0.930 . S
H2280 C2296 0.959 . S
H2281 C2296 0.959 . S
H2282 C2296 0.961 . S
H2283 C2297 0.960 . S
H2284 C2297 0.961 . S
H2285 C2297 0.959 . S
H2286 C2300 0.929 . S
H2287 C2301 0.931 . S
H2288 C2303 0.930 . S
C2289 H2277 0.930 . S
C2289 C2290 1.399 . S
C2289 C2294 1.399 . S
C2290 C2289 1.399 . S
C2290 C2291 1.376 . S
C2291 H2278 0.930 . S
C2291 C2290 1.376 . S
C2291 C2292 1.388 . S
C2292 H2279 0.930 . S
C2292 C2291 1.388 . S
C2292 C2293 1.390 . S
C2293 C2292 1.390 . S
C2293 C2294 1.394 . S
C2293 C2299 1.465 . S
C2294 C2289 1.399 . S
C2294 C2293 1.394 . S
C2294 C2295 1.516 . S
C2295 C2294 1.516 . S
C2295 C2296 1.502 . S
C2295 C2297 1.561 . S
C2295 C2298 1.526 . S
C2296 H2280 0.959 . S
C2296 H2281 0.959 . S
C2296 H2282 0.961 . S
C2296 C2295 1.502 . S
C2297 H2283 0.960 . S
C2297 H2284 0.961 . S
C2297 H2285 0.959 . S
C2297 C2295 1.561 . S
C2298 C2295 1.526 . S
C2298 C2299 1.396 . S
C2298 C2303 1.390 . S
C2299 C2293 1.465 . S
C2299 C2298 1.396 . S
C2299 C2300 1.399 . S
C2300 H2286 0.929 . S
C2300 C2299 1.399 . S
C2300 C2301 1.385 . S
C2301 H2287 0.931 . S
C2301 C2300 1.385 . S
C2301 C2302 1.389 . S
C2302 C2301 1.389 . S
C2302 C2303 1.387 . S
C2303 H2288 0.930 . S
C2303 C2298 1.390 . S
C2303 C2302 1.387 . S
H2304 C2316 0.930 . S
H2305 C2318 0.930 . S
H2306 C2319 0.930 . S
H2307 C2323 0.959 . S
H2308 C2323 0.959 . S
H2309 C2323 0.961 . S
H2310 C2324 0.960 . S
H2311 C2324 0.961 . S
H2312 C2324 0.959 . S
H2313 C2327 0.929 . S
H2314 C2328 0.931 . S
H2315 C2330 0.930 . S
C2316 H2304 0.930 . S
C2316 C2317 1.399 . S
C2316 C2321 1.399 . S
C2317 C2316 1.399 . S
C2317 C2318 1.376 . S
C2318 H2305 0.930 . S
C2318 C2317 1.376 . S
C2318 C2319 1.388 . S
C2319 H2306 0.930 . S
C2319 C2318 1.388 . S
C2319 C2320 1.390 . S
C2320 C2319 1.390 . S
C2320 C2321 1.394 . S
C2320 C2326 1.465 . S
C2321 C2316 1.399 . S
C2321 C2320 1.394 . S
C2321 C2322 1.516 . S
C2322 C2321 1.516 . S
C2322 C2323 1.502 . S
C2322 C2324 1.561 . S
C2322 C2325 1.526 . S
C2323 H2307 0.959 . S
C2323 H2308 0.959 . S
C2323 H2309 0.961 . S
C2323 C2322 1.502 . S
C2324 H2310 0.960 . S
C2324 H2311 0.961 . S
C2324 H2312 0.959 . S
C2324 C2322 1.561 . S
C2325 C2322 1.526 . S
C2325 C2326 1.396 . S
C2325 C2330 1.390 . S
C2326 C2320 1.465 . S
C2326 C2325 1.396 . S
C2326 C2327 1.399 . S
C2327 H2313 0.929 . S
C2327 C2326 1.399 . S
C2327 C2328 1.385 . S
C2328 H2314 0.931 . S
C2328 C2327 1.385 . S
C2328 C2329 1.389 . S
C2329 C2328 1.389 . S
C2329 C2330 1.387 . S
C2330 H2315 0.930 . S
C2330 C2325 1.390 . S
C2330 C2329 1.387 . S
H2331 C2343 0.930 . S
H2332 C2345 0.930 . S
H2333 C2346 0.930 . S
H2334 C2350 0.959 . S
H2335 C2350 0.959 . S
H2336 C2350 0.961 . S
H2337 C2351 0.960 . S
H2338 C2351 0.961 . S
H2339 C2351 0.959 . S
H2340 C2354 0.929 . S
H2341 C2355 0.931 . S
H2342 C2357 0.930 . S
C2343 H2331 0.930 . S
C2343 C2344 1.399 . S
C2343 C2348 1.399 . S
C2344 C2343 1.399 . S
C2344 C2345 1.376 . S
C2345 H2332 0.930 . S
C2345 C2344 1.376 . S
C2345 C2346 1.388 . S
C2346 H2333 0.930 . S
C2346 C2345 1.388 . S
C2346 C2347 1.390 . S
C2347 C2346 1.390 . S
C2347 C2348 1.394 . S
C2347 C2353 1.465 . S
C2348 C2343 1.399 . S
C2348 C2347 1.394 . S
C2348 C2349 1.516 . S
C2349 C2348 1.516 . S
C2349 C2350 1.502 . S
C2349 C2351 1.561 . S
C2349 C2352 1.526 . S
C2350 H2334 0.959 . S
C2350 H2335 0.959 . S
C2350 H2336 0.961 . S
C2350 C2349 1.502 . S
C2351 H2337 0.960 . S
C2351 H2338 0.961 . S
C2351 H2339 0.959 . S
C2351 C2349 1.561 . S
C2352 C2349 1.526 . S
C2352 C2353 1.396 . S
C2352 C2357 1.390 . S
C2353 C2347 1.465 . S
C2353 C2352 1.396 . S
C2353 C2354 1.399 . S
C2354 H2340 0.929 . S
C2354 C2353 1.399 . S
C2354 C2355 1.385 . S
C2355 H2341 0.931 . S
C2355 C2354 1.385 . S
C2355 C2356 1.389 . S
C2356 C2355 1.389 . S
C2356 C2357 1.387 . S
C2357 H2342 0.930 . S
C2357 C2352 1.390 . S
C2357 C2356 1.387 . S
H2358 C2370 0.930 . S
H2359 C2372 0.930 . S
H2360 C2373 0.930 . S
H2361 C2377 0.959 . S
H2362 C2377 0.959 . S
H2363 C2377 0.961 . S
H2364 C2378 0.960 . S
H2365 C2378 0.961 . S
H2366 C2378 0.959 . S
H2367 C2381 0.929 . S
H2368 C2382 0.931 . S
H2369 C2384 0.930 . S
C2370 H2358 0.930 . S
C2370 C2371 1.399 . S
C2370 C2375 1.399 . S
C2371 C2370 1.399 . S
C2371 C2372 1.376 . S
C2372 H2359 0.930 . S
C2372 C2371 1.376 . S
C2372 C2373 1.388 . S
C2373 H2360 0.930 . S
C2373 C2372 1.388 . S
C2373 C2374 1.390 . S
C2374 C2373 1.390 . S
C2374 C2375 1.394 . S
C2374 C2380 1.465 . S
C2375 C2370 1.399 . S
C2375 C2374 1.394 . S
C2375 C2376 1.516 . S
C2376 C2375 1.516 . S
C2376 C2377 1.502 . S
C2376 C2378 1.561 . S
C2376 C2379 1.526 . S
C2377 H2361 0.959 . S
C2377 H2362 0.959 . S
C2377 H2363 0.961 . S
C2377 C2376 1.502 . S
C2378 H2364 0.960 . S
C2378 H2365 0.961 . S
C2378 H2366 0.959 . S
C2378 C2376 1.561 . S
C2379 C2376 1.526 . S
C2379 C2380 1.396 . S
C2379 C2384 1.390 . S
C2380 C2374 1.465 . S
C2380 C2379 1.396 . S
C2380 C2381 1.399 . S
C2381 H2367 0.929 . S
C2381 C2380 1.399 . S
C2381 C2382 1.385 . S
C2382 H2368 0.931 . S
C2382 C2381 1.385 . S
C2382 C2383 1.389 . S
C2383 C2382 1.389 . S
C2383 C2384 1.387 . S
C2384 H2369 0.930 . S
C2384 C2379 1.390 . S
C2384 C2383 1.387 . S
H2385 C2397 0.930 . S
H2386 C2399 0.930 . S
H2387 C2400 0.930 . S
H2388 C2404 0.959 . S
H2389 C2404 0.959 . S
H2390 C2404 0.961 . S
H2391 C2405 0.960 . S
H2392 C2405 0.961 . S
H2393 C2405 0.959 . S
H2394 C2408 0.929 . S
H2395 C2409 0.931 . S
H2396 C2411 0.930 . S
C2397 H2385 0.930 . S
C2397 C2398 1.399 . S
C2397 C2402 1.399 . S
C2398 C2397 1.399 . S
C2398 C2399 1.376 . S
C2399 H2386 0.930 . S
C2399 C2398 1.376 . S
C2399 C2400 1.388 . S
C2400 H2387 0.930 . S
C2400 C2399 1.388 . S
C2400 C2401 1.390 . S
C2401 C2400 1.390 . S
C2401 C2402 1.394 . S
C2401 C2407 1.465 . S
C2402 C2397 1.399 . S
C2402 C2401 1.394 . S
C2402 C2403 1.516 . S
C2403 C2402 1.516 . S
C2403 C2404 1.502 . S
C2403 C2405 1.561 . S
C2403 C2406 1.526 . S
C2404 H2388 0.959 . S
C2404 H2389 0.959 . S
C2404 H2390 0.961 . S
C2404 C2403 1.502 . S
C2405 H2391 0.960 . S
C2405 H2392 0.961 . S
C2405 H2393 0.959 . S
C2405 C2403 1.561 . S
C2406 C2403 1.526 . S
C2406 C2407 1.396 . S
C2406 C2411 1.390 . S
C2407 C2401 1.465 . S
C2407 C2406 1.396 . S
C2407 C2408 1.399 . S
C2408 H2394 0.929 . S
C2408 C2407 1.399 . S
C2408 C2409 1.385 . S
C2409 H2395 0.931 . S
C2409 C2408 1.385 . S
C2409 C2410 1.389 . S
C2410 C2409 1.389 . S
C2410 C2411 1.387 . S
C2411 H2396 0.930 . S
C2411 C2406 1.390 . S
C2411 C2410 1.387 . S
C805 N13 0.917 . S
C817 N112 0.912 . S
C832 N145 0.922 . S
C844 N46 0.918 . S
C859 N178 0.785 . S
C871 N79 0.791 . S
C886 N310 0.928 . S
C898 N211 0.923 . S
C913 N244 0.913 . S
C925 N343 0.907 . S
C940 N277 0.773 . S
C952 N376 0.779 . S
C967 N508 0.897 . S
C979 N409 0.933 . S
C994 N541 0.797 . S
C1006 N442 0.763 . S
C1021 N574 0.775 . S
C1033 N475 0.761 . S
C1048 N706 0.809 . S
C1060 N607 0.768 . S
C1075 N640 0.759 . S
C1087 N739 0.789 . S
C1102 N772 0.772 . S
C1114 N673 0.761 . S
C1129 N266 1.775 . S
C1141 N2 1.782 . S
C1156 N35 1.773 . S
C1168 N299 1.778 . S
C1183 N68 1.778 . S
C1195 N332 1.773 . S
C1210 N101 1.773 . S
C1222 N365 1.778 . S
C1237 N134 1.773 . S
C1249 N200 1.777 . S
C1264 N233 1.778 . S
C1276 N167 1.773 . S
C1291 N398 1.773 . S
C1303 N662 1.781 . S
C1318 N695 1.776 . S
C1330 N431 1.782 . S
C1345 N728 1.782 . S
C1357 N464 1.775 . S
C1372 N497 1.782 . S
C1384 N761 1.777 . S
C1399 N596 1.778 . S
C1411 N530 1.774 . S
C1426 N629 1.775 . S
C1438 N563 1.782 . S
C1453 C21 0.737 . S
C1465 C252 0.724 . S
C1480 C54 0.746 . S
C1492 C285 0.750 . S
C1507 C318 0.628 . S
C1519 C87 0.612 . S
C1534 C120 0.610 . S
C1546 C351 0.627 . S
C1561 C384 0.675 . S
C1573 C153 0.692 . S
C1588 C219 0.605 . S
C1600 C186 0.621 . S
C1615 C417 0.749 . S
C1627 C648 0.729 . S
C1642 C450 0.598 . S
C1654 C681 0.579 . S
C1669 C483 0.655 . S
C1681 C714 0.620 . S
C1696 C516 0.610 . S
C1708 C747 0.646 . S
C1723 C549 0.619 . S
C1735 C780 0.655 . S
C1750 C615 0.698 . S
C1762 C582 0.727 . S
C1777 C7 0.941 . S
C1789 C337 0.968 . S
C1804 C370 0.940 . S
C1816 C40 0.964 . S
C1831 C205 1.040 . S
C1843 C73 1.037 . S
C1858 C238 1.040 . S
C1870 C106 1.016 . S
C1885 C139 0.985 . S
C1897 C271 0.952 . S
C1912 C172 1.021 . S
C1924 C304 0.984 . S
C1939 C403 0.973 . S
C1951 C733 0.940 . S
C1966 C766 0.944 . S
C1978 C436 1.005 . S
C1993 C601 1.040 . S
C2005 C469 1.016 . S
C2020 C502 0.978 . S
C2032 C634 1.036 . S
C2047 C535 0.945 . S
C2059 C667 0.957 . S
C2074 C700 0.943 . S
C2086 C568 0.961 . S
C2101 C18 1.136 . S
C2113 C513 1.137 . S
C2128 C51 1.179 . S
C2140 C546 1.173 . S
C2155 C84 1.171 . S
C2167 C579 1.177 . S
C2182 C117 1.185 . S
C2194 C414 1.184 . S
C2209 C150 1.177 . S
C2221 C447 1.170 . S
C2236 C480 1.181 . S
C2248 C183 1.184 . S
C2263 C216 1.177 . S
C2275 C711 1.171 . S
C2290 C249 1.185 . S
C2302 C744 1.185 . S
C2317 C282 1.175 . S
C2329 C777 1.180 . S
C2344 C315 1.178 . S
C2356 C612 1.172 . S
C2371 C348 1.136 . S
C2383 C645 1.137 . S
C2398 C678 1.138 . S
C2410 C381 1.143 . S
