# Generated by pormake.
# Topology whw, (6)-cn, num edge types: 1
# Building blocks:
#     Node 0, Type 0, BuildingBlock: LEVNOQ01_clean_sbu_1, # of connection points: 6
#     Node 1, Type 0, BuildingBlock: LEVNOQ01_clean_sbu_1, # of connection points: 6
#     Node 2, Type 0, BuildingBlock: LEVNOQ01_clean_sbu_1, # of connection points: 6
#     Node 3, Type 0, BuildingBlock: LEVNOQ01_clean_sbu_1, # of connection points: 6
#     Node 4, Type 0, BuildingBlock: LEVNOQ01_clean_sbu_1, # of connection points: 6
#     Node 5, Type 0, BuildingBlock: LEVNOQ01_clean_sbu_1, # of connection points: 6
#     Node 6, Type 0, BuildingBlock: LEVNOQ01_clean_sbu_1, # of connection points: 6
#     Node 7, Type 0, BuildingBlock: LEVNOQ01_clean_sbu_1, # of connection points: 6
#     Node 8, Type 0, BuildingBlock: LEVNOQ01_clean_sbu_1, # of connection points: 6
#     Node 9, Type 0, BuildingBlock: LEVNOQ01_clean_sbu_1, # of connection points: 6
#     Node 10, Type 0, BuildingBlock: LEVNOQ01_clean_sbu_1, # of connection points: 6
#     Node 11, Type 0, BuildingBlock: LEVNOQ01_clean_sbu_1, # of connection points: 6
#     Node 12, Type 0, BuildingBlock: LEVNOQ01_clean_sbu_1, # of connection points: 6
#     Node 13, Type 0, BuildingBlock: LEVNOQ01_clean_sbu_1, # of connection points: 6
#     Node 14, Type 0, BuildingBlock: LEVNOQ01_clean_sbu_1, # of connection points: 6
#     Node 15, Type 0, BuildingBlock: LEVNOQ01_clean_sbu_1, # of connection points: 6
#     Edge 16, Type (0, 0), BuildingBlock: XIVTED_clean_linker_0, # of connection points: 2
#     Edge 17, Type (0, 0), BuildingBlock: XIVTED_clean_linker_0, # of connection points: 2
#     Edge 18, Type (0, 0), BuildingBlock: XIVTED_clean_linker_0, # of connection points: 2
#     Edge 19, Type (0, 0), BuildingBlock: XIVTED_clean_linker_0, # of connection points: 2
#     Edge 20, Type (0, 0), BuildingBlock: XIVTED_clean_linker_0, # of connection points: 2
#     Edge 21, Type (0, 0), BuildingBlock: XIVTED_clean_linker_0, # of connection points: 2
#     Edge 22, Type (0, 0), BuildingBlock: XIVTED_clean_linker_0, # of connection points: 2
#     Edge 23, Type (0, 0), BuildingBlock: XIVTED_clean_linker_0, # of connection points: 2
#     Edge 24, Type (0, 0), BuildingBlock: XIVTED_clean_linker_0, # of connection points: 2
#     Edge 25, Type (0, 0), BuildingBlock: XIVTED_clean_linker_0, # of connection points: 2
#     Edge 26, Type (0, 0), BuildingBlock: XIVTED_clean_linker_0, # of connection points: 2
#     Edge 27, Type (0, 0), BuildingBlock: XIVTED_clean_linker_0, # of connection points: 2
#     Edge 28, Type (0, 0), BuildingBlock: XIVTED_clean_linker_0, # of connection points: 2
#     Edge 29, Type (0, 0), BuildingBlock: XIVTED_clean_linker_0, # of connection points: 2
#     Edge 30, Type (0, 0), BuildingBlock: XIVTED_clean_linker_0, # of connection points: 2
#     Edge 31, Type (0, 0), BuildingBlock: XIVTED_clean_linker_0, # of connection points: 2
#     Edge 32, Type (0, 0), BuildingBlock: XIVTED_clean_linker_0, # of connection points: 2
#     Edge 33, Type (0, 0), BuildingBlock: XIVTED_clean_linker_0, # of connection points: 2
#     Edge 34, Type (0, 0), BuildingBlock: XIVTED_clean_linker_0, # of connection points: 2
#     Edge 35, Type (0, 0), BuildingBlock: XIVTED_clean_linker_0, # of connection points: 2
#     Edge 36, Type (0, 0), BuildingBlock: XIVTED_clean_linker_0, # of connection points: 2
#     Edge 37, Type (0, 0), BuildingBlock: XIVTED_clean_linker_0, # of connection points: 2
#     Edge 38, Type (0, 0), BuildingBlock: XIVTED_clean_linker_0, # of connection points: 2
#     Edge 39, Type (0, 0), BuildingBlock: XIVTED_clean_linker_0, # of connection points: 2
#     Edge 40, Type (0, 0), BuildingBlock: XIVTED_clean_linker_0, # of connection points: 2
#     Edge 41, Type (0, 0), BuildingBlock: XIVTED_clean_linker_0, # of connection points: 2
#     Edge 42, Type (0, 0), BuildingBlock: XIVTED_clean_linker_0, # of connection points: 2
#     Edge 43, Type (0, 0), BuildingBlock: XIVTED_clean_linker_0, # of connection points: 2
#     Edge 44, Type (0, 0), BuildingBlock: XIVTED_clean_linker_0, # of connection points: 2
#     Edge 45, Type (0, 0), BuildingBlock: XIVTED_clean_linker_0, # of connection points: 2
#     Edge 46, Type (0, 0), BuildingBlock: XIVTED_clean_linker_0, # of connection points: 2
#     Edge 47, Type (0, 0), BuildingBlock: XIVTED_clean_linker_0, # of connection points: 2
#     Edge 48, Type (0, 0), BuildingBlock: XIVTED_clean_linker_0, # of connection points: 2
#     Edge 49, Type (0, 0), BuildingBlock: XIVTED_clean_linker_0, # of connection points: 2
#     Edge 50, Type (0, 0), BuildingBlock: XIVTED_clean_linker_0, # of connection points: 2
#     Edge 51, Type (0, 0), BuildingBlock: XIVTED_clean_linker_0, # of connection points: 2
#     Edge 52, Type (0, 0), BuildingBlock: XIVTED_clean_linker_0, # of connection points: 2
#     Edge 53, Type (0, 0), BuildingBlock: XIVTED_clean_linker_0, # of connection points: 2
#     Edge 54, Type (0, 0), BuildingBlock: XIVTED_clean_linker_0, # of connection points: 2
#     Edge 55, Type (0, 0), BuildingBlock: XIVTED_clean_linker_0, # of connection points: 2
#     Edge 56, Type (0, 0), BuildingBlock: XIVTED_clean_linker_0, # of connection points: 2
#     Edge 57, Type (0, 0), BuildingBlock: XIVTED_clean_linker_0, # of connection points: 2
#     Edge 58, Type (0, 0), BuildingBlock: XIVTED_clean_linker_0, # of connection points: 2
#     Edge 59, Type (0, 0), BuildingBlock: XIVTED_clean_linker_0, # of connection points: 2
#     Edge 60, Type (0, 0), BuildingBlock: XIVTED_clean_linker_0, # of connection points: 2
#     Edge 61, Type (0, 0), BuildingBlock: XIVTED_clean_linker_0, # of connection points: 2
#     Edge 62, Type (0, 0), BuildingBlock: XIVTED_clean_linker_0, # of connection points: 2
#     Edge 63, Type (0, 0), BuildingBlock: XIVTED_clean_linker_0, # of connection points: 2
# Relax obj value: 0.532
# Max RMSD: 0.236
# Mean RMSD: 0.236
data_MOF--net-whw--node1-LEVNOQ01_clean_sbu_1--edge1-XIVTED_clean_linker_0
_symmetry_space_group_name_H-M    P1
_symmetry_Int_Tables_number       1
_symmetry_cell_setting            triclinic
loop_
_symmetry_equiv_pos_as_xyz
'x, y, z'
_cell_length_a     50.686381
_cell_length_b     50.701398
_cell_length_c     24.679003
_cell_angle_alpha  89.41406
_cell_angle_beta   90.004804
_cell_angle_gamma 90.191025
loop_
_atom_site_label
_atom_site_type_symbol
_atom_site_fract_x
_atom_site_fract_y
_atom_site_fract_z
_atom_type_partial_charge
O0 O 0.04412 0.08433 0.2307 0.0
Mg1 Mg 0.00545 0.06904 0.2267 0.0
O2 O 0.03081 0.12021 0.18655 0.0
Mg3 Mg -0.00343 0.11292 0.12578 0.0
O4 O -0.00498 0.07035 0.14853 0.0
O5 O -0.00341 0.03263 0.19401 0.0
O6 O 0.96093 0.10738 0.06235 0.0
O7 O 0.02922 0.10607 0.05621 0.0
Mg8 Mg -0.00473 0.16285 0.02995 0.0
O9 O -0.00183 0.15511 0.10858 0.0
O10 O 0.95856 0.14495 0.01353 0.0
O11 O 0.02767 0.14123 0.00017 0.0
O12 O 0.00172 0.19595 0.08135 0.0
C13 C 0.96152 0.11044 0.243 0.0
C14 C 0.0471 0.10843 0.21804 0.0
C15 C -0.00778 0.04523 0.14926 0.0
C16 C 0.94949 0.1224 0.02711 0.0
C17 C 0.03774 0.11935 0.01487 0.0
C18 C 0.00231 0.17913 0.12066 0.0
O19 O 0.97539 0.09155 0.26154 0.0
O20 O 0.96561 0.12056 0.19573 0.0
O21 O 0.0813 0.75953 0.25731 0.0
Mg22 Mg 0.0673 0.72517 0.29991 0.0
O23 O 0.11803 0.77028 0.30289 0.0
Mg24 Mg 0.12214 0.73735 0.37175 0.0
O25 O 0.0788 0.7339 0.37437 0.0
O26 O 0.03665 0.73004 0.35698 0.0
O27 O 0.12463 0.70514 0.44022 0.0
O28 O 0.11873 0.76934 0.43681 0.0
Mg29 Mg 0.17712 0.74092 0.45565 0.0
O30 O 0.16482 0.7422 0.37799 0.0
O31 O 0.16457 0.70242 0.47864 0.0
O32 O 0.15332 0.76951 0.49314 0.0
O33 O 0.20207 0.76087 0.40068 0.0
C34 C 0.11099 0.6866 0.28212 0.0
C35 C 0.10108 0.77466 0.26505 0.0
C36 C 0.05498 0.73622 0.39071 0.0
C37 C 0.14096 0.69417 0.47305 0.0
C38 C 0.13119 0.77858 0.4776 0.0
C39 C 0.18275 0.75912 0.36698 0.0
O40 O 0.08613 0.68891 0.28558 0.0
O41 O 0.12664 0.70354 0.3039 0.0
O42 O 0.48226 0.88913 0.76548 0.0
Mg43 Mg 0.50833 0.91206 0.71554 0.0
O44 O 0.46022 0.86635 0.70297 0.0
Mg45 Mg 0.48839 0.86566 0.62978 0.0
O46 O 0.49483 0.90861 0.63876 0.0
O47 O 0.48789 0.94478 0.68442 0.0
O48 O 0.5178 0.86367 0.55579 0.0
O49 O 0.45223 0.87191 0.56664 0.0
Mg50 Mg 0.47435 0.81118 0.55431 0.0
O51 O 0.48317 0.82337 0.62799 0.0
O52 O 0.50704 0.82736 0.50923 0.0
O53 O 0.43898 0.8318 0.54039 0.0
O54 O 0.47808 0.78129 0.61599 0.0
C55 C 0.54356 0.86949 0.70931 0.0
C56 C 0.46315 0.87428 0.75163 0.0
C57 C 0.48168 0.92993 0.64435 0.0
C58 C 0.52122 0.84793 0.51597 0.0
C59 C 0.43593 0.85666 0.54159 0.0
C60 C 0.48363 0.80023 0.64836 0.0
O61 O 0.54569 0.8944 0.70593 0.0
O62 O 0.52336 0.85768 0.68978 0.0
O63 O 0.33768 0.2241 0.00523 0.0
Mg64 Mg 0.31919 0.25415 0.95689 0.0
O65 O 0.36587 0.20701 0.94522 0.0
Mg66 Mg 0.36876 0.23475 0.87265 0.0
O67 O 0.32582 0.24224 0.88065 0.0
O68 O 0.28615 0.23923 0.91579 0.0
O69 O 0.37335 0.26388 0.79823 0.0
O70 O 0.36196 0.199 0.80927 0.0
Mg71 Mg 0.42268 0.21632 0.80101 0.0
O72 O 0.41114 0.22791 0.87355 0.0
O73 O 0.40826 0.24876 0.75207 0.0
O74 O 0.40112 0.18103 0.7918 0.0
O75 O 0.45282 0.21977 0.86129 0.0
C76 C 0.3652 0.28832 0.95699 0.0
C77 C 0.35442 0.20677 0.99124 0.0
C78 C 0.30272 0.23197 0.87933 0.0
C79 C 0.38922 0.26499 0.75766 0.0
C80 C 0.37614 0.18074 0.78798 0.0
C81 C 0.43437 0.22731 0.89331 0.0
O82 O 0.34022 0.29036 0.956 0.0
O83 O 0.37692 0.26906 0.93398 0.0
O84 O 0.00735 0.88259 0.73268 0.0
Mg85 Mg 0.98183 0.90923 0.77203 0.0
O86 O 0.02756 0.8636 0.80336 0.0
Mg87 Mg -0.00272 0.86709 0.87108 0.0
O88 O -0.00767 0.90988 0.85093 0.0
O89 O 0.00185 0.94307 0.79664 0.0
O90 O 0.96595 0.86875 0.94146 0.0
O91 O 0.0322 0.8749 0.93647 0.0
Mg92 Mg 0.00837 0.81541 0.95823 0.0
O93 O 0.00086 0.82461 0.88219 0.0
O94 O 0.97586 0.83454 0.9963 0.0
O95 O 0.04455 0.83518 0.96768 0.0
O96 O 0.00421 0.78302 0.90378 0.0
C97 C 0.9441 0.8694 0.7849 0.0
C98 C 0.02565 0.86857 0.75287 0.0
C99 C 0.00514 0.93142 0.84274 0.0
C100 C 0.962 0.85473 0.98435 0.0
C101 C 0.04811 0.85994 0.96362 0.0
C102 C 0.00035 0.80069 0.86693 0.0
O103 O 0.94338 0.89438 0.78219 0.0
O104 O 0.96318 0.85764 0.80925 0.0
O105 O 0.33131 0.77272 0.00939 0.0
Mg106 Mg 0.32129 0.73527 0.04374 0.0
O107 O 0.36598 0.77693 0.06333 0.0
Mg108 Mg 0.3702 0.74396 0.12703 0.0
O109 O 0.32677 0.7358 0.1256 0.0
O110 O 0.28788 0.72824 0.08645 0.0
O111 O 0.37668 0.71021 0.19286 0.0
O112 O 0.36508 0.77596 0.19786 0.0
Mg113 Mg 0.42807 0.754 0.19534 0.0
O114 O 0.41214 0.75198 0.12225 0.0
O115 O 0.4175 0.7157 0.22617 0.0
O116 O 0.4056 0.7848 0.22989 0.0
O117 O 0.45416 0.75987 0.12759 0.0
C118 C 0.36483 0.6996 0.02297 0.0
C119 C 0.35176 0.78529 0.02421 0.0
C120 C 0.30182 0.7315 0.12968 0.0
C121 C 0.39599 0.70263 0.22292 0.0
C122 C 0.38089 0.78915 0.22847 0.0
C123 C 0.43387 0.75584 0.09747 0.0
O124 O 0.34062 0.70294 0.0132 0.0
O125 O 0.37723 0.71332 0.05801 0.0
O126 O 0.45963 0.08351 0.2519 0.0
Mg127 Mg 0.49482 0.06637 0.28385 0.0
O128 O 0.45917 0.11716 0.30926 0.0
Mg129 Mg 0.49146 0.11477 0.37355 0.0
O130 O 0.49185 0.07097 0.36521 0.0
O131 O 0.49391 0.03155 0.32724 0.0
O132 O 0.52555 0.11289 0.43907 0.0
O133 O 0.45721 0.11196 0.44208 0.0
Mg134 Mg 0.4906 0.16925 0.45322 0.0
O135 O 0.49057 0.15817 0.37613 0.0
O136 O 0.52651 0.15198 0.48069 0.0
O137 O 0.45553 0.15147 0.48195 0.0
O138 O 0.48994 0.20021 0.39465 0.0
C139 C 0.5368 0.10648 0.26995 0.0
C140 C 0.44954 0.10481 0.26901 0.0
C141 C 0.49099 0.04575 0.36986 0.0
C142 C 0.53616 0.12925 0.472 0.0
C143 C 0.44634 0.12841 0.4748 0.0
C144 C 0.49067 0.182 0.35875 0.0
O145 O 0.53094 0.08285 0.25874 0.0
O146 O 0.52388 0.11948 0.30544 0.0
O147 O 0.08727 0.20453 0.74173 0.0
Mg148 Mg 0.06833 0.23943 0.71465 0.0
O149 O 0.12575 0.20654 0.69686 0.0
Mg150 Mg 0.12184 0.24152 0.63083 0.0
O151 O 0.07851 0.2403 0.63672 0.0
O152 O 0.03668 0.23975 0.65807 0.0
O153 O 0.11454 0.27498 0.56602 0.0
O154 O 0.11822 0.2105 0.56266 0.0
Mg155 Mg 0.16603 0.25121 0.5416 0.0
O156 O 0.16675 0.24199 0.62166 0.0
O157 O 0.15063 0.28837 0.52379 0.0
O158 O 0.15025 0.21787 0.50244 0.0
O159 O 0.20287 0.24943 0.57118 0.0
C160 C 0.10847 0.2844 0.73412 0.0
C161 C 0.11018 0.19562 0.73183 0.0
C162 C 0.05449 0.24042 0.62095 0.0
C163 C 0.12632 0.29081 0.53336 0.0
C164 C 0.13056 0.20462 0.51926 0.0
C165 C 0.19218 0.24224 0.61653 0.0
O166 O 0.08568 0.27472 0.74303 0.0
O167 O 0.1245 0.27447 0.69947 0.0
O168 O 0.82996 0.26604 0.5085 0.0
Mg169 Mg 0.81158 0.23376 0.5498 0.0
O170 O 0.86648 0.27115 0.55856 0.0
Mg171 Mg 0.86719 0.24011 0.62791 0.0
O172 O 0.82457 0.23891 0.62574 0.0
O173 O 0.78232 0.24053 0.60945 0.0
O174 O 0.86828 0.20774 0.69815 0.0
O175 O 0.86596 0.27439 0.6939 0.0
Mg176 Mg 0.92448 0.24404 0.69931 0.0
O177 O 0.91002 0.24134 0.62447 0.0
O178 O 0.90828 0.20942 0.73687 0.0
O179 O 0.90689 0.27968 0.72637 0.0
O180 O 0.95263 0.24261 0.63474 0.0
C181 C 0.85382 0.19372 0.53012 0.0
C182 C 0.85179 0.27758 0.5184 0.0
C183 C 0.80151 0.2439 0.64283 0.0
C184 C 0.88544 0.19908 0.73223 0.0
C185 C 0.88288 0.28686 0.72298 0.0
C186 C 0.93276 0.24103 0.6025 0.0
O187 O 0.8292 0.19811 0.52593 0.0
O188 O 0.86872 0.20706 0.56182 0.0
O189 O 0.58686 0.70043 0.23995 0.0
Mg190 Mg 0.56698 0.73429 0.21123 0.0
O191 O 0.62471 0.70336 0.19337 0.0
Mg192 Mg 0.62022 0.73796 0.12735 0.0
O193 O 0.57667 0.73519 0.13278 0.0
O194 O 0.53515 0.73112 0.15577 0.0
O195 O 0.61534 0.77193 0.06097 0.0
O196 O 0.61695 0.70649 0.06067 0.0
Mg197 Mg 0.66911 0.74024 0.03783 0.0
O198 O 0.66417 0.73844 0.11845 0.0
O199 O 0.652 0.77533 0.01162 0.0
O200 O 0.65272 0.70487 0.00843 0.0
O201 O 0.70382 0.74022 0.08005 0.0
C202 C 0.60562 0.78067 0.2299 0.0
C203 C 0.6099 0.69217 0.22919 0.0
C204 C 0.55262 0.73237 0.11801 0.0
C205 C 0.62917 0.78342 0.02394 0.0
C206 C 0.63021 0.69614 0.0224 0.0
C207 C 0.68941 0.73758 0.12286 0.0
O208 O 0.58314 0.77024 0.23869 0.0
O209 O 0.62201 0.77133 0.19527 0.0
O210 O 0.5873 0.26928 0.7436 0.0
Mg211 Mg 0.56589 0.23757 0.7804 0.0
O212 O 0.62371 0.27246 0.79512 0.0
Mg213 Mg 0.62004 0.23787 0.86107 0.0
O214 O 0.57703 0.24192 0.857 0.0
O215 O 0.53549 0.24702 0.83673 0.0
O216 O 0.61439 0.20397 0.92577 0.0
O217 O 0.61867 0.26784 0.92996 0.0
Mg218 Mg 0.66574 0.22228 0.94851 0.0
O219 O 0.66341 0.23497 0.86991 0.0
O220 O 0.6518 0.18323 0.94349 0.0
O221 O 0.63955 0.24561 0.99553 0.0
O222 O 0.69622 0.24681 0.92269 0.0
C223 C 0.60391 0.19174 0.76671 0.0
C224 C 0.60912 0.28037 0.75545 0.0
C225 C 0.55386 0.24808 0.87262 0.0
C226 C 0.62693 0.18484 0.94832 0.0
C227 C 0.62473 0.26437 0.97976 0.0
C228 C 0.68228 0.25116 0.8799 0.0
O229 O 0.57998 0.19909 0.76341 0.0
O230 O 0.62125 0.20501 0.79293 0.0
O231 O 0.84235 0.72756 0.51127 0.0
Mg232 Mg 0.82067 0.75424 0.46087 0.0
O233 O 0.86572 0.70527 0.45011 0.0
Mg234 Mg 0.86776 0.73329 0.3765 0.0
O235 O 0.82493 0.74049 0.38469 0.0
O236 O 0.78778 0.7346 0.42877 0.0
O237 O 0.87123 0.76236 0.30302 0.0
O238 O 0.86141 0.69765 0.31249 0.0
Mg239 Mg 0.9213 0.71574 0.30256 0.0
O240 O 0.91007 0.72782 0.37477 0.0
O241 O 0.90502 0.74732 0.25333 0.0
O242 O 0.90077 0.67948 0.2993 0.0
O243 O 0.95203 0.72262 0.36056 0.0
C244 C 0.86466 0.78818 0.45723 0.0
C245 C 0.85717 0.70838 0.49838 0.0
C246 C 0.8032 0.72776 0.38994 0.0
C247 C 0.88611 0.76349 0.26106 0.0
C248 C 0.87595 0.67926 0.29261 0.0
C249 C 0.9335 0.72963 0.39286 0.0
O250 O 0.83985 0.7912 0.45387 0.0
O251 O 0.87577 0.768 0.43632 0.0
O252 O 0.54436 0.58438 0.72246 0.0
Mg253 Mg 0.50531 0.57011 0.72147 0.0
O254 O 0.53029 0.62102 0.6828 0.0
Mg255 Mg 0.49664 0.61365 0.62146 0.0
O256 O 0.49407 0.57099 0.64385 0.0
O257 O 0.49567 0.53371 0.69127 0.0
O258 O 0.4615 0.60885 0.55709 0.0
O259 O 0.52929 0.6069 0.55328 0.0
Mg260 Mg 0.49567 0.66462 0.52868 0.0
O261 O 0.49898 0.6559 0.60648 0.0
O262 O 0.45804 0.64798 0.51433 0.0
O263 O 0.52753 0.64219 0.49762 0.0
O264 O 0.50371 0.69691 0.58163 0.0
C265 C 0.46093 0.61052 0.73565 0.0
C266 C 0.54707 0.60872 0.71203 0.0
C267 C 0.49079 0.54593 0.64629 0.0
C268 C 0.44926 0.62496 0.52522 0.0
C269 C 0.53767 0.62027 0.51209 0.0
C270 C 0.50414 0.67954 0.61994 0.0
O271 O 0.47512 0.59236 0.75618 0.0
O272 O 0.46552 0.62059 0.68874 0.0
O273 O 0.97173 0.39296 0.25843 0.0
Mg274 Mg -0.00093 0.41672 0.21419 0.0
O275 O 0.95915 0.3643 0.19517 0.0
Mg276 Mg 0.98946 0.36658 0.12563 0.0
O277 O -0.00876 0.40937 0.13551 0.0
O278 O 0.97771 0.44596 0.17215 0.0
O279 O 0.02225 0.36766 0.05619 0.0
O280 O 0.95438 0.36983 0.06026 0.0
Mg281 Mg 0.98564 0.31137 0.04704 0.0
O282 O 0.98781 0.32378 0.1228 0.0
O283 O 0.02112 0.32826 0.01555 0.0
O284 O 0.95063 0.33023 0.0212 0.0
O285 O 0.98626 0.2815 0.10874 0.0
C286 C 0.03952 0.37635 0.21671 0.0
C287 C 0.95678 0.37443 0.24219 0.0
C288 C 0.97563 0.42906 0.1338 0.0
C289 C 0.03156 0.35088 0.02248 0.0
C290 C 0.94251 0.35364 0.02848 0.0
C291 C 0.9882 0.30051 0.14265 0.0
O292 O 0.03791 0.40136 0.2185 0.0
O293 O 0.02287 0.36258 0.18992 0.0
O294 O 0.519 0.38966 0.23169 0.0
Mg295 Mg 0.48912 0.41352 0.26511 0.0
O296 O 0.52826 0.36207 0.30045 0.0
Mg297 Mg 0.49754 0.36772 0.36835 0.0
O298 O 0.49694 0.40947 0.34318 0.0
O299 O 0.50209 0.44798 0.30368 0.0
O300 O 0.46398 0.37208 0.43719 0.0
O301 O 0.53248 0.37545 0.43305 0.0
Mg302 Mg 0.50046 0.31745 0.46411 0.0
O303 O 0.50099 0.32566 0.38558 0.0
O304 O 0.46352 0.33359 0.4834 0.0
O305 O 0.53182 0.34113 0.49139 0.0
O306 O 0.50938 0.28542 0.41147 0.0
C307 C 0.44703 0.37286 0.27551 0.0
C308 C 0.53273 0.37124 0.25278 0.0
C309 C 0.50524 0.43317 0.34588 0.0
C310 C 0.45372 0.3561 0.47246 0.0
C311 C 0.54149 0.36294 0.47489 0.0
C312 C 0.50811 0.30248 0.37264 0.0
O313 O 0.45091 0.39724 0.26589 0.0
O314 O 0.46297 0.35936 0.30542 0.0
O315 O 0.95947 0.57964 0.76219 0.0
Mg316 Mg -0.00412 0.56696 0.7942 0.0
O317 O 0.96156 0.61765 0.806 0.0
Mg318 Mg -0.00468 0.61947 0.86935 0.0
O319 O -0.00319 0.57562 0.87483 0.0
O320 O -0.00146 0.53466 0.84344 0.0
O321 O 0.0296 0.62223 0.9353 0.0
O322 O 0.96162 0.62199 0.93908 0.0
Mg323 Mg -0.00385 0.67956 0.92967 0.0
O324 O -0.00511 0.66191 0.85826 0.0
O325 O 0.03193 0.66414 0.96278 0.0
O326 O 0.96088 0.66426 0.96498 0.0
O327 O -0.00462 0.70478 0.85965 0.0
C328 C 0.03787 0.60496 0.7638 0.0
C329 C 0.95041 0.6024 0.77195 0.0
C330 C -0.00263 0.55064 0.88379 0.0
C331 C 0.04074 0.64063 0.96266 0.0
C332 C 0.95123 0.64101 0.96618 0.0
C333 C -0.00528 0.68354 0.83159 0.0
O334 O 0.02938 0.58181 0.75589 0.0
O335 O 0.02775 0.61963 0.80032 0.0
H336 H 0.08873 0.13296 0.03208 0.0
H337 H 0.09571 0.14485 0.71508 0.0
H338 H 0.03855 0.09119 0.9214 0.0
H339 H 0.1385 0.19416 0.82564 0.0
H340 H 0.08835 0.11277 0.7883 0.0
H341 H 0.11968 0.14199 0.95805 0.0
C342 C 0.08499 0.12431 0.99284 0.0
C343 C 0.06099 0.1113 0.98296 0.0
C344 C 0.10023 0.13009 0.79629 0.0
C345 C 0.09573 0.12269 0.8971 0.0
C346 C 0.10481 0.14824 0.75414 0.0
C347 C 0.11781 0.17218 0.76423 0.0
C348 C 0.10822 0.13619 0.84929 0.0
C349 C 0.12857 0.17586 0.81601 0.0
C350 C 0.10247 0.1299 0.95021 0.0
C351 C 0.05686 0.10119 0.93089 0.0
N352 N 0.12297 0.15843 0.85692 0.0
N353 N 0.07366 0.10766 0.88966 0.0
H354 H 0.06323 0.81158 0.26032 0.0
H355 H 0.10142 0.85284 0.96872 0.0
H356 H 0.13931 0.79299 0.19351 0.0
H357 H 0.03627 0.8867 0.0549 0.0
H358 H 0.12197 0.84089 0.05508 0.0
H359 H 0.05807 0.84655 0.19278 0.0
C360 C 0.07922 0.81542 0.23213 0.0
C361 C 0.1017 0.79938 0.23246 0.0
C362 C 0.10368 0.85186 0.05541 0.0
C363 C 0.09561 0.83908 0.15321 0.0
C364 C 0.09217 0.85925 0.00589 0.0
C365 C 0.06673 0.87025 0.00443 0.0
C366 C 0.08944 0.85526 0.10367 0.0
C367 C 0.05574 0.87797 0.05396 0.0
C368 C 0.07627 0.83543 0.19341 0.0
C369 C 0.12171 0.805 0.19471 0.0
N370 N 0.06655 0.86935 0.10149 0.0
N371 N 0.11793 0.82401 0.15577 0.0
H372 H 0.38124 0.84289 0.22052 0.0
H373 H 0.44588 0.8835 0.44806 0.0
H374 H 0.36283 0.77879 0.32983 0.0
H375 H 0.38287 0.84849 0.5411 0.0
H376 H 0.42109 0.87496 0.36507 0.0
H377 H 0.38585 0.87239 0.29853 0.0
C378 C 0.37693 0.83533 0.26077 0.0
C379 C 0.37137 0.80839 0.26866 0.0
C380 C 0.41192 0.87043 0.4037 0.0
C381 C 0.37796 0.84163 0.35816 0.0
C382 C 0.426 0.8757 0.4514 0.0
C383 C 0.41647 0.86667 0.50173 0.0
C384 C 0.38823 0.85586 0.40648 0.0
C385 C 0.39094 0.85575 0.50314 0.0
C386 C 0.38007 0.85205 0.30533 0.0
C387 C 0.36663 0.7995 0.32183 0.0
N388 N 0.37817 0.84974 0.45624 0.0
N389 N 0.37047 0.81592 0.36453 0.0
H390 H 0.35011 0.19493 0.69579 0.0
H391 H 0.44058 0.09162 0.5567 0.0
H392 H 0.38251 0.12753 0.77922 0.0
H393 H 0.39911 0.15294 0.47048 0.0
H394 H 0.40956 0.09622 0.63243 0.0
H395 H 0.35634 0.17247 0.6096 0.0
C396 C 0.35703 0.17474 0.69634 0.0
C397 C 0.36594 0.1632 0.74492 0.0
C398 C 0.40661 0.10807 0.59621 0.0
C399 C 0.37464 0.13775 0.6458 0.0
C400 C 0.42417 0.10513 0.55257 0.0
C401 C 0.42248 0.12195 0.50726 0.0
C402 C 0.38758 0.12833 0.59483 0.0
C403 C 0.40112 0.13956 0.50473 0.0
C404 C 0.36118 0.16204 0.64678 0.0
C405 C 0.37552 0.13723 0.74268 0.0
N406 N 0.38497 0.14274 0.54825 0.0
N407 N 0.38035 0.12572 0.69402 0.0
H408 H 0.89159 0.8161 0.27932 0.0
H409 H 0.91144 0.84143 0.96325 0.0
H410 H 0.87614 0.76002 0.15321 0.0
H411 H 0.96139 0.87432 0.08654 0.0
H412 H 0.88073 0.82631 0.03378 0.0
H413 H 0.89984 0.85023 0.20956 0.0
C414 C 0.88889 0.8113 0.23699 0.0
C415 C 0.88332 0.78532 0.22166 0.0
C416 C 0.8978 0.83789 0.04521 0.0
C417 C 0.89251 0.82399 0.14229 0.0
C418 C 0.91512 0.84687 0.00493 0.0
C419 C 0.93896 0.85899 0.01929 0.0
C420 C 0.90445 0.84121 0.09998 0.0
C421 C 0.94315 0.86503 0.07398 0.0
C422 C 0.8937 0.83069 0.19734 0.0
C423 C 0.88047 0.77987 0.16644 0.0
N424 N 0.92634 0.85557 0.1126 0.0
N425 N 0.88532 0.79899 0.12869 0.0
H426 H 0.85872 0.20243 0.82723 0.0
H427 H 0.94767 0.09006 0.93992 0.0
H428 H 0.90035 0.14767 0.72657 0.0
H429 H 0.89918 0.13925 0.0397 0.0
H430 H 0.91946 0.10041 0.86227 0.0
H431 H 0.86247 0.17144 0.90359 0.0
C432 C 0.86758 0.1833 0.82065 0.0
C433 C 0.87907 0.17745 0.77057 0.0
C434 C 0.91425 0.10818 0.90155 0.0
C435 C 0.88447 0.14221 0.85826 0.0
C436 C 0.93012 0.10177 0.9463 0.0
C437 C 0.92601 0.11415 0.99619 0.0
C438 C 0.89444 0.12739 0.90681 0.0
C439 C 0.90317 0.12946 0.00179 0.0
C440 C 0.86997 0.16565 0.8644 0.0
C441 C 0.89109 0.15278 0.76456 0.0
N442 N 0.88879 0.13641 0.95733 0.0
N443 N 0.8939 0.13627 0.80808 0.0
H444 H 0.585 0.14159 0.77236 0.0
H445 H 0.58468 0.15141 0.46399 0.0
H446 H 0.63784 0.19158 0.68099 0.0
H447 H 0.54051 0.09326 0.55449 0.0
H448 H 0.61613 0.15445 0.53855 0.0
H449 H 0.58138 0.11229 0.69483 0.0
C450 C 0.59676 0.14575 0.7366 0.0
C451 C 0.61137 0.16923 0.73259 0.0
C452 C 0.60017 0.14027 0.54167 0.0
C453 C 0.60606 0.13672 0.64242 0.0
C454 C 0.58231 0.13839 0.49876 0.0
C455 C 0.55987 0.12229 0.50354 0.0
C456 C 0.59487 0.12676 0.59053 0.0
C457 C 0.55754 0.10601 0.54946 0.0
C458 C 0.59452 0.12913 0.69201 0.0
C459 C 0.62618 0.17375 0.68546 0.0
N460 N 0.57435 0.10924 0.59196 0.0
N461 N 0.62246 0.15815 0.64149 0.0
H462 H 0.57478 0.84507 0.52915 0.0
H463 H 0.58933 0.83058 0.21022 0.0
H464 H 0.51455 0.86011 0.40985 0.0
H465 H 0.63173 0.78311 0.32629 0.0
H466 H 0.57586 0.85997 0.28312 0.0
H467 H 0.60725 0.84013 0.4555 0.0
C468 C 0.56867 0.84838 0.48758 0.0
C469 C 0.54205 0.85297 0.4753 0.0
C470 C 0.58907 0.84378 0.29238 0.0
C471 C 0.57878 0.84728 0.3914 0.0
C472 C 0.59715 0.82724 0.25058 0.0
C473 C 0.61146 0.80425 0.26234 0.0
C474 C 0.59523 0.83713 0.34629 0.0
C475 C 0.62065 0.80062 0.31556 0.0
C476 C 0.58711 0.84541 0.44566 0.0
C477 C 0.53494 0.85663 0.42086 0.0
N478 N 0.61177 0.81645 0.35595 0.0
N479 N 0.55311 0.85345 0.38094 0.0
H480 H 0.5966 0.6411 0.2135 0.0
H481 H 0.58826 0.63506 0.52914 0.0
H482 H 0.6396 0.69175 0.32112 0.0
H483 H 0.53922 0.59074 0.42047 0.0
H484 H 0.62016 0.64209 0.45602 0.0
H485 H 0.5899 0.60964 0.28798 0.0
C486 C 0.60592 0.64489 0.25217 0.0
C487 C 0.61858 0.66909 0.26126 0.0
C488 C 0.60299 0.62988 0.44854 0.0
C489 C 0.60972 0.63389 0.34765 0.0
C490 C 0.58494 0.6255 0.49064 0.0
C491 C 0.56107 0.61229 0.48081 0.0
C492 C 0.59685 0.62136 0.39597 0.0
C493 C 0.55744 0.60095 0.42977 0.0
C494 C 0.60172 0.6271 0.29505 0.0
C495 C 0.62976 0.67327 0.31244 0.0
N496 N 0.57478 0.60628 0.38889 0.0
N497 N 0.62444 0.65624 0.35414 0.0
H498 H 0.59165 0.32981 0.77356 0.0
H499 H 0.59294 0.35122 0.45813 0.0
H500 H 0.63758 0.28437 0.66178 0.0
H501 H 0.54121 0.39137 0.56776 0.0
H502 H 0.62179 0.33983 0.53413 0.0
H503 H 0.58543 0.36369 0.70337 0.0
C504 C 0.60159 0.32765 0.73499 0.0
C505 C 0.61543 0.30442 0.72363 0.0
C506 C 0.60471 0.35205 0.5415 0.0
C507 C 0.60737 0.34256 0.64196 0.0
C508 C 0.58849 0.35911 0.49772 0.0
C509 C 0.56443 0.37202 0.5066 0.0
C510 C 0.59667 0.35782 0.5946 0.0
C511 C 0.55951 0.38128 0.55907 0.0
C512 C 0.59774 0.34685 0.69458 0.0
C513 C 0.6271 0.30216 0.67238 0.0
N514 N 0.57496 0.37329 0.60134 0.0
N515 N 0.6224 0.32071 0.63316 0.0
H516 H 0.94205 0.38874 0.94381 0.0
H517 H 0.84896 0.28469 0.80896 0.0
H518 H 0.89282 0.33377 0.03152 0.0
H519 H 0.9011 0.33734 0.72231 0.0
H520 H 0.85185 0.31344 0.88812 0.0
H521 H 0.91445 0.38249 0.86338 0.0
C522 C 0.92456 0.37647 0.94703 0.0
C523 C 0.91989 0.3615 0.99417 0.0
C524 C 0.8619 0.31931 0.85118 0.0
C525 C 0.88897 0.35315 0.90162 0.0
C526 C 0.85997 0.303 0.8057 0.0
C527 C 0.875 0.30856 0.75923 0.0
C528 C 0.8792 0.34115 0.85016 0.0
C529 C 0.88934 0.33229 0.75756 0.0
C530 C 0.90901 0.37251 0.90074 0.0
C531 C 0.89718 0.34555 0.99575 0.0
N532 N 0.89153 0.3474 0.80264 0.0
N533 N 0.88303 0.34119 0.94981 0.0
H534 H 0.88632 0.62727 0.27436 0.0
H535 H 0.91011 0.67448 0.97712 0.0
H536 H 0.84852 0.69501 0.20262 0.0
H537 H 0.93901 0.60011 0.03821 0.0
H538 H 0.87861 0.67608 0.05142 0.0
H539 H 0.89493 0.61015 0.18383 0.0
C540 C 0.87857 0.63791 0.23957 0.0
C541 C 0.86713 0.66293 0.24627 0.0
C542 C 0.89128 0.65901 0.04821 0.0
C543 C 0.87815 0.64402 0.14199 0.0
C544 C 0.90934 0.65805 0.0055 0.0
C545 C 0.9276 0.63731 0.00169 0.0
C546 C 0.89167 0.63939 0.08874 0.0
C547 C 0.92548 0.61656 0.03964 0.0
C548 C 0.88392 0.6283 0.18765 0.0
C549 C 0.8576 0.67578 0.1996 0.0
N550 N 0.90834 0.61845 0.08233 0.0
N551 N 0.86412 0.66667 0.14951 0.0
H552 H 0.40417 0.33967 0.45129 0.0
H553 H 0.3816 0.31859 0.76833 0.0
H554 H 0.44991 0.38259 0.56798 0.0
H555 H 0.39076 0.25769 0.64932 0.0
H556 H 0.38601 0.35214 0.69524 0.0
H557 H 0.37656 0.32231 0.5247 0.0
C558 C 0.40729 0.34695 0.49193 0.0
C559 C 0.42969 0.36222 0.50358 0.0
C560 C 0.3863 0.33139 0.68529 0.0
C561 C 0.39854 0.34195 0.58793 0.0
C562 C 0.38371 0.3123 0.72675 0.0
C563 C 0.38605 0.28538 0.71473 0.0
C564 C 0.3904 0.3233 0.63163 0.0
C565 C 0.38901 0.27823 0.66032 0.0
C566 C 0.3918 0.3366 0.53399 0.0
C567 C 0.43296 0.37068 0.55726 0.0
N568 N 0.39118 0.29702 0.62095 0.0
N569 N 0.41813 0.35975 0.59786 0.0
H570 H 0.44758 0.58684 0.44811 0.0
H571 H 0.43299 0.66491 0.23636 0.0
H572 H 0.40037 0.64683 0.52252 0.0
H573 H 0.35528 0.68672 0.29006 0.0
H574 H 0.43517 0.63195 0.30833 0.0
H575 H 0.42428 0.59473 0.36251 0.0
C576 C 0.43129 0.60063 0.44732 0.0
C577 C 0.4265 0.61686 0.49188 0.0
C578 C 0.41708 0.643 0.30333 0.0
C579 C 0.40097 0.6271 0.3937 0.0
C580 C 0.41594 0.66205 0.2623 0.0
C581 C 0.39393 0.67854 0.25719 0.0
C582 C 0.39633 0.64078 0.3409 0.0
C583 C 0.37255 0.67426 0.29248 0.0
C584 C 0.4184 0.6056 0.39805 0.0
C585 C 0.40507 0.63434 0.48853 0.0
N586 N 0.37462 0.65635 0.33401 0.0
N587 N 0.39372 0.63976 0.43971 0.0
H588 H 0.09805 0.6346 0.27352 0.0
H589 H 0.08711 0.66728 0.96505 0.0
H590 H 0.14152 0.69665 0.19307 0.0
H591 H 0.04588 0.60303 0.04328 0.0
H592 H 0.11773 0.66906 0.04128 0.0
H593 H 0.09128 0.61317 0.18638 0.0
C594 C 0.10736 0.64303 0.23778 0.0
C595 C 0.11992 0.66777 0.24045 0.0
C596 C 0.10255 0.65398 0.04135 0.0
C597 C 0.11103 0.64402 0.13993 0.0
C598 C 0.08507 0.65293 0.99764 0.0
C599 C 0.06372 0.63525 -0.00176 0.0
C600 C 0.09841 0.63756 0.08679 0.0
C601 C 0.06204 0.61703 0.04131 0.0
C602 C 0.1031 0.63098 0.18774 0.0
C603 C 0.13151 0.67775 0.19287 0.0
N604 N 0.07874 0.61908 0.08452 0.0
N605 N 0.12602 0.66635 0.14432 0.0
H606 H 0.14016 0.28464 0.82321 0.0
H607 H 0.03727 0.38543 0.9371 0.0
H608 H 0.09031 0.3345 0.72551 0.0
H609 H 0.07905 0.32711 0.03121 0.0
H610 H 0.06979 0.38044 0.86407 0.0
H611 H 0.13241 0.31341 0.90071 0.0
C612 C 0.12877 0.30248 0.81729 0.0
C613 C 0.11569 0.30711 0.76807 0.0
C614 C 0.07242 0.36941 0.90147 0.0
C615 C 0.10557 0.3394 0.85711 0.0
C616 C 0.05399 0.3725 0.94338 0.0
C617 C 0.05546 0.35654 0.98999 0.0
C618 C 0.09211 0.34995 0.90614 0.0
C619 C 0.07724 0.33973 0.99574 0.0
C620 C 0.12396 0.31872 0.86182 0.0
C621 C 0.10069 0.33023 0.76292 0.0
N622 N 0.09437 0.33647 0.95395 0.0
N623 N 0.09546 0.34512 0.8072 0.0
H624 H 0.95411 0.28538 0.22264 0.0
H625 H 0.04903 0.19767 0.1572 0.0
H626 H 0.03608 0.30118 0.19123 0.0
H627 H 0.9697 0.18022 0.20819 0.0
H628 H 0.0536 0.22808 0.23237 0.0
H629 H 0.96673 0.25048 0.28585 0.0
C630 C 0.97485 0.28236 0.23123 0.0
C631 C -0.00586 0.2948 0.19945 0.0
C632 C 0.03532 0.21712 0.22852 0.0
C633 C 0.00846 0.25329 0.26603 0.0
C634 C 0.03279 0.19982 0.18536 0.0
C635 C 0.00853 0.18762 0.17552 0.0
C636 C 0.01245 0.22457 0.25693 0.0
C637 C 0.9884 0.19018 0.2137 0.0
C638 C 0.98219 0.26227 0.26722 0.0
C639 C 0.02059 0.2908 0.213 0.0
N640 N -0.00958 0.20917 0.25195 0.0
N641 N 0.02716 0.26979 0.24463 0.0
H642 H 0.93655 0.78205 0.41162 0.0
H643 H 0.05155 0.71656 0.49423 0.0
H644 H 0.94575 0.7064 0.48965 0.0
H645 H 0.0409 0.78717 0.39874 0.0
H646 H 0.01735 0.73162 0.55643 0.0
H647 H 0.96873 0.80068 0.4741 0.0
C648 C 0.94459 0.76962 0.44353 0.0
C649 C 0.93986 0.74242 0.44398 0.0
C650 C 0.02337 0.74457 0.52346 0.0
C651 C 0.97841 0.76279 0.51086 0.0
C652 C 0.04294 0.73588 0.48796 0.0
C653 C 0.04784 0.7501 0.44018 0.0
C654 C 0.00754 0.76615 0.50771 0.0
C655 C 0.03658 0.77509 0.43413 0.0
C656 C 0.96295 0.78023 0.47947 0.0
C657 C 0.95006 0.72729 0.48662 0.0
N658 N 0.01652 0.78224 0.46707 0.0
N659 N 0.96952 0.73754 0.51788 0.0
H660 H 0.47274 0.67912 0.70918 0.0
H661 H 0.53425 0.80142 0.68384 0.0
H662 H 0.55135 0.69765 0.65569 0.0
H663 H 0.45517 0.78448 0.7369 0.0
H664 H 0.55051 0.76644 0.74301 0.0
H665 H 0.47764 0.71054 0.78279 0.0
C666 C 0.49149 0.68894 0.71463 0.0
C667 C 0.51113 0.68709 0.67516 0.0
C668 C 0.52964 0.771 0.74396 0.0
C669 C 0.51621 0.72434 0.75581 0.0
C670 C 0.5204 0.79122 0.71022 0.0
C671 C 0.49321 0.79443 0.70311 0.0
C672 C 0.51124 0.75283 0.76561 0.0
C673 C 0.47626 0.78131 0.73905 0.0
C674 C 0.4944 0.70699 0.75663 0.0
C675 C 0.53523 0.69977 0.68409 0.0
N676 N 0.48544 0.76033 0.7679 0.0
N677 N 0.53696 0.71843 0.72292 0.0
H678 H 0.55453 0.21915 0.96531 0.0
H679 H 0.43308 0.27824 0.92579 0.0
H680 H 0.53783 0.2968 0.90359 0.0
H681 H 0.45197 0.19996 0.98172 0.0
H682 H 0.46685 0.29599 0.98564 0.0
H683 H 0.52348 0.22619 0.0389 0.0
C684 C 0.54553 0.23833 0.96928 0.0
C685 C 0.54782 0.25698 0.92752 0.0
C686 C 0.46288 0.27498 0.98709 0.0
C687 C 0.5096 0.26359 0.00605 0.0
C688 C 0.44344 0.26488 0.95286 0.0
C689 C 0.44099 0.23757 0.94688 0.0
C690 C 0.48095 0.25737 0.01129 0.0
C691 C 0.45438 0.22117 0.98338 0.0
C692 C 0.52735 0.24234 0.0109 0.0
C693 C 0.53541 0.28136 0.93384 0.0
N694 N 0.47435 0.23126 0.01339 0.0
N695 N 0.51609 0.28378 0.97153 0.0
H696 H 0.95333 0.78775 0.8226 0.0
H697 H 0.03591 0.68898 0.76128 0.0
H698 H 0.03594 0.79533 0.7856 0.0
H699 H 0.95145 0.68376 0.76478 0.0
H700 H 0.03284 0.72684 0.70087 0.0
H701 H 0.94791 0.75883 0.74516 0.0
C702 C 0.97017 0.7839 0.79685 0.0
C703 C -0.00477 0.79306 0.81098 0.0
C704 C 0.01475 0.7169 0.71271 0.0
C705 C 0.98986 0.75801 0.72581 0.0
C706 C 0.01661 0.69484 0.74682 0.0
C707 C -0.00619 0.68516 0.7723 0.0
C708 C -0.00977 0.72982 0.7091 0.0
C709 C 0.96958 0.69245 0.74967 0.0
C710 C 0.96719 0.76737 0.75246 0.0
C711 C 0.01639 0.78794 0.7764 0.0
N712 N 0.96816 0.71532 0.7207 0.0
N713 N 0.01345 0.77005 0.73621 0.0
H714 H 0.535 0.68919 0.06444 0.0
H715 H 0.44725 0.7922 0.01951 0.0
H716 H 0.54952 0.77218 0.04574 0.0
H717 H 0.4298 0.70982 0.04224 0.0
H718 H 0.48131 0.78069 0.95448 0.0
H719 H 0.50323 0.69137 0.99018 0.0
C720 C 0.53239 0.70769 0.04273 0.0
C721 C 0.54444 0.73076 0.06129 0.0
C722 C 0.46929 0.76499 0.97165 0.0
C723 C 0.50651 0.73394 0.98027 0.0
C724 C 0.44965 0.77169 0.0087 0.0
C725 C 0.43724 0.75177 0.03912 0.0
C726 C 0.47787 0.7386 0.97053 0.0
C727 C 0.44021 0.72574 0.02189 0.0
C728 C 0.51426 0.709 0.0002 0.0
C729 C 0.54067 0.75409 0.03199 0.0
N730 N 0.46105 0.71966 0.98984 0.0
N731 N 0.52147 0.75533 0.99375 0.0
H732 H 0.45551 0.20194 0.28576 0.0
H733 H 0.55446 0.28177 0.33859 0.0
H734 H 0.53694 0.18027 0.30499 0.0
H735 H 0.47846 0.30629 0.28098 0.0
H736 H 0.55783 0.25156 0.26313 0.0
H737 H 0.46841 0.23536 0.21951 0.0
C738 C 0.47604 0.2033 0.27378 0.0
C739 C 0.49536 0.18918 0.30212 0.0
C740 C 0.5405 0.26393 0.26565 0.0
C741 C 0.51049 0.22941 0.23209 0.0
C742 C 0.53868 0.2812 0.30898 0.0
C743 C 0.51531 0.29511 0.31744 0.0
C744 C 0.51733 0.25793 0.23662 0.0
C745 C 0.49607 0.29464 0.27703 0.0
C746 C 0.48357 0.22259 0.23607 0.0
C747 C 0.52155 0.19162 0.28525 0.0
N748 N 0.49691 0.27541 0.23911 0.0
N749 N 0.52855 0.21187 0.25185 0.0
H750 H 0.05163 0.20077 0.54754 0.0
H751 H 0.94107 0.19627 0.54527 0.0
H752 H 0.03842 0.2839 0.5663 0.0
H753 H 0.93528 0.28034 0.52582 0.0
H754 H 0.97634 0.19578 0.47914 0.0
H755 H 0.01973 0.20029 0.4733 0.0
C756 C 0.04262 0.21913 0.53456 0.0
C757 C 0.04669 0.24221 0.564 0.0
C758 C 0.96712 0.21448 0.48762 0.0
C759 C 0.00824 0.24134 0.48387 0.0
C760 C 0.94651 0.21459 0.52513 0.0
C761 C 0.93697 0.23865 0.54404 0.0
C762 C 0.97934 0.23871 0.47401 0.0
C763 C 0.94366 0.2615 0.51489 0.0
C764 C 0.02409 0.21886 0.49259 0.0
C765 C 0.03501 0.2655 0.54549 0.0
N766 N 0.96516 0.26119 0.48203 0.0
N767 N 0.01589 0.26441 0.50718 0.0
H768 H 0.9727 -0.00419 0.14151 0.0
H769 H 0.02539 0.98131 0.8414 0.0
H770 H 0.00071 0.06199 0.04599 0.0
H771 H 0.00478 0.91649 0.94844 0.0
H772 H 0.01935 0.01165 0.91622 0.0
H773 H 0.98075 0.96704 0.06541 0.0
C774 C 0.98008 0.00429 0.10394 0.0
C775 C 0.98729 0.03083 0.10014 0.0
C776 C 0.0167 -0.0093 0.92341 0.0
C777 C -0.00251 -0.00168 0.01463 0.0
C778 C 0.02055 0.97336 0.88111 0.0
C779 C 0.01432 0.94661 0.88858 0.0
C780 C 0.00695 0.98079 0.9727 0.0
C781 C 0.00909 0.93708 0.94077 0.0
C782 C 0.98509 0.98788 0.06093 0.0
C783 C -0.0042 0.04131 0.05052 0.0
N784 N 0.00479 0.95435 0.98085 0.0
N785 N 0.00138 0.02477 0.00956 0.0
H786 H 0.20629 0.80648 0.34531 0.0
H787 H 0.26521 0.70034 0.1761 0.0
H788 H 0.16131 0.7449 0.26982 0.0
H789 H 0.30535 0.77495 0.19063 0.0
H790 H 0.22513 0.72037 0.20975 0.0
H791 H 0.23721 0.80584 0.27036 0.0
C792 C 0.20198 0.79396 0.31107 0.0
C793 C 0.1835 0.77348 0.31571 0.0
C794 C 0.24265 0.73251 0.20559 0.0
C795 C 0.218 0.77242 0.23215 0.0
C796 C 0.26574 0.72074 0.1889 0.0
C797 C 0.28789 0.73643 0.17919 0.0
C798 C 0.2423 0.75988 0.21418 0.0
C799 C 0.28816 0.76253 0.19689 0.0
C800 C 0.21983 0.79339 0.26851 0.0
C801 C 0.17705 0.75938 0.26933 0.0
N802 N 0.26527 0.77382 0.21255 0.0
N803 N 0.19534 0.758 0.22973 0.0
H804 H 0.44598 0.05315 0.42691 0.0
H805 H 0.4788 0.91363 0.53995 0.0
H806 H 0.51771 0.00779 0.42086 0.0
H807 H 0.44499 0.9688 0.65226 0.0
H808 H 0.46571 0.94229 0.46561 0.0
H809 H 0.42655 0.01932 0.48803 0.0
C810 C 0.45782 0.03653 0.4401 0.0
C811 C 0.48334 0.03284 0.41965 0.0
C812 C 0.45997 0.94748 0.50646 0.0
C813 C 0.46101 -0.00577 0.48414 0.0
C814 C 0.46738 0.93107 0.54891 0.0
C815 C 0.4642 0.93977 0.60202 0.0
C816 C 0.45106 0.97297 0.51822 0.0
C817 C 0.44912 0.96241 0.6114 0.0
C818 C 0.44654 0.01713 0.4733 0.0
C819 C 0.49795 0.01104 0.43611 0.0
N820 N 0.44403 0.97911 0.56961 0.0
N821 N 0.48643 -0.00769 0.46713 0.0
H822 H 0.3235 0.22597 0.77877 0.0
H823 H 0.18244 0.19958 0.68261 0.0
H824 H 0.26415 0.19474 0.88722 0.0
H825 H 0.24119 0.25786 0.63904 0.0
H826 H 0.21615 0.17585 0.73644 0.0
H827 H 0.30064 0.20573 0.70352 0.0
C828 C 0.30635 0.21382 0.78711 0.0
C829 C 0.29487 0.21305 0.83846 0.0
C830 C 0.22149 0.19359 0.71414 0.0
C831 C 0.2672 0.19338 0.75252 0.0
C832 C 0.20228 0.2075 0.68514 0.0
C833 C 0.20927 0.23079 0.65743 0.0
C834 C 0.24751 0.20313 0.7142 0.0
C835 C 0.23514 0.24 0.66013 0.0
C836 C 0.29319 0.20227 0.74415 0.0
C837 C 0.27252 0.1972 0.84711 0.0
N838 N 0.25329 0.22614 0.68798 0.0
N839 N 0.25858 0.18872 0.80386 0.0
H840 H 0.67833 0.24836 0.76993 0.0
H841 H 0.79958 0.29648 0.65329 0.0
H842 H 0.7087 0.29675 0.89846 0.0
H843 H 0.79073 0.22332 0.74156 0.0
H844 H 0.76585 0.31649 0.71122 0.0
H845 H 0.71437 0.26361 0.71208 0.0
C846 C 0.69167 0.26336 0.78494 0.0
C847 C 0.69193 0.27011 0.83965 0.0
C848 C 0.77241 0.29655 0.71951 0.0
C849 C 0.73283 0.28678 0.77515 0.0
C850 C 0.79173 0.28522 0.68722 0.0
C851 C 0.79697 0.25816 0.69233 0.0
C852 C 0.7592 0.28046 0.75684 0.0
C853 C 0.7867 0.24416 0.73631 0.0
C854 C 0.71223 0.27207 0.75202 0.0
C855 C 0.70915 0.29003 0.85695 0.0
N856 N 0.76749 0.25531 0.76622 0.0
N857 N 0.73011 0.29669 0.82563 0.0
H858 H 0.76445 0.69083 0.40065 0.0
H859 H 0.72504 0.7652 0.17757 0.0
H860 H 0.82102 0.72255 0.28659 0.0
H861 H 0.68421 0.6905 0.1742 0.0
H862 H 0.75909 0.74533 0.2338 0.0
H863 H 0.73642 0.6779 0.32513 0.0
C864 C 0.77162 0.69379 0.35966 0.0
C865 C 0.79409 0.70923 0.34926 0.0
C866 C 0.74271 0.73319 0.2206 0.0
C867 C 0.76263 0.69469 0.26461 0.0
C868 C 0.72298 0.74477 0.19035 0.0
C869 C 0.70214 0.72934 0.17219 0.0
C870 C 0.74152 0.70604 0.23221 0.0
C871 C 0.70015 0.70284 0.18868 0.0
C872 C 0.75582 0.686 0.31668 0.0
C873 C 0.80337 0.71141 0.29615 0.0
N874 N 0.71991 0.69172 0.21812 0.0
N875 N 0.78717 0.70467 0.25511 0.0
H876 H 0.49816 0.56159 0.54225 0.0
H877 H 0.4974 0.41377 0.44715 0.0
H878 H 0.47079 0.49654 0.64184 0.0
H879 H 0.53438 0.47756 0.35803 0.0
H880 H 0.49247 0.44244 0.52428 0.0
H881 H 0.50897 0.53073 0.47098 0.0
C882 C 0.4937 0.54086 0.54832 0.0
C883 C 0.48507 0.53107 0.59835 0.0
C884 C 0.50219 0.45005 0.48827 0.0
C885 C 0.498 0.49611 0.5192 0.0
C886 C 0.50553 0.4335 0.44471 0.0
C887 C 0.51485 0.44408 0.39587 0.0
C888 C 0.50822 0.4769 0.4816 0.0
C889 C 0.52579 0.46938 0.39474 0.0
C890 C 0.50045 0.52323 0.50834 0.0
C891 C 0.47863 0.5044 0.60415 0.0
N892 N 0.52131 0.48549 0.43677 0.0
N893 N 0.48589 0.48752 0.56519 0.0
H894 H 0.95483 0.5592 0.94665 0.0
H895 H 0.98464 0.41347 0.03028 0.0
H896 H 0.02726 0.51531 0.93652 0.0
H897 H 0.93128 0.45913 0.12733 0.0
H898 H 0.98087 0.44617 0.95826 0.0
H899 H 0.93394 0.52125 0.99265 0.0
C900 C 0.96662 0.54201 0.95655 0.0
C901 C -0.00763 0.53958 0.93668 0.0
C902 C 0.96903 0.44845 0.99449 0.0
C903 C 0.96855 0.49657 0.98427 0.0
C904 C 0.9709 0.42959 0.0353 0.0
C905 C 0.96009 0.43527 0.08589 0.0
C906 C 0.95685 0.47257 0.00631 0.0
C907 C 0.94152 0.45556 0.08962 0.0
C908 C 0.95446 0.52021 0.98061 0.0
C909 C 0.00712 0.5174 0.95049 0.0
N910 N 0.94151 0.47469 0.05109 0.0
N911 N -0.00528 0.49624 0.97209 0.0
H912 H 0.03777 0.15758 0.2519 0.0
H913 H 0.14925 0.15779 0.48021 0.0
H914 H 0.0935 0.09406 0.26794 0.0
H915 H 0.08562 0.2135 0.46693 0.0
H916 H 0.13152 0.1343 0.40099 0.0
H917 H 0.05934 0.18051 0.32495 0.0
C918 C 0.0554 0.14908 0.26914 0.0
C919 C 0.06427 0.12433 0.25283 0.0
C920 C 0.12126 0.15143 0.41605 0.0
C921 C 0.08816 0.14949 0.33983 0.0
C922 C 0.13116 0.16455 0.46135 0.0
C923 C 0.11817 0.18692 0.48064 0.0
C924 C 0.0988 0.16143 0.3896 0.0
C925 C 0.09536 0.1956 0.45447 0.0
C926 C 0.06732 0.1618 0.31211 0.0
C927 C 0.08621 0.11329 0.27925 0.0
N928 N 0.08649 0.18295 0.41007 0.0
N929 N 0.09736 0.12589 0.32199 0.0
H930 H 0.15282 0.80758 0.55996 0.0
H931 H 0.01171 0.83159 0.68226 0.0
H932 H 0.08056 0.79504 0.47187 0.0
H933 H 0.07833 0.87677 0.73841 0.0
H934 H 0.03905 0.81341 0.61051 0.0
H935 H 0.12809 0.83223 0.62798 0.0
C936 C 0.13176 0.81015 0.55473 0.0
C937 C 0.11829 0.79824 0.51162 0.0
C938 C 0.04771 0.82743 0.63824 0.0
C939 C 0.09024 0.82567 0.58906 0.0
C940 C 0.03225 0.83748 0.67928 0.0
C941 C 0.04308 0.85547 0.71547 0.0
C942 C 0.07404 0.83574 0.63332 0.0
C943 C 0.06965 0.86265 0.71095 0.0
C944 C 0.11775 0.82417 0.59345 0.0
C945 C 0.09132 0.80294 0.50563 0.0
N946 N 0.08443 0.85275 0.67005 0.0
N947 N 0.078 0.81578 0.54466 0.0
H948 H 0.33381 0.80211 0.92473 0.0
H949 H 0.4704 0.87441 0.86099 0.0
H950 H 0.39456 0.81663 0.04364 0.0
H951 H 0.41306 0.85478 0.7383 0.0
H952 H 0.43971 0.85924 0.93053 0.0
H953 H 0.35867 0.82867 0.85908 0.0
C954 C 0.35202 0.81139 0.9375 0.0
C955 C 0.36237 0.8067 0.98948 0.0
C956 C 0.43367 0.85848 0.88847 0.0
C957 C 0.39105 0.83666 0.91436 0.0
C958 C 0.45121 0.86713 0.84869 0.0
C959 C 0.44428 0.86573 0.79375 0.0
C960 C 0.40894 0.84844 0.87333 0.0
C961 C 0.41926 0.85594 0.78019 0.0
C962 C 0.36631 0.82637 0.89982 0.0
C963 C 0.386 0.81937 0.00379 0.0
N964 N 0.40248 0.84758 0.81978 0.0
N965 N 0.39973 0.83341 0.96617 0.0
H966 H 0.41261 0.08253 0.20139 0.0
H967 H 0.40303 0.21017 0.03071 0.0
H968 H 0.44081 0.15708 0.26182 0.0
H969 H 0.33067 0.16591 0.0467 0.0
H970 H 0.42229 0.18395 0.10417 0.0
H971 H 0.38492 0.1067 0.13543 0.0
C972 C 0.41261 0.1039 0.20135 0.0
C973 C 0.42914 0.11795 0.23651 0.0
C974 C 0.40221 0.17993 0.0915 0.0
C975 C 0.39856 0.14512 0.16143 0.0
C976 C 0.39141 0.19462 0.04954 0.0
C977 C 0.36551 0.18984 0.03316 0.0
C978 C 0.38706 0.16011 0.11648 0.0
C979 C 0.3508 0.1699 0.05883 0.0
C980 C 0.39686 0.11754 0.16407 0.0
C981 C 0.4284 0.14555 0.23536 0.0
N982 N 0.36194 0.15537 0.09943 0.0
N983 N 0.41384 0.15825 0.19748 0.0
H984 H 0.90471 0.76941 0.51882 0.0
H985 H 0.8963 0.88244 0.74018 0.0
H986 H 0.85425 0.83717 0.49924 0.0
H987 H 0.95907 0.82549 0.73184 0.0
H988 H 0.87719 0.86375 0.6575 0.0
H989 H 0.92301 0.78843 0.60018 0.0
C990 C 0.89825 0.78886 0.53035 0.0
C991 C 0.87863 0.80215 0.50089 0.0
C992 C 0.89489 0.85508 0.67448 0.0
C993 C 0.89821 0.82332 0.59694 0.0
C994 C 0.9056 0.8655 0.72191 0.0
C995 C 0.92892 0.85497 0.74376 0.0
C996 C 0.90772 0.83409 0.6489 0.0
C997 C 0.94047 0.83339 0.718 0.0
C998 C 0.90828 0.79946 0.57776 0.0
C999 C 0.86966 0.82647 0.52032 0.0
N1000 N 0.92984 0.82377 0.67187 0.0
N1001 N 0.87944 0.83626 0.56744 0.0
H1002 H 0.89545 0.15964 0.54056 0.0
H1003 H 0.92949 0.15454 0.23082 0.0
H1004 H 0.84075 0.19209 0.42393 0.0
H1005 H 0.94593 0.08909 0.33913 0.0
H1006 H 0.89968 0.17259 0.30009 0.0
H1007 H 0.91825 0.13707 0.46648 0.0
C1008 C 0.88809 0.16168 0.49952 0.0
C1009 C 0.86606 0.17732 0.48827 0.0
C1010 C 0.90976 0.15414 0.308 0.0
C1011 C 0.89243 0.15269 0.40366 0.0
C1012 C 0.92678 0.14393 0.2687 0.0
C1013 C 0.94086 0.12068 0.27963 0.0
C1014 C 0.90721 0.14111 0.35834 0.0
C1015 C 0.93615 0.10745 0.32917 0.0
C1016 C 0.90104 0.14891 0.45737 0.0
C1017 C 0.85743 0.17973 0.43426 0.0
N1018 N 0.92011 0.11805 0.36688 0.0
N1019 N 0.87089 0.16788 0.39369 0.0
H1020 H 0.63876 0.13654 0.99512 0.0
H1021 H 0.52693 0.15215 0.21906 0.0
H1022 H 0.58964 0.20508 0.01337 0.0
H1023 H 0.58431 0.09004 0.22887 0.0
H1024 H 0.55135 0.17231 0.14498 0.0
H1025 H 0.62027 0.11847 0.08025 0.0
C1026 C 0.62367 0.14746 0.01629 0.0
C1027 C 0.61462 0.17171 0.99563 0.0
C1028 C 0.55919 0.15466 0.16398 0.0
C1029 C 0.59415 0.15176 0.09306 0.0
C1030 C 0.54559 0.14367 0.20752 0.0
C1031 C 0.55445 0.12042 0.23208 0.0
C1032 C 0.58146 0.14176 0.14331 0.0
C1033 C 0.57728 0.10844 0.21166 0.0
C1034 C 0.61336 0.13732 0.06499 0.0
C1035 C 0.59585 0.18557 0.02563 0.0
N1036 N 0.59 0.11918 0.16802 0.0
N1037 N 0.58623 0.17539 0.07248 0.0
H1038 H 0.59586 0.87514 0.73465 0.0
H1039 H 0.57833 0.80245 0.02127 0.0
H1040 H 0.52417 0.83604 0.78547 0.0
H1041 H 0.65393 0.81117 0.94309 0.0
H1042 H 0.55763 0.8247 0.94352 0.0
H1043 H 0.61751 0.85914 0.81788 0.0
C1044 C 0.58491 0.86278 0.76284 0.0
C1045 C 0.55847 0.85632 0.75279 0.0
C1046 C 0.57879 0.82179 0.94375 0.0
C1047 C 0.58243 0.83927 0.84855 0.0
C1048 C 0.59051 0.80906 0.98799 0.0
C1049 C 0.61753 0.80354 0.98732 0.0
C1050 C 0.59445 0.8296 0.89938 0.0
C1051 C 0.63281 0.81413 0.94462 0.0
C1052 C 0.5971 0.85394 0.8104 0.0
C1053 C 0.54484 0.84077 0.79098 0.0
N1054 N 0.62101 0.82632 0.90196 0.0
N1055 N 0.55691 0.83295 0.83742 0.0
H1056 H 0.59573 0.59546 0.75131 0.0
H1057 H 0.57945 0.69798 0.99107 0.0
H1058 H 0.53506 0.6547 0.75935 0.0
H1059 H 0.65167 0.65513 0.96665 0.0
H1060 H 0.56056 0.67694 0.91186 0.0
H1061 H 0.6164 0.61449 0.83205 0.0
C1062 C 0.58727 0.61293 0.76917 0.0
C1063 C 0.5639 0.62379 0.74858 0.0
C1064 C 0.58041 0.67175 0.92419 0.0
C1065 C 0.58642 0.64466 0.84141 0.0
C1066 C 0.59092 0.68331 0.97015 0.0
C1067 C 0.61698 0.67811 0.98529 0.0
C1068 C 0.59613 0.6548 0.89338 0.0
C1069 C 0.63147 0.65964 0.95581 0.0
C1070 C 0.59882 0.62355 0.81541 0.0
C1071 C 0.55342 0.64619 0.77317 0.0
N1072 N 0.62088 0.64869 0.91078 0.0
N1073 N 0.56454 0.65565 0.81885 0.0
H1074 H 0.56209 0.32719 0.27493 0.0
H1075 H 0.61057 0.31608 0.96784 0.0
H1076 H 0.54951 0.38732 0.15272 0.0
H1077 H 0.61493 0.25254 0.08522 0.0
H1078 H 0.5936 0.34496 0.03864 0.0
H1079 H 0.588 0.30217 0.20978 0.0
C1080 C 0.56488 0.33514 0.23452 0.0
C1081 C 0.55269 0.35869 0.21846 0.0
C1082 C 0.59835 0.32471 0.04888 0.0
C1083 C 0.58268 0.33074 0.14428 0.0
C1084 C 0.60785 0.30825 0.00848 0.0
C1085 C 0.61411 0.28203 0.02095 0.0
C1086 C 0.59481 0.31465 0.10169 0.0
C1087 C 0.61054 0.27279 0.0742 0.0
C1088 C 0.57974 0.32096 0.19742 0.0
C1089 C 0.55788 0.3688 0.16636 0.0
N1090 N 0.60095 0.28905 0.11261 0.0
N1091 N 0.57224 0.35459 0.13088 0.0
H1092 H 0.94292 0.39362 0.34134 0.0
H1093 H 0.84766 0.27231 0.41013 0.0
H1094 H 0.92592 0.33042 0.23034 0.0
H1095 H 0.88093 0.3227 0.53243 0.0
H1096 H 0.86985 0.29847 0.3403 0.0
H1097 H 0.91361 0.37294 0.40781 0.0
C1098 C 0.93293 0.37547 0.33078 0.0
C1099 C 0.93715 0.36352 0.28041 0.0
C1100 C 0.87197 0.30412 0.38229 0.0
C1101 C 0.90364 0.33989 0.35633 0.0
C1102 C 0.85915 0.28935 0.4221 0.0
C1103 C 0.86241 0.29557 0.47689 0.0
C1104 C 0.88789 0.32548 0.39735 0.0
C1105 C 0.87802 0.31736 0.49048 0.0
C1106 C 0.91623 0.3637 0.36881 0.0
C1107 C 0.92338 0.34024 0.26873 0.0
N1108 N 0.89023 0.33163 0.45081 0.0
N1109 N 0.90737 0.32907 0.30663 0.0
H1110 H 0.93278 0.58336 0.67523 0.0
H1111 H 0.85648 0.71659 0.60723 0.0
H1112 H 0.91944 0.64535 0.79064 0.0
H1113 H 0.87688 0.65849 0.48768 0.0
H1114 H 0.8726 0.68712 0.67822 0.0
H1115 H 0.90447 0.6064 0.61055 0.0
C1116 C 0.92344 0.60154 0.68743 0.0
C1117 C 0.92894 0.61284 0.73789 0.0
C1118 C 0.87327 0.68065 0.63656 0.0
C1119 C 0.89681 0.63935 0.66395 0.0
C1120 C 0.86405 0.69746 0.59597 0.0
C1121 C 0.86551 0.68999 0.54147 0.0
C1122 C 0.88394 0.65615 0.62261 0.0
C1123 C 0.87569 0.66509 0.52919 0.0
C1124 C 0.90741 0.61476 0.65032 0.0
C1125 C 0.91618 0.6363 0.75165 0.0
N1126 N 0.88465 0.64907 0.56952 0.0
N1127 N 0.90097 0.649 0.71453 0.0
H1128 H 0.43722 0.31958 0.26448 0.0
H1129 H 0.35932 0.34005 0.98497 0.0
H1130 H 0.41211 0.39572 0.20481 0.0
H1131 H 0.40046 0.26871 0.02914 0.0
H1132 H 0.37499 0.36038 0.06893 0.0
H1133 H 0.41742 0.2992 0.18471 0.0
C1134 C 0.42747 0.33198 0.23493 0.0
C1135 C 0.42774 0.35948 0.23987 0.0
C1136 C 0.38083 0.34038 0.05989 0.0
C1137 C 0.40468 0.33644 0.14905 0.0
C1138 C 0.37217 0.32894 0.01177 0.0
C1139 C 0.37911 0.30293 -0.00033 0.0
C1140 C 0.39596 0.3254 0.09665 0.0
C1141 C 0.39535 0.28911 0.03615 0.0
C1142 C 0.4162 0.32038 0.18931 0.0
C1143 C 0.4133 0.37447 0.20183 0.0
N1144 N 0.40303 0.30043 0.08322 0.0
N1145 N 0.40277 0.36281 0.15754 0.0
H1146 H 0.39366 0.72 0.94248 0.0
H1147 H 0.43855 0.5861 0.82272 0.0
H1148 H 0.36525 0.64645 0.00955 0.0
H1149 H 0.43324 0.65679 0.72429 0.0
H1150 H 0.41051 0.60635 0.89026 0.0
H1151 H 0.40974 0.69662 0.86301 0.0
C1152 C 0.39163 0.69873 0.94093 0.0
C1153 C 0.37928 0.68476 0.98296 0.0
C1154 C 0.41517 0.61731 0.85357 0.0
C1155 C 0.39645 0.65818 0.89209 0.0
C1156 C 0.43129 0.60587 0.81508 0.0
C1157 C 0.43937 0.62045 0.76928 0.0
C1158 C 0.40754 0.6436 0.84648 0.0
C1159 C 0.4285 0.64543 0.76031 0.0
C1160 C 0.40015 0.68554 0.89522 0.0
C1161 C 0.37563 0.65754 0.97841 0.0
N1162 N 0.41362 0.6566 0.7995 0.0
N1163 N 0.38454 0.64494 0.93378 0.0
H1164 H 0.10866 0.6509 0.46173 0.0
H1165 H 0.06681 0.65078 0.77085 0.0
H1166 H 0.14839 0.69853 0.58049 0.0
H1167 H 0.05359 0.58349 0.66827 0.0
H1168 H 0.09535 0.66996 0.70044 0.0
H1169 H 0.08682 0.62635 0.53582 0.0
C1170 C 0.11302 0.65585 0.50339 0.0
C1171 C 0.13049 0.67642 0.51533 0.0
C1172 C 0.08641 0.65084 0.69379 0.0
C1173 C 0.10504 0.64949 0.59954 0.0
C1174 C 0.07007 0.63997 0.73384 0.0
C1175 C 0.05763 0.61566 0.72534 0.0
C1176 C 0.08997 0.63742 0.64473 0.0
C1177 C 0.06272 0.60235 0.67668 0.0
C1178 C 0.1006 0.64197 0.54554 0.0
C1179 C 0.13538 0.68241 0.56981 0.0
N1180 N 0.07822 0.61355 0.63796 0.0
N1181 N 0.1224 0.6693 0.60992 0.0
H1182 H 0.08771 0.39047 0.25905 0.0
H1183 H 0.07892 0.27906 0.49029 0.0
H1184 H 0.02433 0.3341 0.27553 0.0
H1185 H 0.14061 0.33763 0.48561 0.0
H1186 H 0.05806 0.30023 0.41263 0.0
H1187 H 0.10827 0.37156 0.34095 0.0
C1188 C 0.07854 0.37369 0.2791 0.0
C1189 C 0.05486 0.36308 0.25944 0.0
C1190 C 0.07585 0.3089 0.42912 0.0
C1191 C 0.0775 0.34211 0.35344 0.0
C1192 C 0.08735 0.29715 0.47439 0.0
C1193 C 0.11095 0.30712 0.49539 0.0
C1194 C 0.08824 0.33069 0.40418 0.0
C1195 C 0.12216 0.32961 0.4709 0.0
C1196 C 0.09008 0.36309 0.32596 0.0
C1197 C 0.04331 0.34187 0.28754 0.0
N1198 N 0.11076 0.34061 0.42627 0.0
N1199 N 0.05468 0.33215 0.33309 0.0
loop_
_geom_bond_atom_site_label_1
_geom_bond_atom_site_label_2
_geom_bond_distance
_geom_bond_site_symmetry_2
_ccdc_geom_bond_type
O0 Mg1 1.990 . S
O0 C14 1.253 . S
Mg1 O0 1.990 . S
Mg1 O4 2.185 . S
Mg1 O5 2.117 . S
Mg1 O19 2.030 1_455 S
O2 Mg3 2.072 . S
O2 C14 1.260 . S
Mg3 O2 2.072 . S
Mg3 O4 2.100 . S
Mg3 O6 2.079 1_455 S
Mg3 O7 2.072 . S
Mg3 O9 2.100 . S
Mg3 O20 2.079 1_455 S
O4 Mg1 2.185 . S
O4 Mg3 2.100 . S
O4 C15 1.297 . S
O5 Mg1 2.117 . S
O5 C15 1.250 . S
O6 Mg3 2.079 1_655 S
O6 C16 1.264 . S
O7 Mg3 2.072 . S
O7 C17 1.260 . S
Mg8 O9 2.185 . S
Mg8 O10 2.021 1_454 S
Mg8 O11 1.990 . S
Mg8 O12 2.117 . S
O9 Mg3 2.100 . S
O9 Mg8 2.185 . S
O9 C18 1.299 . S
O10 Mg8 2.021 1_656 S
O10 C16 1.238 1_556 S
O11 Mg8 1.990 . S
O11 C17 1.253 . S
O12 Mg8 2.117 . S
O12 C18 1.250 . S
C13 O19 1.248 . S
C13 O20 1.264 . S
C14 O0 1.253 . S
C14 O2 1.260 . S
C15 O4 1.297 . S
C15 O5 1.250 . S
C16 O6 1.264 . S
C16 O10 1.238 1_554 S
C17 O7 1.260 . S
C17 O11 1.253 . S
C18 O9 1.299 . S
C18 O12 1.250 . S
O19 Mg1 2.030 1_655 S
O19 C13 1.248 . S
O20 Mg3 2.079 1_655 S
O20 C13 1.264 . S
O21 Mg22 1.990 . S
O21 C35 1.253 . S
Mg22 O21 1.990 . S
Mg22 O25 2.180 . S
Mg22 O26 2.117 . S
Mg22 O40 2.030 . S
O23 Mg24 2.072 . S
O23 C35 1.260 . S
Mg24 O23 2.072 . S
Mg24 O25 2.099 . S
Mg24 O27 2.079 . S
Mg24 O28 2.072 . S
Mg24 O30 2.099 . S
Mg24 O41 2.079 . S
O25 Mg22 2.180 . S
O25 Mg24 2.099 . S
O25 C36 1.279 . S
O26 Mg22 2.117 . S
O26 C36 1.250 . S
O27 Mg24 2.079 . S
O27 C37 1.264 . S
O28 Mg24 2.072 . S
O28 C38 1.260 . S
Mg29 O30 2.180 . S
Mg29 O31 2.030 . S
Mg29 O32 1.990 . S
Mg29 O33 2.117 . S
O30 Mg24 2.099 . S
O30 Mg29 2.180 . S
O30 C39 1.279 . S
O31 Mg29 2.030 . S
O31 C37 1.248 . S
O32 Mg29 1.990 . S
O32 C38 1.253 . S
O33 Mg29 2.117 . S
O33 C39 1.250 . S
C34 O40 1.248 . S
C34 O41 1.264 . S
C35 O21 1.253 . S
C35 O23 1.260 . S
C36 O25 1.279 . S
C36 O26 1.250 . S
C37 O27 1.264 . S
C37 O31 1.248 . S
C38 O28 1.260 . S
C38 O32 1.253 . S
C39 O30 1.279 . S
C39 O33 1.250 . S
O40 Mg22 2.030 . S
O40 C34 1.248 . S
O41 Mg24 2.079 . S
O41 C34 1.264 . S
O42 Mg43 1.990 . S
O42 C56 1.253 . S
Mg43 O42 1.990 . S
Mg43 O46 2.180 . S
Mg43 O47 2.117 . S
Mg43 O61 2.030 . S
O44 Mg45 2.072 . S
O44 C56 1.260 . S
Mg45 O44 2.072 . S
Mg45 O46 2.099 . S
Mg45 O48 2.079 . S
Mg45 O49 2.072 . S
Mg45 O51 2.099 . S
Mg45 O62 2.079 . S
O46 Mg43 2.180 . S
O46 Mg45 2.099 . S
O46 C57 1.279 . S
O47 Mg43 2.117 . S
O47 C57 1.250 . S
O48 Mg45 2.079 . S
O48 C58 1.264 . S
O49 Mg45 2.072 . S
O49 C59 1.260 . S
Mg50 O51 2.180 . S
Mg50 O52 2.030 . S
Mg50 O53 1.990 . S
Mg50 O54 2.117 . S
O51 Mg45 2.099 . S
O51 Mg50 2.180 . S
O51 C60 1.279 . S
O52 Mg50 2.030 . S
O52 C58 1.248 . S
O53 Mg50 1.990 . S
O53 C59 1.253 . S
O54 Mg50 2.117 . S
O54 C60 1.250 . S
C55 O61 1.248 . S
C55 O62 1.264 . S
C56 O42 1.253 . S
C56 O44 1.260 . S
C57 O46 1.279 . S
C57 O47 1.250 . S
C58 O48 1.264 . S
C58 O52 1.248 . S
C59 O49 1.260 . S
C59 O53 1.253 . S
C60 O51 1.279 . S
C60 O54 1.250 . S
O61 Mg43 2.030 . S
O61 C55 1.248 . S
O62 Mg45 2.079 . S
O62 C55 1.264 . S
O63 Mg64 1.990 . S
O63 C77 1.253 . S
Mg64 O63 1.990 . S
Mg64 O67 2.180 . S
Mg64 O68 2.117 . S
Mg64 O82 2.030 1_556 S
O65 Mg66 2.072 . S
O65 C77 1.260 . S
Mg66 O65 2.072 . S
Mg66 O67 2.099 . S
Mg66 O69 2.079 . S
Mg66 O70 2.072 . S
Mg66 O72 2.099 . S
Mg66 O83 2.079 . S
O67 Mg64 2.180 . S
O67 Mg66 2.099 . S
O67 C78 1.279 . S
O68 Mg64 2.117 . S
O68 C78 1.250 . S
O69 Mg66 2.079 . S
O69 C79 1.264 . S
O70 Mg66 2.072 . S
O70 C80 1.260 . S
Mg71 O72 2.180 . S
Mg71 O73 2.030 . S
Mg71 O74 1.990 . S
Mg71 O75 2.117 . S
O72 Mg66 2.099 . S
O72 Mg71 2.180 . S
O72 C81 1.279 . S
O73 Mg71 2.030 . S
O73 C79 1.248 . S
O74 Mg71 1.990 . S
O74 C80 1.253 . S
O75 Mg71 2.117 . S
O75 C81 1.250 . S
C76 O82 1.248 1_556 S
C76 O83 1.264 . S
C77 O63 1.253 . S
C77 O65 1.260 . S
C78 O67 1.279 . S
C78 O68 1.250 . S
C79 O69 1.264 . S
C79 O73 1.248 . S
C80 O70 1.260 . S
C80 O74 1.253 . S
C81 O72 1.279 . S
C81 O75 1.250 . S
O82 Mg64 2.030 1_554 S
O82 C76 1.248 1_554 S
O83 Mg66 2.079 . S
O83 C76 1.264 . S
O84 Mg85 1.990 . S
O84 C98 1.253 . S
Mg85 O84 1.990 . S
Mg85 O88 2.185 . S
Mg85 O89 2.117 . S
Mg85 O103 2.030 1_455 S
O86 Mg87 2.072 . S
O86 C98 1.260 . S
Mg87 O86 2.072 . S
Mg87 O88 2.100 . S
Mg87 O90 2.079 1_455 S
Mg87 O91 2.072 . S
Mg87 O93 2.100 . S
Mg87 O104 2.079 1_455 S
O88 Mg85 2.185 . S
O88 Mg87 2.100 . S
O88 C99 1.297 . S
O89 Mg85 2.117 . S
O89 C99 1.250 . S
O90 Mg87 2.079 1_655 S
O90 C100 1.264 . S
O91 Mg87 2.072 . S
O91 C101 1.260 . S
Mg92 O93 2.185 . S
Mg92 O94 2.021 1_456 S
Mg92 O95 1.990 . S
Mg92 O96 2.117 . S
O93 Mg87 2.100 . S
O93 Mg92 2.185 . S
O93 C102 1.299 . S
O94 Mg92 2.021 1_654 S
O94 C100 1.238 1_554 S
O95 Mg92 1.990 . S
O95 C101 1.253 . S
O96 Mg92 2.117 . S
O96 C102 1.250 . S
C97 O103 1.248 . S
C97 O104 1.264 . S
C98 O84 1.253 . S
C98 O86 1.260 . S
C99 O88 1.297 . S
C99 O89 1.250 . S
C100 O90 1.264 . S
C100 O94 1.238 1_556 S
C101 O91 1.260 . S
C101 O95 1.253 . S
C102 O93 1.299 . S
C102 O96 1.250 . S
O103 Mg85 2.030 1_655 S
O103 C97 1.248 . S
O104 Mg87 2.079 1_655 S
O104 C97 1.264 . S
O105 Mg106 1.990 . S
O105 C119 1.253 . S
Mg106 O105 1.990 . S
Mg106 O109 2.180 . S
Mg106 O110 2.117 . S
Mg106 O124 2.030 1_554 S
O107 Mg108 2.072 . S
O107 C119 1.260 . S
Mg108 O107 2.072 . S
Mg108 O109 2.099 . S
Mg108 O111 2.079 . S
Mg108 O112 2.072 . S
Mg108 O114 2.099 . S
Mg108 O125 2.079 . S
O109 Mg106 2.180 . S
O109 Mg108 2.099 . S
O109 C120 1.279 . S
O110 Mg106 2.117 . S
O110 C120 1.250 . S
O111 Mg108 2.079 . S
O111 C121 1.264 . S
O112 Mg108 2.072 . S
O112 C122 1.260 . S
Mg113 O114 2.180 . S
Mg113 O115 2.030 . S
Mg113 O116 1.990 . S
Mg113 O117 2.117 . S
O114 Mg108 2.099 . S
O114 Mg113 2.180 . S
O114 C123 1.279 . S
O115 Mg113 2.030 . S
O115 C121 1.248 . S
O116 Mg113 1.990 . S
O116 C122 1.253 . S
O117 Mg113 2.117 . S
O117 C123 1.250 . S
C118 O124 1.248 1_554 S
C118 O125 1.264 . S
C119 O105 1.253 . S
C119 O107 1.260 . S
C120 O109 1.279 . S
C120 O110 1.250 . S
C121 O111 1.264 . S
C121 O115 1.248 . S
C122 O112 1.260 . S
C122 O116 1.253 . S
C123 O114 1.279 . S
C123 O117 1.250 . S
O124 Mg106 2.030 1_556 S
O124 C118 1.248 1_556 S
O125 Mg108 2.079 . S
O125 C118 1.264 . S
O126 Mg127 1.990 . S
O126 C140 1.253 . S
Mg127 O126 1.990 . S
Mg127 O130 2.180 . S
Mg127 O131 2.117 . S
Mg127 O145 2.030 . S
O128 Mg129 2.072 . S
O128 C140 1.260 . S
Mg129 O128 2.072 . S
Mg129 O130 2.099 . S
Mg129 O132 2.079 . S
Mg129 O133 2.072 . S
Mg129 O135 2.099 . S
Mg129 O146 2.079 . S
O130 Mg127 2.180 . S
O130 Mg129 2.099 . S
O130 C141 1.279 . S
O131 Mg127 2.117 . S
O131 C141 1.250 . S
O132 Mg129 2.079 . S
O132 C142 1.264 . S
O133 Mg129 2.072 . S
O133 C143 1.260 . S
Mg134 O135 2.180 . S
Mg134 O136 2.030 . S
Mg134 O137 1.990 . S
Mg134 O138 2.117 . S
O135 Mg129 2.099 . S
O135 Mg134 2.180 . S
O135 C144 1.279 . S
O136 Mg134 2.030 . S
O136 C142 1.248 . S
O137 Mg134 1.990 . S
O137 C143 1.253 . S
O138 Mg134 2.117 . S
O138 C144 1.250 . S
C139 O145 1.248 . S
C139 O146 1.264 . S
C140 O126 1.253 . S
C140 O128 1.260 . S
C141 O130 1.279 . S
C141 O131 1.250 . S
C142 O132 1.264 . S
C142 O136 1.248 . S
C143 O133 1.260 . S
C143 O137 1.253 . S
C144 O135 1.279 . S
C144 O138 1.250 . S
O145 Mg127 2.030 . S
O145 C139 1.248 . S
O146 Mg129 2.079 . S
O146 C139 1.264 . S
O147 Mg148 1.990 . S
O147 C161 1.253 . S
Mg148 O147 1.990 . S
Mg148 O151 2.180 . S
Mg148 O152 2.117 . S
Mg148 O166 2.030 . S
O149 Mg150 2.072 . S
O149 C161 1.260 . S
Mg150 O149 2.072 . S
Mg150 O151 2.099 . S
Mg150 O153 2.079 . S
Mg150 O154 2.072 . S
Mg150 O156 2.099 . S
Mg150 O167 2.079 . S
O151 Mg148 2.180 . S
O151 Mg150 2.099 . S
O151 C162 1.279 . S
O152 Mg148 2.117 . S
O152 C162 1.250 . S
O153 Mg150 2.079 . S
O153 C163 1.264 . S
O154 Mg150 2.072 . S
O154 C164 1.260 . S
Mg155 O156 2.180 . S
Mg155 O157 2.030 . S
Mg155 O158 1.990 . S
Mg155 O159 2.117 . S
O156 Mg150 2.099 . S
O156 Mg155 2.180 . S
O156 C165 1.279 . S
O157 Mg155 2.030 . S
O157 C163 1.248 . S
O158 Mg155 1.990 . S
O158 C164 1.253 . S
O159 Mg155 2.117 . S
O159 C165 1.250 . S
C160 O166 1.248 . S
C160 O167 1.264 . S
C161 O147 1.253 . S
C161 O149 1.260 . S
C162 O151 1.279 . S
C162 O152 1.250 . S
C163 O153 1.264 . S
C163 O157 1.248 . S
C164 O154 1.260 . S
C164 O158 1.253 . S
C165 O156 1.279 . S
C165 O159 1.250 . S
O166 Mg148 2.030 . S
O166 C160 1.248 . S
O167 Mg150 2.079 . S
O167 C160 1.264 . S
O168 Mg169 1.990 . S
O168 C182 1.253 . S
Mg169 O168 1.990 . S
Mg169 O172 2.180 . S
Mg169 O173 2.117 . S
Mg169 O187 2.030 . S
O170 Mg171 2.072 . S
O170 C182 1.260 . S
Mg171 O170 2.072 . S
Mg171 O172 2.099 . S
Mg171 O174 2.079 . S
Mg171 O175 2.072 . S
Mg171 O177 2.099 . S
Mg171 O188 2.079 . S
O172 Mg169 2.180 . S
O172 Mg171 2.099 . S
O172 C183 1.279 . S
O173 Mg169 2.117 . S
O173 C183 1.250 . S
O174 Mg171 2.079 . S
O174 C184 1.264 . S
O175 Mg171 2.072 . S
O175 C185 1.260 . S
Mg176 O177 2.180 . S
Mg176 O178 2.030 . S
Mg176 O179 1.990 . S
Mg176 O180 2.117 . S
O177 Mg171 2.099 . S
O177 Mg176 2.180 . S
O177 C186 1.279 . S
O178 Mg176 2.030 . S
O178 C184 1.248 . S
O179 Mg176 1.990 . S
O179 C185 1.253 . S
O180 Mg176 2.117 . S
O180 C186 1.250 . S
C181 O187 1.248 . S
C181 O188 1.264 . S
C182 O168 1.253 . S
C182 O170 1.260 . S
C183 O172 1.279 . S
C183 O173 1.250 . S
C184 O174 1.264 . S
C184 O178 1.248 . S
C185 O175 1.260 . S
C185 O179 1.253 . S
C186 O177 1.279 . S
C186 O180 1.250 . S
O187 Mg169 2.030 . S
O187 C181 1.248 . S
O188 Mg171 2.079 . S
O188 C181 1.264 . S
O189 Mg190 1.990 . S
O189 C203 1.253 . S
Mg190 O189 1.990 . S
Mg190 O193 2.180 . S
Mg190 O194 2.117 . S
Mg190 O208 2.030 . S
O191 Mg192 2.072 . S
O191 C203 1.260 . S
Mg192 O191 2.072 . S
Mg192 O193 2.099 . S
Mg192 O195 2.079 . S
Mg192 O196 2.072 . S
Mg192 O198 2.099 . S
Mg192 O209 2.079 . S
O193 Mg190 2.180 . S
O193 Mg192 2.099 . S
O193 C204 1.279 . S
O194 Mg190 2.117 . S
O194 C204 1.250 . S
O195 Mg192 2.079 . S
O195 C205 1.264 . S
O196 Mg192 2.072 . S
O196 C206 1.260 . S
Mg197 O198 2.180 . S
Mg197 O199 2.030 1_554 S
Mg197 O200 1.990 . S
Mg197 O201 2.117 . S
O198 Mg192 2.099 . S
O198 Mg197 2.180 . S
O198 C207 1.279 . S
O199 Mg197 2.030 1_556 S
O199 C205 1.248 1_556 S
O200 Mg197 1.990 . S
O200 C206 1.253 . S
O201 Mg197 2.117 . S
O201 C207 1.250 . S
C202 O208 1.248 . S
C202 O209 1.264 . S
C203 O189 1.253 . S
C203 O191 1.260 . S
C204 O193 1.279 . S
C204 O194 1.250 . S
C205 O195 1.264 . S
C205 O199 1.248 1_554 S
C206 O196 1.260 . S
C206 O200 1.253 . S
C207 O198 1.279 . S
C207 O201 1.250 . S
O208 Mg190 2.030 . S
O208 C202 1.248 . S
O209 Mg192 2.079 . S
O209 C202 1.264 . S
O210 Mg211 1.990 . S
O210 C224 1.253 . S
Mg211 O210 1.990 . S
Mg211 O214 2.180 . S
Mg211 O215 2.117 . S
Mg211 O229 2.030 . S
O212 Mg213 2.072 . S
O212 C224 1.260 . S
Mg213 O212 2.072 . S
Mg213 O214 2.099 . S
Mg213 O216 2.079 . S
Mg213 O217 2.072 . S
Mg213 O219 2.099 . S
Mg213 O230 2.079 . S
O214 Mg211 2.180 . S
O214 Mg213 2.099 . S
O214 C225 1.279 . S
O215 Mg211 2.117 . S
O215 C225 1.250 . S
O216 Mg213 2.079 . S
O216 C226 1.264 . S
O217 Mg213 2.072 . S
O217 C227 1.260 . S
Mg218 O219 2.180 . S
Mg218 O220 2.030 1_556 S
Mg218 O221 1.990 . S
Mg218 O222 2.117 . S
O219 Mg213 2.099 . S
O219 Mg218 2.180 . S
O219 C228 1.279 . S
O220 Mg218 2.030 1_554 S
O220 C226 1.248 1_554 S
O221 Mg218 1.990 . S
O221 C227 1.253 . S
O222 Mg218 2.117 . S
O222 C228 1.250 . S
C223 O229 1.248 . S
C223 O230 1.264 . S
C224 O210 1.253 . S
C224 O212 1.260 . S
C225 O214 1.279 . S
C225 O215 1.250 . S
C226 O216 1.264 . S
C226 O220 1.248 1_556 S
C227 O217 1.260 . S
C227 O221 1.253 . S
C228 O219 1.279 . S
C228 O222 1.250 . S
O229 Mg211 2.030 . S
O229 C223 1.248 . S
O230 Mg213 2.079 . S
O230 C223 1.264 . S
O231 Mg232 1.990 . S
O231 C245 1.253 . S
Mg232 O231 1.990 . S
Mg232 O235 2.180 . S
Mg232 O236 2.117 . S
Mg232 O250 2.030 . S
O233 Mg234 2.072 . S
O233 C245 1.260 . S
Mg234 O233 2.072 . S
Mg234 O235 2.099 . S
Mg234 O237 2.079 . S
Mg234 O238 2.072 . S
Mg234 O240 2.099 . S
Mg234 O251 2.079 . S
O235 Mg232 2.180 . S
O235 Mg234 2.099 . S
O235 C246 1.279 . S
O236 Mg232 2.117 . S
O236 C246 1.250 . S
O237 Mg234 2.079 . S
O237 C247 1.264 . S
O238 Mg234 2.072 . S
O238 C248 1.260 . S
Mg239 O240 2.180 . S
Mg239 O241 2.030 . S
Mg239 O242 1.990 . S
Mg239 O243 2.117 . S
O240 Mg234 2.099 . S
O240 Mg239 2.180 . S
O240 C249 1.279 . S
O241 Mg239 2.030 . S
O241 C247 1.248 . S
O242 Mg239 1.990 . S
O242 C248 1.253 . S
O243 Mg239 2.117 . S
O243 C249 1.250 . S
C244 O250 1.248 . S
C244 O251 1.264 . S
C245 O231 1.253 . S
C245 O233 1.260 . S
C246 O235 1.279 . S
C246 O236 1.250 . S
C247 O237 1.264 . S
C247 O241 1.248 . S
C248 O238 1.260 . S
C248 O242 1.253 . S
C249 O240 1.279 . S
C249 O243 1.250 . S
O250 Mg232 2.030 . S
O250 C244 1.248 . S
O251 Mg234 2.079 . S
O251 C244 1.264 . S
O252 Mg253 1.990 . S
O252 C266 1.253 . S
Mg253 O252 1.990 . S
Mg253 O256 2.180 . S
Mg253 O257 2.117 . S
Mg253 O271 2.030 . S
O254 Mg255 2.072 . S
O254 C266 1.260 . S
Mg255 O254 2.072 . S
Mg255 O256 2.099 . S
Mg255 O258 2.079 . S
Mg255 O259 2.072 . S
Mg255 O261 2.099 . S
Mg255 O272 2.079 . S
O256 Mg253 2.180 . S
O256 Mg255 2.099 . S
O256 C267 1.279 . S
O257 Mg253 2.117 . S
O257 C267 1.250 . S
O258 Mg255 2.079 . S
O258 C268 1.264 . S
O259 Mg255 2.072 . S
O259 C269 1.260 . S
Mg260 O261 2.180 . S
Mg260 O262 2.030 . S
Mg260 O263 1.990 . S
Mg260 O264 2.117 . S
O261 Mg255 2.099 . S
O261 Mg260 2.180 . S
O261 C270 1.279 . S
O262 Mg260 2.030 . S
O262 C268 1.248 . S
O263 Mg260 1.990 . S
O263 C269 1.253 . S
O264 Mg260 2.117 . S
O264 C270 1.250 . S
C265 O271 1.248 . S
C265 O272 1.264 . S
C266 O252 1.253 . S
C266 O254 1.260 . S
C267 O256 1.279 . S
C267 O257 1.250 . S
C268 O258 1.264 . S
C268 O262 1.248 . S
C269 O259 1.260 . S
C269 O263 1.253 . S
C270 O261 1.279 . S
C270 O264 1.250 . S
O271 Mg253 2.030 . S
O271 C265 1.248 . S
O272 Mg255 2.079 . S
O272 C265 1.264 . S
O273 Mg274 1.990 1_655 S
O273 C287 1.253 . S
Mg274 O273 1.990 1_455 S
Mg274 O277 2.180 . S
Mg274 O278 2.117 1_455 S
Mg274 O292 2.030 . S
O275 Mg276 2.072 1_655 S
O275 C287 1.260 . S
Mg276 O275 2.072 1_455 S
Mg276 O277 2.099 . S
Mg276 O279 2.079 . S
Mg276 O280 2.072 1_455 S
Mg276 O282 2.099 . S
Mg276 O293 2.079 . S
O277 Mg274 2.180 . S
O277 Mg276 2.099 . S
O277 C288 1.279 1_455 S
O278 Mg274 2.117 1_655 S
O278 C288 1.250 . S
O279 Mg276 2.079 . S
O279 C289 1.264 . S
O280 Mg276 2.072 1_655 S
O280 C290 1.260 . S
Mg281 O282 2.180 . S
Mg281 O283 2.021 1_554 S
Mg281 O284 1.990 1_455 S
Mg281 O285 2.117 1_455 S
O282 Mg276 2.099 . S
O282 Mg281 2.180 . S
O282 C291 1.279 1_455 S
O283 Mg281 2.021 1_556 S
O283 C289 1.238 1_556 S
O284 Mg281 1.990 1_655 S
O284 C290 1.253 . S
O285 Mg281 2.117 1_655 S
O285 C291 1.250 . S
C286 O292 1.248 . S
C286 O293 1.264 . S
C287 O273 1.253 . S
C287 O275 1.260 . S
C288 O277 1.279 1_655 S
C288 O278 1.250 . S
C289 O279 1.264 . S
C289 O283 1.238 1_554 S
C290 O280 1.260 . S
C290 O284 1.253 . S
C291 O282 1.279 1_655 S
C291 O285 1.250 . S
O292 Mg274 2.030 . S
O292 C286 1.248 . S
O293 Mg276 2.079 . S
O293 C286 1.264 . S
O294 Mg295 1.990 . S
O294 C308 1.253 . S
Mg295 O294 1.990 . S
Mg295 O298 2.180 . S
Mg295 O299 2.117 . S
Mg295 O313 2.030 . S
O296 Mg297 2.072 . S
O296 C308 1.260 . S
Mg297 O296 2.072 . S
Mg297 O298 2.099 . S
Mg297 O300 2.079 . S
Mg297 O301 2.072 . S
Mg297 O303 2.099 . S
Mg297 O314 2.079 . S
O298 Mg295 2.180 . S
O298 Mg297 2.099 . S
O298 C309 1.279 . S
O299 Mg295 2.117 . S
O299 C309 1.250 . S
O300 Mg297 2.079 . S
O300 C310 1.264 . S
O301 Mg297 2.072 . S
O301 C311 1.260 . S
Mg302 O303 2.180 . S
Mg302 O304 2.030 . S
Mg302 O305 1.990 . S
Mg302 O306 2.117 . S
O303 Mg297 2.099 . S
O303 Mg302 2.180 . S
O303 C312 1.279 . S
O304 Mg302 2.030 . S
O304 C310 1.248 . S
O305 Mg302 1.990 . S
O305 C311 1.253 . S
O306 Mg302 2.117 . S
O306 C312 1.250 . S
C307 O313 1.248 . S
C307 O314 1.264 . S
C308 O294 1.253 . S
C308 O296 1.260 . S
C309 O298 1.279 . S
C309 O299 1.250 . S
C310 O300 1.264 . S
C310 O304 1.248 . S
C311 O301 1.260 . S
C311 O305 1.253 . S
C312 O303 1.279 . S
C312 O306 1.250 . S
O313 Mg295 2.030 . S
O313 C307 1.248 . S
O314 Mg297 2.079 . S
O314 C307 1.264 . S
O315 Mg316 1.990 1_655 S
O315 C329 1.253 . S
Mg316 O315 1.990 1_455 S
Mg316 O319 2.180 . S
Mg316 O320 2.117 1_455 S
Mg316 O334 2.030 . S
O317 Mg318 2.072 1_655 S
O317 C329 1.260 . S
Mg318 O317 2.072 1_455 S
Mg318 O319 2.099 . S
Mg318 O321 2.079 . S
Mg318 O322 2.072 1_455 S
Mg318 O324 2.099 . S
Mg318 O335 2.079 . S
O319 Mg316 2.180 . S
O319 Mg318 2.099 . S
O319 C330 1.279 1_455 S
O320 Mg316 2.117 1_655 S
O320 C330 1.250 . S
O321 Mg318 2.079 . S
O321 C331 1.264 . S
O322 Mg318 2.072 1_655 S
O322 C332 1.260 . S
Mg323 O324 2.180 . S
Mg323 O325 2.021 1_556 S
Mg323 O326 1.990 1_455 S
Mg323 O327 2.117 1_455 S
O324 Mg318 2.099 . S
O324 Mg323 2.180 . S
O324 C333 1.279 1_455 S
O325 Mg323 2.021 1_554 S
O325 C331 1.238 1_554 S
O326 Mg323 1.990 1_655 S
O326 C332 1.253 . S
O327 Mg323 2.117 1_655 S
O327 C333 1.250 . S
C328 O334 1.248 . S
C328 O335 1.264 . S
C329 O315 1.253 . S
C329 O317 1.260 . S
C330 O319 1.279 1_655 S
C330 O320 1.250 . S
C331 O321 1.264 . S
C331 O325 1.238 1_556 S
C332 O322 1.260 . S
C332 O326 1.253 . S
C333 O324 1.279 1_655 S
C333 O327 1.250 . S
O334 Mg316 2.030 . S
O334 C328 1.248 . S
O335 Mg318 2.079 . S
O335 C328 1.264 . S
H336 C342 0.930 1_554 S
H337 C346 0.930 . S
H338 C351 0.929 . S
H339 C349 0.929 . S
H340 C344 0.929 . S
H341 C350 0.929 . S
C342 H336 0.930 1_556 S
C342 C343 1.367 . S
C342 C350 1.378 . S
C343 C342 1.367 . S
C343 C351 1.433 . S
C344 H340 0.929 . S
C344 C346 1.378 . S
C344 C348 1.350 . S
C345 C348 1.463 . S
C345 C350 1.350 . S
C345 N353 1.427 . S
C346 H337 0.930 . S
C346 C344 1.378 . S
C346 C347 1.367 . S
C347 C346 1.367 . S
C347 C349 1.433 . S
C348 C344 1.350 . S
C348 C345 1.463 . S
C348 N352 1.427 . S
C349 H339 0.929 . S
C349 C347 1.433 . S
C349 N352 1.384 . S
C350 H341 0.929 . S
C350 C342 1.378 . S
C350 C345 1.350 . S
C351 H338 0.929 . S
C351 C343 1.433 . S
C351 N353 1.384 . S
N352 C348 1.427 . S
N352 C349 1.384 . S
N353 C345 1.427 . S
N353 C351 1.384 . S
H354 C360 0.930 . S
H355 C364 0.933 . S
H356 C369 0.929 . S
H357 C367 0.929 . S
H358 C362 0.929 . S
H359 C368 0.929 . S
C360 H354 0.930 . S
C360 C361 1.367 . S
C360 C368 1.378 . S
C361 C360 1.367 . S
C361 C369 1.433 . S
C362 H358 0.929 . S
C362 C364 1.378 . S
C362 C366 1.350 . S
C363 C366 1.463 . S
C363 C368 1.350 . S
C363 N371 1.427 . S
C364 H355 0.933 . S
C364 C362 1.378 . S
C364 C365 1.367 . S
C365 C364 1.367 . S
C365 C367 1.433 . S
C366 C362 1.350 . S
C366 C363 1.463 . S
C366 N370 1.427 . S
C367 H357 0.929 . S
C367 C365 1.433 . S
C367 N370 1.384 . S
C368 H359 0.929 . S
C368 C360 1.378 . S
C368 C363 1.350 . S
C369 H356 0.929 . S
C369 C361 1.433 . S
C369 N371 1.384 . S
N370 C366 1.427 . S
N370 C367 1.384 . S
N371 C363 1.427 . S
N371 C369 1.384 . S
H372 C378 0.930 . S
H373 C382 0.930 . S
H374 C387 0.929 . S
H375 C385 0.929 . S
H376 C380 0.929 . S
H377 C386 0.929 . S
C378 H372 0.930 . S
C378 C379 1.367 . S
C378 C386 1.378 . S
C379 C378 1.367 . S
C379 C387 1.433 . S
C380 H376 0.929 . S
C380 C382 1.378 . S
C380 C384 1.350 . S
C381 C384 1.463 . S
C381 C386 1.350 . S
C381 N389 1.427 . S
C382 H373 0.930 . S
C382 C380 1.378 . S
C382 C383 1.367 . S
C383 C382 1.367 . S
C383 C385 1.433 . S
C384 C380 1.350 . S
C384 C381 1.463 . S
C384 N388 1.427 . S
C385 H375 0.929 . S
C385 C383 1.433 . S
C385 N388 1.384 . S
C386 H377 0.929 . S
C386 C378 1.378 . S
C386 C381 1.350 . S
C387 H374 0.929 . S
C387 C379 1.433 . S
C387 N389 1.384 . S
N388 C384 1.427 . S
N388 C385 1.384 . S
N389 C381 1.427 . S
N389 C387 1.384 . S
H390 C396 0.930 . S
H391 C400 0.930 . S
H392 C405 0.929 . S
H393 C403 0.929 . S
H394 C398 0.929 . S
H395 C404 0.929 . S
C396 H390 0.930 . S
C396 C397 1.367 . S
C396 C404 1.378 . S
C397 C396 1.367 . S
C397 C405 1.433 . S
C398 H394 0.929 . S
C398 C400 1.378 . S
C398 C402 1.350 . S
C399 C402 1.463 . S
C399 C404 1.350 . S
C399 N407 1.427 . S
C400 H391 0.930 . S
C400 C398 1.378 . S
C400 C401 1.367 . S
C401 C400 1.367 . S
C401 C403 1.433 . S
C402 C398 1.350 . S
C402 C399 1.463 . S
C402 N406 1.427 . S
C403 H393 0.929 . S
C403 C401 1.433 . S
C403 N406 1.384 . S
C404 H395 0.929 . S
C404 C396 1.378 . S
C404 C399 1.350 . S
C405 H392 0.929 . S
C405 C397 1.433 . S
C405 N407 1.384 . S
N406 C402 1.427 . S
N406 C403 1.384 . S
N407 C399 1.427 . S
N407 C405 1.384 . S
H408 C414 0.930 . S
H409 C418 0.930 1_556 S
H410 C423 0.929 . S
H411 C421 0.929 . S
H412 C416 0.929 . S
H413 C422 0.929 . S
C414 H408 0.930 . S
C414 C415 1.367 . S
C414 C422 1.378 . S
C415 C414 1.367 . S
C415 C423 1.433 . S
C416 H412 0.929 . S
C416 C418 1.378 . S
C416 C420 1.350 . S
C417 C420 1.463 . S
C417 C422 1.350 . S
C417 N425 1.427 . S
C418 H409 0.930 1_554 S
C418 C416 1.378 . S
C418 C419 1.367 . S
C419 C418 1.367 . S
C419 C421 1.433 . S
C420 C416 1.350 . S
C420 C417 1.463 . S
C420 N424 1.427 . S
C421 H411 0.929 . S
C421 C419 1.433 . S
C421 N424 1.384 . S
C422 H413 0.929 . S
C422 C414 1.378 . S
C422 C417 1.350 . S
C423 H410 0.929 . S
C423 C415 1.433 . S
C423 N425 1.384 . S
N424 C420 1.427 . S
N424 C421 1.384 . S
N425 C417 1.427 . S
N425 C423 1.384 . S
H426 C432 0.930 . S
H427 C436 0.930 . S
H428 C441 0.929 . S
H429 C439 0.929 1_554 S
H430 C434 0.929 . S
H431 C440 0.929 . S
C432 H426 0.930 . S
C432 C433 1.367 . S
C432 C440 1.378 . S
C433 C432 1.367 . S
C433 C441 1.433 . S
C434 H430 0.929 . S
C434 C436 1.378 . S
C434 C438 1.350 . S
C435 C438 1.463 . S
C435 C440 1.350 . S
C435 N443 1.427 . S
C436 H427 0.930 . S
C436 C434 1.378 . S
C436 C437 1.367 . S
C437 C436 1.367 . S
C437 C439 1.433 . S
C438 C434 1.350 . S
C438 C435 1.463 . S
C438 N442 1.427 . S
C439 H429 0.929 1_556 S
C439 C437 1.433 . S
C439 N442 1.384 . S
C440 H431 0.929 . S
C440 C432 1.378 . S
C440 C435 1.350 . S
C441 H428 0.929 . S
C441 C433 1.433 . S
C441 N443 1.384 . S
N442 C438 1.427 . S
N442 C439 1.384 . S
N443 C435 1.427 . S
N443 C441 1.384 . S
H444 C450 0.930 . S
H445 C454 0.930 . S
H446 C459 0.929 . S
H447 C457 0.929 . S
H448 C452 0.929 . S
H449 C458 0.929 . S
C450 H444 0.930 . S
C450 C451 1.367 . S
C450 C458 1.378 . S
C451 C450 1.367 . S
C451 C459 1.433 . S
C452 H448 0.929 . S
C452 C454 1.378 . S
C452 C456 1.350 . S
C453 C456 1.463 . S
C453 C458 1.350 . S
C453 N461 1.427 . S
C454 H445 0.930 . S
C454 C452 1.378 . S
C454 C455 1.367 . S
C455 C454 1.367 . S
C455 C457 1.433 . S
C456 C452 1.350 . S
C456 C453 1.463 . S
C456 N460 1.427 . S
C457 H447 0.929 . S
C457 C455 1.433 . S
C457 N460 1.384 . S
C458 H449 0.929 . S
C458 C450 1.378 . S
C458 C453 1.350 . S
C459 H446 0.929 . S
C459 C451 1.433 . S
C459 N461 1.384 . S
N460 C456 1.427 . S
N460 C457 1.384 . S
N461 C453 1.427 . S
N461 C459 1.384 . S
H462 C468 0.930 . S
H463 C472 0.930 . S
H464 C477 0.929 . S
H465 C475 0.929 . S
H466 C470 0.929 . S
H467 C476 0.929 . S
C468 H462 0.930 . S
C468 C469 1.367 . S
C468 C476 1.378 . S
C469 C468 1.367 . S
C469 C477 1.433 . S
C470 H466 0.929 . S
C470 C472 1.378 . S
C470 C474 1.350 . S
C471 C474 1.463 . S
C471 C476 1.350 . S
C471 N479 1.427 . S
C472 H463 0.930 . S
C472 C470 1.378 . S
C472 C473 1.367 . S
C473 C472 1.367 . S
C473 C475 1.433 . S
C474 C470 1.350 . S
C474 C471 1.463 . S
C474 N478 1.427 . S
C475 H465 0.929 . S
C475 C473 1.433 . S
C475 N478 1.384 . S
C476 H467 0.929 . S
C476 C468 1.378 . S
C476 C471 1.350 . S
C477 H464 0.929 . S
C477 C469 1.433 . S
C477 N479 1.384 . S
N478 C474 1.427 . S
N478 C475 1.384 . S
N479 C471 1.427 . S
N479 C477 1.384 . S
H480 C486 0.930 . S
H481 C490 0.930 . S
H482 C495 0.929 . S
H483 C493 0.929 . S
H484 C488 0.929 . S
H485 C494 0.929 . S
C486 H480 0.930 . S
C486 C487 1.367 . S
C486 C494 1.378 . S
C487 C486 1.367 . S
C487 C495 1.433 . S
C488 H484 0.929 . S
C488 C490 1.378 . S
C488 C492 1.350 . S
C489 C492 1.463 . S
C489 C494 1.350 . S
C489 N497 1.427 . S
C490 H481 0.930 . S
C490 C488 1.378 . S
C490 C491 1.367 . S
C491 C490 1.367 . S
C491 C493 1.433 . S
C492 C488 1.350 . S
C492 C489 1.463 . S
C492 N496 1.427 . S
C493 H483 0.929 . S
C493 C491 1.433 . S
C493 N496 1.384 . S
C494 H485 0.929 . S
C494 C486 1.378 . S
C494 C489 1.350 . S
C495 H482 0.929 . S
C495 C487 1.433 . S
C495 N497 1.384 . S
N496 C492 1.427 . S
N496 C493 1.384 . S
N497 C489 1.427 . S
N497 C495 1.384 . S
H498 C504 0.930 . S
H499 C508 0.930 . S
H500 C513 0.929 . S
H501 C511 0.929 . S
H502 C506 0.929 . S
H503 C512 0.929 . S
C504 H498 0.930 . S
C504 C505 1.367 . S
C504 C512 1.378 . S
C505 C504 1.367 . S
C505 C513 1.433 . S
C506 H502 0.929 . S
C506 C508 1.378 . S
C506 C510 1.350 . S
C507 C510 1.463 . S
C507 C512 1.350 . S
C507 N515 1.427 . S
C508 H499 0.930 . S
C508 C506 1.378 . S
C508 C509 1.367 . S
C509 C508 1.367 . S
C509 C511 1.433 . S
C510 C506 1.350 . S
C510 C507 1.463 . S
C510 N514 1.427 . S
C511 H501 0.929 . S
C511 C509 1.433 . S
C511 N514 1.384 . S
C512 H503 0.929 . S
C512 C504 1.378 . S
C512 C507 1.350 . S
C513 H500 0.929 . S
C513 C505 1.433 . S
C513 N515 1.384 . S
N514 C510 1.427 . S
N514 C511 1.384 . S
N515 C507 1.427 . S
N515 C513 1.384 . S
H516 C522 0.930 . S
H517 C526 0.930 . S
H518 C531 0.929 1_554 S
H519 C529 0.929 . S
H520 C524 0.929 . S
H521 C530 0.929 . S
C522 H516 0.930 . S
C522 C523 1.367 . S
C522 C530 1.378 . S
C523 C522 1.367 . S
C523 C531 1.433 . S
C524 H520 0.929 . S
C524 C526 1.378 . S
C524 C528 1.350 . S
C525 C528 1.463 . S
C525 C530 1.350 . S
C525 N533 1.427 . S
C526 H517 0.930 . S
C526 C524 1.378 . S
C526 C527 1.367 . S
C527 C526 1.367 . S
C527 C529 1.433 . S
C528 C524 1.350 . S
C528 C525 1.463 . S
C528 N532 1.427 . S
C529 H519 0.929 . S
C529 C527 1.433 . S
C529 N532 1.384 . S
C530 H521 0.929 . S
C530 C522 1.378 . S
C530 C525 1.350 . S
C531 H518 0.929 1_556 S
C531 C523 1.433 . S
C531 N533 1.384 . S
N532 C528 1.427 . S
N532 C529 1.384 . S
N533 C525 1.427 . S
N533 C531 1.384 . S
H534 C540 0.930 . S
H535 C544 0.936 . S
H536 C549 0.929 . S
H537 C547 0.929 . S
H538 C542 0.929 . S
H539 C548 0.929 . S
C540 H534 0.930 . S
C540 C541 1.367 . S
C540 C548 1.378 . S
C541 C540 1.367 . S
C541 C549 1.433 . S
C542 H538 0.929 . S
C542 C544 1.378 . S
C542 C546 1.350 . S
C543 C546 1.463 . S
C543 C548 1.350 . S
C543 N551 1.427 . S
C544 H535 0.936 . S
C544 C542 1.378 . S
C544 C545 1.367 . S
C545 C544 1.367 . S
C545 C547 1.433 . S
C546 C542 1.350 . S
C546 C543 1.463 . S
C546 N550 1.427 . S
C547 H537 0.929 . S
C547 C545 1.433 . S
C547 N550 1.384 . S
C548 H539 0.929 . S
C548 C540 1.378 . S
C548 C543 1.350 . S
C549 H536 0.929 . S
C549 C541 1.433 . S
C549 N551 1.384 . S
N550 C546 1.427 . S
N550 C547 1.384 . S
N551 C543 1.427 . S
N551 C549 1.384 . S
H552 C558 0.930 . S
H553 C562 0.930 . S
H554 C567 0.929 . S
H555 C565 0.929 . S
H556 C560 0.929 . S
H557 C566 0.929 . S
C558 H552 0.930 . S
C558 C559 1.367 . S
C558 C566 1.378 . S
C559 C558 1.367 . S
C559 C567 1.433 . S
C560 H556 0.929 . S
C560 C562 1.378 . S
C560 C564 1.350 . S
C561 C564 1.463 . S
C561 C566 1.350 . S
C561 N569 1.427 . S
C562 H553 0.930 . S
C562 C560 1.378 . S
C562 C563 1.367 . S
C563 C562 1.367 . S
C563 C565 1.433 . S
C564 C560 1.350 . S
C564 C561 1.463 . S
C564 N568 1.427 . S
C565 H555 0.929 . S
C565 C563 1.433 . S
C565 N568 1.384 . S
C566 H557 0.929 . S
C566 C558 1.378 . S
C566 C561 1.350 . S
C567 H554 0.929 . S
C567 C559 1.433 . S
C567 N569 1.384 . S
N568 C564 1.427 . S
N568 C565 1.384 . S
N569 C561 1.427 . S
N569 C567 1.384 . S
H570 C576 0.930 . S
H571 C580 0.930 . S
H572 C585 0.929 . S
H573 C583 0.929 . S
H574 C578 0.929 . S
H575 C584 0.929 . S
C576 H570 0.930 . S
C576 C577 1.367 . S
C576 C584 1.378 . S
C577 C576 1.367 . S
C577 C585 1.433 . S
C578 H574 0.929 . S
C578 C580 1.378 . S
C578 C582 1.350 . S
C579 C582 1.463 . S
C579 C584 1.350 . S
C579 N587 1.427 . S
C580 H571 0.930 . S
C580 C578 1.378 . S
C580 C581 1.367 . S
C581 C580 1.367 . S
C581 C583 1.433 . S
C582 C578 1.350 . S
C582 C579 1.463 . S
C582 N586 1.427 . S
C583 H573 0.929 . S
C583 C581 1.433 . S
C583 N586 1.384 . S
C584 H575 0.929 . S
C584 C576 1.378 . S
C584 C579 1.350 . S
C585 H572 0.929 . S
C585 C577 1.433 . S
C585 N587 1.384 . S
N586 C582 1.427 . S
N586 C583 1.384 . S
N587 C579 1.427 . S
N587 C585 1.384 . S
H588 C594 0.930 . S
H589 C598 0.930 1_556 S
H590 C603 0.929 . S
H591 C601 0.929 . S
H592 C596 0.929 . S
H593 C602 0.929 . S
C594 H588 0.930 . S
C594 C595 1.367 . S
C594 C602 1.378 . S
C595 C594 1.367 . S
C595 C603 1.433 . S
C596 H592 0.929 . S
C596 C598 1.378 . S
C596 C600 1.350 . S
C597 C600 1.463 . S
C597 C602 1.350 . S
C597 N605 1.427 . S
C598 H589 0.930 1_554 S
C598 C596 1.378 . S
C598 C599 1.367 . S
C599 C598 1.367 . S
C599 C601 1.433 . S
C600 C596 1.350 . S
C600 C597 1.463 . S
C600 N604 1.427 . S
C601 H591 0.929 . S
C601 C599 1.433 . S
C601 N604 1.384 . S
C602 H593 0.929 . S
C602 C594 1.378 . S
C602 C597 1.350 . S
C603 H590 0.929 . S
C603 C595 1.433 . S
C603 N605 1.384 . S
N604 C600 1.427 . S
N604 C601 1.384 . S
N605 C597 1.427 . S
N605 C603 1.384 . S
H606 C612 0.930 . S
H607 C616 0.930 . S
H608 C621 0.929 . S
H609 C619 0.929 1_554 S
H610 C614 0.929 . S
H611 C620 0.929 . S
C612 H606 0.930 . S
C612 C613 1.367 . S
C612 C620 1.378 . S
C613 C612 1.367 . S
C613 C621 1.433 . S
C614 H610 0.929 . S
C614 C616 1.378 . S
C614 C618 1.350 . S
C615 C618 1.463 . S
C615 C620 1.350 . S
C615 N623 1.427 . S
C616 H607 0.930 . S
C616 C614 1.378 . S
C616 C617 1.367 . S
C617 C616 1.367 . S
C617 C619 1.433 . S
C618 C614 1.350 . S
C618 C615 1.463 . S
C618 N622 1.427 . S
C619 H609 0.929 1_556 S
C619 C617 1.433 . S
C619 N622 1.384 . S
C620 H611 0.929 . S
C620 C612 1.378 . S
C620 C615 1.350 . S
C621 H608 0.929 . S
C621 C613 1.433 . S
C621 N623 1.384 . S
N622 C618 1.427 . S
N622 C619 1.384 . S
N623 C615 1.427 . S
N623 C621 1.384 . S
H624 C630 0.930 . S
H625 C634 0.930 . S
H626 C639 0.929 . S
H627 C637 0.929 . S
H628 C632 0.929 . S
H629 C638 0.929 . S
C630 H624 0.930 . S
C630 C631 1.367 . S
C630 C638 1.378 . S
C631 C630 1.367 . S
C631 C639 1.433 1_655 S
C632 H628 0.929 . S
C632 C634 1.378 . S
C632 C636 1.350 . S
C633 C636 1.463 . S
C633 C638 1.350 1_455 S
C633 N641 1.427 . S
C634 H625 0.930 . S
C634 C632 1.378 . S
C634 C635 1.367 . S
C635 C634 1.367 . S
C635 C637 1.433 . S
C636 C632 1.350 . S
C636 C633 1.463 . S
C636 N640 1.427 . S
C637 H627 0.929 . S
C637 C635 1.433 . S
C637 N640 1.384 . S
C638 H629 0.929 . S
C638 C630 1.378 . S
C638 C633 1.350 1_655 S
C639 H626 0.929 . S
C639 C631 1.433 1_455 S
C639 N641 1.384 . S
N640 C636 1.427 . S
N640 C637 1.384 . S
N641 C633 1.427 . S
N641 C639 1.384 . S
H642 C648 0.930 . S
H643 C652 0.930 . S
H644 C657 0.929 . S
H645 C655 0.929 . S
H646 C650 0.929 . S
H647 C656 0.929 . S
C648 H642 0.930 . S
C648 C649 1.367 . S
C648 C656 1.378 . S
C649 C648 1.367 . S
C649 C657 1.433 . S
C650 H646 0.929 . S
C650 C652 1.378 . S
C650 C654 1.350 . S
C651 C654 1.463 1_655 S
C651 C656 1.350 . S
C651 N659 1.427 . S
C652 H643 0.930 . S
C652 C650 1.378 . S
C652 C653 1.367 . S
C653 C652 1.367 . S
C653 C655 1.433 . S
C654 C650 1.350 . S
C654 C651 1.463 1_455 S
C654 N658 1.427 . S
C655 H645 0.929 . S
C655 C653 1.433 . S
C655 N658 1.384 . S
C656 H647 0.929 . S
C656 C648 1.378 . S
C656 C651 1.350 . S
C657 H644 0.929 . S
C657 C649 1.433 . S
C657 N659 1.384 . S
N658 C654 1.427 . S
N658 C655 1.384 . S
N659 C651 1.427 . S
N659 C657 1.384 . S
H660 C666 0.930 . S
H661 C670 0.930 . S
H662 C675 0.929 . S
H663 C673 0.929 . S
H664 C668 0.929 . S
H665 C674 0.929 . S
C666 H660 0.930 . S
C666 C667 1.367 . S
C666 C674 1.378 . S
C667 C666 1.367 . S
C667 C675 1.433 . S
C668 H664 0.929 . S
C668 C670 1.378 . S
C668 C672 1.350 . S
C669 C672 1.463 . S
C669 C674 1.350 . S
C669 N677 1.427 . S
C670 H661 0.930 . S
C670 C668 1.378 . S
C670 C671 1.367 . S
C671 C670 1.367 . S
C671 C673 1.433 . S
C672 C668 1.350 . S
C672 C669 1.463 . S
C672 N676 1.427 . S
C673 H663 0.929 . S
C673 C671 1.433 . S
C673 N676 1.384 . S
C674 H665 0.929 . S
C674 C666 1.378 . S
C674 C669 1.350 . S
C675 H662 0.929 . S
C675 C667 1.433 . S
C675 N677 1.384 . S
N676 C672 1.427 . S
N676 C673 1.384 . S
N677 C669 1.427 . S
N677 C675 1.384 . S
H678 C684 0.930 . S
H679 C688 0.930 . S
H680 C693 0.929 . S
H681 C691 0.929 . S
H682 C686 0.929 . S
H683 C692 0.929 . S
C684 H678 0.930 . S
C684 C685 1.367 . S
C684 C692 1.378 . S
C685 C684 1.367 . S
C685 C693 1.433 . S
C686 H682 0.929 . S
C686 C688 1.378 . S
C686 C690 1.350 . S
C687 C690 1.463 . S
C687 C692 1.350 . S
C687 N695 1.427 . S
C688 H679 0.930 . S
C688 C686 1.378 . S
C688 C689 1.367 . S
C689 C688 1.367 . S
C689 C691 1.433 . S
C690 C686 1.350 . S
C690 C687 1.463 . S
C690 N694 1.427 . S
C691 H681 0.929 . S
C691 C689 1.433 . S
C691 N694 1.384 . S
C692 H683 0.929 . S
C692 C684 1.378 . S
C692 C687 1.350 . S
C693 H680 0.929 . S
C693 C685 1.433 . S
C693 N695 1.384 . S
N694 C690 1.427 . S
N694 C691 1.384 . S
N695 C687 1.427 . S
N695 C693 1.384 . S
H696 C702 0.930 . S
H697 C706 0.930 . S
H698 C711 0.929 . S
H699 C709 0.929 . S
H700 C704 0.929 . S
H701 C710 0.929 . S
C702 H696 0.930 . S
C702 C703 1.367 1_655 S
C702 C710 1.378 . S
C703 C702 1.367 1_455 S
C703 C711 1.433 . S
C704 H700 0.929 . S
C704 C706 1.378 . S
C704 C708 1.350 . S
C705 C708 1.463 . S
C705 C710 1.350 1_455 S
C705 N713 1.427 . S
C706 H697 0.930 . S
C706 C704 1.378 . S
C706 C707 1.367 1_455 S
C707 C706 1.367 1_655 S
C707 C709 1.433 . S
C708 C704 1.350 . S
C708 C705 1.463 . S
C708 N712 1.427 1_455 S
C709 H699 0.929 . S
C709 C707 1.433 . S
C709 N712 1.384 . S
C710 H701 0.929 . S
C710 C702 1.378 . S
C710 C705 1.350 1_655 S
C711 H698 0.929 . S
C711 C703 1.433 . S
C711 N713 1.384 . S
N712 C708 1.427 1_655 S
N712 C709 1.384 . S
N713 C705 1.427 . S
N713 C711 1.384 . S
H714 C720 0.930 . S
H715 C724 0.930 . S
H716 C729 0.929 . S
H717 C727 0.929 . S
H718 C722 0.929 . S
H719 C728 0.929 . S
C720 H714 0.930 . S
C720 C721 1.367 . S
C720 C728 1.378 . S
C721 C720 1.367 . S
C721 C729 1.433 . S
C722 H718 0.929 . S
C722 C724 1.378 . S
C722 C726 1.350 . S
C723 C726 1.463 . S
C723 C728 1.350 . S
C723 N731 1.427 . S
C724 H715 0.930 . S
C724 C722 1.378 . S
C724 C725 1.367 . S
C725 C724 1.367 . S
C725 C727 1.433 . S
C726 C722 1.350 . S
C726 C723 1.463 . S
C726 N730 1.427 . S
C727 H717 0.929 . S
C727 C725 1.433 . S
C727 N730 1.384 . S
C728 H719 0.929 . S
C728 C720 1.378 . S
C728 C723 1.350 . S
C729 H716 0.929 . S
C729 C721 1.433 . S
C729 N731 1.384 . S
N730 C726 1.427 . S
N730 C727 1.384 . S
N731 C723 1.427 . S
N731 C729 1.384 . S
H732 C738 0.930 . S
H733 C742 0.930 . S
H734 C747 0.929 . S
H735 C745 0.929 . S
H736 C740 0.929 . S
H737 C746 0.929 . S
C738 H732 0.930 . S
C738 C739 1.367 . S
C738 C746 1.378 . S
C739 C738 1.367 . S
C739 C747 1.433 . S
C740 H736 0.929 . S
C740 C742 1.378 . S
C740 C744 1.350 . S
C741 C744 1.463 . S
C741 C746 1.350 . S
C741 N749 1.427 . S
C742 H733 0.930 . S
C742 C740 1.378 . S
C742 C743 1.367 . S
C743 C742 1.367 . S
C743 C745 1.433 . S
C744 C740 1.350 . S
C744 C741 1.463 . S
C744 N748 1.427 . S
C745 H735 0.929 . S
C745 C743 1.433 . S
C745 N748 1.384 . S
C746 H737 0.929 . S
C746 C738 1.378 . S
C746 C741 1.350 . S
C747 H734 0.929 . S
C747 C739 1.433 . S
C747 N749 1.384 . S
N748 C744 1.427 . S
N748 C745 1.384 . S
N749 C741 1.427 . S
N749 C747 1.384 . S
H750 C756 0.930 . S
H751 C760 0.930 . S
H752 C765 0.929 . S
H753 C763 0.929 . S
H754 C758 0.929 . S
H755 C764 0.929 . S
C756 H750 0.930 . S
C756 C757 1.367 . S
C756 C764 1.378 . S
C757 C756 1.367 . S
C757 C765 1.433 . S
C758 H754 0.929 . S
C758 C760 1.378 . S
C758 C762 1.350 . S
C759 C762 1.463 1_455 S
C759 C764 1.350 . S
C759 N767 1.427 . S
C760 H751 0.930 . S
C760 C758 1.378 . S
C760 C761 1.367 . S
C761 C760 1.367 . S
C761 C763 1.433 . S
C762 C758 1.350 . S
C762 C759 1.463 1_655 S
C762 N766 1.427 . S
C763 H753 0.929 . S
C763 C761 1.433 . S
C763 N766 1.384 . S
C764 H755 0.929 . S
C764 C756 1.378 . S
C764 C759 1.350 . S
C765 H752 0.929 . S
C765 C757 1.433 . S
C765 N767 1.384 . S
N766 C762 1.427 . S
N766 C763 1.384 . S
N767 C759 1.427 . S
N767 C765 1.384 . S
H768 C774 0.930 . S
H769 C778 0.930 . S
H770 C783 0.929 . S
H771 C781 0.929 . S
H772 C776 0.929 1_545 S
H773 C782 0.929 1_565 S
C774 H768 0.930 . S
C774 C775 1.367 . S
C774 C782 1.378 . S
C775 C774 1.367 . S
C775 C783 1.433 . S
C776 H772 0.929 1_565 S
C776 C778 1.378 . S
C776 C780 1.350 . S
C777 C780 1.463 1_544 S
C777 C782 1.350 . S
C777 N785 1.427 1_554 S
C778 H769 0.930 . S
C778 C776 1.378 . S
C778 C779 1.367 . S
C779 C778 1.367 . S
C779 C781 1.433 . S
C780 C776 1.350 . S
C780 C777 1.463 1_566 S
C780 N784 1.427 1_556 S
C781 H771 0.929 . S
C781 C779 1.433 . S
C781 N784 1.384 1_556 S
C782 H773 0.929 1_545 S
C782 C774 1.378 . S
C782 C777 1.350 . S
C783 H770 0.929 . S
C783 C775 1.433 . S
C783 N785 1.384 1_554 S
N784 C780 1.427 1_554 S
N784 C781 1.384 1_554 S
N785 C777 1.427 1_556 S
N785 C783 1.384 1_556 S
H786 C792 0.930 . S
H787 C796 0.930 . S
H788 C801 0.929 . S
H789 C799 0.929 . S
H790 C794 0.929 . S
H791 C800 0.929 . S
C792 H786 0.930 . S
C792 C793 1.367 . S
C792 C800 1.378 . S
C793 C792 1.367 . S
C793 C801 1.433 . S
C794 H790 0.929 . S
C794 C796 1.378 . S
C794 C798 1.350 . S
C795 C798 1.463 . S
C795 C800 1.350 . S
C795 N803 1.427 . S
C796 H787 0.930 . S
C796 C794 1.378 . S
C796 C797 1.367 . S
C797 C796 1.367 . S
C797 C799 1.433 . S
C798 C794 1.350 . S
C798 C795 1.463 . S
C798 N802 1.427 . S
C799 H789 0.929 . S
C799 C797 1.433 . S
C799 N802 1.384 . S
C800 H791 0.929 . S
C800 C792 1.378 . S
C800 C795 1.350 . S
C801 H788 0.929 . S
C801 C793 1.433 . S
C801 N803 1.384 . S
N802 C798 1.427 . S
N802 C799 1.384 . S
N803 C795 1.427 . S
N803 C801 1.384 . S
H804 C810 0.930 . S
H805 C814 0.930 . S
H806 C819 0.929 . S
H807 C817 0.929 . S
H808 C812 0.929 . S
H809 C818 0.929 . S
C810 H804 0.930 . S
C810 C811 1.367 . S
C810 C818 1.378 . S
C811 C810 1.367 . S
C811 C819 1.433 . S
C812 H808 0.929 . S
C812 C814 1.378 . S
C812 C816 1.350 . S
C813 C816 1.463 1_545 S
C813 C818 1.350 . S
C813 N821 1.427 . S
C814 H805 0.930 . S
C814 C812 1.378 . S
C814 C815 1.367 . S
C815 C814 1.367 . S
C815 C817 1.433 . S
C816 C812 1.350 . S
C816 C813 1.463 1_565 S
C816 N820 1.427 . S
C817 H807 0.929 . S
C817 C815 1.433 . S
C817 N820 1.384 . S
C818 H809 0.929 . S
C818 C810 1.378 . S
C818 C813 1.350 . S
C819 H806 0.929 . S
C819 C811 1.433 . S
C819 N821 1.384 . S
N820 C816 1.427 . S
N820 C817 1.384 . S
N821 C813 1.427 . S
N821 C819 1.384 . S
H822 C828 0.930 . S
H823 C832 0.930 . S
H824 C837 0.929 . S
H825 C835 0.929 . S
H826 C830 0.929 . S
H827 C836 0.929 . S
C828 H822 0.930 . S
C828 C829 1.367 . S
C828 C836 1.378 . S
C829 C828 1.367 . S
C829 C837 1.433 . S
C830 H826 0.929 . S
C830 C832 1.378 . S
C830 C834 1.350 . S
C831 C834 1.463 . S
C831 C836 1.350 . S
C831 N839 1.427 . S
C832 H823 0.930 . S
C832 C830 1.378 . S
C832 C833 1.367 . S
C833 C832 1.367 . S
C833 C835 1.433 . S
C834 C830 1.350 . S
C834 C831 1.463 . S
C834 N838 1.427 . S
C835 H825 0.929 . S
C835 C833 1.433 . S
C835 N838 1.384 . S
C836 H827 0.929 . S
C836 C828 1.378 . S
C836 C831 1.350 . S
C837 H824 0.929 . S
C837 C829 1.433 . S
C837 N839 1.384 . S
N838 C834 1.427 . S
N838 C835 1.384 . S
N839 C831 1.427 . S
N839 C837 1.384 . S
H840 C846 0.930 . S
H841 C850 0.930 . S
H842 C855 0.929 . S
H843 C853 0.929 . S
H844 C848 0.929 . S
H845 C854 0.929 . S
C846 H840 0.930 . S
C846 C847 1.367 . S
C846 C854 1.378 . S
C847 C846 1.367 . S
C847 C855 1.433 . S
C848 H844 0.929 . S
C848 C850 1.378 . S
C848 C852 1.350 . S
C849 C852 1.463 . S
C849 C854 1.350 . S
C849 N857 1.427 . S
C850 H841 0.930 . S
C850 C848 1.378 . S
C850 C851 1.367 . S
C851 C850 1.367 . S
C851 C853 1.433 . S
C852 C848 1.350 . S
C852 C849 1.463 . S
C852 N856 1.427 . S
C853 H843 0.929 . S
C853 C851 1.433 . S
C853 N856 1.384 . S
C854 H845 0.929 . S
C854 C846 1.378 . S
C854 C849 1.350 . S
C855 H842 0.929 . S
C855 C847 1.433 . S
C855 N857 1.384 . S
N856 C852 1.427 . S
N856 C853 1.384 . S
N857 C849 1.427 . S
N857 C855 1.384 . S
H858 C864 0.930 . S
H859 C868 0.930 . S
H860 C873 0.929 . S
H861 C871 0.929 . S
H862 C866 0.929 . S
H863 C872 0.929 . S
C864 H858 0.930 . S
C864 C865 1.367 . S
C864 C872 1.378 . S
C865 C864 1.367 . S
C865 C873 1.433 . S
C866 H862 0.929 . S
C866 C868 1.378 . S
C866 C870 1.350 . S
C867 C870 1.463 . S
C867 C872 1.350 . S
C867 N875 1.427 . S
C868 H859 0.930 . S
C868 C866 1.378 . S
C868 C869 1.367 . S
C869 C868 1.367 . S
C869 C871 1.433 . S
C870 C866 1.350 . S
C870 C867 1.463 . S
C870 N874 1.427 . S
C871 H861 0.929 . S
C871 C869 1.433 . S
C871 N874 1.384 . S
C872 H863 0.929 . S
C872 C864 1.378 . S
C872 C867 1.350 . S
C873 H860 0.929 . S
C873 C865 1.433 . S
C873 N875 1.384 . S
N874 C870 1.427 . S
N874 C871 1.384 . S
N875 C867 1.427 . S
N875 C873 1.384 . S
H876 C882 0.930 . S
H877 C886 0.930 . S
H878 C891 0.929 . S
H879 C889 0.929 . S
H880 C884 0.929 . S
H881 C890 0.929 . S
C882 H876 0.930 . S
C882 C883 1.367 . S
C882 C890 1.378 . S
C883 C882 1.367 . S
C883 C891 1.433 . S
C884 H880 0.929 . S
C884 C886 1.378 . S
C884 C888 1.350 . S
C885 C888 1.463 . S
C885 C890 1.350 . S
C885 N893 1.427 . S
C886 H877 0.930 . S
C886 C884 1.378 . S
C886 C887 1.367 . S
C887 C886 1.367 . S
C887 C889 1.433 . S
C888 C884 1.350 . S
C888 C885 1.463 . S
C888 N892 1.427 . S
C889 H879 0.929 . S
C889 C887 1.433 . S
C889 N892 1.384 . S
C890 H881 0.929 . S
C890 C882 1.378 . S
C890 C885 1.350 . S
C891 H878 0.929 . S
C891 C883 1.433 . S
C891 N893 1.384 . S
N892 C888 1.427 . S
N892 C889 1.384 . S
N893 C885 1.427 . S
N893 C891 1.384 . S
H894 C900 0.930 . S
H895 C904 0.930 . S
H896 C909 0.929 . S
H897 C907 0.929 . S
H898 C902 0.929 1_556 S
H899 C908 0.929 1_554 S
C900 H894 0.930 . S
C900 C901 1.367 . S
C900 C908 1.378 . S
C901 C900 1.367 . S
C901 C909 1.433 1_655 S
C902 H898 0.929 1_554 S
C902 C904 1.378 . S
C902 C906 1.350 1_455 S
C903 C906 1.463 1_556 S
C903 C908 1.350 . S
C903 N911 1.427 1_655 S
C904 H895 0.930 . S
C904 C902 1.378 . S
C904 C905 1.367 1_455 S
C905 C904 1.367 1_655 S
C905 C907 1.433 . S
C906 C902 1.350 1_655 S
C906 C903 1.463 1_554 S
C906 N910 1.427 . S
C907 H897 0.929 . S
C907 C905 1.433 . S
C907 N910 1.384 . S
C908 H899 0.929 1_556 S
C908 C900 1.378 . S
C908 C903 1.350 . S
C909 H896 0.929 . S
C909 C901 1.433 1_455 S
C909 N911 1.384 . S
N910 C906 1.427 . S
N910 C907 1.384 . S
N911 C903 1.427 1_455 S
N911 C909 1.384 . S
H912 C918 0.930 . S
H913 C922 0.930 . S
H914 C927 0.929 . S
H915 C925 0.929 . S
H916 C920 0.929 . S
H917 C926 0.929 . S
C918 H912 0.930 . S
C918 C919 1.367 . S
C918 C926 1.378 . S
C919 C918 1.367 . S
C919 C927 1.433 . S
C920 H916 0.929 . S
C920 C922 1.378 . S
C920 C924 1.350 . S
C921 C924 1.463 . S
C921 C926 1.350 . S
C921 N929 1.427 . S
C922 H913 0.930 . S
C922 C920 1.378 . S
C922 C923 1.367 . S
C923 C922 1.367 . S
C923 C925 1.433 . S
C924 C920 1.350 . S
C924 C921 1.463 . S
C924 N928 1.427 . S
C925 H915 0.929 . S
C925 C923 1.433 . S
C925 N928 1.384 . S
C926 H917 0.929 . S
C926 C918 1.378 . S
C926 C921 1.350 . S
C927 H914 0.929 . S
C927 C919 1.433 . S
C927 N929 1.384 . S
N928 C924 1.427 . S
N928 C925 1.384 . S
N929 C921 1.427 . S
N929 C927 1.384 . S
H930 C936 0.930 . S
H931 C940 0.930 . S
H932 C945 0.929 . S
H933 C943 0.929 . S
H934 C938 0.929 . S
H935 C944 0.929 . S
C936 H930 0.930 . S
C936 C937 1.367 . S
C936 C944 1.378 . S
C937 C936 1.367 . S
C937 C945 1.433 . S
C938 H934 0.929 . S
C938 C940 1.378 . S
C938 C942 1.350 . S
C939 C942 1.463 . S
C939 C944 1.350 . S
C939 N947 1.427 . S
C940 H931 0.930 . S
C940 C938 1.378 . S
C940 C941 1.367 . S
C941 C940 1.367 . S
C941 C943 1.433 . S
C942 C938 1.350 . S
C942 C939 1.463 . S
C942 N946 1.427 . S
C943 H933 0.929 . S
C943 C941 1.433 . S
C943 N946 1.384 . S
C944 H935 0.929 . S
C944 C936 1.378 . S
C944 C939 1.350 . S
C945 H932 0.929 . S
C945 C937 1.433 . S
C945 N947 1.384 . S
N946 C942 1.427 . S
N946 C943 1.384 . S
N947 C939 1.427 . S
N947 C945 1.384 . S
H948 C954 0.930 . S
H949 C958 0.930 . S
H950 C963 0.929 1_554 S
H951 C961 0.929 . S
H952 C956 0.929 . S
H953 C962 0.929 . S
C954 H948 0.930 . S
C954 C955 1.367 . S
C954 C962 1.378 . S
C955 C954 1.367 . S
C955 C963 1.433 . S
C956 H952 0.929 . S
C956 C958 1.378 . S
C956 C960 1.350 . S
C957 C960 1.463 . S
C957 C962 1.350 . S
C957 N965 1.427 . S
C958 H949 0.930 . S
C958 C956 1.378 . S
C958 C959 1.367 . S
C959 C958 1.367 . S
C959 C961 1.433 . S
C960 C956 1.350 . S
C960 C957 1.463 . S
C960 N964 1.427 . S
C961 H951 0.929 . S
C961 C959 1.433 . S
C961 N964 1.384 . S
C962 H953 0.929 . S
C962 C954 1.378 . S
C962 C957 1.350 . S
C963 H950 0.929 1_556 S
C963 C955 1.433 . S
C963 N965 1.384 . S
N964 C960 1.427 . S
N964 C961 1.384 . S
N965 C957 1.427 . S
N965 C963 1.384 . S
H966 C972 0.930 . S
H967 C976 0.930 . S
H968 C981 0.929 . S
H969 C979 0.929 . S
H970 C974 0.929 . S
H971 C980 0.929 . S
C972 H966 0.930 . S
C972 C973 1.367 . S
C972 C980 1.378 . S
C973 C972 1.367 . S
C973 C981 1.433 . S
C974 H970 0.929 . S
C974 C976 1.378 . S
C974 C978 1.350 . S
C975 C978 1.463 . S
C975 C980 1.350 . S
C975 N983 1.427 . S
C976 H967 0.930 . S
C976 C974 1.378 . S
C976 C977 1.367 . S
C977 C976 1.367 . S
C977 C979 1.433 . S
C978 C974 1.350 . S
C978 C975 1.463 . S
C978 N982 1.427 . S
C979 H969 0.929 . S
C979 C977 1.433 . S
C979 N982 1.384 . S
C980 H971 0.929 . S
C980 C972 1.378 . S
C980 C975 1.350 . S
C981 H968 0.929 . S
C981 C973 1.433 . S
C981 N983 1.384 . S
N982 C978 1.427 . S
N982 C979 1.384 . S
N983 C975 1.427 . S
N983 C981 1.384 . S
H984 C990 0.930 . S
H985 C994 0.930 . S
H986 C999 0.929 . S
H987 C997 0.929 . S
H988 C992 0.929 . S
H989 C998 0.929 . S
C990 H984 0.930 . S
C990 C991 1.367 . S
C990 C998 1.378 . S
C991 C990 1.367 . S
C991 C999 1.433 . S
C992 H988 0.929 . S
C992 C994 1.378 . S
C992 C996 1.350 . S
C993 C996 1.463 . S
C993 C998 1.350 . S
C993 N1001 1.427 . S
C994 H985 0.930 . S
C994 C992 1.378 . S
C994 C995 1.367 . S
C995 C994 1.367 . S
C995 C997 1.433 . S
C996 C992 1.350 . S
C996 C993 1.463 . S
C996 N1000 1.427 . S
C997 H987 0.929 . S
C997 C995 1.433 . S
C997 N1000 1.384 . S
C998 H989 0.929 . S
C998 C990 1.378 . S
C998 C993 1.350 . S
C999 H986 0.929 . S
C999 C991 1.433 . S
C999 N1001 1.384 . S
N1000 C996 1.427 . S
N1000 C997 1.384 . S
N1001 C993 1.427 . S
N1001 C999 1.384 . S
H1002 C1008 0.930 . S
H1003 C1012 0.930 . S
H1004 C1017 0.929 . S
H1005 C1015 0.929 . S
H1006 C1010 0.929 . S
H1007 C1016 0.929 . S
C1008 H1002 0.930 . S
C1008 C1009 1.367 . S
C1008 C1016 1.378 . S
C1009 C1008 1.367 . S
C1009 C1017 1.433 . S
C1010 H1006 0.929 . S
C1010 C1012 1.378 . S
C1010 C1014 1.350 . S
C1011 C1014 1.463 . S
C1011 C1016 1.350 . S
C1011 N1019 1.427 . S
C1012 H1003 0.930 . S
C1012 C1010 1.378 . S
C1012 C1013 1.367 . S
C1013 C1012 1.367 . S
C1013 C1015 1.433 . S
C1014 C1010 1.350 . S
C1014 C1011 1.463 . S
C1014 N1018 1.427 . S
C1015 H1005 0.929 . S
C1015 C1013 1.433 . S
C1015 N1018 1.384 . S
C1016 H1007 0.929 . S
C1016 C1008 1.378 . S
C1016 C1011 1.350 . S
C1017 H1004 0.929 . S
C1017 C1009 1.433 . S
C1017 N1019 1.384 . S
N1018 C1014 1.427 . S
N1018 C1015 1.384 . S
N1019 C1011 1.427 . S
N1019 C1017 1.384 . S
H1020 C1026 0.930 . S
H1021 C1030 0.930 . S
H1022 C1035 0.929 . S
H1023 C1033 0.929 . S
H1024 C1028 0.929 . S
H1025 C1034 0.929 . S
C1026 H1020 0.930 . S
C1026 C1027 1.367 . S
C1026 C1034 1.378 . S
C1027 C1026 1.367 . S
C1027 C1035 1.433 . S
C1028 H1024 0.929 . S
C1028 C1030 1.378 . S
C1028 C1032 1.350 . S
C1029 C1032 1.463 . S
C1029 C1034 1.350 . S
C1029 N1037 1.427 . S
C1030 H1021 0.930 . S
C1030 C1028 1.378 . S
C1030 C1031 1.367 . S
C1031 C1030 1.367 . S
C1031 C1033 1.433 . S
C1032 C1028 1.350 . S
C1032 C1029 1.463 . S
C1032 N1036 1.427 . S
C1033 H1023 0.929 . S
C1033 C1031 1.433 . S
C1033 N1036 1.384 . S
C1034 H1025 0.929 . S
C1034 C1026 1.378 . S
C1034 C1029 1.350 . S
C1035 H1022 0.929 . S
C1035 C1027 1.433 . S
C1035 N1037 1.384 . S
N1036 C1032 1.427 . S
N1036 C1033 1.384 . S
N1037 C1029 1.427 . S
N1037 C1035 1.384 . S
H1038 C1044 0.930 . S
H1039 C1048 0.930 1_554 S
H1040 C1053 0.929 . S
H1041 C1051 0.929 . S
H1042 C1046 0.929 . S
H1043 C1052 0.929 . S
C1044 H1038 0.930 . S
C1044 C1045 1.367 . S
C1044 C1052 1.378 . S
C1045 C1044 1.367 . S
C1045 C1053 1.433 . S
C1046 H1042 0.929 . S
C1046 C1048 1.378 . S
C1046 C1050 1.350 . S
C1047 C1050 1.463 . S
C1047 C1052 1.350 . S
C1047 N1055 1.427 . S
C1048 H1039 0.930 1_556 S
C1048 C1046 1.378 . S
C1048 C1049 1.367 . S
C1049 C1048 1.367 . S
C1049 C1051 1.433 . S
C1050 C1046 1.350 . S
C1050 C1047 1.463 . S
C1050 N1054 1.427 . S
C1051 H1041 0.929 . S
C1051 C1049 1.433 . S
C1051 N1054 1.384 . S
C1052 H1043 0.929 . S
C1052 C1044 1.378 . S
C1052 C1047 1.350 . S
C1053 H1040 0.929 . S
C1053 C1045 1.433 . S
C1053 N1055 1.384 . S
N1054 C1050 1.427 . S
N1054 C1051 1.384 . S
N1055 C1047 1.427 . S
N1055 C1053 1.384 . S
H1056 C1062 0.930 . S
H1057 C1066 0.930 . S
H1058 C1071 0.929 . S
H1059 C1069 0.929 . S
H1060 C1064 0.929 . S
H1061 C1070 0.929 . S
C1062 H1056 0.930 . S
C1062 C1063 1.367 . S
C1062 C1070 1.378 . S
C1063 C1062 1.367 . S
C1063 C1071 1.433 . S
C1064 H1060 0.929 . S
C1064 C1066 1.378 . S
C1064 C1068 1.350 . S
C1065 C1068 1.463 . S
C1065 C1070 1.350 . S
C1065 N1073 1.427 . S
C1066 H1057 0.930 . S
C1066 C1064 1.378 . S
C1066 C1067 1.367 . S
C1067 C1066 1.367 . S
C1067 C1069 1.433 . S
C1068 C1064 1.350 . S
C1068 C1065 1.463 . S
C1068 N1072 1.427 . S
C1069 H1059 0.929 . S
C1069 C1067 1.433 . S
C1069 N1072 1.384 . S
C1070 H1061 0.929 . S
C1070 C1062 1.378 . S
C1070 C1065 1.350 . S
C1071 H1058 0.929 . S
C1071 C1063 1.433 . S
C1071 N1073 1.384 . S
N1072 C1068 1.427 . S
N1072 C1069 1.384 . S
N1073 C1065 1.427 . S
N1073 C1071 1.384 . S
H1074 C1080 0.930 . S
H1075 C1084 0.930 1_556 S
H1076 C1089 0.929 . S
H1077 C1087 0.929 . S
H1078 C1082 0.929 . S
H1079 C1088 0.929 . S
C1080 H1074 0.930 . S
C1080 C1081 1.367 . S
C1080 C1088 1.378 . S
C1081 C1080 1.367 . S
C1081 C1089 1.433 . S
C1082 H1078 0.929 . S
C1082 C1084 1.378 . S
C1082 C1086 1.350 . S
C1083 C1086 1.463 . S
C1083 C1088 1.350 . S
C1083 N1091 1.427 . S
C1084 H1075 0.930 1_554 S
C1084 C1082 1.378 . S
C1084 C1085 1.367 . S
C1085 C1084 1.367 . S
C1085 C1087 1.433 . S
C1086 C1082 1.350 . S
C1086 C1083 1.463 . S
C1086 N1090 1.427 . S
C1087 H1077 0.929 . S
C1087 C1085 1.433 . S
C1087 N1090 1.384 . S
C1088 H1079 0.929 . S
C1088 C1080 1.378 . S
C1088 C1083 1.350 . S
C1089 H1076 0.929 . S
C1089 C1081 1.433 . S
C1089 N1091 1.384 . S
N1090 C1086 1.427 . S
N1090 C1087 1.384 . S
N1091 C1083 1.427 . S
N1091 C1089 1.384 . S
H1092 C1098 0.930 . S
H1093 C1102 0.930 . S
H1094 C1107 0.929 . S
H1095 C1105 0.929 . S
H1096 C1100 0.929 . S
H1097 C1106 0.929 . S
C1098 H1092 0.930 . S
C1098 C1099 1.367 . S
C1098 C1106 1.378 . S
C1099 C1098 1.367 . S
C1099 C1107 1.433 . S
C1100 H1096 0.929 . S
C1100 C1102 1.378 . S
C1100 C1104 1.350 . S
C1101 C1104 1.463 . S
C1101 C1106 1.350 . S
C1101 N1109 1.427 . S
C1102 H1093 0.930 . S
C1102 C1100 1.378 . S
C1102 C1103 1.367 . S
C1103 C1102 1.367 . S
C1103 C1105 1.433 . S
C1104 C1100 1.350 . S
C1104 C1101 1.463 . S
C1104 N1108 1.427 . S
C1105 H1095 0.929 . S
C1105 C1103 1.433 . S
C1105 N1108 1.384 . S
C1106 H1097 0.929 . S
C1106 C1098 1.378 . S
C1106 C1101 1.350 . S
C1107 H1094 0.929 . S
C1107 C1099 1.433 . S
C1107 N1109 1.384 . S
N1108 C1104 1.427 . S
N1108 C1105 1.384 . S
N1109 C1101 1.427 . S
N1109 C1107 1.384 . S
H1110 C1116 0.930 . S
H1111 C1120 0.930 . S
H1112 C1125 0.929 . S
H1113 C1123 0.929 . S
H1114 C1118 0.929 . S
H1115 C1124 0.929 . S
C1116 H1110 0.930 . S
C1116 C1117 1.367 . S
C1116 C1124 1.378 . S
C1117 C1116 1.367 . S
C1117 C1125 1.433 . S
C1118 H1114 0.929 . S
C1118 C1120 1.378 . S
C1118 C1122 1.350 . S
C1119 C1122 1.463 . S
C1119 C1124 1.350 . S
C1119 N1127 1.427 . S
C1120 H1111 0.930 . S
C1120 C1118 1.378 . S
C1120 C1121 1.367 . S
C1121 C1120 1.367 . S
C1121 C1123 1.433 . S
C1122 C1118 1.350 . S
C1122 C1119 1.463 . S
C1122 N1126 1.427 . S
C1123 H1113 0.929 . S
C1123 C1121 1.433 . S
C1123 N1126 1.384 . S
C1124 H1115 0.929 . S
C1124 C1116 1.378 . S
C1124 C1119 1.350 . S
C1125 H1112 0.929 . S
C1125 C1117 1.433 . S
C1125 N1127 1.384 . S
N1126 C1122 1.427 . S
N1126 C1123 1.384 . S
N1127 C1119 1.427 . S
N1127 C1125 1.384 . S
H1128 C1134 0.930 . S
H1129 C1138 0.930 1_556 S
H1130 C1143 0.929 . S
H1131 C1141 0.929 . S
H1132 C1136 0.929 . S
H1133 C1142 0.929 . S
C1134 H1128 0.930 . S
C1134 C1135 1.367 . S
C1134 C1142 1.378 . S
C1135 C1134 1.367 . S
C1135 C1143 1.433 . S
C1136 H1132 0.929 . S
C1136 C1138 1.378 . S
C1136 C1140 1.350 . S
C1137 C1140 1.463 . S
C1137 C1142 1.350 . S
C1137 N1145 1.427 . S
C1138 H1129 0.930 1_554 S
C1138 C1136 1.378 . S
C1138 C1139 1.367 . S
C1139 C1138 1.367 . S
C1139 C1141 1.433 . S
C1140 C1136 1.350 . S
C1140 C1137 1.463 . S
C1140 N1144 1.427 . S
C1141 H1131 0.929 . S
C1141 C1139 1.433 . S
C1141 N1144 1.384 . S
C1142 H1133 0.929 . S
C1142 C1134 1.378 . S
C1142 C1137 1.350 . S
C1143 H1130 0.929 . S
C1143 C1135 1.433 . S
C1143 N1145 1.384 . S
N1144 C1140 1.427 . S
N1144 C1141 1.384 . S
N1145 C1137 1.427 . S
N1145 C1143 1.384 . S
H1146 C1152 0.930 . S
H1147 C1156 0.930 . S
H1148 C1161 0.929 1_554 S
H1149 C1159 0.929 . S
H1150 C1154 0.929 . S
H1151 C1160 0.929 . S
C1152 H1146 0.930 . S
C1152 C1153 1.367 . S
C1152 C1160 1.378 . S
C1153 C1152 1.367 . S
C1153 C1161 1.433 . S
C1154 H1150 0.929 . S
C1154 C1156 1.378 . S
C1154 C1158 1.350 . S
C1155 C1158 1.463 . S
C1155 C1160 1.350 . S
C1155 N1163 1.427 . S
C1156 H1147 0.930 . S
C1156 C1154 1.378 . S
C1156 C1157 1.367 . S
C1157 C1156 1.367 . S
C1157 C1159 1.433 . S
C1158 C1154 1.350 . S
C1158 C1155 1.463 . S
C1158 N1162 1.427 . S
C1159 H1149 0.929 . S
C1159 C1157 1.433 . S
C1159 N1162 1.384 . S
C1160 H1151 0.929 . S
C1160 C1152 1.378 . S
C1160 C1155 1.350 . S
C1161 H1148 0.929 1_556 S
C1161 C1153 1.433 . S
C1161 N1163 1.384 . S
N1162 C1158 1.427 . S
N1162 C1159 1.384 . S
N1163 C1155 1.427 . S
N1163 C1161 1.384 . S
H1164 C1170 0.930 . S
H1165 C1174 0.930 . S
H1166 C1179 0.929 . S
H1167 C1177 0.929 . S
H1168 C1172 0.929 . S
H1169 C1178 0.929 . S
C1170 H1164 0.930 . S
C1170 C1171 1.367 . S
C1170 C1178 1.378 . S
C1171 C1170 1.367 . S
C1171 C1179 1.433 . S
C1172 H1168 0.929 . S
C1172 C1174 1.378 . S
C1172 C1176 1.350 . S
C1173 C1176 1.463 . S
C1173 C1178 1.350 . S
C1173 N1181 1.427 . S
C1174 H1165 0.930 . S
C1174 C1172 1.378 . S
C1174 C1175 1.367 . S
C1175 C1174 1.367 . S
C1175 C1177 1.433 . S
C1176 C1172 1.350 . S
C1176 C1173 1.463 . S
C1176 N1180 1.427 . S
C1177 H1167 0.929 . S
C1177 C1175 1.433 . S
C1177 N1180 1.384 . S
C1178 H1169 0.929 . S
C1178 C1170 1.378 . S
C1178 C1173 1.350 . S
C1179 H1166 0.929 . S
C1179 C1171 1.433 . S
C1179 N1181 1.384 . S
N1180 C1176 1.427 . S
N1180 C1177 1.384 . S
N1181 C1173 1.427 . S
N1181 C1179 1.384 . S
H1182 C1188 0.930 . S
H1183 C1192 0.930 . S
H1184 C1197 0.929 . S
H1185 C1195 0.929 . S
H1186 C1190 0.929 . S
H1187 C1196 0.929 . S
C1188 H1182 0.930 . S
C1188 C1189 1.367 . S
C1188 C1196 1.378 . S
C1189 C1188 1.367 . S
C1189 C1197 1.433 . S
C1190 H1186 0.929 . S
C1190 C1192 1.378 . S
C1190 C1194 1.350 . S
C1191 C1194 1.463 . S
C1191 C1196 1.350 . S
C1191 N1199 1.427 . S
C1192 H1183 0.930 . S
C1192 C1190 1.378 . S
C1192 C1193 1.367 . S
C1193 C1192 1.367 . S
C1193 C1195 1.433 . S
C1194 C1190 1.350 . S
C1194 C1191 1.463 . S
C1194 N1198 1.427 . S
C1195 H1185 0.929 . S
C1195 C1193 1.433 . S
C1195 N1198 1.384 . S
C1196 H1187 0.929 . S
C1196 C1188 1.378 . S
C1196 C1191 1.350 . S
C1197 H1184 0.929 . S
C1197 C1189 1.433 . S
C1197 N1199 1.384 . S
N1198 C1194 1.427 . S
N1198 C1195 1.384 . S
N1199 C1191 1.427 . S
N1199 C1197 1.384 . S
C343 C17 1.367 1_556 S
C347 C161 1.358 . S
C361 C35 1.354 . S
C365 C101 1.376 1_554 S
C379 C122 1.380 . S
C383 C59 1.356 . S
C397 C80 1.358 . S
C401 C143 1.380 . S
C415 C247 1.214 . S
C419 C100 1.211 1_554 S
C433 C184 1.203 . S
C437 C16 1.228 1_556 S
C451 C223 1.216 . S
C455 C142 1.209 . S
C469 C58 1.222 . S
C473 C202 1.204 . S
C487 C203 1.360 . S
C491 C269 1.364 . S
C505 C224 1.356 . S
C509 C311 1.370 . S
C523 C290 1.379 1_556 S
C527 C185 1.360 . S
C541 C248 1.376 . S
C545 C332 1.354 1_554 S
C559 C310 1.200 . S
C563 C79 1.228 . S
C577 C268 1.229 . S
C581 C121 1.200 . S
C595 C34 1.224 . S
C599 C331 1.203 1_554 S
C613 C160 1.212 . S
C617 C289 1.221 1_556 S
C631 C291 0.969 . S
C635 C18 0.929 . S
C649 C249 0.928 . S
C653 C36 0.969 . S
C667 C270 0.969 . S
C671 C60 0.928 . S
C685 C225 0.968 . S
C689 C81 0.929 . S
C703 C102 0.943 . S
C707 C333 0.952 . S
C721 C204 0.960 . S
C725 C123 0.941 . S
C739 C144 0.970 . S
C743 C312 0.929 . S
C757 C162 0.970 . S
C761 C186 0.928 . S
C775 C15 1.090 . S
C779 C99 1.090 . S
C793 C39 1.097 . S
C797 C120 1.097 . S
C811 C141 1.105 . S
C815 C57 1.105 . S
C829 C78 1.108 . S
C833 C165 1.108 . S
C847 C228 1.103 . S
C851 C183 1.103 . S
C865 C246 1.097 . S
C869 C207 1.097 . S
C883 C267 1.111 . S
C887 C309 1.111 . S
C901 C330 1.105 . S
C905 C288 1.105 . S
C919 C14 1.436 . S
C923 C164 1.438 . S
C937 C38 1.436 . S
C941 C98 1.433 . S
C955 C119 1.433 1_556 S
C959 C56 1.431 . S
C973 C140 1.436 . S
C977 C77 1.434 1_554 S
C991 C244 1.316 . S
C995 C97 1.324 . S
C1009 C181 1.327 . S
C1013 C13 1.325 . S
C1027 C226 1.327 1_554 S
C1031 C139 1.320 . S
C1045 C55 1.328 . S
C1049 C205 1.322 1_556 S
C1063 C266 1.437 . S
C1067 C206 1.435 1_556 S
C1081 C308 1.437 . S
C1085 C227 1.439 1_554 S
C1099 C287 1.433 . S
C1103 C182 1.432 . S
C1117 C329 1.432 . S
C1121 C245 1.431 . S
C1135 C307 1.321 . S
C1139 C76 1.328 1_554 S
C1153 C118 1.315 1_556 S
C1157 C265 1.321 . S
C1171 C37 1.328 . S
C1175 C328 1.323 . S
C1189 C286 1.324 . S
C1193 C163 1.316 . S
