# Generated by pormake.
# Topology nbo, (4)-cn, num edge types: 1
# Building blocks:
#     Node 0, Type 0, BuildingBlock: ESEHIV_clean_sbu_0, # of connection points: 4
#     Node 1, Type 0, BuildingBlock: ESEHIV_clean_sbu_0, # of connection points: 4
#     Node 2, Type 0, BuildingBlock: ESEHIV_clean_sbu_0, # of connection points: 4
#     Node 3, Type 0, BuildingBlock: ESEHIV_clean_sbu_0, # of connection points: 4
#     Node 4, Type 0, BuildingBlock: ESEHIV_clean_sbu_0, # of connection points: 4
#     Node 5, Type 0, BuildingBlock: ESEHIV_clean_sbu_0, # of connection points: 4
#     Edge 6, Type (0, 0), BuildingBlock: UVAHIK_clean_linker_0, # of connection points: 2
#     Edge 7, Type (0, 0), BuildingBlock: UVAHIK_clean_linker_0, # of connection points: 2
#     Edge 8, Type (0, 0), BuildingBlock: UVAHIK_clean_linker_0, # of connection points: 2
#     Edge 9, Type (0, 0), BuildingBlock: UVAHIK_clean_linker_0, # of connection points: 2
#     Edge 10, Type (0, 0), BuildingBlock: UVAHIK_clean_linker_0, # of connection points: 2
#     Edge 11, Type (0, 0), BuildingBlock: UVAHIK_clean_linker_0, # of connection points: 2
#     Edge 12, Type (0, 0), BuildingBlock: UVAHIK_clean_linker_0, # of connection points: 2
#     Edge 13, Type (0, 0), BuildingBlock: UVAHIK_clean_linker_0, # of connection points: 2
#     Edge 14, Type (0, 0), BuildingBlock: UVAHIK_clean_linker_0, # of connection points: 2
#     Edge 15, Type (0, 0), BuildingBlock: UVAHIK_clean_linker_0, # of connection points: 2
#     Edge 16, Type (0, 0), BuildingBlock: UVAHIK_clean_linker_0, # of connection points: 2
#     Edge 17, Type (0, 0), BuildingBlock: UVAHIK_clean_linker_0, # of connection points: 2
# Relax obj value: 0.000
# Max RMSD: 0.095
# Mean RMSD: 0.094
data_MOF--net-nbo--node1-ESEHIV_clean_sbu_0--edge1-UVAHIK_clean_linker_0
_symmetry_space_group_name_H-M    P1
_symmetry_Int_Tables_number       1
_symmetry_cell_setting            triclinic
loop_
_symmetry_equiv_pos_as_xyz
'x, y, z'
_cell_length_a     38.274192
_cell_length_b     43.101257
_cell_length_c     40.686737
_cell_angle_alpha  103.97127
_cell_angle_beta   103.91297
_cell_angle_gamma 104.13667
loop_
_atom_site_label
_atom_site_type_symbol
_atom_site_fract_x
_atom_site_fract_y
_atom_site_fract_z
_atom_type_partial_charge
Cu0 Cu 0.05943 0.06764 0.53068 0.0
N1 N 0.07545 0.11323 0.55824 0.0
N2 N 0.07737 0.16735 0.57025 0.0
C3 C 0.05928 0.13533 0.54823 0.0
C4 C 0.10622 0.16513 0.5954 0.0
C5 C 0.10503 0.13172 0.58784 0.0
O6 O 1.00613 0.05808 0.50428 0.0
C7 C 0.1172 0.08461 0.4984 0.0
O8 O 0.11597 0.11548 0.50912 0.0
H9 H 0.035 0.12779 0.52458 0.0
H10 H 0.12501 0.12186 0.60218 0.0
N11 N 0.06163 0.03835 0.55786 0.0
N12 N 0.05709 0.98944 0.56927 0.0
C13 C 0.05176 1.00457 0.54384 0.0
C14 C 0.07362 0.04503 0.5935 0.0
C15 C 0.07091 1.01489 0.60062 0.0
C16 C 0.98569 0.06201 0.52453 0.0
O17 O 1.00136 0.06972 0.55914 0.0
H18 H 0.04164 0.9915 0.51538 0.0
H19 H 0.08371 0.06997 0.6129 0.0
O20 O 0.09291 0.06061 0.50204 0.0
H21 H 0.12752 0.18615 0.61704 0.0
H22 H 0.07828 1.01201 0.62685 0.0
Cu23 Cu 0.53294 0.05067 0.00962 0.0
N24 N 0.50088 1.00731 1.00169 0.0
N25 N 0.48541 0.95472 1.00479 0.0
C26 C 0.5132 0.98449 0.0144 0.0
C27 C 0.45421 0.95896 0.98491 0.0
C28 C 0.46383 0.9915 0.9831 0.0
O29 O 0.57163 0.05823 0.05471 0.0
C30 C 0.52513 0.04761 0.93963 0.0
O31 O 0.49136 0.04784 0.94138 0.0
H32 H 0.54244 0.98948 0.02972 0.0
H33 H 0.44523 1.00271 0.96911 0.0
N34 N 0.50812 0.08335 0.01534 0.0
N35 N 0.49795 0.13336 0.02269 0.0
C36 C 0.52099 0.11531 0.0149 0.0
C37 C 0.47561 0.08089 0.02323 0.0
C38 C 0.46925 0.11158 0.02774 0.0
C39 C 0.57647 0.08095 0.08359 0.0
O40 O 0.56419 0.10658 0.08183 0.0
H41 H 0.54764 0.12544 0.01051 0.0
H42 H 0.45821 0.05857 0.0263 0.0
O43 O 0.55007 0.04918 0.96775 0.0
H44 H 0.42639 0.94005 0.97272 0.0
H45 H 0.44539 0.11736 0.03451 0.0
Cu46 Cu 0.04853 0.53773 1.00252 0.0
N47 N 0.04108 0.51317 0.95522 0.0
N48 N 0.046 0.5053 0.90029 0.0
C49 C 0.05204 0.52796 0.93214 0.0
C50 C 0.03043 0.4749 0.90343 0.0
C51 C 0.02771 0.47981 0.9375 0.0
O52 O 0.10281 0.56257 0.02011 0.0
C53 C 0.97962 0.54897 0.98197 0.0
O54 O 0.97146 0.51843 0.96005 0.0
H55 H 0.06434 0.555 0.93881 0.0
H56 H 0.01743 0.46041 0.94864 0.0
N57 N 0.0381 0.5113 0.03165 0.0
N58 N 0.03742 0.49965 0.08243 0.0
C59 C 0.05404 0.52147 0.06744 0.0
C60 C 1.01022 0.48209 0.02351 0.0
C61 C 1.00987 0.47474 0.05465 0.0
C62 C 0.12307 0.54326 0.02309 0.0
O63 O 0.10592 0.51114 0.01726 0.0
H64 H 0.07674 0.54503 0.08212 0.0
H65 H 0.99028 0.46802 0.99713 0.0
O66 O 1.01369 0.5642 1.00278 0.0
H67 H 0.02251 0.4508 0.88296 0.0
H68 H 0.98952 0.45349 0.05666 0.0
Cu69 Cu 0.56 0.56681 0.03776 0.0
N70 N 0.56661 0.61076 0.06532 0.0
N71 N 0.56081 0.66248 0.07641 0.0
C72 C 0.55339 0.63259 0.05141 0.0
C73 C 0.57969 0.6593 0.10742 0.0
C74 C 0.58309 0.62731 0.10053 0.0
O75 O 0.51011 0.55507 1.00255 0.0
C76 C 0.63536 0.58042 0.04273 0.0
O77 O 0.63732 0.59023 0.07649 0.0
H78 H 0.53885 0.62661 0.02323 0.0
H79 H 0.59647 0.61689 0.11982 0.0
N80 N 0.55891 0.53656 0.06425 0.0
N81 N 0.55455 0.48779 0.07618 0.0
C82 C 0.56162 0.50527 0.05366 0.0
C83 C 0.55045 0.53925 0.09481 0.0
C84 C 0.54784 0.50935 0.10228 0.0
C85 C 0.48186 0.53027 0.99912 0.0
O86 O 0.48811 0.50559 0.01069 0.0
H87 H 0.56617 0.49485 0.02864 0.0
H88 H 0.54495 0.56089 0.10981 0.0
O89 O 0.60264 0.56836 0.01904 0.0
H90 H 0.5898 0.67845 0.13335 0.0
H91 H 0.5406 0.50376 0.1248 0.0
Cu92 Cu 0.03309 0.55449 0.50719 0.0
N93 N 1.00338 0.51139 0.50314 0.0
N94 N 0.99267 0.45955 0.50827 0.0
C95 C 0.01856 0.48721 0.5083 0.0
C96 C 0.95972 0.4668 0.50286 0.0
C97 C 0.96645 0.49886 0.49988 0.0
O98 O 0.06673 0.57005 0.55639 0.0
C99 C 0.03627 0.52974 0.43886 0.0
O100 O 1.00136 0.51224 0.43487 0.0
H101 H 0.0486 0.49075 0.51375 0.0
H102 H 0.94618 0.5124 0.49689 0.0
N103 N 1.00545 0.58429 0.50098 0.0
N104 N 0.99397 0.63316 0.50279 0.0
C105 C 0.01952 0.61825 0.5146 0.0
C106 C 0.96986 0.57738 0.47959 0.0
C107 C 0.96264 0.60741 0.48076 0.0
C108 C 0.05073 0.5776 0.57995 0.0
O109 O 0.01596 0.57877 0.5695 0.0
H110 H 0.04847 0.63171 0.53179 0.0
H111 H 0.95089 0.55236 0.4634 0.0
O112 O 0.05722 0.55019 0.46969 0.0
H113 H 0.93275 0.45045 0.50173 0.0
H114 H 0.93643 0.60999 0.46617 0.0
Cu115 Cu 0.54458 0.03175 0.49966 0.0
N116 N 0.53672 1.00628 0.45272 0.0
N117 N 0.53838 0.99787 0.39662 0.0
C118 C 0.54614 0.02071 0.42886 0.0
C119 C 0.52355 0.96762 0.40054 0.0
C120 C 0.52253 0.97291 0.43522 0.0
O121 O 0.59406 0.06543 0.51154 0.0
C122 C 0.46977 0.02661 0.49047 0.0
O123 O 0.46844 0.99485 0.48307 0.0
H124 H 0.55905 0.04765 0.43547 0.0
H125 H 0.51214 0.95384 0.44676 0.0
N126 N 0.54671 1.00682 0.53163 0.0
N127 N 0.5484 0.99545 0.58281 0.0
C128 C 0.53955 1.0151 0.56291 0.0
C129 C 0.56027 0.9808 0.53148 0.0
C130 C 0.56137 0.97374 0.56303 0.0
C131 C 0.62281 0.06961 0.53769 0.0
O132 O 0.61772 0.05763 0.56355 0.0
H133 H 0.53006 0.03643 0.57171 0.0
H134 H 0.5701 0.96874 0.51059 0.0
O135 O 0.50197 0.04916 0.49917 0.0
H136 H 0.51362 0.94344 0.3798 0.0
H137 H 0.57159 0.95452 0.57101 0.0
C138 C 0.08396 0.22816 0.59448 0.0
C139 C 0.06852 0.19738 0.56621 0.0
C140 C 0.0753 0.25706 0.59026 0.0
C141 C 1.00411 0.28404 0.53487 0.0
H142 H 0.08452 0.36987 0.56724 0.0
C143 C 0.97518 0.40876 0.52729 0.0
C144 C 0.99986 0.42987 0.51519 0.0
C145 C 0.98303 0.38075 0.53509 0.0
C146 C 0.06175 0.34606 0.55798 0.0
H147 H 0.03216 0.1738 0.51085 0.0
H148 H 0.01689 0.22354 0.50399 0.0
H149 H 0.09925 0.3205 0.57831 0.0
H150 H 0.0517 0.43701 0.50085 0.0
H151 H 0.06544 0.38865 0.51479 0.0
H152 H 0.96673 0.30941 0.514 0.0
C153 C 0.03533 0.22521 0.52959 0.0
C154 C 0.07013 0.31786 0.56465 0.0
C155 C 0.04417 0.19649 0.53366 0.0
C156 C 0.03237 0.42192 0.51078 0.0
C157 C 0.04031 0.3941 0.51879 0.0
C158 C 0.99568 0.31228 0.52845 0.0
C159 C 0.05073 0.25586 0.55777 0.0
C160 C 0.04149 0.2864 0.55278 0.0
C161 C 0.01585 0.37322 0.53117 0.0
C162 C 0.02447 0.34355 0.53954 0.0
H163 H 0.10247 0.22998 0.62005 0.0
H164 H 0.08743 0.28025 0.6126 0.0
H165 H 0.98131 0.26026 0.52568 0.0
H166 H 0.95013 0.41414 0.53145 0.0
H167 H 0.96374 0.36533 0.54484 0.0
C168 C 0.91511 0.03746 0.49821 0.0
C169 C 0.94804 0.06568 0.51182 0.0
C170 C 0.87939 0.04167 0.49531 0.0
C171 C 0.839 0.10244 0.53954 0.0
H172 H 0.74397 0.0448 0.46681 0.0
C173 C 0.69337 0.08366 0.56279 0.0
C174 C 0.66148 0.07959 0.53438 0.0
C175 C 0.7288 0.0866 0.5578 0.0
C176 C 0.77029 0.06142 0.48714 0.0
H177 H 0.96983 0.12024 0.53189 0.0
H178 H 0.90769 0.12773 0.52593 0.0
H179 H 0.80409 0.04013 0.45904 0.0
H180 H 0.6424 0.07715 0.47879 0.0
H181 H 0.70433 0.08248 0.47021 0.0
H182 H 0.80534 0.12342 0.56788 0.0
C183 C 0.90915 0.10235 0.51779 0.0
C184 C 0.80472 0.05849 0.48283 0.0
C185 C 0.94469 0.09811 0.52074 0.0
C186 C 0.66634 0.08034 0.50133 0.0
C187 C 0.70176 0.08301 0.49626 0.0
C188 C 0.80465 0.10524 0.54392 0.0
C189 C 0.87619 0.07419 0.5063 0.0
C190 C 0.8395 0.07875 0.50916 0.0
C191 C 0.73319 0.08536 0.5242 0.0
C192 C 0.76983 0.08449 0.51801 0.0
H193 H 0.91721 1.01222 0.49201 0.0
H194 H 0.85466 0.01942 0.48665 0.0
H195 H 0.86517 0.11816 0.56063 0.0
H196 H 0.69066 0.08313 0.58857 0.0
H197 H 0.75232 0.08816 0.57985 0.0
C198 C 0.02706 0.69248 0.54213 0.0
C199 C 0.99977 0.66899 0.51048 0.0
C200 C 0.03311 0.72719 0.54925 0.0
C201 C 0.01921 0.79058 0.50431 0.0
H202 H 0.03545 0.84808 0.59969 0.0
C203 C 0.02329 0.92959 0.53228 0.0
C204 C 0.0501 0.95371 0.56378 0.0
C205 C 0.01709 0.89505 0.52645 0.0
C206 C 0.03142 0.83249 0.57298 0.0
H207 H 0.95756 0.664 0.46149 0.0
H208 H 0.96768 0.72425 0.47409 0.0
H209 H 0.02489 0.78774 0.58835 0.0
H210 H 0.09143 0.96005 0.61387 0.0
H211 H 0.0808 0.89987 0.60367 0.0
H212 H 0.0259 0.83522 0.4889 0.0
C213 C 0.9847 0.71586 0.49332 0.0
C214 C 0.02533 0.79783 0.56647 0.0
C215 C 0.97855 0.68119 0.48626 0.0
C216 C 0.07026 0.94227 0.5895 0.0
C217 C 0.06412 0.90767 0.58363 0.0
C218 C 0.02537 0.8252 0.51082 0.0
C219 C 1.01214 0.73937 0.52485 0.0
C220 C 0.019 0.77638 0.532 0.0
C221 C 0.03758 0.88357 0.55193 0.0
C222 C 0.03142 0.84666 0.54521 0.0
H223 H 0.04366 0.68407 0.56158 0.0
H224 H 0.05469 0.74452 0.57367 0.0
H225 H 0.01515 0.77499 0.47758 0.0
H226 H 1.0067 0.93735 0.51216 0.0
H227 H 0.99586 0.87731 0.50205 0.0
C228 C 0.43318 0.06827 0.49369 0.0
C229 C 0.43403 0.03502 0.48835 0.0
C230 C 0.3988 0.07524 0.49109 0.0
C231 C 0.29362 0.03302 0.45506 0.0
H232 H 0.29069 0.11144 0.5237 0.0
C233 C 0.15495 0.04672 0.48103 0.0
C234 C 0.15066 0.07893 0.48854 0.0
C235 C 0.18892 0.04239 0.47683 0.0
C236 C 0.29104 0.08967 0.50397 0.0
H237 H 0.3993 0.98315 0.47647 0.0
H238 H 0.34021 0.9953 0.47262 0.0
H239 H 0.35156 0.10271 0.525 0.0
H240 H 0.17831 0.1316 0.49583 0.0
H241 H 0.23728 0.12396 0.48832 0.0
H242 H 0.233 0.01959 0.4346 0.0
C243 C 0.3657 1.016 0.47802 0.0
C244 C 0.32602 0.08468 0.5047 0.0
C245 C 0.39983 1.00906 0.48054 0.0
C246 C 0.18058 0.10643 0.4902 0.0
C247 C 0.21458 0.10212 0.48618 0.0
C248 C 0.25867 0.03794 0.45444 0.0
C249 C 0.36455 0.04911 0.48308 0.0
C250 C 0.32774 0.05601 0.4806 0.0
C251 C 0.21948 0.07018 0.48017 0.0
C252 C 0.25686 0.0661 0.47917 0.0
H253 H 0.45898 0.08884 0.49968 0.0
H254 H 0.39898 0.10104 0.49493 0.0
H255 H 0.29383 1.01103 0.43556 0.0
H256 H 0.13259 0.02498 0.47965 0.0
H257 H 0.19177 1.01746 0.47245 0.0
C258 C 0.54761 0.98015 0.33715 0.0
C259 C 0.54452 1.00496 0.36502 0.0
C260 C 0.55407 0.98754 0.30691 0.0
C261 C 0.54575 0.04916 0.25763 0.0
H262 H 0.61389 1.01527 0.21331 0.0
C263 C 0.58848 0.09828 0.14967 0.0
C264 C 0.58518 0.07383 0.11814 0.0
C265 C 0.58785 0.08973 0.1806 0.0
C266 C 0.59463 0.02477 0.22529 0.0
H267 H 0.54528 0.05699 0.38214 0.0
H268 H 0.55753 0.06995 0.33058 0.0
H269 H 0.60259 0.99974 0.26483 0.0
H270 H 0.58155 0.02167 0.09541 0.0
H271 H 0.58047 1.00679 0.14949 0.0
H272 H 0.53779 0.07424 0.21842 0.0
C273 C 0.5545 0.04461 0.33168 0.0
C274 C 0.58802 1.01577 0.25474 0.0
C275 C 0.54797 0.03724 0.3617 0.0
C276 C 0.58416 0.04119 0.11916 0.0
C277 C 0.5835 0.03261 0.15021 0.0
C278 C 0.55249 0.05825 0.22847 0.0
C279 C 0.55749 0.01989 0.30375 0.0
C280 C 0.56371 0.02811 0.2715 0.0
C281 C 0.5839 0.0565 0.18088 0.0
C282 C 0.57725 0.04646 0.21207 0.0
H283 H 0.54542 0.95511 0.33879 0.0
H284 H 0.55588 0.96776 0.28582 0.0
H285 H 0.52609 0.05848 0.26914 0.0
H286 H 0.58966 0.12373 0.15001 0.0
H287 H 0.58918 0.10897 0.20403 0.0
C288 C 0.03149 0.4759 0.13154 0.0
C289 C 0.04509 0.50354 0.12018 0.0
C290 C 0.03743 0.47988 0.16786 0.0
C291 C 0.05995 0.5454 0.25527 0.0
H292 H 0.07246 0.47264 0.29245 0.0
C293 C 0.07426 0.55456 0.40321 0.0
C294 C 0.04868 0.52696 0.40674 0.0
C295 C 0.08065 0.55289 0.37031 0.0
C296 C 0.06904 0.49322 0.28248 0.0
H297 H 0.07634 0.55724 0.13914 0.0
H298 H 0.08759 0.56383 0.2021 0.0
H299 H 0.07042 0.46761 0.23097 0.0
H300 H 1.01141 0.47547 0.37928 0.0
H301 H 0.02307 0.47233 0.32257 0.0
H302 H 0.05834 0.57083 0.30689 0.0
C303 C 0.07164 0.53911 0.1828 0.0
C304 C 0.06762 0.49028 0.24712 0.0
C305 C 0.06553 0.53518 0.14646 0.0
C306 C 0.03126 0.49719 0.37741 0.0
C307 C 0.03808 0.49533 0.34489 0.0
C308 C 0.06169 0.54845 0.29076 0.0
C309 C 0.0574 0.51159 0.19405 0.0
C310 C 0.06223 0.516 0.23271 0.0
C311 C 0.06213 0.52337 0.34062 0.0
C312 C 0.06544 0.52209 0.30457 0.0
H313 H 0.01607 0.45105 0.11243 0.0
H314 H 0.02554 0.45812 0.17526 0.0
H315 H 0.05533 0.56561 0.24517 0.0
H316 H 0.08787 0.57791 0.42528 0.0
H317 H 0.09953 0.57485 0.3679 0.0
C318 C 0.52058 1.01222 0.63066 0.0
C319 C 0.54709 0.99896 0.61874 0.0
C320 C 0.5198 1.01645 0.66566 0.0
C321 C 0.57845 0.02628 0.75651 0.0
H322 H 0.48102 1.00257 0.7726 0.0
C323 C 0.56258 0.03381 0.89769 0.0
C324 C 0.53229 0.04417 0.90478 0.0
C325 C 0.56634 0.02788 0.86335 0.0
C326 C 0.50853 1.00976 0.76875 0.0
H327 H 0.59388 0.98006 0.6347 0.0
H328 H 0.59242 0.98734 0.69581 0.0
H329 H 0.48338 0.99276 0.71189 0.0
H330 H 0.48343 0.05807 0.88179 0.0
H331 H 0.49048 0.0487 0.82294 0.0
H332 H 0.60354 0.04378 0.81357 0.0
C333 C 0.57226 0.99452 0.67799 0.0
C334 C 0.50984 1.00403 0.73381 0.0
C335 C 0.57282 0.99 0.64282 0.0
C336 C 0.50681 0.04964 0.87724 0.0
C337 C 0.51069 0.04399 0.84325 0.0
C338 C 0.57714 0.03223 0.79162 0.0
C339 C 0.54569 1.00776 0.68984 0.0
C340 C 0.54475 1.01255 0.72719 0.0
C341 C 0.53998 0.03235 0.83549 0.0
C342 C 0.54208 0.02447 0.79824 0.0
H343 H 0.5002 0.01915 0.61281 0.0
H344 H 0.49918 0.02701 0.67394 0.0
H345 H 0.60583 0.03334 0.75238 0.0
H346 H 0.58264 0.0293 0.91831 0.0
H347 H 0.58922 0.01886 0.85839 0.0
C348 C 0.0535 0.59472 0.64364 0.0
C349 C 0.06642 0.57814 0.61716 0.0
C350 C 0.06047 0.58944 0.6768 0.0
C351 C 0.07554 0.52407 0.71665 0.0
H352 H 0.08756 0.59249 0.804 0.0
C353 C 0.08471 0.54151 0.87455 0.0
C354 C 0.05496 0.51251 0.86981 0.0
C355 C 0.09226 0.54959 0.84513 0.0
C356 C 0.08471 0.57305 0.78006 0.0
H357 H 0.09849 0.54427 0.60529 0.0
H358 H 0.11108 0.53516 0.66367 0.0
H359 H 0.09348 0.60873 0.75184 0.0
H360 H 1.01031 0.46892 0.83025 0.0
H361 H 0.02307 0.48317 0.77881 0.0
H362 H 0.06664 0.48837 0.74492 0.0
C363 C 0.09526 0.55211 0.65857 0.0
C364 C 0.08775 0.58237 0.74997 0.0
C365 C 0.08852 0.55767 0.62532 0.0
C366 C 0.03359 0.49129 0.83485 0.0
C367 C 0.04102 0.49946 0.80535 0.0
C368 C 0.07251 0.51473 0.7468 0.0
C369 C 0.08037 0.56722 0.68434 0.0
C370 C 0.08244 0.55794 0.71764 0.0
C371 C 0.07018 0.52896 0.81009 0.0
C372 C 0.07637 0.53902 0.77874 0.0
H373 H 0.03628 0.61055 0.63808 0.0
H374 H 0.04824 0.60128 0.69572 0.0
H375 H 0.07092 0.50451 0.69215 0.0
H376 H 0.10231 0.55802 0.90109 0.0
H377 H 0.11545 0.57211 0.8499 0.0
C378 C 0.18082 0.57907 0.01444 0.0
C379 C 0.16428 0.55427 0.02808 0.0
C380 C 0.21797 0.58378 0.01281 0.0
C381 C 0.30523 0.56081 0.04577 0.0
H382 H 0.32002 0.56388 0.95541 0.0
C383 C 0.41414 0.51014 0.99719 0.0
C384 C 0.44347 0.53411 0.9928 0.0
C385 C 0.38091 0.51697 0.99982 0.0
C386 C 0.31633 0.56338 0.98087 0.0
H387 H 0.1742 0.51644 0.0525 0.0
H388 H 0.23806 0.52444 0.04973 0.0
H389 H 0.26199 0.57095 0.9672 0.0
H390 H 0.45931 0.583 0.98476 0.0
H391 H 0.40032 0.59436 0.98834 0.0
H392 H 0.35844 0.55133 0.05856 0.0
C393 C 0.22304 0.54056 0.04046 0.0
C394 C 0.28329 0.56766 0.98779 0.0
C395 C 0.18619 0.53579 0.0419 0.0
C396 C 0.43733 0.56394 0.98813 0.0
C397 C 0.40366 0.57055 0.99027 0.0
C398 C 0.33775 0.55604 0.03863 0.0
C399 C 0.23922 0.564 0.02513 0.0
C400 C 0.27684 0.56544 0.01997 0.0
C401 C 0.37587 0.54764 0.99751 0.0
C402 C 0.34317 0.55642 1.00581 0.0
H403 H 0.1644 0.59342 1.00325 0.0
H404 H 0.22967 0.60227 1.00113 0.0
H405 H 0.30179 0.55982 0.07119 0.0
H406 H 0.41766 0.48685 1.00071 0.0
H407 H 0.35962 0.49874 1.00497 0.0
C408 C 0.52815 0.43396 0.08716 0.0
C409 C 0.55065 0.45248 0.07122 0.0
C410 C 0.52312 0.39955 0.08134 0.0
C411 C 0.564 0.33207 0.05124 0.0
H412 H 0.46416 0.2727 0.03824 0.0
C413 C 0.52712 0.18595 0.01057 0.0
C414 C 0.5039 0.16885 0.02701 0.0
C415 C 0.5331 0.22039 0.01514 0.0
C416 C 0.49236 0.28891 0.04221 0.0
H417 H 0.58616 0.44895 0.03712 0.0
H418 H 0.57698 0.38887 0.02657 0.0
H419 H 0.47436 0.33265 0.04796 0.0
H420 H 0.46947 0.17531 0.06184 0.0
H421 H 0.47983 0.2349 0.06972 0.0
H422 H 0.58196 0.28822 0.04554 0.0
C423 C 0.56338 0.4011 0.04382 0.0
C424 C 0.49823 0.32341 0.04781 0.0
C425 C 0.56836 0.43557 0.04959 0.0
C426 C 0.48692 0.18724 0.04816 0.0
C427 C 0.4929 0.2216 0.05271 0.0
C428 C 0.55812 0.29751 0.04564 0.0
C429 C 0.54044 0.38253 0.0594 0.0
C430 C 0.53419 0.34556 0.05264 0.0
C431 C 0.51603 0.23871 0.03626 0.0
C432 C 0.52225 0.27545 0.04126 0.0
H433 H 0.51368 0.44578 0.10367 0.0
H434 H 0.5057 0.38631 0.09423 0.0
H435 H 0.59218 0.34835 0.05525 0.0
H436 H 0.54032 0.17266 0.99375 0.0
H437 H 0.55069 0.23253 1.00165 0.0
C438 C 0.95081 0.58641 0.0169 0.0
C439 C 0.94793 0.56231 0.98532 0.0
C440 C 0.91844 0.59402 0.02191 0.0
C441 C 0.81757 0.58394 0.97501 0.0
H442 H 0.80398 0.58254 0.06604 0.0
C443 C 0.67106 0.56579 0.99953 0.0
C444 C 0.67106 0.58301 0.0336 0.0
C445 C 0.70551 0.56682 0.99262 0.0
C446 C 0.80742 0.58356 0.04063 0.0
H447 H 0.90942 0.52902 0.93334 0.0
H448 H 0.85346 0.54229 0.94199 0.0
H449 H 0.86365 0.58047 0.05623 0.0
H450 H 0.70725 0.61615 0.08654 0.0
H451 H 0.76664 0.61852 0.07435 0.0
H452 H 0.761 0.58659 0.9593 0.0
C453 C 0.88047 0.55538 0.96295 0.0
C454 C 0.8418 0.58244 0.03505 0.0
C455 C 0.91262 0.54762 0.95808 0.0
C456 C 0.70611 0.60216 0.0601 0.0
C457 C 0.74032 0.60339 0.05317 0.0
C458 C 0.78313 0.58517 0.98064 0.0
C459 C 0.88267 0.57793 0.9953 0.0
C460 C 0.84727 0.58231 1.00208 0.0
C461 C 0.74062 0.58525 0.01959 0.0
C462 C 0.77749 0.58477 0.01347 0.0
H463 H 0.97756 0.5981 0.03843 0.0
H464 H 0.92124 0.61188 0.04699 0.0
H465 H 0.82092 0.58418 0.94938 0.0
H466 H 0.64454 0.55078 0.97855 0.0
H467 H 0.70459 0.55234 0.96648 0.0
C468 C 0.51971 0.68739 0.04127 0.0
C469 C 0.55062 0.69143 0.07072 0.0
C470 C 0.51052 0.71538 0.03496 0.0
C471 C 0.52503 0.80598 0.07839 0.0
H472 H 0.49691 0.80782 0.98091 0.0
C473 C 0.51785 0.9275 0.04413 0.0
C474 C 0.48926 0.9248 0.01342 0.0
C475 C 0.5231 0.89866 0.0517 0.0
C476 C 0.50415 0.80757 0.00824 0.0
H477 H 0.59584 0.72843 0.11676 0.0
H478 H 0.57989 0.77726 0.10575 0.0
H479 H 0.51056 0.75865 0.99311 0.0
H480 H 0.44329 0.88932 0.96699 0.0
H481 H 0.45203 0.83893 0.98046 0.0
H482 H 0.51886 0.85503 0.09354 0.0
C483 C 0.56246 0.75231 0.08771 0.0
C484 C 0.51204 0.77931 0.01527 0.0
C485 C 0.57166 0.72427 0.09404 0.0
C486 C 0.46547 0.8924 0.99091 0.0
C487 C 0.47077 0.86348 0.99846 0.0
C488 C 0.51712 0.83424 0.07136 0.0
C489 C 0.53192 0.74827 0.05792 0.0
C490 C 0.52277 0.77818 0.05046 0.0
C491 C 0.49989 0.86622 0.02881 0.0
C492 C 0.50677 0.83551 0.0362 0.0
H493 H 0.5023 0.66251 0.02314 0.0
H494 H 0.48636 0.71118 0.01216 0.0
H495 H 0.53257 0.80581 0.10575 0.0
H496 H 0.53635 0.95198 0.06242 0.0
H497 H 0.546 0.90186 0.07514 0.0
loop_
_geom_bond_atom_site_label_1
_geom_bond_atom_site_label_2
_geom_bond_distance
_geom_bond_site_symmetry_2
_ccdc_geom_bond_type
Cu0 N1 1.999 . S
Cu0 O6 1.974 1_455 S
Cu0 N11 1.985 1_545 S
Cu0 O20 1.959 . S
N1 Cu0 1.999 . S
N1 C3 1.263 . S
N1 C5 1.389 . S
N2 C3 1.358 . S
N2 C4 1.400 . S
C3 N1 1.263 . S
C3 N2 1.358 . S
C3 H9 0.930 . S
C4 N2 1.400 . S
C4 C5 1.351 . S
C4 H21 0.930 . S
C5 N1 1.389 . S
C5 C4 1.351 . S
C5 H10 0.930 . S
O6 Cu0 1.974 1_655 S
O6 C16 1.282 . S
C7 O8 1.261 . S
C7 O20 1.251 . S
O8 C7 1.261 . S
H9 C3 0.930 . S
H10 C5 0.930 . S
N11 Cu0 1.985 1_565 S
N11 C13 1.335 . S
N11 C14 1.390 1_455 S
N12 C13 1.345 . S
N12 C15 1.336 1_455 S
C13 N11 1.335 . S
C13 N12 1.345 . S
C13 H18 0.930 . S
C14 N11 1.390 1_655 S
C14 C15 1.346 . S
C14 H19 0.930 . S
C15 N12 1.336 1_655 S
C15 C14 1.346 . S
C15 H22 0.929 . S
C16 O6 1.282 . S
C16 O17 1.216 . S
O17 C16 1.216 . S
H18 C13 0.930 . S
H19 C14 0.930 . S
O20 Cu0 1.959 . S
O20 C7 1.251 . S
H21 C4 0.930 . S
H22 C15 0.929 . S
Cu23 N24 1.999 1_545 S
Cu23 O29 1.974 . S
Cu23 N34 1.985 . S
Cu23 O43 1.959 1_554 S
N24 Cu23 1.999 1_565 S
N24 C26 1.263 . S
N24 C28 1.389 1_554 S
N25 C26 1.358 . S
N25 C27 1.400 1_554 S
C26 N24 1.263 . S
C26 N25 1.358 . S
C26 H32 0.930 . S
C27 N25 1.400 1_556 S
C27 C28 1.351 . S
C27 H44 0.930 . S
C28 N24 1.389 1_556 S
C28 C27 1.351 . S
C28 H33 0.930 . S
O29 Cu23 1.974 . S
O29 C39 1.282 . S
C30 O31 1.261 . S
C30 O43 1.251 . S
O31 C30 1.261 . S
H32 C26 0.930 . S
H33 C28 0.930 . S
N34 Cu23 1.985 . S
N34 C36 1.335 . S
N34 C37 1.390 . S
N35 C36 1.345 . S
N35 C38 1.336 . S
C36 N34 1.335 . S
C36 N35 1.345 . S
C36 H41 0.930 1_554 S
C37 N34 1.390 . S
C37 C38 1.346 . S
C37 H42 0.930 . S
C38 N35 1.336 . S
C38 C37 1.346 . S
C38 H45 0.929 . S
C39 O29 1.282 . S
C39 O40 1.216 . S
O40 C39 1.216 . S
H41 C36 0.930 1_556 S
H42 C37 0.930 . S
O43 Cu23 1.959 1_556 S
O43 C30 1.251 . S
H44 C27 0.930 . S
H45 C38 0.929 . S
Cu46 N47 1.999 1_554 S
Cu46 O52 1.974 . S
Cu46 N57 1.985 . S
Cu46 O66 1.959 1_455 S
N47 Cu46 1.999 1_556 S
N47 C49 1.263 . S
N47 C51 1.389 . S
N48 C49 1.358 . S
N48 C50 1.400 . S
C49 N47 1.263 . S
C49 N48 1.358 . S
C49 H55 0.930 . S
C50 N48 1.400 . S
C50 C51 1.351 . S
C50 H67 0.930 1_455 S
C51 N47 1.389 . S
C51 C50 1.351 . S
C51 H56 0.930 1_455 S
O52 Cu46 1.974 . S
O52 C62 1.282 . S
C53 O54 1.261 1_554 S
C53 O66 1.251 . S
O54 C53 1.261 1_556 S
H55 C49 0.930 . S
H56 C51 0.930 1_655 S
N57 Cu46 1.985 . S
N57 C59 1.335 . S
N57 C60 1.390 . S
N58 C59 1.345 . S
N58 C61 1.336 . S
C59 N57 1.335 . S
C59 N58 1.345 . S
C59 H64 0.930 . S
C60 N57 1.390 . S
C60 C61 1.346 . S
C60 H65 0.930 . S
C61 N58 1.336 . S
C61 C60 1.346 . S
C61 H68 0.929 . S
C62 O52 1.282 . S
C62 O63 1.216 1_554 S
O63 C62 1.216 1_556 S
H64 C59 0.930 . S
H65 C60 0.930 . S
O66 Cu46 1.959 1_655 S
O66 C53 1.251 . S
H67 C50 0.930 1_655 S
H68 C61 0.929 . S
Cu69 N70 1.999 . S
Cu69 O75 1.974 . S
Cu69 N80 1.992 . S
Cu69 O89 1.959 . S
N70 Cu69 1.999 . S
N70 C72 1.258 1_556 S
N70 C74 1.389 . S
N71 C72 1.349 1_556 S
N71 C73 1.400 . S
C72 N70 1.258 1_554 S
C72 N71 1.349 1_554 S
C72 H78 0.943 . S
C73 N71 1.400 . S
C73 C74 1.351 . S
C73 H90 0.930 . S
C74 N70 1.389 . S
C74 C73 1.351 . S
C74 H79 0.930 . S
O75 Cu69 1.974 . S
O75 C85 1.282 1_556 S
C76 O77 1.261 . S
C76 O89 1.251 1_554 S
O77 C76 1.261 . S
H78 C72 0.943 . S
H79 C74 0.930 . S
N80 Cu69 1.992 . S
N80 C82 1.339 . S
N80 C83 1.379 1_556 S
N81 C82 1.338 1_554 S
N81 C84 1.343 . S
C82 N80 1.339 . S
C82 N81 1.338 1_556 S
C82 H87 0.930 . S
C83 N80 1.379 1_554 S
C83 C84 1.346 . S
C83 H88 0.930 . S
C84 N81 1.343 . S
C84 C83 1.346 . S
C84 H91 0.929 . S
C85 O75 1.282 1_554 S
C85 O86 1.216 . S
O86 C85 1.216 . S
H87 C82 0.930 . S
H88 C83 0.930 . S
O89 Cu69 1.959 . S
O89 C76 1.251 1_556 S
H90 C73 0.930 . S
H91 C84 0.929 . S
Cu92 N93 1.999 . S
Cu92 O98 1.974 . S
Cu92 N103 1.985 . S
Cu92 O112 1.959 . S
N93 Cu92 1.999 . S
N93 C95 1.263 . S
N93 C97 1.389 . S
N94 C95 1.358 . S
N94 C96 1.400 . S
C95 N93 1.263 . S
C95 N94 1.358 . S
C95 H101 0.930 . S
C96 N94 1.400 . S
C96 C97 1.351 . S
C96 H113 0.930 . S
C97 N93 1.389 . S
C97 C96 1.351 . S
C97 H102 0.930 . S
O98 Cu92 1.974 . S
O98 C108 1.282 . S
C99 O100 1.261 1_455 S
C99 O112 1.251 . S
O100 C99 1.261 1_655 S
H101 C95 0.930 . S
H102 C97 0.930 . S
N103 Cu92 1.985 . S
N103 C105 1.335 . S
N103 C106 1.390 . S
N104 C105 1.345 . S
N104 C107 1.336 . S
C105 N103 1.335 . S
C105 N104 1.345 . S
C105 H110 0.930 . S
C106 N103 1.390 . S
C106 C107 1.346 . S
C106 H111 0.930 . S
C107 N104 1.336 . S
C107 C106 1.346 . S
C107 H114 0.929 . S
C108 O98 1.282 . S
C108 O109 1.216 1_455 S
O109 C108 1.216 1_655 S
H110 C105 0.930 . S
H111 C106 0.930 . S
O112 Cu92 1.959 . S
O112 C99 1.251 . S
H113 C96 0.930 . S
H114 C107 0.929 . S
Cu115 N116 1.999 . S
Cu115 O121 1.974 . S
Cu115 N126 1.985 . S
Cu115 O135 1.959 . S
N116 Cu115 1.999 . S
N116 C118 1.263 . S
N116 C120 1.389 . S
N117 C118 1.358 . S
N117 C119 1.400 . S
C118 N116 1.263 . S
C118 N117 1.358 . S
C118 H124 0.930 . S
C119 N117 1.400 . S
C119 C120 1.351 . S
C119 H136 0.930 . S
C120 N116 1.389 . S
C120 C119 1.351 . S
C120 H125 0.930 . S
O121 Cu115 1.974 . S
O121 C131 1.282 . S
C122 O123 1.261 1_545 S
C122 O135 1.251 . S
O123 C122 1.261 1_565 S
H124 C118 0.930 . S
H125 C120 0.930 . S
N126 Cu115 1.985 . S
N126 C128 1.335 . S
N126 C129 1.390 . S
N127 C128 1.345 . S
N127 C130 1.336 . S
C128 N126 1.335 . S
C128 N127 1.345 . S
C128 H133 0.930 . S
C129 N126 1.390 . S
C129 C130 1.346 . S
C129 H134 0.930 . S
C130 N127 1.336 . S
C130 C129 1.346 . S
C130 H137 0.929 . S
C131 O121 1.282 . S
C131 O132 1.216 1_545 S
O132 C131 1.216 1_565 S
H133 C128 0.930 . S
H134 C129 0.930 . S
O135 Cu115 1.959 . S
O135 C122 1.251 . S
H136 C119 0.930 . S
H137 C130 0.929 . S
C138 C139 1.349 . S
C138 C140 1.327 . S
C138 H163 0.950 . S
C139 C138 1.349 . S
C139 C155 1.353 . S
C140 C138 1.327 . S
C140 C159 1.429 . S
C140 H164 0.950 . S
C141 C158 1.574 . S
C141 C160 1.368 . S
C141 H165 0.949 1_455 S
H142 C146 0.949 . S
C143 C144 1.349 . S
C143 C145 1.327 . S
C143 H166 0.950 1_455 S
C144 C143 1.349 . S
C144 C156 1.349 . S
C145 C143 1.327 . S
C145 C161 1.429 . S
C145 H167 0.950 1_455 S
C146 H142 0.949 . S
C146 C154 1.574 . S
C146 C162 1.368 . S
H147 C155 0.947 1_655 S
H148 C153 0.950 1_655 S
H149 C154 0.949 . S
H150 C156 0.950 . S
H151 C157 0.950 . S
H152 C158 0.949 1_655 S
C153 H148 0.950 1_455 S
C153 C155 1.326 . S
C153 C159 1.429 . S
C154 C146 1.574 . S
C154 H149 0.949 . S
C154 C160 1.368 . S
C155 C139 1.353 . S
C155 H147 0.947 1_455 S
C155 C153 1.326 . S
C156 C144 1.349 . S
C156 H150 0.950 . S
C156 C157 1.327 . S
C157 H151 0.950 . S
C157 C156 1.327 . S
C157 C161 1.429 . S
C158 C141 1.574 . S
C158 H152 0.949 1_455 S
C158 C162 1.368 . S
C159 C140 1.429 . S
C159 C153 1.429 . S
C159 C160 1.523 . S
C160 C141 1.368 . S
C160 C154 1.368 . S
C160 C159 1.523 . S
C161 C145 1.429 . S
C161 C157 1.429 . S
C161 C162 1.523 . S
C162 C146 1.368 . S
C162 C158 1.368 . S
C162 C161 1.523 . S
H163 C138 0.950 . S
H164 C140 0.950 . S
H165 C141 0.949 1_655 S
H166 C143 0.950 1_655 S
H167 C145 0.950 1_655 S
C168 C169 1.349 . S
C168 C170 1.327 . S
C168 H193 0.950 . S
C169 C168 1.349 . S
C169 C185 1.349 . S
C170 C168 1.327 . S
C170 C189 1.429 . S
C170 H194 0.950 . S
C171 C188 1.574 . S
C171 C190 1.368 . S
C171 H195 0.949 . S
H172 C176 0.949 . S
C173 C174 1.349 . S
C173 C175 1.327 . S
C173 H196 0.950 . S
C174 C173 1.349 . S
C174 C186 1.349 . S
C175 C173 1.327 . S
C175 C191 1.429 . S
C175 H197 0.950 . S
C176 H172 0.949 . S
C176 C184 1.574 . S
C176 C192 1.368 . S
H177 C185 0.950 . S
H178 C183 0.950 . S
H179 C184 0.949 . S
H180 C186 0.950 . S
H181 C187 0.950 . S
H182 C188 0.949 . S
C183 H178 0.950 . S
C183 C185 1.327 . S
C183 C189 1.429 . S
C184 C176 1.574 . S
C184 H179 0.949 . S
C184 C190 1.368 . S
C185 C169 1.349 . S
C185 H177 0.950 . S
C185 C183 1.327 . S
C186 C174 1.349 . S
C186 H180 0.950 . S
C186 C187 1.327 . S
C187 H181 0.950 . S
C187 C186 1.327 . S
C187 C191 1.429 . S
C188 C171 1.574 . S
C188 H182 0.949 . S
C188 C192 1.368 . S
C189 C170 1.429 . S
C189 C183 1.429 . S
C189 C190 1.523 . S
C190 C171 1.368 . S
C190 C184 1.368 . S
C190 C189 1.523 . S
C191 C175 1.429 . S
C191 C187 1.429 . S
C191 C192 1.523 . S
C192 C176 1.368 . S
C192 C188 1.368 . S
C192 C191 1.523 . S
H193 C168 0.950 . S
H194 C170 0.950 . S
H195 C171 0.949 . S
H196 C173 0.950 . S
H197 C175 0.950 . S
C198 C199 1.349 . S
C198 C200 1.327 . S
C198 H223 0.950 . S
C199 C198 1.349 . S
C199 C215 1.349 . S
C200 C198 1.327 . S
C200 C219 1.429 . S
C200 H224 0.950 . S
C201 C218 1.574 . S
C201 C220 1.368 . S
C201 H225 0.949 . S
H202 C206 0.949 . S
C203 C204 1.349 . S
C203 C205 1.327 . S
C203 H226 0.950 1_455 S
C204 C203 1.349 . S
C204 C216 1.349 . S
C205 C203 1.327 . S
C205 C221 1.429 . S
C205 H227 0.950 1_455 S
C206 H202 0.949 . S
C206 C214 1.574 . S
C206 C222 1.368 . S
H207 C215 0.950 . S
H208 C213 0.950 . S
H209 C214 0.949 . S
H210 C216 0.950 . S
H211 C217 0.950 . S
H212 C218 0.949 1_655 S
C213 H208 0.950 . S
C213 C215 1.327 . S
C213 C219 1.429 . S
C214 C206 1.574 . S
C214 H209 0.949 . S
C214 C220 1.368 . S
C215 C199 1.349 . S
C215 H207 0.950 . S
C215 C213 1.327 . S
C216 C204 1.349 . S
C216 H210 0.950 . S
C216 C217 1.327 . S
C217 H211 0.950 . S
C217 C216 1.327 . S
C217 C221 1.429 . S
C218 C201 1.574 . S
C218 H212 0.949 1_455 S
C218 C222 1.368 . S
C219 C200 1.429 . S
C219 C213 1.429 . S
C219 C220 1.523 . S
C220 C201 1.368 . S
C220 C214 1.368 . S
C220 C219 1.523 . S
C221 C205 1.429 . S
C221 C217 1.429 . S
C221 C222 1.523 . S
C222 C206 1.368 . S
C222 C218 1.368 . S
C222 C221 1.523 . S
H223 C198 0.950 . S
H224 C200 0.950 . S
H225 C201 0.949 . S
H226 C203 0.950 1_655 S
H227 C205 0.950 1_655 S
C228 C229 1.349 . S
C228 C230 1.327 . S
C228 H253 0.950 . S
C229 C228 1.349 . S
C229 C245 1.349 . S
C230 C228 1.327 . S
C230 C249 1.429 . S
C230 H254 0.950 . S
C231 C248 1.574 . S
C231 C250 1.368 . S
C231 H255 0.949 . S
H232 C236 0.949 . S
C233 C234 1.349 . S
C233 C235 1.327 . S
C233 H256 0.950 . S
C234 C233 1.349 . S
C234 C246 1.349 . S
C235 C233 1.327 . S
C235 C251 1.429 . S
C235 H257 0.950 . S
C236 H232 0.949 . S
C236 C244 1.574 . S
C236 C252 1.368 . S
H237 C245 0.950 . S
H238 C243 0.950 . S
H239 C244 0.949 . S
H240 C246 0.950 . S
H241 C247 0.950 . S
H242 C248 0.949 . S
C243 H238 0.950 . S
C243 C245 1.327 . S
C243 C249 1.429 . S
C244 C236 1.574 . S
C244 H239 0.949 . S
C244 C250 1.368 . S
C245 C229 1.349 . S
C245 H237 0.950 . S
C245 C243 1.327 . S
C246 C234 1.349 . S
C246 H240 0.950 . S
C246 C247 1.327 . S
C247 H241 0.950 . S
C247 C246 1.327 . S
C247 C251 1.429 . S
C248 C231 1.574 . S
C248 H242 0.949 . S
C248 C252 1.368 . S
C249 C230 1.429 . S
C249 C243 1.429 . S
C249 C250 1.523 . S
C250 C231 1.368 . S
C250 C244 1.368 . S
C250 C249 1.523 . S
C251 C235 1.429 . S
C251 C247 1.429 . S
C251 C252 1.523 . S
C252 C236 1.368 . S
C252 C248 1.368 . S
C252 C251 1.523 . S
H253 C228 0.950 . S
H254 C230 0.950 . S
H255 C231 0.949 . S
H256 C233 0.950 . S
H257 C235 0.950 . S
C258 C259 1.349 . S
C258 C260 1.327 . S
C258 H283 0.950 1_545 S
C259 C258 1.349 . S
C259 C275 1.349 . S
C260 C258 1.327 . S
C260 C279 1.429 . S
C260 H284 0.950 1_545 S
C261 C278 1.574 . S
C261 C280 1.368 . S
C261 H285 0.949 . S
H262 C266 0.949 1_565 S
C263 C264 1.349 . S
C263 C265 1.327 . S
C263 H286 0.950 . S
C264 C263 1.349 . S
C264 C276 1.349 . S
C265 C263 1.327 . S
C265 C281 1.429 . S
C265 H287 0.950 . S
C266 H262 0.949 1_545 S
C266 C274 1.574 . S
C266 C282 1.368 . S
H267 C275 0.950 . S
H268 C273 0.950 . S
H269 C274 0.949 1_565 S
H270 C276 0.950 1_565 S
H271 C277 0.950 1_565 S
H272 C278 0.949 . S
C273 H268 0.950 . S
C273 C275 1.327 . S
C273 C279 1.429 . S
C274 C266 1.574 . S
C274 H269 0.949 1_545 S
C274 C280 1.368 . S
C275 C259 1.349 . S
C275 H267 0.950 . S
C275 C273 1.327 . S
C276 C264 1.349 . S
C276 H270 0.950 1_545 S
C276 C277 1.327 . S
C277 H271 0.950 1_545 S
C277 C276 1.327 . S
C277 C281 1.429 . S
C278 C261 1.574 . S
C278 H272 0.949 . S
C278 C282 1.368 . S
C279 C260 1.429 . S
C279 C273 1.429 . S
C279 C280 1.523 . S
C280 C261 1.368 . S
C280 C274 1.368 . S
C280 C279 1.523 . S
C281 C265 1.429 . S
C281 C277 1.429 . S
C281 C282 1.523 . S
C282 C266 1.368 . S
C282 C278 1.368 . S
C282 C281 1.523 . S
H283 C258 0.950 1_565 S
H284 C260 0.950 1_565 S
H285 C261 0.949 . S
H286 C263 0.950 . S
H287 C265 0.950 . S
C288 C289 1.349 . S
C288 C290 1.327 . S
C288 H313 0.950 . S
C289 C288 1.349 . S
C289 C305 1.349 . S
C290 C288 1.327 . S
C290 C309 1.429 . S
C290 H314 0.950 . S
C291 C308 1.574 . S
C291 C310 1.368 . S
C291 H315 0.941 1_455 S
H292 C296 0.949 . S
C293 C294 1.349 . S
C293 C295 1.327 . S
C293 H316 0.950 1_455 S
C294 C293 1.349 . S
C294 C306 1.349 . S
C295 C293 1.327 . S
C295 C311 1.429 . S
C295 H317 0.950 1_455 S
C296 H292 0.949 . S
C296 C304 1.574 . S
C296 C312 1.368 . S
H297 C305 0.950 . S
H298 C303 0.950 . S
H299 C304 0.949 . S
H300 C306 0.950 . S
H301 C307 0.950 . S
H302 C308 0.949 1_655 S
C303 H298 0.950 . S
C303 C305 1.327 . S
C303 C309 1.429 . S
C304 C296 1.574 . S
C304 H299 0.949 . S
C304 C310 1.368 . S
C305 C289 1.349 . S
C305 H297 0.950 . S
C305 C303 1.327 . S
C306 C294 1.349 . S
C306 H300 0.950 . S
C306 C307 1.327 . S
C307 H301 0.950 . S
C307 C306 1.327 . S
C307 C311 1.429 . S
C308 C291 1.574 . S
C308 H302 0.949 1_455 S
C308 C312 1.368 . S
C309 C290 1.429 . S
C309 C303 1.429 . S
C309 C310 1.523 . S
C310 C291 1.368 . S
C310 C304 1.368 . S
C310 C309 1.523 . S
C311 C295 1.429 . S
C311 C307 1.429 . S
C311 C312 1.523 . S
C312 C296 1.368 . S
C312 C308 1.368 . S
C312 C311 1.523 . S
H313 C288 0.950 . S
H314 C290 0.950 . S
H315 C291 0.941 1_655 S
H316 C293 0.950 1_655 S
H317 C295 0.950 1_655 S
C318 C319 1.349 . S
C318 C320 1.327 . S
C318 H343 0.950 . S
C319 C318 1.349 . S
C319 C335 1.349 . S
C320 C318 1.327 . S
C320 C339 1.429 . S
C320 H344 0.950 . S
C321 C338 1.574 . S
C321 C340 1.368 . S
C321 H345 0.949 . S
H322 C326 0.949 . S
C323 C324 1.349 . S
C323 C325 1.327 . S
C323 H346 0.950 1_545 S
C324 C323 1.349 . S
C324 C336 1.349 . S
C325 C323 1.327 . S
C325 C341 1.429 . S
C325 H347 0.950 1_545 S
C326 H322 0.949 . S
C326 C334 1.574 . S
C326 C342 1.368 . S
H327 C335 0.950 . S
H328 C333 0.950 . S
H329 C334 0.949 . S
H330 C336 0.950 . S
H331 C337 0.950 . S
H332 C338 0.933 1_565 S
C333 H328 0.950 . S
C333 C335 1.327 . S
C333 C339 1.429 . S
C334 C326 1.574 . S
C334 H329 0.949 . S
C334 C340 1.368 . S
C335 C319 1.349 . S
C335 H327 0.950 . S
C335 C333 1.327 . S
C336 C324 1.349 . S
C336 H330 0.950 . S
C336 C337 1.327 . S
C337 H331 0.950 . S
C337 C336 1.327 . S
C337 C341 1.429 . S
C338 C321 1.574 . S
C338 H332 0.933 1_545 S
C338 C342 1.368 . S
C339 C320 1.429 . S
C339 C333 1.429 . S
C339 C340 1.523 . S
C340 C321 1.368 . S
C340 C334 1.368 . S
C340 C339 1.523 . S
C341 C325 1.429 . S
C341 C337 1.429 . S
C341 C342 1.523 . S
C342 C326 1.368 . S
C342 C338 1.368 . S
C342 C341 1.523 . S
H343 C318 0.950 . S
H344 C320 0.950 . S
H345 C321 0.949 . S
H346 C323 0.950 1_565 S
H347 C325 0.950 1_565 S
C348 C349 1.349 1_655 S
C348 C350 1.327 . S
C348 H373 0.950 . S
C349 C348 1.349 1_455 S
C349 C365 1.349 . S
C350 C348 1.327 . S
C350 C369 1.429 1_655 S
C350 H374 0.950 . S
C351 C368 1.574 . S
C351 C370 1.368 . S
C351 H375 0.949 . S
H352 C356 0.949 . S
C353 C354 1.349 . S
C353 C355 1.327 . S
C353 H376 0.950 . S
C354 C353 1.349 . S
C354 C366 1.349 . S
C355 C353 1.327 . S
C355 C371 1.429 . S
C355 H377 0.950 . S
C356 H352 0.949 . S
C356 C364 1.574 . S
C356 C372 1.368 1_655 S
H357 C365 0.950 . S
H358 C363 0.950 . S
H359 C364 0.949 . S
H360 C366 0.950 1_655 S
H361 C367 0.936 1_655 S
H362 C368 0.949 . S
C363 H358 0.950 . S
C363 C365 1.327 . S
C363 C369 1.429 . S
C364 C356 1.574 . S
C364 H359 0.949 . S
C364 C370 1.368 1_655 S
C365 C349 1.349 . S
C365 H357 0.950 . S
C365 C363 1.327 . S
C366 C354 1.349 . S
C366 H360 0.950 1_455 S
C366 C367 1.323 . S
C367 H361 0.936 1_455 S
C367 C366 1.323 . S
C367 C371 1.446 . S
C368 C351 1.574 . S
C368 H362 0.949 . S
C368 C372 1.368 . S
C369 C350 1.429 1_455 S
C369 C363 1.429 . S
C369 C370 1.523 . S
C370 C351 1.368 . S
C370 C364 1.368 1_455 S
C370 C369 1.523 . S
C371 C355 1.429 . S
C371 C367 1.446 . S
C371 C372 1.523 . S
C372 C356 1.368 1_455 S
C372 C368 1.368 . S
C372 C371 1.523 . S
H373 C348 0.950 . S
H374 C350 0.950 . S
H375 C351 0.949 . S
H376 C353 0.950 . S
H377 C355 0.950 . S
C378 C379 1.349 . S
C378 C380 1.327 . S
C378 H403 0.950 . S
C379 C378 1.349 . S
C379 C395 1.349 . S
C380 C378 1.327 . S
C380 C399 1.429 . S
C380 H404 0.950 . S
C381 C398 1.574 . S
C381 C400 1.368 . S
C381 H405 0.949 . S
H382 C386 0.949 . S
C383 C384 1.349 . S
C383 C385 1.327 . S
C383 H406 0.950 . S
C384 C383 1.349 . S
C384 C396 1.349 . S
C385 C383 1.327 . S
C385 C401 1.429 . S
C385 H407 0.950 . S
C386 H382 0.949 . S
C386 C394 1.574 . S
C386 C402 1.368 . S
H387 C395 0.950 . S
H388 C393 0.950 . S
H389 C394 0.949 . S
H390 C396 0.950 . S
H391 C397 0.950 . S
H392 C398 0.949 . S
C393 H388 0.950 . S
C393 C395 1.327 . S
C393 C399 1.429 . S
C394 C386 1.574 . S
C394 H389 0.949 . S
C394 C400 1.368 . S
C395 C379 1.349 . S
C395 H387 0.950 . S
C395 C393 1.327 . S
C396 C384 1.349 . S
C396 H390 0.950 . S
C396 C397 1.327 . S
C397 H391 0.950 . S
C397 C396 1.327 . S
C397 C401 1.429 . S
C398 C381 1.574 . S
C398 H392 0.949 . S
C398 C402 1.368 . S
C399 C380 1.429 . S
C399 C393 1.429 . S
C399 C400 1.523 . S
C400 C381 1.368 . S
C400 C394 1.368 . S
C400 C399 1.523 . S
C401 C385 1.429 . S
C401 C397 1.429 . S
C401 C402 1.523 . S
C402 C386 1.368 . S
C402 C398 1.368 . S
C402 C401 1.523 . S
H403 C378 0.950 . S
H404 C380 0.950 . S
H405 C381 0.949 . S
H406 C383 0.950 . S
H407 C385 0.950 . S
C408 C409 1.349 1_554 S
C408 C410 1.327 . S
C408 H433 0.950 . S
C409 C408 1.349 1_556 S
C409 C425 1.349 . S
C410 C408 1.327 . S
C410 C429 1.429 . S
C410 H434 0.950 . S
C411 C428 1.574 . S
C411 C430 1.368 1_556 S
C411 H435 0.949 . S
H412 C416 0.949 . S
C413 C414 1.349 1_556 S
C413 C415 1.327 . S
C413 H436 0.950 . S
C414 C413 1.349 1_554 S
C414 C426 1.349 . S
C415 C413 1.327 . S
C415 C431 1.429 1_556 S
C415 H437 0.950 . S
C416 H412 0.949 . S
C416 C424 1.574 . S
C416 C432 1.368 . S
H417 C425 0.950 . S
H418 C423 0.950 . S
H419 C424 0.949 . S
H420 C426 0.950 . S
H421 C427 0.950 . S
H422 C428 0.949 . S
C423 H418 0.950 . S
C423 C425 1.327 . S
C423 C429 1.429 1_556 S
C424 C416 1.574 . S
C424 H419 0.949 . S
C424 C430 1.368 . S
C425 C409 1.349 . S
C425 H417 0.950 . S
C425 C423 1.327 . S
C426 C414 1.349 . S
C426 H420 0.950 . S
C426 C427 1.327 . S
C427 H421 0.950 . S
C427 C426 1.327 . S
C427 C431 1.429 . S
C428 C411 1.574 . S
C428 H422 0.949 . S
C428 C432 1.368 1_556 S
C429 C410 1.429 . S
C429 C423 1.429 1_554 S
C429 C430 1.523 . S
C430 C411 1.368 1_554 S
C430 C424 1.368 . S
C430 C429 1.523 . S
C431 C415 1.429 1_554 S
C431 C427 1.429 . S
C431 C432 1.523 . S
C432 C416 1.368 . S
C432 C428 1.368 1_554 S
C432 C431 1.523 . S
H433 C408 0.950 . S
H434 C410 0.950 . S
H435 C411 0.949 . S
H436 C413 0.950 . S
H437 C415 0.950 . S
C438 C439 1.349 . S
C438 C440 1.327 . S
C438 H463 0.950 . S
C439 C438 1.349 . S
C439 C455 1.349 1_554 S
C440 C438 1.327 . S
C440 C459 1.429 . S
C440 H464 0.950 . S
C441 C458 1.574 . S
C441 C460 1.368 1_556 S
C441 H465 0.949 . S
H442 C446 0.949 . S
C443 C444 1.349 1_556 S
C443 C445 1.327 . S
C443 H466 0.950 . S
C444 C443 1.349 1_554 S
C444 C456 1.349 . S
C445 C443 1.327 . S
C445 C461 1.429 1_556 S
C445 H467 0.950 . S
C446 H442 0.949 . S
C446 C454 1.574 . S
C446 C462 1.368 . S
H447 C455 0.950 . S
H448 C453 0.950 . S
H449 C454 0.949 . S
H450 C456 0.950 . S
H451 C457 0.950 . S
H452 C458 0.949 . S
C453 H448 0.950 . S
C453 C455 1.327 . S
C453 C459 1.429 1_556 S
C454 C446 1.574 . S
C454 H449 0.949 . S
C454 C460 1.368 . S
C455 C439 1.349 1_556 S
C455 H447 0.950 . S
C455 C453 1.327 . S
C456 C444 1.349 . S
C456 H450 0.950 . S
C456 C457 1.327 . S
C457 H451 0.950 . S
C457 C456 1.327 . S
C457 C461 1.429 . S
C458 C441 1.574 . S
C458 H452 0.949 . S
C458 C462 1.368 1_556 S
C459 C440 1.429 . S
C459 C453 1.429 1_554 S
C459 C460 1.523 . S
C460 C441 1.368 1_554 S
C460 C454 1.368 . S
C460 C459 1.523 . S
C461 C445 1.429 1_554 S
C461 C457 1.429 . S
C461 C462 1.523 . S
C462 C446 1.368 . S
C462 C458 1.368 1_554 S
C462 C461 1.523 . S
H463 C438 0.950 . S
H464 C440 0.950 . S
H465 C441 0.949 . S
H466 C443 0.950 . S
H467 C445 0.950 . S
C468 C469 1.349 . S
C468 C470 1.327 . S
C468 H493 0.950 . S
C469 C468 1.349 . S
C469 C485 1.349 1_556 S
C470 C468 1.327 . S
C470 C489 1.429 1_556 S
C470 H494 0.950 . S
C471 C488 1.574 . S
C471 C490 1.368 . S
C471 H495 0.949 . S
H472 C476 0.949 . S
C473 C474 1.349 . S
C473 C475 1.327 . S
C473 H496 0.950 . S
C474 C473 1.349 . S
C474 C486 1.349 1_554 S
C475 C473 1.327 . S
C475 C491 1.429 . S
C475 H497 0.950 . S
C476 H472 0.949 . S
C476 C484 1.574 . S
C476 C492 1.368 1_556 S
H477 C485 0.950 . S
H478 C483 0.950 . S
H479 C484 0.949 . S
H480 C486 0.950 . S
H481 C487 0.950 . S
H482 C488 0.949 . S
C483 H478 0.950 . S
C483 C485 1.327 . S
C483 C489 1.429 . S
C484 C476 1.574 . S
C484 H479 0.949 . S
C484 C490 1.368 1_556 S
C485 C469 1.349 1_554 S
C485 H477 0.950 . S
C485 C483 1.327 . S
C486 C474 1.349 1_556 S
C486 H480 0.950 . S
C486 C487 1.327 . S
C487 H481 0.950 . S
C487 C486 1.327 . S
C487 C491 1.429 1_556 S
C488 C471 1.574 . S
C488 H482 0.949 . S
C488 C492 1.368 . S
C489 C470 1.429 1_554 S
C489 C483 1.429 . S
C489 C490 1.523 . S
C490 C471 1.368 . S
C490 C484 1.368 1_554 S
C490 C489 1.523 . S
C491 C475 1.429 . S
C491 C487 1.429 1_554 S
C491 C492 1.523 . S
C492 C476 1.368 1_554 S
C492 C488 1.368 . S
C492 C491 1.523 . S
H493 C468 0.950 . S
H494 C470 0.950 . S
H495 C471 0.949 . S
H496 C473 0.950 . S
H497 C475 0.950 . S
C139 N2 1.491 . S
C144 N94 1.487 . S
C169 C16 1.451 . S
C174 C131 1.452 . S
C199 N104 1.447 . S
C204 N12 1.444 . S
C229 C122 1.513 . S
C234 C7 1.513 . S
C259 N117 1.456 . S
C264 C39 1.483 . S
C289 N58 1.461 . S
C294 C99 1.495 . S
C319 N127 1.461 . S
C324 C30 1.495 . S
C349 C108 1.483 . S
C354 N48 1.456 . S
C379 C62 1.452 . S
C384 C85 1.451 . S
C409 N81 1.446 1_556 S
C414 N35 1.447 . S
C439 C53 1.513 . S
C444 C76 1.513 . S
C469 N71 1.491 . S
C474 N25 1.487 . S
