# Generated by pormake.
# Topology oof, (8)-cn, num edge types: 1
# Building blocks:
#     Node 0, Type 0, BuildingBlock: VETTIZ_charged_sbu_0, # of connection points: 8
#     Node 1, Type 0, BuildingBlock: VETTIZ_charged_sbu_0, # of connection points: 8
#     Node 2, Type 0, BuildingBlock: VETTIZ_charged_sbu_0, # of connection points: 8
#     Node 3, Type 0, BuildingBlock: VETTIZ_charged_sbu_0, # of connection points: 8
#     Edge 4, Type (0, 0), BuildingBlock: CIFDUS_clean_linker_0, # of connection points: 2
#     Edge 5, Type (0, 0), BuildingBlock: CIFDUS_clean_linker_0, # of connection points: 2
#     Edge 6, Type (0, 0), BuildingBlock: CIFDUS_clean_linker_0, # of connection points: 2
#     Edge 7, Type (0, 0), BuildingBlock: CIFDUS_clean_linker_0, # of connection points: 2
#     Edge 8, Type (0, 0), BuildingBlock: CIFDUS_clean_linker_0, # of connection points: 2
#     Edge 9, Type (0, 0), BuildingBlock: CIFDUS_clean_linker_0, # of connection points: 2
#     Edge 10, Type (0, 0), BuildingBlock: CIFDUS_clean_linker_0, # of connection points: 2
#     Edge 11, Type (0, 0), BuildingBlock: CIFDUS_clean_linker_0, # of connection points: 2
#     Edge 12, Type (0, 0), BuildingBlock: CIFDUS_clean_linker_0, # of connection points: 2
#     Edge 13, Type (0, 0), BuildingBlock: CIFDUS_clean_linker_0, # of connection points: 2
#     Edge 14, Type (0, 0), BuildingBlock: CIFDUS_clean_linker_0, # of connection points: 2
#     Edge 15, Type (0, 0), BuildingBlock: CIFDUS_clean_linker_0, # of connection points: 2
#     Edge 16, Type (0, 0), BuildingBlock: CIFDUS_clean_linker_0, # of connection points: 2
#     Edge 17, Type (0, 0), BuildingBlock: CIFDUS_clean_linker_0, # of connection points: 2
#     Edge 18, Type (0, 0), BuildingBlock: CIFDUS_clean_linker_0, # of connection points: 2
#     Edge 19, Type (0, 0), BuildingBlock: CIFDUS_clean_linker_0, # of connection points: 2
# Relax obj value: 0.130
# Max RMSD: 0.230
# Mean RMSD: 0.230
data_MOF--net-oof--node1-VETTIZ_charged_sbu_0--edge1-CIFDUS_clean_linker_0
_symmetry_space_group_name_H-M    P1
_symmetry_Int_Tables_number       1
_symmetry_cell_setting            triclinic
loop_
_symmetry_equiv_pos_as_xyz
'x, y, z'
_cell_length_a     14.859148
_cell_length_b     47.918087
_cell_length_c     14.604604
_cell_angle_alpha  89.01372
_cell_angle_beta   98.022768
_cell_angle_gamma 89.264798
loop_
_atom_site_label
_atom_site_type_symbol
_atom_site_fract_x
_atom_site_fract_y
_atom_site_fract_z
_atom_type_partial_charge
Fe0 Fe 0.18108 0.14136 0.43502 0.0
O1 O 0.08179 0.14393 0.33162 0.0
Fe2 Fe 0.11305 0.13318 0.20264 0.0
Fe3 Fe 1.00719 0.17841 0.29536 0.0
O4 O 0.08656 0.14206 0.32809 0.0
O5 O 0.03857 0.16764 0.16543 0.0
O6 O 0.03246 0.16937 0.16916 0.0
Fe7 Fe 0.93902 0.16788 0.06131 0.0
C8 C 0.01238 0.16541 0.50169 0.0
O9 O 0.19341 0.18441 0.44544 0.0
O10 O 0.1208 0.20284 0.31322 0.0
O11 O 0.04991 0.1672 0.99421 0.0
O12 O 0.13208 0.12936 0.06428 0.0
O13 O 0.22938 0.15621 0.22035 0.0
O14 O 0.28862 0.14003 0.35921 0.0
O15 O 0.93202 0.21392 0.23955 0.0
O16 O 0.93339 0.21044 0.08228 0.0
C17 C 0.29771 0.15071 0.2807 0.0
O18 O 0.94115 0.12464 0.04482 0.0
O19 O 1.00069 0.10892 0.1826 0.0
O20 O 0.07285 0.14551 0.50503 0.0
O21 O 0.99114 0.18314 0.43363 0.0
C22 C 0.17497 0.20489 0.38829 0.0
C23 C 0.92073 0.22414 0.15541 0.0
C24 C 0.82345 0.15717 0.21811 0.0
O25 O 0.89124 0.15503 0.28156 0.0
O26 O 0.83143 0.16519 0.13611 0.0
C27 C 0.11159 0.14758 0.99721 0.0
O28 O 0.18199 0.09697 0.25959 0.0
O29 O 0.16916 0.09911 0.41435 0.0
C30 C 0.96362 0.10429 0.10117 0.0
C31 C 0.17352 0.08542 0.33926 0.0
Fe32 Fe 0.96927 0.9657 0.7445 0.0
O33 O 0.03296 0.93514 0.69151 0.0
Fe34 Fe 0.11953 0.90942 0.7907 0.0
Fe35 Fe 0.96903 0.90693 0.60878 0.0
O36 O 0.04125 0.93522 0.70193 0.0
O37 O 0.06155 0.88137 0.69964 0.0
O38 O 0.05054 0.88081 0.69232 0.0
Fe39 Fe 0.12449 0.85177 0.6416 0.0
C40 C 0.81357 0.92448 0.70913 0.0
O41 O 0.95538 0.97898 0.60927 0.0
O42 O 0.9023 0.94008 0.52848 0.0
O43 O 0.24685 0.8718 0.66179 0.0
O44 O 0.23219 0.91432 0.72082 0.0
O45 O 0.16124 0.94482 0.8775 0.0
O46 O 0.10073 0.97831 0.77684 0.0
O47 O 0.06248 0.91058 0.51684 0.0
O48 O 0.10055 0.86638 0.50479 0.0
C49 C 0.14016 0.97115 0.85738 0.0
O50 O 0.15323 0.83793 0.77684 0.0
O51 O 0.18846 0.87611 0.86909 0.0
O52 O 0.84172 0.94941 0.71446 0.0
O53 O 0.86433 0.90422 0.69008 0.0
C54 C 0.92478 0.96636 0.5337 0.0
C55 C 0.08339 0.89047 0.46796 0.0
C56 C 0.92531 0.84483 0.56516 0.0
O57 O 0.91141 0.87122 0.54102 0.0
O58 O 0.99888 0.83467 0.61317 0.0
C59 C 0.27856 0.89564 0.68516 0.0
O60 O 0.01612 0.90417 0.86969 0.0
O61 O 0.9754 0.94859 0.87987 0.0
C62 C 0.18486 0.84923 0.8546 0.0
C63 C 0.98904 0.9241 0.91619 0.0
Fe64 Fe 0.55002 0.65659 0.42634 0.0
O65 O 0.47304 0.68532 0.34977 0.0
Fe66 Fe 0.57257 0.60513 0.26305 0.0
Fe67 Fe 0.39105 0.71084 0.40643 0.0
O68 O 0.4978 0.63056 0.32856 0.0
O69 O 0.49301 0.63074 0.31983 0.0
O70 O 0.46328 0.68483 0.34322 0.0
Fe71 Fe 0.41353 0.65874 0.24295 0.0
C72 C 0.43162 0.66707 0.56252 0.0
O73 O 0.59974 0.69027 0.51189 0.0
O74 O 0.51346 0.72836 0.44818 0.0
O75 O 0.51856 0.66929 0.17351 0.0
O76 O 0.55921 0.62707 0.13626 0.0
O77 O 0.69395 0.62358 0.30493 0.0
O78 O 0.65883 0.66491 0.3576 0.0
O79 O 0.36597 0.72905 0.27622 0.0
O80 O 0.33935 0.6927 0.17483 0.0
C81 C 0.71569 0.64795 0.33097 0.0
O82 O 0.37539 0.62595 0.14523 0.0
O83 O 0.44971 0.58888 0.22328 0.0
O84 O 0.44703 0.64946 0.50263 0.0
O85 O 0.41292 0.69219 0.53728 0.0
C86 C 0.58583 0.71721 0.49585 0.0
C87 C 0.33847 0.71914 0.19525 0.0
C88 C 0.2505 0.66505 0.34334 0.0
O89 O 0.27263 0.68938 0.37165 0.0
O90 O 0.30486 0.64864 0.3093 0.0
C91 C 0.5441 0.65283 0.11505 0.0
O92 O 0.58801 0.58518 0.38652 0.0
O93 O 0.61123 0.61979 0.49484 0.0
C94 C 0.3929 0.59906 0.15671 0.0
C95 C 0.59797 0.59365 0.47038 0.0
Fe96 Fe 0.37703 0.45967 0.83319 0.0
O97 O 0.45192 0.43193 0.77724 0.0
Fe98 Fe 0.54131 0.4077 0.87315 0.0
Fe99 Fe 0.40223 0.40307 0.68756 0.0
O100 O 0.45545 0.4318 0.78777 0.0
O101 O 0.49019 0.37805 0.78491 0.0
O102 O 0.4809 0.37749 0.77577 0.0
Fe103 Fe 0.56418 0.35014 0.73079 0.0
C104 C 0.23625 0.41438 0.78209 0.0
O105 O 0.35906 0.47453 0.70166 0.0
O106 O 0.33734 0.4367 0.60571 0.0
O107 O 0.68157 0.37249 0.75909 0.0
O108 O 0.64429 0.41585 0.79611 0.0
O109 O 0.57779 0.44403 0.9555 0.0
O110 O 0.49999 0.47743 0.86294 0.0
O111 O 0.50342 0.40867 0.60623 0.0
O112 O 0.54534 0.36486 0.59368 0.0
C113 C 0.55547 0.47022 0.93465 0.0
O114 O 0.58999 0.33663 0.86793 0.0
O115 O 0.62352 0.37697 0.95014 0.0
O116 O 0.25717 0.43939 0.80154 0.0
O117 O 0.2931 0.39674 0.75845 0.0
C118 C 0.34682 0.46351 0.62106 0.0
C119 C 0.5269 0.38893 0.55712 0.0
C120 C 0.37295 0.34068 0.63581 0.0
O121 O 0.35735 0.36701 0.61173 0.0
O122 O 0.44218 0.33111 0.69261 0.0
C123 C 0.70122 0.39801 0.77317 0.0
O124 O 0.44478 0.39937 0.95753 0.0
O125 O 0.39225 0.44254 0.96871 0.0
C126 C 0.62388 0.34992 0.94135 0.0
C127 C 0.41298 0.4183 1.00453 0.0
H128 H 0.17462 0.18418 0.88268 0.0
H129 H 0.09503 0.09864 0.90779 0.0
H130 H 1.01182 0.10092 0.7514 0.0
H131 H 0.94817 0.12914 0.61631 0.0
H132 H 0.02823 0.21456 0.59057 0.0
H133 H 0.11123 0.21238 0.74725 0.0
C134 C 0.14268 0.1657 0.85157 0.0
C135 C 0.13625 0.14181 0.90687 0.0
C136 C 0.08649 0.1683 0.76712 0.0
C137 C 0.09854 0.11752 0.86648 0.0
C138 C 0.04734 0.11922 0.77908 0.0
C139 C 0.98025 0.14761 0.6473 0.0
C140 C 0.98721 0.17141 0.59172 0.0
C141 C 0.03649 0.14501 0.7317 0.0
C142 C 0.02482 0.19572 0.632 0.0
C143 C 0.07575 0.19407 0.71958 0.0
H144 H 0.99354 0.93131 0.35288 0.0
H145 H 0.15523 0.85621 0.34743 0.0
H146 H 0.13549 0.85876 0.17861 0.0
H147 H 0.07293 0.88231 0.03086 0.0
H148 H 0.91717 0.95873 0.0362 0.0
H149 H 0.93483 0.95583 0.20519 0.0
C150 C 0.02664 0.91593 0.31518 0.0
C151 C 0.07753 0.89391 0.36439 0.0
C152 C 0.01504 0.91755 0.21706 0.0
C153 C 0.11638 0.87356 0.31268 0.0
C154 C 0.10484 0.87495 0.21556 0.0
C155 C 0.04161 0.89817 0.06861 0.0
C156 C 0.99225 0.92051 0.0194 0.0
C157 C 0.05385 0.89674 0.16671 0.0
C158 C 0.95437 0.94109 0.07102 0.0
C159 C 0.96495 0.93953 0.16818 0.0
H160 H 0.59623 0.62576 0.96726 0.0
H161 H 0.45492 0.69979 0.0383 0.0
H162 H 0.40299 0.70987 0.87527 0.0
H163 H 0.39073 0.69633 0.71143 0.0
H164 H 0.54932 0.626 0.64182 0.0
H165 H 0.59769 0.61527 0.80347 0.0
C166 C 0.55515 0.64432 0.94714 0.0
C167 C 0.52849 0.66164 0.01565 0.0
C168 C 0.52555 0.65015 0.85282 0.0
C169 C 0.47598 0.68581 0.98764 0.0
C170 C 0.44558 0.69155 0.89408 0.0
C171 C 0.43518 0.6785 0.73157 0.0
C172 C 0.46033 0.66072 0.66313 0.0
C173 C 0.46833 0.67354 0.82595 0.0
C174 C 0.52148 0.63854 0.69146 0.0
C175 C 0.55189 0.63288 0.78478 0.0
H176 H 0.52652 0.38332 0.12066 0.0
H177 H 0.31241 0.44487 0.12182 0.0
H178 H 0.32872 0.44154 0.2909 0.0
H179 H 0.40303 0.42079 0.43944 0.0
H180 H 0.62507 0.3621 0.43909 0.0
H181 H 0.60493 0.36409 0.26975 0.0
C182 C 0.48238 0.39574 0.15763 0.0
C183 C 0.41696 0.41402 0.1074 0.0
C184 C 0.49415 0.39437 0.25571 0.0
C185 C 0.36235 0.43037 0.1577 0.0
C186 C 0.37209 0.42858 0.2548 0.0
C187 C 0.44968 0.40932 0.40288 0.0
C188 C 0.51826 0.39219 0.45341 0.0
C189 C 0.43832 0.41085 0.30482 0.0
C190 C 0.57304 0.3759 0.40305 0.0
C191 C 0.5613 0.37697 0.30581 0.0
H192 H 0.66186 0.17027 0.11344 0.0
H193 H 0.77668 0.13438 0.37804 0.0
H194 H 0.62449 0.12986 0.42125 0.0
H195 H 0.45925 0.13661 0.38479 0.0
H196 H 0.34508 0.17292 0.12051 0.0
H197 H 0.49705 0.17697 0.07697 0.0
C198 C 0.65383 0.16121 0.18032 0.0
C199 C 0.73091 0.15255 0.24213 0.0
C200 C 0.56627 0.15899 0.20525 0.0
C201 C 0.71878 0.14116 0.32889 0.0
C202 C 0.63171 0.13864 0.35382 0.0
C203 C 0.46741 0.14553 0.31776 0.0
C204 C 0.39048 0.15448 0.2562 0.0
C205 C 0.55504 0.14766 0.29279 0.0
C206 C 0.40279 0.1659 0.16951 0.0
C207 C 0.48976 0.16815 0.14434 0.0
H208 H 0.69074 0.88915 0.61567 0.0
H209 H 0.71743 0.95145 0.82655 0.0
H210 H 0.5545 0.94969 0.83492 0.0
H211 H 0.40226 0.93082 0.78095 0.0
H212 H 0.37594 0.86943 0.56646 0.0
H213 H 0.53865 0.87084 0.56008 0.0
C214 C 0.66103 0.90197 0.66442 0.0
C215 C 0.71666 0.92016 0.72103 0.0
C216 C 0.56628 0.90144 0.66716 0.0
C217 C 0.67641 0.93713 0.78242 0.0
C218 C 0.58293 0.93628 0.78691 0.0
C219 C 0.43187 0.9181 0.73183 0.0
C220 C 0.37603 0.90012 0.67426 0.0
C221 C 0.52669 0.91875 0.72885 0.0
C222 C 0.4166 0.8835 0.61193 0.0
C223 C 0.51014 0.88414 0.60837 0.0
H224 H 0.85689 0.61532 0.29545 0.0
H225 H 0.79165 0.69848 0.37827 0.0
H226 H 0.95226 0.71045 0.39413 0.0
H227 H 0.1101 0.69738 0.38346 0.0
H228 H 0.17492 0.61428 0.2996 0.0
H229 H 0.01464 0.60214 0.28625 0.0
C230 C 0.8774 0.63615 0.31647 0.0
C231 C 0.812 0.656 0.33534 0.0
C232 C 0.96968 0.64282 0.326 0.0
C233 C 0.84033 0.68281 0.36306 0.0
C234 C 0.93222 0.68964 0.37242 0.0
C235 C 0.08963 0.6765 0.36299 0.0
C236 C 0.1548 0.65676 0.34268 0.0
C237 C 0.99738 0.66977 0.35428 0.0
C238 C 0.12645 0.62989 0.31575 0.0
C239 C 0.03474 0.62296 0.30774 0.0
H240 H 0.84364 0.36402 0.74993 0.0
H241 H 0.77483 0.45011 0.79557 0.0
H242 H 0.93497 0.46231 0.80534 0.0
H243 H 0.09353 0.44847 0.80309 0.0
H244 H 0.16227 0.36242 0.75686 0.0
H245 H 1.00203 0.35024 0.74641 0.0
C246 C 0.86316 0.38555 0.76131 0.0
C247 C 0.79688 0.40614 0.77178 0.0
C248 C 0.95523 0.39235 0.76785 0.0
C249 C 0.8241 0.43385 0.78701 0.0
C250 C 0.91573 0.44082 0.79301 0.0
C251 C 0.07391 0.42697 0.79134 0.0
C252 C 0.14023 0.40636 0.78132 0.0
C253 C 0.98179 0.42019 0.78426 0.0
C254 C 0.11294 0.37869 0.76528 0.0
C255 C 0.02127 0.37173 0.75891 0.0
H256 H 0.33049 0.32644 0.45491 0.0
H257 H 0.28248 0.30523 0.73176 0.0
H258 H 0.21681 0.2609 0.67914 0.0
H259 H 0.18875 0.22612 0.55871 0.0
H260 H 0.23004 0.24673 0.27948 0.0
H261 H 0.28395 0.29314 0.32836 0.0
C262 C 0.30253 0.31248 0.50259 0.0
C263 C 0.31027 0.31905 0.5968 0.0
C264 C 0.26658 0.2866 0.47203 0.0
C265 C 0.27607 0.3006 0.65876 0.0
C266 C 0.23965 0.27514 0.62898 0.0
C267 C 0.20959 0.24078 0.50858 0.0
C268 C 0.20762 0.23289 0.41625 0.0
C269 C 0.23763 0.26751 0.53661 0.0
C270 C 0.2324 0.2523 0.35135 0.0
C271 C 0.26272 0.27884 0.3792 0.0
H272 H 0.80289 0.3391 0.96652 0.0
H273 H 0.55551 0.31982 0.07451 0.0
H274 H 0.63236 0.28085 0.16655 0.0
H275 H 0.76317 0.24765 0.19436 0.0
H276 H 1.0048 0.26498 0.07257 0.0
H277 H 0.93866 0.30941 1.00936 0.0
C278 C 0.76712 0.32694 1.01303 0.0
C279 C 0.67448 0.33238 0.0153 0.0
C280 C 0.81077 0.30393 0.06223 0.0
C281 C 0.62742 0.31613 0.07325 0.0
C282 C 0.67117 0.29372 0.12503 0.0
C283 C 0.80211 0.26169 0.15665 0.0
C284 C 0.8888 0.2533 0.13845 0.0
C285 C 0.76188 0.28672 0.11714 0.0
C286 C 0.93812 0.27121 0.08764 0.0
C287 C 0.90011 0.2965 0.05108 0.0
H288 H 0.57105 0.77366 0.49223 0.0
H289 H 0.76576 0.70618 0.56265 0.0
H290 H 0.88835 0.7401 0.58573 0.0
H291 H 0.93961 0.7883 0.57914 0.0
H292 H 0.74472 0.8554 0.50316 0.0
H293 H 0.62194 0.8216 0.48524 0.0
C294 C 0.64014 0.76614 0.51316 0.0
C295 C 0.65899 0.73722 0.52544 0.0
C296 C 0.71004 0.78557 0.52318 0.0
C297 C 0.74901 0.72821 0.55349 0.0
C298 C 0.81917 0.74759 0.56558 0.0
C299 C 0.87037 0.7957 0.55834 0.0
C300 C 0.8515 0.82452 0.54277 0.0
C301 C 0.80039 0.77623 0.54913 0.0
C302 C 0.76136 0.83346 0.51512 0.0
C303 C 0.69114 0.81415 0.50569 0.0
H304 H 0.3259 0.77578 0.21141 0.0
H305 H 0.27676 0.70997 1.01231 0.0
H306 H 0.22764 0.74469 0.89098 0.0
H307 H 0.19928 0.79295 0.84175 0.0
H308 H 0.24535 0.85935 0.03886 0.0
H309 H 0.29573 0.8247 0.16146 0.0
C310 C 0.30431 0.76886 0.1416 0.0
C311 C 0.30547 0.74008 0.12138 0.0
C312 C 0.2759 0.78896 0.07206 0.0
C313 C 0.27689 0.73181 0.03028 0.0
C314 C 0.24883 0.75169 0.96075 0.0
C315 C 0.22011 0.80016 0.91136 0.0
C316 C 0.21825 0.82897 0.93063 0.0
C317 C 0.24825 0.78024 0.98098 0.0
C318 C 0.2462 0.83746 0.02163 0.0
C319 C 0.2748 0.81762 0.09175 0.0
H320 H 0.09817 0.06471 0.15115 0.0
H321 H 0.85509 0.08114 0.95885 0.0
H322 H 0.8855 0.03936 0.87453 0.0
H323 H 0.98706 1.00237 0.84604 0.0
H324 H 0.23512 0.98476 0.03097 0.0
H325 H 0.19534 1.02292 0.1308 0.0
C326 C 0.05022 0.05868 0.09309 0.0
C327 C 0.97359 0.07607 0.0623 0.0
C328 C 0.06971 0.03481 0.04349 0.0
C329 C 0.91394 0.06823 0.98441 0.0
C330 C 0.93167 0.0444 0.93602 0.0
C331 C 0.03324 1.00635 0.90851 0.0
C332 C 0.11545 0.99069 0.92967 0.0
C333 C 1.01057 1.02817 0.96345 0.0
C334 C 0.17198 0.99634 1.01233 0.0
C335 C 0.14921 1.01827 0.06892 0.0
H336 H 0.99925 0.07145 0.31785 0.0
H337 H 0.26985 0.03616 0.36985 0.0
H338 H 0.20776 0.99108 0.41109 0.0
H339 H 0.08068 0.96612 0.46445 0.0
H340 H 0.81296 1.00356 0.42794 0.0
H341 H 0.86827 0.04319 0.3445 0.0
C342 C 0.04414 0.05351 0.33468 0.0
C343 C 0.13874 0.05682 0.34036 0.0
C344 C 1.00799 1.02819 0.36104 0.0
C345 C 0.19688 0.03385 0.36438 0.0
C346 C 0.16126 1.00822 0.38834 0.0
C347 C 0.03348 0.98221 0.43339 0.0
C348 C 0.94238 0.9817 0.45021 0.0
C349 C 0.06739 1.00562 0.3911 0.0
C350 C 0.88251 1.00317 0.41347 0.0
C351 C 0.91474 1.02605 0.36744 0.0
H352 H 0.35111 0.54486 0.1702 0.0
H353 H 0.41743 0.60705 0.97543 0.0
H354 H 0.50705 0.57224 0.90459 0.0
H355 H 0.57937 0.52541 0.91004 0.0
H356 H 0.52206 0.4645 0.11368 0.0
H357 H 0.42623 0.49875 0.1785 0.0
C358 C 0.38201 0.55049 0.10947 0.0
C359 C 0.38049 0.57891 0.08049 0.0
C360 C 0.4422 0.53132 0.07724 0.0
C361 C 0.41908 0.58567 1.00074 0.0
C362 C 0.47326 0.56598 0.96263 0.0
C363 C 0.54915 0.52 0.97137 0.0
C364 C 0.55611 0.49204 1.00538 0.0
C365 C 0.48936 0.53926 1.00395 0.0
C366 C 0.51728 0.48555 0.08522 0.0
C367 C 0.45982 0.5049 0.1202 0.0
H368 H 0.29667 0.51727 0.5851 0.0
H369 H 0.48462 0.45407 0.52018 0.0
H370 H 0.59113 0.48946 0.48743 0.0
H371 H 0.63878 0.53863 0.4933 0.0
H372 H 0.44808 0.60149 0.55514 0.0
H373 H 0.34162 0.56629 0.58529 0.0
C374 C 0.35921 0.51129 0.55956 0.0
C375 C 0.38053 0.48266 0.55302 0.0
C376 C 0.42446 0.53178 0.54987 0.0
C377 C 0.46307 0.47552 0.52179 0.0
C378 C 0.5265 0.49593 0.5072 0.0
C379 C 0.5756 0.54454 0.51764 0.0
C380 C 0.55581 0.57316 0.52844 0.0
C381 C 0.50966 0.52402 0.52536 0.0
C382 C 0.47082 0.58017 0.55469 0.0
C383 C 0.40694 0.55982 0.56713 0.0
loop_
_geom_bond_atom_site_label_1
_geom_bond_atom_site_label_2
_geom_bond_distance
_geom_bond_site_symmetry_2
_ccdc_geom_bond_type
Fe0 O1 1.886 . S
Fe0 O4 1.715 . S
Fe0 O9 2.077 . S
Fe0 O14 1.935 . S
Fe0 O20 2.077 . S
Fe0 O29 1.935 . S
O1 Fe0 1.886 . S
O1 Fe3 1.715 1_455 S
Fe2 O4 1.886 . S
Fe2 O5 1.715 1_455 S
Fe2 O12 1.935 . S
Fe2 O13 2.077 . S
Fe2 O19 1.935 1_455 S
Fe2 O28 2.077 . S
Fe3 O1 1.715 1_655 S
Fe3 O6 1.886 . S
Fe3 O10 1.935 1_655 S
Fe3 O15 2.077 . S
Fe3 O21 1.935 . S
Fe3 O25 2.077 . S
O4 Fe0 1.715 . S
O4 Fe2 1.886 . S
O5 Fe2 1.715 1_655 S
O5 Fe7 1.886 . S
O6 Fe3 1.886 . S
O6 Fe7 1.715 . S
Fe7 O5 1.886 . S
Fe7 O6 1.715 . S
Fe7 O11 2.080 . S
Fe7 O16 1.935 . S
Fe7 O18 2.077 . S
Fe7 O26 1.935 . S
C8 O20 1.381 1_655 S
C8 O21 1.421 . S
O9 Fe0 2.077 . S
O9 C22 1.381 . S
O10 Fe3 1.935 1_455 S
O10 C22 1.421 . S
O11 Fe7 2.080 . S
O11 C27 1.381 1_654 S
O12 Fe2 1.935 . S
O12 C27 1.421 1_554 S
O13 Fe2 2.077 . S
O13 C17 1.381 . S
O14 Fe0 1.935 . S
O14 C17 1.421 . S
O15 Fe3 2.077 . S
O15 C23 1.381 . S
O16 Fe7 1.935 . S
O16 C23 1.421 . S
C17 O13 1.381 . S
C17 O14 1.421 . S
O18 Fe7 2.077 . S
O18 C30 1.381 . S
O19 Fe2 1.935 1_655 S
O19 C30 1.421 . S
O20 Fe0 2.077 . S
O20 C8 1.381 1_455 S
O21 Fe3 1.935 . S
O21 C8 1.421 . S
C22 O9 1.381 . S
C22 O10 1.421 . S
C23 O15 1.381 . S
C23 O16 1.421 . S
C24 O25 1.381 . S
C24 O26 1.421 . S
O25 Fe3 2.077 . S
O25 C24 1.381 . S
O26 Fe7 1.935 . S
O26 C24 1.421 . S
C27 O11 1.381 1_456 S
C27 O12 1.421 1_556 S
O28 Fe2 2.077 . S
O28 C31 1.381 . S
O29 Fe0 1.935 . S
O29 C31 1.421 . S
C30 O18 1.381 . S
C30 O19 1.421 . S
C31 O28 1.381 . S
C31 O29 1.421 . S
Fe32 O33 1.886 . S
Fe32 O36 1.715 1_655 S
Fe32 O41 2.077 . S
Fe32 O46 1.935 1_655 S
Fe32 O52 2.077 . S
Fe32 O61 1.935 . S
O33 Fe32 1.886 . S
O33 Fe35 1.715 . S
Fe34 O36 1.886 . S
Fe34 O37 1.715 . S
Fe34 O44 1.935 . S
Fe34 O45 2.077 . S
Fe34 O51 1.935 . S
Fe34 O60 2.080 . S
Fe35 O33 1.715 . S
Fe35 O38 1.886 . S
Fe35 O42 1.935 . S
Fe35 O47 2.077 . S
Fe35 O53 1.935 . S
Fe35 O57 2.077 . S
O36 Fe32 1.715 1_455 S
O36 Fe34 1.886 . S
O37 Fe34 1.715 . S
O37 Fe39 1.886 . S
O38 Fe35 1.886 . S
O38 Fe39 1.715 1_655 S
Fe39 O37 1.886 . S
Fe39 O38 1.715 1_455 S
Fe39 O43 2.077 . S
Fe39 O48 1.935 . S
Fe39 O50 2.077 . S
Fe39 O58 1.935 1_455 S
C40 O52 1.381 . S
C40 O53 1.421 . S
O41 Fe32 2.077 . S
O41 C54 1.381 . S
O42 Fe35 1.935 . S
O42 C54 1.421 . S
O43 Fe39 2.077 . S
O43 C59 1.381 . S
O44 Fe34 1.935 . S
O44 C59 1.421 . S
O45 Fe34 2.077 . S
O45 C49 1.381 . S
O46 Fe32 1.935 1_455 S
O46 C49 1.421 . S
O47 Fe35 2.077 . S
O47 C55 1.381 1_655 S
O48 Fe39 1.935 . S
O48 C55 1.421 . S
C49 O45 1.381 . S
C49 O46 1.421 . S
O50 Fe39 2.077 . S
O50 C62 1.381 . S
O51 Fe34 1.935 . S
O51 C62 1.421 . S
O52 Fe32 2.077 . S
O52 C40 1.381 . S
O53 Fe35 1.935 . S
O53 C40 1.421 . S
C54 O41 1.381 . S
C54 O42 1.421 . S
C55 O47 1.381 1_455 S
C55 O48 1.421 . S
C56 O57 1.381 . S
C56 O58 1.421 . S
O57 Fe35 2.077 . S
O57 C56 1.381 . S
O58 Fe39 1.935 1_655 S
O58 C56 1.421 . S
C59 O43 1.381 . S
C59 O44 1.421 . S
O60 Fe34 2.080 . S
O60 C63 1.381 1_456 S
O61 Fe32 1.935 . S
O61 C63 1.421 1_556 S
C62 O50 1.381 . S
C62 O51 1.421 . S
C63 O60 1.381 1_654 S
C63 O61 1.421 1_554 S
Fe64 O65 1.886 . S
Fe64 O68 1.715 . S
Fe64 O73 2.077 . S
Fe64 O78 1.935 . S
Fe64 O84 2.077 . S
Fe64 O93 1.935 . S
O65 Fe64 1.886 . S
O65 Fe67 1.715 . S
Fe66 O68 1.886 . S
Fe66 O69 1.715 . S
Fe66 O76 1.935 . S
Fe66 O77 2.077 . S
Fe66 O83 1.935 . S
Fe66 O92 2.077 . S
Fe67 O65 1.715 . S
Fe67 O70 1.886 . S
Fe67 O74 1.935 . S
Fe67 O79 2.077 . S
Fe67 O85 1.935 . S
Fe67 O89 2.077 . S
O68 Fe64 1.715 . S
O68 Fe66 1.886 . S
O69 Fe66 1.715 . S
O69 Fe71 1.886 . S
O70 Fe67 1.886 . S
O70 Fe71 1.715 . S
Fe71 O69 1.886 . S
Fe71 O70 1.715 . S
Fe71 O75 2.080 . S
Fe71 O80 1.935 . S
Fe71 O82 2.077 . S
Fe71 O90 1.935 . S
C72 O84 1.381 . S
C72 O85 1.421 . S
O73 Fe64 2.077 . S
O73 C86 1.381 . S
O74 Fe67 1.935 . S
O74 C86 1.421 . S
O75 Fe71 2.080 . S
O75 C91 1.381 1_554 S
O76 Fe66 1.935 . S
O76 C91 1.421 1_554 S
O77 Fe66 2.077 . S
O77 C81 1.381 . S
O78 Fe64 1.935 . S
O78 C81 1.421 . S
O79 Fe67 2.077 . S
O79 C87 1.381 . S
O80 Fe71 1.935 . S
O80 C87 1.421 . S
C81 O77 1.381 . S
C81 O78 1.421 . S
O82 Fe71 2.077 . S
O82 C94 1.381 . S
O83 Fe66 1.935 . S
O83 C94 1.421 . S
O84 Fe64 2.077 . S
O84 C72 1.381 . S
O85 Fe67 1.935 . S
O85 C72 1.421 . S
C86 O73 1.381 . S
C86 O74 1.421 . S
C87 O79 1.381 . S
C87 O80 1.421 . S
C88 O89 1.381 . S
C88 O90 1.421 . S
O89 Fe67 2.077 . S
O89 C88 1.381 . S
O90 Fe71 1.935 . S
O90 C88 1.421 . S
C91 O75 1.381 1_556 S
C91 O76 1.421 1_556 S
O92 Fe66 2.077 . S
O92 C95 1.381 . S
O93 Fe64 1.935 . S
O93 C95 1.421 . S
C94 O82 1.381 . S
C94 O83 1.421 . S
C95 O92 1.381 . S
C95 O93 1.421 . S
Fe96 O97 1.886 . S
Fe96 O100 1.715 . S
Fe96 O105 2.077 . S
Fe96 O110 1.935 . S
Fe96 O116 2.077 . S
Fe96 O125 1.935 . S
O97 Fe96 1.886 . S
O97 Fe99 1.715 . S
Fe98 O100 1.886 . S
Fe98 O101 1.715 . S
Fe98 O108 1.935 . S
Fe98 O109 2.077 . S
Fe98 O115 1.935 . S
Fe98 O124 2.080 . S
Fe99 O97 1.715 . S
Fe99 O102 1.886 . S
Fe99 O106 1.935 . S
Fe99 O111 2.077 . S
Fe99 O117 1.935 . S
Fe99 O121 2.077 . S
O100 Fe96 1.715 . S
O100 Fe98 1.886 . S
O101 Fe98 1.715 . S
O101 Fe103 1.886 . S
O102 Fe99 1.886 . S
O102 Fe103 1.715 . S
Fe103 O101 1.886 . S
Fe103 O102 1.715 . S
Fe103 O107 2.077 . S
Fe103 O112 1.935 . S
Fe103 O114 2.077 . S
Fe103 O122 1.935 . S
C104 O116 1.381 . S
C104 O117 1.421 . S
O105 Fe96 2.077 . S
O105 C118 1.381 . S
O106 Fe99 1.935 . S
O106 C118 1.421 . S
O107 Fe103 2.077 . S
O107 C123 1.381 . S
O108 Fe98 1.935 . S
O108 C123 1.421 . S
O109 Fe98 2.077 . S
O109 C113 1.381 . S
O110 Fe96 1.935 . S
O110 C113 1.421 . S
O111 Fe99 2.077 . S
O111 C119 1.381 . S
O112 Fe103 1.935 . S
O112 C119 1.421 . S
C113 O109 1.381 . S
C113 O110 1.421 . S
O114 Fe103 2.077 . S
O114 C126 1.381 . S
O115 Fe98 1.935 . S
O115 C126 1.421 . S
O116 Fe96 2.077 . S
O116 C104 1.381 . S
O117 Fe99 1.935 . S
O117 C104 1.421 . S
C118 O105 1.381 . S
C118 O106 1.421 . S
C119 O111 1.381 . S
C119 O112 1.421 . S
C120 O121 1.381 . S
C120 O122 1.421 . S
O121 Fe99 2.077 . S
O121 C120 1.381 . S
O122 Fe103 1.935 . S
O122 C120 1.421 . S
C123 O107 1.381 . S
C123 O108 1.421 . S
O124 Fe98 2.080 . S
O124 C127 1.381 1_556 S
O125 Fe96 1.935 . S
O125 C127 1.421 1_556 S
C126 O114 1.381 . S
C126 O115 1.421 . S
C127 O124 1.381 1_554 S
C127 O125 1.421 1_554 S
H128 C134 0.930 . S
H129 C137 0.930 . S
H130 C138 0.930 . S
H131 C139 0.930 . S
H132 C142 0.930 . S
H133 C143 0.930 . S
C134 H128 0.930 . S
C134 C135 1.355 . S
C134 C136 1.415 . S
C135 C134 1.355 . S
C135 C137 1.419 . S
C136 C134 1.415 . S
C136 C141 1.425 1_455 S
C136 C143 1.409 . S
C137 H129 0.930 . S
C137 C135 1.419 . S
C137 C138 1.362 1_455 S
C138 H130 0.930 . S
C138 C137 1.362 1_655 S
C138 C141 1.409 . S
C139 H131 0.930 . S
C139 C140 1.355 . S
C139 C141 1.415 . S
C140 C139 1.355 . S
C140 C142 1.419 . S
C141 C136 1.425 1_655 S
C141 C138 1.409 . S
C141 C139 1.415 . S
C142 H132 0.930 . S
C142 C140 1.419 . S
C142 C143 1.362 1_655 S
C143 H133 0.930 . S
C143 C136 1.409 . S
C143 C142 1.362 1_455 S
H144 C150 0.930 . S
H145 C153 0.930 . S
H146 C154 0.930 . S
H147 C155 0.930 . S
H148 C158 0.930 . S
H149 C159 0.930 . S
C150 H144 0.930 . S
C150 C151 1.355 . S
C150 C152 1.415 . S
C151 C150 1.355 . S
C151 C153 1.419 1_455 S
C152 C150 1.415 . S
C152 C157 1.425 1_455 S
C152 C159 1.409 . S
C153 H145 0.930 . S
C153 C151 1.419 1_655 S
C153 C154 1.362 . S
C154 H146 0.930 . S
C154 C153 1.362 . S
C154 C157 1.409 . S
C155 H147 0.930 . S
C155 C156 1.355 . S
C155 C157 1.415 . S
C156 C155 1.355 . S
C156 C158 1.419 1_655 S
C157 C152 1.425 1_655 S
C157 C154 1.409 . S
C157 C155 1.415 . S
C158 H148 0.930 . S
C158 C156 1.419 1_455 S
C158 C159 1.362 . S
C159 H149 0.930 . S
C159 C152 1.409 . S
C159 C158 1.362 . S
H160 C166 0.930 . S
H161 C169 0.930 . S
H162 C170 0.930 . S
H163 C171 0.930 . S
H164 C174 0.930 . S
H165 C175 0.930 . S
C166 H160 0.930 . S
C166 C167 1.355 . S
C166 C168 1.415 . S
C167 C166 1.355 . S
C167 C169 1.419 . S
C168 C166 1.415 . S
C168 C173 1.425 . S
C168 C175 1.409 . S
C169 H161 0.930 . S
C169 C167 1.419 . S
C169 C170 1.362 . S
C170 H162 0.930 . S
C170 C169 1.362 . S
C170 C173 1.409 . S
C171 H163 0.930 . S
C171 C172 1.355 . S
C171 C173 1.415 . S
C172 C171 1.355 . S
C172 C174 1.419 . S
C173 C168 1.425 . S
C173 C170 1.409 . S
C173 C171 1.415 . S
C174 H164 0.930 . S
C174 C172 1.419 . S
C174 C175 1.362 . S
C175 H165 0.930 . S
C175 C168 1.409 . S
C175 C174 1.362 . S
H176 C182 0.930 . S
H177 C185 0.930 . S
H178 C186 0.930 . S
H179 C187 0.930 . S
H180 C190 0.930 . S
H181 C191 0.930 . S
C182 H176 0.930 . S
C182 C183 1.355 . S
C182 C184 1.415 . S
C183 C182 1.355 . S
C183 C185 1.419 . S
C184 C182 1.415 . S
C184 C189 1.425 . S
C184 C191 1.409 . S
C185 H177 0.930 . S
C185 C183 1.419 . S
C185 C186 1.362 . S
C186 H178 0.930 . S
C186 C185 1.362 . S
C186 C189 1.409 . S
C187 H179 0.930 . S
C187 C188 1.355 . S
C187 C189 1.415 . S
C188 C187 1.355 . S
C188 C190 1.419 . S
C189 C184 1.425 . S
C189 C186 1.409 . S
C189 C187 1.415 . S
C190 H180 0.930 . S
C190 C188 1.419 . S
C190 C191 1.362 . S
C191 H181 0.930 . S
C191 C184 1.409 . S
C191 C190 1.362 . S
H192 C198 0.930 . S
H193 C201 0.930 . S
H194 C202 0.930 . S
H195 C203 0.930 . S
H196 C206 0.930 . S
H197 C207 0.930 . S
C198 H192 0.930 . S
C198 C199 1.355 . S
C198 C200 1.415 . S
C199 C198 1.355 . S
C199 C201 1.419 . S
C200 C198 1.415 . S
C200 C205 1.425 . S
C200 C207 1.409 . S
C201 H193 0.930 . S
C201 C199 1.419 . S
C201 C202 1.362 . S
C202 H194 0.930 . S
C202 C201 1.362 . S
C202 C205 1.409 . S
C203 H195 0.930 . S
C203 C204 1.355 . S
C203 C205 1.415 . S
C204 C203 1.355 . S
C204 C206 1.419 . S
C205 C200 1.425 . S
C205 C202 1.409 . S
C205 C203 1.415 . S
C206 H196 0.930 . S
C206 C204 1.419 . S
C206 C207 1.362 . S
C207 H197 0.930 . S
C207 C200 1.409 . S
C207 C206 1.362 . S
H208 C214 0.930 . S
H209 C217 0.930 . S
H210 C218 0.930 . S
H211 C219 0.930 . S
H212 C222 0.930 . S
H213 C223 0.930 . S
C214 H208 0.930 . S
C214 C215 1.355 . S
C214 C216 1.415 . S
C215 C214 1.355 . S
C215 C217 1.419 . S
C216 C214 1.415 . S
C216 C221 1.425 . S
C216 C223 1.409 . S
C217 H209 0.930 . S
C217 C215 1.419 . S
C217 C218 1.362 . S
C218 H210 0.930 . S
C218 C217 1.362 . S
C218 C221 1.409 . S
C219 H211 0.930 . S
C219 C220 1.355 . S
C219 C221 1.415 . S
C220 C219 1.355 . S
C220 C222 1.419 . S
C221 C216 1.425 . S
C221 C218 1.409 . S
C221 C219 1.415 . S
C222 H212 0.930 . S
C222 C220 1.419 . S
C222 C223 1.362 . S
C223 H213 0.930 . S
C223 C216 1.409 . S
C223 C222 1.362 . S
H224 C230 0.930 . S
H225 C233 0.930 . S
H226 C234 0.930 . S
H227 C235 0.930 . S
H228 C238 0.930 . S
H229 C239 0.930 . S
C230 H224 0.930 . S
C230 C231 1.355 . S
C230 C232 1.415 . S
C231 C230 1.355 . S
C231 C233 1.419 . S
C232 C230 1.415 . S
C232 C237 1.425 1_655 S
C232 C239 1.409 1_655 S
C233 H225 0.930 . S
C233 C231 1.419 . S
C233 C234 1.362 . S
C234 H226 0.930 . S
C234 C233 1.362 . S
C234 C237 1.409 1_655 S
C235 H227 0.930 . S
C235 C236 1.355 . S
C235 C237 1.415 . S
C236 C235 1.355 . S
C236 C238 1.419 . S
C237 C232 1.425 1_455 S
C237 C234 1.409 1_455 S
C237 C235 1.415 . S
C238 H228 0.930 . S
C238 C236 1.419 . S
C238 C239 1.362 . S
C239 H229 0.930 . S
C239 C232 1.409 1_455 S
C239 C238 1.362 . S
H240 C246 0.930 . S
H241 C249 0.930 . S
H242 C250 0.930 1_455 S
H243 C251 0.930 . S
H244 C254 0.930 . S
H245 C255 0.930 1_655 S
C246 H240 0.930 . S
C246 C247 1.355 . S
C246 C248 1.415 . S
C247 C246 1.355 . S
C247 C249 1.419 . S
C248 C246 1.415 . S
C248 C253 1.425 1_655 S
C248 C255 1.409 1_655 S
C249 H241 0.930 . S
C249 C247 1.419 . S
C249 C250 1.362 . S
C250 H242 0.930 1_655 S
C250 C249 1.362 . S
C250 C253 1.409 1_655 S
C251 H243 0.930 . S
C251 C252 1.355 . S
C251 C253 1.415 . S
C252 C251 1.355 . S
C252 C254 1.419 . S
C253 C248 1.425 1_455 S
C253 C250 1.409 1_455 S
C253 C251 1.415 . S
C254 H244 0.930 . S
C254 C252 1.419 . S
C254 C255 1.362 . S
C255 H245 0.930 1_455 S
C255 C248 1.409 1_455 S
C255 C254 1.362 . S
H256 C262 0.930 . S
H257 C265 0.930 . S
H258 C266 0.930 . S
H259 C267 0.930 . S
H260 C270 0.930 . S
H261 C271 0.930 . S
C262 H256 0.930 . S
C262 C263 1.355 . S
C262 C264 1.415 . S
C263 C262 1.355 . S
C263 C265 1.419 . S
C264 C262 1.415 . S
C264 C269 1.425 . S
C264 C271 1.409 . S
C265 H257 0.930 . S
C265 C263 1.419 . S
C265 C266 1.362 . S
C266 H258 0.930 . S
C266 C265 1.362 . S
C266 C269 1.409 . S
C267 H259 0.930 . S
C267 C268 1.355 . S
C267 C269 1.415 . S
C268 C267 1.355 . S
C268 C270 1.419 . S
C269 C264 1.425 . S
C269 C266 1.409 . S
C269 C267 1.415 . S
C270 H260 0.930 . S
C270 C268 1.419 . S
C270 C271 1.362 . S
C271 H261 0.930 . S
C271 C264 1.409 . S
C271 C270 1.362 . S
H272 C278 0.930 . S
H273 C281 0.930 . S
H274 C282 0.930 . S
H275 C283 0.930 . S
H276 C286 0.930 . S
H277 C287 0.930 . S
C278 H272 0.930 . S
C278 C279 1.355 . S
C278 C280 1.415 . S
C279 C278 1.355 . S
C279 C281 1.419 1_556 S
C280 C278 1.415 . S
C280 C285 1.425 1_556 S
C280 C287 1.409 . S
C281 H273 0.930 . S
C281 C279 1.419 1_554 S
C281 C282 1.362 . S
C282 H274 0.930 . S
C282 C281 1.362 . S
C282 C285 1.409 . S
C283 H275 0.930 . S
C283 C284 1.355 . S
C283 C285 1.415 . S
C284 C283 1.355 . S
C284 C286 1.419 1_554 S
C285 C280 1.425 1_554 S
C285 C282 1.409 . S
C285 C283 1.415 . S
C286 H276 0.930 . S
C286 C284 1.419 1_556 S
C286 C287 1.362 . S
C287 H277 0.930 . S
C287 C280 1.409 . S
C287 C286 1.362 . S
H288 C294 0.930 . S
H289 C297 0.930 . S
H290 C298 0.930 . S
H291 C299 0.930 . S
H292 C302 0.930 . S
H293 C303 0.930 . S
C294 H288 0.930 . S
C294 C295 1.355 . S
C294 C296 1.415 . S
C295 C294 1.355 . S
C295 C297 1.419 . S
C296 C294 1.415 . S
C296 C301 1.425 . S
C296 C303 1.409 . S
C297 H289 0.930 . S
C297 C295 1.419 . S
C297 C298 1.362 . S
C298 H290 0.930 . S
C298 C297 1.362 . S
C298 C301 1.409 . S
C299 H291 0.930 . S
C299 C300 1.355 . S
C299 C301 1.415 . S
C300 C299 1.355 . S
C300 C302 1.419 . S
C301 C296 1.425 . S
C301 C298 1.409 . S
C301 C299 1.415 . S
C302 H292 0.930 . S
C302 C300 1.419 . S
C302 C303 1.362 . S
C303 H293 0.930 . S
C303 C296 1.409 . S
C303 C302 1.362 . S
H304 C310 0.930 . S
H305 C313 0.930 . S
H306 C314 0.930 . S
H307 C315 0.930 . S
H308 C318 0.930 . S
H309 C319 0.930 . S
C310 H304 0.930 . S
C310 C311 1.355 . S
C310 C312 1.415 . S
C311 C310 1.355 . S
C311 C313 1.419 . S
C312 C310 1.415 . S
C312 C317 1.425 1_554 S
C312 C319 1.409 1_554 S
C313 H305 0.930 . S
C313 C311 1.419 . S
C313 C314 1.362 . S
C314 H306 0.930 . S
C314 C313 1.362 . S
C314 C317 1.409 1_554 S
C315 H307 0.930 . S
C315 C316 1.355 . S
C315 C317 1.415 . S
C316 C315 1.355 . S
C316 C318 1.419 . S
C317 C312 1.425 1_556 S
C317 C314 1.409 1_556 S
C317 C315 1.415 . S
C318 H308 0.930 . S
C318 C316 1.419 . S
C318 C319 1.362 . S
C319 H309 0.930 . S
C319 C312 1.409 1_556 S
C319 C318 1.362 . S
H320 C326 0.930 1_455 S
H321 C329 0.930 . S
H322 C330 0.930 . S
H323 C331 0.930 1_655 S
H324 C334 0.930 . S
H325 C335 0.930 . S
C326 H320 0.930 1_655 S
C326 C327 1.355 . S
C326 C328 1.415 1_654 S
C327 C326 1.355 . S
C327 C329 1.419 . S
C328 C326 1.415 1_456 S
C328 C333 1.425 1_446 S
C328 C335 1.409 . S
C329 H321 0.930 . S
C329 C327 1.419 . S
C329 C330 1.362 1_545 S
C330 H322 0.930 . S
C330 C329 1.362 1_565 S
C330 C333 1.409 . S
C331 H323 0.930 1_455 S
C331 C332 1.355 . S
C331 C333 1.415 1_456 S
C332 C331 1.355 . S
C332 C334 1.419 . S
C333 C328 1.425 1_664 S
C333 C330 1.409 . S
C333 C331 1.415 1_654 S
C334 H324 0.930 . S
C334 C332 1.419 . S
C334 C335 1.362 1_565 S
C335 H325 0.930 . S
C335 C328 1.409 . S
C335 C334 1.362 1_545 S
H336 C342 0.930 . S
H337 C345 0.930 . S
H338 C346 0.930 . S
H339 C347 0.930 . S
H340 C350 0.930 . S
H341 C351 0.930 . S
C342 H336 0.930 . S
C342 C343 1.355 . S
C342 C344 1.415 1_455 S
C343 C342 1.355 . S
C343 C345 1.419 . S
C344 C342 1.415 1_655 S
C344 C349 1.425 1_645 S
C344 C351 1.409 . S
C345 H337 0.930 . S
C345 C343 1.419 . S
C345 C346 1.362 1_545 S
C346 H338 0.930 . S
C346 C345 1.362 1_565 S
C346 C349 1.409 . S
C347 H339 0.930 . S
C347 C348 1.355 . S
C347 C349 1.415 1_655 S
C348 C347 1.355 . S
C348 C350 1.419 . S
C349 C344 1.425 1_465 S
C349 C346 1.409 . S
C349 C347 1.415 1_455 S
C350 H340 0.930 . S
C350 C348 1.419 . S
C350 C351 1.362 1_565 S
C351 H341 0.930 . S
C351 C344 1.409 . S
C351 C350 1.362 1_545 S
H352 C358 0.930 . S
H353 C361 0.930 . S
H354 C362 0.930 . S
H355 C363 0.930 . S
H356 C366 0.930 . S
H357 C367 0.930 . S
C358 H352 0.930 . S
C358 C359 1.355 . S
C358 C360 1.415 . S
C359 C358 1.355 . S
C359 C361 1.419 . S
C360 C358 1.415 . S
C360 C365 1.425 1_554 S
C360 C367 1.409 1_554 S
C361 H353 0.930 . S
C361 C359 1.419 . S
C361 C362 1.362 . S
C362 H354 0.930 . S
C362 C361 1.362 . S
C362 C365 1.409 1_554 S
C363 H355 0.930 . S
C363 C364 1.355 . S
C363 C365 1.415 . S
C364 C363 1.355 . S
C364 C366 1.419 . S
C365 C360 1.425 1_556 S
C365 C362 1.409 1_556 S
C365 C363 1.415 . S
C366 H356 0.930 . S
C366 C364 1.419 . S
C366 C367 1.362 . S
C367 H357 0.930 . S
C367 C360 1.409 1_556 S
C367 C366 1.362 . S
H368 C374 0.930 . S
H369 C377 0.930 . S
H370 C378 0.930 . S
H371 C379 0.930 . S
H372 C382 0.930 . S
H373 C383 0.930 . S
C374 H368 0.930 . S
C374 C375 1.355 . S
C374 C376 1.415 . S
C375 C374 1.355 . S
C375 C377 1.419 . S
C376 C374 1.415 . S
C376 C381 1.425 . S
C376 C383 1.409 . S
C377 H369 0.930 . S
C377 C375 1.419 . S
C377 C378 1.362 . S
C378 H370 0.930 . S
C378 C377 1.362 . S
C378 C381 1.409 . S
C379 H371 0.930 . S
C379 C380 1.355 . S
C379 C381 1.415 . S
C380 C379 1.355 . S
C380 C382 1.419 . S
C381 C376 1.425 . S
C381 C378 1.409 . S
C381 C379 1.415 . S
C382 H372 0.930 . S
C382 C380 1.419 . S
C382 C383 1.362 . S
C383 H373 0.930 . S
C383 C376 1.409 . S
C383 C382 1.362 . S
C135 C27 1.255 . S
C140 C8 1.256 . S
C151 C55 1.260 . S
C156 C63 1.259 . S
C167 C91 1.308 . S
C172 C72 1.309 . S
C183 C127 1.324 . S
C188 C119 1.325 . S
C199 C24 1.265 . S
C204 C17 1.265 . S
C215 C40 1.217 . S
C220 C59 1.217 . S
C231 C81 1.271 . S
C236 C88 1.271 . S
C247 C123 1.229 . S
C252 C104 1.229 . S
C263 C120 1.621 . S
C268 C22 1.621 . S
C279 C126 1.598 . S
C284 C23 1.598 . S
C295 C86 1.589 . S
C300 C56 1.589 . S
C311 C87 1.525 . S
C316 C62 1.525 . S
C327 C30 1.796 . S
C332 C49 1.796 . S
C343 C31 2.036 . S
C348 C54 2.036 . S
C359 C94 1.690 . S
C364 C113 1.690 . S
C375 C118 2.009 . S
C380 C95 2.009 . S
