# Generated by pormake.
# Topology gsi, (4)-cn, num edge types: 1
# Building blocks:
#     Node 0, Type 0, BuildingBlock: ICAMEG_clean_sbu_1, # of connection points: 4
#     Node 1, Type 0, BuildingBlock: ICAMEG_clean_sbu_1, # of connection points: 4
#     Node 2, Type 0, BuildingBlock: ICAMEG_clean_sbu_1, # of connection points: 4
#     Node 3, Type 0, BuildingBlock: ICAMEG_clean_sbu_1, # of connection points: 4
#     Node 4, Type 0, BuildingBlock: ICAMEG_clean_sbu_1, # of connection points: 4
#     Node 5, Type 0, BuildingBlock: ICAMEG_clean_sbu_1, # of connection points: 4
#     Node 6, Type 0, BuildingBlock: ICAMEG_clean_sbu_1, # of connection points: 4
#     Node 7, Type 0, BuildingBlock: ICAMEG_clean_sbu_1, # of connection points: 4
#     Node 8, Type 0, BuildingBlock: ICAMEG_clean_sbu_1, # of connection points: 4
#     Node 9, Type 0, BuildingBlock: ICAMEG_clean_sbu_1, # of connection points: 4
#     Node 10, Type 0, BuildingBlock: ICAMEG_clean_sbu_1, # of connection points: 4
#     Node 11, Type 0, BuildingBlock: ICAMEG_clean_sbu_1, # of connection points: 4
#     Node 12, Type 0, BuildingBlock: ICAMEG_clean_sbu_1, # of connection points: 4
#     Node 13, Type 0, BuildingBlock: ICAMEG_clean_sbu_1, # of connection points: 4
#     Node 14, Type 0, BuildingBlock: ICAMEG_clean_sbu_1, # of connection points: 4
#     Node 15, Type 0, BuildingBlock: ICAMEG_clean_sbu_1, # of connection points: 4
#     Edge 16, Type (0, 0), BuildingBlock: XIVTED_clean_linker_0, # of connection points: 2
#     Edge 17, Type (0, 0), BuildingBlock: XIVTED_clean_linker_0, # of connection points: 2
#     Edge 18, Type (0, 0), BuildingBlock: XIVTED_clean_linker_0, # of connection points: 2
#     Edge 19, Type (0, 0), BuildingBlock: XIVTED_clean_linker_0, # of connection points: 2
#     Edge 20, Type (0, 0), BuildingBlock: XIVTED_clean_linker_0, # of connection points: 2
#     Edge 21, Type (0, 0), BuildingBlock: XIVTED_clean_linker_0, # of connection points: 2
#     Edge 22, Type (0, 0), BuildingBlock: XIVTED_clean_linker_0, # of connection points: 2
#     Edge 23, Type (0, 0), BuildingBlock: XIVTED_clean_linker_0, # of connection points: 2
#     Edge 24, Type (0, 0), BuildingBlock: XIVTED_clean_linker_0, # of connection points: 2
#     Edge 25, Type (0, 0), BuildingBlock: XIVTED_clean_linker_0, # of connection points: 2
#     Edge 26, Type (0, 0), BuildingBlock: XIVTED_clean_linker_0, # of connection points: 2
#     Edge 27, Type (0, 0), BuildingBlock: XIVTED_clean_linker_0, # of connection points: 2
#     Edge 28, Type (0, 0), BuildingBlock: XIVTED_clean_linker_0, # of connection points: 2
#     Edge 29, Type (0, 0), BuildingBlock: XIVTED_clean_linker_0, # of connection points: 2
#     Edge 30, Type (0, 0), BuildingBlock: XIVTED_clean_linker_0, # of connection points: 2
#     Edge 31, Type (0, 0), BuildingBlock: XIVTED_clean_linker_0, # of connection points: 2
#     Edge 32, Type (0, 0), BuildingBlock: XIVTED_clean_linker_0, # of connection points: 2
#     Edge 33, Type (0, 0), BuildingBlock: XIVTED_clean_linker_0, # of connection points: 2
#     Edge 34, Type (0, 0), BuildingBlock: XIVTED_clean_linker_0, # of connection points: 2
#     Edge 35, Type (0, 0), BuildingBlock: XIVTED_clean_linker_0, # of connection points: 2
#     Edge 36, Type (0, 0), BuildingBlock: XIVTED_clean_linker_0, # of connection points: 2
#     Edge 37, Type (0, 0), BuildingBlock: XIVTED_clean_linker_0, # of connection points: 2
#     Edge 38, Type (0, 0), BuildingBlock: XIVTED_clean_linker_0, # of connection points: 2
#     Edge 39, Type (0, 0), BuildingBlock: XIVTED_clean_linker_0, # of connection points: 2
#     Edge 40, Type (0, 0), BuildingBlock: XIVTED_clean_linker_0, # of connection points: 2
#     Edge 41, Type (0, 0), BuildingBlock: XIVTED_clean_linker_0, # of connection points: 2
#     Edge 42, Type (0, 0), BuildingBlock: XIVTED_clean_linker_0, # of connection points: 2
#     Edge 43, Type (0, 0), BuildingBlock: XIVTED_clean_linker_0, # of connection points: 2
#     Edge 44, Type (0, 0), BuildingBlock: XIVTED_clean_linker_0, # of connection points: 2
#     Edge 45, Type (0, 0), BuildingBlock: XIVTED_clean_linker_0, # of connection points: 2
#     Edge 46, Type (0, 0), BuildingBlock: XIVTED_clean_linker_0, # of connection points: 2
#     Edge 47, Type (0, 0), BuildingBlock: XIVTED_clean_linker_0, # of connection points: 2
# Relax obj value: 0.183
# Max RMSD: 0.231
# Mean RMSD: 0.183
data_MOF--net-gsi--node1-ICAMEG_clean_sbu_1--edge1-XIVTED_clean_linker_0
_symmetry_space_group_name_H-M    P1
_symmetry_Int_Tables_number       1
_symmetry_cell_setting            triclinic
loop_
_symmetry_equiv_pos_as_xyz
'x, y, z'
_cell_length_a     36.497395
_cell_length_b     47.868436
_cell_length_c     47.98905
_cell_angle_alpha  89.929824
_cell_angle_beta   90.022493
_cell_angle_gamma 99.632747
loop_
_atom_site_label
_atom_site_type_symbol
_atom_site_fract_x
_atom_site_fract_y
_atom_site_fract_z
_atom_type_partial_charge
Co0 Co 0.1467 0.1591 0.18771 0.0
Co1 Co 0.19389 0.1956 0.13342 0.0
O2 O 0.17736 0.16021 0.15402 0.0
C3 C 0.20166 0.11961 0.19967 0.0
O4 O 0.22252 0.12996 0.17866 0.0
C5 C 0.17586 0.17794 0.07476 0.0
O6 O 0.15406 0.19712 0.07331 0.0
O7 O 0.14105 0.20153 0.12933 0.0
O8 O 0.11954 0.18854 0.17191 0.0
H9 H 0.19386 0.29772 0.10911 0.0
H10 H 0.15083 0.10602 0.15675 0.0
O11 O 0.17199 0.12913 0.20549 0.0
H12 H 0.01778 0.11344 0.15901 0.0
H13 H 0.06996 0.11241 0.26752 0.0
H14 H 0.12197 0.20326 0.22291 0.0
H15 H 0.0642 0.14997 0.18122 0.0
H16 H 0.10751 0.11335 0.22472 0.0
O17 O 0.19079 0.1731 0.0979 0.0
H18 H 0.17461 0.25324 0.13515 0.0
H19 H 0.24786 0.21262 0.0869 0.0
H20 H 0.08432 0.20326 0.26557 0.0
H21 H 0.10531 0.06885 0.13457 0.0
H22 H 0.05801 0.15758 0.28817 0.0
H23 H 0.03821 0.07243 0.13559 0.0
O24 O 0.18409 0.18908 0.20487 0.0
H25 H 0.29809 0.13899 0.12854 0.0
H26 H 0.26478 0.23185 0.15144 0.0
H27 H 0.32954 0.22455 0.15723 0.0
H28 H 0.34665 0.17785 0.14559 0.0
H29 H 0.23345 0.14704 0.12377 0.0
H30 H 0.26777 0.25661 0.06029 0.0
H31 H 0.24074 0.29959 0.07136 0.0
O32 O 0.19889 0.21863 0.16871 0.0
C33 C 0.11664 0.20066 0.1485 0.0
C34 C 0.20584 0.27913 0.10409 0.0
C35 C 0.24731 0.25606 0.07668 0.0
N36 N 0.21002 0.23032 0.11255 0.0
C37 C 0.19505 0.25388 0.11876 0.0
C38 C 0.23588 0.2312 0.09181 0.0
C39 C 0.23214 0.28017 0.08291 0.0
C40 C 0.1217 0.10759 0.15758 0.0
N41 N 0.11022 0.12996 0.17062 0.0
C42 C 0.09604 0.08654 0.14485 0.0
C43 C 0.0584 0.08858 0.14539 0.0
C44 C 0.04692 0.11158 0.15852 0.0
C45 C 0.07337 0.13223 0.17102 0.0
C46 C 0.08122 0.13244 0.25784 0.0
C47 C 0.11046 0.18329 0.23253 0.0
C48 C 0.10258 0.13312 0.23363 0.0
N49 N 0.11671 0.15834 0.22119 0.0
C50 C 0.08924 0.18343 0.25673 0.0
C51 C 0.07451 0.15779 0.26941 0.0
C52 C 0.19882 0.21302 0.19477 0.0
C53 C 0.29099 0.15942 0.13375 0.0
C54 C 0.27175 0.21132 0.14692 0.0
C55 C 0.3086 0.20738 0.14996 0.0
C56 C 0.3182 0.18121 0.14335 0.0
N57 N 0.24511 0.18981 0.13767 0.0
C58 C 0.25442 0.16415 0.131 0.0
Co59 Co 0.86711 0.34814 0.17261 0.0
Co60 Co 0.82109 0.30611 0.12225 0.0
O61 O 0.83613 0.34395 0.13888 0.0
C62 C 0.81004 0.38461 0.18633 0.0
O63 O 0.78373 0.36636 0.17461 0.0
C64 C 0.82825 0.34759 0.07338 0.0
O65 O 0.84213 0.36911 0.08921 0.0
O66 O 0.87455 0.3022 0.11799 0.0
O67 O 0.89287 0.31612 0.16095 0.0
H68 H 0.82717 0.20266 0.11035 0.0
H69 H 0.86532 0.39887 0.13777 0.0
O70 O 0.84363 0.3806 0.18605 0.0
H71 H 0.99684 0.38677 0.13963 0.0
H72 H 0.94628 0.40204 0.24737 0.0
H73 H 0.88922 0.30753 0.21344 0.0
H74 H 0.94947 0.35382 0.16529 0.0
H75 H 0.90876 0.39708 0.20437 0.0
O76 O 0.82093 0.3226 0.0835 0.0
H77 H 0.84401 0.25014 0.13113 0.0
H78 H 0.76805 0.28207 0.07749 0.0
H79 H 0.9268 0.31152 0.25641 0.0
H80 H 0.91186 0.4325 0.11199 0.0
H81 H 0.95565 0.35905 0.27364 0.0
H82 H 0.97815 0.4265 0.11278 0.0
O83 O 0.82822 0.32135 0.19237 0.0
H84 H 0.71118 0.35728 0.11826 0.0
H85 H 0.75375 0.26818 0.14364 0.0
H86 H 0.68811 0.27252 0.15058 0.0
H87 H 0.66632 0.31726 0.13769 0.0
H88 H 0.77661 0.35226 0.11217 0.0
H89 H 0.75067 0.23499 0.05596 0.0
H90 H 0.78019 0.19484 0.07246 0.0
O91 O 0.81934 0.28736 0.15995 0.0
C92 C 0.89765 0.30353 0.13812 0.0
C93 C 0.81407 0.21998 0.10301 0.0
C94 C 0.77118 0.23812 0.07246 0.0
N95 N 0.80698 0.26888 0.10563 0.0
C96 C 0.82344 0.24692 0.11474 0.0
C97 C 0.78124 0.26477 0.08467 0.0
C98 C 0.78773 0.21561 0.08174 0.0
C99 C 0.89413 0.3962 0.13827 0.0
N100 N 0.90461 0.37437 0.15292 0.0
C101 C 0.92035 0.41528 0.12361 0.0
C102 C 0.95754 0.41188 0.12404 0.0
C103 C 0.96803 0.38958 0.13908 0.0
C104 C 0.94104 0.37091 0.15347 0.0
C105 C 0.93393 0.38121 0.24004 0.0
C106 C 0.90184 0.32828 0.22072 0.0
C107 C 0.91259 0.37826 0.21572 0.0
N108 N 0.89705 0.35201 0.20627 0.0
C109 C 0.92302 0.33041 0.2451 0.0
C110 C 0.93917 0.35708 0.25477 0.0
C111 C 0.81543 0.29615 0.1847 0.0
C112 C 0.72025 0.33758 0.12371 0.0
C113 C 0.7446 0.28775 0.13794 0.0
C114 C 0.70732 0.29006 0.14192 0.0
C115 C 0.69512 0.31515 0.13468 0.0
N116 N 0.76911 0.30975 0.12693 0.0
C117 C 0.75733 0.33451 0.12004 0.0
Co118 Co 0.14469 0.87991 0.29921 0.0
Co119 Co 0.19759 0.83737 0.33226 0.0
O120 O 0.18394 0.87515 0.32626 0.0
C121 C 0.20083 0.93474 0.29471 0.0
O122 O 0.22236 0.92731 0.31431 0.0
C123 C 0.20808 0.86568 0.38953 0.0
O124 O 0.19408 0.88799 0.38174 0.0
O125 O 0.14543 0.82218 0.3431 0.0
O126 O 0.11655 0.84116 0.30845 0.0
H127 H 0.17934 0.73134 0.3226 0.0
H128 H 0.16468 0.92318 0.34402 0.0
O129 O 0.17069 0.91873 0.28783 0.0
H130 H 0.03062 0.88876 0.35528 0.0
H131 H 0.05602 0.93278 0.24903 0.0
H132 H 0.1034 0.84245 0.25647 0.0
H133 H 0.06582 0.86979 0.31804 0.0
H134 H 0.10424 0.92699 0.28358 0.0
O135 O 0.21026 0.84563 0.3725 0.0
H136 H 0.16371 0.779 0.31564 0.0
H137 H 0.25894 0.81541 0.36204 0.0
H138 H 0.05492 0.84723 0.22183 0.0
H139 H 0.13054 0.94295 0.38124 0.0
H140 H 0.0309 0.89267 0.21795 0.0
H141 H 0.06293 0.92573 0.38714 0.0
O142 O 0.1726 0.86388 0.26933 0.0
H143 H 0.31579 0.90873 0.33254 0.0
H144 H 0.25247 0.81809 0.29372 0.0
H145 H 0.31625 0.83723 0.27871 0.0
H146 H 0.34846 0.88283 0.29824 0.0
H147 H 0.25186 0.88902 0.34667 0.0
H148 H 0.27539 0.7681 0.36969 0.0
H149 H 0.23559 0.72566 0.34975 0.0
O150 O 0.18603 0.82636 0.29256 0.0
C151 C 0.11701 0.82293 0.32786 0.0
C152 C 0.19695 0.74968 0.33134 0.0
C153 C 0.25083 0.7703 0.3578 0.0
N154 N 0.21044 0.80003 0.3383 0.0
C155 C 0.18827 0.77675 0.32744 0.0
C156 C 0.24129 0.79704 0.35347 0.0
C157 C 0.22849 0.7465 0.3466 0.0
C158 C 0.13531 0.91581 0.34607 0.0
N159 N 0.11736 0.89563 0.32847 0.0
C160 C 0.11608 0.92698 0.36737 0.0
C161 C 0.07817 0.91728 0.37071 0.0
C162 C 0.06005 0.89653 0.35285 0.0
C163 C 0.08019 0.88584 0.33181 0.0
C164 C 0.0662 0.91286 0.25057 0.0
C165 C 0.09292 0.86221 0.25505 0.0
C166 C 0.09357 0.90947 0.27005 0.0
N167 N 0.1064 0.8843 0.27222 0.0
C168 C 0.06554 0.86483 0.23533 0.0
C169 C 0.05211 0.89034 0.23314 0.0
C170 C 0.18284 0.8398 0.27006 0.0
C171 C 0.30213 0.88878 0.32397 0.0
C172 C 0.26617 0.83799 0.30229 0.0
C173 C 0.30237 0.84869 0.29373 0.0
C174 C 0.32042 0.87426 0.3047 0.0
N175 N 0.24839 0.8523 0.32129 0.0
C176 C 0.26591 0.87742 0.33203 0.0
Co177 Co 0.85328 0.61779 0.30254 0.0
Co178 Co 0.81115 0.66594 0.33723 0.0
O179 O 0.81641 0.62629 0.32973 0.0
C180 C 0.80821 0.57408 0.26728 0.0
O181 O 0.81405 0.59247 0.24679 0.0
C182 C 0.79961 0.63699 0.39386 0.0
O183 O 0.81657 0.61611 0.38634 0.0
O184 O 0.86433 0.6745 0.34836 0.0
O185 O 0.88831 0.65357 0.31254 0.0
H186 H 0.85126 0.77162 0.33302 0.0
H187 H 0.82422 0.57342 0.34361 0.0
O188 O 0.81962 0.58135 0.29188 0.0
H189 H 0.95949 0.59368 0.35984 0.0
H190 H 0.92955 0.55536 0.25174 0.0
H191 H 0.89953 0.65171 0.25976 0.0
H192 H 0.9309 0.61894 0.32308 0.0
H193 H 0.88428 0.56598 0.28664 0.0
O194 O 0.79624 0.65689 0.37691 0.0
H195 H 0.85625 0.72183 0.32345 0.0
H196 H 0.75594 0.6941 0.36772 0.0
H197 H 0.94517 0.64207 0.22469 0.0
H198 H 0.85173 0.54735 0.38036 0.0
H199 H 0.96042 0.59359 0.22049 0.0
H200 H 0.91983 0.5575 0.38871 0.0
O201 O 0.82969 0.63877 0.27366 0.0
H202 H 0.68342 0.60721 0.33507 0.0
H203 H 0.76246 0.69362 0.29967 0.0
H204 H 0.69732 0.68207 0.28418 0.0
H205 H 0.65723 0.63865 0.30201 0.0
H206 H 0.74892 0.61936 0.34972 0.0
H207 H 0.75004 0.7436 0.37792 0.0
H208 H 0.79784 0.78279 0.36042 0.0
O209 O 0.82518 0.67771 0.29805 0.0
C210 C 0.89154 0.67137 0.33264 0.0
C211 C 0.83022 0.75473 0.34073 0.0
C212 C 0.77345 0.73901 0.36596 0.0
N213 N 0.8064 0.70501 0.34496 0.0
C214 C 0.83288 0.72647 0.33536 0.0
C215 C 0.77702 0.711 0.36019 0.0
C216 C 0.80026 0.76098 0.35612 0.0
C217 C 0.85391 0.57778 0.34699 0.0
N218 N 0.87589 0.59765 0.33121 0.0
C219 C 0.86931 0.56303 0.36788 0.0
C220 C 0.90752 0.56876 0.37258 0.0
C221 C 0.92977 0.58908 0.35642 0.0
C222 C 0.91339 0.60342 0.33572 0.0
C223 C 0.92318 0.57658 0.25339 0.0
C224 C 0.90612 0.63059 0.25814 0.0
C225 C 0.89754 0.58272 0.2731 0.0
N226 N 0.88934 0.60948 0.27531 0.0
C227 C 0.93194 0.62525 0.23821 0.0
C228 C 0.94048 0.59804 0.23586 0.0
C229 C 0.82482 0.66436 0.27515 0.0
C230 C 0.70056 0.62625 0.32725 0.0
C231 C 0.74528 0.67463 0.30747 0.0
C232 C 0.70836 0.66823 0.29866 0.0
C233 C 0.6859 0.64388 0.30867 0.0
N234 N 0.75944 0.65729 0.3258 0.0
C235 C 0.73764 0.63329 0.33557 0.0
Co236 Co 0.36837 0.84521 0.67448 0.0
Co237 Co 0.31701 0.80416 0.62611 0.0
O238 O 0.33603 0.84183 0.64157 0.0
C239 C 0.3161 0.88505 0.68983 0.0
O240 O 0.28744 0.86616 0.68236 0.0
C241 C 0.32544 0.84449 0.57639 0.0
O242 O 0.34032 0.86618 0.59164 0.0
O243 O 0.36911 0.79729 0.62092 0.0
O244 O 0.38996 0.81087 0.66341 0.0
H245 H 0.31277 0.69912 0.61637 0.0
H246 H 0.37041 0.89542 0.63816 0.0
O247 O 0.34903 0.87994 0.68697 0.0
H248 H 0.49847 0.87509 0.63783 0.0
H249 H 0.45532 0.89746 0.74576 0.0
H250 H 0.38756 0.80434 0.71628 0.0
H251 H 0.4496 0.84565 0.66541 0.0
H252 H 0.41609 0.89314 0.70363 0.0
O253 O 0.31701 0.81984 0.5871 0.0
H254 H 0.33455 0.74661 0.63588 0.0
H255 H 0.26102 0.78177 0.58268 0.0
H256 H 0.42677 0.80765 0.75839 0.0
H257 H 0.41854 0.9256 0.61045 0.0
H258 H 0.46098 0.85448 0.7734 0.0
H259 H 0.48309 0.91545 0.61013 0.0
O260 O 0.32829 0.82097 0.69572 0.0
H261 H 0.21354 0.862 0.62435 0.0
H262 H 0.24795 0.76985 0.64917 0.0
H263 H 0.18403 0.77796 0.65755 0.0
H264 H 0.16633 0.82426 0.64497 0.0
H265 H 0.27717 0.85319 0.61673 0.0
H266 H 0.23873 0.73469 0.56241 0.0
H267 H 0.26452 0.69292 0.57935 0.0
O268 O 0.3151 0.78633 0.66421 0.0
C269 C 0.39261 0.79756 0.64066 0.0
C270 C 0.30126 0.71714 0.60886 0.0
C271 C 0.25975 0.73712 0.57855 0.0
N272 N 0.29899 0.76695 0.61054 0.0
C273 C 0.31344 0.74409 0.61987 0.0
C274 C 0.27259 0.76375 0.59004 0.0
C275 C 0.27421 0.71369 0.58807 0.0
C276 C 0.39846 0.89094 0.63817 0.0
N277 N 0.40711 0.86874 0.65328 0.0
C278 C 0.42558 0.90807 0.62242 0.0
C279 C 0.46179 0.90235 0.62224 0.0
C280 C 0.47043 0.8797 0.63775 0.0
C281 C 0.44258 0.86302 0.65324 0.0
C282 C 0.44057 0.87693 0.73943 0.0
C283 C 0.40247 0.82477 0.7226 0.0
C284 C 0.41821 0.87437 0.71564 0.0
N285 N 0.39963 0.84849 0.70743 0.0
C286 C 0.42458 0.82652 0.7465 0.0
C287 C 0.44374 0.85281 0.75492 0.0
C288 C 0.31326 0.79597 0.68887 0.0
C289 C 0.22079 0.84162 0.62965 0.0
C290 C 0.24055 0.79005 0.64349 0.0
C291 C 0.20425 0.79451 0.64833 0.0
C292 C 0.19435 0.82047 0.64128 0.0
N293 N 0.26632 0.81078 0.63176 0.0
C294 C 0.25684 0.8364 0.62511 0.0
Co295 Co 0.9037 0.88465 0.84155 0.0
Co296 Co 0.81842 0.88718 0.87052 0.0
O297 O 0.8704 0.88101 0.87401 0.0
C298 C 0.9238 0.83535 0.87507 0.0
O299 O 0.89953 0.83785 0.89465 0.0
C300 C 0.84594 0.91363 0.9253 0.0
O301 O 0.8802 0.91834 0.91601 0.0
O302 O 0.8359 0.92589 0.85556 0.0
O303 O 0.88028 0.91671 0.82636 0.0
H304 H 0.71108 0.91929 0.82144 0.0
H305 H 0.93763 0.88756 0.8984 0.0
O306 O 0.92854 0.85243 0.85448 0.0
H307 H 0.99166 0.97697 0.85232 0.0
H308 H 0.02494 0.8864 0.79086 0.0
H309 H 0.8919 0.89219 0.78113 0.0
H310 H 0.94662 0.94152 0.82759 0.0
H311 H 0.98426 0.88305 0.83218 0.0
O312 O 0.81933 0.90264 0.90952 0.0
H313 H 0.77535 0.91024 0.82615 0.0
H314 H 0.75231 0.87876 0.90821 0.0
H315 H 0.93166 0.89589 0.73928 0.0
H316 H 0.98307 0.92212 0.92366 0.0
H317 H 0.9987 0.89299 0.74401 0.0
H318 H 0.01038 0.96734 0.90069 0.0
O319 O 0.86749 0.85618 0.82167 0.0
H320 H 0.81886 0.80648 0.93764 0.0
H321 H 0.76108 0.83824 0.853 0.0
H322 H 0.74028 0.78984 0.87065 0.0
H323 H 0.76914 0.77367 0.91332 0.0
H324 H 0.83919 0.85457 0.91906 0.0
H325 H 0.68788 0.88765 0.90443 0.0
H326 H 0.66684 0.90796 0.86076 0.0
O327 O 0.81424 0.87128 0.83159 0.0
C328 C 0.85797 0.93267 0.83513 0.0
C329 C 0.71988 0.91035 0.84054 0.0
C330 C 0.70688 0.89263 0.88713 0.0
N331 N 0.76754 0.89381 0.86735 0.0
C332 C 0.75623 0.90512 0.84331 0.0
C333 C 0.74344 0.8877 0.88917 0.0
C334 C 0.69509 0.90402 0.86262 0.0
C335 C 0.9497 0.90685 0.88801 0.0
N336 N 0.93954 0.91224 0.8614 0.0
C337 C 0.97529 0.92651 0.90254 0.0
C338 C 0.99053 0.9519 0.88967 0.0
C339 C 0.98001 0.95733 0.86256 0.0
C340 C 0.95433 0.93718 0.84869 0.0
C341 C 0.9958 0.88776 0.78854 0.0
C342 C 0.9211 0.89109 0.78337 0.0
C343 C 0.9726 0.88582 0.81185 0.0
N344 N 0.93581 0.88769 0.80908 0.0
C345 C 0.94345 0.89312 0.75959 0.0
C346 C 0.98105 0.89146 0.76226 0.0
C347 C 0.83287 0.85555 0.81802 0.0
C348 C 0.80605 0.81327 0.91903 0.0
C349 C 0.77405 0.83133 0.87144 0.0
C350 C 0.76201 0.80391 0.88141 0.0
C351 C 0.77818 0.79487 0.90536 0.0
N352 N 0.80148 0.84927 0.88492 0.0
C353 C 0.81739 0.84054 0.90845 0.0
Co354 Co 0.0963 0.62954 0.84361 0.0
Co355 Co 0.17949 0.62722 0.87569 0.0
O356 O 0.12746 0.63322 0.87722 0.0
C357 C 0.08255 0.68409 0.86798 0.0
O358 O 0.11796 0.69041 0.87426 0.0
C359 C 0.14981 0.6038 0.93167 0.0
O360 O 0.11543 0.60475 0.92436 0.0
O361 O 0.16316 0.58863 0.86009 0.0
O362 O 0.12141 0.59825 0.82884 0.0
H363 H 0.28995 0.59616 0.83017 0.0
H364 H 0.0583 0.62732 0.89823 0.0
O365 O 0.06963 0.66042 0.85672 0.0
H366 H 0.01086 0.53577 0.8534 0.0
H367 H 0.97719 0.62632 0.78971 0.0
H368 H 0.11134 0.62331 0.78347 0.0
H369 H 0.05625 0.5716 0.82926 0.0
H370 H 0.01589 0.62971 0.8321 0.0
O371 O 0.17647 0.61098 0.91456 0.0
H372 H 0.22539 0.60498 0.83273 0.0
H373 H 0.24324 0.63522 0.91565 0.0
H374 H 0.0736 0.61961 0.74056 0.0
H375 H 0.01249 0.59223 0.923 0.0
H376 H 0.00602 0.62111 0.74353 0.0
H377 H 0.98858 0.54601 0.9006 0.0
O378 O 0.13319 0.65857 0.82474 0.0
H379 H 0.17351 0.70799 0.94172 0.0
H380 H 0.23832 0.67602 0.86066 0.0
H381 H 0.25812 0.72426 0.87891 0.0
H382 H 0.22577 0.74051 0.91983 0.0
H383 H 0.15416 0.66016 0.92251 0.0
H384 H 0.3079 0.62649 0.91404 0.0
H385 H 0.3317 0.60693 0.87103 0.0
O386 O 0.18585 0.64363 0.83703 0.0
C387 C 0.14286 0.58212 0.83865 0.0
C388 C 0.27994 0.60476 0.849 0.0
C389 C 0.28999 0.62175 0.89609 0.0
N390 N 0.23059 0.62077 0.87424 0.0
C391 C 0.24342 0.60987 0.85056 0.0
C392 C 0.25331 0.62657 0.89689 0.0
C393 C 0.30333 0.61079 0.87194 0.0
C394 C 0.04787 0.60732 0.8883 0.0
N395 N 0.06016 0.60146 0.86243 0.0
C396 C 0.02201 0.5875 0.90245 0.0
C397 C 0.00864 0.56157 0.88988 0.0
C398 C 0.02117 0.55579 0.86342 0.0
C399 C 0.04707 0.57611 0.84992 0.0
C400 C 0.0066 0.62558 0.78815 0.0
C401 C 0.08191 0.62382 0.78494 0.0
C402 C 0.02867 0.62754 0.81208 0.0
N403 N 0.0658 0.62649 0.81027 0.0
C404 C 0.0607 0.62179 0.76057 0.0
C405 C 0.02279 0.62265 0.76225 0.0
C406 C 0.16801 0.65908 0.82233 0.0
C407 C 0.188 0.7011 0.924 0.0
C408 C 0.22397 0.68291 0.87842 0.0
C409 C 0.23539 0.71026 0.8887 0.0
C410 C 0.21725 0.71935 0.91167 0.0
N411 N 0.19535 0.66503 0.8907 0.0
C412 C 0.17734 0.67389 0.91314 0.0
Co413 Co 0.82542 0.16194 0.64198 0.0
Co414 Co 0.81006 0.15987 0.71249 0.0
O415 O 0.80887 0.1411 0.67604 0.0
C416 C 0.75185 0.13509 0.61767 0.0
O417 O 0.73409 0.14889 0.63538 0.0
C418 C 0.84701 0.11011 0.72424 0.0
O419 O 0.86864 0.11728 0.70264 0.0
O420 O 0.86399 0.1759 0.70807 0.0
O421 O 0.86492 0.18757 0.66282 0.0
H422 H 0.8409 0.24128 0.77922 0.0
H423 H 0.81912 0.0995 0.64313 0.0
O424 O 0.78699 0.1366 0.6194 0.0
H425 H 0.95033 0.13545 0.62048 0.0
H426 H 0.85729 0.17148 0.53989 0.0
H427 H 0.84706 0.22279 0.62784 0.0
H428 H 0.90605 0.16848 0.6274 0.0
H429 H 0.83776 0.14537 0.58315 0.0
O430 O 0.82261 0.12503 0.73097 0.0
H431 H 0.83945 0.21754 0.73356 0.0
H432 H 0.78331 0.14099 0.76932 0.0
H433 H 0.86709 0.24972 0.58511 0.0
H434 H 0.86238 0.06566 0.63612 0.0
H435 H 0.87228 0.22404 0.54071 0.0
H436 H 0.92853 0.08361 0.62478 0.0
O437 O 0.7902 0.18881 0.64897 0.0
H438 H 0.69722 0.08374 0.70836 0.0
H439 H 0.74325 0.18437 0.72906 0.0
H440 H 0.67627 0.1658 0.73302 0.0
H441 H 0.65286 0.11511 0.72272 0.0
H442 H 0.76399 0.10327 0.70435 0.0
H443 H 0.78444 0.16386 0.81541 0.0
H444 H 0.81319 0.21441 0.82054 0.0
O445 O 0.79672 0.1949 0.69529 0.0
C446 C 0.87952 0.18936 0.68705 0.0
C447 C 0.82821 0.21926 0.77724 0.0
C448 C 0.79657 0.17579 0.79756 0.0
N449 N 0.81115 0.17794 0.74873 0.0
C450 C 0.82725 0.20571 0.75142 0.0
C451 C 0.79613 0.16293 0.77142 0.0
C452 C 0.81269 0.20417 0.80042 0.0
C453 C 0.8478 0.10745 0.63799 0.0
N454 N 0.86002 0.13593 0.63563 0.0
C455 C 0.87219 0.08819 0.63413 0.0
C456 C 0.90932 0.09828 0.62781 0.0
C457 C 0.92157 0.12736 0.62542 0.0
C458 C 0.8964 0.14598 0.62946 0.0
C459 C 0.85517 0.18291 0.55911 0.0
C460 C 0.84943 0.21145 0.60864 0.0
C461 C 0.84401 0.16825 0.58367 0.0
N462 N 0.84143 0.18253 0.60805 0.0
C463 C 0.86071 0.22682 0.58449 0.0
C464 C 0.86359 0.2124 0.55959 0.0
C465 C 0.78572 0.20194 0.67148 0.0
C466 C 0.7071 0.10584 0.71298 0.0
C467 C 0.7333 0.16231 0.72445 0.0
C468 C 0.69533 0.1519 0.72679 0.0
C469 C 0.68222 0.12346 0.72101 0.0
N470 N 0.75755 0.14488 0.71661 0.0
C471 C 0.74489 0.11699 0.71083 0.0
Co472 Co 0.18088 0.35262 0.64973 0.0
Co473 Co 0.18949 0.35193 0.72091 0.0
O474 O 0.19582 0.37168 0.68492 0.0
C475 C 0.25793 0.37557 0.62867 0.0
O476 O 0.2725 0.35883 0.64557 0.0
C477 C 0.15582 0.4034 0.73083 0.0
O478 O 0.13612 0.39713 0.70811 0.0
O479 O 0.1355 0.33841 0.71352 0.0
O480 O 0.1375 0.32847 0.66797 0.0
H481 H 0.14656 0.2697 0.78484 0.0
H482 H 0.19316 0.41526 0.65263 0.0
O483 O 0.2233 0.37672 0.62975 0.0
H484 H 0.06315 0.38749 0.6221 0.0
H485 H 0.15892 0.34785 0.54605 0.0
H486 H 0.1547 0.2929 0.63332 0.0
H487 H 0.10263 0.35131 0.63061 0.0
H488 H 0.17644 0.37178 0.59072 0.0
O489 O 0.17817 0.38732 0.73903 0.0
H490 H 0.15404 0.29463 0.73969 0.0
H491 H 0.21178 0.36846 0.7792 0.0
H492 H 0.13654 0.26816 0.58913 0.0
H493 H 0.15478 0.45221 0.64409 0.0
H494 H 0.13863 0.29567 0.54508 0.0
H495 H 0.08923 0.43839 0.62879 0.0
O496 O 0.212 0.32307 0.65804 0.0
H497 H 0.30727 0.42332 0.72412 0.0
H498 H 0.25169 0.32344 0.74025 0.0
H499 H 0.31878 0.33879 0.74815 0.0
H500 H 0.34699 0.38909 0.74016 0.0
H501 H 0.24032 0.407 0.71621 0.0
H502 H 0.20467 0.34437 0.82482 0.0
H503 H 0.17207 0.29456 0.82781 0.0
O504 O 0.20112 0.31633 0.7039 0.0
C505 C 0.12093 0.32642 0.69148 0.0
C506 C 0.1609 0.29137 0.7838 0.0
C507 C 0.19347 0.3333 0.80624 0.0
N508 N 0.18349 0.33293 0.75677 0.0
C509 C 0.16528 0.3056 0.75828 0.0
C510 C 0.1973 0.34686 0.78036 0.0
C511 C 0.17519 0.30535 0.8079 0.0
C512 C 0.16474 0.4091 0.64577 0.0
N513 N 0.15016 0.38115 0.64211 0.0
C514 C 0.14311 0.43011 0.64105 0.0
C515 C 0.10632 0.42234 0.63251 0.0
C516 C 0.09166 0.39379 0.62878 0.0
C517 C 0.11411 0.37336 0.63374 0.0
C518 C 0.15787 0.33563 0.56511 0.0
C519 C 0.1555 0.30505 0.61426 0.0
C520 C 0.16787 0.34905 0.59047 0.0
N521 N 0.16646 0.33377 0.61465 0.0
C522 C 0.14526 0.29091 0.58929 0.0
C523 C 0.14647 0.30635 0.56458 0.0
C524 C 0.21294 0.30893 0.6805 0.0
C525 C 0.29528 0.40137 0.72776 0.0
C526 C 0.26376 0.34535 0.73664 0.0
C527 C 0.30176 0.35393 0.7412 0.0
C528 C 0.31756 0.38215 0.73672 0.0
N529 N 0.24205 0.36436 0.72793 0.0
C530 C 0.25737 0.39203 0.7234 0.0
Co531 Co 0.59877 0.12775 0.33926 0.0
Co532 Co 0.68307 0.12637 0.36991 0.0
O533 O 0.63081 0.13169 0.37242 0.0
C534 C 0.58409 0.18155 0.36467 0.0
O535 O 0.61957 0.1883 0.37057 0.0
C536 C 0.65516 0.10154 0.42568 0.0
O537 O 0.62046 0.09953 0.41771 0.0
O538 O 0.66694 0.08763 0.35453 0.0
O539 O 0.62439 0.09704 0.32383 0.0
H540 H 0.79296 0.09652 0.32242 0.0
H541 H 0.56216 0.1246 0.39446 0.0
O542 O 0.57153 0.15799 0.35309 0.0
H543 H 0.51566 0.03299 0.34941 0.0
H544 H 0.47806 0.12305 0.28713 0.0
H545 H 0.61253 0.12214 0.27885 0.0
H546 H 0.5597 0.06951 0.32495 0.0
H547 H 0.51784 0.12677 0.32897 0.0
O548 O 0.6816 0.11049 0.40889 0.0
H549 H 0.72813 0.1045 0.32616 0.0
H550 H 0.74812 0.13544 0.40866 0.0
H551 H 0.57371 0.11813 0.23649 0.0
H552 H 0.51764 0.08882 0.41955 0.0
H553 H 0.50596 0.11857 0.24048 0.0
H554 H 0.49423 0.04257 0.39704 0.0
O555 O 0.63459 0.15734 0.32014 0.0
H556 H 0.67757 0.2067 0.43647 0.0
H557 H 0.74027 0.17591 0.35377 0.0
H558 H 0.75947 0.22431 0.37183 0.0
H559 H 0.72817 0.23996 0.41356 0.0
H560 H 0.65876 0.15869 0.41744 0.0
H561 H 0.81308 0.12759 0.40586 0.0
H562 H 0.83593 0.10809 0.36247 0.0
O563 O 0.68787 0.14266 0.33111 0.0
C564 C 0.64626 0.08106 0.33328 0.0
C565 C 0.78336 0.10509 0.34142 0.0
C566 C 0.79463 0.12249 0.38826 0.0
N567 N 0.73437 0.12058 0.36753 0.0
C568 C 0.74669 0.10972 0.34364 0.0
C569 C 0.75778 0.12682 0.38974 0.0
C570 C 0.80744 0.11157 0.3639 0.0
C571 C 0.55189 0.1046 0.38447 0.0
N572 N 0.56372 0.09911 0.35836 0.0
C573 C 0.52678 0.08439 0.3988 0.0
C574 C 0.51369 0.05843 0.38618 0.0
C575 C 0.52575 0.05302 0.35948 0.0
C576 C 0.55089 0.07373 0.3458 0.0
C577 C 0.50753 0.12277 0.28513 0.0
C578 C 0.58303 0.12219 0.28077 0.0
C579 C 0.53022 0.12492 0.30874 0.0
N580 N 0.56744 0.12445 0.30637 0.0
C581 C 0.56121 0.11998 0.2567 0.0
C582 C 0.5232 0.12026 0.25896 0.0
C583 C 0.66937 0.15813 0.317 0.0
C584 C 0.69156 0.20008 0.41836 0.0
C585 C 0.72635 0.18256 0.37186 0.0
C586 C 0.73744 0.20999 0.38204 0.0
C587 C 0.71989 0.21875 0.40546 0.0
N588 N 0.69859 0.1643 0.38467 0.0
C589 C 0.6812 0.1728 0.4076 0.0
Co590 Co 0.64662 0.65327 0.68155 0.0
Co591 Co 0.6884 0.69655 0.63 0.0
O592 O 0.67761 0.65887 0.64781 0.0
C593 C 0.70436 0.61469 0.68948 0.0
O594 O 0.72171 0.62353 0.66638 0.0
C595 C 0.68536 0.65397 0.58243 0.0
O596 O 0.67453 0.63228 0.59892 0.0
O597 O 0.63416 0.69646 0.6253 0.0
O598 O 0.61582 0.68183 0.66812 0.0
H599 H 0.66975 0.79709 0.61441 0.0
H600 H 0.65504 0.60293 0.6471 0.0
O601 O 0.67547 0.62436 0.69716 0.0
H602 H 0.52032 0.60355 0.65114 0.0
H603 H 0.57445 0.59725 0.75853 0.0
H604 H 0.61731 0.69265 0.71996 0.0
H605 H 0.56419 0.64035 0.67525 0.0
H606 H 0.61205 0.60344 0.7156 0.0
O607 O 0.69039 0.67922 0.59189 0.0
H608 H 0.65837 0.75006 0.63679 0.0
H609 H 0.73929 0.72238 0.58468 0.0
H610 H 0.57946 0.68739 0.7628 0.0
H611 H 0.61219 0.56556 0.623 0.0
H612 H 0.55776 0.63941 0.78236 0.0
H613 H 0.54421 0.56571 0.62485 0.0
O614 O 0.682 0.68332 0.70046 0.0
H615 H 0.80629 0.65475 0.62684 0.0
H616 H 0.75152 0.73889 0.6512 0.0
H617 H 0.81841 0.73958 0.6586 0.0
H618 H 0.84632 0.69734 0.64629 0.0
H619 H 0.73953 0.65481 0.62018 0.0
H620 H 0.75128 0.76905 0.5616 0.0
H621 H 0.7165 0.80684 0.57652 0.0
O622 O 0.68758 0.71624 0.66697 0.0
C623 C 0.61029 0.69363 0.64493 0.0
C624 C 0.68515 0.78082 0.60777 0.0
C625 C 0.73087 0.76507 0.57811 0.0
N626 N 0.69826 0.7335 0.61218 0.0
C627 C 0.67889 0.75415 0.62041 0.0
C628 C 0.72387 0.73865 0.59121 0.0
C629 C 0.71136 0.78627 0.5865 0.0
C630 C 0.62561 0.60306 0.64831 0.0
N631 N 0.6123 0.62376 0.66281 0.0
C632 C 0.60141 0.58187 0.63448 0.0
C633 C 0.56329 0.58199 0.63548 0.0
C634 C 0.54987 0.60322 0.65021 0.0
C635 C 0.57491 0.62407 0.66377 0.0
C636 C 0.58368 0.61826 0.75018 0.0
C637 C 0.60781 0.67169 0.72826 0.0
C638 C 0.60506 0.62191 0.72591 0.0
N639 N 0.61665 0.64838 0.71516 0.0
C640 C 0.58646 0.66885 0.75256 0.0
C641 C 0.57432 0.64193 0.76354 0.0
C642 C 0.692 0.70867 0.69206 0.0
C643 C 0.7945 0.67334 0.63218 0.0
C644 C 0.76331 0.72034 0.64586 0.0
C645 C 0.80129 0.7209 0.65005 0.0
C646 C 0.81693 0.69722 0.64313 0.0
N647 N 0.74141 0.69686 0.63502 0.0
C648 C 0.75661 0.67355 0.62829 0.0
Co649 Co 0.64549 0.38476 0.79681 0.0
Co650 Co 0.68882 0.33724 0.83165 0.0
O651 O 0.68289 0.37692 0.82412 0.0
C652 C 0.70912 0.43479 0.7896 0.0
O653 O 0.72938 0.4269 0.80981 0.0
C654 C 0.70655 0.36739 0.8876 0.0
O655 O 0.69691 0.39117 0.879 0.0
O656 O 0.6358 0.32816 0.84332 0.0
O657 O 0.61127 0.34911 0.80784 0.0
H658 H 0.65008 0.23146 0.82719 0.0
H659 H 0.6734 0.42818 0.8399 0.0
O660 O 0.67734 0.42071 0.78363 0.0
H661 H 0.53748 0.40897 0.85169 0.0
H662 H 0.56876 0.44524 0.74371 0.0
H663 H 0.59815 0.34909 0.75582 0.0
H664 H 0.56751 0.38416 0.81554 0.0
H665 H 0.61473 0.43598 0.77874 0.0
O666 O 0.70398 0.34603 0.87144 0.0
H667 H 0.64423 0.28117 0.81797 0.0
H668 H 0.74472 0.3094 0.86184 0.0
H669 H 0.55173 0.35736 0.72074 0.0
H670 H 0.64455 0.45369 0.87602 0.0
H671 H 0.53677 0.40573 0.71451 0.0
H672 H 0.57603 0.44416 0.88218 0.0
O673 O 0.66946 0.36427 0.76783 0.0
H674 H 0.8164 0.39652 0.82759 0.0
H675 H 0.737 0.30962 0.79387 0.0
H676 H 0.80175 0.32116 0.7776 0.0
H677 H 0.84204 0.36484 0.79457 0.0
H678 H 0.75137 0.38437 0.84303 0.0
H679 H 0.75147 0.25997 0.87169 0.0
H680 H 0.70404 0.22057 0.85419 0.0
O681 O 0.67432 0.32551 0.79252 0.0
C682 C 0.60823 0.33154 0.82809 0.0
C683 C 0.67097 0.24844 0.83488 0.0
C684 C 0.72785 0.26444 0.85988 0.0
N685 N 0.69415 0.29823 0.83925 0.0
C686 C 0.66784 0.27666 0.82969 0.0
C687 C 0.72379 0.2924 0.85431 0.0
C688 C 0.70124 0.24234 0.85005 0.0
C689 C 0.64365 0.42414 0.84206 0.0
N690 N 0.6223 0.40499 0.82519 0.0
C691 C 0.62741 0.43855 0.86274 0.0
C692 C 0.58899 0.43316 0.86622 0.0
C693 C 0.56736 0.41342 0.84914 0.0
C694 C 0.58458 0.3994 0.8287 0.0
C695 C 0.57499 0.42406 0.74627 0.0
C696 C 0.59165 0.37017 0.75335 0.0
C697 C 0.60107 0.4187 0.76602 0.0
N698 N 0.60892 0.39196 0.76948 0.0
C699 C 0.5654 0.37474 0.7334 0.0
C700 C 0.55704 0.40188 0.7299 0.0
C701 C 0.67464 0.33873 0.76948 0.0
C702 C 0.79919 0.37735 0.82016 0.0
C703 C 0.75426 0.3287 0.80136 0.0
C704 C 0.79096 0.3351 0.79208 0.0
C705 C 0.81355 0.35959 0.8016 0.0
N706 N 0.74038 0.34615 0.8197 0.0
C707 C 0.76233 0.37027 0.82898 0.0
Co708 Co 0.36014 0.12568 0.7983 0.0
Co709 Co 0.30074 0.16161 0.83289 0.0
O710 O 0.32028 0.12664 0.82552 0.0
C711 C 0.30864 0.07448 0.77671 0.0
O712 O 0.28352 0.09012 0.77031 0.0
C713 C 0.30335 0.16337 0.89468 0.0
O714 O 0.32837 0.18639 0.89245 0.0
O715 O 0.35195 0.18131 0.84221 0.0
O716 O 0.38355 0.16559 0.80717 0.0
H717 H 0.30102 0.26648 0.82667 0.0
H718 H 0.34519 0.08092 0.84146 0.0
O719 O 0.33878 0.08544 0.78874 0.0
H720 H 0.47603 0.12503 0.85519 0.0
H721 H 0.45585 0.08035 0.74765 0.0
H722 H 0.39692 0.1655 0.7554 0.0
H723 H 0.4386 0.14164 0.81778 0.0
H724 H 0.40675 0.08255 0.78246 0.0
O725 O 0.29113 0.14956 0.8729 0.0
H726 H 0.32469 0.22198 0.81781 0.0
H727 H 0.23553 0.17587 0.86433 0.0
H728 H 0.44616 0.16429 0.72048 0.0
H729 H 0.38175 0.06345 0.87898 0.0
H730 H 0.47599 0.12148 0.71643 0.0
H731 H 0.44765 0.08558 0.88604 0.0
O732 O 0.32987 0.14016 0.76876 0.0
H733 H 0.19431 0.08015 0.83519 0.0
H734 H 0.23961 0.17505 0.79634 0.0
H735 H 0.17775 0.14972 0.78278 0.0
H736 H 0.15465 0.10194 0.80233 0.0
H737 H 0.25622 0.10612 0.84796 0.0
H738 H 0.21107 0.21988 0.87389 0.0
H739 H 0.24377 0.26561 0.85486 0.0
O740 O 0.30854 0.17416 0.79315 0.0
C741 C 0.38072 0.18296 0.82686 0.0
C742 C 0.28651 0.24669 0.83507 0.0
C743 C 0.23605 0.22055 0.86158 0.0
N744 N 0.28155 0.19633 0.84055 0.0
C745 C 0.29978 0.22142 0.83012 0.0
C746 C 0.2501 0.1957 0.85618 0.0
C747 C 0.2544 0.24619 0.8509 0.0
C748 C 0.37392 0.09054 0.84431 0.0
N749 N 0.38977 0.11217 0.82737 0.0
C750 C 0.39445 0.08061 0.86563 0.0
C751 C 0.43141 0.09305 0.8696 0.0
C752 C 0.44735 0.11519 0.8523 0.0
C753 C 0.42598 0.12456 0.8312 0.0
C754 C 0.4431 0.09914 0.74923 0.0
C755 C 0.40988 0.14685 0.75388 0.0
C756 C 0.4152 0.10048 0.76885 0.0
N757 N 0.3991 0.1242 0.77108 0.0
C758 C 0.43769 0.14626 0.73401 0.0
C759 C 0.45439 0.12223 0.73173 0.0
C760 C 0.31489 0.16232 0.77026 0.0
C761 C 0.20401 0.10099 0.82661 0.0
C762 C 0.22983 0.15423 0.80488 0.0
C763 C 0.19473 0.14002 0.79717 0.0
C764 C 0.18179 0.11322 0.80814 0.0
N765 N 0.25144 0.14214 0.82307 0.0
C766 C 0.23898 0.11583 0.83383 0.0
Co767 Co 0.40502 0.38283 0.35171 0.0
Co768 Co 0.3213 0.38527 0.38603 0.0
O769 O 0.37336 0.37858 0.38535 0.0
C770 C 0.41877 0.32786 0.37848 0.0
O771 O 0.39578 0.32991 0.39905 0.0
C772 C 0.35641 0.41264 0.43892 0.0
O773 O 0.38983 0.40979 0.43073 0.0
O774 O 0.33514 0.42231 0.36602 0.0
O775 O 0.38678 0.4186 0.34187 0.0
H776 H 0.20609 0.41145 0.3431 0.0
H777 H 0.43944 0.37617 0.40749 0.0
O778 O 0.42473 0.34679 0.35958 0.0
H779 H 0.50673 0.46583 0.36944 0.0
H780 H 0.52144 0.37967 0.29618 0.0
H781 H 0.39309 0.39931 0.2933 0.0
H782 H 0.45652 0.4372 0.34257 0.0
H783 H 0.48271 0.37494 0.33857 0.0
O784 O 0.3285 0.40555 0.42293 0.0
H785 H 0.27067 0.40241 0.3434 0.0
H786 H 0.26229 0.38267 0.42975 0.0
H787 H 0.431 0.40457 0.25048 0.0
H788 H 0.48996 0.40368 0.43473 0.0
H789 H 0.49566 0.39471 0.25176 0.0
H790 H 0.52396 0.44902 0.41585 0.0
O791 O 0.36488 0.36004 0.32923 0.0
H792 H 0.33455 0.3117 0.45898 0.0
H793 H 0.25953 0.33632 0.38015 0.0
H794 H 0.24118 0.29061 0.40409 0.0
H795 H 0.27868 0.27809 0.444 0.0
H796 H 0.35238 0.35675 0.43399 0.0
H797 H 0.1978 0.39178 0.43042 0.0
H798 H 0.16921 0.40616 0.38684 0.0
O799 O 0.31109 0.36464 0.34994 0.0
C800 C 0.36071 0.43193 0.34868 0.0
C801 C 0.21821 0.40512 0.3622 0.0
C802 C 0.21358 0.39413 0.41122 0.0
N803 N 0.27022 0.39188 0.38651 0.0
C804 C 0.25473 0.3999 0.36248 0.0
C805 C 0.25018 0.38911 0.41072 0.0
C806 C 0.19754 0.40218 0.38676 0.0
C807 C 0.4543 0.39553 0.39881 0.0
N808 N 0.44487 0.40489 0.37331 0.0
C809 C 0.48281 0.41119 0.41449 0.0
C810 C 0.50181 0.43666 0.40393 0.0
C811 C 0.49211 0.44612 0.37793 0.0
C812 C 0.46342 0.4299 0.36287 0.0
C813 C 0.49333 0.38408 0.29537 0.0
C814 C 0.4213 0.39518 0.29406 0.0
C815 C 0.47122 0.38137 0.31929 0.0
N816 N 0.43575 0.38707 0.31846 0.0
C817 C 0.44259 0.3981 0.26973 0.0
C818 C 0.47885 0.39253 0.27046 0.0
C819 C 0.3295 0.35524 0.33052 0.0
C820 C 0.31792 0.31693 0.44166 0.0
C821 C 0.27636 0.33089 0.39714 0.0
C822 C 0.26565 0.30504 0.4108 0.0
C823 C 0.28664 0.29805 0.43321 0.0
N824 N 0.30709 0.34936 0.4055 0.0
C825 C 0.32776 0.34259 0.42749 0.0
Co826 Co 0.32685 0.65849 0.14373 0.0
Co827 Co 0.3175 0.65484 0.21474 0.0
O828 O 0.31256 0.63711 0.17782 0.0
C829 C 0.25063 0.63411 0.1223 0.0
O830 O 0.23508 0.64865 0.14074 0.0
C831 C 0.3569 0.61472 0.2455 0.0
O832 O 0.38365 0.63614 0.25039 0.0
O833 O 0.37138 0.66958 0.20787 0.0
O834 O 0.36901 0.68274 0.16317 0.0
H835 H 0.35888 0.73328 0.28311 0.0
H836 H 0.3182 0.59589 0.14346 0.0
O837 O 0.28563 0.63446 0.12259 0.0
H838 H 0.44721 0.62954 0.11332 0.0
H839 H 0.34906 0.66998 0.04041 0.0
H840 H 0.35001 0.71945 0.13056 0.0
H841 H 0.40552 0.66354 0.12437 0.0
H842 H 0.3326 0.6431 0.08375 0.0
O843 O 0.32911 0.61826 0.23055 0.0
H844 H 0.35253 0.71089 0.23673 0.0
H845 H 0.29272 0.63533 0.27193 0.0
H846 H 0.36706 0.74711 0.08775 0.0
H847 H 0.35884 0.56108 0.13234 0.0
H848 H 0.36661 0.72237 0.04225 0.0
H849 H 0.42387 0.57787 0.11718 0.0
O850 O 0.29386 0.6862 0.15367 0.0
H851 H 0.20107 0.58195 0.21358 0.0
H852 H 0.25393 0.68123 0.2351 0.0
H853 H 0.18687 0.66456 0.24175 0.0
H854 H 0.16003 0.61455 0.23107 0.0
H855 H 0.26794 0.59958 0.20691 0.0
H856 H 0.29853 0.6569 0.31871 0.0
H857 H 0.3317 0.70626 0.32451 0.0
O858 O 0.30525 0.69119 0.19964 0.0
C859 C 0.38556 0.68347 0.18665 0.0
C860 C 0.34434 0.71177 0.28085 0.0
C861 C 0.31048 0.66889 0.30084 0.0
N862 N 0.32227 0.67183 0.2516 0.0
C863 C 0.34064 0.69897 0.25464 0.0
C864 C 0.30734 0.65678 0.2743 0.0
C865 C 0.3291 0.69659 0.30407 0.0
C866 C 0.34642 0.60333 0.13676 0.0
N867 N 0.35944 0.63171 0.13452 0.0
C868 C 0.36932 0.58354 0.13055 0.0
C869 C 0.40581 0.59297 0.12207 0.0
C870 C 0.41894 0.62196 0.11992 0.0
C871 C 0.39524 0.64113 0.1263 0.0
C872 C 0.34939 0.68101 0.06011 0.0
C873 C 0.34994 0.7085 0.11087 0.0
C874 C 0.33998 0.6659 0.08472 0.0
N875 N 0.3405 0.67967 0.10971 0.0
C876 C 0.35954 0.72429 0.08668 0.0
C877 C 0.35925 0.7104 0.06116 0.0
C878 C 0.29268 0.69925 0.17672 0.0
C879 C 0.21246 0.60376 0.2184 0.0
C880 C 0.24248 0.65946 0.2303 0.0
C881 C 0.20448 0.65013 0.23417 0.0
C882 C 0.18944 0.62207 0.22818 0.0
N883 N 0.26492 0.64133 0.22082 0.0
C884 C 0.25034 0.61384 0.21477 0.0
Co885 Co 0.68641 0.84786 0.14586 0.0
Co886 Co 0.69137 0.8501 0.21728 0.0
O887 O 0.69939 0.86854 0.1806 0.0
C888 C 0.7567 0.86223 0.11387 0.0
O889 O 0.76027 0.83551 0.11635 0.0
C890 C 0.65844 0.90261 0.22474 0.0
O891 O 0.6393 0.89638 0.20174 0.0
O892 O 0.63778 0.83675 0.20864 0.0
O893 O 0.64228 0.82419 0.1639 0.0
H894 H 0.6435 0.77079 0.28337 0.0
H895 H 0.69788 0.91052 0.14556 0.0
O896 O 0.73015 0.87148 0.12632 0.0
H897 H 0.56932 0.88029 0.11276 0.0
H898 H 0.66733 0.83785 0.04205 0.0
H899 H 0.66324 0.78721 0.13184 0.0
H900 H 0.60882 0.84494 0.12456 0.0
H901 H 0.68258 0.86412 0.08584 0.0
O902 O 0.67997 0.88622 0.23364 0.0
H903 H 0.65404 0.79379 0.23741 0.0
H904 H 0.71137 0.86861 0.27548 0.0
H905 H 0.64745 0.76012 0.08856 0.0
H906 H 0.65947 0.94665 0.13369 0.0
H907 H 0.64951 0.78546 0.04324 0.0
H908 H 0.59466 0.93158 0.11722 0.0
O909 O 0.71765 0.81942 0.15712 0.0
H910 H 0.80974 0.9208 0.22125 0.0
H911 H 0.75208 0.82187 0.23995 0.0
H912 H 0.81881 0.83707 0.24945 0.0
H913 H 0.84805 0.88689 0.24019 0.0
H914 H 0.74314 0.90461 0.21175 0.0
H915 H 0.7012 0.84647 0.32187 0.0
H916 H 0.66719 0.79716 0.32602 0.0
O917 O 0.70319 0.81361 0.20242 0.0
C918 C 0.62449 0.82338 0.18689 0.0
C919 C 0.65842 0.79227 0.28183 0.0
C920 C 0.69076 0.83475 0.30344 0.0
N921 N 0.68341 0.83249 0.25372 0.0
C922 C 0.66453 0.8054 0.25585 0.0
C923 C 0.69633 0.84721 0.27711 0.0
C924 C 0.67169 0.80708 0.30575 0.0
C925 C 0.6698 0.90382 0.13818 0.0
N926 N 0.65566 0.87566 0.13566 0.0
C927 C 0.64815 0.92437 0.13158 0.0
C928 C 0.61176 0.9159 0.12239 0.0
C929 C 0.59752 0.88713 0.11991 0.0
C930 C 0.61997 0.86719 0.12672 0.0
C931 C 0.66634 0.82656 0.06166 0.0
C932 C 0.66411 0.7984 0.11221 0.0
C933 C 0.67504 0.84132 0.08652 0.0
N934 N 0.67383 0.82722 0.11139 0.0
C935 C 0.65517 0.78294 0.08777 0.0
C936 C 0.65634 0.79717 0.06235 0.0
C937 C 0.71714 0.80588 0.17998 0.0
C938 C 0.7973 0.89905 0.22544 0.0
C939 C 0.7646 0.84356 0.23574 0.0
C940 C 0.8024 0.85205 0.24123 0.0
C941 C 0.81879 0.88001 0.23604 0.0
N942 N 0.74367 0.86239 0.22543 0.0
C943 C 0.75958 0.88979 0.22018 0.0
H944 H 0.24393 0.26329 0.1817 0.0
H945 H 0.25768 0.32715 0.3334 0.0
H946 H 0.19408 0.21459 0.2519 0.0
H947 H 0.35327 0.34023 0.27904 0.0
H948 H 0.2253 0.29308 0.30023 0.0
H949 H 0.27585 0.29875 0.21395 0.0
C950 C 0.23977 0.25988 0.20383 0.0
C951 C 0.21683 0.23546 0.21405 0.0
C952 C 0.25334 0.3035 0.29562 0.0
C953 C 0.25226 0.27666 0.2509 0.0
C954 C 0.27191 0.32303 0.3145 0.0
C955 C 0.30858 0.33638 0.3093 0.0
C956 C 0.27106 0.29781 0.2709 0.0
C957 C 0.32519 0.33028 0.28409 0.0
C958 C 0.25797 0.28022 0.22217 0.0
C959 C 0.21182 0.23281 0.24303 0.0
N960 N 0.30622 0.31153 0.26573 0.0
N961 N 0.2292 0.25326 0.26043 0.0
H962 H 0.81155 0.23876 0.18555 0.0
H963 H 0.65222 0.20867 0.29905 0.0
H964 H 0.77381 0.30714 0.22964 0.0
H965 H 0.73321 0.1533 0.28896 0.0
H966 H 0.68886 0.24294 0.26748 0.0
H967 H 0.77573 0.20489 0.21768 0.0
C968 C 0.79583 0.24664 0.20208 0.0
C969 C 0.7958 0.2758 0.20509 0.0
C970 C 0.69845 0.22323 0.27219 0.0
C971 C 0.75415 0.23714 0.24137 0.0
C972 C 0.67745 0.20359 0.28994 0.0
C973 C 0.68965 0.17808 0.29653 0.0
C974 C 0.73137 0.21699 0.26047 0.0
C975 C 0.72281 0.17272 0.28444 0.0
C976 C 0.77548 0.22732 0.22037 0.0
C977 C 0.77487 0.28485 0.22681 0.0
N978 N 0.74237 0.19191 0.26681 0.0
N979 N 0.7545 0.26554 0.24398 0.0
H980 H 0.32681 0.75161 0.19128 0.0
H981 H 0.14457 0.79246 0.24654 0.0
H982 H 0.22072 0.70462 0.16659 0.0
H983 H 0.24354 0.85479 0.23738 0.0
H984 H 0.16957 0.76198 0.21303 0.0
H985 H 0.29651 0.79166 0.20403 0.0
C986 C 0.29721 0.75017 0.1878 0.0
C987 C 0.2761 0.72508 0.17778 0.0
C988 C 0.18535 0.78271 0.21756 0.0
C989 C 0.24105 0.77018 0.1932 0.0
C990 C 0.17099 0.80011 0.23655 0.0
C991 C 0.19198 0.82614 0.24429 0.0
C992 C 0.22147 0.79108 0.20711 0.0
C993 C 0.22642 0.83497 0.23149 0.0
C994 C 0.2799 0.77296 0.19507 0.0
C995 C 0.23783 0.72386 0.174 0.0
N996 N 0.24054 0.81716 0.21395 0.0
N997 N 0.2213 0.74592 0.18232 0.0
H998 H 0.769 0.64784 0.23822 0.0
H999 H 0.78946 0.80211 0.17008 0.0
H1000 H 0.85911 0.71563 0.25668 0.0
H1001 H 0.68482 0.75305 0.1953 0.0
H1002 H 0.82088 0.76268 0.1843 0.0
H1003 H 0.74436 0.67897 0.20471 0.0
C1004 C 0.78436 0.66888 0.23431 0.0
C1005 C 0.81603 0.67935 0.25 0.0
C1006 C 0.79091 0.7603 0.18587 0.0
C1007 C 0.78834 0.71471 0.21209 0.0
C1008 C 0.77305 0.78261 0.17764 0.0
C1009 C 0.73469 0.78055 0.18159 0.0
C1010 C 0.77 0.73581 0.1976 0.0
C1011 C 0.71452 0.75522 0.19197 0.0
C1012 C 0.77019 0.68663 0.21546 0.0
C1013 C 0.8346 0.70692 0.24482 0.0
N1014 N 0.73245 0.7338 0.19979 0.0
N1015 N 0.82033 0.72378 0.22639 0.0
H1016 H 0.27379 0.80927 0.73415 0.0
H1017 H 0.23194 0.65297 0.7952 0.0
H1018 H 0.30793 0.73863 0.69147 0.0
H1019 H 0.15288 0.71009 0.80393 0.0
H1020 H 0.26849 0.68685 0.76342 0.0
H1021 H 0.23767 0.77579 0.7669 0.0
C1022 C 0.27404 0.78678 0.73191 0.0
C1023 C 0.29382 0.77664 0.71014 0.0
C1024 C 0.24306 0.69187 0.77225 0.0
C1025 C 0.25309 0.73855 0.74739 0.0
C1026 C 0.22223 0.6726 0.79034 0.0
C1027 C 0.18917 0.67865 0.80198 0.0
C1028 C 0.2313 0.71768 0.76632 0.0
C1029 C 0.17796 0.70447 0.7951 0.0
C1030 C 0.25325 0.76776 0.75039 0.0
C1031 C 0.29294 0.74729 0.70793 0.0
N1032 N 0.19919 0.72321 0.7779 0.0
N1033 N 0.27312 0.72928 0.72643 0.0
H1034 H 0.69112 0.7656 0.69072 0.0
H1035 H 0.85205 0.80543 0.80136 0.0
H1036 H 0.73447 0.70142 0.73765 0.0
H1037 H 0.76764 0.85778 0.79034 0.0
H1038 H 0.8161 0.76928 0.77159 0.0
H1039 H 0.72514 0.80194 0.72137 0.0
C1040 C 0.70761 0.75915 0.70759 0.0
C1041 C 0.70987 0.73045 0.71178 0.0
C1042 C 0.80558 0.78874 0.77566 0.0
C1043 C 0.74945 0.77191 0.74631 0.0
C1044 C 0.8262 0.80948 0.79239 0.0
C1045 C 0.81287 0.83471 0.79822 0.0
C1046 C 0.77181 0.79349 0.76419 0.0
C1047 C 0.77893 0.83865 0.78634 0.0
C1048 C 0.72693 0.77987 0.72503 0.0
C1049 C 0.73171 0.72328 0.73389 0.0
N1050 N 0.75966 0.81833 0.76969 0.0
N1051 N 0.75106 0.74392 0.75014 0.0
H1052 H 0.72523 0.35653 0.72865 0.0
H1053 H 0.71114 0.19895 0.6698 0.0
H1054 H 0.64364 0.28549 0.75443 0.0
H1055 H 0.81377 0.25791 0.67561 0.0
H1056 H 0.67724 0.23646 0.6849 0.0
H1057 H 0.74857 0.32603 0.69389 0.0
C1058 C 0.71142 0.33481 0.72625 0.0
C1059 C 0.6826 0.32335 0.7443 0.0
C1060 C 0.70704 0.24144 0.68196 0.0
C1061 C 0.70888 0.28864 0.70495 0.0
C1062 C 0.72626 0.22018 0.67307 0.0
C1063 C 0.76506 0.22566 0.67123 0.0
C1064 C 0.72692 0.26823 0.68901 0.0
C1065 C 0.78372 0.25316 0.67652 0.0
C1066 C 0.72487 0.31741 0.70664 0.0
C1067 C 0.666 0.29499 0.74085 0.0
N1068 N 0.7645 0.27344 0.68547 0.0
N1069 N 0.67953 0.27852 0.7217 0.0
H1070 H 0.28388 0.30193 0.66838 0.0
H1071 H 0.25022 0.14988 0.7418 0.0
H1072 H 0.17727 0.2568 0.6944 0.0
H1073 H 0.3547 0.20701 0.74311 0.0
H1074 H 0.22576 0.18166 0.70909 0.0
H1075 H 0.31202 0.26026 0.68067 0.0
C1076 C 0.26628 0.28284 0.67569 0.0
C1077 C 0.22834 0.28252 0.68037 0.0
C1078 C 0.25441 0.18683 0.71585 0.0
C1079 C 0.26001 0.23528 0.69464 0.0
C1080 C 0.2684 0.1686 0.73426 0.0
C1081 C 0.30448 0.1759 0.74477 0.0
C1082 C 0.27669 0.21255 0.70817 0.0
C1083 C 0.32682 0.20065 0.73507 0.0
C1084 C 0.2823 0.25923 0.68291 0.0
C1085 C 0.20667 0.25766 0.69047 0.0
N1086 N 0.31243 0.21834 0.71751 0.0
N1087 N 0.22285 0.23509 0.69748 0.0
H1088 H 0.22489 0.98616 0.31939 0.0
H1089 H 0.23478 0.07663 0.17938 0.0
H1090 H 0.19495 0.94715 0.23986 0.0
H1091 H 0.18564 0.1046 0.25386 0.0
H1092 H 0.24073 0.03205 0.20312 0.0
H1093 H 0.2308 0.03314 0.29697 0.0
C1094 C 0.22039 0.98752 0.29715 0.0
C1095 C 0.20946 0.96289 0.28137 0.0
C1096 C 0.22917 0.0482 0.2143 0.0
C1097 C 0.21672 0.01606 0.25577 0.0
C1098 C 0.22595 0.07363 0.20088 0.0
C1099 C 0.20959 0.09425 0.21468 0.0
C1100 C 0.21691 0.04374 0.24192 0.0
C1101 C 0.19825 0.08915 0.24246 0.0
C1102 C 0.2235 0.0142 0.28447 0.0
C1103 C 0.20339 0.9657 0.2527 0.0
N1104 N 0.20222 0.06443 0.25524 0.0
N1105 N 0.20728 0.9918 0.24076 0.0
H1106 H 0.75512 0.41618 0.17505 0.0
H1107 H 0.8213 0.52773 0.29692 0.0
H1108 H 0.84572 0.41045 0.23135 0.0
H1109 H 0.77079 0.5513 0.221 0.0
H1110 H 0.81469 0.47896 0.27985 0.0
H1111 H 0.74625 0.46058 0.19816 0.0
C1112 C 0.77274 0.42405 0.19246 0.0
C1113 C 0.80146 0.40986 0.20111 0.0
C1114 C 0.80447 0.49474 0.26717 0.0
C1115 C 0.79109 0.45998 0.2278 0.0
C1116 C 0.80794 0.52254 0.27699 0.0
C1117 C 0.79693 0.54371 0.26023 0.0
C1118 C 0.78944 0.48796 0.24058 0.0
C1119 C 0.78 0.53569 0.23448 0.0
C1120 C 0.76776 0.44933 0.20555 0.0
C1121 C 0.82358 0.42094 0.22376 0.0
N1122 N 0.77701 0.5085 0.22533 0.0
N1123 N 0.81794 0.44527 0.23629 0.0
H1124 H 0.23052 0.13984 0.90349 0.0
H1125 H 0.2402 0.15644 0.06853 0.0
H1126 H 0.33156 0.17388 0.94704 0.0
H1127 H 0.14686 0.17631 0.02166 0.0
H1128 H 0.27034 0.14704 0.02493 0.0
H1129 H 0.19656 0.13781 0.94787 0.0
C1130 C 0.24572 0.14627 0.92245 0.0
C1131 C 0.28392 0.1572 0.92161 0.0
C1132 C 0.243 0.153 0.02428 0.0
C1133 C 0.24536 0.15451 0.9722 0.0
C1134 C 0.22557 0.15821 0.04915 0.0
C1135 C 0.19092 0.16739 0.0488 0.0
C1136 C 0.22543 0.15636 0.99883 0.0
C1137 C 0.17362 0.16945 0.0229 0.0
C1138 C 0.22626 0.14528 0.94765 0.0
C1139 C 0.30212 0.16544 0.94677 0.0
N1140 N 0.19109 0.16404 0.99889 0.0
N1141 N 0.2827 0.16389 0.97106 0.0
H1142 H 0.81983 0.39803 0.04813 0.0
H1143 H 0.72188 0.31978 0.91316 0.0
H1144 H 0.80487 0.30788 0.03355 0.0
H1145 H 0.73136 0.41002 0.92552 0.0
H1146 H 0.75375 0.31607 0.95703 0.0
H1147 H 0.79038 0.40396 1.00293 0.0
C1148 C 0.81083 0.37953 0.03533 0.0
C1149 C 0.81479 0.35238 0.04479 0.0
C1150 C 0.74892 0.33675 0.9503 0.0
C1151 C 0.78069 0.35902 0.9932 0.0
C1152 C 0.73059 0.33891 0.92512 0.0
C1153 C 0.72389 0.36531 0.91544 0.0
C1154 C 0.76092 0.36114 0.96625 0.0
C1155 C 0.73579 0.38922 0.93216 0.0
C1156 C 0.79377 0.38293 0.00961 0.0
C1157 C 0.8023 0.32921 0.02733 0.0
N1158 N 0.75382 0.38659 0.95673 0.0
N1159 N 0.7858 0.33307 1.00257 0.0
H1160 H 0.30445 0.80425 0.53676 0.0
H1161 H 0.22546 0.90789 0.42911 0.0
H1162 H 0.31561 0.89433 0.5507 0.0
H1163 H 0.22916 0.81952 0.41398 0.0
H1164 H 0.25659 0.90403 0.47414 0.0
H1165 H 0.27616 0.81023 0.49174 0.0
C1166 C 0.30126 0.82539 0.53024 0.0
C1167 C 0.31246 0.84882 0.54762 0.0
C1168 C 0.25053 0.88555 0.46088 0.0
C1169 C 0.27938 0.85584 0.49586 0.0
C1170 C 0.23256 0.88769 0.43528 0.0
C1171 C 0.22468 0.86403 0.41765 0.0
C1172 C 0.26043 0.85952 0.46892 0.0
C1173 C 0.23475 0.83842 0.42669 0.0
C1174 C 0.28496 0.8288 0.50447 0.0
C1175 C 0.30758 0.87569 0.53793 0.0
N1176 N 0.25198 0.8369 0.45156 0.0
N1177 N 0.29114 0.87846 0.51277 0.0
H1178 H 0.6979 0.69314 0.54083 0.0
H1179 H 0.78768 0.59487 0.43411 0.0
H1180 H 0.70173 0.60519 0.55823 0.0
H1181 H 0.7722 0.68081 0.41763 0.0
H1182 H 0.757 0.59725 0.47955 0.0
H1183 H 0.72472 0.68786 0.49522 0.0
C1184 C 0.70411 0.67258 0.53497 0.0
C1185 C 0.69758 0.64959 0.5535 0.0
C1186 C 0.76033 0.61551 0.46588 0.0
C1187 C 0.72897 0.64341 0.50097 0.0
C1188 C 0.77799 0.61421 0.44002 0.0
C1189 C 0.78252 0.63764 0.42191 0.0
C1190 C 0.74735 0.64045 0.47366 0.0
C1191 C 0.76924 0.66211 0.43066 0.0
C1192 C 0.71955 0.66958 0.50884 0.0
C1193 C 0.70615 0.62346 0.54458 0.0
N1194 N 0.75241 0.66284 0.45577 0.0
N1195 N 0.72169 0.62111 0.51901 0.0
H1196 H 0.92783 0.27977 0.09231 0.0
H1197 H 0.06517 0.20834 0.18757 0.0
H1198 H 0.9416 0.29227 0.18105 0.0
H1199 H 0.09247 0.22586 0.10101 0.0
H1200 H 0.01239 0.23246 0.18284 0.0
H1201 H 0.98158 0.2544 0.09251 0.0
C1202 C 0.94199 0.27723 0.11174 0.0
C1203 C 0.92997 0.28822 0.1367 0.0
C1204 C 0.02985 0.23113 0.1648 0.0
C1205 C 0.99082 0.2591 0.13705 0.0
C1206 C 0.06016 0.2172 0.16743 0.0
C1207 C 0.08379 0.21509 0.14469 0.0
C1208 C 0.02235 0.24307 0.13917 0.0
C1209 C 0.07522 0.22708 0.11916 0.0
C1210 C 0.97268 0.26288 0.1118 0.0
C1211 C 0.94955 0.28433 0.16124 0.0
N1212 N 0.04509 0.24056 0.11704 0.0
N1213 N 0.97859 0.27003 0.16077 0.0
H1214 H 0.91678 0.70701 0.37636 0.0
H1215 H 0.07043 0.80101 0.2864 0.0
H1216 H 0.94691 0.68241 0.29404 0.0
H1217 H 0.08962 0.79256 0.37451 0.0
H1218 H 0.01721 0.76285 0.28949 0.0
H1219 H 0.9734 0.74319 0.37715 0.0
C1220 C 0.93534 0.70901 0.35861 0.0
C1221 C 0.92696 0.69162 0.33508 0.0
C1222 C 0.03306 0.76934 0.30816 0.0
C1223 C 0.99092 0.73317 0.3357 0.0
C1224 C 0.06329 0.79125 0.30648 0.0
C1225 C 0.08446 0.80002 0.33026 0.0
C1226 C 0.02323 0.75639 0.33391 0.0
C1227 C 0.07405 0.78634 0.35568 0.0
C1228 C 0.96759 0.72957 0.35913 0.0
C1229 C 0.95207 0.6952 0.31265 0.0
N1230 N 0.04382 0.76531 0.35694 0.0
N1231 N 0.98252 0.71578 0.31338 0.0
H1232 H 0.55621 0.69494 0.68399 0.0
H1233 H 0.425 0.77831 0.59369 0.0
H1234 H 0.58564 0.72166 0.59976 0.0
H1235 H 0.4292 0.77743 0.68357 0.0
H1236 H 0.47705 0.7513 0.59269 0.0
H1237 H 0.50213 0.71817 0.68107 0.0
C1238 C 0.55131 0.70556 0.66475 0.0
C1239 C 0.57595 0.70643 0.64215 0.0
C1240 C 0.46638 0.75707 0.61254 0.0
C1241 C 0.51332 0.73331 0.63872 0.0
C1242 C 0.43664 0.77232 0.61314 0.0
C1243 C 0.42279 0.78029 0.63874 0.0
C1244 C 0.48169 0.74929 0.63773 0.0
C1245 C 0.43902 0.77204 0.66331 0.0
C1246 C 0.52031 0.71894 0.66315 0.0
C1247 C 0.56758 0.72052 0.61776 0.0
N1248 N 0.46733 0.75699 0.66216 0.0
N1249 N 0.53697 0.73347 0.61668 0.0
H1250 H 0.89408 0.07154 0.71605 0.0
H1251 H 0.8128 0.97245 0.84454 0.0
H1252 H 0.80665 0.08971 0.77022 0.0
H1253 H 0.90047 0.95438 0.79047 0.0
H1254 H 0.81083 0.01589 0.81805 0.0
H1255 H 0.89751 0.02888 0.74349 0.0
C1256 C 0.87567 0.06664 0.73372 0.0
C1257 C 0.85007 0.08433 0.74078 0.0
C1258 C 0.83057 1.00244 0.81205 0.0
C1259 C 0.85378 0.03541 0.77233 0.0
C1260 C 0.83175 0.97761 0.82722 0.0
C1261 C 0.85689 0.95961 0.81986 0.0
C1262 C 0.85466 0.00942 0.78929 0.0
C1263 C 0.88064 0.9675 0.79706 0.0
C1264 C 0.87762 0.04224 0.7494 0.0
C1265 C 0.82686 0.07678 0.76393 0.0
N1266 N 0.8789 0.99171 0.78263 0.0
N1267 N 0.82926 0.05295 0.77881 0.0
H1268 H 0.18608 0.54155 0.85062 0.0
H1269 H 0.11248 0.44379 0.71954 0.0
H1270 H 0.1043 0.56132 0.79198 0.0
H1271 H 0.19284 0.42271 0.77863 0.0
H1272 H 0.10904 0.48689 0.74605 0.0
H1273 H 0.18892 0.49787 0.82478 0.0
C1274 C 0.16864 0.53673 0.83241 0.0
C1275 C 0.14485 0.55524 0.82361 0.0
C1276 C 0.12739 0.47282 0.75325 0.0
C1277 C 0.14806 0.5052 0.79381 0.0
C1278 C 0.12934 0.44816 0.73811 0.0
C1279 C 0.15293 0.4295 0.74683 0.0
C1280 C 0.14922 0.47899 0.77733 0.0
C1281 C 0.17421 0.4364 0.77107 0.0
C1282 C 0.1703 0.51177 0.81763 0.0
C1283 C 0.12303 0.5478 0.79971 0.0
N1284 N 0.17186 0.46054 0.78542 0.0
N1285 N 0.1252 0.52346 0.78572 0.0
H1286 H 0.82375 0.85594 0.09172 0.0
H1287 H 0.78141 0.92283 0.94945 0.0
H1288 H 0.73648 0.90611 0.08388 0.0
H1289 H 0.892 0.90861 0.96954 0.0
H1290 H 0.76496 0.91813 0.99885 0.0
H1291 H 0.8507 0.87625 0.04801 0.0
C1292 C 0.8107 0.87169 0.0811 0.0
C1293 C 0.77762 0.87913 0.09135 0.0
C1294 C 0.79306 0.91662 0.99256 0.0
C1295 C 0.80779 0.90189 0.04093 0.0
C1296 C 0.80245 0.91925 0.96436 0.0
C1297 C 0.8381 0.91604 0.95539 0.0
C1298 C 0.81919 0.90995 0.01189 0.0
C1299 C 0.86425 0.91136 0.97558 0.0
C1300 C 0.8261 0.88327 0.05614 0.0
C1301 C 0.76194 0.89968 0.07674 0.0
N1302 N 0.85405 0.90787 1.00284 0.0
N1303 N 0.77669 0.90986 0.05194 0.0
H1304 H 0.21317 0.58843 0.95226 0.0
H1305 H 0.17921 0.63862 0.10642 0.0
H1306 H 0.10861 0.61046 0.97846 0.0
H1307 H 0.2737 0.60094 0.08176 0.0
H1308 H 0.14989 0.62466 0.06143 0.0
H1309 H 0.23308 0.58911 1.00076 0.0
C1310 C 0.19415 0.59301 0.96829 0.0
C1311 C 0.15925 0.59956 0.96125 0.0
C1312 C 0.17678 0.61907 0.06609 0.0
C1313 C 0.18219 0.60092 0.01705 0.0
C1314 C 0.19351 0.62696 0.09183 0.0
C1315 C 0.22926 0.62133 0.0978 0.0
C1316 C 0.19605 0.60562 0.04615 0.0
C1317 C 0.24637 0.60613 0.07801 0.0
C1318 C 0.20555 0.59341 0.99605 0.0
C1319 C 0.13574 0.60524 0.98295 0.0
N1320 N 0.22987 0.59918 0.05303 0.0
N1321 N 0.14786 0.60624 0.00986 0.0
H1322 H 0.6107 0.10392 0.47164 0.0
H1323 H 0.78012 0.1039 0.57779 0.0
H1324 H 0.72118 0.09256 0.44767 0.0
H1325 H 0.68036 0.13627 0.59953 0.0
H1326 H 0.75305 0.08948 0.53259 0.0
H1327 H 0.63037 0.10597 0.52066 0.0
C1328 C 0.63884 0.10129 0.47669 0.0
C1329 C 0.66441 0.09825 0.45548 0.0
C1330 C 0.73687 0.09946 0.54733 0.0
C1331 C 0.68704 0.10063 0.51144 0.0
C1332 C 0.75227 0.10765 0.57326 0.0
C1333 C 0.73275 0.12175 0.59246 0.0
C1334 C 0.70156 0.1053 0.54035 0.0
C1335 C 0.69657 0.12566 0.58536 0.0
C1336 C 0.6501 0.10264 0.50466 0.0
C1337 C 0.7006 0.09516 0.46328 0.0
N1338 N 0.68229 0.11777 0.55975 0.0
N1339 N 0.71084 0.09657 0.49053 0.0
H1340 H 0.32838 0.36982 0.61149 0.0
H1341 H 0.29644 0.4315 0.46142 0.0
H1342 H 0.23671 0.4125 0.59075 0.0
H1343 H 0.39816 0.40271 0.48443 0.0
H1344 H 0.2777 0.42934 0.51025 0.0
H1345 H 0.35803 0.38603 0.56719 0.0
C1346 C 0.31479 0.38302 0.59792 0.0
C1347 C 0.27969 0.38942 0.60476 0.0
C1348 C 0.30444 0.42394 0.50479 0.0
C1349 C 0.3133 0.40777 0.55384 0.0
C1350 C 0.3152 0.42526 0.47686 0.0
C1351 C 0.34884 0.41715 0.46878 0.0
C1352 C 0.32712 0.41394 0.52489 0.0
C1353 C 0.37203 0.40923 0.48972 0.0
C1354 C 0.33171 0.39222 0.57256 0.0
C1355 C 0.2635 0.40666 0.58628 0.0
N1356 N 0.36044 0.40734 0.51676 0.0
N1357 N 0.28016 0.41486 0.5616 0.0
H1358 H 0.02076 0.6882 0.83771 0.0
H1359 H 0.95082 0.81122 0.92116 0.0
H1360 H 0.08797 0.72842 0.90516 0.0
H1361 H 0.94767 0.80739 0.83137 0.0
H1362 H 0.98986 0.77375 0.92133 0.0
H1363 H 0.9813 0.72456 0.84105 0.0
C1364 C 0.027 0.70452 0.85344 0.0
C1365 C 0.05778 0.70537 0.87115 0.0
C1366 C 0.98047 0.78123 0.9017 0.0
C1367 C 0.01233 0.74672 0.87525 0.0
C1368 C 0.95811 0.80235 0.90158 0.0
C1369 C 0.94614 0.81235 0.87621 0.0
C1370 C 0.9897 0.76957 0.87634 0.0
C1371 C 0.95649 0.80036 0.85137 0.0
C1372 C 0.00456 0.72528 0.85521 0.0
C1373 C 0.06463 0.72715 0.89102 0.0
N1374 N 0.97734 0.7794 0.85206 0.0
N1375 N 0.04188 0.74696 0.89269 0.0
H1376 H 0.07855 0.3044 0.64761 0.0
H1377 H 0.91926 0.20694 0.73525 0.0
H1378 H 0.07899 0.30531 0.73762 0.0
H1379 H 0.92166 0.21748 0.6458 0.0
H1380 H 0.97753 0.24144 0.73823 0.0
H1381 H 0.02079 0.27168 0.64824 0.0
C1382 C 0.06638 0.29796 0.66766 0.0
C1383 C 0.08389 0.30793 0.69262 0.0
C1384 C 0.96512 0.23604 0.71805 0.0
C1385 C 0.0168 0.26944 0.69348 0.0
C1386 C 0.93201 0.21626 0.71629 0.0
C1387 C 0.91543 0.20904 0.69022 0.0
C1388 C 0.98164 0.2485 0.69354 0.0
C1389 C 0.93311 0.22205 0.66641 0.0
C1390 C 0.03315 0.27901 0.66799 0.0
C1391 C 0.06641 0.29835 0.71785 0.0
N1392 N 0.96497 0.24095 0.66871 0.0
N1393 N 0.03384 0.27948 0.71766 0.0
H1394 H 0.58918 0.22451 0.40327 0.0
H1395 H 0.43918 0.30118 0.33263 0.0
H1396 H 0.52115 0.18548 0.3357 0.0
H1397 H 0.44814 0.30196 0.42225 0.0
H1398 H 0.47827 0.26431 0.3308 0.0
H1399 H 0.54644 0.25899 0.40853 0.0
C1400 C 0.5653 0.22319 0.38962 0.0
C1401 C 0.55862 0.20213 0.36905 0.0
C1402 C 0.47148 0.27246 0.35086 0.0
C1403 C 0.51051 0.24151 0.3746 0.0
C1404 C 0.44928 0.29346 0.35192 0.0
C1405 C 0.44028 0.30439 0.37764 0.0
C1406 C 0.48572 0.26295 0.37561 0.0
C1407 C 0.45418 0.29378 0.40205 0.0
C1408 C 0.54094 0.24269 0.39274 0.0
C1409 C 0.52724 0.20126 0.35193 0.0
N1410 N 0.47673 0.27384 0.40045 0.0
N1411 N 0.50465 0.2209 0.35484 0.0
H1412 H 0.69501 0.60362 0.74504 0.0
H1413 H 0.7083 0.44357 0.73386 0.0
H1414 H 0.7369 0.57087 0.66995 0.0
H1415 H 0.73339 0.4874 0.81168 0.0
H1416 H 0.71596 0.48928 0.70962 0.0
H1417 H 0.70573 0.56102 0.77005 0.0
C1418 C 0.70692 0.5876 0.73391 0.0
C1419 C 0.71506 0.59074 0.70536 0.0
C1420 C 0.72057 0.48891 0.73191 0.0
C1421 C 0.72659 0.54177 0.73372 0.0
C1422 C 0.71624 0.46289 0.74572 0.0
C1423 C 0.72061 0.46183 0.77471 0.0
C1424 C 0.728 0.5141 0.74734 0.0
C1425 C 0.73032 0.4874 0.78924 0.0
C1426 C 0.71315 0.56339 0.74822 0.0
C1427 C 0.7304 0.56934 0.69196 0.0
N1428 N 0.73295 0.51259 0.77547 0.0
N1429 N 0.735 0.54549 0.70612 0.0
H1430 H 0.35413 0.03643 0.7889 0.0
H1431 H 0.25334 0.91057 0.69189 0.0
H1432 H 0.2547 0.04422 0.74279 0.0
H1433 H 0.36756 0.92105 0.71911 0.0
H1434 H 0.24759 0.95563 0.71508 0.0
H1435 H 0.35278 0.9896 0.76918 0.0
C1436 C 0.33177 0.02824 0.77475 0.0
C1437 C 0.30473 0.04457 0.76726 0.0
C1438 C 0.27381 0.94791 0.71588 0.0
C1439 C 0.30318 0.99052 0.74434 0.0
C1440 C 0.27711 0.92224 0.70272 0.0
C1441 C 0.31105 0.91203 0.70339 0.0
C1442 C 0.30449 0.96309 0.73015 0.0
C1443 C 0.34093 0.92804 0.71775 0.0
C1444 C 0.33111 1.00143 0.76339 0.0
C1445 C 0.27624 0.03247 0.74904 0.0
N1446 N 0.33688 0.95256 0.73055 0.0
N1447 N 0.27631 0.0062 0.73802 0.0
H1448 H 0.41281 0.20673 0.87517 0.0
H1449 H 0.54698 0.32835 0.79488 0.0
H1450 H 0.41854 0.21361 0.78563 0.0
H1451 H 0.5863 0.29091 0.86874 0.0
H1452 H 0.48983 0.29417 0.79715 0.0
H1453 H 0.46743 0.24493 0.87851 0.0
C1454 C 0.42529 0.21652 0.85632 0.0
C1455 C 0.41138 0.20708 0.83008 0.0
C1456 C 0.51086 0.29358 0.81298 0.0
C1457 C 0.47275 0.25058 0.83374 0.0
C1458 C 0.54361 0.31315 0.81179 0.0
C1459 C 0.57196 0.3124 0.83148 0.0
C1460 C 0.50582 0.2732 0.83421 0.0
C1461 C 0.56539 0.29217 0.853 0.0
C1462 C 0.45643 0.23804 0.85823 0.0
C1463 C 0.42859 0.22018 0.80624 0.0
N1464 N 0.53295 0.27326 0.85378 0.0
N1465 N 0.45815 0.24135 0.80864 0.0
H1466 H 0.29758 0.57262 0.25584 0.0
H1467 H 0.41835 0.46623 0.32299 0.0
H1468 H 0.4159 0.59459 0.26875 0.0
H1469 H 0.30184 0.4609 0.34207 0.0
H1470 H 0.41712 0.51043 0.29823 0.0
H1471 H 0.29776 0.52864 0.28214 0.0
C1472 C 0.32365 0.5681 0.26398 0.0
C1473 C 0.35685 0.5873 0.25999 0.0
C1474 C 0.39186 0.49971 0.30797 0.0
C1475 C 0.35714 0.53702 0.29005 0.0
C1476 C 0.39249 0.47437 0.32217 0.0
C1477 C 0.3602 0.45974 0.3349 0.0
C1478 C 0.35852 0.51046 0.30585 0.0
C1479 C 0.32749 0.47151 0.33282 0.0
C1480 C 0.32363 0.54311 0.27918 0.0
C1481 C 0.38969 0.58044 0.2713 0.0
N1482 N 0.32739 0.49606 0.31835 0.0
N1483 N 0.38904 0.55582 0.28564 0.0
H1484 H 0.68982 0.04053 0.34461 0.0
H1485 H 0.61576 0.94347 0.21308 0.0
H1486 H 0.60745 0.06058 0.28661 0.0
H1487 H 0.6954 0.92185 0.27248 0.0
H1488 H 0.61264 0.98667 0.23963 0.0
H1489 H 0.69258 0.99709 0.31837 0.0
C1490 C 0.67225 0.03583 0.32645 0.0
C1491 C 0.6483 0.05434 0.31796 0.0
C1492 C 0.63077 0.97245 0.24687 0.0
C1493 C 0.65142 0.00456 0.28769 0.0
C1494 C 0.63254 0.94775 0.23169 0.0
C1495 C 0.65581 0.9289 0.24052 0.0
C1496 C 0.65246 0.97843 0.27106 0.0
C1497 C 0.67699 0.93567 0.26483 0.0
C1498 C 0.67386 0.011 0.31144 0.0
C1499 C 0.62631 0.04704 0.29411 0.0
N1500 N 0.67481 0.95981 0.27919 0.0
N1501 N 0.62843 0.02283 0.27988 0.0
H1502 H 0.58403 0.79812 0.14337 0.0
H1503 H 0.42683 0.70177 0.23388 0.0
H1504 H 0.58179 0.8042 0.23313 0.0
H1505 H 0.42684 0.71025 0.14425 0.0
H1506 H 0.48463 0.73683 0.23554 0.0
H1507 H 0.52724 0.76406 0.14477 0.0
C1508 C 0.57145 0.79253 0.16348 0.0
C1509 C 0.58789 0.80432 0.18817 0.0
C1510 C 0.47185 0.73083 0.21559 0.0
C1511 C 0.52215 0.76442 0.18995 0.0
C1512 C 0.43904 0.7107 0.2146 0.0
C1513 C 0.42185 0.70283 0.18888 0.0
C1514 C 0.48755 0.74293 0.19068 0.0
C1515 C 0.43882 0.71536 0.16461 0.0
C1516 C 0.53884 0.77285 0.16427 0.0
C1517 C 0.57003 0.79583 0.21354 0.0
N1518 N 0.47047 0.73461 0.16616 0.0
N1519 N 0.53815 0.77625 0.21381 0.0
loop_
_geom_bond_atom_site_label_1
_geom_bond_atom_site_label_2
_geom_bond_distance
_geom_bond_site_symmetry_2
_ccdc_geom_bond_type
Co0 O2 2.143 . S
Co0 O8 2.074 . S
Co0 O11 2.093 . S
Co0 O24 2.097 . S
Co0 N41 2.151 . S
Co0 N49 2.214 . S
Co1 O2 2.160 . S
Co1 O7 2.058 . S
Co1 O17 2.057 . S
Co1 O32 2.037 . S
Co1 N36 2.145 . S
Co1 N57 2.257 . S
O2 Co0 2.143 . S
O2 Co1 2.160 . S
C3 O4 1.278 . S
C3 O11 1.224 . S
O4 C3 1.278 . S
C5 O6 1.245 . S
C5 O17 1.232 . S
O6 C5 1.245 . S
O7 Co1 2.058 . S
O7 C33 1.269 . S
O8 Co0 2.074 . S
O8 C33 1.257 . S
H9 C34 0.930 . S
H10 C40 0.930 . S
O11 Co0 2.093 . S
O11 C3 1.224 . S
H12 C44 0.929 . S
H13 C46 0.930 . S
H14 C47 0.930 . S
H15 C45 0.929 . S
H16 C48 0.928 . S
O17 Co1 2.057 . S
O17 C5 1.232 . S
H18 C37 0.929 . S
H19 C38 0.929 . S
H20 C50 0.931 . S
H21 C42 0.929 . S
H22 C51 0.930 . S
H23 C43 0.931 . S
O24 Co0 2.097 . S
O24 C52 1.214 . S
H25 C53 0.929 . S
H26 C54 0.929 . S
H27 C55 0.930 . S
H28 C56 0.929 . S
H29 C58 0.930 . S
H30 C35 0.930 . S
H31 C39 0.930 . S
O32 Co1 2.037 . S
O32 C52 1.234 . S
C33 O7 1.269 . S
C33 O8 1.257 . S
C34 H9 0.930 . S
C34 C37 1.388 . S
C34 C39 1.418 . S
C35 H30 0.930 . S
C35 C38 1.404 . S
C35 C39 1.353 . S
N36 Co1 2.145 . S
N36 C37 1.397 . S
N36 C38 1.334 . S
C37 H18 0.929 . S
C37 C34 1.388 . S
C37 N36 1.397 . S
C38 H19 0.929 . S
C38 C35 1.404 . S
C38 N36 1.334 . S
C39 H31 0.930 . S
C39 C34 1.418 . S
C39 C35 1.353 . S
C40 H10 0.930 . S
C40 N41 1.330 . S
C40 C42 1.446 . S
N41 Co0 2.151 . S
N41 C40 1.330 . S
N41 C45 1.418 . S
C42 H21 0.929 . S
C42 C40 1.446 . S
C42 C43 1.332 . S
C43 H23 0.931 . S
C43 C42 1.332 . S
C43 C44 1.267 . S
C44 H12 0.929 . S
C44 C43 1.267 . S
C44 C45 1.251 . S
C45 H15 0.929 . S
C45 N41 1.418 . S
C45 C44 1.251 . S
C46 H13 0.930 . S
C46 C48 1.406 . S
C46 C51 1.261 . S
C47 H14 0.930 . S
C47 N49 1.325 . S
C47 C50 1.357 . S
C48 H16 0.928 . S
C48 C46 1.406 . S
C48 N49 1.261 . S
N49 Co0 2.214 . S
N49 C47 1.325 . S
N49 C48 1.261 . S
C50 H20 0.931 . S
C50 C47 1.357 . S
C50 C51 1.312 . S
C51 H22 0.930 . S
C51 C46 1.261 . S
C51 C50 1.312 . S
C52 O24 1.214 . S
C52 O32 1.234 . S
C53 H25 0.929 . S
C53 C56 1.391 . S
C53 C58 1.391 . S
C54 H26 0.929 . S
C54 C55 1.390 . S
C54 N57 1.391 . S
C55 H27 0.930 . S
C55 C54 1.390 . S
C55 C56 1.392 . S
C56 H28 0.929 . S
C56 C53 1.391 . S
C56 C55 1.392 . S
N57 Co1 2.257 . S
N57 C54 1.391 . S
N57 C58 1.388 . S
C58 H29 0.930 . S
C58 C53 1.391 . S
C58 N57 1.388 . S
Co59 O61 2.143 . S
Co59 O67 2.074 . S
Co59 O70 2.093 . S
Co59 O83 2.097 . S
Co59 N100 2.151 . S
Co59 N108 2.214 . S
Co60 O61 2.160 . S
Co60 O66 2.058 . S
Co60 O76 2.057 . S
Co60 O91 2.037 . S
Co60 N95 2.145 . S
Co60 N116 2.257 . S
O61 Co59 2.143 . S
O61 Co60 2.160 . S
C62 O63 1.278 . S
C62 O70 1.224 . S
O63 C62 1.278 . S
C64 O65 1.245 . S
C64 O76 1.232 . S
O65 C64 1.245 . S
O66 Co60 2.058 . S
O66 C92 1.269 . S
O67 Co59 2.074 . S
O67 C92 1.257 . S
H68 C93 0.930 . S
H69 C99 0.930 . S
O70 Co59 2.093 . S
O70 C62 1.224 . S
H71 C103 0.929 . S
H72 C105 0.930 . S
H73 C106 0.930 . S
H74 C104 0.929 . S
H75 C107 0.928 . S
O76 Co60 2.057 . S
O76 C64 1.232 . S
H77 C96 0.929 . S
H78 C97 0.929 . S
H79 C109 0.931 . S
H80 C101 0.929 . S
H81 C110 0.930 . S
H82 C102 0.931 . S
O83 Co59 2.097 . S
O83 C111 1.214 . S
H84 C112 0.929 . S
H85 C113 0.929 . S
H86 C114 0.930 . S
H87 C115 0.929 . S
H88 C117 0.930 . S
H89 C94 0.930 . S
H90 C98 0.930 . S
O91 Co60 2.037 . S
O91 C111 1.234 . S
C92 O66 1.269 . S
C92 O67 1.257 . S
C93 H68 0.930 . S
C93 C96 1.388 . S
C93 C98 1.418 . S
C94 H89 0.930 . S
C94 C97 1.404 . S
C94 C98 1.353 . S
N95 Co60 2.145 . S
N95 C96 1.397 . S
N95 C97 1.334 . S
C96 H77 0.929 . S
C96 C93 1.388 . S
C96 N95 1.397 . S
C97 H78 0.929 . S
C97 C94 1.404 . S
C97 N95 1.334 . S
C98 H90 0.930 . S
C98 C93 1.418 . S
C98 C94 1.353 . S
C99 H69 0.930 . S
C99 N100 1.330 . S
C99 C101 1.446 . S
N100 Co59 2.151 . S
N100 C99 1.330 . S
N100 C104 1.418 . S
C101 H80 0.929 . S
C101 C99 1.446 . S
C101 C102 1.332 . S
C102 H82 0.931 . S
C102 C101 1.332 . S
C102 C103 1.267 . S
C103 H71 0.929 . S
C103 C102 1.267 . S
C103 C104 1.251 . S
C104 H74 0.929 . S
C104 N100 1.418 . S
C104 C103 1.251 . S
C105 H72 0.930 . S
C105 C107 1.406 . S
C105 C110 1.261 . S
C106 H73 0.930 . S
C106 N108 1.325 . S
C106 C109 1.357 . S
C107 H75 0.928 . S
C107 C105 1.406 . S
C107 N108 1.261 . S
N108 Co59 2.214 . S
N108 C106 1.325 . S
N108 C107 1.261 . S
C109 H79 0.931 . S
C109 C106 1.357 . S
C109 C110 1.312 . S
C110 H81 0.930 . S
C110 C105 1.261 . S
C110 C109 1.312 . S
C111 O83 1.214 . S
C111 O91 1.234 . S
C112 H84 0.929 . S
C112 C115 1.391 . S
C112 C117 1.391 . S
C113 H85 0.929 . S
C113 C114 1.390 . S
C113 N116 1.391 . S
C114 H86 0.930 . S
C114 C113 1.390 . S
C114 C115 1.392 . S
C115 H87 0.929 . S
C115 C112 1.391 . S
C115 C114 1.392 . S
N116 Co60 2.257 . S
N116 C113 1.391 . S
N116 C117 1.388 . S
C117 H88 0.930 . S
C117 C112 1.391 . S
C117 N116 1.388 . S
Co118 O120 2.143 . S
Co118 O126 2.074 . S
Co118 O129 2.093 . S
Co118 O142 2.097 . S
Co118 N159 2.151 . S
Co118 N167 2.214 . S
Co119 O120 2.160 . S
Co119 O125 2.058 . S
Co119 O135 2.057 . S
Co119 O150 2.037 . S
Co119 N154 2.145 . S
Co119 N175 2.257 . S
O120 Co118 2.143 . S
O120 Co119 2.160 . S
C121 O122 1.278 . S
C121 O129 1.224 . S
O122 C121 1.278 . S
C123 O124 1.245 . S
C123 O135 1.232 . S
O124 C123 1.245 . S
O125 Co119 2.058 . S
O125 C151 1.269 . S
O126 Co118 2.074 . S
O126 C151 1.257 . S
H127 C152 0.930 . S
H128 C158 0.930 . S
O129 Co118 2.093 . S
O129 C121 1.224 . S
H130 C162 0.929 . S
H131 C164 0.930 . S
H132 C165 0.930 . S
H133 C163 0.929 . S
H134 C166 0.928 . S
O135 Co119 2.057 . S
O135 C123 1.232 . S
H136 C155 0.929 . S
H137 C156 0.929 . S
H138 C168 0.931 . S
H139 C160 0.929 . S
H140 C169 0.930 . S
H141 C161 0.931 . S
O142 Co118 2.097 . S
O142 C170 1.214 . S
H143 C171 0.929 . S
H144 C172 0.929 . S
H145 C173 0.930 . S
H146 C174 0.929 . S
H147 C176 0.930 . S
H148 C153 0.930 . S
H149 C157 0.930 . S
O150 Co119 2.037 . S
O150 C170 1.234 . S
C151 O125 1.269 . S
C151 O126 1.257 . S
C152 H127 0.930 . S
C152 C155 1.388 . S
C152 C157 1.418 . S
C153 H148 0.930 . S
C153 C156 1.404 . S
C153 C157 1.353 . S
N154 Co119 2.145 . S
N154 C155 1.397 . S
N154 C156 1.334 . S
C155 H136 0.929 . S
C155 C152 1.388 . S
C155 N154 1.397 . S
C156 H137 0.929 . S
C156 C153 1.404 . S
C156 N154 1.334 . S
C157 H149 0.930 . S
C157 C152 1.418 . S
C157 C153 1.353 . S
C158 H128 0.930 . S
C158 N159 1.330 . S
C158 C160 1.446 . S
N159 Co118 2.151 . S
N159 C158 1.330 . S
N159 C163 1.418 . S
C160 H139 0.929 . S
C160 C158 1.446 . S
C160 C161 1.332 . S
C161 H141 0.931 . S
C161 C160 1.332 . S
C161 C162 1.267 . S
C162 H130 0.929 . S
C162 C161 1.267 . S
C162 C163 1.251 . S
C163 H133 0.929 . S
C163 N159 1.418 . S
C163 C162 1.251 . S
C164 H131 0.930 . S
C164 C166 1.406 . S
C164 C169 1.261 . S
C165 H132 0.930 . S
C165 N167 1.325 . S
C165 C168 1.357 . S
C166 H134 0.928 . S
C166 C164 1.406 . S
C166 N167 1.261 . S
N167 Co118 2.214 . S
N167 C165 1.325 . S
N167 C166 1.261 . S
C168 H138 0.931 . S
C168 C165 1.357 . S
C168 C169 1.312 . S
C169 H140 0.930 . S
C169 C164 1.261 . S
C169 C168 1.312 . S
C170 O142 1.214 . S
C170 O150 1.234 . S
C171 H143 0.929 . S
C171 C174 1.391 . S
C171 C176 1.391 . S
C172 H144 0.929 . S
C172 C173 1.390 . S
C172 N175 1.391 . S
C173 H145 0.930 . S
C173 C172 1.390 . S
C173 C174 1.392 . S
C174 H146 0.929 . S
C174 C171 1.391 . S
C174 C173 1.392 . S
N175 Co119 2.257 . S
N175 C172 1.391 . S
N175 C176 1.388 . S
C176 H147 0.930 . S
C176 C171 1.391 . S
C176 N175 1.388 . S
Co177 O179 2.143 . S
Co177 O185 2.074 . S
Co177 O188 2.093 . S
Co177 O201 2.097 . S
Co177 N218 2.151 . S
Co177 N226 2.214 . S
Co178 O179 2.160 . S
Co178 O184 2.058 . S
Co178 O194 2.057 . S
Co178 O209 2.037 . S
Co178 N213 2.145 . S
Co178 N234 2.257 . S
O179 Co177 2.143 . S
O179 Co178 2.160 . S
C180 O181 1.278 . S
C180 O188 1.224 . S
O181 C180 1.278 . S
C182 O183 1.245 . S
C182 O194 1.232 . S
O183 C182 1.245 . S
O184 Co178 2.058 . S
O184 C210 1.269 . S
O185 Co177 2.074 . S
O185 C210 1.257 . S
H186 C211 0.930 . S
H187 C217 0.930 . S
O188 Co177 2.093 . S
O188 C180 1.224 . S
H189 C221 0.929 . S
H190 C223 0.930 . S
H191 C224 0.930 . S
H192 C222 0.929 . S
H193 C225 0.928 . S
O194 Co178 2.057 . S
O194 C182 1.232 . S
H195 C214 0.929 . S
H196 C215 0.929 . S
H197 C227 0.931 . S
H198 C219 0.929 . S
H199 C228 0.930 . S
H200 C220 0.931 . S
O201 Co177 2.097 . S
O201 C229 1.214 . S
H202 C230 0.929 . S
H203 C231 0.929 . S
H204 C232 0.930 . S
H205 C233 0.929 . S
H206 C235 0.930 . S
H207 C212 0.930 . S
H208 C216 0.930 . S
O209 Co178 2.037 . S
O209 C229 1.234 . S
C210 O184 1.269 . S
C210 O185 1.257 . S
C211 H186 0.930 . S
C211 C214 1.388 . S
C211 C216 1.418 . S
C212 H207 0.930 . S
C212 C215 1.404 . S
C212 C216 1.353 . S
N213 Co178 2.145 . S
N213 C214 1.397 . S
N213 C215 1.334 . S
C214 H195 0.929 . S
C214 C211 1.388 . S
C214 N213 1.397 . S
C215 H196 0.929 . S
C215 C212 1.404 . S
C215 N213 1.334 . S
C216 H208 0.930 . S
C216 C211 1.418 . S
C216 C212 1.353 . S
C217 H187 0.930 . S
C217 N218 1.330 . S
C217 C219 1.446 . S
N218 Co177 2.151 . S
N218 C217 1.330 . S
N218 C222 1.418 . S
C219 H198 0.929 . S
C219 C217 1.446 . S
C219 C220 1.332 . S
C220 H200 0.931 . S
C220 C219 1.332 . S
C220 C221 1.267 . S
C221 H189 0.929 . S
C221 C220 1.267 . S
C221 C222 1.251 . S
C222 H192 0.929 . S
C222 N218 1.418 . S
C222 C221 1.251 . S
C223 H190 0.930 . S
C223 C225 1.406 . S
C223 C228 1.261 . S
C224 H191 0.930 . S
C224 N226 1.325 . S
C224 C227 1.357 . S
C225 H193 0.928 . S
C225 C223 1.406 . S
C225 N226 1.261 . S
N226 Co177 2.214 . S
N226 C224 1.325 . S
N226 C225 1.261 . S
C227 H197 0.931 . S
C227 C224 1.357 . S
C227 C228 1.312 . S
C228 H199 0.930 . S
C228 C223 1.261 . S
C228 C227 1.312 . S
C229 O201 1.214 . S
C229 O209 1.234 . S
C230 H202 0.929 . S
C230 C233 1.391 . S
C230 C235 1.391 . S
C231 H203 0.929 . S
C231 C232 1.390 . S
C231 N234 1.391 . S
C232 H204 0.930 . S
C232 C231 1.390 . S
C232 C233 1.392 . S
C233 H205 0.929 . S
C233 C230 1.391 . S
C233 C232 1.392 . S
N234 Co178 2.257 . S
N234 C231 1.391 . S
N234 C235 1.388 . S
C235 H206 0.930 . S
C235 C230 1.391 . S
C235 N234 1.388 . S
Co236 O238 2.143 . S
Co236 O244 2.074 . S
Co236 O247 2.093 . S
Co236 O260 2.097 . S
Co236 N277 2.151 . S
Co236 N285 2.214 . S
Co237 O238 2.160 . S
Co237 O243 2.058 . S
Co237 O253 2.057 . S
Co237 O268 2.037 . S
Co237 N272 2.145 . S
Co237 N293 2.257 . S
O238 Co236 2.143 . S
O238 Co237 2.160 . S
C239 O240 1.278 . S
C239 O247 1.224 . S
O240 C239 1.278 . S
C241 O242 1.245 . S
C241 O253 1.232 . S
O242 C241 1.245 . S
O243 Co237 2.058 . S
O243 C269 1.269 . S
O244 Co236 2.074 . S
O244 C269 1.257 . S
H245 C270 0.930 . S
H246 C276 0.930 . S
O247 Co236 2.093 . S
O247 C239 1.224 . S
H248 C280 0.929 . S
H249 C282 0.930 . S
H250 C283 0.930 . S
H251 C281 0.929 . S
H252 C284 0.928 . S
O253 Co237 2.057 . S
O253 C241 1.232 . S
H254 C273 0.929 . S
H255 C274 0.929 . S
H256 C286 0.931 . S
H257 C278 0.929 . S
H258 C287 0.930 . S
H259 C279 0.931 . S
O260 Co236 2.097 . S
O260 C288 1.214 . S
H261 C289 0.929 . S
H262 C290 0.929 . S
H263 C291 0.930 . S
H264 C292 0.929 . S
H265 C294 0.930 . S
H266 C271 0.930 . S
H267 C275 0.930 . S
O268 Co237 2.037 . S
O268 C288 1.234 . S
C269 O243 1.269 . S
C269 O244 1.257 . S
C270 H245 0.930 . S
C270 C273 1.388 . S
C270 C275 1.418 . S
C271 H266 0.930 . S
C271 C274 1.404 . S
C271 C275 1.353 . S
N272 Co237 2.145 . S
N272 C273 1.397 . S
N272 C274 1.334 . S
C273 H254 0.929 . S
C273 C270 1.388 . S
C273 N272 1.397 . S
C274 H255 0.929 . S
C274 C271 1.404 . S
C274 N272 1.334 . S
C275 H267 0.930 . S
C275 C270 1.418 . S
C275 C271 1.353 . S
C276 H246 0.930 . S
C276 N277 1.330 . S
C276 C278 1.446 . S
N277 Co236 2.151 . S
N277 C276 1.330 . S
N277 C281 1.418 . S
C278 H257 0.929 . S
C278 C276 1.446 . S
C278 C279 1.332 . S
C279 H259 0.931 . S
C279 C278 1.332 . S
C279 C280 1.267 . S
C280 H248 0.929 . S
C280 C279 1.267 . S
C280 C281 1.251 . S
C281 H251 0.929 . S
C281 N277 1.418 . S
C281 C280 1.251 . S
C282 H249 0.930 . S
C282 C284 1.406 . S
C282 C287 1.261 . S
C283 H250 0.930 . S
C283 N285 1.325 . S
C283 C286 1.357 . S
C284 H252 0.928 . S
C284 C282 1.406 . S
C284 N285 1.261 . S
N285 Co236 2.214 . S
N285 C283 1.325 . S
N285 C284 1.261 . S
C286 H256 0.931 . S
C286 C283 1.357 . S
C286 C287 1.312 . S
C287 H258 0.930 . S
C287 C282 1.261 . S
C287 C286 1.312 . S
C288 O260 1.214 . S
C288 O268 1.234 . S
C289 H261 0.929 . S
C289 C292 1.391 . S
C289 C294 1.391 . S
C290 H262 0.929 . S
C290 C291 1.390 . S
C290 N293 1.391 . S
C291 H263 0.930 . S
C291 C290 1.390 . S
C291 C292 1.392 . S
C292 H264 0.929 . S
C292 C289 1.391 . S
C292 C291 1.392 . S
N293 Co237 2.257 . S
N293 C290 1.391 . S
N293 C294 1.388 . S
C294 H265 0.930 . S
C294 C289 1.391 . S
C294 N293 1.388 . S
Co295 O297 2.143 . S
Co295 O303 2.074 . S
Co295 O306 2.093 . S
Co295 O319 2.097 . S
Co295 N336 2.151 . S
Co295 N344 2.214 . S
Co296 O297 2.160 . S
Co296 O302 2.058 . S
Co296 O312 2.057 . S
Co296 O327 2.037 . S
Co296 N331 2.145 . S
Co296 N352 2.257 . S
O297 Co295 2.143 . S
O297 Co296 2.160 . S
C298 O299 1.278 . S
C298 O306 1.224 . S
O299 C298 1.278 . S
C300 O301 1.245 . S
C300 O312 1.232 . S
O301 C300 1.245 . S
O302 Co296 2.058 . S
O302 C328 1.269 . S
O303 Co295 2.074 . S
O303 C328 1.257 . S
H304 C329 0.930 . S
H305 C335 0.930 . S
O306 Co295 2.093 . S
O306 C298 1.224 . S
H307 C339 0.932 . S
H308 C341 0.930 1_455 S
H309 C342 0.930 . S
H310 C340 0.929 . S
H311 C343 0.928 . S
O312 Co296 2.057 . S
O312 C300 1.232 . S
H313 C332 0.929 . S
H314 C333 0.929 . S
H315 C345 0.931 . S
H316 C337 0.929 . S
H317 C346 0.930 . S
H318 C338 0.931 . S
O319 Co295 2.097 . S
O319 C347 1.214 . S
H320 C348 0.929 . S
H321 C349 0.929 . S
H322 C350 0.930 . S
H323 C351 0.929 . S
H324 C353 0.930 . S
H325 C330 0.930 . S
H326 C334 0.930 . S
O327 Co296 2.037 . S
O327 C347 1.234 . S
C328 O302 1.269 . S
C328 O303 1.257 . S
C329 H304 0.930 . S
C329 C332 1.388 . S
C329 C334 1.418 . S
C330 H325 0.930 . S
C330 C333 1.404 . S
C330 C334 1.353 . S
N331 Co296 2.145 . S
N331 C332 1.397 . S
N331 C333 1.334 . S
C332 H313 0.929 . S
C332 C329 1.388 . S
C332 N331 1.397 . S
C333 H314 0.929 . S
C333 C330 1.404 . S
C333 N331 1.334 . S
C334 H326 0.930 . S
C334 C329 1.418 . S
C334 C330 1.353 . S
C335 H305 0.930 . S
C335 N336 1.330 . S
C335 C337 1.446 1_655 S
N336 Co295 2.151 . S
N336 C335 1.330 . S
N336 C340 1.418 . S
C337 H316 0.929 . S
C337 C335 1.446 1_455 S
C337 C338 1.332 . S
C338 H318 0.931 . S
C338 C337 1.332 . S
C338 C339 1.267 1_455 S
C339 H307 0.932 . S
C339 C338 1.267 1_655 S
C339 C340 1.251 . S
C340 H310 0.929 . S
C340 N336 1.418 . S
C340 C339 1.251 . S
C341 H308 0.930 1_655 S
C341 C343 1.406 . S
C341 C346 1.261 . S
C342 H309 0.930 . S
C342 N344 1.325 . S
C342 C345 1.357 . S
C343 H311 0.928 . S
C343 C341 1.406 . S
C343 N344 1.261 . S
N344 Co295 2.214 . S
N344 C342 1.325 . S
N344 C343 1.261 . S
C345 H315 0.931 . S
C345 C342 1.357 . S
C345 C346 1.312 . S
C346 H317 0.930 . S
C346 C341 1.261 . S
C346 C345 1.312 . S
C347 O319 1.214 . S
C347 O327 1.234 . S
C348 H320 0.929 . S
C348 C351 1.391 . S
C348 C353 1.391 . S
C349 H321 0.929 . S
C349 C350 1.390 . S
C349 N352 1.391 . S
C350 H322 0.930 . S
C350 C349 1.390 . S
C350 C351 1.392 . S
C351 H323 0.929 . S
C351 C348 1.391 . S
C351 C350 1.392 . S
N352 Co296 2.257 . S
N352 C349 1.391 . S
N352 C353 1.388 . S
C353 H324 0.930 . S
C353 C348 1.391 . S
C353 N352 1.388 . S
Co354 O356 2.143 . S
Co354 O362 2.074 . S
Co354 O365 2.093 . S
Co354 O378 2.097 . S
Co354 N395 2.151 . S
Co354 N403 2.214 . S
Co355 O356 2.160 . S
Co355 O361 2.058 . S
Co355 O371 2.057 . S
Co355 O386 2.037 . S
Co355 N390 2.145 . S
Co355 N411 2.257 . S
O356 Co354 2.143 . S
O356 Co355 2.160 . S
C357 O358 1.278 . S
C357 O365 1.224 . S
O358 C357 1.278 . S
C359 O360 1.245 . S
C359 O371 1.232 . S
O360 C359 1.245 . S
O361 Co355 2.058 . S
O361 C387 1.269 . S
O362 Co354 2.074 . S
O362 C387 1.257 . S
H363 C388 0.930 . S
H364 C394 0.930 . S
O365 Co354 2.093 . S
O365 C357 1.224 . S
H366 C398 0.932 . S
H367 C400 0.930 1_655 S
H368 C401 0.930 . S
H369 C399 0.929 . S
H370 C402 0.928 . S
O371 Co355 2.057 . S
O371 C359 1.232 . S
H372 C391 0.929 . S
H373 C392 0.929 . S
H374 C404 0.931 . S
H375 C396 0.929 . S
H376 C405 0.930 . S
H377 C397 0.931 . S
O378 Co354 2.097 . S
O378 C406 1.214 . S
H379 C407 0.929 . S
H380 C408 0.929 . S
H381 C409 0.930 . S
H382 C410 0.929 . S
H383 C412 0.930 . S
H384 C389 0.930 . S
H385 C393 0.930 . S
O386 Co355 2.037 . S
O386 C406 1.234 . S
C387 O361 1.269 . S
C387 O362 1.257 . S
C388 H363 0.930 . S
C388 C391 1.388 . S
C388 C393 1.418 . S
C389 H384 0.930 . S
C389 C392 1.404 . S
C389 C393 1.353 . S
N390 Co355 2.145 . S
N390 C391 1.397 . S
N390 C392 1.334 . S
C391 H372 0.929 . S
C391 C388 1.388 . S
C391 N390 1.397 . S
C392 H373 0.929 . S
C392 C389 1.404 . S
C392 N390 1.334 . S
C393 H385 0.930 . S
C393 C388 1.418 . S
C393 C389 1.353 . S
C394 H364 0.930 . S
C394 N395 1.330 . S
C394 C396 1.446 1_455 S
N395 Co354 2.151 . S
N395 C394 1.330 . S
N395 C399 1.418 . S
C396 H375 0.929 . S
C396 C394 1.446 1_655 S
C396 C397 1.332 . S
C397 H377 0.931 . S
C397 C396 1.332 . S
C397 C398 1.267 1_655 S
C398 H366 0.932 . S
C398 C397 1.267 1_455 S
C398 C399 1.251 . S
C399 H369 0.929 . S
C399 N395 1.418 . S
C399 C398 1.251 . S
C400 H367 0.930 1_455 S
C400 C402 1.406 . S
C400 C405 1.261 . S
C401 H368 0.930 . S
C401 N403 1.325 . S
C401 C404 1.357 . S
C402 H370 0.928 . S
C402 C400 1.406 . S
C402 N403 1.261 . S
N403 Co354 2.214 . S
N403 C401 1.325 . S
N403 C402 1.261 . S
C404 H374 0.931 . S
C404 C401 1.357 . S
C404 C405 1.312 . S
C405 H376 0.930 . S
C405 C400 1.261 . S
C405 C404 1.312 . S
C406 O378 1.214 . S
C406 O386 1.234 . S
C407 H379 0.929 . S
C407 C410 1.391 . S
C407 C412 1.391 . S
C408 H380 0.929 . S
C408 C409 1.390 . S
C408 N411 1.391 . S
C409 H381 0.930 . S
C409 C408 1.390 . S
C409 C410 1.392 . S
C410 H382 0.929 . S
C410 C407 1.391 . S
C410 C409 1.392 . S
N411 Co355 2.257 . S
N411 C408 1.391 . S
N411 C412 1.388 . S
C412 H383 0.930 . S
C412 C407 1.391 . S
C412 N411 1.388 . S
Co413 O415 2.143 . S
Co413 O421 2.074 . S
Co413 O424 2.093 . S
Co413 O437 2.097 . S
Co413 N454 2.151 . S
Co413 N462 2.214 . S
Co414 O415 2.160 . S
Co414 O420 2.058 . S
Co414 O430 2.057 . S
Co414 O445 2.037 . S
Co414 N449 2.145 . S
Co414 N470 2.257 . S
O415 Co413 2.143 . S
O415 Co414 2.160 . S
C416 O417 1.278 . S
C416 O424 1.224 . S
O417 C416 1.278 . S
C418 O419 1.245 . S
C418 O430 1.232 . S
O419 C418 1.245 . S
O420 Co414 2.058 . S
O420 C446 1.269 . S
O421 Co413 2.074 . S
O421 C446 1.257 . S
H422 C447 0.930 . S
H423 C453 0.930 . S
O424 Co413 2.093 . S
O424 C416 1.224 . S
H425 C457 0.929 . S
H426 C459 0.930 . S
H427 C460 0.930 . S
H428 C458 0.929 . S
H429 C461 0.928 . S
O430 Co414 2.057 . S
O430 C418 1.232 . S
H431 C450 0.929 . S
H432 C451 0.929 . S
H433 C463 0.931 . S
H434 C455 0.929 . S
H435 C464 0.930 . S
H436 C456 0.931 . S
O437 Co413 2.097 . S
O437 C465 1.214 . S
H438 C466 0.929 . S
H439 C467 0.929 . S
H440 C468 0.930 . S
H441 C469 0.929 . S
H442 C471 0.930 . S
H443 C448 0.930 . S
H444 C452 0.930 . S
O445 Co414 2.037 . S
O445 C465 1.234 . S
C446 O420 1.269 . S
C446 O421 1.257 . S
C447 H422 0.930 . S
C447 C450 1.388 . S
C447 C452 1.418 . S
C448 H443 0.930 . S
C448 C451 1.404 . S
C448 C452 1.353 . S
N449 Co414 2.145 . S
N449 C450 1.397 . S
N449 C451 1.334 . S
C450 H431 0.929 . S
C450 C447 1.388 . S
C450 N449 1.397 . S
C451 H432 0.929 . S
C451 C448 1.404 . S
C451 N449 1.334 . S
C452 H444 0.930 . S
C452 C447 1.418 . S
C452 C448 1.353 . S
C453 H423 0.930 . S
C453 N454 1.330 . S
C453 C455 1.446 . S
N454 Co413 2.151 . S
N454 C453 1.330 . S
N454 C458 1.418 . S
C455 H434 0.929 . S
C455 C453 1.446 . S
C455 C456 1.332 . S
C456 H436 0.931 . S
C456 C455 1.332 . S
C456 C457 1.267 . S
C457 H425 0.929 . S
C457 C456 1.267 . S
C457 C458 1.251 . S
C458 H428 0.929 . S
C458 N454 1.418 . S
C458 C457 1.251 . S
C459 H426 0.930 . S
C459 C461 1.406 . S
C459 C464 1.261 . S
C460 H427 0.930 . S
C460 N462 1.325 . S
C460 C463 1.357 . S
C461 H429 0.928 . S
C461 C459 1.406 . S
C461 N462 1.261 . S
N462 Co413 2.214 . S
N462 C460 1.325 . S
N462 C461 1.261 . S
C463 H433 0.931 . S
C463 C460 1.357 . S
C463 C464 1.312 . S
C464 H435 0.930 . S
C464 C459 1.261 . S
C464 C463 1.312 . S
C465 O437 1.214 . S
C465 O445 1.234 . S
C466 H438 0.929 . S
C466 C469 1.391 . S
C466 C471 1.391 . S
C467 H439 0.929 . S
C467 C468 1.390 . S
C467 N470 1.391 . S
C468 H440 0.930 . S
C468 C467 1.390 . S
C468 C469 1.392 . S
C469 H441 0.929 . S
C469 C466 1.391 . S
C469 C468 1.392 . S
N470 Co414 2.257 . S
N470 C467 1.391 . S
N470 C471 1.388 . S
C471 H442 0.930 . S
C471 C466 1.391 . S
C471 N470 1.388 . S
Co472 O474 2.143 . S
Co472 O480 2.074 . S
Co472 O483 2.093 . S
Co472 O496 2.097 . S
Co472 N513 2.151 . S
Co472 N521 2.214 . S
Co473 O474 2.160 . S
Co473 O479 2.058 . S
Co473 O489 2.057 . S
Co473 O504 2.037 . S
Co473 N508 2.145 . S
Co473 N529 2.257 . S
O474 Co472 2.143 . S
O474 Co473 2.160 . S
C475 O476 1.278 . S
C475 O483 1.224 . S
O476 C475 1.278 . S
C477 O478 1.245 . S
C477 O489 1.232 . S
O478 C477 1.245 . S
O479 Co473 2.058 . S
O479 C505 1.269 . S
O480 Co472 2.074 . S
O480 C505 1.257 . S
H481 C506 0.930 . S
H482 C512 0.930 . S
O483 Co472 2.093 . S
O483 C475 1.224 . S
H484 C516 0.929 . S
H485 C518 0.930 . S
H486 C519 0.930 . S
H487 C517 0.929 . S
H488 C520 0.928 . S
O489 Co473 2.057 . S
O489 C477 1.232 . S
H490 C509 0.929 . S
H491 C510 0.929 . S
H492 C522 0.931 . S
H493 C514 0.929 . S
H494 C523 0.930 . S
H495 C515 0.931 . S
O496 Co472 2.097 . S
O496 C524 1.214 . S
H497 C525 0.929 . S
H498 C526 0.929 . S
H499 C527 0.930 . S
H500 C528 0.929 . S
H501 C530 0.930 . S
H502 C507 0.930 . S
H503 C511 0.930 . S
O504 Co473 2.037 . S
O504 C524 1.234 . S
C505 O479 1.269 . S
C505 O480 1.257 . S
C506 H481 0.930 . S
C506 C509 1.388 . S
C506 C511 1.418 . S
C507 H502 0.930 . S
C507 C510 1.404 . S
C507 C511 1.353 . S
N508 Co473 2.145 . S
N508 C509 1.397 . S
N508 C510 1.334 . S
C509 H490 0.929 . S
C509 C506 1.388 . S
C509 N508 1.397 . S
C510 H491 0.929 . S
C510 C507 1.404 . S
C510 N508 1.334 . S
C511 H503 0.930 . S
C511 C506 1.418 . S
C511 C507 1.353 . S
C512 H482 0.930 . S
C512 N513 1.330 . S
C512 C514 1.446 . S
N513 Co472 2.151 . S
N513 C512 1.330 . S
N513 C517 1.418 . S
C514 H493 0.929 . S
C514 C512 1.446 . S
C514 C515 1.332 . S
C515 H495 0.931 . S
C515 C514 1.332 . S
C515 C516 1.267 . S
C516 H484 0.929 . S
C516 C515 1.267 . S
C516 C517 1.251 . S
C517 H487 0.929 . S
C517 N513 1.418 . S
C517 C516 1.251 . S
C518 H485 0.930 . S
C518 C520 1.406 . S
C518 C523 1.261 . S
C519 H486 0.930 . S
C519 N521 1.325 . S
C519 C522 1.357 . S
C520 H488 0.928 . S
C520 C518 1.406 . S
C520 N521 1.261 . S
N521 Co472 2.214 . S
N521 C519 1.325 . S
N521 C520 1.261 . S
C522 H492 0.931 . S
C522 C519 1.357 . S
C522 C523 1.312 . S
C523 H494 0.930 . S
C523 C518 1.261 . S
C523 C522 1.312 . S
C524 O496 1.214 . S
C524 O504 1.234 . S
C525 H497 0.929 . S
C525 C528 1.391 . S
C525 C530 1.391 . S
C526 H498 0.929 . S
C526 C527 1.390 . S
C526 N529 1.391 . S
C527 H499 0.930 . S
C527 C526 1.390 . S
C527 C528 1.392 . S
C528 H500 0.929 . S
C528 C525 1.391 . S
C528 C527 1.392 . S
N529 Co473 2.257 . S
N529 C526 1.391 . S
N529 C530 1.388 . S
C530 H501 0.930 . S
C530 C525 1.391 . S
C530 N529 1.388 . S
Co531 O533 2.143 . S
Co531 O539 2.074 . S
Co531 O542 2.093 . S
Co531 O555 2.097 . S
Co531 N572 2.151 . S
Co531 N580 2.214 . S
Co532 O533 2.160 . S
Co532 O538 2.058 . S
Co532 O548 2.057 . S
Co532 O563 2.037 . S
Co532 N567 2.145 . S
Co532 N588 2.257 . S
O533 Co531 2.143 . S
O533 Co532 2.160 . S
C534 O535 1.278 . S
C534 O542 1.224 . S
O535 C534 1.278 . S
C536 O537 1.245 . S
C536 O548 1.232 . S
O537 C536 1.245 . S
O538 Co532 2.058 . S
O538 C564 1.269 . S
O539 Co531 2.074 . S
O539 C564 1.257 . S
H540 C565 0.930 . S
H541 C571 0.930 . S
O542 Co531 2.093 . S
O542 C534 1.224 . S
H543 C575 0.929 . S
H544 C577 0.930 . S
H545 C578 0.930 . S
H546 C576 0.929 . S
H547 C579 0.928 . S
O548 Co532 2.057 . S
O548 C536 1.232 . S
H549 C568 0.929 . S
H550 C569 0.929 . S
H551 C581 0.931 . S
H552 C573 0.929 . S
H553 C582 0.930 . S
H554 C574 0.931 . S
O555 Co531 2.097 . S
O555 C583 1.214 . S
H556 C584 0.929 . S
H557 C585 0.929 . S
H558 C586 0.930 . S
H559 C587 0.929 . S
H560 C589 0.930 . S
H561 C566 0.930 . S
H562 C570 0.930 . S
O563 Co532 2.037 . S
O563 C583 1.234 . S
C564 O538 1.269 . S
C564 O539 1.257 . S
C565 H540 0.930 . S
C565 C568 1.388 . S
C565 C570 1.418 . S
C566 H561 0.930 . S
C566 C569 1.404 . S
C566 C570 1.353 . S
N567 Co532 2.145 . S
N567 C568 1.397 . S
N567 C569 1.334 . S
C568 H549 0.929 . S
C568 C565 1.388 . S
C568 N567 1.397 . S
C569 H550 0.929 . S
C569 C566 1.404 . S
C569 N567 1.334 . S
C570 H562 0.930 . S
C570 C565 1.418 . S
C570 C566 1.353 . S
C571 H541 0.930 . S
C571 N572 1.330 . S
C571 C573 1.446 . S
N572 Co531 2.151 . S
N572 C571 1.330 . S
N572 C576 1.418 . S
C573 H552 0.929 . S
C573 C571 1.446 . S
C573 C574 1.332 . S
C574 H554 0.931 . S
C574 C573 1.332 . S
C574 C575 1.267 . S
C575 H543 0.929 . S
C575 C574 1.267 . S
C575 C576 1.251 . S
C576 H546 0.929 . S
C576 N572 1.418 . S
C576 C575 1.251 . S
C577 H544 0.930 . S
C577 C579 1.406 . S
C577 C582 1.261 . S
C578 H545 0.930 . S
C578 N580 1.325 . S
C578 C581 1.357 . S
C579 H547 0.928 . S
C579 C577 1.406 . S
C579 N580 1.261 . S
N580 Co531 2.214 . S
N580 C578 1.325 . S
N580 C579 1.261 . S
C581 H551 0.931 . S
C581 C578 1.357 . S
C581 C582 1.312 . S
C582 H553 0.930 . S
C582 C577 1.261 . S
C582 C581 1.312 . S
C583 O555 1.214 . S
C583 O563 1.234 . S
C584 H556 0.929 . S
C584 C587 1.391 . S
C584 C589 1.391 . S
C585 H557 0.929 . S
C585 C586 1.390 . S
C585 N588 1.391 . S
C586 H558 0.930 . S
C586 C585 1.390 . S
C586 C587 1.392 . S
C587 H559 0.929 . S
C587 C584 1.391 . S
C587 C586 1.392 . S
N588 Co532 2.257 . S
N588 C585 1.391 . S
N588 C589 1.388 . S
C589 H560 0.930 . S
C589 C584 1.391 . S
C589 N588 1.388 . S
Co590 O592 2.143 . S
Co590 O598 2.074 . S
Co590 O601 2.093 . S
Co590 O614 2.097 . S
Co590 N631 2.151 . S
Co590 N639 2.214 . S
Co591 O592 2.160 . S
Co591 O597 2.058 . S
Co591 O607 2.057 . S
Co591 O622 2.037 . S
Co591 N626 2.145 . S
Co591 N647 2.257 . S
O592 Co590 2.143 . S
O592 Co591 2.160 . S
C593 O594 1.278 . S
C593 O601 1.224 . S
O594 C593 1.278 . S
C595 O596 1.245 . S
C595 O607 1.232 . S
O596 C595 1.245 . S
O597 Co591 2.058 . S
O597 C623 1.269 . S
O598 Co590 2.074 . S
O598 C623 1.257 . S
H599 C624 0.930 . S
H600 C630 0.930 . S
O601 Co590 2.093 . S
O601 C593 1.224 . S
H602 C634 0.929 . S
H603 C636 0.930 . S
H604 C637 0.930 . S
H605 C635 0.929 . S
H606 C638 0.928 . S
O607 Co591 2.057 . S
O607 C595 1.232 . S
H608 C627 0.929 . S
H609 C628 0.929 . S
H610 C640 0.931 . S
H611 C632 0.929 . S
H612 C641 0.930 . S
H613 C633 0.931 . S
O614 Co590 2.097 . S
O614 C642 1.214 . S
H615 C643 0.929 . S
H616 C644 0.929 . S
H617 C645 0.930 . S
H618 C646 0.929 . S
H619 C648 0.930 . S
H620 C625 0.930 . S
H621 C629 0.930 . S
O622 Co591 2.037 . S
O622 C642 1.234 . S
C623 O597 1.269 . S
C623 O598 1.257 . S
C624 H599 0.930 . S
C624 C627 1.388 . S
C624 C629 1.418 . S
C625 H620 0.930 . S
C625 C628 1.404 . S
C625 C629 1.353 . S
N626 Co591 2.145 . S
N626 C627 1.397 . S
N626 C628 1.334 . S
C627 H608 0.929 . S
C627 C624 1.388 . S
C627 N626 1.397 . S
C628 H609 0.929 . S
C628 C625 1.404 . S
C628 N626 1.334 . S
C629 H621 0.930 . S
C629 C624 1.418 . S
C629 C625 1.353 . S
C630 H600 0.930 . S
C630 N631 1.330 . S
C630 C632 1.446 . S
N631 Co590 2.151 . S
N631 C630 1.330 . S
N631 C635 1.418 . S
C632 H611 0.929 . S
C632 C630 1.446 . S
C632 C633 1.332 . S
C633 H613 0.931 . S
C633 C632 1.332 . S
C633 C634 1.267 . S
C634 H602 0.929 . S
C634 C633 1.267 . S
C634 C635 1.251 . S
C635 H605 0.929 . S
C635 N631 1.418 . S
C635 C634 1.251 . S
C636 H603 0.930 . S
C636 C638 1.406 . S
C636 C641 1.261 . S
C637 H604 0.930 . S
C637 N639 1.325 . S
C637 C640 1.357 . S
C638 H606 0.928 . S
C638 C636 1.406 . S
C638 N639 1.261 . S
N639 Co590 2.214 . S
N639 C637 1.325 . S
N639 C638 1.261 . S
C640 H610 0.931 . S
C640 C637 1.357 . S
C640 C641 1.312 . S
C641 H612 0.930 . S
C641 C636 1.261 . S
C641 C640 1.312 . S
C642 O614 1.214 . S
C642 O622 1.234 . S
C643 H615 0.929 . S
C643 C646 1.391 . S
C643 C648 1.391 . S
C644 H616 0.929 . S
C644 C645 1.390 . S
C644 N647 1.391 . S
C645 H617 0.930 . S
C645 C644 1.390 . S
C645 C646 1.392 . S
C646 H618 0.929 . S
C646 C643 1.391 . S
C646 C645 1.392 . S
N647 Co591 2.257 . S
N647 C644 1.391 . S
N647 C648 1.388 . S
C648 H619 0.930 . S
C648 C643 1.391 . S
C648 N647 1.388 . S
Co649 O651 2.143 . S
Co649 O657 2.074 . S
Co649 O660 2.093 . S
Co649 O673 2.097 . S
Co649 N690 2.151 . S
Co649 N698 2.214 . S
Co650 O651 2.160 . S
Co650 O656 2.058 . S
Co650 O666 2.057 . S
Co650 O681 2.037 . S
Co650 N685 2.145 . S
Co650 N706 2.257 . S
O651 Co649 2.143 . S
O651 Co650 2.160 . S
C652 O653 1.278 . S
C652 O660 1.224 . S
O653 C652 1.278 . S
C654 O655 1.245 . S
C654 O666 1.232 . S
O655 C654 1.245 . S
O656 Co650 2.058 . S
O656 C682 1.269 . S
O657 Co649 2.074 . S
O657 C682 1.257 . S
H658 C683 0.930 . S
H659 C689 0.930 . S
O660 Co649 2.093 . S
O660 C652 1.224 . S
H661 C693 0.929 . S
H662 C695 0.930 . S
H663 C696 0.930 . S
H664 C694 0.929 . S
H665 C697 0.928 . S
O666 Co650 2.057 . S
O666 C654 1.232 . S
H667 C686 0.929 . S
H668 C687 0.929 . S
H669 C699 0.931 . S
H670 C691 0.929 . S
H671 C700 0.930 . S
H672 C692 0.931 . S
O673 Co649 2.097 . S
O673 C701 1.214 . S
H674 C702 0.929 . S
H675 C703 0.929 . S
H676 C704 0.930 . S
H677 C705 0.929 . S
H678 C707 0.930 . S
H679 C684 0.930 . S
H680 C688 0.930 . S
O681 Co650 2.037 . S
O681 C701 1.234 . S
C682 O656 1.269 . S
C682 O657 1.257 . S
C683 H658 0.930 . S
C683 C686 1.388 . S
C683 C688 1.418 . S
C684 H679 0.930 . S
C684 C687 1.404 . S
C684 C688 1.353 . S
N685 Co650 2.145 . S
N685 C686 1.397 . S
N685 C687 1.334 . S
C686 H667 0.929 . S
C686 C683 1.388 . S
C686 N685 1.397 . S
C687 H668 0.929 . S
C687 C684 1.404 . S
C687 N685 1.334 . S
C688 H680 0.930 . S
C688 C683 1.418 . S
C688 C684 1.353 . S
C689 H659 0.930 . S
C689 N690 1.330 . S
C689 C691 1.446 . S
N690 Co649 2.151 . S
N690 C689 1.330 . S
N690 C694 1.418 . S
C691 H670 0.929 . S
C691 C689 1.446 . S
C691 C692 1.332 . S
C692 H672 0.931 . S
C692 C691 1.332 . S
C692 C693 1.267 . S
C693 H661 0.929 . S
C693 C692 1.267 . S
C693 C694 1.251 . S
C694 H664 0.929 . S
C694 N690 1.418 . S
C694 C693 1.251 . S
C695 H662 0.930 . S
C695 C697 1.406 . S
C695 C700 1.261 . S
C696 H663 0.930 . S
C696 N698 1.325 . S
C696 C699 1.357 . S
C697 H665 0.928 . S
C697 C695 1.406 . S
C697 N698 1.261 . S
N698 Co649 2.214 . S
N698 C696 1.325 . S
N698 C697 1.261 . S
C699 H669 0.931 . S
C699 C696 1.357 . S
C699 C700 1.312 . S
C700 H671 0.930 . S
C700 C695 1.261 . S
C700 C699 1.312 . S
C701 O673 1.214 . S
C701 O681 1.234 . S
C702 H674 0.929 . S
C702 C705 1.391 . S
C702 C707 1.391 . S
C703 H675 0.929 . S
C703 C704 1.390 . S
C703 N706 1.391 . S
C704 H676 0.930 . S
C704 C703 1.390 . S
C704 C705 1.392 . S
C705 H677 0.929 . S
C705 C702 1.391 . S
C705 C704 1.392 . S
N706 Co650 2.257 . S
N706 C703 1.391 . S
N706 C707 1.388 . S
C707 H678 0.930 . S
C707 C702 1.391 . S
C707 N706 1.388 . S
Co708 O710 2.143 . S
Co708 O716 2.074 . S
Co708 O719 2.093 . S
Co708 O732 2.097 . S
Co708 N749 2.151 . S
Co708 N757 2.214 . S
Co709 O710 2.160 . S
Co709 O715 2.058 . S
Co709 O725 2.057 . S
Co709 O740 2.037 . S
Co709 N744 2.145 . S
Co709 N765 2.257 . S
O710 Co708 2.143 . S
O710 Co709 2.160 . S
C711 O712 1.278 . S
C711 O719 1.224 . S
O712 C711 1.278 . S
C713 O714 1.245 . S
C713 O725 1.232 . S
O714 C713 1.245 . S
O715 Co709 2.058 . S
O715 C741 1.269 . S
O716 Co708 2.074 . S
O716 C741 1.257 . S
H717 C742 0.930 . S
H718 C748 0.930 . S
O719 Co708 2.093 . S
O719 C711 1.224 . S
H720 C752 0.929 . S
H721 C754 0.930 . S
H722 C755 0.930 . S
H723 C753 0.929 . S
H724 C756 0.928 . S
O725 Co709 2.057 . S
O725 C713 1.232 . S
H726 C745 0.929 . S
H727 C746 0.929 . S
H728 C758 0.931 . S
H729 C750 0.929 . S
H730 C759 0.930 . S
H731 C751 0.931 . S
O732 Co708 2.097 . S
O732 C760 1.214 . S
H733 C761 0.929 . S
H734 C762 0.929 . S
H735 C763 0.930 . S
H736 C764 0.929 . S
H737 C766 0.930 . S
H738 C743 0.930 . S
H739 C747 0.930 . S
O740 Co709 2.037 . S
O740 C760 1.234 . S
C741 O715 1.269 . S
C741 O716 1.257 . S
C742 H717 0.930 . S
C742 C745 1.388 . S
C742 C747 1.418 . S
C743 H738 0.930 . S
C743 C746 1.404 . S
C743 C747 1.353 . S
N744 Co709 2.145 . S
N744 C745 1.397 . S
N744 C746 1.334 . S
C745 H726 0.929 . S
C745 C742 1.388 . S
C745 N744 1.397 . S
C746 H727 0.929 . S
C746 C743 1.404 . S
C746 N744 1.334 . S
C747 H739 0.930 . S
C747 C742 1.418 . S
C747 C743 1.353 . S
C748 H718 0.930 . S
C748 N749 1.330 . S
C748 C750 1.446 . S
N749 Co708 2.151 . S
N749 C748 1.330 . S
N749 C753 1.418 . S
C750 H729 0.929 . S
C750 C748 1.446 . S
C750 C751 1.332 . S
C751 H731 0.931 . S
C751 C750 1.332 . S
C751 C752 1.267 . S
C752 H720 0.929 . S
C752 C751 1.267 . S
C752 C753 1.251 . S
C753 H723 0.929 . S
C753 N749 1.418 . S
C753 C752 1.251 . S
C754 H721 0.930 . S
C754 C756 1.406 . S
C754 C759 1.261 . S
C755 H722 0.930 . S
C755 N757 1.325 . S
C755 C758 1.357 . S
C756 H724 0.928 . S
C756 C754 1.406 . S
C756 N757 1.261 . S
N757 Co708 2.214 . S
N757 C755 1.325 . S
N757 C756 1.261 . S
C758 H728 0.931 . S
C758 C755 1.357 . S
C758 C759 1.312 . S
C759 H730 0.930 . S
C759 C754 1.261 . S
C759 C758 1.312 . S
C760 O732 1.214 . S
C760 O740 1.234 . S
C761 H733 0.929 . S
C761 C764 1.391 . S
C761 C766 1.391 . S
C762 H734 0.929 . S
C762 C763 1.390 . S
C762 N765 1.391 . S
C763 H735 0.930 . S
C763 C762 1.390 . S
C763 C764 1.392 . S
C764 H736 0.929 . S
C764 C761 1.391 . S
C764 C763 1.392 . S
N765 Co709 2.257 . S
N765 C762 1.391 . S
N765 C766 1.388 . S
C766 H737 0.930 . S
C766 C761 1.391 . S
C766 N765 1.388 . S
Co767 O769 2.143 . S
Co767 O775 2.074 . S
Co767 O778 2.093 . S
Co767 O791 2.097 . S
Co767 N808 2.151 . S
Co767 N816 2.214 . S
Co768 O769 2.160 . S
Co768 O774 2.058 . S
Co768 O784 2.057 . S
Co768 O799 2.037 . S
Co768 N803 2.145 . S
Co768 N824 2.257 . S
O769 Co767 2.143 . S
O769 Co768 2.160 . S
C770 O771 1.278 . S
C770 O778 1.224 . S
O771 C770 1.278 . S
C772 O773 1.245 . S
C772 O784 1.232 . S
O773 C772 1.245 . S
O774 Co768 2.058 . S
O774 C800 1.269 . S
O775 Co767 2.074 . S
O775 C800 1.257 . S
H776 C801 0.930 . S
H777 C807 0.930 . S
O778 Co767 2.093 . S
O778 C770 1.224 . S
H779 C811 0.929 . S
H780 C813 0.930 . S
H781 C814 0.930 . S
H782 C812 0.929 . S
H783 C815 0.928 . S
O784 Co768 2.057 . S
O784 C772 1.232 . S
H785 C804 0.929 . S
H786 C805 0.929 . S
H787 C817 0.931 . S
H788 C809 0.929 . S
H789 C818 0.930 . S
H790 C810 0.931 . S
O791 Co767 2.097 . S
O791 C819 1.214 . S
H792 C820 0.929 . S
H793 C821 0.929 . S
H794 C822 0.930 . S
H795 C823 0.929 . S
H796 C825 0.930 . S
H797 C802 0.930 . S
H798 C806 0.930 . S
O799 Co768 2.037 . S
O799 C819 1.234 . S
C800 O774 1.269 . S
C800 O775 1.257 . S
C801 H776 0.930 . S
C801 C804 1.388 . S
C801 C806 1.418 . S
C802 H797 0.930 . S
C802 C805 1.404 . S
C802 C806 1.353 . S
N803 Co768 2.145 . S
N803 C804 1.397 . S
N803 C805 1.334 . S
C804 H785 0.929 . S
C804 C801 1.388 . S
C804 N803 1.397 . S
C805 H786 0.929 . S
C805 C802 1.404 . S
C805 N803 1.334 . S
C806 H798 0.930 . S
C806 C801 1.418 . S
C806 C802 1.353 . S
C807 H777 0.930 . S
C807 N808 1.330 . S
C807 C809 1.446 . S
N808 Co767 2.151 . S
N808 C807 1.330 . S
N808 C812 1.418 . S
C809 H788 0.929 . S
C809 C807 1.446 . S
C809 C810 1.332 . S
C810 H790 0.931 . S
C810 C809 1.332 . S
C810 C811 1.267 . S
C811 H779 0.929 . S
C811 C810 1.267 . S
C811 C812 1.251 . S
C812 H782 0.929 . S
C812 N808 1.418 . S
C812 C811 1.251 . S
C813 H780 0.930 . S
C813 C815 1.406 . S
C813 C818 1.261 . S
C814 H781 0.930 . S
C814 N816 1.325 . S
C814 C817 1.357 . S
C815 H783 0.928 . S
C815 C813 1.406 . S
C815 N816 1.261 . S
N816 Co767 2.214 . S
N816 C814 1.325 . S
N816 C815 1.261 . S
C817 H787 0.931 . S
C817 C814 1.357 . S
C817 C818 1.312 . S
C818 H789 0.930 . S
C818 C813 1.261 . S
C818 C817 1.312 . S
C819 O791 1.214 . S
C819 O799 1.234 . S
C820 H792 0.929 . S
C820 C823 1.391 . S
C820 C825 1.391 . S
C821 H793 0.929 . S
C821 C822 1.390 . S
C821 N824 1.391 . S
C822 H794 0.930 . S
C822 C821 1.390 . S
C822 C823 1.392 . S
C823 H795 0.929 . S
C823 C820 1.391 . S
C823 C822 1.392 . S
N824 Co768 2.257 . S
N824 C821 1.391 . S
N824 C825 1.388 . S
C825 H796 0.930 . S
C825 C820 1.391 . S
C825 N824 1.388 . S
Co826 O828 2.143 . S
Co826 O834 2.074 . S
Co826 O837 2.093 . S
Co826 O850 2.097 . S
Co826 N867 2.151 . S
Co826 N875 2.214 . S
Co827 O828 2.160 . S
Co827 O833 2.058 . S
Co827 O843 2.057 . S
Co827 O858 2.037 . S
Co827 N862 2.145 . S
Co827 N883 2.257 . S
O828 Co826 2.143 . S
O828 Co827 2.160 . S
C829 O830 1.278 . S
C829 O837 1.224 . S
O830 C829 1.278 . S
C831 O832 1.245 . S
C831 O843 1.232 . S
O832 C831 1.245 . S
O833 Co827 2.058 . S
O833 C859 1.269 . S
O834 Co826 2.074 . S
O834 C859 1.257 . S
H835 C860 0.930 . S
H836 C866 0.930 . S
O837 Co826 2.093 . S
O837 C829 1.224 . S
H838 C870 0.929 . S
H839 C872 0.930 . S
H840 C873 0.930 . S
H841 C871 0.929 . S
H842 C874 0.928 . S
O843 Co827 2.057 . S
O843 C831 1.232 . S
H844 C863 0.929 . S
H845 C864 0.929 . S
H846 C876 0.931 . S
H847 C868 0.929 . S
H848 C877 0.930 . S
H849 C869 0.931 . S
O850 Co826 2.097 . S
O850 C878 1.214 . S
H851 C879 0.929 . S
H852 C880 0.929 . S
H853 C881 0.930 . S
H854 C882 0.929 . S
H855 C884 0.930 . S
H856 C861 0.930 . S
H857 C865 0.930 . S
O858 Co827 2.037 . S
O858 C878 1.234 . S
C859 O833 1.269 . S
C859 O834 1.257 . S
C860 H835 0.930 . S
C860 C863 1.388 . S
C860 C865 1.418 . S
C861 H856 0.930 . S
C861 C864 1.404 . S
C861 C865 1.353 . S
N862 Co827 2.145 . S
N862 C863 1.397 . S
N862 C864 1.334 . S
C863 H844 0.929 . S
C863 C860 1.388 . S
C863 N862 1.397 . S
C864 H845 0.929 . S
C864 C861 1.404 . S
C864 N862 1.334 . S
C865 H857 0.930 . S
C865 C860 1.418 . S
C865 C861 1.353 . S
C866 H836 0.930 . S
C866 N867 1.330 . S
C866 C868 1.446 . S
N867 Co826 2.151 . S
N867 C866 1.330 . S
N867 C871 1.418 . S
C868 H847 0.929 . S
C868 C866 1.446 . S
C868 C869 1.332 . S
C869 H849 0.931 . S
C869 C868 1.332 . S
C869 C870 1.267 . S
C870 H838 0.929 . S
C870 C869 1.267 . S
C870 C871 1.251 . S
C871 H841 0.929 . S
C871 N867 1.418 . S
C871 C870 1.251 . S
C872 H839 0.930 . S
C872 C874 1.406 . S
C872 C877 1.261 . S
C873 H840 0.930 . S
C873 N875 1.325 . S
C873 C876 1.357 . S
C874 H842 0.928 . S
C874 C872 1.406 . S
C874 N875 1.261 . S
N875 Co826 2.214 . S
N875 C873 1.325 . S
N875 C874 1.261 . S
C876 H846 0.931 . S
C876 C873 1.357 . S
C876 C877 1.312 . S
C877 H848 0.930 . S
C877 C872 1.261 . S
C877 C876 1.312 . S
C878 O850 1.214 . S
C878 O858 1.234 . S
C879 H851 0.929 . S
C879 C882 1.391 . S
C879 C884 1.391 . S
C880 H852 0.929 . S
C880 C881 1.390 . S
C880 N883 1.391 . S
C881 H853 0.930 . S
C881 C880 1.390 . S
C881 C882 1.392 . S
C882 H854 0.929 . S
C882 C879 1.391 . S
C882 C881 1.392 . S
N883 Co827 2.257 . S
N883 C880 1.391 . S
N883 C884 1.388 . S
C884 H855 0.930 . S
C884 C879 1.391 . S
C884 N883 1.388 . S
Co885 O887 2.143 . S
Co885 O893 2.074 . S
Co885 O896 2.093 . S
Co885 O909 2.097 . S
Co885 N926 2.151 . S
Co885 N934 2.214 . S
Co886 O887 2.160 . S
Co886 O892 2.058 . S
Co886 O902 2.057 . S
Co886 O917 2.037 . S
Co886 N921 2.145 . S
Co886 N942 2.257 . S
O887 Co885 2.143 . S
O887 Co886 2.160 . S
C888 O889 1.278 . S
C888 O896 1.224 . S
O889 C888 1.278 . S
C890 O891 1.245 . S
C890 O902 1.232 . S
O891 C890 1.245 . S
O892 Co886 2.058 . S
O892 C918 1.269 . S
O893 Co885 2.074 . S
O893 C918 1.257 . S
H894 C919 0.930 . S
H895 C925 0.930 . S
O896 Co885 2.093 . S
O896 C888 1.224 . S
H897 C929 0.929 . S
H898 C931 0.930 . S
H899 C932 0.930 . S
H900 C930 0.929 . S
H901 C933 0.928 . S
O902 Co886 2.057 . S
O902 C890 1.232 . S
H903 C922 0.929 . S
H904 C923 0.929 . S
H905 C935 0.931 . S
H906 C927 0.929 . S
H907 C936 0.930 . S
H908 C928 0.931 . S
O909 Co885 2.097 . S
O909 C937 1.214 . S
H910 C938 0.929 . S
H911 C939 0.929 . S
H912 C940 0.930 . S
H913 C941 0.929 . S
H914 C943 0.930 . S
H915 C920 0.930 . S
H916 C924 0.930 . S
O917 Co886 2.037 . S
O917 C937 1.234 . S
C918 O892 1.269 . S
C918 O893 1.257 . S
C919 H894 0.930 . S
C919 C922 1.388 . S
C919 C924 1.418 . S
C920 H915 0.930 . S
C920 C923 1.404 . S
C920 C924 1.353 . S
N921 Co886 2.145 . S
N921 C922 1.397 . S
N921 C923 1.334 . S
C922 H903 0.929 . S
C922 C919 1.388 . S
C922 N921 1.397 . S
C923 H904 0.929 . S
C923 C920 1.404 . S
C923 N921 1.334 . S
C924 H916 0.930 . S
C924 C919 1.418 . S
C924 C920 1.353 . S
C925 H895 0.930 . S
C925 N926 1.330 . S
C925 C927 1.446 . S
N926 Co885 2.151 . S
N926 C925 1.330 . S
N926 C930 1.418 . S
C927 H906 0.929 . S
C927 C925 1.446 . S
C927 C928 1.332 . S
C928 H908 0.931 . S
C928 C927 1.332 . S
C928 C929 1.267 . S
C929 H897 0.929 . S
C929 C928 1.267 . S
C929 C930 1.251 . S
C930 H900 0.929 . S
C930 N926 1.418 . S
C930 C929 1.251 . S
C931 H898 0.930 . S
C931 C933 1.406 . S
C931 C936 1.261 . S
C932 H899 0.930 . S
C932 N934 1.325 . S
C932 C935 1.357 . S
C933 H901 0.928 . S
C933 C931 1.406 . S
C933 N934 1.261 . S
N934 Co885 2.214 . S
N934 C932 1.325 . S
N934 C933 1.261 . S
C935 H905 0.931 . S
C935 C932 1.357 . S
C935 C936 1.312 . S
C936 H907 0.930 . S
C936 C931 1.261 . S
C936 C935 1.312 . S
C937 O909 1.214 . S
C937 O917 1.234 . S
C938 H910 0.929 . S
C938 C941 1.391 . S
C938 C943 1.391 . S
C939 H911 0.929 . S
C939 C940 1.390 . S
C939 N942 1.391 . S
C940 H912 0.930 . S
C940 C939 1.390 . S
C940 C941 1.392 . S
C941 H913 0.929 . S
C941 C938 1.391 . S
C941 C940 1.392 . S
N942 Co886 2.257 . S
N942 C939 1.391 . S
N942 C943 1.388 . S
C943 H914 0.930 . S
C943 C938 1.391 . S
C943 N942 1.388 . S
H944 C950 0.930 . S
H945 C954 0.930 . S
H946 C959 0.929 . S
H947 C957 0.929 . S
H948 C952 0.929 . S
H949 C958 0.929 . S
C950 H944 0.930 . S
C950 C951 1.367 . S
C950 C958 1.378 . S
C951 C950 1.367 . S
C951 C959 1.433 . S
C952 H948 0.929 . S
C952 C954 1.378 . S
C952 C956 1.350 . S
C953 C956 1.463 . S
C953 C958 1.350 . S
C953 N961 1.427 . S
C954 H945 0.930 . S
C954 C952 1.378 . S
C954 C955 1.367 . S
C955 C954 1.367 . S
C955 C957 1.433 . S
C956 C952 1.350 . S
C956 C953 1.463 . S
C956 N960 1.427 . S
C957 H947 0.929 . S
C957 C955 1.433 . S
C957 N960 1.384 . S
C958 H949 0.929 . S
C958 C950 1.378 . S
C958 C953 1.350 . S
C959 H946 0.929 . S
C959 C951 1.433 . S
C959 N961 1.384 . S
N960 C956 1.427 . S
N960 C957 1.384 . S
N961 C953 1.427 . S
N961 C959 1.384 . S
H962 C968 0.930 . S
H963 C972 0.930 . S
H964 C977 0.929 . S
H965 C975 0.929 . S
H966 C970 0.929 . S
H967 C976 0.929 . S
C968 H962 0.930 . S
C968 C969 1.367 . S
C968 C976 1.378 . S
C969 C968 1.367 . S
C969 C977 1.433 . S
C970 H966 0.929 . S
C970 C972 1.378 . S
C970 C974 1.350 . S
C971 C974 1.463 . S
C971 C976 1.350 . S
C971 N979 1.427 . S
C972 H963 0.930 . S
C972 C970 1.378 . S
C972 C973 1.367 . S
C973 C972 1.367 . S
C973 C975 1.433 . S
C974 C970 1.350 . S
C974 C971 1.463 . S
C974 N978 1.427 . S
C975 H965 0.929 . S
C975 C973 1.433 . S
C975 N978 1.384 . S
C976 H967 0.929 . S
C976 C968 1.378 . S
C976 C971 1.350 . S
C977 H964 0.929 . S
C977 C969 1.433 . S
C977 N979 1.384 . S
N978 C974 1.427 . S
N978 C975 1.384 . S
N979 C971 1.427 . S
N979 C977 1.384 . S
H980 C986 0.930 . S
H981 C990 0.930 . S
H982 C995 0.929 . S
H983 C993 0.929 . S
H984 C988 0.929 . S
H985 C994 0.929 . S
C986 H980 0.930 . S
C986 C987 1.367 . S
C986 C994 1.378 . S
C987 C986 1.367 . S
C987 C995 1.433 . S
C988 H984 0.929 . S
C988 C990 1.378 . S
C988 C992 1.350 . S
C989 C992 1.463 . S
C989 C994 1.350 . S
C989 N997 1.427 . S
C990 H981 0.930 . S
C990 C988 1.378 . S
C990 C991 1.367 . S
C991 C990 1.367 . S
C991 C993 1.433 . S
C992 C988 1.350 . S
C992 C989 1.463 . S
C992 N996 1.427 . S
C993 H983 0.929 . S
C993 C991 1.433 . S
C993 N996 1.384 . S
C994 H985 0.929 . S
C994 C986 1.378 . S
C994 C989 1.350 . S
C995 H982 0.929 . S
C995 C987 1.433 . S
C995 N997 1.384 . S
N996 C992 1.427 . S
N996 C993 1.384 . S
N997 C989 1.427 . S
N997 C995 1.384 . S
H998 C1004 0.930 . S
H999 C1008 0.930 . S
H1000 C1013 0.929 . S
H1001 C1011 0.929 . S
H1002 C1006 0.929 . S
H1003 C1012 0.929 . S
C1004 H998 0.930 . S
C1004 C1005 1.367 . S
C1004 C1012 1.378 . S
C1005 C1004 1.367 . S
C1005 C1013 1.433 . S
C1006 H1002 0.929 . S
C1006 C1008 1.378 . S
C1006 C1010 1.350 . S
C1007 C1010 1.463 . S
C1007 C1012 1.350 . S
C1007 N1015 1.427 . S
C1008 H999 0.930 . S
C1008 C1006 1.378 . S
C1008 C1009 1.367 . S
C1009 C1008 1.367 . S
C1009 C1011 1.433 . S
C1010 C1006 1.350 . S
C1010 C1007 1.463 . S
C1010 N1014 1.427 . S
C1011 H1001 0.929 . S
C1011 C1009 1.433 . S
C1011 N1014 1.384 . S
C1012 H1003 0.929 . S
C1012 C1004 1.378 . S
C1012 C1007 1.350 . S
C1013 H1000 0.929 . S
C1013 C1005 1.433 . S
C1013 N1015 1.384 . S
N1014 C1010 1.427 . S
N1014 C1011 1.384 . S
N1015 C1007 1.427 . S
N1015 C1013 1.384 . S
H1016 C1022 0.930 . S
H1017 C1026 0.930 . S
H1018 C1031 0.929 . S
H1019 C1029 0.929 . S
H1020 C1024 0.929 . S
H1021 C1030 0.929 . S
C1022 H1016 0.930 . S
C1022 C1023 1.367 . S
C1022 C1030 1.378 . S
C1023 C1022 1.367 . S
C1023 C1031 1.433 . S
C1024 H1020 0.929 . S
C1024 C1026 1.378 . S
C1024 C1028 1.350 . S
C1025 C1028 1.463 . S
C1025 C1030 1.350 . S
C1025 N1033 1.427 . S
C1026 H1017 0.930 . S
C1026 C1024 1.378 . S
C1026 C1027 1.367 . S
C1027 C1026 1.367 . S
C1027 C1029 1.433 . S
C1028 C1024 1.350 . S
C1028 C1025 1.463 . S
C1028 N1032 1.427 . S
C1029 H1019 0.929 . S
C1029 C1027 1.433 . S
C1029 N1032 1.384 . S
C1030 H1021 0.929 . S
C1030 C1022 1.378 . S
C1030 C1025 1.350 . S
C1031 H1018 0.929 . S
C1031 C1023 1.433 . S
C1031 N1033 1.384 . S
N1032 C1028 1.427 . S
N1032 C1029 1.384 . S
N1033 C1025 1.427 . S
N1033 C1031 1.384 . S
H1034 C1040 0.930 . S
H1035 C1044 0.930 . S
H1036 C1049 0.929 . S
H1037 C1047 0.929 . S
H1038 C1042 0.929 . S
H1039 C1048 0.929 . S
C1040 H1034 0.930 . S
C1040 C1041 1.367 . S
C1040 C1048 1.378 . S
C1041 C1040 1.367 . S
C1041 C1049 1.433 . S
C1042 H1038 0.929 . S
C1042 C1044 1.378 . S
C1042 C1046 1.350 . S
C1043 C1046 1.463 . S
C1043 C1048 1.350 . S
C1043 N1051 1.427 . S
C1044 H1035 0.930 . S
C1044 C1042 1.378 . S
C1044 C1045 1.367 . S
C1045 C1044 1.367 . S
C1045 C1047 1.433 . S
C1046 C1042 1.350 . S
C1046 C1043 1.463 . S
C1046 N1050 1.427 . S
C1047 H1037 0.929 . S
C1047 C1045 1.433 . S
C1047 N1050 1.384 . S
C1048 H1039 0.929 . S
C1048 C1040 1.378 . S
C1048 C1043 1.350 . S
C1049 H1036 0.929 . S
C1049 C1041 1.433 . S
C1049 N1051 1.384 . S
N1050 C1046 1.427 . S
N1050 C1047 1.384 . S
N1051 C1043 1.427 . S
N1051 C1049 1.384 . S
H1052 C1058 0.930 . S
H1053 C1062 0.930 . S
H1054 C1067 0.929 . S
H1055 C1065 0.929 . S
H1056 C1060 0.929 . S
H1057 C1066 0.929 . S
C1058 H1052 0.930 . S
C1058 C1059 1.367 . S
C1058 C1066 1.378 . S
C1059 C1058 1.367 . S
C1059 C1067 1.433 . S
C1060 H1056 0.929 . S
C1060 C1062 1.378 . S
C1060 C1064 1.350 . S
C1061 C1064 1.463 . S
C1061 C1066 1.350 . S
C1061 N1069 1.427 . S
C1062 H1053 0.930 . S
C1062 C1060 1.378 . S
C1062 C1063 1.367 . S
C1063 C1062 1.367 . S
C1063 C1065 1.433 . S
C1064 C1060 1.350 . S
C1064 C1061 1.463 . S
C1064 N1068 1.427 . S
C1065 H1055 0.929 . S
C1065 C1063 1.433 . S
C1065 N1068 1.384 . S
C1066 H1057 0.929 . S
C1066 C1058 1.378 . S
C1066 C1061 1.350 . S
C1067 H1054 0.929 . S
C1067 C1059 1.433 . S
C1067 N1069 1.384 . S
N1068 C1064 1.427 . S
N1068 C1065 1.384 . S
N1069 C1061 1.427 . S
N1069 C1067 1.384 . S
H1070 C1076 0.930 . S
H1071 C1080 0.930 . S
H1072 C1085 0.929 . S
H1073 C1083 0.929 . S
H1074 C1078 0.929 . S
H1075 C1084 0.929 . S
C1076 H1070 0.930 . S
C1076 C1077 1.367 . S
C1076 C1084 1.378 . S
C1077 C1076 1.367 . S
C1077 C1085 1.433 . S
C1078 H1074 0.929 . S
C1078 C1080 1.378 . S
C1078 C1082 1.350 . S
C1079 C1082 1.463 . S
C1079 C1084 1.350 . S
C1079 N1087 1.427 . S
C1080 H1071 0.930 . S
C1080 C1078 1.378 . S
C1080 C1081 1.367 . S
C1081 C1080 1.367 . S
C1081 C1083 1.433 . S
C1082 C1078 1.350 . S
C1082 C1079 1.463 . S
C1082 N1086 1.427 . S
C1083 H1073 0.929 . S
C1083 C1081 1.433 . S
C1083 N1086 1.384 . S
C1084 H1075 0.929 . S
C1084 C1076 1.378 . S
C1084 C1079 1.350 . S
C1085 H1072 0.929 . S
C1085 C1077 1.433 . S
C1085 N1087 1.384 . S
N1086 C1082 1.427 . S
N1086 C1083 1.384 . S
N1087 C1079 1.427 . S
N1087 C1085 1.384 . S
H1088 C1094 0.930 . S
H1089 C1098 0.930 . S
H1090 C1103 0.929 . S
H1091 C1101 0.929 . S
H1092 C1096 0.929 . S
H1093 C1102 0.929 . S
C1094 H1088 0.930 . S
C1094 C1095 1.367 . S
C1094 C1102 1.378 1_565 S
C1095 C1094 1.367 . S
C1095 C1103 1.433 . S
C1096 H1092 0.929 . S
C1096 C1098 1.378 . S
C1096 C1100 1.350 . S
C1097 C1100 1.463 . S
C1097 C1102 1.350 . S
C1097 N1105 1.427 1_545 S
C1098 H1089 0.930 . S
C1098 C1096 1.378 . S
C1098 C1099 1.367 . S
C1099 C1098 1.367 . S
C1099 C1101 1.433 . S
C1100 C1096 1.350 . S
C1100 C1097 1.463 . S
C1100 N1104 1.427 . S
C1101 H1091 0.929 . S
C1101 C1099 1.433 . S
C1101 N1104 1.384 . S
C1102 H1093 0.929 . S
C1102 C1094 1.378 1_545 S
C1102 C1097 1.350 . S
C1103 H1090 0.929 . S
C1103 C1095 1.433 . S
C1103 N1105 1.384 . S
N1104 C1100 1.427 . S
N1104 C1101 1.384 . S
N1105 C1097 1.427 1_565 S
N1105 C1103 1.384 . S
H1106 C1112 0.930 . S
H1107 C1116 0.930 . S
H1108 C1121 0.929 . S
H1109 C1119 0.929 . S
H1110 C1114 0.929 . S
H1111 C1120 0.929 . S
C1112 H1106 0.930 . S
C1112 C1113 1.367 . S
C1112 C1120 1.378 . S
C1113 C1112 1.367 . S
C1113 C1121 1.433 . S
C1114 H1110 0.929 . S
C1114 C1116 1.378 . S
C1114 C1118 1.350 . S
C1115 C1118 1.463 . S
C1115 C1120 1.350 . S
C1115 N1123 1.427 . S
C1116 H1107 0.930 . S
C1116 C1114 1.378 . S
C1116 C1117 1.367 . S
C1117 C1116 1.367 . S
C1117 C1119 1.433 . S
C1118 C1114 1.350 . S
C1118 C1115 1.463 . S
C1118 N1122 1.427 . S
C1119 H1109 0.929 . S
C1119 C1117 1.433 . S
C1119 N1122 1.384 . S
C1120 H1111 0.929 . S
C1120 C1112 1.378 . S
C1120 C1115 1.350 . S
C1121 H1108 0.929 . S
C1121 C1113 1.433 . S
C1121 N1123 1.384 . S
N1122 C1118 1.427 . S
N1122 C1119 1.384 . S
N1123 C1115 1.427 . S
N1123 C1121 1.384 . S
H1124 C1130 0.930 . S
H1125 C1134 0.930 . S
H1126 C1139 0.929 . S
H1127 C1137 0.929 . S
H1128 C1132 0.929 . S
H1129 C1138 0.929 . S
C1130 H1124 0.930 . S
C1130 C1131 1.367 . S
C1130 C1138 1.378 . S
C1131 C1130 1.367 . S
C1131 C1139 1.433 . S
C1132 H1128 0.929 . S
C1132 C1134 1.378 . S
C1132 C1136 1.350 1_554 S
C1133 C1136 1.463 . S
C1133 C1138 1.350 . S
C1133 N1141 1.427 . S
C1134 H1125 0.930 . S
C1134 C1132 1.378 . S
C1134 C1135 1.367 . S
C1135 C1134 1.367 . S
C1135 C1137 1.433 . S
C1136 C1132 1.350 1_556 S
C1136 C1133 1.463 . S
C1136 N1140 1.427 . S
C1137 H1127 0.929 . S
C1137 C1135 1.433 . S
C1137 N1140 1.384 1_554 S
C1138 H1129 0.929 . S
C1138 C1130 1.378 . S
C1138 C1133 1.350 . S
C1139 H1126 0.929 . S
C1139 C1131 1.433 . S
C1139 N1141 1.384 . S
N1140 C1136 1.427 . S
N1140 C1137 1.384 1_556 S
N1141 C1133 1.427 . S
N1141 C1139 1.384 . S
H1142 C1148 0.930 . S
H1143 C1152 0.930 . S
H1144 C1157 0.929 . S
H1145 C1155 0.929 . S
H1146 C1150 0.929 . S
H1147 C1156 0.929 1_556 S
C1148 H1142 0.930 . S
C1148 C1149 1.367 . S
C1148 C1156 1.378 . S
C1149 C1148 1.367 . S
C1149 C1157 1.433 . S
C1150 H1146 0.929 . S
C1150 C1152 1.378 . S
C1150 C1154 1.350 . S
C1151 C1154 1.463 . S
C1151 C1156 1.350 1_556 S
C1151 N1159 1.427 1_556 S
C1152 H1143 0.930 . S
C1152 C1150 1.378 . S
C1152 C1153 1.367 . S
C1153 C1152 1.367 . S
C1153 C1155 1.433 . S
C1154 C1150 1.350 . S
C1154 C1151 1.463 . S
C1154 N1158 1.427 . S
C1155 H1145 0.929 . S
C1155 C1153 1.433 . S
C1155 N1158 1.384 . S
C1156 H1147 0.929 1_554 S
C1156 C1148 1.378 . S
C1156 C1151 1.350 1_554 S
C1157 H1144 0.929 . S
C1157 C1149 1.433 . S
C1157 N1159 1.384 . S
N1158 C1154 1.427 . S
N1158 C1155 1.384 . S
N1159 C1151 1.427 1_554 S
N1159 C1157 1.384 . S
H1160 C1166 0.930 . S
H1161 C1170 0.930 . S
H1162 C1175 0.929 . S
H1163 C1173 0.929 . S
H1164 C1168 0.929 . S
H1165 C1174 0.929 . S
C1166 H1160 0.930 . S
C1166 C1167 1.367 . S
C1166 C1174 1.378 . S
C1167 C1166 1.367 . S
C1167 C1175 1.433 . S
C1168 H1164 0.929 . S
C1168 C1170 1.378 . S
C1168 C1172 1.350 . S
C1169 C1172 1.463 . S
C1169 C1174 1.350 . S
C1169 N1177 1.427 . S
C1170 H1161 0.930 . S
C1170 C1168 1.378 . S
C1170 C1171 1.367 . S
C1171 C1170 1.367 . S
C1171 C1173 1.433 . S
C1172 C1168 1.350 . S
C1172 C1169 1.463 . S
C1172 N1176 1.427 . S
C1173 H1163 0.929 . S
C1173 C1171 1.433 . S
C1173 N1176 1.384 . S
C1174 H1165 0.929 . S
C1174 C1166 1.378 . S
C1174 C1169 1.350 . S
C1175 H1162 0.929 . S
C1175 C1167 1.433 . S
C1175 N1177 1.384 . S
N1176 C1172 1.427 . S
N1176 C1173 1.384 . S
N1177 C1169 1.427 . S
N1177 C1175 1.384 . S
H1178 C1184 0.930 . S
H1179 C1188 0.930 . S
H1180 C1193 0.929 . S
H1181 C1191 0.929 . S
H1182 C1186 0.929 . S
H1183 C1192 0.929 . S
C1184 H1178 0.930 . S
C1184 C1185 1.367 . S
C1184 C1192 1.378 . S
C1185 C1184 1.367 . S
C1185 C1193 1.433 . S
C1186 H1182 0.929 . S
C1186 C1188 1.378 . S
C1186 C1190 1.350 . S
C1187 C1190 1.463 . S
C1187 C1192 1.350 . S
C1187 N1195 1.427 . S
C1188 H1179 0.930 . S
C1188 C1186 1.378 . S
C1188 C1189 1.367 . S
C1189 C1188 1.367 . S
C1189 C1191 1.433 . S
C1190 C1186 1.350 . S
C1190 C1187 1.463 . S
C1190 N1194 1.427 . S
C1191 H1181 0.929 . S
C1191 C1189 1.433 . S
C1191 N1194 1.384 . S
C1192 H1183 0.929 . S
C1192 C1184 1.378 . S
C1192 C1187 1.350 . S
C1193 H1180 0.929 . S
C1193 C1185 1.433 . S
C1193 N1195 1.384 . S
N1194 C1190 1.427 . S
N1194 C1191 1.384 . S
N1195 C1187 1.427 . S
N1195 C1193 1.384 . S
H1196 C1202 0.930 . S
H1197 C1206 0.930 . S
H1198 C1211 0.929 . S
H1199 C1209 0.929 . S
H1200 C1204 0.929 . S
H1201 C1210 0.929 . S
C1202 H1196 0.930 . S
C1202 C1203 1.367 . S
C1202 C1210 1.378 . S
C1203 C1202 1.367 . S
C1203 C1211 1.433 . S
C1204 H1200 0.929 . S
C1204 C1206 1.378 . S
C1204 C1208 1.350 . S
C1205 C1208 1.463 1_655 S
C1205 C1210 1.350 . S
C1205 N1213 1.427 . S
C1206 H1197 0.930 . S
C1206 C1204 1.378 . S
C1206 C1207 1.367 . S
C1207 C1206 1.367 . S
C1207 C1209 1.433 . S
C1208 C1204 1.350 . S
C1208 C1205 1.463 1_455 S
C1208 N1212 1.427 . S
C1209 H1199 0.929 . S
C1209 C1207 1.433 . S
C1209 N1212 1.384 . S
C1210 H1201 0.929 . S
C1210 C1202 1.378 . S
C1210 C1205 1.350 . S
C1211 H1198 0.929 . S
C1211 C1203 1.433 . S
C1211 N1213 1.384 . S
N1212 C1208 1.427 . S
N1212 C1209 1.384 . S
N1213 C1205 1.427 . S
N1213 C1211 1.384 . S
H1214 C1220 0.930 . S
H1215 C1224 0.930 . S
H1216 C1229 0.929 . S
H1217 C1227 0.929 . S
H1218 C1222 0.929 . S
H1219 C1228 0.929 . S
C1220 H1214 0.930 . S
C1220 C1221 1.367 . S
C1220 C1228 1.378 . S
C1221 C1220 1.367 . S
C1221 C1229 1.433 . S
C1222 H1218 0.929 . S
C1222 C1224 1.378 . S
C1222 C1226 1.350 . S
C1223 C1226 1.463 1_655 S
C1223 C1228 1.350 . S
C1223 N1231 1.427 . S
C1224 H1215 0.930 . S
C1224 C1222 1.378 . S
C1224 C1225 1.367 . S
C1225 C1224 1.367 . S
C1225 C1227 1.433 . S
C1226 C1222 1.350 . S
C1226 C1223 1.463 1_455 S
C1226 N1230 1.427 . S
C1227 H1217 0.929 . S
C1227 C1225 1.433 . S
C1227 N1230 1.384 . S
C1228 H1219 0.929 . S
C1228 C1220 1.378 . S
C1228 C1223 1.350 . S
C1229 H1216 0.929 . S
C1229 C1221 1.433 . S
C1229 N1231 1.384 . S
N1230 C1226 1.427 . S
N1230 C1227 1.384 . S
N1231 C1223 1.427 . S
N1231 C1229 1.384 . S
H1232 C1238 0.930 . S
H1233 C1242 0.930 . S
H1234 C1247 0.929 . S
H1235 C1245 0.929 . S
H1236 C1240 0.929 . S
H1237 C1246 0.929 . S
C1238 H1232 0.930 . S
C1238 C1239 1.367 . S
C1238 C1246 1.378 . S
C1239 C1238 1.367 . S
C1239 C1247 1.433 . S
C1240 H1236 0.929 . S
C1240 C1242 1.378 . S
C1240 C1244 1.350 . S
C1241 C1244 1.463 . S
C1241 C1246 1.350 . S
C1241 N1249 1.427 . S
C1242 H1233 0.930 . S
C1242 C1240 1.378 . S
C1242 C1243 1.367 . S
C1243 C1242 1.367 . S
C1243 C1245 1.433 . S
C1244 C1240 1.350 . S
C1244 C1241 1.463 . S
C1244 N1248 1.427 . S
C1245 H1235 0.929 . S
C1245 C1243 1.433 . S
C1245 N1248 1.384 . S
C1246 H1237 0.929 . S
C1246 C1238 1.378 . S
C1246 C1241 1.350 . S
C1247 H1234 0.929 . S
C1247 C1239 1.433 . S
C1247 N1249 1.384 . S
N1248 C1244 1.427 . S
N1248 C1245 1.384 . S
N1249 C1241 1.427 . S
N1249 C1247 1.384 . S
H1250 C1256 0.930 . S
H1251 C1260 0.930 . S
H1252 C1265 0.929 . S
H1253 C1263 0.929 . S
H1254 C1258 0.929 . S
H1255 C1264 0.929 1_565 S
C1256 H1250 0.930 . S
C1256 C1257 1.367 . S
C1256 C1264 1.378 . S
C1257 C1256 1.367 . S
C1257 C1265 1.433 . S
C1258 H1254 0.929 . S
C1258 C1260 1.378 . S
C1258 C1262 1.350 . S
C1259 C1262 1.463 1_545 S
C1259 C1264 1.350 . S
C1259 N1267 1.427 . S
C1260 H1251 0.930 . S
C1260 C1258 1.378 . S
C1260 C1261 1.367 . S
C1261 C1260 1.367 . S
C1261 C1263 1.433 . S
C1262 C1258 1.350 . S
C1262 C1259 1.463 1_565 S
C1262 N1266 1.427 . S
C1263 H1253 0.929 . S
C1263 C1261 1.433 . S
C1263 N1266 1.384 . S
C1264 H1255 0.929 1_545 S
C1264 C1256 1.378 . S
C1264 C1259 1.350 . S
C1265 H1252 0.929 . S
C1265 C1257 1.433 . S
C1265 N1267 1.384 . S
N1266 C1262 1.427 . S
N1266 C1263 1.384 . S
N1267 C1259 1.427 . S
N1267 C1265 1.384 . S
H1268 C1274 0.930 . S
H1269 C1278 0.930 . S
H1270 C1283 0.929 . S
H1271 C1281 0.929 . S
H1272 C1276 0.929 . S
H1273 C1282 0.929 . S
C1274 H1268 0.930 . S
C1274 C1275 1.367 . S
C1274 C1282 1.378 . S
C1275 C1274 1.367 . S
C1275 C1283 1.433 . S
C1276 H1272 0.929 . S
C1276 C1278 1.378 . S
C1276 C1280 1.350 . S
C1277 C1280 1.463 . S
C1277 C1282 1.350 . S
C1277 N1285 1.427 . S
C1278 H1269 0.930 . S
C1278 C1276 1.378 . S
C1278 C1279 1.367 . S
C1279 C1278 1.367 . S
C1279 C1281 1.433 . S
C1280 C1276 1.350 . S
C1280 C1277 1.463 . S
C1280 N1284 1.427 . S
C1281 H1271 0.929 . S
C1281 C1279 1.433 . S
C1281 N1284 1.384 . S
C1282 H1273 0.929 . S
C1282 C1274 1.378 . S
C1282 C1277 1.350 . S
C1283 H1270 0.929 . S
C1283 C1275 1.433 . S
C1283 N1285 1.384 . S
N1284 C1280 1.427 . S
N1284 C1281 1.384 . S
N1285 C1277 1.427 . S
N1285 C1283 1.384 . S
H1286 C1292 0.930 . S
H1287 C1296 0.930 . S
H1288 C1301 0.929 . S
H1289 C1299 0.929 . S
H1290 C1294 0.929 . S
H1291 C1300 0.929 . S
C1292 H1286 0.930 . S
C1292 C1293 1.367 . S
C1292 C1300 1.378 . S
C1293 C1292 1.367 . S
C1293 C1301 1.433 . S
C1294 H1290 0.929 . S
C1294 C1296 1.378 . S
C1294 C1298 1.350 1_556 S
C1295 C1298 1.463 . S
C1295 C1300 1.350 . S
C1295 N1303 1.427 . S
C1296 H1287 0.930 . S
C1296 C1294 1.378 . S
C1296 C1297 1.367 . S
C1297 C1296 1.367 . S
C1297 C1299 1.433 . S
C1298 C1294 1.350 1_554 S
C1298 C1295 1.463 . S
C1298 N1302 1.427 . S
C1299 H1289 0.929 . S
C1299 C1297 1.433 . S
C1299 N1302 1.384 1_556 S
C1300 H1291 0.929 . S
C1300 C1292 1.378 . S
C1300 C1295 1.350 . S
C1301 H1288 0.929 . S
C1301 C1293 1.433 . S
C1301 N1303 1.384 . S
N1302 C1298 1.427 . S
N1302 C1299 1.384 1_554 S
N1303 C1295 1.427 . S
N1303 C1301 1.384 . S
H1304 C1310 0.930 . S
H1305 C1314 0.930 . S
H1306 C1319 0.929 . S
H1307 C1317 0.929 . S
H1308 C1312 0.929 . S
H1309 C1318 0.929 1_554 S
C1310 H1304 0.930 . S
C1310 C1311 1.367 . S
C1310 C1318 1.378 . S
C1311 C1310 1.367 . S
C1311 C1319 1.433 . S
C1312 H1308 0.929 . S
C1312 C1314 1.378 . S
C1312 C1316 1.350 . S
C1313 C1316 1.463 . S
C1313 C1318 1.350 1_554 S
C1313 N1321 1.416 1_554 S
C1314 H1305 0.930 . S
C1314 C1312 1.378 . S
C1314 C1315 1.367 . S
C1315 C1314 1.367 . S
C1315 C1317 1.433 . S
C1316 C1312 1.350 . S
C1316 C1313 1.463 . S
C1316 N1320 1.427 . S
C1317 H1307 0.929 . S
C1317 C1315 1.433 . S
C1317 N1320 1.384 . S
C1318 H1309 0.929 1_556 S
C1318 C1310 1.378 . S
C1318 C1313 1.350 1_556 S
C1319 H1306 0.929 . S
C1319 C1311 1.433 . S
C1319 N1321 1.415 . S
N1320 C1316 1.427 . S
N1320 C1317 1.384 . S
N1321 C1313 1.416 1_556 S
N1321 C1319 1.415 . S
H1322 C1328 0.930 . S
H1323 C1332 0.930 . S
H1324 C1337 0.929 . S
H1325 C1335 0.929 . S
H1326 C1330 0.929 . S
H1327 C1336 0.929 . S
C1328 H1322 0.930 . S
C1328 C1329 1.367 . S
C1328 C1336 1.378 . S
C1329 C1328 1.367 . S
C1329 C1337 1.433 . S
C1330 H1326 0.929 . S
C1330 C1332 1.378 . S
C1330 C1334 1.350 . S
C1331 C1334 1.463 . S
C1331 C1336 1.350 . S
C1331 N1339 1.427 . S
C1332 H1323 0.930 . S
C1332 C1330 1.378 . S
C1332 C1333 1.367 . S
C1333 C1332 1.367 . S
C1333 C1335 1.433 . S
C1334 C1330 1.350 . S
C1334 C1331 1.463 . S
C1334 N1338 1.427 . S
C1335 H1325 0.929 . S
C1335 C1333 1.433 . S
C1335 N1338 1.384 . S
C1336 H1327 0.929 . S
C1336 C1328 1.378 . S
C1336 C1331 1.350 . S
C1337 H1324 0.929 . S
C1337 C1329 1.433 . S
C1337 N1339 1.384 . S
N1338 C1334 1.427 . S
N1338 C1335 1.384 . S
N1339 C1331 1.427 . S
N1339 C1337 1.384 . S
H1340 C1346 0.930 . S
H1341 C1350 0.930 . S
H1342 C1355 0.929 . S
H1343 C1353 0.929 . S
H1344 C1348 0.929 . S
H1345 C1354 0.929 . S
C1346 H1340 0.930 . S
C1346 C1347 1.367 . S
C1346 C1354 1.378 . S
C1347 C1346 1.367 . S
C1347 C1355 1.433 . S
C1348 H1344 0.929 . S
C1348 C1350 1.378 . S
C1348 C1352 1.350 . S
C1349 C1352 1.463 . S
C1349 C1354 1.350 . S
C1349 N1357 1.427 . S
C1350 H1341 0.930 . S
C1350 C1348 1.378 . S
C1350 C1351 1.367 . S
C1351 C1350 1.367 . S
C1351 C1353 1.433 . S
C1352 C1348 1.350 . S
C1352 C1349 1.463 . S
C1352 N1356 1.427 . S
C1353 H1343 0.929 . S
C1353 C1351 1.433 . S
C1353 N1356 1.384 . S
C1354 H1345 0.929 . S
C1354 C1346 1.378 . S
C1354 C1349 1.350 . S
C1355 H1342 0.929 . S
C1355 C1347 1.433 . S
C1355 N1357 1.384 . S
N1356 C1352 1.427 . S
N1356 C1353 1.384 . S
N1357 C1349 1.427 . S
N1357 C1355 1.384 . S
H1358 C1364 0.930 . S
H1359 C1368 0.930 . S
H1360 C1373 0.929 . S
H1361 C1371 0.929 . S
H1362 C1366 0.934 . S
H1363 C1372 0.934 . S
C1364 H1358 0.930 . S
C1364 C1365 1.367 . S
C1364 C1372 1.373 1_455 S
C1365 C1364 1.367 . S
C1365 C1373 1.433 . S
C1366 H1362 0.934 . S
C1366 C1368 1.373 1_455 S
C1366 C1370 1.349 1_455 S
C1367 C1370 1.463 1_455 S
C1367 C1372 1.349 1_455 S
C1367 N1375 1.427 . S
C1368 H1359 0.930 . S
C1368 C1366 1.373 1_655 S
C1368 C1369 1.367 . S
C1369 C1368 1.367 . S
C1369 C1371 1.433 . S
C1370 C1366 1.349 1_655 S
C1370 C1367 1.463 1_655 S
C1370 N1374 1.427 . S
C1371 H1361 0.929 . S
C1371 C1369 1.433 . S
C1371 N1374 1.384 . S
C1372 H1363 0.934 . S
C1372 C1364 1.373 1_655 S
C1372 C1367 1.349 1_655 S
C1373 H1360 0.929 . S
C1373 C1365 1.433 . S
C1373 N1375 1.384 . S
N1374 C1370 1.427 . S
N1374 C1371 1.384 . S
N1375 C1367 1.427 . S
N1375 C1373 1.384 . S
H1376 C1382 0.930 . S
H1377 C1386 0.930 . S
H1378 C1391 0.929 . S
H1379 C1389 0.929 . S
H1380 C1384 0.929 . S
H1381 C1390 0.929 . S
C1382 H1376 0.930 . S
C1382 C1383 1.367 . S
C1382 C1390 1.378 . S
C1383 C1382 1.367 . S
C1383 C1391 1.433 . S
C1384 H1380 0.929 . S
C1384 C1386 1.378 . S
C1384 C1388 1.350 . S
C1385 C1388 1.463 1_455 S
C1385 C1390 1.350 . S
C1385 N1393 1.427 . S
C1386 H1377 0.930 . S
C1386 C1384 1.378 . S
C1386 C1387 1.367 . S
C1387 C1386 1.367 . S
C1387 C1389 1.433 . S
C1388 C1384 1.350 . S
C1388 C1385 1.463 1_655 S
C1388 N1392 1.427 . S
C1389 H1379 0.929 . S
C1389 C1387 1.433 . S
C1389 N1392 1.384 . S
C1390 H1381 0.929 . S
C1390 C1382 1.378 . S
C1390 C1385 1.350 . S
C1391 H1378 0.929 . S
C1391 C1383 1.433 . S
C1391 N1393 1.384 . S
N1392 C1388 1.427 . S
N1392 C1389 1.384 . S
N1393 C1385 1.427 . S
N1393 C1391 1.384 . S
H1394 C1400 0.930 . S
H1395 C1404 0.930 . S
H1396 C1409 0.929 . S
H1397 C1407 0.929 . S
H1398 C1402 0.929 . S
H1399 C1408 0.929 . S
C1400 H1394 0.930 . S
C1400 C1401 1.367 . S
C1400 C1408 1.378 . S
C1401 C1400 1.367 . S
C1401 C1409 1.433 . S
C1402 H1398 0.929 . S
C1402 C1404 1.378 . S
C1402 C1406 1.350 . S
C1403 C1406 1.463 . S
C1403 C1408 1.350 . S
C1403 N1411 1.427 . S
C1404 H1395 0.930 . S
C1404 C1402 1.378 . S
C1404 C1405 1.367 . S
C1405 C1404 1.367 . S
C1405 C1407 1.433 . S
C1406 C1402 1.350 . S
C1406 C1403 1.463 . S
C1406 N1410 1.427 . S
C1407 H1397 0.929 . S
C1407 C1405 1.433 . S
C1407 N1410 1.384 . S
C1408 H1399 0.929 . S
C1408 C1400 1.378 . S
C1408 C1403 1.350 . S
C1409 H1396 0.929 . S
C1409 C1401 1.433 . S
C1409 N1411 1.384 . S
N1410 C1406 1.427 . S
N1410 C1407 1.384 . S
N1411 C1403 1.427 . S
N1411 C1409 1.384 . S
H1412 C1418 0.930 . S
H1413 C1422 0.930 . S
H1414 C1427 0.929 . S
H1415 C1425 0.929 . S
H1416 C1420 0.929 . S
H1417 C1426 0.929 . S
C1418 H1412 0.930 . S
C1418 C1419 1.367 . S
C1418 C1426 1.378 . S
C1419 C1418 1.367 . S
C1419 C1427 1.433 . S
C1420 H1416 0.929 . S
C1420 C1422 1.378 . S
C1420 C1424 1.350 . S
C1421 C1424 1.463 . S
C1421 C1426 1.350 . S
C1421 N1429 1.427 . S
C1422 H1413 0.930 . S
C1422 C1420 1.378 . S
C1422 C1423 1.367 . S
C1423 C1422 1.367 . S
C1423 C1425 1.433 . S
C1424 C1420 1.350 . S
C1424 C1421 1.463 . S
C1424 N1428 1.427 . S
C1425 H1415 0.929 . S
C1425 C1423 1.433 . S
C1425 N1428 1.384 . S
C1426 H1417 0.929 . S
C1426 C1418 1.378 . S
C1426 C1421 1.350 . S
C1427 H1414 0.929 . S
C1427 C1419 1.433 . S
C1427 N1429 1.384 . S
N1428 C1424 1.427 . S
N1428 C1425 1.384 . S
N1429 C1421 1.427 . S
N1429 C1427 1.384 . S
H1430 C1436 0.930 . S
H1431 C1440 0.930 . S
H1432 C1445 0.929 . S
H1433 C1443 0.929 . S
H1434 C1438 0.929 . S
H1435 C1444 0.929 . S
C1436 H1430 0.930 . S
C1436 C1437 1.367 . S
C1436 C1444 1.378 . S
C1437 C1436 1.367 . S
C1437 C1445 1.433 . S
C1438 H1434 0.929 . S
C1438 C1440 1.378 . S
C1438 C1442 1.350 . S
C1439 C1442 1.468 . S
C1439 C1444 1.345 1_565 S
C1439 N1447 1.428 . S
C1440 H1431 0.930 . S
C1440 C1438 1.378 . S
C1440 C1441 1.367 . S
C1441 C1440 1.367 . S
C1441 C1443 1.433 . S
C1442 C1438 1.350 . S
C1442 C1439 1.468 . S
C1442 N1446 1.427 . S
C1443 H1433 0.929 . S
C1443 C1441 1.433 . S
C1443 N1446 1.384 . S
C1444 H1435 0.929 . S
C1444 C1436 1.378 . S
C1444 C1439 1.345 1_545 S
C1445 H1432 0.929 . S
C1445 C1437 1.433 . S
C1445 N1447 1.384 1_545 S
N1446 C1442 1.427 . S
N1446 C1443 1.384 . S
N1447 C1439 1.428 . S
N1447 C1445 1.384 1_565 S
H1448 C1454 0.930 . S
H1449 C1458 0.930 . S
H1450 C1463 0.929 . S
H1451 C1461 0.929 . S
H1452 C1456 0.929 . S
H1453 C1462 0.929 . S
C1454 H1448 0.930 . S
C1454 C1455 1.367 . S
C1454 C1462 1.378 . S
C1455 C1454 1.367 . S
C1455 C1463 1.433 . S
C1456 H1452 0.929 . S
C1456 C1458 1.378 . S
C1456 C1460 1.350 . S
C1457 C1460 1.463 . S
C1457 C1462 1.350 . S
C1457 N1465 1.427 . S
C1458 H1449 0.930 . S
C1458 C1456 1.378 . S
C1458 C1459 1.367 . S
C1459 C1458 1.367 . S
C1459 C1461 1.433 . S
C1460 C1456 1.350 . S
C1460 C1457 1.463 . S
C1460 N1464 1.427 . S
C1461 H1451 0.929 . S
C1461 C1459 1.433 . S
C1461 N1464 1.384 . S
C1462 H1453 0.929 . S
C1462 C1454 1.378 . S
C1462 C1457 1.350 . S
C1463 H1450 0.929 . S
C1463 C1455 1.433 . S
C1463 N1465 1.384 . S
N1464 C1460 1.427 . S
N1464 C1461 1.384 . S
N1465 C1457 1.427 . S
N1465 C1463 1.384 . S
H1466 C1472 0.930 . S
H1467 C1476 0.930 . S
H1468 C1481 0.929 . S
H1469 C1479 0.929 . S
H1470 C1474 0.929 . S
H1471 C1480 0.929 . S
C1472 H1466 0.930 . S
C1472 C1473 1.367 . S
C1472 C1480 1.378 . S
C1473 C1472 1.367 . S
C1473 C1481 1.433 . S
C1474 H1470 0.929 . S
C1474 C1476 1.378 . S
C1474 C1478 1.350 . S
C1475 C1478 1.463 . S
C1475 C1480 1.350 . S
C1475 N1483 1.427 . S
C1476 H1467 0.930 . S
C1476 C1474 1.378 . S
C1476 C1477 1.367 . S
C1477 C1476 1.367 . S
C1477 C1479 1.433 . S
C1478 C1474 1.350 . S
C1478 C1475 1.463 . S
C1478 N1482 1.427 . S
C1479 H1469 0.929 . S
C1479 C1477 1.433 . S
C1479 N1482 1.384 . S
C1480 H1471 0.929 . S
C1480 C1472 1.378 . S
C1480 C1475 1.350 . S
C1481 H1468 0.929 . S
C1481 C1473 1.433 . S
C1481 N1483 1.384 . S
N1482 C1478 1.427 . S
N1482 C1479 1.384 . S
N1483 C1475 1.427 . S
N1483 C1481 1.384 . S
H1484 C1490 0.930 . S
H1485 C1494 0.930 . S
H1486 C1499 0.929 . S
H1487 C1497 0.929 . S
H1488 C1492 0.929 1_545 S
H1489 C1498 0.929 1_565 S
C1490 H1484 0.930 . S
C1490 C1491 1.367 . S
C1490 C1498 1.378 . S
C1491 C1490 1.367 . S
C1491 C1499 1.433 . S
C1492 H1488 0.929 1_565 S
C1492 C1494 1.378 . S
C1492 C1496 1.350 . S
C1493 C1496 1.463 1_545 S
C1493 C1498 1.350 . S
C1493 N1501 1.427 . S
C1494 H1485 0.930 . S
C1494 C1492 1.378 . S
C1494 C1495 1.367 . S
C1495 C1494 1.367 . S
C1495 C1497 1.433 . S
C1496 C1492 1.350 . S
C1496 C1493 1.463 1_565 S
C1496 N1500 1.427 . S
C1497 H1487 0.929 . S
C1497 C1495 1.433 . S
C1497 N1500 1.384 . S
C1498 H1489 0.929 1_545 S
C1498 C1490 1.378 . S
C1498 C1493 1.350 . S
C1499 H1486 0.929 . S
C1499 C1491 1.433 . S
C1499 N1501 1.384 . S
N1500 C1496 1.427 . S
N1500 C1497 1.384 . S
N1501 C1493 1.427 . S
N1501 C1499 1.384 . S
H1502 C1508 0.930 . S
H1503 C1512 0.930 . S
H1504 C1517 0.929 . S
H1505 C1515 0.929 . S
H1506 C1510 0.929 . S
H1507 C1516 0.929 . S
C1508 H1502 0.930 . S
C1508 C1509 1.367 . S
C1508 C1516 1.378 . S
C1509 C1508 1.367 . S
C1509 C1517 1.433 . S
C1510 H1506 0.929 . S
C1510 C1512 1.378 . S
C1510 C1514 1.350 . S
C1511 C1514 1.463 . S
C1511 C1516 1.350 . S
C1511 N1519 1.427 . S
C1512 H1503 0.930 . S
C1512 C1510 1.378 . S
C1512 C1513 1.367 . S
C1513 C1512 1.367 . S
C1513 C1515 1.433 . S
C1514 C1510 1.350 . S
C1514 C1511 1.463 . S
C1514 N1518 1.427 . S
C1515 H1505 0.929 . S
C1515 C1513 1.433 . S
C1515 N1518 1.384 . S
C1516 H1507 0.929 . S
C1516 C1508 1.378 . S
C1516 C1511 1.350 . S
C1517 H1504 0.929 . S
C1517 C1509 1.433 . S
C1517 N1519 1.384 . S
N1518 C1514 1.427 . S
N1518 C1515 1.384 . S
N1519 C1511 1.427 . S
N1519 C1517 1.384 . S
C951 C52 1.541 . S
C955 C819 1.520 . S
C969 C111 1.546 . S
C973 C583 1.523 . S
C987 C878 1.023 . S
C991 C170 1.020 . S
C1005 C229 1.018 . S
C1009 C937 1.024 . S
C1023 C288 1.544 . S
C1027 C406 1.527 . S
C1041 C642 1.545 . S
C1045 C347 1.520 . S
C1059 C701 1.019 . S
C1063 C465 1.024 . S
C1077 C524 1.025 . S
C1081 C760 1.012 . S
C1095 C121 1.495 . S
C1099 C3 1.504 . S
C1113 C62 1.503 . S
C1117 C180 1.491 . S
C1131 C713 1.545 . S
C1135 C5 1.585 . S
C1149 C64 1.590 . S
C1153 C654 1.546 . S
C1167 C241 1.585 . S
C1171 C123 1.551 . S
C1185 C595 1.586 . S
C1189 C182 1.553 . S
C1203 C92 2.192 . S
C1207 C33 2.189 . S
C1221 C210 1.590 . S
C1225 C151 1.587 . S
C1239 C623 2.189 . S
C1243 C269 2.192 . S
C1257 C418 1.837 . S
C1261 C328 1.854 . S
C1275 C387 1.856 . S
C1279 C477 1.841 . S
C1293 C888 1.642 . S
C1297 C300 1.670 . S
C1311 C359 1.672 . S
C1315 C829 1.636 . S
C1329 C536 1.669 . S
C1333 C416 1.644 . S
C1347 C475 1.636 . S
C1351 C772 1.673 . S
C1365 C357 1.146 . S
C1369 C298 1.156 . S
C1383 C505 1.864 . S
C1387 C446 1.868 . S
C1401 C534 1.152 . S
C1405 C770 1.139 . S
C1419 C593 1.492 . S
C1423 C652 1.483 . S
C1437 C711 1.482 . S
C1441 C239 1.494 . S
C1455 C741 1.590 . S
C1459 C682 1.587 . S
C1473 C831 1.833 . S
C1477 C800 1.851 . S
C1491 C564 1.855 . S
C1495 C890 1.839 . S
C1509 C918 1.863 . S
C1513 C859 1.867 . S
