# Generated by pormake.
# Topology noy, (5)-cn, num edge types: 1
# Building blocks:
#     Node 0, Type 0, BuildingBlock: XOMCOT_clean_sbu_1, # of connection points: 5
#     Node 1, Type 0, BuildingBlock: XOMCOT_clean_sbu_1, # of connection points: 5
#     Node 2, Type 0, BuildingBlock: XOMCOT_clean_sbu_1, # of connection points: 5
#     Node 3, Type 0, BuildingBlock: XOMCOT_clean_sbu_1, # of connection points: 5
#     Node 4, Type 0, BuildingBlock: XOMCOT_clean_sbu_1, # of connection points: 5
#     Node 5, Type 0, BuildingBlock: XOMCOT_clean_sbu_1, # of connection points: 5
#     Node 6, Type 0, BuildingBlock: XOMCOT_clean_sbu_1, # of connection points: 5
#     Node 7, Type 0, BuildingBlock: XOMCOT_clean_sbu_1, # of connection points: 5
#     Edge 8, Type (0, 0), BuildingBlock: XIVTED_clean_linker_0, # of connection points: 2
#     Edge 9, Type (0, 0), BuildingBlock: XIVTED_clean_linker_0, # of connection points: 2
#     Edge 10, Type (0, 0), BuildingBlock: XIVTED_clean_linker_0, # of connection points: 2
#     Edge 11, Type (0, 0), BuildingBlock: XIVTED_clean_linker_0, # of connection points: 2
#     Edge 12, Type (0, 0), BuildingBlock: XIVTED_clean_linker_0, # of connection points: 2
#     Edge 13, Type (0, 0), BuildingBlock: XIVTED_clean_linker_0, # of connection points: 2
#     Edge 14, Type (0, 0), BuildingBlock: XIVTED_clean_linker_0, # of connection points: 2
#     Edge 15, Type (0, 0), BuildingBlock: XIVTED_clean_linker_0, # of connection points: 2
#     Edge 16, Type (0, 0), BuildingBlock: XIVTED_clean_linker_0, # of connection points: 2
#     Edge 17, Type (0, 0), BuildingBlock: XIVTED_clean_linker_0, # of connection points: 2
#     Edge 18, Type (0, 0), BuildingBlock: XIVTED_clean_linker_0, # of connection points: 2
#     Edge 19, Type (0, 0), BuildingBlock: XIVTED_clean_linker_0, # of connection points: 2
#     Edge 20, Type (0, 0), BuildingBlock: XIVTED_clean_linker_0, # of connection points: 2
#     Edge 21, Type (0, 0), BuildingBlock: XIVTED_clean_linker_0, # of connection points: 2
#     Edge 22, Type (0, 0), BuildingBlock: XIVTED_clean_linker_0, # of connection points: 2
#     Edge 23, Type (0, 0), BuildingBlock: XIVTED_clean_linker_0, # of connection points: 2
#     Edge 24, Type (0, 0), BuildingBlock: XIVTED_clean_linker_0, # of connection points: 2
#     Edge 25, Type (0, 0), BuildingBlock: XIVTED_clean_linker_0, # of connection points: 2
#     Edge 26, Type (0, 0), BuildingBlock: XIVTED_clean_linker_0, # of connection points: 2
#     Edge 27, Type (0, 0), BuildingBlock: XIVTED_clean_linker_0, # of connection points: 2
# Relax obj value: 0.152
# Max RMSD: 0.180
# Mean RMSD: 0.180
data_MOF--net-noy--node1-XOMCOT_clean_sbu_1--edge1-XIVTED_clean_linker_0
_symmetry_space_group_name_H-M    P1
_symmetry_Int_Tables_number       1
_symmetry_cell_setting            triclinic
loop_
_symmetry_equiv_pos_as_xyz
'x, y, z'
_cell_length_a     49.976278
_cell_length_b     46.30293
_cell_length_c     20.367953
_cell_angle_alpha  90.002035
_cell_angle_beta   90.171139
_cell_angle_gamma 90.086339
loop_
_atom_site_label
_atom_site_type_symbol
_atom_site_fract_x
_atom_site_fract_y
_atom_site_fract_z
_atom_type_partial_charge
C0 C 0.33533 0.39417 0.1941 0.0
C1 C 0.33437 0.41228 0.14071 0.0
N2 N 0.31748 0.43412 0.1543 0.0
N3 N 0.319 0.40431 0.24126 0.0
C4 C 0.30836 0.42873 0.2156 0.0
H5 H 0.34778 0.37521 0.19907 0.0
Co6 Co 0.31559 0.38732 0.3242 0.0
C7 C 0.27821 0.42566 0.39564 0.0
O8 O 0.26425 0.40322 0.41528 0.0
N9 N 0.31264 0.36994 0.40797 0.0
C10 C 0.31522 0.36341 0.51601 0.0
C11 C 0.31933 0.38254 0.4655 0.0
C12 C 0.30471 0.34296 0.42497 0.0
N13 N 0.30604 0.33838 0.49067 0.0
O14 O 0.28231 0.36999 0.29593 0.0
H15 H 0.32663 0.40444 0.47051 0.0
H16 H 0.29837 0.32686 0.38979 0.0
O17 O 0.29817 0.42203 0.35763 0.0
C18 C 0.28892 0.34756 0.2632 0.0
O19 O 0.31424 0.33996 0.26278 0.0
N20 N 0.34919 0.40205 0.34663 0.0
C21 C 0.40297 0.41762 0.35334 0.0
C22 C 0.38314 0.43875 0.34494 0.0
C23 C 0.3562 0.43051 0.34205 0.0
C24 C 0.36814 0.38138 0.35632 0.0
C25 C 0.39511 0.38873 0.36077 0.0
H26 H 0.34123 0.44676 0.33213 0.0
H27 H 0.36235 0.35886 0.35744 0.0
H28 H 0.29451 0.44251 0.24156 0.0
H29 H 0.34608 0.41014 0.09637 0.0
H30 H 0.3183 0.36794 0.56758 0.0
H31 H 0.38848 0.46126 0.33865 0.0
H32 H 0.40981 0.3717 0.366 0.0
C33 C 0.6679 0.65296 0.692 0.0
C34 C 0.66921 0.63612 0.63648 0.0
N35 N 0.68421 0.6126 0.64978 0.0
N36 N 0.68195 0.6403 0.74052 0.0
C37 C 0.69182 0.61588 0.71333 0.0
H38 H 0.6565 0.67264 0.69752 0.0
Co39 Co 0.68277 0.65384 0.82706 0.0
C40 C 0.71644 0.6113 0.89885 0.0
O41 O 0.73082 0.63226 0.92451 0.0
N42 N 0.68309 0.66763 0.91501 0.0
C43 C 0.67649 0.66863 0.02307 0.0
C44 C 0.6729 0.65295 0.96654 0.0
C45 C 0.69262 0.69244 0.94189 0.0
N46 N 0.68897 0.69351 1.00776 0.0
O47 O 0.71722 0.67108 0.80964 0.0
H48 H 0.66363 0.63187 0.96341 0.0
H49 H 0.70263 0.70917 0.91428 0.0
O50 O 0.69797 0.6173 0.85757 0.0
C51 C 0.71185 0.69614 0.7867 0.0
O52 O 0.68676 0.70465 0.78752 0.0
N53 N 0.6481 0.6397 0.83822 0.0
C54 C 0.59407 0.62675 0.82179 0.0
C55 C 0.61331 0.60468 0.82118 0.0
C56 C 0.64041 0.61166 0.8291 0.0
C57 C 0.62957 0.6611 0.84275 0.0
C58 C 0.60244 0.65508 0.83522 0.0
H59 H 0.65518 0.59486 0.82321 0.0
H60 H 0.63607 0.68326 0.84838 0.0
H61 H 0.7038 0.60048 0.74024 0.0
H62 H 0.65885 0.64043 0.59085 0.0
H63 H 0.67029 0.66214 0.07174 0.0
H64 H 0.6077 0.58259 0.81029 0.0
H65 H 0.58822 0.6727 0.83698 0.0
C66 C 0.32111 0.65492 0.84354 0.0
C67 C 0.31944 0.63721 0.89762 0.0
N68 N 0.30956 0.61145 0.87834 0.0
N69 N 0.31217 0.64058 0.79024 0.0
C70 C 0.30522 0.61416 0.81303 0.0
H71 H 0.32924 0.67656 0.84275 0.0
Co72 Co 0.31317 0.65505 0.70454 0.0
C73 C 0.27789 0.61651 0.62824 0.0
O74 O 0.2654 0.63924 0.60477 0.0
N75 N 0.31462 0.66968 0.61722 0.0
C76 C 0.3224 0.67105 0.50961 0.0
C77 C 0.32535 0.65519 0.56606 0.0
C78 C 0.30536 0.69452 0.59009 0.0
N79 N 0.30974 0.69581 0.52455 0.0
O80 O 0.2793 0.67376 0.72028 0.0
H81 H 0.33429 0.63399 0.56919 0.0
H82 H 0.29475 0.71098 0.61702 0.0
O83 O 0.29647 0.61983 0.67075 0.0
C84 C 0.28478 0.69883 0.74301 0.0
O85 O 0.30995 0.70717 0.74291 0.0
N86 N 0.34726 0.63938 0.695 0.0
C87 C 0.401 0.62373 0.70203 0.0
C88 C 0.38085 0.60255 0.70331 0.0
C89 C 0.35393 0.61084 0.69949 0.0
C90 C 0.36655 0.66011 0.69285 0.0
C91 C 0.39351 0.65277 0.69558 0.0
H92 H 0.33856 0.59448 0.70292 0.0
H93 H 0.36085 0.68263 0.69127 0.0
H94 H 0.2977 0.59695 0.78219 0.0
H95 H 0.32617 0.64249 0.94673 0.0
H96 H 0.32894 0.66464 0.46116 0.0
H97 H 0.38584 0.57991 0.70851 0.0
H98 H 0.40832 0.66988 0.69587 0.0
C99 C 0.69359 0.38719 0.35809 0.0
C100 C 0.69735 0.40757 0.40601 0.0
N101 N 0.69695 0.43393 0.37794 0.0
N102 N 0.69096 0.40033 0.29949 0.0
C103 C 0.6929 0.42893 0.313 0.0
H104 H 0.69209 0.36414 0.36575 0.0
Co105 Co 0.68354 0.37898 0.22407 0.0
C106 C 0.69051 0.41761 0.10868 0.0
O107 O 0.67137 0.40294 0.07952 0.0
N108 N 0.67592 0.35552 0.14869 0.0
C109 C 0.65633 0.32509 0.07839 0.0
C110 C 0.65235 0.34354 0.13033 0.0
C111 C 0.69388 0.34393 0.10625 0.0
N112 N 0.68252 0.32516 0.06339 0.0
O113 O 0.71833 0.3612 0.23217 0.0
H114 H 0.6333 0.34717 0.15352 0.0
H115 H 0.71513 0.34832 0.1085 0.0
O116 O 0.69758 0.41077 0.16738 0.0
C117 C 0.71556 0.33553 0.25431 0.0
O118 O 0.69129 0.32504 0.26106 0.0
N119 N 0.6488 0.39415 0.22502 0.0
C120 C 0.59699 0.41071 0.25936 0.0
C121 C 0.61335 0.42919 0.22227 0.0
C122 C 0.63953 0.42074 0.20666 0.0
C123 C 0.63322 0.37628 0.26179 0.0
C124 C 0.60723 0.38387 0.27861 0.0
H125 H 0.65239 0.4362 0.18299 0.0
H126 H 0.64131 0.35594 0.27879 0.0
H127 H 0.691 0.44568 0.27624 0.0
H128 H 0.69917 0.40324 0.45804 0.0
H129 H 0.64107 0.31236 0.05404 0.0
H130 H 0.60641 0.45043 0.20798 0.0
H131 H 0.59534 0.36883 0.30698 0.0
C132 C 0.7966 0.8909 0.19144 0.0
C133 C 0.79301 0.91218 0.14551 0.0
N134 N 0.79722 0.93792 0.17449 0.0
N135 N 0.80273 0.90294 0.24982 0.0
C136 C 0.8033 0.93175 0.2379 0.0
H137 H 0.7955 0.86796 0.18224 0.0
Co138 Co 0.81035 0.88034 0.32356 0.0
C139 C 0.80022 0.91668 0.44336 0.0
O140 O 0.81656 0.90006 0.47687 0.0
N141 N 0.81819 0.8558 0.39645 0.0
C142 C 0.83838 0.82416 0.46261 0.0
C143 C 0.84188 0.84345 0.41191 0.0
C144 C 0.8006 0.84339 0.43865 0.0
N145 N 0.81237 0.82408 0.47943 0.0
O146 O 0.77562 0.8622 0.3142 0.0
H147 H 0.86057 0.84738 0.38703 0.0
H148 H 0.77935 0.84785 0.43813 0.0
O149 O 0.79601 0.9114 0.3822 0.0
C150 C 0.77858 0.83678 0.29076 0.0
O151 O 0.80294 0.82683 0.2825 0.0
N152 N 0.84509 0.89578 0.32461 0.0
C153 C 0.89842 0.91102 0.30345 0.0
C154 C 0.88271 0.92645 0.34838 0.0
C155 C 0.85582 0.91882 0.35747 0.0
C156 C 0.86001 0.88103 0.27996 0.0
C157 C 0.88665 0.88821 0.26866 0.0
H158 H 0.84397 0.93185 0.38989 0.0
H159 H 0.85104 0.86326 0.25326 0.0
H160 H 0.80831 0.94778 0.27464 0.0
H161 H 0.78861 0.90886 0.09398 0.0
H162 H 0.85383 0.81105 0.48497 0.0
H163 H 0.89102 0.94456 0.37529 0.0
H164 H 0.89807 0.8756 0.23383 0.0
C165 C 0.16781 0.14896 0.68529 0.0
C166 C 0.16811 0.13134 0.63097 0.0
N167 N 0.1828 0.10777 0.64519 0.0
N168 N 0.18237 0.13676 0.73366 0.0
C169 C 0.19127 0.11163 0.7078 0.0
H170 H 0.15708 0.16912 0.68987 0.0
Co171 Co 0.18626 0.153 0.81728 0.0
C172 C 0.21923 0.11031 0.89144 0.0
O173 O 0.23486 0.13079 0.91452 0.0
N174 N 0.18969 0.16994 0.90141 0.0
C175 C 0.1864 0.17762 1.009 0.0
C176 C 0.18124 0.15853 0.95875 0.0
C177 C 0.19973 0.19612 0.91822 0.0
N178 N 0.19807 0.20135 0.98355 0.0
O179 O 0.22113 0.16688 0.79225 0.0
H180 H 0.17196 0.13753 0.96378 0.0
H181 H 0.2078 0.21127 0.88315 0.0
O182 O 0.20042 0.11668 0.85143 0.0
C183 C 0.21774 0.19017 0.75973 0.0
O184 O 0.19351 0.20093 0.7551 0.0
N185 N 0.15141 0.14141 0.83675 0.0
C186 C 0.09667 0.13006 0.84018 0.0
C187 C 0.11516 0.10738 0.8354 0.0
C188 C 0.14256 0.11351 0.83366 0.0
C189 C 0.13381 0.16362 0.84308 0.0
C190 C 0.10637 0.15843 0.84551 0.0
H191 H 0.15644 0.09598 0.82615 0.0
H192 H 0.14112 0.18563 0.84315 0.0
H193 H 0.2035 0.09633 0.73444 0.0
H194 H 0.15746 0.13509 0.58542 0.0
H195 H 0.18233 0.17397 0.06048 0.0
H196 H 0.1085 0.08519 0.83109 0.0
H197 H 0.09284 0.17665 0.84787 0.0
C198 C 0.8268 0.15658 0.85573 0.0
C199 C 0.82623 0.14016 0.91198 0.0
N200 N 0.81392 0.11492 0.8984 0.0
N201 N 0.81484 0.14196 0.80656 0.0
C202 C 0.8071 0.11666 0.83407 0.0
H203 H 0.83604 0.17758 0.85053 0.0
Co204 Co 0.81366 0.15509 0.71959 0.0
C205 C 0.77998 0.11219 0.6493 0.0
O206 O 0.76545 0.13315 0.6244 0.0
N207 N 0.81301 0.16848 0.63129 0.0
C208 C 0.81939 0.16917 0.52311 0.0
C209 C 0.82324 0.15375 0.57991 0.0
C210 C 0.80319 0.19305 0.60401 0.0
N211 N 0.80672 0.19393 0.53811 0.0
O212 O 0.77911 0.17198 0.73719 0.0
H213 H 0.83272 0.13282 0.58335 0.0
H214 H 0.79307 0.20974 0.63135 0.0
O215 O 0.79868 0.11818 0.69004 0.0
C216 C 0.78447 0.19732 0.75869 0.0
O217 O 0.80948 0.20612 0.7561 0.0
N218 N 0.8484 0.1416 0.70835 0.0
C219 C 0.90253 0.13054 0.72733 0.0
C220 C 0.88399 0.10773 0.72594 0.0
C221 C 0.85676 0.11376 0.71681 0.0
C222 C 0.86634 0.16366 0.70521 0.0
C223 C 0.89353 0.1586 0.71419 0.0
H224 H 0.8424 0.09643 0.72136 0.0
H225 H 0.85927 0.18561 0.7 0.0
H226 H 0.79764 0.09937 0.80685 0.0
H227 H 0.83451 0.14636 0.95906 0.0
H228 H 0.82555 0.16259 0.47448 0.0
H229 H 0.89021 0.0858 0.73641 0.0
H230 H 0.90725 0.17674 0.71416 0.0
C231 C 0.19723 0.8836 0.34305 0.0
C232 C 0.19955 0.90309 0.3932 0.0
N233 N 0.19395 0.92964 0.36977 0.0
N234 N 0.19068 0.89749 0.28723 0.0
C235 C 0.18876 0.92566 0.30489 0.0
H236 H 0.19936 0.86049 0.34768 0.0
Co237 Co 0.18307 0.87686 0.21065 0.0
C238 C 0.19215 0.91579 0.09573 0.0
O239 O 0.17421 0.90079 0.06306 0.0
N240 N 0.17524 0.85411 0.13478 0.0
C241 C 0.15535 0.82368 0.06507 0.0
C242 C 0.15167 0.84175 0.11789 0.0
C243 C 0.19291 0.84304 0.091 0.0
N244 N 0.18136 0.82438 0.04826 0.0
O245 O 0.21791 0.85892 0.21733 0.0
H246 H 0.13295 0.84474 0.14319 0.0
H247 H 0.21412 0.84774 0.09213 0.0
O248 O 0.19745 0.90913 0.15564 0.0
C249 C 0.2159 0.83263 0.23579 0.0
O250 O 0.19194 0.82118 0.24133 0.0
N251 N 0.14832 0.89223 0.21177 0.0
C252 C 0.09536 0.90775 0.23663 0.0
C253 C 0.11161 0.92505 0.19659 0.0
C254 C 0.13832 0.91723 0.18578 0.0
C255 C 0.13291 0.87566 0.25202 0.0
C256 C 0.10641 0.88289 0.26485 0.0
H257 H 0.15072 0.93183 0.1583 0.0
H258 H 0.1414 0.85648 0.27407 0.0
H259 H 0.18257 0.9426 0.27158 0.0
H260 H 0.20466 0.89783 0.44342 0.0
H261 H 0.14006 0.8107 0.04153 0.0
H262 H 0.10395 0.94482 0.17525 0.0
H263 H 0.09457 0.86887 0.29595 0.0
H264 H 0.42776 0.45048 0.25974 0.0
H265 H 0.5739 0.40349 0.37961 0.0
H266 H 0.44376 0.40023 0.43371 0.0
H267 H 0.5577 0.43729 0.18615 0.0
H268 H 0.52726 0.41148 0.40909 0.0
H269 H 0.47609 0.45519 0.24173 0.0
C270 C 0.44147 0.441 0.29493 0.0
C271 C 0.4318 0.42478 0.34808 0.0
C272 C 0.53389 0.41737 0.36032 0.0
C273 C 0.48694 0.42981 0.32746 0.0
C274 C 0.56051 0.41271 0.34333 0.0
C275 C 0.56958 0.41916 0.27982 0.0
C276 C 0.51605 0.42858 0.31354 0.0
C277 C 0.55151 0.43187 0.23553 0.0
C278 C 0.469 0.44349 0.28432 0.0
C279 C 0.45039 0.41265 0.39174 0.0
N280 N 0.52549 0.43585 0.25297 0.0
N281 N 0.47704 0.41525 0.38023 0.0
H282 H 0.56102 0.58171 0.85826 0.0
H283 H 0.42281 0.58691 0.79317 0.0
H284 H 0.56329 0.65846 0.73834 0.0
H285 H 0.44433 0.64465 0.63576 0.0
H286 H 0.4701 0.58207 0.82164 0.0
H287 H 0.5144 0.57399 0.8248 0.0
C288 C 0.55165 0.59697 0.82514 0.0
C289 C 0.56588 0.6211 0.80221 0.0
C290 C 0.46469 0.5952 0.7798 0.0
C291 C 0.51248 0.61273 0.76422 0.0
C292 C 0.43758 0.59794 0.76347 0.0
C293 C 0.42961 0.6164 0.71235 0.0
C294 C 0.48391 0.61103 0.74449 0.0
C295 C 0.44955 0.63054 0.67618 0.0
C296 C 0.52492 0.59272 0.80643 0.0
C297 C 0.5529 0.64002 0.75879 0.0
N298 N 0.47567 0.62782 0.69343 0.0
N299 N 0.52703 0.63545 0.74141 0.0
H300 H 0.06874 0.90781 0.35376 0.0
H301 H 0.92507 0.91696 0.18721 0.0
H302 H 0.05724 0.924 0.14709 0.0
H303 H 0.93706 0.92008 0.39684 0.0
H304 H 0.97335 0.92188 0.17156 0.0
H305 H 0.02076 0.91445 0.37117 0.0
C306 C 0.05609 0.91297 0.31211 0.0
C307 C 0.06691 0.91507 0.24877 0.0
C308 C 0.96544 0.92186 0.221 0.0
C309 C 0.01195 0.92258 0.26823 0.0
C310 C 0.9379 0.91895 0.22994 0.0
C311 C 0.92712 0.91785 0.29344 0.0
C312 C 0.98241 0.92327 0.27598 0.0
C313 C 0.94457 0.92089 0.34707 0.0
C314 C 0.02873 0.9169 0.32211 0.0
C315 C 0.04971 0.92223 0.19671 0.0
N316 N 0.97141 0.92306 0.33716 0.0
N317 N 0.02302 0.92534 0.20744 0.0
H318 H 0.05621 0.1549 0.91052 0.0
H319 H 0.93871 0.08942 0.68639 0.0
H320 H 0.07055 0.09356 0.75507 0.0
H321 H 0.92971 0.16118 0.8195 0.0
H322 H 0.9857 0.08482 0.72151 0.0
H323 H 0.00827 0.15127 0.88916 0.0
C324 C 0.04924 0.14049 0.87219 0.0
C325 C 0.06745 0.12478 0.83406 0.0
C326 C 0.97334 0.10147 0.74312 0.0
C327 C 0.01249 0.12054 0.80907 0.0
C328 C 0.94659 0.10404 0.7232 0.0
C329 C 0.93052 0.12603 0.74926 0.0
C330 C 0.98382 0.12079 0.78993 0.0
C331 C 0.94159 0.14434 0.79705 0.0
C332 C 0.02186 0.1384 0.86 0.0
C333 C 0.05723 0.106 0.78583 0.0
N334 N 0.96751 0.14137 0.81562 0.0
N335 N 0.03043 0.10463 0.77421 0.0
H336 H 0.30164 0.60851 1.01019 0.0
H337 H 0.31873 0.4367 0.02135 0.0
H338 H 0.31176 0.55542 0.83797 0.0
H339 H 0.30477 0.48863 0.19363 0.0
H340 H 0.31396 0.47975 0.95316 0.0
H341 H 0.3006 0.56489 0.07779 0.0
C342 C 0.3036 0.5877 0.9865 0.0
C343 C 0.30695 0.58576 0.91816 0.0
C344 C 0.31177 0.48177 1.00584 0.0
C345 C 0.30565 0.53556 0.99547 0.0
C346 C 0.31461 0.45717 0.04487 0.0
C347 C 0.31237 0.45903 0.11345 0.0
C348 C 0.30681 0.50863 0.03541 0.0
C349 C 0.30652 0.48611 0.14103 0.0
C350 C 0.30287 0.56277 0.02516 0.0
C351 C 0.30892 0.55809 0.89022 0.0
N352 N 0.30417 0.50986 0.10199 0.0
N353 N 0.30844 0.53416 0.92898 0.0
H354 H 0.72135 0.4441 0.49484 0.0
H355 H 0.67635 0.60944 0.51683 0.0
H356 H 0.67669 0.48632 0.34079 0.0
H357 H 0.70273 0.55894 0.68327 0.0
H358 H 0.68149 0.567 0.44712 0.0
H359 H 0.72022 0.48847 0.55875 0.0
C360 C 0.71125 0.46269 0.47431 0.0
C361 C 0.69869 0.46117 0.41255 0.0
C362 C 0.6862 0.56532 0.4989 0.0
C363 C 0.69765 0.51255 0.4858 0.0
C364 C 0.68318 0.58959 0.53914 0.0
C365 C 0.68883 0.58807 0.60688 0.0
C366 C 0.69521 0.53925 0.52612 0.0
C367 C 0.69821 0.56159 0.63175 0.0
C368 C 0.71071 0.48812 0.51092 0.0
C369 C 0.68664 0.4864 0.38801 0.0
N370 N 0.70102 0.53835 0.59151 0.0
N371 N 0.68628 0.511 0.42487 0.0
H372 H 0.74068 0.59343 1.01339 0.0
H373 H 0.6858 0.43134 0.97955 0.0
H374 H 0.69551 0.56131 0.8479 0.0
H375 H 0.71702 0.46502 0.16188 0.0
H376 H 0.69589 0.47704 0.92635 0.0
H377 H 0.73851 0.54527 0.06355 0.0
C378 C 0.73064 0.57619 0.98708 0.0
C379 C 0.71815 0.58154 0.92628 0.0
C380 C 0.70074 0.47452 0.97789 0.0
C381 C 0.71556 0.52634 0.98374 0.0
C382 C 0.69502 0.4483 1.00848 0.0
C383 C 0.70032 0.44429 0.07565 0.0
C384 C 0.71188 0.49727 1.01438 0.0
C385 C 0.71258 0.4671 0.11005 0.0
C386 C 0.72928 0.54874 1.01603 0.0
C387 C 0.70528 0.55835 0.89492 0.0
N388 N 0.71774 0.49272 0.07916 0.0
N389 N 0.70427 0.53191 0.92401 0.0
H390 H 0.28872 0.47926 0.34475 0.0
H391 H 0.28604 0.56267 0.68111 0.0
H392 H 0.2598 0.43689 0.5193 0.0
H393 H 0.26222 0.60542 0.50214 0.0
H394 H 0.28313 0.51597 0.62382 0.0
H395 H 0.28575 0.52591 0.40195 0.0
C396 C 0.28152 0.47982 0.39485 0.0
C397 C 0.27425 0.45421 0.42713 0.0
C398 C 0.2783 0.53561 0.59746 0.0
C399 C 0.27165 0.50724 0.49326 0.0
C400 C 0.27998 0.5622 0.63001 0.0
C401 C 0.27413 0.58794 0.5965 0.0
C402 C 0.27158 0.53484 0.53045 0.0
C403 C 0.26659 0.58609 0.53009 0.0
C404 C 0.27982 0.50638 0.42736 0.0
C405 C 0.26527 0.45615 0.49231 0.0
N406 N 0.26591 0.56007 0.49898 0.0
N407 N 0.2646 0.48214 0.52359 0.0
H408 H 0.8423 0.10265 1.00965 0.0
H409 H 0.76552 0.95351 0.07282 0.0
H410 H 0.77748 0.07124 0.88852 0.0
H411 H 0.82814 0.98526 0.19976 0.0
H412 H 0.76835 0.99776 1.00832 0.0
H413 H 0.83633 0.06131 0.08239 0.0
C414 C 0.82663 0.08728 0.99844 0.0
C415 C 0.81036 0.09065 0.94243 0.0
C416 C 0.78141 0.99524 0.05044 0.0
C417 C 0.80364 0.04279 0.02584 0.0
C418 C 0.77983 0.9699 0.08728 0.0
C419 C 0.7968 0.96552 0.14144 0.0
C420 C 0.80023 1.01652 0.06739 0.0
C421 C 0.81462 0.98778 0.15858 0.0
C422 C 0.82334 0.06352 0.04006 0.0
C423 C 0.79074 0.06952 0.93037 0.0
N424 N 0.81605 1.01221 0.1213 0.0
N425 N 0.78799 0.04656 0.97156 0.0
H426 H 0.18364 0.10616 0.51174 0.0
H427 H 0.18643 0.9339 0.50166 0.0
H428 H 0.18996 0.0521 0.68352 0.0
H429 H 0.19702 0.98567 0.32728 0.0
H430 H 0.18551 0.97743 0.56729 0.0
H431 H 0.18666 0.06305 0.44235 0.0
C432 C 0.1857 0.08524 0.53489 0.0
C433 C 0.18645 0.08278 0.6037 0.0
C434 C 0.18817 0.97938 0.51473 0.0
C435 C 0.18987 0.03333 0.52445 0.0
C436 C 0.18885 0.95437 0.47686 0.0
C437 C 0.19226 0.95584 0.4084 0.0
C438 C 0.19063 1.00643 0.48443 0.0
C439 C 0.19433 0.98337 0.37968 0.0
C440 C 0.18753 0.06066 0.4952 0.0
C441 C 0.18953 0.05514 0.63087 0.0
N442 N 0.1935 1.00759 0.41783 0.0
N443 N 0.19093 0.03155 0.59125 0.0
H444 H 0.24305 0.0923 1.00642 0.0
H445 H 0.19097 0.92953 0.96627 0.0
H446 H 0.19771 0.06069 0.8407 0.0
H447 H 0.21593 0.96383 0.15372 0.0
H448 H 0.20126 0.97563 0.91524 0.0
H449 H 0.24061 0.04401 0.05625 0.0
C450 C 0.23291 0.07515 0.98004 0.0
C451 C 0.2205 0.08063 0.91923 0.0
C452 C 0.20468 0.97316 0.96746 0.0
C453 C 0.21769 0.02536 0.97607 0.0
C454 C 0.19886 0.94672 0.99682 0.0
C455 C 0.2023 0.94277 0.06472 0.0
C456 C 0.2141 0.99617 1.0059 0.0
C457 C 0.21295 0.96587 0.10126 0.0
C458 C 0.2314 0.04765 1.00878 0.0
C459 C 0.20746 0.05759 0.88771 0.0
N460 N 0.21828 0.99171 0.07147 0.0
N461 N 0.2064 0.0311 0.91644 0.0
H462 H 0.75541 0.0947 0.53495 0.0
H463 H 0.80223 0.93017 0.57324 0.0
H464 H 0.8005 0.06191 0.69972 0.0
H465 H 0.77841 0.96594 0.38637 0.0
H466 H 0.79392 0.97663 0.62483 0.0
H467 H 0.75643 0.04644 0.48506 0.0
C468 C 0.7652 0.0773 0.56115 0.0
C469 C 0.77793 0.08246 0.62176 0.0
C470 C 0.79032 0.97438 0.57262 0.0
C471 C 0.77914 0.02713 0.56467 0.0
C472 C 0.79499 0.94774 0.54292 0.0
C473 C 0.79129 0.94405 0.47497 0.0
C474 C 0.78174 0.99785 0.53455 0.0
C475 C 0.78158 0.96772 0.43881 0.0
C476 C 0.76591 0.0498 0.53233 0.0
C477 C 0.7905 0.05907 0.65294 0.0
N478 N 0.7773 0.99368 0.46897 0.0
N479 N 0.79077 0.03254 0.62411 0.0
H480 H 0.23768 0.327 0.28663 0.0
H481 H 0.23697 0.23909 0.94625 0.0
H482 H 0.299 0.33207 0.13878 0.0
H483 H 0.18163 0.22096 0.10328 0.0
H484 H 0.25512 0.27905 1.01021 0.0
H485 H 0.21212 0.29396 0.21445 0.0
C486 C 0.24541 0.32168 0.23851 0.0
C487 C 0.27045 0.3321 0.21854 0.0
C488 C 0.2389 0.26644 0.03068 0.0
C489 C 0.24173 0.29448 0.13642 0.0
C490 C 0.22838 0.24363 0.99382 0.0
C491 C 0.20783 0.22629 0.01935 0.0
C492 C 0.2289 0.27217 0.09384 0.0
C493 C 0.19779 0.2333 0.08194 0.0
C494 C 0.23101 0.30268 0.19761 0.0
C495 C 0.27983 0.3243 0.15616 0.0
N496 N 0.2085 0.25556 0.11714 0.0
N497 N 0.26558 0.30597 0.11762 0.0
H498 H 0.75951 0.68159 0.72544 0.0
H499 H 0.76783 0.83638 0.54993 0.0
H500 H 0.7087 0.75401 0.7712 0.0
H501 H 0.82793 0.77083 0.52198 0.0
H502 H 0.74637 0.80579 0.63203 0.0
H503 H 0.78631 0.71343 0.654 0.0
C504 C 0.75436 0.70425 0.72166 0.0
C505 C 0.73175 0.71511 0.75401 0.0
C506 C 0.76433 0.79806 0.60824 0.0
C507 C 0.7618 0.75139 0.67168 0.0
C508 C 0.77648 0.81551 0.56089 0.0
C509 C 0.7997 0.80623 0.52874 0.0
C510 C 0.77524 0.77085 0.62347 0.0
C511 C 0.8102 0.77903 0.54589 0.0
C512 C 0.76949 0.72236 0.68047 0.0
C513 C 0.7258 0.74458 0.74671 0.0
N514 N 0.79783 0.76224 0.59169 0.0
N515 N 0.74049 0.76151 0.70608 0.0
H516 H 0.22628 0.83783 0.98017 0.0
H517 H 0.23597 0.68451 0.7986 0.0
H518 H 0.16618 0.77161 1.00185 0.0
H519 H 0.28882 0.75648 0.76262 0.0
H520 H 0.20843 0.71601 0.86868 0.0
H521 H 0.24862 0.80807 0.89798 0.0
C522 C 0.2178 0.81701 0.96774 0.0
C523 C 0.19434 0.80726 0.99823 0.0
C524 C 0.22588 0.72493 0.84467 0.0
C525 C 0.2198 0.77286 0.90351 0.0
C526 C 0.24145 0.70701 0.80428 0.0
C527 C 0.26482 0.71782 0.77508 0.0
C528 C 0.23386 0.75374 0.85583 0.0
C529 C 0.27115 0.74709 0.78468 0.0
C530 C 0.23045 0.80004 0.92038 0.0
C531 C 0.18406 0.78017 0.97926 0.0
N532 N 0.25596 0.76386 0.82449 0.0
N533 N 0.19694 0.76385 0.93353 0.0
H534 H 0.75104 0.35127 0.35049 0.0
H535 H 0.79406 0.18653 0.40953 0.0
H536 H 0.72826 0.28039 0.22529 0.0
H537 H 0.79879 0.25141 0.56119 0.0
H538 H 0.77829 0.22309 0.33279 0.0
H539 H 0.77753 0.31759 0.41806 0.0
C540 C 0.75255 0.32885 0.33575 0.0
C541 C 0.73783 0.31855 0.28184 0.0
C542 C 0.78291 0.22943 0.38274 0.0
C543 C 0.76729 0.27995 0.35941 0.0
C544 C 0.79207 0.20853 0.42669 0.0
C545 C 0.79775 0.21578 0.49225 0.0
C546 C 0.7794 0.25802 0.40398 0.0
C547 C 0.79433 0.24472 0.51146 0.0
C548 C 0.76726 0.30958 0.37485 0.0
C549 C 0.73962 0.28917 0.26604 0.0
N550 N 0.78534 0.26478 0.46759 0.0
N551 N 0.75391 0.27091 0.30475 0.0
H552 H 0.70151 0.68654 0.13651 0.0
H553 H 0.74262 0.85199 0.19519 0.0
H554 H 0.69649 0.75106 0.98418 0.0
H555 H 0.76649 0.78149 0.32006 0.0
H556 H 0.71652 0.81784 0.12768 0.0
H557 H 0.71678 0.72343 0.21309 0.0
C558 C 0.70333 0.70853 0.11916 0.0
C559 C 0.6977 0.71558 0.05346 0.0
C560 C 0.72695 0.81001 0.1708 0.0
C561 C 0.71549 0.75822 0.1416 0.0
C562 C 0.74144 0.82954 0.20989 0.0
C563 C 0.75636 0.81949 0.26366 0.0
C564 C 0.72733 0.78038 0.18616 0.0
C565 C 0.75495 0.79008 0.27942 0.0
C566 C 0.7122 0.72962 0.16303 0.0
C567 C 0.70091 0.74453 0.03402 0.0
N568 N 0.74086 0.77157 0.24075 0.0
N569 N 0.70963 0.76479 0.07784 0.0
H570 H 0.221 0.18871 0.6281 0.0
H571 H 0.32161 0.32304 0.6144 0.0
H572 H 0.25993 0.22387 0.79917 0.0
H573 H 0.27292 0.29469 0.45115 0.0
H574 H 0.30542 0.28215 0.67857 0.0
H575 H 0.24693 0.22149 0.55869 0.0
C576 C 0.23577 0.20274 0.65071 0.0
C577 C 0.23878 0.20333 0.71912 0.0
C578 C 0.29844 0.28477 0.62855 0.0
C579 C 0.26773 0.2418 0.64046 0.0
C580 C 0.30753 0.3083 0.59179 0.0
C581 C 0.29836 0.31281 0.52717 0.0
C582 C 0.28005 0.26535 0.60072 0.0
C583 C 0.28066 0.29229 0.50046 0.0
C584 C 0.25032 0.22169 0.61122 0.0
C585 C 0.25754 0.2224 0.74642 0.0
N586 N 0.27197 0.26966 0.53745 0.0
N587 N 0.27114 0.24114 0.70702 0.0
H588 H 0.73625 0.18306 0.81803 0.0
H589 H 0.72855 0.33692 0.99798 0.0
H590 H 0.7885 0.25501 0.7769 0.0
H591 H 0.66665 0.27252 1.01757 0.0
H592 H 0.75074 0.30629 0.91708 0.0
H593 H 0.7094 0.21488 0.88914 0.0
C594 C 0.74175 0.2056 0.82284 0.0
C595 C 0.76475 0.21631 0.79179 0.0
C596 C 0.73221 0.29887 0.93876 0.0
C597 C 0.73462 0.25257 0.87378 0.0
C598 C 0.71964 0.31632 0.9854 0.0
C599 C 0.69567 0.30739 1.01476 0.0
C600 C 0.72095 0.27201 0.92151 0.0
C601 C 0.68491 0.2805 0.99574 0.0
C602 C 0.72658 0.2237 0.86381 0.0
C603 C 0.77111 0.24566 0.80034 0.0
N604 N 0.69768 0.26372 0.95071 0.0
N605 N 0.75636 0.26258 0.84078 0.0
H606 H 0.22965 0.77796 0.20524 0.0
H607 H 0.30124 0.75305 0.54842 0.0
H608 H 0.25154 0.84888 0.33131 0.0
H609 H 0.29793 0.68872 0.39538 0.0
H610 H 0.28454 0.78908 0.46988 0.0
H611 H 0.25732 0.74574 0.2716 0.0
C612 C 0.24106 0.78688 0.24581 0.0
C613 C 0.23861 0.81609 0.26247 0.0
C614 C 0.2878 0.76713 0.45343 0.0
C615 C 0.26929 0.77911 0.34096 0.0
C616 C 0.29709 0.7465 0.49841 0.0
C617 C 0.30094 0.71772 0.47872 0.0
C618 C 0.28198 0.75884 0.38851 0.0
C619 C 0.29555 0.7106 0.4129 0.0
C620 C 0.25666 0.76845 0.28415 0.0
C621 C 0.25329 0.82653 0.31633 0.0
N622 N 0.28616 0.73088 0.37057 0.0
N623 N 0.26762 0.80791 0.35458 0.0
loop_
_geom_bond_atom_site_label_1
_geom_bond_atom_site_label_2
_geom_bond_distance
_geom_bond_site_symmetry_2
_ccdc_geom_bond_type
C0 C1 1.351 . S
C0 N3 1.368 . S
C0 H5 0.931 . S
C1 C0 1.351 . S
C1 N2 1.373 . S
C1 H29 0.930 . S
N2 C1 1.373 . S
N2 C4 1.340 . S
N3 C0 1.368 . S
N3 C4 1.321 . S
N3 Co6 2.135 . S
C4 N2 1.340 . S
C4 N3 1.321 . S
C4 H28 0.930 . S
H5 C0 0.931 . S
Co6 N3 2.135 . S
Co6 N9 2.121 . S
Co6 O14 2.055 . S
Co6 O17 2.039 . S
Co6 N20 2.140 . S
C7 O8 1.227 . S
C7 O17 1.265 . S
O8 C7 1.227 . S
N9 Co6 2.121 . S
N9 C11 1.375 . S
N9 C12 1.313 . S
C10 C11 1.338 . S
C10 N13 1.377 . S
C10 H30 0.930 . S
C11 N9 1.375 . S
C11 C10 1.338 . S
C11 H15 0.931 . S
C12 N9 1.313 . S
C12 N13 1.344 . S
C12 H16 0.930 . S
N13 C10 1.377 . S
N13 C12 1.344 . S
O14 Co6 2.055 . S
O14 C18 1.253 . S
H15 C11 0.931 . S
H16 C12 0.930 . S
O17 Co6 2.039 . S
O17 C7 1.265 . S
C18 O14 1.253 . S
C18 O19 1.227 . S
O19 C18 1.227 . S
N20 Co6 2.140 . S
N20 C23 1.346 . S
N20 C24 1.345 . S
C21 C22 1.387 . S
C21 C25 1.391 . S
C22 C21 1.387 . S
C22 C23 1.369 . S
C22 H31 0.929 . S
C23 N20 1.346 . S
C23 C22 1.369 . S
C23 H26 0.928 . S
C24 N20 1.345 . S
C24 C25 1.371 . S
C24 H27 0.931 . S
C25 C21 1.391 . S
C25 C24 1.371 . S
C25 H32 0.930 . S
H26 C23 0.928 . S
H27 C24 0.931 . S
H28 C4 0.930 . S
H29 C1 0.930 . S
H30 C10 0.930 . S
H31 C22 0.929 . S
H32 C25 0.930 . S
C33 C34 1.351 . S
C33 N36 1.368 . S
C33 H38 0.931 . S
C34 C33 1.351 . S
C34 N35 1.373 . S
C34 H62 0.930 . S
N35 C34 1.373 . S
N35 C37 1.340 . S
N36 C33 1.368 . S
N36 C37 1.321 . S
N36 Co39 2.135 . S
C37 N35 1.340 . S
C37 N36 1.321 . S
C37 H61 0.930 . S
H38 C33 0.931 . S
Co39 N36 2.135 . S
Co39 N42 2.121 . S
Co39 O47 2.055 . S
Co39 O50 2.039 . S
Co39 N53 2.140 . S
C40 O41 1.227 . S
C40 O50 1.265 . S
O41 C40 1.227 . S
N42 Co39 2.121 . S
N42 C44 1.375 . S
N42 C45 1.313 . S
C43 C44 1.338 . S
C43 N46 1.377 . S
C43 H63 0.930 1_556 S
C44 N42 1.375 . S
C44 C43 1.338 . S
C44 H48 0.931 . S
C45 N42 1.313 . S
C45 N46 1.344 . S
C45 H49 0.930 . S
N46 C43 1.377 . S
N46 C45 1.344 . S
O47 Co39 2.055 . S
O47 C51 1.253 . S
H48 C44 0.931 . S
H49 C45 0.930 . S
O50 Co39 2.039 . S
O50 C40 1.265 . S
C51 O47 1.253 . S
C51 O52 1.227 . S
O52 C51 1.227 . S
N53 Co39 2.140 . S
N53 C56 1.346 . S
N53 C57 1.345 . S
C54 C55 1.387 . S
C54 C58 1.391 . S
C55 C54 1.387 . S
C55 C56 1.369 . S
C55 H64 0.929 . S
C56 N53 1.346 . S
C56 C55 1.369 . S
C56 H59 0.928 . S
C57 N53 1.345 . S
C57 C58 1.371 . S
C57 H60 0.931 . S
C58 C54 1.391 . S
C58 C57 1.371 . S
C58 H65 0.930 . S
H59 C56 0.928 . S
H60 C57 0.931 . S
H61 C37 0.930 . S
H62 C34 0.930 . S
H63 C43 0.930 1_554 S
H64 C55 0.929 . S
H65 C58 0.930 . S
C66 C67 1.351 . S
C66 N69 1.368 . S
C66 H71 0.931 . S
C67 C66 1.351 . S
C67 N68 1.373 . S
C67 H95 0.930 . S
N68 C67 1.373 . S
N68 C70 1.340 . S
N69 C66 1.368 . S
N69 C70 1.321 . S
N69 Co72 2.135 . S
C70 N68 1.340 . S
C70 N69 1.321 . S
C70 H94 0.930 . S
H71 C66 0.931 . S
Co72 N69 2.135 . S
Co72 N75 2.121 . S
Co72 O80 2.055 . S
Co72 O83 2.039 . S
Co72 N86 2.140 . S
C73 O74 1.227 . S
C73 O83 1.265 . S
O74 C73 1.227 . S
N75 Co72 2.121 . S
N75 C77 1.375 . S
N75 C78 1.313 . S
C76 C77 1.338 . S
C76 N79 1.377 . S
C76 H96 0.930 . S
C77 N75 1.375 . S
C77 C76 1.338 . S
C77 H81 0.931 . S
C78 N75 1.313 . S
C78 N79 1.344 . S
C78 H82 0.930 . S
N79 C76 1.377 . S
N79 C78 1.344 . S
O80 Co72 2.055 . S
O80 C84 1.253 . S
H81 C77 0.931 . S
H82 C78 0.930 . S
O83 Co72 2.039 . S
O83 C73 1.265 . S
C84 O80 1.253 . S
C84 O85 1.227 . S
O85 C84 1.227 . S
N86 Co72 2.140 . S
N86 C89 1.346 . S
N86 C90 1.345 . S
C87 C88 1.387 . S
C87 C91 1.391 . S
C88 C87 1.387 . S
C88 C89 1.369 . S
C88 H97 0.929 . S
C89 N86 1.346 . S
C89 C88 1.369 . S
C89 H92 0.928 . S
C90 N86 1.345 . S
C90 C91 1.371 . S
C90 H93 0.931 . S
C91 C87 1.391 . S
C91 C90 1.371 . S
C91 H98 0.930 . S
H92 C89 0.928 . S
H93 C90 0.931 . S
H94 C70 0.930 . S
H95 C67 0.930 . S
H96 C76 0.930 . S
H97 C88 0.929 . S
H98 C91 0.930 . S
C99 C100 1.351 . S
C99 N102 1.368 . S
C99 H104 0.931 . S
C100 C99 1.351 . S
C100 N101 1.373 . S
C100 H128 0.930 . S
N101 C100 1.373 . S
N101 C103 1.340 . S
N102 C99 1.368 . S
N102 C103 1.321 . S
N102 Co105 2.135 . S
C103 N101 1.340 . S
C103 N102 1.321 . S
C103 H127 0.930 . S
H104 C99 0.931 . S
Co105 N102 2.135 . S
Co105 N108 2.121 . S
Co105 O113 2.055 . S
Co105 O116 2.039 . S
Co105 N119 2.140 . S
C106 O107 1.227 . S
C106 O116 1.265 . S
O107 C106 1.227 . S
N108 Co105 2.121 . S
N108 C110 1.375 . S
N108 C111 1.313 . S
C109 C110 1.338 . S
C109 N112 1.377 . S
C109 H129 0.930 1_554 S
C110 N108 1.375 . S
C110 C109 1.338 . S
C110 H114 0.931 . S
C111 N108 1.313 . S
C111 N112 1.344 . S
C111 H115 0.930 . S
N112 C109 1.377 . S
N112 C111 1.344 . S
O113 Co105 2.055 . S
O113 C117 1.253 . S
H114 C110 0.931 . S
H115 C111 0.930 . S
O116 Co105 2.039 . S
O116 C106 1.265 . S
C117 O113 1.253 . S
C117 O118 1.227 . S
O118 C117 1.227 . S
N119 Co105 2.140 . S
N119 C122 1.346 . S
N119 C123 1.345 . S
C120 C121 1.387 . S
C120 C124 1.391 . S
C121 C120 1.387 . S
C121 C122 1.369 . S
C121 H130 0.929 . S
C122 N119 1.346 . S
C122 C121 1.369 . S
C122 H125 0.928 . S
C123 N119 1.345 . S
C123 C124 1.371 . S
C123 H126 0.931 . S
C124 C120 1.391 . S
C124 C123 1.371 . S
C124 H131 0.930 . S
H125 C122 0.928 . S
H126 C123 0.931 . S
H127 C103 0.930 . S
H128 C100 0.930 . S
H129 C109 0.930 1_556 S
H130 C121 0.929 . S
H131 C124 0.930 . S
C132 C133 1.351 . S
C132 N135 1.368 . S
C132 H137 0.931 . S
C133 C132 1.351 . S
C133 N134 1.373 . S
C133 H161 0.930 . S
N134 C133 1.373 . S
N134 C136 1.340 . S
N135 C132 1.368 . S
N135 C136 1.321 . S
N135 Co138 2.135 . S
C136 N134 1.340 . S
C136 N135 1.321 . S
C136 H160 0.930 . S
H137 C132 0.931 . S
Co138 N135 2.135 . S
Co138 N141 2.121 . S
Co138 O146 2.055 . S
Co138 O149 2.039 . S
Co138 N152 2.140 . S
C139 O140 1.227 . S
C139 O149 1.265 . S
O140 C139 1.227 . S
N141 Co138 2.121 . S
N141 C143 1.375 . S
N141 C144 1.313 . S
C142 C143 1.338 . S
C142 N145 1.377 . S
C142 H162 0.930 . S
C143 N141 1.375 . S
C143 C142 1.338 . S
C143 H147 0.931 . S
C144 N141 1.313 . S
C144 N145 1.344 . S
C144 H148 0.930 . S
N145 C142 1.377 . S
N145 C144 1.344 . S
O146 Co138 2.055 . S
O146 C150 1.253 . S
H147 C143 0.931 . S
H148 C144 0.930 . S
O149 Co138 2.039 . S
O149 C139 1.265 . S
C150 O146 1.253 . S
C150 O151 1.227 . S
O151 C150 1.227 . S
N152 Co138 2.140 . S
N152 C155 1.346 . S
N152 C156 1.345 . S
C153 C154 1.387 . S
C153 C157 1.391 . S
C154 C153 1.387 . S
C154 C155 1.369 . S
C154 H163 0.929 . S
C155 N152 1.346 . S
C155 C154 1.369 . S
C155 H158 0.928 . S
C156 N152 1.345 . S
C156 C157 1.371 . S
C156 H159 0.931 . S
C157 C153 1.391 . S
C157 C156 1.371 . S
C157 H164 0.930 . S
H158 C155 0.928 . S
H159 C156 0.931 . S
H160 C136 0.930 . S
H161 C133 0.930 . S
H162 C142 0.930 . S
H163 C154 0.929 . S
H164 C157 0.930 . S
C165 C166 1.351 . S
C165 N168 1.368 . S
C165 H170 0.931 . S
C166 C165 1.351 . S
C166 N167 1.373 . S
C166 H194 0.930 . S
N167 C166 1.373 . S
N167 C169 1.340 . S
N168 C165 1.368 . S
N168 C169 1.321 . S
N168 Co171 2.135 . S
C169 N167 1.340 . S
C169 N168 1.321 . S
C169 H193 0.930 . S
H170 C165 0.931 . S
Co171 N168 2.135 . S
Co171 N174 2.121 . S
Co171 O179 2.055 . S
Co171 O182 2.039 . S
Co171 N185 2.140 . S
C172 O173 1.227 . S
C172 O182 1.265 . S
O173 C172 1.227 . S
N174 Co171 2.121 . S
N174 C176 1.375 . S
N174 C177 1.313 . S
C175 C176 1.338 . S
C175 N178 1.377 . S
C175 H195 0.930 1_556 S
C176 N174 1.375 . S
C176 C175 1.338 . S
C176 H180 0.931 . S
C177 N174 1.313 . S
C177 N178 1.344 . S
C177 H181 0.930 . S
N178 C175 1.377 . S
N178 C177 1.344 . S
O179 Co171 2.055 . S
O179 C183 1.253 . S
H180 C176 0.931 . S
H181 C177 0.930 . S
O182 Co171 2.039 . S
O182 C172 1.265 . S
C183 O179 1.253 . S
C183 O184 1.227 . S
O184 C183 1.227 . S
N185 Co171 2.140 . S
N185 C188 1.346 . S
N185 C189 1.345 . S
C186 C187 1.387 . S
C186 C190 1.391 . S
C187 C186 1.387 . S
C187 C188 1.369 . S
C187 H196 0.929 . S
C188 N185 1.346 . S
C188 C187 1.369 . S
C188 H191 0.928 . S
C189 N185 1.345 . S
C189 C190 1.371 . S
C189 H192 0.931 . S
C190 C186 1.391 . S
C190 C189 1.371 . S
C190 H197 0.930 . S
H191 C188 0.928 . S
H192 C189 0.931 . S
H193 C169 0.930 . S
H194 C166 0.930 . S
H195 C175 0.930 1_554 S
H196 C187 0.929 . S
H197 C190 0.930 . S
C198 C199 1.351 . S
C198 N201 1.368 . S
C198 H203 0.931 . S
C199 C198 1.351 . S
C199 N200 1.373 . S
C199 H227 0.930 . S
N200 C199 1.373 . S
N200 C202 1.340 . S
N201 C198 1.368 . S
N201 C202 1.321 . S
N201 Co204 2.135 . S
C202 N200 1.340 . S
C202 N201 1.321 . S
C202 H226 0.930 . S
H203 C198 0.931 . S
Co204 N201 2.135 . S
Co204 N207 2.121 . S
Co204 O212 2.055 . S
Co204 O215 2.039 . S
Co204 N218 2.140 . S
C205 O206 1.227 . S
C205 O215 1.265 . S
O206 C205 1.227 . S
N207 Co204 2.121 . S
N207 C209 1.375 . S
N207 C210 1.313 . S
C208 C209 1.338 . S
C208 N211 1.377 . S
C208 H228 0.930 . S
C209 N207 1.375 . S
C209 C208 1.338 . S
C209 H213 0.931 . S
C210 N207 1.313 . S
C210 N211 1.344 . S
C210 H214 0.930 . S
N211 C208 1.377 . S
N211 C210 1.344 . S
O212 Co204 2.055 . S
O212 C216 1.253 . S
H213 C209 0.931 . S
H214 C210 0.930 . S
O215 Co204 2.039 . S
O215 C205 1.265 . S
C216 O212 1.253 . S
C216 O217 1.227 . S
O217 C216 1.227 . S
N218 Co204 2.140 . S
N218 C221 1.346 . S
N218 C222 1.345 . S
C219 C220 1.387 . S
C219 C223 1.391 . S
C220 C219 1.387 . S
C220 C221 1.369 . S
C220 H229 0.929 . S
C221 N218 1.346 . S
C221 C220 1.369 . S
C221 H224 0.928 . S
C222 N218 1.345 . S
C222 C223 1.371 . S
C222 H225 0.931 . S
C223 C219 1.391 . S
C223 C222 1.371 . S
C223 H230 0.930 . S
H224 C221 0.928 . S
H225 C222 0.931 . S
H226 C202 0.930 . S
H227 C199 0.930 . S
H228 C208 0.930 . S
H229 C220 0.929 . S
H230 C223 0.930 . S
C231 C232 1.351 . S
C231 N234 1.368 . S
C231 H236 0.931 . S
C232 C231 1.351 . S
C232 N233 1.373 . S
C232 H260 0.930 . S
N233 C232 1.373 . S
N233 C235 1.340 . S
N234 C231 1.368 . S
N234 C235 1.321 . S
N234 Co237 2.135 . S
C235 N233 1.340 . S
C235 N234 1.321 . S
C235 H259 0.930 . S
H236 C231 0.931 . S
Co237 N234 2.135 . S
Co237 N240 2.121 . S
Co237 O245 2.055 . S
Co237 O248 2.039 . S
Co237 N251 2.140 . S
C238 O239 1.227 . S
C238 O248 1.265 . S
O239 C238 1.227 . S
N240 Co237 2.121 . S
N240 C242 1.375 . S
N240 C243 1.313 . S
C241 C242 1.338 . S
C241 N244 1.377 . S
C241 H261 0.930 1_554 S
C242 N240 1.375 . S
C242 C241 1.338 . S
C242 H246 0.931 . S
C243 N240 1.313 . S
C243 N244 1.344 . S
C243 H247 0.930 . S
N244 C241 1.377 . S
N244 C243 1.344 . S
O245 Co237 2.055 . S
O245 C249 1.253 . S
H246 C242 0.931 . S
H247 C243 0.930 . S
O248 Co237 2.039 . S
O248 C238 1.265 . S
C249 O245 1.253 . S
C249 O250 1.227 . S
O250 C249 1.227 . S
N251 Co237 2.140 . S
N251 C254 1.346 . S
N251 C255 1.345 . S
C252 C253 1.387 . S
C252 C256 1.391 . S
C253 C252 1.387 . S
C253 C254 1.369 . S
C253 H262 0.929 . S
C254 N251 1.346 . S
C254 C253 1.369 . S
C254 H257 0.928 . S
C255 N251 1.345 . S
C255 C256 1.371 . S
C255 H258 0.931 . S
C256 C252 1.391 . S
C256 C255 1.371 . S
C256 H263 0.930 . S
H257 C254 0.928 . S
H258 C255 0.931 . S
H259 C235 0.930 . S
H260 C232 0.930 . S
H261 C241 0.930 1_556 S
H262 C253 0.929 . S
H263 C256 0.930 . S
H264 C270 0.930 . S
H265 C274 0.930 . S
H266 C279 0.929 . S
H267 C277 0.929 . S
H268 C272 0.929 . S
H269 C278 0.929 . S
C270 H264 0.930 . S
C270 C271 1.367 . S
C270 C278 1.378 . S
C271 C270 1.367 . S
C271 C279 1.433 . S
C272 H268 0.929 . S
C272 C274 1.378 . S
C272 C276 1.350 . S
C273 C276 1.463 . S
C273 C278 1.350 . S
C273 N281 1.427 . S
C274 H265 0.930 . S
C274 C272 1.378 . S
C274 C275 1.367 . S
C275 C274 1.367 . S
C275 C277 1.433 . S
C276 C272 1.350 . S
C276 C273 1.463 . S
C276 N280 1.427 . S
C277 H267 0.929 . S
C277 C275 1.433 . S
C277 N280 1.384 . S
C278 H269 0.929 . S
C278 C270 1.378 . S
C278 C273 1.350 . S
C279 H266 0.929 . S
C279 C271 1.433 . S
C279 N281 1.384 . S
N280 C276 1.427 . S
N280 C277 1.384 . S
N281 C273 1.427 . S
N281 C279 1.384 . S
H282 C288 0.930 . S
H283 C292 0.930 . S
H284 C297 0.929 . S
H285 C295 0.929 . S
H286 C290 0.929 . S
H287 C296 0.929 . S
C288 H282 0.930 . S
C288 C289 1.367 . S
C288 C296 1.378 . S
C289 C288 1.367 . S
C289 C297 1.433 . S
C290 H286 0.929 . S
C290 C292 1.378 . S
C290 C294 1.350 . S
C291 C294 1.463 . S
C291 C296 1.350 . S
C291 N299 1.427 . S
C292 H283 0.930 . S
C292 C290 1.378 . S
C292 C293 1.367 . S
C293 C292 1.367 . S
C293 C295 1.433 . S
C294 C290 1.350 . S
C294 C291 1.463 . S
C294 N298 1.427 . S
C295 H285 0.929 . S
C295 C293 1.433 . S
C295 N298 1.384 . S
C296 H287 0.929 . S
C296 C288 1.378 . S
C296 C291 1.350 . S
C297 H284 0.929 . S
C297 C289 1.433 . S
C297 N299 1.384 . S
N298 C294 1.427 . S
N298 C295 1.384 . S
N299 C291 1.427 . S
N299 C297 1.384 . S
H300 C306 0.930 . S
H301 C310 0.930 . S
H302 C315 0.929 . S
H303 C313 0.929 . S
H304 C308 0.929 . S
H305 C314 0.929 . S
C306 H300 0.930 . S
C306 C307 1.367 . S
C306 C314 1.378 . S
C307 C306 1.367 . S
C307 C315 1.433 . S
C308 H304 0.929 . S
C308 C310 1.378 . S
C308 C312 1.350 . S
C309 C312 1.463 1_455 S
C309 C314 1.350 . S
C309 N317 1.427 . S
C310 H301 0.930 . S
C310 C308 1.378 . S
C310 C311 1.367 . S
C311 C310 1.367 . S
C311 C313 1.433 . S
C312 C308 1.350 . S
C312 C309 1.463 1_655 S
C312 N316 1.427 . S
C313 H303 0.929 . S
C313 C311 1.433 . S
C313 N316 1.384 . S
C314 H305 0.929 . S
C314 C306 1.378 . S
C314 C309 1.350 . S
C315 H302 0.929 . S
C315 C307 1.433 . S
C315 N317 1.384 . S
N316 C312 1.427 . S
N316 C313 1.384 . S
N317 C309 1.427 . S
N317 C315 1.384 . S
H318 C324 0.930 . S
H319 C328 0.930 . S
H320 C333 0.929 . S
H321 C331 0.929 . S
H322 C326 0.929 . S
H323 C332 0.929 . S
C324 H318 0.930 . S
C324 C325 1.367 . S
C324 C332 1.378 . S
C325 C324 1.367 . S
C325 C333 1.433 . S
C326 H322 0.929 . S
C326 C328 1.378 . S
C326 C330 1.350 . S
C327 C330 1.463 1_455 S
C327 C332 1.350 . S
C327 N335 1.427 . S
C328 H319 0.930 . S
C328 C326 1.378 . S
C328 C329 1.367 . S
C329 C328 1.367 . S
C329 C331 1.433 . S
C330 C326 1.350 . S
C330 C327 1.463 1_655 S
C330 N334 1.427 . S
C331 H321 0.929 . S
C331 C329 1.433 . S
C331 N334 1.384 . S
C332 H323 0.929 . S
C332 C324 1.378 . S
C332 C327 1.350 . S
C333 H320 0.929 . S
C333 C325 1.433 . S
C333 N335 1.384 . S
N334 C330 1.427 . S
N334 C331 1.384 . S
N335 C327 1.427 . S
N335 C333 1.384 . S
H336 C342 0.930 . S
H337 C346 0.930 . S
H338 C351 0.929 . S
H339 C349 0.929 . S
H340 C344 0.929 1_556 S
H341 C350 0.929 1_554 S
C342 H336 0.930 . S
C342 C343 1.367 . S
C342 C350 1.378 . S
C343 C342 1.367 . S
C343 C351 1.433 . S
C344 H340 0.929 1_554 S
C344 C346 1.378 . S
C344 C348 1.350 . S
C345 C348 1.463 1_556 S
C345 C350 1.350 . S
C345 N353 1.427 . S
C346 H337 0.930 . S
C346 C344 1.378 . S
C346 C347 1.367 . S
C347 C346 1.367 . S
C347 C349 1.433 . S
C348 C344 1.350 . S
C348 C345 1.463 1_554 S
C348 N352 1.427 . S
C349 H339 0.929 . S
C349 C347 1.433 . S
C349 N352 1.384 . S
C350 H341 0.929 1_556 S
C350 C342 1.378 . S
C350 C345 1.350 . S
C351 H338 0.929 . S
C351 C343 1.433 . S
C351 N353 1.384 . S
N352 C348 1.427 . S
N352 C349 1.384 . S
N353 C345 1.427 . S
N353 C351 1.384 . S
H354 C360 0.930 . S
H355 C364 0.930 . S
H356 C369 0.929 . S
H357 C367 0.929 . S
H358 C362 0.929 . S
H359 C368 0.929 . S
C360 H354 0.930 . S
C360 C361 1.367 . S
C360 C368 1.378 . S
C361 C360 1.367 . S
C361 C369 1.433 . S
C362 H358 0.929 . S
C362 C364 1.378 . S
C362 C366 1.350 . S
C363 C366 1.463 . S
C363 C368 1.350 . S
C363 N371 1.427 . S
C364 H355 0.930 . S
C364 C362 1.378 . S
C364 C365 1.367 . S
C365 C364 1.367 . S
C365 C367 1.433 . S
C366 C362 1.350 . S
C366 C363 1.463 . S
C366 N370 1.427 . S
C367 H357 0.929 . S
C367 C365 1.433 . S
C367 N370 1.384 . S
C368 H359 0.929 . S
C368 C360 1.378 . S
C368 C363 1.350 . S
C369 H356 0.929 . S
C369 C361 1.433 . S
C369 N371 1.384 . S
N370 C366 1.427 . S
N370 C367 1.384 . S
N371 C363 1.427 . S
N371 C369 1.384 . S
H372 C378 0.930 . S
H373 C382 0.930 . S
H374 C387 0.929 . S
H375 C385 0.929 . S
H376 C380 0.929 . S
H377 C386 0.929 . S
C378 H372 0.930 . S
C378 C379 1.367 . S
C378 C386 1.378 1_556 S
C379 C378 1.367 . S
C379 C387 1.433 . S
C380 H376 0.929 . S
C380 C382 1.378 1_556 S
C380 C384 1.350 1_556 S
C381 C384 1.463 1_556 S
C381 C386 1.350 1_556 S
C381 N389 1.427 . S
C382 H373 0.930 . S
C382 C380 1.378 1_554 S
C382 C383 1.367 . S
C383 C382 1.367 . S
C383 C385 1.433 . S
C384 C380 1.350 1_554 S
C384 C381 1.463 1_554 S
C384 N388 1.427 . S
C385 H375 0.929 . S
C385 C383 1.433 . S
C385 N388 1.384 . S
C386 H377 0.929 . S
C386 C378 1.378 1_554 S
C386 C381 1.350 1_554 S
C387 H374 0.929 . S
C387 C379 1.433 . S
C387 N389 1.384 . S
N388 C384 1.427 . S
N388 C385 1.384 . S
N389 C381 1.427 . S
N389 C387 1.384 . S
H390 C396 0.930 . S
H391 C400 0.930 . S
H392 C405 0.929 . S
H393 C403 0.929 . S
H394 C398 0.929 . S
H395 C404 0.929 . S
C396 H390 0.930 . S
C396 C397 1.367 . S
C396 C404 1.378 . S
C397 C396 1.367 . S
C397 C405 1.433 . S
C398 H394 0.929 . S
C398 C400 1.378 . S
C398 C402 1.350 . S
C399 C402 1.463 . S
C399 C404 1.350 . S
C399 N407 1.427 . S
C400 H391 0.930 . S
C400 C398 1.378 . S
C400 C401 1.367 . S
C401 C400 1.367 . S
C401 C403 1.433 . S
C402 C398 1.350 . S
C402 C399 1.463 . S
C402 N406 1.427 . S
C403 H393 0.929 . S
C403 C401 1.433 . S
C403 N406 1.384 . S
C404 H395 0.929 . S
C404 C396 1.378 . S
C404 C399 1.350 . S
C405 H392 0.929 . S
C405 C397 1.433 . S
C405 N407 1.384 . S
N406 C402 1.427 . S
N406 C403 1.384 . S
N407 C399 1.427 . S
N407 C405 1.384 . S
H408 C414 0.930 . S
H409 C418 0.930 . S
H410 C423 0.929 . S
H411 C421 0.929 . S
H412 C416 0.929 . S
H413 C422 0.929 . S
C414 H408 0.930 . S
C414 C415 1.367 . S
C414 C422 1.378 . S
C415 C414 1.367 . S
C415 C423 1.433 . S
C416 H412 0.929 . S
C416 C418 1.378 . S
C416 C420 1.350 . S
C417 C420 1.463 1_546 S
C417 C422 1.350 . S
C417 N425 1.427 . S
C418 H409 0.930 . S
C418 C416 1.378 . S
C418 C419 1.367 . S
C419 C418 1.367 . S
C419 C421 1.433 . S
C420 C416 1.350 . S
C420 C417 1.463 1_564 S
C420 N424 1.427 . S
C421 H411 0.929 . S
C421 C419 1.433 . S
C421 N424 1.384 . S
C422 H413 0.929 . S
C422 C414 1.378 . S
C422 C417 1.350 . S
C423 H410 0.929 . S
C423 C415 1.433 . S
C423 N425 1.384 . S
N424 C420 1.427 . S
N424 C421 1.384 . S
N425 C417 1.427 . S
N425 C423 1.384 . S
H426 C432 0.930 . S
H427 C436 0.930 . S
H428 C441 0.929 . S
H429 C439 0.929 . S
H430 C434 0.929 . S
H431 C440 0.929 . S
C432 H426 0.930 . S
C432 C433 1.367 . S
C432 C440 1.378 . S
C433 C432 1.367 . S
C433 C441 1.433 . S
C434 H430 0.929 . S
C434 C436 1.378 . S
C434 C438 1.350 . S
C435 C438 1.463 1_545 S
C435 C440 1.350 . S
C435 N443 1.427 . S
C436 H427 0.930 . S
C436 C434 1.378 . S
C436 C437 1.367 . S
C437 C436 1.367 . S
C437 C439 1.433 . S
C438 C434 1.350 . S
C438 C435 1.463 1_565 S
C438 N442 1.427 . S
C439 H429 0.929 . S
C439 C437 1.433 . S
C439 N442 1.384 . S
C440 H431 0.929 . S
C440 C432 1.378 . S
C440 C435 1.350 . S
C441 H428 0.929 . S
C441 C433 1.433 . S
C441 N443 1.384 . S
N442 C438 1.427 . S
N442 C439 1.384 . S
N443 C435 1.427 . S
N443 C441 1.384 . S
H444 C450 0.930 . S
H445 C454 0.930 . S
H446 C459 0.929 . S
H447 C457 0.929 . S
H448 C452 0.929 . S
H449 C458 0.929 . S
C450 H444 0.930 . S
C450 C451 1.367 . S
C450 C458 1.378 1_556 S
C451 C450 1.367 . S
C451 C459 1.433 . S
C452 H448 0.929 . S
C452 C454 1.378 1_556 S
C452 C456 1.350 1_556 S
C453 C456 1.463 1_546 S
C453 C458 1.350 1_556 S
C453 N461 1.427 . S
C454 H445 0.930 . S
C454 C452 1.378 1_554 S
C454 C455 1.367 . S
C455 C454 1.367 . S
C455 C457 1.433 . S
C456 C452 1.350 1_554 S
C456 C453 1.463 1_564 S
C456 N460 1.427 . S
C457 H447 0.929 . S
C457 C455 1.433 . S
C457 N460 1.384 . S
C458 H449 0.929 . S
C458 C450 1.378 1_554 S
C458 C453 1.350 1_554 S
C459 H446 0.929 . S
C459 C451 1.433 . S
C459 N461 1.384 . S
N460 C456 1.427 . S
N460 C457 1.384 . S
N461 C453 1.427 . S
N461 C459 1.384 . S
H462 C468 0.930 . S
H463 C472 0.930 . S
H464 C477 0.929 . S
H465 C475 0.929 . S
H466 C470 0.929 . S
H467 C476 0.929 . S
C468 H462 0.930 . S
C468 C469 1.367 . S
C468 C476 1.378 . S
C469 C468 1.367 . S
C469 C477 1.433 . S
C470 H466 0.929 . S
C470 C472 1.378 . S
C470 C474 1.350 . S
C471 C474 1.463 1_545 S
C471 C476 1.350 . S
C471 N479 1.427 . S
C472 H463 0.930 . S
C472 C470 1.378 . S
C472 C473 1.367 . S
C473 C472 1.367 . S
C473 C475 1.433 . S
C474 C470 1.350 . S
C474 C471 1.463 1_565 S
C474 N478 1.427 . S
C475 H465 0.929 . S
C475 C473 1.433 . S
C475 N478 1.384 . S
C476 H467 0.929 . S
C476 C468 1.378 . S
C476 C471 1.350 . S
C477 H464 0.929 . S
C477 C469 1.433 . S
C477 N479 1.384 . S
N478 C474 1.427 . S
N478 C475 1.384 . S
N479 C471 1.427 . S
N479 C477 1.384 . S
H480 C486 0.930 . S
H481 C490 0.930 . S
H482 C495 0.929 . S
H483 C493 0.929 . S
H484 C488 0.929 . S
H485 C494 0.929 . S
C486 H480 0.930 . S
C486 C487 1.367 . S
C486 C494 1.378 . S
C487 C486 1.367 . S
C487 C495 1.433 . S
C488 H484 0.929 . S
C488 C490 1.378 . S
C488 C492 1.350 1_556 S
C489 C492 1.463 . S
C489 C494 1.350 . S
C489 N497 1.427 . S
C490 H481 0.930 . S
C490 C488 1.378 . S
C490 C491 1.367 . S
C491 C490 1.367 . S
C491 C493 1.433 1_556 S
C492 C488 1.350 1_554 S
C492 C489 1.463 . S
C492 N496 1.427 . S
C493 H483 0.929 . S
C493 C491 1.433 1_554 S
C493 N496 1.384 . S
C494 H485 0.929 . S
C494 C486 1.378 . S
C494 C489 1.350 . S
C495 H482 0.929 . S
C495 C487 1.433 . S
C495 N497 1.384 . S
N496 C492 1.427 . S
N496 C493 1.384 . S
N497 C489 1.427 . S
N497 C495 1.384 . S
H498 C504 0.930 . S
H499 C508 0.930 . S
H500 C513 0.929 . S
H501 C511 0.929 . S
H502 C506 0.929 . S
H503 C512 0.929 . S
C504 H498 0.930 . S
C504 C505 1.367 . S
C504 C512 1.378 . S
C505 C504 1.367 . S
C505 C513 1.433 . S
C506 H502 0.929 . S
C506 C508 1.378 . S
C506 C510 1.350 . S
C507 C510 1.463 . S
C507 C512 1.350 . S
C507 N515 1.427 . S
C508 H499 0.930 . S
C508 C506 1.378 . S
C508 C509 1.367 . S
C509 C508 1.367 . S
C509 C511 1.433 . S
C510 C506 1.350 . S
C510 C507 1.463 . S
C510 N514 1.427 . S
C511 H501 0.929 . S
C511 C509 1.433 . S
C511 N514 1.384 . S
C512 H503 0.929 . S
C512 C504 1.378 . S
C512 C507 1.350 . S
C513 H500 0.929 . S
C513 C505 1.433 . S
C513 N515 1.384 . S
N514 C510 1.427 . S
N514 C511 1.384 . S
N515 C507 1.427 . S
N515 C513 1.384 . S
H516 C522 0.930 . S
H517 C526 0.930 . S
H518 C531 0.929 . S
H519 C529 0.929 . S
H520 C524 0.929 . S
H521 C530 0.929 . S
C522 H516 0.930 . S
C522 C523 1.367 . S
C522 C530 1.378 . S
C523 C522 1.367 . S
C523 C531 1.433 1_554 S
C524 H520 0.929 . S
C524 C526 1.378 . S
C524 C528 1.350 . S
C525 C528 1.463 . S
C525 C530 1.350 1_556 S
C525 N533 1.427 . S
C526 H517 0.930 . S
C526 C524 1.378 . S
C526 C527 1.367 . S
C527 C526 1.367 . S
C527 C529 1.433 . S
C528 C524 1.350 . S
C528 C525 1.463 . S
C528 N532 1.427 . S
C529 H519 0.929 . S
C529 C527 1.433 . S
C529 N532 1.384 . S
C530 H521 0.929 . S
C530 C522 1.378 . S
C530 C525 1.350 1_554 S
C531 H518 0.929 . S
C531 C523 1.433 1_556 S
C531 N533 1.384 . S
N532 C528 1.427 . S
N532 C529 1.384 . S
N533 C525 1.427 . S
N533 C531 1.384 . S
H534 C540 0.930 . S
H535 C544 0.930 . S
H536 C549 0.929 . S
H537 C547 0.929 . S
H538 C542 0.929 . S
H539 C548 0.929 . S
C540 H534 0.930 . S
C540 C541 1.367 . S
C540 C548 1.378 . S
C541 C540 1.367 . S
C541 C549 1.433 . S
C542 H538 0.929 . S
C542 C544 1.378 . S
C542 C546 1.350 . S
C543 C546 1.463 . S
C543 C548 1.350 . S
C543 N551 1.427 . S
C544 H535 0.930 . S
C544 C542 1.378 . S
C544 C545 1.367 . S
C545 C544 1.367 . S
C545 C547 1.433 . S
C546 C542 1.350 . S
C546 C543 1.463 . S
C546 N550 1.427 . S
C547 H537 0.929 . S
C547 C545 1.433 . S
C547 N550 1.384 . S
C548 H539 0.929 . S
C548 C540 1.378 . S
C548 C543 1.350 . S
C549 H536 0.929 . S
C549 C541 1.433 . S
C549 N551 1.384 . S
N550 C546 1.427 . S
N550 C547 1.384 . S
N551 C543 1.427 . S
N551 C549 1.384 . S
H552 C558 0.930 . S
H553 C562 0.930 . S
H554 C567 0.929 . S
H555 C565 0.929 . S
H556 C560 0.929 . S
H557 C566 0.929 . S
C558 H552 0.930 . S
C558 C559 1.367 1_554 S
C558 C566 1.378 . S
C559 C558 1.367 1_556 S
C559 C567 1.433 . S
C560 H556 0.929 . S
C560 C562 1.378 . S
C560 C564 1.350 . S
C561 C564 1.463 . S
C561 C566 1.350 . S
C561 N569 1.427 1_554 S
C562 H553 0.930 . S
C562 C560 1.378 . S
C562 C563 1.367 . S
C563 C562 1.367 . S
C563 C565 1.433 . S
C564 C560 1.350 . S
C564 C561 1.463 . S
C564 N568 1.427 . S
C565 H555 0.929 . S
C565 C563 1.433 . S
C565 N568 1.384 . S
C566 H557 0.929 . S
C566 C558 1.378 . S
C566 C561 1.350 . S
C567 H554 0.929 . S
C567 C559 1.433 . S
C567 N569 1.384 . S
N568 C564 1.427 . S
N568 C565 1.384 . S
N569 C561 1.427 1_556 S
N569 C567 1.384 . S
H570 C576 0.930 . S
H571 C580 0.930 . S
H572 C585 0.929 . S
H573 C583 0.929 . S
H574 C578 0.929 . S
H575 C584 0.929 . S
C576 H570 0.930 . S
C576 C577 1.367 . S
C576 C584 1.378 . S
C577 C576 1.367 . S
C577 C585 1.433 . S
C578 H574 0.929 . S
C578 C580 1.378 . S
C578 C582 1.350 . S
C579 C582 1.463 . S
C579 C584 1.350 . S
C579 N587 1.427 . S
C580 H571 0.930 . S
C580 C578 1.378 . S
C580 C581 1.367 . S
C581 C580 1.367 . S
C581 C583 1.433 . S
C582 C578 1.350 . S
C582 C579 1.463 . S
C582 N586 1.427 . S
C583 H573 0.929 . S
C583 C581 1.433 . S
C583 N586 1.384 . S
C584 H575 0.929 . S
C584 C576 1.378 . S
C584 C579 1.350 . S
C585 H572 0.929 . S
C585 C577 1.433 . S
C585 N587 1.384 . S
N586 C582 1.427 . S
N586 C583 1.384 . S
N587 C579 1.427 . S
N587 C585 1.384 . S
H588 C594 0.930 . S
H589 C598 0.930 . S
H590 C603 0.929 . S
H591 C601 0.929 . S
H592 C596 0.929 . S
H593 C602 0.929 . S
C594 H588 0.930 . S
C594 C595 1.367 . S
C594 C602 1.378 . S
C595 C594 1.367 . S
C595 C603 1.433 . S
C596 H592 0.929 . S
C596 C598 1.378 . S
C596 C600 1.350 1_554 S
C597 C600 1.463 . S
C597 C602 1.350 . S
C597 N605 1.427 . S
C598 H589 0.930 . S
C598 C596 1.378 . S
C598 C599 1.367 . S
C599 C598 1.367 . S
C599 C601 1.433 1_554 S
C600 C596 1.350 1_556 S
C600 C597 1.463 . S
C600 N604 1.427 . S
C601 H591 0.929 . S
C601 C599 1.433 1_556 S
C601 N604 1.384 . S
C602 H593 0.929 . S
C602 C594 1.378 . S
C602 C597 1.350 . S
C603 H590 0.929 . S
C603 C595 1.433 . S
C603 N605 1.384 . S
N604 C600 1.427 . S
N604 C601 1.384 . S
N605 C597 1.427 . S
N605 C603 1.384 . S
H606 C612 0.930 . S
H607 C616 0.930 . S
H608 C621 0.929 . S
H609 C619 0.929 . S
H610 C614 0.929 . S
H611 C620 0.929 . S
C612 H606 0.930 . S
C612 C613 1.367 . S
C612 C620 1.378 . S
C613 C612 1.367 . S
C613 C621 1.433 . S
C614 H610 0.929 . S
C614 C616 1.378 . S
C614 C618 1.350 . S
C615 C618 1.463 . S
C615 C620 1.350 . S
C615 N623 1.427 . S
C616 H607 0.930 . S
C616 C614 1.378 . S
C616 C617 1.367 . S
C617 C616 1.367 . S
C617 C619 1.433 . S
C618 C614 1.350 . S
C618 C615 1.463 . S
C618 N622 1.427 . S
C619 H609 0.929 . S
C619 C617 1.433 . S
C619 N622 1.384 . S
C620 H611 0.929 . S
C620 C612 1.378 . S
C620 C615 1.350 . S
C621 H608 0.929 . S
C621 C613 1.433 . S
C621 N623 1.384 . S
N622 C618 1.427 . S
N622 C619 1.384 . S
N623 C615 1.427 . S
N623 C621 1.384 . S
C271 C21 1.496 . S
C275 C120 1.500 . S
C289 C54 1.498 . S
C293 C87 1.502 . S
C307 C252 1.501 . S
C311 C153 1.497 . S
C325 C186 1.502 . S
C329 C219 1.498 . S
C343 N68 1.097 . S
C347 N2 1.101 . S
C361 N101 1.098 . S
C365 N35 1.104 . S
C379 C40 1.558 . S
C383 C106 1.565 . S
C397 C7 1.562 . S
C401 C73 1.554 . S
C415 N200 1.109 . S
C419 N134 1.100 . S
C433 N167 1.097 . S
C437 N233 1.102 . S
C451 C172 1.561 . S
C455 C238 1.563 . S
C469 C205 1.564 . S
C473 C139 1.560 . S
C487 C18 1.398 . S
C491 N178 1.377 . S
C505 C51 1.399 . S
C509 N145 1.370 . S
C523 N244 1.380 . S
C527 C84 1.395 . S
C541 C117 1.391 . S
C545 N211 1.378 . S
C559 N46 1.367 . S
C563 C150 1.397 . S
C577 C183 1.391 . S
C581 N13 1.379 . S
C595 C216 1.398 . S
C599 N112 1.377 . S
C613 C249 1.396 . S
C617 N79 1.380 . S
