# Generated by pormake.
# Topology une, (4)-cn, num edge types: 1
# Building blocks:
#     Node 0, Type 0, BuildingBlock: NAHDIM_clean_sbu_0, # of connection points: 4
#     Node 1, Type 0, BuildingBlock: NAHDIM_clean_sbu_0, # of connection points: 4
#     Node 2, Type 0, BuildingBlock: NAHDIM_clean_sbu_0, # of connection points: 4
#     Node 3, Type 0, BuildingBlock: NAHDIM_clean_sbu_0, # of connection points: 4
#     Node 4, Type 0, BuildingBlock: NAHDIM_clean_sbu_0, # of connection points: 4
#     Node 5, Type 0, BuildingBlock: NAHDIM_clean_sbu_0, # of connection points: 4
#     Node 6, Type 0, BuildingBlock: NAHDIM_clean_sbu_0, # of connection points: 4
#     Node 7, Type 0, BuildingBlock: NAHDIM_clean_sbu_0, # of connection points: 4
#     Node 8, Type 0, BuildingBlock: NAHDIM_clean_sbu_0, # of connection points: 4
#     Node 9, Type 0, BuildingBlock: NAHDIM_clean_sbu_0, # of connection points: 4
#     Node 10, Type 0, BuildingBlock: NAHDIM_clean_sbu_0, # of connection points: 4
#     Node 11, Type 0, BuildingBlock: NAHDIM_clean_sbu_0, # of connection points: 4
#     Node 12, Type 0, BuildingBlock: NAHDIM_clean_sbu_0, # of connection points: 4
#     Node 13, Type 0, BuildingBlock: NAHDIM_clean_sbu_0, # of connection points: 4
#     Node 14, Type 0, BuildingBlock: NAHDIM_clean_sbu_0, # of connection points: 4
#     Node 15, Type 0, BuildingBlock: NAHDIM_clean_sbu_0, # of connection points: 4
#     Node 16, Type 0, BuildingBlock: NAHDIM_clean_sbu_0, # of connection points: 4
#     Node 17, Type 0, BuildingBlock: NAHDIM_clean_sbu_0, # of connection points: 4
#     Edge 18, Type (0, 0), BuildingBlock: AJUNOK_clean_linker_0, # of connection points: 2
#     Edge 19, Type (0, 0), BuildingBlock: AJUNOK_clean_linker_0, # of connection points: 2
#     Edge 20, Type (0, 0), BuildingBlock: AJUNOK_clean_linker_0, # of connection points: 2
#     Edge 21, Type (0, 0), BuildingBlock: AJUNOK_clean_linker_0, # of connection points: 2
#     Edge 22, Type (0, 0), BuildingBlock: AJUNOK_clean_linker_0, # of connection points: 2
#     Edge 23, Type (0, 0), BuildingBlock: AJUNOK_clean_linker_0, # of connection points: 2
#     Edge 24, Type (0, 0), BuildingBlock: AJUNOK_clean_linker_0, # of connection points: 2
#     Edge 25, Type (0, 0), BuildingBlock: AJUNOK_clean_linker_0, # of connection points: 2
#     Edge 26, Type (0, 0), BuildingBlock: AJUNOK_clean_linker_0, # of connection points: 2
#     Edge 27, Type (0, 0), BuildingBlock: AJUNOK_clean_linker_0, # of connection points: 2
#     Edge 28, Type (0, 0), BuildingBlock: AJUNOK_clean_linker_0, # of connection points: 2
#     Edge 29, Type (0, 0), BuildingBlock: AJUNOK_clean_linker_0, # of connection points: 2
#     Edge 30, Type (0, 0), BuildingBlock: AJUNOK_clean_linker_0, # of connection points: 2
#     Edge 31, Type (0, 0), BuildingBlock: AJUNOK_clean_linker_0, # of connection points: 2
#     Edge 32, Type (0, 0), BuildingBlock: AJUNOK_clean_linker_0, # of connection points: 2
#     Edge 33, Type (0, 0), BuildingBlock: AJUNOK_clean_linker_0, # of connection points: 2
#     Edge 34, Type (0, 0), BuildingBlock: AJUNOK_clean_linker_0, # of connection points: 2
#     Edge 35, Type (0, 0), BuildingBlock: AJUNOK_clean_linker_0, # of connection points: 2
#     Edge 36, Type (0, 0), BuildingBlock: AJUNOK_clean_linker_0, # of connection points: 2
#     Edge 37, Type (0, 0), BuildingBlock: AJUNOK_clean_linker_0, # of connection points: 2
#     Edge 38, Type (0, 0), BuildingBlock: AJUNOK_clean_linker_0, # of connection points: 2
#     Edge 39, Type (0, 0), BuildingBlock: AJUNOK_clean_linker_0, # of connection points: 2
#     Edge 40, Type (0, 0), BuildingBlock: AJUNOK_clean_linker_0, # of connection points: 2
#     Edge 41, Type (0, 0), BuildingBlock: AJUNOK_clean_linker_0, # of connection points: 2
#     Edge 42, Type (0, 0), BuildingBlock: AJUNOK_clean_linker_0, # of connection points: 2
#     Edge 43, Type (0, 0), BuildingBlock: AJUNOK_clean_linker_0, # of connection points: 2
#     Edge 44, Type (0, 0), BuildingBlock: AJUNOK_clean_linker_0, # of connection points: 2
#     Edge 45, Type (0, 0), BuildingBlock: AJUNOK_clean_linker_0, # of connection points: 2
#     Edge 46, Type (0, 0), BuildingBlock: AJUNOK_clean_linker_0, # of connection points: 2
#     Edge 47, Type (0, 0), BuildingBlock: AJUNOK_clean_linker_0, # of connection points: 2
#     Edge 48, Type (0, 0), BuildingBlock: AJUNOK_clean_linker_0, # of connection points: 2
#     Edge 49, Type (0, 0), BuildingBlock: AJUNOK_clean_linker_0, # of connection points: 2
#     Edge 50, Type (0, 0), BuildingBlock: AJUNOK_clean_linker_0, # of connection points: 2
#     Edge 51, Type (0, 0), BuildingBlock: AJUNOK_clean_linker_0, # of connection points: 2
#     Edge 52, Type (0, 0), BuildingBlock: AJUNOK_clean_linker_0, # of connection points: 2
#     Edge 53, Type (0, 0), BuildingBlock: AJUNOK_clean_linker_0, # of connection points: 2
# Relax obj value: 0.223
# Max RMSD: 0.185
# Mean RMSD: 0.171
data_MOF--net-une--node1-NAHDIM_clean_sbu_0--edge1-AJUNOK_clean_linker_0
_symmetry_space_group_name_H-M    P1
_symmetry_Int_Tables_number       1
_symmetry_cell_setting            triclinic
loop_
_symmetry_equiv_pos_as_xyz
'x, y, z'
_cell_length_a     27.820212
_cell_length_b     27.675138
_cell_length_c     41.668936
_cell_angle_alpha  90.474017
_cell_angle_beta   90.071437
_cell_angle_gamma 120.54335
loop_
_atom_site_label
_atom_site_type_symbol
_atom_site_fract_x
_atom_site_fract_y
_atom_site_fract_z
_atom_type_partial_charge
C0 C 0.4628 0.02966 0.01949 0.0
O1 O 0.41938 0.01656 1.00109 0.0
O2 O 0.4018 0.11617 0.01997 0.0
Zn3 Zn 0.40119 0.06473 0.05396 0.0
O4 O 0.33306 0.98896 0.04759 0.0
C5 C 0.35666 0.10672 0.09854 0.0
O6 O 0.32297 0.09374 0.07373 0.0
O7 O 0.46693 0.05403 0.0463 0.0
C8 C 0.29125 0.95985 0.06538 0.0
O9 O 0.28766 0.97905 0.09365 0.0
C10 C 0.3644 0.10031 0.99833 0.0
O11 O 0.32419 0.04755 0.99703 0.0
O12 O 0.3975 0.09818 0.09671 0.0
C13 C 0.8441 0.19756 0.10098 0.0
O14 O 0.8423 0.17029 0.07466 0.0
O15 O 0.00082 0.29774 0.06985 0.0
Zn16 Zn 0.92608 0.29038 0.06412 0.0
O17 O 0.89439 0.24365 0.02448 0.0
C18 C 0.97006 0.39058 0.03082 0.0
O19 O 0.99211 0.3643 0.01612 0.0
O20 O 0.87621 0.25069 0.10204 0.0
C21 C 0.86495 0.24968 0.00341 0.0
O22 O 0.85096 0.28804 0.00761 0.0
C23 C 0.00497 0.25424 0.06727 0.0
O24 O 0.95912 0.20497 0.06521 0.0
O25 O 0.93821 0.36697 0.05463 0.0
C26 C 0.73448 0.66247 0.13915 0.0
O27 O 0.71516 0.69682 0.1365 0.0
O28 O 0.69674 0.70343 0.06726 0.0
Zn29 Zn 0.69344 0.63013 0.07337 0.0
O30 O 0.74223 0.62378 0.04003 0.0
C31 C 0.59321 0.57539 0.03889 0.0
O32 O 0.62355 0.62144 0.02258 0.0
O33 O 0.72593 0.62804 0.11641 0.0
C34 C 0.7566 0.65103 0.01396 0.0
O35 O 0.73885 0.68566 0.00735 0.0
C36 C 0.74174 0.75058 0.06616 0.0
O37 O 0.78919 0.75311 0.07267 0.0
O38 O 0.61404 0.56795 0.06433 0.0
C39 C 0.64329 0.84981 0.88468 0.0
O40 O 0.607 0.82116 0.90715 0.0
O41 O 0.61736 0.94752 0.94489 0.0
Zn42 Zn 0.68316 0.93996 0.93151 0.0
O43 O 0.69407 0.89618 0.96584 0.0
C44 C 0.74347 0.058 0.92184 0.0
O45 O 0.6964 0.04695 0.90806 0.0
O46 O 0.67717 0.90191 0.88903 0.0
C47 C 0.73535 0.91586 0.98513 0.0
O48 O 0.77542 0.96845 0.98276 0.0
C49 C 0.62532 0.97262 0.97189 0.0
O50 O 0.67223 0.9883 0.98735 0.0
O51 O 0.74887 0.01756 0.93139 0.0
C52 C 0.10387 0.78185 0.89547 0.0
O53 O 0.10075 0.81035 0.91993 0.0
O54 O 0.04146 0.62377 0.95391 0.0
Zn55 Zn 0.05595 0.70119 0.94316 0.0
O56 O 0.11396 0.75424 0.97429 0.0
C57 C 0.93856 0.65693 0.94456 0.0
O58 O 0.93806 0.61318 0.93171 0.0
O59 O 0.08514 0.72954 0.89877 0.0
C60 C 0.10509 0.77529 0.99917 0.0
O61 O 0.05385 0.76244 0.00596 0.0
C62 C 0.01981 0.60756 0.98153 0.0
O63 O 0.01071 0.64163 0.99915 0.0
O64 O 0.98489 0.70142 0.95007 0.0
C65 C 0.19422 0.30681 0.90777 0.0
O66 O 0.16762 0.26911 0.92996 0.0
O67 O 0.35349 0.40447 0.96562 0.0
Zn68 Zn 0.27972 0.33631 0.95368 0.0
O69 O 0.22592 0.32497 0.9888 0.0
C70 C 0.33663 0.27494 0.9439 0.0
O71 O 0.37718 0.32366 0.93401 0.0
O72 O 0.2459 0.34227 0.91199 0.0
C73 C 0.20297 0.28209 0.00666 0.0
O74 O 0.21568 0.24272 0.0031 0.0
C75 C 0.37434 0.40125 0.99218 0.0
O76 O 0.34657 0.35541 0.00916 0.0
O77 O 0.29035 0.27008 0.95186 0.0
C78 C 0.1158 0.34916 0.35057 0.0
O79 O 0.07566 0.33946 0.33023 0.0
O80 O 0.05781 0.43835 0.35303 0.0
Zn81 Zn 0.04941 0.37993 0.38431 0.0
O82 O 0.98067 0.30743 0.37236 0.0
C83 C -0.00384 0.41038 0.43032 0.0
O84 O 0.96153 0.39453 0.40579 0.0
O85 O 0.11516 0.36849 0.37834 0.0
C86 C 0.94233 0.27061 0.38976 0.0
O87 O 0.94408 0.27807 0.421 0.0
C88 C 0.02657 0.42759 0.32856 0.0
O89 O 0.98741 0.37555 0.32243 0.0
O90 O 0.04023 0.40735 0.4279 0.0
C91 C 0.58014 0.59204 0.46741 0.0
O92 O 0.63312 0.6071 0.4662 0.0
O93 O 0.66796 0.62637 0.40211 0.0
Zn94 Zn 0.6034 0.63931 0.40408 0.0
O95 O 0.55336 0.59513 0.36766 0.0
C96 C 0.67742 0.74995 0.38109 0.0
O97 O 0.71083 0.72952 0.37948 0.0
O98 O 0.55944 0.60639 0.44475 0.0
C99 C 0.57368 0.59623 0.34021 0.0
O100 O 0.62766 0.62796 0.33571 0.0
C101 C 0.66198 0.57884 0.39514 0.0
O102 O 0.61135 0.53504 0.39276 0.0
O103 O 0.6295 0.72048 0.39377 0.0
C104 C 0.39523 0.0025 0.46895 0.0
O105 O 0.38585 0.04305 0.4616 0.0
O106 O 0.36034 0.03582 0.39465 0.0
Zn107 Zn 0.34619 0.95949 0.40602 0.0
O108 O 0.38925 0.94199 0.37438 0.0
C109 C 0.22911 0.91831 0.39421 0.0
O110 O 0.2444 0.97101 0.3997 0.0
O111 O 0.37807 0.96063 0.44995 0.0
C112 C 0.39137 0.95556 0.34515 0.0
O113 O 0.3626 0.97845 0.33541 0.0
C114 C 0.40834 0.07556 0.38685 0.0
O115 O 0.45121 0.06795 0.38848 0.0
O116 O 0.2646 0.90272 0.39812 0.0
C117 C 0.32032 0.20747 0.2121 0.0
O118 O 0.27589 0.17917 0.23 0.0
O119 O 0.28934 0.29119 0.27669 0.0
Zn120 Zn 0.35834 0.28812 0.26483 0.0
O121 O 0.36647 0.24121 0.29802 0.0
C122 C 0.41853 0.4081 0.26385 0.0
O123 O 0.37026 0.40035 0.25392 0.0
O124 O 0.35875 0.25558 0.2215 0.0
C125 C 0.41282 0.24543 0.30516 0.0
O126 O 0.45792 0.28092 0.28948 0.0
C127 C 0.29113 0.30876 0.30532 0.0
O128 O 0.33494 0.32106 0.32315 0.0
O129 O 0.4239 0.36587 0.26875 0.0
C130 C 0.72834 0.08264 0.21763 0.0
O131 O 0.72032 0.11181 0.23981 0.0
O132 O 0.68722 0.94183 0.28673 0.0
Zn133 Zn 0.6933 0.01321 0.27033 0.0
O134 O 0.75206 0.07618 0.29668 0.0
C135 C 0.57568 0.96113 0.27916 0.0
O136 O 0.57823 0.91554 0.27432 0.0
O137 O 0.71709 0.03314 0.22427 0.0
C138 C 0.75135 0.08286 0.3268 0.0
O139 O 0.70732 0.04741 0.34328 0.0
C140 C 0.727 0.94192 0.30184 0.0
O141 O 0.77608 0.9881 0.30288 0.0
O142 O 0.62007 0.00877 0.27774 0.0
C143 C 0.87751 0.69111 0.24892 0.0
O144 O 0.86592 0.706 0.27653 0.0
O145 O 0.01964 0.73843 0.30491 0.0
Zn146 Zn 0.94847 0.66997 0.28941 0.0
O147 O 0.89091 0.64806 0.32359 0.0
C148 C 0.01194 0.61438 0.28179 0.0
O149 O 0.05435 0.66565 0.27868 0.0
O150 O 0.91518 0.67796 0.24804 0.0
C151 C 0.84974 0.59836 0.32575 0.0
O152 O 0.84578 0.55979 0.30555 0.0
C153 C 0.01996 0.77 0.32737 0.0
O154 O 0.97227 0.76217 0.33829 0.0
O155 O 0.96318 0.60672 0.28506 0.0
C156 C 0.74057 0.64773 0.68138 0.0
O157 O 0.69584 0.63409 0.66412 0.0
O158 O 0.69877 0.75497 0.68605 0.0
Zn159 Zn 0.69015 0.69673 0.71769 0.0
O160 O 0.61364 0.63015 0.71115 0.0
C161 C 0.65276 0.73318 0.77028 0.0
O162 O 0.60896 0.71197 0.75119 0.0
O163 O 0.748 0.67507 0.70749 0.0
C164 C 0.58334 0.59073 0.73021 0.0
O165 O 0.60247 0.58939 0.75882 0.0
C166 C 0.66769 0.74283 0.66135 0.0
O167 O 0.63034 0.69016 0.65524 0.0
O168 O 0.69533 0.73048 0.76179 0.0
C169 C 0.19947 0.88924 0.7733 0.0
O170 O 0.18952 0.85662 0.74808 0.0
O171 O 0.33662 0.96606 0.72373 0.0
Zn172 Zn 0.26648 0.96911 0.7265 0.0
O173 O 0.21195 0.91867 0.69251 0.0
C174 C 0.30906 0.06207 0.68722 0.0
O175 O 0.31312 0.02464 0.66975 0.0
O176 O 0.23153 0.94201 0.77022 0.0
C177 C 0.22477 0.89642 0.66983 0.0
O178 O 0.27612 0.90635 0.66787 0.0
C179 C 0.34421 0.92594 0.73099 0.0
O180 O 0.30291 0.87979 0.74301 0.0
O181 O 0.28893 0.04887 0.71538 0.0
C182 C 0.08406 0.30753 0.78857 0.0
O183 O 0.11591 0.33757 0.76479 0.0
O184 O 0.02187 0.36187 0.73096 0.0
Zn185 Zn 0.00652 0.28357 0.73901 0.0
O186 O 0.05107 0.26711 0.70777 0.0
C187 C 0.89348 0.24456 0.71765 0.0
O188 O 0.91019 0.29826 0.71882 0.0
O189 O 0.03155 0.27846 0.78386 0.0
C190 C 0.04667 0.27157 0.67773 0.0
O191 O 0.01145 0.28608 0.66692 0.0
C192 C 0.06416 0.39801 0.71555 0.0
O193 O 0.10254 0.38652 0.70664 0.0
O194 O 0.92582 0.22806 0.72791 0.0
C195 C 0.95384 0.50988 0.54235 0.0
O196 O 0.91423 0.47811 0.56255 0.0
O197 O 0.91594 0.58851 0.60737 0.0
Zn198 Zn 0.98744 0.59011 0.59437 0.0
O199 O 0.00263 0.54287 0.62418 0.0
C200 C 0.04774 0.71187 0.59865 0.0
O201 O -0.00044 0.70698 0.5912 0.0
O202 O 0.98785 0.56079 0.54989 0.0
C203 C 0.03105 0.56096 0.64995 0.0
O204 O 0.05126 0.61324 0.65923 0.0
C205 C 0.91614 0.60853 0.63508 0.0
O206 O 0.96092 0.62709 0.65311 0.0
O207 O 0.05194 0.66833 0.59942 0.0
C208 C 0.44555 0.42952 0.56517 0.0
O209 O 0.47121 0.42816 0.59135 0.0
O210 O 0.35895 0.28941 0.61354 0.0
Zn211 Zn 0.3547 0.35907 0.60453 0.0
O212 O 0.39427 0.41629 0.63921 0.0
C213 C 0.23588 0.28887 0.61176 0.0
O214 O 0.2485 0.2493 0.61398 0.0
O215 O 0.39267 0.39862 0.56358 0.0
C216 C 0.38609 0.41334 0.66929 0.0
O217 O 0.34578 0.36705 0.68186 0.0
C218 C 0.38485 0.28474 0.6374 0.0
O219 O 0.41794 0.32926 0.65479 0.0
O220 O 0.27426 0.33879 0.60583 0.0
C221 C 0.54631 0.02978 0.57397 0.0
O222 O 0.54357 0.05106 0.60173 0.0
O223 O 0.68506 0.06256 0.62638 0.0
Zn224 Zn 0.61061 -0.00268 0.61221 0.0
O225 O 0.55684 0.98373 0.64752 0.0
C226 C 0.66432 0.93166 0.60682 0.0
O227 O 0.70993 0.98097 0.60446 0.0
O228 O 0.57659 0.00757 0.57173 0.0
C229 C 0.53407 0.94187 0.66609 0.0
O230 O 0.54585 0.90171 0.66321 0.0
C231 C 0.68844 0.09857 0.64681 0.0
O232 O 0.64291 0.09852 0.65517 0.0
O233 O 0.61739 0.92882 0.60855 0.0
C234 C 0.49699 0.98703 0.97902 0.0
C235 C 0.50497 0.01532 0.00861 0.0
C236 C 0.53567 0.97295 0.96756 0.0
C237 C 0.58413 0.98651 0.98514 0.0
H238 H 0.46053 0.97562 0.96435 0.0
H239 H 0.52754 0.95155 0.94456 0.0
S240 S 0.62456 0.0596 0.06448 0.0
N241 N 0.56486 0.05571 0.05554 0.0
N242 N 0.63764 0.02934 0.03415 0.0
C243 C 0.59254 0.01442 0.01498 0.0
C244 C 0.553 0.02877 0.02665 0.0
C245 C 0.01643 0.46978 0.99212 0.0
C246 C 0.9813 0.44572 0.0188 0.0
C247 C 0.02801 0.52162 0.97993 0.0
C248 C 0.00524 0.55177 0.99403 0.0
H249 H 0.03545 0.44855 0.98046 0.0
H250 H 0.05569 0.5385 0.95956 0.0
S251 S 0.90834 0.50629 0.06333 0.0
N252 N 0.92222 0.45542 0.05823 0.0
N253 N 0.944 0.55281 0.03542 0.0
C254 C 0.96942 0.52797 0.02047 0.0
C255 C 0.95746 0.47502 0.03282 0.0
C256 C 0.45271 0.44018 0.03223 0.0
C257 C 0.4296 0.44706 0.00371 0.0
C258 C 0.5052 0.48195 0.04358 0.0
C259 C 0.53687 0.53246 0.02695 0.0
H260 H 0.43035 0.40199 0.04591 0.0
H261 H 0.52115 0.47426 0.0655 0.0
S262 S 0.49488 0.57207 0.95131 0.0
N263 N 0.44225 0.50888 0.95932 0.0
N264 N 0.54062 0.58736 0.98054 0.0
C265 C 0.51402 0.54019 0.99852 0.0
C266 C 0.46054 0.49755 0.98695 0.0
C267 C 0.15868 0.31651 0.30937 0.0
C268 C 0.16065 0.33818 0.34042 0.0
C269 C 0.20056 0.30663 0.29842 0.0
C270 C 0.24635 0.3179 0.318 0.0
H271 H 0.12459 0.30729 0.29312 0.0
H272 H 0.19705 0.29036 0.27425 0.0
S273 S 0.27103 0.37386 0.40168 0.0
N274 N 0.21197 0.36975 0.39084 0.0
N275 N 0.29068 0.3512 0.37043 0.0
C276 C 0.24864 0.33901 0.3493 0.0
C277 C 0.20586 0.34911 0.36045 0.0
C278 C 0.64885 0.80973 0.35146 0.0
C279 C 0.6916 0.80144 0.36305 0.0
C280 C 0.66064 0.85453 0.33114 0.0
C281 C 0.71574 0.8933 0.32193 0.0
H282 H 0.60568 0.78057 0.35738 0.0
H283 H 0.62619 0.85899 0.32284 0.0
S284 S 0.84304 0.8914 0.34656 0.0
N285 N 0.79145 0.83642 0.36433 0.0
N286 N 0.81361 0.92091 0.3265 0.0
C287 C 0.75901 0.88607 0.33381 0.0
C288 C 0.74694 0.84012 0.35426 0.0
C289 C 0.11806 0.79978 0.34303 0.0
C290 C 0.07299 0.80935 0.34412 0.0
C291 C 0.16756 0.83408 0.36017 0.0
C292 C 0.17442 0.87995 0.3787 0.0
H293 H 0.1149 0.76493 0.32921 0.0
H294 H 0.2011 0.82512 0.35831 0.0
S295 S 0.06919 0.92339 0.38939 0.0
N296 N 0.0383 0.86789 0.36542 0.0
N297 N 0.13172 0.93305 0.39714 0.0
C298 C 0.12976 0.89015 0.37993 0.0
C299 C 0.079 0.85469 0.3628 0.0
C300 C 0.874 0.64192 0.67631 0.0
C301 C 0.86907 0.61499 0.64658 0.0
C302 C 0.832 0.65138 0.68753 0.0
C303 C 0.78302 0.63431 0.66959 0.0
H304 H 0.91106 0.65669 0.69103 0.0
H305 H 0.83848 0.67297 0.71034 0.0
S306 S 0.74802 0.55965 0.59076 0.0
N307 N 0.81024 0.56969 0.59983 0.0
N308 N 0.73114 0.58722 0.62085 0.0
C309 C 0.77687 0.60621 0.64007 0.0
C310 C 0.81986 0.59665 0.62861 0.0
C311 C 0.37009 0.21954 0.68236 0.0
C312 C 0.36904 0.22831 0.64917 0.0
C313 C 0.34976 0.16554 0.69462 0.0
C314 C 0.32874 0.11855 0.67407 0.0
H315 H 0.38524 0.25443 0.69915 0.0
H316 H 0.35097 0.16067 0.72033 0.0
S317 S 0.31787 0.11908 0.58523 0.0
N318 N 0.34551 0.18556 0.59601 0.0
N319 N 0.30857 0.0843 0.61886 0.0
C320 C 0.32839 0.12688 0.64079 0.0
C321 C 0.34818 0.18168 0.62839 0.0
C322 C 0.75053 0.18528 0.67888 0.0
C323 C 0.74161 0.13553 0.66405 0.0
C324 C 0.79936 0.21978 0.69656 0.0
C325 C 0.84069 0.20529 0.70068 0.0
H326 H 0.7197 0.19797 0.67664 0.0
H327 H 0.80466 0.2581 0.70714 0.0
S328 S 0.83686 0.07843 0.66745 0.0
N329 N 0.77795 0.07302 0.65504 0.0
N330 N 0.86924 0.13736 0.68855 0.0
C331 C 0.832 0.15523 0.68631 0.0
C332 C 0.78267 0.12057 0.66788 0.0
C333 C 0.39143 0.1697 0.14698 0.0
C334 C 0.3465 0.13076 0.12784 0.0
C335 C 0.3826 0.19515 0.17382 0.0
C336 C 0.3284 0.18155 0.18293 0.0
H337 H 0.43381 0.18144 0.14083 0.0
H338 H 0.41849 0.2251 0.18782 0.0
S339 S 0.19653 0.08081 0.14131 0.0
N340 N 0.24578 0.07938 0.11997 0.0
N341 N 0.22922 0.12605 0.17087 0.0
C342 C 0.2831 0.14202 0.16428 0.0
C343 C 0.29214 0.11697 0.1366 0.0
C344 C 0.81015 0.1964 0.15671 0.0
C345 C 0.81159 0.16653 0.12963 0.0
C346 C 0.78215 0.16862 0.18464 0.0
C347 C 0.75477 0.10975 0.18687 0.0
H348 H 0.83125 0.24179 0.15655 0.0
H349 H 0.78309 0.19387 0.2049 0.0
S350 S 0.74347 0.01133 0.1223 0.0
N351 N 0.78099 0.07413 0.1064 0.0
N352 N 0.72896 0.0222 0.15913 0.0
C353 C 0.75494 0.07912 0.15984 0.0
C354 C 0.7831 0.10741 0.13119 0.0
C355 C 0.80652 0.70573 0.22061 0.0
C356 C 0.84304 0.68452 0.22009 0.0
C357 C 0.7713 0.69788 0.19452 0.0
C358 C 0.77053 0.66787 0.16692 0.0
H359 H 0.805 0.72872 0.24137 0.0
H360 H 0.74427 0.71537 0.19613 0.0
S361 S 0.85821 0.60376 0.15318 0.0
N362 N 0.87645 0.63235 0.18934 0.0
N363 N 0.81005 0.61724 0.14049 0.0
C364 C 0.80676 0.64628 0.16603 0.0
C365 C 0.84309 0.65478 0.19251 0.0
C366 C 0.59922 0.77276 0.84366 0.0
C367 C 0.64707 0.8208 0.8556 0.0
C368 C 0.60173 0.7444 0.81625 0.0
C369 C 0.65246 0.76206 0.80026 0.0
H370 H 0.55929 0.75746 0.85527 0.0
H371 H 0.56357 0.70821 0.80754 0.0
S372 S 0.79024 0.88415 0.82258 0.0
N373 N 0.74701 0.8843 0.84965 0.0
N374 N 0.75185 0.83 0.79864 0.0
C375 C 0.70088 0.80926 0.81234 0.0
C376 C 0.69813 0.83894 0.83984 0.0
C377 C 0.12081 0.77877 0.83667 0.0
C378 C 0.12874 0.8105 0.86475 0.0
C379 C 0.14341 0.80478 0.80734 0.0
C380 C 0.17528 0.86367 0.80481 0.0
H381 H 0.09662 0.73337 0.83723 0.0
H382 H 0.13588 0.77815 0.78649 0.0
S383 S 0.20979 0.96616 0.87151 0.0
N384 N 0.17163 0.90431 0.88835 0.0
N385 N 0.21419 0.95301 0.83326 0.0
C386 C 0.18383 0.89601 0.83276 0.0
C387 C 0.16055 0.86949 0.86267 0.0
C388 C 0.19515 0.34003 0.85194 0.0
C389 C 0.16457 0.30712 0.87813 0.0
C390 C 0.16854 0.33999 0.82337 0.0
C391 C 0.1101 0.30723 0.81971 0.0
H392 H 0.24022 0.36564 0.85328 0.0
H393 H 0.19437 0.3658 0.8039 0.0
S394 S 0.01021 0.21564 0.88171 0.0
N395 N 0.07209 0.24216 0.899 0.0
N396 N 0.02221 0.24225 0.84531 0.0
C397 C 0.07879 0.27478 0.8459 0.0
C398 C 0.10596 0.27467 0.87505 0.0
C399 C 0.02873 0.47844 0.4765 0.0
C400 C 0.9847 0.43393 0.45939 0.0
C401 C 0.01823 0.50387 0.50274 0.0
C402 C 0.96341 0.48475 0.5133 0.0
H403 H 0.07153 0.49455 0.46916 0.0
H404 H 0.05343 0.53807 0.51522 0.0
S405 S 0.83369 0.36852 0.47715 0.0
N406 N 0.88425 0.37167 0.45488 0.0
N407 N 0.86475 0.41819 0.5048 0.0
C408 C 0.91913 0.43976 0.49667 0.0
C409 C 0.92972 0.41471 0.46955 0.0
C410 C 0.56885 0.54219 0.51904 0.0
C411 C 0.54402 0.5526 0.49261 0.0
C412 C 0.5366 0.50206 0.542 0.0
C413 C 0.478 0.47019 0.53953 0.0
H414 H 0.61379 0.56498 0.52203 0.0
H415 H 0.55813 0.496 0.56184 0.0
S416 S 0.39199 0.48102 0.47487 0.0
N417 N 0.45686 0.52769 0.46531 0.0
N418 N 0.39626 0.45215 0.50845 0.0
C419 C 0.45241 0.48024 0.51328 0.0
C420 C 0.48535 0.52149 0.48991 0.0
C421 C 0.49745 0.98631 0.52193 0.0
C422 C 0.50902 0.02513 0.54704 0.0
C423 C 0.45951 0.97823 0.49735 0.0
C424 C 0.43201 0.00915 0.49658 0.0
H425 H 0.51723 0.9612 0.52143 0.0
H426 H 0.45241 0.94806 0.47852 0.0
S427 S 0.44766 0.11632 0.55653 0.0
N428 N 0.48969 0.09488 0.56959 0.0
N429 N 0.41893 0.08012 0.52326 0.0
C430 C 0.44332 0.04829 0.52145 0.0
C431 C 0.48162 0.05617 0.54668 0.0
C432 C 0.18913 0.89107 0.0601 0.0
C433 C 0.24437 0.90758 0.05205 0.0
C434 C 0.14407 0.8468 0.04363 0.0
C435 C 0.1528 0.81741 0.01873 0.0
H436 H 0.18066 0.9142 0.0781 0.0
H437 H 0.10223 0.83696 0.04976 0.0
S438 S 0.29004 0.83952 0.99214 0.0
N439 N 0.30555 0.88776 0.02018 0.0
N440 N 0.22131 0.80441 0.98941 0.0
C441 C 0.20801 0.83142 0.01197 0.0
C442 C 0.25367 0.87657 0.02859 0.0
C443 C 0.10456 0.31414 0.05151 0.0
C444 C 0.05945 0.26049 0.05859 0.0
C445 C 0.15229 0.32078 0.03636 0.0
C446 C 0.15716 0.27414 0.028 0.0
H447 H 0.10188 0.35133 0.05591 0.0
H448 H 0.18461 0.36276 0.02993 0.0
S449 S 0.05511 0.12528 0.0462 0.0
N450 N 0.02572 0.16029 0.05979 0.0
N451 N 0.11588 0.17292 0.03143 0.0
C452 C 0.11464 0.22062 0.03746 0.0
C453 C 0.06566 0.21376 0.05274 0.0
C454 C 0.69037 0.78866 0.03683 0.0
C455 C 0.74081 0.79785 0.05031 0.0
C456 C 0.68905 0.828 0.01668 0.0
C457 C 0.73795 0.87857 0.0094 0.0
H458 H 0.65163 0.74961 0.04061 0.0
H459 H 0.64937 0.81788 0.0061 0.0
S460 S 0.87969 0.92672 0.04192 0.0
N461 N 0.84022 0.86389 0.05744 0.0
N462 N 0.83753 0.9384 0.01968 0.0
C463 C 0.78813 0.89023 0.0244 0.0
C464 C 0.78961 0.84975 0.04482 0.0
C465 C 0.76148 0.15095 0.94165 0.0
C466 C 0.78171 0.1145 0.93509 0.0
C467 C 0.79074 0.19738 0.96216 0.0
C468 C 0.84107 0.20873 0.97672 0.0
H469 H 0.72082 0.14132 0.93294 0.0
H470 H 0.77183 0.22209 0.96831 0.0
S471 S 0.91796 0.13381 0.9612 0.0
N472 N 0.85957 0.09844 0.94024 0.0
N473 N 0.91471 0.18579 0.97872 0.0
C474 C 0.86449 0.17603 0.96768 0.0
C475 C 0.83476 0.12888 0.94682 0.0
C476 C 0.83539 0.69625 0.97544 0.0
C477 C 0.79826 0.64876 0.99318 0.0
C478 C 0.87976 0.69786 0.95868 0.0
C479 C 0.88749 0.65151 0.95838 0.0
H480 H 0.8318 0.73344 0.97571 0.0
H481 H 0.90895 0.73608 0.94647 0.0
S482 S 0.79973 0.51584 0.99922 0.0
N483 N 0.77068 0.55342 0.00831 0.0
N484 N 0.85338 0.55604 0.97612 0.0
C485 C 0.84916 0.60281 0.97473 0.0
C486 C 0.80469 0.60156 0.99234 0.0
C487 C 0.30155 0.17404 0.95444 0.0
C488 C 0.34703 0.22906 0.95165 0.0
C489 C 0.30832 0.13148 0.96755 0.0
C490 C 0.36067 0.14267 0.97888 0.0
H491 H 0.25992 0.16426 0.94766 0.0
H492 H 0.27157 0.09043 0.97056 0.0
S493 S 0.49431 0.27802 0.97344 0.0
N494 N 0.44728 0.2911 0.95827 0.0
N495 N 0.45983 0.21114 0.98338 0.0
C496 C 0.40715 0.19656 0.97431 0.0
C497 C 0.40039 0.23976 0.96053 0.0
C498 C 0.84385 0.18964 0.39022 0.0
C499 C 0.89498 0.22092 0.3742 0.0
C500 C 0.7976 0.14465 0.37489 0.0
C501 C 0.80091 0.12938 0.34301 0.0
H502 H 0.83907 0.20069 0.41452 0.0
H503 H 0.75879 0.12233 0.38796 0.0
S504 S 0.92722 0.19452 0.29163 0.0
N505 N 0.94734 0.23095 0.32547 0.0
N506 N 0.86091 0.14692 0.29674 0.0
C507 C 0.85241 0.15936 0.32709 0.0
C508 C 0.8993 0.20496 0.34267 0.0
C509 C 0.80955 0.62983 0.36881 0.0
C510 C 0.80353 0.58701 0.34781 0.0
C511 C 0.76417 0.62482 0.38595 0.0
C512 C 0.71081 0.57681 0.38282 0.0
H513 H 0.84905 0.66882 0.37101 0.0
H514 H 0.77058 0.66024 0.40053 0.0
S515 S 0.67485 0.4485 0.33536 0.0
N516 N 0.74166 0.49179 0.32811 0.0
N517 N 0.65607 0.48243 0.36037 0.0
C518 C 0.70513 0.53159 0.36409 0.0
C519 C 0.75158 0.53672 0.34655 0.0
C520 C 0.45894 0.19671 0.32928 0.0
C521 C 0.41473 0.20757 0.32929 0.0
C522 C 0.45819 0.156 0.34939 0.0
C523 C 0.41325 0.12482 0.37023 0.0
H524 H 0.49322 0.21799 0.31266 0.0
H525 H 0.49178 0.14712 0.34739 0.0
S526 S 0.29187 0.14385 0.38317 0.0
N527 N 0.32811 0.18863 0.35463 0.0
N528 N 0.3268 0.11228 0.3924 0.0
C529 C 0.37066 0.13793 0.37198 0.0
C530 C 0.37136 0.17924 0.35149 0.0
C531 C 0.4812 0.54031 0.31364 0.0
C532 C 0.53763 0.55561 0.31553 0.0
C533 C 0.4435 0.49502 0.29445 0.0
C534 C 0.46086 0.46278 0.27721 0.0
H535 H 0.46564 0.56215 0.32806 0.0
H536 H 0.39984 0.48289 0.29496 0.0
S537 S 0.60508 0.48885 0.2717 0.0
N538 N 0.61015 0.53828 0.29637 0.0
N539 N 0.53867 0.45179 0.26099 0.0
C540 C 0.51771 0.4795 0.27749 0.0
C541 C 0.55636 0.5264 0.29648 0.0
C542 C 0.48813 0.91083 0.31063 0.0
C543 C 0.5241 0.95687 0.29158 0.0
C544 C 0.44366 0.90967 0.32696 0.0
C545 C 0.43276 0.95374 0.32407 0.0
H546 H 0.49609 0.87681 0.31438 0.0
H547 H 0.4185 0.87475 0.34263 0.0
S548 S 0.51146 0.0814 0.27487 0.0
N549 N 0.54402 0.04606 0.26924 0.0
N550 N 0.45921 0.04304 0.29928 0.0
C551 C 0.46634 -0.00155 0.30364 0.0
C552 C 0.51242 0.00026 0.28756 0.0
C553 C 0.97526 0.51165 0.28475 0.0
C554 C 0.0208 0.56683 0.28749 0.0
C555 C 0.97881 0.4661 0.29604 0.0
C556 C 0.02777 0.4742 0.31089 0.0
H557 H 0.93568 0.50376 0.27513 0.0
H558 H 0.94173 0.42478 0.29488 0.0
S559 S 0.16147 0.6091 0.31958 0.0
N560 N 0.11854 0.62618 0.30263 0.0
N561 N 0.1249 0.54043 0.32422 0.0
C562 C 0.07492 0.52855 0.31162 0.0
C563 C 0.07153 0.57493 0.29976 0.0
C564 C 0.45648 0.5136 0.67679 0.0
C565 C 0.42848 0.45927 0.68944 0.0
C566 C 0.50482 0.55634 0.6913 0.0
C567 C 0.5275 0.54644 0.71895 0.0
H568 H 0.44225 0.52264 0.65464 0.0
H569 H 0.52566 0.59699 0.6799 0.0
S570 S 0.46667 0.41248 0.76334 0.0
N571 N 0.42382 0.39851 0.73262 0.0
N572 N 0.51543 0.47925 0.76009 0.0
C573 C 0.49784 0.4932 0.73316 0.0
C574 C 0.44809 0.44947 0.71834 0.0
C575 C 0.48714 0.98501 0.69504 0.0
C576 C 0.49034 0.93691 0.68819 0.0
C577 C 0.44128 0.98119 0.71094 0.0
C578 C 0.39654 0.92908 0.7206 0.0
H579 H 0.51927 0.02592 0.68689 0.0
H580 H 0.43989 0.01932 0.71434 0.0
S581 S 0.38823 0.79134 0.71249 0.0
N582 N 0.44791 0.83621 0.69542 0.0
N583 N 0.36111 0.82891 0.72538 0.0
C584 C 0.40113 0.88109 0.71622 0.0
C585 C 0.44821 0.88504 0.69998 0.0
C586 C 0.07507 0.45592 0.66811 0.0
C587 C 0.06233 0.44508 0.70083 0.0
C588 C 0.06522 0.4941 0.65188 0.0
C589 C 0.04405 0.52389 0.66812 0.0
H590 H 0.09017 0.4328 0.65456 0.0
H591 H 0.07373 0.49999 0.62639 0.0
S592 S 0.00769 0.51363 0.75421 0.0
N593 N 0.02907 0.46824 0.74914 0.0
N594 N 0.01324 0.54249 0.71881 0.0
C595 C 0.03365 0.51553 0.70112 0.0
C596 C 0.04207 0.47535 0.71746 0.0
C597 C 0.19082 0.81712 0.63062 0.0
C598 C 0.18105 0.85506 0.64795 0.0
C599 C 0.14801 0.77267 0.61316 0.0
C600 C 0.09398 0.76485 0.612 0.0
H601 H 0.23113 0.82003 0.6317 0.0
H602 H 0.15689 0.743 0.60142 0.0
S603 S 0.04845 0.85671 0.64991 0.0
N604 N 0.11467 0.8851 0.66045 0.0
N605 N 0.03419 0.80158 0.6274 0.0
C606 C 0.08452 0.80463 0.62742 0.0
C607 C 0.12805 0.84968 0.64551 0.0
C608 C 0.10786 0.23368 0.66346 0.0
C609 C 0.0877 0.2697 0.65626 0.0
C610 C 0.15346 0.23745 0.64708 0.0
C611 C 0.18142 0.27841 0.62351 0.0
H612 H 0.08948 0.20365 0.68269 0.0
H613 H 0.16896 0.21035 0.65444 0.0
S614 S 0.14168 0.37933 0.59376 0.0
N615 N 0.09576 0.34423 0.62206 0.0
N616 N 0.18289 0.3526 0.59189 0.0
C617 C 0.15985 0.31273 0.61489 0.0
C618 C 0.11254 0.30801 0.63111 0.0
C619 C 0.71617 0.84283 0.64436 0.0
C620 C 0.66918 0.78843 0.64233 0.0
C621 C 0.71575 0.8886 0.63063 0.0
C622 C 0.66798 0.88174 0.6148 0.0
H623 H 0.75294 0.85052 0.65765 0.0
H624 H 0.75196 0.93003 0.63418 0.0
S625 S 0.5365 0.74726 0.59945 0.0
N626 N 0.57554 0.72957 0.62039 0.0
N627 N 0.57456 0.8159 0.59505 0.0
C628 C 0.62198 0.82719 0.61086 0.0
C629 C 0.62265 0.78042 0.62448 0.0
loop_
_geom_bond_atom_site_label_1
_geom_bond_atom_site_label_2
_geom_bond_distance
_geom_bond_site_symmetry_2
_ccdc_geom_bond_type
C0 O1 1.160 . S
C0 O7 1.185 . S
O1 C0 1.160 . S
O2 Zn3 1.899 . S
O2 C10 1.284 . S
Zn3 O2 1.899 . S
Zn3 O4 2.032 1_545 S
Zn3 O7 2.086 . S
Zn3 O12 1.977 . S
O4 Zn3 2.032 1_565 S
O4 C8 1.278 . S
C5 O6 1.203 . S
C5 O12 1.267 . S
O6 C5 1.203 . S
O7 C0 1.185 . S
O7 Zn3 2.086 . S
C8 O4 1.278 . S
C8 O9 1.211 . S
O9 C8 1.211 . S
C10 O2 1.284 . S
C10 O11 1.273 . S
O11 C10 1.273 . S
O12 Zn3 1.977 . S
O12 C5 1.267 . S
C13 O14 1.160 . S
C13 O20 1.185 . S
O14 C13 1.160 . S
O15 Zn16 1.899 1_455 S
O15 C23 1.284 . S
Zn16 O15 1.899 1_655 S
Zn16 O17 2.032 . S
Zn16 O20 2.086 . S
Zn16 O25 1.977 . S
O17 Zn16 2.032 . S
O17 C21 1.278 . S
C18 O19 1.203 1_655 S
C18 O25 1.267 . S
O19 C18 1.203 1_455 S
O20 C13 1.185 . S
O20 Zn16 2.086 . S
C21 O17 1.278 . S
C21 O22 1.211 1_554 S
O22 C21 1.211 1_556 S
C23 O15 1.284 . S
C23 O24 1.273 . S
O24 C23 1.273 . S
O25 Zn16 1.977 . S
O25 C18 1.267 . S
C26 O27 1.160 . S
C26 O33 1.185 . S
O27 C26 1.160 . S
O28 Zn29 1.899 . S
O28 C36 1.284 . S
Zn29 O28 1.899 . S
Zn29 O30 2.032 . S
Zn29 O33 2.086 . S
Zn29 O38 1.977 . S
O30 Zn29 2.032 . S
O30 C34 1.278 . S
C31 O32 1.203 . S
C31 O38 1.267 . S
O32 C31 1.203 . S
O33 C26 1.185 . S
O33 Zn29 2.086 . S
C34 O30 1.278 . S
C34 O35 1.211 1_554 S
O35 C34 1.211 1_556 S
C36 O28 1.284 . S
C36 O37 1.273 . S
O37 C36 1.273 . S
O38 Zn29 1.977 . S
O38 C31 1.267 . S
C39 O40 1.160 . S
C39 O46 1.185 . S
O40 C39 1.160 . S
O41 Zn42 1.899 . S
O41 C49 1.284 . S
Zn42 O41 1.899 . S
Zn42 O43 2.032 . S
Zn42 O46 2.086 . S
Zn42 O51 1.977 1_565 S
O43 Zn42 2.032 . S
O43 C47 1.278 . S
C44 O45 1.203 . S
C44 O51 1.267 . S
O45 C44 1.203 . S
O46 C39 1.185 . S
O46 Zn42 2.086 . S
C47 O43 1.278 . S
C47 O48 1.199 1_556 S
O48 C47 1.199 1_554 S
C49 O41 1.284 . S
C49 O50 1.273 . S
O50 C49 1.273 . S
O51 Zn42 1.977 1_545 S
O51 C44 1.267 . S
C52 O53 1.160 . S
C52 O59 1.185 . S
O53 C52 1.160 . S
O54 Zn55 1.899 . S
O54 C62 1.284 . S
Zn55 O54 1.899 . S
Zn55 O56 2.032 . S
Zn55 O59 2.086 . S
Zn55 O64 1.977 1_455 S
O56 Zn55 2.032 . S
O56 C60 1.278 . S
C57 O58 1.203 . S
C57 O64 1.267 . S
O58 C57 1.203 . S
O59 C52 1.185 . S
O59 Zn55 2.086 . S
C60 O56 1.278 . S
C60 O61 1.211 1_556 S
O61 C60 1.211 1_554 S
C62 O54 1.284 . S
C62 O63 1.273 . S
O63 C62 1.273 . S
O64 Zn55 1.977 1_655 S
O64 C57 1.267 . S
C65 O66 1.160 . S
C65 O72 1.185 . S
O66 C65 1.160 . S
O67 Zn68 1.899 . S
O67 C75 1.284 . S
Zn68 O67 1.899 . S
Zn68 O69 2.032 . S
Zn68 O72 2.086 . S
Zn68 O77 1.977 . S
O69 Zn68 2.032 . S
O69 C73 1.278 . S
C70 O71 1.203 . S
C70 O77 1.267 . S
O71 C70 1.203 . S
O72 C65 1.185 . S
O72 Zn68 2.086 . S
C73 O69 1.278 . S
C73 O74 1.211 1_556 S
O74 C73 1.211 1_554 S
C75 O67 1.284 . S
C75 O76 1.273 . S
O76 C75 1.273 . S
O77 Zn68 1.977 . S
O77 C70 1.267 . S
C78 O79 1.160 . S
C78 O85 1.185 . S
O79 C78 1.160 . S
O80 Zn81 1.899 . S
O80 C88 1.284 1_455 S
Zn81 O80 1.899 . S
Zn81 O82 2.032 1_455 S
Zn81 O85 2.086 . S
Zn81 O90 1.977 . S
O82 Zn81 2.032 1_655 S
O82 C86 1.278 . S
C83 O84 1.203 . S
C83 O90 1.267 1_655 S
O84 C83 1.203 . S
O85 C78 1.185 . S
O85 Zn81 2.086 . S
C86 O82 1.278 . S
C86 O87 1.211 . S
O87 C86 1.211 . S
C88 O80 1.284 1_655 S
C88 O89 1.273 . S
O89 C88 1.273 . S
O90 Zn81 1.977 . S
O90 C83 1.267 1_455 S
C91 O92 1.160 . S
C91 O98 1.185 . S
O92 C91 1.160 . S
O93 Zn94 1.899 . S
O93 C101 1.284 . S
Zn94 O93 1.899 . S
Zn94 O95 2.032 . S
Zn94 O98 2.086 . S
Zn94 O103 1.977 . S
O95 Zn94 2.032 . S
O95 C99 1.278 . S
C96 O97 1.203 . S
C96 O103 1.267 . S
O97 C96 1.203 . S
O98 C91 1.185 . S
O98 Zn94 2.086 . S
C99 O95 1.278 . S
C99 O100 1.211 . S
O100 C99 1.211 . S
C101 O93 1.284 . S
C101 O102 1.273 . S
O102 C101 1.273 . S
O103 Zn94 1.977 . S
O103 C96 1.267 . S
C104 O105 1.160 . S
C104 O111 1.185 1_545 S
O105 C104 1.160 . S
O106 Zn107 1.899 1_545 S
O106 C114 1.284 . S
Zn107 O106 1.899 1_565 S
Zn107 O108 2.032 1_565 S
Zn107 O111 2.086 . S
Zn107 O116 1.977 . S
O108 Zn107 2.032 1_545 S
O108 C112 1.278 1_545 S
C109 O110 1.203 . S
C109 O116 1.267 . S
O110 C109 1.203 . S
O111 C104 1.185 1_565 S
O111 Zn107 2.086 . S
C112 O108 1.278 1_565 S
C112 O113 1.211 . S
O113 C112 1.211 . S
C114 O106 1.284 . S
C114 O115 1.273 . S
O115 C114 1.273 . S
O116 Zn107 1.977 . S
O116 C109 1.267 . S
C117 O118 1.160 . S
C117 O124 1.185 . S
O118 C117 1.160 . S
O119 Zn120 1.899 . S
O119 C127 1.284 . S
Zn120 O119 1.899 . S
Zn120 O121 2.032 . S
Zn120 O124 2.086 . S
Zn120 O129 1.977 . S
O121 Zn120 2.032 . S
O121 C125 1.278 . S
C122 O123 1.203 . S
C122 O129 1.267 . S
O123 C122 1.203 . S
O124 C117 1.185 . S
O124 Zn120 2.086 . S
C125 O121 1.278 . S
C125 O126 1.211 . S
O126 C125 1.211 . S
C127 O119 1.284 . S
C127 O128 1.273 . S
O128 C127 1.273 . S
O129 Zn120 1.977 . S
O129 C122 1.267 . S
C130 O131 1.160 . S
C130 O137 1.185 . S
O131 C130 1.160 . S
O132 Zn133 1.899 1_565 S
O132 C140 1.284 . S
Zn133 O132 1.899 1_545 S
Zn133 O134 2.032 . S
Zn133 O137 2.086 . S
Zn133 O142 1.977 . S
O134 Zn133 2.032 . S
O134 C138 1.278 . S
C135 O136 1.203 1_545 S
C135 O142 1.267 . S
O136 C135 1.203 1_565 S
O137 C130 1.185 . S
O137 Zn133 2.086 . S
C138 O134 1.278 . S
C138 O139 1.211 . S
O139 C138 1.211 . S
C140 O132 1.284 . S
C140 O141 1.273 . S
O141 C140 1.273 . S
O142 Zn133 1.977 . S
O142 C135 1.267 . S
C143 O144 1.160 . S
C143 O150 1.185 . S
O144 C143 1.160 . S
O145 Zn146 1.899 1_455 S
O145 C153 1.284 . S
Zn146 O145 1.899 1_655 S
Zn146 O147 2.032 . S
Zn146 O150 2.086 . S
Zn146 O155 1.977 . S
O147 Zn146 2.032 . S
O147 C151 1.278 . S
C148 O149 1.203 1_655 S
C148 O155 1.267 . S
O149 C148 1.203 1_455 S
O150 C143 1.185 . S
O150 Zn146 2.086 . S
C151 O147 1.278 . S
C151 O152 1.211 . S
O152 C151 1.211 . S
C153 O145 1.284 . S
C153 O154 1.273 . S
O154 C153 1.273 . S
O155 Zn146 1.977 . S
O155 C148 1.267 . S
C156 O157 1.160 . S
C156 O163 1.185 . S
O157 C156 1.160 . S
O158 Zn159 1.899 . S
O158 C166 1.284 . S
Zn159 O158 1.899 . S
Zn159 O160 2.032 . S
Zn159 O163 2.086 . S
Zn159 O168 1.977 . S
O160 Zn159 2.032 . S
O160 C164 1.278 . S
C161 O162 1.203 . S
C161 O168 1.267 . S
O162 C161 1.203 . S
O163 C156 1.185 . S
O163 Zn159 2.086 . S
C164 O160 1.278 . S
C164 O165 1.211 . S
O165 C164 1.211 . S
C166 O158 1.284 . S
C166 O167 1.273 . S
O167 C166 1.273 . S
O168 Zn159 1.977 . S
O168 C161 1.267 . S
C169 O170 1.160 . S
C169 O176 1.185 . S
O170 C169 1.160 . S
O171 Zn172 1.899 . S
O171 C179 1.284 . S
Zn172 O171 1.899 . S
Zn172 O173 2.032 . S
Zn172 O176 2.086 . S
Zn172 O181 1.977 1_565 S
O173 Zn172 2.032 . S
O173 C177 1.278 . S
C174 O175 1.203 . S
C174 O181 1.267 . S
O175 C174 1.203 . S
O176 C169 1.185 . S
O176 Zn172 2.086 . S
C177 O173 1.278 . S
C177 O178 1.211 . S
O178 C177 1.211 . S
C179 O171 1.284 . S
C179 O180 1.273 . S
O180 C179 1.273 . S
O181 Zn172 1.977 1_545 S
O181 C174 1.267 . S
C182 O183 1.160 . S
C182 O189 1.185 . S
O183 C182 1.160 . S
O184 Zn185 1.899 . S
O184 C192 1.284 . S
Zn185 O184 1.899 . S
Zn185 O186 2.032 . S
Zn185 O189 2.086 . S
Zn185 O194 1.977 1_455 S
O186 Zn185 2.032 . S
O186 C190 1.278 . S
C187 O188 1.203 . S
C187 O194 1.267 . S
O188 C187 1.203 . S
O189 C182 1.185 . S
O189 Zn185 2.086 . S
C190 O186 1.278 . S
C190 O191 1.211 . S
O191 C190 1.211 . S
C192 O184 1.284 . S
C192 O193 1.273 . S
O193 C192 1.273 . S
O194 Zn185 1.977 1_655 S
O194 C187 1.267 . S
C195 O196 1.160 . S
C195 O202 1.185 1_655 S
O196 C195 1.160 . S
O197 Zn198 1.899 1_655 S
O197 C205 1.284 . S
Zn198 O197 1.899 1_455 S
Zn198 O199 2.032 1_455 S
Zn198 O202 2.086 . S
Zn198 O207 1.977 . S
O199 Zn198 2.032 1_655 S
O199 C203 1.278 1_655 S
C200 O201 1.203 . S
C200 O207 1.267 . S
O201 C200 1.203 . S
O202 C195 1.185 1_455 S
O202 Zn198 2.086 . S
C203 O199 1.278 1_455 S
C203 O204 1.211 . S
O204 C203 1.211 . S
C205 O197 1.284 . S
C205 O206 1.273 . S
O206 C205 1.273 . S
O207 Zn198 1.977 . S
O207 C200 1.267 . S
C208 O209 1.160 . S
C208 O215 1.185 . S
O209 C208 1.160 . S
O210 Zn211 1.899 . S
O210 C218 1.284 . S
Zn211 O210 1.899 . S
Zn211 O212 2.032 . S
Zn211 O215 2.086 . S
Zn211 O220 1.977 . S
O212 Zn211 2.032 . S
O212 C216 1.278 . S
C213 O214 1.203 . S
C213 O220 1.267 . S
O214 C213 1.203 . S
O215 C208 1.185 . S
O215 Zn211 2.086 . S
C216 O212 1.278 . S
C216 O217 1.211 . S
O217 C216 1.211 . S
C218 O210 1.284 . S
C218 O219 1.273 . S
O219 C218 1.273 . S
O220 Zn211 1.977 . S
O220 C213 1.267 . S
C221 O222 1.160 . S
C221 O228 1.185 1_545 S
O222 C221 1.160 . S
O223 Zn224 1.899 1_545 S
O223 C231 1.284 . S
Zn224 O223 1.899 1_565 S
Zn224 O225 2.032 1_565 S
Zn224 O228 2.086 . S
Zn224 O233 1.977 . S
O225 Zn224 2.032 1_545 S
O225 C229 1.278 1_545 S
C226 O227 1.203 . S
C226 O233 1.267 . S
O227 C226 1.203 . S
O228 C221 1.185 1_565 S
O228 Zn224 2.086 . S
C229 O225 1.278 1_565 S
C229 O230 1.211 . S
O230 C229 1.211 . S
C231 O223 1.284 . S
C231 O232 1.273 . S
O232 C231 1.273 . S
O233 Zn224 1.977 . S
O233 C226 1.267 . S
C234 C235 1.374 1_556 S
C234 C236 1.419 . S
C234 H238 0.930 . S
C235 C234 1.374 1_554 S
C235 C244 1.412 1_545 S
C236 C234 1.419 . S
C236 C237 1.363 1_545 S
C236 H239 0.929 . S
C237 C236 1.363 1_565 S
C237 C243 1.428 . S
H238 C234 0.930 . S
H239 C236 0.929 . S
S240 N241 1.613 . S
S240 N242 1.610 1_554 S
N241 S240 1.613 . S
N241 C244 1.350 . S
N242 S240 1.610 1_556 S
N242 C243 1.351 . S
C243 C237 1.428 . S
C243 N242 1.351 . S
C243 C244 1.434 1_556 S
C244 C235 1.412 1_565 S
C244 N241 1.350 . S
C244 C243 1.434 1_554 S
C245 C246 1.369 1_556 S
C245 C247 1.419 . S
C245 H249 0.930 . S
C246 C245 1.369 1_554 S
C246 C255 1.429 1_655 S
C247 C245 1.419 . S
C247 C248 1.363 1_655 S
C247 H250 0.929 . S
C248 C247 1.363 1_455 S
C248 C254 1.428 1_556 S
H249 C245 0.930 . S
H250 C247 0.929 . S
S251 N252 1.613 . S
S251 N253 1.610 . S
N252 S251 1.613 . S
N252 C255 1.350 . S
N253 S251 1.610 . S
N253 C254 1.351 . S
C254 C248 1.428 1_554 S
C254 N253 1.351 . S
C254 C255 1.434 . S
C255 C246 1.429 1_455 S
C255 N252 1.350 . S
C255 C254 1.434 . S
C256 C257 1.369 1_554 S
C256 C258 1.419 . S
C256 H260 0.930 . S
C257 C256 1.369 1_556 S
C257 C266 1.429 . S
C258 C256 1.419 . S
C258 C259 1.363 . S
C258 H261 0.929 . S
C259 C258 1.363 . S
C259 C265 1.428 1_554 S
H260 C256 0.930 . S
H261 C258 0.929 . S
S262 N263 1.613 . S
S262 N264 1.610 . S
N263 S262 1.613 . S
N263 C266 1.350 . S
N264 S262 1.610 . S
N264 C265 1.351 . S
C265 C259 1.428 1_556 S
C265 N264 1.351 . S
C265 C266 1.434 . S
C266 C257 1.429 . S
C266 N263 1.350 . S
C266 C265 1.434 . S
C267 C268 1.369 . S
C267 C269 1.419 . S
C267 H271 0.930 . S
C268 C267 1.369 . S
C268 C277 1.429 . S
C269 C267 1.419 . S
C269 C270 1.363 . S
C269 H272 0.929 . S
C270 C269 1.363 . S
C270 C276 1.428 . S
H271 C267 0.930 . S
H272 C269 0.929 . S
S273 N274 1.613 . S
S273 N275 1.610 . S
N274 S273 1.613 . S
N274 C277 1.350 . S
N275 S273 1.610 . S
N275 C276 1.351 . S
C276 C270 1.428 . S
C276 N275 1.351 . S
C276 C277 1.434 . S
C277 C268 1.429 . S
C277 N274 1.350 . S
C277 C276 1.434 . S
C278 C279 1.369 . S
C278 C280 1.419 . S
C278 H282 0.930 . S
C279 C278 1.369 . S
C279 C288 1.429 . S
C280 C278 1.419 . S
C280 C281 1.363 . S
C280 H283 0.929 . S
C281 C280 1.363 . S
C281 C287 1.428 . S
H282 C278 0.930 . S
H283 C280 0.929 . S
S284 N285 1.613 . S
S284 N286 1.610 . S
N285 S284 1.613 . S
N285 C288 1.350 . S
N286 S284 1.610 . S
N286 C287 1.351 . S
C287 C281 1.428 . S
C287 N286 1.351 . S
C287 C288 1.434 . S
C288 C279 1.429 . S
C288 N285 1.350 . S
C288 C287 1.434 . S
C289 C290 1.369 . S
C289 C291 1.419 . S
C289 H293 0.930 . S
C290 C289 1.369 . S
C290 C299 1.429 . S
C291 C289 1.419 . S
C291 C292 1.363 . S
C291 H294 0.929 . S
C292 C291 1.363 . S
C292 C298 1.428 . S
H293 C289 0.930 . S
H294 C291 0.929 . S
S295 N296 1.613 . S
S295 N297 1.610 . S
N296 S295 1.613 . S
N296 C299 1.350 . S
N297 S295 1.610 . S
N297 C298 1.351 . S
C298 C292 1.428 . S
C298 N297 1.351 . S
C298 C299 1.434 . S
C299 C290 1.429 . S
C299 N296 1.350 . S
C299 C298 1.434 . S
C300 C301 1.369 . S
C300 C302 1.419 . S
C300 H304 0.930 . S
C301 C300 1.369 . S
C301 C310 1.429 . S
C302 C300 1.419 . S
C302 C303 1.363 . S
C302 H305 0.929 . S
C303 C302 1.363 . S
C303 C309 1.428 . S
H304 C300 0.930 . S
H305 C302 0.929 . S
S306 N307 1.613 . S
S306 N308 1.610 . S
N307 S306 1.613 . S
N307 C310 1.350 . S
N308 S306 1.610 . S
N308 C309 1.351 . S
C309 C303 1.428 . S
C309 N308 1.351 . S
C309 C310 1.434 . S
C310 C301 1.429 . S
C310 N307 1.350 . S
C310 C309 1.434 . S
C311 C312 1.369 . S
C311 C313 1.419 . S
C311 H315 0.930 . S
C312 C311 1.369 . S
C312 C321 1.429 . S
C313 C311 1.419 . S
C313 C314 1.363 . S
C313 H316 0.929 . S
C314 C313 1.363 . S
C314 C320 1.428 . S
H315 C311 0.930 . S
H316 C313 0.929 . S
S317 N318 1.613 . S
S317 N319 1.610 . S
N318 S317 1.613 . S
N318 C321 1.350 . S
N319 S317 1.610 . S
N319 C320 1.351 . S
C320 C314 1.428 . S
C320 N319 1.351 . S
C320 C321 1.434 . S
C321 C312 1.429 . S
C321 N318 1.350 . S
C321 C320 1.434 . S
C322 C323 1.369 . S
C322 C324 1.419 . S
C322 H326 0.930 . S
C323 C322 1.369 . S
C323 C332 1.429 . S
C324 C322 1.419 . S
C324 C325 1.363 . S
C324 H327 0.929 . S
C325 C324 1.363 . S
C325 C331 1.428 . S
H326 C322 0.930 . S
H327 C324 0.929 . S
S328 N329 1.613 . S
S328 N330 1.610 . S
N329 S328 1.613 . S
N329 C332 1.350 . S
N330 S328 1.610 . S
N330 C331 1.351 . S
C331 C325 1.428 . S
C331 N330 1.351 . S
C331 C332 1.434 . S
C332 C323 1.429 . S
C332 N329 1.350 . S
C332 C331 1.434 . S
C333 C334 1.369 . S
C333 C335 1.419 . S
C333 H337 0.930 . S
C334 C333 1.369 . S
C334 C343 1.429 . S
C335 C333 1.419 . S
C335 C336 1.363 . S
C335 H338 0.929 . S
C336 C335 1.363 . S
C336 C342 1.428 . S
H337 C333 0.930 . S
H338 C335 0.929 . S
S339 N340 1.613 . S
S339 N341 1.610 . S
N340 S339 1.613 . S
N340 C343 1.350 . S
N341 S339 1.610 . S
N341 C342 1.351 . S
C342 C336 1.428 . S
C342 N341 1.351 . S
C342 C343 1.434 . S
C343 C334 1.429 . S
C343 N340 1.350 . S
C343 C342 1.434 . S
C344 C345 1.369 . S
C344 C346 1.419 . S
C344 H348 0.930 . S
C345 C344 1.369 . S
C345 C354 1.429 . S
C346 C344 1.419 . S
C346 C347 1.363 . S
C346 H349 0.929 . S
C347 C346 1.363 . S
C347 C353 1.428 . S
H348 C344 0.930 . S
H349 C346 0.929 . S
S350 N351 1.613 . S
S350 N352 1.610 . S
N351 S350 1.613 . S
N351 C354 1.350 . S
N352 S350 1.610 . S
N352 C353 1.351 . S
C353 C347 1.428 . S
C353 N352 1.351 . S
C353 C354 1.434 . S
C354 C345 1.429 . S
C354 N351 1.350 . S
C354 C353 1.434 . S
C355 C356 1.369 . S
C355 C357 1.419 . S
C355 H359 0.930 . S
C356 C355 1.369 . S
C356 C365 1.429 . S
C357 C355 1.419 . S
C357 C358 1.363 . S
C357 H360 0.929 . S
C358 C357 1.363 . S
C358 C364 1.428 . S
H359 C355 0.930 . S
H360 C357 0.929 . S
S361 N362 1.613 . S
S361 N363 1.610 . S
N362 S361 1.613 . S
N362 C365 1.350 . S
N363 S361 1.610 . S
N363 C364 1.351 . S
C364 C358 1.428 . S
C364 N363 1.351 . S
C364 C365 1.434 . S
C365 C356 1.429 . S
C365 N362 1.350 . S
C365 C364 1.434 . S
C366 C367 1.369 . S
C366 C368 1.419 . S
C366 H370 0.930 . S
C367 C366 1.369 . S
C367 C376 1.429 . S
C368 C366 1.419 . S
C368 C369 1.363 . S
C368 H371 0.929 . S
C369 C368 1.363 . S
C369 C375 1.428 . S
H370 C366 0.930 . S
H371 C368 0.929 . S
S372 N373 1.613 . S
S372 N374 1.610 . S
N373 S372 1.613 . S
N373 C376 1.350 . S
N374 S372 1.610 . S
N374 C375 1.351 . S
C375 C369 1.428 . S
C375 N374 1.351 . S
C375 C376 1.434 . S
C376 C367 1.429 . S
C376 N373 1.350 . S
C376 C375 1.434 . S
C377 C378 1.369 . S
C377 C379 1.419 . S
C377 H381 0.930 . S
C378 C377 1.369 . S
C378 C387 1.429 . S
C379 C377 1.419 . S
C379 C380 1.363 . S
C379 H382 0.929 . S
C380 C379 1.363 . S
C380 C386 1.428 . S
H381 C377 0.930 . S
H382 C379 0.929 . S
S383 N384 1.613 . S
S383 N385 1.610 . S
N384 S383 1.613 . S
N384 C387 1.350 . S
N385 S383 1.610 . S
N385 C386 1.351 . S
C386 C380 1.428 . S
C386 N385 1.351 . S
C386 C387 1.434 . S
C387 C378 1.429 . S
C387 N384 1.350 . S
C387 C386 1.434 . S
C388 C389 1.369 . S
C388 C390 1.419 . S
C388 H392 0.930 . S
C389 C388 1.369 . S
C389 C398 1.429 . S
C390 C388 1.419 . S
C390 C391 1.363 . S
C390 H393 0.929 . S
C391 C390 1.363 . S
C391 C397 1.428 . S
H392 C388 0.930 . S
H393 C390 0.929 . S
S394 N395 1.613 . S
S394 N396 1.610 . S
N395 S394 1.613 . S
N395 C398 1.350 . S
N396 S394 1.610 . S
N396 C397 1.351 . S
C397 C391 1.428 . S
C397 N396 1.351 . S
C397 C398 1.434 . S
C398 C389 1.429 . S
C398 N395 1.350 . S
C398 C397 1.434 . S
C399 C400 1.369 1_455 S
C399 C401 1.419 . S
C399 H403 0.930 . S
C400 C399 1.369 1_655 S
C400 C409 1.429 . S
C401 C399 1.419 . S
C401 C402 1.363 1_455 S
C401 H404 0.929 . S
C402 C401 1.363 1_655 S
C402 C408 1.428 . S
H403 C399 0.930 . S
H404 C401 0.929 . S
S405 N406 1.613 . S
S405 N407 1.610 . S
N406 S405 1.613 . S
N406 C409 1.350 . S
N407 S405 1.610 . S
N407 C408 1.351 . S
C408 C402 1.428 . S
C408 N407 1.351 . S
C408 C409 1.434 . S
C409 C400 1.429 . S
C409 N406 1.350 . S
C409 C408 1.434 . S
C410 C411 1.369 . S
C410 C412 1.419 . S
C410 H414 0.930 . S
C411 C410 1.369 . S
C411 C420 1.429 . S
C412 C410 1.419 . S
C412 C413 1.363 . S
C412 H415 0.929 . S
C413 C412 1.363 . S
C413 C419 1.428 . S
H414 C410 0.930 . S
H415 C412 0.929 . S
S416 N417 1.613 . S
S416 N418 1.610 . S
N417 S416 1.613 . S
N417 C420 1.350 . S
N418 S416 1.610 . S
N418 C419 1.351 . S
C419 C413 1.428 . S
C419 N418 1.351 . S
C419 C420 1.434 . S
C420 C411 1.429 . S
C420 N417 1.350 . S
C420 C419 1.434 . S
C421 C422 1.369 1_565 S
C421 C423 1.419 . S
C421 H425 0.930 . S
C422 C421 1.369 1_545 S
C422 C431 1.429 . S
C423 C421 1.419 . S
C423 C424 1.363 1_565 S
C423 H426 0.929 . S
C424 C423 1.363 1_545 S
C424 C430 1.428 . S
H425 C421 0.930 . S
H426 C423 0.929 . S
S427 N428 1.613 . S
S427 N429 1.610 . S
N428 S427 1.613 . S
N428 C431 1.350 . S
N429 S427 1.610 . S
N429 C430 1.351 . S
C430 C424 1.428 . S
C430 N429 1.351 . S
C430 C431 1.434 . S
C431 C422 1.429 . S
C431 N428 1.350 . S
C431 C430 1.434 . S
C432 C433 1.369 . S
C432 C434 1.419 . S
C432 H436 0.930 . S
C433 C432 1.369 . S
C433 C442 1.429 . S
C434 C432 1.419 . S
C434 C435 1.363 1_554 S
C434 H437 0.929 . S
C435 C434 1.363 1_556 S
C435 C441 1.428 . S
H436 C432 0.930 . S
H437 C434 0.929 . S
S438 N439 1.613 . S
S438 N440 1.610 . S
N439 S438 1.613 . S
N439 C442 1.350 1_556 S
N440 S438 1.610 . S
N440 C441 1.351 . S
C441 C435 1.428 . S
C441 N440 1.351 . S
C441 C442 1.434 1_556 S
C442 C433 1.429 . S
C442 N439 1.350 1_554 S
C442 C441 1.434 1_554 S
C443 C444 1.369 . S
C443 C445 1.419 . S
C443 H447 0.930 . S
C444 C443 1.369 . S
C444 C453 1.429 . S
C445 C443 1.419 . S
C445 C446 1.363 1_554 S
C445 H448 0.929 1_554 S
C446 C445 1.363 1_556 S
C446 C452 1.428 1_556 S
H447 C443 0.930 . S
H448 C445 0.929 1_556 S
S449 N450 1.613 . S
S449 N451 1.610 . S
N450 S449 1.613 . S
N450 C453 1.350 . S
N451 S449 1.610 . S
N451 C452 1.351 . S
C452 C446 1.428 1_554 S
C452 N451 1.351 . S
C452 C453 1.434 . S
C453 C444 1.429 . S
C453 N450 1.350 . S
C453 C452 1.434 . S
C454 C455 1.369 . S
C454 C456 1.419 1_554 S
C454 H458 0.930 . S
C455 C454 1.369 . S
C455 C464 1.429 . S
C456 C454 1.419 1_556 S
C456 C457 1.363 . S
C456 H459 0.929 . S
C457 C456 1.363 . S
C457 C463 1.428 1_556 S
H458 C454 0.930 . S
H459 C456 0.929 . S
S460 N461 1.613 . S
S460 N462 1.610 . S
N461 S460 1.613 . S
N461 C464 1.350 . S
N462 S460 1.610 . S
N462 C463 1.351 . S
C463 C457 1.428 1_554 S
C463 N462 1.351 . S
C463 C464 1.434 . S
C464 C455 1.429 . S
C464 N461 1.350 . S
C464 C463 1.434 . S
C465 C466 1.369 . S
C465 C467 1.419 . S
C465 H469 0.930 . S
C466 C465 1.369 . S
C466 C475 1.429 . S
C467 C465 1.419 . S
C467 C468 1.363 1_556 S
C467 H470 0.929 . S
C468 C467 1.363 1_554 S
C468 C474 1.428 . S
H469 C465 0.930 . S
H470 C467 0.929 . S
S471 N472 1.613 1_554 S
S471 N473 1.610 . S
N472 S471 1.613 1_556 S
N472 C475 1.350 . S
N473 S471 1.610 . S
N473 C474 1.351 . S
C474 C468 1.428 . S
C474 N473 1.351 . S
C474 C475 1.434 1_554 S
C475 C466 1.429 . S
C475 N472 1.350 . S
C475 C474 1.434 1_556 S
C476 C477 1.369 1_556 S
C476 C478 1.419 . S
C476 H480 0.930 . S
C477 C476 1.369 1_554 S
C477 C486 1.429 . S
C478 C476 1.419 . S
C478 C479 1.363 . S
C478 H481 0.929 . S
C479 C478 1.363 . S
C479 C485 1.428 . S
H480 C476 0.930 . S
H481 C478 0.929 . S
S482 N483 1.613 . S
S482 N484 1.610 1_554 S
N483 S482 1.613 . S
N483 C486 1.350 . S
N484 S482 1.610 1_556 S
N484 C485 1.351 . S
C485 C479 1.428 . S
C485 N484 1.351 . S
C485 C486 1.434 1_556 S
C486 C477 1.429 . S
C486 N483 1.350 . S
C486 C485 1.434 1_554 S
C487 C488 1.369 . S
C487 C489 1.419 . S
C487 H491 0.930 . S
C488 C487 1.369 . S
C488 C497 1.429 1_556 S
C489 C487 1.419 . S
C489 C490 1.363 1_556 S
C489 H492 0.929 . S
C490 C489 1.363 1_554 S
C490 C496 1.428 . S
H491 C487 0.930 . S
H492 C489 0.929 . S
S493 N494 1.613 . S
S493 N495 1.610 . S
N494 S493 1.613 . S
N494 C497 1.350 . S
N495 S493 1.610 . S
N495 C496 1.351 . S
C496 C490 1.428 . S
C496 N495 1.351 . S
C496 C497 1.434 . S
C497 C488 1.429 1_554 S
C497 N494 1.350 . S
C497 C496 1.434 . S
C498 C499 1.369 . S
C498 C500 1.419 . S
C498 H502 0.930 . S
C499 C498 1.369 . S
C499 C508 1.429 . S
C500 C498 1.419 . S
C500 C501 1.363 . S
C500 H503 0.929 . S
C501 C500 1.363 . S
C501 C507 1.428 . S
H502 C498 0.930 . S
H503 C500 0.929 . S
S504 N505 1.613 . S
S504 N506 1.610 . S
N505 S504 1.613 . S
N505 C508 1.350 . S
N506 S504 1.610 . S
N506 C507 1.351 . S
C507 C501 1.428 . S
C507 N506 1.351 . S
C507 C508 1.434 . S
C508 C499 1.429 . S
C508 N505 1.350 . S
C508 C507 1.434 . S
C509 C510 1.369 . S
C509 C511 1.419 . S
C509 H513 0.930 . S
C510 C509 1.369 . S
C510 C519 1.429 . S
C511 C509 1.419 . S
C511 C512 1.363 . S
C511 H514 0.929 . S
C512 C511 1.363 . S
C512 C518 1.428 . S
H513 C509 0.930 . S
H514 C511 0.929 . S
S515 N516 1.613 . S
S515 N517 1.610 . S
N516 S515 1.613 . S
N516 C519 1.350 . S
N517 S515 1.610 . S
N517 C518 1.351 . S
C518 C512 1.428 . S
C518 N517 1.351 . S
C518 C519 1.434 . S
C519 C510 1.429 . S
C519 N516 1.350 . S
C519 C518 1.434 . S
C520 C521 1.369 . S
C520 C522 1.419 . S
C520 H524 0.930 . S
C521 C520 1.369 . S
C521 C530 1.429 . S
C522 C520 1.419 . S
C522 C523 1.363 . S
C522 H525 0.929 . S
C523 C522 1.363 . S
C523 C529 1.428 . S
H524 C520 0.930 . S
H525 C522 0.929 . S
S526 N527 1.613 . S
S526 N528 1.610 . S
N527 S526 1.613 . S
N527 C530 1.350 . S
N528 S526 1.610 . S
N528 C529 1.351 . S
C529 C523 1.428 . S
C529 N528 1.351 . S
C529 C530 1.434 . S
C530 C521 1.429 . S
C530 N527 1.350 . S
C530 C529 1.434 . S
C531 C532 1.369 . S
C531 C533 1.419 . S
C531 H535 0.930 . S
C532 C531 1.369 . S
C532 C541 1.429 . S
C533 C531 1.419 . S
C533 C534 1.363 . S
C533 H536 0.929 . S
C534 C533 1.363 . S
C534 C540 1.428 . S
H535 C531 0.930 . S
H536 C533 0.929 . S
S537 N538 1.613 . S
S537 N539 1.610 . S
N538 S537 1.613 . S
N538 C541 1.350 . S
N539 S537 1.610 . S
N539 C540 1.351 . S
C540 C534 1.428 . S
C540 N539 1.351 . S
C540 C541 1.434 . S
C541 C532 1.429 . S
C541 N538 1.350 . S
C541 C540 1.434 . S
C542 C543 1.369 . S
C542 C544 1.419 . S
C542 H546 0.930 . S
C543 C542 1.369 . S
C543 C552 1.429 . S
C544 C542 1.419 . S
C544 C545 1.366 1_545 S
C544 H547 0.929 . S
C545 C544 1.366 1_565 S
C545 C551 1.428 . S
H546 C542 0.930 . S
H547 C544 0.929 . S
S548 N549 1.613 1_565 S
S548 N550 1.610 . S
N549 S548 1.613 1_545 S
N549 C552 1.350 . S
N550 S548 1.610 . S
N550 C551 1.351 . S
C551 C545 1.428 . S
C551 N550 1.351 . S
C551 C552 1.434 1_565 S
C552 C543 1.429 . S
C552 N549 1.350 . S
C552 C551 1.434 1_545 S
C553 C554 1.369 . S
C553 C555 1.419 . S
C553 H557 0.930 . S
C554 C553 1.369 . S
C554 C563 1.429 1_655 S
C555 C553 1.419 . S
C555 C556 1.363 . S
C555 H558 0.929 . S
C556 C555 1.363 . S
C556 C562 1.428 1_655 S
H557 C553 0.930 . S
H558 C555 0.929 . S
S559 N560 1.613 . S
S559 N561 1.610 . S
N560 S559 1.613 . S
N560 C563 1.350 . S
N561 S559 1.610 . S
N561 C562 1.351 . S
C562 C556 1.428 1_455 S
C562 N561 1.351 . S
C562 C563 1.434 . S
C563 C554 1.429 1_455 S
C563 N560 1.350 . S
C563 C562 1.434 . S
C564 C565 1.369 . S
C564 C566 1.419 . S
C564 H568 0.930 . S
C565 C564 1.369 . S
C565 C574 1.429 . S
C566 C564 1.419 . S
C566 C567 1.363 . S
C566 H569 0.929 . S
C567 C566 1.363 . S
C567 C573 1.428 . S
H568 C564 0.930 . S
H569 C566 0.929 . S
S570 N571 1.613 . S
S570 N572 1.610 . S
N571 S570 1.613 . S
N571 C574 1.350 . S
N572 S570 1.610 . S
N572 C573 1.351 . S
C573 C567 1.428 . S
C573 N572 1.351 . S
C573 C574 1.434 . S
C574 C565 1.429 . S
C574 N571 1.350 . S
C574 C573 1.434 . S
C575 C576 1.369 1_545 S
C575 C577 1.419 . S
C575 H579 0.930 . S
C576 C575 1.369 1_565 S
C576 C585 1.429 . S
C577 C575 1.419 . S
C577 C578 1.363 1_545 S
C577 H580 0.929 . S
C578 C577 1.363 1_565 S
C578 C584 1.428 . S
H579 C575 0.930 . S
H580 C577 0.929 . S
S581 N582 1.613 . S
S581 N583 1.610 . S
N582 S581 1.613 . S
N582 C585 1.350 . S
N583 S581 1.610 . S
N583 C584 1.351 . S
C584 C578 1.428 . S
C584 N583 1.351 . S
C584 C585 1.434 . S
C585 C576 1.429 . S
C585 N582 1.350 . S
C585 C584 1.434 . S
C586 C587 1.369 . S
C586 C588 1.419 . S
C586 H590 0.930 . S
C587 C586 1.369 . S
C587 C596 1.429 . S
C588 C586 1.419 . S
C588 C589 1.363 . S
C588 H591 0.929 1_455 S
C589 C588 1.363 . S
C589 C595 1.428 . S
H590 C586 0.930 . S
H591 C588 0.929 1_655 S
S592 N593 1.613 . S
S592 N594 1.610 . S
N593 S592 1.613 . S
N593 C596 1.350 . S
N594 S592 1.610 . S
N594 C595 1.351 . S
C595 C589 1.428 . S
C595 N594 1.351 . S
C595 C596 1.434 . S
C596 C587 1.429 . S
C596 N593 1.350 . S
C596 C595 1.434 . S
C597 C598 1.369 . S
C597 C599 1.419 . S
C597 H601 0.930 . S
C598 C597 1.369 . S
C598 C607 1.429 . S
C599 C597 1.419 . S
C599 C600 1.363 . S
C599 H602 0.929 . S
C600 C599 1.363 . S
C600 C606 1.428 . S
H601 C597 0.930 . S
H602 C599 0.929 . S
S603 N604 1.613 . S
S603 N605 1.610 . S
N604 S603 1.613 . S
N604 C607 1.350 . S
N605 S603 1.610 . S
N605 C606 1.351 . S
C606 C600 1.428 . S
C606 N605 1.351 . S
C606 C607 1.434 . S
C607 C598 1.429 . S
C607 N604 1.350 . S
C607 C606 1.434 . S
C608 C609 1.369 . S
C608 C610 1.419 . S
C608 H612 0.930 . S
C609 C608 1.369 . S
C609 C618 1.429 . S
C610 C608 1.419 . S
C610 C611 1.363 . S
C610 H613 0.929 . S
C611 C610 1.363 . S
C611 C617 1.428 . S
H612 C608 0.930 . S
H613 C610 0.929 . S
S614 N615 1.613 . S
S614 N616 1.610 . S
N615 S614 1.613 . S
N615 C618 1.350 . S
N616 S614 1.610 . S
N616 C617 1.351 . S
C617 C611 1.428 . S
C617 N616 1.351 . S
C617 C618 1.434 . S
C618 C609 1.429 . S
C618 N615 1.350 . S
C618 C617 1.434 . S
C619 C620 1.369 . S
C619 C621 1.419 . S
C619 H623 0.930 . S
C620 C619 1.369 . S
C620 C629 1.429 . S
C621 C619 1.419 . S
C621 C622 1.363 . S
C621 H624 0.929 . S
C622 C621 1.363 . S
C622 C628 1.428 . S
H623 C619 0.930 . S
H624 C621 0.929 . S
S625 N626 1.613 . S
S625 N627 1.610 . S
N626 S625 1.613 . S
N626 C629 1.350 . S
N627 S625 1.610 . S
N627 C628 1.351 . S
C628 C622 1.428 . S
C628 N627 1.351 . S
C628 C629 1.434 . S
C629 C620 1.429 . S
C629 N626 1.350 . S
C629 C628 1.434 . S
C235 C0 1.605 . S
C237 C49 1.592 . S
C246 C18 1.571 . S
C248 C62 1.606 . S
C257 C75 1.585 . S
C259 C31 1.533 . S
C268 C78 1.585 . S
C270 C127 1.586 . S
C279 C96 1.565 . S
C281 C140 1.605 . S
C290 C153 1.574 . S
C292 C109 1.519 . S
C301 C205 1.592 . S
C303 C156 1.579 . S
C312 C218 1.608 . S
C314 C174 1.567 . S
C323 C231 1.571 . S
C325 C187 1.526 . S
C334 C5 1.650 . S
C336 C117 1.827 . S
C345 C13 1.838 . S
C347 C130 1.837 . S
C356 C143 1.813 . S
C358 C26 1.809 . S
C367 C39 1.829 . S
C369 C161 1.653 . S
C378 C52 1.831 . S
C380 C169 1.845 . S
C389 C65 1.807 . S
C391 C182 1.816 . S
C400 C83 1.652 . S
C402 C195 1.833 . S
C411 C91 1.857 . S
C413 C208 1.844 . S
C422 C221 1.795 . S
C424 C104 1.793 . S
C433 C8 0.878 . S
C435 C60 0.872 . S
C444 C23 0.861 . S
C446 C73 0.860 . S
C455 C36 0.872 . S
C457 C47 0.867 . S
C466 C44 0.861 . S
C468 C21 0.890 . S
C477 C34 0.884 . S
C479 C57 0.859 . S
C488 C70 0.871 . S
C490 C10 0.897 . S
C499 C86 0.893 . S
C501 C138 0.887 . S
C510 C151 0.868 . S
C512 C101 0.858 . S
C521 C125 0.882 . S
C523 C114 0.868 . S
C532 C99 0.880 . S
C534 C122 0.870 . S
C543 C135 0.879 . S
C545 C112 0.884 . S
C554 C148 0.878 . S
C556 C88 0.895 . S
C565 C216 0.863 . S
C567 C164 0.879 . S
C576 C229 0.864 . S
C578 C179 0.864 . S
C587 C192 0.871 . S
C589 C203 0.866 . S
C598 C177 0.902 . S
C600 C200 0.874 . S
C609 C190 0.882 . S
C611 C213 0.874 . S
C620 C166 0.897 . S
C622 C226 0.891 . S
