# Generated by pormake.
# Topology uma, (4)-cn, num edge types: 1
# Building blocks:
#     Node 0, Type 0, BuildingBlock: CEKHIL_clean_sbu_0, # of connection points: 4
#     Node 1, Type 0, BuildingBlock: CEKHIL_clean_sbu_0, # of connection points: 4
#     Node 2, Type 0, BuildingBlock: CEKHIL_clean_sbu_0, # of connection points: 4
#     Node 3, Type 0, BuildingBlock: CEKHIL_clean_sbu_0, # of connection points: 4
#     Node 4, Type 0, BuildingBlock: CEKHIL_clean_sbu_0, # of connection points: 4
#     Node 5, Type 0, BuildingBlock: CEKHIL_clean_sbu_0, # of connection points: 4
#     Node 6, Type 0, BuildingBlock: CEKHIL_clean_sbu_0, # of connection points: 4
#     Node 7, Type 0, BuildingBlock: CEKHIL_clean_sbu_0, # of connection points: 4
#     Node 8, Type 0, BuildingBlock: CEKHIL_clean_sbu_0, # of connection points: 4
#     Node 9, Type 0, BuildingBlock: CEKHIL_clean_sbu_0, # of connection points: 4
#     Node 10, Type 0, BuildingBlock: CEKHIL_clean_sbu_0, # of connection points: 4
#     Node 11, Type 0, BuildingBlock: CEKHIL_clean_sbu_0, # of connection points: 4
#     Node 12, Type 0, BuildingBlock: CEKHIL_clean_sbu_0, # of connection points: 4
#     Node 13, Type 0, BuildingBlock: CEKHIL_clean_sbu_0, # of connection points: 4
#     Node 14, Type 0, BuildingBlock: CEKHIL_clean_sbu_0, # of connection points: 4
#     Node 15, Type 0, BuildingBlock: CEKHIL_clean_sbu_0, # of connection points: 4
#     Node 16, Type 0, BuildingBlock: CEKHIL_clean_sbu_0, # of connection points: 4
#     Node 17, Type 0, BuildingBlock: CEKHIL_clean_sbu_0, # of connection points: 4
#     Node 18, Type 0, BuildingBlock: CEKHIL_clean_sbu_0, # of connection points: 4
#     Node 19, Type 0, BuildingBlock: CEKHIL_clean_sbu_0, # of connection points: 4
#     Node 20, Type 0, BuildingBlock: CEKHIL_clean_sbu_0, # of connection points: 4
#     Node 21, Type 0, BuildingBlock: CEKHIL_clean_sbu_0, # of connection points: 4
#     Node 22, Type 0, BuildingBlock: CEKHIL_clean_sbu_0, # of connection points: 4
#     Node 23, Type 0, BuildingBlock: CEKHIL_clean_sbu_0, # of connection points: 4
#     Node 24, Type 0, BuildingBlock: CEKHIL_clean_sbu_0, # of connection points: 4
#     Node 25, Type 0, BuildingBlock: CEKHIL_clean_sbu_0, # of connection points: 4
#     Node 26, Type 0, BuildingBlock: CEKHIL_clean_sbu_0, # of connection points: 4
#     Node 27, Type 0, BuildingBlock: CEKHIL_clean_sbu_0, # of connection points: 4
#     Node 28, Type 0, BuildingBlock: CEKHIL_clean_sbu_0, # of connection points: 4
#     Node 29, Type 0, BuildingBlock: CEKHIL_clean_sbu_0, # of connection points: 4
#     Node 30, Type 0, BuildingBlock: CEKHIL_clean_sbu_0, # of connection points: 4
#     Node 31, Type 0, BuildingBlock: CEKHIL_clean_sbu_0, # of connection points: 4
#     Node 32, Type 0, BuildingBlock: CEKHIL_clean_sbu_0, # of connection points: 4
#     Node 33, Type 0, BuildingBlock: CEKHIL_clean_sbu_0, # of connection points: 4
#     Node 34, Type 0, BuildingBlock: CEKHIL_clean_sbu_0, # of connection points: 4
#     Node 35, Type 0, BuildingBlock: CEKHIL_clean_sbu_0, # of connection points: 4
#     Edge 36, Type (0, 0), BuildingBlock: KIFKEQ_clean_linker_1, # of connection points: 2
#     Edge 37, Type (0, 0), BuildingBlock: KIFKEQ_clean_linker_1, # of connection points: 2
#     Edge 38, Type (0, 0), BuildingBlock: KIFKEQ_clean_linker_1, # of connection points: 2
#     Edge 39, Type (0, 0), BuildingBlock: KIFKEQ_clean_linker_1, # of connection points: 2
#     Edge 40, Type (0, 0), BuildingBlock: KIFKEQ_clean_linker_1, # of connection points: 2
#     Edge 41, Type (0, 0), BuildingBlock: KIFKEQ_clean_linker_1, # of connection points: 2
#     Edge 42, Type (0, 0), BuildingBlock: KIFKEQ_clean_linker_1, # of connection points: 2
#     Edge 43, Type (0, 0), BuildingBlock: KIFKEQ_clean_linker_1, # of connection points: 2
#     Edge 44, Type (0, 0), BuildingBlock: KIFKEQ_clean_linker_1, # of connection points: 2
#     Edge 45, Type (0, 0), BuildingBlock: KIFKEQ_clean_linker_1, # of connection points: 2
#     Edge 46, Type (0, 0), BuildingBlock: KIFKEQ_clean_linker_1, # of connection points: 2
#     Edge 47, Type (0, 0), BuildingBlock: KIFKEQ_clean_linker_1, # of connection points: 2
#     Edge 48, Type (0, 0), BuildingBlock: KIFKEQ_clean_linker_1, # of connection points: 2
#     Edge 49, Type (0, 0), BuildingBlock: KIFKEQ_clean_linker_1, # of connection points: 2
#     Edge 50, Type (0, 0), BuildingBlock: KIFKEQ_clean_linker_1, # of connection points: 2
#     Edge 51, Type (0, 0), BuildingBlock: KIFKEQ_clean_linker_1, # of connection points: 2
#     Edge 52, Type (0, 0), BuildingBlock: KIFKEQ_clean_linker_1, # of connection points: 2
#     Edge 53, Type (0, 0), BuildingBlock: KIFKEQ_clean_linker_1, # of connection points: 2
#     Edge 54, Type (0, 0), BuildingBlock: KIFKEQ_clean_linker_1, # of connection points: 2
#     Edge 55, Type (0, 0), BuildingBlock: KIFKEQ_clean_linker_1, # of connection points: 2
#     Edge 56, Type (0, 0), BuildingBlock: KIFKEQ_clean_linker_1, # of connection points: 2
#     Edge 57, Type (0, 0), BuildingBlock: KIFKEQ_clean_linker_1, # of connection points: 2
#     Edge 58, Type (0, 0), BuildingBlock: KIFKEQ_clean_linker_1, # of connection points: 2
#     Edge 59, Type (0, 0), BuildingBlock: KIFKEQ_clean_linker_1, # of connection points: 2
#     Edge 60, Type (0, 0), BuildingBlock: KIFKEQ_clean_linker_1, # of connection points: 2
#     Edge 61, Type (0, 0), BuildingBlock: KIFKEQ_clean_linker_1, # of connection points: 2
#     Edge 62, Type (0, 0), BuildingBlock: KIFKEQ_clean_linker_1, # of connection points: 2
#     Edge 63, Type (0, 0), BuildingBlock: KIFKEQ_clean_linker_1, # of connection points: 2
#     Edge 64, Type (0, 0), BuildingBlock: KIFKEQ_clean_linker_1, # of connection points: 2
#     Edge 65, Type (0, 0), BuildingBlock: KIFKEQ_clean_linker_1, # of connection points: 2
#     Edge 66, Type (0, 0), BuildingBlock: KIFKEQ_clean_linker_1, # of connection points: 2
#     Edge 67, Type (0, 0), BuildingBlock: KIFKEQ_clean_linker_1, # of connection points: 2
#     Edge 68, Type (0, 0), BuildingBlock: KIFKEQ_clean_linker_1, # of connection points: 2
#     Edge 69, Type (0, 0), BuildingBlock: KIFKEQ_clean_linker_1, # of connection points: 2
#     Edge 70, Type (0, 0), BuildingBlock: KIFKEQ_clean_linker_1, # of connection points: 2
#     Edge 71, Type (0, 0), BuildingBlock: KIFKEQ_clean_linker_1, # of connection points: 2
#     Edge 72, Type (0, 0), BuildingBlock: KIFKEQ_clean_linker_1, # of connection points: 2
#     Edge 73, Type (0, 0), BuildingBlock: KIFKEQ_clean_linker_1, # of connection points: 2
#     Edge 74, Type (0, 0), BuildingBlock: KIFKEQ_clean_linker_1, # of connection points: 2
#     Edge 75, Type (0, 0), BuildingBlock: KIFKEQ_clean_linker_1, # of connection points: 2
#     Edge 76, Type (0, 0), BuildingBlock: KIFKEQ_clean_linker_1, # of connection points: 2
#     Edge 77, Type (0, 0), BuildingBlock: KIFKEQ_clean_linker_1, # of connection points: 2
#     Edge 78, Type (0, 0), BuildingBlock: KIFKEQ_clean_linker_1, # of connection points: 2
#     Edge 79, Type (0, 0), BuildingBlock: KIFKEQ_clean_linker_1, # of connection points: 2
#     Edge 80, Type (0, 0), BuildingBlock: KIFKEQ_clean_linker_1, # of connection points: 2
#     Edge 81, Type (0, 0), BuildingBlock: KIFKEQ_clean_linker_1, # of connection points: 2
#     Edge 82, Type (0, 0), BuildingBlock: KIFKEQ_clean_linker_1, # of connection points: 2
#     Edge 83, Type (0, 0), BuildingBlock: KIFKEQ_clean_linker_1, # of connection points: 2
#     Edge 84, Type (0, 0), BuildingBlock: KIFKEQ_clean_linker_1, # of connection points: 2
#     Edge 85, Type (0, 0), BuildingBlock: KIFKEQ_clean_linker_1, # of connection points: 2
#     Edge 86, Type (0, 0), BuildingBlock: KIFKEQ_clean_linker_1, # of connection points: 2
#     Edge 87, Type (0, 0), BuildingBlock: KIFKEQ_clean_linker_1, # of connection points: 2
#     Edge 88, Type (0, 0), BuildingBlock: KIFKEQ_clean_linker_1, # of connection points: 2
#     Edge 89, Type (0, 0), BuildingBlock: KIFKEQ_clean_linker_1, # of connection points: 2
#     Edge 90, Type (0, 0), BuildingBlock: KIFKEQ_clean_linker_1, # of connection points: 2
#     Edge 91, Type (0, 0), BuildingBlock: KIFKEQ_clean_linker_1, # of connection points: 2
#     Edge 92, Type (0, 0), BuildingBlock: KIFKEQ_clean_linker_1, # of connection points: 2
#     Edge 93, Type (0, 0), BuildingBlock: KIFKEQ_clean_linker_1, # of connection points: 2
#     Edge 94, Type (0, 0), BuildingBlock: KIFKEQ_clean_linker_1, # of connection points: 2
#     Edge 95, Type (0, 0), BuildingBlock: KIFKEQ_clean_linker_1, # of connection points: 2
#     Edge 96, Type (0, 0), BuildingBlock: KIFKEQ_clean_linker_1, # of connection points: 2
#     Edge 97, Type (0, 0), BuildingBlock: KIFKEQ_clean_linker_1, # of connection points: 2
#     Edge 98, Type (0, 0), BuildingBlock: KIFKEQ_clean_linker_1, # of connection points: 2
#     Edge 99, Type (0, 0), BuildingBlock: KIFKEQ_clean_linker_1, # of connection points: 2
#     Edge 100, Type (0, 0), BuildingBlock: KIFKEQ_clean_linker_1, # of connection points: 2
#     Edge 101, Type (0, 0), BuildingBlock: KIFKEQ_clean_linker_1, # of connection points: 2
#     Edge 102, Type (0, 0), BuildingBlock: KIFKEQ_clean_linker_1, # of connection points: 2
#     Edge 103, Type (0, 0), BuildingBlock: KIFKEQ_clean_linker_1, # of connection points: 2
#     Edge 104, Type (0, 0), BuildingBlock: KIFKEQ_clean_linker_1, # of connection points: 2
#     Edge 105, Type (0, 0), BuildingBlock: KIFKEQ_clean_linker_1, # of connection points: 2
#     Edge 106, Type (0, 0), BuildingBlock: KIFKEQ_clean_linker_1, # of connection points: 2
#     Edge 107, Type (0, 0), BuildingBlock: KIFKEQ_clean_linker_1, # of connection points: 2
# Relax obj value: 0.191
# Max RMSD: 0.425
# Mean RMSD: 0.420
data_MOF--net-uma--node1-CEKHIL_clean_sbu_0--edge1-KIFKEQ_clean_linker_1
_symmetry_space_group_name_H-M    P1
_symmetry_Int_Tables_number       1
_symmetry_cell_setting            triclinic
loop_
_symmetry_equiv_pos_as_xyz
'x, y, z'
_cell_length_a     77.995028
_cell_length_b     77.997438
_cell_length_c     37.349678
_cell_angle_alpha  89.969063
_cell_angle_beta   89.975331
_cell_angle_gamma 119.96497
loop_
_atom_site_label
_atom_site_type_symbol
_atom_site_fract_x
_atom_site_fract_y
_atom_site_fract_z
_atom_type_partial_charge
Co0 Co 0.09956 0.38394 0.01029 0.0
O1 O 0.12469 0.40459 0.99237 0.0
O2 O 0.11459 0.37243 0.99291 0.0
C3 C 0.09978 0.39929 0.06115 0.0
O4 O 0.07561 0.35826 0.02654 0.0
Co5 Co 0.06335 0.38884 0.02203 0.0
O6 O 0.05283 0.36416 0.05047 0.0
C7 C 0.07002 0.37622 0.9513 0.0
C8 C 0.12821 0.39035 0.98499 0.0
C9 C 0.05915 0.35237 0.04306 0.0
O10 O 0.08718 0.38003 0.96198 0.0
O11 O 0.05792 0.37854 0.97112 0.0
O12 O 0.10951 0.38984 0.05876 0.0
O13 O 0.0915 0.40063 0.03197 0.0
Co14 Co 0.60871 0.71638 0.02134 0.0
O15 O 0.59272 0.7263 1.00081 0.0
O16 O 0.62539 0.74334 0.00761 0.0
C17 C 0.58971 0.70151 0.06928 0.0
O18 O 0.63052 0.712 0.04023 0.0
Co19 Co 0.59493 0.67217 0.02902 0.0
O20 O 0.61779 0.68142 0.06185 0.0
C21 C 0.61334 0.69283 0.96146 0.0
C22 C 0.60935 0.74276 0.99646 0.0
C23 C 0.63256 0.69851 0.05594 0.0
O24 O 0.61273 0.70795 0.97311 0.0
O25 O 0.60723 0.67688 0.9796 0.0
O26 O 0.60198 0.72046 0.06917 0.0
O27 O 0.58784 0.69232 0.03929 0.0
Co28 Co 0.28207 0.89475 0.02308 0.0
O29 O 0.27259 0.87017 0.99756 0.0
O30 O 0.2541 0.88293 0.0143 0.0
C31 C 0.29795 0.8871 0.06888 0.0
O32 O 0.28808 0.91929 0.04782 0.0
Co33 Co 0.30479 0.90204 0.99287 0.0
O34 O 0.31514 0.92941 0.01608 0.0
C35 C 0.28618 0.90625 0.94551 0.0
C36 C 0.25536 0.86885 0.9982 0.0
C37 C 0.30483 0.93333 0.03775 0.0
O38 O 0.28333 0.91012 0.97726 0.0
O39 O 0.2954 0.89696 0.94209 0.0
O40 O 0.27941 0.88062 0.06694 0.0
O41 O 0.30872 0.8984 0.04308 0.0
Co42 Co 0.38737 0.11034 0.98866 0.0
O43 O 0.40386 0.13783 1.00026 0.0
O44 O 0.37106 0.122 0.99631 0.0
C45 C 0.40486 0.10941 0.94173 0.0
O46 O 0.36546 0.08233 0.97773 0.0
Co47 Co 0.40201 0.08091 0.99697 0.0
O48 O 0.38034 0.06529 0.96271 0.0
C49 C 0.38275 0.08835 0.05807 0.0
C50 C 0.38748 0.13826 0.00319 0.0
C51 C 0.36482 0.06667 0.96537 0.0
O52 O 0.38441 0.10323 0.04059 0.0
O53 O 0.38897 0.07712 0.04565 0.0
O54 O 0.39246 0.11581 0.93836 0.0
O55 O 0.40821 0.1059 0.97431 0.0
Co56 Co 0.89592 0.27631 0.98376 0.0
O57 O 0.86893 0.26813 0.99586 0.0
O58 O 0.8828 0.24928 0.99928 0.0
C59 C 0.89639 0.29122 0.93198 0.0
O60 O 0.92259 0.2787 0.97375 0.0
Co61 Co 0.92841 0.31959 0.97799 0.0
O62 O 0.94475 0.30935 0.95638 0.0
C63 C 0.91945 0.29968 0.0484 0.0
C64 C 0.86729 0.25115 0.00386 0.0
C65 C 0.93985 0.2914 0.96223 0.0
O66 O 0.90445 0.28476 0.03425 0.0
O67 O 0.93111 0.3153 0.03068 0.0
O68 O 0.88932 0.27222 0.93338 0.0
O69 O 0.90172 0.30062 0.96223 0.0
Co70 Co 0.7176 0.61893 0.96355 0.0
O71 O 0.7286 0.60443 0.98648 0.0
O72 O 0.74564 0.63588 0.97006 0.0
C73 C 0.70108 0.59561 0.91792 0.0
O74 O 0.71005 0.63703 0.94152 0.0
Co75 Co 0.6955 0.60262 0.99543 0.0
O76 O 0.68401 0.61934 0.97532 0.0
C77 C 0.71472 0.62536 0.04231 0.0
C78 C 0.74545 0.62078 0.98509 0.0
C79 C 0.6935 0.63386 0.95376 0.0
O80 O 0.71699 0.63227 0.01076 0.0
O81 O 0.70576 0.60684 0.04546 0.0
O82 O 0.71954 0.60816 0.91833 0.0
O83 O 0.69083 0.59549 0.94518 0.0
Co84 Co 0.89368 0.61542 0.97546 0.0
O85 O 0.86771 0.60019 0.99644 0.0
O86 O 0.88267 0.63225 0.98416 0.0
C87 C 0.88777 0.59387 0.92723 0.0
O88 O 0.91965 0.63422 0.95529 0.0
Co89 Co 0.90011 0.59812 0.00567 0.0
O90 O 0.92825 0.6158 0.98644 0.0
C91 C 0.9021 0.61912 0.05497 0.0
C92 C 0.86738 0.61665 0.99703 0.0
C93 C 0.93307 0.63077 0.96617 0.0
O94 O 0.90663 0.62704 0.02409 0.0
O95 O 0.89381 0.60058 0.05646 0.0
O96 O 0.88186 0.6064 0.9291 0.0
O97 O 0.89726 0.59258 0.95454 0.0
Co98 Co 0.37803 0.28382 0.99573 0.0
O99 O 0.39767 0.27875 0.01667 0.0
O100 O 0.36548 0.2572 0.01307 0.0
C101 C 0.3951 0.29859 0.94592 0.0
O102 O 0.35321 0.28263 0.97624 0.0
Co103 Co 0.38467 0.32553 0.98219 0.0
O104 O 0.35959 0.31197 0.95466 0.0
C105 C 0.36804 0.30557 0.05114 0.0
C106 C 0.38303 0.261 0.02267 0.0
C107 C 0.34765 0.29369 0.96058 0.0
O108 O 0.37259 0.29241 0.04263 0.0
O109 O 0.37194 0.32047 0.03127 0.0
O110 O 0.38522 0.27944 0.94863 0.0
O111 O 0.39588 0.30844 0.97448 0.0
Co112 Co 0.70746 0.10674 0.98579 0.0
O113 O 0.72047 0.13232 0.0087 0.0
O114 O 0.73534 0.11616 0.98975 0.0
C115 C 0.69107 0.1149 0.94196 0.0
O116 O 0.69778 0.08084 0.96321 0.0
Co117 Co 0.68597 0.10185 0.01974 0.0
O118 O 0.67256 0.07384 0.99854 0.0
C119 C 0.70569 0.09672 0.06426 0.0
C120 C 0.73669 0.13169 0.00518 0.0
C121 C 0.68094 0.06823 0.97563 0.0
O122 O 0.70718 0.09233 0.03208 0.0
O123 O 0.6969 0.10633 0.06933 0.0
O124 O 0.70928 0.11983 0.9412 0.0
O125 O 0.68102 0.10519 0.96977 0.0
Co126 Co 0.60397 0.88961 0.01962 0.0
O127 O 0.58887 0.86451 0.99585 0.0
O128 O 0.62047 0.87813 0.01098 0.0
C129 C 0.58117 0.88299 0.06599 0.0
O130 O 0.62225 0.91484 0.0426 0.0
Co131 Co 0.58754 0.89562 0.98804 0.0
O132 O 0.60337 0.923 0.01165 0.0
C133 C 0.61119 0.90022 0.94142 0.0
C134 C 0.60501 0.86362 0.99599 0.0
C135 C 0.61795 0.92788 0.03296 0.0
O136 O 0.6176 0.90426 0.9733 0.0
O137 O 0.59273 0.89128 0.9373 0.0
O138 O 0.59316 0.87639 0.06444 0.0
O139 O 0.58101 0.89331 0.03897 0.0
Co140 Co 0.10939 0.71553 0.00861 0.0
O141 O 0.1364 0.72599 0.99353 0.0
O142 O 0.11961 0.74211 0.99229 0.0
C143 C 0.1113 0.70185 0.06018 0.0
O144 O 0.08206 0.71048 0.02176 0.0
Co145 Co 0.07987 0.67125 0.01624 0.0
O146 O 0.06466 0.68028 0.0454 0.0
C147 C 0.08385 0.69122 0.94713 0.0
C148 C 0.1359 0.74199 0.98571 0.0
C149 C 0.06663 0.69708 0.03783 0.0
O150 O 0.09971 0.70609 0.95902 0.0
O151 O 0.07323 0.67568 0.96585 0.0
O152 O 0.11742 0.72067 0.05818 0.0
O153 O 0.10614 0.69216 0.03018 0.0
Co154 Co 0.27454 0.38132 0.01732 0.0
O155 O 0.26745 0.40071 0.00302 0.0
O156 O 0.24703 0.36823 0.00531 0.0
C157 C 0.29178 0.3969 0.06619 0.0
O158 O 0.27575 0.35666 0.0303 0.0
Co159 Co 0.3175 0.39 0.01836 0.0
O160 O 0.30668 0.36455 0.04463 0.0
C161 C 0.29426 0.37608 0.95163 0.0
C162 C 0.24977 0.38573 0.99807 0.0
C163 C 0.28835 0.35189 0.0416 0.0
O164 O 0.28065 0.3781 0.96681 0.0
O165 O 0.31057 0.38039 0.96721 0.0
O166 O 0.2726 0.3864 0.06721 0.0
O167 O 0.3 0.39942 0.03496 0.0
Co168 Co 0.76401 0.71785 0.3357 0.0
O169 O 0.79093 0.7336 0.31932 0.0
O170 O 0.77528 0.70114 0.32721 0.0
C171 C 0.76773 0.7373 0.38612 0.0
O172 O 0.73699 0.69868 0.35093 0.0
Co173 Co 0.7603 0.73661 0.30616 0.0
O174 O 0.73088 0.71867 0.31901 0.0
C175 C 0.75901 0.71717 0.25534 0.0
C176 C 0.7913 0.71718 0.31786 0.0
C177 C 0.72449 0.70278 0.33745 0.0
O178 O 0.75318 0.70832 0.28515 0.0
O179 O 0.76886 0.73575 0.25593 0.0
O180 O 0.77341 0.7246 0.38391 0.0
O181 O 0.75991 0.74012 0.35779 0.0
Co182 Co 0.26969 0.04913 0.32941 0.0
O183 O 0.25536 0.05987 0.30476 0.0
O184 O 0.2862 0.07739 0.32386 0.0
C185 C 0.24578 0.03153 0.37388 0.0
O186 O 0.28725 0.04171 0.35373 0.0
Co187 Co 0.25414 0.0284 0.29624 0.0
O188 O 0.26868 0.01553 0.32071 0.0
C189 C 0.27917 0.04599 0.25164 0.0
C190 C 0.27121 0.077 0.30798 0.0
C191 C 0.28278 0.02447 0.34329 0.0
O192 O 0.28468 0.04864 0.28417 0.0
O193 O 0.2609 0.03809 0.24582 0.0
O194 O 0.25737 0.05024 0.37363 0.0
O195 O 0.24637 0.02196 0.34613 0.0
Co196 Co 0.94482 0.2293 0.33685 0.0
O197 O 0.93539 0.20332 0.31742 0.0
O198 O 0.91701 0.21723 0.32796 0.0
C199 C 0.96186 0.225 0.38286 0.0
O200 O 0.9508 0.25549 0.35526 0.0
Co201 Co 0.9841 0.24933 0.31072 0.0
O202 O 0.98179 0.27184 0.33317 0.0
C203 C 0.95852 0.24659 0.25924 0.0
C204 C 0.9182 0.20215 0.31632 0.0
C205 C 0.96707 0.27152 0.34925 0.0
O206 O 0.94756 0.24098 0.28714 0.0
O207 O 0.9756 0.24843 0.2602 0.0
O208 O 0.94314 0.21857 0.38411 0.0
O209 O 0.97077 0.23473 0.35406 0.0
Co210 Co 0.05614 0.44042 0.34562 0.0
O211 O 0.0739 0.465 0.36929 0.0
O212 O 0.04192 0.45345 0.35936 0.0
C213 C 0.07549 0.44332 0.29889 0.0
O214 O 0.03311 0.41655 0.32249 0.0
Co215 Co 0.06529 0.40648 0.33615 0.0
O216 O 0.04347 0.39662 0.30064 0.0
C217 C 0.04697 0.40933 0.40338 0.0
C218 C 0.05856 0.46732 0.37229 0.0
C219 C 0.03012 0.40133 0.30439 0.0
O220 O 0.04884 0.42576 0.39223 0.0
O221 O 0.05287 0.39927 0.38537 0.0
O222 O 0.06556 0.45263 0.29918 0.0
O223 O 0.07531 0.43454 0.32849 0.0
Co224 Co 0.54845 0.61687 0.35283 0.0
O225 O 0.52366 0.60923 0.3764 0.0
O226 O 0.53631 0.58965 0.36674 0.0
C227 C 0.54478 0.633 0.30631 0.0
O228 O 0.57287 0.61893 0.3292 0.0
Co229 Co 0.5811 0.66043 0.34507 0.0
O230 O 0.59013 0.6494 0.30632 0.0
C231 C 0.5794 0.63882 0.41082 0.0
C232 C 0.52214 0.59194 0.37978 0.0
C233 C 0.58683 0.63175 0.30933 0.0
O234 O 0.563 0.62433 0.39952 0.0
O235 O 0.58926 0.65498 0.39326 0.0
O236 O 0.53612 0.6138 0.30645 0.0
O237 O 0.55332 0.64167 0.33604 0.0
Co238 Co 0.37093 0.93173 0.35091 0.0
O239 O 0.382 0.91975 0.38151 0.0
O240 O 0.39889 0.94929 0.35631 0.0
C241 C 0.35441 0.9053 0.31067 0.0
O242 O 0.36344 0.94722 0.32025 0.0
Co243 Co 0.34852 0.91793 0.38438 0.0
O244 O 0.33669 0.93134 0.3534 0.0
C245 C 0.36641 0.94556 0.42463 0.0
C246 C 0.39888 0.93577 0.37654 0.0
C247 C 0.34623 0.94383 0.32851 0.0
O248 O 0.36982 0.94908 0.39135 0.0
O249 O 0.35722 0.9277 0.4341 0.0
O250 O 0.37304 0.91719 0.31112 0.0
O251 O 0.34421 0.90711 0.33619 0.0
Co252 Co 0.54634 0.9293 0.35097 0.0
O253 O 0.52023 0.91431 0.37105 0.0
O254 O 0.5363 0.94674 0.36108 0.0
C255 C 0.54236 0.90878 0.30554 0.0
O256 O 0.57295 0.94991 0.33072 0.0
Co257 Co 0.57562 0.914 0.35153 0.0
O258 O 0.58884 0.93413 0.31356 0.0
C259 C 0.57413 0.93662 0.41337 0.0
C260 C 0.52062 0.93114 0.37304 0.0
C261 C 0.58737 0.94963 0.31468 0.0
O262 O 0.55835 0.93507 0.39981 0.0
O263 O 0.58373 0.92918 0.39841 0.0
O264 O 0.53586 0.92115 0.30335 0.0
O265 O 0.54906 0.90746 0.33672 0.0
Co266 Co 0.06084 0.61794 0.3493 0.0
O267 O 0.07943 0.61113 0.36934 0.0
O268 O 0.04692 0.59102 0.36526 0.0
C269 C 0.07802 0.63316 0.29981 0.0
O270 O 0.03707 0.61905 0.33024 0.0
Co271 Co 0.07006 0.66072 0.34017 0.0
O272 O 0.0484 0.64854 0.30446 0.0
C273 C 0.05128 0.63912 0.40669 0.0
C274 C 0.06409 0.59381 0.37522 0.0
C275 C 0.0344 0.63108 0.31084 0.0
O276 O 0.05601 0.62621 0.39722 0.0
O277 O 0.05565 0.65448 0.38777 0.0
O278 O 0.06756 0.61399 0.3014 0.0
O279 O 0.07968 0.64255 0.3295 0.0
Co280 Co 0.38149 0.43607 0.34658 0.0
O281 O 0.38749 0.46039 0.37038 0.0
O282 O 0.40853 0.44943 0.36174 0.0
C283 C 0.36563 0.43899 0.29909 0.0
O284 O 0.38145 0.41252 0.32363 0.0
Co285 Co 0.3388 0.40184 0.33525 0.0
O286 O 0.35144 0.39187 0.30136 0.0
C287 C 0.35903 0.40466 0.40352 0.0
C288 C 0.40522 0.46302 0.3744 0.0
C289 C 0.36961 0.39709 0.30558 0.0
O290 O 0.37358 0.4212 0.39281 0.0
O291 O 0.34332 0.39454 0.38494 0.0
O292 O 0.38485 0.44841 0.30016 0.0
O293 O 0.35664 0.43002 0.3283 0.0
Co294 Co 0.27374 0.23091 0.32409 0.0
O295 O 0.25528 0.20442 0.30801 0.0
O296 O 0.28799 0.21814 0.30872 0.0
C297 C 0.25778 0.23008 0.37464 0.0
O298 O 0.29778 0.25671 0.33872 0.0
Co299 Co 0.26347 0.26399 0.33225 0.0
O300 O 0.28937 0.27881 0.35704 0.0
C301 C 0.27618 0.25715 0.26177 0.0
C302 C 0.27086 0.20286 0.30169 0.0
C303 C 0.30225 0.27355 0.35216 0.0
O304 O 0.2761 0.24188 0.27483 0.0
O305 O 0.27121 0.26791 0.27995 0.0
O306 O 0.26903 0.22221 0.37344 0.0
O307 O 0.25503 0.23666 0.34456 0.0
Co308 Co 0.76689 0.04719 0.3408 0.0
O309 O 0.793 0.05914 0.32004 0.0
O310 O 0.77805 0.07543 0.33785 0.0
C311 C 0.77264 0.02914 0.38514 0.0
O312 O 0.74055 0.03848 0.36119 0.0
Co313 Co 0.7621 0.02621 0.30642 0.0
O314 O 0.73361 0.01358 0.32515 0.0
C315 C 0.75877 0.04673 0.26137 0.0
C316 C 0.79346 0.07589 0.32359 0.0
C317 C 0.72782 0.02202 0.34759 0.0
O318 O 0.75422 0.04851 0.29331 0.0
O319 O 0.76768 0.0372 0.25689 0.0
O320 O 0.77844 0.04755 0.38654 0.0
O321 O 0.76339 0.01987 0.35646 0.0
Co322 Co 0.94475 0.7169 0.34814 0.0
O323 O 0.93366 0.73204 0.32794 0.0
O324 O 0.91657 0.70045 0.34351 0.0
C325 C 0.96252 0.73937 0.3943 0.0
O326 O 0.95209 0.69811 0.36787 0.0
Co327 Co 0.96734 0.73311 0.31544 0.0
O328 O 0.97791 0.71526 0.33323 0.0
C329 C 0.94701 0.71147 0.26815 0.0
C330 C 0.91667 0.71585 0.33012 0.0
C331 C 0.96832 0.70082 0.35486 0.0
O332 O 0.944 0.70406 0.29947 0.0
O333 O 0.9574 0.72997 0.26557 0.0
O334 O 0.94397 0.72721 0.39458 0.0
O335 O 0.97214 0.73977 0.36584 0.0
Co336 Co 0.44562 0.05887 0.66243 0.0
O337 O 0.47183 0.07414 0.643 0.0
O338 O 0.4548 0.04135 0.64719 0.0
C339 C 0.45006 0.07706 0.71188 0.0
O340 O 0.41866 0.03798 0.68072 0.0
Co341 Co 0.4176 0.0757 0.67025 0.0
O342 O 0.40429 0.05376 0.70516 0.0
C343 C 0.41772 0.05568 0.60332 0.0
C344 C 0.47082 0.05723 0.63714 0.0
C345 C 0.40475 0.03795 0.69915 0.0
O346 O 0.43366 0.05631 0.6139 0.0
O347 O 0.40854 0.06234 0.622 0.0
O348 O 0.45593 0.06415 0.71088 0.0
O349 O 0.44388 0.08028 0.68172 0.0
Co350 Co 0.93262 0.37828 0.6533 0.0
O351 O 0.91645 0.38651 0.62798 0.0
O352 O 0.94814 0.40585 0.64181 0.0
C353 C 0.91177 0.36141 0.69812 0.0
O354 O 0.95398 0.37539 0.67885 0.0
Co355 Co 0.9204 0.33405 0.65828 0.0
O356 O 0.94013 0.344 0.6977 0.0
C357 C 0.94376 0.3575 0.5965 0.0
C358 C 0.9322 0.40395 0.62703 0.0
C359 C 0.95463 0.36169 0.69681 0.0
O360 O 0.9415 0.37184 0.60751 0.0
O361 O 0.93603 0.34064 0.61212 0.0
O362 O 0.92204 0.3806 0.69868 0.0
O363 O 0.91204 0.35324 0.668 0.0
Co364 Co 0.61385 0.54837 0.64624 0.0
O365 O 0.60566 0.52535 0.61658 0.0
O366 O 0.58595 0.53584 0.6379 0.0
C367 C 0.63266 0.5432 0.68563 0.0
O368 O 0.61641 0.57079 0.67735 0.0
Co369 Co 0.65778 0.58144 0.6499 0.0
O370 O 0.64829 0.58943 0.69269 0.0
C371 C 0.63254 0.58251 0.59244 0.0
C372 C 0.58794 0.52287 0.6193 0.0
C373 C 0.63024 0.585 0.69524 0.0
O374 O 0.61845 0.56576 0.60352 0.0
O375 O 0.64991 0.59116 0.60612 0.0
O376 O 0.61351 0.53362 0.68831 0.0
O377 O 0.63963 0.55334 0.65637 0.0
Co378 Co 0.71282 0.76006 0.6768 0.0
O379 O 0.72813 0.78588 0.69803 0.0
O380 O 0.69611 0.77123 0.68603 0.0
C381 C 0.73402 0.76619 0.62809 0.0
O382 O 0.69392 0.73411 0.65653 0.0
Co383 Co 0.73042 0.75302 0.70646 0.0
O384 O 0.71234 0.72514 0.68681 0.0
C385 C 0.70848 0.74794 0.75604 0.0
C386 C 0.71186 0.78657 0.69838 0.0
C387 C 0.69723 0.72053 0.66713 0.0
O388 O 0.70132 0.74661 0.72493 0.0
O389 O 0.72693 0.75553 0.75864 0.0
O390 O 0.72144 0.772 0.63059 0.0
O391 O 0.73573 0.75681 0.65522 0.0
Co392 Co 0.22618 0.94894 0.65904 0.0
O393 O 0.19977 0.93678 0.67874 0.0
O394 O 0.21555 0.92082 0.6641 0.0
C395 C 0.22064 0.96622 0.61299 0.0
O396 O 0.25274 0.95774 0.63986 0.0
Co397 Co 0.23008 0.9699 0.69208 0.0
O398 O 0.25904 0.98273 0.67512 0.0
C399 C 0.23363 0.95063 0.73884 0.0
C400 C 0.19978 0.92018 0.677 0.0
C401 C 0.26527 0.9742 0.65371 0.0
O402 O 0.23882 0.94887 0.70743 0.0
O403 O 0.22338 0.95889 0.74174 0.0
O404 O 0.21498 0.94781 0.61255 0.0
O405 O 0.22953 0.97589 0.64161 0.0
Co406 Co 0.04304 0.27406 0.66916 0.0
O407 O 0.05425 0.25918 0.69048 0.0
O408 O 0.07117 0.2907 0.67486 0.0
C409 C 0.02588 0.25168 0.6226 0.0
O410 O 0.03569 0.29271 0.64854 0.0
Co411 Co 0.0195 0.25758 0.70139 0.0
O412 O 0.00935 0.27549 0.68207 0.0
C413 C 0.03769 0.28045 0.7488 0.0
C414 C 0.07122 0.27541 0.68837 0.0
C415 C 0.0193 0.29001 0.6608 0.0
O416 O 0.04278 0.28698 0.71703 0.0
O417 O 0.02695 0.26207 0.75274 0.0
O418 O 0.04446 0.26375 0.62309 0.0
O419 O 0.01594 0.25113 0.65072 0.0
Co420 Co 0.22732 0.28223 0.66325 0.0
O421 O 0.20201 0.26448 0.685 0.0
O422 O 0.21403 0.29654 0.67619 0.0
C423 C 0.22273 0.26279 0.61277 0.0
O424 O 0.25209 0.30349 0.64271 0.0
Co425 Co 0.23849 0.26624 0.68949 0.0
O426 O 0.26515 0.28733 0.66866 0.0
C427 C 0.24026 0.28465 0.7415 0.0
C428 C 0.1997 0.27979 0.68783 0.0
C429 C 0.26724 0.30213 0.65039 0.0
O430 O 0.24109 0.29293 0.71167 0.0
O431 O 0.23378 0.26632 0.74163 0.0
O432 O 0.21523 0.27393 0.61694 0.0
O433 O 0.23304 0.26167 0.6388 0.0
Co434 Co 0.7225 0.9447 0.66553 0.0
O435 O 0.73484 0.93116 0.68729 0.0
O436 O 0.70383 0.91676 0.66837 0.0
C437 C 0.74675 0.96192 0.62156 0.0
O438 O 0.70666 0.95519 0.64427 0.0
Co439 Co 0.73958 0.96491 0.70049 0.0
O440 O 0.72629 0.9798 0.6797 0.0
C441 C 0.71423 0.94579 0.74451 0.0
C442 C 0.7179 0.9151 0.68353 0.0
C443 C 0.71216 0.97229 0.65693 0.0
O444 O 0.70852 0.94469 0.71229 0.0
O445 O 0.73255 0.95372 0.74977 0.0
O446 O 0.73373 0.94361 0.62022 0.0
O447 O 0.74735 0.97127 0.65053 0.0
Co448 Co 0.04718 0.7651 0.6737 0.0
O449 O 0.0595 0.79072 0.69665 0.0
O450 O 0.07536 0.77582 0.67638 0.0
C451 C 0.02936 0.77194 0.63068 0.0
O452 O 0.03842 0.73938 0.65082 0.0
Co453 Co 0.02554 0.75916 0.7085 0.0
O454 O 0.01321 0.73131 0.68683 0.0
C455 C 0.04439 0.75276 0.7523 0.0
C456 C 0.07617 0.79112 0.69173 0.0
C457 C 0.02191 0.72623 0.6636 0.0
O458 O 0.04774 0.7508 0.71964 0.0
O459 O 0.03486 0.7615 0.75871 0.0
O460 O 0.04781 0.77789 0.6292 0.0
O461 O 0.02 0.76214 0.65891 0.0
Co462 Co 0.92627 0.55071 0.64389 0.0
O463 O 0.90968 0.5264 0.61845 0.0
O464 O 0.94126 0.5381 0.63273 0.0
C465 C 0.90497 0.54712 0.6878 0.0
O466 O 0.94803 0.57436 0.66993 0.0
Co467 Co 0.91631 0.58417 0.64855 0.0
O468 O 0.93541 0.59293 0.68887 0.0
C469 C 0.9401 0.58342 0.58806 0.0
C470 C 0.92526 0.5244 0.61765 0.0
C471 C 0.94929 0.58883 0.68828 0.0
O472 O 0.93596 0.56603 0.59815 0.0
O473 O 0.93333 0.59339 0.60387 0.0
O474 O 0.91489 0.53783 0.68901 0.0
O475 O 0.90619 0.55618 0.65786 0.0
Co476 Co 0.43955 0.37419 0.65402 0.0
O477 O 0.46439 0.38059 0.63173 0.0
O478 O 0.45211 0.40079 0.63658 0.0
C479 C 0.44248 0.35976 0.70371 0.0
O480 O 0.41529 0.37363 0.67506 0.0
Co481 Co 0.40621 0.33117 0.66657 0.0
O482 O 0.39532 0.34373 0.6986 0.0
C483 C 0.40753 0.35153 0.59936 0.0
C484 C 0.46618 0.39782 0.62541 0.0
C485 C 0.39988 0.36164 0.69307 0.0
O486 O 0.42514 0.36508 0.60749 0.0
O487 O 0.39725 0.33625 0.61886 0.0
O488 O 0.45157 0.37892 0.70096 0.0
O489 O 0.43408 0.34997 0.67475 0.0
Co490 Co 0.62184 0.06274 0.657 0.0
O491 O 0.60975 0.07361 0.62613 0.0
O492 O 0.59435 0.04357 0.64965 0.0
C493 C 0.63589 0.08886 0.69858 0.0
O494 O 0.63054 0.0483 0.68764 0.0
Co495 Co 0.64364 0.07821 0.62502 0.0
O496 O 0.65724 0.06624 0.65544 0.0
C497 C 0.62816 0.05124 0.58318 0.0
C498 C 0.59354 0.05677 0.62972 0.0
C499 C 0.64822 0.0531 0.67969 0.0
O500 O 0.62552 0.04699 0.61629 0.0
O501 O 0.63483 0.06908 0.57481 0.0
O502 O 0.61758 0.07582 0.697 0.0
O503 O 0.64713 0.08838 0.67361 0.0
H504 H 0.94154 0.26571 0.00939 0.0
H505 H 0.975 0.30757 0.92595 0.0
H506 H 0.97201 0.26906 0.03387 0.0
H507 H 0.00531 0.31029 0.94964 0.0
H508 H 0.02575 0.33221 0.08398 0.0
H509 H 0.99538 0.30429 0.06162 0.0
H510 H 0.0279 0.29686 0.97532 0.0
H511 H 0.05842 0.32439 0.99828 0.0
C512 C 0.95522 0.27473 0.99496 0.0
C513 C 0.95598 0.2868 0.96622 0.0
C514 C 0.97268 0.27661 0.0091 0.0
C515 C 0.99102 0.29015 0.99403 0.0
C516 C 0.99137 0.2997 0.96183 0.0
C517 C 0.974 0.29823 0.94826 0.0
C518 C 0.02664 0.32387 0.06158 0.0
C519 C 0.04432 0.331 0.0421 0.0
C520 C 0.0092 0.30778 0.04873 0.0
C521 C 0.00925 0.29885 0.01604 0.0
C522 C 0.02746 0.30368 1.00032 0.0
C523 C 0.04498 0.3195 0.01362 0.0
H524 H 0.71897 0.67353 0.957 0.0
H525 H 0.65685 0.62954 0.95504 0.0
H526 H 0.71116 0.69662 0.98748 0.0
H527 H 0.64914 0.65265 0.985 0.0
H528 H 0.64506 0.6752 0.08832 0.0
H529 H 0.66511 0.66432 0.05623 0.0
H530 H 0.68347 0.7125 0.98149 0.0
H531 H 0.66386 0.72381 0.01382 0.0
C532 C 0.70359 0.66919 0.96121 0.0
C533 C 0.68848 0.64967 0.95417 0.0
C534 C 0.69921 0.68231 0.97913 0.0
C535 C 0.6797 0.67598 0.9896 0.0
C536 C 0.66438 0.65754 0.97793 0.0
C537 C 0.66873 0.64446 0.96028 0.0
C538 C 0.65427 0.6842 0.06639 0.0
C539 C 0.65202 0.6997 0.05252 0.0
C540 C 0.66557 0.67784 0.0478 0.0
C541 C 0.67498 0.68715 0.01568 0.0
C542 C 0.67599 0.70495 0.0059 0.0
C543 C 0.6648 0.71143 0.02471 0.0
H544 H 0.33497 0.05674 0.01319 0.0
H545 H 0.35334 0.03356 0.9254 0.0
H546 H 0.31553 0.02342 0.03787 0.0
H547 H 0.33363 0.0003 0.9499 0.0
H548 H 0.34147 0.96557 0.03903 0.0
H549 H 0.34933 -0.00164 0.01846 0.0
H550 H 0.28739 0.98075 0.02049 0.0
H551 H 0.27939 0.94772 0.04136 0.0
C552 C 0.33386 0.04442 0.99788 0.0
C553 C 0.34608 0.04774 0.96784 0.0
C554 C 0.32284 0.02538 0.0123 0.0
C555 C 0.32373 0.00962 0.99627 0.0
C556 C 0.33313 0.01245 0.96296 0.0
C557 C 0.34422 0.03142 0.94874 0.0
C558 C 0.32961 0.96893 0.03665 0.0
C559 C 0.30985 0.95409 0.04131 0.0
C560 C 0.33407 0.98756 0.02445 0.0
C561 C 0.31884 0.99164 0.01685 0.0
C562 C 0.29928 0.97772 0.02579 0.0
C563 C 0.29479 0.95897 0.03817 0.0
H564 H 0.03331 0.67721 0.07849 0.0
H565 H 0.05817 0.71834 0.99022 0.0
H566 H 0.0002 0.66614 0.0553 0.0
H567 H 0.025 0.70685 0.96685 0.0
H568 H 0.94889 0.67083 0.96579 0.0
H569 H 0.98235 0.69459 0.98689 0.0
H570 H -0.00243 0.6485 0.98506 0.0
H571 H 0.96435 0.62482 0.96439 0.0
C572 C 0.03168 0.68462 0.05528 0.0
C573 C 0.04831 0.69812 0.03556 0.0
C574 C 0.01277 0.67821 0.04191 0.0
C575 C 0.01033 0.6853 0.00884 0.0
C576 C 0.02665 0.70115 0.99229 0.0
C577 C 0.04563 0.70774 0.00589 0.0
C578 C 0.9597 0.66604 0.96832 0.0
C579 C 0.95407 0.64597 0.96397 0.0
C580 C 0.97868 0.67957 0.98077 0.0
C581 C 0.99206 0.67304 0.98856 0.0
C582 C 0.98719 0.65362 0.97994 0.0
C583 C 0.96832 0.64016 0.96775 0.0
H584 H 0.31905 0.26496 0.00248 0.0
H585 H 0.32795 0.30828 0.92166 0.0
H586 H 0.29187 0.26794 0.02751 0.0
H587 H 0.29997 0.31026 0.94539 0.0
H588 H 0.26055 0.3234 0.99879 0.0
H589 H 0.26333 0.29597 0.97434 0.0
H590 H 0.30682 0.30521 0.05475 0.0
H591 H 0.30475 0.33321 0.07828 0.0
C592 C 0.31447 0.27419 0.98858 0.0
C593 C 0.32627 0.28716 0.96114 0.0
C594 C 0.29879 0.27579 0.00299 0.0
C595 C 0.29418 0.28968 0.98895 0.0
C596 C 0.30331 0.29951 0.95691 0.0
C597 C 0.31941 0.2984 0.94325 0.0
C598 C 0.26991 0.31894 0.01258 0.0
C599 C 0.28291 0.33084 0.03981 0.0
C600 C 0.27145 0.30317 0.99846 0.0
C601 C 0.28552 0.29874 0.01221 0.0
C602 C 0.29584 0.30833 0.04359 0.0
C603 C 0.29472 0.32445 0.05707 0.0
H604 H 0.65608 0.94754 0.01257 0.0
H605 H 0.60999 0.95529 0.05992 0.0
H606 H 0.67323 0.98197 0.99317 0.0
H607 H 0.62768 0.99011 0.04292 0.0
H608 H 0.64302 0.03874 0.96757 0.0
H609 H 0.63033 0.00457 0.98623 0.0
H610 H 0.69025 0.01654 0.0023 0.0
H611 H 0.70279 0.05032 0.98132 0.0
C612 C 0.65028 0.957 0.02071 0.0
C613 C 0.63179 0.94895 0.0376 0.0
C614 C 0.65996 0.97667 0.0092 0.0
C615 C 0.65137 0.98856 0.01514 0.0
C616 C 0.63421 0.98108 0.03644 0.0
C617 C 0.62433 0.96132 0.04708 0.0
C618 C 0.6534 0.03373 0.97356 0.0
C619 C 0.6738 0.04701 0.973 0.0
C620 C 0.6462 0.01434 0.98515 0.0
C621 C 0.65928 0.00809 0.99736 0.0
C622 C 0.67975 0.02089 0.99345 0.0
C623 C 0.68696 0.04018 0.98099 0.0
H624 H 0.7069 0.66296 0.35138 0.0
H625 H 0.69438 0.70859 0.31761 0.0
H626 H 0.67312 0.63759 0.33495 0.0
H627 H 0.66105 0.68351 0.30141 0.0
H628 H 0.61017 0.64454 0.24996 0.0
H629 H 0.64566 0.6571 0.25351 0.0
H630 H 0.63751 0.62692 0.35439 0.0
H631 H 0.60199 0.61373 0.35009 0.0
C632 C 0.69686 0.66758 0.34113 0.0
C633 C 0.7033 0.68777 0.33562 0.0
C634 C 0.67767 0.65306 0.33126 0.0
C635 C 0.66478 0.65857 0.31555 0.0
C636 C 0.67094 0.67878 0.31203 0.0
C637 C 0.68993 0.69318 0.32195 0.0
C638 C 0.61582 0.63951 0.27162 0.0
C639 C 0.60355 0.62884 0.30039 0.0
C640 C 0.63615 0.64688 0.27391 0.0
C641 C 0.6443 0.64381 0.30518 0.0
C642 C 0.63162 0.62983 0.33032 0.0
C643 C 0.6112 0.62216 0.3277 0.0
H644 H 0.36781 0.9836 0.32662 0.0
H645 H 0.30906 0.93432 0.30925 0.0
H646 H 0.35433 0.00555 0.3341 0.0
H647 H 0.29552 0.95642 0.31405 0.0
H648 H 0.27234 0.9891 0.37308 0.0
H649 H 0.28981 0.97081 0.36447 0.0
H650 H 0.33813 0.02225 0.31394 0.0
H651 H 0.32111 0.04078 0.32526 0.0
C652 C 0.3521 0.97772 0.32243 0.0
C653 C 0.33937 0.95735 0.31761 0.0
C654 C 0.34433 0.99025 0.32707 0.0
C655 C 0.32375 0.98258 0.32613 0.0
C656 C 0.31136 0.96261 0.31663 0.0
C657 C 0.31909 0.95002 0.31299 0.0
C658 C 0.2871 0.99663 0.36168 0.0
C659 C 0.29558 0.01625 0.35013 0.0
C660 C 0.2969 0.98609 0.35583 0.0
C661 C 0.31501 0.99482 0.33713 0.0
C662 C 0.32419 0.01502 0.32824 0.0
C663 C 0.31457 0.02572 0.33504 0.0
H664 H 0.93809 0.27984 0.33317 0.0
H665 H -0.00181 0.30611 0.37159 0.0
H666 H 0.94381 0.31278 0.31672 0.0
H667 H 0.00356 0.33887 0.35646 0.0
H668 H 0.01568 0.37176 0.25452 0.0
H669 H 0.98985 0.33825 0.26933 0.0
H670 H 0.97328 0.36028 0.36097 0.0
H671 H -0.00165 0.39389 0.34541 0.0
C672 C 0.95211 0.29272 0.33999 0.0
C673 C 0.96778 0.29056 0.35349 0.0
C674 C 0.95537 0.31146 0.33032 0.0
C675 C 0.97411 0.32808 0.33516 0.0
C676 C 0.98897 0.32611 0.35263 0.0
C677 C 0.98589 0.30745 0.36145 0.0
C678 C 0.00558 0.36966 0.27622 0.0
C679 C 0.00951 0.38529 0.29958 0.0
C680 C 0.99079 0.35047 0.28472 0.0
C681 C 0.98006 0.34686 0.31671 0.0
C682 C 0.98143 0.36281 0.33619 0.0
C683 C -0.00413 0.38209 0.32714 0.0
H684 H 0.61507 0.95786 0.26324 0.0
H685 H 0.60188 0.98306 0.35482 0.0
H686 H 0.65032 0.9802 0.27283 0.0
H687 H 0.6372 0.00507 0.36489 0.0
H688 H 0.70882 0.04321 0.35665 0.0
H689 H 0.67386 0.0313 0.3424 0.0
H690 H 0.66425 0.97211 0.32983 0.0
H691 H 0.69881 0.98388 0.34382 0.0
C692 C 0.61967 0.96887 0.28424 0.0
C693 C 0.60584 0.96842 0.30877 0.0
C694 C 0.63982 0.98148 0.29002 0.0
C695 C 0.64634 0.99368 0.32047 0.0
C696 C 0.6325 0.99559 0.34151 0.0
C697 C 0.61225 0.98307 0.33549 0.0
C698 C 0.69901 0.02755 0.35205 0.0
C699 C 0.70645 0.01444 0.351 0.0
C700 C 0.67915 0.02084 0.34341 0.0
C701 C 0.6667 0.001 0.3336 0.0
C702 C 0.67379 0.98765 0.33597 0.0
C703 C 0.69346 0.9943 0.34454 0.0
H704 H 0.94411 0.66101 0.36506 0.0
H705 H 0.00511 0.70605 0.34825 0.0
H706 H 0.95234 0.63534 0.34925 0.0
H707 H 0.01315 0.6806 0.33259 0.0
H708 H 0.01961 0.6443 0.25843 0.0
H709 H -0.00327 0.65612 0.27194 0.0
H710 H 0.98189 0.62466 0.3724 0.0
H711 H 0.00432 0.61233 0.35862 0.0
C712 C 0.95935 0.66535 0.35924 0.0
C713 C 0.97398 0.6855 0.35742 0.0
C714 C 0.96394 0.65071 0.34976 0.0
C715 C 0.98314 0.65621 0.33843 0.0
C716 C -0.00193 0.67615 0.34015 0.0
C717 C 0.99355 0.69066 0.34955 0.0
C718 C 0.01048 0.63881 0.28222 0.0
C719 C 0.01424 0.62804 0.30803 0.0
C720 C -0.00251 0.64567 0.29008 0.0
C721 C 0.98825 0.64182 0.32375 0.0
C722 C 0.98904 0.62794 0.34644 0.0
C723 C 0.00187 0.62082 0.33835 0.0
H724 H 0.3954 0.39119 0.34543 0.0
H725 H 0.35519 0.36736 0.25593 0.0
H726 H 0.38962 0.35827 0.35947 0.0
H727 H 0.3502 0.33464 0.26908 0.0
H728 H 0.33129 0.27653 0.30799 0.0
H729 H 0.3607 0.30748 0.29133 0.0
H730 H 0.35032 0.33686 0.37951 0.0
H731 H 0.32039 0.3062 0.39521 0.0
C732 C 0.3864 0.37922 0.32719 0.0
C733 C 0.37504 0.38163 0.30046 0.0
C734 C 0.38314 0.36034 0.33535 0.0
C735 C 0.36906 0.34392 0.31599 0.0
C736 C 0.36104 0.34707 0.28462 0.0
C737 C 0.36386 0.36584 0.27707 0.0
C738 C 0.3358 0.28935 0.32496 0.0
C739 C 0.3233 0.28912 0.35244 0.0
C740 C 0.3527 0.30704 0.31535 0.0
C741 C 0.35764 0.32452 0.33389 0.0
C742 C 0.34689 0.32353 0.36487 0.0
C743 C 0.32967 0.30601 0.37379 0.0
H744 H 0.2952 0.01111 0.66832 0.0
H745 H 0.28336 0.95258 0.63917 0.0
H746 H 0.32882 0.02013 0.68475 0.0
H747 H 0.31734 0.96176 0.6558 0.0
H748 H 0.38958 0.00717 0.6523 0.0
H749 H 0.35436 0.98753 0.63916 0.0
H750 H 0.3411 0.00763 0.73744 0.0
H751 H 0.37635 0.02773 0.75019 0.0
C752 C 0.29993 0.00031 0.66468 0.0
C753 C 0.28662 0.9811 0.65283 0.0
C754 C 0.31906 0.00536 0.67465 0.0
C755 C 0.32533 0.99133 0.67293 0.0
C756 C 0.31267 0.97267 0.65802 0.0
C757 C 0.29337 0.96755 0.64806 0.0
C758 C 0.37914 0.00655 0.67215 0.0
C759 C 0.38565 0.01943 0.70178 0.0
C760 C 0.35895 0.99538 0.6644 0.0
C761 C 0.34519 0.99679 0.68657 0.0
C762 C 0.35156 0.00685 0.71939 0.0
C763 C 0.3717 0.01815 0.72694 0.0
H764 H 0.98885 0.38256 0.65936 0.0
H765 H 0.96391 0.34487 0.75184 0.0
H766 H 0.01072 0.36911 0.64953 0.0
H767 H 0.98628 0.33195 0.74267 0.0
H768 H 0.98258 0.28518 0.66443 0.0
H769 H 0.9745 0.3104 0.68158 0.0
H770 H 0.03598 0.35546 0.67243 0.0
H771 H 0.04422 0.32998 0.65512 0.0
C772 C 0.98899 0.37245 0.6791 0.0
C773 C 0.97409 0.36401 0.70541 0.0
C774 C 0.00149 0.36468 0.67326 0.0
C775 C -0.00057 0.34892 0.69443 0.0
C776 C 0.98765 0.34376 0.72543 0.0
C777 C 0.975 0.35129 0.73093 0.0
C778 C 0.99431 0.30051 0.66509 0.0
C779 C 0.014 0.30562 0.65872 0.0
C780 C 0.98976 0.31489 0.6755 0.0
C781 C 0.0048 0.33466 0.67977 0.0
C782 C 0.02426 0.3402 0.67003 0.0
C783 C 0.02886 0.3257 0.65959 0.0
H784 H 0.65709 0.70499 0.66616 0.0
H785 H 0.70274 0.68903 0.66678 0.0
H786 H 0.63256 0.67107 0.68415 0.0
H787 H 0.67848 0.65553 0.68461 0.0
H788 H 0.64745 0.60931 0.75245 0.0
H789 H 0.65885 0.64451 0.74736 0.0
H790 H 0.6187 0.63281 0.65935 0.0
H791 H 0.60672 0.59754 0.6653 0.0
C792 C 0.66172 0.69408 0.66889 0.0
C793 C 0.68181 0.69958 0.66536 0.0
C794 C 0.64778 0.67485 0.67977 0.0
C795 C 0.65391 0.66111 0.6873 0.0
C796 C 0.67359 0.66617 0.68037 0.0
C797 C 0.68739 0.68519 0.66952 0.0
C798 C 0.64001 0.61408 0.73381 0.0
C799 C 0.62693 0.60092 0.70819 0.0
C800 C 0.64668 0.63425 0.73061 0.0
C801 C 0.6403 0.64124 0.70177 0.0
C802 C 0.62408 0.62773 0.68135 0.0
C803 C 0.61715 0.60747 0.68498 0.0
H804 H 0.36962 0.34657 0.74163 0.0
H805 H 0.39307 0.38623 0.65121 0.0
H806 H 0.33654 0.34049 0.72729 0.0
H807 H 0.35978 0.3791 0.63578 0.0
H808 H 0.27945 0.33968 0.67119 0.0
H809 H 0.31373 0.36449 0.68609 0.0
H810 H 0.334 0.32758 0.63776 0.0
H811 H 0.29981 0.30243 0.62451 0.0
C812 C 0.36791 0.35481 0.71992 0.0
C813 C 0.38376 0.36625 0.69675 0.0
C814 C 0.34898 0.35132 0.71169 0.0
C815 C 0.34576 0.35905 0.68009 0.0
C816 C 0.362 0.37302 0.66029 0.0
C817 C 0.38105 0.377 0.66916 0.0
C818 C 0.29136 0.33736 0.66227 0.0
C819 C 0.28717 0.31927 0.64661 0.0
C820 C 0.31087 0.35148 0.67097 0.0
C821 C 0.32627 0.3478 0.66297 0.0
C822 C 0.32223 0.33068 0.64385 0.0
C823 C 0.30276 0.31636 0.63616 0.0
H824 H 0.67432 0.95697 0.67683 0.0
H825 H 0.72385 0.00898 0.63154 0.0
H826 H 0.65806 0.97587 0.69054 0.0
H827 H 0.70701 0.02774 0.64214 0.0
H828 H 0.68623 0.0638 0.69567 0.0
H829 H 0.70054 0.04239 0.69 0.0
H830 H 0.64196 0.99219 0.67273 0.0
H831 H 0.62783 0.01335 0.6816 0.0
C832 C 0.6812 0.97227 0.66816 0.0
C833 C 0.70011 0.9816 0.65281 0.0
C834 C 0.672 0.98318 0.67628 0.0
C835 C 0.68141 0.00353 0.66835 0.0
C836 C 0.69965 0.01233 0.65002 0.0
C837 C 0.7091 0.00153 0.64299 0.0
C838 C 0.67648 0.04801 0.69233 0.0
C839 C 0.65603 0.04014 0.68913 0.0
C840 C 0.68463 0.03579 0.68816 0.0
C841 C 0.67249 0.01566 0.67939 0.0
C842 C 0.65184 0.00756 0.6794 0.0
C843 C 0.64367 0.01968 0.68477 0.0
H844 H 0.98413 0.69632 0.66642 0.0
H845 H 0.04427 0.70858 0.65381 0.0
H846 H 0.97357 0.662 0.68042 0.0
H847 H 0.03355 0.67386 0.66801 0.0
H848 H 0.98325 0.60144 0.65061 0.0
H849 H 0.00682 0.63659 0.64358 0.0
H850 H 0.98348 0.64899 0.73863 0.0
H851 H 0.95942 0.61391 0.74503 0.0
C852 C 0.99498 0.6915 0.66567 0.0
C853 C 0.01499 0.70506 0.65933 0.0
C854 C 0.98903 0.672 0.67432 0.0
C855 C 0.00297 0.66565 0.67685 0.0
C856 C 0.02268 0.67862 0.667 0.0
C857 C 0.02869 0.69832 0.6583 0.0
C858 C 0.98397 0.61149 0.67136 0.0
C859 C 0.96904 0.60517 0.69759 0.0
C860 C -0.00257 0.63167 0.66711 0.0
C861 C -0.00377 0.64538 0.68966 0.0
C862 C 0.9842 0.63858 0.72033 0.0
C863 C 0.97058 0.6185 0.72426 0.0
H864 H 0.25121 0.41997 0.97613 0.0
H865 H 0.2114 0.35725 0.99015 0.0
H866 H 0.22328 0.42413 0.95852 0.0
H867 H 0.1837 0.36139 0.9739 0.0
H868 H 0.13491 0.36707 0.94023 0.0
H869 H 0.16654 0.36871 0.92983 0.0
H870 H 0.19607 0.42312 0.99054 0.0
H871 H 0.1645 0.42196 0.99898 0.0
C872 C 0.23653 0.40708 0.97523 0.0
C873 C 0.23341 0.38832 0.98497 0.0
C874 C 0.22057 0.40945 0.96512 0.0
C875 C 0.20124 0.39312 0.96474 0.0
C876 C 0.19838 0.37427 0.9731 0.0
C877 C 0.21427 0.37191 0.98294 0.0
C878 C 0.1483 0.37969 0.95027 0.0
C879 C 0.14737 0.39414 0.97109 0.0
C880 C 0.16639 0.38061 0.94449 0.0
C881 C 0.18372 0.39566 0.96044 0.0
C882 C 0.18302 0.41129 0.97792 0.0
C883 C 0.16493 0.4106 0.98296 0.0
H884 H 0.63973 0.78044 1.00043 0.0
H885 H 0.58087 0.74489 0.95732 0.0
H886 H 0.6392 0.8102 0.98509 0.0
H887 H 0.58067 0.77494 0.93964 0.0
H888 H 0.57439 0.82625 0.98954 0.0
H889 H 0.57616 0.79701 0.97431 0.0
H890 H 0.63838 0.83382 0.949 0.0
H891 H 0.63668 0.86303 0.96691 0.0
C892 C 0.62686 0.77903 0.98667 0.0
C893 C 0.61009 0.76044 0.98109 0.0
C894 C 0.62663 0.79617 0.97733 0.0
C895 C 0.60971 0.79507 0.96166 0.0
C896 C 0.59371 0.77634 0.95267 0.0
C897 C 0.5938 0.75914 0.96274 0.0
C898 C 0.58835 0.82806 0.98021 0.0
C899 C 0.60555 0.84666 0.98055 0.0
C900 C 0.58937 0.8113 0.97095 0.0
C901 C 0.60756 0.81294 0.96117 0.0
C902 C 0.62429 0.83194 0.95763 0.0
C903 C 0.62336 0.84865 0.96786 0.0
H904 H 0.13695 0.77404 0.95464 0.0
H905 H 0.17404 0.74982 0.9848 0.0
H906 H 0.16631 0.80584 0.94199 0.0
H907 H 0.20333 0.78168 0.97343 0.0
H908 H 0.25464 0.84004 0.95587 0.0
H909 H 0.22548 0.80944 0.93683 0.0
H910 H 0.18793 0.82891 0.98606 0.0
H911 H 0.21693 0.85956 0.00399 0.0
C912 C 0.1514 0.77546 0.95805 0.0
C913 C 0.15332 0.75973 0.97168 0.0
C914 C 0.16818 0.79363 0.95076 0.0
C915 C 0.18712 0.79641 0.95749 0.0
C916 C 0.18898 0.78006 0.96781 0.0
C917 C 0.17219 0.76182 0.9747 0.0
C918 C 0.24011 0.83788 0.96199 0.0
C919 C 0.23797 0.85188 0.98219 0.0
C920 C 0.22344 0.8204 0.95103 0.0
C921 C 0.20441 0.81661 0.96036 0.0
C922 C 0.20235 0.83139 0.97808 0.0
C923 C 0.21898 0.8489 0.98879 0.0
H924 H 0.35658 0.22728 0.05669 0.0
H925 H 0.41645 0.2585 0.01635 0.0
H926 H 0.35874 0.19732 0.06317 0.0
H927 H 0.41837 0.22839 0.02104 0.0
H928 H 0.41795 0.17127 0.03331 0.0
H929 H 0.41815 0.20144 0.05142 0.0
H930 H 0.35733 0.17591 0.01681 0.0
H931 H 0.35696 0.14566 1.00018 0.0
C932 C 0.37034 0.22779 0.04991 0.0
C933 C 0.38621 0.24498 0.03533 0.0
C934 C 0.37155 0.21063 0.05337 0.0
C935 C 0.38848 0.21028 0.04153 0.0
C936 C 0.40508 0.22809 0.0304 0.0
C937 C 0.40399 0.24537 0.02759 0.0
C938 C 0.4046 0.17212 0.02986 0.0
C939 C 0.3875 0.15626 0.01496 0.0
C940 C 0.40472 0.18937 0.04028 0.0
C941 C 0.38778 0.19113 0.03563 0.0
C942 C 0.37053 0.17497 0.02155 0.0
C943 C 0.37037 0.15768 0.01154 0.0
H944 H 0.8613 0.21678 0.03391 0.0
H945 H 0.83092 0.24797 0.00246 0.0
H946 H 0.8296 0.1874 0.04721 0.0
H947 H 0.79928 0.2185 0.01449 0.0
H948 H 0.7436 0.16467 0.04226 0.0
H949 H 0.77569 0.19378 0.05474 0.0
H950 H 0.80488 0.16477 0.00643 0.0
H951 H 0.773 0.13566 0.99505 0.0
C952 C 0.84784 0.21739 0.03017 0.0
C953 C 0.84847 0.23445 0.01641 0.0
C954 C 0.82972 0.2006 0.03779 0.0
C955 C 0.81193 0.20052 0.03137 0.0
C956 C 0.8127 0.21809 0.02004 0.0
C957 C 0.83083 0.23494 0.01277 0.0
C958 C 0.75692 0.16445 0.0349 0.0
C959 C 0.75586 0.14812 0.017 0.0
C960 C 0.77527 0.18109 0.04204 0.0
C961 C 0.79281 0.18169 0.03118 0.0
C962 C 0.79169 0.16477 0.0155 0.0
C963 C 0.77338 0.14813 0.00859 0.0
H964 H 0.86624 0.64911 0.02011 0.0
H965 H 0.8298 0.58607 0.00443 0.0
H966 H 0.83673 0.65144 0.03226 0.0
H967 H 0.80031 0.58841 0.01473 0.0
H968 H 0.7483 0.59475 0.02995 0.0
H969 H 0.77847 0.59502 0.04825 0.0
H970 H 0.81329 0.64985 0.99035 0.0
H971 H 0.78332 0.64992 0.97356 0.0
C972 C 0.8519 0.63574 0.01965 0.0
C973 C 0.85013 0.61751 0.01036 0.0
C974 C 0.83502 0.63705 0.02659 0.0
C975 C 0.81612 0.62021 0.02356 0.0
C976 C 0.81459 0.60169 0.01747 0.0
C977 C 0.83149 0.60034 0.01117 0.0
C978 C 0.76247 0.60699 0.02169 0.0
C979 C 0.76354 0.62207 0.99964 0.0
C980 C 0.77973 0.60716 0.0322 0.0
C981 C 0.7983 0.62228 0.02036 0.0
C982 C 0.79931 0.63806 1.00037 0.0
C983 C 0.78209 0.638 0.9903 0.0
H984 H 0.82875 0.74843 0.31593 0.0
H985 H 0.79455 0.68549 0.29678 0.0
H986 H 0.85915 0.74738 0.30894 0.0
H987 H 0.82504 0.6845 0.28794 0.0
H988 H 0.8791 0.68654 0.34323 0.0
H989 H 0.84866 0.68642 0.32967 0.0
H990 H 0.88207 0.74257 0.27505 0.0
H991 H 0.91275 0.74302 0.29016 0.0
C992 C 0.82777 0.73444 0.30928 0.0
C993 C 0.80938 0.71695 0.30776 0.0
C994 C 0.84521 0.73385 0.30491 0.0
C995 C 0.84457 0.71578 0.29842 0.0
C996 C 0.82606 0.69857 0.29386 0.0
C997 C 0.8086 0.69912 0.29884 0.0
C998 C 0.87993 0.69876 0.328 0.0
C999 C 0.89826 0.71497 0.31836 0.0
C1000 C 0.86244 0.6986 0.31981 0.0
C1001 C 0.86289 0.71455 0.3014 0.0
C1002 C 0.88123 0.73023 0.28985 0.0
C1003 C 0.89878 0.73049 0.29847 0.0
H1004 H 0.23899 0.16555 0.30637 0.0
H1005 H 0.29962 0.19822 0.27009 0.0
H1006 H 0.23907 0.1346 0.29784 0.0
H1007 H 0.29955 0.16731 0.26032 0.0
H1008 H 0.30132 0.11491 0.31583 0.0
H1009 H 0.30051 0.14508 0.30369 0.0
H1010 H 0.24152 0.11062 0.26018 0.0
H1011 H 0.24218 0.08028 0.27323 0.0
C1012 C 0.25213 0.16606 0.29556 0.0
C1013 C 0.26943 0.18423 0.28963 0.0
C1014 C 0.25217 0.14833 0.29047 0.0
C1015 C 0.26946 0.14852 0.27902 0.0
C1016 C 0.28617 0.16669 0.27003 0.0
C1017 C 0.28619 0.18438 0.27552 0.0
C1018 C 0.2883 0.11377 0.30319 0.0
C1019 C 0.27171 0.09525 0.296 0.0
C1020 C 0.28787 0.13109 0.2959 0.0
C1021 C 0.27088 0.13026 0.28112 0.0
C1022 C 0.25471 0.11174 0.27205 0.0
C1023 C 0.25512 0.09438 0.27944 0.0
H1024 H 0.82455 0.08066 0.28286 0.0
H1025 H 0.8013 0.11316 0.33873 0.0
H1026 H 0.85457 0.11165 0.2685 0.0
H1027 H 0.83143 0.14393 0.32579 0.0
H1028 H 0.88346 0.19853 0.29369 0.0
H1029 H 0.85249 0.16783 0.28339 0.0
H1030 H 0.8823 0.13452 0.30295 0.0
H1031 H 0.91333 0.16523 0.31146 0.0
C1032 C 0.82584 0.09445 0.29191 0.0
C1033 C 0.81078 0.09456 0.31233 0.0
C1034 C 0.84301 0.11217 0.28371 0.0
C1035 C 0.84546 0.13026 0.29614 0.0
C1036 C 0.82994 0.13033 0.31522 0.0
C1037 C 0.81272 0.11266 0.32303 0.0
C1038 C 0.88339 0.18462 0.29504 0.0
C1039 C 0.90055 0.18411 0.30424 0.0
C1040 C 0.86569 0.16706 0.28923 0.0
C1041 C 0.86482 0.14872 0.29324 0.0
C1042 C 0.88242 0.14837 0.29951 0.0
C1043 C 0.9002 0.16596 0.3047 0.0
H1044 H 0.02914 0.47609 0.3777 0.0
H1045 H 0.09114 0.49944 0.40097 0.0
H1046 H 0.03222 0.50764 0.39211 0.0
H1047 H 0.09416 0.53121 0.4171 0.0
H1048 H 0.09524 0.58754 0.36885 0.0
H1049 H 0.09508 0.55689 0.38181 0.0
H1050 H 0.03739 0.53316 0.43108 0.0
H1051 H 0.03717 0.56345 0.41587 0.0
C1052 C 0.04337 0.48787 0.38682 0.0
C1053 C 0.06001 0.48545 0.3874 0.0
C1054 C 0.04511 0.50601 0.39559 0.0
C1055 C 0.06352 0.52215 0.4055 0.0
C1056 C 0.07985 0.51922 0.40889 0.0
C1057 C 0.07813 0.50102 0.39977 0.0
C1058 C 0.08275 0.5759 0.38315 0.0
C1059 C 0.06599 0.5775 0.39049 0.0
C1060 C 0.08269 0.55835 0.39091 0.0
C1061 C 0.06598 0.5423 0.40671 0.0
C1062 C 0.05021 0.54496 0.4178 0.0
C1063 C 0.05008 0.56229 0.40922 0.0
H1064 H 0.48415 0.58417 0.3761 0.0
H1065 H 0.52069 0.56193 0.41873 0.0
H1066 H 0.45465 0.55265 0.38893 0.0
H1067 H 0.49118 0.53076 0.43406 0.0
H1068 H 0.40307 0.49377 0.40533 0.0
H1069 H 0.43085 0.52587 0.42284 0.0
H1070 H 0.47139 0.50526 0.39515 0.0
H1071 H 0.44386 0.47333 0.37951 0.0
C1072 C 0.48576 0.57273 0.38951 0.0
C1073 C 0.50456 0.57512 0.39556 0.0
C1074 C 0.46884 0.55467 0.39719 0.0
C1075 C 0.47051 0.53888 0.41168 0.0
C1076 C 0.48936 0.54232 0.42172 0.0
C1077 C 0.50626 0.56016 0.41312 0.0
C1078 C 0.41794 0.49606 0.40383 0.0
C1079 C 0.42136 0.48123 0.39034 0.0
C1080 C 0.43386 0.51445 0.41375 0.0
C1081 C 0.45344 0.51835 0.40994 0.0
C1082 C 0.4566 0.50289 0.39896 0.0
C1083 C 0.44075 0.48453 0.38948 0.0
H1084 H 0.40342 0.91087 0.42204 0.0
H1085 H 0.43623 0.9655 0.36294 0.0
H1086 H 0.43424 0.91133 0.43576 0.0
H1087 H 0.46673 0.9656 0.37529 0.0
H1088 H 0.52063 0.96416 0.39656 0.0
H1089 H 0.49192 0.96712 0.4128 0.0
H1090 H 0.45409 0.90413 0.39698 0.0
H1091 H 0.48283 0.90115 0.3824 0.0
C1092 C 0.41724 0.92313 0.41248 0.0
C1093 C 0.41743 0.93788 0.39066 0.0
C1094 C 0.43487 0.92337 0.42026 0.0
C1095 C 0.45291 0.93826 0.40602 0.0
C1096 C 0.45318 0.95395 0.38694 0.0
C1097 C 0.43562 0.95379 0.37948 0.0
C1098 C 0.50618 0.95093 0.39721 0.0
C1099 C 0.5038 0.9325 0.38741 0.0
C1100 C 0.48976 0.95261 0.40655 0.0
C1101 C 0.47066 0.93594 0.40559 0.0
C1102 C 0.46856 0.91728 0.39836 0.0
C1103 C 0.48502 0.91557 0.38957 0.0
H1104 H 0.58787 0.08022 0.58251 0.0
H1105 H 0.55672 0.02575 0.64257 0.0
H1106 H 0.55645 0.0783 0.56811 0.0
H1107 H 0.52555 0.02418 0.62951 0.0
H1108 H 0.47085 0.02444 0.6118 0.0
H1109 H 0.49955 0.02202 0.59311 0.0
H1110 H 0.53681 0.08515 0.608 0.0
H1111 H 0.50814 0.08758 0.6252 0.0
C1112 C 0.57428 0.06766 0.59208 0.0
C1113 C 0.57471 0.05345 0.61455 0.0
C1114 C 0.5563 0.06656 0.58387 0.0
C1115 C 0.53852 0.05138 0.59841 0.0
C1116 C 0.53889 0.03608 0.61773 0.0
C1117 C 0.55683 0.03707 0.62559 0.0
C1118 C 0.48515 0.03782 0.61037 0.0
C1119 C 0.48742 0.05612 0.62087 0.0
C1120 C 0.50157 0.03644 0.59961 0.0
C1121 C 0.52055 0.05331 0.59966 0.0
C1122 C 0.52244 0.07185 0.60731 0.0
C1123 C 0.50601 0.07324 0.61766 0.0
H1124 H 0.96133 0.44241 0.62985 0.0
H1125 H 0.90212 0.40435 0.59006 0.0
H1126 H 0.95899 0.47122 0.61401 0.0
H1127 H 0.89998 0.43342 0.57259 0.0
H1128 H 0.89411 0.48679 0.61659 0.0
H1129 H 0.89578 0.45686 0.60598 0.0
H1130 H 0.95682 0.49256 0.57255 0.0
H1131 H 0.95533 0.52242 0.58543 0.0
C1132 C 0.94797 0.44021 0.61684 0.0
C1133 C 0.93176 0.42116 0.61188 0.0
C1134 C 0.94667 0.45679 0.60731 0.0
C1135 C 0.9292 0.4547 0.5922 0.0
C1136 C 0.91351 0.43556 0.58478 0.0
C1137 C 0.91474 0.41892 0.5947 0.0
C1138 C 0.9077 0.48814 0.60613 0.0
C1139 C 0.92473 0.50676 0.60267 0.0
C1140 C 0.90867 0.471 0.59979 0.0
C1141 C 0.92662 0.47229 0.58927 0.0
C1142 C 0.94296 0.49104 0.58179 0.0
C1143 C 0.94211 0.50813 0.58897 0.0
H1144 H 0.5866 0.49113 0.58517 0.0
H1145 H 0.54984 0.51482 0.62053 0.0
H1146 H 0.55696 0.45966 0.57114 0.0
H1147 H 0.52051 0.48355 0.60775 0.0
H1148 H 0.46845 0.42818 0.58637 0.0
H1149 H 0.49846 0.45831 0.5687 0.0
H1150 H 0.53374 0.43412 0.61007 0.0
H1151 H 0.50364 0.40364 0.62592 0.0
C1152 C 0.57221 0.48973 0.58933 0.0
C1153 C 0.5705 0.50526 0.60464 0.0
C1154 C 0.55524 0.4717 0.58141 0.0
C1155 C 0.53633 0.46894 0.58873 0.0
C1156 C 0.53476 0.4851 0.60134 0.0
C1157 C 0.55164 0.50305 0.60911 0.0
C1158 C 0.48266 0.42917 0.59076 0.0
C1159 C 0.48387 0.41389 0.60824 0.0
C1160 C 0.49983 0.44641 0.58071 0.0
C1161 C 0.51853 0.44888 0.58886 0.0
C1162 C 0.51962 0.43275 0.60326 0.0
C1163 C 0.50238 0.41532 0.61264 0.0
H1164 H 0.74061 0.90837 0.7304 0.0
H1165 H 0.68819 0.87857 0.66477 0.0
H1166 H 0.73728 0.87655 0.74657 0.0
H1167 H 0.68531 0.84688 0.67941 0.0
H1168 H 0.67972 0.79057 0.71262 0.0
H1169 H 0.67941 0.82147 0.72062 0.0
H1170 H 0.74335 0.854 0.71482 0.0
H1171 H 0.7436 0.8232 0.70857 0.0
C1172 C 0.72835 0.89498 0.71953 0.0
C1173 C 0.71487 0.89588 0.69581 0.0
C1174 C 0.72643 0.87677 0.72876 0.0
C1175 C 0.71118 0.85914 0.71395 0.0
C1176 C 0.6971 0.86008 0.69173 0.0
C1177 C 0.69885 0.87827 0.68296 0.0
C1178 C 0.69368 0.80434 0.71386 0.0
C1179 C 0.71166 0.80458 0.70928 0.0
C1180 C 0.69352 0.82203 0.7183 0.0
C1181 C 0.71133 0.84027 0.71764 0.0
C1182 C 0.72935 0.84028 0.71575 0.0
C1183 C 0.7295 0.82259 0.71185 0.0
H1184 H 0.08256 0.82313 0.73162 0.0
H1185 H 0.11281 0.79894 0.67128 0.0
H1186 H 0.11367 0.85422 0.73841 0.0
H1187 H 0.14357 0.83008 0.67649 0.0
H1188 H 0.19904 0.88602 0.6952 0.0
H1189 H 0.1701 0.85426 0.71009 0.0
H1190 H 0.13292 0.88053 0.69881 0.0
H1191 H 0.16196 0.91234 0.68582 0.0
C1192 C 0.0959 0.82442 0.72011 0.0
C1193 C 0.09524 0.80877 0.70044 0.0
C1194 C 0.1137 0.84224 0.72383 0.0
C1195 C 0.13111 0.84482 0.70751 0.0
C1196 C 0.13057 0.82865 0.68977 0.0
C1197 C 0.11286 0.81079 0.68649 0.0
C1198 C 0.18467 0.88497 0.69636 0.0
C1199 C 0.18263 0.90148 0.68878 0.0
C1200 C 0.16809 0.8668 0.70483 0.0
C1201 C 0.1491 0.86472 0.70519 0.0
C1202 C 0.14728 0.88157 0.69926 0.0
C1203 C 0.16391 0.89979 0.69142 0.0
H1204 H 0.19448 0.30879 0.71695 0.0
H1205 H 0.16306 0.24697 0.68807 0.0
H1206 H 0.16313 0.30749 0.72904 0.0
H1207 H 0.13166 0.24581 0.69811 0.0
H1208 H 0.10852 0.30619 0.67924 0.0
H1209 H 0.13939 0.30671 0.68961 0.0
H1210 H 0.1073 0.24752 0.73349 0.0
H1211 H 0.0761 0.24677 0.72158 0.0
C1212 C 0.18083 0.29488 0.71353 0.0
C1213 C 0.18111 0.27809 0.70094 0.0
C1214 C 0.16286 0.29412 0.72027 0.0
C1215 C 0.14479 0.27669 0.71366 0.0
C1216 C 0.14521 0.25949 0.70368 0.0
C1217 C 0.16322 0.26016 0.69766 0.0
C1218 C 0.10802 0.29335 0.6915 0.0
C1219 C 0.08988 0.27633 0.69907 0.0
C1220 C 0.1258 0.29371 0.69785 0.0
C1221 C 0.12593 0.27712 0.71233 0.0
C1222 C 0.10776 0.26044 0.72177 0.0
C1223 C 0.08989 0.26002 0.71506 0.0
H1224 H 0.07866 0.46109 0.23462 0.0
H1225 H 0.08829 0.41702 0.28618 0.0
H1226 H 0.08653 0.45227 0.17685 0.0
H1227 H 0.09533 0.40758 0.2283 0.0
H1228 H 0.12076 0.40396 0.122 0.0
H1229 H 0.11762 0.41694 0.17936 0.0
H1230 H 0.07112 0.42554 0.13563 0.0
H1231 H 0.07487 0.41326 0.07783 0.0
C1232 C 0.08257 0.44958 0.23362 0.0
C1233 C 0.08269 0.43962 0.26487 0.0
C1234 C 0.0869 0.4444 0.20046 0.0
C1235 C 0.0913 0.42902 0.1978 0.0
C1236 C 0.09219 0.41961 0.22934 0.0
C1237 C 0.08806 0.42495 0.26256 0.0
C1238 C 0.10993 0.40871 0.12464 0.0
C1239 C 0.098 0.40755 0.09552 0.0
C1240 C 0.10807 0.41607 0.15757 0.0
C1241 C 0.09408 0.42224 0.16222 0.0
C1242 C 0.08228 0.42124 0.13288 0.0
C1243 C 0.0843 0.41406 0.0998 0.0
H1244 H 0.52656 0.61821 0.2425 0.0
H1245 H 0.57044 0.67222 0.29313 0.0
H1246 H 0.5347 0.63476 0.18461 0.0
H1247 H 0.57939 0.68854 0.2351 0.0
H1248 H 0.5732 0.66208 0.08453 0.0
H1249 H 0.56029 0.64594 0.14204 0.0
H1250 H 0.57064 0.70153 0.18649 0.0
H1251 H 0.58443 0.71772 0.12954 0.0
C1252 C 0.5379 0.63367 0.24126 0.0
C1253 C 0.548 0.64387 0.2723 0.0
C1254 C 0.54271 0.64312 0.208 0.0
C1255 C 0.55791 0.66294 0.20494 0.0
C1256 C 0.56744 0.67335 0.23633 0.0
C1257 C 0.56241 0.66396 0.26968 0.0
C1258 C 0.57255 0.67076 0.10656 0.0
C1259 C 0.57998 0.69116 0.10271 0.0
C1260 C 0.56503 0.66151 0.13953 0.0
C1261 C 0.5645 0.67243 0.16914 0.0
C1262 C 0.57122 0.69271 0.16463 0.0
C1263 C 0.57901 0.70198 0.13189 0.0
H1264 H 0.27879 0.86064 0.12248 0.0
H1265 H 0.33665 0.9074 0.09043 0.0
H1266 H 0.29189 0.85902 0.1808 0.0
H1267 H 0.34967 0.90626 0.14912 0.0
H1268 H 0.37183 0.89861 0.25302 0.0
H1269 H 0.35806 0.8892 0.19291 0.0
H1270 H 0.30189 0.87994 0.23202 0.0
H1271 H 0.31548 0.88878 0.29203 0.0
C1272 C 0.29438 0.87045 0.1278 0.0
C1273 C 0.30665 0.88434 0.10206 0.0
C1274 C 0.30187 0.86957 0.16129 0.0
C1275 C 0.32178 0.88266 0.16994 0.0
C1276 C 0.3343 0.89578 0.14337 0.0
C1277 C 0.32683 0.89655 0.10972 0.0
C1278 C 0.35637 0.89399 0.24893 0.0
C1279 C 0.34482 0.89468 0.2772 0.0
C1280 C 0.34853 0.88878 0.2144 0.0
C1281 C 0.32898 0.8842 0.20739 0.0
C1282 C 0.31697 0.88326 0.23634 0.0
C1283 C 0.32478 0.88837 0.27089 0.0
H1284 H 0.43675 0.10334 0.93639 0.0
H1285 H 0.39148 0.1059 0.87401 0.0
H1286 H 0.45047 0.09776 0.88132 0.0
H1287 H 0.40444 0.09962 0.81992 0.0
H1288 H 0.43946 0.10516 0.72283 0.0
H1289 H 0.43099 0.11457 0.77949 0.0
H1290 H 0.44407 0.07392 0.8355 0.0
H1291 H 0.45338 0.06524 0.77901 0.0
C1292 C 0.42969 0.10259 0.91102 0.0
C1293 C 0.41318 0.10524 0.90948 0.0
C1294 C 0.43748 0.09935 0.87948 0.0
C1295 C 0.42875 0.09851 0.84598 0.0
C1296 C 0.41198 0.10077 0.84491 0.0
C1297 C 0.40441 0.10421 0.87611 0.0
C1298 C 0.44079 0.09847 0.74732 0.0
C1299 C 0.44693 0.08436 0.74642 0.0
C1300 C 0.43578 0.10371 0.77983 0.0
C1301 C 0.43649 0.09475 0.81214 0.0
C1302 C 0.44345 0.08124 0.81131 0.0
C1303 C 0.44869 0.07618 0.77882 0.0
H1304 H 0.89475 0.32499 0.92251 0.0
H1305 H 0.8992 0.27946 0.86486 0.0
H1306 H 0.89451 0.34054 0.86613 0.0
H1307 H 0.90043 0.29565 0.80841 0.0
H1308 H 0.89022 0.32114 0.70838 0.0
H1309 H 0.88401 0.30343 0.76523 0.0
H1310 H 0.91501 0.35945 0.82098 0.0
H1311 H 0.91989 0.37676 0.7651 0.0
C1312 C 0.89599 0.31851 0.89769 0.0
C1313 C 0.89714 0.30114 0.89796 0.0
C1314 C 0.89593 0.32743 0.86528 0.0
C1315 C 0.89758 0.3195 0.83239 0.0
C1316 C 0.89873 0.30205 0.83292 0.0
C1317 C 0.89828 0.29286 0.86532 0.0
C1318 C 0.89527 0.32955 0.73298 0.0
C1319 C 0.90554 0.35031 0.73222 0.0
C1320 C 0.89196 0.31945 0.76558 0.0
C1321 C 0.89917 0.32994 0.79797 0.0
C1322 C 0.90887 0.35072 0.79699 0.0
C1323 C 0.91181 0.36073 0.76468 0.0
H1324 H 0.71925 0.59064 0.85968 0.0
H1325 H 0.66163 0.57452 0.90223 0.0
H1326 H 0.70408 0.5743 0.80339 0.0
H1327 H 0.64649 0.55876 0.84568 0.0
H1328 H 0.621 0.52293 0.74841 0.0
H1329 H 0.63842 0.53221 0.80536 0.0
H1330 H 0.689 0.58057 0.75335 0.0
H1331 H 0.67184 0.57068 0.69608 0.0
C1332 C 0.70332 0.5835 0.85706 0.0
C1333 C 0.69164 0.584 0.88527 0.0
C1334 C 0.69463 0.57422 0.82472 0.0
C1335 C 0.67407 0.5653 0.81981 0.0
C1336 C 0.66234 0.5652 0.8486 0.0
C1337 C 0.67102 0.57435 0.88102 0.0
C1338 C 0.63602 0.53528 0.74899 0.0
C1339 C 0.64489 0.54635 0.71788 0.0
C1340 C 0.64594 0.54072 0.78173 0.0
C1341 C 0.66494 0.55744 0.78419 0.0
C1342 C 0.6744 0.56758 0.75253 0.0
C1343 C 0.66453 0.56198 0.71963 0.0
H1344 H 0.86592 0.5912 0.86826 0.0
H1345 H 0.90677 0.57372 0.90881 0.0
H1346 H 0.86598 0.57708 0.81007 0.0
H1347 H 0.90741 0.56022 0.85044 0.0
H1348 H 0.89745 0.52654 0.74989 0.0
H1349 H 0.88972 0.53501 0.80798 0.0
H1350 H 0.88743 0.5843 0.76005 0.0
H1351 H 0.89428 0.57517 0.70149 0.0
C1352 C 0.87485 0.58425 0.86477 0.0
C1353 C 0.88641 0.58364 0.89309 0.0
C1354 C 0.87498 0.57626 0.83133 0.0
C1355 C 0.88677 0.56757 0.82535 0.0
C1356 C 0.89789 0.56649 0.85409 0.0
C1357 C 0.89763 0.57433 0.8876 0.0
C1358 C 0.89493 0.53898 0.75163 0.0
C1359 C 0.8968 0.5504 0.7212 0.0
C1360 C 0.89068 0.54395 0.78505 0.0
C1361 C 0.88839 0.56061 0.78899 0.0
C1362 C 0.88903 0.57131 0.7581 0.0
C1363 C 0.89304 0.56615 0.72447 0.0
H1364 H 0.4088 0.33701 0.92552 0.0
H1365 H 0.40264 0.28161 0.88942 0.0
H1366 H 0.42216 0.35169 0.86703 0.0
H1367 H 0.41665 0.29636 0.83173 0.0
H1368 H 0.4589 0.37716 0.76738 0.0
H1369 H 0.44957 0.36266 0.82694 0.0
H1370 H 0.40691 0.30674 0.77986 0.0
H1371 H 0.41683 0.32107 0.72037 0.0
C1372 C 0.41057 0.32809 0.90525 0.0
C1373 C 0.40452 0.30815 0.91182 0.0
C1374 C 0.41833 0.33649 0.87182 0.0
C1375 C 0.42037 0.32515 0.84455 0.0
C1376 C 0.41489 0.3054 0.85177 0.0
C1377 C 0.40695 0.29697 0.88493 0.0
C1378 C 0.44773 0.36168 0.76978 0.0
C1379 C 0.4385 0.35026 0.73923 0.0
C1380 C 0.44226 0.35343 0.80393 0.0
C1381 C 0.42735 0.33359 0.80827 0.0
C1382 C 0.41862 0.32201 0.77756 0.0
C1383 C 0.42423 0.33023 0.7434 0.0
H1384 H 0.65234 0.09248 0.92154 0.0
H1385 H 0.7086 0.14125 0.8878 0.0
H1386 H 0.63885 0.09113 0.86207 0.0
H1387 H 0.69499 0.14051 0.82877 0.0
H1388 H 0.6746 0.1083 0.7194 0.0
H1389 H 0.68713 0.11886 0.77961 0.0
H1390 H 0.6287 0.10467 0.81499 0.0
H1391 H 0.61604 0.09346 0.7547 0.0
C1392 C 0.66162 0.10333 0.90175 0.0
C1393 C 0.68158 0.11679 0.90912 0.0
C1394 C 0.65389 0.10263 0.8676 0.0
C1395 C 0.66592 0.11553 0.84029 0.0
C1396 C 0.68544 0.13002 0.84877 0.0
C1397 C 0.6932 0.13055 0.8827 0.0
C1398 C 0.66452 0.10792 0.73976 0.0
C1399 C 0.64429 0.09982 0.73235 0.0
C1400 C 0.67172 0.11404 0.77443 0.0
C1401 C 0.65888 0.11238 0.80246 0.0
C1402 C 0.63892 0.10575 0.7943 0.0
C1403 C 0.6317 0.09949 0.75965 0.0
H1404 H 0.57732 0.86078 0.12518 0.0
H1405 H 0.56299 0.90393 0.08433 0.0
H1406 H 0.56478 0.86272 0.184 0.0
H1407 H 0.55109 0.90639 0.14317 0.0
H1408 H 0.52064 0.90116 0.24525 0.0
H1409 H 0.52651 0.89082 0.1874 0.0
H1410 H 0.5745 0.88534 0.233 0.0
H1411 H 0.56785 0.8948 0.29156 0.0
C1412 C 0.57131 0.87055 0.12869 0.0
C1413 C 0.57118 0.88225 0.10013 0.0
C1414 C 0.56426 0.87177 0.1625 0.0
C1415 C 0.55701 0.88478 0.16855 0.0
C1416 C 0.55625 0.89594 0.13952 0.0
C1417 C 0.56316 0.89461 0.10569 0.0
C1418 C 0.53222 0.89739 0.24306 0.0
C1419 C 0.54402 0.89911 0.27276 0.0
C1420 C 0.5357 0.89161 0.20979 0.0
C1421 C 0.5513 0.88771 0.20518 0.0
C1422 C 0.56231 0.88818 0.2355 0.0
C1423 C 0.55858 0.89368 0.26909 0.0
H1424 H 0.06549 0.61724 0.23388 0.0
H1425 H 0.10545 0.672 0.28717 0.0
H1426 H 0.07458 0.63389 0.1764 0.0
H1427 H 0.11556 0.68864 0.22921 0.0
H1428 H 0.11113 0.717 0.12553 0.0
H1429 H 0.10426 0.70055 0.1832 0.0
H1430 H 0.09857 0.64819 0.13208 0.0
H1431 H 0.10438 0.66446 0.07392 0.0
C1432 C 0.07653 0.63282 0.23321 0.0
C1433 C 0.08476 0.64335 0.26501 0.0
C1434 C 0.08187 0.64238 0.20012 0.0
C1435 C 0.09587 0.66267 0.19789 0.0
C1436 C 0.10446 0.67309 0.22981 0.0
C1437 C 0.09881 0.66356 0.26305 0.0
C1438 C 0.10848 0.70199 0.12663 0.0
C1439 C 0.10822 0.69197 0.09522 0.0
C1440 C 0.10469 0.69257 0.15983 0.0
C1441 C 0.10085 0.67298 0.16256 0.0
C1442 C 0.10107 0.66313 0.13107 0.0
C1443 C 0.10454 0.67248 0.09771 0.0
H1444 H 0.38154 0.44758 0.23219 0.0
H1445 H 0.32588 0.42267 0.28881 0.0
H1446 H 0.36403 0.43836 0.17545 0.0
H1447 H 0.30828 0.41441 0.23195 0.0
H1448 H 0.28183 0.37939 0.13099 0.0
H1449 H 0.29989 0.39108 0.18683 0.0
H1450 H 0.34509 0.44322 0.13255 0.0
H1451 H 0.32738 0.43062 0.07598 0.0
C1452 C 0.36554 0.44048 0.23244 0.0
C1453 C 0.35504 0.43564 0.26489 0.0
C1454 C 0.35548 0.43529 0.19984 0.0
C1455 C 0.33468 0.42539 0.19897 0.0
C1456 C 0.32427 0.4215 0.23154 0.0
C1457 C 0.33433 0.4264 0.26417 0.0
C1458 C 0.29566 0.39333 0.13107 0.0
C1459 C 0.30326 0.40416 0.09938 0.0
C1460 C 0.30594 0.40017 0.16316 0.0
C1461 C 0.32386 0.41827 0.16448 0.0
C1462 C 0.33147 0.42911 0.13254 0.0
C1463 C 0.32135 0.42197 0.10016 0.0
H1464 H 0.72368 0.77365 0.56294 0.0
H1465 H 0.76519 0.76024 0.61429 0.0
H1466 H 0.73511 0.77001 0.50477 0.0
H1467 H 0.77776 0.75788 0.55576 0.0
H1468 H 0.77243 0.72495 0.4514 0.0
H1469 H 0.76767 0.73547 0.50955 0.0
H1470 H 0.75808 0.77998 0.45925 0.0
H1471 H 0.76162 0.76837 0.40047 0.0
C1472 C 0.73566 0.77042 0.56178 0.0
C1473 C 0.74334 0.76695 0.59321 0.0
C1474 C 0.74238 0.76849 0.52823 0.0
C1475 C 0.75728 0.76341 0.5252 0.0
C1476 C 0.76588 0.76124 0.55686 0.0
C1477 C 0.75882 0.76276 0.59049 0.0
C1478 C 0.76948 0.73711 0.4527 0.0
C1479 C 0.76717 0.74568 0.42131 0.0
C1480 C 0.76693 0.74333 0.48626 0.0
C1481 C 0.76237 0.75858 0.48947 0.0
C1482 C 0.76111 0.76788 0.45797 0.0
C1483 C 0.76327 0.76135 0.42423 0.0
H1484 H 0.24046 0.04745 0.43517 0.0
H1485 H 0.23077 0.99242 0.38967 0.0
H1486 H 0.23067 0.03178 0.4939 0.0
H1487 H 0.2217 0.97695 0.44833 0.0
H1488 H 0.19766 0.94943 0.55423 0.0
H1489 H 0.19941 0.96494 0.49671 0.0
H1490 H 0.24481 0.02111 0.53862 0.0
H1491 H 0.24241 0.00566 0.59656 0.0
C1492 C 0.23596 0.03192 0.43762 0.0
C1493 C 0.23645 0.0212 0.40778 0.0
C1494 C 0.23053 0.02298 0.47138 0.0
C1495 C 0.22561 0.00313 0.47614 0.0
C1496 C 0.22513 0.99217 0.44581 0.0
C1497 C 0.23039 0.00107 0.41203 0.0
C1498 C 0.20779 0.96517 0.55127 0.0
C1499 C 0.22001 0.9763 0.57982 0.0
C1500 C 0.2089 0.97405 0.5182 0.0
C1501 C 0.22244 0.99426 0.51267 0.0
C1502 C 0.23403 0.00557 0.54184 0.0
C1503 C 0.23274 0.99671 0.5751 0.0
H1504 H 0.98671 0.23556 0.6057 0.0
H1505 H 0.04262 0.24655 0.56233 0.0
H1506 H 0.97173 0.22562 0.54674 0.0
H1507 H 0.0275 0.23591 0.5034 0.0
H1508 H 0.94547 0.20116 0.44071 0.0
H1509 H 0.96072 0.20314 0.49847 0.0
H1510 H 0.01671 0.24943 0.45748 0.0
H1511 H 0.00144 0.24696 0.39921 0.0
C1512 C -0.00432 0.23534 0.58375 0.0
C1513 C 0.01591 0.24208 0.58861 0.0
C1514 C 0.98706 0.22956 0.54981 0.0
C1515 C -0.00156 0.23018 0.51996 0.0
C1516 C 0.01838 0.23568 0.52548 0.0
C1517 C 0.02703 0.24164 0.55935 0.0
C1518 C 0.96114 0.21153 0.44382 0.0
C1519 C 0.97224 0.22408 0.41545 0.0
C1520 C 0.96986 0.21276 0.47711 0.0
C1521 C 0.9899 0.22669 0.48306 0.0
C1522 C 0.00127 0.23842 0.45397 0.0
C1523 C 0.99254 0.23707 0.42049 0.0
H1524 H 0.2279 0.23832 0.38511 0.0
H1525 H 0.27008 0.22773 0.44137 0.0
H1526 H 0.21539 0.24282 0.44224 0.0
H1527 H 0.25853 0.23329 0.49804 0.0
H1528 H 0.22837 0.23175 0.59856 0.0
H1529 H 0.23338 0.22101 0.54025 0.0
H1530 H 0.22388 0.2654 0.48921 0.0
H1531 H 0.21767 0.27518 0.54743 0.0
C1532 C 0.23454 0.23705 0.40972 0.0
C1533 C 0.24993 0.23266 0.40888 0.0
C1534 C 0.22745 0.23971 0.44246 0.0
C1535 C 0.23587 0.23838 0.47496 0.0
C1536 C 0.25127 0.23394 0.47381 0.0
C1537 C 0.25808 0.23094 0.44121 0.0
C1538 C 0.22697 0.2389 0.57476 0.0
C1539 C 0.2228 0.25438 0.57748 0.0
C1540 C 0.23004 0.2329 0.54131 0.0
C1541 C 0.2295 0.24261 0.50989 0.0
C1542 C 0.22428 0.25743 0.51264 0.0
C1543 C 0.22079 0.26312 0.54608 0.0
H1544 H 0.75182 0.94623 0.55996 0.0
H1545 H 0.76332 0.00143 0.60743 0.0
H1546 H 0.76209 0.96233 0.50171 0.0
H1547 H 0.77288 0.0174 0.54914 0.0
H1548 H 0.75039 0.98966 0.4008 0.0
H1549 H 0.74813 0.97376 0.45818 0.0
H1550 H 0.79484 0.0292 0.50012 0.0
H1551 H 0.79647 0.04517 0.44317 0.0
C1552 C 0.75685 0.9619 0.55802 0.0
C1553 C 0.75667 0.97254 0.58824 0.0
C1554 C 0.76256 0.9711 0.52455 0.0
C1555 C 0.76805 0.99113 0.52043 0.0
C1556 C 0.76897 0.00203 0.55118 0.0
C1557 C 0.76345 0.99286 0.58472 0.0
C1558 C 0.76039 -0.00166 0.4221 0.0
C1559 C 0.77344 0.01869 0.41761 0.0
C1560 C 0.75918 0.98922 0.45505 0.0
C1561 C 0.77117 0.00022 0.4841 0.0
C1562 C 0.78506 0.02034 0.47873 0.0
C1563 C 0.78609 0.02948 0.44597 0.0
H1564 H 0.98987 0.74952 0.616 0.0
H1565 H 0.04508 0.79517 0.57159 0.0
H1566 H 0.97388 0.74569 0.55833 0.0
H1567 H 0.02895 0.79193 0.51411 0.0
H1568 H 0.94621 0.74526 0.4543 0.0
H1569 H 0.9621 0.75779 0.51208 0.0
H1570 H 0.01771 0.76822 0.46762 0.0
H1571 H 0.00195 0.75643 0.40966 0.0
C1572 C -0.00155 0.75915 0.59417 0.0
C1573 C 0.01878 0.77246 0.5982 0.0
C1574 C 0.98927 0.75702 0.56102 0.0
C1575 C 0.00017 0.76832 0.53125 0.0
C1576 C 0.0202 0.78265 0.53613 0.0
C1577 C 0.02942 0.78461 0.56917 0.0
C1578 C 0.96192 0.75057 0.45678 0.0
C1579 C 0.97279 0.74967 0.42755 0.0
C1580 C 0.97101 0.75765 0.48997 0.0
C1581 C 0.99115 0.76379 0.49481 0.0
C1582 C 0.00223 0.76385 0.46495 0.0
C1583 C 0.99318 0.75698 0.43165 0.0
H1584 H 0.09261 0.37979 0.89348 0.0
H1585 H 0.03254 0.3476 0.93273 0.0
H1586 H 0.08383 0.35655 0.84429 0.0
H1587 H 0.02356 0.32429 0.88281 0.0
H1588 H 0.02504 0.27315 0.8192 0.0
H1589 H 0.03106 0.29778 0.86568 0.0
H1590 H 0.06487 0.34471 0.79011 0.0
H1591 H 0.05938 0.32046 0.7445 0.0
C1592 C 0.07735 0.36808 0.8909 0.0
C1593 C 0.06325 0.36561 0.91685 0.0
C1594 C 0.0723 0.35468 0.86273 0.0
C1595 C 0.05302 0.3384 0.8598 0.0
C1596 C 0.0386 0.33652 0.88464 0.0
C1597 C 0.04365 0.35008 0.91282 0.0
C1598 C 0.03389 0.28873 0.81273 0.0
C1599 C 0.04188 0.29478 0.77824 0.0
C1600 C 0.03713 0.30284 0.83916 0.0
C1601 C 0.04845 0.32324 0.83158 0.0
C1602 C 0.05631 0.32917 0.79705 0.0
C1603 C 0.05313 0.31518 0.77084 0.0
H1604 H 0.64032 0.68129 0.9455 0.0
H1605 H 0.61202 0.71236 0.90281 0.0
H1606 H 0.66398 0.69347 0.8955 0.0
H1607 H 0.63545 0.72453 0.85344 0.0
H1608 H 0.66855 0.72963 0.75319 0.0
H1609 H 0.64479 0.71295 0.80042 0.0
H1610 H 0.69229 0.72719 0.87512 0.0
H1611 H 0.71658 0.74385 0.82686 0.0
C1612 C 0.63875 0.69014 0.92478 0.0
C1613 C 0.62415 0.69564 0.92759 0.0
C1614 C 0.6525 0.69742 0.89661 0.0
C1615 C 0.65166 0.71005 0.87064 0.0
C1616 C 0.63643 0.71469 0.87276 0.0
C1617 C 0.62292 0.70765 0.90094 0.0
C1618 C 0.67412 0.72932 0.77961 0.0
C1619 C 0.69458 0.73833 0.78629 0.0
C1620 C 0.66039 0.7197 0.80674 0.0
C1621 C 0.66661 0.71885 0.84156 0.0
C1622 C 0.68705 0.7275 0.84841 0.0
C1623 C 0.70095 0.73721 0.82096 0.0
H1624 H 0.27416 0.9335 0.94662 0.0
H1625 H 0.28207 0.89444 0.87529 0.0
H1626 H 0.2614 0.94428 0.89748 0.0
H1627 H 0.26856 0.90469 0.82605 0.0
H1628 H 0.26325 0.94199 0.73849 0.0
H1629 H 0.27605 0.93164 0.78792 0.0
H1630 H 0.23377 0.93443 0.85907 0.0
H1631 H 0.22136 0.94562 0.80926 0.0
C1632 C 0.2731 0.92714 0.92037 0.0
C1633 C 0.27921 0.91315 0.91478 0.0
C1634 C 0.26559 0.93321 0.8922 0.0
C1635 C 0.2638 0.92533 0.85769 0.0
C1636 C 0.26997 0.91133 0.85212 0.0
C1637 C 0.27769 0.90539 0.88031 0.0
C1638 C 0.25662 0.94041 0.76467 0.0
C1639 C 0.24122 0.9446 0.76993 0.0
C1640 C 0.26391 0.9343 0.79306 0.0
C1641 C 0.25589 0.93197 0.82757 0.0
C1642 C 0.24049 0.93625 0.83294 0.0
C1643 C 0.23329 0.9426 0.80443 0.0
H1644 H 0.37104 0.05573 0.10203 0.0
H1645 H 0.36512 0.10759 0.0878 0.0
H1646 H 0.34548 0.04396 0.14885 0.0
H1647 H 0.33948 0.09549 0.13322 0.0
H1648 H 0.27713 0.05402 0.18056 0.0
H1649 H 0.30321 0.06373 0.13515 0.0
H1650 H 0.34045 0.05712 0.21276 0.0
H1651 H 0.31476 0.04789 0.25817 0.0
C1652 C 0.36462 0.06478 0.10917 0.0
C1653 C 0.37025 0.08263 0.09095 0.0
C1654 C 0.34987 0.05795 0.13573 0.0
C1655 C 0.34023 0.06864 0.14401 0.0
C1656 C 0.34637 0.08676 0.12685 0.0
C1657 C 0.36128 0.09376 0.101 0.0
C1658 C 0.29082 0.0545 0.18776 0.0
C1659 C 0.29395 0.05038 0.22295 0.0
C1660 C 0.30574 0.06009 0.16189 0.0
C1661 C 0.32385 0.0612 0.17055 0.0
C1662 C 0.32663 0.0563 0.20533 0.0
C1663 C 0.31194 0.05115 0.23132 0.0
H1664 H 0.97481 0.25703 0.19154 0.0
H1665 H 0.92792 0.25409 0.25765 0.0
H1666 H 0.96554 0.27236 0.14372 0.0
H1667 H 0.9192 0.26984 0.21076 0.0
H1668 H 0.89501 0.27592 0.1011 0.0
H1669 H 0.90442 0.26344 0.15271 0.0
H1670 H 0.96615 0.3032 0.12879 0.0
H1671 H 0.95664 0.31546 0.0766 0.0
C1672 C 0.96255 0.2596 0.19588 0.0
C1673 C 0.95215 0.25425 0.22846 0.0
C1674 C 0.95736 0.26859 0.16866 0.0
C1675 C 0.94174 0.27256 0.17349 0.0
C1676 C 0.93118 0.2669 0.20588 0.0
C1677 C 0.93623 0.2578 0.23284 0.0
C1678 C 0.91059 0.2824 0.10744 0.0
C1679 C 0.92507 0.29667 0.08473 0.0
C1680 C 0.91601 0.2752 0.13702 0.0
C1681 C 0.93608 0.28202 0.14458 0.0
C1682 C 0.95057 0.29731 0.1233 0.0
C1683 C 0.94512 0.30463 0.09377 0.0
H1684 H 0.77652 0.72594 0.18857 0.0
H1685 H 0.7264 0.68135 0.24764 0.0
H1686 H 0.76643 0.70376 0.13653 0.0
H1687 H 0.71607 0.65967 0.19606 0.0
H1688 H 0.71447 0.61648 0.11355 0.0
H1689 H 0.72593 0.63955 0.16388 0.0
H1690 H 0.74124 0.68819 0.09104 0.0
H1691 H 0.73033 0.6653 0.04091 0.0
C1692 C 0.76323 0.71158 0.1902 0.0
C1693 C 0.75237 0.70532 0.22216 0.0
C1694 C 0.75743 0.69885 0.16052 0.0
C1695 C 0.74059 0.67975 0.16232 0.0
C1696 C 0.72942 0.67396 0.19398 0.0
C1697 C 0.73527 0.68651 0.2235 0.0
C1698 C 0.7203 0.63209 0.10836 0.0
C1699 C 0.72142 0.63901 0.0733 0.0
C1700 C 0.72681 0.64534 0.13717 0.0
C1701 C 0.73448 0.66578 0.13153 0.0
C1702 C 0.7357 0.67265 0.09637 0.0
C1703 C 0.72928 0.65944 0.06764 0.0
H1704 H 0.95906 0.72035 0.19815 0.0
H1705 H 0.91894 0.67254 0.26703 0.0
H1706 H 0.94833 0.69762 0.14738 0.0
H1707 H 0.90759 0.65003 0.2163 0.0
H1708 H 0.90545 0.60991 0.12493 0.0
H1709 H 0.91657 0.63237 0.17632 0.0
H1710 H 0.92169 0.6796 0.10832 0.0
H1711 H 0.91144 0.6575 0.05726 0.0
C1712 C 0.94777 0.70505 0.20233 0.0
C1713 C 0.93989 0.69825 0.23657 0.0
C1714 C 0.94153 0.69198 0.17322 0.0
C1715 C 0.92706 0.67187 0.17761 0.0
C1716 C 0.91902 0.66524 0.21189 0.0
C1717 C 0.92542 0.67823 0.24098 0.0
C1718 C 0.90893 0.62508 0.12115 0.0
C1719 C 0.90771 0.63195 0.08705 0.0
C1720 C 0.91525 0.63798 0.15058 0.0
C1721 C 0.92022 0.65795 0.14655 0.0
C1722 C 0.91852 0.66455 0.11245 0.0
C1723 C 0.91247 0.65178 0.08313 0.0
H1724 H 0.28754 0.23762 0.21605 0.0
H1725 H 0.28669 0.29238 0.22711 0.0
H1726 H 0.30894 0.25077 0.16501 0.0
H1727 H 0.30751 0.30534 0.17363 0.0
H1728 H 0.36586 0.32884 0.10527 0.0
H1729 H 0.34096 0.31748 0.15346 0.0
H1730 H 0.31095 0.25914 0.10588 0.0
H1731 H 0.33636 0.26995 0.06075 0.0
C1732 C 0.29143 0.25233 0.20697 0.0
C1733 C 0.28536 0.26392 0.22594 0.0
C1734 C 0.30373 0.25991 0.17728 0.0
C1735 C 0.31003 0.27919 0.16487 0.0
C1736 C 0.30319 0.29054 0.18269 0.0
C1737 C 0.29099 0.28298 0.21301 0.0
C1738 C 0.354 0.31358 0.10569 0.0
C1739 C 0.35339 0.30008 0.08018 0.0
C1740 C 0.3396 0.3071 0.1329 0.0
C1741 C 0.32413 0.2872 0.13417 0.0
C1742 C 0.323 0.27429 0.10689 0.0
C1743 C 0.33758 0.28053 0.08082 0.0
H1744 H 0.7526 0.035 0.19079 0.0
H1745 H 0.7498 0.07602 0.26476 0.0
H1746 H 0.73909 0.04658 0.14361 0.0
H1747 H 0.7373 0.08827 0.21767 0.0
H1748 H 0.69684 0.09342 0.13625 0.0
H1749 H 0.70947 0.08081 0.18321 0.0
H1750 H 0.74571 0.0727 0.10499 0.0
H1751 H 0.73239 0.08431 0.05831 0.0
C1752 C 0.74938 0.04669 0.19678 0.0
C1753 C 0.75218 0.05453 0.23147 0.0
C1754 C 0.74167 0.05341 0.16975 0.0
C1755 C 0.7369 0.06835 0.17671 0.0
C1756 C 0.74024 0.07644 0.21133 0.0
C1757 C 0.74762 0.06953 0.23833 0.0
C1758 C 0.70749 0.08891 0.12925 0.0
C1759 C 0.71354 0.08981 0.0936 0.0
C1760 C 0.71485 0.08176 0.15615 0.0
C1761 C 0.72867 0.07564 0.14807 0.0
C1762 C 0.73481 0.0768 0.11234 0.0
C1763 C 0.72726 0.08365 0.08551 0.0
H1764 H 0.6748 0.92028 0.73908 0.0
H1765 H 0.72008 0.95596 0.8158 0.0
H1766 H 0.64979 0.90918 0.78569 0.0
H1767 H 0.69487 0.94565 0.8625 0.0
H1768 H 0.64909 0.90839 0.94552 0.0
H1769 H 0.67371 0.91913 0.89853 0.0
H1770 H 0.63111 0.91776 0.82281 0.0
H1771 H 0.606 0.90597 0.87015 0.0
C1772 C 0.67939 0.92588 0.766 0.0
C1773 C 0.69945 0.93896 0.77381 0.0
C1774 C 0.66497 0.91964 0.79274 0.0
C1775 C 0.67012 0.92651 0.82806 0.0
C1776 C 0.69027 0.93971 0.83582 0.0
C1777 C 0.70478 0.94572 0.80906 0.0
C1778 C 0.64493 0.91037 0.91881 0.0
C1779 C 0.62559 0.90639 0.91155 0.0
C1780 C 0.65918 0.91673 0.89181 0.0
C1781 C 0.65464 0.9196 0.85672 0.0
C1782 C 0.63518 0.91552 0.84937 0.0
C1783 C 0.62075 0.90882 0.87647 0.0
H1784 H 0.03369 0.74697 0.82371 0.0
H1785 H 0.0663 0.73489 0.74372 0.0
H1786 H 0.04145 0.72854 0.86797 0.0
H1787 H 0.0737 0.71646 0.78736 0.0
H1788 H 0.10514 0.71095 0.88858 0.0
H1789 H 0.09449 0.72468 0.84069 0.0
H1790 H 0.03487 0.69408 0.8825 0.0
H1791 H 0.04566 0.68032 0.93074 0.0
C1792 C 0.04252 0.74046 0.81562 0.0
C1793 C 0.0495 0.74256 0.78028 0.0
C1794 C 0.04677 0.72972 0.84079 0.0
C1795 C 0.05817 0.721 0.83112 0.0
C1796 C 0.06505 0.72311 0.79578 0.0
C1797 C 0.06078 0.73372 0.77075 0.0
C1798 C 0.08962 0.7066 0.88681 0.0
C1799 C 0.0762 0.69436 0.91309 0.0
C1800 C 0.08351 0.71456 0.85949 0.0
C1801 C 0.06387 0.71066 0.85802 0.0
C1802 C 0.05015 0.69755 0.8832 0.0
C1803 C 0.05624 0.68935 0.91037 0.0
H1804 H 0.23082 0.2763 0.81257 0.0
H1805 H 0.27225 0.32141 0.74064 0.0
H1806 H 0.24608 0.29919 0.8632 0.0
H1807 H 0.28769 0.34385 0.79107 0.0
H1808 H 0.31738 0.36713 0.90797 0.0
H1809 H 0.30584 0.34391 0.85729 0.0
H1810 H 0.24723 0.33573 0.8691 0.0
H1811 H 0.2585 0.3591 0.9182 0.0
C1812 C 0.24335 0.29092 0.80774 0.0
C1813 C 0.25019 0.29721 0.77281 0.0
C1814 C 0.25205 0.30396 0.83652 0.0
C1815 C 0.26804 0.32319 0.83077 0.0
C1816 C 0.27549 0.32906 0.7961 0.0
C1817 C 0.26652 0.31627 0.76733 0.0
C1818 C 0.30216 0.3607 0.89925 0.0
C1819 C 0.28894 0.36507 0.91727 0.0
C1820 C 0.29555 0.3473 0.87057 0.0
C1821 C 0.27557 0.33778 0.86013 0.0
C1822 C 0.2626 0.34261 0.87724 0.0
C1823 C 0.26922 0.35623 0.90514 0.0
H1824 H 0.0291 0.3708 0.42787 0.0
H1825 H 0.03706 0.42845 0.45267 0.0
H1826 H 0.00491 0.35636 0.47657 0.0
H1827 H 0.01259 0.41413 0.49935 0.0
H1828 H 0.97947 0.38985 0.59805 0.0
H1829 H 0.0065 0.40046 0.55615 0.0
H1830 H 0.97131 0.34822 0.49209 0.0
H1831 H 0.94435 0.33682 0.5364 0.0
C1832 C 0.02601 0.38045 0.44407 0.0
C1833 C 0.03513 0.40083 0.43642 0.0
C1834 C 0.0119 0.37211 0.4716 0.0
C1835 C 0.0067 0.38401 0.49199 0.0
C1836 C 0.01638 0.40446 0.48488 0.0
C1837 C 0.03045 0.41273 0.45779 0.0
C1838 C 0.97746 0.38057 0.57505 0.0
C1839 C 0.95963 0.36278 0.5699 0.0
C1840 C 0.99299 0.38669 0.55088 0.0
C1841 C 0.99098 0.37554 0.52007 0.0
C1842 C 0.97338 0.35722 0.51553 0.0
C1843 C 0.95787 0.35075 0.54058 0.0
H1844 H 0.60009 0.58576 0.59787 0.0
H1845 H 0.6524 0.60518 0.53312 0.0
H1846 H 0.58915 0.60341 0.55954 0.0
H1847 H 0.64068 0.622 0.4924 0.0
H1848 H 0.56038 0.60949 0.45963 0.0
H1849 H 0.57482 0.5981 0.50386 0.0
H1850 H 0.63281 0.64774 0.48061 0.0
H1851 H 0.61819 0.65872 0.43421 0.0
C1852 C 0.60911 0.5936 0.57489 0.0
C1853 C 0.62681 0.59365 0.56786 0.0
C1854 C 0.60281 0.60372 0.55277 0.0
C1855 C 0.61369 0.61375 0.52214 0.0
C1856 C 0.63189 0.61446 0.51574 0.0
C1857 C 0.63853 0.60468 0.53874 0.0
C1858 C 0.57618 0.61826 0.46419 0.0
C1859 C 0.58808 0.63504 0.44319 0.0
C1860 C 0.58454 0.61174 0.48991 0.0
C1861 C 0.60509 0.62195 0.49606 0.0
C1862 C 0.61698 0.63934 0.47631 0.0
C1863 C 0.60855 0.64583 0.45012 0.0
H1864 H 0.37846 0.0295 0.59339 0.0
H1865 H 0.43566 0.0529 0.54303 0.0
H1866 H 0.36418 0.00285 0.54894 0.0
H1867 H 0.42145 0.02651 0.49861 0.0
H1868 H 0.38705 0.98474 0.40871 0.0
H1869 H 0.39721 0.01278 0.4485 0.0
H1870 H 0.36887 0.97296 0.53719 0.0
H1871 H 0.35849 0.94453 0.497 0.0
C1872 C 0.38781 0.0294 0.57201 0.0
C1873 C 0.40814 0.04342 0.57137 0.0
C1874 C 0.37971 0.01394 0.54698 0.0
C1875 C 0.39173 0.01246 0.52051 0.0
C1876 C 0.41177 0.02727 0.51854 0.0
C1877 C 0.4199 0.04247 0.54385 0.0
C1878 C 0.38288 0.98184 0.43667 0.0
C1879 C 0.37206 0.96231 0.44973 0.0
C1880 C 0.38874 -0.00201 0.45946 0.0
C1881 C 0.3839 0.99513 0.49597 0.0
C1882 C 0.37267 0.97563 0.50906 0.0
C1883 C 0.36687 0.95936 0.48616 0.0
H1884 H 0.5563 0.95252 0.45328 0.0
H1885 H 0.61178 0.95307 0.44215 0.0
H1886 H 0.57213 0.98116 0.49233 0.0
H1887 H 0.62743 0.98162 0.48287 0.0
H1888 H 0.6314 0.01853 0.59337 0.0
H1889 H 0.62006 0.98989 0.55371 0.0
H1890 H 0.60294 0.01898 0.47498 0.0
H1891 H 0.61483 0.04799 0.51427 0.0
C1892 C 0.57179 0.95843 0.45971 0.0
C1893 C 0.58278 0.95049 0.44413 0.0
C1894 C 0.58086 0.97499 0.4819 0.0
C1895 C 0.60105 0.98383 0.48984 0.0
C1896 C 0.61184 0.97514 0.47672 0.0
C1897 C 0.60282 0.95867 0.45377 0.0
C1898 C 0.62558 0.01898 0.56725 0.0
C1899 C 0.62394 0.03546 0.55684 0.0
C1900 C 0.61917 0.00262 0.54461 0.0
C1901 C 0.61056 0.00223 0.51149 0.0
C1902 C 0.60952 0.01896 0.5005 0.0
C1903 C 0.61639 0.03556 0.52282 0.0
H1904 H 0.94654 0.6117 0.53618 0.0
H1905 H 0.97159 0.57845 0.58272 0.0
H1906 H 0.97462 0.62723 0.49414 0.0
H1907 H -0.00024 0.59463 0.54364 0.0
H1908 H 0.03403 0.6046 0.44379 0.0
H1909 H 0.0072 0.59267 0.48557 0.0
H1910 H 0.0093 0.64911 0.48274 0.0
H1911 H 0.03583 0.66084 0.43789 0.0
C1912 C 0.958 0.60774 0.53742 0.0
C1913 C 0.95647 0.59331 0.56182 0.0
C1914 C 0.97422 0.61678 0.5137 0.0
C1915 C 0.98938 0.61189 0.51472 0.0
C1916 C 0.98812 0.59824 0.54065 0.0
C1917 C 0.97185 0.58891 0.5633 0.0
C1918 C 0.02916 0.61476 0.45226 0.0
C1919 C 0.03742 0.63386 0.43753 0.0
C1920 C 0.01362 0.60785 0.47664 0.0
C1921 C 0.00606 0.61993 0.48825 0.0
C1922 C 0.01458 0.63929 0.47429 0.0
C1923 C 0.03003 0.64614 0.449 0.0
H1924 H 0.33602 0.36712 0.43216 0.0
H1925 H 0.39011 0.42265 0.44907 0.0
H1926 H 0.34504 0.35241 0.4816 0.0
H1927 H 0.39952 0.40792 0.49568 0.0
H1928 H 0.40894 0.38621 0.59546 0.0
H1929 H 0.39296 0.39721 0.55367 0.0
H1930 H 0.36785 0.34106 0.49844 0.0
H1931 H 0.38266 0.32924 0.54362 0.0
C1932 C 0.34963 0.37627 0.44666 0.0
C1933 C 0.36224 0.39615 0.4367 0.0
C1934 C 0.35494 0.36774 0.47461 0.0
C1935 C 0.37298 0.37893 0.49292 0.0
C1936 C 0.38525 0.39886 0.48313 0.0
C1937 C 0.37987 0.40737 0.45594 0.0
C1938 C 0.39992 0.37611 0.57453 0.0
C1939 C 0.39745 0.35706 0.57218 0.0
C1940 C 0.39082 0.38247 0.55031 0.0
C1941 C 0.37963 0.37033 0.52176 0.0
C1942 C 0.37643 0.35085 0.52002 0.0
C1943 C 0.38506 0.34414 0.5455 0.0
loop_
_geom_bond_atom_site_label_1
_geom_bond_atom_site_label_2
_geom_bond_distance
_geom_bond_site_symmetry_2
_ccdc_geom_bond_type
Co0 O1 2.216 . S
Co0 O2 2.091 . S
Co0 O4 2.004 . S
Co0 O10 2.021 1_554 S
Co0 O12 2.137 . S
Co0 O13 2.244 . S
O1 Co0 2.216 . S
O1 C8 1.247 . S
O2 Co0 2.091 . S
O2 C8 1.261 . S
C3 O12 1.247 . S
C3 O13 1.272 . S
O4 Co0 2.004 . S
O4 C9 1.259 . S
Co5 O6 2.061 . S
Co5 O11 2.052 . S
Co5 O13 2.135 1_556 S
O6 Co5 2.061 . S
O6 C9 1.235 1_556 S
C7 O10 1.238 . S
C7 O11 1.241 . S
C8 O1 1.247 . S
C8 O2 1.261 . S
C9 O4 1.259 . S
C9 O6 1.235 1_554 S
O10 Co0 2.021 1_556 S
O10 C7 1.238 . S
O11 Co5 2.052 . S
O11 C7 1.241 . S
O12 Co0 2.137 . S
O12 C3 1.247 . S
O13 Co0 2.244 . S
O13 C3 1.272 . S
O13 Co5 2.135 1_554 S
Co14 O15 2.216 . S
Co14 O16 2.091 . S
Co14 O18 2.004 . S
Co14 O24 2.021 1_554 S
Co14 O26 2.137 . S
Co14 O27 2.244 . S
O15 Co14 2.216 . S
O15 C22 1.247 . S
O16 Co14 2.091 . S
O16 C22 1.261 . S
C17 O26 1.247 . S
C17 O27 1.272 . S
O18 Co14 2.004 . S
O18 C23 1.259 . S
Co19 O20 2.061 . S
Co19 O25 2.052 . S
Co19 O27 2.135 1_556 S
O20 Co19 2.061 . S
O20 C23 1.235 1_556 S
C21 O24 1.238 . S
C21 O25 1.241 . S
C22 O15 1.247 . S
C22 O16 1.261 . S
C23 O18 1.259 . S
C23 O20 1.235 1_554 S
O24 Co14 2.021 1_556 S
O24 C21 1.238 . S
O25 Co19 2.052 . S
O25 C21 1.241 . S
O26 Co14 2.137 . S
O26 C17 1.247 . S
O27 Co14 2.244 . S
O27 C17 1.272 . S
O27 Co19 2.135 1_554 S
Co28 O29 2.216 . S
Co28 O30 2.091 . S
Co28 O32 2.004 . S
Co28 O38 2.021 1_554 S
Co28 O40 2.137 . S
Co28 O41 2.244 . S
O29 Co28 2.216 . S
O29 C36 1.247 . S
O30 Co28 2.091 . S
O30 C36 1.261 . S
C31 O40 1.247 . S
C31 O41 1.272 . S
O32 Co28 2.004 . S
O32 C37 1.259 . S
Co33 O34 2.061 . S
Co33 O39 2.052 . S
Co33 O41 2.135 1_556 S
O34 Co33 2.061 . S
O34 C37 1.235 1_556 S
C35 O38 1.238 . S
C35 O39 1.241 . S
C36 O29 1.247 . S
C36 O30 1.261 . S
C37 O32 1.259 . S
C37 O34 1.235 1_554 S
O38 Co28 2.021 1_556 S
O38 C35 1.238 . S
O39 Co33 2.052 . S
O39 C35 1.241 . S
O40 Co28 2.137 . S
O40 C31 1.247 . S
O41 Co28 2.244 . S
O41 C31 1.272 . S
O41 Co33 2.135 1_554 S
Co42 O43 2.216 . S
Co42 O44 2.091 . S
Co42 O46 2.004 . S
Co42 O52 2.021 1_556 S
Co42 O54 2.137 . S
Co42 O55 2.244 . S
O43 Co42 2.216 . S
O43 C50 1.247 . S
O44 Co42 2.091 . S
O44 C50 1.261 . S
C45 O54 1.247 . S
C45 O55 1.272 . S
O46 Co42 2.004 . S
O46 C51 1.259 . S
Co47 O48 2.061 . S
Co47 O53 2.052 . S
Co47 O55 2.135 1_554 S
O48 Co47 2.061 . S
O48 C51 1.235 1_554 S
C49 O52 1.238 . S
C49 O53 1.241 . S
C50 O43 1.247 . S
C50 O44 1.261 . S
C51 O46 1.259 . S
C51 O48 1.235 1_556 S
O52 Co42 2.021 1_554 S
O52 C49 1.238 . S
O53 Co47 2.052 . S
O53 C49 1.241 . S
O54 Co42 2.137 . S
O54 C45 1.247 . S
O55 Co42 2.244 . S
O55 C45 1.272 . S
O55 Co47 2.135 1_556 S
Co56 O57 2.216 . S
Co56 O58 2.091 . S
Co56 O60 2.004 . S
Co56 O66 2.021 1_556 S
Co56 O68 2.137 . S
Co56 O69 2.244 . S
O57 Co56 2.216 . S
O57 C64 1.247 . S
O58 Co56 2.091 . S
O58 C64 1.261 . S
C59 O68 1.247 . S
C59 O69 1.272 . S
O60 Co56 2.004 . S
O60 C65 1.259 . S
Co61 O62 2.061 . S
Co61 O67 2.052 . S
Co61 O69 2.135 1_554 S
O62 Co61 2.061 . S
O62 C65 1.235 1_554 S
C63 O66 1.238 . S
C63 O67 1.241 . S
C64 O57 1.247 . S
C64 O58 1.261 . S
C65 O60 1.259 . S
C65 O62 1.235 1_556 S
O66 Co56 2.021 1_554 S
O66 C63 1.238 . S
O67 Co61 2.052 . S
O67 C63 1.241 . S
O68 Co56 2.137 . S
O68 C59 1.247 . S
O69 Co56 2.244 . S
O69 C59 1.272 . S
O69 Co61 2.135 1_556 S
Co70 O71 2.216 . S
Co70 O72 2.091 . S
Co70 O74 2.004 . S
Co70 O80 2.021 1_556 S
Co70 O82 2.137 . S
Co70 O83 2.244 . S
O71 Co70 2.216 . S
O71 C78 1.247 . S
O72 Co70 2.091 . S
O72 C78 1.261 . S
C73 O82 1.247 . S
C73 O83 1.272 . S
O74 Co70 2.004 . S
O74 C79 1.259 . S
Co75 O76 2.061 . S
Co75 O81 2.052 . S
Co75 O83 2.135 1_554 S
O76 Co75 2.061 . S
O76 C79 1.235 1_554 S
C77 O80 1.238 . S
C77 O81 1.241 . S
C78 O71 1.247 . S
C78 O72 1.261 . S
C79 O74 1.259 . S
C79 O76 1.235 1_556 S
O80 Co70 2.021 1_554 S
O80 C77 1.238 . S
O81 Co75 2.052 . S
O81 C77 1.241 . S
O82 Co70 2.137 . S
O82 C73 1.247 . S
O83 Co70 2.244 . S
O83 C73 1.272 . S
O83 Co75 2.135 1_556 S
Co84 O85 2.216 . S
Co84 O86 2.091 . S
Co84 O88 2.004 . S
Co84 O94 2.021 1_556 S
Co84 O96 2.137 . S
Co84 O97 2.244 . S
O85 Co84 2.216 . S
O85 C92 1.247 . S
O86 Co84 2.091 . S
O86 C92 1.261 . S
C87 O96 1.247 . S
C87 O97 1.272 . S
O88 Co84 2.004 . S
O88 C93 1.259 . S
Co89 O90 2.061 . S
Co89 O95 2.052 . S
Co89 O97 2.135 1_554 S
O90 Co89 2.061 . S
O90 C93 1.235 1_554 S
C91 O94 1.238 . S
C91 O95 1.241 . S
C92 O85 1.247 . S
C92 O86 1.261 . S
C93 O88 1.259 . S
C93 O90 1.235 1_556 S
O94 Co84 2.021 1_554 S
O94 C91 1.238 . S
O95 Co89 2.052 . S
O95 C91 1.241 . S
O96 Co84 2.137 . S
O96 C87 1.247 . S
O97 Co84 2.244 . S
O97 C87 1.272 . S
O97 Co89 2.135 1_556 S
Co98 O99 2.216 . S
Co98 O100 2.091 . S
Co98 O102 2.004 . S
Co98 O108 2.021 1_556 S
Co98 O110 2.137 . S
Co98 O111 2.244 . S
O99 Co98 2.216 . S
O99 C106 1.247 . S
O100 Co98 2.091 . S
O100 C106 1.261 . S
C101 O110 1.247 . S
C101 O111 1.272 . S
O102 Co98 2.004 . S
O102 C107 1.259 . S
Co103 O104 2.061 . S
Co103 O109 2.052 . S
Co103 O111 2.135 1_554 S
O104 Co103 2.061 . S
O104 C107 1.235 1_554 S
C105 O108 1.238 . S
C105 O109 1.241 . S
C106 O99 1.247 . S
C106 O100 1.261 . S
C107 O102 1.259 . S
C107 O104 1.235 1_556 S
O108 Co98 2.021 1_554 S
O108 C105 1.238 . S
O109 Co103 2.052 . S
O109 C105 1.241 . S
O110 Co98 2.137 . S
O110 C101 1.247 . S
O111 Co98 2.244 . S
O111 C101 1.272 . S
O111 Co103 2.135 1_556 S
Co112 O113 2.216 . S
Co112 O114 2.091 . S
Co112 O116 2.004 . S
Co112 O122 2.021 1_556 S
Co112 O124 2.137 . S
Co112 O125 2.244 . S
O113 Co112 2.216 . S
O113 C120 1.247 . S
O114 Co112 2.091 . S
O114 C120 1.261 . S
C115 O124 1.247 . S
C115 O125 1.272 . S
O116 Co112 2.004 . S
O116 C121 1.259 . S
Co117 O118 2.061 . S
Co117 O123 2.052 . S
Co117 O125 2.135 1_554 S
O118 Co117 2.061 . S
O118 C121 1.235 1_554 S
C119 O122 1.238 . S
C119 O123 1.241 . S
C120 O113 1.247 . S
C120 O114 1.261 . S
C121 O116 1.259 . S
C121 O118 1.235 1_556 S
O122 Co112 2.021 1_554 S
O122 C119 1.238 . S
O123 Co117 2.052 . S
O123 C119 1.241 . S
O124 Co112 2.137 . S
O124 C115 1.247 . S
O125 Co112 2.244 . S
O125 C115 1.272 . S
O125 Co117 2.135 1_556 S
Co126 O127 2.216 . S
Co126 O128 2.091 . S
Co126 O130 2.004 . S
Co126 O136 2.021 1_554 S
Co126 O138 2.137 . S
Co126 O139 2.244 . S
O127 Co126 2.216 . S
O127 C134 1.247 . S
O128 Co126 2.091 . S
O128 C134 1.261 . S
C129 O138 1.247 . S
C129 O139 1.272 . S
O130 Co126 2.004 . S
O130 C135 1.259 . S
Co131 O132 2.061 . S
Co131 O137 2.052 . S
Co131 O139 2.135 1_556 S
O132 Co131 2.061 . S
O132 C135 1.235 1_556 S
C133 O136 1.238 . S
C133 O137 1.241 . S
C134 O127 1.247 . S
C134 O128 1.261 . S
C135 O130 1.259 . S
C135 O132 1.235 1_554 S
O136 Co126 2.021 1_556 S
O136 C133 1.238 . S
O137 Co131 2.052 . S
O137 C133 1.241 . S
O138 Co126 2.137 . S
O138 C129 1.247 . S
O139 Co126 2.244 . S
O139 C129 1.272 . S
O139 Co131 2.135 1_554 S
Co140 O141 2.216 . S
Co140 O142 2.091 . S
Co140 O144 2.004 . S
Co140 O150 2.021 1_554 S
Co140 O152 2.137 . S
Co140 O153 2.244 . S
O141 Co140 2.216 . S
O141 C148 1.247 . S
O142 Co140 2.091 . S
O142 C148 1.261 . S
C143 O152 1.247 . S
C143 O153 1.272 . S
O144 Co140 2.004 . S
O144 C149 1.259 . S
Co145 O146 2.061 . S
Co145 O151 2.052 . S
Co145 O153 2.135 1_556 S
O146 Co145 2.061 . S
O146 C149 1.235 1_556 S
C147 O150 1.238 . S
C147 O151 1.241 . S
C148 O141 1.247 . S
C148 O142 1.261 . S
C149 O144 1.259 . S
C149 O146 1.235 1_554 S
O150 Co140 2.021 1_556 S
O150 C147 1.238 . S
O151 Co145 2.052 . S
O151 C147 1.241 . S
O152 Co140 2.137 . S
O152 C143 1.247 . S
O153 Co140 2.244 . S
O153 C143 1.272 . S
O153 Co145 2.135 1_554 S
Co154 O155 2.216 . S
Co154 O156 2.091 . S
Co154 O158 2.004 . S
Co154 O164 2.021 1_554 S
Co154 O166 2.137 . S
Co154 O167 2.244 . S
O155 Co154 2.216 . S
O155 C162 1.247 . S
O156 Co154 2.091 . S
O156 C162 1.261 . S
C157 O166 1.247 . S
C157 O167 1.272 . S
O158 Co154 2.004 . S
O158 C163 1.259 . S
Co159 O160 2.061 . S
Co159 O165 2.052 . S
Co159 O167 2.135 1_556 S
O160 Co159 2.061 . S
O160 C163 1.235 1_556 S
C161 O164 1.238 . S
C161 O165 1.241 . S
C162 O155 1.247 . S
C162 O156 1.261 . S
C163 O158 1.259 . S
C163 O160 1.235 1_554 S
O164 Co154 2.021 1_556 S
O164 C161 1.238 . S
O165 Co159 2.052 . S
O165 C161 1.241 . S
O166 Co154 2.137 . S
O166 C157 1.247 . S
O167 Co154 2.244 . S
O167 C157 1.272 . S
O167 Co159 2.135 1_554 S
Co168 O169 2.216 . S
Co168 O170 2.091 . S
Co168 O172 2.004 . S
Co168 O178 2.021 . S
Co168 O180 2.137 . S
Co168 O181 2.244 . S
O169 Co168 2.216 . S
O169 C176 1.247 . S
O170 Co168 2.091 . S
O170 C176 1.261 . S
C171 O180 1.247 . S
C171 O181 1.272 . S
O172 Co168 2.004 . S
O172 C177 1.259 . S
Co173 O174 2.061 . S
Co173 O179 2.052 . S
Co173 O181 2.135 . S
O174 Co173 2.061 . S
O174 C177 1.235 . S
C175 O178 1.238 . S
C175 O179 1.241 . S
C176 O169 1.247 . S
C176 O170 1.261 . S
C177 O172 1.259 . S
C177 O174 1.235 . S
O178 Co168 2.021 . S
O178 C175 1.238 . S
O179 Co173 2.052 . S
O179 C175 1.241 . S
O180 Co168 2.137 . S
O180 C171 1.247 . S
O181 Co168 2.244 . S
O181 C171 1.272 . S
O181 Co173 2.135 . S
Co182 O183 2.216 . S
Co182 O184 2.091 . S
Co182 O186 2.004 . S
Co182 O192 2.021 . S
Co182 O194 2.137 . S
Co182 O195 2.244 . S
O183 Co182 2.216 . S
O183 C190 1.247 . S
O184 Co182 2.091 . S
O184 C190 1.261 . S
C185 O194 1.247 . S
C185 O195 1.272 . S
O186 Co182 2.004 . S
O186 C191 1.259 . S
Co187 O188 2.058 . S
Co187 O193 2.052 1_565 S
Co187 O195 2.135 1_565 S
O188 Co187 2.058 . S
O188 C191 1.215 1_565 S
C189 O192 1.238 . S
C189 O193 1.241 . S
C190 O183 1.247 . S
C190 O184 1.261 . S
C191 O186 1.259 . S
C191 O188 1.215 1_545 S
O192 Co182 2.021 . S
O192 C189 1.238 . S
O193 Co187 2.052 1_545 S
O193 C189 1.241 . S
O194 Co182 2.137 . S
O194 C185 1.247 . S
O195 Co182 2.244 . S
O195 C185 1.272 . S
O195 Co187 2.135 1_545 S
Co196 O197 2.216 . S
Co196 O198 2.091 . S
Co196 O200 2.004 . S
Co196 O206 2.021 . S
Co196 O208 2.137 . S
Co196 O209 2.244 . S
O197 Co196 2.216 . S
O197 C204 1.247 . S
O198 Co196 2.091 . S
O198 C204 1.261 . S
C199 O208 1.247 . S
C199 O209 1.272 . S
O200 Co196 2.004 . S
O200 C205 1.259 . S
Co201 O202 2.090 . S
Co201 O207 2.052 1_455 S
Co201 O209 2.135 1_455 S
O202 Co201 2.090 . S
O202 C205 1.202 1_455 S
C203 O206 1.238 . S
C203 O207 1.241 . S
C204 O197 1.247 . S
C204 O198 1.261 . S
C205 O200 1.259 . S
C205 O202 1.202 1_655 S
O206 Co196 2.021 . S
O206 C203 1.238 . S
O207 Co201 2.052 1_655 S
O207 C203 1.241 . S
O208 Co196 2.137 . S
O208 C199 1.247 . S
O209 Co196 2.244 . S
O209 C199 1.272 . S
O209 Co201 2.135 1_655 S
Co210 O211 2.216 . S
Co210 O212 2.091 . S
Co210 O214 2.004 . S
Co210 O220 2.021 . S
Co210 O222 2.137 . S
Co210 O223 2.244 . S
O211 Co210 2.216 . S
O211 C218 1.247 . S
O212 Co210 2.091 . S
O212 C218 1.261 . S
C213 O222 1.247 . S
C213 O223 1.272 . S
O214 Co210 2.004 . S
O214 C219 1.259 . S
Co215 O216 2.061 . S
Co215 O221 2.052 . S
Co215 O223 2.135 . S
O216 Co215 2.061 . S
O216 C219 1.235 . S
C217 O220 1.238 . S
C217 O221 1.241 . S
C218 O211 1.247 . S
C218 O212 1.261 . S
C219 O214 1.259 . S
C219 O216 1.235 . S
O220 Co210 2.021 . S
O220 C217 1.238 . S
O221 Co215 2.052 . S
O221 C217 1.241 . S
O222 Co210 2.137 . S
O222 C213 1.247 . S
O223 Co210 2.244 . S
O223 C213 1.272 . S
O223 Co215 2.135 . S
Co224 O225 2.216 . S
Co224 O226 2.091 . S
Co224 O228 2.004 . S
Co224 O234 2.021 . S
Co224 O236 2.137 . S
Co224 O237 2.244 . S
O225 Co224 2.216 . S
O225 C232 1.247 . S
O226 Co224 2.091 . S
O226 C232 1.261 . S
C227 O236 1.247 . S
C227 O237 1.272 . S
O228 Co224 2.004 . S
O228 C233 1.259 . S
Co229 O230 2.061 . S
Co229 O235 2.052 . S
Co229 O237 2.135 . S
O230 Co229 2.061 . S
O230 C233 1.235 . S
C231 O234 1.238 . S
C231 O235 1.241 . S
C232 O225 1.247 . S
C232 O226 1.261 . S
C233 O228 1.259 . S
C233 O230 1.235 . S
O234 Co224 2.021 . S
O234 C231 1.238 . S
O235 Co229 2.052 . S
O235 C231 1.241 . S
O236 Co224 2.137 . S
O236 C227 1.247 . S
O237 Co224 2.244 . S
O237 C227 1.272 . S
O237 Co229 2.135 . S
Co238 O239 2.216 . S
Co238 O240 2.091 . S
Co238 O242 2.004 . S
Co238 O248 2.021 . S
Co238 O250 2.137 . S
Co238 O251 2.244 . S
O239 Co238 2.216 . S
O239 C246 1.247 . S
O240 Co238 2.091 . S
O240 C246 1.261 . S
C241 O250 1.247 . S
C241 O251 1.272 . S
O242 Co238 2.004 . S
O242 C247 1.259 . S
Co243 O244 2.061 . S
Co243 O249 2.052 . S
Co243 O251 2.135 . S
O244 Co243 2.061 . S
O244 C247 1.235 . S
C245 O248 1.238 . S
C245 O249 1.241 . S
C246 O239 1.247 . S
C246 O240 1.261 . S
C247 O242 1.259 . S
C247 O244 1.235 . S
O248 Co238 2.021 . S
O248 C245 1.238 . S
O249 Co243 2.052 . S
O249 C245 1.241 . S
O250 Co238 2.137 . S
O250 C241 1.247 . S
O251 Co238 2.244 . S
O251 C241 1.272 . S
O251 Co243 2.135 . S
Co252 O253 2.216 . S
Co252 O254 2.091 . S
Co252 O256 2.004 . S
Co252 O262 2.021 . S
Co252 O264 2.137 . S
Co252 O265 2.244 . S
O253 Co252 2.216 . S
O253 C260 1.247 . S
O254 Co252 2.091 . S
O254 C260 1.261 . S
C255 O264 1.247 . S
C255 O265 1.272 . S
O256 Co252 2.004 . S
O256 C261 1.259 . S
Co257 O258 2.061 . S
Co257 O263 2.052 . S
Co257 O265 2.135 . S
O258 Co257 2.061 . S
O258 C261 1.235 . S
C259 O262 1.238 . S
C259 O263 1.241 . S
C260 O253 1.247 . S
C260 O254 1.261 . S
C261 O256 1.259 . S
C261 O258 1.235 . S
O262 Co252 2.021 . S
O262 C259 1.238 . S
O263 Co257 2.052 . S
O263 C259 1.241 . S
O264 Co252 2.137 . S
O264 C255 1.247 . S
O265 Co252 2.244 . S
O265 C255 1.272 . S
O265 Co257 2.135 . S
Co266 O267 2.216 . S
Co266 O268 2.091 . S
Co266 O270 2.004 . S
Co266 O276 2.021 . S
Co266 O278 2.137 . S
Co266 O279 2.244 . S
O267 Co266 2.216 . S
O267 C274 1.247 . S
O268 Co266 2.091 . S
O268 C274 1.261 . S
C269 O278 1.247 . S
C269 O279 1.272 . S
O270 Co266 2.004 . S
O270 C275 1.259 . S
Co271 O272 2.061 . S
Co271 O277 2.052 . S
Co271 O279 2.135 . S
O272 Co271 2.061 . S
O272 C275 1.235 . S
C273 O276 1.238 . S
C273 O277 1.241 . S
C274 O267 1.247 . S
C274 O268 1.261 . S
C275 O270 1.259 . S
C275 O272 1.235 . S
O276 Co266 2.021 . S
O276 C273 1.238 . S
O277 Co271 2.052 . S
O277 C273 1.241 . S
O278 Co266 2.137 . S
O278 C269 1.247 . S
O279 Co266 2.244 . S
O279 C269 1.272 . S
O279 Co271 2.135 . S
Co280 O281 2.216 . S
Co280 O282 2.091 . S
Co280 O284 2.004 . S
Co280 O290 2.021 . S
Co280 O292 2.137 . S
Co280 O293 2.244 . S
O281 Co280 2.216 . S
O281 C288 1.247 . S
O282 Co280 2.091 . S
O282 C288 1.261 . S
C283 O292 1.247 . S
C283 O293 1.272 . S
O284 Co280 2.004 . S
O284 C289 1.259 . S
Co285 O286 2.061 . S
Co285 O291 2.052 . S
Co285 O293 2.135 . S
O286 Co285 2.061 . S
O286 C289 1.235 . S
C287 O290 1.238 . S
C287 O291 1.241 . S
C288 O281 1.247 . S
C288 O282 1.261 . S
C289 O284 1.259 . S
C289 O286 1.235 . S
O290 Co280 2.021 . S
O290 C287 1.238 . S
O291 Co285 2.052 . S
O291 C287 1.241 . S
O292 Co280 2.137 . S
O292 C283 1.247 . S
O293 Co280 2.244 . S
O293 C283 1.272 . S
O293 Co285 2.135 . S
Co294 O295 2.216 . S
Co294 O296 2.091 . S
Co294 O298 2.004 . S
Co294 O304 2.021 . S
Co294 O306 2.137 . S
Co294 O307 2.244 . S
O295 Co294 2.216 . S
O295 C302 1.247 . S
O296 Co294 2.091 . S
O296 C302 1.261 . S
C297 O306 1.247 . S
C297 O307 1.272 . S
O298 Co294 2.004 . S
O298 C303 1.259 . S
Co299 O300 2.061 . S
Co299 O305 2.052 . S
Co299 O307 2.135 . S
O300 Co299 2.061 . S
O300 C303 1.235 . S
C301 O304 1.238 . S
C301 O305 1.241 . S
C302 O295 1.247 . S
C302 O296 1.261 . S
C303 O298 1.259 . S
C303 O300 1.235 . S
O304 Co294 2.021 . S
O304 C301 1.238 . S
O305 Co299 2.052 . S
O305 C301 1.241 . S
O306 Co294 2.137 . S
O306 C297 1.247 . S
O307 Co294 2.244 . S
O307 C297 1.272 . S
O307 Co299 2.135 . S
Co308 O309 2.216 . S
Co308 O310 2.091 . S
Co308 O312 2.004 . S
Co308 O318 2.021 . S
Co308 O320 2.137 . S
Co308 O321 2.244 . S
O309 Co308 2.216 . S
O309 C316 1.247 . S
O310 Co308 2.091 . S
O310 C316 1.261 . S
C311 O320 1.247 . S
C311 O321 1.272 . S
O312 Co308 2.004 . S
O312 C317 1.259 . S
Co313 O314 2.090 . S
Co313 O319 2.052 1_565 S
Co313 O321 2.135 1_565 S
O314 Co313 2.090 . S
O314 C317 1.202 1_565 S
C315 O318 1.238 . S
C315 O319 1.241 . S
C316 O309 1.247 . S
C316 O310 1.261 . S
C317 O312 1.259 . S
C317 O314 1.202 1_545 S
O318 Co308 2.021 . S
O318 C315 1.238 . S
O319 Co313 2.052 1_545 S
O319 C315 1.241 . S
O320 Co308 2.137 . S
O320 C311 1.247 . S
O321 Co308 2.244 . S
O321 C311 1.272 . S
O321 Co313 2.135 1_545 S
Co322 O323 2.216 . S
Co322 O324 2.091 . S
Co322 O326 2.004 . S
Co322 O332 2.021 . S
Co322 O334 2.137 . S
Co322 O335 2.244 . S
O323 Co322 2.216 . S
O323 C330 1.247 . S
O324 Co322 2.091 . S
O324 C330 1.261 . S
C325 O334 1.247 . S
C325 O335 1.272 . S
O326 Co322 2.004 . S
O326 C331 1.259 . S
Co327 O328 2.058 . S
Co327 O333 2.052 1_455 S
Co327 O335 2.135 1_455 S
O328 Co327 2.058 . S
O328 C331 1.215 1_455 S
C329 O332 1.238 . S
C329 O333 1.241 . S
C330 O323 1.247 . S
C330 O324 1.261 . S
C331 O326 1.259 . S
C331 O328 1.215 1_655 S
O332 Co322 2.021 . S
O332 C329 1.238 . S
O333 Co327 2.052 1_655 S
O333 C329 1.241 . S
O334 Co322 2.137 . S
O334 C325 1.247 . S
O335 Co322 2.244 . S
O335 C325 1.272 . S
O335 Co327 2.135 1_655 S
Co336 O337 2.216 . S
Co336 O338 2.091 . S
Co336 O340 2.004 . S
Co336 O346 2.021 . S
Co336 O348 2.137 . S
Co336 O349 2.244 . S
O337 Co336 2.216 . S
O337 C344 1.247 . S
O338 Co336 2.091 . S
O338 C344 1.261 . S
C339 O348 1.247 . S
C339 O349 1.272 . S
O340 Co336 2.004 . S
O340 C345 1.259 . S
Co341 O342 2.061 . S
Co341 O347 2.052 . S
Co341 O349 2.135 . S
O342 Co341 2.061 . S
O342 C345 1.235 . S
C343 O346 1.238 . S
C343 O347 1.241 . S
C344 O337 1.247 . S
C344 O338 1.261 . S
C345 O340 1.259 . S
C345 O342 1.235 . S
O346 Co336 2.021 . S
O346 C343 1.238 . S
O347 Co341 2.052 . S
O347 C343 1.241 . S
O348 Co336 2.137 . S
O348 C339 1.247 . S
O349 Co336 2.244 . S
O349 C339 1.272 . S
O349 Co341 2.135 . S
Co350 O351 2.216 . S
Co350 O352 2.091 . S
Co350 O354 2.004 . S
Co350 O360 2.021 . S
Co350 O362 2.137 . S
Co350 O363 2.244 . S
O351 Co350 2.216 . S
O351 C358 1.247 . S
O352 Co350 2.091 . S
O352 C358 1.261 . S
C353 O362 1.247 . S
C353 O363 1.272 . S
O354 Co350 2.004 . S
O354 C359 1.259 . S
Co355 O356 2.061 . S
Co355 O361 2.052 . S
Co355 O363 2.135 . S
O356 Co355 2.061 . S
O356 C359 1.235 . S
C357 O360 1.238 . S
C357 O361 1.241 . S
C358 O351 1.247 . S
C358 O352 1.261 . S
C359 O354 1.259 . S
C359 O356 1.235 . S
O360 Co350 2.021 . S
O360 C357 1.238 . S
O361 Co355 2.052 . S
O361 C357 1.241 . S
O362 Co350 2.137 . S
O362 C353 1.247 . S
O363 Co350 2.244 . S
O363 C353 1.272 . S
O363 Co355 2.135 . S
Co364 O365 2.216 . S
Co364 O366 2.091 . S
Co364 O368 2.004 . S
Co364 O374 2.021 . S
Co364 O376 2.137 . S
Co364 O377 2.244 . S
O365 Co364 2.216 . S
O365 C372 1.247 . S
O366 Co364 2.091 . S
O366 C372 1.261 . S
C367 O376 1.247 . S
C367 O377 1.272 . S
O368 Co364 2.004 . S
O368 C373 1.259 . S
Co369 O370 2.061 . S
Co369 O375 2.052 . S
Co369 O377 2.135 . S
O370 Co369 2.061 . S
O370 C373 1.235 . S
C371 O374 1.238 . S
C371 O375 1.241 . S
C372 O365 1.247 . S
C372 O366 1.261 . S
C373 O368 1.259 . S
C373 O370 1.235 . S
O374 Co364 2.021 . S
O374 C371 1.238 . S
O375 Co369 2.052 . S
O375 C371 1.241 . S
O376 Co364 2.137 . S
O376 C367 1.247 . S
O377 Co364 2.244 . S
O377 C367 1.272 . S
O377 Co369 2.135 . S
Co378 O379 2.216 . S
Co378 O380 2.091 . S
Co378 O382 2.004 . S
Co378 O388 2.021 . S
Co378 O390 2.137 . S
Co378 O391 2.244 . S
O379 Co378 2.216 . S
O379 C386 1.247 . S
O380 Co378 2.091 . S
O380 C386 1.261 . S
C381 O390 1.247 . S
C381 O391 1.272 . S
O382 Co378 2.004 . S
O382 C387 1.259 . S
Co383 O384 2.061 . S
Co383 O389 2.052 . S
Co383 O391 2.135 . S
O384 Co383 2.061 . S
O384 C387 1.235 . S
C385 O388 1.238 . S
C385 O389 1.241 . S
C386 O379 1.247 . S
C386 O380 1.261 . S
C387 O382 1.259 . S
C387 O384 1.235 . S
O388 Co378 2.021 . S
O388 C385 1.238 . S
O389 Co383 2.052 . S
O389 C385 1.241 . S
O390 Co378 2.137 . S
O390 C381 1.247 . S
O391 Co378 2.244 . S
O391 C381 1.272 . S
O391 Co383 2.135 . S
Co392 O393 2.216 . S
Co392 O394 2.091 . S
Co392 O396 2.004 . S
Co392 O402 2.021 . S
Co392 O404 2.137 . S
Co392 O405 2.244 . S
O393 Co392 2.216 . S
O393 C400 1.247 . S
O394 Co392 2.091 . S
O394 C400 1.261 . S
C395 O404 1.247 . S
C395 O405 1.272 . S
O396 Co392 2.004 . S
O396 C401 1.259 . S
Co397 O398 2.090 . S
Co397 O403 2.052 1_545 S
Co397 O405 2.135 1_545 S
O398 Co397 2.090 . S
O398 C401 1.202 1_545 S
C399 O402 1.238 . S
C399 O403 1.241 . S
C400 O393 1.247 . S
C400 O394 1.261 . S
C401 O396 1.259 . S
C401 O398 1.202 1_565 S
O402 Co392 2.021 . S
O402 C399 1.238 . S
O403 Co397 2.052 1_565 S
O403 C399 1.241 . S
O404 Co392 2.137 . S
O404 C395 1.247 . S
O405 Co392 2.244 . S
O405 C395 1.272 . S
O405 Co397 2.135 1_565 S
Co406 O407 2.216 . S
Co406 O408 2.091 . S
Co406 O410 2.004 . S
Co406 O416 2.021 . S
Co406 O418 2.137 . S
Co406 O419 2.244 . S
O407 Co406 2.216 . S
O407 C414 1.247 . S
O408 Co406 2.091 . S
O408 C414 1.261 . S
C409 O418 1.247 . S
C409 O419 1.272 . S
O410 Co406 2.004 . S
O410 C415 1.259 . S
Co411 O412 2.058 . S
Co411 O417 2.052 1_655 S
Co411 O419 2.135 1_655 S
O412 Co411 2.058 . S
O412 C415 1.215 1_655 S
C413 O416 1.238 . S
C413 O417 1.241 . S
C414 O407 1.247 . S
C414 O408 1.261 . S
C415 O410 1.259 . S
C415 O412 1.215 1_455 S
O416 Co406 2.021 . S
O416 C413 1.238 . S
O417 Co411 2.052 1_455 S
O417 C413 1.241 . S
O418 Co406 2.137 . S
O418 C409 1.247 . S
O419 Co406 2.244 . S
O419 C409 1.272 . S
O419 Co411 2.135 1_455 S
Co420 O421 2.216 . S
Co420 O422 2.091 . S
Co420 O424 2.004 . S
Co420 O430 2.021 . S
Co420 O432 2.137 . S
Co420 O433 2.244 . S
O421 Co420 2.216 . S
O421 C428 1.247 . S
O422 Co420 2.091 . S
O422 C428 1.261 . S
C423 O432 1.247 . S
C423 O433 1.272 . S
O424 Co420 2.004 . S
O424 C429 1.259 . S
Co425 O426 2.061 . S
Co425 O431 2.052 . S
Co425 O433 2.135 . S
O426 Co425 2.061 . S
O426 C429 1.235 . S
C427 O430 1.238 . S
C427 O431 1.241 . S
C428 O421 1.247 . S
C428 O422 1.261 . S
C429 O424 1.259 . S
C429 O426 1.235 . S
O430 Co420 2.021 . S
O430 C427 1.238 . S
O431 Co425 2.052 . S
O431 C427 1.241 . S
O432 Co420 2.137 . S
O432 C423 1.247 . S
O433 Co420 2.244 . S
O433 C423 1.272 . S
O433 Co425 2.135 . S
Co434 O435 2.216 . S
Co434 O436 2.091 . S
Co434 O438 2.004 . S
Co434 O444 2.021 . S
Co434 O446 2.137 . S
Co434 O447 2.244 . S
O435 Co434 2.216 . S
O435 C442 1.247 . S
O436 Co434 2.091 . S
O436 C442 1.261 . S
C437 O446 1.247 . S
C437 O447 1.272 . S
O438 Co434 2.004 . S
O438 C443 1.259 . S
Co439 O440 2.058 . S
Co439 O445 2.052 1_545 S
Co439 O447 2.135 1_545 S
O440 Co439 2.058 . S
O440 C443 1.215 1_545 S
C441 O444 1.238 . S
C441 O445 1.241 . S
C442 O435 1.247 . S
C442 O436 1.261 . S
C443 O438 1.259 . S
C443 O440 1.215 1_565 S
O444 Co434 2.021 . S
O444 C441 1.238 . S
O445 Co439 2.052 1_565 S
O445 C441 1.241 . S
O446 Co434 2.137 . S
O446 C437 1.247 . S
O447 Co434 2.244 . S
O447 C437 1.272 . S
O447 Co439 2.135 1_565 S
Co448 O449 2.216 . S
Co448 O450 2.091 . S
Co448 O452 2.004 . S
Co448 O458 2.021 . S
Co448 O460 2.137 . S
Co448 O461 2.244 . S
O449 Co448 2.216 . S
O449 C456 1.247 . S
O450 Co448 2.091 . S
O450 C456 1.261 . S
C451 O460 1.247 . S
C451 O461 1.272 . S
O452 Co448 2.004 . S
O452 C457 1.259 . S
Co453 O454 2.090 . S
Co453 O459 2.052 1_655 S
Co453 O461 2.135 1_655 S
O454 Co453 2.090 . S
O454 C457 1.202 1_655 S
C455 O458 1.238 . S
C455 O459 1.241 . S
C456 O449 1.247 . S
C456 O450 1.261 . S
C457 O452 1.259 . S
C457 O454 1.202 1_455 S
O458 Co448 2.021 . S
O458 C455 1.238 . S
O459 Co453 2.052 1_455 S
O459 C455 1.241 . S
O460 Co448 2.137 . S
O460 C451 1.247 . S
O461 Co448 2.244 . S
O461 C451 1.272 . S
O461 Co453 2.135 1_455 S
Co462 O463 2.216 . S
Co462 O464 2.091 . S
Co462 O466 2.004 . S
Co462 O472 2.021 . S
Co462 O474 2.137 . S
Co462 O475 2.244 . S
O463 Co462 2.216 . S
O463 C470 1.247 . S
O464 Co462 2.091 . S
O464 C470 1.261 . S
C465 O474 1.247 . S
C465 O475 1.272 . S
O466 Co462 2.004 . S
O466 C471 1.259 . S
Co467 O468 2.061 . S
Co467 O473 2.052 . S
Co467 O475 2.135 . S
O468 Co467 2.061 . S
O468 C471 1.235 . S
C469 O472 1.238 . S
C469 O473 1.241 . S
C470 O463 1.247 . S
C470 O464 1.261 . S
C471 O466 1.259 . S
C471 O468 1.235 . S
O472 Co462 2.021 . S
O472 C469 1.238 . S
O473 Co467 2.052 . S
O473 C469 1.241 . S
O474 Co462 2.137 . S
O474 C465 1.247 . S
O475 Co462 2.244 . S
O475 C465 1.272 . S
O475 Co467 2.135 . S
Co476 O477 2.216 . S
Co476 O478 2.091 . S
Co476 O480 2.004 . S
Co476 O486 2.021 . S
Co476 O488 2.137 . S
Co476 O489 2.244 . S
O477 Co476 2.216 . S
O477 C484 1.247 . S
O478 Co476 2.091 . S
O478 C484 1.261 . S
C479 O488 1.247 . S
C479 O489 1.272 . S
O480 Co476 2.004 . S
O480 C485 1.259 . S
Co481 O482 2.061 . S
Co481 O487 2.052 . S
Co481 O489 2.135 . S
O482 Co481 2.061 . S
O482 C485 1.235 . S
C483 O486 1.238 . S
C483 O487 1.241 . S
C484 O477 1.247 . S
C484 O478 1.261 . S
C485 O480 1.259 . S
C485 O482 1.235 . S
O486 Co476 2.021 . S
O486 C483 1.238 . S
O487 Co481 2.052 . S
O487 C483 1.241 . S
O488 Co476 2.137 . S
O488 C479 1.247 . S
O489 Co476 2.244 . S
O489 C479 1.272 . S
O489 Co481 2.135 . S
Co490 O491 2.216 . S
Co490 O492 2.091 . S
Co490 O494 2.004 . S
Co490 O500 2.021 . S
Co490 O502 2.137 . S
Co490 O503 2.244 . S
O491 Co490 2.216 . S
O491 C498 1.247 . S
O492 Co490 2.091 . S
O492 C498 1.261 . S
C493 O502 1.247 . S
C493 O503 1.272 . S
O494 Co490 2.004 . S
O494 C499 1.259 . S
Co495 O496 2.061 . S
Co495 O501 2.052 . S
Co495 O503 2.135 . S
O496 Co495 2.061 . S
O496 C499 1.235 . S
C497 O500 1.238 . S
C497 O501 1.241 . S
C498 O491 1.247 . S
C498 O492 1.261 . S
C499 O494 1.259 . S
C499 O496 1.235 . S
O500 Co490 2.021 . S
O500 C497 1.238 . S
O501 Co495 2.052 . S
O501 C497 1.241 . S
O502 Co490 2.137 . S
O502 C493 1.247 . S
O503 Co490 2.244 . S
O503 C493 1.272 . S
O503 Co495 2.135 . S
H504 C512 0.950 . S
H505 C517 0.950 . S
H506 C514 0.950 . S
H507 C516 0.950 . S
H508 C518 0.950 . S
H509 C520 0.950 . S
H510 C522 0.950 . S
H511 C523 0.950 . S
C512 H504 0.950 . S
C512 C513 1.386 . S
C512 C514 1.391 . S
C513 C512 1.386 . S
C513 C517 1.393 1_556 S
C514 H506 0.950 . S
C514 C512 1.391 . S
C514 C515 1.400 . S
C515 C514 1.400 . S
C515 C516 1.398 1_556 S
C515 C521 1.491 1_656 S
C516 H507 0.950 . S
C516 C515 1.398 1_554 S
C516 C517 1.391 . S
C517 H505 0.950 . S
C517 C513 1.393 1_554 S
C517 C516 1.391 . S
C518 H508 0.950 . S
C518 C519 1.386 . S
C518 C520 1.391 . S
C519 C518 1.386 . S
C519 C523 1.393 1_554 S
C520 H509 0.950 . S
C520 C518 1.391 . S
C520 C521 1.400 . S
C521 C515 1.491 1_454 S
C521 C520 1.400 . S
C521 C522 1.398 1_554 S
C522 H510 0.950 . S
C522 C521 1.398 1_556 S
C522 C523 1.391 . S
C523 H511 0.950 . S
C523 C519 1.393 1_556 S
C523 C522 1.391 . S
H524 C532 0.950 . S
H525 C537 0.950 1_554 S
H526 C534 0.950 . S
H527 C536 0.950 . S
H528 C538 0.950 . S
H529 C540 0.950 . S
H530 C542 0.950 . S
H531 C543 0.950 1_556 S
C532 H524 0.950 . S
C532 C533 1.386 . S
C532 C534 1.391 . S
C533 C532 1.386 . S
C533 C537 1.393 . S
C534 H526 0.950 . S
C534 C532 1.391 . S
C534 C535 1.400 . S
C535 C534 1.400 . S
C535 C536 1.398 1_556 S
C535 C541 1.491 1_556 S
C536 H527 0.950 . S
C536 C535 1.398 1_554 S
C536 C537 1.391 1_554 S
C537 H525 0.950 1_556 S
C537 C533 1.393 . S
C537 C536 1.391 1_556 S
C538 H528 0.950 . S
C538 C539 1.386 . S
C538 C540 1.391 . S
C539 C538 1.386 . S
C539 C543 1.393 . S
C540 H529 0.950 . S
C540 C538 1.391 . S
C540 C541 1.400 . S
C541 C535 1.491 1_554 S
C541 C540 1.400 . S
C541 C542 1.398 1_554 S
C542 H530 0.950 . S
C542 C541 1.398 1_556 S
C542 C543 1.391 1_556 S
C543 H531 0.950 1_554 S
C543 C539 1.393 . S
C543 C542 1.391 1_554 S
H544 C552 0.950 1_554 S
H545 C557 0.950 . S
H546 C554 0.950 . S
H547 C556 0.950 . S
H548 C558 0.950 1_556 S
H549 C560 0.950 . S
H550 C562 0.950 . S
H551 C563 0.950 . S
C552 H544 0.950 1_556 S
C552 C553 1.386 . S
C552 C554 1.391 1_556 S
C553 C552 1.386 . S
C553 C557 1.393 . S
C554 H546 0.950 . S
C554 C552 1.391 1_554 S
C554 C555 1.400 1_554 S
C555 C554 1.400 1_556 S
C555 C556 1.398 . S
C555 C561 1.491 1_546 S
C556 H547 0.950 . S
C556 C555 1.398 . S
C556 C557 1.391 . S
C557 H545 0.950 . S
C557 C553 1.393 . S
C557 C556 1.391 . S
C558 H548 0.950 1_554 S
C558 C559 1.386 . S
C558 C560 1.391 1_554 S
C559 C558 1.386 . S
C559 C563 1.393 . S
C560 H549 0.950 . S
C560 C558 1.391 1_556 S
C560 C561 1.400 1_556 S
C561 C555 1.491 1_564 S
C561 C560 1.400 1_554 S
C561 C562 1.398 . S
C562 H550 0.950 . S
C562 C561 1.398 . S
C562 C563 1.391 . S
C563 H551 0.950 . S
C563 C559 1.393 . S
C563 C562 1.391 . S
H564 C572 0.950 . S
H565 C577 0.953 . S
H566 C574 0.950 . S
H567 C576 0.950 . S
H568 C578 0.950 . S
H569 C580 0.950 . S
H570 C582 0.950 . S
H571 C583 0.952 . S
C572 H564 0.950 . S
C572 C573 1.386 . S
C572 C574 1.391 . S
C573 C572 1.386 . S
C573 C577 1.393 . S
C574 H566 0.950 . S
C574 C572 1.391 . S
C574 C575 1.400 . S
C575 C574 1.400 . S
C575 C576 1.398 1_554 S
C575 C581 1.491 1_454 S
C576 H567 0.950 . S
C576 C575 1.398 1_556 S
C576 C577 1.391 1_556 S
C577 H565 0.953 . S
C577 C573 1.393 . S
C577 C576 1.391 1_554 S
C578 H568 0.950 . S
C578 C579 1.386 . S
C578 C580 1.391 . S
C579 C578 1.386 . S
C579 C583 1.393 . S
C580 H569 0.950 . S
C580 C578 1.391 . S
C580 C581 1.400 . S
C581 C575 1.491 1_656 S
C581 C580 1.400 . S
C581 C582 1.398 1_556 S
C582 H570 0.950 . S
C582 C581 1.398 1_554 S
C582 C583 1.391 1_554 S
C583 H571 0.952 . S
C583 C579 1.393 . S
C583 C582 1.391 1_556 S
H584 C592 0.950 . S
H585 C597 0.950 . S
H586 C594 0.950 . S
H587 C596 0.950 . S
H588 C598 0.950 . S
H589 C600 0.950 . S
H590 C602 0.950 . S
H591 C603 0.950 . S
C592 H584 0.950 . S
C592 C593 1.386 1_554 S
C592 C594 1.391 . S
C593 C592 1.386 1_556 S
C593 C597 1.393 . S
C594 H586 0.950 . S
C594 C592 1.391 . S
C594 C595 1.400 1_554 S
C595 C594 1.400 1_556 S
C595 C596 1.398 . S
C595 C601 1.491 1_556 S
C596 H587 0.950 . S
C596 C595 1.398 . S
C596 C597 1.391 . S
C597 H585 0.950 . S
C597 C593 1.393 . S
C597 C596 1.391 . S
C598 H588 0.950 . S
C598 C599 1.386 1_556 S
C598 C600 1.391 . S
C599 C598 1.386 1_554 S
C599 C603 1.393 . S
C600 H589 0.950 . S
C600 C598 1.391 . S
C600 C601 1.400 1_556 S
C601 C595 1.491 1_554 S
C601 C600 1.400 1_554 S
C601 C602 1.398 . S
C602 H590 0.950 . S
C602 C601 1.398 . S
C602 C603 1.391 . S
C603 H591 0.950 . S
C603 C599 1.393 . S
C603 C602 1.391 . S
H604 C612 0.955 . S
H605 C617 0.950 . S
H606 C614 0.950 . S
H607 C616 0.950 . S
H608 C618 0.953 . S
H609 C620 0.950 . S
H610 C622 0.950 . S
H611 C623 0.950 . S
C612 H604 0.955 . S
C612 C613 1.386 . S
C612 C614 1.391 1_554 S
C613 C612 1.386 . S
C613 C617 1.393 . S
C614 H606 0.950 . S
C614 C612 1.391 1_556 S
C614 C615 1.400 1_556 S
C615 C614 1.400 1_554 S
C615 C616 1.398 . S
C615 C621 1.491 1_564 S
C616 H607 0.950 . S
C616 C615 1.398 . S
C616 C617 1.391 . S
C617 H605 0.950 . S
C617 C613 1.393 . S
C617 C616 1.391 . S
C618 H608 0.953 . S
C618 C619 1.386 . S
C618 C620 1.391 1_556 S
C619 C618 1.386 . S
C619 C623 1.393 . S
C620 H609 0.950 . S
C620 C618 1.391 1_554 S
C620 C621 1.400 1_554 S
C621 C615 1.491 1_546 S
C621 C620 1.400 1_556 S
C621 C622 1.398 . S
C622 H610 0.950 . S
C622 C621 1.398 . S
C622 C623 1.391 . S
C623 H611 0.950 . S
C623 C619 1.393 . S
C623 C622 1.391 . S
H624 C632 0.950 . S
H625 C637 0.950 . S
H626 C634 0.950 . S
H627 C636 0.950 . S
H628 C638 0.950 . S
H629 C640 0.950 . S
H630 C642 0.950 . S
H631 C643 0.950 . S
C632 H624 0.950 . S
C632 C633 1.386 . S
C632 C634 1.391 . S
C633 C632 1.386 . S
C633 C637 1.393 . S
C634 H626 0.950 . S
C634 C632 1.391 . S
C634 C635 1.400 . S
C635 C634 1.400 . S
C635 C636 1.398 . S
C635 C641 1.491 . S
C636 H627 0.950 . S
C636 C635 1.398 . S
C636 C637 1.391 . S
C637 H625 0.950 . S
C637 C633 1.393 . S
C637 C636 1.391 . S
C638 H628 0.950 . S
C638 C639 1.386 . S
C638 C640 1.391 . S
C639 C638 1.386 . S
C639 C643 1.393 . S
C640 H629 0.950 . S
C640 C638 1.391 . S
C640 C641 1.400 . S
C641 C635 1.491 . S
C641 C640 1.400 . S
C641 C642 1.398 . S
C642 H630 0.950 . S
C642 C641 1.398 . S
C642 C643 1.391 . S
C643 H631 0.950 . S
C643 C639 1.393 . S
C643 C642 1.391 . S
H644 C652 0.950 . S
H645 C657 0.950 . S
H646 C654 0.950 . S
H647 C656 0.950 . S
H648 C658 0.950 . S
H649 C660 0.950 . S
H650 C662 0.950 . S
H651 C663 0.950 . S
C652 H644 0.950 . S
C652 C653 1.386 . S
C652 C654 1.391 . S
C653 C652 1.386 . S
C653 C657 1.393 . S
C654 H646 0.950 . S
C654 C652 1.391 . S
C654 C655 1.400 . S
C655 C654 1.400 . S
C655 C656 1.398 . S
C655 C661 1.491 . S
C656 H647 0.950 . S
C656 C655 1.398 . S
C656 C657 1.391 . S
C657 H645 0.950 . S
C657 C653 1.393 . S
C657 C656 1.391 . S
C658 H648 0.950 . S
C658 C659 1.386 1_565 S
C658 C660 1.391 . S
C659 C658 1.386 1_545 S
C659 C663 1.393 . S
C660 H649 0.950 . S
C660 C658 1.391 . S
C660 C661 1.400 . S
C661 C655 1.491 . S
C661 C660 1.400 . S
C661 C662 1.398 1_565 S
C662 H650 0.950 . S
C662 C661 1.398 1_545 S
C662 C663 1.391 . S
C663 H651 0.950 . S
C663 C659 1.393 . S
C663 C662 1.391 . S
H664 C672 0.950 . S
H665 C677 0.950 . S
H666 C674 0.950 . S
H667 C676 0.950 . S
H668 C678 0.950 . S
H669 C680 0.950 . S
H670 C682 0.950 1_655 S
H671 C683 0.950 . S
C672 H664 0.950 . S
C672 C673 1.386 . S
C672 C674 1.391 . S
C673 C672 1.386 . S
C673 C677 1.393 1_655 S
C674 H666 0.950 . S
C674 C672 1.391 . S
C674 C675 1.400 1_655 S
C675 C674 1.400 1_455 S
C675 C676 1.398 . S
C675 C681 1.491 . S
C676 H667 0.950 . S
C676 C675 1.398 . S
C676 C677 1.391 . S
C677 H665 0.950 . S
C677 C673 1.393 1_455 S
C677 C676 1.391 . S
C678 H668 0.950 . S
C678 C679 1.386 . S
C678 C680 1.391 . S
C679 C678 1.386 . S
C679 C683 1.393 . S
C680 H669 0.950 . S
C680 C678 1.391 . S
C680 C681 1.400 . S
C681 C675 1.491 . S
C681 C680 1.400 . S
C681 C682 1.398 . S
C682 H670 0.950 1_455 S
C682 C681 1.398 . S
C682 C683 1.391 . S
C683 H671 0.950 . S
C683 C679 1.393 . S
C683 C682 1.391 . S
H684 C692 0.950 . S
H685 C697 0.950 . S
H686 C694 0.950 . S
H687 C696 0.950 1_545 S
H688 C698 0.950 . S
H689 C700 0.950 . S
H690 C702 0.950 . S
H691 C703 0.950 . S
C692 H684 0.950 . S
C692 C693 1.386 . S
C692 C694 1.391 . S
C693 C692 1.386 . S
C693 C697 1.393 . S
C694 H686 0.950 . S
C694 C692 1.391 . S
C694 C695 1.400 . S
C695 C694 1.400 . S
C695 C696 1.398 . S
C695 C701 1.491 . S
C696 H687 0.950 1_565 S
C696 C695 1.398 . S
C696 C697 1.391 . S
C697 H685 0.950 . S
C697 C693 1.393 . S
C697 C696 1.391 . S
C698 H688 0.950 . S
C698 C699 1.386 . S
C698 C700 1.391 . S
C699 C698 1.386 . S
C699 C703 1.393 1_545 S
C700 H689 0.950 . S
C700 C698 1.391 . S
C700 C701 1.400 1_545 S
C701 C695 1.491 . S
C701 C700 1.400 1_565 S
C701 C702 1.398 . S
C702 H690 0.950 . S
C702 C701 1.398 . S
C702 C703 1.391 . S
C703 H691 0.950 . S
C703 C699 1.393 1_565 S
C703 C702 1.391 . S
H704 C712 0.950 . S
H705 C717 0.950 . S
H706 C714 0.950 . S
H707 C716 0.950 . S
H708 C718 0.950 . S
H709 C720 0.950 . S
H710 C722 0.950 1_655 S
H711 C723 0.950 . S
C712 H704 0.950 . S
C712 C713 1.386 . S
C712 C714 1.391 . S
C713 C712 1.386 . S
C713 C717 1.393 1_655 S
C714 H706 0.950 . S
C714 C712 1.391 . S
C714 C715 1.400 1_655 S
C715 C714 1.400 1_455 S
C715 C716 1.398 . S
C715 C721 1.491 . S
C716 H707 0.950 . S
C716 C715 1.398 . S
C716 C717 1.391 . S
C717 H705 0.950 . S
C717 C713 1.393 1_455 S
C717 C716 1.391 . S
C718 H708 0.950 . S
C718 C719 1.386 . S
C718 C720 1.391 . S
C719 C718 1.386 . S
C719 C723 1.393 . S
C720 H709 0.950 . S
C720 C718 1.391 . S
C720 C721 1.400 . S
C721 C715 1.491 . S
C721 C720 1.400 . S
C721 C722 1.398 . S
C722 H710 0.950 1_455 S
C722 C721 1.398 . S
C722 C723 1.391 . S
C723 H711 0.950 . S
C723 C719 1.393 . S
C723 C722 1.391 . S
H724 C732 0.950 . S
H725 C737 0.950 . S
H726 C734 0.950 . S
H727 C736 0.950 . S
H728 C738 0.950 . S
H729 C740 0.950 . S
H730 C742 0.950 . S
H731 C743 0.950 . S
C732 H724 0.950 . S
C732 C733 1.386 . S
C732 C734 1.391 . S
C733 C732 1.386 . S
C733 C737 1.393 . S
C734 H726 0.950 . S
C734 C732 1.391 . S
C734 C735 1.400 . S
C735 C734 1.400 . S
C735 C736 1.398 . S
C735 C741 1.491 . S
C736 H727 0.950 . S
C736 C735 1.398 . S
C736 C737 1.391 . S
C737 H725 0.950 . S
C737 C733 1.393 . S
C737 C736 1.391 . S
C738 H728 0.950 . S
C738 C739 1.386 . S
C738 C740 1.391 . S
C739 C738 1.386 . S
C739 C743 1.393 . S
C740 H729 0.950 . S
C740 C738 1.391 . S
C740 C741 1.400 . S
C741 C735 1.491 . S
C741 C740 1.400 . S
C741 C742 1.398 . S
C742 H730 0.950 . S
C742 C741 1.398 . S
C742 C743 1.391 . S
C743 H731 0.950 . S
C743 C739 1.393 . S
C743 C742 1.391 . S
H744 C752 0.950 . S
H745 C757 0.950 . S
H746 C754 0.950 . S
H747 C756 0.950 . S
H748 C758 0.950 . S
H749 C760 0.950 1_565 S
H750 C762 0.950 . S
H751 C763 0.950 . S
C752 H744 0.950 . S
C752 C753 1.386 1_545 S
C752 C754 1.391 . S
C753 C752 1.386 1_565 S
C753 C757 1.393 . S
C754 H746 0.950 . S
C754 C752 1.391 . S
C754 C755 1.400 . S
C755 C754 1.400 . S
C755 C756 1.398 1_545 S
C755 C761 1.491 . S
C756 H747 0.950 . S
C756 C755 1.398 1_565 S
C756 C757 1.391 . S
C757 H745 0.950 . S
C757 C753 1.393 . S
C757 C756 1.391 . S
C758 H748 0.950 . S
C758 C759 1.386 . S
C758 C760 1.391 . S
C759 C758 1.386 . S
C759 C763 1.393 . S
C760 H749 0.950 1_545 S
C760 C758 1.391 . S
C760 C761 1.400 . S
C761 C755 1.491 . S
C761 C760 1.400 . S
C761 C762 1.398 . S
C762 H750 0.950 . S
C762 C761 1.398 . S
C762 C763 1.391 . S
C763 H751 0.950 . S
C763 C759 1.393 . S
C763 C762 1.391 . S
H764 C772 0.950 . S
H765 C777 0.950 . S
H766 C774 0.950 1_455 S
H767 C776 0.950 . S
H768 C778 0.950 . S
H769 C780 0.950 . S
H770 C782 0.950 . S
H771 C783 0.950 . S
C772 H764 0.950 . S
C772 C773 1.386 . S
C772 C774 1.391 . S
C773 C772 1.386 . S
C773 C777 1.393 . S
C774 H766 0.950 1_655 S
C774 C772 1.391 . S
C774 C775 1.400 . S
C775 C774 1.400 . S
C775 C776 1.398 . S
C775 C781 1.491 . S
C776 H767 0.950 . S
C776 C775 1.398 . S
C776 C777 1.391 . S
C777 H765 0.950 . S
C777 C773 1.393 . S
C777 C776 1.391 . S
C778 H768 0.950 . S
C778 C779 1.386 1_655 S
C778 C780 1.391 . S
C779 C778 1.386 1_455 S
C779 C783 1.393 . S
C780 H769 0.950 . S
C780 C778 1.391 . S
C780 C781 1.400 . S
C781 C775 1.491 . S
C781 C780 1.400 . S
C781 C782 1.398 1_655 S
C782 H770 0.950 . S
C782 C781 1.398 1_455 S
C782 C783 1.391 . S
C783 H771 0.950 . S
C783 C779 1.393 . S
C783 C782 1.391 . S
H784 C792 0.950 . S
H785 C797 0.950 . S
H786 C794 0.950 . S
H787 C796 0.950 . S
H788 C798 0.950 . S
H789 C800 0.950 . S
H790 C802 0.950 . S
H791 C803 0.950 . S
C792 H784 0.950 . S
C792 C793 1.386 . S
C792 C794 1.391 . S
C793 C792 1.386 . S
C793 C797 1.393 . S
C794 H786 0.950 . S
C794 C792 1.391 . S
C794 C795 1.400 . S
C795 C794 1.400 . S
C795 C796 1.398 . S
C795 C801 1.491 . S
C796 H787 0.950 . S
C796 C795 1.398 . S
C796 C797 1.391 . S
C797 H785 0.950 . S
C797 C793 1.393 . S
C797 C796 1.391 . S
C798 H788 0.950 . S
C798 C799 1.386 . S
C798 C800 1.391 . S
C799 C798 1.386 . S
C799 C803 1.393 . S
C800 H789 0.950 . S
C800 C798 1.391 . S
C800 C801 1.400 . S
C801 C795 1.491 . S
C801 C800 1.400 . S
C801 C802 1.398 . S
C802 H790 0.950 . S
C802 C801 1.398 . S
C802 C803 1.391 . S
C803 H791 0.950 . S
C803 C799 1.393 . S
C803 C802 1.391 . S
H804 C812 0.950 . S
H805 C817 0.950 . S
H806 C814 0.950 . S
H807 C816 0.950 . S
H808 C818 0.950 . S
H809 C820 0.950 . S
H810 C822 0.950 . S
H811 C823 0.950 . S
C812 H804 0.950 . S
C812 C813 1.386 . S
C812 C814 1.391 . S
C813 C812 1.386 . S
C813 C817 1.393 . S
C814 H806 0.950 . S
C814 C812 1.391 . S
C814 C815 1.400 . S
C815 C814 1.400 . S
C815 C816 1.398 . S
C815 C821 1.491 . S
C816 H807 0.950 . S
C816 C815 1.398 . S
C816 C817 1.391 . S
C817 H805 0.950 . S
C817 C813 1.393 . S
C817 C816 1.391 . S
C818 H808 0.950 . S
C818 C819 1.386 . S
C818 C820 1.391 . S
C819 C818 1.386 . S
C819 C823 1.393 . S
C820 H809 0.950 . S
C820 C818 1.391 . S
C820 C821 1.400 . S
C821 C815 1.491 . S
C821 C820 1.400 . S
C821 C822 1.398 . S
C822 H810 0.950 . S
C822 C821 1.398 . S
C822 C823 1.391 . S
C823 H811 0.950 . S
C823 C819 1.393 . S
C823 C822 1.391 . S
H824 C832 0.950 . S
H825 C837 0.950 . S
H826 C834 0.950 . S
H827 C836 0.950 . S
H828 C838 0.950 . S
H829 C840 0.950 . S
H830 C842 0.950 1_565 S
H831 C843 0.950 . S
C832 H824 0.950 . S
C832 C833 1.386 . S
C832 C834 1.391 . S
C833 C832 1.386 . S
C833 C837 1.393 1_565 S
C834 H826 0.950 . S
C834 C832 1.391 . S
C834 C835 1.400 1_565 S
C835 C834 1.400 1_545 S
C835 C836 1.398 . S
C835 C841 1.491 . S
C836 H827 0.950 . S
C836 C835 1.398 . S
C836 C837 1.391 . S
C837 H825 0.950 . S
C837 C833 1.393 1_545 S
C837 C836 1.391 . S
C838 H828 0.950 . S
C838 C839 1.386 . S
C838 C840 1.391 . S
C839 C838 1.386 . S
C839 C843 1.393 . S
C840 H829 0.950 . S
C840 C838 1.391 . S
C840 C841 1.400 . S
C841 C835 1.491 . S
C841 C840 1.400 . S
C841 C842 1.398 . S
C842 H830 0.950 1_545 S
C842 C841 1.398 . S
C842 C843 1.391 . S
C843 H831 0.950 . S
C843 C839 1.393 . S
C843 C842 1.391 . S
H844 C852 0.950 . S
H845 C857 0.950 . S
H846 C854 0.950 . S
H847 C856 0.950 . S
H848 C858 0.950 . S
H849 C860 0.950 1_455 S
H850 C862 0.950 . S
H851 C863 0.950 . S
C852 H844 0.950 . S
C852 C853 1.386 1_655 S
C852 C854 1.391 . S
C853 C852 1.386 1_455 S
C853 C857 1.393 . S
C854 H846 0.950 . S
C854 C852 1.391 . S
C854 C855 1.400 . S
C855 C854 1.400 . S
C855 C856 1.398 1_655 S
C855 C861 1.491 . S
C856 H847 0.950 . S
C856 C855 1.398 1_455 S
C856 C857 1.391 . S
C857 H845 0.950 . S
C857 C853 1.393 . S
C857 C856 1.391 . S
C858 H848 0.950 . S
C858 C859 1.386 . S
C858 C860 1.391 . S
C859 C858 1.386 . S
C859 C863 1.393 . S
C860 H849 0.950 1_655 S
C860 C858 1.391 . S
C860 C861 1.400 . S
C861 C855 1.491 . S
C861 C860 1.400 . S
C861 C862 1.398 . S
C862 H850 0.950 . S
C862 C861 1.398 . S
C862 C863 1.391 . S
C863 H851 0.950 . S
C863 C859 1.393 . S
C863 C862 1.391 . S
H864 C872 0.950 . S
H865 C877 0.950 . S
H866 C874 0.950 . S
H867 C876 0.950 . S
H868 C878 0.950 . S
H869 C880 0.950 . S
H870 C882 0.950 . S
H871 C883 0.950 . S
C872 H864 0.950 . S
C872 C873 1.386 1_556 S
C872 C874 1.391 . S
C873 C872 1.386 1_554 S
C873 C877 1.393 . S
C874 H866 0.950 . S
C874 C872 1.391 . S
C874 C875 1.400 1_556 S
C875 C874 1.400 1_554 S
C875 C876 1.398 . S
C875 C881 1.491 . S
C876 H867 0.950 . S
C876 C875 1.398 . S
C876 C877 1.391 . S
C877 H865 0.950 . S
C877 C873 1.393 . S
C877 C876 1.391 . S
C878 H868 0.950 . S
C878 C879 1.386 . S
C878 C880 1.391 . S
C879 C878 1.386 . S
C879 C883 1.393 1_554 S
C880 H869 0.950 . S
C880 C878 1.391 . S
C880 C881 1.400 . S
C881 C875 1.491 . S
C881 C880 1.400 . S
C881 C882 1.398 1_554 S
C882 H870 0.950 . S
C882 C881 1.398 1_556 S
C882 C883 1.391 . S
C883 H871 0.950 . S
C883 C879 1.393 1_556 S
C883 C882 1.391 . S
H884 C892 0.946 1_556 S
H885 C897 0.950 . S
H886 C894 0.942 1_556 S
H887 C896 0.950 . S
H888 C898 0.950 . S
H889 C900 0.950 . S
H890 C902 0.950 1_556 S
H891 C903 0.950 1_556 S
C892 H884 0.946 1_554 S
C892 C893 1.389 . S
C892 C894 1.391 . S
C893 C892 1.389 . S
C893 C897 1.393 . S
C894 H886 0.942 1_554 S
C894 C892 1.391 . S
C894 C895 1.409 . S
C895 C894 1.409 . S
C895 C896 1.398 . S
C895 C901 1.491 . S
C896 H887 0.950 . S
C896 C895 1.398 . S
C896 C897 1.391 . S
C897 H885 0.950 . S
C897 C893 1.393 . S
C897 C896 1.391 . S
C898 H888 0.950 . S
C898 C899 1.386 . S
C898 C900 1.391 . S
C899 C898 1.386 . S
C899 C903 1.393 . S
C900 H889 0.950 . S
C900 C898 1.391 . S
C900 C901 1.400 . S
C901 C895 1.491 . S
C901 C900 1.400 . S
C901 C902 1.398 . S
C902 H890 0.950 1_554 S
C902 C901 1.398 . S
C902 C903 1.391 . S
C903 H891 0.950 1_554 S
C903 C899 1.393 . S
C903 C902 1.391 . S
H904 C912 0.950 . S
H905 C917 0.950 . S
H906 C914 0.950 . S
H907 C916 0.950 . S
H908 C918 0.950 . S
H909 C920 0.950 . S
H910 C922 0.950 . S
H911 C923 0.950 . S
C912 H904 0.950 . S
C912 C913 1.386 . S
C912 C914 1.391 . S
C913 C912 1.386 . S
C913 C917 1.393 1_554 S
C914 H906 0.950 . S
C914 C912 1.391 . S
C914 C915 1.400 . S
C915 C914 1.400 . S
C915 C916 1.398 1_554 S
C915 C921 1.491 . S
C916 H907 0.950 . S
C916 C915 1.398 1_556 S
C916 C917 1.391 . S
C917 H905 0.950 . S
C917 C913 1.393 1_556 S
C917 C916 1.391 . S
C918 H908 0.950 . S
C918 C919 1.386 1_556 S
C918 C920 1.391 . S
C919 C918 1.386 1_554 S
C919 C923 1.393 . S
C920 H909 0.950 . S
C920 C918 1.391 . S
C920 C921 1.400 1_556 S
C921 C915 1.491 . S
C921 C920 1.400 1_554 S
C921 C922 1.398 . S
C922 H910 0.950 . S
C922 C921 1.398 . S
C922 C923 1.391 . S
C923 H911 0.950 . S
C923 C919 1.393 . S
C923 C922 1.391 . S
H924 C932 0.950 . S
H925 C937 0.950 . S
H926 C934 0.950 . S
H927 C936 0.950 . S
H928 C938 0.950 . S
H929 C940 0.950 . S
H930 C942 0.950 . S
H931 C943 0.950 . S
C932 H924 0.950 . S
C932 C933 1.386 . S
C932 C934 1.391 . S
C933 C932 1.386 . S
C933 C937 1.393 1_556 S
C934 H926 0.950 . S
C934 C932 1.391 . S
C934 C935 1.400 . S
C935 C934 1.400 . S
C935 C936 1.398 1_556 S
C935 C941 1.491 . S
C936 H927 0.950 . S
C936 C935 1.398 1_554 S
C936 C937 1.391 . S
C937 H925 0.950 . S
C937 C933 1.393 1_554 S
C937 C936 1.391 . S
C938 H928 0.950 . S
C938 C939 1.386 1_554 S
C938 C940 1.391 . S
C939 C938 1.386 1_556 S
C939 C943 1.393 . S
C940 H929 0.950 . S
C940 C938 1.391 . S
C940 C941 1.400 1_554 S
C941 C935 1.491 . S
C941 C940 1.400 1_556 S
C941 C942 1.398 . S
C942 H930 0.950 . S
C942 C941 1.398 . S
C942 C943 1.391 . S
C943 H931 0.950 . S
C943 C939 1.393 . S
C943 C942 1.391 . S
H944 C952 0.950 . S
H945 C957 0.950 . S
H946 C954 0.950 . S
H947 C956 0.950 . S
H948 C958 0.950 . S
H949 C960 0.950 . S
H950 C962 0.950 . S
H951 C963 0.950 . S
C952 H944 0.950 . S
C952 C953 1.386 1_554 S
C952 C954 1.391 . S
C953 C952 1.386 1_556 S
C953 C957 1.393 . S
C954 H946 0.950 . S
C954 C952 1.391 . S
C954 C955 1.400 1_554 S
C955 C954 1.400 1_556 S
C955 C956 1.398 . S
C955 C961 1.491 . S
C956 H947 0.950 . S
C956 C955 1.398 . S
C956 C957 1.391 . S
C957 H945 0.950 . S
C957 C953 1.393 . S
C957 C956 1.391 . S
C958 H948 0.950 . S
C958 C959 1.386 . S
C958 C960 1.391 . S
C959 C958 1.386 . S
C959 C963 1.393 1_556 S
C960 H949 0.950 . S
C960 C958 1.391 . S
C960 C961 1.400 . S
C961 C955 1.491 . S
C961 C960 1.400 . S
C961 C962 1.398 1_556 S
C962 H950 0.950 . S
C962 C961 1.398 1_554 S
C962 C963 1.391 . S
C963 H951 0.950 . S
C963 C959 1.393 1_554 S
C963 C962 1.391 . S
H964 C972 0.950 . S
H965 C977 0.950 . S
H966 C974 0.950 . S
H967 C976 0.950 . S
H968 C978 0.950 . S
H969 C980 0.950 . S
H970 C982 0.950 . S
H971 C983 0.950 . S
C972 H964 0.950 . S
C972 C973 1.386 . S
C972 C974 1.391 . S
C973 C972 1.386 . S
C973 C977 1.393 1_556 S
C974 H966 0.950 . S
C974 C972 1.391 . S
C974 C975 1.400 . S
C975 C974 1.400 . S
C975 C976 1.398 1_556 S
C975 C981 1.491 . S
C976 H967 0.950 . S
C976 C975 1.398 1_554 S
C976 C977 1.391 . S
C977 H965 0.950 . S
C977 C973 1.393 1_554 S
C977 C976 1.391 . S
C978 H968 0.950 . S
C978 C979 1.386 1_554 S
C978 C980 1.391 . S
C979 C978 1.386 1_556 S
C979 C983 1.393 . S
C980 H969 0.950 . S
C980 C978 1.391 . S
C980 C981 1.400 1_554 S
C981 C975 1.491 . S
C981 C980 1.400 1_556 S
C981 C982 1.398 . S
C982 H970 0.950 . S
C982 C981 1.398 . S
C982 C983 1.391 . S
C983 H971 0.950 . S
C983 C979 1.393 . S
C983 C982 1.391 . S
H984 C992 0.950 . S
H985 C997 0.950 . S
H986 C994 0.950 . S
H987 C996 0.950 . S
H988 C998 0.950 . S
H989 C1000 0.950 . S
H990 C1002 0.950 . S
H991 C1003 0.950 . S
C992 H984 0.950 . S
C992 C993 1.386 . S
C992 C994 1.391 . S
C993 C992 1.386 . S
C993 C997 1.393 . S
C994 H986 0.950 . S
C994 C992 1.391 . S
C994 C995 1.400 . S
C995 C994 1.400 . S
C995 C996 1.398 . S
C995 C1001 1.491 . S
C996 H987 0.950 . S
C996 C995 1.398 . S
C996 C997 1.391 . S
C997 H985 0.950 . S
C997 C993 1.393 . S
C997 C996 1.391 . S
C998 H988 0.950 . S
C998 C999 1.386 . S
C998 C1000 1.391 . S
C999 C998 1.386 . S
C999 C1003 1.393 . S
C1000 H989 0.950 . S
C1000 C998 1.391 . S
C1000 C1001 1.400 . S
C1001 C995 1.491 . S
C1001 C1000 1.400 . S
C1001 C1002 1.398 . S
C1002 H990 0.950 . S
C1002 C1001 1.398 . S
C1002 C1003 1.391 . S
C1003 H991 0.950 . S
C1003 C999 1.393 . S
C1003 C1002 1.391 . S
H1004 C1012 0.950 . S
H1005 C1017 0.950 . S
H1006 C1014 0.950 . S
H1007 C1016 0.950 . S
H1008 C1018 0.950 . S
H1009 C1020 0.950 . S
H1010 C1022 0.950 . S
H1011 C1023 0.950 . S
C1012 H1004 0.950 . S
C1012 C1013 1.386 . S
C1012 C1014 1.391 . S
C1013 C1012 1.386 . S
C1013 C1017 1.393 . S
C1014 H1006 0.950 . S
C1014 C1012 1.391 . S
C1014 C1015 1.400 . S
C1015 C1014 1.400 . S
C1015 C1016 1.398 . S
C1015 C1021 1.491 . S
C1016 H1007 0.950 . S
C1016 C1015 1.398 . S
C1016 C1017 1.391 . S
C1017 H1005 0.950 . S
C1017 C1013 1.393 . S
C1017 C1016 1.391 . S
C1018 H1008 0.950 . S
C1018 C1019 1.386 . S
C1018 C1020 1.391 . S
C1019 C1018 1.386 . S
C1019 C1023 1.393 . S
C1020 H1009 0.950 . S
C1020 C1018 1.391 . S
C1020 C1021 1.400 . S
C1021 C1015 1.491 . S
C1021 C1020 1.400 . S
C1021 C1022 1.398 . S
C1022 H1010 0.950 . S
C1022 C1021 1.398 . S
C1022 C1023 1.391 . S
C1023 H1011 0.950 . S
C1023 C1019 1.393 . S
C1023 C1022 1.391 . S
H1024 C1032 0.950 . S
H1025 C1037 0.950 . S
H1026 C1034 0.950 . S
H1027 C1036 0.950 . S
H1028 C1038 0.950 . S
H1029 C1040 0.950 . S
H1030 C1042 0.950 . S
H1031 C1043 0.950 . S
C1032 H1024 0.950 . S
C1032 C1033 1.386 . S
C1032 C1034 1.391 . S
C1033 C1032 1.386 . S
C1033 C1037 1.393 . S
C1034 H1026 0.950 . S
C1034 C1032 1.391 . S
C1034 C1035 1.400 . S
C1035 C1034 1.400 . S
C1035 C1036 1.398 . S
C1035 C1041 1.491 . S
C1036 H1027 0.950 . S
C1036 C1035 1.398 . S
C1036 C1037 1.391 . S
C1037 H1025 0.950 . S
C1037 C1033 1.393 . S
C1037 C1036 1.391 . S
C1038 H1028 0.950 . S
C1038 C1039 1.386 . S
C1038 C1040 1.391 . S
C1039 C1038 1.386 . S
C1039 C1043 1.393 . S
C1040 H1029 0.950 . S
C1040 C1038 1.391 . S
C1040 C1041 1.400 . S
C1041 C1035 1.491 . S
C1041 C1040 1.400 . S
C1041 C1042 1.398 . S
C1042 H1030 0.950 . S
C1042 C1041 1.398 . S
C1042 C1043 1.391 . S
C1043 H1031 0.950 . S
C1043 C1039 1.393 . S
C1043 C1042 1.391 . S
H1044 C1052 0.950 . S
H1045 C1057 0.950 . S
H1046 C1054 0.950 . S
H1047 C1056 0.950 . S
H1048 C1058 0.950 . S
H1049 C1060 0.950 . S
H1050 C1062 0.950 . S
H1051 C1063 0.950 . S
C1052 H1044 0.950 . S
C1052 C1053 1.386 . S
C1052 C1054 1.391 . S
C1053 C1052 1.386 . S
C1053 C1057 1.393 . S
C1054 H1046 0.950 . S
C1054 C1052 1.391 . S
C1054 C1055 1.400 . S
C1055 C1054 1.400 . S
C1055 C1056 1.398 . S
C1055 C1061 1.491 . S
C1056 H1047 0.950 . S
C1056 C1055 1.398 . S
C1056 C1057 1.391 . S
C1057 H1045 0.950 . S
C1057 C1053 1.393 . S
C1057 C1056 1.391 . S
C1058 H1048 0.950 . S
C1058 C1059 1.386 . S
C1058 C1060 1.391 . S
C1059 C1058 1.386 . S
C1059 C1063 1.393 . S
C1060 H1049 0.950 . S
C1060 C1058 1.391 . S
C1060 C1061 1.400 . S
C1061 C1055 1.491 . S
C1061 C1060 1.400 . S
C1061 C1062 1.398 . S
C1062 H1050 0.950 . S
C1062 C1061 1.398 . S
C1062 C1063 1.391 . S
C1063 H1051 0.950 . S
C1063 C1059 1.393 . S
C1063 C1062 1.391 . S
H1064 C1072 0.950 . S
H1065 C1077 0.950 . S
H1066 C1074 0.950 . S
H1067 C1076 0.950 . S
H1068 C1078 0.950 . S
H1069 C1080 0.950 . S
H1070 C1082 0.950 . S
H1071 C1083 0.950 . S
C1072 H1064 0.950 . S
C1072 C1073 1.386 . S
C1072 C1074 1.391 . S
C1073 C1072 1.386 . S
C1073 C1077 1.393 . S
C1074 H1066 0.950 . S
C1074 C1072 1.391 . S
C1074 C1075 1.400 . S
C1075 C1074 1.400 . S
C1075 C1076 1.398 . S
C1075 C1081 1.491 . S
C1076 H1067 0.950 . S
C1076 C1075 1.398 . S
C1076 C1077 1.391 . S
C1077 H1065 0.950 . S
C1077 C1073 1.393 . S
C1077 C1076 1.391 . S
C1078 H1068 0.950 . S
C1078 C1079 1.386 . S
C1078 C1080 1.391 . S
C1079 C1078 1.386 . S
C1079 C1083 1.393 . S
C1080 H1069 0.950 . S
C1080 C1078 1.391 . S
C1080 C1081 1.400 . S
C1081 C1075 1.491 . S
C1081 C1080 1.400 . S
C1081 C1082 1.398 . S
C1082 H1070 0.950 . S
C1082 C1081 1.398 . S
C1082 C1083 1.391 . S
C1083 H1071 0.950 . S
C1083 C1079 1.393 . S
C1083 C1082 1.391 . S
H1084 C1092 0.950 . S
H1085 C1097 0.950 . S
H1086 C1094 0.950 . S
H1087 C1096 0.950 . S
H1088 C1098 0.950 . S
H1089 C1100 0.950 . S
H1090 C1102 0.950 . S
H1091 C1103 0.950 . S
C1092 H1084 0.950 . S
C1092 C1093 1.386 . S
C1092 C1094 1.391 . S
C1093 C1092 1.386 . S
C1093 C1097 1.393 . S
C1094 H1086 0.950 . S
C1094 C1092 1.391 . S
C1094 C1095 1.400 . S
C1095 C1094 1.400 . S
C1095 C1096 1.398 . S
C1095 C1101 1.491 . S
C1096 H1087 0.950 . S
C1096 C1095 1.398 . S
C1096 C1097 1.391 . S
C1097 H1085 0.950 . S
C1097 C1093 1.393 . S
C1097 C1096 1.391 . S
C1098 H1088 0.950 . S
C1098 C1099 1.386 . S
C1098 C1100 1.391 . S
C1099 C1098 1.386 . S
C1099 C1103 1.393 . S
C1100 H1089 0.950 . S
C1100 C1098 1.391 . S
C1100 C1101 1.400 . S
C1101 C1095 1.491 . S
C1101 C1100 1.400 . S
C1101 C1102 1.398 . S
C1102 H1090 0.950 . S
C1102 C1101 1.398 . S
C1102 C1103 1.391 . S
C1103 H1091 0.950 . S
C1103 C1099 1.393 . S
C1103 C1102 1.391 . S
H1104 C1112 0.950 . S
H1105 C1117 0.950 . S
H1106 C1114 0.950 . S
H1107 C1116 0.950 . S
H1108 C1118 0.950 . S
H1109 C1120 0.950 . S
H1110 C1122 0.950 . S
H1111 C1123 0.950 . S
C1112 H1104 0.950 . S
C1112 C1113 1.386 . S
C1112 C1114 1.391 . S
C1113 C1112 1.386 . S
C1113 C1117 1.393 . S
C1114 H1106 0.950 . S
C1114 C1112 1.391 . S
C1114 C1115 1.400 . S
C1115 C1114 1.400 . S
C1115 C1116 1.398 . S
C1115 C1121 1.491 . S
C1116 H1107 0.950 . S
C1116 C1115 1.398 . S
C1116 C1117 1.391 . S
C1117 H1105 0.950 . S
C1117 C1113 1.393 . S
C1117 C1116 1.391 . S
C1118 H1108 0.950 . S
C1118 C1119 1.386 . S
C1118 C1120 1.391 . S
C1119 C1118 1.386 . S
C1119 C1123 1.393 . S
C1120 H1109 0.950 . S
C1120 C1118 1.391 . S
C1120 C1121 1.400 . S
C1121 C1115 1.491 . S
C1121 C1120 1.400 . S
C1121 C1122 1.398 . S
C1122 H1110 0.950 . S
C1122 C1121 1.398 . S
C1122 C1123 1.391 . S
C1123 H1111 0.950 . S
C1123 C1119 1.393 . S
C1123 C1122 1.391 . S
H1124 C1132 0.950 . S
H1125 C1137 0.950 . S
H1126 C1134 0.950 . S
H1127 C1136 0.950 . S
H1128 C1138 0.950 . S
H1129 C1140 0.950 . S
H1130 C1142 0.950 . S
H1131 C1143 0.950 . S
C1132 H1124 0.950 . S
C1132 C1133 1.386 . S
C1132 C1134 1.391 . S
C1133 C1132 1.386 . S
C1133 C1137 1.393 . S
C1134 H1126 0.950 . S
C1134 C1132 1.391 . S
C1134 C1135 1.400 . S
C1135 C1134 1.400 . S
C1135 C1136 1.398 . S
C1135 C1141 1.491 . S
C1136 H1127 0.950 . S
C1136 C1135 1.398 . S
C1136 C1137 1.391 . S
C1137 H1125 0.950 . S
C1137 C1133 1.393 . S
C1137 C1136 1.391 . S
C1138 H1128 0.950 . S
C1138 C1139 1.386 . S
C1138 C1140 1.391 . S
C1139 C1138 1.386 . S
C1139 C1143 1.393 . S
C1140 H1129 0.950 . S
C1140 C1138 1.391 . S
C1140 C1141 1.400 . S
C1141 C1135 1.491 . S
C1141 C1140 1.400 . S
C1141 C1142 1.398 . S
C1142 H1130 0.950 . S
C1142 C1141 1.398 . S
C1142 C1143 1.391 . S
C1143 H1131 0.950 . S
C1143 C1139 1.393 . S
C1143 C1142 1.391 . S
H1144 C1152 0.950 . S
H1145 C1157 0.950 . S
H1146 C1154 0.950 . S
H1147 C1156 0.950 . S
H1148 C1158 0.950 . S
H1149 C1160 0.950 . S
H1150 C1162 0.950 . S
H1151 C1163 0.950 . S
C1152 H1144 0.950 . S
C1152 C1153 1.386 . S
C1152 C1154 1.391 . S
C1153 C1152 1.386 . S
C1153 C1157 1.393 . S
C1154 H1146 0.950 . S
C1154 C1152 1.391 . S
C1154 C1155 1.400 . S
C1155 C1154 1.400 . S
C1155 C1156 1.398 . S
C1155 C1161 1.491 . S
C1156 H1147 0.950 . S
C1156 C1155 1.398 . S
C1156 C1157 1.391 . S
C1157 H1145 0.950 . S
C1157 C1153 1.393 . S
C1157 C1156 1.391 . S
C1158 H1148 0.950 . S
C1158 C1159 1.386 . S
C1158 C1160 1.391 . S
C1159 C1158 1.386 . S
C1159 C1163 1.393 . S
C1160 H1149 0.950 . S
C1160 C1158 1.391 . S
C1160 C1161 1.400 . S
C1161 C1155 1.491 . S
C1161 C1160 1.400 . S
C1161 C1162 1.398 . S
C1162 H1150 0.950 . S
C1162 C1161 1.398 . S
C1162 C1163 1.391 . S
C1163 H1151 0.950 . S
C1163 C1159 1.393 . S
C1163 C1162 1.391 . S
H1164 C1172 0.950 . S
H1165 C1177 0.950 . S
H1166 C1174 0.950 . S
H1167 C1176 0.950 . S
H1168 C1178 0.950 . S
H1169 C1180 0.950 . S
H1170 C1182 0.950 . S
H1171 C1183 0.950 . S
C1172 H1164 0.950 . S
C1172 C1173 1.386 . S
C1172 C1174 1.391 . S
C1173 C1172 1.386 . S
C1173 C1177 1.393 . S
C1174 H1166 0.950 . S
C1174 C1172 1.391 . S
C1174 C1175 1.400 . S
C1175 C1174 1.400 . S
C1175 C1176 1.398 . S
C1175 C1181 1.491 . S
C1176 H1167 0.950 . S
C1176 C1175 1.398 . S
C1176 C1177 1.391 . S
C1177 H1165 0.950 . S
C1177 C1173 1.393 . S
C1177 C1176 1.391 . S
C1178 H1168 0.950 . S
C1178 C1179 1.386 . S
C1178 C1180 1.391 . S
C1179 C1178 1.386 . S
C1179 C1183 1.393 . S
C1180 H1169 0.950 . S
C1180 C1178 1.391 . S
C1180 C1181 1.400 . S
C1181 C1175 1.491 . S
C1181 C1180 1.400 . S
C1181 C1182 1.398 . S
C1182 H1170 0.950 . S
C1182 C1181 1.398 . S
C1182 C1183 1.391 . S
C1183 H1171 0.950 . S
C1183 C1179 1.393 . S
C1183 C1182 1.391 . S
H1184 C1192 0.950 . S
H1185 C1197 0.950 . S
H1186 C1194 0.950 . S
H1187 C1196 0.950 . S
H1188 C1198 0.950 . S
H1189 C1200 0.950 . S
H1190 C1202 0.950 . S
H1191 C1203 0.950 . S
C1192 H1184 0.950 . S
C1192 C1193 1.386 . S
C1192 C1194 1.391 . S
C1193 C1192 1.386 . S
C1193 C1197 1.393 . S
C1194 H1186 0.950 . S
C1194 C1192 1.391 . S
C1194 C1195 1.400 . S
C1195 C1194 1.400 . S
C1195 C1196 1.398 . S
C1195 C1201 1.491 . S
C1196 H1187 0.950 . S
C1196 C1195 1.398 . S
C1196 C1197 1.391 . S
C1197 H1185 0.950 . S
C1197 C1193 1.393 . S
C1197 C1196 1.391 . S
C1198 H1188 0.950 . S
C1198 C1199 1.386 . S
C1198 C1200 1.391 . S
C1199 C1198 1.386 . S
C1199 C1203 1.393 . S
C1200 H1189 0.950 . S
C1200 C1198 1.391 . S
C1200 C1201 1.400 . S
C1201 C1195 1.491 . S
C1201 C1200 1.400 . S
C1201 C1202 1.398 . S
C1202 H1190 0.950 . S
C1202 C1201 1.398 . S
C1202 C1203 1.391 . S
C1203 H1191 0.950 . S
C1203 C1199 1.393 . S
C1203 C1202 1.391 . S
H1204 C1212 0.950 . S
H1205 C1217 0.950 . S
H1206 C1214 0.950 . S
H1207 C1216 0.950 . S
H1208 C1218 0.950 . S
H1209 C1220 0.950 . S
H1210 C1222 0.950 . S
H1211 C1223 0.950 . S
C1212 H1204 0.950 . S
C1212 C1213 1.386 . S
C1212 C1214 1.391 . S
C1213 C1212 1.386 . S
C1213 C1217 1.393 . S
C1214 H1206 0.950 . S
C1214 C1212 1.391 . S
C1214 C1215 1.400 . S
C1215 C1214 1.400 . S
C1215 C1216 1.398 . S
C1215 C1221 1.491 . S
C1216 H1207 0.950 . S
C1216 C1215 1.398 . S
C1216 C1217 1.391 . S
C1217 H1205 0.950 . S
C1217 C1213 1.393 . S
C1217 C1216 1.391 . S
C1218 H1208 0.950 . S
C1218 C1219 1.386 . S
C1218 C1220 1.391 . S
C1219 C1218 1.386 . S
C1219 C1223 1.393 . S
C1220 H1209 0.950 . S
C1220 C1218 1.391 . S
C1220 C1221 1.400 . S
C1221 C1215 1.491 . S
C1221 C1220 1.400 . S
C1221 C1222 1.398 . S
C1222 H1210 0.950 . S
C1222 C1221 1.398 . S
C1222 C1223 1.391 . S
C1223 H1211 0.950 . S
C1223 C1219 1.393 . S
C1223 C1222 1.391 . S
H1224 C1232 0.950 . S
H1225 C1237 0.950 . S
H1226 C1234 0.950 . S
H1227 C1236 0.950 . S
H1228 C1238 0.950 . S
H1229 C1240 0.950 . S
H1230 C1242 0.950 . S
H1231 C1243 0.950 . S
C1232 H1224 0.950 . S
C1232 C1233 1.386 . S
C1232 C1234 1.391 . S
C1233 C1232 1.386 . S
C1233 C1237 1.393 . S
C1234 H1226 0.950 . S
C1234 C1232 1.391 . S
C1234 C1235 1.400 . S
C1235 C1234 1.400 . S
C1235 C1236 1.398 . S
C1235 C1241 1.491 . S
C1236 H1227 0.950 . S
C1236 C1235 1.398 . S
C1236 C1237 1.391 . S
C1237 H1225 0.950 . S
C1237 C1233 1.393 . S
C1237 C1236 1.391 . S
C1238 H1228 0.950 . S
C1238 C1239 1.386 . S
C1238 C1240 1.391 . S
C1239 C1238 1.386 . S
C1239 C1243 1.393 . S
C1240 H1229 0.950 . S
C1240 C1238 1.391 . S
C1240 C1241 1.400 . S
C1241 C1235 1.491 . S
C1241 C1240 1.400 . S
C1241 C1242 1.398 . S
C1242 H1230 0.950 . S
C1242 C1241 1.398 . S
C1242 C1243 1.391 . S
C1243 H1231 0.950 . S
C1243 C1239 1.393 . S
C1243 C1242 1.391 . S
H1244 C1252 0.950 . S
H1245 C1257 0.950 . S
H1246 C1254 0.950 . S
H1247 C1256 0.950 . S
H1248 C1258 0.950 . S
H1249 C1260 0.950 . S
H1250 C1262 0.950 . S
H1251 C1263 0.950 . S
C1252 H1244 0.950 . S
C1252 C1253 1.386 . S
C1252 C1254 1.391 . S
C1253 C1252 1.386 . S
C1253 C1257 1.393 . S
C1254 H1246 0.950 . S
C1254 C1252 1.391 . S
C1254 C1255 1.400 . S
C1255 C1254 1.400 . S
C1255 C1256 1.398 . S
C1255 C1261 1.491 . S
C1256 H1247 0.950 . S
C1256 C1255 1.398 . S
C1256 C1257 1.391 . S
C1257 H1245 0.950 . S
C1257 C1253 1.393 . S
C1257 C1256 1.391 . S
C1258 H1248 0.950 . S
C1258 C1259 1.386 . S
C1258 C1260 1.391 . S
C1259 C1258 1.386 . S
C1259 C1263 1.393 . S
C1260 H1249 0.950 . S
C1260 C1258 1.391 . S
C1260 C1261 1.400 . S
C1261 C1255 1.491 . S
C1261 C1260 1.400 . S
C1261 C1262 1.398 . S
C1262 H1250 0.950 . S
C1262 C1261 1.398 . S
C1262 C1263 1.391 . S
C1263 H1251 0.950 . S
C1263 C1259 1.393 . S
C1263 C1262 1.391 . S
H1264 C1272 0.950 . S
H1265 C1277 0.950 . S
H1266 C1274 0.950 . S
H1267 C1276 0.950 . S
H1268 C1278 0.950 . S
H1269 C1280 0.950 . S
H1270 C1282 0.950 . S
H1271 C1283 0.950 . S
C1272 H1264 0.950 . S
C1272 C1273 1.386 . S
C1272 C1274 1.391 . S
C1273 C1272 1.386 . S
C1273 C1277 1.393 . S
C1274 H1266 0.950 . S
C1274 C1272 1.391 . S
C1274 C1275 1.400 . S
C1275 C1274 1.400 . S
C1275 C1276 1.398 . S
C1275 C1281 1.491 . S
C1276 H1267 0.950 . S
C1276 C1275 1.398 . S
C1276 C1277 1.391 . S
C1277 H1265 0.950 . S
C1277 C1273 1.393 . S
C1277 C1276 1.391 . S
C1278 H1268 0.950 . S
C1278 C1279 1.386 . S
C1278 C1280 1.391 . S
C1279 C1278 1.386 . S
C1279 C1283 1.393 . S
C1280 H1269 0.950 . S
C1280 C1278 1.391 . S
C1280 C1281 1.400 . S
C1281 C1275 1.491 . S
C1281 C1280 1.400 . S
C1281 C1282 1.398 . S
C1282 H1270 0.950 . S
C1282 C1281 1.398 . S
C1282 C1283 1.391 . S
C1283 H1271 0.950 . S
C1283 C1279 1.393 . S
C1283 C1282 1.391 . S
H1284 C1292 0.950 . S
H1285 C1297 0.950 . S
H1286 C1294 0.950 . S
H1287 C1296 0.950 . S
H1288 C1298 0.950 . S
H1289 C1300 0.950 . S
H1290 C1302 0.950 . S
H1291 C1303 0.950 . S
C1292 H1284 0.950 . S
C1292 C1293 1.386 . S
C1292 C1294 1.391 . S
C1293 C1292 1.386 . S
C1293 C1297 1.393 . S
C1294 H1286 0.950 . S
C1294 C1292 1.391 . S
C1294 C1295 1.400 . S
C1295 C1294 1.400 . S
C1295 C1296 1.398 . S
C1295 C1301 1.491 . S
C1296 H1287 0.950 . S
C1296 C1295 1.398 . S
C1296 C1297 1.391 . S
C1297 H1285 0.950 . S
C1297 C1293 1.393 . S
C1297 C1296 1.391 . S
C1298 H1288 0.950 . S
C1298 C1299 1.386 . S
C1298 C1300 1.391 . S
C1299 C1298 1.386 . S
C1299 C1303 1.393 . S
C1300 H1289 0.950 . S
C1300 C1298 1.391 . S
C1300 C1301 1.400 . S
C1301 C1295 1.491 . S
C1301 C1300 1.400 . S
C1301 C1302 1.398 . S
C1302 H1290 0.950 . S
C1302 C1301 1.398 . S
C1302 C1303 1.391 . S
C1303 H1291 0.950 . S
C1303 C1299 1.393 . S
C1303 C1302 1.391 . S
H1304 C1312 0.950 . S
H1305 C1317 0.950 . S
H1306 C1314 0.950 . S
H1307 C1316 0.950 . S
H1308 C1318 0.950 . S
H1309 C1320 0.950 . S
H1310 C1322 0.950 . S
H1311 C1323 0.950 . S
C1312 H1304 0.950 . S
C1312 C1313 1.386 . S
C1312 C1314 1.391 . S
C1313 C1312 1.386 . S
C1313 C1317 1.393 . S
C1314 H1306 0.950 . S
C1314 C1312 1.391 . S
C1314 C1315 1.400 . S
C1315 C1314 1.400 . S
C1315 C1316 1.398 . S
C1315 C1321 1.491 . S
C1316 H1307 0.950 . S
C1316 C1315 1.398 . S
C1316 C1317 1.391 . S
C1317 H1305 0.950 . S
C1317 C1313 1.393 . S
C1317 C1316 1.391 . S
C1318 H1308 0.950 . S
C1318 C1319 1.386 . S
C1318 C1320 1.391 . S
C1319 C1318 1.386 . S
C1319 C1323 1.393 . S
C1320 H1309 0.950 . S
C1320 C1318 1.391 . S
C1320 C1321 1.400 . S
C1321 C1315 1.491 . S
C1321 C1320 1.400 . S
C1321 C1322 1.398 . S
C1322 H1310 0.950 . S
C1322 C1321 1.398 . S
C1322 C1323 1.391 . S
C1323 H1311 0.950 . S
C1323 C1319 1.393 . S
C1323 C1322 1.391 . S
H1324 C1332 0.950 . S
H1325 C1337 0.950 . S
H1326 C1334 0.950 . S
H1327 C1336 0.950 . S
H1328 C1338 0.950 . S
H1329 C1340 0.950 . S
H1330 C1342 0.950 . S
H1331 C1343 0.950 . S
C1332 H1324 0.950 . S
C1332 C1333 1.386 . S
C1332 C1334 1.391 . S
C1333 C1332 1.386 . S
C1333 C1337 1.393 . S
C1334 H1326 0.950 . S
C1334 C1332 1.391 . S
C1334 C1335 1.400 . S
C1335 C1334 1.400 . S
C1335 C1336 1.398 . S
C1335 C1341 1.491 . S
C1336 H1327 0.950 . S
C1336 C1335 1.398 . S
C1336 C1337 1.391 . S
C1337 H1325 0.950 . S
C1337 C1333 1.393 . S
C1337 C1336 1.391 . S
C1338 H1328 0.950 . S
C1338 C1339 1.386 . S
C1338 C1340 1.391 . S
C1339 C1338 1.386 . S
C1339 C1343 1.393 . S
C1340 H1329 0.950 . S
C1340 C1338 1.391 . S
C1340 C1341 1.400 . S
C1341 C1335 1.491 . S
C1341 C1340 1.400 . S
C1341 C1342 1.398 . S
C1342 H1330 0.950 . S
C1342 C1341 1.398 . S
C1342 C1343 1.391 . S
C1343 H1331 0.950 . S
C1343 C1339 1.393 . S
C1343 C1342 1.391 . S
H1344 C1352 0.950 . S
H1345 C1357 0.950 . S
H1346 C1354 0.950 . S
H1347 C1356 0.950 . S
H1348 C1358 0.950 . S
H1349 C1360 0.950 . S
H1350 C1362 0.950 . S
H1351 C1363 0.950 . S
C1352 H1344 0.950 . S
C1352 C1353 1.386 . S
C1352 C1354 1.391 . S
C1353 C1352 1.386 . S
C1353 C1357 1.393 . S
C1354 H1346 0.950 . S
C1354 C1352 1.391 . S
C1354 C1355 1.400 . S
C1355 C1354 1.400 . S
C1355 C1356 1.398 . S
C1355 C1361 1.491 . S
C1356 H1347 0.950 . S
C1356 C1355 1.398 . S
C1356 C1357 1.391 . S
C1357 H1345 0.950 . S
C1357 C1353 1.393 . S
C1357 C1356 1.391 . S
C1358 H1348 0.950 . S
C1358 C1359 1.386 . S
C1358 C1360 1.391 . S
C1359 C1358 1.386 . S
C1359 C1363 1.393 . S
C1360 H1349 0.950 . S
C1360 C1358 1.391 . S
C1360 C1361 1.400 . S
C1361 C1355 1.491 . S
C1361 C1360 1.400 . S
C1361 C1362 1.398 . S
C1362 H1350 0.950 . S
C1362 C1361 1.398 . S
C1362 C1363 1.391 . S
C1363 H1351 0.950 . S
C1363 C1359 1.393 . S
C1363 C1362 1.391 . S
H1364 C1372 0.950 . S
H1365 C1377 0.950 . S
H1366 C1374 0.950 . S
H1367 C1376 0.950 . S
H1368 C1378 0.950 . S
H1369 C1380 0.950 . S
H1370 C1382 0.950 . S
H1371 C1383 0.950 . S
C1372 H1364 0.950 . S
C1372 C1373 1.386 . S
C1372 C1374 1.391 . S
C1373 C1372 1.386 . S
C1373 C1377 1.393 . S
C1374 H1366 0.950 . S
C1374 C1372 1.391 . S
C1374 C1375 1.400 . S
C1375 C1374 1.400 . S
C1375 C1376 1.398 . S
C1375 C1381 1.491 . S
C1376 H1367 0.950 . S
C1376 C1375 1.398 . S
C1376 C1377 1.391 . S
C1377 H1365 0.950 . S
C1377 C1373 1.393 . S
C1377 C1376 1.391 . S
C1378 H1368 0.950 . S
C1378 C1379 1.386 . S
C1378 C1380 1.391 . S
C1379 C1378 1.386 . S
C1379 C1383 1.393 . S
C1380 H1369 0.950 . S
C1380 C1378 1.391 . S
C1380 C1381 1.400 . S
C1381 C1375 1.491 . S
C1381 C1380 1.400 . S
C1381 C1382 1.398 . S
C1382 H1370 0.950 . S
C1382 C1381 1.398 . S
C1382 C1383 1.391 . S
C1383 H1371 0.950 . S
C1383 C1379 1.393 . S
C1383 C1382 1.391 . S
H1384 C1392 0.950 . S
H1385 C1397 0.950 . S
H1386 C1394 0.950 . S
H1387 C1396 0.950 . S
H1388 C1398 0.950 . S
H1389 C1400 0.950 . S
H1390 C1402 0.950 . S
H1391 C1403 0.950 . S
C1392 H1384 0.950 . S
C1392 C1393 1.386 . S
C1392 C1394 1.391 . S
C1393 C1392 1.386 . S
C1393 C1397 1.393 . S
C1394 H1386 0.950 . S
C1394 C1392 1.391 . S
C1394 C1395 1.400 . S
C1395 C1394 1.400 . S
C1395 C1396 1.398 . S
C1395 C1401 1.491 . S
C1396 H1387 0.950 . S
C1396 C1395 1.398 . S
C1396 C1397 1.391 . S
C1397 H1385 0.950 . S
C1397 C1393 1.393 . S
C1397 C1396 1.391 . S
C1398 H1388 0.950 . S
C1398 C1399 1.386 . S
C1398 C1400 1.391 . S
C1399 C1398 1.386 . S
C1399 C1403 1.393 . S
C1400 H1389 0.950 . S
C1400 C1398 1.391 . S
C1400 C1401 1.400 . S
C1401 C1395 1.491 . S
C1401 C1400 1.400 . S
C1401 C1402 1.398 . S
C1402 H1390 0.950 . S
C1402 C1401 1.398 . S
C1402 C1403 1.391 . S
C1403 H1391 0.950 . S
C1403 C1399 1.393 . S
C1403 C1402 1.391 . S
H1404 C1412 0.950 . S
H1405 C1417 0.950 . S
H1406 C1414 0.950 . S
H1407 C1416 0.950 . S
H1408 C1418 0.950 . S
H1409 C1420 0.950 . S
H1410 C1422 0.950 . S
H1411 C1423 0.950 . S
C1412 H1404 0.950 . S
C1412 C1413 1.386 . S
C1412 C1414 1.391 . S
C1413 C1412 1.386 . S
C1413 C1417 1.393 . S
C1414 H1406 0.950 . S
C1414 C1412 1.391 . S
C1414 C1415 1.400 . S
C1415 C1414 1.400 . S
C1415 C1416 1.398 . S
C1415 C1421 1.491 . S
C1416 H1407 0.950 . S
C1416 C1415 1.398 . S
C1416 C1417 1.391 . S
C1417 H1405 0.950 . S
C1417 C1413 1.393 . S
C1417 C1416 1.391 . S
C1418 H1408 0.950 . S
C1418 C1419 1.386 . S
C1418 C1420 1.391 . S
C1419 C1418 1.386 . S
C1419 C1423 1.393 . S
C1420 H1409 0.950 . S
C1420 C1418 1.391 . S
C1420 C1421 1.400 . S
C1421 C1415 1.491 . S
C1421 C1420 1.400 . S
C1421 C1422 1.398 . S
C1422 H1410 0.950 . S
C1422 C1421 1.398 . S
C1422 C1423 1.391 . S
C1423 H1411 0.950 . S
C1423 C1419 1.393 . S
C1423 C1422 1.391 . S
H1424 C1432 0.950 . S
H1425 C1437 0.950 . S
H1426 C1434 0.950 . S
H1427 C1436 0.950 . S
H1428 C1438 0.950 . S
H1429 C1440 0.950 . S
H1430 C1442 0.950 . S
H1431 C1443 0.950 . S
C1432 H1424 0.950 . S
C1432 C1433 1.386 . S
C1432 C1434 1.391 . S
C1433 C1432 1.386 . S
C1433 C1437 1.393 . S
C1434 H1426 0.950 . S
C1434 C1432 1.391 . S
C1434 C1435 1.400 . S
C1435 C1434 1.400 . S
C1435 C1436 1.398 . S
C1435 C1441 1.491 . S
C1436 H1427 0.950 . S
C1436 C1435 1.398 . S
C1436 C1437 1.391 . S
C1437 H1425 0.950 . S
C1437 C1433 1.393 . S
C1437 C1436 1.391 . S
C1438 H1428 0.950 . S
C1438 C1439 1.386 . S
C1438 C1440 1.391 . S
C1439 C1438 1.386 . S
C1439 C1443 1.393 . S
C1440 H1429 0.950 . S
C1440 C1438 1.391 . S
C1440 C1441 1.400 . S
C1441 C1435 1.491 . S
C1441 C1440 1.400 . S
C1441 C1442 1.398 . S
C1442 H1430 0.950 . S
C1442 C1441 1.398 . S
C1442 C1443 1.391 . S
C1443 H1431 0.950 . S
C1443 C1439 1.393 . S
C1443 C1442 1.391 . S
H1444 C1452 0.950 . S
H1445 C1457 0.950 . S
H1446 C1454 0.950 . S
H1447 C1456 0.950 . S
H1448 C1458 0.950 . S
H1449 C1460 0.950 . S
H1450 C1462 0.950 . S
H1451 C1463 0.950 . S
C1452 H1444 0.950 . S
C1452 C1453 1.386 . S
C1452 C1454 1.391 . S
C1453 C1452 1.386 . S
C1453 C1457 1.393 . S
C1454 H1446 0.950 . S
C1454 C1452 1.391 . S
C1454 C1455 1.400 . S
C1455 C1454 1.400 . S
C1455 C1456 1.398 . S
C1455 C1461 1.491 . S
C1456 H1447 0.950 . S
C1456 C1455 1.398 . S
C1456 C1457 1.391 . S
C1457 H1445 0.950 . S
C1457 C1453 1.393 . S
C1457 C1456 1.391 . S
C1458 H1448 0.950 . S
C1458 C1459 1.386 . S
C1458 C1460 1.391 . S
C1459 C1458 1.386 . S
C1459 C1463 1.393 . S
C1460 H1449 0.950 . S
C1460 C1458 1.391 . S
C1460 C1461 1.400 . S
C1461 C1455 1.491 . S
C1461 C1460 1.400 . S
C1461 C1462 1.398 . S
C1462 H1450 0.950 . S
C1462 C1461 1.398 . S
C1462 C1463 1.391 . S
C1463 H1451 0.950 . S
C1463 C1459 1.393 . S
C1463 C1462 1.391 . S
H1464 C1472 0.950 . S
H1465 C1477 0.950 . S
H1466 C1474 0.950 . S
H1467 C1476 0.950 . S
H1468 C1478 0.950 . S
H1469 C1480 0.950 . S
H1470 C1482 0.950 . S
H1471 C1483 0.950 . S
C1472 H1464 0.950 . S
C1472 C1473 1.386 . S
C1472 C1474 1.391 . S
C1473 C1472 1.386 . S
C1473 C1477 1.393 . S
C1474 H1466 0.950 . S
C1474 C1472 1.391 . S
C1474 C1475 1.400 . S
C1475 C1474 1.400 . S
C1475 C1476 1.398 . S
C1475 C1481 1.491 . S
C1476 H1467 0.950 . S
C1476 C1475 1.398 . S
C1476 C1477 1.391 . S
C1477 H1465 0.950 . S
C1477 C1473 1.393 . S
C1477 C1476 1.391 . S
C1478 H1468 0.950 . S
C1478 C1479 1.386 . S
C1478 C1480 1.391 . S
C1479 C1478 1.386 . S
C1479 C1483 1.393 . S
C1480 H1469 0.950 . S
C1480 C1478 1.391 . S
C1480 C1481 1.400 . S
C1481 C1475 1.491 . S
C1481 C1480 1.400 . S
C1481 C1482 1.398 . S
C1482 H1470 0.950 . S
C1482 C1481 1.398 . S
C1482 C1483 1.391 . S
C1483 H1471 0.950 . S
C1483 C1479 1.393 . S
C1483 C1482 1.391 . S
H1484 C1492 0.950 . S
H1485 C1497 0.950 . S
H1486 C1494 0.950 . S
H1487 C1496 0.950 . S
H1488 C1498 0.950 . S
H1489 C1500 0.950 . S
H1490 C1502 0.950 . S
H1491 C1503 0.950 . S
C1492 H1484 0.950 . S
C1492 C1493 1.386 . S
C1492 C1494 1.391 . S
C1493 C1492 1.386 . S
C1493 C1497 1.393 1_545 S
C1494 H1486 0.950 . S
C1494 C1492 1.391 . S
C1494 C1495 1.420 . S
C1495 C1494 1.420 . S
C1495 C1496 1.380 1_545 S
C1495 C1501 1.489 1_545 S
C1496 H1487 0.950 . S
C1496 C1495 1.380 1_565 S
C1496 C1497 1.391 . S
C1497 H1485 0.950 . S
C1497 C1493 1.393 1_565 S
C1497 C1496 1.391 . S
C1498 H1488 0.950 . S
C1498 C1499 1.386 . S
C1498 C1500 1.391 . S
C1499 C1498 1.386 . S
C1499 C1503 1.393 1_565 S
C1500 H1489 0.950 . S
C1500 C1498 1.391 . S
C1500 C1501 1.420 . S
C1501 C1495 1.489 1_565 S
C1501 C1500 1.420 . S
C1501 C1502 1.380 1_565 S
C1502 H1490 0.950 . S
C1502 C1501 1.380 1_545 S
C1502 C1503 1.391 . S
C1503 H1491 0.950 . S
C1503 C1499 1.393 1_545 S
C1503 C1502 1.391 . S
H1504 C1512 0.950 . S
H1505 C1517 0.950 . S
H1506 C1514 0.950 . S
H1507 C1516 0.950 . S
H1508 C1518 0.950 . S
H1509 C1520 0.950 . S
H1510 C1522 0.950 . S
H1511 C1523 0.950 . S
C1512 H1504 0.950 . S
C1512 C1513 1.386 1_655 S
C1512 C1514 1.391 . S
C1513 C1512 1.386 1_455 S
C1513 C1517 1.393 . S
C1514 H1506 0.950 . S
C1514 C1512 1.391 . S
C1514 C1515 1.364 1_655 S
C1515 C1514 1.364 1_455 S
C1515 C1516 1.439 . S
C1515 C1521 1.488 1_455 S
C1516 H1507 0.950 . S
C1516 C1515 1.439 . S
C1516 C1517 1.391 . S
C1517 H1505 0.950 . S
C1517 C1513 1.393 . S
C1517 C1516 1.391 . S
C1518 H1508 0.950 . S
C1518 C1519 1.386 1_455 S
C1518 C1520 1.391 . S
C1519 C1518 1.386 1_655 S
C1519 C1523 1.393 . S
C1520 H1509 0.950 . S
C1520 C1518 1.391 . S
C1520 C1521 1.364 1_455 S
C1521 C1515 1.488 1_655 S
C1521 C1520 1.364 1_655 S
C1521 C1522 1.439 . S
C1522 H1510 0.950 . S
C1522 C1521 1.439 . S
C1522 C1523 1.391 . S
C1523 H1511 0.950 . S
C1523 C1519 1.393 . S
C1523 C1522 1.391 . S
H1524 C1532 0.950 . S
H1525 C1537 0.950 . S
H1526 C1534 0.950 . S
H1527 C1536 0.950 . S
H1528 C1538 0.950 . S
H1529 C1540 0.950 . S
H1530 C1542 0.950 . S
H1531 C1543 0.950 . S
C1532 H1524 0.950 . S
C1532 C1533 1.386 . S
C1532 C1534 1.391 . S
C1533 C1532 1.386 . S
C1533 C1537 1.393 . S
C1534 H1526 0.950 . S
C1534 C1532 1.391 . S
C1534 C1535 1.400 . S
C1535 C1534 1.400 . S
C1535 C1536 1.398 . S
C1535 C1541 1.491 . S
C1536 H1527 0.950 . S
C1536 C1535 1.398 . S
C1536 C1537 1.391 . S
C1537 H1525 0.950 . S
C1537 C1533 1.393 . S
C1537 C1536 1.391 . S
C1538 H1528 0.950 . S
C1538 C1539 1.386 . S
C1538 C1540 1.391 . S
C1539 C1538 1.386 . S
C1539 C1543 1.393 . S
C1540 H1529 0.950 . S
C1540 C1538 1.391 . S
C1540 C1541 1.400 . S
C1541 C1535 1.491 . S
C1541 C1540 1.400 . S
C1541 C1542 1.398 . S
C1542 H1530 0.950 . S
C1542 C1541 1.398 . S
C1542 C1543 1.391 . S
C1543 H1531 0.950 . S
C1543 C1539 1.393 . S
C1543 C1542 1.391 . S
H1544 C1552 0.950 . S
H1545 C1557 0.950 . S
H1546 C1554 0.950 . S
H1547 C1556 0.950 . S
H1548 C1558 0.950 . S
H1549 C1560 0.950 . S
H1550 C1562 0.950 . S
H1551 C1563 0.950 . S
C1552 H1544 0.950 . S
C1552 C1553 1.386 1_545 S
C1552 C1554 1.391 . S
C1553 C1552 1.386 1_565 S
C1553 C1557 1.393 . S
C1554 H1546 0.950 . S
C1554 C1552 1.391 . S
C1554 C1555 1.415 1_545 S
C1555 C1554 1.415 1_565 S
C1555 C1556 1.390 . S
C1555 C1561 1.487 1_565 S
C1556 H1547 0.950 . S
C1556 C1555 1.390 . S
C1556 C1557 1.391 . S
C1557 H1545 0.950 . S
C1557 C1553 1.393 . S
C1557 C1556 1.391 . S
C1558 H1548 0.950 . S
C1558 C1559 1.386 1_565 S
C1558 C1560 1.391 . S
C1559 C1558 1.386 1_545 S
C1559 C1563 1.393 . S
C1560 H1549 0.950 . S
C1560 C1558 1.391 . S
C1560 C1561 1.415 1_565 S
C1561 C1555 1.487 1_545 S
C1561 C1560 1.415 1_545 S
C1561 C1562 1.390 . S
C1562 H1550 0.950 . S
C1562 C1561 1.390 . S
C1562 C1563 1.391 . S
C1563 H1551 0.950 . S
C1563 C1559 1.393 . S
C1563 C1562 1.391 . S
H1564 C1572 0.940 . S
H1565 C1577 0.950 . S
H1566 C1574 0.950 . S
H1567 C1576 0.950 . S
H1568 C1578 0.940 . S
H1569 C1580 0.950 . S
H1570 C1582 0.950 . S
H1571 C1583 0.950 . S
C1572 H1564 0.940 . S
C1572 C1573 1.395 1_655 S
C1572 C1574 1.392 . S
C1573 C1572 1.395 1_455 S
C1573 C1577 1.393 . S
C1574 H1566 0.950 . S
C1574 C1572 1.392 . S
C1574 C1575 1.400 1_655 S
C1575 C1574 1.400 1_455 S
C1575 C1576 1.398 . S
C1575 C1581 1.491 1_455 S
C1576 H1567 0.950 . S
C1576 C1575 1.398 . S
C1576 C1577 1.391 . S
C1577 H1565 0.950 . S
C1577 C1573 1.393 . S
C1577 C1576 1.391 . S
C1578 H1568 0.940 . S
C1578 C1579 1.395 1_455 S
C1578 C1580 1.392 . S
C1579 C1578 1.395 1_655 S
C1579 C1583 1.393 . S
C1580 H1569 0.950 . S
C1580 C1578 1.392 . S
C1580 C1581 1.400 1_455 S
C1581 C1575 1.491 1_655 S
C1581 C1580 1.400 1_655 S
C1581 C1582 1.399 . S
C1582 H1570 0.950 . S
C1582 C1581 1.399 . S
C1582 C1583 1.391 . S
C1583 H1571 0.950 . S
C1583 C1579 1.393 . S
C1583 C1582 1.391 . S
H1584 C1592 0.950 . S
H1585 C1597 0.950 . S
H1586 C1594 0.950 . S
H1587 C1596 0.950 . S
H1588 C1598 0.950 . S
H1589 C1600 0.950 . S
H1590 C1602 0.950 . S
H1591 C1603 0.950 . S
C1592 H1584 0.950 . S
C1592 C1593 1.386 . S
C1592 C1594 1.391 . S
C1593 C1592 1.386 . S
C1593 C1597 1.393 . S
C1594 H1586 0.950 . S
C1594 C1592 1.391 . S
C1594 C1595 1.400 . S
C1595 C1594 1.400 . S
C1595 C1596 1.398 . S
C1595 C1601 1.491 . S
C1596 H1587 0.950 . S
C1596 C1595 1.398 . S
C1596 C1597 1.391 . S
C1597 H1585 0.950 . S
C1597 C1593 1.393 . S
C1597 C1596 1.391 . S
C1598 H1588 0.950 . S
C1598 C1599 1.386 . S
C1598 C1600 1.391 . S
C1599 C1598 1.386 . S
C1599 C1603 1.393 . S
C1600 H1589 0.950 . S
C1600 C1598 1.391 . S
C1600 C1601 1.400 . S
C1601 C1595 1.491 . S
C1601 C1600 1.400 . S
C1601 C1602 1.398 . S
C1602 H1590 0.950 . S
C1602 C1601 1.398 . S
C1602 C1603 1.391 . S
C1603 H1591 0.950 . S
C1603 C1599 1.393 . S
C1603 C1602 1.391 . S
H1604 C1612 0.950 . S
H1605 C1617 0.950 . S
H1606 C1614 0.950 . S
H1607 C1616 0.950 . S
H1608 C1618 0.950 . S
H1609 C1620 0.950 . S
H1610 C1622 0.950 . S
H1611 C1623 0.950 . S
C1612 H1604 0.950 . S
C1612 C1613 1.386 . S
C1612 C1614 1.391 . S
C1613 C1612 1.386 . S
C1613 C1617 1.393 . S
C1614 H1606 0.950 . S
C1614 C1612 1.391 . S
C1614 C1615 1.400 . S
C1615 C1614 1.400 . S
C1615 C1616 1.398 . S
C1615 C1621 1.491 . S
C1616 H1607 0.950 . S
C1616 C1615 1.398 . S
C1616 C1617 1.391 . S
C1617 H1605 0.950 . S
C1617 C1613 1.393 . S
C1617 C1616 1.391 . S
C1618 H1608 0.950 . S
C1618 C1619 1.386 . S
C1618 C1620 1.391 . S
C1619 C1618 1.386 . S
C1619 C1623 1.393 . S
C1620 H1609 0.950 . S
C1620 C1618 1.391 . S
C1620 C1621 1.400 . S
C1621 C1615 1.491 . S
C1621 C1620 1.400 . S
C1621 C1622 1.398 . S
C1622 H1610 0.950 . S
C1622 C1621 1.398 . S
C1622 C1623 1.391 . S
C1623 H1611 0.950 . S
C1623 C1619 1.393 . S
C1623 C1622 1.391 . S
H1624 C1632 0.950 . S
H1625 C1637 0.950 . S
H1626 C1634 0.950 . S
H1627 C1636 0.950 . S
H1628 C1638 0.950 . S
H1629 C1640 0.950 . S
H1630 C1642 0.950 . S
H1631 C1643 0.950 . S
C1632 H1624 0.950 . S
C1632 C1633 1.386 . S
C1632 C1634 1.391 . S
C1633 C1632 1.386 . S
C1633 C1637 1.393 . S
C1634 H1626 0.950 . S
C1634 C1632 1.391 . S
C1634 C1635 1.400 . S
C1635 C1634 1.400 . S
C1635 C1636 1.398 . S
C1635 C1641 1.491 . S
C1636 H1627 0.950 . S
C1636 C1635 1.398 . S
C1636 C1637 1.391 . S
C1637 H1625 0.950 . S
C1637 C1633 1.393 . S
C1637 C1636 1.391 . S
C1638 H1628 0.950 . S
C1638 C1639 1.386 . S
C1638 C1640 1.391 . S
C1639 C1638 1.386 . S
C1639 C1643 1.393 . S
C1640 H1629 0.950 . S
C1640 C1638 1.391 . S
C1640 C1641 1.400 . S
C1641 C1635 1.491 . S
C1641 C1640 1.400 . S
C1641 C1642 1.398 . S
C1642 H1630 0.950 . S
C1642 C1641 1.398 . S
C1642 C1643 1.391 . S
C1643 H1631 0.950 . S
C1643 C1639 1.393 . S
C1643 C1642 1.391 . S
H1644 C1652 0.950 . S
H1645 C1657 0.950 . S
H1646 C1654 0.950 . S
H1647 C1656 0.950 . S
H1648 C1658 0.950 . S
H1649 C1660 0.950 . S
H1650 C1662 0.950 . S
H1651 C1663 0.950 . S
C1652 H1644 0.950 . S
C1652 C1653 1.386 . S
C1652 C1654 1.391 . S
C1653 C1652 1.386 . S
C1653 C1657 1.393 . S
C1654 H1646 0.950 . S
C1654 C1652 1.391 . S
C1654 C1655 1.400 . S
C1655 C1654 1.400 . S
C1655 C1656 1.398 . S
C1655 C1661 1.491 . S
C1656 H1647 0.950 . S
C1656 C1655 1.398 . S
C1656 C1657 1.391 . S
C1657 H1645 0.950 . S
C1657 C1653 1.393 . S
C1657 C1656 1.391 . S
C1658 H1648 0.950 . S
C1658 C1659 1.386 . S
C1658 C1660 1.391 . S
C1659 C1658 1.386 . S
C1659 C1663 1.393 . S
C1660 H1649 0.950 . S
C1660 C1658 1.391 . S
C1660 C1661 1.400 . S
C1661 C1655 1.491 . S
C1661 C1660 1.400 . S
C1661 C1662 1.398 . S
C1662 H1650 0.950 . S
C1662 C1661 1.398 . S
C1662 C1663 1.391 . S
C1663 H1651 0.950 . S
C1663 C1659 1.393 . S
C1663 C1662 1.391 . S
H1664 C1672 0.950 . S
H1665 C1677 0.950 . S
H1666 C1674 0.950 . S
H1667 C1676 0.950 . S
H1668 C1678 0.950 . S
H1669 C1680 0.950 . S
H1670 C1682 0.950 . S
H1671 C1683 0.950 . S
C1672 H1664 0.950 . S
C1672 C1673 1.386 . S
C1672 C1674 1.391 . S
C1673 C1672 1.386 . S
C1673 C1677 1.393 . S
C1674 H1666 0.950 . S
C1674 C1672 1.391 . S
C1674 C1675 1.400 . S
C1675 C1674 1.400 . S
C1675 C1676 1.398 . S
C1675 C1681 1.491 . S
C1676 H1667 0.950 . S
C1676 C1675 1.398 . S
C1676 C1677 1.391 . S
C1677 H1665 0.950 . S
C1677 C1673 1.393 . S
C1677 C1676 1.391 . S
C1678 H1668 0.950 . S
C1678 C1679 1.386 . S
C1678 C1680 1.391 . S
C1679 C1678 1.386 . S
C1679 C1683 1.393 . S
C1680 H1669 0.950 . S
C1680 C1678 1.391 . S
C1680 C1681 1.400 . S
C1681 C1675 1.491 . S
C1681 C1680 1.400 . S
C1681 C1682 1.398 . S
C1682 H1670 0.950 . S
C1682 C1681 1.398 . S
C1682 C1683 1.391 . S
C1683 H1671 0.950 . S
C1683 C1679 1.393 . S
C1683 C1682 1.391 . S
H1684 C1692 0.950 . S
H1685 C1697 0.950 . S
H1686 C1694 0.950 . S
H1687 C1696 0.950 . S
H1688 C1698 0.950 . S
H1689 C1700 0.950 . S
H1690 C1702 0.950 . S
H1691 C1703 0.950 . S
C1692 H1684 0.950 . S
C1692 C1693 1.386 . S
C1692 C1694 1.391 . S
C1693 C1692 1.386 . S
C1693 C1697 1.393 . S
C1694 H1686 0.950 . S
C1694 C1692 1.391 . S
C1694 C1695 1.400 . S
C1695 C1694 1.400 . S
C1695 C1696 1.398 . S
C1695 C1701 1.491 . S
C1696 H1687 0.950 . S
C1696 C1695 1.398 . S
C1696 C1697 1.391 . S
C1697 H1685 0.950 . S
C1697 C1693 1.393 . S
C1697 C1696 1.391 . S
C1698 H1688 0.950 . S
C1698 C1699 1.386 . S
C1698 C1700 1.391 . S
C1699 C1698 1.386 . S
C1699 C1703 1.393 . S
C1700 H1689 0.950 . S
C1700 C1698 1.391 . S
C1700 C1701 1.400 . S
C1701 C1695 1.491 . S
C1701 C1700 1.400 . S
C1701 C1702 1.398 . S
C1702 H1690 0.950 . S
C1702 C1701 1.398 . S
C1702 C1703 1.391 . S
C1703 H1691 0.950 . S
C1703 C1699 1.393 . S
C1703 C1702 1.391 . S
H1704 C1712 0.950 . S
H1705 C1717 0.950 . S
H1706 C1714 0.950 . S
H1707 C1716 0.950 . S
H1708 C1718 0.950 . S
H1709 C1720 0.950 . S
H1710 C1722 0.950 . S
H1711 C1723 0.950 . S
C1712 H1704 0.950 . S
C1712 C1713 1.386 . S
C1712 C1714 1.391 . S
C1713 C1712 1.386 . S
C1713 C1717 1.393 . S
C1714 H1706 0.950 . S
C1714 C1712 1.391 . S
C1714 C1715 1.400 . S
C1715 C1714 1.400 . S
C1715 C1716 1.398 . S
C1715 C1721 1.491 . S
C1716 H1707 0.950 . S
C1716 C1715 1.398 . S
C1716 C1717 1.391 . S
C1717 H1705 0.950 . S
C1717 C1713 1.393 . S
C1717 C1716 1.391 . S
C1718 H1708 0.950 . S
C1718 C1719 1.386 . S
C1718 C1720 1.391 . S
C1719 C1718 1.386 . S
C1719 C1723 1.393 . S
C1720 H1709 0.950 . S
C1720 C1718 1.391 . S
C1720 C1721 1.400 . S
C1721 C1715 1.491 . S
C1721 C1720 1.400 . S
C1721 C1722 1.398 . S
C1722 H1710 0.950 . S
C1722 C1721 1.398 . S
C1722 C1723 1.391 . S
C1723 H1711 0.950 . S
C1723 C1719 1.393 . S
C1723 C1722 1.391 . S
H1724 C1732 0.950 . S
H1725 C1737 0.950 . S
H1726 C1734 0.950 . S
H1727 C1736 0.950 . S
H1728 C1738 0.950 . S
H1729 C1740 0.950 . S
H1730 C1742 0.950 . S
H1731 C1743 0.950 . S
C1732 H1724 0.950 . S
C1732 C1733 1.386 . S
C1732 C1734 1.391 . S
C1733 C1732 1.386 . S
C1733 C1737 1.393 . S
C1734 H1726 0.950 . S
C1734 C1732 1.391 . S
C1734 C1735 1.400 . S
C1735 C1734 1.400 . S
C1735 C1736 1.398 . S
C1735 C1741 1.491 . S
C1736 H1727 0.950 . S
C1736 C1735 1.398 . S
C1736 C1737 1.391 . S
C1737 H1725 0.950 . S
C1737 C1733 1.393 . S
C1737 C1736 1.391 . S
C1738 H1728 0.950 . S
C1738 C1739 1.386 . S
C1738 C1740 1.391 . S
C1739 C1738 1.386 . S
C1739 C1743 1.393 . S
C1740 H1729 0.950 . S
C1740 C1738 1.391 . S
C1740 C1741 1.400 . S
C1741 C1735 1.491 . S
C1741 C1740 1.400 . S
C1741 C1742 1.398 . S
C1742 H1730 0.950 . S
C1742 C1741 1.398 . S
C1742 C1743 1.391 . S
C1743 H1731 0.950 . S
C1743 C1739 1.393 . S
C1743 C1742 1.391 . S
H1744 C1752 0.950 . S
H1745 C1757 0.950 . S
H1746 C1754 0.950 . S
H1747 C1756 0.950 . S
H1748 C1758 0.950 . S
H1749 C1760 0.950 . S
H1750 C1762 0.950 . S
H1751 C1763 0.950 . S
C1752 H1744 0.950 . S
C1752 C1753 1.386 . S
C1752 C1754 1.391 . S
C1753 C1752 1.386 . S
C1753 C1757 1.393 . S
C1754 H1746 0.950 . S
C1754 C1752 1.391 . S
C1754 C1755 1.400 . S
C1755 C1754 1.400 . S
C1755 C1756 1.398 . S
C1755 C1761 1.491 . S
C1756 H1747 0.950 . S
C1756 C1755 1.398 . S
C1756 C1757 1.391 . S
C1757 H1745 0.950 . S
C1757 C1753 1.393 . S
C1757 C1756 1.391 . S
C1758 H1748 0.950 . S
C1758 C1759 1.386 . S
C1758 C1760 1.391 . S
C1759 C1758 1.386 . S
C1759 C1763 1.393 . S
C1760 H1749 0.950 . S
C1760 C1758 1.391 . S
C1760 C1761 1.400 . S
C1761 C1755 1.491 . S
C1761 C1760 1.400 . S
C1761 C1762 1.398 . S
C1762 H1750 0.950 . S
C1762 C1761 1.398 . S
C1762 C1763 1.391 . S
C1763 H1751 0.950 . S
C1763 C1759 1.393 . S
C1763 C1762 1.391 . S
H1764 C1772 0.950 . S
H1765 C1777 0.950 . S
H1766 C1774 0.950 . S
H1767 C1776 0.950 . S
H1768 C1778 0.950 . S
H1769 C1780 0.950 . S
H1770 C1782 0.950 . S
H1771 C1783 0.950 . S
C1772 H1764 0.950 . S
C1772 C1773 1.386 . S
C1772 C1774 1.391 . S
C1773 C1772 1.386 . S
C1773 C1777 1.393 . S
C1774 H1766 0.950 . S
C1774 C1772 1.391 . S
C1774 C1775 1.400 . S
C1775 C1774 1.400 . S
C1775 C1776 1.398 . S
C1775 C1781 1.491 . S
C1776 H1767 0.950 . S
C1776 C1775 1.398 . S
C1776 C1777 1.391 . S
C1777 H1765 0.950 . S
C1777 C1773 1.393 . S
C1777 C1776 1.391 . S
C1778 H1768 0.950 . S
C1778 C1779 1.386 . S
C1778 C1780 1.391 . S
C1779 C1778 1.386 . S
C1779 C1783 1.393 . S
C1780 H1769 0.950 . S
C1780 C1778 1.391 . S
C1780 C1781 1.400 . S
C1781 C1775 1.491 . S
C1781 C1780 1.400 . S
C1781 C1782 1.398 . S
C1782 H1770 0.950 . S
C1782 C1781 1.398 . S
C1782 C1783 1.391 . S
C1783 H1771 0.950 . S
C1783 C1779 1.393 . S
C1783 C1782 1.391 . S
H1784 C1792 0.950 . S
H1785 C1797 0.950 . S
H1786 C1794 0.950 . S
H1787 C1796 0.950 . S
H1788 C1798 0.950 . S
H1789 C1800 0.950 . S
H1790 C1802 0.950 . S
H1791 C1803 0.950 . S
C1792 H1784 0.950 . S
C1792 C1793 1.386 . S
C1792 C1794 1.391 . S
C1793 C1792 1.386 . S
C1793 C1797 1.393 . S
C1794 H1786 0.950 . S
C1794 C1792 1.391 . S
C1794 C1795 1.400 . S
C1795 C1794 1.400 . S
C1795 C1796 1.398 . S
C1795 C1801 1.491 . S
C1796 H1787 0.950 . S
C1796 C1795 1.398 . S
C1796 C1797 1.391 . S
C1797 H1785 0.950 . S
C1797 C1793 1.393 . S
C1797 C1796 1.391 . S
C1798 H1788 0.950 . S
C1798 C1799 1.386 . S
C1798 C1800 1.391 . S
C1799 C1798 1.386 . S
C1799 C1803 1.393 . S
C1800 H1789 0.950 . S
C1800 C1798 1.391 . S
C1800 C1801 1.400 . S
C1801 C1795 1.491 . S
C1801 C1800 1.400 . S
C1801 C1802 1.398 . S
C1802 H1790 0.950 . S
C1802 C1801 1.398 . S
C1802 C1803 1.391 . S
C1803 H1791 0.950 . S
C1803 C1799 1.393 . S
C1803 C1802 1.391 . S
H1804 C1812 0.950 . S
H1805 C1817 0.950 . S
H1806 C1814 0.950 . S
H1807 C1816 0.950 . S
H1808 C1818 0.950 . S
H1809 C1820 0.950 . S
H1810 C1822 0.950 . S
H1811 C1823 0.950 . S
C1812 H1804 0.950 . S
C1812 C1813 1.386 . S
C1812 C1814 1.391 . S
C1813 C1812 1.386 . S
C1813 C1817 1.393 . S
C1814 H1806 0.950 . S
C1814 C1812 1.391 . S
C1814 C1815 1.400 . S
C1815 C1814 1.400 . S
C1815 C1816 1.398 . S
C1815 C1821 1.491 . S
C1816 H1807 0.950 . S
C1816 C1815 1.398 . S
C1816 C1817 1.391 . S
C1817 H1805 0.950 . S
C1817 C1813 1.393 . S
C1817 C1816 1.391 . S
C1818 H1808 0.950 . S
C1818 C1819 1.386 . S
C1818 C1820 1.391 . S
C1819 C1818 1.386 . S
C1819 C1823 1.393 . S
C1820 H1809 0.950 . S
C1820 C1818 1.391 . S
C1820 C1821 1.400 . S
C1821 C1815 1.491 . S
C1821 C1820 1.400 . S
C1821 C1822 1.398 . S
C1822 H1810 0.950 . S
C1822 C1821 1.398 . S
C1822 C1823 1.391 . S
C1823 H1811 0.950 . S
C1823 C1819 1.393 . S
C1823 C1822 1.391 . S
H1824 C1832 0.950 . S
H1825 C1837 0.950 . S
H1826 C1834 0.950 . S
H1827 C1836 0.950 . S
H1828 C1838 0.950 . S
H1829 C1840 0.950 . S
H1830 C1842 0.950 . S
H1831 C1843 0.950 . S
C1832 H1824 0.950 . S
C1832 C1833 1.386 . S
C1832 C1834 1.391 . S
C1833 C1832 1.386 . S
C1833 C1837 1.393 . S
C1834 H1826 0.950 . S
C1834 C1832 1.391 . S
C1834 C1835 1.400 . S
C1835 C1834 1.400 . S
C1835 C1836 1.398 . S
C1835 C1841 1.491 1_455 S
C1836 H1827 0.950 . S
C1836 C1835 1.398 . S
C1836 C1837 1.391 . S
C1837 H1825 0.950 . S
C1837 C1833 1.393 . S
C1837 C1836 1.391 . S
C1838 H1828 0.950 . S
C1838 C1839 1.386 . S
C1838 C1840 1.391 . S
C1839 C1838 1.386 . S
C1839 C1843 1.393 . S
C1840 H1829 0.950 . S
C1840 C1838 1.391 . S
C1840 C1841 1.400 . S
C1841 C1835 1.491 1_655 S
C1841 C1840 1.400 . S
C1841 C1842 1.398 . S
C1842 H1830 0.950 . S
C1842 C1841 1.398 . S
C1842 C1843 1.391 . S
C1843 H1831 0.950 . S
C1843 C1839 1.393 . S
C1843 C1842 1.391 . S
H1844 C1852 0.950 . S
H1845 C1857 0.950 . S
H1846 C1854 0.950 . S
H1847 C1856 0.950 . S
H1848 C1858 0.950 . S
H1849 C1860 0.950 . S
H1850 C1862 0.950 . S
H1851 C1863 0.950 . S
C1852 H1844 0.950 . S
C1852 C1853 1.386 . S
C1852 C1854 1.391 . S
C1853 C1852 1.386 . S
C1853 C1857 1.393 . S
C1854 H1846 0.950 . S
C1854 C1852 1.391 . S
C1854 C1855 1.400 . S
C1855 C1854 1.400 . S
C1855 C1856 1.398 . S
C1855 C1861 1.491 . S
C1856 H1847 0.950 . S
C1856 C1855 1.398 . S
C1856 C1857 1.391 . S
C1857 H1845 0.950 . S
C1857 C1853 1.393 . S
C1857 C1856 1.391 . S
C1858 H1848 0.950 . S
C1858 C1859 1.386 . S
C1858 C1860 1.391 . S
C1859 C1858 1.386 . S
C1859 C1863 1.393 . S
C1860 H1849 0.950 . S
C1860 C1858 1.391 . S
C1860 C1861 1.400 . S
C1861 C1855 1.491 . S
C1861 C1860 1.400 . S
C1861 C1862 1.398 . S
C1862 H1850 0.950 . S
C1862 C1861 1.398 . S
C1862 C1863 1.391 . S
C1863 H1851 0.950 . S
C1863 C1859 1.393 . S
C1863 C1862 1.391 . S
H1864 C1872 0.950 . S
H1865 C1877 0.950 . S
H1866 C1874 0.950 . S
H1867 C1876 0.950 . S
H1868 C1878 0.950 . S
H1869 C1880 0.950 . S
H1870 C1882 0.950 . S
H1871 C1883 0.950 . S
C1872 H1864 0.950 . S
C1872 C1873 1.386 . S
C1872 C1874 1.391 . S
C1873 C1872 1.386 . S
C1873 C1877 1.393 . S
C1874 H1866 0.950 . S
C1874 C1872 1.391 . S
C1874 C1875 1.400 . S
C1875 C1874 1.400 . S
C1875 C1876 1.398 . S
C1875 C1881 1.491 1_545 S
C1876 H1867 0.950 . S
C1876 C1875 1.398 . S
C1876 C1877 1.391 . S
C1877 H1865 0.950 . S
C1877 C1873 1.393 . S
C1877 C1876 1.391 . S
C1878 H1868 0.950 . S
C1878 C1879 1.386 . S
C1878 C1880 1.391 . S
C1879 C1878 1.386 . S
C1879 C1883 1.393 . S
C1880 H1869 0.950 . S
C1880 C1878 1.391 . S
C1880 C1881 1.400 . S
C1881 C1875 1.491 1_565 S
C1881 C1880 1.400 . S
C1881 C1882 1.398 . S
C1882 H1870 0.950 . S
C1882 C1881 1.398 . S
C1882 C1883 1.391 . S
C1883 H1871 0.950 . S
C1883 C1879 1.393 . S
C1883 C1882 1.391 . S
H1884 C1892 0.950 . S
H1885 C1897 0.950 . S
H1886 C1894 0.950 . S
H1887 C1896 0.950 . S
H1888 C1898 0.950 . S
H1889 C1900 0.950 . S
H1890 C1902 0.950 . S
H1891 C1903 0.950 . S
C1892 H1884 0.950 . S
C1892 C1893 1.386 . S
C1892 C1894 1.391 . S
C1893 C1892 1.386 . S
C1893 C1897 1.393 . S
C1894 H1886 0.950 . S
C1894 C1892 1.391 . S
C1894 C1895 1.400 . S
C1895 C1894 1.400 . S
C1895 C1896 1.398 . S
C1895 C1901 1.491 1_565 S
C1896 H1887 0.950 . S
C1896 C1895 1.398 . S
C1896 C1897 1.391 . S
C1897 H1885 0.950 . S
C1897 C1893 1.393 . S
C1897 C1896 1.391 . S
C1898 H1888 0.950 . S
C1898 C1899 1.386 . S
C1898 C1900 1.391 . S
C1899 C1898 1.386 . S
C1899 C1903 1.393 . S
C1900 H1889 0.950 . S
C1900 C1898 1.391 . S
C1900 C1901 1.400 . S
C1901 C1895 1.491 1_545 S
C1901 C1900 1.400 . S
C1901 C1902 1.398 . S
C1902 H1890 0.950 . S
C1902 C1901 1.398 . S
C1902 C1903 1.391 . S
C1903 H1891 0.950 . S
C1903 C1899 1.393 . S
C1903 C1902 1.391 . S
H1904 C1912 0.950 . S
H1905 C1917 0.950 . S
H1906 C1914 0.950 . S
H1907 C1916 0.950 . S
H1908 C1918 0.950 . S
H1909 C1920 0.950 . S
H1910 C1922 0.950 . S
H1911 C1923 0.950 . S
C1912 H1904 0.950 . S
C1912 C1913 1.386 . S
C1912 C1914 1.391 . S
C1913 C1912 1.386 . S
C1913 C1917 1.393 . S
C1914 H1906 0.950 . S
C1914 C1912 1.391 . S
C1914 C1915 1.400 . S
C1915 C1914 1.400 . S
C1915 C1916 1.398 . S
C1915 C1921 1.491 1_655 S
C1916 H1907 0.950 . S
C1916 C1915 1.398 . S
C1916 C1917 1.391 . S
C1917 H1905 0.950 . S
C1917 C1913 1.393 . S
C1917 C1916 1.391 . S
C1918 H1908 0.950 . S
C1918 C1919 1.386 . S
C1918 C1920 1.391 . S
C1919 C1918 1.386 . S
C1919 C1923 1.393 . S
C1920 H1909 0.950 . S
C1920 C1918 1.391 . S
C1920 C1921 1.400 . S
C1921 C1915 1.491 1_455 S
C1921 C1920 1.400 . S
C1921 C1922 1.398 . S
C1922 H1910 0.950 . S
C1922 C1921 1.398 . S
C1922 C1923 1.391 . S
C1923 H1911 0.950 . S
C1923 C1919 1.393 . S
C1923 C1922 1.391 . S
H1924 C1932 0.950 . S
H1925 C1937 0.950 . S
H1926 C1934 0.950 . S
H1927 C1936 0.950 . S
H1928 C1938 0.950 . S
H1929 C1940 0.950 . S
H1930 C1942 0.950 . S
H1931 C1943 0.950 . S
C1932 H1924 0.950 . S
C1932 C1933 1.386 . S
C1932 C1934 1.391 . S
C1933 C1932 1.386 . S
C1933 C1937 1.393 . S
C1934 H1926 0.950 . S
C1934 C1932 1.391 . S
C1934 C1935 1.400 . S
C1935 C1934 1.400 . S
C1935 C1936 1.398 . S
C1935 C1941 1.491 . S
C1936 H1927 0.950 . S
C1936 C1935 1.398 . S
C1936 C1937 1.391 . S
C1937 H1925 0.950 . S
C1937 C1933 1.393 . S
C1937 C1936 1.391 . S
C1938 H1928 0.950 . S
C1938 C1939 1.386 . S
C1938 C1940 1.391 . S
C1939 C1938 1.386 . S
C1939 C1943 1.393 . S
C1940 H1929 0.950 . S
C1940 C1938 1.391 . S
C1940 C1941 1.400 . S
C1941 C1935 1.491 . S
C1941 C1940 1.400 . S
C1941 C1942 1.398 . S
C1942 H1930 0.950 . S
C1942 C1941 1.398 . S
C1942 C1943 1.391 . S
C1943 H1931 0.950 . S
C1943 C1939 1.393 . S
C1943 C1942 1.391 . S
C513 C65 0.758 . S
C519 C9 0.789 . S
C533 C79 0.771 . S
C539 C23 0.789 . S
C553 C51 0.789 . S
C559 C37 0.775 . S
C573 C149 0.791 . S
C579 C93 0.771 . S
C593 C107 0.745 . S
C599 C163 0.783 . S
C613 C135 0.739 . S
C619 C121 0.753 . S
C633 C177 0.720 . S
C639 C233 0.755 . S
C653 C247 0.725 . S
C659 C191 0.755 . S
C673 C205 0.735 . S
C679 C219 0.750 . S
C693 C261 0.744 . S
C699 C317 0.743 . S
C713 C331 0.720 . S
C719 C275 0.715 . S
C733 C289 0.706 . S
C739 C303 0.742 . S
C753 C401 0.726 . S
C759 C345 0.711 . S
C773 C359 0.749 . S
C779 C415 0.737 . S
C793 C387 0.723 . S
C799 C373 0.755 . S
C813 C485 0.745 . S
C819 C429 0.742 . S
C833 C443 0.709 . S
C839 C499 0.731 . S
C853 C457 0.750 . S
C859 C471 0.736 . S
C873 C162 1.400 . S
C879 C8 1.397 . S
C893 C22 1.396 . S
C899 C134 1.400 . S
C913 C148 1.399 . S
C919 C36 1.398 . S
C933 C106 1.397 . S
C939 C50 1.400 . S
C953 C64 1.397 . S
C959 C120 1.400 . S
C973 C92 1.396 . S
C979 C78 1.399 . S
C993 C176 1.441 . S
C999 C330 1.440 . S
C1013 C302 1.439 . S
C1019 C190 1.441 . S
C1033 C316 1.440 . S
C1039 C204 1.440 . S
C1053 C218 1.418 . S
C1059 C274 1.421 . S
C1073 C232 1.420 . S
C1079 C288 1.419 . S
C1093 C246 1.421 . S
C1099 C260 1.419 . S
C1113 C498 1.419 . S
C1119 C344 1.420 . S
C1133 C358 1.418 . S
C1139 C470 1.421 . S
C1153 C372 1.421 . S
C1159 C484 1.419 . S
C1173 C442 1.440 . S
C1179 C386 1.439 . S
C1193 C456 1.440 . S
C1199 C400 1.440 . S
C1213 C428 1.441 . S
C1219 C414 1.439 . S
C1233 C213 1.704 . S
C1239 C3 1.702 . S
C1253 C227 1.700 . S
C1259 C17 1.726 . S
C1273 C31 1.731 . S
C1279 C241 1.682 . S
C1293 C45 1.720 . S
C1299 C339 1.705 . S
C1313 C59 1.716 . S
C1319 C353 1.705 . S
C1333 C73 1.724 . S
C1339 C367 1.673 . S
C1353 C87 1.711 . S
C1359 C465 1.703 . S
C1373 C101 1.730 . S
C1379 C479 1.696 . S
C1393 C115 1.722 . S
C1399 C493 1.671 . S
C1413 C129 1.711 . S
C1419 C255 1.704 . S
C1433 C269 1.701 . S
C1439 C143 1.727 . S
C1453 C283 1.676 . S
C1459 C157 1.696 . S
C1473 C381 2.015 . S
C1479 C171 1.997 . S
C1493 C185 2.021 . S
C1499 C395 2.002 . S
C1513 C409 1.997 . S
C1519 C199 2.002 . S
C1533 C297 2.004 . S
C1539 C423 1.997 . S
C1553 C437 2.001 . S
C1559 C311 1.998 . S
C1573 C451 2.024 . S
C1579 C325 2.020 . S
C1593 C7 2.345 . S
C1599 C413 2.365 . S
C1613 C21 2.366 . S
C1619 C385 2.388 . S
C1633 C35 2.345 . S
C1639 C399 2.365 . S
C1653 C49 2.357 . S
C1659 C189 2.365 . S
C1673 C203 2.385 . S
C1679 C63 2.372 . S
C1693 C175 2.360 . S
C1699 C77 2.349 . S
C1713 C329 2.363 . S
C1719 C91 2.361 . S
C1733 C301 2.385 . S
C1739 C105 2.371 . S
C1753 C315 2.376 . S
C1759 C119 2.372 . S
C1773 C441 2.382 . S
C1779 C133 2.363 . S
C1793 C455 2.362 . S
C1799 C147 2.358 . S
C1813 C427 2.365 . S
C1819 C161 2.363 . S
C1833 C217 2.123 . S
C1839 C357 2.122 . S
C1853 C371 2.104 . S
C1859 C231 2.115 . S
C1873 C343 2.122 . S
C1879 C245 2.123 . S
C1893 C259 2.124 . S
C1899 C497 2.118 . S
C1913 C469 2.101 . S
C1919 C273 2.094 . S
C1933 C287 2.096 . S
C1939 C483 2.093 . S
