# Generated by pormake.
# Topology snv-x, (7)-cn, num edge types: 1
# Building blocks:
#     Node 0, Type 0, BuildingBlock: NUHQUE_clean_sbu_2, # of connection points: 7
#     Node 1, Type 0, BuildingBlock: NUHQUE_clean_sbu_2, # of connection points: 7
#     Node 2, Type 0, BuildingBlock: NUHQUE_clean_sbu_2, # of connection points: 7
#     Node 3, Type 0, BuildingBlock: NUHQUE_clean_sbu_2, # of connection points: 7
#     Node 4, Type 0, BuildingBlock: NUHQUE_clean_sbu_2, # of connection points: 7
#     Node 5, Type 0, BuildingBlock: NUHQUE_clean_sbu_2, # of connection points: 7
#     Node 6, Type 0, BuildingBlock: NUHQUE_clean_sbu_2, # of connection points: 7
#     Node 7, Type 0, BuildingBlock: NUHQUE_clean_sbu_2, # of connection points: 7
#     Node 8, Type 0, BuildingBlock: NUHQUE_clean_sbu_2, # of connection points: 7
#     Node 9, Type 0, BuildingBlock: NUHQUE_clean_sbu_2, # of connection points: 7
#     Node 10, Type 0, BuildingBlock: NUHQUE_clean_sbu_2, # of connection points: 7
#     Node 11, Type 0, BuildingBlock: NUHQUE_clean_sbu_2, # of connection points: 7
#     Node 12, Type 0, BuildingBlock: NUHQUE_clean_sbu_2, # of connection points: 7
#     Node 13, Type 0, BuildingBlock: NUHQUE_clean_sbu_2, # of connection points: 7
#     Node 14, Type 0, BuildingBlock: NUHQUE_clean_sbu_2, # of connection points: 7
#     Node 15, Type 0, BuildingBlock: NUHQUE_clean_sbu_2, # of connection points: 7
#     Node 16, Type 0, BuildingBlock: NUHQUE_clean_sbu_2, # of connection points: 7
#     Node 17, Type 0, BuildingBlock: NUHQUE_clean_sbu_2, # of connection points: 7
#     Node 18, Type 0, BuildingBlock: NUHQUE_clean_sbu_2, # of connection points: 7
#     Node 19, Type 0, BuildingBlock: NUHQUE_clean_sbu_2, # of connection points: 7
#     Node 20, Type 0, BuildingBlock: NUHQUE_clean_sbu_2, # of connection points: 7
#     Node 21, Type 0, BuildingBlock: NUHQUE_clean_sbu_2, # of connection points: 7
#     Node 22, Type 0, BuildingBlock: NUHQUE_clean_sbu_2, # of connection points: 7
#     Node 23, Type 0, BuildingBlock: NUHQUE_clean_sbu_2, # of connection points: 7
#     Edge 24, Type (0, 0), BuildingBlock: MIFKUJ_clean_linker_0, # of connection points: 2
#     Edge 25, Type (0, 0), BuildingBlock: MIFKUJ_clean_linker_0, # of connection points: 2
#     Edge 26, Type (0, 0), BuildingBlock: MIFKUJ_clean_linker_0, # of connection points: 2
#     Edge 27, Type (0, 0), BuildingBlock: MIFKUJ_clean_linker_0, # of connection points: 2
#     Edge 28, Type (0, 0), BuildingBlock: MIFKUJ_clean_linker_0, # of connection points: 2
#     Edge 29, Type (0, 0), BuildingBlock: MIFKUJ_clean_linker_0, # of connection points: 2
#     Edge 30, Type (0, 0), BuildingBlock: MIFKUJ_clean_linker_0, # of connection points: 2
#     Edge 31, Type (0, 0), BuildingBlock: MIFKUJ_clean_linker_0, # of connection points: 2
#     Edge 32, Type (0, 0), BuildingBlock: MIFKUJ_clean_linker_0, # of connection points: 2
#     Edge 33, Type (0, 0), BuildingBlock: MIFKUJ_clean_linker_0, # of connection points: 2
#     Edge 34, Type (0, 0), BuildingBlock: MIFKUJ_clean_linker_0, # of connection points: 2
#     Edge 35, Type (0, 0), BuildingBlock: MIFKUJ_clean_linker_0, # of connection points: 2
#     Edge 36, Type (0, 0), BuildingBlock: MIFKUJ_clean_linker_0, # of connection points: 2
#     Edge 37, Type (0, 0), BuildingBlock: MIFKUJ_clean_linker_0, # of connection points: 2
#     Edge 38, Type (0, 0), BuildingBlock: MIFKUJ_clean_linker_0, # of connection points: 2
#     Edge 39, Type (0, 0), BuildingBlock: MIFKUJ_clean_linker_0, # of connection points: 2
#     Edge 40, Type (0, 0), BuildingBlock: MIFKUJ_clean_linker_0, # of connection points: 2
#     Edge 41, Type (0, 0), BuildingBlock: MIFKUJ_clean_linker_0, # of connection points: 2
#     Edge 42, Type (0, 0), BuildingBlock: MIFKUJ_clean_linker_0, # of connection points: 2
#     Edge 43, Type (0, 0), BuildingBlock: MIFKUJ_clean_linker_0, # of connection points: 2
#     Edge 44, Type (0, 0), BuildingBlock: MIFKUJ_clean_linker_0, # of connection points: 2
#     Edge 45, Type (0, 0), BuildingBlock: MIFKUJ_clean_linker_0, # of connection points: 2
#     Edge 46, Type (0, 0), BuildingBlock: MIFKUJ_clean_linker_0, # of connection points: 2
#     Edge 47, Type (0, 0), BuildingBlock: MIFKUJ_clean_linker_0, # of connection points: 2
#     Edge 48, Type (0, 0), BuildingBlock: MIFKUJ_clean_linker_0, # of connection points: 2
#     Edge 49, Type (0, 0), BuildingBlock: MIFKUJ_clean_linker_0, # of connection points: 2
#     Edge 50, Type (0, 0), BuildingBlock: MIFKUJ_clean_linker_0, # of connection points: 2
#     Edge 51, Type (0, 0), BuildingBlock: MIFKUJ_clean_linker_0, # of connection points: 2
#     Edge 52, Type (0, 0), BuildingBlock: MIFKUJ_clean_linker_0, # of connection points: 2
#     Edge 53, Type (0, 0), BuildingBlock: MIFKUJ_clean_linker_0, # of connection points: 2
#     Edge 54, Type (0, 0), BuildingBlock: MIFKUJ_clean_linker_0, # of connection points: 2
#     Edge 55, Type (0, 0), BuildingBlock: MIFKUJ_clean_linker_0, # of connection points: 2
#     Edge 56, Type (0, 0), BuildingBlock: MIFKUJ_clean_linker_0, # of connection points: 2
#     Edge 57, Type (0, 0), BuildingBlock: MIFKUJ_clean_linker_0, # of connection points: 2
#     Edge 58, Type (0, 0), BuildingBlock: MIFKUJ_clean_linker_0, # of connection points: 2
#     Edge 59, Type (0, 0), BuildingBlock: MIFKUJ_clean_linker_0, # of connection points: 2
#     Edge 60, Type (0, 0), BuildingBlock: MIFKUJ_clean_linker_0, # of connection points: 2
#     Edge 61, Type (0, 0), BuildingBlock: MIFKUJ_clean_linker_0, # of connection points: 2
#     Edge 62, Type (0, 0), BuildingBlock: MIFKUJ_clean_linker_0, # of connection points: 2
#     Edge 63, Type (0, 0), BuildingBlock: MIFKUJ_clean_linker_0, # of connection points: 2
#     Edge 64, Type (0, 0), BuildingBlock: MIFKUJ_clean_linker_0, # of connection points: 2
#     Edge 65, Type (0, 0), BuildingBlock: MIFKUJ_clean_linker_0, # of connection points: 2
#     Edge 66, Type (0, 0), BuildingBlock: MIFKUJ_clean_linker_0, # of connection points: 2
#     Edge 67, Type (0, 0), BuildingBlock: MIFKUJ_clean_linker_0, # of connection points: 2
#     Edge 68, Type (0, 0), BuildingBlock: MIFKUJ_clean_linker_0, # of connection points: 2
#     Edge 69, Type (0, 0), BuildingBlock: MIFKUJ_clean_linker_0, # of connection points: 2
#     Edge 70, Type (0, 0), BuildingBlock: MIFKUJ_clean_linker_0, # of connection points: 2
#     Edge 71, Type (0, 0), BuildingBlock: MIFKUJ_clean_linker_0, # of connection points: 2
#     Edge 72, Type (0, 0), BuildingBlock: MIFKUJ_clean_linker_0, # of connection points: 2
#     Edge 73, Type (0, 0), BuildingBlock: MIFKUJ_clean_linker_0, # of connection points: 2
#     Edge 74, Type (0, 0), BuildingBlock: MIFKUJ_clean_linker_0, # of connection points: 2
#     Edge 75, Type (0, 0), BuildingBlock: MIFKUJ_clean_linker_0, # of connection points: 2
#     Edge 76, Type (0, 0), BuildingBlock: MIFKUJ_clean_linker_0, # of connection points: 2
#     Edge 77, Type (0, 0), BuildingBlock: MIFKUJ_clean_linker_0, # of connection points: 2
#     Edge 78, Type (0, 0), BuildingBlock: MIFKUJ_clean_linker_0, # of connection points: 2
#     Edge 79, Type (0, 0), BuildingBlock: MIFKUJ_clean_linker_0, # of connection points: 2
#     Edge 80, Type (0, 0), BuildingBlock: MIFKUJ_clean_linker_0, # of connection points: 2
#     Edge 81, Type (0, 0), BuildingBlock: MIFKUJ_clean_linker_0, # of connection points: 2
#     Edge 82, Type (0, 0), BuildingBlock: MIFKUJ_clean_linker_0, # of connection points: 2
#     Edge 83, Type (0, 0), BuildingBlock: MIFKUJ_clean_linker_0, # of connection points: 2
#     Edge 84, Type (0, 0), BuildingBlock: MIFKUJ_clean_linker_0, # of connection points: 2
#     Edge 85, Type (0, 0), BuildingBlock: MIFKUJ_clean_linker_0, # of connection points: 2
#     Edge 86, Type (0, 0), BuildingBlock: MIFKUJ_clean_linker_0, # of connection points: 2
#     Edge 87, Type (0, 0), BuildingBlock: MIFKUJ_clean_linker_0, # of connection points: 2
#     Edge 88, Type (0, 0), BuildingBlock: MIFKUJ_clean_linker_0, # of connection points: 2
#     Edge 89, Type (0, 0), BuildingBlock: MIFKUJ_clean_linker_0, # of connection points: 2
#     Edge 90, Type (0, 0), BuildingBlock: MIFKUJ_clean_linker_0, # of connection points: 2
#     Edge 91, Type (0, 0), BuildingBlock: MIFKUJ_clean_linker_0, # of connection points: 2
#     Edge 92, Type (0, 0), BuildingBlock: MIFKUJ_clean_linker_0, # of connection points: 2
#     Edge 93, Type (0, 0), BuildingBlock: MIFKUJ_clean_linker_0, # of connection points: 2
#     Edge 94, Type (0, 0), BuildingBlock: MIFKUJ_clean_linker_0, # of connection points: 2
#     Edge 95, Type (0, 0), BuildingBlock: MIFKUJ_clean_linker_0, # of connection points: 2
#     Edge 96, Type (0, 0), BuildingBlock: MIFKUJ_clean_linker_0, # of connection points: 2
#     Edge 97, Type (0, 0), BuildingBlock: MIFKUJ_clean_linker_0, # of connection points: 2
#     Edge 98, Type (0, 0), BuildingBlock: MIFKUJ_clean_linker_0, # of connection points: 2
#     Edge 99, Type (0, 0), BuildingBlock: MIFKUJ_clean_linker_0, # of connection points: 2
#     Edge 100, Type (0, 0), BuildingBlock: MIFKUJ_clean_linker_0, # of connection points: 2
#     Edge 101, Type (0, 0), BuildingBlock: MIFKUJ_clean_linker_0, # of connection points: 2
#     Edge 102, Type (0, 0), BuildingBlock: MIFKUJ_clean_linker_0, # of connection points: 2
#     Edge 103, Type (0, 0), BuildingBlock: MIFKUJ_clean_linker_0, # of connection points: 2
#     Edge 104, Type (0, 0), BuildingBlock: MIFKUJ_clean_linker_0, # of connection points: 2
#     Edge 105, Type (0, 0), BuildingBlock: MIFKUJ_clean_linker_0, # of connection points: 2
#     Edge 106, Type (0, 0), BuildingBlock: MIFKUJ_clean_linker_0, # of connection points: 2
#     Edge 107, Type (0, 0), BuildingBlock: MIFKUJ_clean_linker_0, # of connection points: 2
# Relax obj value: 0.177
# Max RMSD: 0.251
# Mean RMSD: 0.251
data_MOF--net-snv-x--node1-NUHQUE_clean_sbu_2--edge1-MIFKUJ_clean_linker_0
_symmetry_space_group_name_H-M    P1
_symmetry_Int_Tables_number       1
_symmetry_cell_setting            triclinic
loop_
_symmetry_equiv_pos_as_xyz
'x, y, z'
_cell_length_a     68.627276
_cell_length_b     68.631762
_cell_length_c     68.701557
_cell_angle_alpha  90.082401
_cell_angle_beta   89.976697
_cell_angle_gamma 89.985323
loop_
_atom_site_label
_atom_site_type_symbol
_atom_site_fract_x
_atom_site_fract_y
_atom_site_fract_z
_atom_type_partial_charge
O0 O 0.11927 0.45702 0.25617 0.0
Tb1 Tb 0.10476 0.44217 0.28077 0.0
Eu2 Eu 0.12241 0.39213 0.32455 0.0
C3 C 0.13802 0.45474 0.25227 0.0
O4 O 0.14786 0.44158 0.26206 0.0
C5 C 0.1336 0.43538 0.31583 0.0
O6 O 0.10666 0.38956 0.35333 0.0
C7 C 0.14829 0.36499 0.32013 0.0
C8 C 0.10115 0.37259 0.36036 0.0
O9 O 0.1027 0.35698 0.34941 0.0
C10 C 0.08924 0.40174 0.29183 0.0
C11 C 0.15923 0.35356 0.30567 0.0
C12 C 0.16852 0.36208 0.2895 0.0
C13 C 0.17894 0.35028 0.27634 0.0
C14 C 0.18005 0.33012 0.27963 0.0
C15 C 0.17148 0.32163 0.29609 0.0
C16 C 0.16083 0.33345 0.30886 0.0
O17 O 0.12776 0.4293 0.29858 0.0
O18 O 0.13534 0.42215 0.32961 0.0
O19 O 0.07831 0.45968 0.28247 0.0
O20 O 0.09778 0.45961 0.30641 0.0
C21 C 0.08122 0.46602 0.30007 0.0
O22 O 0.10771 0.39942 0.2962 0.0
O23 O 0.08539 0.41636 0.27988 0.0
O24 O 0.12949 0.36152 0.32104 0.0
O25 O 0.15288 0.38343 0.32269 0.0
H26 H 0.16778 0.37768 0.28722 0.0
H27 H 0.18841 0.32107 0.26973 0.0
H28 H 0.15438 0.32715 0.32182 0.0
O29 O 0.57122 0.12299 0.2646 0.0
Tb30 Tb 0.58285 0.10862 0.29101 0.0
Eu31 Eu 0.61637 0.12607 0.32919 0.0
C32 C 0.55249 0.1278 0.26487 0.0
O33 O 0.54213 0.12192 0.27981 0.0
C34 C 0.57322 0.13622 0.32436 0.0
O35 O 0.63572 0.13054 0.35516 0.0
C36 C 0.62759 0.14692 0.29984 0.0
C37 C 0.63423 0.11789 0.36941 0.0
O38 O 0.62229 0.10307 0.36725 0.0
C39 C 0.61816 0.08413 0.30819 0.0
C40 C 0.64548 0.1571 0.29436 0.0
C41 C 0.64612 0.16745 0.27685 0.0
C42 C 0.66284 0.178 0.27169 0.0
C43 C 0.67902 0.17781 0.28424 0.0
C44 C 0.67854 0.16748 0.3019 0.0
C45 C 0.66164 0.1571 0.30686 0.0
O46 O 0.57925 0.13627 0.30622 0.0
O47 O 0.58529 0.13001 0.33766 0.0
O48 O 0.5667 0.09605 0.31522 0.0
O49 O 0.56178 0.08535 0.28649 0.0
C50 C 0.55709 0.08359 0.30477 0.0
O51 O 0.61809 0.09373 0.32479 0.0
O52 O 0.61023 0.09129 0.29193 0.0
O53 O 0.61829 0.15421 0.3149 0.0
O54 O 0.62867 0.12784 0.30009 0.0
H55 H 0.63349 0.16743 0.26736 0.0
H56 H 0.69168 0.18658 0.28075 0.0
H57 H 0.66096 0.14915 0.32048 0.0
O58 O 0.89378 0.57081 0.25755 0.0
Tb59 Tb 0.90636 0.58268 0.28474 0.0
Eu60 Eu 0.8872 0.61703 0.3201 0.0
C61 C 0.88857 0.55219 0.25695 0.0
O62 O 0.89306 0.5411 0.27186 0.0
C63 C 0.87607 0.57393 0.31541 0.0
O64 O 0.87993 0.63652 0.34553 0.0
C65 C 0.86915 0.62728 0.28852 0.0
C66 C 0.89398 0.64488 0.35553 0.0
O67 O 0.91204 0.64279 0.34959 0.0
C68 C 0.92999 0.61827 0.30106 0.0
C69 C 0.85728 0.64367 0.28191 0.0
C70 C 0.84853 0.64291 0.26348 0.0
C71 C 0.83625 0.65804 0.25733 0.0
C72 C 0.83264 0.67373 0.26994 0.0
C73 C 0.84112 0.67444 0.28849 0.0
C74 C 0.85373 0.65953 0.29434 0.0
O75 O 0.87744 0.57952 0.29722 0.0
O76 O 0.88196 0.5861 0.32884 0.0
O77 O 0.91733 0.57228 0.31246 0.0
O78 O 0.92748 0.55889 0.2863 0.0
C79 C 0.9287 0.55905 0.30526 0.0
O80 O 0.91986 0.61716 0.31735 0.0
O81 O 0.92385 0.60984 0.28464 0.0
O82 O 0.8612 0.61638 0.30205 0.0
O83 O 0.88759 0.63112 0.29177 0.0
H84 H 0.85107 0.63047 0.25406 0.0
H85 H 0.82262 0.68515 0.26559 0.0
H86 H 0.86012 0.65984 0.30878 0.0
O87 O 0.43046 0.88605 0.26032 0.0
Tb88 Tb 0.42093 0.89821 0.28868 0.0
Eu89 Eu 0.39707 0.87724 0.3262 0.0
C90 C 0.44927 0.88594 0.25569 0.0
O91 O 0.4615 0.89555 0.26681 0.0
C92 C 0.43981 0.86865 0.31661 0.0
O93 O 0.3844 0.87155 0.35581 0.0
C94 C 0.38313 0.85476 0.29923 0.0
C95 C 0.36556 0.87128 0.35921 0.0
O96 O 0.35329 0.87416 0.34484 0.0
C97 C 0.38392 0.91812 0.30831 0.0
C98 C 0.36506 0.85048 0.28855 0.0
C99 C 0.36645 0.84436 0.26914 0.0
C100 C 0.34991 0.83773 0.25907 0.0
C101 C 0.33173 0.83813 0.26855 0.0
C102 C 0.33006 0.84448 0.28792 0.0
C103 C 0.34684 0.8507 0.29784 0.0
O104 O 0.43281 0.87048 0.29892 0.0
O105 O 0.42889 0.87365 0.33135 0.0
O106 O 0.435 0.91162 0.31365 0.0
O107 O 0.44036 0.92298 0.28512 0.0
C108 C 0.44415 0.9248 0.30363 0.0
O109 O 0.38668 0.90794 0.32428 0.0
O110 O 0.392 0.91284 0.2914 0.0
O111 O 0.38365 0.84992 0.31774 0.0
O112 O 0.39168 0.87145 0.29545 0.0
H113 H 0.38062 0.84401 0.26216 0.0
H114 H 0.31904 0.83206 0.26139 0.0
H115 H 0.34579 0.85516 0.31291 0.0
O116 O 0.12295 0.55994 0.74488 0.0
Tb117 Tb 0.11109 0.5706 0.71679 0.0
Eu118 Eu 0.12946 0.61525 0.68028 0.0
C119 C 0.14174 0.56111 0.74924 0.0
O120 O 0.15298 0.57212 0.73839 0.0
C121 C 0.14449 0.57487 0.68739 0.0
O122 O 0.13207 0.63486 0.6542 0.0
C123 C 0.14164 0.63193 0.71188 0.0
C124 C 0.14936 0.64086 0.64855 0.0
O125 O 0.16467 0.63609 0.65898 0.0
C126 C 0.08761 0.6042 0.69768 0.0
C127 C 0.15082 0.65056 0.71679 0.0
C128 C 0.16184 0.65226 0.7339 0.0
C129 C 0.17185 0.66962 0.73811 0.0
C130 C 0.17046 0.68526 0.72499 0.0
C131 C 0.15949 0.68368 0.70778 0.0
C132 C 0.14972 0.66622 0.70376 0.0
O133 O 0.13739 0.58162 0.70381 0.0
O134 O 0.14533 0.5875 0.67322 0.0
O135 O 0.0983 0.54151 0.7155 0.0
O136 O 0.10417 0.55632 0.68913 0.0
C137 C 0.09759 0.54032 0.69664 0.0
O138 O 0.09999 0.6005 0.68341 0.0
O139 O 0.08917 0.59419 0.71427 0.0
O140 O 0.12345 0.63286 0.70588 0.0
O141 O 0.15247 0.62003 0.70151 0.0
H142 H 0.16283 0.63997 0.74375 0.0
H143 H 0.17885 0.69838 0.72762 0.0
H144 H 0.14147 0.66469 0.69038 0.0
O145 O 0.42658 0.13193 0.75217 0.0
Tb146 Tb 0.42395 0.11074 0.72789 0.0
Eu147 Eu 0.41047 0.12515 0.68051 0.0
C148 C 0.43383 0.14967 0.74954 0.0
O149 O 0.43504 0.15648 0.73177 0.0
C150 C 0.45287 0.12045 0.69424 0.0
O151 O 0.39701 0.13183 0.65139 0.0
C152 C 0.40271 0.15302 0.70479 0.0
C153 C 0.37903 0.12638 0.64762 0.0
O154 O 0.36902 0.11726 0.66112 0.0
C155 C 0.38979 0.08979 0.70312 0.0
C156 C 0.38793 0.16821 0.70725 0.0
C157 C 0.38736 0.17887 0.7247 0.0
C158 C 0.37305 0.19318 0.72761 0.0
C159 C 0.35957 0.19694 0.7127 0.0
C160 C 0.36012 0.18643 0.69522 0.0
C161 C 0.37424 0.17195 0.69252 0.0
O162 O 0.44475 0.12716 0.7102 0.0
O163 O 0.44181 0.11623 0.67932 0.0
O164 O 0.43513 0.09214 0.75104 0.0
O165 O 0.443 0.08619 0.72164 0.0
C166 C 0.44518 0.08082 0.73965 0.0
O167 O 0.39606 0.09661 0.68639 0.0
O168 O 0.39545 0.097 0.72027 0.0
O169 O 0.41461 0.15509 0.68993 0.0
O170 O 0.39674 0.13504 0.70729 0.0
H171 H 0.39779 0.17575 0.73613 0.0
H172 H 0.3486 0.20816 0.71463 0.0
H173 H 0.37459 0.16366 0.67907 0.0
O174 O 0.88745 0.43631 0.75486 0.0
Tb175 Tb 0.89861 0.42745 0.72592 0.0
Eu176 Eu 0.88078 0.40512 0.68532 0.0
C177 C 0.86892 0.43373 0.75971 0.0
O178 O 0.8581 0.42258 0.74855 0.0
C179 C 0.87081 0.44703 0.6965 0.0
O180 O 0.87671 0.38998 0.65654 0.0
C181 C 0.85705 0.39138 0.7113 0.0
C182 C 0.88677 0.39603 0.64145 0.0
O183 O 0.89913 0.41046 0.64383 0.0
C184 C 0.92111 0.39296 0.70532 0.0
C185 C 0.85037 0.37285 0.71943 0.0
C186 C 0.83992 0.37309 0.73696 0.0
C187 C 0.83246 0.35576 0.74474 0.0
C188 C 0.83582 0.33815 0.7349 0.0
C189 C 0.84594 0.33777 0.71712 0.0
C190 C 0.85329 0.35522 0.70944 0.0
O191 O 0.87144 0.43898 0.71385 0.0
O192 O 0.87718 0.43716 0.68148 0.0
O193 O 0.9133 0.44312 0.70266 0.0
O194 O 0.9231 0.44673 0.73192 0.0
C195 C 0.92601 0.4516 0.71383 0.0
O196 O 0.91221 0.39676 0.68881 0.0
O197 O 0.91388 0.399 0.72233 0.0
O198 O 0.8519 0.39503 0.69325 0.0
O199 O 0.87504 0.39645 0.71526 0.0
H200 H 0.83722 0.38681 0.74432 0.0
H201 H 0.82931 0.32485 0.74037 0.0
H202 H 0.86086 0.35515 0.69559 0.0
O203 O 0.57991 0.88245 0.74457 0.0
Tb204 Tb 0.58986 0.90629 0.72536 0.0
Eu205 Eu 0.60381 0.87467 0.68962 0.0
C206 C 0.56201 0.88417 0.75165 0.0
O207 O 0.55221 0.89993 0.74695 0.0
C208 C 0.55974 0.88939 0.69341 0.0
O209 O 0.61885 0.863 0.66276 0.0
C210 C 0.6154 0.85526 0.71973 0.0
C211 C 0.61997 0.87453 0.64753 0.0
O212 O 0.61093 0.89139 0.64798 0.0
C213 C 0.6241 0.9158 0.69729 0.0
C214 C 0.63336 0.84521 0.72514 0.0
C215 C 0.63403 0.83448 0.74244 0.0
C216 C 0.65048 0.82319 0.74689 0.0
C217 C 0.66629 0.82294 0.73388 0.0
C218 C 0.6656 0.83341 0.71633 0.0
C219 C 0.64908 0.84465 0.71211 0.0
O220 O 0.5653 0.90341 0.70534 0.0
O221 O 0.57151 0.87591 0.68662 0.0
O222 O 0.57927 0.93576 0.72202 0.0
O223 O 0.58749 0.92622 0.75034 0.0
C224 C 0.5811 0.94088 0.7401 0.0
O225 O 0.61638 0.90444 0.68406 0.0
O226 O 0.61971 0.91316 0.71578 0.0
O227 O 0.606 0.8473 0.70507 0.0
O228 O 0.61634 0.87435 0.71873 0.0
H229 H 0.62158 0.83453 0.75217 0.0
H230 H 0.67864 0.81355 0.73681 0.0
H231 H 0.64821 0.85256 0.69848 0.0
O232 O 0.2657 0.12787 0.43974 0.0
Tb233 Tb 0.29328 0.11652 0.42715 0.0
Eu234 Eu 0.33602 0.12929 0.40533 0.0
C235 C 0.26073 0.14652 0.43847 0.0
O236 O 0.27078 0.15781 0.42675 0.0
C237 C 0.32532 0.14045 0.44777 0.0
O238 O 0.3669 0.12787 0.39434 0.0
C239 C 0.3157 0.15567 0.38781 0.0
C240 C 0.37069 0.1256 0.37571 0.0
O241 O 0.35624 0.12392 0.36331 0.0
C242 C 0.3096 0.09471 0.39007 0.0
C243 C 0.30631 0.15765 0.36867 0.0
C244 C 0.28671 0.16328 0.36791 0.0
C245 C 0.27732 0.16558 0.34997 0.0
C246 C 0.28761 0.16196 0.33273 0.0
C247 C 0.30739 0.15673 0.33318 0.0
C248 C 0.31664 0.15443 0.35126 0.0
O249 O 0.30774 0.14179 0.44021 0.0
O250 O 0.33957 0.13331 0.43727 0.0
O251 O 0.2878 0.0903 0.44403 0.0
O252 O 0.31712 0.09911 0.43852 0.0
C253 C 0.30612 0.08595 0.44644 0.0
O254 O 0.32738 0.09977 0.39499 0.0
O255 O 0.29397 0.10394 0.39721 0.0
O256 O 0.33486 0.15588 0.38826 0.0
O257 O 0.30792 0.14266 0.39945 0.0
H258 H 0.27887 0.16631 0.38129 0.0
H259 H 0.28061 0.1649 0.3189 0.0
H260 H 0.33194 0.15065 0.3517 0.0
O261 O 0.88358 0.27042 0.4316 0.0
Tb262 Tb 0.89776 0.29905 0.42681 0.0
Eu263 Eu 0.87865 0.33727 0.39951 0.0
C264 C 0.86443 0.26855 0.4336 0.0
O265 O 0.85319 0.28331 0.42906 0.0
C266 C 0.87392 0.33333 0.44302 0.0
O267 O 0.87241 0.3627 0.37975 0.0
C268 C 0.85761 0.30657 0.39297 0.0
C269 C 0.88476 0.37727 0.38115 0.0
O270 O 0.89932 0.37557 0.39346 0.0
C271 C 0.92172 0.31971 0.39143 0.0
C272 C 0.84872 0.2963 0.37658 0.0
C273 C 0.84087 0.27762 0.3793 0.0
C274 C 0.83164 0.2679 0.36384 0.0
C275 C 0.83062 0.27713 0.34559 0.0
C276 C 0.83838 0.29583 0.34284 0.0
C277 C 0.8475 0.30534 0.35839 0.0
O278 O 0.87218 0.31527 0.43693 0.0
O279 O 0.87941 0.34648 0.43051 0.0
O280 O 0.91663 0.2871 0.44928 0.0
O281 O 0.91252 0.31784 0.44758 0.0
C282 C 0.9207 0.30381 0.45721 0.0
O283 O 0.90988 0.33476 0.39107 0.0
O284 O 0.91758 0.30333 0.40114 0.0
O285 O 0.85016 0.32372 0.39724 0.0
O286 O 0.87672 0.30618 0.39369 0.0
H287 H 0.84172 0.27078 0.39348 0.0
H288 H 0.82276 0.27028 0.33374 0.0
H289 H 0.85341 0.31986 0.35641 0.0
O290 O 0.73778 0.87704 0.43664 0.0
Tb291 Tb 0.70925 0.88909 0.42774 0.0
Eu292 Eu 0.66986 0.86661 0.40957 0.0
C293 C 0.74198 0.87709 0.45549 0.0
O294 O 0.73036 0.88697 0.46708 0.0
C295 C 0.6812 0.8631 0.45259 0.0
O296 O 0.64085 0.86067 0.39548 0.0
C297 C 0.69639 0.84279 0.39716 0.0
C298 C 0.63808 0.86437 0.37689 0.0
O299 O 0.65264 0.87111 0.36647 0.0
C300 C 0.68767 0.90474 0.39049 0.0
C301 C 0.70482 0.83732 0.37833 0.0
C302 C 0.72398 0.83024 0.37758 0.0
C303 C 0.73213 0.82444 0.35976 0.0
C304 C 0.72091 0.82574 0.34274 0.0
C305 C 0.70168 0.83254 0.34345 0.0
C306 C 0.69373 0.83856 0.36121 0.0
O307 O 0.69883 0.8643 0.44513 0.0
O308 O 0.66605 0.86686 0.44169 0.0
O309 O 0.71616 0.91721 0.4407 0.0
O310 O 0.68686 0.90654 0.44186 0.0
C311 C 0.69831 0.92107 0.44604 0.0
O312 O 0.67166 0.89633 0.39667 0.0
O313 O 0.70499 0.8991 0.3972 0.0
O314 O 0.67819 0.83759 0.40016 0.0
O315 O 0.70032 0.86051 0.40315 0.0
H316 H 0.73241 0.82894 0.39086 0.0
H317 H 0.72676 0.82045 0.32904 0.0
H318 H 0.67872 0.84339 0.36179 0.0
O319 O 0.13403 0.74186 0.43205 0.0
Tb320 Tb 0.12348 0.71285 0.42258 0.0
Eu321 Eu 0.14267 0.67163 0.40305 0.0
C322 C 0.15288 0.746 0.43313 0.0
O323 O 0.16535 0.73396 0.42501 0.0
C324 C 0.14753 0.68283 0.44616 0.0
O325 O 0.14675 0.64117 0.3914 0.0
C326 C 0.16764 0.69679 0.38996 0.0
C327 C 0.14566 0.63736 0.37266 0.0
O328 O 0.14309 0.65177 0.36036 0.0
C329 C 0.10576 0.69269 0.3848 0.0
C330 C 0.17149 0.70784 0.37206 0.0
C331 C 0.1772 0.72742 0.37364 0.0
C332 C 0.1805 0.73854 0.35689 0.0
C333 C 0.17842 0.72983 0.33857 0.0
C334 C 0.17338 0.71008 0.33666 0.0
C335 C 0.16952 0.69923 0.35358 0.0
O336 O 0.1482 0.7003 0.43837 0.0
O337 O 0.14275 0.6679 0.43532 0.0
O338 O 0.09761 0.7213 0.43872 0.0
O339 O 0.10494 0.69113 0.4364 0.0
C340 C 0.09247 0.70363 0.44328 0.0
O341 O 0.11342 0.6759 0.3898 0.0
O342 O 0.11197 0.7095 0.39241 0.0
O343 O 0.17071 0.67786 0.38958 0.0
O344 O 0.1517 0.7017 0.39925 0.0
H345 H 0.17922 0.73398 0.38785 0.0
H346 H 0.18213 0.73825 0.32581 0.0
H347 H 0.16526 0.68409 0.3524 0.0
O348 O 0.26077 0.88838 0.56851 0.0
Tb349 Tb 0.28913 0.89916 0.5794 0.0
Eu350 Eu 0.3278 0.88064 0.60194 0.0
C351 C 0.25631 0.86964 0.56991 0.0
O352 O 0.26681 0.85877 0.5816 0.0
C353 C 0.31878 0.87188 0.55988 0.0
O354 O 0.3567 0.87583 0.61628 0.0
C355 C 0.30155 0.85628 0.61374 0.0
C356 C 0.35964 0.87981 0.63474 0.0
O357 O 0.34504 0.88589 0.64552 0.0
C358 C 0.30744 0.91994 0.61654 0.0
C359 C 0.29255 0.84911 0.63164 0.0
C360 C 0.27403 0.84071 0.63058 0.0
C361 C 0.26578 0.83163 0.64689 0.0
C362 C 0.27622 0.83158 0.66452 0.0
C363 C 0.29479 0.84019 0.6658 0.0
C364 C 0.30279 0.84912 0.64927 0.0
O365 O 0.30124 0.87209 0.56753 0.0
O366 O 0.3332 0.87872 0.57016 0.0
O367 O 0.28484 0.92297 0.55899 0.0
O368 O 0.31376 0.91381 0.56601 0.0
C369 C 0.30335 0.92586 0.55586 0.0
O370 O 0.32401 0.91085 0.61332 0.0
O371 O 0.29084 0.91417 0.60817 0.0
O372 O 0.31986 0.85145 0.61087 0.0
O373 O 0.29749 0.87429 0.60881 0.0
H374 H 0.2663 0.84075 0.61684 0.0
H375 H 0.27051 0.82367 0.67692 0.0
H376 H 0.31721 0.85552 0.64993 0.0
O377 O 0.13144 0.27009 0.57704 0.0
Tb378 Tb 0.11471 0.2962 0.58653 0.0
Eu379 Eu 0.13431 0.33801 0.60587 0.0
C380 C 0.13145 0.26582 0.55818 0.0
O381 O 0.11961 0.2758 0.54697 0.0
C382 C 0.12898 0.33145 0.56159 0.0
O383 O 0.1412 0.36751 0.61845 0.0
C384 C 0.16217 0.31287 0.61036 0.0
C385 C 0.13918 0.3716 0.63705 0.0
O386 O 0.13384 0.3578 0.64916 0.0
C387 C 0.09913 0.31531 0.6262 0.0
C388 C 0.17157 0.30228 0.62627 0.0
C389 C 0.18399 0.28667 0.62189 0.0
C390 C 0.19344 0.27652 0.63686 0.0
C391 C 0.19013 0.28202 0.65629 0.0
C392 C 0.17803 0.29789 0.66078 0.0
C393 C 0.16866 0.30794 0.64568 0.0
O394 O 0.1328 0.31327 0.56642 0.0
O395 O 0.12652 0.34458 0.57516 0.0
O396 O 0.08789 0.28389 0.57476 0.0
O397 O 0.0917 0.31485 0.57606 0.0
C398 C 0.07983 0.30082 0.57158 0.0
O399 O 0.10742 0.33227 0.62312 0.0
O400 O 0.10538 0.29903 0.61751 0.0
O401 O 0.16507 0.33179 0.60994 0.0
O402 O 0.14411 0.30789 0.60663 0.0
H403 H 0.18658 0.28265 0.60683 0.0
H404 H 0.19809 0.27483 0.66788 0.0
H405 H 0.1594 0.32031 0.649 0.0
O406 O 0.7472 0.12908 0.56459 0.0
Tb407 Tb 0.72122 0.11384 0.57596 0.0
Eu408 Eu 0.68314 0.13015 0.61093 0.0
C409 C 0.74591 0.13516 0.54633 0.0
O410 O 0.73021 0.13026 0.5366 0.0
C411 C 0.68715 0.14114 0.56826 0.0
O412 O 0.65806 0.13404 0.63175 0.0
C413 C 0.71318 0.15074 0.62103 0.0
C414 C 0.65432 0.12112 0.64537 0.0
O415 O 0.66624 0.10633 0.6477 0.0
C416 C 0.70484 0.08854 0.61109 0.0
C417 C 0.72009 0.15984 0.63898 0.0
C418 C 0.73812 0.16938 0.63921 0.0
C419 C 0.74479 0.1782 0.65635 0.0
C420 C 0.73318 0.17759 0.67317 0.0
C421 C 0.71486 0.16842 0.67297 0.0
C422 C 0.70852 0.15933 0.6558 0.0
O423 O 0.70527 0.14122 0.57439 0.0
O424 O 0.67383 0.13484 0.58026 0.0
O425 O 0.69748 0.1012 0.55908 0.0
O426 O 0.72664 0.09215 0.55339 0.0
C427 C 0.70846 0.09004 0.54845 0.0
O428 O 0.688 0.09778 0.61124 0.0
O429 O 0.72088 0.09589 0.60287 0.0
O430 O 0.69731 0.15835 0.61351 0.0
O431 O 0.71309 0.13164 0.62104 0.0
H432 H 0.74688 0.17002 0.62608 0.0
H433 H 0.73799 0.18527 0.68611 0.0
H434 H 0.6945 0.15204 0.6554 0.0
O435 O 0.87988 0.73852 0.56721 0.0
Tb436 Tb 0.89231 0.71023 0.57654 0.0
Eu437 Eu 0.87027 0.67061 0.60201 0.0
C438 C 0.86112 0.74292 0.56848 0.0
O439 O 0.84966 0.73191 0.57907 0.0
C440 C 0.86728 0.67838 0.55907 0.0
O441 O 0.86111 0.64469 0.61984 0.0
C442 C 0.84911 0.70081 0.61032 0.0
C443 C 0.86608 0.64279 0.63823 0.0
O444 O 0.87638 0.65657 0.64663 0.0
C445 C 0.91273 0.68827 0.61289 0.0
C446 C 0.83925 0.70788 0.62779 0.0
C447 C 0.82797 0.72487 0.62714 0.0
C448 C 0.81802 0.73128 0.64383 0.0
C449 C 0.81953 0.72039 0.6611 0.0
C450 C 0.83069 0.70323 0.66178 0.0
C451 C 0.84061 0.69717 0.64504 0.0
O452 O 0.86581 0.69558 0.56724 0.0
O453 O 0.87173 0.66379 0.57036 0.0
O454 O 0.91511 0.71987 0.55686 0.0
O455 O 0.90813 0.68965 0.55818 0.0
C456 C 0.91909 0.70268 0.54997 0.0
O457 O 0.90146 0.67277 0.6114 0.0
O458 O 0.90849 0.70533 0.60441 0.0
O459 O 0.84194 0.68472 0.60282 0.0
O460 O 0.86822 0.7009 0.61106 0.0
H461 H 0.82685 0.733 0.61367 0.0
H462 H 0.81116 0.72474 0.67377 0.0
H463 H 0.84925 0.68397 0.64532 0.0
O464 O 0.44308 0.26562 0.12507 0.0
Tb465 Tb 0.43167 0.29401 0.11497 0.0
Eu466 Eu 0.40266 0.33291 0.13518 0.0
C467 C 0.43951 0.25917 0.14289 0.0
O468 O 0.42624 0.26819 0.15334 0.0
C469 C 0.44472 0.32352 0.14486 0.0
O470 O 0.38501 0.36028 0.13971 0.0
C471 C 0.38946 0.3054 0.15738 0.0
C472 C 0.37787 0.3702 0.12498 0.0
O473 O 0.38075 0.36388 0.10718 0.0
C474 C 0.39509 0.31186 0.09314 0.0
C475 C 0.37066 0.29869 0.16494 0.0
C476 C 0.36934 0.27987 0.17261 0.0
C477 C 0.35193 0.27336 0.18103 0.0
C478 C 0.33571 0.28583 0.18148 0.0
C479 C 0.33691 0.3049 0.1741 0.0
C480 C 0.35447 0.31121 0.16569 0.0
O481 O 0.43631 0.30642 0.14362 0.0
O482 O 0.43436 0.33864 0.13978 0.0
O483 O 0.4559 0.29315 0.09437 0.0
O484 O 0.44342 0.32051 0.10216 0.0
C485 C 0.45666 0.31192 0.09176 0.0
O486 O 0.39679 0.32819 0.10322 0.0
O487 O 0.4039 0.29531 0.09841 0.0
O488 O 0.39558 0.32227 0.16401 0.0
O489 O 0.39245 0.30303 0.13866 0.0
H490 H 0.38202 0.27043 0.17241 0.0
H491 H 0.32251 0.2811 0.18877 0.0
H492 H 0.35568 0.32593 0.16009 0.0
O493 O 0.44 0.74471 0.87875 0.0
Tb494 Tb 0.4283 0.7171 0.89063 0.0
Eu495 Eu 0.40586 0.67659 0.87276 0.0
C496 C 0.4407 0.74783 0.8597 0.0
O497 O 0.43123 0.73581 0.84821 0.0
C498 C 0.4501 0.68424 0.86792 0.0
O499 O 0.39359 0.64642 0.86925 0.0
C500 C 0.39401 0.69986 0.84558 0.0
C501 C 0.3749 0.6428 0.87133 0.0
O502 O 0.36298 0.65715 0.87562 0.0
C503 C 0.38892 0.70095 0.90803 0.0
C504 C 0.376 0.71019 0.84039 0.0
C505 C 0.37737 0.72816 0.8308 0.0
C506 C 0.36049 0.73798 0.82477 0.0
C507 C 0.34222 0.72974 0.82878 0.0
C508 C 0.34059 0.71172 0.83826 0.0
C509 C 0.35759 0.70199 0.84413 0.0
O510 O 0.44471 0.70261 0.86739 0.0
O511 O 0.43775 0.67077 0.87328 0.0
O512 O 0.44223 0.72553 0.91779 0.0
O513 O 0.43896 0.69531 0.91107 0.0
C514 C 0.44488 0.70781 0.92404 0.0
O515 O 0.39238 0.68334 0.90142 0.0
O516 O 0.39746 0.71662 0.90037 0.0
O517 O 0.39371 0.68078 0.84392 0.0
O518 O 0.40297 0.70601 0.86131 0.0
H519 H 0.39159 0.73426 0.82763 0.0
H520 H 0.3292 0.73669 0.82317 0.0
H521 H 0.35649 0.68792 0.85117 0.0
O522 O 0.26264 0.4306 0.88487 0.0
Tb523 Tb 0.29176 0.4214 0.89533 0.0
Eu524 Eu 0.32861 0.39806 0.87172 0.0
C525 C 0.25874 0.43021 0.86597 0.0
O526 O 0.27038 0.42021 0.85457 0.0
C527 C 0.3211 0.44169 0.86819 0.0
O528 O 0.35556 0.38276 0.86116 0.0
C529 C 0.29861 0.38807 0.85099 0.0
C530 C 0.3588 0.36408 0.86379 0.0
O531 O 0.34583 0.35346 0.873 0.0
C532 C 0.31301 0.38426 0.91355 0.0
C533 C 0.29045 0.36974 0.84371 0.0
C534 C 0.27124 0.36914 0.83672 0.0
C535 C 0.26361 0.35174 0.82913 0.0
C536 C 0.27546 0.33504 0.82856 0.0
C537 C 0.29488 0.33566 0.83497 0.0
C538 C 0.30214 0.353 0.8429 0.0
O539 O 0.30323 0.43504 0.86898 0.0
O540 O 0.33539 0.42982 0.87211 0.0
O541 O 0.28623 0.44043 0.92007 0.0
O542 O 0.31556 0.4354 0.9108 0.0
C543 C 0.30454 0.44419 0.92343 0.0
O544 O 0.32829 0.38649 0.90215 0.0
O545 O 0.29584 0.39251 0.90952 0.0
O546 O 0.31537 0.39334 0.8434 0.0
O547 O 0.29784 0.39057 0.86989 0.0
H548 H 0.26239 0.38223 0.83689 0.0
H549 H 0.26988 0.32174 0.8221 0.0
H550 H 0.31721 0.35382 0.84748 0.0
O551 O 0.56489 0.26592 0.88732 0.0
Tb552 Tb 0.57606 0.29439 0.89726 0.0
Eu553 Eu 0.60178 0.33217 0.87572 0.0
C554 C 0.56715 0.26039 0.86899 0.0
O555 O 0.57979 0.26982 0.85818 0.0
C556 C 0.55967 0.32296 0.86766 0.0
O557 O 0.62012 0.35863 0.86973 0.0
C558 C 0.61326 0.30347 0.854 0.0
C559 C 0.63825 0.35939 0.87583 0.0
O560 O 0.64555 0.34445 0.88525 0.0
C561 C 0.61286 0.31345 0.91736 0.0
C562 C 0.63172 0.29547 0.84699 0.0
C563 C 0.63189 0.27714 0.83801 0.0
C564 C 0.64917 0.2697 0.82993 0.0
C565 C 0.66641 0.28064 0.83167 0.0
C566 C 0.66635 0.29899 0.84074 0.0
C567 C 0.64892 0.30642 0.84826 0.0
O568 O 0.56796 0.30582 0.86887 0.0
O569 O 0.56995 0.33817 0.87268 0.0
O570 O 0.55485 0.29132 0.92062 0.0
O571 O 0.56232 0.31975 0.91053 0.0
C572 C 0.55187 0.30993 0.92285 0.0
O573 O 0.61053 0.3295 0.90709 0.0
O574 O 0.60448 0.29662 0.9124 0.0
O575 O 0.60852 0.32067 0.84709 0.0
O576 O 0.60986 0.30163 0.8727 0.0
H577 H 0.61844 0.26894 0.8369 0.0
H578 H 0.67971 0.27552 0.82485 0.0
H579 H 0.64866 0.32079 0.85476 0.0
O580 O 0.74792 0.56373 0.89692 0.0
Tb581 Tb 0.71931 0.57669 0.90419 0.0
Eu582 Eu 0.68322 0.59824 0.87762 0.0
C583 C 0.75563 0.56654 0.87945 0.0
O584 O 0.74809 0.58024 0.86845 0.0
C585 C 0.69385 0.55572 0.8743 0.0
O586 O 0.65638 0.61452 0.86845 0.0
C587 C 0.71254 0.6084 0.85618 0.0
C588 C 0.64015 0.60483 0.86553 0.0
O589 O 0.64021 0.58582 0.86776 0.0
C590 C 0.69903 0.61533 0.91815 0.0
C591 C 0.72002 0.62643 0.84777 0.0
C592 C 0.73735 0.62598 0.83707 0.0
C593 C 0.74381 0.64266 0.82721 0.0
C594 C 0.73276 0.65988 0.82855 0.0
C595 C 0.71544 0.66056 0.83948 0.0
C596 C 0.70921 0.6437 0.84917 0.0
O597 O 0.71093 0.56406 0.87622 0.0
O598 O 0.67834 0.56617 0.87775 0.0
O599 O 0.71885 0.56118 0.9319 0.0
O600 O 0.69242 0.56461 0.9159 0.0
C601 C 0.70012 0.5579 0.9318 0.0
O602 O 0.68358 0.61063 0.90779 0.0
O603 O 0.71634 0.60716 0.91469 0.0
O604 O 0.69587 0.60233 0.84901 0.0
O605 O 0.71359 0.60698 0.87518 0.0
H606 H 0.74551 0.61249 0.83607 0.0
H607 H 0.73702 0.67249 0.82008 0.0
H608 H 0.69574 0.64382 0.85744 0.0
O609 O 0.57114 0.75066 0.12496 0.0
Tb610 Tb 0.5797 0.72197 0.11287 0.0
Eu611 Eu 0.6075 0.68182 0.13223 0.0
C612 C 0.57301 0.7551 0.14367 0.0
O613 O 0.58424 0.74414 0.15459 0.0
C614 C 0.56591 0.69176 0.14189 0.0
O615 O 0.62463 0.65412 0.13581 0.0
C616 C 0.62123 0.71001 0.15326 0.0
C617 C 0.61904 0.63886 0.12569 0.0
O618 O 0.60405 0.64069 0.11393 0.0
C619 C 0.61499 0.7011 0.08979 0.0
C620 C 0.64017 0.71801 0.15886 0.0
C621 C 0.64076 0.73558 0.1692 0.0
C622 C 0.65844 0.74252 0.17668 0.0
C623 C 0.67563 0.732 0.1731 0.0
C624 C 0.67524 0.71434 0.16271 0.0
C625 C 0.65737 0.70747 0.15549 0.0
O626 O 0.57497 0.70854 0.14103 0.0
O627 O 0.57587 0.67634 0.13698 0.0
O628 O 0.55617 0.7291 0.09292 0.0
O629 O 0.56085 0.69942 0.10065 0.0
C630 C 0.54999 0.71133 0.09076 0.0
O631 O 0.6139 0.68514 0.10042 0.0
O632 O 0.60642 0.71793 0.09475 0.0
O633 O 0.61709 0.69268 0.16027 0.0
O634 O 0.61621 0.7122 0.13496 0.0
H635 H 0.62729 0.74321 0.17242 0.0
H636 H 0.68919 0.73707 0.17941 0.0
H637 H 0.65671 0.69368 0.1478 0.0
O638 O 0.26461 0.5818 0.11927 0.0
Tb639 Tb 0.29428 0.58818 0.10848 0.0
Eu640 Eu 0.3331 0.61165 0.12884 0.0
C641 C 0.25998 0.5842 0.13785 0.0
O642 O 0.27202 0.59396 0.14903 0.0
C643 C 0.32279 0.56944 0.13764 0.0
O644 O 0.36122 0.62706 0.13553 0.0
C645 C 0.30415 0.62494 0.14906 0.0
C646 C 0.36457 0.64514 0.13017 0.0
O647 O 0.35087 0.65497 0.12113 0.0
C648 C 0.31667 0.6229 0.08677 0.0
C649 C 0.29476 0.64348 0.15364 0.0
C650 C 0.2761 0.6433 0.16177 0.0
C651 C 0.26736 0.66065 0.16805 0.0
C652 C 0.27749 0.67831 0.16568 0.0
C653 C 0.29627 0.67869 0.15742 0.0
C654 C 0.30468 0.66112 0.15114 0.0
O655 O 0.3053 0.57708 0.13622 0.0
O656 O 0.33783 0.57988 0.1325 0.0
O657 O 0.28707 0.56738 0.0857 0.0
O658 O 0.31647 0.56949 0.09566 0.0
C659 C 0.30468 0.56055 0.08388 0.0
O660 O 0.33226 0.61995 0.0975 0.0
O661 O 0.29931 0.61563 0.09173 0.0
O662 O 0.32166 0.62225 0.15632 0.0
O663 O 0.30235 0.61888 0.13106 0.0
H664 H 0.26863 0.62955 0.1638 0.0
H665 H 0.27136 0.69159 0.17164 0.0
H666 H 0.3192 0.66104 0.14493 0.0
O667 O 0.74278 0.4432 0.12494 0.0
Tb668 Tb 0.71485 0.43286 0.11261 0.0
Eu669 Eu 0.67867 0.39815 0.13221 0.0
C670 C 0.74422 0.46184 0.12988 0.0
O671 O 0.7295 0.47331 0.12563 0.0
C672 C 0.68314 0.44137 0.14259 0.0
O673 O 0.65459 0.37697 0.1393 0.0
C674 C 0.71146 0.3889 0.14849 0.0
C675 C 0.64705 0.36584 0.12564 0.0
O676 O 0.65474 0.36618 0.10813 0.0
C677 C 0.69571 0.39863 0.08896 0.0
C678 C 0.72001 0.3718 0.15776 0.0
C679 C 0.73762 0.37369 0.16784 0.0
C680 C 0.746 0.35742 0.17674 0.0
C681 C 0.73649 0.33936 0.17576 0.0
C682 C 0.71858 0.33733 0.16604 0.0
C683 C 0.71053 0.35371 0.15681 0.0
O684 O 0.70143 0.43584 0.1412 0.0
O685 O 0.66962 0.42879 0.1379 0.0
O686 O 0.71714 0.45444 0.08942 0.0
O687 O 0.68945 0.44872 0.10222 0.0
C688 C 0.69865 0.45873 0.08914 0.0
O689 O 0.67973 0.39941 0.09953 0.0
O690 O 0.71268 0.40559 0.09536 0.0
O691 O 0.69711 0.3973 0.15798 0.0
O692 O 0.70817 0.38715 0.12979 0.0
H693 H 0.74473 0.38777 0.16883 0.0
H694 H 0.7426 0.32713 0.18363 0.0
H695 H 0.69683 0.35252 0.14906 0.0
H696 H 0.10104 0.40105 0.3884 0.0
H697 H 0.10153 0.39623 0.42363 0.0
H698 H 0.09359 0.33442 0.41534 0.0
H699 H 0.09258 0.33916 0.38017 0.0
H700 H 0.07564 0.34603 0.44784 0.0
H701 H 0.13937 0.35441 0.41925 0.0
H702 H 0.16441 0.37163 0.40009 0.0
H703 H 0.16109 0.42049 0.43908 0.0
H704 H 0.13583 0.40364 0.45832 0.0
H705 H 0.12648 0.30748 0.52973 0.0
H706 H 0.11782 0.31656 0.49645 0.0
H707 H 0.1169 0.37712 0.51312 0.0
H708 H 0.12495 0.36813 0.54661 0.0
H709 H 0.13769 0.36832 0.47759 0.0
H710 H 0.07562 0.3584 0.50767 0.0
H711 H 0.05072 0.3409 0.52657 0.0
H712 H 0.05147 0.29412 0.48501 0.0
H713 H 0.07656 0.31135 0.46587 0.0
C714 C 0.09894 0.38649 0.39407 0.0
C715 C 0.09722 0.37043 0.38145 0.0
C716 C 0.09931 0.38374 0.41423 0.0
C717 C 0.0982 0.36489 0.4221 0.0
C718 C 0.09471 0.34908 0.40961 0.0
C719 C 0.0942 0.35182 0.38946 0.0
C720 C 0.1026 0.36134 0.44296 0.0
C721 C 0.08926 0.35079 0.4543 0.0
C722 C 0.12026 0.3678 0.45152 0.0
C723 C 0.13557 0.37786 0.44009 0.0
C724 C 0.1439 0.36888 0.42366 0.0
C725 C 0.15814 0.37856 0.41279 0.0
C726 C 0.1643 0.39716 0.41833 0.0
C727 C 0.15628 0.40609 0.43478 0.0
C728 C 0.14201 0.39648 0.44568 0.0
C729 C 0.12445 0.3227 0.52638 0.0
C730 C 0.12621 0.33701 0.54093 0.0
C731 C 0.11945 0.32787 0.50734 0.0
C732 C 0.11646 0.34748 0.50244 0.0
C733 C 0.11901 0.36189 0.51669 0.0
C734 C 0.12367 0.3567 0.5358 0.0
C735 C 0.11082 0.35291 0.48236 0.0
C736 C 0.12399 0.36373 0.47117 0.0
C737 C 0.0931 0.34659 0.47394 0.0
C738 C 0.07816 0.33606 0.48547 0.0
C739 C 0.07065 0.34428 0.50267 0.0
C740 C 0.05645 0.33442 0.51341 0.0
C741 C 0.04958 0.31633 0.50708 0.0
C742 C 0.05685 0.30811 0.48993 0.0
C743 C 0.07104 0.31793 0.47911 0.0
H744 H 0.03859 0.30872 0.5154 0.0
H745 H 0.17532 0.40464 0.4099 0.0
H746 H 0.62952 0.09704 0.40272 0.0
H747 H 0.64198 0.10477 0.43502 0.0
H748 H 0.6731 0.15405 0.41172 0.0
H749 H 0.66044 0.14658 0.37909 0.0
H750 H 0.69367 0.12793 0.44208 0.0
H751 H 0.63629 0.167 0.43101 0.0
H752 H 0.60244 0.1723 0.4202 0.0
H753 H 0.58213 0.13072 0.46221 0.0
H754 H 0.61591 0.12495 0.47305 0.0
H755 H 0.70614 0.16231 0.54042 0.0
H756 H 0.70031 0.16171 0.50513 0.0
H757 H 0.65267 0.12158 0.51379 0.0
H758 H 0.65827 0.12235 0.54879 0.0
H759 H 0.64257 0.14859 0.48891 0.0
H760 H 0.69827 0.10572 0.49693 0.0
H761 H 0.73172 0.09689 0.50672 0.0
H762 H 0.75472 0.14283 0.47115 0.0
H763 H 0.7214 0.15191 0.46109 0.0
C764 C 0.6392 0.1094 0.40433 0.0
C765 C 0.64381 0.12134 0.38837 0.0
C766 C 0.64632 0.11376 0.42281 0.0
C767 C 0.65829 0.13004 0.4257 0.0
C768 C 0.66385 0.14143 0.4097 0.0
C769 C 0.65655 0.13718 0.39113 0.0
C770 C 0.66353 0.13577 0.44576 0.0
C771 C 0.68266 0.13289 0.45229 0.0
C772 C 0.64901 0.14182 0.45904 0.0
C773 C 0.62865 0.14545 0.45274 0.0
C774 C 0.62462 0.15888 0.43783 0.0
C775 C 0.60545 0.16198 0.43172 0.0
C776 C 0.59015 0.15182 0.44049 0.0
C777 C 0.594 0.13857 0.45542 0.0
C778 C 0.61315 0.1354 0.46158 0.0
C779 C 0.6944 0.15344 0.5347 0.0
C780 C 0.6828 0.14223 0.54726 0.0
C781 C 0.69114 0.15303 0.51459 0.0
C782 C 0.67621 0.14138 0.5068 0.0
C783 C 0.66427 0.13067 0.51945 0.0
C784 C 0.66744 0.13118 0.53947 0.0
C785 C 0.67268 0.14031 0.48553 0.0
C786 C 0.65378 0.14405 0.47872 0.0
C787 C 0.68739 0.13483 0.4721 0.0
C788 C 0.70736 0.12962 0.47842 0.0
C789 C 0.71045 0.11401 0.49129 0.0
C790 C 0.72938 0.10889 0.4968 0.0
C791 C 0.74531 0.11929 0.48958 0.0
C792 C 0.74236 0.13476 0.47671 0.0
C793 C 0.72347 0.13988 0.47107 0.0
H794 H 0.75994 0.11539 0.49398 0.0
H795 H 0.57531 0.15424 0.43573 0.0
H796 H 0.91973 0.66342 0.37964 0.0
H797 H 0.91435 0.67323 0.41344 0.0
H798 H 0.85399 0.65642 0.40882 0.0
H799 H 0.85922 0.64652 0.37502 0.0
H800 H 0.88955 0.69799 0.43463 0.0
H801 H 0.84384 0.62887 0.44838 0.0
H802 H 0.83967 0.59587 0.43468 0.0
H803 H 0.89863 0.59673 0.41375 0.0
H804 H 0.90322 0.6296 0.42757 0.0
H805 H 0.85181 0.7022 0.53135 0.0
H806 H 0.85565 0.69959 0.49599 0.0
H807 H 0.89238 0.64908 0.50368 0.0
H808 H 0.88753 0.65093 0.5388 0.0
H809 H 0.86955 0.64215 0.47587 0.0
H810 H 0.90969 0.6974 0.49242 0.0
H811 H 0.91587 0.72964 0.50709 0.0
H812 H 0.87349 0.75551 0.46917 0.0
H813 H 0.86687 0.7234 0.45436 0.0
C814 C 0.90521 0.66214 0.38568 0.0
C815 C 0.88996 0.65389 0.37473 0.0
C816 C 0.90216 0.66786 0.40499 0.0
C817 C 0.88386 0.66529 0.4137 0.0
C818 C 0.86829 0.65834 0.4024 0.0
C819 C 0.8713 0.65269 0.38308 0.0
C820 C 0.88161 0.66765 0.43505 0.0
C821 C 0.8851 0.68586 0.4437 0.0
C822 C 0.87629 0.65167 0.44689 0.0
C823 C 0.87378 0.63177 0.43881 0.0
C824 C 0.85592 0.62198 0.44091 0.0
C825 C 0.85349 0.6033 0.43312 0.0
C826 C 0.86885 0.59423 0.42329 0.0
C827 C 0.88672 0.6038 0.4213 0.0
C828 C 0.88923 0.62246 0.42909 0.0
C829 C 0.86056 0.69047 0.52541 0.0
C830 C 0.86921 0.67666 0.53776 0.0
C831 C 0.86293 0.6891 0.50523 0.0
C832 C 0.87455 0.67429 0.49711 0.0
C833 C 0.88326 0.66058 0.50953 0.0
C834 C 0.88046 0.66162 0.52962 0.0
C835 C 0.87729 0.67261 0.47569 0.0
C836 C 0.87391 0.65442 0.46694 0.0
C837 C 0.88317 0.68853 0.46393 0.0
C838 C 0.88769 0.70795 0.47235 0.0
C839 C 0.90166 0.70995 0.48722 0.0
C840 C 0.90524 0.7282 0.49556 0.0
C841 C 0.89506 0.74459 0.48909 0.0
C842 C 0.88136 0.7428 0.47416 0.0
C843 C 0.87772 0.72458 0.46576 0.0
H844 H 0.89779 0.75869 0.49564 0.0
H845 H 0.86693 0.57979 0.41725 0.0
H846 H 0.32894 0.86043 0.37104 0.0
H847 H 0.31788 0.85495 0.40459 0.0
H848 H 0.37484 0.87029 0.42599 0.0
H849 H 0.38624 0.87499 0.39273 0.0
H850 H 0.36188 0.83935 0.44416 0.0
H851 H 0.33447 0.90209 0.42625 0.0
H852 H 0.31395 0.9254 0.40824 0.0
H853 H 0.26292 0.89219 0.42263 0.0
H854 H 0.28322 0.8684 0.44032 0.0
H855 H 0.35234 0.87444 0.53899 0.0
H856 H 0.35683 0.86823 0.5044 0.0
H857 H 0.297 0.84962 0.49971 0.0
H858 H 0.29211 0.85648 0.53441 0.0
H859 H 0.30619 0.87602 0.47207 0.0
H860 H 0.333 0.81659 0.49439 0.0
H861 H 0.35321 0.79501 0.51474 0.0
H862 H 0.40505 0.82266 0.49332 0.0
H863 H 0.38517 0.84461 0.47304 0.0
C864 C 0.33907 0.86266 0.38292 0.0
C865 C 0.35845 0.86818 0.37927 0.0
C866 C 0.33268 0.85962 0.40204 0.0
C867 C 0.34539 0.86249 0.41778 0.0
C868 C 0.36474 0.86795 0.41409 0.0
C869 C 0.37123 0.87068 0.39505 0.0
C870 C 0.3388 0.85977 0.43818 0.0
C871 C 0.34977 0.84746 0.45028 0.0
C872 C 0.32242 0.86964 0.44599 0.0
C873 C 0.31041 0.88331 0.43437 0.0
C874 C 0.31892 0.89956 0.42527 0.0
C875 C 0.30732 0.9129 0.41518 0.0
C876 C 0.28715 0.91027 0.41427 0.0
C877 C 0.27854 0.89422 0.42334 0.0
C878 C 0.2901 0.88075 0.43332 0.0
C879 C 0.34015 0.8688 0.5307 0.0
C880 C 0.32186 0.86599 0.53943 0.0
C881 C 0.34278 0.86517 0.51091 0.0
C882 C 0.32726 0.85838 0.49948 0.0
C883 C 0.3091 0.855 0.50825 0.0
C884 C 0.30639 0.8588 0.52808 0.0
C885 C 0.32985 0.85635 0.47815 0.0
C886 C 0.31807 0.86762 0.46586 0.0
C887 C 0.34548 0.84556 0.47014 0.0
C888 C 0.35756 0.83232 0.48224 0.0
C889 C 0.34871 0.81816 0.4941 0.0
C890 C 0.36011 0.80584 0.50562 0.0
C891 C 0.3804 0.80747 0.50534 0.0
C892 C 0.38933 0.8214 0.49352 0.0
C893 C 0.378 0.83377 0.48198 0.0
H894 H 0.3892 0.79793 0.51427 0.0
H895 H 0.27818 0.92067 0.40654 0.0
H896 H 0.18343 0.6498 0.6299 0.0
H897 H 0.18735 0.66166 0.59657 0.0
H898 H 0.12491 0.66551 0.59056 0.0
H899 H 0.12085 0.65364 0.62383 0.0
H900 H 0.17538 0.64323 0.56449 0.0
H901 H 0.11371 0.70186 0.5593 0.0
H902 H 0.09999 0.72829 0.57951 0.0
H903 H 0.15353 0.73179 0.6117 0.0
H904 H 0.16757 0.70561 0.59155 0.0
H905 H 0.14186 0.65017 0.46815 0.0
H906 H 0.14592 0.64678 0.50327 0.0
H907 H 0.16625 0.70608 0.50687 0.0
H908 H 0.16167 0.70984 0.47183 0.0
H909 H 0.14274 0.70055 0.53497 0.0
H910 H 0.19782 0.66614 0.51167 0.0
H911 H 0.21635 0.6426 0.49182 0.0
H912 H 0.18451 0.59532 0.5175 0.0
H913 H 0.16559 0.6186 0.53733 0.0
C914 C 0.17053 0.65345 0.6216 0.0
C915 C 0.15181 0.65057 0.62945 0.0
C916 C 0.17281 0.6602 0.60254 0.0
C917 C 0.15644 0.66445 0.59106 0.0
C918 C 0.13777 0.66249 0.5992 0.0
C919 C 0.13547 0.65561 0.6182 0.0
C920 C 0.15868 0.66922 0.5701 0.0
C921 C 0.16835 0.65583 0.55803 0.0
C922 C 0.15006 0.68596 0.56175 0.0
C923 C 0.14161 0.70166 0.57399 0.0
C924 C 0.12254 0.70834 0.57064 0.0
C925 C 0.11471 0.72327 0.58211 0.0
C926 C 0.12584 0.73168 0.59694 0.0
C927 C 0.14485 0.72521 0.6003 0.0
C928 C 0.15274 0.71029 0.58888 0.0
C929 C 0.14744 0.66246 0.47638 0.0
C930 C 0.15159 0.68024 0.46715 0.0
C931 C 0.1498 0.66047 0.49648 0.0
C932 C 0.15671 0.67612 0.50776 0.0
C933 C 0.16099 0.69383 0.49852 0.0
C934 C 0.15845 0.69592 0.47844 0.0
C935 C 0.15884 0.67414 0.52923 0.0
C936 C 0.14996 0.68804 0.54141 0.0
C937 C 0.16884 0.65824 0.53775 0.0
C938 C 0.18019 0.64414 0.52589 0.0
C939 C 0.19468 0.65074 0.51299 0.0
C940 C 0.20526 0.63744 0.50175 0.0
C941 C 0.20158 0.61748 0.50337 0.0
C942 C 0.18733 0.61078 0.51626 0.0
C943 C 0.17669 0.62402 0.52752 0.0
H944 H 0.2098 0.6072 0.49465 0.0
H945 H 0.11975 0.74324 0.6058 0.0
H946 H 0.34649 0.1094 0.63215 0.0
H947 H 0.33366 0.11319 0.5991 0.0
H948 H 0.37887 0.15486 0.58629 0.0
H949 H 0.39218 0.15071 0.61909 0.0
H950 H 0.33941 0.16587 0.57372 0.0
H951 H 0.38712 0.1115 0.5671 0.0
H952 H 0.40029 0.07914 0.57574 0.0
H953 H 0.34353 0.05381 0.56851 0.0
H954 H 0.3301 0.08603 0.55979 0.0
H955 H 0.35969 0.13843 0.46732 0.0
H956 H 0.36462 0.13808 0.50238 0.0
H957 H 0.30338 0.14875 0.5115 0.0
H958 H 0.29815 0.14894 0.4761 0.0
H959 H 0.34632 0.11099 0.52719 0.0
H960 H 0.30309 0.17474 0.55834 0.0
H961 H 0.28966 0.20653 0.54829 0.0
H962 H 0.33585 0.21309 0.50662 0.0
H963 H 0.34968 0.18147 0.5166 0.0
C964 C 0.35367 0.11943 0.62232 0.0
C965 C 0.37046 0.12963 0.62814 0.0
C966 C 0.34633 0.12154 0.60346 0.0
C967 C 0.35535 0.13429 0.59031 0.0
C968 C 0.3717 0.14499 0.59629 0.0
C969 C 0.37931 0.14255 0.61499 0.0
C970 C 0.34829 0.13598 0.57004 0.0
C971 C 0.34068 0.15382 0.56357 0.0
C972 C 0.34978 0.12023 0.5569 0.0
C973 C 0.35764 0.10109 0.56287 0.0
C974 C 0.37747 0.09902 0.56747 0.0
C975 C 0.38498 0.08071 0.57228 0.0
C976 C 0.37277 0.06441 0.57258 0.0
C977 C 0.35298 0.06643 0.56822 0.0
C978 C 0.34542 0.08469 0.56332 0.0
C979 C 0.34724 0.14099 0.47669 0.0
C980 C 0.32849 0.1436 0.46887 0.0
C981 C 0.35011 0.14071 0.49676 0.0
C982 C 0.33436 0.14323 0.5095 0.0
C983 C 0.31572 0.14679 0.50186 0.0
C984 C 0.31279 0.14696 0.48165 0.0
C985 C 0.33766 0.14096 0.53069 0.0
C986 C 0.34454 0.12292 0.5374 0.0
C987 C 0.33517 0.15647 0.54405 0.0
C988 C 0.32724 0.17562 0.53803 0.0
C989 C 0.31038 0.18299 0.54705 0.0
C990 C 0.30271 0.20098 0.54137 0.0
C991 C 0.31185 0.21178 0.52676 0.0
C992 C 0.32873 0.20466 0.51786 0.0
C993 C 0.33647 0.18668 0.5235 0.0
H994 H 0.30589 0.2257 0.52238 0.0
H995 H 0.37861 0.05026 0.57632 0.0
H996 H 0.90451 0.40634 0.60747 0.0
H997 H 0.89853 0.39338 0.57497 0.0
H998 H 0.85601 0.35347 0.59833 0.0
H999 H 0.86205 0.3663 0.63113 0.0
H1000 H 0.87951 0.33597 0.57111 0.0
H1001 H 0.84031 0.39292 0.57506 0.0
H1002 H 0.83276 0.42734 0.58208 0.0
H1003 H 0.87479 0.44553 0.53951 0.0
H1004 H 0.8828 0.41121 0.53243 0.0
H1005 H 0.85421 0.31355 0.47158 0.0
H1006 H 0.85228 0.3219 0.50628 0.0
H1007 H 0.88965 0.37151 0.49628 0.0
H1008 H 0.89058 0.3639 0.46171 0.0
H1009 H 0.86228 0.38225 0.51848 0.0
H1010 H 0.90371 0.32423 0.51769 0.0
H1011 H 0.91084 0.28945 0.51165 0.0
H1012 H 0.86343 0.27298 0.54886 0.0
H1013 H 0.85589 0.30762 0.55493 0.0
C1014 C 0.89392 0.39477 0.60577 0.0
C1015 C 0.88365 0.38746 0.62189 0.0
C1016 C 0.89046 0.38742 0.58714 0.0
C1017 C 0.87659 0.37268 0.58418 0.0
C1018 C 0.8667 0.36492 0.60029 0.0
C1019 C 0.87014 0.3723 0.619 0.0
C1020 C 0.87243 0.3657 0.56415 0.0
C1021 C 0.87545 0.34599 0.55961 0.0
C1022 C 0.8671 0.37878 0.54918 0.0
C1023 C 0.86225 0.39947 0.55331 0.0
C1024 C 0.84804 0.40426 0.56729 0.0
C1025 C 0.84367 0.42375 0.57126 0.0
C1026 C 0.85331 0.43861 0.56127 0.0
C1027 C 0.86733 0.434 0.54724 0.0
C1028 C 0.87178 0.41453 0.54322 0.0
C1029 C 0.86187 0.3263 0.47686 0.0
C1030 C 0.87238 0.33819 0.46394 0.0
C1031 C 0.86092 0.33097 0.49672 0.0
C1032 C 0.871 0.34725 0.50406 0.0
C1033 C 0.88161 0.35897 0.49107 0.0
C1034 C 0.88213 0.35461 0.47125 0.0
C1035 C 0.87043 0.35264 0.52509 0.0
C1036 C 0.86625 0.37211 0.52991 0.0
C1037 C 0.87461 0.33928 0.54027 0.0
C1038 C 0.87911 0.31849 0.53652 0.0
C1039 C 0.89475 0.31317 0.52443 0.0
C1040 C 0.89888 0.2935 0.52103 0.0
C1041 C 0.88757 0.27903 0.52979 0.0
C1042 C 0.87215 0.2842 0.54203 0.0
C1043 C 0.86794 0.30384 0.54545 0.0
H1044 H 0.8908 0.26382 0.52713 0.0
H1045 H 0.8499 0.4537 0.56437 0.0
H1046 H 0.6247 0.83928 0.62915 0.0
H1047 H 0.64132 0.83363 0.59794 0.0
H1048 H 0.66058 0.89354 0.59763 0.0
H1049 H 0.64314 0.89936 0.62797 0.0
H1050 H 0.64433 0.88741 0.56614 0.0
H1051 H 0.69284 0.85341 0.60095 0.0
H1052 H 0.70698 0.82976 0.62393 0.0
H1053 H 0.68383 0.78247 0.59021 0.0
H1054 H 0.66938 0.80582 0.56705 0.0
H1055 H 0.70919 0.85693 0.48065 0.0
H1056 H 0.70396 0.85469 0.51588 0.0
H1057 H 0.64181 0.85465 0.50662 0.0
H1058 H 0.64684 0.85754 0.47167 0.0
H1059 H 0.68439 0.83165 0.54343 0.0
H1060 H 0.62198 0.88811 0.53411 0.0
H1061 H 0.61334 0.9154 0.51238 0.0
H1062 H 0.6738 0.92387 0.49861 0.0
H1063 H 0.68274 0.8967 0.52021 0.0
C1064 C 0.63276 0.85108 0.62248 0.0
C1065 C 0.63237 0.86982 0.63066 0.0
C1066 C 0.64238 0.84784 0.60473 0.0
C1067 C 0.65215 0.8632 0.59528 0.0
C1068 C 0.65294 0.88151 0.60441 0.0
C1069 C 0.64295 0.88484 0.62175 0.0
C1070 C 0.65927 0.86116 0.57489 0.0
C1071 C 0.65319 0.87522 0.56136 0.0
C1072 C 0.67122 0.84555 0.56849 0.0
C1073 C 0.67982 0.8314 0.58237 0.0
C1074 C 0.6906 0.83798 0.59851 0.0
C1075 C 0.69872 0.82463 0.61155 0.0
C1076 C 0.69622 0.80466 0.60859 0.0
C1077 C 0.68571 0.79796 0.5925 0.0
C1078 C 0.67758 0.81125 0.57938 0.0
C1079 C 0.69442 0.85625 0.4861 0.0
C1080 C 0.67842 0.85802 0.47337 0.0
C1081 C 0.69147 0.85477 0.50624 0.0
C1082 C 0.67249 0.85488 0.51387 0.0
C1083 C 0.65658 0.85485 0.50104 0.0
C1084 C 0.65949 0.85655 0.48103 0.0
C1085 C 0.669 0.85765 0.53502 0.0
C1086 C 0.67566 0.84381 0.54851 0.0
C1087 C 0.65835 0.87396 0.54173 0.0
C1088 C 0.65299 0.89027 0.52863 0.0
C1089 C 0.6334 0.89582 0.52644 0.0
C1090 C 0.62845 0.91124 0.51411 0.0
C1091 C 0.64299 0.92131 0.50403 0.0
C1092 C 0.66251 0.91599 0.50627 0.0
C1093 C 0.66753 0.90055 0.51852 0.0
H1094 H 0.6391 0.93325 0.49454 0.0
H1095 H 0.70244 0.7944 0.61876 0.0
H1096 H 0.40337 0.11586 0.39586 0.0
H1097 H 0.43718 0.11859 0.38513 0.0
H1098 H 0.41782 0.14029 0.32944 0.0
H1099 H 0.38388 0.13648 0.33981 0.0
H1100 H 0.44752 0.11887 0.32337 0.0
H1101 H 0.4355 0.17116 0.36708 0.0
H1102 H 0.42459 0.18734 0.39725 0.0
H1103 H 0.46713 0.15535 0.43006 0.0
H1104 H 0.47812 0.13877 0.40012 0.0
H1105 H 0.54447 0.15377 0.30295 0.0
H1106 H 0.50931 0.15358 0.3096 0.0
H1107 H 0.51961 0.12194 0.36284 0.0
H1108 H 0.5545 0.122 0.35627 0.0
H1109 H 0.49391 0.15198 0.36782 0.0
H1110 H 0.50262 0.09763 0.32133 0.0
H1111 H 0.5132 0.08457 0.2895 0.0
H1112 H 0.4771 0.12625 0.26014 0.0
H1113 H 0.46607 0.13935 0.2917 0.0
C1114 C 0.40635 0.12111 0.38129 0.0
C1115 C 0.39104 0.12618 0.36874 0.0
C1116 C 0.42568 0.12279 0.37519 0.0
C1117 C 0.43015 0.13023 0.35666 0.0
C1118 C 0.41481 0.13465 0.34385 0.0
C1119 C 0.39542 0.13251 0.34979 0.0
C1120 C 0.45079 0.1337 0.3509 0.0
C1121 C 0.45755 0.12635 0.33301 0.0
C1122 C 0.46401 0.1436 0.36331 0.0
C1123 C 0.45752 0.15361 0.38136 0.0
C1124 C 0.44245 0.16748 0.38074 0.0
C1125 C 0.43626 0.17673 0.3978 0.0
C1126 C 0.44513 0.17234 0.41556 0.0
C1127 C 0.46025 0.15872 0.41629 0.0
C1128 C 0.46648 0.14941 0.39928 0.0
C1129 C 0.53918 0.14675 0.31603 0.0
C1130 C 0.55221 0.1377 0.32895 0.0
C1131 C 0.51912 0.14663 0.31981 0.0
C1132 C 0.51183 0.13751 0.3366 0.0
C1133 C 0.52491 0.12903 0.34978 0.0
C1134 C 0.54488 0.12913 0.34602 0.0
C1135 C 0.49062 0.13666 0.34068 0.0
C1136 C 0.48377 0.1446 0.3582 0.0
C1137 C 0.47728 0.12777 0.32774 0.0
C1138 C 0.48359 0.1195 0.30884 0.0
C1139 C 0.49693 0.10397 0.30807 0.0
C1140 C 0.50296 0.09652 0.29008 0.0
C1141 C 0.49582 0.10455 0.27281 0.0
C1142 C 0.4825 0.11993 0.27349 0.0
C1143 C 0.4763 0.12733 0.29141 0.0
H1144 H 0.50063 0.09888 0.25891 0.0
H1145 H 0.44032 0.17952 0.42875 0.0
H1146 H 0.85738 0.38645 0.35307 0.0
H1147 H 0.85233 0.41846 0.33761 0.0
H1148 H 0.90083 0.4417 0.37007 0.0
H1149 H 0.9061 0.41023 0.38517 0.0
H1150 H 0.86524 0.46242 0.37405 0.0
H1151 H 0.90561 0.43156 0.32463 0.0
H1152 H 0.91431 0.40928 0.298 0.0
H1153 H 0.86537 0.4294 0.26472 0.0
H1154 H 0.85621 0.45178 0.29128 0.0
H1155 H 0.8938 0.55445 0.3449 0.0
H1156 H 0.89226 0.51978 0.35211 0.0
H1157 H 0.8528 0.5112 0.30394 0.0
H1158 H 0.85529 0.54602 0.29592 0.0
H1159 H 0.87681 0.48182 0.30551 0.0
H1160 H 0.83631 0.5126 0.3528 0.0
H1161 H 0.82768 0.53691 0.37784 0.0
H1162 H 0.87435 0.51654 0.41411 0.0
H1163 H 0.88342 0.49227 0.38919 0.0
C1164 C 0.86706 0.39837 0.35671 0.0
C1165 C 0.88205 0.39582 0.37047 0.0
C1166 C 0.86421 0.41658 0.34781 0.0
C1167 C 0.87626 0.4324 0.35267 0.0
C1168 C 0.89143 0.42967 0.36604 0.0
C1169 C 0.89438 0.41161 0.37471 0.0
C1170 C 0.87256 0.45232 0.34529 0.0
C1171 C 0.86773 0.46666 0.35903 0.0
C1172 C 0.8751 0.45768 0.32555 0.0
C1173 C 0.88008 0.44331 0.31012 0.0
C1174 C 0.89652 0.43116 0.31179 0.0
C1175 C 0.90163 0.41856 0.29661 0.0
C1176 C 0.89045 0.41798 0.27963 0.0
C1177 C 0.87408 0.42993 0.27784 0.0
C1178 C 0.86891 0.44256 0.29297 0.0
C1179 C 0.88466 0.54524 0.33592 0.0
C1180 C 0.87435 0.55298 0.32006 0.0
C1181 C 0.88375 0.52538 0.34008 0.0
C1182 C 0.87192 0.5129 0.32897 0.0
C1183 C 0.86187 0.52054 0.31286 0.0
C1184 C 0.86319 0.54042 0.30837 0.0
C1185 C 0.87011 0.49198 0.33444 0.0
C1186 C 0.87383 0.47751 0.32041 0.0
C1187 C 0.86623 0.48633 0.35387 0.0
C1188 C 0.86058 0.50065 0.36909 0.0
C1189 C 0.84476 0.51334 0.36609 0.0
C1190 C 0.8398 0.52712 0.38026 0.0
C1191 C 0.85047 0.52829 0.39754 0.0
C1192 C 0.86609 0.51562 0.40072 0.0
C1193 C 0.87112 0.50182 0.3866 0.0
H1194 H 0.84663 0.53899 0.40847 0.0
H1195 H 0.89442 0.40819 0.26792 0.0
H1196 H 0.62794 0.86776 0.33847 0.0
H1197 H 0.59534 0.86498 0.32429 0.0
H1198 H 0.57149 0.85326 0.3812 0.0
H1199 H 0.604 0.85553 0.39537 0.0
H1200 H 0.55554 0.82991 0.3555 0.0
H1201 H 0.56899 0.899 0.35887 0.0
H1202 H 0.5874 0.92908 0.35199 0.0
H1203 H 0.57921 0.92035 0.29064 0.0
H1204 H 0.56097 0.89005 0.29715 0.0
H1205 H 0.45776 0.86144 0.35125 0.0
H1206 H 0.4925 0.85665 0.35708 0.0
H1207 H 0.50354 0.85942 0.29538 0.0
H1208 H 0.46864 0.86388 0.28932 0.0
H1209 H 0.52716 0.88479 0.3181 0.0
H1210 H 0.50974 0.81771 0.31574 0.0
H1211 H 0.4904 0.78847 0.32349 0.0
H1212 H 0.50521 0.79439 0.38393 0.0
H1213 H 0.52442 0.82384 0.37659 0.0
C1214 C 0.61575 0.86451 0.34795 0.0
C1215 C 0.61854 0.86196 0.36808 0.0
C1216 C 0.59711 0.86301 0.33982 0.0
C1217 C 0.5809 0.85917 0.3517 0.0
C1218 C 0.58376 0.85623 0.37173 0.0
C1219 C 0.60237 0.85758 0.37983 0.0
C1220 C 0.56086 0.85842 0.34351 0.0
C1221 C 0.54932 0.84198 0.34743 0.0
C1222 C 0.55288 0.87389 0.33242 0.0
C1223 C 0.56386 0.8921 0.32849 0.0
C1224 C 0.57127 0.90339 0.34391 0.0
C1225 C 0.58164 0.9205 0.34008 0.0
C1226 C 0.58455 0.92657 0.32089 0.0
C1227 C 0.577 0.91559 0.3055 0.0
C1228 C 0.56664 0.89845 0.30924 0.0
C1229 C 0.4675 0.86074 0.33886 0.0
C1230 C 0.46044 0.86323 0.31982 0.0
C1231 C 0.48737 0.85798 0.34223 0.0
C1232 C 0.50059 0.85773 0.32665 0.0
C1233 C 0.49357 0.85966 0.30758 0.0
C1234 C 0.47362 0.86217 0.30416 0.0
C1235 C 0.52179 0.85656 0.33063 0.0
C1236 C 0.53352 0.87262 0.3259 0.0
C1237 C 0.52991 0.84084 0.34111 0.0
C1238 C 0.51842 0.82308 0.34562 0.0
C1239 C 0.50875 0.81287 0.33071 0.0
C1240 C 0.49783 0.79624 0.33502 0.0
C1241 C 0.49655 0.78959 0.35419 0.0
C1242 C 0.50621 0.79955 0.36908 0.0
C1243 C 0.51714 0.81621 0.36485 0.0
H1244 H 0.48809 0.77671 0.3575 0.0
H1245 H 0.59264 0.93978 0.31796 0.0
H1246 H 0.14912 0.62418 0.33509 0.0
H1247 H 0.14836 0.59034 0.32371 0.0
H1248 H 0.14155 0.57064 0.38294 0.0
H1249 H 0.14295 0.60425 0.39441 0.0
H1250 H 0.16636 0.54834 0.36486 0.0
H1251 H 0.10473 0.57746 0.34873 0.0
H1252 H 0.08129 0.59914 0.33254 0.0
H1253 H 0.09876 0.57687 0.27679 0.0
H1254 H 0.1225 0.5551 0.2926 0.0
H1255 H 0.13142 0.4525 0.35166 0.0
H1256 H 0.13407 0.4871 0.35964 0.0
H1257 H 0.14351 0.50047 0.29904 0.0
H1258 H 0.14072 0.46581 0.29102 0.0
H1259 H 0.11827 0.5262 0.31573 0.0
H1260 H 0.18141 0.5003 0.33037 0.0
H1261 H 0.20474 0.47753 0.34544 0.0
H1262 H 0.18484 0.49439 0.40228 0.0
H1263 H 0.16119 0.51708 0.38754 0.0
C1264 C 0.14756 0.61261 0.34569 0.0
C1265 C 0.14604 0.61692 0.36566 0.0
C1266 C 0.14705 0.59327 0.33915 0.0
C1267 C 0.14459 0.5779 0.35242 0.0
C1268 C 0.14343 0.5822 0.37239 0.0
C1269 C 0.14421 0.60147 0.37894 0.0
C1270 C 0.14315 0.55729 0.34575 0.0
C1271 C 0.15569 0.54354 0.35423 0.0
C1272 C 0.12961 0.55105 0.3314 0.0
C1273 C 0.11558 0.56462 0.32192 0.0
C1274 C 0.10378 0.57724 0.33301 0.0
C1275 C 0.09036 0.58955 0.32389 0.0
C1276 C 0.08855 0.58941 0.30365 0.0
C1277 C 0.10017 0.57696 0.29248 0.0
C1278 C 0.11359 0.56461 0.30153 0.0
C1279 C 0.13418 0.46277 0.34003 0.0
C1280 C 0.13584 0.45638 0.32064 0.0
C1281 C 0.13566 0.48258 0.34461 0.0
C1282 C 0.13913 0.49642 0.32997 0.0
C1283 C 0.14078 0.49009 0.31059 0.0
C1284 C 0.13926 0.47026 0.30601 0.0
C1285 C 0.14136 0.51743 0.33499 0.0
C1286 C 0.12898 0.53117 0.32623 0.0
C1287 C 0.15512 0.5238 0.34893 0.0
C1288 C 0.16941 0.51027 0.35785 0.0
C1289 C 0.18191 0.49905 0.34608 0.0
C1290 C 0.19521 0.48618 0.35456 0.0
C1291 C 0.19624 0.48448 0.3748 0.0
C1292 C 0.18401 0.49571 0.3866 0.0
C1293 C 0.17067 0.50859 0.3782 0.0
H1294 H 0.20654 0.47451 0.38134 0.0
H1295 H 0.07813 0.59891 0.29663 0.0
H1296 H 0.52859 0.90304 0.71387 0.0
H1297 H 0.49407 0.90035 0.70533 0.0
H1298 H 0.5095 0.87162 0.65164 0.0
H1299 H 0.5441 0.87376 0.66031 0.0
H1300 H 0.48195 0.9049 0.64927 0.0
H1301 H 0.49294 0.8441 0.68262 0.0
H1302 H 0.50221 0.82215 0.70945 0.0
H1303 H 0.4608 0.85018 0.74707 0.0
H1304 H 0.45147 0.8725 0.72054 0.0
H1305 H 0.39268 0.86939 0.61541 0.0
H1306 H 0.42613 0.87111 0.62707 0.0
H1307 H 0.4058 0.8907 0.68319 0.0
H1308 H 0.37202 0.88898 0.67163 0.0
H1309 H 0.43544 0.86333 0.6858 0.0
H1310 H 0.42344 0.92331 0.65329 0.0
H1311 H 0.41243 0.94466 0.62666 0.0
H1312 H 0.45505 0.91939 0.58843 0.0
H1313 H 0.46612 0.89765 0.61477 0.0
C1314 C 0.52465 0.89621 0.70021 0.0
C1315 C 0.53903 0.88865 0.68771 0.0
C1316 C 0.50495 0.89458 0.69544 0.0
C1317 C 0.49934 0.88569 0.67795 0.0
C1318 C 0.51363 0.87846 0.66525 0.0
C1319 C 0.53334 0.87969 0.67021 0.0
C1320 C 0.47854 0.88438 0.67269 0.0
C1321 C 0.4718 0.89565 0.65709 0.0
C1322 C 0.46529 0.87282 0.6834 0.0
C1323 C 0.47167 0.86013 0.69965 0.0
C1324 C 0.48605 0.84582 0.69671 0.0
C1325 C 0.49125 0.83325 0.71184 0.0
C1326 C 0.48209 0.83478 0.72994 0.0
C1327 C 0.46787 0.84902 0.73303 0.0
C1328 C 0.46263 0.86163 0.71796 0.0
C1329 C 0.39523 0.87395 0.63029 0.0
C1330 C 0.37969 0.87922 0.64255 0.0
C1331 C 0.41439 0.87498 0.63689 0.0
C1332 C 0.41842 0.88135 0.65586 0.0
C1333 C 0.40294 0.88586 0.66845 0.0
C1334 C 0.38369 0.88489 0.66182 0.0
C1335 C 0.43887 0.88365 0.66222 0.0
C1336 C 0.44556 0.87266 0.67805 0.0
C1337 C 0.45206 0.89564 0.65186 0.0
C1338 C 0.44549 0.90871 0.63596 0.0
C1339 C 0.43036 0.92218 0.63916 0.0
C1340 C 0.42412 0.93438 0.62412 0.0
C1341 C 0.433 0.93335 0.60585 0.0
C1342 C 0.44817 0.92015 0.60259 0.0
C1343 C 0.45444 0.90789 0.61757 0.0
H1344 H 0.42816 0.94281 0.59422 0.0
H1345 H 0.48582 0.82483 0.74153 0.0
H1346 H 0.13741 0.38565 0.6745 0.0
H1347 H 0.14011 0.41967 0.68511 0.0
H1348 H 0.14874 0.43751 0.62553 0.0
H1349 H 0.14652 0.40372 0.61493 0.0
H1350 H 0.17308 0.45616 0.64832 0.0
H1351 H 0.10519 0.43943 0.65029 0.0
H1352 H 0.07567 0.422 0.66088 0.0
H1353 H 0.08399 0.44273 0.71925 0.0
H1354 H 0.11402 0.45964 0.70922 0.0
H1355 H 0.14904 0.5569 0.65207 0.0
H1356 H 0.15004 0.52191 0.64539 0.0
H1357 H 0.14511 0.50996 0.7068 0.0
H1358 H 0.14404 0.54483 0.71349 0.0
H1359 H 0.11994 0.48808 0.68545 0.0
H1360 H 0.18792 0.50344 0.68428 0.0
H1361 H 0.21726 0.52151 0.67416 0.0
H1362 H 0.20771 0.50435 0.6148 0.0
H1363 H 0.17814 0.48639 0.62453 0.0
C1364 C 0.13999 0.39682 0.66369 0.0
C1365 C 0.14168 0.39196 0.64385 0.0
C1366 C 0.14145 0.41627 0.66976 0.0
C1367 C 0.14439 0.4312 0.65609 0.0
C1368 C 0.14647 0.42628 0.63636 0.0
C1369 C 0.14515 0.4069 0.63031 0.0
C1370 C 0.14515 0.45203 0.66205 0.0
C1371 C 0.16135 0.46313 0.65631 0.0
C1372 C 0.13007 0.46108 0.67294 0.0
C1373 C 0.11212 0.45056 0.67903 0.0
C1374 C 0.10096 0.44001 0.66546 0.0
C1375 C 0.08411 0.43021 0.67137 0.0
C1376 C 0.07799 0.43121 0.69073 0.0
C1377 C 0.08877 0.44191 0.70426 0.0
C1378 C 0.10577 0.45153 0.69848 0.0
C1379 C 0.14835 0.54685 0.66418 0.0
C1380 C 0.14637 0.55371 0.68338 0.0
C1381 C 0.14894 0.52684 0.66033 0.0
C1382 C 0.14773 0.51332 0.67561 0.0
C1383 C 0.14606 0.52012 0.69479 0.0
C1384 C 0.14554 0.54011 0.69862 0.0
C1385 C 0.14772 0.49207 0.67155 0.0
C1386 C 0.13168 0.48096 0.67761 0.0
C1387 C 0.1629 0.48297 0.66101 0.0
C1388 C 0.18071 0.49371 0.65512 0.0
C1389 C 0.19199 0.50364 0.66905 0.0
C1390 C 0.20868 0.51385 0.66339 0.0
C1391 C 0.21432 0.51412 0.64385 0.0
C1392 C 0.20331 0.50415 0.62993 0.0
C1393 C 0.18659 0.49393 0.63551 0.0
H1394 H 0.22725 0.52202 0.63949 0.0
H1395 H 0.06485 0.42375 0.69524 0.0
H1396 H 0.62601 0.14904 0.64308 0.0
H1397 H 0.59363 0.14835 0.65767 0.0
H1398 H 0.60775 0.09453 0.68683 0.0
H1399 H 0.64017 0.09495 0.67198 0.0
H1400 H 0.57437 0.09091 0.6695 0.0
H1401 H 0.6011 0.13652 0.71267 0.0
H1402 H 0.6197 0.16531 0.72345 0.0
H1403 H 0.57915 0.20286 0.69424 0.0
H1404 H 0.56049 0.1743 0.68295 0.0
H1405 H 0.47978 0.12833 0.72252 0.0
H1406 H 0.5153 0.1274 0.71984 0.0
H1407 H 0.51033 0.11153 0.65926 0.0
H1408 H 0.47483 0.11209 0.66192 0.0
H1409 H 0.54078 0.14737 0.69976 0.0
H1410 H 0.54612 0.08174 0.64587 0.0
H1411 H 0.52912 0.05074 0.63936 0.0
H1412 H 0.50796 0.0497 0.69813 0.0
H1413 H 0.52504 0.0805 0.70512 0.0
C1414 C 0.62237 0.13718 0.65282 0.0
C1415 C 0.63566 0.12198 0.65624 0.0
C1416 C 0.60384 0.13687 0.66125 0.0
C1417 C 0.59823 0.12144 0.67344 0.0
C1418 C 0.61172 0.10658 0.67746 0.0
C1419 C 0.63028 0.10687 0.66899 0.0
C1420 C 0.57779 0.1201 0.68055 0.0
C1421 C 0.56707 0.10323 0.67622 0.0
C1422 C 0.56838 0.13588 0.68997 0.0
C1423 C 0.57944 0.15321 0.69683 0.0
C1424 C 0.59621 0.15091 0.70841 0.0
C1425 C 0.60677 0.16719 0.71463 0.0
C1426 C 0.60063 0.1859 0.70951 0.0
C1427 C 0.5839 0.18836 0.69819 0.0
C1428 C 0.5733 0.17212 0.69188 0.0
C1429 C 0.48624 0.12466 0.7086 0.0
C1430 C 0.47443 0.12031 0.69241 0.0
C1431 C 0.50657 0.12416 0.7071 0.0
C1432 C 0.51556 0.11919 0.68941 0.0
C1433 C 0.50378 0.11506 0.67317 0.0
C1434 C 0.48345 0.1155 0.67467 0.0
C1435 C 0.5372 0.11855 0.68776 0.0
C1436 C 0.54813 0.13501 0.69319 0.0
C1437 C 0.547 0.10212 0.67999 0.0
C1438 C 0.53672 0.08354 0.67594 0.0
C1439 C 0.53789 0.07485 0.65743 0.0
C1440 C 0.52823 0.05732 0.65366 0.0
C1441 C 0.51742 0.04828 0.66833 0.0
C1442 C 0.51628 0.05674 0.68679 0.0
C1443 C 0.52591 0.07426 0.69065 0.0
H1444 H 0.50994 0.03471 0.66539 0.0
H1445 H 0.60882 0.19848 0.71434 0.0
H1446 H 0.84781 0.61053 0.62394 0.0
H1447 H 0.84315 0.5793 0.64 0.0
H1448 H 0.86892 0.60229 0.69251 0.0
H1449 H 0.87396 0.63369 0.67633 0.0
H1450 H 0.88502 0.56866 0.68372 0.0
H1451 H 0.82038 0.59008 0.69132 0.0
H1452 H 0.78887 0.6048 0.68246 0.0
H1453 H 0.77916 0.55943 0.64047 0.0
H1454 H 0.81076 0.54455 0.64889 0.0
H1455 H 0.8656 0.47439 0.72502 0.0
H1456 H 0.859 0.50922 0.7207 0.0
H1457 H 0.85504 0.50082 0.65865 0.0
H1458 H 0.86188 0.46605 0.66274 0.0
H1459 H 0.8249 0.52862 0.6796 0.0
H1460 H 0.89721 0.51958 0.66568 0.0
H1461 H 0.92788 0.50391 0.67586 0.0
H1462 H 0.91985 0.52547 0.73404 0.0
H1463 H 0.88926 0.54163 0.72399 0.0
C1464 C 0.85228 0.60908 0.63899 0.0
C1465 C 0.86143 0.62457 0.64879 0.0
C1466 C 0.84946 0.59121 0.64823 0.0
C1467 C 0.85552 0.58844 0.66755 0.0
C1468 C 0.86411 0.60407 0.6776 0.0
C1469 C 0.86698 0.62201 0.66833 0.0
C1470 C 0.85442 0.56871 0.6764 0.0
C1471 C 0.87169 0.56018 0.68329 0.0
C1472 C 0.83711 0.55743 0.67583 0.0
C1473 C 0.81803 0.56624 0.67068 0.0
C1474 C 0.81161 0.5833 0.6801 0.0
C1475 C 0.79371 0.59167 0.67517 0.0
C1476 C 0.78203 0.58307 0.66089 0.0
C1477 C 0.78822 0.56606 0.65153 0.0
C1478 C 0.80612 0.55763 0.65641 0.0
C1479 C 0.86295 0.47987 0.71048 0.0
C1480 C 0.86434 0.46748 0.69419 0.0
C1481 C 0.85916 0.49976 0.70806 0.0
C1482 C 0.85644 0.5075 0.68937 0.0
C1483 C 0.8569 0.49503 0.67319 0.0
C1484 C 0.86093 0.47521 0.67556 0.0
C1485 C 0.85548 0.52883 0.68638 0.0
C1486 C 0.83795 0.53749 0.68051 0.0
C1487 C 0.87234 0.54042 0.68828 0.0
C1488 C 0.8911 0.53175 0.69412 0.0
C1489 C 0.9021 0.52105 0.6806 0.0
C1490 C 0.91941 0.51204 0.68636 0.0
C1491 C 0.9257 0.5135 0.70566 0.0
C1492 C 0.91489 0.52428 0.71914 0.0
C1493 C 0.89765 0.53347 0.71339 0.0
H1494 H 0.93899 0.50637 0.71015 0.0
H1495 H 0.76818 0.58957 0.65708 0.0
H1496 H 0.36059 0.39364 0.09789 0.0
H1497 H 0.34753 0.42637 0.10278 0.0
H1498 H 0.36016 0.42258 0.16412 0.0
H1499 H 0.37299 0.38965 0.15947 0.0
H1500 H 0.32608 0.44139 0.15786 0.0
H1501 H 0.3913 0.44277 0.13258 0.0
H1502 H 0.41763 0.43575 0.1092 0.0
H1503 H 0.38702 0.46739 0.06483 0.0
H1504 H 0.36044 0.47448 0.08791 0.0
H1505 H 0.35606 0.55141 0.14906 0.0
H1506 H 0.36207 0.51645 0.15094 0.0
H1507 H 0.30185 0.50511 0.13697 0.0
H1508 H 0.29557 0.54027 0.13555 0.0
H1509 H 0.35902 0.49353 0.12034 0.0
H1510 H 0.29154 0.45629 0.15604 0.0
H1511 H 0.26699 0.46273 0.18144 0.0
H1512 H 0.30513 0.50444 0.20824 0.0
H1513 H 0.33021 0.49775 0.18346 0.0
C1514 C 0.3604 0.39966 0.11248 0.0
C1515 C 0.3681 0.38915 0.12826 0.0
C1516 C 0.35291 0.41838 0.11522 0.0
C1517 C 0.35317 0.42703 0.13374 0.0
C1518 C 0.35988 0.4162 0.1497 0.0
C1519 C 0.3673 0.39741 0.14699 0.0
C1520 C 0.34784 0.44783 0.13623 0.0
C1521 C 0.33317 0.45284 0.1496 0.0
C1522 C 0.35737 0.46274 0.12565 0.0
C1523 C 0.37358 0.45869 0.11185 0.0
C1524 C 0.39004 0.44802 0.11778 0.0
C1525 C 0.40507 0.4441 0.1046 0.0
C1526 C 0.40394 0.45099 0.0855 0.0
C1527 C 0.38784 0.46196 0.0796 0.0
C1528 C 0.37279 0.46592 0.09273 0.0
C1529 C 0.34398 0.5415 0.14681 0.0
C1530 C 0.32539 0.54856 0.14205 0.0
C1531 C 0.34744 0.52152 0.14786 0.0
C1532 C 0.33243 0.50818 0.14403 0.0
C1533 C 0.31358 0.51515 0.14022 0.0
C1534 C 0.31004 0.53524 0.13938 0.0
C1535 C 0.33721 0.4872 0.14196 0.0
C1536 C 0.35176 0.48213 0.12853 0.0
C1537 C 0.32773 0.47237 0.15269 0.0
C1538 C 0.31267 0.47673 0.16763 0.0
C1539 C 0.29475 0.46677 0.1674 0.0
C1540 C 0.28078 0.47038 0.18177 0.0
C1541 C 0.28447 0.48404 0.1964 0.0
C1542 C 0.30223 0.49395 0.19682 0.0
C1543 C 0.31635 0.49024 0.18261 0.0
H1544 H 0.27356 0.48692 0.20742 0.0
H1545 H 0.41558 0.44792 0.07532 0.0
H1546 H 0.39618 0.60976 0.86529 0.0
H1547 H 0.38427 0.57653 0.86148 0.0
H1548 H 0.32508 0.59684 0.86764 0.0
H1549 H 0.33696 0.63024 0.87187 0.0
H1550 H 0.33079 0.56493 0.88874 0.0
H1551 H 0.34309 0.58305 0.823 0.0
H1552 H 0.36193 0.59633 0.79549 0.0
H1553 H 0.40531 0.55192 0.8032 0.0
H1554 H 0.38687 0.53852 0.83095 0.0
H1555 H 0.29439 0.471 0.86407 0.0
H1556 H 0.3009 0.50593 0.86093 0.0
H1557 H 0.36269 0.49446 0.86038 0.0
H1558 H 0.35635 0.45956 0.86347 0.0
H1559 H 0.35211 0.5229 0.83388 0.0
H1560 H 0.3406 0.50667 0.90103 0.0
H1561 H 0.32227 0.4942 0.92902 0.0
H1562 H 0.27665 0.53561 0.91835 0.0
H1563 H 0.29479 0.54839 0.89009 0.0
C1564 C 0.38061 0.60722 0.86578 0.0
C1565 C 0.36751 0.62268 0.86884 0.0
C1566 C 0.37381 0.58819 0.86348 0.0
C1567 C 0.35375 0.58421 0.86394 0.0
C1568 C 0.34062 0.59958 0.86714 0.0
C1569 C 0.34743 0.61866 0.86953 0.0
C1570 C 0.34667 0.56387 0.86171 0.0
C1571 C 0.33508 0.55588 0.87651 0.0
C1572 C 0.35256 0.55194 0.84592 0.0
C1573 C 0.36365 0.55987 0.82915 0.0
C1574 C 0.35672 0.57619 0.81892 0.0
C1575 C 0.36732 0.58373 0.80327 0.0
C1576 C 0.38482 0.575 0.79762 0.0
C1577 C 0.39175 0.55867 0.80759 0.0
C1578 C 0.38121 0.55108 0.82327 0.0
C1579 C 0.30937 0.47588 0.86301 0.0
C1580 C 0.32488 0.46253 0.86415 0.0
C1581 C 0.31305 0.49585 0.86126 0.0
C1582 C 0.33228 0.50278 0.86062 0.0
C1583 C 0.34774 0.48941 0.86084 0.0
C1584 C 0.34409 0.46947 0.86269 0.0
C1585 C 0.33645 0.52399 0.861 0.0
C1586 C 0.34753 0.5321 0.84589 0.0
C1587 C 0.32999 0.53608 0.87643 0.0
C1588 C 0.31891 0.52825 0.89322 0.0
C1589 C 0.32649 0.51289 0.9044 0.0
C1590 C 0.31611 0.50575 0.92034 0.0
C1591 C 0.29813 0.51388 0.92535 0.0
C1592 C 0.29053 0.52925 0.91441 0.0
C1593 C 0.30088 0.53648 0.89844 0.0
H1594 H 0.29019 0.50843 0.93781 0.0
H1595 H 0.39301 0.58086 0.7855 0.0
H1596 H 0.38977 0.38343 0.8484 0.0
H1597 H 0.42243 0.37112 0.84288 0.0
H1598 H 0.40385 0.31349 0.85978 0.0
H1599 H 0.37094 0.32597 0.86594 0.0
H1600 H 0.43439 0.32292 0.87938 0.0
H1601 H 0.42327 0.32173 0.8107 0.0
H1602 H 0.41261 0.33287 0.77827 0.0
H1603 H 0.44736 0.38453 0.78421 0.0
H1604 H 0.45883 0.37333 0.81636 0.0
H1605 H 0.5333 0.2934 0.86454 0.0
H1606 H 0.49821 0.29605 0.85901 0.0
H1607 H 0.50351 0.3585 0.85454 0.0
H1608 H 0.53868 0.35602 0.86028 0.0
H1609 H 0.47904 0.34085 0.8255 0.0
H1610 H 0.48907 0.34074 0.89537 0.0
H1611 H 0.5005 0.32753 0.92657 0.0
H1612 H 0.46633 0.27588 0.91769 0.0
H1613 H 0.45481 0.28876 0.88621 0.0
C1614 C 0.39247 0.36805 0.85067 0.0
C1615 C 0.37781 0.35575 0.85794 0.0
C1616 C 0.41119 0.36095 0.84724 0.0
C1617 C 0.41566 0.34131 0.85071 0.0
C1618 C 0.40077 0.32872 0.857 0.0
C1619 C 0.38199 0.33587 0.86057 0.0
C1620 C 0.43634 0.33487 0.85042 0.0
C1621 C 0.44401 0.32632 0.86732 0.0
C1622 C 0.44909 0.33962 0.83493 0.0
C1623 C 0.44176 0.34678 0.81597 0.0
C1624 C 0.42853 0.33553 0.80513 0.0
C1625 C 0.42241 0.34181 0.78678 0.0
C1626 C 0.42908 0.35951 0.7793 0.0
C1627 C 0.44213 0.37085 0.79005 0.0
C1628 C 0.4486 0.36446 0.80825 0.0
C1629 C 0.52705 0.3077 0.86221 0.0
C1630 C 0.53873 0.32454 0.86291 0.0
C1631 C 0.50699 0.30917 0.8591 0.0
C1632 C 0.49831 0.32746 0.85646 0.0
C1633 C 0.51 0.34424 0.85651 0.0
C1634 C 0.53004 0.34281 0.85986 0.0
C1635 C 0.47691 0.32926 0.8545 0.0
C1636 C 0.46923 0.33701 0.83728 0.0
C1637 C 0.46412 0.32349 0.86957 0.0
C1638 C 0.47134 0.31557 0.88829 0.0
C1639 C 0.48425 0.32642 0.8999 0.0
C1640 C 0.49078 0.31896 0.91764 0.0
C1641 C 0.48433 0.30076 0.92405 0.0
C1642 C 0.47138 0.28995 0.91268 0.0
C1643 C 0.46485 0.29731 0.89487 0.0
H1644 H 0.48918 0.29511 0.93792 0.0
H1645 H 0.42424 0.36438 0.76513 0.0
H1646 H 0.63019 0.39018 0.85211 0.0
H1647 H 0.64791 0.42095 0.84976 0.0
H1648 H 0.69007 0.40016 0.89139 0.0
H1649 H 0.67247 0.3692 0.89374 0.0
H1650 H 0.67567 0.43574 0.90125 0.0
H1651 H 0.705 0.40679 0.84695 0.0
H1652 H 0.70729 0.38804 0.81646 0.0
H1653 H 0.67406 0.43184 0.78671 0.0
H1654 H 0.67109 0.45065 0.81717 0.0
H1655 H 0.72277 0.53053 0.8631 0.0
H1656 H 0.72082 0.49483 0.86134 0.0
H1657 H 0.66011 0.4974 0.87735 0.0
H1658 H 0.6618 0.53289 0.87891 0.0
H1659 H 0.6945 0.4685 0.83965 0.0
H1660 H 0.65621 0.46456 0.91555 0.0
H1661 H 0.65694 0.48245 0.94667 0.0
H1662 H 0.71481 0.50264 0.93418 0.0
H1663 H 0.71464 0.48447 0.90322 0.0
C1664 C 0.64336 0.39205 0.8606 0.0
C1665 C 0.64987 0.37733 0.8732 0.0
C1666 C 0.65354 0.40959 0.85915 0.0
C1667 C 0.67036 0.41278 0.87033 0.0
C1668 C 0.67716 0.39795 0.8826 0.0
C1669 C 0.66709 0.38028 0.8839 0.0
C1670 C 0.67966 0.43226 0.87033 0.0
C1671 C 0.68001 0.44282 0.88782 0.0
C1672 C 0.68594 0.44127 0.85289 0.0
C1673 C 0.68771 0.4301 0.83443 0.0
C1674 C 0.69802 0.41237 0.83396 0.0
C1675 C 0.69946 0.40173 0.81667 0.0
C1676 C 0.69085 0.40875 0.79965 0.0
C1677 C 0.68074 0.42642 0.79991 0.0
C1678 C 0.67917 0.43709 0.8172 0.0
C1679 C 0.70894 0.52347 0.86598 0.0
C1680 C 0.69243 0.53448 0.87121 0.0
C1681 C 0.70787 0.50313 0.86491 0.0
C1682 C 0.69037 0.49358 0.86937 0.0
C1683 C 0.67377 0.50457 0.87397 0.0
C1684 C 0.67475 0.52484 0.8748 0.0
C1685 C 0.68935 0.4721 0.87035 0.0
C1686 C 0.69053 0.46123 0.85309 0.0
C1687 C 0.68501 0.46262 0.88808 0.0
C1688 C 0.68533 0.47326 0.90694 0.0
C1689 C 0.66915 0.4727 0.91949 0.0
C1690 C 0.66947 0.4829 0.93713 0.0
C1691 C 0.68591 0.4937 0.94239 0.0
C1692 C 0.70207 0.4943 0.93006 0.0
C1693 C 0.70186 0.48405 0.91247 0.0
H1694 H 0.6862 0.50157 0.95604 0.0
H1695 H 0.69201 0.40049 0.78626 0.0
H1696 H 0.63509 0.64381 0.85849 0.0
H1697 H 0.60431 0.661 0.85305 0.0
H1698 H 0.57312 0.60659 0.85729 0.0
H1699 H 0.60374 0.5893 0.8623 0.0
H1700 H 0.55843 0.62852 0.82879 0.0
H1701 H 0.57741 0.63828 0.89636 0.0
H1702 H 0.59959 0.64927 0.9224 0.0
H1703 H 0.59784 0.70756 0.89982 0.0
H1704 H 0.57582 0.69683 0.87349 0.0
H1705 H 0.46478 0.64749 0.86427 0.0
H1706 H 0.49838 0.63806 0.85796 0.0
H1707 H 0.51466 0.69854 0.85276 0.0
H1708 H 0.48088 0.7082 0.8593 0.0
H1709 H 0.53889 0.67897 0.87679 0.0
H1710 H 0.51469 0.66975 0.81269 0.0
H1711 H 0.49196 0.65838 0.78733 0.0
H1712 H 0.50303 0.59898 0.80345 0.0
H1713 H 0.52563 0.60999 0.82911 0.0
C1714 C 0.62168 0.6355 0.85811 0.0
C1715 C 0.62182 0.61521 0.861 0.0
C1716 C 0.60411 0.64535 0.85503 0.0
C1717 C 0.58639 0.63511 0.85501 0.0
C1718 C 0.58661 0.61479 0.85724 0.0
C1719 C 0.60414 0.60493 0.86019 0.0
C1720 C 0.56745 0.64543 0.85363 0.0
C1721 C 0.55412 0.63952 0.8393 0.0
C1722 C 0.56207 0.66025 0.86694 0.0
C1723 C 0.57517 0.66671 0.88284 0.0
C1724 C 0.58187 0.65341 0.89688 0.0
C1725 C 0.59439 0.65959 0.9117 0.0
C1726 C 0.60017 0.67909 0.91273 0.0
C1727 C 0.59338 0.69245 0.89898 0.0
C1728 C 0.58088 0.68633 0.88411 0.0
C1729 C 0.47541 0.65883 0.86156 0.0
C1730 C 0.47014 0.67861 0.8623 0.0
C1731 C 0.49463 0.6534 0.85783 0.0
C1732 C 0.509 0.66759 0.85467 0.0
C1733 C 0.50376 0.68736 0.85507 0.0
C1734 C 0.48446 0.69284 0.85875 0.0
C1735 C 0.52962 0.66158 0.85235 0.0
C1736 C 0.5433 0.6683 0.86598 0.0
C1737 C 0.53529 0.64746 0.83842 0.0
C1738 C 0.5218 0.64072 0.82291 0.0
C1739 C 0.51219 0.65427 0.81092 0.0
C1740 C 0.49934 0.64788 0.79648 0.0
C1741 C 0.49604 0.62797 0.7938 0.0
C1742 C 0.50561 0.6144 0.80554 0.0
C1743 C 0.51847 0.62071 0.82002 0.0
H1744 H 0.48608 0.62306 0.78261 0.0
H1745 H 0.60986 0.68385 0.92421 0.0
H1746 H 0.60763 0.60417 0.11017 0.0
H1747 H 0.62175 0.57206 0.11575 0.0
H1748 H 0.66603 0.59758 0.15225 0.0
H1749 H 0.65186 0.63002 0.14683 0.0
H1750 H 0.67951 0.56742 0.12459 0.0
H1751 H 0.63201 0.57748 0.17504 0.0
H1752 H 0.59982 0.58681 0.188 0.0
H1753 H 0.57273 0.54191 0.15388 0.0
H1754 H 0.60474 0.53249 0.14048 0.0
H1755 H 0.70522 0.47127 0.15726 0.0
H1756 H 0.69732 0.50616 0.15702 0.0
H1757 H 0.64205 0.49333 0.12992 0.0
H1758 H 0.64964 0.45873 0.13051 0.0
H1759 H 0.63695 0.519 0.15724 0.0
H1760 H 0.68248 0.51146 0.10364 0.0
H1761 H 0.71393 0.50229 0.08875 0.0
H1762 H 0.74392 0.5416 0.12702 0.0
H1763 H 0.71267 0.55101 0.14217 0.0
C1764 C 0.62045 0.60305 0.11929 0.0
C1765 C 0.62852 0.61964 0.1282 0.0
C1766 C 0.62849 0.58467 0.12246 0.0
C1767 C 0.64481 0.58247 0.13453 0.0
C1768 C 0.65341 0.59903 0.1429 0.0
C1769 C 0.64525 0.6175 0.13986 0.0
C1770 C 0.65208 0.56266 0.13902 0.0
C1771 C 0.67041 0.55689 0.13205 0.0
C1772 C 0.64002 0.5489 0.14846 0.0
C1773 C 0.62077 0.55438 0.15666 0.0
C1774 C 0.61918 0.56969 0.1702 0.0
C1775 C 0.60096 0.57498 0.17764 0.0
C1776 C 0.58423 0.56498 0.17174 0.0
C1777 C 0.5857 0.54964 0.15843 0.0
C1778 C 0.60388 0.54431 0.15092 0.0
C1779 C 0.69139 0.47596 0.15131 0.0
C1780 C 0.6781 0.46228 0.14383 0.0
C1781 C 0.68692 0.49588 0.1511 0.0
C1782 C 0.66917 0.50241 0.14323 0.0
C1783 C 0.6558 0.48867 0.13612 0.0
C1784 C 0.66016 0.46885 0.1365 0.0
C1785 C 0.66422 0.52347 0.14233 0.0
C1786 C 0.64626 0.52953 0.15001 0.0
C1787 C 0.67654 0.53737 0.13335 0.0
C1788 C 0.69528 0.5318 0.12416 0.0
C1789 C 0.69579 0.51807 0.10894 0.0
C1790 C 0.71356 0.51286 0.10043 0.0
C1791 C 0.73089 0.52131 0.10697 0.0
C1792 C 0.73048 0.53507 0.12197 0.0
C1793 C 0.71275 0.54039 0.1305 0.0
H1794 H 0.74463 0.51718 0.10042 0.0
H1795 H 0.57014 0.5691 0.17751 0.0
H1796 H 0.37652 0.68274 0.12328 0.0
H1797 H 0.40937 0.69616 0.12752 0.0
H1798 H 0.42951 0.64025 0.14797 0.0
H1799 H 0.39687 0.62697 0.14427 0.0
H1800 H 0.44416 0.66786 0.16972 0.0
H1801 H 0.4371 0.65691 0.10022 0.0
H1802 H 0.42135 0.66149 0.06827 0.0
H1803 H 0.43203 0.72304 0.07152 0.0
H1804 H 0.4477 0.71885 0.1036 0.0
H1805 H 0.54367 0.65956 0.14781 0.0
H1806 H 0.50814 0.65742 0.14825 0.0
H1807 H 0.50401 0.71943 0.13903 0.0
H1808 H 0.53969 0.72177 0.13888 0.0
H1809 H 0.48007 0.69595 0.11369 0.0
H1810 H 0.49242 0.70483 0.18145 0.0
H1811 H 0.5088 0.69881 0.2128 0.0
H1812 H 0.48888 0.63951 0.21212 0.0
H1813 H 0.47261 0.6451 0.18061 0.0
C1814 C 0.38795 0.67336 0.12877 0.0
C1815 C 0.38409 0.65376 0.13336 0.0
C1816 C 0.40673 0.68103 0.13111 0.0
C1817 C 0.42199 0.66916 0.13787 0.0
C1818 C 0.41801 0.64972 0.14278 0.0
C1819 C 0.3993 0.64212 0.14059 0.0
C1820 C 0.44225 0.67659 0.13966 0.0
C1821 C 0.45199 0.67396 0.15744 0.0
C1822 C 0.45237 0.68512 0.12383 0.0
C1823 C 0.44327 0.68761 0.10443 0.0
C1824 C 0.43597 0.67144 0.09417 0.0
C1825 C 0.42709 0.67396 0.07604 0.0
C1826 C 0.42557 0.69256 0.06796 0.0
C1827 C 0.43313 0.70866 0.07787 0.0
C1828 C 0.44203 0.70622 0.09601 0.0
C1829 C 0.53522 0.67277 0.14606 0.0
C1830 C 0.54446 0.69082 0.14337 0.0
C1831 C 0.51493 0.67154 0.14634 0.0
C1832 C 0.50349 0.68829 0.14379 0.0
C1833 C 0.51262 0.70637 0.1411 0.0
C1834 C 0.53298 0.70767 0.14112 0.0
C1835 C 0.482 0.68652 0.1435 0.0
C1836 C 0.47207 0.69024 0.12606 0.0
C1837 C 0.47173 0.67879 0.15956 0.0
C1838 C 0.48138 0.67537 0.1786 0.0
C1839 C 0.49164 0.69047 0.18791 0.0
C1840 C 0.50089 0.68714 0.20573 0.0
C1841 C 0.49991 0.66878 0.21443 0.0
C1842 C 0.48963 0.65373 0.20536 0.0
C1843 C 0.48037 0.65698 0.18753 0.0
H1844 H 0.50708 0.66623 0.22822 0.0
H1845 H 0.41851 0.69448 0.05403 0.0
H1846 H 0.62752 0.36131 0.16016 0.0
H1847 H 0.59431 0.34901 0.16469 0.0
H1848 H 0.59085 0.33548 0.1035 0.0
H1849 H 0.62416 0.34718 0.09891 0.0
H1850 H 0.56162 0.36161 0.11824 0.0
H1851 H 0.59056 0.2995 0.13228 0.0
H1852 H 0.61258 0.27692 0.14941 0.0
H1853 H 0.58442 0.29022 0.20364 0.0
H1854 H 0.56243 0.31315 0.18689 0.0
H1855 H 0.47194 0.29519 0.13783 0.0
H1856 H 0.5073 0.29922 0.13593 0.0
H1857 H 0.50137 0.35931 0.15361 0.0
H1858 H 0.46595 0.3556 0.1545 0.0
H1859 H 0.53587 0.3082 0.15942 0.0
H1860 H 0.53648 0.3872 0.13276 0.0
H1861 H 0.5152 0.41103 0.11641 0.0
H1862 H 0.48515 0.3647 0.08733 0.0
H1863 H 0.5065 0.34044 0.10309 0.0
C1864 C 0.61985 0.35534 0.14774 0.0
C1865 C 0.62837 0.35556 0.1291 0.0
C1866 C 0.6009 0.34826 0.15038 0.0
C1867 C 0.59013 0.34143 0.13441 0.0
C1868 C 0.59893 0.34072 0.11599 0.0
C1869 C 0.61796 0.34749 0.1134 0.0
C1870 C 0.56904 0.33727 0.13645 0.0
C1871 C 0.55597 0.34983 0.12712 0.0
C1872 C 0.56177 0.32204 0.14823 0.0
C1873 C 0.57498 0.30824 0.15834 0.0
C1874 C 0.58919 0.29778 0.14789 0.0
C1875 C 0.60164 0.28487 0.15753 0.0
C1876 C 0.59995 0.28219 0.17761 0.0
C1877 C 0.58575 0.29235 0.18809 0.0
C1878 C 0.57328 0.3053 0.17852 0.0
C1879 C 0.47819 0.30923 0.14142 0.0
C1880 C 0.46618 0.32518 0.14604 0.0
C1881 C 0.49843 0.31152 0.14035 0.0
C1882 C 0.50703 0.32971 0.14413 0.0
C1883 C 0.49509 0.34529 0.15001 0.0
C1884 C 0.47485 0.34314 0.15064 0.0
C1885 C 0.52834 0.33256 0.14113 0.0
C1886 C 0.54149 0.31984 0.15036 0.0
C1887 C 0.53577 0.34777 0.12931 0.0
C1888 C 0.52298 0.362 0.11928 0.0
C1889 C 0.52539 0.38206 0.12278 0.0
C1890 C 0.51332 0.39563 0.1136 0.0
C1891 C 0.49879 0.38932 0.10085 0.0
C1892 C 0.49637 0.36945 0.09721 0.0
C1893 C 0.50846 0.35578 0.10625 0.0
H1894 H 0.48942 0.39982 0.09376 0.0
H1895 H 0.60962 0.27221 0.18505 0.0
H1896 H 0.17714 0.45574 0.24434 0.0
H1897 H 0.19509 0.47851 0.22393 0.0
H1898 H 0.14128 0.5068 0.20807 0.0
H1899 H 0.12321 0.48428 0.22912 0.0
H1900 H 0.19802 0.4863 0.18838 0.0
H1901 H 0.14945 0.55552 0.19714 0.0
H1902 H 0.12814 0.57112 0.22153 0.0
H1903 H 0.15695 0.53969 0.26722 0.0
H1904 H 0.17871 0.52421 0.24315 0.0
H1905 H 0.23588 0.5559 0.12207 0.0
H1906 H 0.21234 0.5353 0.13941 0.0
H1907 H 0.22385 0.56687 0.19249 0.0
H1908 H 0.24674 0.58774 0.17522 0.0
H1909 H 0.18782 0.55767 0.19302 0.0
H1910 H 0.24623 0.5229 0.18046 0.0
H1911 H 0.27257 0.51004 0.15978 0.0
H1912 H 0.23164 0.47339 0.12984 0.0
H1913 H 0.20486 0.48664 0.14989 0.0
C1914 C 0.16901 0.46674 0.2365 0.0
C1915 C 0.14861 0.46807 0.23853 0.0
C1916 C 0.17938 0.47982 0.2247 0.0
C1917 C 0.16976 0.49472 0.21443 0.0
C1918 C 0.14928 0.4958 0.21604 0.0
C1919 C 0.13887 0.48275 0.22801 0.0
C1920 C 0.18127 0.50899 0.20228 0.0
C1921 C 0.1956 0.50189 0.18937 0.0
C1922 C 0.17874 0.52951 0.20369 0.0
C1923 C 0.16551 0.53847 0.21828 0.0
C1924 C 0.15123 0.55192 0.21239 0.0
C1925 C 0.13911 0.56078 0.22616 0.0
C1926 C 0.14113 0.55633 0.2459 0.0
C1927 C 0.15534 0.54306 0.25191 0.0
C1928 C 0.16757 0.53423 0.2382 0.0
C1929 C 0.2331 0.55871 0.13733 0.0
C1930 C 0.24342 0.57345 0.14719 0.0
C1931 C 0.21971 0.54679 0.14733 0.0
C1932 C 0.21648 0.54912 0.1675 0.0
C1933 C 0.22599 0.56455 0.17704 0.0
C1934 C 0.23922 0.5765 0.16707 0.0
C1935 C 0.20425 0.53494 0.17898 0.0
C1936 C 0.18993 0.54206 0.19182 0.0
C1937 C 0.20735 0.5145 0.17814 0.0
C1938 C 0.22348 0.50597 0.1665 0.0
C1939 C 0.2428 0.51223 0.16935 0.0
C1940 C 0.2578 0.50494 0.15767 0.0
C1941 C 0.25378 0.49096 0.14343 0.0
C1942 C 0.23472 0.48427 0.14084 0.0
C1943 C 0.2196 0.49173 0.1523 0.0
H1944 H 0.26545 0.48524 0.13449 0.0
H1945 H 0.13173 0.56321 0.25652 0.0
H1946 H 0.51703 0.1452 0.26774 0.0
H1947 H 0.50004 0.16561 0.24451 0.0
H1948 H 0.54834 0.16073 0.20466 0.0
H1949 H 0.56583 0.14016 0.2284 0.0
H1950 H 0.53463 0.19725 0.20398 0.0
H1951 H 0.50434 0.13507 0.19847 0.0
H1952 H 0.48788 0.10497 0.20903 0.0
H1953 H 0.44024 0.1386 0.23176 0.0
H1954 H 0.45661 0.16894 0.22175 0.0
H1955 H 0.47433 0.24281 0.13034 0.0
H1956 H 0.49519 0.21953 0.14784 0.0
H1957 H 0.45337 0.21747 0.19464 0.0
H1958 H 0.43252 0.24031 0.17723 0.0
H1959 H 0.4658 0.18232 0.18791 0.0
H1960 H 0.49753 0.24465 0.19558 0.0
H1961 H 0.51383 0.27468 0.18448 0.0
H1962 H 0.55856 0.24062 0.15702 0.0
H1963 H 0.54231 0.21036 0.1676 0.0
C1964 C 0.52412 0.1482 0.25399 0.0
C1965 C 0.5428 0.14059 0.24994 0.0
C1966 C 0.51426 0.15998 0.24058 0.0
C1967 C 0.52252 0.16453 0.22243 0.0
C1968 C 0.54143 0.1574 0.21843 0.0
C1969 C 0.55145 0.14556 0.23202 0.0
C1970 C 0.51124 0.17675 0.20799 0.0
C1971 C 0.51969 0.19375 0.2002 0.0
C1972 C 0.49154 0.17257 0.2031 0.0
C1973 C 0.4818 0.15432 0.20946 0.0
C1974 C 0.49045 0.13608 0.20589 0.0
C1975 C 0.48111 0.11896 0.21175 0.0
C1976 C 0.46301 0.11987 0.22102 0.0
C1977 C 0.45424 0.13791 0.22453 0.0
C1978 C 0.46356 0.15507 0.21879 0.0
C1979 C 0.46947 0.23721 0.14425 0.0
C1980 C 0.45163 0.24353 0.15227 0.0
C1981 C 0.48155 0.22401 0.15439 0.0
C1982 C 0.47615 0.21679 0.17285 0.0
C1983 C 0.45808 0.22271 0.18053 0.0
C1984 C 0.44609 0.23588 0.17049 0.0
C1985 C 0.48898 0.20308 0.18432 0.0
C1986 C 0.48079 0.18575 0.19155 0.0
C1987 C 0.50887 0.20699 0.18864 0.0
C1988 C 0.51855 0.22521 0.18217 0.0
C1989 C 0.51072 0.24354 0.187 0.0
C1990 C 0.51997 0.26062 0.18082 0.0
C1991 C 0.53719 0.25955 0.17 0.0
C1992 C 0.5452 0.24141 0.16535 0.0
C1993 C 0.53596 0.2243 0.17142 0.0
H1994 H 0.54436 0.27275 0.16526 0.0
H1995 H 0.4558 0.10659 0.22554 0.0
H1996 H 0.77684 0.4431 0.14518 0.0
H1997 H 0.80314 0.45759 0.16483 0.0
H1998 H 0.77581 0.51393 0.15996 0.0
H1999 H 0.74994 0.49975 0.14038 0.0
H2000 H 0.81362 0.51834 0.1559 0.0
H2001 H 0.77261 0.48402 0.20194 0.0
H2002 H 0.7562 0.45497 0.21527 0.0
H2003 H 0.81149 0.42653 0.22221 0.0
H2004 H 0.82822 0.45533 0.20869 0.0
H2005 H 0.86223 0.57041 0.2324 0.0
H2006 H 0.8393 0.5549 0.20976 0.0
H2007 H 0.86448 0.49877 0.22266 0.0
H2008 H 0.88654 0.5141 0.2459 0.0
H2009 H 0.82883 0.49314 0.22171 0.0
H2010 H 0.87043 0.52625 0.17662 0.0
H2011 H 0.88788 0.55415 0.16222 0.0
H2012 H 0.83347 0.58336 0.15217 0.0
H2013 H 0.81571 0.55572 0.16673 0.0
C2014 C 0.77652 0.45859 0.14818 0.0
C2015 C 0.76114 0.47016 0.14106 0.0
C2016 C 0.79155 0.46689 0.15957 0.0
C2017 C 0.79154 0.48697 0.16421 0.0
C2018 C 0.77638 0.49849 0.15672 0.0
C2019 C 0.76146 0.49026 0.14544 0.0
C2020 C 0.80694 0.49616 0.17698 0.0
C2021 C 0.8168 0.51288 0.17036 0.0
C2022 C 0.81168 0.48894 0.19574 0.0
C2023 C 0.80164 0.47174 0.20411 0.0
C2024 C 0.78126 0.47152 0.2062 0.0
C2025 C 0.7719 0.45511 0.2138 0.0
C2026 C 0.78279 0.43889 0.21952 0.0
C2027 C 0.80307 0.43909 0.21774 0.0
C2028 C 0.8125 0.45545 0.21012 0.0
C2029 C 0.86308 0.55482 0.23014 0.0
C2030 C 0.8764 0.54359 0.24094 0.0
C2031 C 0.84992 0.54586 0.2171 0.0
C2032 C 0.85004 0.52546 0.21408 0.0
C2033 C 0.86375 0.51442 0.22457 0.0
C2034 C 0.87657 0.52329 0.23783 0.0
C2035 C 0.8356 0.51545 0.20068 0.0
C2036 C 0.82583 0.49858 0.20721 0.0
C2037 C 0.83114 0.52239 0.18172 0.0
C2038 C 0.84176 0.539 0.17293 0.0
C2039 C 0.8622 0.53868 0.17146 0.0
C2040 C 0.87214 0.55444 0.16325 0.0
C2041 C 0.86179 0.57054 0.15633 0.0
C2042 C 0.84147 0.57089 0.15756 0.0
C2043 C 0.83146 0.55518 0.16577 0.0
H2044 H 0.86952 0.58272 0.14998 0.0
H2045 H 0.77552 0.42618 0.22537 0.0
H2046 H 0.57491 0.76833 0.18129 0.0
H2047 H 0.55266 0.79022 0.19828 0.0
H2048 H 0.52028 0.79874 0.1452 0.0
H2049 H 0.54239 0.77635 0.12813 0.0
H2050 H 0.54336 0.82603 0.19708 0.0
H2051 H 0.47179 0.80694 0.15563 0.0
H2052 H 0.45754 0.77881 0.1383 0.0
H2053 H 0.49359 0.7398 0.17124 0.0
H2054 H 0.50777 0.7676 0.18899 0.0
H2055 H 0.47635 0.89602 0.22865 0.0
H2056 H 0.49533 0.87457 0.20749 0.0
H2057 H 0.46234 0.82518 0.22798 0.0
H2058 H 0.44243 0.84704 0.24828 0.0
H2059 H 0.47176 0.81701 0.19333 0.0
H2060 H 0.51068 0.83922 0.24647 0.0
H2061 H 0.52643 0.86275 0.26866 0.0
H2062 H 0.55684 0.88842 0.2205 0.0
H2063 H 0.54127 0.86509 0.198 0.0
C2064 C 0.56317 0.77493 0.17309 0.0
C2065 C 0.56058 0.77045 0.15321 0.0
C2066 C 0.55037 0.78756 0.18291 0.0
C2067 C 0.53444 0.79613 0.17327 0.0
C2068 C 0.53215 0.79216 0.15323 0.0
C2069 C 0.54499 0.77946 0.14336 0.0
C2070 C 0.52034 0.80901 0.1843 0.0
C2071 C 0.52771 0.82406 0.1961 0.0
C2072 C 0.49982 0.80626 0.18379 0.0
C2073 C 0.49102 0.78941 0.17346 0.0
C2074 C 0.4766 0.79235 0.15923 0.0
C2075 C 0.46854 0.77645 0.14934 0.0
C2076 C 0.47471 0.75752 0.15362 0.0
C2077 C 0.48886 0.75445 0.16789 0.0
C2078 C 0.49692 0.77028 0.17786 0.0
C2079 C 0.47276 0.88066 0.22822 0.0
C2080 C 0.45769 0.87333 0.24001 0.0
C2081 C 0.48389 0.86825 0.21631 0.0
C2082 C 0.48094 0.84793 0.21644 0.0
C2083 C 0.46519 0.84069 0.22752 0.0
C2084 C 0.45366 0.85324 0.23909 0.0
C2085 C 0.49478 0.83438 0.20576 0.0
C2086 C 0.48739 0.81912 0.19414 0.0
C2087 C 0.51538 0.83639 0.20706 0.0
C2088 C 0.52466 0.85053 0.22053 0.0
C2089 C 0.52063 0.84997 0.2406 0.0
C2090 C 0.52954 0.86325 0.25323 0.0
C2091 C 0.54254 0.87712 0.24599 0.0
C2092 C 0.54673 0.87769 0.22609 0.0
C2093 C 0.53791 0.86442 0.2134 0.0
H2094 H 0.54941 0.88738 0.2558 0.0
H2095 H 0.4685 0.74524 0.1459 0.0
H2096 H 0.12545 0.54236 0.78126 0.0
H2097 H 0.14178 0.51964 0.80388 0.0
H2098 H 0.19524 0.52584 0.77163 0.0
H2099 H 0.17944 0.54883 0.74967 0.0
H2100 H 0.18141 0.48469 0.78064 0.0
H2101 H 0.1965 0.54757 0.80918 0.0
H2102 H 0.18781 0.57943 0.82319 0.0
H2103 H 0.15519 0.55106 0.86837 0.0
H2104 H 0.16342 0.51895 0.85432 0.0
H2105 H 0.26042 0.44506 0.82954 0.0
H2106 H 0.23789 0.46668 0.81312 0.0
H2107 H 0.20105 0.46756 0.86397 0.0
H2108 H 0.22456 0.44638 0.88115 0.0
H2109 H 0.20093 0.5027 0.84783 0.0
H2110 H 0.19189 0.43893 0.82228 0.0
H2111 H 0.20317 0.40764 0.80869 0.0
H2112 H 0.22348 0.43681 0.75734 0.0
H2113 H 0.21326 0.46843 0.77099 0.0
C2114 C 0.14072 0.53899 0.77911 0.0
C2115 C 0.15111 0.54765 0.76368 0.0
C2116 C 0.15004 0.52597 0.79204 0.0
C2117 C 0.1698 0.52094 0.78948 0.0
C2118 C 0.18004 0.52941 0.77397 0.0
C2119 C 0.17094 0.54271 0.76145 0.0
C2120 C 0.18007 0.50686 0.8027 0.0
C2121 C 0.18568 0.4886 0.79533 0.0
C2122 C 0.18528 0.51168 0.82207 0.0
C2123 C 0.18031 0.5309 0.83053 0.0
C2124 C 0.18727 0.54813 0.82196 0.0
C2125 C 0.18248 0.56624 0.82995 0.0
C2126 C 0.1709 0.5673 0.84665 0.0
C2127 C 0.16412 0.55022 0.85541 0.0
C2128 C 0.16884 0.53206 0.84743 0.0
C2129 C 0.24751 0.44969 0.83735 0.0
C2130 C 0.24419 0.44355 0.85663 0.0
C2131 C 0.2345 0.46212 0.82782 0.0
C2132 C 0.21725 0.4684 0.8369 0.0
C2133 C 0.21407 0.4628 0.85643 0.0
C2134 C 0.22748 0.4506 0.86625 0.0
C2135 C 0.20277 0.48054 0.82565 0.0
C2136 C 0.19635 0.49846 0.83333 0.0
C2137 C 0.19671 0.47532 0.80651 0.0
C2138 C 0.20191 0.45615 0.79777 0.0
C2139 C 0.19888 0.43873 0.80814 0.0
C2140 C 0.20521 0.42093 0.80048 0.0
C2141 C 0.21406 0.42025 0.78219 0.0
C2142 C 0.21664 0.43737 0.77152 0.0
C2143 C 0.21066 0.45526 0.77926 0.0
H2144 H 0.21884 0.40645 0.77623 0.0
H2145 H 0.16721 0.58134 0.85283 0.0
H2146 H 0.4395 0.13947 0.78838 0.0
H2147 H 0.46039 0.15627 0.81236 0.0
H2148 H 0.4729 0.201 0.7703 0.0
H2149 H 0.45185 0.18495 0.74673 0.0
H2150 H 0.50708 0.17854 0.78974 0.0
H2151 H 0.44834 0.21695 0.80128 0.0
H2152 H 0.414 0.22153 0.81079 0.0
H2153 H 0.42551 0.19504 0.86621 0.0
H2154 H 0.45993 0.19018 0.85693 0.0
H2155 H 0.56294 0.25351 0.83013 0.0
H2156 H 0.53928 0.23315 0.81362 0.0
H2157 H 0.51643 0.21429 0.86896 0.0
H2158 H 0.53972 0.23579 0.88577 0.0
H2159 H 0.48726 0.21913 0.84616 0.0
H2160 H 0.54652 0.18422 0.8371 0.0
H2161 H 0.58106 0.17928 0.82851 0.0
H2162 H 0.5692 0.19633 0.76959 0.0
H2163 H 0.53463 0.20164 0.77788 0.0
C2164 C 0.44634 0.15311 0.78439 0.0
C2165 C 0.44392 0.16073 0.76549 0.0
C2166 C 0.45836 0.16267 0.7981 0.0
C2167 C 0.46836 0.17987 0.7931 0.0
C2168 C 0.46545 0.18775 0.77452 0.0
C2169 C 0.45328 0.17848 0.76103 0.0
C2170 C 0.48287 0.1892 0.80649 0.0
C2171 C 0.50277 0.18746 0.80206 0.0
C2172 C 0.47735 0.20037 0.82292 0.0
C2173 C 0.45662 0.20294 0.82831 0.0
C2174 C 0.44349 0.21186 0.81539 0.0
C2175 C 0.42402 0.21458 0.82077 0.0
C2176 C 0.41755 0.20849 0.83907 0.0
C2177 C 0.43054 0.1997 0.85202 0.0
C2178 C 0.45002 0.19698 0.84672 0.0
C2179 C 0.55309 0.24491 0.83894 0.0
C2180 C 0.55354 0.24621 0.85941 0.0
C2181 C 0.5395 0.23307 0.82937 0.0
C2182 C 0.52618 0.22157 0.83987 0.0
C2183 C 0.52655 0.22281 0.86037 0.0
C2184 C 0.54 0.23503 0.87002 0.0
C2185 C 0.51169 0.20888 0.82923 0.0
C2186 C 0.49176 0.20997 0.83409 0.0
C2187 C 0.51722 0.19684 0.81328 0.0
C2188 C 0.53798 0.19345 0.80816 0.0
C2189 C 0.55129 0.18702 0.82234 0.0
C2190 C 0.57088 0.18415 0.81752 0.0
C2191 C 0.57733 0.18753 0.79853 0.0
C2192 C 0.56418 0.19372 0.78429 0.0
C2193 C 0.54458 0.19664 0.78904 0.0
H2194 H 0.59251 0.18533 0.79483 0.0
H2195 H 0.40251 0.21067 0.84327 0.0
H2196 H 0.77405 0.56994 0.84436 0.0
H2197 H 0.79416 0.54609 0.8274 0.0
H2198 H 0.79029 0.50743 0.87659 0.0
H2199 H 0.76988 0.53144 0.89384 0.0
H2200 H 0.82763 0.50678 0.85981 0.0
H2201 H 0.76207 0.49867 0.83848 0.0
H2202 H 0.73004 0.50915 0.82604 0.0
H2203 H 0.75695 0.53014 0.77369 0.0
H2204 H 0.7892 0.52 0.7859 0.0
H2205 H 0.83222 0.42883 0.77458 0.0
H2206 H 0.81468 0.44938 0.79768 0.0
H2207 H 0.86544 0.48583 0.80399 0.0
H2208 H 0.88326 0.46503 0.78092 0.0
H2209 H 0.80337 0.48506 0.79533 0.0
H2210 H 0.86469 0.50907 0.84843 0.0
H2211 H 0.89485 0.49572 0.86271 0.0
H2212 H 0.87338 0.43753 0.85448 0.0
H2213 H 0.843 0.45053 0.84039 0.0
C2214 C 0.77759 0.55649 0.8518 0.0
C2215 C 0.77018 0.55273 0.87058 0.0
C2216 C 0.78912 0.54275 0.84196 0.0
C2217 C 0.79366 0.52471 0.85048 0.0
C2218 C 0.78705 0.52118 0.86959 0.0
C2219 C 0.77537 0.53497 0.87949 0.0
C2220 C 0.80445 0.50944 0.83891 0.0
C2221 C 0.82233 0.50207 0.8457 0.0
C2222 C 0.79746 0.50274 0.82065 0.0
C2223 C 0.77808 0.50871 0.81317 0.0
C2224 C 0.76118 0.50564 0.82437 0.0
C2225 C 0.74298 0.5115 0.81736 0.0
C2226 C 0.74147 0.52035 0.79912 0.0
C2227 C 0.75815 0.5233 0.78783 0.0
C2228 C 0.77639 0.51747 0.79477 0.0
C2229 C 0.83984 0.44106 0.78103 0.0
C2230 C 0.85929 0.44514 0.77578 0.0
C2231 C 0.82967 0.45294 0.79426 0.0
C2232 C 0.83855 0.46934 0.80278 0.0
C2233 C 0.85817 0.4732 0.79795 0.0
C2234 C 0.86841 0.46124 0.78469 0.0
C2235 C 0.82694 0.48273 0.8159 0.0
C2236 C 0.8088 0.48976 0.8094 0.0
C2237 C 0.83352 0.48873 0.83458 0.0
C2238 C 0.85167 0.48079 0.84317 0.0
C2239 C 0.86638 0.49343 0.84973 0.0
C2240 C 0.88352 0.48592 0.85778 0.0
C2241 C 0.88606 0.46579 0.85944 0.0
C2242 C 0.87143 0.45312 0.85311 0.0
C2243 C 0.85427 0.46055 0.84506 0.0
H2244 H 0.89933 0.46001 0.86567 0.0
H2245 H 0.72737 0.52489 0.79372 0.0
H2246 H 0.46879 0.77113 0.87724 0.0
H2247 H 0.49196 0.7933 0.86128 0.0
H2248 H 0.46569 0.78062 0.8057 0.0
H2249 H 0.44286 0.75846 0.82141 0.0
H2250 H 0.50362 0.78029 0.80127 0.0
H2251 H 0.4579 0.82472 0.83142 0.0
H2252 H 0.43971 0.83908 0.8589 0.0
H2253 H 0.49352 0.85378 0.88722 0.0
H2254 H 0.51202 0.8393 0.85999 0.0
H2255 H 0.52495 0.88532 0.76563 0.0
H2256 H 0.50779 0.86194 0.7857 0.0
H2257 H 0.55896 0.82552 0.7874 0.0
H2258 H 0.57642 0.84911 0.76664 0.0
H2259 H 0.51164 0.8493 0.821 0.0
H2260 H 0.54179 0.77586 0.79309 0.0
H2261 H 0.55792 0.76211 0.76405 0.0
H2262 H 0.53219 0.80656 0.72843 0.0
H2263 H 0.51584 0.82045 0.75721 0.0
C2264 C 0.4678 0.77324 0.86166 0.0
C2265 C 0.45377 0.76296 0.85073 0.0
C2266 C 0.48113 0.78594 0.85248 0.0
C2267 C 0.48074 0.78881 0.83213 0.0
C2268 C 0.46658 0.7787 0.82132 0.0
C2269 C 0.45334 0.76605 0.83044 0.0
C2270 C 0.49486 0.80227 0.82191 0.0
C2271 C 0.50546 0.79534 0.80573 0.0
C2272 C 0.49743 0.82201 0.82746 0.0
C2273 C 0.48633 0.83075 0.84379 0.0
C2274 C 0.46584 0.83089 0.84358 0.0
C2275 C 0.45548 0.83908 0.85909 0.0
C2276 C 0.46545 0.84729 0.87482 0.0
C2277 C 0.48581 0.84739 0.87504 0.0
C2278 C 0.49624 0.83921 0.85957 0.0
C2279 C 0.53276 0.8724 0.7702 0.0
C2280 C 0.55222 0.86925 0.76435 0.0
C2281 C 0.52283 0.85898 0.78189 0.0
C2282 C 0.53187 0.84179 0.78825 0.0
C2283 C 0.55144 0.83855 0.78265 0.0
C2284 C 0.56148 0.85208 0.77077 0.0
C2285 C 0.52029 0.8274 0.80022 0.0
C2286 C 0.51011 0.83415 0.81673 0.0
C2287 C 0.51797 0.80756 0.79481 0.0
C2288 C 0.52768 0.79928 0.77735 0.0
C2289 C 0.53952 0.78266 0.77904 0.0
C2290 C 0.54873 0.77485 0.76263 0.0
C2291 C 0.54611 0.78347 0.74441 0.0
C2292 C 0.53423 0.7999 0.74255 0.0
C2293 C 0.52499 0.80774 0.75891 0.0
H2294 H 0.55327 0.77742 0.73173 0.0
H2295 H 0.4574 0.85361 0.88682 0.0
H2296 H 0.15205 0.23408 0.57376 0.0
H2297 H 0.17312 0.21091 0.55604 0.0
H2298 H 0.16414 0.24351 0.50316 0.0
H2299 H 0.14273 0.2657 0.52035 0.0
H2300 H 0.16152 0.20893 0.49352 0.0
H2301 H 0.20895 0.24183 0.53455 0.0
H2302 H 0.22414 0.25189 0.56554 0.0
H2303 H 0.23085 0.19194 0.582 0.0
H2304 H 0.21541 0.18153 0.55127 0.0
H2305 H 0.24047 0.1804 0.43253 0.0
H2306 H 0.21823 0.19733 0.45465 0.0
H2307 H 0.22462 0.15115 0.49657 0.0
H2308 H 0.24686 0.13392 0.47424 0.0
H2309 H 0.22743 0.18796 0.51407 0.0
H2310 H 0.18362 0.15543 0.47151 0.0
H2311 H 0.16886 0.14514 0.44047 0.0
H2312 H 0.15514 0.20462 0.42695 0.0
H2313 H 0.17032 0.21537 0.45765 0.0
C2314 C 0.15465 0.23628 0.55838 0.0
C2315 C 0.14542 0.25178 0.54858 0.0
C2316 C 0.16686 0.22303 0.54818 0.0
C2317 C 0.17055 0.22523 0.528 0.0
C2318 C 0.1616 0.24103 0.51852 0.0
C2319 C 0.14926 0.25389 0.52852 0.0
C2320 C 0.18305 0.21117 0.51623 0.0
C2321 C 0.17605 0.20468 0.49803 0.0
C2322 C 0.20181 0.20459 0.52212 0.0
C2323 C 0.21079 0.21091 0.54071 0.0
C2324 C 0.21348 0.2308 0.54486 0.0
C2325 C 0.22217 0.23656 0.56237 0.0
C2326 C 0.2284 0.22256 0.57573 0.0
C2327 C 0.22596 0.20277 0.57164 0.0
C2328 C 0.21724 0.19693 0.5542 0.0
C2329 C 0.23701 0.17365 0.44635 0.0
C2330 C 0.24545 0.15561 0.45141 0.0
C2331 C 0.22421 0.18342 0.45906 0.0
C2332 C 0.21953 0.17565 0.47744 0.0
C2333 C 0.22788 0.15758 0.48256 0.0
C2334 C 0.2405 0.1476 0.46965 0.0
C2335 C 0.20613 0.1866 0.49115 0.0
C2336 C 0.21291 0.19233 0.50966 0.0
C2337 C 0.18717 0.19263 0.48553 0.0
C2338 C 0.17833 0.18624 0.46684 0.0
C2339 C 0.1777 0.16637 0.46182 0.0
C2340 C 0.16922 0.16044 0.44428 0.0
C2341 C 0.16108 0.17422 0.43174 0.0
C2342 C 0.16141 0.19396 0.4367 0.0
C2343 C 0.17001 0.19998 0.45414 0.0
H2344 H 0.15452 0.1696 0.41817 0.0
H2345 H 0.2352 0.227 0.58921 0.0
H2346 H 0.78523 0.14154 0.55485 0.0
H2347 H 0.80848 0.16162 0.53621 0.0
H2348 H 0.76228 0.17846 0.49713 0.0
H2349 H 0.73953 0.15838 0.51515 0.0
H2350 H 0.79146 0.17098 0.47612 0.0
H2351 H 0.78334 0.20917 0.53436 0.0
H2352 H 0.78414 0.21602 0.5696 0.0
H2353 H 0.84557 0.20418 0.57077 0.0
H2354 H 0.84507 0.197 0.53556 0.0
H2355 H 0.82654 0.2569 0.43141 0.0
H2356 H 0.80983 0.23233 0.45081 0.0
H2357 H 0.86417 0.21681 0.47818 0.0
H2358 H 0.88109 0.24176 0.45872 0.0
H2359 H 0.83489 0.2208 0.50527 0.0
H2360 H 0.84234 0.18594 0.44521 0.0
H2361 H 0.84039 0.18179 0.40961 0.0
H2362 H 0.7784 0.18986 0.4117 0.0
H2363 H 0.77997 0.19425 0.44735 0.0
C2364 C 0.78008 0.14965 0.54236 0.0
C2365 C 0.76048 0.14815 0.5365 0.0
C2366 C 0.79338 0.1612 0.53167 0.0
C2367 C 0.78731 0.17177 0.51508 0.0
C2368 C 0.76763 0.17046 0.50961 0.0
C2369 C 0.75452 0.1589 0.52008 0.0
C2370 C 0.80108 0.18402 0.50303 0.0
C2371 C 0.80081 0.18195 0.48261 0.0
C2372 C 0.81382 0.19815 0.5112 0.0
C2373 C 0.81411 0.20228 0.53238 0.0
C2374 C 0.79698 0.20784 0.54217 0.0
C2375 C 0.79739 0.21182 0.56213 0.0
C2376 C 0.81488 0.21046 0.57244 0.0
C2377 C 0.83202 0.20517 0.56278 0.0
C2378 C 0.83168 0.20115 0.54283 0.0
C2379 C 0.83508 0.24809 0.44132 0.0
C2380 C 0.85526 0.25131 0.44334 0.0
C2381 C 0.82544 0.23395 0.45246 0.0
C2382 C 0.83563 0.22248 0.46602 0.0
C2383 C 0.85589 0.22539 0.46786 0.0
C2384 C 0.86562 0.23953 0.45655 0.0
C2385 C 0.82487 0.20798 0.47848 0.0
C2386 C 0.8257 0.20964 0.49889 0.0
C2387 C 0.81241 0.19365 0.47032 0.0
C2388 C 0.8113 0.19052 0.44895 0.0
C2389 C 0.82829 0.18689 0.43808 0.0
C2390 C 0.82726 0.18449 0.4179 0.0
C2391 C 0.80929 0.18556 0.40842 0.0
C2392 C 0.7923 0.18899 0.4191 0.0
C2393 C 0.79325 0.1914 0.4393 0.0
H2394 H 0.80855 0.18371 0.3928 0.0
H2395 H 0.81517 0.21357 0.58788 0.0
H2396 H 0.86738 0.75015 0.5297 0.0
H2397 H 0.84878 0.77165 0.50825 0.0
H2398 H 0.8159 0.79249 0.5577 0.0
H2399 H 0.83332 0.76959 0.57868 0.0
H2400 H 0.7919 0.78982 0.53198 0.0
H2401 H 0.85588 0.81986 0.52832 0.0
H2402 H 0.89135 0.81975 0.52237 0.0
H2403 H 0.88178 0.80009 0.46377 0.0
H2404 H 0.84626 0.80001 0.46942 0.0
H2405 H 0.75281 0.87594 0.49363 0.0
H2406 H 0.77465 0.85337 0.50994 0.0
H2407 H 0.78822 0.8262 0.45502 0.0
H2408 H 0.766 0.84902 0.43833 0.0
H2409 H 0.82164 0.83039 0.48021 0.0
H2410 H 0.75697 0.80453 0.48381 0.0
H2411 H 0.72166 0.80621 0.49027 0.0
H2412 H 0.7329 0.81931 0.55035 0.0
H2413 H 0.76832 0.81811 0.54418 0.0
C2414 C 0.85642 0.75961 0.53602 0.0
C2415 C 0.85212 0.75839 0.55602 0.0
C2416 C 0.84573 0.77208 0.5237 0.0
C2417 C 0.83094 0.78438 0.53111 0.0
C2418 C 0.82705 0.78335 0.55127 0.0
C2419 C 0.83722 0.77036 0.56342 0.0
C2420 C 0.81897 0.7977 0.51807 0.0
C2421 C 0.79864 0.79885 0.52093 0.0
C2422 C 0.82719 0.80923 0.50291 0.0
C2423 C 0.84846 0.8098 0.49934 0.0
C2424 C 0.86136 0.8155 0.51418 0.0
C2425 C 0.88146 0.81547 0.51086 0.0
C2426 C 0.88881 0.80988 0.49272 0.0
C2427 C 0.87607 0.80442 0.47782 0.0
C2428 C 0.85595 0.80446 0.48105 0.0
C2429 C 0.76051 0.86536 0.48481 0.0
C2430 C 0.75743 0.86441 0.46452 0.0
C2431 C 0.77305 0.85233 0.49428 0.0
C2432 C 0.78302 0.83778 0.48389 0.0
C2433 C 0.78072 0.83722 0.46348 0.0
C2434 C 0.76799 0.85032 0.45391 0.0
C2435 C 0.79493 0.82282 0.49472 0.0
C2436 C 0.81509 0.82132 0.49136 0.0
C2437 C 0.78663 0.81113 0.50959 0.0
C2438 C 0.76533 0.81136 0.51349 0.0
C2439 C 0.75193 0.80788 0.49838 0.0
C2440 C 0.73189 0.80875 0.50199 0.0
C2441 C 0.72505 0.81287 0.5207 0.0
C2442 C 0.73823 0.81612 0.53586 0.0
C2443 C 0.7583 0.81533 0.53231 0.0
H2444 H 0.70954 0.81352 0.52345 0.0
H2445 H 0.90438 0.8098 0.4902 0.0
H2446 H 0.18975 0.76113 0.43341 0.0
H2447 H 0.20391 0.78469 0.45598 0.0
H2448 H 0.14811 0.79152 0.48401 0.0
H2449 H 0.13383 0.76768 0.46141 0.0
H2450 H 0.19958 0.82156 0.46458 0.0
H2451 H 0.15284 0.79967 0.53001 0.0
H2452 H 0.13749 0.77076 0.54499 0.0
H2453 H 0.18072 0.73396 0.51863 0.0
H2454 H 0.19579 0.76248 0.503 0.0
H2455 H 0.23255 0.88584 0.5413 0.0
H2456 H 0.21179 0.86848 0.51779 0.0
H2457 H 0.2286 0.81369 0.54352 0.0
H2458 H 0.24829 0.83082 0.56731 0.0
H2459 H 0.19371 0.81014 0.53555 0.0
H2460 H 0.24795 0.83516 0.49734 0.0
H2461 H 0.26892 0.86072 0.4831 0.0
H2462 H 0.21918 0.88676 0.45573 0.0
H2463 H 0.19788 0.86148 0.46983 0.0
C2464 C 0.18036 0.76776 0.44423 0.0
C2465 C 0.16056 0.76238 0.44548 0.0
C2466 C 0.18853 0.78134 0.45719 0.0
C2467 C 0.17728 0.7899 0.47203 0.0
C2468 C 0.15732 0.78502 0.47297 0.0
C2469 C 0.14907 0.77148 0.45986 0.0
C2470 C 0.18667 0.80341 0.48665 0.0
C2471 C 0.19816 0.81912 0.48011 0.0
C2472 C 0.18518 0.80039 0.50699 0.0
C2473 C 0.17524 0.78312 0.51516 0.0
C2474 C 0.15884 0.78534 0.52721 0.0
C2475 C 0.15015 0.76901 0.53575 0.0
C2476 C 0.15795 0.75046 0.53257 0.0
C2477 C 0.17439 0.74821 0.52076 0.0
C2478 C 0.18293 0.76444 0.51195 0.0
C2479 C 0.23158 0.87011 0.54209 0.0
C2480 C 0.24216 0.85985 0.55636 0.0
C2481 C 0.21984 0.86011 0.52844 0.0
C2482 C 0.21868 0.83955 0.52845 0.0
C2483 C 0.22898 0.82946 0.54298 0.0
C2484 C 0.24039 0.83939 0.55669 0.0
C2485 C 0.20699 0.82821 0.51358 0.0
C2486 C 0.19495 0.81289 0.52005 0.0
C2487 C 0.20846 0.83133 0.49317 0.0
C2488 C 0.22129 0.84657 0.48484 0.0
C2489 C 0.24147 0.84642 0.4884 0.0
C2490 C 0.25342 0.86083 0.48034 0.0
C2491 C 0.24538 0.87539 0.46864 0.0
C2492 C 0.22538 0.87551 0.46486 0.0
C2493 C 0.21337 0.86114 0.47285 0.0
H2494 H 0.25465 0.88654 0.46248 0.0
H2495 H 0.15136 0.73786 0.53938 0.0
H2496 H 0.95019 0.5283 0.2931 0.0
H2497 H 0.97384 0.50984 0.3121 0.0
H2498 H 0.96121 0.54501 0.3627 0.0
H2499 H 0.93719 0.5635 0.34366 0.0
H2500 H 1.00212 0.54085 0.35364 0.0
H2501 H 0.9509 0.50133 0.37043 0.0
H2502 H 0.91876 0.48588 0.36624 0.0
H2503 H 0.94183 0.44938 0.32099 0.0
H2504 H 0.97403 0.46487 0.32453 0.0
H2505 H 0.08354 0.47483 0.33879 0.0
H2506 H 0.05669 0.48561 0.35998 0.0
H2507 H 0.01816 0.48647 0.31034 0.0
H2508 H 0.04463 0.47564 0.28935 0.0
H2509 H 1.0016 0.46894 0.34617 0.0
H2510 H 0.03948 0.53311 0.32372 0.0
H2511 H 0.07245 0.54737 0.32598 0.0
H2512 H 0.07433 0.53398 0.38702 0.0
H2513 H 0.04143 0.51955 0.38499 0.0
C2514 C 0.95228 0.53192 0.30831 0.0
C2515 C 0.94197 0.5472 0.31696 0.0
C2516 C 0.96569 0.52137 0.31918 0.0
C2517 C 0.96901 0.52597 0.33885 0.0
C2518 C 0.95866 0.54119 0.34761 0.0
C2519 C 0.94501 0.55165 0.33674 0.0
C2520 C 0.98438 0.51528 0.34928 0.0
C2521 C 1.00191 0.52507 0.35298 0.0
C2522 C 0.9839 0.49471 0.34942 0.0
C2523 C 0.965 0.48421 0.34789 0.0
C2524 C 0.94917 0.48995 0.35963 0.0
C2525 C 0.93093 0.48124 0.35732 0.0
C2526 C 0.92832 0.46668 0.34339 0.0
C2527 C 0.94395 0.46064 0.33183 0.0
C2528 C 0.96224 0.46935 0.33402 0.0
C2529 C 0.06931 0.47745 0.33248 0.0
C2530 C 0.06607 0.47459 0.31246 0.0
C2531 C 0.05401 0.48335 0.34461 0.0
C2532 C 0.0354 0.4864 0.33676 0.0
C2533 C 0.03233 0.48371 0.31674 0.0
C2534 C 0.04752 0.47787 0.30469 0.0
C2535 C 0.01931 0.49474 0.34827 0.0
C2536 C 1.00159 0.48454 0.34863 0.0
C2537 C 0.0195 0.51481 0.35268 0.0
C2538 C 0.03807 0.52549 0.35426 0.0
C2539 C 0.04684 0.53355 0.33766 0.0
C2540 C 0.06555 0.54153 0.33888 0.0
C2541 C 0.07548 0.54155 0.35666 0.0
C2542 C 0.06661 0.53395 0.37329 0.0
C2543 C 0.04795 0.52591 0.37212 0.0
H2544 H 0.09012 0.54724 0.35759 0.0
H2545 H 0.91415 0.46017 0.34153 0.0
H2546 H 0.4452 0.93677 0.3414 0.0
H2547 H 0.46506 0.96336 0.35501 0.0
H2548 H 0.49074 0.97282 0.29847 0.0
H2549 H 0.47069 0.94678 0.28477 0.0
H2550 H 0.51747 0.96997 0.33306 0.0
H2551 H 0.4555 0.9992 0.30916 0.0
H2552 H 0.41995 1.00422 0.31108 0.0
H2553 H 0.42543 0.02276 0.37054 0.0
H2554 H 0.461 0.01746 0.36907 0.0
H2555 H 0.54502 0.05127 0.286 0.0
H2556 H 0.52743 0.0237 0.29982 0.0
H2557 H 0.5242 0.05314 0.35527 0.0
H2558 H 0.54226 0.08091 0.34148 0.0
H2559 H 0.48774 0.03557 0.33975 0.0
H2560 H 0.55108 0.01781 0.35814 0.0
H2561 H 0.58664 0.01306 0.35632 0.0
H2562 H 0.5793 0.97338 0.30853 0.0
H2563 H 0.54374 0.97805 0.30985 0.0
C2564 C 0.4552 0.94452 0.33198 0.0
C2565 C 0.45651 0.93992 0.31208 0.0
C2566 C 0.46644 0.9596 0.33975 0.0
C2567 C 0.47929 0.96984 0.3277 0.0
C2568 C 0.48091 0.9649 0.30794 0.0
C2569 C 0.46944 0.95016 0.30013 0.0
C2570 C 0.49079 0.98631 0.33496 0.0
C2571 C 0.51109 0.98433 0.3349 0.0
C2572 C 0.48224 0.00474 0.33827 0.0
C2573 C 0.46084 0.00755 0.33913 0.0
C2574 C 0.4491 1.00405 0.32273 0.0
C2575 C 0.42895 0.00701 0.32372 0.0
C2576 C 0.42043 0.0137 0.34095 0.0
C2577 C 0.43204 0.01748 0.35723 0.0
C2578 C 0.45218 0.01447 0.35634 0.0
C2579 C 0.54049 0.05191 0.3011 0.0
C2580 C 0.54498 0.06803 0.31275 0.0
C2581 C 0.53062 0.03615 0.30901 0.0
C2582 C 0.52497 0.03635 0.32863 0.0
C2583 C 0.52877 0.05273 0.34018 0.0
C2584 C 0.53895 0.06849 0.3323 0.0
C2585 C 0.51443 0.01938 0.33626 0.0
C2586 C 0.49429 0.02118 0.33909 0.0
C2587 C 0.52314 1.00074 0.33554 0.0
C2588 C 0.54465 0.99825 0.33417 0.0
C2589 C 0.55703 0.00819 0.34713 0.0
C2590 C 0.57721 0.00547 0.34622 0.0
C2591 C 0.58521 0.99281 0.33243 0.0
C2592 C 0.57307 0.98305 0.31933 0.0
C2593 C 0.55289 0.9857 0.32018 0.0
H2594 H 0.6008 0.99054 0.33193 0.0
H2595 H 0.40486 0.01603 0.34169 0.0
H2596 H 0.9567 0.46472 0.73485 0.0
H2597 H 0.98613 0.48018 0.72248 0.0
H2598 H 0.96233 0.47926 0.66428 0.0
H2599 H 0.93313 0.46288 0.6766 0.0
H2600 H 0.99751 0.46814 0.66215 0.0
H2601 H 0.9697 0.52539 0.68926 0.0
H2602 H 0.95321 0.54705 0.71277 0.0
H2603 H 0.99765 0.5354 0.75514 0.0
H2604 H 0.01457 0.51393 0.73178 0.0
H2605 H 0.07935 0.54448 0.66187 0.0
H2606 H 0.05062 0.52581 0.65208 0.0
H2607 H 0.06195 0.48441 0.69784 0.0
H2608 H 0.09023 0.50335 0.70809 0.0
H2609 H 0.03022 0.52177 0.69779 0.0
H2610 H 0.05837 0.46467 0.66347 0.0
H2611 H 0.07364 0.44995 0.63442 0.0
H2612 H 0.02533 0.46815 0.59933 0.0
H2613 H 0.01003 0.48356 0.62792 0.0
C2614 C 0.95766 0.46806 0.71948 0.0
C2615 C 0.9427 0.46276 0.70667 0.0
C2616 C 0.97441 0.47704 0.7124 0.0
C2617 C 0.97629 0.48127 0.69247 0.0
C2618 C 0.96117 0.47622 0.6797 0.0
C2619 C 0.9445 0.46694 0.68675 0.0
C2620 C 0.99472 0.4896 0.68505 0.0
C2621 C 1.00454 0.48009 0.66975 0.0
C2622 C 1.00371 0.50554 0.69448 0.0
C2623 C 0.9933 0.51793 0.70882 0.0
C2624 C 0.97587 0.52734 0.70364 0.0
C2625 C 0.9665 0.53965 0.71691 0.0
C2626 C 0.9743 0.54249 0.73548 0.0
C2627 C 0.99159 0.53315 0.74077 0.0
C2628 C 1.00114 0.52101 0.72748 0.0
C2629 C 0.07629 0.53082 0.66915 0.0
C2630 C 0.08644 0.52555 0.68608 0.0
C2631 C 0.05999 0.52009 0.66341 0.0
C2632 C 0.05418 0.5039 0.67436 0.0
C2633 C 0.06634 0.49686 0.68919 0.0
C2634 C 0.08235 0.50777 0.69517 0.0
C2635 C 0.03334 0.49946 0.67593 0.0
C2636 C 0.02301 0.51 0.69004 0.0
C2637 C 0.0238 0.48504 0.66485 0.0
C2638 C 0.03316 0.47553 0.64785 0.0
C2639 C 0.05112 0.46581 0.64954 0.0
C2640 C 0.05976 0.45727 0.63316 0.0
C2641 C 0.05048 0.45812 0.6151 0.0
C2642 C 0.03253 0.46751 0.61333 0.0
C2643 C 0.02388 0.47617 0.6296 0.0
H2644 H 0.0572 0.45146 0.60248 0.0
H2645 H 0.96697 0.55197 0.74573 0.0
H2646 H 0.57295 0.97239 0.71844 0.0
H2647 H 0.55669 1.00184 0.72885 0.0
H2648 H 0.56011 0.98289 0.78871 0.0
H2649 H 0.57596 0.95259 0.77799 0.0
H2650 H 0.52492 0.98965 0.78069 0.0
H2651 H 0.58033 0.02948 0.77212 0.0
H2652 H 0.60987 0.04436 0.75811 0.0
H2653 H 0.57758 0.06164 0.70748 0.0
H2654 H 0.54794 0.04666 0.72099 0.0
H2655 H 0.45586 0.07256 0.77701 0.0
H2656 H 0.48363 0.05234 0.78723 0.0
H2657 H 0.49449 0.037 0.72734 0.0
H2658 H 0.46715 0.05727 0.71699 0.0
H2659 H 0.52694 0.05435 0.74882 0.0
H2660 H 0.47559 0.00462 0.75398 0.0
H2661 H 0.44536 0.99139 0.7682 0.0
H2662 H 0.47082 0.99392 0.82525 0.0
H2663 H 0.50113 0.00741 0.81134 0.0
C2664 C 0.57065 0.97467 0.73388 0.0
C2665 C 0.57527 0.96011 0.74741 0.0
C2666 C 0.56163 0.99175 0.73991 0.0
C2667 C 0.55726 0.99479 0.75965 0.0
C2668 C 0.56338 0.98091 0.77341 0.0
C2669 C 0.57238 0.96362 0.76732 0.0
C2670 C 0.54289 0.01008 0.76482 0.0
C2671 C 0.52572 1.00408 0.77431 0.0
C2672 C 0.54372 0.02894 0.75647 0.0
C2673 C 0.56183 0.03699 0.74769 0.0
C2674 C 0.57955 0.03629 0.75793 0.0
C2675 C 0.59631 0.04483 0.7501 0.0
C2676 C 0.59556 0.05406 0.73199 0.0
C2677 C 0.57811 0.0546 0.72156 0.0
C2678 C 0.56132 0.04612 0.72933 0.0
C2679 C 0.46404 0.0646 0.7661 0.0
C2680 C 0.45956 0.0665 0.74622 0.0
C2681 C 0.47985 0.05317 0.77195 0.0
C2682 C 0.49118 0.04359 0.75793 0.0
C2683 C 0.48605 0.04469 0.73823 0.0
C2684 C 0.47037 0.05609 0.73238 0.0
C2685 C 0.50908 0.0331 0.76321 0.0
C2686 C 0.52672 0.0402 0.75585 0.0
C2687 C 0.5087 0.0153 0.77338 0.0
C2688 C 0.49048 0.0073 0.78168 0.0
C2689 C 0.47465 1.00256 0.76958 0.0
C2690 C 0.45753 0.99496 0.77757 0.0
C2691 C 0.45614 0.9919 0.79763 0.0
C2692 C 0.47189 0.99636 0.80972 0.0
C2693 C 0.48904 1.00398 0.8018 0.0
H2694 H 0.44288 0.986 0.80379 0.0
H2695 H 0.60854 0.06069 0.72599 0.0
H2696 H 0.28311 0.95136 0.53384 0.0
H2697 H 0.29622 0.97449 0.51035 0.0
H2698 H 0.3547 0.95556 0.5236 0.0
H2699 H 0.34158 0.93227 0.54741 0.0
H2700 H 0.34846 0.99768 0.52178 0.0
H2701 H 0.34085 0.94186 0.48215 0.0
H2702 H 0.32358 0.91162 0.4734 0.0
H2703 H 0.27392 0.94488 0.45505 0.0
H2704 H 0.29071 0.97533 0.46402 0.0
H2705 H 0.34391 0.07462 0.45035 0.0
H2706 H 0.35579 0.04317 0.46255 0.0
H2707 H 0.29641 0.02466 0.47195 0.0
H2708 H 0.28454 0.05583 0.45976 0.0
H2709 H 0.31991 0.99558 0.45542 0.0
H2710 H 0.32216 0.04579 0.50769 0.0
H2711 H 0.33538 0.07666 0.52043 0.0
H2712 H 0.39349 0.05374 0.51653 0.0
H2713 H 0.38058 0.02284 0.50328 0.0
C2714 C 0.29874 0.95214 0.53178 0.0
C2715 C 0.31136 0.94009 0.54227 0.0
C2716 C 0.30621 0.96526 0.51835 0.0
C2717 C 0.32637 0.96638 0.51511 0.0
C2718 C 0.33911 0.95469 0.52588 0.0
C2719 C 0.33161 0.94148 0.53938 0.0
C2720 C 0.33356 0.98014 0.50043 0.0
C2721 C 0.34302 0.997 0.50696 0.0
C2722 C 0.32656 0.979 0.48113 0.0
C2723 C 0.3171 0.96093 0.47377 0.0
C2724 C 0.32629 0.94275 0.47614 0.0
C2725 C 0.31654 0.92556 0.47123 0.0
C2726 C 0.29761 0.92634 0.46384 0.0
C2727 C 0.28857 0.94432 0.46086 0.0
C2728 C 0.29823 0.96157 0.46579 0.0
C2729 C 0.33346 0.06377 0.45504 0.0
C2730 C 0.31335 0.06758 0.45439 0.0
C2731 C 0.34025 0.04584 0.46179 0.0
C2732 C 0.32695 0.03164 0.46794 0.0
C2733 C 0.30687 0.0354 0.46699 0.0
C2734 C 0.30011 0.05326 0.4603 0.0
C2735 C 0.33344 0.01354 0.47732 0.0
C2736 C 0.32662 0.99584 0.46971 0.0
C2737 C 0.34282 0.01391 0.49564 0.0
C2738 C 0.35046 0.03217 0.50423 0.0
C2739 C 0.33777 0.04739 0.50944 0.0
C2740 C 0.3452 0.06491 0.5167 0.0
C2741 C 0.36529 0.06723 0.51915 0.0
C2742 C 0.37795 0.05196 0.5145 0.0
C2743 C 0.37059 0.03447 0.50707 0.0
H2744 H 0.37104 0.0808 0.52474 0.0
H2745 H 0.2899 0.91302 0.4605 0.0
H2746 H 0.92345 0.3368 0.47878 0.0
H2747 H 0.94274 0.34155 0.50839 0.0
H2748 H 0.96125 0.28147 0.5058 0.0
H2749 H 0.94169 0.27656 0.47648 0.0
H2750 H 0.9559 0.29499 0.54414 0.0
H2751 H 0.9855 0.31675 0.48187 0.0
H2752 H 0.98533 0.33805 0.45302 0.0
H2753 H 0.98573 0.38862 0.48993 0.0
H2754 H 0.98516 0.36755 0.51901 0.0
H2755 H 0.05296 0.27367 0.56091 0.0
H2756 H 0.01909 0.27974 0.55159 0.0
H2757 H 0.02722 0.34126 0.56167 0.0
H2758 H 0.06102 0.33534 0.57081 0.0
H2759 H 0.013 0.3364 0.52841 0.0
H2760 H 0.99507 0.31517 0.58997 0.0
H2761 H 0.99483 0.29537 0.61982 0.0
H2762 H 0.9727 0.24648 0.58762 0.0
H2763 H 0.97314 0.26589 0.55746 0.0
C2764 C 0.93153 0.3246 0.48468 0.0
C2765 C 0.93154 0.30643 0.47528 0.0
C2766 C 0.9423 0.32727 0.50165 0.0
C2767 C 0.95341 0.31187 0.50914 0.0
C2768 C 0.95261 0.29346 0.50028 0.0
C2769 C 0.94171 0.29075 0.48342 0.0
C2770 C 0.96841 0.31543 0.52395 0.0
C2771 C 0.9684 0.30409 0.54092 0.0
C2772 C 0.98418 0.32807 0.52006 0.0
C2773 C 0.98498 0.34061 0.50256 0.0
C2774 C 0.9854 0.33241 0.48381 0.0
C2775 C 0.98543 0.34445 0.46742 0.0
C2776 C 0.98553 0.3647 0.46964 0.0
C2777 C 0.9856 0.37294 0.48824 0.0
C2778 C 0.98533 0.36097 0.50467 0.0
C2779 C 0.04739 0.28843 0.5613 0.0
C2780 C 0.05951 0.30406 0.56627 0.0
C2781 C 0.02801 0.29187 0.55632 0.0
C2782 C 0.02056 0.31095 0.55647 0.0
C2783 C 0.03261 0.32645 0.56193 0.0
C2784 C 0.05195 0.32305 0.56683 0.0
C2785 C 1.00123 0.3149 0.54807 0.0
C2786 C 1.00034 0.32777 0.53229 0.0
C2787 C 0.98464 0.30388 0.55329 0.0
C2788 C 0.98419 0.29203 0.57138 0.0
C2789 C 0.99027 0.30017 0.5892 0.0
C2790 C 0.99009 0.28901 0.60619 0.0
C2791 C 0.98375 0.26967 0.60561 0.0
C2792 C 0.97758 0.26147 0.58804 0.0
C2793 C 0.97776 0.27257 0.57098 0.0
H2794 H 0.98362 0.26105 0.61879 0.0
H2795 H 0.98558 0.37403 0.45697 0.0
H2796 H 0.66251 0.92995 0.46072 0.0
H2797 H 0.65206 0.96127 0.47468 0.0
H2798 H 0.70818 0.98596 0.4612 0.0
H2799 H 0.71892 0.95471 0.44783 0.0
H2800 H 0.68283 0.97818 0.50644 0.0
H2801 H 0.68407 0.03623 0.44333 0.0
H2802 H 0.67082 0.04075 0.41032 0.0
H2803 H 0.62861 0.9958 0.42063 0.0
H2804 H 0.64122 0.99132 0.45388 0.0
H2805 H 0.72962 0.06282 0.52936 0.0
H2806 H 0.71716 0.03615 0.50938 0.0
H2807 H 0.65866 0.05825 0.51583 0.0
H2808 H 0.67108 0.08511 0.53602 0.0
H2809 H 0.67062 0.0427 0.47625 0.0
H2810 H 0.6655 0.02518 0.5434 0.0
H2811 H 0.67768 0.02378 0.57712 0.0
H2812 H 0.72557 0.98795 0.55869 0.0
H2813 H 0.71389 0.98943 0.52477 0.0
C2814 C 0.67252 0.94215 0.46061 0.0
C2815 C 0.69163 0.93992 0.45362 0.0
C2816 C 0.66644 0.96001 0.46832 0.0
C2817 C 0.67921 0.97592 0.46846 0.0
C2818 C 0.698 0.9739 0.46073 0.0
C2819 C 0.70421 0.956 0.45341 0.0
C2820 C 0.67492 0.99331 0.48017 0.0
C2821 C 0.67971 0.99225 0.49995 0.0
C2822 C 0.6706 0.01153 0.47159 0.0
C2823 C 0.66378 0.01327 0.45113 0.0
C2824 C 0.67193 0.02731 0.43861 0.0
C2825 C 0.66445 0.02996 0.41987 0.0
C2826 C 0.64882 0.01865 0.41342 0.0
C2827 C 0.64071 1.00457 0.42565 0.0
C2828 C 0.6481 1.0019 0.44443 0.0
C2829 C 0.71415 0.06217 0.52627 0.0
C2830 C 0.70124 0.07575 0.53437 0.0
C2831 C 0.70707 0.04699 0.51488 0.0
C2832 C 0.68702 0.04523 0.51144 0.0
C2833 C 0.67417 0.05946 0.51846 0.0
C2834 C 0.68127 0.07465 0.52999 0.0
C2835 C 0.67972 0.02745 0.50198 0.0
C2836 C 0.67302 0.02851 0.48277 0.0
C2837 C 0.68221 0.00915 0.51101 0.0
C2838 C 0.68884 0.00749 0.53152 0.0
C2839 C 0.67867 0.01705 0.54652 0.0
C2840 C 0.68549 0.01626 0.56567 0.0
C2841 C 0.70242 0.00583 0.57001 0.0
C2842 C 0.71246 0.99603 0.55527 0.0
C2843 C 0.70573 0.99682 0.53609 0.0
H2844 H 0.70779 0.00538 0.58478 0.0
H2845 H 0.6431 0.02067 0.39888 0.0
H2846 H 0.94457 0.7286 0.53509 0.0
H2847 H 0.97355 0.72154 0.51583 0.0
H2848 H 0.95883 0.6604 0.51543 0.0
H2849 H 0.92946 0.66746 0.53471 0.0
H2850 H 1.00302 0.69728 0.52964 0.0
H2851 H 0.97949 0.64296 0.47167 0.0
H2852 H 0.94981 0.63306 0.4539 0.0
H2853 H 0.92809 0.69164 0.45699 0.0
H2854 H 0.95755 0.70185 0.47487 0.0
H2855 H 0.07804 0.66735 0.45067 0.0
H2856 H 0.04802 0.65943 0.46859 0.0
H2857 H 0.03722 0.72075 0.47741 0.0
H2858 H 0.06693 0.72871 0.45963 0.0
H2859 H 0.0074 0.67352 0.46151 0.0
H2860 H 0.02654 0.72614 0.52467 0.0
H2861 H 0.05579 0.73817 0.54169 0.0
H2862 H 0.08628 0.68545 0.52732 0.0
H2863 H 0.0571 0.67293 0.51048 0.0
C2864 C 0.94736 0.71369 0.53068 0.0
C2865 C 0.93503 0.69852 0.53649 0.0
C2866 C 0.9639 0.70968 0.51975 0.0
C2867 C 0.96833 0.69045 0.51447 0.0
C2868 C 0.95556 0.67531 0.51945 0.0
C2869 C 0.93891 0.67935 0.53044 0.0
C2870 C 0.98705 0.68651 0.50487 0.0
C2871 C 1.00404 0.69198 0.51478 0.0
C2872 C 0.98825 0.67893 0.48579 0.0
C2873 C 0.97063 0.67308 0.47477 0.0
C2874 C 0.96837 0.65371 0.46854 0.0
C2875 C 0.95156 0.64804 0.45851 0.0
C2876 C 0.93699 0.66168 0.45447 0.0
C2877 C 0.93927 0.68105 0.46033 0.0
C2878 C 0.956 0.68677 0.47045 0.0
C2879 C 0.06919 0.67907 0.45647 0.0
C2880 C 0.07473 0.69862 0.45397 0.0
C2881 C 0.05209 0.67453 0.46654 0.0
C2882 C 0.04062 0.68952 0.47433 0.0
C2883 C 0.04605 0.70902 0.47157 0.0
C2884 C 0.06299 0.71354 0.46147 0.0
C2885 C 0.02319 0.68527 0.48599 0.0
C2886 C 0.00648 0.67817 0.47658 0.0
C2887 C 0.02215 0.69151 0.50556 0.0
C2888 C 0.03962 0.69862 0.51623 0.0
C2889 C 0.03941 0.71702 0.52528 0.0
C2890 C 0.056 0.72395 0.53486 0.0
C2891 C 0.07288 0.7126 0.53554 0.0
C2892 C 0.07319 0.69424 0.52673 0.0
C2893 C 0.05664 0.68723 0.51715 0.0
H2894 H 0.08572 0.71807 0.54287 0.0
H2895 H 0.92399 0.65725 0.44675 0.0
H2896 H 0.52785 0.29108 0.94773 0.0
H2897 H 0.51028 0.30503 0.97539 0.0
H2898 H 0.53266 0.36203 0.96135 0.0
H2899 H 0.5499 0.3482 0.93315 0.0
H2900 H 0.53951 0.34621 1.00163 0.0
H2901 H 0.48832 0.36386 0.95871 0.0
H2902 H 0.46515 0.36019 0.93151 0.0
H2903 H 0.44018 0.30991 0.95902 0.0
H2904 H 0.46315 0.31333 0.98643 0.0
H2905 H 0.4484 0.3457 0.07331 0.0
H2906 H 0.46571 0.35964 0.04543 0.0
H2907 H 0.50864 0.31381 0.04924 0.0
H2908 H 0.49131 0.29985 0.07703 0.0
H2909 H 0.46831 0.34026 0.01253 0.0
H2910 H 0.55043 0.32648 0.03081 0.0
H2911 H 0.57359 0.3325 0.05759 0.0
H2912 H 0.53743 0.37886 0.07892 0.0
H2913 H 0.51389 0.373 0.05243 0.0
C2914 C 0.52878 0.30662 0.95036 0.0
C2915 C 0.54014 0.31861 0.93841 0.0
C2916 C 0.5187 0.31457 0.96605 0.0
C2917 C 0.52014 0.33453 0.97019 0.0
C2918 C 0.5313 0.34663 0.95817 0.0
C2919 C 0.5411 0.33872 0.94217 0.0
C2920 C 0.51146 0.34188 0.98831 0.0
C2921 C 0.52392 0.34537 0.0041 0.0
C2922 C 0.49114 0.34127 0.99118 0.0
C2923 C 0.47746 0.33887 0.97463 0.0
C2924 C 0.47792 0.35199 0.95894 0.0
C2925 C 0.46473 0.35003 0.94354 0.0
C2926 C 0.45114 0.33488 0.94358 0.0
C2927 C 0.45066 0.3217 0.95905 0.0
C2928 C 0.46369 0.3237 0.97457 0.0
C2929 C 0.46181 0.33892 0.06844 0.0
C2930 C 0.4686 0.32172 0.07711 0.0
C2931 C 0.47168 0.34692 0.0526 0.0
C2932 C 0.48857 0.33791 0.04543 0.0
C2933 C 0.49589 0.32127 0.05482 0.0
C2934 C 0.4859 0.31316 0.07051 0.0
C2935 C 0.49645 0.34339 0.02622 0.0
C2936 C 0.48384 0.34205 0.01018 0.0
C2937 C 0.51663 0.34618 0.02316 0.0
C2938 C 0.53036 0.34928 0.0396 0.0
C2939 C 0.54738 0.33795 0.04122 0.0
C2940 C 0.56054 0.34128 0.05641 0.0
C2941 C 0.55692 0.356 0.07 0.0
C2942 C 0.5401 0.36735 0.06849 0.0
C2943 C 0.52679 0.36396 0.05345 0.0
H2944 H 0.56721 0.35866 0.08163 0.0
H2945 H 0.44108 0.33328 0.93155 0.0
H2946 H 0.44888 0.67154 0.93978 0.0
H2947 H 0.45825 0.66357 0.97334 0.0
H2948 H 0.46318 0.72491 0.98642 0.0
H2949 H 0.4539 0.73287 0.95313 0.0
H2950 H 0.49235 0.67224 0.99025 0.0
H2951 H 0.45186 0.73497 0.03148 0.0
H2952 H 0.41937 0.75028 0.03242 0.0
H2953 H 0.39397 0.69863 0.00797 0.0
H2954 H 0.42643 0.68315 0.00661 0.0
H2955 H 0.52622 0.73533 0.07064 0.0
H2956 H 0.50057 0.7261 0.04793 0.0
H2957 H 0.51007 0.66541 0.06139 0.0
H2958 H 0.53608 0.67466 0.08417 0.0
H2959 H 0.46653 0.70589 0.04879 0.0
H2960 H 0.50705 0.64128 0.01714 0.0
H2961 H 0.54005 0.62689 0.01632 0.0
H2962 H 0.56534 0.68396 0.02081 0.0
H2963 H 0.53251 0.69864 0.02142 0.0
C2964 C 0.45197 0.68327 0.94989 0.0
C2965 C 0.45094 0.70281 0.9439 0.0
C2966 C 0.45711 0.67871 0.96903 0.0
C2967 C 0.46098 0.69365 0.98245 0.0
C2968 C 0.45974 0.71315 0.97645 0.0
C2969 C 0.45473 0.71769 0.95736 0.0
C2970 C 0.46868 0.68923 1.00203 0.0
C2971 C 0.48634 0.67902 1.00321 0.0
C2972 C 0.46092 0.69821 0.01889 0.0
C2973 C 0.44157 0.70789 0.01884 0.0
C2974 C 0.43936 0.7269 0.0262 0.0
C2975 C 0.42097 0.73565 0.02674 0.0
C2976 C 0.40464 0.72549 0.02009 0.0
C2977 C 0.40668 0.70659 0.01281 0.0
C2978 C 0.42507 0.69786 0.01205 0.0
C2979 C 0.52269 0.72004 0.06893 0.0
C2980 C 0.5333 0.70566 0.07875 0.0
C2981 C 0.50792 0.71478 0.05612 0.0
C2982 C 0.50358 0.69507 0.05289 0.0
C2983 C 0.51336 0.68068 0.06361 0.0
C2984 C 0.5282 0.68597 0.07649 0.0
C2985 C 0.49061 0.69 0.03654 0.0
C2986 C 0.472 0.69837 0.03601 0.0
C2987 C 0.49759 0.67958 0.02019 0.0
C2988 C 0.51737 0.67098 0.0196 0.0
C2989 C 0.51968 0.65072 0.01793 0.0
C2990 C 0.53833 0.64253 0.01749 0.0
C2991 C 0.55477 0.6545 0.01859 0.0
C2992 C 0.55259 0.6747 0.02003 0.0
C2993 C 0.53397 0.68295 0.02043 0.0
H2994 H 0.5692 0.64813 0.01828 0.0
H2995 H 0.39038 0.73222 0.02066 0.0
H2996 H 0.28345 0.46717 0.94754 0.0
H2997 H 0.29539 0.48568 0.97554 0.0
H2998 H 0.35372 0.46484 0.96483 0.0
H2999 H 0.34194 0.4466 0.93635 0.0
H3000 H 0.32726 0.46124 0.00722 0.0
H3001 H 0.3631 0.5013 0.96269 0.0
H3002 H 0.36989 0.52096 0.93343 0.0
H3003 H 0.32098 0.55776 0.94642 0.0
H3004 H 0.31376 0.53819 0.97564 0.0
H3005 H 0.33894 0.54047 0.0828 0.0
H3006 H 0.3495 0.51734 0.05744 0.0
H3007 H 0.29449 0.52488 0.02802 0.0
H3008 H 0.28375 0.54746 0.05333 0.0
H3009 H 0.33419 0.53311 0.00712 0.0
H3010 H 0.29802 0.48939 0.05117 0.0
H3011 H 0.29372 0.4702 0.08107 0.0
H3012 H 0.34604 0.43829 0.06847 0.0
H3013 H 0.35132 0.4581 0.03909 0.0
C3014 C 0.29882 0.46665 0.95107 0.0
C3015 C 0.31181 0.45561 0.93986 0.0
C3016 C 0.30562 0.47724 0.96694 0.0
C3017 C 0.32541 0.47667 0.97194 0.0
C3018 C 0.33846 0.46558 0.96089 0.0
C3019 C 0.3317 0.45519 0.94476 0.0
C3020 C 0.33161 0.48682 0.98965 0.0
C3021 C 0.32964 0.47686 0.00734 0.0
C3022 C 0.33444 0.50715 0.98955 0.0
C3023 C 0.33783 0.51818 0.97129 0.0
C3024 C 0.35363 0.51341 0.95916 0.0
C3025 C 0.35766 0.52465 0.94268 0.0
C3026 C 0.34598 0.54071 0.93818 0.0
C3027 C 0.33012 0.54543 0.95003 0.0
C3028 C 0.32605 0.53426 0.96654 0.0
C3029 C 0.3291 0.53694 0.07099 0.0
C3030 C 0.31062 0.54572 0.0698 0.0
C3031 C 0.33511 0.52377 0.05666 0.0
C3032 C 0.32271 0.51956 0.04104 0.0
C3033 C 0.30415 0.52804 0.0401 0.0
C3034 C 0.29805 0.54087 0.05451 0.0
C3035 C 0.32915 0.50759 0.02459 0.0
C3036 C 0.33313 0.51733 0.00713 0.0
C3037 C 0.32841 0.48703 0.02499 0.0
C3038 C 0.32542 0.47573 0.04317 0.0
C3039 C 0.30898 0.47877 0.05505 0.0
C3040 C 0.30631 0.46769 0.07191 0.0
C3041 C 0.31971 0.45318 0.07681 0.0
C3042 C 0.33576 0.44966 0.06481 0.0
C3043 C 0.3387 0.46094 0.04814 0.0
H3044 H 0.31755 0.44456 0.08982 0.0
H3045 H 0.3491 0.54937 0.92539 0.0
H3046 H 0.66272 0.54463 0.93128 0.0
H3047 H 0.6441 0.53132 0.95881 0.0
H3048 H 0.69329 0.5413 0.99658 0.0
H3049 H 0.712 0.55411 0.96919 0.0
H3050 H 0.65873 0.49825 0.9787 0.0
H3051 H 0.67141 0.55692 0.04222 0.0
H3052 H 0.66313 0.59123 0.04844 0.0
H3053 H 0.6243 0.59115 0.9995 0.0
H3054 H 0.63181 0.55663 0.99326 0.0
H3055 H 0.71397 0.47083 0.05501 0.0
H3056 H 0.69707 0.4878 0.02876 0.0
H3057 H 0.64472 0.49029 0.06349 0.0
H3058 H 0.66158 0.47284 0.08985 0.0
H3059 H 0.65623 0.5263 0.04514 0.0
H3060 H 0.63971 0.4629 0.02832 0.0
H3061 H 0.64256 0.42751 0.02293 0.0
H3062 H 0.68497 0.43733 0.97806 0.0
H3063 H 0.6828 0.47272 0.98348 0.0
C3064 C 0.66941 0.54413 0.94554 0.0
C3065 C 0.68883 0.55011 0.94818 0.0
C3066 C 0.6587 0.53681 0.96123 0.0
C3067 C 0.66714 0.53592 0.97979 0.0
C3068 C 0.68633 0.54244 0.98247 0.0
C3069 C 0.69714 0.54938 0.96677 0.0
C3070 C 0.65805 0.52461 0.99559 0.0
C3071 C 0.65786 0.50435 0.99321 0.0
C3072 C 0.65556 0.53273 0.01435 0.0
C3073 C 0.65218 0.55398 0.01727 0.0
C3074 C 0.66096 0.56407 0.03284 0.0
C3075 C 0.65633 0.58359 0.03644 0.0
C3076 C 0.64306 0.59331 0.0245 0.0
C3077 C 0.63451 0.58357 0.00881 0.0
C3078 C 0.639 0.56402 0.00519 0.0
C3079 C 0.6989 0.47506 0.05708 0.0
C3080 C 0.689 0.47057 0.07431 0.0
C3081 C 0.68921 0.48454 0.04206 0.0
C3082 C 0.66957 0.48983 0.04413 0.0
C3083 C 0.65979 0.486 0.06161 0.0
C3084 C 0.66943 0.47617 0.07659 0.0
C3085 C 0.6601 0.50035 0.02809 0.0
C3086 C 0.6566 0.5203 0.03054 0.0
C3087 C 0.65914 0.49198 0.00933 0.0
C3088 C 0.66099 0.47058 0.00628 0.0
C3089 C 0.64978 0.45754 0.01742 0.0
C3090 C 0.65127 0.43744 0.01434 0.0
C3091 C 0.66387 0.43018 1.0001 0.0
C3092 C 0.67515 0.44298 0.98903 0.0
C3093 C 0.67377 0.46308 0.99209 0.0
H3094 H 0.66489 0.41465 0.9976 0.0
H3095 H 0.63958 0.60845 0.02726 0.0
H3096 H 0.26576 0.19895 0.36744 0.0
H3097 H 0.23695 0.21806 0.35993 0.0
H3098 H 0.21615 0.17215 0.32222 0.0
H3099 H 0.2457 0.15329 0.32912 0.0
H3100 H 0.21618 0.20349 0.30343 0.0
H3101 H 0.19041 0.18763 0.36491 0.0
H3102 H 0.19206 0.18159 0.40023 0.0
H3103 H 0.20533 0.24187 0.41035 0.0
H3104 H 0.20422 0.24824 0.3751 0.0
H3105 H 0.1461 0.29442 0.31113 0.0
H3106 H 0.15363 0.26079 0.32076 0.0
H3107 H 0.213 0.26869 0.30171 0.0
H3108 H 0.20581 0.30207 0.29253 0.0
H3109 H 0.18041 0.24803 0.34775 0.0
H3110 H 0.23014 0.22878 0.28137 0.0
H3111 H 0.2308 0.23428 0.24596 0.0
H3112 H 0.16879 0.24264 0.24577 0.0
H3113 H 0.16767 0.23679 0.28115 0.0
C3114 C 0.25472 0.19264 0.35809 0.0
C3115 C 0.25787 0.17468 0.34887 0.0
C3116 C 0.23814 0.20354 0.35386 0.0
C3117 C 0.22414 0.19646 0.3407 0.0
C3118 C 0.22668 0.17788 0.33247 0.0
C3119 C 0.2435 0.16712 0.33643 0.0
C3120 C 0.20886 0.20983 0.3333 0.0
C3121 C 0.20804 0.21295 0.31313 0.0
C3122 C 0.19775 0.22186 0.34589 0.0
C3123 C 0.19723 0.21841 0.36726 0.0
C3124 C 0.19366 0.19962 0.37465 0.0
C3125 C 0.19456 0.19612 0.39467 0.0
C3126 C 0.19885 0.21133 0.40751 0.0
C3127 C 0.20201 0.23011 0.40038 0.0
C3128 C 0.20121 0.23368 0.38036 0.0
C3129 C 0.16073 0.28892 0.30895 0.0
C3130 C 0.1753 0.30087 0.30085 0.0
C3131 C 0.16497 0.26972 0.31439 0.0
C3132 C 0.18376 0.26218 0.31161 0.0
C3133 C 0.19826 0.27407 0.3035 0.0
C3134 C 0.19409 0.29316 0.29819 0.0
C3135 C 0.18903 0.24233 0.31814 0.0
C3136 C 0.18793 0.23803 0.33808 0.0
C3137 C 0.19829 0.22908 0.30536 0.0
C3138 C 0.19883 0.23236 0.28398 0.0
C3139 C 0.2166 0.2316 0.27378 0.0
C3140 C 0.21707 0.23483 0.2537 0.0
C3141 C 0.19985 0.23883 0.24362 0.0
C3142 C 0.18212 0.23957 0.2536 0.0
C3143 C 0.18157 0.23631 0.27368 0.0
H3144 H 0.20025 0.24135 0.22808 0.0
H3145 H 0.19977 0.20856 0.42298 0.0
H3146 H 0.71729 0.16462 0.29342 0.0
H3147 H 0.74465 0.1724 0.3147 0.0
H3148 H 0.705 0.18116 0.36269 0.0
H3149 H 0.67745 0.1738 0.34126 0.0
H3150 H 0.72718 0.21214 0.3572 0.0
H3151 H 0.73965 0.14518 0.36524 0.0
H3152 H 0.74378 0.11075 0.35587 0.0
H3153 H 0.79314 0.12586 0.32058 0.0
H3154 H 0.78915 0.16043 0.32948 0.0
H3155 H 0.80934 0.25683 0.39516 0.0
H3156 H 0.78594 0.23002 0.39607 0.0
H3157 H 0.80611 0.21041 0.33988 0.0
H3158 H 0.83018 0.23648 0.33934 0.0
H3159 H 0.79193 0.18015 0.36037 0.0
H3160 H 0.77107 0.24649 0.34378 0.0
H3161 H 0.76681 0.28142 0.3512 0.0
H3162 H 0.73269 0.26692 0.40156 0.0
H3163 H 0.73699 0.23187 0.39454 0.0
C3164 C 0.71443 0.16789 0.30859 0.0
C3165 C 0.69522 0.16883 0.3156 0.0
C3166 C 0.7301 0.17209 0.32082 0.0
C3167 C 0.72692 0.17724 0.34036 0.0
C3168 C 0.70781 0.17712 0.3477 0.0
C3169 C 0.69209 0.17286 0.33545 0.0
C3170 C 0.74316 0.18561 0.35194 0.0
C3171 C 0.74115 0.20485 0.35854 0.0
C3172 C 0.76149 0.17626 0.35343 0.0
C3173 C 0.76405 0.15545 0.34801 0.0
C3174 C 0.75131 0.14119 0.35538 0.0
C3175 C 0.75364 0.12164 0.35017 0.0
C3176 C 0.76871 0.11612 0.33763 0.0
C3177 C 0.78149 0.13015 0.33031 0.0
C3178 C 0.77923 0.14973 0.33547 0.0
C3179 C 0.80937 0.24635 0.38336 0.0
C3180 C 0.82121 0.24914 0.36686 0.0
C3181 C 0.79589 0.23107 0.38386 0.0
C3182 C 0.79385 0.2186 0.36775 0.0
C3183 C 0.80724 0.21998 0.35238 0.0
C3184 C 0.82084 0.23507 0.35197 0.0
C3185 C 0.77597 0.20676 0.36495 0.0
C3186 C 0.77771 0.18702 0.35987 0.0
C3187 C 0.75733 0.21562 0.36471 0.0
C3188 C 0.75452 0.23663 0.36878 0.0
C3189 C 0.76273 0.25078 0.35648 0.0
C3190 C 0.76032 0.27058 0.36061 0.0
C3191 C 0.74953 0.27639 0.37687 0.0
C3192 C 0.74108 0.2624 0.389 0.0
C3193 C 0.7435 0.24257 0.38496 0.0
H3194 H 0.74768 0.29173 0.38005 0.0
H3195 H 0.77048 0.10097 0.33361 0.0
H3196 H 0.8047 0.68355 0.30016 0.0
H3197 H 0.79435 0.71255 0.31801 0.0
H3198 H 0.85433 0.73017 0.3246 0.0
H3199 H 0.86483 0.70069 0.30694 0.0
H3200 H 0.82861 0.73978 0.3577 0.0
H3201 H 0.83365 0.74884 0.28872 0.0
H3202 H 0.82893 0.73839 0.25469 0.0
H3203 H 0.7669 0.73877 0.26284 0.0
H3204 H 0.77126 0.74889 0.29704 0.0
H3205 H 0.76257 0.83322 0.33586 0.0
H3206 H 0.79104 0.81278 0.32924 0.0
H3207 H 0.77254 0.77279 0.37406 0.0
H3208 H 0.74458 0.79359 0.38113 0.0
H3209 H 0.78664 0.77947 0.3143 0.0
H3210 H 0.8079 0.74218 0.38808 0.0
H3211 H 0.81357 0.7517 0.42221 0.0
H3212 H 0.82569 0.81037 0.40432 0.0
H3213 H 0.82042 0.80116 0.37003 0.0
C3214 C 0.81568 0.69341 0.30578 0.0
C3215 C 0.8355 0.69019 0.30198 0.0
C3216 C 0.80979 0.70988 0.31602 0.0
C3217 C 0.82358 0.72359 0.32232 0.0
C3218 C 0.84351 0.71972 0.31982 0.0
C3219 C 0.84947 0.703 0.30971 0.0
C3220 C 0.81672 0.74291 0.32892 0.0
C3221 C 0.81957 0.74868 0.34829 0.0
C3222 C 0.80554 0.75472 0.31632 0.0
C3223 C 0.8028 0.74958 0.29547 0.0
C3224 C 0.81901 0.74667 0.28326 0.0
C3225 C 0.8164 0.74078 0.26395 0.0
C3226 C 0.79763 0.7379 0.25661 0.0
C3227 C 0.78143 0.74102 0.26855 0.0
C3228 C 0.78396 0.74687 0.28789 0.0
C3229 C 0.76504 0.82041 0.34472 0.0
C3230 C 0.7514 0.81486 0.3589 0.0
C3231 C 0.78127 0.80874 0.34095 0.0
C3232 C 0.78397 0.79118 0.3511 0.0
C3233 C 0.77108 0.78641 0.36627 0.0
C3234 C 0.75501 0.79826 0.37025 0.0
C3235 C 0.79773 0.77626 0.34354 0.0
C3236 C 0.7961 0.77114 0.3238 0.0
C3237 C 0.81025 0.76536 0.3558 0.0
C3238 C 0.81365 0.77097 0.37643 0.0
C3239 C 0.8119 0.75709 0.39138 0.0
C3240 C 0.81502 0.76244 0.41078 0.0
C3241 C 0.81995 0.78164 0.41544 0.0
C3242 C 0.82182 0.79552 0.4007 0.0
C3243 C 0.81873 0.79024 0.38128 0.0
H3244 H 0.82235 0.78575 0.43046 0.0
H3245 H 0.79564 0.73327 0.24168 0.0
H3246 H 0.1665 0.77168 0.34007 0.0
H3247 H 0.18548 0.80111 0.33311 0.0
H3248 H 0.23282 0.77868 0.36779 0.0
H3249 H 0.21363 0.74968 0.37531 0.0
H3250 H 0.23243 0.81914 0.36706 0.0
H3251 H 0.22419 0.76457 0.32018 0.0
H3252 H 0.20288 0.74487 0.29895 0.0
H3253 H 0.18615 0.79619 0.26754 0.0
H3254 H 0.2068 0.81633 0.28902 0.0
H3255 H 0.32381 0.82873 0.32381 0.0
H3256 H 0.29266 0.82069 0.33878 0.0
H3257 H 0.26235 0.84677 0.29032 0.0
H3258 H 0.29367 0.85458 0.27508 0.0
H3259 H 0.24778 0.81301 0.29672 0.0
H3260 H 0.26113 0.86656 0.33621 0.0
H3261 H 0.28083 0.88856 0.3566 0.0
H3262 H 0.2848 0.8445 0.40073 0.0
H3263 H 0.26598 0.82189 0.38025 0.0
C3264 C 0.18061 0.77352 0.3469 0.0
C3265 C 0.18878 0.75839 0.35799 0.0
C3266 C 0.19145 0.79028 0.34289 0.0
C3267 C 0.21077 0.79179 0.34946 0.0
C3268 C 0.21799 0.77776 0.36247 0.0
C3269 C 0.20702 0.76117 0.36676 0.0
C3270 C 0.22468 0.80535 0.34003 0.0
C3271 C 0.23582 0.81792 0.35169 0.0
C3272 C 0.22849 0.80435 0.31976 0.0
C3273 C 0.21682 0.792 0.30638 0.0
C3274 C 0.21585 0.77168 0.30885 0.0
C3275 C 0.20377 0.76047 0.29688 0.0
C3276 C 0.19308 0.76928 0.28201 0.0
C3277 C 0.1944 0.78937 0.27911 0.0
C3278 C 0.2062 0.80072 0.29124 0.0
C3279 C 0.31053 0.83322 0.31657 0.0
C3280 C 0.31119 0.84229 0.29826 0.0
C3281 C 0.29268 0.82862 0.32515 0.0
C3282 C 0.27508 0.83326 0.31578 0.0
C3283 C 0.2757 0.84301 0.29783 0.0
C3284 C 0.29359 0.84748 0.28915 0.0
C3285 C 0.25627 0.82623 0.32393 0.0
C3286 C 0.2442 0.81481 0.312 0.0
C3287 C 0.25136 0.8287 0.34382 0.0
C3288 C 0.26228 0.8424 0.35654 0.0
C3289 C 0.26638 0.86146 0.35017 0.0
C3290 C 0.27746 0.87403 0.36172 0.0
C3291 C 0.28426 0.86785 0.37982 0.0
C3292 C 0.27974 0.8492 0.38658 0.0
C3293 C 0.26889 0.83646 0.37498 0.0
H3294 H 0.2931 0.87751 0.38854 0.0
H3295 H 0.18389 0.7605 0.27268 0.0
H3296 H 0.15549 0.72253 0.71487 0.0
H3297 H 0.16347 0.74909 0.69287 0.0
H3298 H 0.17189 0.70794 0.64601 0.0
H3299 H 0.16459 0.68114 0.66829 0.0
H3300 H 0.20331 0.72798 0.6515 0.0
H3301 H 0.13834 0.7455 0.64174 0.0
H3302 H 0.10388 0.75227 0.64907 0.0
H3303 H 0.12066 0.80061 0.68508 0.0
H3304 H 0.15526 0.79402 0.67815 0.0
H3305 H 0.25407 0.80877 0.61627 0.0
H3306 H 0.22653 0.7864 0.61531 0.0
H3307 H 0.20893 0.80547 0.67252 0.0
H3308 H 0.23593 0.82865 0.67325 0.0
H3309 H 0.17721 0.79535 0.64948 0.0
H3310 H 0.24142 0.76868 0.66695 0.0
H3311 H 0.27593 0.76137 0.65997 0.0
H3312 H 0.25918 0.72906 0.60912 0.0
H3313 H 0.22456 0.73648 0.61561 0.0
C3314 C 0.15864 0.71917 0.69978 0.0
C3315 C 0.15981 0.69976 0.69341 0.0
C3316 C 0.16291 0.73441 0.6871 0.0
C3317 C 0.16826 0.73055 0.66773 0.0
C3318 C 0.16777 0.71126 0.66089 0.0
C3319 C 0.16355 0.69596 0.67363 0.0
C3320 C 0.17804 0.74606 0.65633 0.0
C3321 C 0.19729 0.74256 0.6504 0.0
C3322 C 0.17032 0.76514 0.65503 0.0
C3323 C 0.14948 0.76925 0.65937 0.0
C3324 C 0.13473 0.75753 0.65128 0.0
C3325 C 0.11514 0.76134 0.65537 0.0
C3326 C 0.11008 0.77687 0.66753 0.0
C3327 C 0.1246 0.78862 0.67562 0.0
C3328 C 0.14422 0.78487 0.67157 0.0
C3329 C 0.24398 0.80878 0.62839 0.0
C3330 C 0.2474 0.82033 0.64501 0.0
C3331 C 0.22826 0.79588 0.62782 0.0
C3332 C 0.2159 0.79406 0.64396 0.0
C3333 C 0.21834 0.80662 0.65991 0.0
C3334 C 0.23395 0.81966 0.66043 0.0
C3335 C 0.20252 0.77724 0.64575 0.0
C3336 C 0.18277 0.78057 0.64986 0.0
C3337 C 0.20969 0.75791 0.64538 0.0
C3338 C 0.23047 0.75335 0.64161 0.0
C3339 C 0.24512 0.76013 0.65421 0.0
C3340 C 0.26468 0.75596 0.65036 0.0
C3341 C 0.26975 0.7448 0.6341 0.0
C3342 C 0.25524 0.73775 0.62168 0.0
C3343 C 0.23565 0.74194 0.62542 0.0
H3344 H 0.2849 0.74158 0.63115 0.0
H3345 H 0.0949 0.77979 0.67069 0.0
H3346 H 0.32531 0.16868 0.68981 0.0
H3347 H 0.29828 0.1804 0.66971 0.0
H3348 H 0.33504 0.22622 0.64723 0.0
H3349 H 0.36188 0.21469 0.66781 0.0
H3350 H 0.30369 0.24131 0.66049 0.0
H3351 H 0.31621 0.19017 0.61691 0.0
H3352 H 0.3235 0.15699 0.6056 0.0
H3353 H 0.2687 0.13684 0.62797 0.0
H3354 H 0.26113 0.16997 0.63973 0.0
H3355 H 0.22385 0.28028 0.61174 0.0
H3356 H 0.25338 0.26031 0.61107 0.0
H3357 H 0.22727 0.22021 0.65168 0.0
H3358 H 0.19773 0.24024 0.65255 0.0
H3359 H 0.25539 0.20303 0.62264 0.0
H3360 H 0.24702 0.25694 0.66944 0.0
H3361 H 0.24025 0.29172 0.67564 0.0
H3362 H 0.29078 0.30775 0.64252 0.0
H3363 H 0.29726 0.27314 0.6352 0.0
C3364 C 0.32769 0.18087 0.6801 0.0
C3365 C 0.34555 0.19076 0.68013 0.0
C3366 C 0.3123 0.18754 0.66857 0.0
C3367 C 0.31461 0.20417 0.65683 0.0
C3368 C 0.33289 0.21338 0.65613 0.0
C3369 C 0.34823 0.20677 0.66776 0.0
C3370 C 0.29734 0.21336 0.64753 0.0
C3371 C 0.29342 0.23298 0.65184 0.0
C3372 C 0.28379 0.20258 0.63628 0.0
C3373 C 0.28818 0.18256 0.62937 0.0
C3374 C 0.30577 0.17865 0.61959 0.0
C3375 C 0.30994 0.15983 0.61305 0.0
C3376 C 0.29662 0.14476 0.61608 0.0
C3377 C 0.27903 0.14852 0.62564 0.0
C3378 C 0.27477 0.16734 0.63223 0.0
C3379 C 0.22412 0.2668 0.61992 0.0
C3380 C 0.20868 0.26191 0.63244 0.0
C3381 C 0.24098 0.25543 0.61952 0.0
C3382 C 0.24253 0.23895 0.63149 0.0
C3383 C 0.2263 0.23286 0.64231 0.0
C3384 C 0.20953 0.24437 0.64293 0.0
C3385 C 0.26187 0.23064 0.636 0.0
C3386 C 0.266 0.21127 0.63096 0.0
C3387 C 0.27589 0.24174 0.64623 0.0
C3388 C 0.27248 0.26245 0.65155 0.0
C3389 C 0.25659 0.26788 0.66333 0.0
C3390 C 0.25279 0.28756 0.66704 0.0
C3391 C 0.26512 0.3019 0.65956 0.0
C3392 C 0.28123 0.29662 0.6483 0.0
C3393 C 0.28492 0.27698 0.64427 0.0
H3394 H 0.26217 0.31712 0.66249 0.0
H3395 H 0.2999 0.13019 0.61099 0.0
H3396 H 0.77563 0.17377 0.68075 0.0
H3397 H 0.80233 0.19689 0.68582 0.0
H3398 H 0.78094 0.23202 0.63837 0.0
H3399 H 0.75465 0.20849 0.63282 0.0
H3400 H 0.82053 0.23564 0.64204 0.0
H3401 H 0.76385 0.23956 0.683 0.0
H3402 H 0.73909 0.22638 0.70542 0.0
H3403 H 0.78369 0.2129 0.7471 0.0
H3404 H 0.80878 0.22566 0.72473 0.0
H3405 H 0.83441 0.33225 0.67959 0.0
H3406 H 0.82644 0.30106 0.66431 0.0
H3407 H 0.84982 0.27069 0.71406 0.0
H3408 H 0.85746 0.3019 0.72952 0.0
H3409 H 0.81268 0.26247 0.70868 0.0
H3410 H 0.86905 0.26506 0.66755 0.0
H3411 H 0.8918 0.27979 0.64402 0.0
H3412 H 0.84588 0.28396 0.60181 0.0
H3413 H 0.82276 0.26954 0.62518 0.0
C3414 C 0.77705 0.18612 0.67104 0.0
C3415 C 0.76305 0.18957 0.65658 0.0
C3416 C 0.79227 0.19928 0.67391 0.0
C3417 C 0.79332 0.2164 0.66276 0.0
C3418 C 0.78037 0.21894 0.64716 0.0
C3419 C 0.76533 0.20555 0.64404 0.0
C3420 C 0.80553 0.23292 0.66943 0.0
C3421 C 0.81888 0.24158 0.65659 0.0
C3422 C 0.80332 0.24062 0.68843 0.0
C3423 C 0.78821 0.23336 0.70211 0.0
C3424 C 0.76839 0.23368 0.6969 0.0
C3425 C 0.75429 0.22628 0.70959 0.0
C3426 C 0.75981 0.21876 0.72765 0.0
C3427 C 0.77944 0.21869 0.73308 0.0
C3428 C 0.79361 0.22599 0.7204 0.0
C3429 C 0.83854 0.3189 0.6869 0.0
C3430 C 0.84636 0.31942 0.70579 0.0
C3431 C 0.83401 0.30106 0.67815 0.0
C3432 C 0.83747 0.28352 0.68808 0.0
C3433 C 0.84697 0.28405 0.70617 0.0
C3434 C 0.85133 0.30185 0.71498 0.0
C3435 C 0.82807 0.2652 0.68145 0.0
C3436 C 0.81486 0.25634 0.69428 0.0
C3437 C 0.8302 0.25771 0.66234 0.0
C3438 C 0.84411 0.26633 0.64821 0.0
C3439 C 0.86375 0.26926 0.65332 0.0
C3440 C 0.87672 0.27754 0.63999 0.0
C3441 C 0.87028 0.28285 0.62145 0.0
C3442 C 0.85085 0.27985 0.61618 0.0
C3443 C 0.83781 0.2716 0.62946 0.0
H3444 H 0.88035 0.28926 0.61115 0.0
H3445 H 0.74888 0.21303 0.73745 0.0
H3446 H 0.70481 0.83503 0.72237 0.0
H3447 H 0.73051 0.82541 0.69975 0.0
H3448 H 0.68762 0.81595 0.65481 0.0
H3449 H 0.66176 0.82544 0.67753 0.0
H3450 H 0.70989 0.78438 0.66048 0.0
H3451 H 0.72178 0.85092 0.64862 0.0
H3452 H 0.72667 0.88566 0.65611 0.0
H3453 H 0.77866 0.87184 0.68797 0.0
H3454 H 0.77395 0.83694 0.68093 0.0
H3455 H 0.79127 0.74054 0.61577 0.0
H3456 H 0.7659 0.76559 0.6177 0.0
H3457 H 0.78941 0.78526 0.67254 0.0
H3458 H 0.81499 0.76061 0.67048 0.0
H3459 H 0.77432 0.81576 0.65101 0.0
H3460 H 0.75487 0.75054 0.67243 0.0
H3461 H 0.7502 0.71528 0.66718 0.0
H3462 H 0.71243 0.72717 0.6188 0.0
H3463 H 0.71712 0.76249 0.62363 0.0
C3464 C 0.70092 0.83129 0.70755 0.0
C3465 C 0.68131 0.83088 0.70174 0.0
C3466 C 0.71562 0.82597 0.69456 0.0
C3467 C 0.71101 0.82013 0.67551 0.0
C3468 C 0.69151 0.82058 0.66938 0.0
C3469 C 0.67678 0.82606 0.68235 0.0
C3470 C 0.72629 0.81104 0.66323 0.0
C3471 C 0.72377 0.79148 0.65781 0.0
C3472 C 0.74448 0.8202 0.65997 0.0
C3473 C 0.74748 0.84123 0.66423 0.0
C3474 C 0.73421 0.85523 0.6573 0.0
C3475 C 0.73696 0.87498 0.66147 0.0
C3476 C 0.75297 0.88096 0.67251 0.0
C3477 C 0.76628 0.86719 0.67939 0.0
C3478 C 0.7636 0.84741 0.67527 0.0
C3479 C 0.79137 0.75061 0.62793 0.0
C3480 C 0.80491 0.74845 0.64314 0.0
C3481 C 0.77684 0.76486 0.62904 0.0
C3482 C 0.77563 0.7771 0.64539 0.0
C3483 C 0.79007 0.77596 0.6598 0.0
C3484 C 0.80455 0.76174 0.65871 0.0
C3485 C 0.75803 0.78905 0.64913 0.0
C3486 C 0.76017 0.80902 0.65298 0.0
C3487 C 0.73947 0.7803 0.6511 0.0
C3488 C 0.73647 0.75911 0.64828 0.0
C3489 C 0.74564 0.74561 0.66062 0.0
C3490 C 0.743 0.72562 0.65772 0.0
C3491 C 0.73105 0.71898 0.64264 0.0
C3492 C 0.72169 0.73233 0.63046 0.0
C3493 C 0.72433 0.75234 0.63328 0.0
H3494 H 0.72902 0.7035 0.64041 0.0
H3495 H 0.75507 0.89625 0.67573 0.0
H3496 H 0.3775 0.25956 0.20789 0.0
H3497 H 0.37387 0.23076 0.22833 0.0
H3498 H 0.32113 0.2155 0.19762 0.0
H3499 H 0.32441 0.24483 0.17759 0.0
H3500 H 0.3143 0.21571 0.23397 0.0
H3501 H 0.36489 0.18727 0.19589 0.0
H3502 H 0.39675 0.18514 0.17943 0.0
H3503 H 0.42596 0.1899 0.23447 0.0
H3504 H 0.3943 0.19242 0.25126 0.0
H3505 H 0.29719 0.14092 0.29803 0.0
H3506 H 0.30981 0.15117 0.26638 0.0
H3507 H 0.35548 0.1835 0.29491 0.0
H3508 H 0.34279 0.17365 0.32655 0.0
H3509 H 0.3653 0.16935 0.25582 0.0
H3510 H 0.31562 0.20544 0.29165 0.0
H3511 H 0.28428 0.20764 0.30911 0.0
H3512 H 0.25397 0.18902 0.2577 0.0
H3513 H 0.28524 0.18619 0.24007 0.0
C3514 C 0.3654 0.24979 0.2052 0.0
C3515 C 0.3512 0.25439 0.19123 0.0
C3516 C 0.36338 0.23324 0.21681 0.0
C3517 C 0.34733 0.22076 0.21441 0.0
C3518 C 0.33365 0.22488 0.19975 0.0
C3519 C 0.3355 0.24161 0.18834 0.0
C3520 C 0.34348 0.2051 0.22881 0.0
C3521 C 0.32533 0.20522 0.23827 0.0
C3522 C 0.35801 0.19172 0.2349 0.0
C3523 C 0.37715 0.19016 0.22484 0.0
C3524 C 0.37809 0.18802 0.20449 0.0
C3525 C 0.39613 0.18672 0.19509 0.0
C3526 C 0.41337 0.18741 0.20589 0.0
C3527 C 0.4126 0.18937 0.22612 0.0
C3528 C 0.3946 0.19071 0.23558 0.0
C3529 C 0.31033 0.14964 0.29753 0.0
C3530 C 0.31868 0.15693 0.31476 0.0
C3531 C 0.3176 0.15536 0.27944 0.0
C3532 C 0.3333 0.16839 0.27839 0.0
C3533 C 0.34332 0.17345 0.29546 0.0
C3534 C 0.33601 0.1678 0.31357 0.0
C3535 C 0.3363 0.18017 0.26065 0.0
C3536 C 0.35423 0.17948 0.25089 0.0
C3537 C 0.32164 0.19316 0.25422 0.0
C3538 C 0.30279 0.19532 0.26463 0.0
C3539 C 0.30229 0.20164 0.28412 0.0
C3540 C 0.28455 0.20301 0.29404 0.0
C3541 C 0.26716 0.19839 0.28454 0.0
C3542 C 0.26747 0.1925 0.26506 0.0
C3543 C 0.2852 0.19098 0.2551 0.0
H3544 H 0.25344 0.19942 0.29227 0.0
H3545 H 0.42731 0.1864 0.19859 0.0
H3546 H 0.77961 0.33687 0.17342 0.0
H3547 H 0.80398 0.33252 0.199 0.0
H3548 H 0.77565 0.37676 0.23358 0.0
H3549 H 0.75151 0.38147 0.20774 0.0
H3550 H 0.81619 0.37291 0.24218 0.0
H3551 H 0.75791 0.33417 0.23782 0.0
H3552 H 0.73381 0.31381 0.22063 0.0
H3553 H 0.7781 0.27144 0.20801 0.0
H3554 H 0.80256 0.29174 0.22488 0.0
H3555 H 0.82301 0.33187 0.33728 0.0
H3556 H 0.81417 0.34697 0.30634 0.0
H3557 H 0.83825 0.29772 0.2754 0.0
H3558 H 0.84651 0.28229 0.30646 0.0
H3559 H 0.80259 0.30523 0.26377 0.0
H3560 H 0.86001 0.34457 0.27496 0.0
H3561 H 0.8801 0.36512 0.29655 0.0
H3562 H 0.83398 0.40722 0.30009 0.0
H3563 H 0.81348 0.38682 0.2787 0.0
C3564 C 0.77914 0.34623 0.18612 0.0
C3565 C 0.76361 0.35924 0.18887 0.0
C3566 C 0.79305 0.3438 0.20067 0.0
C3567 C 0.79129 0.35401 0.21831 0.0
C3568 C 0.77721 0.36873 0.22008 0.0
C3569 C 0.7634 0.37136 0.20536 0.0
C3570 C 0.80083 0.34625 0.23594 0.0
C3571 C 0.81334 0.35812 0.24693 0.0
C3572 C 0.79682 0.32703 0.24222 0.0
C3573 C 0.7821 0.31456 0.23242 0.0
C3574 C 0.76253 0.32056 0.23129 0.0
C3575 C 0.74879 0.30901 0.22165 0.0
C3576 C 0.75441 0.29135 0.21321 0.0
C3577 C 0.77377 0.28515 0.21451 0.0
C3578 C 0.78758 0.29665 0.22413 0.0
C3579 C 0.82677 0.3245 0.32384 0.0
C3580 C 0.83542 0.30596 0.32415 0.0
C3581 C 0.82179 0.33315 0.30617 0.0
C3582 C 0.82579 0.32359 0.28853 0.0
C3583 C 0.8351 0.30537 0.28885 0.0
C3584 C 0.83979 0.29657 0.30653 0.0
C3585 C 0.8185 0.33161 0.26991 0.0
C3586 C 0.80602 0.31984 0.25883 0.0
C3587 C 0.82226 0.35101 0.26392 0.0
C3588 C 0.83515 0.36408 0.27535 0.0
C3589 C 0.85416 0.35823 0.28031 0.0
C3590 C 0.86559 0.36981 0.29256 0.0
C3591 C 0.85821 0.38732 0.29985 0.0
C3592 C 0.83958 0.39355 0.29453 0.0
C3593 C 0.82808 0.38203 0.28229 0.0
H3594 H 0.86697 0.3961 0.30955 0.0
H3595 H 0.74376 0.28247 0.2057 0.0
H3596 H 0.67548 0.74353 0.21217 0.0
H3597 H 0.6743 0.76961 0.23625 0.0
H3598 H 0.64028 0.80491 0.19706 0.0
H3599 H 0.64118 0.77848 0.17268 0.0
H3600 H 0.68239 0.81799 0.22421 0.0
H3601 H 0.61334 0.80393 0.22283 0.0
H3602 H 0.5853 0.78174 0.21926 0.0
H3603 H 0.60522 0.74827 0.26813 0.0
H3604 H 0.63358 0.77007 0.27176 0.0
H3605 H 0.68928 0.86129 0.31884 0.0
H3606 H 0.67262 0.85662 0.28735 0.0
H3607 H 0.67031 0.79467 0.29798 0.0
H3608 H 0.68684 0.79937 0.3291 0.0
H3609 H 0.63718 0.80767 0.27962 0.0
H3610 H 0.7087 0.81443 0.27423 0.0
H3611 H 0.73915 0.83319 0.27791 0.0
H3612 H 0.7158 0.87866 0.24191 0.0
H3613 H 0.6851 0.86022 0.23825 0.0
C3614 C 0.66799 0.75693 0.20851 0.0
C3615 C 0.65857 0.75908 0.1905 0.0
C3616 C 0.66724 0.77175 0.22231 0.0
C3617 C 0.65717 0.78906 0.21838 0.0
C3618 C 0.64805 0.79156 0.2003 0.0
C3619 C 0.64858 0.77653 0.18647 0.0
C3620 C 0.65615 0.80387 0.23391 0.0
C3621 C 0.67202 0.81651 0.23605 0.0
C3622 C 0.64279 0.80158 0.24936 0.0
C3623 C 0.62563 0.78857 0.24748 0.0
C3624 C 0.61182 0.79174 0.23271 0.0
C3625 C 0.59586 0.77925 0.23069 0.0
C3626 C 0.59349 0.76359 0.24344 0.0
C3627 C 0.60707 0.76041 0.25826 0.0
C3628 C 0.62308 0.77285 0.26032 0.0
C3629 C 0.68476 0.8468 0.31449 0.0
C3630 C 0.68932 0.83063 0.3261 0.0
C3631 C 0.67527 0.84414 0.29662 0.0
C3632 C 0.67028 0.82529 0.29034 0.0
C3633 C 0.67387 0.80935 0.3026 0.0
C3634 C 0.6834 0.81199 0.32028 0.0
C3635 C 0.66381 0.82133 0.27016 0.0
C3636 C 0.64676 0.81039 0.26736 0.0
C3637 C 0.67613 0.82515 0.25408 0.0
C3638 C 0.69458 0.83611 0.25617 0.0
C3639 C 0.71004 0.82848 0.26721 0.0
C3640 C 0.72734 0.83904 0.26928 0.0
C3641 C 0.72939 0.85714 0.2602 0.0
C3642 C 0.71417 0.86467 0.24898 0.0
C3643 C 0.69682 0.85418 0.24691 0.0
H3644 H 0.74279 0.86529 0.26181 0.0
H3645 H 0.58113 0.75393 0.24186 0.0
H3646 H 0.25685 0.63446 0.19614 0.0
H3647 H 0.23074 0.63807 0.21989 0.0
H3648 H 0.21061 0.68962 0.19027 0.0
H3649 H 0.23657 0.68595 0.16614 0.0
H3650 H 0.22557 0.69557 0.22722 0.0
H3651 H 0.18028 0.65228 0.19638 0.0
H3652 H 0.16967 0.62141 0.18141 0.0
H3653 H 0.18068 0.59119 0.23495 0.0
H3654 H 0.19175 0.62182 0.25018 0.0
H3655 H 0.16265 0.7254 0.30134 0.0
H3656 H 0.17165 0.71315 0.26923 0.0
H3657 H 0.19479 0.66093 0.29524 0.0
H3658 H 0.18689 0.67349 0.32758 0.0
H3659 H 0.17501 0.65466 0.25859 0.0
H3660 H 0.22552 0.69124 0.28728 0.0
H3661 H 0.24534 0.7172 0.30215 0.0
H3662 H 0.23239 0.75508 0.2542 0.0
H3663 H 0.212 0.72951 0.23928 0.0
C3664 C 0.24638 0.6461 0.19413 0.0
C3665 C 0.24899 0.66016 0.17946 0.0
C3666 C 0.23139 0.64807 0.20772 0.0
C3667 C 0.21879 0.66412 0.20684 0.0
C3668 C 0.22019 0.67711 0.19113 0.0
C3669 C 0.23515 0.67512 0.17751 0.0
C3670 C 0.20779 0.66992 0.22442 0.0
C3671 C 0.214 0.68698 0.23374 0.0
C3672 C 0.19376 0.65786 0.23349 0.0
C3673 C 0.18701 0.63939 0.22439 0.0
C3674 C 0.18064 0.63904 0.20493 0.0
C3675 C 0.17451 0.62158 0.1964 0.0
C3676 C 0.17455 0.60435 0.20721 0.0
C3677 C 0.18068 0.60455 0.22659 0.0
C3678 C 0.18687 0.62198 0.23518 0.0
C3679 C 0.16952 0.71123 0.3003 0.0
C3680 C 0.17442 0.70065 0.31715 0.0
C3681 C 0.17451 0.70421 0.2819 0.0
C3682 C 0.18407 0.68627 0.27996 0.0
C3683 C 0.18739 0.67481 0.29651 0.0
C3684 C 0.18275 0.68201 0.31499 0.0
C3685 C 0.19251 0.68061 0.26099 0.0
C3686 C 0.18608 0.66354 0.25166 0.0
C3687 C 0.20701 0.69221 0.2521 0.0
C3688 C 0.21692 0.70853 0.26232 0.0
C3689 C 0.22642 0.70527 0.28016 0.0
C3690 C 0.23795 0.71985 0.28849 0.0
C3691 C 0.24029 0.7377 0.27902 0.0
C3692 C 0.23071 0.74118 0.26143 0.0
C3693 C 0.21904 0.7267 0.2531 0.0
H3694 H 0.24934 0.74891 0.28543 0.0
H3695 H 0.1698 0.59086 0.20057 0.0
H3696 H 0.33298 0.82946 0.66806 0.0
H3697 H 0.35085 0.81952 0.6971 0.0
H3698 H 0.30134 0.8343 0.73284 0.0
H3699 H 0.28334 0.84456 0.70378 0.0
H3700 H 0.3398 0.84155 0.75081 0.0
H3701 H 0.30162 0.79123 0.71948 0.0
H3702 H 0.2905 0.7722 0.69116 0.0
H3703 H 0.34921 0.75331 0.68038 0.0
H3704 H 0.36069 0.77249 0.70858 0.0
H3705 H 0.33816 0.77096 0.82655 0.0
H3706 H 0.33434 0.79533 0.801 0.0
H3707 H 0.38126 0.7688 0.76862 0.0
H3708 H 0.38473 0.74399 0.79383 0.0
H3709 H 0.34839 0.76978 0.74817 0.0
H3710 H 0.38501 0.81574 0.78502 0.0
H3711 H 0.39457 0.83465 0.81401 0.0
H3712 H 0.33808 0.86151 0.81561 0.0
H3713 H 0.32805 0.84255 0.78679 0.0
C3714 C 0.3261 0.83124 0.68214 0.0
C3715 C 0.30667 0.8376 0.68364 0.0
C3716 C 0.33634 0.82553 0.69871 0.0
C3717 C 0.32734 0.82608 0.71703 0.0
C3718 C 0.30853 0.83385 0.7188 0.0
C3719 C 0.29821 0.83949 0.7022 0.0
C3720 C 0.33621 0.8156 0.73357 0.0
C3721 C 0.3417 0.82587 0.75036 0.0
C3722 C 0.33888 0.7952 0.73274 0.0
C3723 C 0.33204 0.78346 0.71595 0.0
C3724 C 0.31217 0.78314 0.71097 0.0
C3725 C 0.3058 0.77231 0.69495 0.0
C3726 C 0.31915 0.7616 0.6839 0.0
C3727 C 0.33889 0.76165 0.68892 0.0
C3728 C 0.34534 0.77248 0.70492 0.0
C3729 C 0.34797 0.77061 0.8142 0.0
C3730 C 0.36157 0.75542 0.81208 0.0
C3731 C 0.3459 0.78467 0.79969 0.0
C3732 C 0.35752 0.78388 0.7829 0.0
C3733 C 0.37217 0.76967 0.7815 0.0
C3734 C 0.37422 0.75557 0.79598 0.0
C3735 C 0.35219 0.79564 0.76564 0.0
C3736 C 0.34707 0.78554 0.74864 0.0
C3737 C 0.34977 0.81612 0.76646 0.0
C3738 C 0.35573 0.8276 0.78379 0.0
C3739 C 0.37456 0.82556 0.79164 0.0
C3740 C 0.38007 0.83631 0.80803 0.0
C3741 C 0.36693 0.84925 0.81667 0.0
C3742 C 0.34825 0.85148 0.80891 0.0
C3743 C 0.34265 0.84075 0.79252 0.0
H3744 H 0.37123 0.85756 0.82936 0.0
H3745 H 0.31419 0.75323 0.6715 0.0
H3746 H 0.18586 0.33451 0.67356 0.0
H3747 H 0.19057 0.34499 0.70726 0.0
H3748 H 0.17252 0.28821 0.72735 0.0
H3749 H 0.16875 0.27743 0.69353 0.0
H3750 H 0.17131 0.34898 0.73991 0.0
H3751 H 0.19803 0.27499 0.76608 0.0
H3752 H 0.2121 0.24428 0.75368 0.0
H3753 H 0.23848 0.27511 0.70624 0.0
H3754 H 0.22446 0.30605 0.71825 0.0
H3755 H 0.23463 0.32505 0.83414 0.0
H3756 H 0.20807 0.31836 0.81139 0.0
H3757 H 0.22323 0.36977 0.77868 0.0
H3758 H 0.24959 0.37666 0.80156 0.0
H3759 H 0.21936 0.30927 0.77626 0.0
H3760 H 0.18485 0.38217 0.7474 0.0
H3761 H 0.16983 0.41217 0.76023 0.0
H3762 H 0.15978 0.38411 0.81512 0.0
H3763 H 0.17431 0.35379 0.80252 0.0
C3764 C 0.18255 0.32442 0.68521 0.0
C3765 C 0.17715 0.30513 0.68104 0.0
C3766 C 0.18522 0.3304 0.70446 0.0
C3767 C 0.18234 0.31726 0.71986 0.0
C3768 C 0.17535 0.29845 0.71571 0.0
C3769 C 0.17309 0.29233 0.69644 0.0
C3770 C 0.1885 0.32275 0.73986 0.0
C3771 C 0.18191 0.34041 0.74789 0.0
C3772 C 0.20175 0.31118 0.7506 0.0
C3773 C 0.21001 0.29274 0.74294 0.0
C3774 C 0.20678 0.27519 0.75296 0.0
C3775 C 0.21471 0.25777 0.74597 0.0
C3776 C 0.22606 0.25776 0.72909 0.0
C3777 C 0.22952 0.27517 0.71917 0.0
C3778 C 0.22155 0.29264 0.72603 0.0
C3779 C 0.23179 0.33532 0.82251 0.0
C3780 C 0.24435 0.35117 0.81939 0.0
C3781 C 0.21659 0.33152 0.80956 0.0
C3782 C 0.21376 0.34345 0.79321 0.0
C3783 C 0.22495 0.36048 0.79129 0.0
C3784 C 0.2401 0.36437 0.80435 0.0
C3785 C 0.20266 0.3359 0.77625 0.0
C3786 C 0.20844 0.3178 0.76865 0.0
C3787 C 0.18878 0.34717 0.766 0.0
C3788 C 0.18082 0.36567 0.77401 0.0
C3789 C 0.17939 0.38234 0.76219 0.0
C3790 C 0.17086 0.39939 0.7694 0.0
C3791 C 0.16375 0.4 0.78844 0.0
C3792 C 0.16527 0.3836 0.80036 0.0
C3793 C 0.1737 0.36648 0.7932 0.0
H3794 H 0.15721 0.41324 0.79401 0.0
H3795 H 0.23224 0.24427 0.72372 0.0
H3796 H 0.72453 0.16468 0.71142 0.0
H3797 H 0.70456 0.17348 0.73947 0.0
H3798 H 0.65563 0.18432 0.70158 0.0
H3799 H 0.67573 0.17614 0.67335 0.0
H3800 H 0.66407 0.21533 0.72298 0.0
H3801 H 0.6524 0.14898 0.73609 0.0
H3802 H 0.65994 0.11414 0.74032 0.0
H3803 H 0.69691 0.12775 0.78887 0.0
H3804 H 0.68982 0.16273 0.78478 0.0
H3805 H 0.62097 0.25787 0.80427 0.0
H3806 H 0.62349 0.23211 0.77996 0.0
H3807 H 0.67976 0.21588 0.80267 0.0
H3808 H 0.67698 0.24103 0.8277 0.0
H3809 H 0.65934 0.18393 0.78783 0.0
H3810 H 0.67712 0.24998 0.76833 0.0
H3811 H 0.67047 0.28501 0.76368 0.0
H3812 H 0.6223 0.27117 0.72628 0.0
H3813 H 0.6285 0.23604 0.73093 0.0
C3814 C 0.70943 0.16864 0.70909 0.0
C3815 C 0.70181 0.16998 0.69015 0.0
C3816 C 0.69794 0.17341 0.72516 0.0
C3817 C 0.67857 0.17949 0.72263 0.0
C3818 C 0.67053 0.1796 0.70385 0.0
C3819 C 0.68203 0.17484 0.68774 0.0
C3820 C 0.66804 0.18869 0.73908 0.0
C3821 C 0.66247 0.20823 0.737 0.0
C3822 C 0.6663 0.17956 0.75746 0.0
C3823 C 0.67063 0.15852 0.76006 0.0
C3824 C 0.66224 0.14457 0.74759 0.0
C3825 C 0.66642 0.12479 0.74998 0.0
C3826 C 0.67891 0.11874 0.76484 0.0
C3827 C 0.68723 0.13246 0.77737 0.0
C3828 C 0.6831 0.15228 0.77504 0.0
C3829 C 0.63356 0.24837 0.80464 0.0
C3830 C 0.64895 0.25176 0.81777 0.0
C3831 C 0.63501 0.2337 0.79062 0.0
C3832 C 0.65196 0.22235 0.7893 0.0
C3833 C 0.66657 0.22453 0.8034 0.0
C3834 C 0.66507 0.23909 0.81754 0.0
C3835 C 0.65592 0.21056 0.77168 0.0
C3836 C 0.66036 0.19069 0.77361 0.0
C3837 C 0.65671 0.21934 0.75308 0.0
C3838 C 0.65312 0.24043 0.75016 0.0
C3839 C 0.66503 0.25443 0.75922 0.0
C3840 C 0.66136 0.27428 0.75658 0.0
C3841 C 0.64594 0.28031 0.74475 0.0
C3842 C 0.6342 0.26648 0.73548 0.0
C3843 C 0.63779 0.2466 0.73811 0.0
H3844 H 0.64312 0.29569 0.74272 0.0
H3845 H 0.68213 0.10341 0.76666 0.0
H3846 H 0.83407 0.71519 0.69954 0.0
H3847 H 0.82877 0.69572 0.72876 0.0
H3848 H 0.8223 0.64407 0.69344 0.0
H3849 H 0.82714 0.66358 0.66408 0.0
H3850 H 0.79118 0.65048 0.71609 0.0
H3851 H 0.85896 0.64613 0.72608 0.0
H3852 H 0.89297 0.65747 0.72794 0.0
H3853 H 0.8781 0.69538 0.77545 0.0
H3854 H 0.84391 0.68451 0.7737 0.0
H3855 H 0.75424 0.61286 0.80265 0.0
H3856 H 0.77842 0.61394 0.77666 0.0
H3857 H 0.7952 0.67182 0.7946 0.0
H3858 H 0.77184 0.67043 0.82133 0.0
H3859 H 0.82597 0.65267 0.77935 0.0
H3860 H 0.75799 0.66426 0.7621 0.0
H3861 H 0.72332 0.65518 0.75946 0.0
H3862 H 0.73865 0.60557 0.72451 0.0
H3863 H 0.77348 0.61421 0.72719 0.0
C3864 C 0.8318 0.69964 0.69803 0.0
C3865 C 0.83072 0.69098 0.67953 0.0
C3866 C 0.82905 0.68847 0.71474 0.0
C3867 C 0.82524 0.66843 0.71327 0.0
C3868 C 0.82531 0.65951 0.69488 0.0
C3869 C 0.82812 0.67068 0.67813 0.0
C3870 C 0.81807 0.65777 0.73055 0.0
C3871 C 0.79905 0.65036 0.72979 0.0
C3872 C 0.82821 0.65797 0.74846 0.0
C3873 C 0.84881 0.66452 0.74972 0.0
C3874 C 0.86289 0.65697 0.73686 0.0
C3875 C 0.88222 0.66331 0.7379 0.0
C3876 C 0.88769 0.67714 0.7518 0.0
C3877 C 0.87384 0.68465 0.76471 0.0
C3878 C 0.85449 0.67837 0.76372 0.0
C3879 C 0.76356 0.62554 0.80157 0.0
C3880 C 0.76083 0.64175 0.81385 0.0
C3881 C 0.77731 0.62617 0.78659 0.0
C3882 C 0.78826 0.64313 0.78342 0.0
C3883 C 0.7868 0.65862 0.79669 0.0
C3884 C 0.77325 0.65791 0.81181 0.0
C3885 C 0.79892 0.64611 0.7649 0.0
C3886 C 0.81846 0.65213 0.76547 0.0
C3887 C 0.78923 0.64486 0.74674 0.0
C3888 C 0.76832 0.6397 0.74509 0.0
C3889 C 0.75397 0.65133 0.75398 0.0
C3890 C 0.73429 0.64628 0.75246 0.0
C3891 C 0.72879 0.62977 0.74188 0.0
C3892 C 0.74295 0.61831 0.73275 0.0
C3893 C 0.76265 0.62327 0.73428 0.0
H3894 H 0.71355 0.62589 0.74071 0.0
H3895 H 0.90266 0.68204 0.75258 0.0
H3896 H 0.33847 0.34201 0.18848 0.0
H3897 H 0.31105 0.36182 0.19987 0.0
H3898 H 0.27085 0.31831 0.17894 0.0
H3899 H 0.29818 0.29849 0.16741 0.0
H3900 H 0.25654 0.35764 0.17553 0.0
H3901 H 0.28655 0.31382 0.22305 0.0
H3902 H 0.31458 0.30143 0.24177 0.0
H3903 H 0.32406 0.35844 0.26582 0.0
H3904 H 0.29623 0.37121 0.24696 0.0
H3905 H 0.17915 0.33906 0.23837 0.0
H3906 H 0.20557 0.34422 0.21532 0.0
H3907 H 0.23242 0.38493 0.25505 0.0
H3908 H 0.2061 0.37925 0.27849 0.0
H3909 H 0.25629 0.35697 0.24773 0.0
H3910 H 0.21994 0.3983 0.2071 0.0
H3911 H 0.19176 0.41054 0.18856 0.0
H3912 H 0.19363 0.35997 0.15174 0.0
H3913 H 0.22164 0.34725 0.17023 0.0
C3914 C 0.32377 0.33697 0.18572 0.0
C3915 C 0.32045 0.31859 0.17726 0.0
C3916 C 0.30813 0.34829 0.19227 0.0
C3917 C 0.28894 0.34144 0.1904 0.0
C3918 C 0.28554 0.32388 0.18048 0.0
C3919 C 0.30116 0.3125 0.17406 0.0
C3920 C 0.27279 0.3507 0.20137 0.0
C3921 C 0.2564 0.35762 0.19131 0.0
C3922 C 0.27294 0.35123 0.22194 0.0
C3923 C 0.2895 0.34351 0.23343 0.0
C3924 C 0.29471 0.32373 0.23222 0.0
C3925 C 0.31055 0.31664 0.24286 0.0
C3926 C 0.32114 0.32915 0.25493 0.0
C3927 C 0.31587 0.34877 0.25643 0.0
C3928 C 0.30008 0.35595 0.24576 0.0
C3929 C 0.1903 0.34969 0.24186 0.0
C3930 C 0.19073 0.35858 0.26028 0.0
C3931 C 0.20539 0.35275 0.22859 0.0
C3932 C 0.22112 0.36494 0.23341 0.0
C3933 C 0.22048 0.37542 0.25101 0.0
C3934 C 0.20536 0.3723 0.26434 0.0
C3935 C 0.23951 0.36353 0.222 0.0
C3936 C 0.25644 0.35783 0.23197 0.0
C3937 C 0.23978 0.36425 0.20138 0.0
C3938 C 0.2229 0.37178 0.19013 0.0
C3939 C 0.21427 0.3897 0.19514 0.0
C3940 C 0.19833 0.39675 0.18461 0.0
C3941 C 0.1909 0.38603 0.16899 0.0
C3942 C 0.19942 0.36826 0.16384 0.0
C3943 C 0.21536 0.36115 0.17432 0.0
H3944 H 0.17856 0.39151 0.16086 0.0
H3945 H 0.33339 0.32364 0.26317 0.0
H3946 H 0.19728 0.64216 0.75206 0.0
H3947 H 0.22224 0.64655 0.77705 0.0
H3948 H 0.20183 0.70509 0.7874 0.0
H3949 H 0.17662 0.70072 0.76266 0.0
H3950 H 0.24005 0.7045 0.77974 0.0
H3951 H 0.19705 0.67145 0.82228 0.0
H3952 H 0.17483 0.64582 0.83397 0.0
H3953 H 0.22123 0.60393 0.83132 0.0
H3954 H 0.24372 0.62929 0.81935 0.0
H3955 H 0.30648 0.72791 0.85063 0.0
H3956 H 0.27383 0.71679 0.84183 0.0
H3957 H 0.298 0.66354 0.81883 0.0
H3958 H 0.33079 0.67468 0.82741 0.0
H3959 H 0.2566 0.66171 0.83558 0.0
H3960 H 0.29802 0.69586 0.78873 0.0
H3961 H 0.3201 0.72292 0.78031 0.0
H3962 H 0.27486 0.76421 0.79316 0.0
H3963 H 0.25263 0.73736 0.80207 0.0
C3964 C 0.19772 0.65578 0.76004 0.0
C3965 C 0.18505 0.67116 0.75523 0.0
C3966 C 0.21204 0.65827 0.77431 0.0
C3967 C 0.21393 0.67616 0.78407 0.0
C3968 C 0.2007 0.6912 0.77997 0.0
C3969 C 0.18636 0.6887 0.76578 0.0
C3970 C 0.23089 0.67988 0.79696 0.0
C3971 C 0.24342 0.6953 0.79213 0.0
C3972 C 0.23554 0.6677 0.81295 0.0
C3973 C 0.22203 0.65225 0.81972 0.0
C3974 C 0.20248 0.65673 0.82397 0.0
C3975 C 0.18985 0.64226 0.8307 0.0
C3976 C 0.19661 0.62326 0.83337 0.0
C3977 C 0.21602 0.61866 0.82925 0.0
C3978 C 0.22872 0.63309 0.8225 0.0
C3979 C 0.30476 0.71351 0.84438 0.0
C3980 C 0.32117 0.70233 0.83931 0.0
C3981 C 0.2861 0.70714 0.83945 0.0
C3982 C 0.28361 0.68951 0.82941 0.0
C3983 C 0.29968 0.67719 0.8266 0.0
C3984 C 0.31841 0.68358 0.83151 0.0
C3985 C 0.2655 0.6862 0.81823 0.0
C3986 C 0.25298 0.67088 0.82326 0.0
C3987 C 0.26069 0.69852 0.80245 0.0
C3988 C 0.27373 0.71462 0.79624 0.0
C3989 C 0.29281 0.71071 0.78985 0.0
C3990 C 0.30536 0.72601 0.78499 0.0
C3991 C 0.29891 0.74528 0.78623 0.0
C3992 C 0.27985 0.74928 0.79223 0.0
C3993 C 0.26727 0.73403 0.79718 0.0
H3994 H 0.30866 0.7571 0.78253 0.0
H3995 H 0.18682 0.61215 0.83873 0.0
H3996 H 0.40257 0.21113 0.74777 0.0
H3997 H 0.39933 0.2324 0.77642 0.0
H3998 H 0.33741 0.22139 0.77735 0.0
H3999 H 0.34063 0.20011 0.74918 0.0
H4000 H 0.37943 0.26566 0.77764 0.0
H4001 H 0.31864 0.22365 0.82172 0.0
H4002 H 0.31198 0.18995 0.83201 0.0
H4003 H 0.37241 0.1754 0.82482 0.0
H4004 H 0.37948 0.20904 0.81469 0.0
H4005 H 0.2978 0.31498 0.80147 0.0
H4006 H 0.32065 0.28902 0.79367 0.0
H4007 H 0.34565 0.29318 0.85109 0.0
H4008 H 0.32243 0.3194 0.85922 0.0
H4009 H 0.33593 0.2522 0.83377 0.0
H4010 H 0.37487 0.30802 0.824 0.0
H4011 H 0.37954 0.3424 0.81473 0.0
H4012 H 0.36448 0.32876 0.75563 0.0
H4013 H 0.35941 0.29434 0.76457 0.0
C4014 C 0.38838 0.21296 0.75442 0.0
C4015 C 0.3718 0.20416 0.74616 0.0
C4016 C 0.38654 0.22512 0.77073 0.0
C4017 C 0.36817 0.22835 0.77917 0.0
C4018 C 0.3518 0.21887 0.77137 0.0
C4019 C 0.35361 0.20689 0.75509 0.0
C4020 C 0.36525 0.2433 0.79453 0.0
C4021 C 0.37041 0.26263 0.79024 0.0
C4022 C 0.35392 0.23934 0.81133 0.0
C4023 C 0.34965 0.21901 0.81753 0.0
C4024 C 0.33057 0.21336 0.82252 0.0
C4025 C 0.32669 0.19421 0.82826 0.0
C4026 C 0.34176 0.18054 0.8291 0.0
C4027 C 0.36074 0.18599 0.82417 0.0
C4028 C 0.36469 0.2051 0.81841 0.0
C4029 C 0.30786 0.31018 0.81262 0.0
C4030 C 0.30817 0.31908 0.83103 0.0
C4031 C 0.32102 0.29545 0.80808 0.0
C4032 C 0.33479 0.28929 0.8218 0.0
C4033 C 0.33505 0.29779 0.84037 0.0
C4034 C 0.32188 0.31275 0.84492 0.0
C4035 C 0.34899 0.27424 0.81586 0.0
C4036 C 0.34583 0.255 0.82179 0.0
C4037 C 0.36244 0.2782 0.80082 0.0
C4038 C 0.36674 0.29858 0.79498 0.0
C4039 C 0.37254 0.31236 0.80902 0.0
C4040 C 0.37516 0.33187 0.80385 0.0
C4041 C 0.37214 0.33778 0.78465 0.0
C4042 C 0.36674 0.32415 0.77052 0.0
C4043 C 0.36405 0.30462 0.77562 0.0
H4044 H 0.37417 0.3529 0.78067 0.0
H4045 H 0.33872 0.16573 0.83354 0.0
H4046 H 0.67075 0.33535 0.82555 0.0
H4047 H 0.70169 0.35104 0.81705 0.0
H4048 H 0.733 0.30531 0.84663 0.0
H4049 H 0.70215 0.28926 0.85449 0.0
H4050 H 0.73732 0.36421 0.83225 0.0
H4051 H 0.76514 0.28649 0.81509 0.0
H4052 H 0.75147 0.2538 0.80884 0.0
H4053 H 0.69904 0.27961 0.7866 0.0
H4054 H 0.71257 0.31241 0.79226 0.0
H4055 H 0.83325 0.33191 0.77646 0.0
H4056 H 0.80761 0.32797 0.80088 0.0
H4057 H 0.77564 0.3756 0.77521 0.0
H4058 H 0.80139 0.37976 0.75098 0.0
H4059 H 0.77238 0.31703 0.79005 0.0
H4060 H 0.74239 0.39367 0.8079 0.0
H4061 H 0.75441 0.42721 0.81245 0.0
H4062 H 0.81031 0.40515 0.82982 0.0
H4063 H 0.79846 0.37145 0.82581 0.0
C4064 C 0.68424 0.32905 0.83077 0.0
C4065 C 0.68422 0.31096 0.84034 0.0
C4066 C 0.70188 0.33806 0.82601 0.0
C4067 C 0.71961 0.32912 0.83089 0.0
C4068 C 0.71945 0.31228 0.8425 0.0
C4069 C 0.70188 0.3031 0.84694 0.0
C4070 C 0.73778 0.33497 0.82084 0.0
C4071 C 0.74504 0.35397 0.823 0.0
C4072 C 0.74772 0.32159 0.80868 0.0
C4073 C 0.7398 0.3019 0.80434 0.0
C4074 C 0.75076 0.28518 0.80873 0.0
C4075 C 0.74303 0.26663 0.80528 0.0
C4076 C 0.72437 0.26464 0.79738 0.0
C4077 C 0.71347 0.28118 0.79273 0.0
C4078 C 0.72117 0.29975 0.79605 0.0
C4079 C 0.82099 0.34185 0.77637 0.0
C4080 C 0.81922 0.35604 0.76177 0.0
C4081 C 0.80637 0.33962 0.79032 0.0
C4082 C 0.78969 0.35147 0.78988 0.0
C4083 C 0.7885 0.36649 0.77607 0.0
C4084 C 0.80322 0.36883 0.76219 0.0
C4085 C 0.77245 0.3462 0.80179 0.0
C4086 C 0.76506 0.32725 0.79965 0.0
C4087 C 0.76232 0.3598 0.81359 0.0
C4088 C 0.76953 0.38001 0.81646 0.0
C4089 C 0.75718 0.39596 0.81287 0.0
C4090 C 0.76398 0.41501 0.81532 0.0
C4091 C 0.78313 0.41831 0.82138 0.0
C4092 C 0.79549 0.40257 0.82508 0.0
C4093 C 0.78873 0.38348 0.82272 0.0
H4094 H 0.78839 0.43307 0.82321 0.0
H4095 H 0.71836 0.25027 0.79483 0.0
H4096 H 0.67572 0.66282 0.83574 0.0
H4097 H 0.65639 0.69196 0.8291 0.0
H4098 H 0.70798 0.72747 0.83445 0.0
H4099 H 0.72723 0.69853 0.84193 0.0
H4100 H 0.67584 0.74714 0.84695 0.0
H4101 H 0.69509 0.70809 0.79065 0.0
H4102 H 0.69614 0.67772 0.77145 0.0
H4103 H 0.63361 0.67658 0.76929 0.0
H4104 H 0.63221 0.70686 0.78871 0.0
H4105 H 0.67961 0.81777 0.77332 0.0
H4106 H 0.68201 0.79187 0.79756 0.0
H4107 H 0.62402 0.77254 0.78288 0.0
H4108 H 0.62165 0.79834 0.75841 0.0
H4109 H 0.65044 0.74385 0.77942 0.0
H4110 H 0.63278 0.78887 0.82831 0.0
H4111 H 0.63295 0.81982 0.84655 0.0
H4112 H 0.69286 0.81072 0.86207 0.0
H4113 H 0.69317 0.77985 0.84367 0.0
C4114 C 0.68284 0.67689 0.83617 0.0
C4115 C 0.7031 0.67834 0.83901 0.0
C4116 C 0.67178 0.69353 0.83226 0.0
C4117 C 0.68083 0.71182 0.83089 0.0
C4118 C 0.70071 0.71349 0.83535 0.0
C4119 C 0.71174 0.69691 0.83939 0.0
C4120 C 0.67055 0.72866 0.82217 0.0
C4121 C 0.67019 0.74648 0.83222 0.0
C4122 C 0.66271 0.72763 0.80313 0.0
C4123 C 0.66354 0.70957 0.79131 0.0
C4124 C 0.68157 0.70129 0.78617 0.0
C4125 C 0.68223 0.6841 0.77525 0.0
C4126 C 0.66495 0.67519 0.7692 0.0
C4127 C 0.64698 0.68348 0.77402 0.0
C4128 C 0.64624 0.70065 0.78498 0.0
C4129 C 0.66723 0.80825 0.77557 0.0
C4130 C 0.65051 0.80997 0.76392 0.0
C4131 C 0.66853 0.79357 0.78954 0.0
C4132 C 0.65314 0.78033 0.7921 0.0
C4133 C 0.636 0.78267 0.78121 0.0
C4134 C 0.63465 0.79746 0.7673 0.0
C4135 C 0.65626 0.76258 0.80394 0.0
C4136 C 0.65539 0.74452 0.7944 0.0
C4137 C 0.66307 0.76349 0.82336 0.0
C4138 C 0.66301 0.78205 0.83452 0.0
C4139 C 0.64604 0.79352 0.83549 0.0
C4140 C 0.64604 0.81105 0.84588 0.0
C4141 C 0.6629 0.81724 0.85545 0.0
C4142 C 0.6798 0.8059 0.85466 0.0
C4143 C 0.67988 0.78836 0.84428 0.0
H4144 H 0.66288 0.83081 0.86348 0.0
H4145 H 0.6655 0.66188 0.76075 0.0
H4146 H 0.71252 0.72585 0.15462 0.0
H4147 H 0.74231 0.70765 0.16136 0.0
H4148 H 0.70815 0.65696 0.17596 0.0
H4149 H 0.67827 0.67529 0.16981 0.0
H4150 H 0.73058 0.66763 0.20528 0.0
H4151 H 0.74109 0.6556 0.13812 0.0
H4152 H 0.74341 0.6632 0.10314 0.0
H4153 H 0.79062 0.70264 0.1145 0.0
H4154 H 0.78842 0.69552 0.14959 0.0
H4155 H 0.81501 0.62747 0.2435 0.0
H4156 H 0.79062 0.62871 0.21753 0.0
H4157 H 0.80821 0.68742 0.20378 0.0
H4158 H 0.83264 0.68624 0.22967 0.0
H4159 H 0.79396 0.66516 0.17053 0.0
H4160 H 0.77658 0.68434 0.23658 0.0
H4161 H 0.77489 0.67861 0.27197 0.0
H4162 H 0.74028 0.62737 0.26224 0.0
H4163 H 0.7421 0.63264 0.22673 0.0
C4164 C 0.71138 0.71068 0.15882 0.0
C4165 C 0.69305 0.70209 0.16195 0.0
C4166 C 0.72844 0.70021 0.16247 0.0
C4167 C 0.72748 0.68092 0.16917 0.0
C4168 C 0.70922 0.67182 0.17076 0.0
C4169 C 0.69215 0.6823 0.16714 0.0
C4170 C 0.74505 0.67168 0.17769 0.0
C4171 C 0.74426 0.66649 0.19743 0.0
C4172 C 0.76307 0.67073 0.16766 0.0
C4173 C 0.76452 0.67507 0.14654 0.0
C4174 C 0.75188 0.666 0.13319 0.0
C4175 C 0.75319 0.67021 0.11333 0.0
C4176 C 0.76714 0.68341 0.10661 0.0
C4177 C 0.77983 0.69241 0.11973 0.0
C4178 C 0.77858 0.68826 0.13961 0.0
C4179 C 0.81421 0.64033 0.23441 0.0
C4180 C 0.82547 0.65687 0.23872 0.0
C4181 C 0.80029 0.64101 0.21959 0.0
C4182 C 0.79753 0.65822 0.20891 0.0
C4183 C 0.81018 0.67399 0.21182 0.0
C4184 C 0.82399 0.67337 0.22672 0.0
C4185 C 0.77927 0.66135 0.19793 0.0
C4186 C 0.78003 0.66562 0.17798 0.0
C4187 C 0.76116 0.6617 0.20772 0.0
C4188 C 0.75967 0.65873 0.22904 0.0
C4189 C 0.76873 0.67178 0.242 0.0
C4190 C 0.76774 0.66862 0.26207 0.0
C4191 C 0.75753 0.6526 0.26935 0.0
C4192 C 0.74823 0.63975 0.25657 0.0
C4193 C 0.74924 0.6428 0.23647 0.0
H4194 H 0.75677 0.65017 0.2849 0.0
H4195 H 0.76813 0.68665 0.09122 0.0
H4196 H 0.28413 0.71597 0.14966 0.0
H4197 H 0.30123 0.74608 0.15794 0.0
H4198 H 0.35191 0.71284 0.17451 0.0
H4199 H 0.33474 0.68272 0.167 0.0
H4200 H 0.33824 0.73417 0.20383 0.0
H4201 H 0.35456 0.74581 0.13759 0.0
H4202 H 0.34881 0.74888 0.10232 0.0
H4203 H 0.30919 0.79622 0.1126 0.0
H4204 H 0.31446 0.79326 0.14797 0.0
H4205 H 0.37931 0.81349 0.24706 0.0
H4206 H 0.37823 0.79058 0.2201 0.0
H4207 H 0.32328 0.81467 0.20154 0.0
H4208 H 0.32475 0.83856 0.22791 0.0
H4209 H 0.34441 0.79797 0.17048 0.0
H4210 H 0.32221 0.78139 0.23531 0.0
H4211 H 0.32603 0.7786 0.27089 0.0
H4212 H 0.37457 0.73989 0.26289 0.0
H4213 H 0.37124 0.74276 0.22722 0.0
C4214 C 0.29905 0.71511 0.15472 0.0
C4215 C 0.30793 0.69693 0.15798 0.0
C4216 C 0.3089 0.73235 0.15921 0.0
C4217 C 0.32784 0.7317 0.16687 0.0
C4218 C 0.33731 0.71366 0.16858 0.0
C4219 C 0.32746 0.69643 0.16418 0.0
C4220 C 0.33623 0.74918 0.17635 0.0
C4221 C 0.34013 0.74796 0.19634 0.0
C4222 C 0.33802 0.76734 0.16676 0.0
C4223 C 0.33482 0.76923 0.14548 0.0
C4224 C 0.3445 0.75678 0.13236 0.0
C4225 C 0.34134 0.75852 0.11233 0.0
C4226 C 0.32862 0.77271 0.10522 0.0
C4227 C 0.31904 0.78523 0.11813 0.0
C4228 C 0.32214 0.78355 0.13817 0.0
C4229 C 0.36743 0.81466 0.23677 0.0
C4230 C 0.35183 0.8276 0.24 0.0
C4231 C 0.36682 0.80143 0.22136 0.0
C4232 C 0.35044 0.80061 0.20918 0.0
C4233 C 0.33599 0.81496 0.2109 0.0
C4234 C 0.33672 0.82842 0.22617 0.0
C4235 C 0.34641 0.78275 0.19778 0.0
C4236 C 0.34307 0.78398 0.17766 0.0
C4237 C 0.34483 0.7645 0.20721 0.0
C4238 C 0.34663 0.76247 0.22863 0.0
C4239 C 0.33378 0.77238 0.24115 0.0
C4240 C 0.33585 0.77079 0.26133 0.0
C4241 C 0.35057 0.75911 0.26915 0.0
C4242 C 0.36321 0.74896 0.2568 0.0
C4243 C 0.36124 0.75057 0.23661 0.0
H4244 H 0.35215 0.75789 0.28477 0.0
H4245 H 0.32619 0.77403 0.08972 0.0
H4246 H 0.67907 0.33207 0.16996 0.0
H4247 H 0.66222 0.30206 0.1786 0.0
H4248 H 0.71648 0.27049 0.1753 0.0
H4249 H 0.73322 0.3001 0.16526 0.0
H4250 H 0.68662 0.24702 0.16585 0.0
H4251 H 0.70187 0.29275 0.21828 0.0
H4252 H 0.70023 0.32494 0.23431 0.0
H4253 H 0.63775 0.32159 0.23531 0.0
H4254 H 0.63905 0.28947 0.2191 0.0
H4255 H 0.69237 0.18263 0.24534 0.0
H4256 H 0.69438 0.20672 0.21931 0.0
H4257 H 0.63568 0.22545 0.23189 0.0
H4258 H 0.63381 0.2018 0.25839 0.0
H4259 H 0.66002 0.25509 0.23255 0.0
H4260 H 0.64673 0.20416 0.18791 0.0
H4261 H 0.64976 0.17168 0.17284 0.0
H4262 H 0.70923 0.18383 0.15773 0.0
H4263 H 0.70667 0.21628 0.17296 0.0
C4264 C 0.68734 0.31865 0.17029 0.0
C4265 C 0.70765 0.31864 0.16737 0.0
C4266 C 0.67767 0.30149 0.17541 0.0
C4267 C 0.68819 0.28417 0.17814 0.0
C4268 C 0.70808 0.28373 0.17346 0.0
C4269 C 0.7177 0.30077 0.16799 0.0
C4270 C 0.67943 0.26743 0.18857 0.0
C4271 C 0.68074 0.24871 0.18041 0.0
C4272 C 0.67133 0.26972 0.20739 0.0
C4273 C 0.67055 0.28886 0.21735 0.0
C4274 C 0.6878 0.29895 0.22187 0.0
C4275 C 0.68693 0.31716 0.23097 0.0
C4276 C 0.6689 0.32532 0.23578 0.0
C4277 C 0.6517 0.31526 0.23155 0.0
C4278 C 0.65249 0.29705 0.22242 0.0
C4279 C 0.67981 0.19172 0.2424 0.0
C4280 C 0.663 0.19043 0.25403 0.0
C4281 C 0.68087 0.20532 0.22734 0.0
C4282 C 0.66511 0.2178 0.22354 0.0
C4283 C 0.64797 0.21589 0.23451 0.0
C4284 C 0.64689 0.2023 0.24959 0.0
C4285 C 0.66764 0.23448 0.21009 0.0
C4286 C 0.66527 0.25328 0.21775 0.0
C4287 C 0.67488 0.23216 0.19092 0.0
C4288 C 0.67652 0.21265 0.18168 0.0
C4289 C 0.6605 0.19987 0.1815 0.0
C4290 C 0.66213 0.18146 0.17291 0.0
C4291 C 0.67968 0.17569 0.16436 0.0
C4292 C 0.69564 0.18833 0.16435 0.0
C4293 C 0.69409 0.20675 0.17293 0.0
H4294 H 0.68091 0.16143 0.15771 0.0
H4295 H 0.66825 0.33942 0.24282 0.0
H4296 H 0.95882 0.3032 0.39654 0.0
H4297 H 0.98923 0.31267 0.37973 0.0
H4298 H 0.95672 0.35306 0.34431 0.0
H4299 H 0.92688 0.34328 0.3602 0.0
H4300 H 0.98132 0.33825 0.32224 0.0
H4301 H 0.98636 0.36428 0.38754 0.0
H4302 H 0.98996 0.36463 0.42317 0.0
H4303 H 0.04274 0.3313 0.41854 0.0
H4304 H 0.03921 0.33038 0.38282 0.0
H4305 H 0.04989 0.40929 0.29132 0.0
H4306 H 0.02365 0.39145 0.30757 0.0
H4307 H 0.06553 0.35098 0.33093 0.0
H4308 H 0.09186 0.36878 0.31442 0.0
H4309 H 0.03927 0.36112 0.35868 0.0
H4310 H 0.03548 0.33776 0.29336 0.0
H4311 H 0.03341 0.34033 0.25763 0.0
H4312 H 0.9789 0.37064 0.26268 0.0
H4313 H 0.98076 0.36848 0.29847 0.0
C4314 C 0.95817 0.31376 0.38487 0.0
C4315 C 0.94021 0.3224 0.37986 0.0
C4316 C 0.97566 0.31944 0.37541 0.0
C4317 C 0.97562 0.33396 0.36077 0.0
C4318 C 0.95753 0.3419 0.35541 0.0
C4319 C 0.94028 0.33624 0.36468 0.0
C4320 C 0.99394 0.34131 0.35082 0.0
C4321 C 0.99386 0.34336 0.33039 0.0
C4322 C 0.01091 0.34751 0.361 0.0
C4323 C 0.01231 0.34695 0.38252 0.0
C4324 C 0.99853 0.35671 0.39413 0.0
C4325 C 1.00062 0.35707 0.41436 0.0
C4326 C 0.01655 0.34794 0.42315 0.0
C4327 C 0.03036 0.33829 0.41172 0.0
C4328 C 0.02829 0.3378 0.39149 0.0
C4329 C 0.05358 0.39656 0.29985 0.0
C4330 C 0.07315 0.39061 0.30167 0.0
C4331 C 0.03847 0.38629 0.30915 0.0
C4332 C 0.04241 0.36966 0.3205 0.0
C4333 C 0.06197 0.36375 0.3224 0.0
C4334 C 0.07708 0.37399 0.313 0.0
C4335 C 0.02614 0.35864 0.3304 0.0
C4336 C 0.02672 0.35582 0.35066 0.0
C4337 C 0.00956 0.35183 0.32013 0.0
C4338 C 0.00835 0.35309 0.29861 0.0
C4339 C 0.02312 0.3451 0.28686 0.0
C4340 C 0.02197 0.34646 0.26659 0.0
C4341 C 0.00605 0.35568 0.25789 0.0
C4342 C 0.99122 0.36351 0.26944 0.0
C4343 C 0.99231 0.3622 0.28972 0.0
H4344 H 0.00519 0.35672 0.2422 0.0
H4345 H 0.01829 0.34844 0.43879 0.0
H4346 H 0.71306 0.93509 0.38069 0.0
H4347 H 0.70504 0.96456 0.3618 0.0
H4348 H 0.64739 0.94197 0.3511 0.0
H4349 H 0.65547 0.91266 0.36888 0.0
H4350 H 0.65754 0.96063 0.32062 0.0
H4351 H 0.66111 0.97421 0.38944 0.0
H4352 H 0.67871 0.97519 0.42065 0.0
H4353 H 0.71855 0.01736 0.39734 0.0
H4354 H 0.70164 0.01606 0.36568 0.0
H4355 H 0.60209 0.04781 0.30354 0.0
H4356 H 0.61637 0.01675 0.31377 0.0
H4357 H 0.67068 0.04582 0.3263 0.0
H4358 H 0.65602 0.07691 0.31689 0.0
H4359 H 0.66469 0.02396 0.35458 0.0
H4360 H 0.66086 0.01056 0.28569 0.0
H4361 H 0.64464 0.00752 0.2538 0.0
H4362 H 0.60535 0.96494 0.27738 0.0
H4363 H 0.62123 0.96784 0.30943 0.0
C4364 C 0.69887 0.93623 0.3739 0.0
C4365 C 0.68493 0.92143 0.37659 0.0
C4366 C 0.69417 0.95322 0.36322 0.0
C4367 C 0.67534 0.95592 0.35526 0.0
C4368 C 0.66195 0.94058 0.35703 0.0
C4369 C 0.66665 0.9237 0.36742 0.0
C4370 C 0.66878 0.97488 0.34618 0.0
C4371 C 0.65907 0.97446 0.32813 0.0
C4372 C 0.67084 0.99316 0.35567 0.0
C4373 C 0.68028 0.9948 0.37506 0.0
C4374 C 0.67374 0.98355 0.39088 0.0
C4375 C 0.68368 0.98407 0.40863 0.0
C4376 C 0.69986 0.9962 0.41092 0.0
C4377 C 0.70609 0.00789 0.39549 0.0
C4378 C 0.69637 0.00721 0.37762 0.0
C4379 C 0.61729 0.04741 0.30778 0.0
C4380 C 0.62809 0.06478 0.30879 0.0
C4381 C 0.62551 0.02957 0.31384 0.0
C4382 C 0.64486 0.02852 0.32083 0.0
C4383 C 0.65578 0.0459 0.32111 0.0
C4384 C 0.64748 0.06372 0.31538 0.0
C4385 C 0.65343 0.0098 0.32886 0.0
C4386 C 0.66336 0.01023 0.34687 0.0
C4387 C 0.65152 0.99149 0.31935 0.0
C4388 C 0.64211 0.98959 0.30002 0.0
C4389 C 0.64869 1.00063 0.2841 0.0
C4390 C 0.63957 0.99891 0.26598 0.0
C4391 C 0.62393 0.98609 0.26357 0.0
C4392 C 0.61744 0.97489 0.27926 0.0
C4393 C 0.62651 0.97655 0.29739 0.0
H4394 H 0.61688 0.9848 0.24954 0.0
H4395 H 0.70747 0.99671 0.4247 0.0
H4396 H 0.96624 0.60972 0.28479 0.0
H4397 H 0.99771 0.62474 0.2936 0.0
H4398 H 0.96764 0.66541 0.33097 0.0
H4399 H 0.93665 0.65121 0.32152 0.0
H4400 H 0.99562 0.68385 0.31595 0.0
H4401 H 0.9911 0.61965 0.34548 0.0
H4402 H 0.98899 0.58374 0.34539 0.0
H4403 H 0.04285 0.58025 0.31376 0.0
H4404 H 0.04506 0.61613 0.31324 0.0
H4405 H 0.06912 0.7093 0.38648 0.0
H4406 H 0.0404 0.69913 0.36762 0.0
H4407 H 0.07673 0.66167 0.33254 0.0
H4408 H 0.1051 0.67141 0.35162 0.0
H4409 H 0.04738 0.6416 0.34317 0.0
H4410 H 0.05317 0.7048 0.31466 0.0
H4411 H 0.05606 0.74061 0.31418 0.0
H4412 H 1.00102 0.74582 0.34349 0.0
H4413 H 0.99792 0.71001 0.34436 0.0
C4414 C 0.96638 0.62222 0.29442 0.0
C4415 C 0.94886 0.62915 0.30254 0.0
C4416 C 0.98444 0.63064 0.29976 0.0
C4417 C 0.98535 0.64604 0.31346 0.0
C4418 C 0.96767 0.65355 0.32055 0.0
C4419 C 0.94982 0.6453 0.31517 0.0
C4420 C 1.00433 0.65414 0.32117 0.0
C4421 C 0.00684 0.67452 0.32202 0.0
C4422 C 0.01947 0.6422 0.32871 0.0
C4423 C 0.01806 0.62061 0.32903 0.0
C4424 C 1.00239 0.61124 0.33832 0.0
C4425 C 1.00118 0.59089 0.33839 0.0
C4426 C 0.01572 0.57975 0.32947 0.0
C4427 C 0.03155 0.58891 0.32056 0.0
C4428 C 0.03276 0.60925 0.32034 0.0
C4429 C 0.07105 0.69948 0.37427 0.0
C4430 C 0.0895 0.69143 0.37039 0.0
C4431 C 0.05455 0.6935 0.36352 0.0
C4432 C 0.05616 0.6795 0.34848 0.0
C4433 C 0.07483 0.67232 0.34404 0.0
C4434 C 0.09117 0.67812 0.35485 0.0
C4435 C 0.03847 0.67129 0.33824 0.0
C4436 C 0.03623 0.65091 0.33696 0.0
C4437 C 0.02361 0.68319 0.33025 0.0
C4438 C 0.02541 0.70472 0.32973 0.0
C4439 C 0.04175 0.71358 0.32113 0.0
C4440 C 0.04341 0.73388 0.32077 0.0
C4441 C 0.02875 0.74548 0.32884 0.0
C4442 C 0.01237 0.73681 0.33726 0.0
C4443 C 0.01065 0.71652 0.33767 0.0
H4444 H 0.03007 0.76119 0.32855 0.0
H4445 H 0.01473 0.56402 0.32946 0.0
H4446 H 0.35528 0.92409 0.33489 0.0
H4447 H 0.33963 0.95437 0.34423 0.0
H4448 H 0.36905 0.98418 0.29749 0.0
H4449 H 0.38553 0.9535 0.28837 0.0
H4450 H 0.37136 0.00555 0.32938 0.0
H4451 H 0.31736 0.9748 0.29796 0.0
H4452 H 0.2945 0.94803 0.29075 0.0
H4453 H 0.27532 0.94797 0.35025 0.0
H4454 H 0.29822 0.9746 0.35788 0.0
H4455 H 0.32277 0.09316 0.35293 0.0
H4456 H 0.33175 0.06387 0.33464 0.0
H4457 H 0.30609 0.02815 0.37941 0.0
H4458 H 0.29666 0.05765 0.39748 0.0
H4459 H 0.30103 0.01077 0.34528 0.0
H4460 H 0.35617 0.03963 0.3773 0.0
H4461 H 0.37955 0.06572 0.3853 0.0
H4462 H 0.39726 0.06863 0.32543 0.0
H4463 H 0.37371 0.04281 0.317 0.0
C4464 C 0.35825 0.93696 0.32626 0.0
C4465 C 0.37167 0.93614 0.31071 0.0
C4466 C 0.34911 0.95441 0.33163 0.0
C4467 C 0.35276 0.97182 0.32152 0.0
C4468 C 0.36578 0.97105 0.30557 0.0
C4469 C 0.37505 0.9534 0.30016 0.0
C4470 C 0.34376 0.99073 0.32849 0.0
C4471 C 0.3559 0.00678 0.33243 0.0
C4472 C 0.32362 0.99244 0.33311 0.0
C4473 C 0.3096 0.97664 0.32851 0.0
C4474 C 0.30833 0.96903 0.30953 0.0
C4475 C 0.29536 0.95388 0.30537 0.0
C4476 C 0.28349 0.94628 0.32004 0.0
C4477 C 0.28452 0.95387 0.3389 0.0
C4478 C 0.29746 0.96902 0.34314 0.0
C4479 C 0.31826 0.07908 0.35845 0.0
C4480 C 0.30846 0.07782 0.37642 0.0
C4481 C 0.32376 0.06224 0.34814 0.0
C4482 C 0.32013 0.04355 0.35575 0.0
C4483 C 0.3092 0.04227 0.37311 0.0
C4484 C 0.30352 0.05919 0.38337 0.0
C4485 C 0.32866 0.02554 0.34627 0.0
C4486 C 0.31645 0.00963 0.34198 0.0
C4487 C 0.34876 0.02393 0.34141 0.0
C4488 C 0.36297 0.03945 0.34647 0.0
C4489 C 0.36492 0.04595 0.36581 0.0
C4490 C 0.37822 0.06068 0.37042 0.0
C4491 C 0.38984 0.06888 0.35587 0.0
C4492 C 0.38821 0.06231 0.33668 0.0
C4493 C 0.37487 0.04765 0.33197 0.0
H4494 H 0.40013 0.08027 0.35947 0.0
H4495 H 0.27348 0.93454 0.3168 0.0
H4496 H 0.91561 0.66941 0.64754 0.0
H4497 H 0.94488 0.65824 0.66429 0.0
H4498 H 0.98044 0.68705 0.62129 0.0
H4499 H 0.95088 0.69892 0.6049 0.0
H4500 H 0.97053 0.63403 0.65496 0.0
H4501 H 0.02695 0.69412 0.63709 0.0
H4502 H 0.02832 0.72971 0.63226 0.0
H4503 H 0.97724 0.73687 0.66767 0.0
H4504 H 0.9757 0.70136 0.6729 0.0
H4505 H 0.08331 0.62997 0.66787 0.0
H4506 H 0.05394 0.64628 0.6564 0.0
H4507 H 0.02137 0.62144 0.70393 0.0
H4508 H 0.05096 0.6047 0.71541 0.0
H4509 H 0.02962 0.67287 0.66954 0.0
H4510 H 0.97386 0.6135 0.68911 0.0
H4511 H 0.9728 0.57806 0.69506 0.0
H4512 H 0.02228 0.56989 0.65766 0.0
H4513 H 0.02345 0.60523 0.65126 0.0
C4514 C 0.92966 0.67387 0.64193 0.0
C4515 C 0.93076 0.6854 0.62499 0.0
C4516 C 0.94653 0.66724 0.65146 0.0
C4517 C 0.96524 0.67163 0.6443 0.0
C4518 C 0.9664 0.68363 0.62759 0.0
C4519 C 0.9494 0.69056 0.61818 0.0
C4520 C 0.98318 0.66279 0.65382 0.0
C4521 C 0.98327 0.64273 0.6584 0.0
C4522 C 1.00025 0.67368 0.65815 0.0
C4523 C 1.0011 0.69506 0.6552 0.0
C4524 C 0.01604 0.7033 0.64388 0.0
C4525 C 0.01685 0.72346 0.64107 0.0
C4526 C 1.00284 0.73554 0.6496 0.0
C4527 C 0.98803 0.72749 0.66101 0.0
C4528 C 0.98718 0.70735 0.66388 0.0
C4529 C 0.06996 0.62799 0.67605 0.0
C4530 C 0.06966 0.61579 0.69258 0.0
C4531 C 0.05307 0.63747 0.66944 0.0
C4532 C 0.03511 0.63504 0.67899 0.0
C4533 C 0.03485 0.62342 0.69597 0.0
C4534 C 0.05188 0.61393 0.70268 0.0
C4535 C 0.01686 0.64425 0.67067 0.0
C4536 C 0.01676 0.66429 0.66623 0.0
C4537 C 0.99974 0.63338 0.66658 0.0
C4538 C 0.99886 0.61204 0.6699 0.0
C4539 C 0.98445 0.60412 0.68209 0.0
C4540 C 0.98385 0.58405 0.68555 0.0
C4541 C 0.99752 0.57174 0.67681 0.0
C4542 C 0.01175 0.57945 0.66448 0.0
C4543 C 0.01239 0.5995 0.66093 0.0
H4544 H 0.99708 0.55622 0.67953 0.0
H4545 H 1.00348 0.75114 0.6474 0.0
H4546 H 0.33075 0.92383 0.64807 0.0
H4547 H 0.33937 0.95332 0.66564 0.0
H4548 H 0.29703 0.98568 0.63246 0.0
H4549 H 0.28854 0.95577 0.6143 0.0
H4550 H 0.3307 0.00531 0.63357 0.0
H4551 H 0.29128 0.97635 0.6827 0.0
H4552 H 0.27938 0.95027 0.70429 0.0
H4553 H 0.33579 0.94624 0.73098 0.0
H4554 H 0.34813 0.97211 0.70937 0.0
H4555 H 0.3542 0.09055 0.68583 0.0
H4556 H 0.33498 0.06264 0.67478 0.0
H4557 H 0.37491 0.02375 0.70369 0.0
H4558 H 0.3939 0.05191 0.71522 0.0
H4559 H 0.33881 0.00887 0.70525 0.0
H4560 H 0.37882 0.03516 0.65393 0.0
H4561 H 0.39083 0.06206 0.63339 0.0
H4562 H 0.33312 0.07125 0.61116 0.0
H4563 H 0.32068 0.04453 0.63177 0.0
C4564 C 0.32286 0.93708 0.64474 0.0
C4565 C 0.30876 0.93725 0.62982 0.0
C4566 C 0.32783 0.95407 0.65492 0.0
C4567 C 0.31883 0.97195 0.65068 0.0
C4568 C 0.30423 0.97214 0.63617 0.0
C4569 C 0.29915 0.95496 0.62594 0.0
C4570 C 0.32571 0.99035 0.66065 0.0
C4571 C 0.33203 0.00618 0.64927 0.0
C4572 C 0.32805 0.9916 0.68118 0.0
C4573 C 0.32066 0.9761 0.69431 0.0
C4574 C 0.30119 0.96982 0.69308 0.0
C4575 C 0.29436 0.95508 0.70534 0.0
C4576 C 0.30683 0.94658 0.71897 0.0
C4577 C 0.32615 0.95283 0.72041 0.0
C4578 C 0.33306 0.96756 0.70818 0.0
C4579 C 0.35853 0.07608 0.69036 0.0
C4580 C 0.37547 0.07351 0.70162 0.0
C4581 C 0.34764 0.06004 0.68381 0.0
C4582 C 0.35366 0.04086 0.68785 0.0
C4583 C 0.36988 0.0383 0.7002 0.0
C4584 C 0.38068 0.05444 0.70698 0.0
C4585 C 0.34392 0.02366 0.67816 0.0
C4586 C 0.3372 0.00805 0.68957 0.0
C4587 C 0.34123 0.02259 0.65767 0.0
C4588 C 0.34879 0.03798 0.64454 0.0
C4589 C 0.36868 0.04293 0.64468 0.0
C4590 C 0.37556 0.05815 0.63305 0.0
C4591 C 0.36272 0.0684 0.62108 0.0
C4592 C 0.34302 0.06331 0.62051 0.0
C4593 C 0.33605 0.04811 0.63214 0.0
H4594 H 0.36806 0.08028 0.61224 0.0
H4595 H 0.30151 0.93516 0.72844 0.0
H4596 H 0.93233 0.35533 0.71461 0.0
H4597 H 0.96234 0.33863 0.70404 0.0
H4598 H 0.98356 0.39252 0.67975 0.0
H4599 H 0.95357 0.40889 0.68991 0.0
H4600 H 0.98914 0.36619 0.65421 0.0
H4601 H 1.00321 0.36956 0.72257 0.0
H4602 H 0.99729 0.36424 0.75758 0.0
H4603 H 0.99551 0.3024 0.74814 0.0
H4604 H 1.00118 0.30738 0.71302 0.0
H4605 H 0.0952 0.3322 0.66192 0.0
H4606 H 0.06485 0.34155 0.67827 0.0
H4607 H 0.03185 0.31154 0.63411 0.0
H4608 H 0.06236 0.30177 0.61794 0.0
H4609 H 0.0319 0.32409 0.69431 0.0
H4610 H 0.9934 0.34288 0.62182 0.0
H4611 H 1.00144 0.35332 0.58839 0.0
H4612 H 0.05583 0.37687 0.60845 0.0
H4613 H 0.04794 0.36694 0.642 0.0
C4614 C 0.94371 0.3637 0.70759 0.0
C4615 C 0.94073 0.38359 0.70356 0.0
C4616 C 0.96089 0.35411 0.70138 0.0
C4617 C 0.97555 0.36417 0.69099 0.0
C4618 C 0.97268 0.3842 0.68758 0.0
C4619 C 0.95556 0.39368 0.69365 0.0
C4620 C 0.99338 0.35397 0.68277 0.0
C4621 C 0.9983 0.35686 0.66306 0.0
C4622 C 0.00581 0.34188 0.69407 0.0
C4623 C 1.0024 0.33886 0.71515 0.0
C4624 C 1.0014 0.35484 0.72794 0.0
C4625 C 0.99812 0.35188 0.7478 0.0
C4626 C 0.99597 0.333 0.75507 0.0
C4627 C 0.99715 0.31702 0.74249 0.0
C4628 C 1.00041 0.3199 0.7226 0.0
C4629 C 0.08151 0.32688 0.65614 0.0
C4630 C 0.08133 0.31578 0.63885 0.0
C4631 C 0.06408 0.33237 0.66546 0.0
C4632 C 0.04584 0.32745 0.65749 0.0
C4633 C 0.04562 0.31561 0.64067 0.0
C4634 C 0.06313 0.30976 0.63153 0.0
C4635 C 0.02738 0.33619 0.66579 0.0
C4636 C 0.02244 0.3331 0.68545 0.0
C4637 C 0.0151 0.34845 0.65459 0.0
C4638 C 0.02016 0.35396 0.63436 0.0
C4639 C 0.00707 0.35028 0.61908 0.0
C4640 C 0.01158 0.35616 0.60012 0.0
C4641 C 0.02914 0.36575 0.59632 0.0
C4642 C 0.04226 0.3694 0.61142 0.0
C4643 C 0.03778 0.36364 0.63039 0.0
H4644 H 0.03256 0.37043 0.58167 0.0
H4645 H 0.99343 0.33074 0.77045 0.0
H4646 H 0.63951 0.94638 0.7188 0.0
H4647 H 0.65782 0.9746 0.70662 0.0
H4648 H 0.65508 0.95123 0.6484 0.0
H4649 H 0.63743 0.92296 0.66046 0.0
H4650 H 0.68956 0.96698 0.65362 0.0
H4651 H 0.62307 0.98921 0.6652 0.0
H4652 H 0.59433 0.99323 0.68649 0.0
H4653 H 0.62866 0.02643 0.72691 0.0
H4654 H 0.65748 0.02273 0.70581 0.0
H4655 H 0.70265 0.05216 0.59514 0.0
H4656 H 0.69279 0.02217 0.61189 0.0
H4657 H 0.69508 0.0522 0.66697 0.0
H4658 H 0.70417 0.08234 0.6501 0.0
H4659 H 0.66312 0.03309 0.66593 0.0
H4660 H 0.72864 0.01488 0.65198 0.0
H4661 H 0.75807 0.00928 0.63218 0.0
H4662 H 0.72732 0.96704 0.59776 0.0
H4663 H 0.69756 0.97269 0.61709 0.0
C4664 C 0.64302 0.94713 0.70345 0.0
C4665 C 0.63681 0.93232 0.69067 0.0
C4666 C 0.65338 0.96341 0.69643 0.0
C4667 C 0.65763 0.96541 0.67642 0.0
C4668 C 0.65204 0.95026 0.66384 0.0
C4669 C 0.6418 0.93402 0.67082 0.0
C4670 C 0.66724 0.9834 0.66829 0.0
C4671 C 0.68367 0.98142 0.65617 0.0
C4672 C 0.66002 1.00242 0.67193 0.0
C4673 C 0.64241 0.00563 0.684 0.0
C4674 C 0.62442 0.99746 0.6786 0.0
C4675 C 0.60811 0.99968 0.69062 0.0
C4676 C 0.60964 0.0101 0.70804 0.0
C4677 C 0.62742 0.01846 0.71337 0.0
C4678 C 0.64373 0.01637 0.70136 0.0
C4679 C 0.70184 0.05213 0.61089 0.0
C4680 C 0.70489 0.06947 0.62136 0.0
C4681 C 0.69608 0.03495 0.62049 0.0
C4682 C 0.69337 0.03459 0.64084 0.0
C4683 C 0.69706 0.05184 0.65133 0.0
C4684 C 0.7026 0.06905 0.64171 0.0
C4685 C 0.68542 0.01674 0.65094 0.0
C4686 C 0.66921 0.01872 0.66341 0.0
C4687 C 0.69292 0.99772 0.64764 0.0
C4688 C 0.71078 0.99437 0.63589 0.0
C4689 C 0.72808 1.00454 0.64007 0.0
C4690 C 0.74484 1.00133 0.62894 0.0
C4691 C 0.74455 0.98784 0.6137 0.0
C4692 C 0.72753 0.97748 0.60959 0.0
C4693 C 0.7107 0.98069 0.62062 0.0
H4694 H 0.75754 0.98539 0.60509 0.0
H4695 H 0.59704 0.01166 0.7174 0.0
H4696 H 0.29694 0.38927 0.95025 0.0
H4697 H 0.308 0.37421 0.98085 0.0
H4698 H 0.34868 0.3387 0.94874 0.0
H4699 H 0.33774 0.35359 0.9184 0.0
H4700 H 0.33388 0.31766 0.97775 0.0
H4701 H 0.36262 0.38066 0.97136 0.0
H4702 H 0.364 0.41636 0.96765 0.0
H4703 H 0.33241 0.42358 0.02113 0.0
H4704 H 0.33046 0.38787 0.02496 0.0
H4705 H 0.40138 0.29569 0.05646 0.0
H4706 H 0.38495 0.30489 0.02591 0.0
H4707 H 0.34575 0.34194 0.05817 0.0
H4708 H 0.36206 0.33294 0.08833 0.0
H4709 H 0.35929 0.36176 0.02897 0.0
H4710 H 0.33124 0.29788 0.03528 0.0
H4711 H 0.33165 0.26213 0.03891 0.0
H4712 H 0.3637 0.25666 0.98549 0.0
H4713 H 0.3637 0.2924 0.98167 0.0
C4714 C 0.30785 0.37788 0.94968 0.0
C4715 C 0.31634 0.37264 0.93175 0.0
C4716 C 0.31438 0.36941 0.96725 0.0
C4717 C 0.32948 0.3554 0.96733 0.0
C4718 C 0.33711 0.34942 0.9493 0.0
C4719 C 0.33078 0.358 0.93186 0.0
C4720 C 0.33811 0.34764 0.98601 0.0
C4721 C 0.33953 0.32735 0.98888 0.0
C4722 C 0.34547 0.36009 1.0008 0.0
C4723 C 0.34617 0.38156 0.99831 0.0
C4724 C 0.35573 0.38984 0.9822 0.0
C4725 C 0.35666 0.41007 0.9801 0.0
C4726 C 0.34828 0.4222 0.99413 0.0
C4727 C 0.33886 0.41414 0.01026 0.0
C4728 C 0.33782 0.3939 0.01239 0.0
C4729 C 0.38891 0.30534 0.05706 0.0
C4730 C 0.38308 0.3135 0.07495 0.0
C4731 C 0.37953 0.31073 0.03952 0.0
C4732 C 0.364 0.3243 0.03948 0.0
C4733 C 0.35772 0.33167 0.05752 0.0
C4734 C 0.36706 0.32638 0.07488 0.0
C4735 C 0.35484 0.33175 0.02089 0.0
C4736 C 0.35344 0.35203 0.01797 0.0
C4737 C 0.34762 0.3193 0.00604 0.0
C4738 C 0.34764 0.29782 0.0083 0.0
C4739 C 0.33851 0.28906 0.02439 0.0
C4740 C 0.33864 0.2688 0.02646 0.0
C4741 C 0.34774 0.25714 0.01247 0.0
C4742 C 0.35668 0.26571 0.99634 0.0
C4743 C 0.35661 0.28597 0.9942 0.0
H4744 H 0.34782 0.24145 0.01409 0.0
H4745 H 0.34923 0.43784 0.99256 0.0
H4746 H 0.40002 0.71192 0.94449 0.0
H4747 H 0.38421 0.70197 0.97492 0.0
H4748 H 0.33523 0.67987 0.94253 0.0
H4749 H 0.35127 0.68935 0.91205 0.0
H4750 H 0.32444 0.69715 0.97963 0.0
H4751 H 0.36829 0.65107 0.95199 0.0
H4752 H 0.3994 0.63925 0.9386 0.0
H4753 H 0.42706 0.64838 0.99387 0.0
H4754 H 0.39623 0.66089 0.00747 0.0
H4755 H 0.29318 0.62674 0.05368 0.0
H4756 H 0.30169 0.64335 0.02296 0.0
H4757 H 0.35609 0.66206 0.0481 0.0
H4758 H 0.34782 0.64595 0.07834 0.0
H4759 H 0.36232 0.64567 0.01324 0.0
H4760 H 0.31879 0.69402 0.03989 0.0
H4761 H 0.28756 0.70615 0.05291 0.0
H4762 H 0.25894 0.69067 0.99951 0.0
H4763 H 0.28998 0.6782 0.98627 0.0
C4764 C 0.38547 0.70582 0.94392 0.0
C4765 C 0.37668 0.70189 0.92585 0.0
C4766 C 0.37652 0.69986 0.96135 0.0
C4767 C 0.35852 0.68998 0.96115 0.0
C4768 C 0.34902 0.68752 0.9432 0.0
C4769 C 0.35814 0.69311 0.92575 0.0
C4770 C 0.35083 0.6802 0.97915 0.0
C4771 C 0.33266 0.68578 0.98688 0.0
C4772 C 0.36145 0.66527 0.98871 0.0
C4773 C 0.38001 0.65749 0.98062 0.0
C4774 C 0.38107 0.65094 0.96122 0.0
C4775 C 0.39866 0.64406 0.95359 0.0
C4776 C 0.41525 0.64325 0.96533 0.0
C4777 C 0.41423 0.64918 0.98475 0.0
C4778 C 0.39671 0.65624 0.99241 0.0
C4779 C 0.30678 0.63467 0.05274 0.0
C4780 C 0.31979 0.63476 0.06862 0.0
C4781 C 0.31169 0.64415 0.03512 0.0
C4782 C 0.32969 0.65393 0.03301 0.0
C4783 C 0.34225 0.65452 0.04909 0.0
C4784 C 0.33739 0.64523 0.06653 0.0
C4785 C 0.33616 0.66296 0.0141 0.0
C4786 C 0.3541 0.65709 0.00606 0.0
C4787 C 0.3253 0.6775 0.00425 0.0
C4788 C 0.30665 0.68497 0.01218 0.0
C4789 C 0.3058 0.69304 0.031 0.0
C4790 C 0.28815 0.70001 0.0384 0.0
C4791 C 0.27126 0.69912 0.02707 0.0
C4792 C 0.27202 0.69131 0.00829 0.0
C4793 C 0.28964 0.6843 1.00082 0.0
H4794 H 0.25761 0.70453 0.03282 0.0
H4795 H 0.42886 0.6379 0.95941 0.0
H4796 H 0.64773 0.33169 0.92081 0.0
H4797 H 0.66402 0.34234 0.95049 0.0
H4798 H 0.62096 0.31224 0.98485 0.0
H4799 H 0.60447 0.30151 0.95479 0.0
H4800 H 0.62576 0.34935 0.9976 0.0
H4801 H 0.66845 0.2964 0.98374 0.0
H4802 H 0.68998 0.27586 0.96358 0.0
H4803 H 0.72843 0.32438 0.95466 0.0
H4804 H 0.70698 0.3453 0.97454 0.0
H4805 H 0.70586 0.36162 0.07809 0.0
H4806 H 0.69377 0.34375 0.04946 0.0
H4807 H 0.66691 0.39639 0.02827 0.0
H4808 H 0.67862 0.41402 0.05697 0.0
H4809 H 0.69653 0.34405 0.01133 0.0
H4810 H 0.62466 0.38733 0.0055 0.0
H4811 H 0.60248 0.40649 0.02632 0.0
H4812 H 0.62145 0.37453 0.07649 0.0
H4813 H 0.64348 0.35486 0.05593 0.0
C4814 C 0.64198 0.32687 0.93464 0.0
C4815 C 0.62491 0.31552 0.93534 0.0
C4816 C 0.65136 0.333 0.95171 0.0
C4817 C 0.64388 0.32812 0.9701 0.0
C4818 C 0.62713 0.31621 0.9709 0.0
C4819 C 0.61783 0.30984 0.9537 0.0
C4820 C 0.65285 0.33666 0.9882 0.0
C4821 C 0.64122 0.34808 1.00062 0.0
C4822 C 0.67303 0.335 0.99242 0.0
C4823 C 0.68603 0.32246 0.98053 0.0
C4824 C 0.68143 0.30273 0.97737 0.0
C4825 C 0.69363 0.29101 0.96601 0.0
C4826 C 0.71054 0.29882 0.95782 0.0
C4827 C 0.71531 0.31836 0.96101 0.0
C4828 C 0.70316 0.33015 0.97235 0.0
C4829 C 0.69797 0.36948 0.06693 0.0
C4830 C 0.69361 0.38933 0.06953 0.0
C4831 C 0.69086 0.35922 0.05063 0.0
C4832 C 0.67902 0.36854 0.03669 0.0
C4833 C 0.67566 0.38867 0.03883 0.0
C4834 C 0.68263 0.39885 0.05513 0.0
C4835 C 0.66953 0.35717 0.02046 0.0
C4836 C 0.68105 0.34525 0.00838 0.0
C4837 C 0.6492 0.35823 0.01664 0.0
C4838 C 0.6358 0.3697 0.02917 0.0
C4839 C 0.62399 0.38428 0.02095 0.0
C4840 C 0.61145 0.39522 0.03271 0.0
C4841 C 0.61055 0.39169 0.05271 0.0
C4842 C 0.62216 0.37718 0.06099 0.0
C4843 C 0.63468 0.36614 0.0493 0.0
H4844 H 0.60086 0.4002 0.0618 0.0
H4845 H 0.71997 0.28973 0.94902 0.0
H4846 H 0.72076 0.62153 0.95195 0.0
H4847 H 0.71082 0.64063 0.98071 0.0
H4848 H 0.65874 0.65884 0.95073 0.0
H4849 H 0.66882 0.64068 0.92212 0.0
H4850 H 0.67044 0.68771 0.97268 0.0
H4851 H 0.66215 0.61824 0.98192 0.0
H4852 H 0.67564 0.58501 0.98288 0.0
H4853 H 0.71193 0.60085 0.03128 0.0
H4854 H 0.69914 0.63444 0.03015 0.0
H4855 H 0.60484 0.70876 0.05165 0.0
H4856 H 0.62203 0.69755 0.0223 0.0
H4857 H 0.66927 0.67646 0.05795 0.0
H4858 H 0.65171 0.68686 0.08711 0.0
H4859 H 0.66258 0.64998 0.03364 0.0
H4860 H 0.6717 0.71872 0.02532 0.0
H4861 H 0.66192 0.75319 0.02265 0.0
H4862 H 0.62632 0.73953 0.9731 0.0
H4863 H 0.63571 0.70492 0.97561 0.0
C4864 C 0.70746 0.63 0.95134 0.0
C4865 C 0.69555 0.62928 0.93467 0.0
C4866 C 0.70165 0.64082 0.9679 0.0
C4867 C 0.68369 0.65095 0.96824 0.0
C4868 C 0.67254 0.65118 0.95112 0.0
C4869 C 0.67836 0.64058 0.93468 0.0
C4870 C 0.6755 0.66006 0.98652 0.0
C4871 C 0.66865 0.6794 0.98597 0.0
C4872 C 0.67335 0.6495 0.00415 0.0
C4873 C 0.67989 0.62895 0.00577 0.0
C4874 C 0.67311 0.61469 0.99269 0.0
C4875 C 0.68074 0.59582 0.99317 0.0
C4876 C 0.69481 0.59087 0.007 0.0
C4877 C 0.70114 0.60475 0.02048 0.0
C4878 C 0.69373 0.62373 0.0199 0.0
C4879 C 0.61917 0.70231 0.05313 0.0
C4880 C 0.62705 0.6991 0.07175 0.0
C4881 C 0.62904 0.69575 0.03629 0.0
C4882 C 0.64723 0.68613 0.0376 0.0
C4883 C 0.65533 0.68366 0.05625 0.0
C4884 C 0.64535 0.68989 0.07299 0.0
C4885 C 0.65742 0.67777 0.01988 0.0
C4886 C 0.66451 0.65845 0.02047 0.0
C4887 C 0.65993 0.68841 1.00233 0.0
C4888 C 0.65427 0.7092 1.00077 0.0
C4889 C 0.66168 0.72304 0.01394 0.0
C4890 C 0.65622 0.74261 0.01244 0.0
C4891 C 0.64347 0.74854 0.99775 0.0
C4892 C 0.63618 0.73491 0.98448 0.0
C4893 C 0.64158 0.71532 0.98593 0.0
H4894 H 0.63926 0.76369 0.99661 0.0
H4895 H 0.70065 0.57624 0.00743 0.0
loop_
_geom_bond_atom_site_label_1
_geom_bond_atom_site_label_2
_geom_bond_distance
_geom_bond_site_symmetry_2
_ccdc_geom_bond_type
O0 Tb1 2.292 . S
O0 C3 1.255 . S
Tb1 O0 2.292 . S
Tb1 O17 2.326 . S
Tb1 O19 2.500 . S
Tb1 O20 2.473 . S
Tb1 O23 2.324 . S
Eu2 O6 2.292 . S
Eu2 C7 2.852 . S
Eu2 O18 2.324 . S
Eu2 O22 2.326 . S
Eu2 O24 2.500 . S
Eu2 O25 2.473 . S
C3 O0 1.255 . S
C3 O4 1.247 . S
O4 C3 1.247 . S
C5 O17 1.242 . S
C5 O18 1.258 . S
O6 Eu2 2.292 . S
O6 C8 1.255 . S
C7 Eu2 2.852 . S
C7 C11 1.503 . S
C7 O24 1.273 . S
C7 O25 1.257 . S
C8 O6 1.255 . S
C8 O9 1.247 . S
O9 C8 1.247 . S
C10 O22 1.242 . S
C10 O23 1.258 . S
C11 C7 1.503 . S
C11 C12 1.379 . S
C11 C16 1.392 . S
C12 C11 1.379 . S
C12 C13 1.404 . S
C12 H26 0.929 . S
C13 C12 1.404 . S
C13 C14 1.389 . S
C14 C13 1.389 . S
C14 C15 1.399 . S
C14 H27 0.931 . S
C15 C14 1.399 . S
C15 C16 1.390 . S
C16 C11 1.392 . S
C16 C15 1.390 . S
C16 H28 0.929 . S
O17 Tb1 2.326 . S
O17 C5 1.242 . S
O18 Eu2 2.324 . S
O18 C5 1.258 . S
O19 Tb1 2.500 . S
O19 C21 1.273 . S
O20 Tb1 2.473 . S
O20 C21 1.257 . S
C21 O19 1.273 . S
C21 O20 1.257 . S
O22 Eu2 2.326 . S
O22 C10 1.242 . S
O23 Tb1 2.324 . S
O23 C10 1.258 . S
O24 Eu2 2.500 . S
O24 C7 1.273 . S
O25 Eu2 2.473 . S
O25 C7 1.257 . S
H26 C12 0.929 . S
H27 C14 0.931 . S
H28 C16 0.929 . S
O29 Tb30 2.292 . S
O29 C32 1.255 . S
Tb30 O29 2.292 . S
Tb30 O46 2.326 . S
Tb30 O48 2.500 . S
Tb30 O49 2.473 . S
Tb30 O52 2.324 . S
Eu31 O35 2.292 . S
Eu31 C36 2.852 . S
Eu31 O47 2.324 . S
Eu31 O51 2.326 . S
Eu31 O53 2.500 . S
Eu31 O54 2.473 . S
C32 O29 1.255 . S
C32 O33 1.247 . S
O33 C32 1.247 . S
C34 O46 1.242 . S
C34 O47 1.258 . S
O35 Eu31 2.292 . S
O35 C37 1.255 . S
C36 Eu31 2.852 . S
C36 C40 1.503 . S
C36 O53 1.273 . S
C36 O54 1.257 . S
C37 O35 1.255 . S
C37 O38 1.247 . S
O38 C37 1.247 . S
C39 O51 1.242 . S
C39 O52 1.258 . S
C40 C36 1.503 . S
C40 C41 1.379 . S
C40 C45 1.392 . S
C41 C40 1.379 . S
C41 C42 1.404 . S
C41 H55 0.929 . S
C42 C41 1.404 . S
C42 C43 1.389 . S
C43 C42 1.389 . S
C43 C44 1.399 . S
C43 H56 0.931 . S
C44 C43 1.399 . S
C44 C45 1.390 . S
C45 C40 1.392 . S
C45 C44 1.390 . S
C45 H57 0.929 . S
O46 Tb30 2.326 . S
O46 C34 1.242 . S
O47 Eu31 2.324 . S
O47 C34 1.258 . S
O48 Tb30 2.500 . S
O48 C50 1.273 . S
O49 Tb30 2.473 . S
O49 C50 1.257 . S
C50 O48 1.273 . S
C50 O49 1.257 . S
O51 Eu31 2.326 . S
O51 C39 1.242 . S
O52 Tb30 2.324 . S
O52 C39 1.258 . S
O53 Eu31 2.500 . S
O53 C36 1.273 . S
O54 Eu31 2.473 . S
O54 C36 1.257 . S
H55 C41 0.929 . S
H56 C43 0.931 . S
H57 C45 0.929 . S
O58 Tb59 2.292 . S
O58 C61 1.255 . S
Tb59 O58 2.292 . S
Tb59 O75 2.326 . S
Tb59 O77 2.500 . S
Tb59 O78 2.473 . S
Tb59 O81 2.324 . S
Eu60 O64 2.292 . S
Eu60 C65 2.852 . S
Eu60 O76 2.324 . S
Eu60 O80 2.326 . S
Eu60 O82 2.500 . S
Eu60 O83 2.473 . S
C61 O58 1.255 . S
C61 O62 1.247 . S
O62 C61 1.247 . S
C63 O75 1.242 . S
C63 O76 1.258 . S
O64 Eu60 2.292 . S
O64 C66 1.255 . S
C65 Eu60 2.852 . S
C65 C69 1.503 . S
C65 O82 1.273 . S
C65 O83 1.257 . S
C66 O64 1.255 . S
C66 O67 1.247 . S
O67 C66 1.247 . S
C68 O80 1.242 . S
C68 O81 1.258 . S
C69 C65 1.503 . S
C69 C70 1.379 . S
C69 C74 1.392 . S
C70 C69 1.379 . S
C70 C71 1.404 . S
C70 H84 0.929 . S
C71 C70 1.404 . S
C71 C72 1.389 . S
C72 C71 1.389 . S
C72 C73 1.399 . S
C72 H85 0.931 . S
C73 C72 1.399 . S
C73 C74 1.390 . S
C74 C69 1.392 . S
C74 C73 1.390 . S
C74 H86 0.929 . S
O75 Tb59 2.326 . S
O75 C63 1.242 . S
O76 Eu60 2.324 . S
O76 C63 1.258 . S
O77 Tb59 2.500 . S
O77 C79 1.273 . S
O78 Tb59 2.473 . S
O78 C79 1.257 . S
C79 O77 1.273 . S
C79 O78 1.257 . S
O80 Eu60 2.326 . S
O80 C68 1.242 . S
O81 Tb59 2.324 . S
O81 C68 1.258 . S
O82 Eu60 2.500 . S
O82 C65 1.273 . S
O83 Eu60 2.473 . S
O83 C65 1.257 . S
H84 C70 0.929 . S
H85 C72 0.931 . S
H86 C74 0.929 . S
O87 Tb88 2.292 . S
O87 C90 1.255 . S
Tb88 O87 2.292 . S
Tb88 O104 2.326 . S
Tb88 O106 2.500 . S
Tb88 O107 2.473 . S
Tb88 O110 2.324 . S
Eu89 O93 2.292 . S
Eu89 C94 2.852 . S
Eu89 O105 2.324 . S
Eu89 O109 2.326 . S
Eu89 O111 2.500 . S
Eu89 O112 2.473 . S
C90 O87 1.255 . S
C90 O91 1.247 . S
O91 C90 1.247 . S
C92 O104 1.242 . S
C92 O105 1.258 . S
O93 Eu89 2.292 . S
O93 C95 1.255 . S
C94 Eu89 2.852 . S
C94 C98 1.503 . S
C94 O111 1.273 . S
C94 O112 1.257 . S
C95 O93 1.255 . S
C95 O96 1.247 . S
O96 C95 1.247 . S
C97 O109 1.242 . S
C97 O110 1.258 . S
C98 C94 1.503 . S
C98 C99 1.379 . S
C98 C103 1.392 . S
C99 C98 1.379 . S
C99 C100 1.404 . S
C99 H113 0.929 . S
C100 C99 1.404 . S
C100 C101 1.389 . S
C101 C100 1.389 . S
C101 C102 1.399 . S
C101 H114 0.931 . S
C102 C101 1.399 . S
C102 C103 1.390 . S
C103 C98 1.392 . S
C103 C102 1.390 . S
C103 H115 0.929 . S
O104 Tb88 2.326 . S
O104 C92 1.242 . S
O105 Eu89 2.324 . S
O105 C92 1.258 . S
O106 Tb88 2.500 . S
O106 C108 1.273 . S
O107 Tb88 2.473 . S
O107 C108 1.257 . S
C108 O106 1.273 . S
C108 O107 1.257 . S
O109 Eu89 2.326 . S
O109 C97 1.242 . S
O110 Tb88 2.324 . S
O110 C97 1.258 . S
O111 Eu89 2.500 . S
O111 C94 1.273 . S
O112 Eu89 2.473 . S
O112 C94 1.257 . S
H113 C99 0.929 . S
H114 C101 0.931 . S
H115 C103 0.929 . S
O116 Tb117 2.292 . S
O116 C119 1.255 . S
Tb117 O116 2.292 . S
Tb117 O133 2.326 . S
Tb117 O135 2.500 . S
Tb117 O136 2.473 . S
Tb117 O139 2.324 . S
Eu118 O122 2.292 . S
Eu118 C123 2.852 . S
Eu118 O134 2.324 . S
Eu118 O138 2.326 . S
Eu118 O140 2.500 . S
Eu118 O141 2.473 . S
C119 O116 1.255 . S
C119 O120 1.247 . S
O120 C119 1.247 . S
C121 O133 1.242 . S
C121 O134 1.258 . S
O122 Eu118 2.292 . S
O122 C124 1.255 . S
C123 Eu118 2.852 . S
C123 C127 1.503 . S
C123 O140 1.273 . S
C123 O141 1.257 . S
C124 O122 1.255 . S
C124 O125 1.247 . S
O125 C124 1.247 . S
C126 O138 1.242 . S
C126 O139 1.258 . S
C127 C123 1.503 . S
C127 C128 1.379 . S
C127 C132 1.392 . S
C128 C127 1.379 . S
C128 C129 1.404 . S
C128 H142 0.929 . S
C129 C128 1.404 . S
C129 C130 1.389 . S
C130 C129 1.389 . S
C130 C131 1.399 . S
C130 H143 0.931 . S
C131 C130 1.399 . S
C131 C132 1.390 . S
C132 C127 1.392 . S
C132 C131 1.390 . S
C132 H144 0.929 . S
O133 Tb117 2.326 . S
O133 C121 1.242 . S
O134 Eu118 2.324 . S
O134 C121 1.258 . S
O135 Tb117 2.500 . S
O135 C137 1.273 . S
O136 Tb117 2.473 . S
O136 C137 1.257 . S
C137 O135 1.273 . S
C137 O136 1.257 . S
O138 Eu118 2.326 . S
O138 C126 1.242 . S
O139 Tb117 2.324 . S
O139 C126 1.258 . S
O140 Eu118 2.500 . S
O140 C123 1.273 . S
O141 Eu118 2.473 . S
O141 C123 1.257 . S
H142 C128 0.929 . S
H143 C130 0.931 . S
H144 C132 0.929 . S
O145 Tb146 2.292 . S
O145 C148 1.255 . S
Tb146 O145 2.292 . S
Tb146 O162 2.326 . S
Tb146 O164 2.500 . S
Tb146 O165 2.473 . S
Tb146 O168 2.324 . S
Eu147 O151 2.292 . S
Eu147 C152 2.852 . S
Eu147 O163 2.324 . S
Eu147 O167 2.326 . S
Eu147 O169 2.500 . S
Eu147 O170 2.473 . S
C148 O145 1.255 . S
C148 O149 1.247 . S
O149 C148 1.247 . S
C150 O162 1.242 . S
C150 O163 1.258 . S
O151 Eu147 2.292 . S
O151 C153 1.255 . S
C152 Eu147 2.852 . S
C152 C156 1.503 . S
C152 O169 1.273 . S
C152 O170 1.257 . S
C153 O151 1.255 . S
C153 O154 1.247 . S
O154 C153 1.247 . S
C155 O167 1.242 . S
C155 O168 1.258 . S
C156 C152 1.503 . S
C156 C157 1.379 . S
C156 C161 1.392 . S
C157 C156 1.379 . S
C157 C158 1.404 . S
C157 H171 0.929 . S
C158 C157 1.404 . S
C158 C159 1.389 . S
C159 C158 1.389 . S
C159 C160 1.399 . S
C159 H172 0.931 . S
C160 C159 1.399 . S
C160 C161 1.390 . S
C161 C156 1.392 . S
C161 C160 1.390 . S
C161 H173 0.929 . S
O162 Tb146 2.326 . S
O162 C150 1.242 . S
O163 Eu147 2.324 . S
O163 C150 1.258 . S
O164 Tb146 2.500 . S
O164 C166 1.273 . S
O165 Tb146 2.473 . S
O165 C166 1.257 . S
C166 O164 1.273 . S
C166 O165 1.257 . S
O167 Eu147 2.326 . S
O167 C155 1.242 . S
O168 Tb146 2.324 . S
O168 C155 1.258 . S
O169 Eu147 2.500 . S
O169 C152 1.273 . S
O170 Eu147 2.473 . S
O170 C152 1.257 . S
H171 C157 0.929 . S
H172 C159 0.931 . S
H173 C161 0.929 . S
O174 Tb175 2.292 . S
O174 C177 1.255 . S
Tb175 O174 2.292 . S
Tb175 O191 2.326 . S
Tb175 O193 2.500 . S
Tb175 O194 2.473 . S
Tb175 O197 2.324 . S
Eu176 O180 2.292 . S
Eu176 C181 2.852 . S
Eu176 O192 2.324 . S
Eu176 O196 2.326 . S
Eu176 O198 2.500 . S
Eu176 O199 2.473 . S
C177 O174 1.255 . S
C177 O178 1.247 . S
O178 C177 1.247 . S
C179 O191 1.242 . S
C179 O192 1.258 . S
O180 Eu176 2.292 . S
O180 C182 1.255 . S
C181 Eu176 2.852 . S
C181 C185 1.503 . S
C181 O198 1.273 . S
C181 O199 1.257 . S
C182 O180 1.255 . S
C182 O183 1.247 . S
O183 C182 1.247 . S
C184 O196 1.242 . S
C184 O197 1.258 . S
C185 C181 1.503 . S
C185 C186 1.379 . S
C185 C190 1.392 . S
C186 C185 1.379 . S
C186 C187 1.404 . S
C186 H200 0.929 . S
C187 C186 1.404 . S
C187 C188 1.389 . S
C188 C187 1.389 . S
C188 C189 1.399 . S
C188 H201 0.931 . S
C189 C188 1.399 . S
C189 C190 1.390 . S
C190 C185 1.392 . S
C190 C189 1.390 . S
C190 H202 0.929 . S
O191 Tb175 2.326 . S
O191 C179 1.242 . S
O192 Eu176 2.324 . S
O192 C179 1.258 . S
O193 Tb175 2.500 . S
O193 C195 1.273 . S
O194 Tb175 2.473 . S
O194 C195 1.257 . S
C195 O193 1.273 . S
C195 O194 1.257 . S
O196 Eu176 2.326 . S
O196 C184 1.242 . S
O197 Tb175 2.324 . S
O197 C184 1.258 . S
O198 Eu176 2.500 . S
O198 C181 1.273 . S
O199 Eu176 2.473 . S
O199 C181 1.257 . S
H200 C186 0.929 . S
H201 C188 0.931 . S
H202 C190 0.929 . S
O203 Tb204 2.292 . S
O203 C206 1.255 . S
Tb204 O203 2.292 . S
Tb204 O220 2.326 . S
Tb204 O222 2.500 . S
Tb204 O223 2.473 . S
Tb204 O226 2.324 . S
Eu205 O209 2.292 . S
Eu205 C210 2.852 . S
Eu205 O221 2.324 . S
Eu205 O225 2.326 . S
Eu205 O227 2.500 . S
Eu205 O228 2.473 . S
C206 O203 1.255 . S
C206 O207 1.247 . S
O207 C206 1.247 . S
C208 O220 1.242 . S
C208 O221 1.258 . S
O209 Eu205 2.292 . S
O209 C211 1.255 . S
C210 Eu205 2.852 . S
C210 C214 1.503 . S
C210 O227 1.273 . S
C210 O228 1.257 . S
C211 O209 1.255 . S
C211 O212 1.247 . S
O212 C211 1.247 . S
C213 O225 1.242 . S
C213 O226 1.258 . S
C214 C210 1.503 . S
C214 C215 1.379 . S
C214 C219 1.392 . S
C215 C214 1.379 . S
C215 C216 1.404 . S
C215 H229 0.929 . S
C216 C215 1.404 . S
C216 C217 1.389 . S
C217 C216 1.389 . S
C217 C218 1.399 . S
C217 H230 0.931 . S
C218 C217 1.399 . S
C218 C219 1.390 . S
C219 C214 1.392 . S
C219 C218 1.390 . S
C219 H231 0.929 . S
O220 Tb204 2.326 . S
O220 C208 1.242 . S
O221 Eu205 2.324 . S
O221 C208 1.258 . S
O222 Tb204 2.500 . S
O222 C224 1.273 . S
O223 Tb204 2.473 . S
O223 C224 1.257 . S
C224 O222 1.273 . S
C224 O223 1.257 . S
O225 Eu205 2.326 . S
O225 C213 1.242 . S
O226 Tb204 2.324 . S
O226 C213 1.258 . S
O227 Eu205 2.500 . S
O227 C210 1.273 . S
O228 Eu205 2.473 . S
O228 C210 1.257 . S
H229 C215 0.929 . S
H230 C217 0.931 . S
H231 C219 0.929 . S
O232 Tb233 2.292 . S
O232 C235 1.255 . S
Tb233 O232 2.292 . S
Tb233 O249 2.326 . S
Tb233 O251 2.500 . S
Tb233 O252 2.473 . S
Tb233 O255 2.324 . S
Eu234 O238 2.292 . S
Eu234 C239 2.852 . S
Eu234 O250 2.324 . S
Eu234 O254 2.326 . S
Eu234 O256 2.500 . S
Eu234 O257 2.473 . S
C235 O232 1.255 . S
C235 O236 1.247 . S
O236 C235 1.247 . S
C237 O249 1.242 . S
C237 O250 1.258 . S
O238 Eu234 2.292 . S
O238 C240 1.255 . S
C239 Eu234 2.852 . S
C239 C243 1.503 . S
C239 O256 1.273 . S
C239 O257 1.257 . S
C240 O238 1.255 . S
C240 O241 1.247 . S
O241 C240 1.247 . S
C242 O254 1.242 . S
C242 O255 1.258 . S
C243 C239 1.503 . S
C243 C244 1.379 . S
C243 C248 1.392 . S
C244 C243 1.379 . S
C244 C245 1.404 . S
C244 H258 0.929 . S
C245 C244 1.404 . S
C245 C246 1.389 . S
C246 C245 1.389 . S
C246 C247 1.399 . S
C246 H259 0.931 . S
C247 C246 1.399 . S
C247 C248 1.390 . S
C248 C243 1.392 . S
C248 C247 1.390 . S
C248 H260 0.929 . S
O249 Tb233 2.326 . S
O249 C237 1.242 . S
O250 Eu234 2.324 . S
O250 C237 1.258 . S
O251 Tb233 2.500 . S
O251 C253 1.273 . S
O252 Tb233 2.473 . S
O252 C253 1.257 . S
C253 O251 1.273 . S
C253 O252 1.257 . S
O254 Eu234 2.326 . S
O254 C242 1.242 . S
O255 Tb233 2.324 . S
O255 C242 1.258 . S
O256 Eu234 2.500 . S
O256 C239 1.273 . S
O257 Eu234 2.473 . S
O257 C239 1.257 . S
H258 C244 0.929 . S
H259 C246 0.931 . S
H260 C248 0.929 . S
O261 Tb262 2.292 . S
O261 C264 1.255 . S
Tb262 O261 2.292 . S
Tb262 O278 2.326 . S
Tb262 O280 2.500 . S
Tb262 O281 2.473 . S
Tb262 O284 2.324 . S
Eu263 O267 2.292 . S
Eu263 C268 2.852 . S
Eu263 O279 2.324 . S
Eu263 O283 2.326 . S
Eu263 O285 2.500 . S
Eu263 O286 2.473 . S
C264 O261 1.255 . S
C264 O265 1.247 . S
O265 C264 1.247 . S
C266 O278 1.242 . S
C266 O279 1.258 . S
O267 Eu263 2.292 . S
O267 C269 1.255 . S
C268 Eu263 2.852 . S
C268 C272 1.503 . S
C268 O285 1.273 . S
C268 O286 1.257 . S
C269 O267 1.255 . S
C269 O270 1.247 . S
O270 C269 1.247 . S
C271 O283 1.242 . S
C271 O284 1.258 . S
C272 C268 1.503 . S
C272 C273 1.379 . S
C272 C277 1.392 . S
C273 C272 1.379 . S
C273 C274 1.404 . S
C273 H287 0.929 . S
C274 C273 1.404 . S
C274 C275 1.389 . S
C275 C274 1.389 . S
C275 C276 1.399 . S
C275 H288 0.931 . S
C276 C275 1.399 . S
C276 C277 1.390 . S
C277 C272 1.392 . S
C277 C276 1.390 . S
C277 H289 0.929 . S
O278 Tb262 2.326 . S
O278 C266 1.242 . S
O279 Eu263 2.324 . S
O279 C266 1.258 . S
O280 Tb262 2.500 . S
O280 C282 1.273 . S
O281 Tb262 2.473 . S
O281 C282 1.257 . S
C282 O280 1.273 . S
C282 O281 1.257 . S
O283 Eu263 2.326 . S
O283 C271 1.242 . S
O284 Tb262 2.324 . S
O284 C271 1.258 . S
O285 Eu263 2.500 . S
O285 C268 1.273 . S
O286 Eu263 2.473 . S
O286 C268 1.257 . S
H287 C273 0.929 . S
H288 C275 0.931 . S
H289 C277 0.929 . S
O290 Tb291 2.292 . S
O290 C293 1.255 . S
Tb291 O290 2.292 . S
Tb291 O307 2.326 . S
Tb291 O309 2.500 . S
Tb291 O310 2.473 . S
Tb291 O313 2.324 . S
Eu292 O296 2.292 . S
Eu292 C297 2.852 . S
Eu292 O308 2.324 . S
Eu292 O312 2.326 . S
Eu292 O314 2.500 . S
Eu292 O315 2.473 . S
C293 O290 1.255 . S
C293 O294 1.247 . S
O294 C293 1.247 . S
C295 O307 1.242 . S
C295 O308 1.258 . S
O296 Eu292 2.292 . S
O296 C298 1.255 . S
C297 Eu292 2.852 . S
C297 C301 1.503 . S
C297 O314 1.273 . S
C297 O315 1.257 . S
C298 O296 1.255 . S
C298 O299 1.247 . S
O299 C298 1.247 . S
C300 O312 1.242 . S
C300 O313 1.258 . S
C301 C297 1.503 . S
C301 C302 1.379 . S
C301 C306 1.392 . S
C302 C301 1.379 . S
C302 C303 1.404 . S
C302 H316 0.929 . S
C303 C302 1.404 . S
C303 C304 1.389 . S
C304 C303 1.389 . S
C304 C305 1.399 . S
C304 H317 0.931 . S
C305 C304 1.399 . S
C305 C306 1.390 . S
C306 C301 1.392 . S
C306 C305 1.390 . S
C306 H318 0.929 . S
O307 Tb291 2.326 . S
O307 C295 1.242 . S
O308 Eu292 2.324 . S
O308 C295 1.258 . S
O309 Tb291 2.500 . S
O309 C311 1.273 . S
O310 Tb291 2.473 . S
O310 C311 1.257 . S
C311 O309 1.273 . S
C311 O310 1.257 . S
O312 Eu292 2.326 . S
O312 C300 1.242 . S
O313 Tb291 2.324 . S
O313 C300 1.258 . S
O314 Eu292 2.500 . S
O314 C297 1.273 . S
O315 Eu292 2.473 . S
O315 C297 1.257 . S
H316 C302 0.929 . S
H317 C304 0.931 . S
H318 C306 0.929 . S
O319 Tb320 2.292 . S
O319 C322 1.255 . S
Tb320 O319 2.292 . S
Tb320 O336 2.326 . S
Tb320 O338 2.500 . S
Tb320 O339 2.473 . S
Tb320 O342 2.324 . S
Eu321 O325 2.292 . S
Eu321 C326 2.852 . S
Eu321 O337 2.324 . S
Eu321 O341 2.326 . S
Eu321 O343 2.500 . S
Eu321 O344 2.473 . S
C322 O319 1.255 . S
C322 O323 1.247 . S
O323 C322 1.247 . S
C324 O336 1.242 . S
C324 O337 1.258 . S
O325 Eu321 2.292 . S
O325 C327 1.255 . S
C326 Eu321 2.852 . S
C326 C330 1.503 . S
C326 O343 1.273 . S
C326 O344 1.257 . S
C327 O325 1.255 . S
C327 O328 1.247 . S
O328 C327 1.247 . S
C329 O341 1.242 . S
C329 O342 1.258 . S
C330 C326 1.503 . S
C330 C331 1.379 . S
C330 C335 1.392 . S
C331 C330 1.379 . S
C331 C332 1.404 . S
C331 H345 0.929 . S
C332 C331 1.404 . S
C332 C333 1.389 . S
C333 C332 1.389 . S
C333 C334 1.399 . S
C333 H346 0.931 . S
C334 C333 1.399 . S
C334 C335 1.390 . S
C335 C330 1.392 . S
C335 C334 1.390 . S
C335 H347 0.929 . S
O336 Tb320 2.326 . S
O336 C324 1.242 . S
O337 Eu321 2.324 . S
O337 C324 1.258 . S
O338 Tb320 2.500 . S
O338 C340 1.273 . S
O339 Tb320 2.473 . S
O339 C340 1.257 . S
C340 O338 1.273 . S
C340 O339 1.257 . S
O341 Eu321 2.326 . S
O341 C329 1.242 . S
O342 Tb320 2.324 . S
O342 C329 1.258 . S
O343 Eu321 2.500 . S
O343 C326 1.273 . S
O344 Eu321 2.473 . S
O344 C326 1.257 . S
H345 C331 0.929 . S
H346 C333 0.931 . S
H347 C335 0.929 . S
O348 Tb349 2.292 . S
O348 C351 1.255 . S
Tb349 O348 2.292 . S
Tb349 O365 2.326 . S
Tb349 O367 2.500 . S
Tb349 O368 2.473 . S
Tb349 O371 2.324 . S
Eu350 O354 2.292 . S
Eu350 C355 2.852 . S
Eu350 O366 2.324 . S
Eu350 O370 2.326 . S
Eu350 O372 2.500 . S
Eu350 O373 2.473 . S
C351 O348 1.255 . S
C351 O352 1.247 . S
O352 C351 1.247 . S
C353 O365 1.242 . S
C353 O366 1.258 . S
O354 Eu350 2.292 . S
O354 C356 1.255 . S
C355 Eu350 2.852 . S
C355 C359 1.503 . S
C355 O372 1.273 . S
C355 O373 1.257 . S
C356 O354 1.255 . S
C356 O357 1.247 . S
O357 C356 1.247 . S
C358 O370 1.242 . S
C358 O371 1.258 . S
C359 C355 1.503 . S
C359 C360 1.379 . S
C359 C364 1.392 . S
C360 C359 1.379 . S
C360 C361 1.404 . S
C360 H374 0.929 . S
C361 C360 1.404 . S
C361 C362 1.389 . S
C362 C361 1.389 . S
C362 C363 1.399 . S
C362 H375 0.931 . S
C363 C362 1.399 . S
C363 C364 1.390 . S
C364 C359 1.392 . S
C364 C363 1.390 . S
C364 H376 0.929 . S
O365 Tb349 2.326 . S
O365 C353 1.242 . S
O366 Eu350 2.324 . S
O366 C353 1.258 . S
O367 Tb349 2.500 . S
O367 C369 1.273 . S
O368 Tb349 2.473 . S
O368 C369 1.257 . S
C369 O367 1.273 . S
C369 O368 1.257 . S
O370 Eu350 2.326 . S
O370 C358 1.242 . S
O371 Tb349 2.324 . S
O371 C358 1.258 . S
O372 Eu350 2.500 . S
O372 C355 1.273 . S
O373 Eu350 2.473 . S
O373 C355 1.257 . S
H374 C360 0.929 . S
H375 C362 0.931 . S
H376 C364 0.929 . S
O377 Tb378 2.292 . S
O377 C380 1.255 . S
Tb378 O377 2.292 . S
Tb378 O394 2.326 . S
Tb378 O396 2.500 . S
Tb378 O397 2.473 . S
Tb378 O400 2.324 . S
Eu379 O383 2.292 . S
Eu379 C384 2.852 . S
Eu379 O395 2.324 . S
Eu379 O399 2.326 . S
Eu379 O401 2.500 . S
Eu379 O402 2.473 . S
C380 O377 1.255 . S
C380 O381 1.247 . S
O381 C380 1.247 . S
C382 O394 1.242 . S
C382 O395 1.258 . S
O383 Eu379 2.292 . S
O383 C385 1.255 . S
C384 Eu379 2.852 . S
C384 C388 1.503 . S
C384 O401 1.273 . S
C384 O402 1.257 . S
C385 O383 1.255 . S
C385 O386 1.247 . S
O386 C385 1.247 . S
C387 O399 1.242 . S
C387 O400 1.258 . S
C388 C384 1.503 . S
C388 C389 1.379 . S
C388 C393 1.392 . S
C389 C388 1.379 . S
C389 C390 1.404 . S
C389 H403 0.929 . S
C390 C389 1.404 . S
C390 C391 1.389 . S
C391 C390 1.389 . S
C391 C392 1.399 . S
C391 H404 0.931 . S
C392 C391 1.399 . S
C392 C393 1.390 . S
C393 C388 1.392 . S
C393 C392 1.390 . S
C393 H405 0.929 . S
O394 Tb378 2.326 . S
O394 C382 1.242 . S
O395 Eu379 2.324 . S
O395 C382 1.258 . S
O396 Tb378 2.500 . S
O396 C398 1.273 . S
O397 Tb378 2.473 . S
O397 C398 1.257 . S
C398 O396 1.273 . S
C398 O397 1.257 . S
O399 Eu379 2.326 . S
O399 C387 1.242 . S
O400 Tb378 2.324 . S
O400 C387 1.258 . S
O401 Eu379 2.500 . S
O401 C384 1.273 . S
O402 Eu379 2.473 . S
O402 C384 1.257 . S
H403 C389 0.929 . S
H404 C391 0.931 . S
H405 C393 0.929 . S
O406 Tb407 2.292 . S
O406 C409 1.255 . S
Tb407 O406 2.292 . S
Tb407 O423 2.326 . S
Tb407 O425 2.500 . S
Tb407 O426 2.473 . S
Tb407 O429 2.324 . S
Eu408 O412 2.292 . S
Eu408 C413 2.852 . S
Eu408 O424 2.324 . S
Eu408 O428 2.326 . S
Eu408 O430 2.500 . S
Eu408 O431 2.473 . S
C409 O406 1.255 . S
C409 O410 1.247 . S
O410 C409 1.247 . S
C411 O423 1.242 . S
C411 O424 1.258 . S
O412 Eu408 2.292 . S
O412 C414 1.255 . S
C413 Eu408 2.852 . S
C413 C417 1.503 . S
C413 O430 1.273 . S
C413 O431 1.257 . S
C414 O412 1.255 . S
C414 O415 1.247 . S
O415 C414 1.247 . S
C416 O428 1.242 . S
C416 O429 1.258 . S
C417 C413 1.503 . S
C417 C418 1.379 . S
C417 C422 1.392 . S
C418 C417 1.379 . S
C418 C419 1.404 . S
C418 H432 0.929 . S
C419 C418 1.404 . S
C419 C420 1.389 . S
C420 C419 1.389 . S
C420 C421 1.399 . S
C420 H433 0.931 . S
C421 C420 1.399 . S
C421 C422 1.390 . S
C422 C417 1.392 . S
C422 C421 1.390 . S
C422 H434 0.929 . S
O423 Tb407 2.326 . S
O423 C411 1.242 . S
O424 Eu408 2.324 . S
O424 C411 1.258 . S
O425 Tb407 2.500 . S
O425 C427 1.273 . S
O426 Tb407 2.473 . S
O426 C427 1.257 . S
C427 O425 1.273 . S
C427 O426 1.257 . S
O428 Eu408 2.326 . S
O428 C416 1.242 . S
O429 Tb407 2.324 . S
O429 C416 1.258 . S
O430 Eu408 2.500 . S
O430 C413 1.273 . S
O431 Eu408 2.473 . S
O431 C413 1.257 . S
H432 C418 0.929 . S
H433 C420 0.931 . S
H434 C422 0.929 . S
O435 Tb436 2.292 . S
O435 C438 1.255 . S
Tb436 O435 2.292 . S
Tb436 O452 2.326 . S
Tb436 O454 2.500 . S
Tb436 O455 2.473 . S
Tb436 O458 2.324 . S
Eu437 O441 2.292 . S
Eu437 C442 2.852 . S
Eu437 O453 2.324 . S
Eu437 O457 2.326 . S
Eu437 O459 2.500 . S
Eu437 O460 2.473 . S
C438 O435 1.255 . S
C438 O439 1.247 . S
O439 C438 1.247 . S
C440 O452 1.242 . S
C440 O453 1.258 . S
O441 Eu437 2.292 . S
O441 C443 1.255 . S
C442 Eu437 2.852 . S
C442 C446 1.503 . S
C442 O459 1.273 . S
C442 O460 1.257 . S
C443 O441 1.255 . S
C443 O444 1.247 . S
O444 C443 1.247 . S
C445 O457 1.242 . S
C445 O458 1.258 . S
C446 C442 1.503 . S
C446 C447 1.379 . S
C446 C451 1.392 . S
C447 C446 1.379 . S
C447 C448 1.404 . S
C447 H461 0.929 . S
C448 C447 1.404 . S
C448 C449 1.389 . S
C449 C448 1.389 . S
C449 C450 1.399 . S
C449 H462 0.931 . S
C450 C449 1.399 . S
C450 C451 1.390 . S
C451 C446 1.392 . S
C451 C450 1.390 . S
C451 H463 0.929 . S
O452 Tb436 2.326 . S
O452 C440 1.242 . S
O453 Eu437 2.324 . S
O453 C440 1.258 . S
O454 Tb436 2.500 . S
O454 C456 1.273 . S
O455 Tb436 2.473 . S
O455 C456 1.257 . S
C456 O454 1.273 . S
C456 O455 1.257 . S
O457 Eu437 2.326 . S
O457 C445 1.242 . S
O458 Tb436 2.324 . S
O458 C445 1.258 . S
O459 Eu437 2.500 . S
O459 C442 1.273 . S
O460 Eu437 2.473 . S
O460 C442 1.257 . S
H461 C447 0.929 . S
H462 C449 0.931 . S
H463 C451 0.929 . S
O464 Tb465 2.292 . S
O464 C467 1.255 . S
Tb465 O464 2.292 . S
Tb465 O481 2.326 . S
Tb465 O483 2.500 . S
Tb465 O484 2.473 . S
Tb465 O487 2.324 . S
Eu466 O470 2.292 . S
Eu466 C471 2.852 . S
Eu466 O482 2.324 . S
Eu466 O486 2.326 . S
Eu466 O488 2.500 . S
Eu466 O489 2.473 . S
C467 O464 1.255 . S
C467 O468 1.247 . S
O468 C467 1.247 . S
C469 O481 1.242 . S
C469 O482 1.258 . S
O470 Eu466 2.292 . S
O470 C472 1.255 . S
C471 Eu466 2.852 . S
C471 C475 1.503 . S
C471 O488 1.273 . S
C471 O489 1.257 . S
C472 O470 1.255 . S
C472 O473 1.247 . S
O473 C472 1.247 . S
C474 O486 1.242 . S
C474 O487 1.258 . S
C475 C471 1.503 . S
C475 C476 1.379 . S
C475 C480 1.392 . S
C476 C475 1.379 . S
C476 C477 1.404 . S
C476 H490 0.929 . S
C477 C476 1.404 . S
C477 C478 1.389 . S
C478 C477 1.389 . S
C478 C479 1.399 . S
C478 H491 0.931 . S
C479 C478 1.399 . S
C479 C480 1.390 . S
C480 C475 1.392 . S
C480 C479 1.390 . S
C480 H492 0.929 . S
O481 Tb465 2.326 . S
O481 C469 1.242 . S
O482 Eu466 2.324 . S
O482 C469 1.258 . S
O483 Tb465 2.500 . S
O483 C485 1.273 . S
O484 Tb465 2.473 . S
O484 C485 1.257 . S
C485 O483 1.273 . S
C485 O484 1.257 . S
O486 Eu466 2.326 . S
O486 C474 1.242 . S
O487 Tb465 2.324 . S
O487 C474 1.258 . S
O488 Eu466 2.500 . S
O488 C471 1.273 . S
O489 Eu466 2.473 . S
O489 C471 1.257 . S
H490 C476 0.929 . S
H491 C478 0.931 . S
H492 C480 0.929 . S
O493 Tb494 2.292 . S
O493 C496 1.255 . S
Tb494 O493 2.292 . S
Tb494 O510 2.326 . S
Tb494 O512 2.500 . S
Tb494 O513 2.473 . S
Tb494 O516 2.324 . S
Eu495 O499 2.292 . S
Eu495 C500 2.852 . S
Eu495 O511 2.324 . S
Eu495 O515 2.326 . S
Eu495 O517 2.500 . S
Eu495 O518 2.473 . S
C496 O493 1.255 . S
C496 O497 1.247 . S
O497 C496 1.247 . S
C498 O510 1.242 . S
C498 O511 1.258 . S
O499 Eu495 2.292 . S
O499 C501 1.255 . S
C500 Eu495 2.852 . S
C500 C504 1.503 . S
C500 O517 1.273 . S
C500 O518 1.257 . S
C501 O499 1.255 . S
C501 O502 1.247 . S
O502 C501 1.247 . S
C503 O515 1.242 . S
C503 O516 1.258 . S
C504 C500 1.503 . S
C504 C505 1.379 . S
C504 C509 1.392 . S
C505 C504 1.379 . S
C505 C506 1.404 . S
C505 H519 0.929 . S
C506 C505 1.404 . S
C506 C507 1.389 . S
C507 C506 1.389 . S
C507 C508 1.399 . S
C507 H520 0.931 . S
C508 C507 1.399 . S
C508 C509 1.390 . S
C509 C504 1.392 . S
C509 C508 1.390 . S
C509 H521 0.929 . S
O510 Tb494 2.326 . S
O510 C498 1.242 . S
O511 Eu495 2.324 . S
O511 C498 1.258 . S
O512 Tb494 2.500 . S
O512 C514 1.273 . S
O513 Tb494 2.473 . S
O513 C514 1.257 . S
C514 O512 1.273 . S
C514 O513 1.257 . S
O515 Eu495 2.326 . S
O515 C503 1.242 . S
O516 Tb494 2.324 . S
O516 C503 1.258 . S
O517 Eu495 2.500 . S
O517 C500 1.273 . S
O518 Eu495 2.473 . S
O518 C500 1.257 . S
H519 C505 0.929 . S
H520 C507 0.931 . S
H521 C509 0.929 . S
O522 Tb523 2.292 . S
O522 C525 1.255 . S
Tb523 O522 2.292 . S
Tb523 O539 2.326 . S
Tb523 O541 2.500 . S
Tb523 O542 2.473 . S
Tb523 O545 2.324 . S
Eu524 O528 2.292 . S
Eu524 C529 2.852 . S
Eu524 O540 2.324 . S
Eu524 O544 2.326 . S
Eu524 O546 2.500 . S
Eu524 O547 2.473 . S
C525 O522 1.255 . S
C525 O526 1.247 . S
O526 C525 1.247 . S
C527 O539 1.242 . S
C527 O540 1.258 . S
O528 Eu524 2.292 . S
O528 C530 1.255 . S
C529 Eu524 2.852 . S
C529 C533 1.503 . S
C529 O546 1.273 . S
C529 O547 1.257 . S
C530 O528 1.255 . S
C530 O531 1.247 . S
O531 C530 1.247 . S
C532 O544 1.242 . S
C532 O545 1.258 . S
C533 C529 1.503 . S
C533 C534 1.379 . S
C533 C538 1.392 . S
C534 C533 1.379 . S
C534 C535 1.404 . S
C534 H548 0.929 . S
C535 C534 1.404 . S
C535 C536 1.389 . S
C536 C535 1.389 . S
C536 C537 1.399 . S
C536 H549 0.931 . S
C537 C536 1.399 . S
C537 C538 1.390 . S
C538 C533 1.392 . S
C538 C537 1.390 . S
C538 H550 0.929 . S
O539 Tb523 2.326 . S
O539 C527 1.242 . S
O540 Eu524 2.324 . S
O540 C527 1.258 . S
O541 Tb523 2.500 . S
O541 C543 1.273 . S
O542 Tb523 2.473 . S
O542 C543 1.257 . S
C543 O541 1.273 . S
C543 O542 1.257 . S
O544 Eu524 2.326 . S
O544 C532 1.242 . S
O545 Tb523 2.324 . S
O545 C532 1.258 . S
O546 Eu524 2.500 . S
O546 C529 1.273 . S
O547 Eu524 2.473 . S
O547 C529 1.257 . S
H548 C534 0.929 . S
H549 C536 0.931 . S
H550 C538 0.929 . S
O551 Tb552 2.292 . S
O551 C554 1.255 . S
Tb552 O551 2.292 . S
Tb552 O568 2.326 . S
Tb552 O570 2.500 . S
Tb552 O571 2.473 . S
Tb552 O574 2.324 . S
Eu553 O557 2.292 . S
Eu553 C558 2.852 . S
Eu553 O569 2.324 . S
Eu553 O573 2.326 . S
Eu553 O575 2.500 . S
Eu553 O576 2.473 . S
C554 O551 1.255 . S
C554 O555 1.247 . S
O555 C554 1.247 . S
C556 O568 1.242 . S
C556 O569 1.258 . S
O557 Eu553 2.292 . S
O557 C559 1.255 . S
C558 Eu553 2.852 . S
C558 C562 1.503 . S
C558 O575 1.273 . S
C558 O576 1.257 . S
C559 O557 1.255 . S
C559 O560 1.247 . S
O560 C559 1.247 . S
C561 O573 1.242 . S
C561 O574 1.258 . S
C562 C558 1.503 . S
C562 C563 1.379 . S
C562 C567 1.392 . S
C563 C562 1.379 . S
C563 C564 1.404 . S
C563 H577 0.929 . S
C564 C563 1.404 . S
C564 C565 1.389 . S
C565 C564 1.389 . S
C565 C566 1.399 . S
C565 H578 0.931 . S
C566 C565 1.399 . S
C566 C567 1.390 . S
C567 C562 1.392 . S
C567 C566 1.390 . S
C567 H579 0.929 . S
O568 Tb552 2.326 . S
O568 C556 1.242 . S
O569 Eu553 2.324 . S
O569 C556 1.258 . S
O570 Tb552 2.500 . S
O570 C572 1.273 . S
O571 Tb552 2.473 . S
O571 C572 1.257 . S
C572 O570 1.273 . S
C572 O571 1.257 . S
O573 Eu553 2.326 . S
O573 C561 1.242 . S
O574 Tb552 2.324 . S
O574 C561 1.258 . S
O575 Eu553 2.500 . S
O575 C558 1.273 . S
O576 Eu553 2.473 . S
O576 C558 1.257 . S
H577 C563 0.929 . S
H578 C565 0.931 . S
H579 C567 0.929 . S
O580 Tb581 2.292 . S
O580 C583 1.255 . S
Tb581 O580 2.292 . S
Tb581 O597 2.326 . S
Tb581 O599 2.500 . S
Tb581 O600 2.473 . S
Tb581 O603 2.324 . S
Eu582 O586 2.292 . S
Eu582 C587 2.852 . S
Eu582 O598 2.324 . S
Eu582 O602 2.326 . S
Eu582 O604 2.500 . S
Eu582 O605 2.473 . S
C583 O580 1.255 . S
C583 O584 1.247 . S
O584 C583 1.247 . S
C585 O597 1.242 . S
C585 O598 1.258 . S
O586 Eu582 2.292 . S
O586 C588 1.255 . S
C587 Eu582 2.852 . S
C587 C591 1.503 . S
C587 O604 1.273 . S
C587 O605 1.257 . S
C588 O586 1.255 . S
C588 O589 1.247 . S
O589 C588 1.247 . S
C590 O602 1.242 . S
C590 O603 1.258 . S
C591 C587 1.503 . S
C591 C592 1.379 . S
C591 C596 1.392 . S
C592 C591 1.379 . S
C592 C593 1.404 . S
C592 H606 0.929 . S
C593 C592 1.404 . S
C593 C594 1.389 . S
C594 C593 1.389 . S
C594 C595 1.399 . S
C594 H607 0.931 . S
C595 C594 1.399 . S
C595 C596 1.390 . S
C596 C591 1.392 . S
C596 C595 1.390 . S
C596 H608 0.929 . S
O597 Tb581 2.326 . S
O597 C585 1.242 . S
O598 Eu582 2.324 . S
O598 C585 1.258 . S
O599 Tb581 2.500 . S
O599 C601 1.273 . S
O600 Tb581 2.473 . S
O600 C601 1.257 . S
C601 O599 1.273 . S
C601 O600 1.257 . S
O602 Eu582 2.326 . S
O602 C590 1.242 . S
O603 Tb581 2.324 . S
O603 C590 1.258 . S
O604 Eu582 2.500 . S
O604 C587 1.273 . S
O605 Eu582 2.473 . S
O605 C587 1.257 . S
H606 C592 0.929 . S
H607 C594 0.931 . S
H608 C596 0.929 . S
O609 Tb610 2.292 . S
O609 C612 1.255 . S
Tb610 O609 2.292 . S
Tb610 O626 2.326 . S
Tb610 O628 2.500 . S
Tb610 O629 2.473 . S
Tb610 O632 2.324 . S
Eu611 O615 2.292 . S
Eu611 C616 2.852 . S
Eu611 O627 2.324 . S
Eu611 O631 2.326 . S
Eu611 O633 2.500 . S
Eu611 O634 2.473 . S
C612 O609 1.255 . S
C612 O613 1.247 . S
O613 C612 1.247 . S
C614 O626 1.242 . S
C614 O627 1.258 . S
O615 Eu611 2.292 . S
O615 C617 1.255 . S
C616 Eu611 2.852 . S
C616 C620 1.503 . S
C616 O633 1.273 . S
C616 O634 1.257 . S
C617 O615 1.255 . S
C617 O618 1.247 . S
O618 C617 1.247 . S
C619 O631 1.242 . S
C619 O632 1.258 . S
C620 C616 1.503 . S
C620 C621 1.379 . S
C620 C625 1.392 . S
C621 C620 1.379 . S
C621 C622 1.404 . S
C621 H635 0.929 . S
C622 C621 1.404 . S
C622 C623 1.389 . S
C623 C622 1.389 . S
C623 C624 1.399 . S
C623 H636 0.931 . S
C624 C623 1.399 . S
C624 C625 1.390 . S
C625 C620 1.392 . S
C625 C624 1.390 . S
C625 H637 0.929 . S
O626 Tb610 2.326 . S
O626 C614 1.242 . S
O627 Eu611 2.324 . S
O627 C614 1.258 . S
O628 Tb610 2.500 . S
O628 C630 1.273 . S
O629 Tb610 2.473 . S
O629 C630 1.257 . S
C630 O628 1.273 . S
C630 O629 1.257 . S
O631 Eu611 2.326 . S
O631 C619 1.242 . S
O632 Tb610 2.324 . S
O632 C619 1.258 . S
O633 Eu611 2.500 . S
O633 C616 1.273 . S
O634 Eu611 2.473 . S
O634 C616 1.257 . S
H635 C621 0.929 . S
H636 C623 0.931 . S
H637 C625 0.929 . S
O638 Tb639 2.292 . S
O638 C641 1.255 . S
Tb639 O638 2.292 . S
Tb639 O655 2.326 . S
Tb639 O657 2.500 . S
Tb639 O658 2.473 . S
Tb639 O661 2.324 . S
Eu640 O644 2.292 . S
Eu640 C645 2.852 . S
Eu640 O656 2.324 . S
Eu640 O660 2.326 . S
Eu640 O662 2.500 . S
Eu640 O663 2.473 . S
C641 O638 1.255 . S
C641 O642 1.247 . S
O642 C641 1.247 . S
C643 O655 1.242 . S
C643 O656 1.258 . S
O644 Eu640 2.292 . S
O644 C646 1.255 . S
C645 Eu640 2.852 . S
C645 C649 1.503 . S
C645 O662 1.273 . S
C645 O663 1.257 . S
C646 O644 1.255 . S
C646 O647 1.247 . S
O647 C646 1.247 . S
C648 O660 1.242 . S
C648 O661 1.258 . S
C649 C645 1.503 . S
C649 C650 1.379 . S
C649 C654 1.392 . S
C650 C649 1.379 . S
C650 C651 1.404 . S
C650 H664 0.929 . S
C651 C650 1.404 . S
C651 C652 1.389 . S
C652 C651 1.389 . S
C652 C653 1.399 . S
C652 H665 0.931 . S
C653 C652 1.399 . S
C653 C654 1.390 . S
C654 C649 1.392 . S
C654 C653 1.390 . S
C654 H666 0.929 . S
O655 Tb639 2.326 . S
O655 C643 1.242 . S
O656 Eu640 2.324 . S
O656 C643 1.258 . S
O657 Tb639 2.500 . S
O657 C659 1.273 . S
O658 Tb639 2.473 . S
O658 C659 1.257 . S
C659 O657 1.273 . S
C659 O658 1.257 . S
O660 Eu640 2.326 . S
O660 C648 1.242 . S
O661 Tb639 2.324 . S
O661 C648 1.258 . S
O662 Eu640 2.500 . S
O662 C645 1.273 . S
O663 Eu640 2.473 . S
O663 C645 1.257 . S
H664 C650 0.929 . S
H665 C652 0.931 . S
H666 C654 0.929 . S
O667 Tb668 2.292 . S
O667 C670 1.255 . S
Tb668 O667 2.292 . S
Tb668 O684 2.326 . S
Tb668 O686 2.500 . S
Tb668 O687 2.473 . S
Tb668 O690 2.324 . S
Eu669 O673 2.292 . S
Eu669 C674 2.852 . S
Eu669 O685 2.324 . S
Eu669 O689 2.326 . S
Eu669 O691 2.500 . S
Eu669 O692 2.473 . S
C670 O667 1.255 . S
C670 O671 1.247 . S
O671 C670 1.247 . S
C672 O684 1.242 . S
C672 O685 1.258 . S
O673 Eu669 2.292 . S
O673 C675 1.255 . S
C674 Eu669 2.852 . S
C674 C678 1.503 . S
C674 O691 1.273 . S
C674 O692 1.257 . S
C675 O673 1.255 . S
C675 O676 1.247 . S
O676 C675 1.247 . S
C677 O689 1.242 . S
C677 O690 1.258 . S
C678 C674 1.503 . S
C678 C679 1.379 . S
C678 C683 1.392 . S
C679 C678 1.379 . S
C679 C680 1.404 . S
C679 H693 0.929 . S
C680 C679 1.404 . S
C680 C681 1.389 . S
C681 C680 1.389 . S
C681 C682 1.399 . S
C681 H694 0.931 . S
C682 C681 1.399 . S
C682 C683 1.390 . S
C683 C678 1.392 . S
C683 C682 1.390 . S
C683 H695 0.929 . S
O684 Tb668 2.326 . S
O684 C672 1.242 . S
O685 Eu669 2.324 . S
O685 C672 1.258 . S
O686 Tb668 2.500 . S
O686 C688 1.273 . S
O687 Tb668 2.473 . S
O687 C688 1.257 . S
C688 O686 1.273 . S
C688 O687 1.257 . S
O689 Eu669 2.326 . S
O689 C677 1.242 . S
O690 Tb668 2.324 . S
O690 C677 1.258 . S
O691 Eu669 2.500 . S
O691 C674 1.273 . S
O692 Eu669 2.473 . S
O692 C674 1.257 . S
H693 C679 0.929 . S
H694 C681 0.931 . S
H695 C683 0.929 . S
H696 C714 0.951 . S
H697 C716 0.951 . S
H698 C718 0.950 . S
H699 C719 0.950 . S
H700 C721 0.950 . S
H701 C724 0.950 . S
H702 C725 0.950 . S
H703 C727 0.950 . S
H704 C728 0.950 . S
H705 C729 0.951 . S
H706 C731 0.951 . S
H707 C733 0.950 . S
H708 C734 0.950 . S
H709 C736 0.950 . S
H710 C739 0.950 . S
H711 C740 0.950 . S
H712 C742 0.950 . S
H713 C743 0.950 . S
C714 H696 0.951 . S
C714 C715 1.366 . S
C714 C716 1.388 . S
C715 C714 1.366 . S
C715 C719 1.385 . S
C716 H697 0.951 . S
C716 C714 1.388 . S
C716 C717 1.366 . S
C717 C716 1.366 . S
C717 C718 1.414 . S
C717 C720 1.499 . S
C718 H698 0.950 . S
C718 C717 1.414 . S
C718 C719 1.374 . S
C719 H699 0.950 . S
C719 C715 1.385 . S
C719 C718 1.374 . S
C720 C717 1.499 . S
C720 C721 1.373 . S
C720 C722 1.389 . S
C721 H700 0.950 . S
C721 C720 1.373 . S
C721 C737 1.377 . S
C722 C720 1.389 . S
C722 C723 1.524 . S
C722 C736 1.377 . S
C723 C722 1.524 . S
C723 C724 1.397 . S
C723 C728 1.363 . S
C724 H701 0.950 . S
C724 C723 1.397 . S
C724 C725 1.334 . S
C725 H702 0.950 . S
C725 C724 1.334 . S
C725 C726 1.287 . S
C726 C725 1.287 . S
C726 C727 1.524 . S
C726 H745 0.913 . S
C727 H703 0.950 . S
C727 C726 1.524 . S
C727 C728 1.415 . S
C728 H704 0.950 . S
C728 C723 1.363 . S
C728 C727 1.415 . S
C729 H705 0.951 . S
C729 C730 1.366 . S
C729 C731 1.388 . S
C730 C729 1.366 . S
C730 C734 1.385 . S
C731 H706 0.951 . S
C731 C729 1.388 . S
C731 C732 1.366 . S
C732 C731 1.366 . S
C732 C733 1.414 . S
C732 C735 1.499 . S
C733 H707 0.950 . S
C733 C732 1.414 . S
C733 C734 1.374 . S
C734 H708 0.950 . S
C734 C730 1.385 . S
C734 C733 1.374 . S
C735 C732 1.499 . S
C735 C736 1.373 . S
C735 C737 1.389 . S
C736 H709 0.950 . S
C736 C722 1.377 . S
C736 C735 1.373 . S
C737 C721 1.377 . S
C737 C735 1.389 . S
C737 C738 1.524 . S
C738 C737 1.524 . S
C738 C739 1.397 . S
C738 C743 1.363 . S
C739 H710 0.950 . S
C739 C738 1.397 . S
C739 C740 1.334 . S
C740 H711 0.950 . S
C740 C739 1.334 . S
C740 C741 1.287 . S
C741 C740 1.287 . S
C741 C742 1.524 . S
C741 H744 0.999 . S
C742 H712 0.950 . S
C742 C741 1.524 . S
C742 C743 1.415 . S
C743 H713 0.950 . S
C743 C738 1.363 . S
C743 C742 1.415 . S
H744 C741 0.999 . S
H745 C726 0.913 . S
H746 C764 0.951 . S
H747 C766 0.951 . S
H748 C768 0.950 . S
H749 C769 0.950 . S
H750 C771 0.950 . S
H751 C774 0.950 . S
H752 C775 0.950 . S
H753 C777 0.950 . S
H754 C778 0.950 . S
H755 C779 0.951 . S
H756 C781 0.951 . S
H757 C783 0.950 . S
H758 C784 0.950 . S
H759 C786 0.950 . S
H760 C789 0.950 . S
H761 C790 0.950 . S
H762 C792 0.950 . S
H763 C793 0.950 . S
C764 H746 0.951 . S
C764 C765 1.366 . S
C764 C766 1.388 . S
C765 C764 1.366 . S
C765 C769 1.385 . S
C766 H747 0.951 . S
C766 C764 1.388 . S
C766 C767 1.366 . S
C767 C766 1.366 . S
C767 C768 1.414 . S
C767 C770 1.499 . S
C768 H748 0.950 . S
C768 C767 1.414 . S
C768 C769 1.374 . S
C769 H749 0.950 . S
C769 C765 1.385 . S
C769 C768 1.374 . S
C770 C767 1.499 . S
C770 C771 1.373 . S
C770 C772 1.389 . S
C771 H750 0.950 . S
C771 C770 1.373 . S
C771 C787 1.377 . S
C772 C770 1.389 . S
C772 C773 1.524 . S
C772 C786 1.377 . S
C773 C772 1.524 . S
C773 C774 1.397 . S
C773 C778 1.363 . S
C774 H751 0.950 . S
C774 C773 1.397 . S
C774 C775 1.334 . S
C775 H752 0.950 . S
C775 C774 1.334 . S
C775 C776 1.287 . S
C776 C775 1.287 . S
C776 C777 1.524 . S
C776 H795 0.913 . S
C777 H753 0.950 . S
C777 C776 1.524 . S
C777 C778 1.415 . S
C778 H754 0.950 . S
C778 C773 1.363 . S
C778 C777 1.415 . S
C779 H755 0.951 . S
C779 C780 1.366 . S
C779 C781 1.388 . S
C780 C779 1.366 . S
C780 C784 1.385 . S
C781 H756 0.951 . S
C781 C779 1.388 . S
C781 C782 1.366 . S
C782 C781 1.366 . S
C782 C783 1.414 . S
C782 C785 1.499 . S
C783 H757 0.950 . S
C783 C782 1.414 . S
C783 C784 1.374 . S
C784 H758 0.950 . S
C784 C780 1.385 . S
C784 C783 1.374 . S
C785 C782 1.499 . S
C785 C786 1.373 . S
C785 C787 1.389 . S
C786 H759 0.950 . S
C786 C772 1.377 . S
C786 C785 1.373 . S
C787 C771 1.377 . S
C787 C785 1.389 . S
C787 C788 1.524 . S
C788 C787 1.524 . S
C788 C789 1.397 . S
C788 C793 1.363 . S
C789 H760 0.950 . S
C789 C788 1.397 . S
C789 C790 1.334 . S
C790 H761 0.950 . S
C790 C789 1.334 . S
C790 C791 1.287 . S
C791 C790 1.287 . S
C791 C792 1.524 . S
C791 H794 0.999 . S
C792 H762 0.950 . S
C792 C791 1.524 . S
C792 C793 1.415 . S
C793 H763 0.950 . S
C793 C788 1.363 . S
C793 C792 1.415 . S
H794 C791 0.999 . S
H795 C776 0.913 . S
H796 C814 0.951 . S
H797 C816 0.951 . S
H798 C818 0.950 . S
H799 C819 0.950 . S
H800 C821 0.950 . S
H801 C824 0.950 . S
H802 C825 0.950 . S
H803 C827 0.950 . S
H804 C828 0.950 . S
H805 C829 0.951 . S
H806 C831 0.951 . S
H807 C833 0.950 . S
H808 C834 0.950 . S
H809 C836 0.950 . S
H810 C839 0.950 . S
H811 C840 0.950 . S
H812 C842 0.950 . S
H813 C843 0.950 . S
C814 H796 0.951 . S
C814 C815 1.366 . S
C814 C816 1.388 . S
C815 C814 1.366 . S
C815 C819 1.385 . S
C816 H797 0.951 . S
C816 C814 1.388 . S
C816 C817 1.366 . S
C817 C816 1.366 . S
C817 C818 1.414 . S
C817 C820 1.499 . S
C818 H798 0.950 . S
C818 C817 1.414 . S
C818 C819 1.374 . S
C819 H799 0.950 . S
C819 C815 1.385 . S
C819 C818 1.374 . S
C820 C817 1.499 . S
C820 C821 1.373 . S
C820 C822 1.389 . S
C821 H800 0.950 . S
C821 C820 1.373 . S
C821 C837 1.377 . S
C822 C820 1.389 . S
C822 C823 1.524 . S
C822 C836 1.377 . S
C823 C822 1.524 . S
C823 C824 1.397 . S
C823 C828 1.363 . S
C824 H801 0.950 . S
C824 C823 1.397 . S
C824 C825 1.334 . S
C825 H802 0.950 . S
C825 C824 1.334 . S
C825 C826 1.287 . S
C826 C825 1.287 . S
C826 C827 1.524 . S
C826 H845 0.913 . S
C827 H803 0.950 . S
C827 C826 1.524 . S
C827 C828 1.415 . S
C828 H804 0.950 . S
C828 C823 1.363 . S
C828 C827 1.415 . S
C829 H805 0.951 . S
C829 C830 1.366 . S
C829 C831 1.388 . S
C830 C829 1.366 . S
C830 C834 1.385 . S
C831 H806 0.951 . S
C831 C829 1.388 . S
C831 C832 1.366 . S
C832 C831 1.366 . S
C832 C833 1.414 . S
C832 C835 1.499 . S
C833 H807 0.950 . S
C833 C832 1.414 . S
C833 C834 1.374 . S
C834 H808 0.950 . S
C834 C830 1.385 . S
C834 C833 1.374 . S
C835 C832 1.499 . S
C835 C836 1.373 . S
C835 C837 1.389 . S
C836 H809 0.950 . S
C836 C822 1.377 . S
C836 C835 1.373 . S
C837 C821 1.377 . S
C837 C835 1.389 . S
C837 C838 1.524 . S
C838 C837 1.524 . S
C838 C839 1.397 . S
C838 C843 1.363 . S
C839 H810 0.950 . S
C839 C838 1.397 . S
C839 C840 1.334 . S
C840 H811 0.950 . S
C840 C839 1.334 . S
C840 C841 1.287 . S
C841 C840 1.287 . S
C841 C842 1.524 . S
C841 H844 0.999 . S
C842 H812 0.950 . S
C842 C841 1.524 . S
C842 C843 1.415 . S
C843 H813 0.950 . S
C843 C838 1.363 . S
C843 C842 1.415 . S
H844 C841 0.999 . S
H845 C826 0.913 . S
H846 C864 0.951 . S
H847 C866 0.951 . S
H848 C868 0.950 . S
H849 C869 0.950 . S
H850 C871 0.950 . S
H851 C874 0.950 . S
H852 C875 0.950 . S
H853 C877 0.950 . S
H854 C878 0.950 . S
H855 C879 0.951 . S
H856 C881 0.951 . S
H857 C883 0.950 . S
H858 C884 0.950 . S
H859 C886 0.950 . S
H860 C889 0.950 . S
H861 C890 0.950 . S
H862 C892 0.950 . S
H863 C893 0.950 . S
C864 H846 0.951 . S
C864 C865 1.366 . S
C864 C866 1.388 . S
C865 C864 1.366 . S
C865 C869 1.385 . S
C866 H847 0.951 . S
C866 C864 1.388 . S
C866 C867 1.366 . S
C867 C866 1.366 . S
C867 C868 1.414 . S
C867 C870 1.499 . S
C868 H848 0.950 . S
C868 C867 1.414 . S
C868 C869 1.374 . S
C869 H849 0.950 . S
C869 C865 1.385 . S
C869 C868 1.374 . S
C870 C867 1.499 . S
C870 C871 1.373 . S
C870 C872 1.389 . S
C871 H850 0.950 . S
C871 C870 1.373 . S
C871 C887 1.377 . S
C872 C870 1.389 . S
C872 C873 1.524 . S
C872 C886 1.377 . S
C873 C872 1.524 . S
C873 C874 1.397 . S
C873 C878 1.363 . S
C874 H851 0.950 . S
C874 C873 1.397 . S
C874 C875 1.334 . S
C875 H852 0.950 . S
C875 C874 1.334 . S
C875 C876 1.287 . S
C876 C875 1.287 . S
C876 C877 1.524 . S
C876 H895 0.913 . S
C877 H853 0.950 . S
C877 C876 1.524 . S
C877 C878 1.415 . S
C878 H854 0.950 . S
C878 C873 1.363 . S
C878 C877 1.415 . S
C879 H855 0.951 . S
C879 C880 1.366 . S
C879 C881 1.388 . S
C880 C879 1.366 . S
C880 C884 1.385 . S
C881 H856 0.951 . S
C881 C879 1.388 . S
C881 C882 1.366 . S
C882 C881 1.366 . S
C882 C883 1.414 . S
C882 C885 1.499 . S
C883 H857 0.950 . S
C883 C882 1.414 . S
C883 C884 1.374 . S
C884 H858 0.950 . S
C884 C880 1.385 . S
C884 C883 1.374 . S
C885 C882 1.499 . S
C885 C886 1.373 . S
C885 C887 1.389 . S
C886 H859 0.950 . S
C886 C872 1.377 . S
C886 C885 1.373 . S
C887 C871 1.377 . S
C887 C885 1.389 . S
C887 C888 1.524 . S
C888 C887 1.524 . S
C888 C889 1.397 . S
C888 C893 1.363 . S
C889 H860 0.950 . S
C889 C888 1.397 . S
C889 C890 1.334 . S
C890 H861 0.950 . S
C890 C889 1.334 . S
C890 C891 1.287 . S
C891 C890 1.287 . S
C891 C892 1.524 . S
C891 H894 0.999 . S
C892 H862 0.950 . S
C892 C891 1.524 . S
C892 C893 1.415 . S
C893 H863 0.950 . S
C893 C888 1.363 . S
C893 C892 1.415 . S
H894 C891 0.999 . S
H895 C876 0.913 . S
H896 C914 0.951 . S
H897 C916 0.951 . S
H898 C918 0.950 . S
H899 C919 0.950 . S
H900 C921 0.950 . S
H901 C924 0.950 . S
H902 C925 0.950 . S
H903 C927 0.950 . S
H904 C928 0.950 . S
H905 C929 0.951 . S
H906 C931 0.951 . S
H907 C933 0.950 . S
H908 C934 0.950 . S
H909 C936 0.950 . S
H910 C939 0.950 . S
H911 C940 0.950 . S
H912 C942 0.950 . S
H913 C943 0.950 . S
C914 H896 0.951 . S
C914 C915 1.366 . S
C914 C916 1.388 . S
C915 C914 1.366 . S
C915 C919 1.385 . S
C916 H897 0.951 . S
C916 C914 1.388 . S
C916 C917 1.366 . S
C917 C916 1.366 . S
C917 C918 1.414 . S
C917 C920 1.499 . S
C918 H898 0.950 . S
C918 C917 1.414 . S
C918 C919 1.374 . S
C919 H899 0.950 . S
C919 C915 1.385 . S
C919 C918 1.374 . S
C920 C917 1.499 . S
C920 C921 1.373 . S
C920 C922 1.389 . S
C921 H900 0.950 . S
C921 C920 1.373 . S
C921 C937 1.377 . S
C922 C920 1.389 . S
C922 C923 1.524 . S
C922 C936 1.377 . S
C923 C922 1.524 . S
C923 C924 1.397 . S
C923 C928 1.363 . S
C924 H901 0.950 . S
C924 C923 1.397 . S
C924 C925 1.334 . S
C925 H902 0.950 . S
C925 C924 1.334 . S
C925 C926 1.287 . S
C926 C925 1.287 . S
C926 C927 1.524 . S
C926 H945 0.913 . S
C927 H903 0.950 . S
C927 C926 1.524 . S
C927 C928 1.415 . S
C928 H904 0.950 . S
C928 C923 1.363 . S
C928 C927 1.415 . S
C929 H905 0.951 . S
C929 C930 1.366 . S
C929 C931 1.388 . S
C930 C929 1.366 . S
C930 C934 1.385 . S
C931 H906 0.951 . S
C931 C929 1.388 . S
C931 C932 1.366 . S
C932 C931 1.366 . S
C932 C933 1.414 . S
C932 C935 1.499 . S
C933 H907 0.950 . S
C933 C932 1.414 . S
C933 C934 1.374 . S
C934 H908 0.950 . S
C934 C930 1.385 . S
C934 C933 1.374 . S
C935 C932 1.499 . S
C935 C936 1.373 . S
C935 C937 1.389 . S
C936 H909 0.950 . S
C936 C922 1.377 . S
C936 C935 1.373 . S
C937 C921 1.377 . S
C937 C935 1.389 . S
C937 C938 1.524 . S
C938 C937 1.524 . S
C938 C939 1.397 . S
C938 C943 1.363 . S
C939 H910 0.950 . S
C939 C938 1.397 . S
C939 C940 1.334 . S
C940 H911 0.950 . S
C940 C939 1.334 . S
C940 C941 1.287 . S
C941 C940 1.287 . S
C941 C942 1.524 . S
C941 H944 0.999 . S
C942 H912 0.950 . S
C942 C941 1.524 . S
C942 C943 1.415 . S
C943 H913 0.950 . S
C943 C938 1.363 . S
C943 C942 1.415 . S
H944 C941 0.999 . S
H945 C926 0.913 . S
H946 C964 0.951 . S
H947 C966 0.951 . S
H948 C968 0.950 . S
H949 C969 0.950 . S
H950 C971 0.950 . S
H951 C974 0.950 . S
H952 C975 0.950 . S
H953 C977 0.950 . S
H954 C978 0.950 . S
H955 C979 0.951 . S
H956 C981 0.951 . S
H957 C983 0.950 . S
H958 C984 0.950 . S
H959 C986 0.950 . S
H960 C989 0.950 . S
H961 C990 0.950 . S
H962 C992 0.950 . S
H963 C993 0.950 . S
C964 H946 0.951 . S
C964 C965 1.366 . S
C964 C966 1.388 . S
C965 C964 1.366 . S
C965 C969 1.385 . S
C966 H947 0.951 . S
C966 C964 1.388 . S
C966 C967 1.366 . S
C967 C966 1.366 . S
C967 C968 1.414 . S
C967 C970 1.499 . S
C968 H948 0.950 . S
C968 C967 1.414 . S
C968 C969 1.374 . S
C969 H949 0.950 . S
C969 C965 1.385 . S
C969 C968 1.374 . S
C970 C967 1.499 . S
C970 C971 1.373 . S
C970 C972 1.389 . S
C971 H950 0.950 . S
C971 C970 1.373 . S
C971 C987 1.377 . S
C972 C970 1.389 . S
C972 C973 1.524 . S
C972 C986 1.377 . S
C973 C972 1.524 . S
C973 C974 1.397 . S
C973 C978 1.363 . S
C974 H951 0.950 . S
C974 C973 1.397 . S
C974 C975 1.334 . S
C975 H952 0.950 . S
C975 C974 1.334 . S
C975 C976 1.287 . S
C976 C975 1.287 . S
C976 C977 1.524 . S
C976 H995 0.913 . S
C977 H953 0.950 . S
C977 C976 1.524 . S
C977 C978 1.415 . S
C978 H954 0.950 . S
C978 C973 1.363 . S
C978 C977 1.415 . S
C979 H955 0.951 . S
C979 C980 1.366 . S
C979 C981 1.388 . S
C980 C979 1.366 . S
C980 C984 1.385 . S
C981 H956 0.951 . S
C981 C979 1.388 . S
C981 C982 1.366 . S
C982 C981 1.366 . S
C982 C983 1.414 . S
C982 C985 1.499 . S
C983 H957 0.950 . S
C983 C982 1.414 . S
C983 C984 1.374 . S
C984 H958 0.950 . S
C984 C980 1.385 . S
C984 C983 1.374 . S
C985 C982 1.499 . S
C985 C986 1.373 . S
C985 C987 1.389 . S
C986 H959 0.950 . S
C986 C972 1.377 . S
C986 C985 1.373 . S
C987 C971 1.377 . S
C987 C985 1.389 . S
C987 C988 1.524 . S
C988 C987 1.524 . S
C988 C989 1.397 . S
C988 C993 1.363 . S
C989 H960 0.950 . S
C989 C988 1.397 . S
C989 C990 1.334 . S
C990 H961 0.950 . S
C990 C989 1.334 . S
C990 C991 1.287 . S
C991 C990 1.287 . S
C991 C992 1.524 . S
C991 H994 0.999 . S
C992 H962 0.950 . S
C992 C991 1.524 . S
C992 C993 1.415 . S
C993 H963 0.950 . S
C993 C988 1.363 . S
C993 C992 1.415 . S
H994 C991 0.999 . S
H995 C976 0.913 . S
H996 C1014 0.951 . S
H997 C1016 0.951 . S
H998 C1018 0.950 . S
H999 C1019 0.950 . S
H1000 C1021 0.950 . S
H1001 C1024 0.950 . S
H1002 C1025 0.950 . S
H1003 C1027 0.950 . S
H1004 C1028 0.950 . S
H1005 C1029 0.951 . S
H1006 C1031 0.951 . S
H1007 C1033 0.950 . S
H1008 C1034 0.950 . S
H1009 C1036 0.950 . S
H1010 C1039 0.950 . S
H1011 C1040 0.950 . S
H1012 C1042 0.950 . S
H1013 C1043 0.950 . S
C1014 H996 0.951 . S
C1014 C1015 1.366 . S
C1014 C1016 1.388 . S
C1015 C1014 1.366 . S
C1015 C1019 1.385 . S
C1016 H997 0.951 . S
C1016 C1014 1.388 . S
C1016 C1017 1.366 . S
C1017 C1016 1.366 . S
C1017 C1018 1.414 . S
C1017 C1020 1.499 . S
C1018 H998 0.950 . S
C1018 C1017 1.414 . S
C1018 C1019 1.374 . S
C1019 H999 0.950 . S
C1019 C1015 1.385 . S
C1019 C1018 1.374 . S
C1020 C1017 1.499 . S
C1020 C1021 1.373 . S
C1020 C1022 1.389 . S
C1021 H1000 0.950 . S
C1021 C1020 1.373 . S
C1021 C1037 1.377 . S
C1022 C1020 1.389 . S
C1022 C1023 1.524 . S
C1022 C1036 1.377 . S
C1023 C1022 1.524 . S
C1023 C1024 1.397 . S
C1023 C1028 1.363 . S
C1024 H1001 0.950 . S
C1024 C1023 1.397 . S
C1024 C1025 1.334 . S
C1025 H1002 0.950 . S
C1025 C1024 1.334 . S
C1025 C1026 1.287 . S
C1026 C1025 1.287 . S
C1026 C1027 1.524 . S
C1026 H1045 0.913 . S
C1027 H1003 0.950 . S
C1027 C1026 1.524 . S
C1027 C1028 1.415 . S
C1028 H1004 0.950 . S
C1028 C1023 1.363 . S
C1028 C1027 1.415 . S
C1029 H1005 0.951 . S
C1029 C1030 1.366 . S
C1029 C1031 1.388 . S
C1030 C1029 1.366 . S
C1030 C1034 1.385 . S
C1031 H1006 0.951 . S
C1031 C1029 1.388 . S
C1031 C1032 1.366 . S
C1032 C1031 1.366 . S
C1032 C1033 1.414 . S
C1032 C1035 1.499 . S
C1033 H1007 0.950 . S
C1033 C1032 1.414 . S
C1033 C1034 1.374 . S
C1034 H1008 0.950 . S
C1034 C1030 1.385 . S
C1034 C1033 1.374 . S
C1035 C1032 1.499 . S
C1035 C1036 1.373 . S
C1035 C1037 1.389 . S
C1036 H1009 0.950 . S
C1036 C1022 1.377 . S
C1036 C1035 1.373 . S
C1037 C1021 1.377 . S
C1037 C1035 1.389 . S
C1037 C1038 1.524 . S
C1038 C1037 1.524 . S
C1038 C1039 1.397 . S
C1038 C1043 1.363 . S
C1039 H1010 0.950 . S
C1039 C1038 1.397 . S
C1039 C1040 1.334 . S
C1040 H1011 0.950 . S
C1040 C1039 1.334 . S
C1040 C1041 1.287 . S
C1041 C1040 1.287 . S
C1041 C1042 1.524 . S
C1041 H1044 0.999 . S
C1042 H1012 0.950 . S
C1042 C1041 1.524 . S
C1042 C1043 1.415 . S
C1043 H1013 0.950 . S
C1043 C1038 1.363 . S
C1043 C1042 1.415 . S
H1044 C1041 0.999 . S
H1045 C1026 0.913 . S
H1046 C1064 0.951 . S
H1047 C1066 0.951 . S
H1048 C1068 0.950 . S
H1049 C1069 0.950 . S
H1050 C1071 0.950 . S
H1051 C1074 0.950 . S
H1052 C1075 0.950 . S
H1053 C1077 0.950 . S
H1054 C1078 0.950 . S
H1055 C1079 0.951 . S
H1056 C1081 0.951 . S
H1057 C1083 0.950 . S
H1058 C1084 0.950 . S
H1059 C1086 0.950 . S
H1060 C1089 0.950 . S
H1061 C1090 0.950 . S
H1062 C1092 0.950 . S
H1063 C1093 0.950 . S
C1064 H1046 0.951 . S
C1064 C1065 1.366 . S
C1064 C1066 1.388 . S
C1065 C1064 1.366 . S
C1065 C1069 1.385 . S
C1066 H1047 0.951 . S
C1066 C1064 1.388 . S
C1066 C1067 1.366 . S
C1067 C1066 1.366 . S
C1067 C1068 1.414 . S
C1067 C1070 1.499 . S
C1068 H1048 0.950 . S
C1068 C1067 1.414 . S
C1068 C1069 1.374 . S
C1069 H1049 0.950 . S
C1069 C1065 1.385 . S
C1069 C1068 1.374 . S
C1070 C1067 1.499 . S
C1070 C1071 1.373 . S
C1070 C1072 1.389 . S
C1071 H1050 0.950 . S
C1071 C1070 1.373 . S
C1071 C1087 1.377 . S
C1072 C1070 1.389 . S
C1072 C1073 1.524 . S
C1072 C1086 1.377 . S
C1073 C1072 1.524 . S
C1073 C1074 1.397 . S
C1073 C1078 1.363 . S
C1074 H1051 0.950 . S
C1074 C1073 1.397 . S
C1074 C1075 1.334 . S
C1075 H1052 0.950 . S
C1075 C1074 1.334 . S
C1075 C1076 1.287 . S
C1076 C1075 1.287 . S
C1076 C1077 1.524 . S
C1076 H1095 0.913 . S
C1077 H1053 0.950 . S
C1077 C1076 1.524 . S
C1077 C1078 1.415 . S
C1078 H1054 0.950 . S
C1078 C1073 1.363 . S
C1078 C1077 1.415 . S
C1079 H1055 0.951 . S
C1079 C1080 1.366 . S
C1079 C1081 1.388 . S
C1080 C1079 1.366 . S
C1080 C1084 1.385 . S
C1081 H1056 0.951 . S
C1081 C1079 1.388 . S
C1081 C1082 1.366 . S
C1082 C1081 1.366 . S
C1082 C1083 1.414 . S
C1082 C1085 1.499 . S
C1083 H1057 0.950 . S
C1083 C1082 1.414 . S
C1083 C1084 1.374 . S
C1084 H1058 0.950 . S
C1084 C1080 1.385 . S
C1084 C1083 1.374 . S
C1085 C1082 1.499 . S
C1085 C1086 1.373 . S
C1085 C1087 1.389 . S
C1086 H1059 0.950 . S
C1086 C1072 1.377 . S
C1086 C1085 1.373 . S
C1087 C1071 1.377 . S
C1087 C1085 1.389 . S
C1087 C1088 1.524 . S
C1088 C1087 1.524 . S
C1088 C1089 1.397 . S
C1088 C1093 1.363 . S
C1089 H1060 0.950 . S
C1089 C1088 1.397 . S
C1089 C1090 1.334 . S
C1090 H1061 0.950 . S
C1090 C1089 1.334 . S
C1090 C1091 1.287 . S
C1091 C1090 1.287 . S
C1091 C1092 1.524 . S
C1091 H1094 0.999 . S
C1092 H1062 0.950 . S
C1092 C1091 1.524 . S
C1092 C1093 1.415 . S
C1093 H1063 0.950 . S
C1093 C1088 1.363 . S
C1093 C1092 1.415 . S
H1094 C1091 0.999 . S
H1095 C1076 0.913 . S
H1096 C1114 0.951 . S
H1097 C1116 0.951 . S
H1098 C1118 0.950 . S
H1099 C1119 0.950 . S
H1100 C1121 0.950 . S
H1101 C1124 0.950 . S
H1102 C1125 0.950 . S
H1103 C1127 0.950 . S
H1104 C1128 0.950 . S
H1105 C1129 0.951 . S
H1106 C1131 0.951 . S
H1107 C1133 0.950 . S
H1108 C1134 0.950 . S
H1109 C1136 0.950 . S
H1110 C1139 0.950 . S
H1111 C1140 0.950 . S
H1112 C1142 0.950 . S
H1113 C1143 0.950 . S
C1114 H1096 0.951 . S
C1114 C1115 1.366 . S
C1114 C1116 1.388 . S
C1115 C1114 1.366 . S
C1115 C1119 1.385 . S
C1116 H1097 0.951 . S
C1116 C1114 1.388 . S
C1116 C1117 1.366 . S
C1117 C1116 1.366 . S
C1117 C1118 1.414 . S
C1117 C1120 1.499 . S
C1118 H1098 0.950 . S
C1118 C1117 1.414 . S
C1118 C1119 1.374 . S
C1119 H1099 0.950 . S
C1119 C1115 1.385 . S
C1119 C1118 1.374 . S
C1120 C1117 1.499 . S
C1120 C1121 1.373 . S
C1120 C1122 1.389 . S
C1121 H1100 0.950 . S
C1121 C1120 1.373 . S
C1121 C1137 1.377 . S
C1122 C1120 1.389 . S
C1122 C1123 1.524 . S
C1122 C1136 1.377 . S
C1123 C1122 1.524 . S
C1123 C1124 1.397 . S
C1123 C1128 1.363 . S
C1124 H1101 0.950 . S
C1124 C1123 1.397 . S
C1124 C1125 1.334 . S
C1125 H1102 0.950 . S
C1125 C1124 1.334 . S
C1125 C1126 1.287 . S
C1126 C1125 1.287 . S
C1126 C1127 1.524 . S
C1126 H1145 0.913 . S
C1127 H1103 0.950 . S
C1127 C1126 1.524 . S
C1127 C1128 1.415 . S
C1128 H1104 0.950 . S
C1128 C1123 1.363 . S
C1128 C1127 1.415 . S
C1129 H1105 0.951 . S
C1129 C1130 1.366 . S
C1129 C1131 1.388 . S
C1130 C1129 1.366 . S
C1130 C1134 1.385 . S
C1131 H1106 0.951 . S
C1131 C1129 1.388 . S
C1131 C1132 1.366 . S
C1132 C1131 1.366 . S
C1132 C1133 1.414 . S
C1132 C1135 1.499 . S
C1133 H1107 0.950 . S
C1133 C1132 1.414 . S
C1133 C1134 1.374 . S
C1134 H1108 0.950 . S
C1134 C1130 1.385 . S
C1134 C1133 1.374 . S
C1135 C1132 1.499 . S
C1135 C1136 1.373 . S
C1135 C1137 1.389 . S
C1136 H1109 0.950 . S
C1136 C1122 1.377 . S
C1136 C1135 1.373 . S
C1137 C1121 1.377 . S
C1137 C1135 1.389 . S
C1137 C1138 1.524 . S
C1138 C1137 1.524 . S
C1138 C1139 1.397 . S
C1138 C1143 1.363 . S
C1139 H1110 0.950 . S
C1139 C1138 1.397 . S
C1139 C1140 1.334 . S
C1140 H1111 0.950 . S
C1140 C1139 1.334 . S
C1140 C1141 1.287 . S
C1141 C1140 1.287 . S
C1141 C1142 1.524 . S
C1141 H1144 0.999 . S
C1142 H1112 0.950 . S
C1142 C1141 1.524 . S
C1142 C1143 1.415 . S
C1143 H1113 0.950 . S
C1143 C1138 1.363 . S
C1143 C1142 1.415 . S
H1144 C1141 0.999 . S
H1145 C1126 0.913 . S
H1146 C1164 0.951 . S
H1147 C1166 0.951 . S
H1148 C1168 0.950 . S
H1149 C1169 0.950 . S
H1150 C1171 0.950 . S
H1151 C1174 0.950 . S
H1152 C1175 0.950 . S
H1153 C1177 0.950 . S
H1154 C1178 0.950 . S
H1155 C1179 0.951 . S
H1156 C1181 0.951 . S
H1157 C1183 0.950 . S
H1158 C1184 0.950 . S
H1159 C1186 0.950 . S
H1160 C1189 0.950 . S
H1161 C1190 0.950 . S
H1162 C1192 0.950 . S
H1163 C1193 0.950 . S
C1164 H1146 0.951 . S
C1164 C1165 1.366 . S
C1164 C1166 1.388 . S
C1165 C1164 1.366 . S
C1165 C1169 1.385 . S
C1166 H1147 0.951 . S
C1166 C1164 1.388 . S
C1166 C1167 1.366 . S
C1167 C1166 1.366 . S
C1167 C1168 1.414 . S
C1167 C1170 1.499 . S
C1168 H1148 0.950 . S
C1168 C1167 1.414 . S
C1168 C1169 1.374 . S
C1169 H1149 0.950 . S
C1169 C1165 1.385 . S
C1169 C1168 1.374 . S
C1170 C1167 1.499 . S
C1170 C1171 1.373 . S
C1170 C1172 1.389 . S
C1171 H1150 0.950 . S
C1171 C1170 1.373 . S
C1171 C1187 1.377 . S
C1172 C1170 1.389 . S
C1172 C1173 1.524 . S
C1172 C1186 1.377 . S
C1173 C1172 1.524 . S
C1173 C1174 1.397 . S
C1173 C1178 1.363 . S
C1174 H1151 0.950 . S
C1174 C1173 1.397 . S
C1174 C1175 1.334 . S
C1175 H1152 0.950 . S
C1175 C1174 1.334 . S
C1175 C1176 1.287 . S
C1176 C1175 1.287 . S
C1176 C1177 1.524 . S
C1176 H1195 0.913 . S
C1177 H1153 0.950 . S
C1177 C1176 1.524 . S
C1177 C1178 1.415 . S
C1178 H1154 0.950 . S
C1178 C1173 1.363 . S
C1178 C1177 1.415 . S
C1179 H1155 0.951 . S
C1179 C1180 1.366 . S
C1179 C1181 1.388 . S
C1180 C1179 1.366 . S
C1180 C1184 1.385 . S
C1181 H1156 0.951 . S
C1181 C1179 1.388 . S
C1181 C1182 1.366 . S
C1182 C1181 1.366 . S
C1182 C1183 1.414 . S
C1182 C1185 1.499 . S
C1183 H1157 0.950 . S
C1183 C1182 1.414 . S
C1183 C1184 1.374 . S
C1184 H1158 0.950 . S
C1184 C1180 1.385 . S
C1184 C1183 1.374 . S
C1185 C1182 1.499 . S
C1185 C1186 1.373 . S
C1185 C1187 1.389 . S
C1186 H1159 0.950 . S
C1186 C1172 1.377 . S
C1186 C1185 1.373 . S
C1187 C1171 1.377 . S
C1187 C1185 1.389 . S
C1187 C1188 1.524 . S
C1188 C1187 1.524 . S
C1188 C1189 1.397 . S
C1188 C1193 1.363 . S
C1189 H1160 0.950 . S
C1189 C1188 1.397 . S
C1189 C1190 1.334 . S
C1190 H1161 0.950 . S
C1190 C1189 1.334 . S
C1190 C1191 1.287 . S
C1191 C1190 1.287 . S
C1191 C1192 1.524 . S
C1191 H1194 0.999 . S
C1192 H1162 0.950 . S
C1192 C1191 1.524 . S
C1192 C1193 1.415 . S
C1193 H1163 0.950 . S
C1193 C1188 1.363 . S
C1193 C1192 1.415 . S
H1194 C1191 0.999 . S
H1195 C1176 0.913 . S
H1196 C1214 0.951 . S
H1197 C1216 0.951 . S
H1198 C1218 0.950 . S
H1199 C1219 0.950 . S
H1200 C1221 0.950 . S
H1201 C1224 0.950 . S
H1202 C1225 0.950 . S
H1203 C1227 0.950 . S
H1204 C1228 0.950 . S
H1205 C1229 0.951 . S
H1206 C1231 0.951 . S
H1207 C1233 0.950 . S
H1208 C1234 0.950 . S
H1209 C1236 0.950 . S
H1210 C1239 0.950 . S
H1211 C1240 0.950 . S
H1212 C1242 0.950 . S
H1213 C1243 0.950 . S
C1214 H1196 0.951 . S
C1214 C1215 1.366 . S
C1214 C1216 1.388 . S
C1215 C1214 1.366 . S
C1215 C1219 1.385 . S
C1216 H1197 0.951 . S
C1216 C1214 1.388 . S
C1216 C1217 1.366 . S
C1217 C1216 1.366 . S
C1217 C1218 1.414 . S
C1217 C1220 1.499 . S
C1218 H1198 0.950 . S
C1218 C1217 1.414 . S
C1218 C1219 1.374 . S
C1219 H1199 0.950 . S
C1219 C1215 1.385 . S
C1219 C1218 1.374 . S
C1220 C1217 1.499 . S
C1220 C1221 1.373 . S
C1220 C1222 1.389 . S
C1221 H1200 0.950 . S
C1221 C1220 1.373 . S
C1221 C1237 1.377 . S
C1222 C1220 1.389 . S
C1222 C1223 1.524 . S
C1222 C1236 1.377 . S
C1223 C1222 1.524 . S
C1223 C1224 1.397 . S
C1223 C1228 1.363 . S
C1224 H1201 0.950 . S
C1224 C1223 1.397 . S
C1224 C1225 1.334 . S
C1225 H1202 0.950 . S
C1225 C1224 1.334 . S
C1225 C1226 1.287 . S
C1226 C1225 1.287 . S
C1226 C1227 1.524 . S
C1226 H1245 0.913 . S
C1227 H1203 0.950 . S
C1227 C1226 1.524 . S
C1227 C1228 1.415 . S
C1228 H1204 0.950 . S
C1228 C1223 1.363 . S
C1228 C1227 1.415 . S
C1229 H1205 0.951 . S
C1229 C1230 1.366 . S
C1229 C1231 1.388 . S
C1230 C1229 1.366 . S
C1230 C1234 1.385 . S
C1231 H1206 0.951 . S
C1231 C1229 1.388 . S
C1231 C1232 1.366 . S
C1232 C1231 1.366 . S
C1232 C1233 1.414 . S
C1232 C1235 1.499 . S
C1233 H1207 0.950 . S
C1233 C1232 1.414 . S
C1233 C1234 1.374 . S
C1234 H1208 0.950 . S
C1234 C1230 1.385 . S
C1234 C1233 1.374 . S
C1235 C1232 1.499 . S
C1235 C1236 1.373 . S
C1235 C1237 1.389 . S
C1236 H1209 0.950 . S
C1236 C1222 1.377 . S
C1236 C1235 1.373 . S
C1237 C1221 1.377 . S
C1237 C1235 1.389 . S
C1237 C1238 1.524 . S
C1238 C1237 1.524 . S
C1238 C1239 1.397 . S
C1238 C1243 1.363 . S
C1239 H1210 0.950 . S
C1239 C1238 1.397 . S
C1239 C1240 1.334 . S
C1240 H1211 0.950 . S
C1240 C1239 1.334 . S
C1240 C1241 1.287 . S
C1241 C1240 1.287 . S
C1241 C1242 1.524 . S
C1241 H1244 0.999 . S
C1242 H1212 0.950 . S
C1242 C1241 1.524 . S
C1242 C1243 1.415 . S
C1243 H1213 0.950 . S
C1243 C1238 1.363 . S
C1243 C1242 1.415 . S
H1244 C1241 0.999 . S
H1245 C1226 0.913 . S
H1246 C1264 0.951 . S
H1247 C1266 0.951 . S
H1248 C1268 0.950 . S
H1249 C1269 0.950 . S
H1250 C1271 0.950 . S
H1251 C1274 0.950 . S
H1252 C1275 0.950 . S
H1253 C1277 0.950 . S
H1254 C1278 0.950 . S
H1255 C1279 0.951 . S
H1256 C1281 0.951 . S
H1257 C1283 0.950 . S
H1258 C1284 0.950 . S
H1259 C1286 0.950 . S
H1260 C1289 0.950 . S
H1261 C1290 0.950 . S
H1262 C1292 0.950 . S
H1263 C1293 0.950 . S
C1264 H1246 0.951 . S
C1264 C1265 1.366 . S
C1264 C1266 1.388 . S
C1265 C1264 1.366 . S
C1265 C1269 1.385 . S
C1266 H1247 0.951 . S
C1266 C1264 1.388 . S
C1266 C1267 1.366 . S
C1267 C1266 1.366 . S
C1267 C1268 1.414 . S
C1267 C1270 1.499 . S
C1268 H1248 0.950 . S
C1268 C1267 1.414 . S
C1268 C1269 1.374 . S
C1269 H1249 0.950 . S
C1269 C1265 1.385 . S
C1269 C1268 1.374 . S
C1270 C1267 1.499 . S
C1270 C1271 1.373 . S
C1270 C1272 1.389 . S
C1271 H1250 0.950 . S
C1271 C1270 1.373 . S
C1271 C1287 1.377 . S
C1272 C1270 1.389 . S
C1272 C1273 1.524 . S
C1272 C1286 1.377 . S
C1273 C1272 1.524 . S
C1273 C1274 1.397 . S
C1273 C1278 1.363 . S
C1274 H1251 0.950 . S
C1274 C1273 1.397 . S
C1274 C1275 1.334 . S
C1275 H1252 0.950 . S
C1275 C1274 1.334 . S
C1275 C1276 1.287 . S
C1276 C1275 1.287 . S
C1276 C1277 1.524 . S
C1276 H1295 0.913 . S
C1277 H1253 0.950 . S
C1277 C1276 1.524 . S
C1277 C1278 1.415 . S
C1278 H1254 0.950 . S
C1278 C1273 1.363 . S
C1278 C1277 1.415 . S
C1279 H1255 0.951 . S
C1279 C1280 1.366 . S
C1279 C1281 1.388 . S
C1280 C1279 1.366 . S
C1280 C1284 1.385 . S
C1281 H1256 0.951 . S
C1281 C1279 1.388 . S
C1281 C1282 1.366 . S
C1282 C1281 1.366 . S
C1282 C1283 1.414 . S
C1282 C1285 1.499 . S
C1283 H1257 0.950 . S
C1283 C1282 1.414 . S
C1283 C1284 1.374 . S
C1284 H1258 0.950 . S
C1284 C1280 1.385 . S
C1284 C1283 1.374 . S
C1285 C1282 1.499 . S
C1285 C1286 1.373 . S
C1285 C1287 1.389 . S
C1286 H1259 0.950 . S
C1286 C1272 1.377 . S
C1286 C1285 1.373 . S
C1287 C1271 1.377 . S
C1287 C1285 1.389 . S
C1287 C1288 1.524 . S
C1288 C1287 1.524 . S
C1288 C1289 1.397 . S
C1288 C1293 1.363 . S
C1289 H1260 0.950 . S
C1289 C1288 1.397 . S
C1289 C1290 1.334 . S
C1290 H1261 0.950 . S
C1290 C1289 1.334 . S
C1290 C1291 1.287 . S
C1291 C1290 1.287 . S
C1291 C1292 1.524 . S
C1291 H1294 0.999 . S
C1292 H1262 0.950 . S
C1292 C1291 1.524 . S
C1292 C1293 1.415 . S
C1293 H1263 0.950 . S
C1293 C1288 1.363 . S
C1293 C1292 1.415 . S
H1294 C1291 0.999 . S
H1295 C1276 0.913 . S
H1296 C1314 0.951 . S
H1297 C1316 0.951 . S
H1298 C1318 0.950 . S
H1299 C1319 0.950 . S
H1300 C1321 0.950 . S
H1301 C1324 0.950 . S
H1302 C1325 0.950 . S
H1303 C1327 0.950 . S
H1304 C1328 0.950 . S
H1305 C1329 0.951 . S
H1306 C1331 0.951 . S
H1307 C1333 0.950 . S
H1308 C1334 0.950 . S
H1309 C1336 0.950 . S
H1310 C1339 0.950 . S
H1311 C1340 0.950 . S
H1312 C1342 0.950 . S
H1313 C1343 0.950 . S
C1314 H1296 0.951 . S
C1314 C1315 1.366 . S
C1314 C1316 1.388 . S
C1315 C1314 1.366 . S
C1315 C1319 1.385 . S
C1316 H1297 0.951 . S
C1316 C1314 1.388 . S
C1316 C1317 1.366 . S
C1317 C1316 1.366 . S
C1317 C1318 1.414 . S
C1317 C1320 1.499 . S
C1318 H1298 0.950 . S
C1318 C1317 1.414 . S
C1318 C1319 1.374 . S
C1319 H1299 0.950 . S
C1319 C1315 1.385 . S
C1319 C1318 1.374 . S
C1320 C1317 1.499 . S
C1320 C1321 1.373 . S
C1320 C1322 1.389 . S
C1321 H1300 0.950 . S
C1321 C1320 1.373 . S
C1321 C1337 1.377 . S
C1322 C1320 1.389 . S
C1322 C1323 1.524 . S
C1322 C1336 1.377 . S
C1323 C1322 1.524 . S
C1323 C1324 1.397 . S
C1323 C1328 1.363 . S
C1324 H1301 0.950 . S
C1324 C1323 1.397 . S
C1324 C1325 1.334 . S
C1325 H1302 0.950 . S
C1325 C1324 1.334 . S
C1325 C1326 1.287 . S
C1326 C1325 1.287 . S
C1326 C1327 1.524 . S
C1326 H1345 0.913 . S
C1327 H1303 0.950 . S
C1327 C1326 1.524 . S
C1327 C1328 1.415 . S
C1328 H1304 0.950 . S
C1328 C1323 1.363 . S
C1328 C1327 1.415 . S
C1329 H1305 0.951 . S
C1329 C1330 1.366 . S
C1329 C1331 1.388 . S
C1330 C1329 1.366 . S
C1330 C1334 1.385 . S
C1331 H1306 0.951 . S
C1331 C1329 1.388 . S
C1331 C1332 1.366 . S
C1332 C1331 1.366 . S
C1332 C1333 1.414 . S
C1332 C1335 1.499 . S
C1333 H1307 0.950 . S
C1333 C1332 1.414 . S
C1333 C1334 1.374 . S
C1334 H1308 0.950 . S
C1334 C1330 1.385 . S
C1334 C1333 1.374 . S
C1335 C1332 1.499 . S
C1335 C1336 1.373 . S
C1335 C1337 1.389 . S
C1336 H1309 0.950 . S
C1336 C1322 1.377 . S
C1336 C1335 1.373 . S
C1337 C1321 1.377 . S
C1337 C1335 1.389 . S
C1337 C1338 1.524 . S
C1338 C1337 1.524 . S
C1338 C1339 1.397 . S
C1338 C1343 1.363 . S
C1339 H1310 0.950 . S
C1339 C1338 1.397 . S
C1339 C1340 1.334 . S
C1340 H1311 0.950 . S
C1340 C1339 1.334 . S
C1340 C1341 1.287 . S
C1341 C1340 1.287 . S
C1341 C1342 1.524 . S
C1341 H1344 0.999 . S
C1342 H1312 0.950 . S
C1342 C1341 1.524 . S
C1342 C1343 1.415 . S
C1343 H1313 0.950 . S
C1343 C1338 1.363 . S
C1343 C1342 1.415 . S
H1344 C1341 0.999 . S
H1345 C1326 0.913 . S
H1346 C1364 0.951 . S
H1347 C1366 0.951 . S
H1348 C1368 0.950 . S
H1349 C1369 0.950 . S
H1350 C1371 0.950 . S
H1351 C1374 0.950 . S
H1352 C1375 0.950 . S
H1353 C1377 0.950 . S
H1354 C1378 0.950 . S
H1355 C1379 0.951 . S
H1356 C1381 0.951 . S
H1357 C1383 0.950 . S
H1358 C1384 0.950 . S
H1359 C1386 0.950 . S
H1360 C1389 0.950 . S
H1361 C1390 0.950 . S
H1362 C1392 0.950 . S
H1363 C1393 0.950 . S
C1364 H1346 0.951 . S
C1364 C1365 1.366 . S
C1364 C1366 1.388 . S
C1365 C1364 1.366 . S
C1365 C1369 1.385 . S
C1366 H1347 0.951 . S
C1366 C1364 1.388 . S
C1366 C1367 1.366 . S
C1367 C1366 1.366 . S
C1367 C1368 1.414 . S
C1367 C1370 1.499 . S
C1368 H1348 0.950 . S
C1368 C1367 1.414 . S
C1368 C1369 1.374 . S
C1369 H1349 0.950 . S
C1369 C1365 1.385 . S
C1369 C1368 1.374 . S
C1370 C1367 1.499 . S
C1370 C1371 1.373 . S
C1370 C1372 1.389 . S
C1371 H1350 0.950 . S
C1371 C1370 1.373 . S
C1371 C1387 1.377 . S
C1372 C1370 1.389 . S
C1372 C1373 1.524 . S
C1372 C1386 1.377 . S
C1373 C1372 1.524 . S
C1373 C1374 1.397 . S
C1373 C1378 1.363 . S
C1374 H1351 0.950 . S
C1374 C1373 1.397 . S
C1374 C1375 1.334 . S
C1375 H1352 0.950 . S
C1375 C1374 1.334 . S
C1375 C1376 1.287 . S
C1376 C1375 1.287 . S
C1376 C1377 1.524 . S
C1376 H1395 0.913 . S
C1377 H1353 0.950 . S
C1377 C1376 1.524 . S
C1377 C1378 1.415 . S
C1378 H1354 0.950 . S
C1378 C1373 1.363 . S
C1378 C1377 1.415 . S
C1379 H1355 0.951 . S
C1379 C1380 1.366 . S
C1379 C1381 1.388 . S
C1380 C1379 1.366 . S
C1380 C1384 1.385 . S
C1381 H1356 0.951 . S
C1381 C1379 1.388 . S
C1381 C1382 1.366 . S
C1382 C1381 1.366 . S
C1382 C1383 1.414 . S
C1382 C1385 1.499 . S
C1383 H1357 0.950 . S
C1383 C1382 1.414 . S
C1383 C1384 1.374 . S
C1384 H1358 0.950 . S
C1384 C1380 1.385 . S
C1384 C1383 1.374 . S
C1385 C1382 1.499 . S
C1385 C1386 1.373 . S
C1385 C1387 1.389 . S
C1386 H1359 0.950 . S
C1386 C1372 1.377 . S
C1386 C1385 1.373 . S
C1387 C1371 1.377 . S
C1387 C1385 1.389 . S
C1387 C1388 1.524 . S
C1388 C1387 1.524 . S
C1388 C1389 1.397 . S
C1388 C1393 1.363 . S
C1389 H1360 0.950 . S
C1389 C1388 1.397 . S
C1389 C1390 1.334 . S
C1390 H1361 0.950 . S
C1390 C1389 1.334 . S
C1390 C1391 1.287 . S
C1391 C1390 1.287 . S
C1391 C1392 1.524 . S
C1391 H1394 0.999 . S
C1392 H1362 0.950 . S
C1392 C1391 1.524 . S
C1392 C1393 1.415 . S
C1393 H1363 0.950 . S
C1393 C1388 1.363 . S
C1393 C1392 1.415 . S
H1394 C1391 0.999 . S
H1395 C1376 0.913 . S
H1396 C1414 0.951 . S
H1397 C1416 0.951 . S
H1398 C1418 0.950 . S
H1399 C1419 0.950 . S
H1400 C1421 0.950 . S
H1401 C1424 0.950 . S
H1402 C1425 0.950 . S
H1403 C1427 0.950 . S
H1404 C1428 0.950 . S
H1405 C1429 0.951 . S
H1406 C1431 0.951 . S
H1407 C1433 0.950 . S
H1408 C1434 0.950 . S
H1409 C1436 0.950 . S
H1410 C1439 0.950 . S
H1411 C1440 0.950 . S
H1412 C1442 0.950 . S
H1413 C1443 0.950 . S
C1414 H1396 0.951 . S
C1414 C1415 1.366 . S
C1414 C1416 1.388 . S
C1415 C1414 1.366 . S
C1415 C1419 1.385 . S
C1416 H1397 0.951 . S
C1416 C1414 1.388 . S
C1416 C1417 1.366 . S
C1417 C1416 1.366 . S
C1417 C1418 1.414 . S
C1417 C1420 1.499 . S
C1418 H1398 0.950 . S
C1418 C1417 1.414 . S
C1418 C1419 1.374 . S
C1419 H1399 0.950 . S
C1419 C1415 1.385 . S
C1419 C1418 1.374 . S
C1420 C1417 1.499 . S
C1420 C1421 1.373 . S
C1420 C1422 1.389 . S
C1421 H1400 0.950 . S
C1421 C1420 1.373 . S
C1421 C1437 1.377 . S
C1422 C1420 1.389 . S
C1422 C1423 1.524 . S
C1422 C1436 1.377 . S
C1423 C1422 1.524 . S
C1423 C1424 1.397 . S
C1423 C1428 1.363 . S
C1424 H1401 0.950 . S
C1424 C1423 1.397 . S
C1424 C1425 1.334 . S
C1425 H1402 0.950 . S
C1425 C1424 1.334 . S
C1425 C1426 1.287 . S
C1426 C1425 1.287 . S
C1426 C1427 1.524 . S
C1426 H1445 0.913 . S
C1427 H1403 0.950 . S
C1427 C1426 1.524 . S
C1427 C1428 1.415 . S
C1428 H1404 0.950 . S
C1428 C1423 1.363 . S
C1428 C1427 1.415 . S
C1429 H1405 0.951 . S
C1429 C1430 1.366 . S
C1429 C1431 1.388 . S
C1430 C1429 1.366 . S
C1430 C1434 1.385 . S
C1431 H1406 0.951 . S
C1431 C1429 1.388 . S
C1431 C1432 1.366 . S
C1432 C1431 1.366 . S
C1432 C1433 1.414 . S
C1432 C1435 1.499 . S
C1433 H1407 0.950 . S
C1433 C1432 1.414 . S
C1433 C1434 1.374 . S
C1434 H1408 0.950 . S
C1434 C1430 1.385 . S
C1434 C1433 1.374 . S
C1435 C1432 1.499 . S
C1435 C1436 1.373 . S
C1435 C1437 1.389 . S
C1436 H1409 0.950 . S
C1436 C1422 1.377 . S
C1436 C1435 1.373 . S
C1437 C1421 1.377 . S
C1437 C1435 1.389 . S
C1437 C1438 1.524 . S
C1438 C1437 1.524 . S
C1438 C1439 1.397 . S
C1438 C1443 1.363 . S
C1439 H1410 0.950 . S
C1439 C1438 1.397 . S
C1439 C1440 1.334 . S
C1440 H1411 0.950 . S
C1440 C1439 1.334 . S
C1440 C1441 1.287 . S
C1441 C1440 1.287 . S
C1441 C1442 1.524 . S
C1441 H1444 0.999 . S
C1442 H1412 0.950 . S
C1442 C1441 1.524 . S
C1442 C1443 1.415 . S
C1443 H1413 0.950 . S
C1443 C1438 1.363 . S
C1443 C1442 1.415 . S
H1444 C1441 0.999 . S
H1445 C1426 0.913 . S
H1446 C1464 0.951 . S
H1447 C1466 0.951 . S
H1448 C1468 0.950 . S
H1449 C1469 0.950 . S
H1450 C1471 0.950 . S
H1451 C1474 0.950 . S
H1452 C1475 0.950 . S
H1453 C1477 0.950 . S
H1454 C1478 0.950 . S
H1455 C1479 0.951 . S
H1456 C1481 0.951 . S
H1457 C1483 0.950 . S
H1458 C1484 0.950 . S
H1459 C1486 0.950 . S
H1460 C1489 0.950 . S
H1461 C1490 0.950 . S
H1462 C1492 0.950 . S
H1463 C1493 0.950 . S
C1464 H1446 0.951 . S
C1464 C1465 1.366 . S
C1464 C1466 1.388 . S
C1465 C1464 1.366 . S
C1465 C1469 1.385 . S
C1466 H1447 0.951 . S
C1466 C1464 1.388 . S
C1466 C1467 1.366 . S
C1467 C1466 1.366 . S
C1467 C1468 1.414 . S
C1467 C1470 1.499 . S
C1468 H1448 0.950 . S
C1468 C1467 1.414 . S
C1468 C1469 1.374 . S
C1469 H1449 0.950 . S
C1469 C1465 1.385 . S
C1469 C1468 1.374 . S
C1470 C1467 1.499 . S
C1470 C1471 1.373 . S
C1470 C1472 1.389 . S
C1471 H1450 0.950 . S
C1471 C1470 1.373 . S
C1471 C1487 1.377 . S
C1472 C1470 1.389 . S
C1472 C1473 1.524 . S
C1472 C1486 1.377 . S
C1473 C1472 1.524 . S
C1473 C1474 1.397 . S
C1473 C1478 1.363 . S
C1474 H1451 0.950 . S
C1474 C1473 1.397 . S
C1474 C1475 1.334 . S
C1475 H1452 0.950 . S
C1475 C1474 1.334 . S
C1475 C1476 1.287 . S
C1476 C1475 1.287 . S
C1476 C1477 1.524 . S
C1476 H1495 0.913 . S
C1477 H1453 0.950 . S
C1477 C1476 1.524 . S
C1477 C1478 1.415 . S
C1478 H1454 0.950 . S
C1478 C1473 1.363 . S
C1478 C1477 1.415 . S
C1479 H1455 0.951 . S
C1479 C1480 1.366 . S
C1479 C1481 1.388 . S
C1480 C1479 1.366 . S
C1480 C1484 1.385 . S
C1481 H1456 0.951 . S
C1481 C1479 1.388 . S
C1481 C1482 1.366 . S
C1482 C1481 1.366 . S
C1482 C1483 1.414 . S
C1482 C1485 1.499 . S
C1483 H1457 0.950 . S
C1483 C1482 1.414 . S
C1483 C1484 1.374 . S
C1484 H1458 0.950 . S
C1484 C1480 1.385 . S
C1484 C1483 1.374 . S
C1485 C1482 1.499 . S
C1485 C1486 1.373 . S
C1485 C1487 1.389 . S
C1486 H1459 0.950 . S
C1486 C1472 1.377 . S
C1486 C1485 1.373 . S
C1487 C1471 1.377 . S
C1487 C1485 1.389 . S
C1487 C1488 1.524 . S
C1488 C1487 1.524 . S
C1488 C1489 1.397 . S
C1488 C1493 1.363 . S
C1489 H1460 0.950 . S
C1489 C1488 1.397 . S
C1489 C1490 1.334 . S
C1490 H1461 0.950 . S
C1490 C1489 1.334 . S
C1490 C1491 1.287 . S
C1491 C1490 1.287 . S
C1491 C1492 1.524 . S
C1491 H1494 0.999 . S
C1492 H1462 0.950 . S
C1492 C1491 1.524 . S
C1492 C1493 1.415 . S
C1493 H1463 0.950 . S
C1493 C1488 1.363 . S
C1493 C1492 1.415 . S
H1494 C1491 0.999 . S
H1495 C1476 0.913 . S
H1496 C1514 0.951 . S
H1497 C1516 0.951 . S
H1498 C1518 0.950 . S
H1499 C1519 0.950 . S
H1500 C1521 0.950 . S
H1501 C1524 0.950 . S
H1502 C1525 0.950 . S
H1503 C1527 0.950 . S
H1504 C1528 0.950 . S
H1505 C1529 0.951 . S
H1506 C1531 0.951 . S
H1507 C1533 0.950 . S
H1508 C1534 0.950 . S
H1509 C1536 0.950 . S
H1510 C1539 0.950 . S
H1511 C1540 0.950 . S
H1512 C1542 0.950 . S
H1513 C1543 0.950 . S
C1514 H1496 0.951 . S
C1514 C1515 1.366 . S
C1514 C1516 1.388 . S
C1515 C1514 1.366 . S
C1515 C1519 1.385 . S
C1516 H1497 0.951 . S
C1516 C1514 1.388 . S
C1516 C1517 1.366 . S
C1517 C1516 1.366 . S
C1517 C1518 1.414 . S
C1517 C1520 1.499 . S
C1518 H1498 0.950 . S
C1518 C1517 1.414 . S
C1518 C1519 1.374 . S
C1519 H1499 0.950 . S
C1519 C1515 1.385 . S
C1519 C1518 1.374 . S
C1520 C1517 1.499 . S
C1520 C1521 1.373 . S
C1520 C1522 1.389 . S
C1521 H1500 0.950 . S
C1521 C1520 1.373 . S
C1521 C1537 1.377 . S
C1522 C1520 1.389 . S
C1522 C1523 1.524 . S
C1522 C1536 1.377 . S
C1523 C1522 1.524 . S
C1523 C1524 1.397 . S
C1523 C1528 1.363 . S
C1524 H1501 0.950 . S
C1524 C1523 1.397 . S
C1524 C1525 1.334 . S
C1525 H1502 0.950 . S
C1525 C1524 1.334 . S
C1525 C1526 1.287 . S
C1526 C1525 1.287 . S
C1526 C1527 1.524 . S
C1526 H1545 0.913 . S
C1527 H1503 0.950 . S
C1527 C1526 1.524 . S
C1527 C1528 1.415 . S
C1528 H1504 0.950 . S
C1528 C1523 1.363 . S
C1528 C1527 1.415 . S
C1529 H1505 0.951 . S
C1529 C1530 1.366 . S
C1529 C1531 1.388 . S
C1530 C1529 1.366 . S
C1530 C1534 1.385 . S
C1531 H1506 0.951 . S
C1531 C1529 1.388 . S
C1531 C1532 1.366 . S
C1532 C1531 1.366 . S
C1532 C1533 1.414 . S
C1532 C1535 1.499 . S
C1533 H1507 0.950 . S
C1533 C1532 1.414 . S
C1533 C1534 1.374 . S
C1534 H1508 0.950 . S
C1534 C1530 1.385 . S
C1534 C1533 1.374 . S
C1535 C1532 1.499 . S
C1535 C1536 1.373 . S
C1535 C1537 1.389 . S
C1536 H1509 0.950 . S
C1536 C1522 1.377 . S
C1536 C1535 1.373 . S
C1537 C1521 1.377 . S
C1537 C1535 1.389 . S
C1537 C1538 1.524 . S
C1538 C1537 1.524 . S
C1538 C1539 1.397 . S
C1538 C1543 1.363 . S
C1539 H1510 0.950 . S
C1539 C1538 1.397 . S
C1539 C1540 1.334 . S
C1540 H1511 0.950 . S
C1540 C1539 1.334 . S
C1540 C1541 1.287 . S
C1541 C1540 1.287 . S
C1541 C1542 1.524 . S
C1541 H1544 0.999 . S
C1542 H1512 0.950 . S
C1542 C1541 1.524 . S
C1542 C1543 1.415 . S
C1543 H1513 0.950 . S
C1543 C1538 1.363 . S
C1543 C1542 1.415 . S
H1544 C1541 0.999 . S
H1545 C1526 0.913 . S
H1546 C1564 0.951 . S
H1547 C1566 0.951 . S
H1548 C1568 0.950 . S
H1549 C1569 0.950 . S
H1550 C1571 0.950 . S
H1551 C1574 0.950 . S
H1552 C1575 0.950 . S
H1553 C1577 0.950 . S
H1554 C1578 0.950 . S
H1555 C1579 0.951 . S
H1556 C1581 0.951 . S
H1557 C1583 0.950 . S
H1558 C1584 0.950 . S
H1559 C1586 0.950 . S
H1560 C1589 0.950 . S
H1561 C1590 0.950 . S
H1562 C1592 0.950 . S
H1563 C1593 0.950 . S
C1564 H1546 0.951 . S
C1564 C1565 1.366 . S
C1564 C1566 1.388 . S
C1565 C1564 1.366 . S
C1565 C1569 1.385 . S
C1566 H1547 0.951 . S
C1566 C1564 1.388 . S
C1566 C1567 1.366 . S
C1567 C1566 1.366 . S
C1567 C1568 1.414 . S
C1567 C1570 1.499 . S
C1568 H1548 0.950 . S
C1568 C1567 1.414 . S
C1568 C1569 1.374 . S
C1569 H1549 0.950 . S
C1569 C1565 1.385 . S
C1569 C1568 1.374 . S
C1570 C1567 1.499 . S
C1570 C1571 1.373 . S
C1570 C1572 1.389 . S
C1571 H1550 0.950 . S
C1571 C1570 1.373 . S
C1571 C1587 1.377 . S
C1572 C1570 1.389 . S
C1572 C1573 1.524 . S
C1572 C1586 1.377 . S
C1573 C1572 1.524 . S
C1573 C1574 1.397 . S
C1573 C1578 1.363 . S
C1574 H1551 0.950 . S
C1574 C1573 1.397 . S
C1574 C1575 1.334 . S
C1575 H1552 0.950 . S
C1575 C1574 1.334 . S
C1575 C1576 1.287 . S
C1576 C1575 1.287 . S
C1576 C1577 1.524 . S
C1576 H1595 0.913 . S
C1577 H1553 0.950 . S
C1577 C1576 1.524 . S
C1577 C1578 1.415 . S
C1578 H1554 0.950 . S
C1578 C1573 1.363 . S
C1578 C1577 1.415 . S
C1579 H1555 0.951 . S
C1579 C1580 1.366 . S
C1579 C1581 1.388 . S
C1580 C1579 1.366 . S
C1580 C1584 1.385 . S
C1581 H1556 0.951 . S
C1581 C1579 1.388 . S
C1581 C1582 1.366 . S
C1582 C1581 1.366 . S
C1582 C1583 1.414 . S
C1582 C1585 1.499 . S
C1583 H1557 0.950 . S
C1583 C1582 1.414 . S
C1583 C1584 1.374 . S
C1584 H1558 0.950 . S
C1584 C1580 1.385 . S
C1584 C1583 1.374 . S
C1585 C1582 1.499 . S
C1585 C1586 1.373 . S
C1585 C1587 1.389 . S
C1586 H1559 0.950 . S
C1586 C1572 1.377 . S
C1586 C1585 1.373 . S
C1587 C1571 1.377 . S
C1587 C1585 1.389 . S
C1587 C1588 1.524 . S
C1588 C1587 1.524 . S
C1588 C1589 1.397 . S
C1588 C1593 1.363 . S
C1589 H1560 0.950 . S
C1589 C1588 1.397 . S
C1589 C1590 1.334 . S
C1590 H1561 0.950 . S
C1590 C1589 1.334 . S
C1590 C1591 1.287 . S
C1591 C1590 1.287 . S
C1591 C1592 1.524 . S
C1591 H1594 0.999 . S
C1592 H1562 0.950 . S
C1592 C1591 1.524 . S
C1592 C1593 1.415 . S
C1593 H1563 0.950 . S
C1593 C1588 1.363 . S
C1593 C1592 1.415 . S
H1594 C1591 0.999 . S
H1595 C1576 0.913 . S
H1596 C1614 0.951 . S
H1597 C1616 0.951 . S
H1598 C1618 0.950 . S
H1599 C1619 0.950 . S
H1600 C1621 0.950 . S
H1601 C1624 0.950 . S
H1602 C1625 0.950 . S
H1603 C1627 0.950 . S
H1604 C1628 0.950 . S
H1605 C1629 0.951 . S
H1606 C1631 0.951 . S
H1607 C1633 0.950 . S
H1608 C1634 0.950 . S
H1609 C1636 0.950 . S
H1610 C1639 0.950 . S
H1611 C1640 0.950 . S
H1612 C1642 0.950 . S
H1613 C1643 0.950 . S
C1614 H1596 0.951 . S
C1614 C1615 1.366 . S
C1614 C1616 1.388 . S
C1615 C1614 1.366 . S
C1615 C1619 1.385 . S
C1616 H1597 0.951 . S
C1616 C1614 1.388 . S
C1616 C1617 1.366 . S
C1617 C1616 1.366 . S
C1617 C1618 1.414 . S
C1617 C1620 1.499 . S
C1618 H1598 0.950 . S
C1618 C1617 1.414 . S
C1618 C1619 1.374 . S
C1619 H1599 0.950 . S
C1619 C1615 1.385 . S
C1619 C1618 1.374 . S
C1620 C1617 1.499 . S
C1620 C1621 1.373 . S
C1620 C1622 1.389 . S
C1621 H1600 0.950 . S
C1621 C1620 1.373 . S
C1621 C1637 1.377 . S
C1622 C1620 1.389 . S
C1622 C1623 1.524 . S
C1622 C1636 1.377 . S
C1623 C1622 1.524 . S
C1623 C1624 1.397 . S
C1623 C1628 1.363 . S
C1624 H1601 0.950 . S
C1624 C1623 1.397 . S
C1624 C1625 1.334 . S
C1625 H1602 0.950 . S
C1625 C1624 1.334 . S
C1625 C1626 1.287 . S
C1626 C1625 1.287 . S
C1626 C1627 1.524 . S
C1626 H1645 0.913 . S
C1627 H1603 0.950 . S
C1627 C1626 1.524 . S
C1627 C1628 1.415 . S
C1628 H1604 0.950 . S
C1628 C1623 1.363 . S
C1628 C1627 1.415 . S
C1629 H1605 0.951 . S
C1629 C1630 1.366 . S
C1629 C1631 1.388 . S
C1630 C1629 1.366 . S
C1630 C1634 1.385 . S
C1631 H1606 0.951 . S
C1631 C1629 1.388 . S
C1631 C1632 1.366 . S
C1632 C1631 1.366 . S
C1632 C1633 1.414 . S
C1632 C1635 1.499 . S
C1633 H1607 0.950 . S
C1633 C1632 1.414 . S
C1633 C1634 1.374 . S
C1634 H1608 0.950 . S
C1634 C1630 1.385 . S
C1634 C1633 1.374 . S
C1635 C1632 1.499 . S
C1635 C1636 1.373 . S
C1635 C1637 1.389 . S
C1636 H1609 0.950 . S
C1636 C1622 1.377 . S
C1636 C1635 1.373 . S
C1637 C1621 1.377 . S
C1637 C1635 1.389 . S
C1637 C1638 1.524 . S
C1638 C1637 1.524 . S
C1638 C1639 1.397 . S
C1638 C1643 1.363 . S
C1639 H1610 0.950 . S
C1639 C1638 1.397 . S
C1639 C1640 1.334 . S
C1640 H1611 0.950 . S
C1640 C1639 1.334 . S
C1640 C1641 1.287 . S
C1641 C1640 1.287 . S
C1641 C1642 1.524 . S
C1641 H1644 0.999 . S
C1642 H1612 0.950 . S
C1642 C1641 1.524 . S
C1642 C1643 1.415 . S
C1643 H1613 0.950 . S
C1643 C1638 1.363 . S
C1643 C1642 1.415 . S
H1644 C1641 0.999 . S
H1645 C1626 0.913 . S
H1646 C1664 0.951 . S
H1647 C1666 0.951 . S
H1648 C1668 0.950 . S
H1649 C1669 0.950 . S
H1650 C1671 0.950 . S
H1651 C1674 0.950 . S
H1652 C1675 0.950 . S
H1653 C1677 0.950 . S
H1654 C1678 0.950 . S
H1655 C1679 0.951 . S
H1656 C1681 0.951 . S
H1657 C1683 0.950 . S
H1658 C1684 0.950 . S
H1659 C1686 0.950 . S
H1660 C1689 0.950 . S
H1661 C1690 0.950 . S
H1662 C1692 0.950 . S
H1663 C1693 0.950 . S
C1664 H1646 0.951 . S
C1664 C1665 1.366 . S
C1664 C1666 1.388 . S
C1665 C1664 1.366 . S
C1665 C1669 1.385 . S
C1666 H1647 0.951 . S
C1666 C1664 1.388 . S
C1666 C1667 1.366 . S
C1667 C1666 1.366 . S
C1667 C1668 1.414 . S
C1667 C1670 1.499 . S
C1668 H1648 0.950 . S
C1668 C1667 1.414 . S
C1668 C1669 1.374 . S
C1669 H1649 0.950 . S
C1669 C1665 1.385 . S
C1669 C1668 1.374 . S
C1670 C1667 1.499 . S
C1670 C1671 1.373 . S
C1670 C1672 1.389 . S
C1671 H1650 0.950 . S
C1671 C1670 1.373 . S
C1671 C1687 1.377 . S
C1672 C1670 1.389 . S
C1672 C1673 1.524 . S
C1672 C1686 1.377 . S
C1673 C1672 1.524 . S
C1673 C1674 1.397 . S
C1673 C1678 1.363 . S
C1674 H1651 0.950 . S
C1674 C1673 1.397 . S
C1674 C1675 1.334 . S
C1675 H1652 0.950 . S
C1675 C1674 1.334 . S
C1675 C1676 1.287 . S
C1676 C1675 1.287 . S
C1676 C1677 1.524 . S
C1676 H1695 0.913 . S
C1677 H1653 0.950 . S
C1677 C1676 1.524 . S
C1677 C1678 1.415 . S
C1678 H1654 0.950 . S
C1678 C1673 1.363 . S
C1678 C1677 1.415 . S
C1679 H1655 0.951 . S
C1679 C1680 1.366 . S
C1679 C1681 1.388 . S
C1680 C1679 1.366 . S
C1680 C1684 1.385 . S
C1681 H1656 0.951 . S
C1681 C1679 1.388 . S
C1681 C1682 1.366 . S
C1682 C1681 1.366 . S
C1682 C1683 1.414 . S
C1682 C1685 1.499 . S
C1683 H1657 0.950 . S
C1683 C1682 1.414 . S
C1683 C1684 1.374 . S
C1684 H1658 0.950 . S
C1684 C1680 1.385 . S
C1684 C1683 1.374 . S
C1685 C1682 1.499 . S
C1685 C1686 1.373 . S
C1685 C1687 1.389 . S
C1686 H1659 0.950 . S
C1686 C1672 1.377 . S
C1686 C1685 1.373 . S
C1687 C1671 1.377 . S
C1687 C1685 1.389 . S
C1687 C1688 1.524 . S
C1688 C1687 1.524 . S
C1688 C1689 1.397 . S
C1688 C1693 1.363 . S
C1689 H1660 0.950 . S
C1689 C1688 1.397 . S
C1689 C1690 1.334 . S
C1690 H1661 0.950 . S
C1690 C1689 1.334 . S
C1690 C1691 1.287 . S
C1691 C1690 1.287 . S
C1691 C1692 1.524 . S
C1691 H1694 0.999 . S
C1692 H1662 0.950 . S
C1692 C1691 1.524 . S
C1692 C1693 1.415 . S
C1693 H1663 0.950 . S
C1693 C1688 1.363 . S
C1693 C1692 1.415 . S
H1694 C1691 0.999 . S
H1695 C1676 0.913 . S
H1696 C1714 0.951 . S
H1697 C1716 0.951 . S
H1698 C1718 0.950 . S
H1699 C1719 0.950 . S
H1700 C1721 0.950 . S
H1701 C1724 0.950 . S
H1702 C1725 0.950 . S
H1703 C1727 0.950 . S
H1704 C1728 0.950 . S
H1705 C1729 0.951 . S
H1706 C1731 0.951 . S
H1707 C1733 0.950 . S
H1708 C1734 0.950 . S
H1709 C1736 0.950 . S
H1710 C1739 0.950 . S
H1711 C1740 0.950 . S
H1712 C1742 0.950 . S
H1713 C1743 0.950 . S
C1714 H1696 0.951 . S
C1714 C1715 1.366 . S
C1714 C1716 1.388 . S
C1715 C1714 1.366 . S
C1715 C1719 1.385 . S
C1716 H1697 0.951 . S
C1716 C1714 1.388 . S
C1716 C1717 1.366 . S
C1717 C1716 1.366 . S
C1717 C1718 1.414 . S
C1717 C1720 1.499 . S
C1718 H1698 0.950 . S
C1718 C1717 1.414 . S
C1718 C1719 1.374 . S
C1719 H1699 0.950 . S
C1719 C1715 1.385 . S
C1719 C1718 1.374 . S
C1720 C1717 1.499 . S
C1720 C1721 1.373 . S
C1720 C1722 1.389 . S
C1721 H1700 0.950 . S
C1721 C1720 1.373 . S
C1721 C1737 1.377 . S
C1722 C1720 1.389 . S
C1722 C1723 1.524 . S
C1722 C1736 1.377 . S
C1723 C1722 1.524 . S
C1723 C1724 1.397 . S
C1723 C1728 1.363 . S
C1724 H1701 0.950 . S
C1724 C1723 1.397 . S
C1724 C1725 1.334 . S
C1725 H1702 0.950 . S
C1725 C1724 1.334 . S
C1725 C1726 1.287 . S
C1726 C1725 1.287 . S
C1726 C1727 1.524 . S
C1726 H1745 0.913 . S
C1727 H1703 0.950 . S
C1727 C1726 1.524 . S
C1727 C1728 1.415 . S
C1728 H1704 0.950 . S
C1728 C1723 1.363 . S
C1728 C1727 1.415 . S
C1729 H1705 0.951 . S
C1729 C1730 1.366 . S
C1729 C1731 1.388 . S
C1730 C1729 1.366 . S
C1730 C1734 1.385 . S
C1731 H1706 0.951 . S
C1731 C1729 1.388 . S
C1731 C1732 1.366 . S
C1732 C1731 1.366 . S
C1732 C1733 1.414 . S
C1732 C1735 1.499 . S
C1733 H1707 0.950 . S
C1733 C1732 1.414 . S
C1733 C1734 1.374 . S
C1734 H1708 0.950 . S
C1734 C1730 1.385 . S
C1734 C1733 1.374 . S
C1735 C1732 1.499 . S
C1735 C1736 1.373 . S
C1735 C1737 1.389 . S
C1736 H1709 0.950 . S
C1736 C1722 1.377 . S
C1736 C1735 1.373 . S
C1737 C1721 1.377 . S
C1737 C1735 1.389 . S
C1737 C1738 1.524 . S
C1738 C1737 1.524 . S
C1738 C1739 1.397 . S
C1738 C1743 1.363 . S
C1739 H1710 0.950 . S
C1739 C1738 1.397 . S
C1739 C1740 1.334 . S
C1740 H1711 0.950 . S
C1740 C1739 1.334 . S
C1740 C1741 1.287 . S
C1741 C1740 1.287 . S
C1741 C1742 1.524 . S
C1741 H1744 0.999 . S
C1742 H1712 0.950 . S
C1742 C1741 1.524 . S
C1742 C1743 1.415 . S
C1743 H1713 0.950 . S
C1743 C1738 1.363 . S
C1743 C1742 1.415 . S
H1744 C1741 0.999 . S
H1745 C1726 0.913 . S
H1746 C1764 0.951 . S
H1747 C1766 0.951 . S
H1748 C1768 0.950 . S
H1749 C1769 0.950 . S
H1750 C1771 0.950 . S
H1751 C1774 0.950 . S
H1752 C1775 0.950 . S
H1753 C1777 0.950 . S
H1754 C1778 0.950 . S
H1755 C1779 0.951 . S
H1756 C1781 0.951 . S
H1757 C1783 0.950 . S
H1758 C1784 0.950 . S
H1759 C1786 0.950 . S
H1760 C1789 0.950 . S
H1761 C1790 0.950 . S
H1762 C1792 0.950 . S
H1763 C1793 0.950 . S
C1764 H1746 0.951 . S
C1764 C1765 1.366 . S
C1764 C1766 1.388 . S
C1765 C1764 1.366 . S
C1765 C1769 1.385 . S
C1766 H1747 0.951 . S
C1766 C1764 1.388 . S
C1766 C1767 1.366 . S
C1767 C1766 1.366 . S
C1767 C1768 1.414 . S
C1767 C1770 1.499 . S
C1768 H1748 0.950 . S
C1768 C1767 1.414 . S
C1768 C1769 1.374 . S
C1769 H1749 0.950 . S
C1769 C1765 1.385 . S
C1769 C1768 1.374 . S
C1770 C1767 1.499 . S
C1770 C1771 1.373 . S
C1770 C1772 1.389 . S
C1771 H1750 0.950 . S
C1771 C1770 1.373 . S
C1771 C1787 1.377 . S
C1772 C1770 1.389 . S
C1772 C1773 1.524 . S
C1772 C1786 1.377 . S
C1773 C1772 1.524 . S
C1773 C1774 1.397 . S
C1773 C1778 1.363 . S
C1774 H1751 0.950 . S
C1774 C1773 1.397 . S
C1774 C1775 1.334 . S
C1775 H1752 0.950 . S
C1775 C1774 1.334 . S
C1775 C1776 1.287 . S
C1776 C1775 1.287 . S
C1776 C1777 1.524 . S
C1776 H1795 0.913 . S
C1777 H1753 0.950 . S
C1777 C1776 1.524 . S
C1777 C1778 1.415 . S
C1778 H1754 0.950 . S
C1778 C1773 1.363 . S
C1778 C1777 1.415 . S
C1779 H1755 0.951 . S
C1779 C1780 1.366 . S
C1779 C1781 1.388 . S
C1780 C1779 1.366 . S
C1780 C1784 1.385 . S
C1781 H1756 0.951 . S
C1781 C1779 1.388 . S
C1781 C1782 1.366 . S
C1782 C1781 1.366 . S
C1782 C1783 1.414 . S
C1782 C1785 1.499 . S
C1783 H1757 0.950 . S
C1783 C1782 1.414 . S
C1783 C1784 1.374 . S
C1784 H1758 0.950 . S
C1784 C1780 1.385 . S
C1784 C1783 1.374 . S
C1785 C1782 1.499 . S
C1785 C1786 1.373 . S
C1785 C1787 1.389 . S
C1786 H1759 0.950 . S
C1786 C1772 1.377 . S
C1786 C1785 1.373 . S
C1787 C1771 1.377 . S
C1787 C1785 1.389 . S
C1787 C1788 1.524 . S
C1788 C1787 1.524 . S
C1788 C1789 1.397 . S
C1788 C1793 1.363 . S
C1789 H1760 0.950 . S
C1789 C1788 1.397 . S
C1789 C1790 1.334 . S
C1790 H1761 0.950 . S
C1790 C1789 1.334 . S
C1790 C1791 1.287 . S
C1791 C1790 1.287 . S
C1791 C1792 1.524 . S
C1791 H1794 0.999 . S
C1792 H1762 0.950 . S
C1792 C1791 1.524 . S
C1792 C1793 1.415 . S
C1793 H1763 0.950 . S
C1793 C1788 1.363 . S
C1793 C1792 1.415 . S
H1794 C1791 0.999 . S
H1795 C1776 0.913 . S
H1796 C1814 0.951 . S
H1797 C1816 0.951 . S
H1798 C1818 0.950 . S
H1799 C1819 0.950 . S
H1800 C1821 0.950 . S
H1801 C1824 0.950 . S
H1802 C1825 0.950 . S
H1803 C1827 0.950 . S
H1804 C1828 0.950 . S
H1805 C1829 0.951 . S
H1806 C1831 0.951 . S
H1807 C1833 0.950 . S
H1808 C1834 0.950 . S
H1809 C1836 0.950 . S
H1810 C1839 0.950 . S
H1811 C1840 0.950 . S
H1812 C1842 0.950 . S
H1813 C1843 0.950 . S
C1814 H1796 0.951 . S
C1814 C1815 1.366 . S
C1814 C1816 1.388 . S
C1815 C1814 1.366 . S
C1815 C1819 1.385 . S
C1816 H1797 0.951 . S
C1816 C1814 1.388 . S
C1816 C1817 1.366 . S
C1817 C1816 1.366 . S
C1817 C1818 1.414 . S
C1817 C1820 1.499 . S
C1818 H1798 0.950 . S
C1818 C1817 1.414 . S
C1818 C1819 1.374 . S
C1819 H1799 0.950 . S
C1819 C1815 1.385 . S
C1819 C1818 1.374 . S
C1820 C1817 1.499 . S
C1820 C1821 1.373 . S
C1820 C1822 1.389 . S
C1821 H1800 0.950 . S
C1821 C1820 1.373 . S
C1821 C1837 1.377 . S
C1822 C1820 1.389 . S
C1822 C1823 1.524 . S
C1822 C1836 1.377 . S
C1823 C1822 1.524 . S
C1823 C1824 1.397 . S
C1823 C1828 1.363 . S
C1824 H1801 0.950 . S
C1824 C1823 1.397 . S
C1824 C1825 1.334 . S
C1825 H1802 0.950 . S
C1825 C1824 1.334 . S
C1825 C1826 1.287 . S
C1826 C1825 1.287 . S
C1826 C1827 1.524 . S
C1826 H1845 0.913 . S
C1827 H1803 0.950 . S
C1827 C1826 1.524 . S
C1827 C1828 1.415 . S
C1828 H1804 0.950 . S
C1828 C1823 1.363 . S
C1828 C1827 1.415 . S
C1829 H1805 0.951 . S
C1829 C1830 1.366 . S
C1829 C1831 1.388 . S
C1830 C1829 1.366 . S
C1830 C1834 1.385 . S
C1831 H1806 0.951 . S
C1831 C1829 1.388 . S
C1831 C1832 1.366 . S
C1832 C1831 1.366 . S
C1832 C1833 1.414 . S
C1832 C1835 1.499 . S
C1833 H1807 0.950 . S
C1833 C1832 1.414 . S
C1833 C1834 1.374 . S
C1834 H1808 0.950 . S
C1834 C1830 1.385 . S
C1834 C1833 1.374 . S
C1835 C1832 1.499 . S
C1835 C1836 1.373 . S
C1835 C1837 1.389 . S
C1836 H1809 0.950 . S
C1836 C1822 1.377 . S
C1836 C1835 1.373 . S
C1837 C1821 1.377 . S
C1837 C1835 1.389 . S
C1837 C1838 1.524 . S
C1838 C1837 1.524 . S
C1838 C1839 1.397 . S
C1838 C1843 1.363 . S
C1839 H1810 0.950 . S
C1839 C1838 1.397 . S
C1839 C1840 1.334 . S
C1840 H1811 0.950 . S
C1840 C1839 1.334 . S
C1840 C1841 1.287 . S
C1841 C1840 1.287 . S
C1841 C1842 1.524 . S
C1841 H1844 0.999 . S
C1842 H1812 0.950 . S
C1842 C1841 1.524 . S
C1842 C1843 1.415 . S
C1843 H1813 0.950 . S
C1843 C1838 1.363 . S
C1843 C1842 1.415 . S
H1844 C1841 0.999 . S
H1845 C1826 0.913 . S
H1846 C1864 0.951 . S
H1847 C1866 0.951 . S
H1848 C1868 0.950 . S
H1849 C1869 0.950 . S
H1850 C1871 0.950 . S
H1851 C1874 0.950 . S
H1852 C1875 0.950 . S
H1853 C1877 0.950 . S
H1854 C1878 0.950 . S
H1855 C1879 0.951 . S
H1856 C1881 0.951 . S
H1857 C1883 0.950 . S
H1858 C1884 0.950 . S
H1859 C1886 0.950 . S
H1860 C1889 0.950 . S
H1861 C1890 0.950 . S
H1862 C1892 0.950 . S
H1863 C1893 0.950 . S
C1864 H1846 0.951 . S
C1864 C1865 1.366 . S
C1864 C1866 1.388 . S
C1865 C1864 1.366 . S
C1865 C1869 1.385 . S
C1866 H1847 0.951 . S
C1866 C1864 1.388 . S
C1866 C1867 1.366 . S
C1867 C1866 1.366 . S
C1867 C1868 1.414 . S
C1867 C1870 1.499 . S
C1868 H1848 0.950 . S
C1868 C1867 1.414 . S
C1868 C1869 1.374 . S
C1869 H1849 0.950 . S
C1869 C1865 1.385 . S
C1869 C1868 1.374 . S
C1870 C1867 1.499 . S
C1870 C1871 1.373 . S
C1870 C1872 1.389 . S
C1871 H1850 0.950 . S
C1871 C1870 1.373 . S
C1871 C1887 1.377 . S
C1872 C1870 1.389 . S
C1872 C1873 1.524 . S
C1872 C1886 1.377 . S
C1873 C1872 1.524 . S
C1873 C1874 1.397 . S
C1873 C1878 1.363 . S
C1874 H1851 0.950 . S
C1874 C1873 1.397 . S
C1874 C1875 1.334 . S
C1875 H1852 0.950 . S
C1875 C1874 1.334 . S
C1875 C1876 1.287 . S
C1876 C1875 1.287 . S
C1876 C1877 1.524 . S
C1876 H1895 0.913 . S
C1877 H1853 0.950 . S
C1877 C1876 1.524 . S
C1877 C1878 1.415 . S
C1878 H1854 0.950 . S
C1878 C1873 1.363 . S
C1878 C1877 1.415 . S
C1879 H1855 0.951 . S
C1879 C1880 1.366 . S
C1879 C1881 1.388 . S
C1880 C1879 1.366 . S
C1880 C1884 1.385 . S
C1881 H1856 0.951 . S
C1881 C1879 1.388 . S
C1881 C1882 1.366 . S
C1882 C1881 1.366 . S
C1882 C1883 1.414 . S
C1882 C1885 1.499 . S
C1883 H1857 0.950 . S
C1883 C1882 1.414 . S
C1883 C1884 1.374 . S
C1884 H1858 0.950 . S
C1884 C1880 1.385 . S
C1884 C1883 1.374 . S
C1885 C1882 1.499 . S
C1885 C1886 1.373 . S
C1885 C1887 1.389 . S
C1886 H1859 0.950 . S
C1886 C1872 1.377 . S
C1886 C1885 1.373 . S
C1887 C1871 1.377 . S
C1887 C1885 1.389 . S
C1887 C1888 1.524 . S
C1888 C1887 1.524 . S
C1888 C1889 1.397 . S
C1888 C1893 1.363 . S
C1889 H1860 0.950 . S
C1889 C1888 1.397 . S
C1889 C1890 1.334 . S
C1890 H1861 0.950 . S
C1890 C1889 1.334 . S
C1890 C1891 1.287 . S
C1891 C1890 1.287 . S
C1891 C1892 1.524 . S
C1891 H1894 0.999 . S
C1892 H1862 0.950 . S
C1892 C1891 1.524 . S
C1892 C1893 1.415 . S
C1893 H1863 0.950 . S
C1893 C1888 1.363 . S
C1893 C1892 1.415 . S
H1894 C1891 0.999 . S
H1895 C1876 0.913 . S
H1896 C1914 0.951 . S
H1897 C1916 0.951 . S
H1898 C1918 0.950 . S
H1899 C1919 0.950 . S
H1900 C1921 0.950 . S
H1901 C1924 0.950 . S
H1902 C1925 0.950 . S
H1903 C1927 0.950 . S
H1904 C1928 0.950 . S
H1905 C1929 0.951 . S
H1906 C1931 0.951 . S
H1907 C1933 0.950 . S
H1908 C1934 0.950 . S
H1909 C1936 0.950 . S
H1910 C1939 0.950 . S
H1911 C1940 0.950 . S
H1912 C1942 0.950 . S
H1913 C1943 0.950 . S
C1914 H1896 0.951 . S
C1914 C1915 1.366 . S
C1914 C1916 1.388 . S
C1915 C1914 1.366 . S
C1915 C1919 1.385 . S
C1916 H1897 0.951 . S
C1916 C1914 1.388 . S
C1916 C1917 1.366 . S
C1917 C1916 1.366 . S
C1917 C1918 1.414 . S
C1917 C1920 1.499 . S
C1918 H1898 0.950 . S
C1918 C1917 1.414 . S
C1918 C1919 1.374 . S
C1919 H1899 0.950 . S
C1919 C1915 1.385 . S
C1919 C1918 1.374 . S
C1920 C1917 1.499 . S
C1920 C1921 1.373 . S
C1920 C1922 1.389 . S
C1921 H1900 0.950 . S
C1921 C1920 1.373 . S
C1921 C1937 1.377 . S
C1922 C1920 1.389 . S
C1922 C1923 1.524 . S
C1922 C1936 1.377 . S
C1923 C1922 1.524 . S
C1923 C1924 1.397 . S
C1923 C1928 1.363 . S
C1924 H1901 0.950 . S
C1924 C1923 1.397 . S
C1924 C1925 1.334 . S
C1925 H1902 0.950 . S
C1925 C1924 1.334 . S
C1925 C1926 1.287 . S
C1926 C1925 1.287 . S
C1926 C1927 1.524 . S
C1926 H1945 0.913 . S
C1927 H1903 0.950 . S
C1927 C1926 1.524 . S
C1927 C1928 1.415 . S
C1928 H1904 0.950 . S
C1928 C1923 1.363 . S
C1928 C1927 1.415 . S
C1929 H1905 0.951 . S
C1929 C1930 1.366 . S
C1929 C1931 1.388 . S
C1930 C1929 1.366 . S
C1930 C1934 1.385 . S
C1931 H1906 0.951 . S
C1931 C1929 1.388 . S
C1931 C1932 1.366 . S
C1932 C1931 1.366 . S
C1932 C1933 1.414 . S
C1932 C1935 1.499 . S
C1933 H1907 0.950 . S
C1933 C1932 1.414 . S
C1933 C1934 1.374 . S
C1934 H1908 0.950 . S
C1934 C1930 1.385 . S
C1934 C1933 1.374 . S
C1935 C1932 1.499 . S
C1935 C1936 1.373 . S
C1935 C1937 1.389 . S
C1936 H1909 0.950 . S
C1936 C1922 1.377 . S
C1936 C1935 1.373 . S
C1937 C1921 1.377 . S
C1937 C1935 1.389 . S
C1937 C1938 1.524 . S
C1938 C1937 1.524 . S
C1938 C1939 1.397 . S
C1938 C1943 1.363 . S
C1939 H1910 0.950 . S
C1939 C1938 1.397 . S
C1939 C1940 1.334 . S
C1940 H1911 0.950 . S
C1940 C1939 1.334 . S
C1940 C1941 1.287 . S
C1941 C1940 1.287 . S
C1941 C1942 1.524 . S
C1941 H1944 0.999 . S
C1942 H1912 0.950 . S
C1942 C1941 1.524 . S
C1942 C1943 1.415 . S
C1943 H1913 0.950 . S
C1943 C1938 1.363 . S
C1943 C1942 1.415 . S
H1944 C1941 0.999 . S
H1945 C1926 0.913 . S
H1946 C1964 0.951 . S
H1947 C1966 0.951 . S
H1948 C1968 0.950 . S
H1949 C1969 0.950 . S
H1950 C1971 0.950 . S
H1951 C1974 0.950 . S
H1952 C1975 0.950 . S
H1953 C1977 0.950 . S
H1954 C1978 0.950 . S
H1955 C1979 0.951 . S
H1956 C1981 0.951 . S
H1957 C1983 0.950 . S
H1958 C1984 0.950 . S
H1959 C1986 0.950 . S
H1960 C1989 0.950 . S
H1961 C1990 0.950 . S
H1962 C1992 0.950 . S
H1963 C1993 0.950 . S
C1964 H1946 0.951 . S
C1964 C1965 1.366 . S
C1964 C1966 1.388 . S
C1965 C1964 1.366 . S
C1965 C1969 1.385 . S
C1966 H1947 0.951 . S
C1966 C1964 1.388 . S
C1966 C1967 1.366 . S
C1967 C1966 1.366 . S
C1967 C1968 1.414 . S
C1967 C1970 1.499 . S
C1968 H1948 0.950 . S
C1968 C1967 1.414 . S
C1968 C1969 1.374 . S
C1969 H1949 0.950 . S
C1969 C1965 1.385 . S
C1969 C1968 1.374 . S
C1970 C1967 1.499 . S
C1970 C1971 1.373 . S
C1970 C1972 1.389 . S
C1971 H1950 0.950 . S
C1971 C1970 1.373 . S
C1971 C1987 1.377 . S
C1972 C1970 1.389 . S
C1972 C1973 1.524 . S
C1972 C1986 1.377 . S
C1973 C1972 1.524 . S
C1973 C1974 1.397 . S
C1973 C1978 1.363 . S
C1974 H1951 0.950 . S
C1974 C1973 1.397 . S
C1974 C1975 1.334 . S
C1975 H1952 0.950 . S
C1975 C1974 1.334 . S
C1975 C1976 1.287 . S
C1976 C1975 1.287 . S
C1976 C1977 1.524 . S
C1976 H1995 0.913 . S
C1977 H1953 0.950 . S
C1977 C1976 1.524 . S
C1977 C1978 1.415 . S
C1978 H1954 0.950 . S
C1978 C1973 1.363 . S
C1978 C1977 1.415 . S
C1979 H1955 0.951 . S
C1979 C1980 1.366 . S
C1979 C1981 1.388 . S
C1980 C1979 1.366 . S
C1980 C1984 1.385 . S
C1981 H1956 0.951 . S
C1981 C1979 1.388 . S
C1981 C1982 1.366 . S
C1982 C1981 1.366 . S
C1982 C1983 1.414 . S
C1982 C1985 1.499 . S
C1983 H1957 0.950 . S
C1983 C1982 1.414 . S
C1983 C1984 1.374 . S
C1984 H1958 0.950 . S
C1984 C1980 1.385 . S
C1984 C1983 1.374 . S
C1985 C1982 1.499 . S
C1985 C1986 1.373 . S
C1985 C1987 1.389 . S
C1986 H1959 0.950 . S
C1986 C1972 1.377 . S
C1986 C1985 1.373 . S
C1987 C1971 1.377 . S
C1987 C1985 1.389 . S
C1987 C1988 1.524 . S
C1988 C1987 1.524 . S
C1988 C1989 1.397 . S
C1988 C1993 1.363 . S
C1989 H1960 0.950 . S
C1989 C1988 1.397 . S
C1989 C1990 1.334 . S
C1990 H1961 0.950 . S
C1990 C1989 1.334 . S
C1990 C1991 1.287 . S
C1991 C1990 1.287 . S
C1991 C1992 1.524 . S
C1991 H1994 0.999 . S
C1992 H1962 0.950 . S
C1992 C1991 1.524 . S
C1992 C1993 1.415 . S
C1993 H1963 0.950 . S
C1993 C1988 1.363 . S
C1993 C1992 1.415 . S
H1994 C1991 0.999 . S
H1995 C1976 0.913 . S
H1996 C2014 0.951 . S
H1997 C2016 0.951 . S
H1998 C2018 0.950 . S
H1999 C2019 0.950 . S
H2000 C2021 0.950 . S
H2001 C2024 0.950 . S
H2002 C2025 0.950 . S
H2003 C2027 0.950 . S
H2004 C2028 0.950 . S
H2005 C2029 0.951 . S
H2006 C2031 0.951 . S
H2007 C2033 0.950 . S
H2008 C2034 0.950 . S
H2009 C2036 0.950 . S
H2010 C2039 0.950 . S
H2011 C2040 0.950 . S
H2012 C2042 0.950 . S
H2013 C2043 0.950 . S
C2014 H1996 0.951 . S
C2014 C2015 1.366 . S
C2014 C2016 1.388 . S
C2015 C2014 1.366 . S
C2015 C2019 1.385 . S
C2016 H1997 0.951 . S
C2016 C2014 1.388 . S
C2016 C2017 1.366 . S
C2017 C2016 1.366 . S
C2017 C2018 1.414 . S
C2017 C2020 1.499 . S
C2018 H1998 0.950 . S
C2018 C2017 1.414 . S
C2018 C2019 1.374 . S
C2019 H1999 0.950 . S
C2019 C2015 1.385 . S
C2019 C2018 1.374 . S
C2020 C2017 1.499 . S
C2020 C2021 1.373 . S
C2020 C2022 1.389 . S
C2021 H2000 0.950 . S
C2021 C2020 1.373 . S
C2021 C2037 1.377 . S
C2022 C2020 1.389 . S
C2022 C2023 1.524 . S
C2022 C2036 1.377 . S
C2023 C2022 1.524 . S
C2023 C2024 1.397 . S
C2023 C2028 1.363 . S
C2024 H2001 0.950 . S
C2024 C2023 1.397 . S
C2024 C2025 1.334 . S
C2025 H2002 0.950 . S
C2025 C2024 1.334 . S
C2025 C2026 1.287 . S
C2026 C2025 1.287 . S
C2026 C2027 1.524 . S
C2026 H2045 0.913 . S
C2027 H2003 0.950 . S
C2027 C2026 1.524 . S
C2027 C2028 1.415 . S
C2028 H2004 0.950 . S
C2028 C2023 1.363 . S
C2028 C2027 1.415 . S
C2029 H2005 0.951 . S
C2029 C2030 1.366 . S
C2029 C2031 1.388 . S
C2030 C2029 1.366 . S
C2030 C2034 1.385 . S
C2031 H2006 0.951 . S
C2031 C2029 1.388 . S
C2031 C2032 1.366 . S
C2032 C2031 1.366 . S
C2032 C2033 1.414 . S
C2032 C2035 1.499 . S
C2033 H2007 0.950 . S
C2033 C2032 1.414 . S
C2033 C2034 1.374 . S
C2034 H2008 0.950 . S
C2034 C2030 1.385 . S
C2034 C2033 1.374 . S
C2035 C2032 1.499 . S
C2035 C2036 1.373 . S
C2035 C2037 1.389 . S
C2036 H2009 0.950 . S
C2036 C2022 1.377 . S
C2036 C2035 1.373 . S
C2037 C2021 1.377 . S
C2037 C2035 1.389 . S
C2037 C2038 1.524 . S
C2038 C2037 1.524 . S
C2038 C2039 1.397 . S
C2038 C2043 1.363 . S
C2039 H2010 0.950 . S
C2039 C2038 1.397 . S
C2039 C2040 1.334 . S
C2040 H2011 0.950 . S
C2040 C2039 1.334 . S
C2040 C2041 1.287 . S
C2041 C2040 1.287 . S
C2041 C2042 1.524 . S
C2041 H2044 0.999 . S
C2042 H2012 0.950 . S
C2042 C2041 1.524 . S
C2042 C2043 1.415 . S
C2043 H2013 0.950 . S
C2043 C2038 1.363 . S
C2043 C2042 1.415 . S
H2044 C2041 0.999 . S
H2045 C2026 0.913 . S
H2046 C2064 0.951 . S
H2047 C2066 0.951 . S
H2048 C2068 0.950 . S
H2049 C2069 0.950 . S
H2050 C2071 0.950 . S
H2051 C2074 0.950 . S
H2052 C2075 0.950 . S
H2053 C2077 0.950 . S
H2054 C2078 0.950 . S
H2055 C2079 0.951 . S
H2056 C2081 0.951 . S
H2057 C2083 0.950 . S
H2058 C2084 0.950 . S
H2059 C2086 0.950 . S
H2060 C2089 0.950 . S
H2061 C2090 0.950 . S
H2062 C2092 0.950 . S
H2063 C2093 0.950 . S
C2064 H2046 0.951 . S
C2064 C2065 1.366 . S
C2064 C2066 1.388 . S
C2065 C2064 1.366 . S
C2065 C2069 1.385 . S
C2066 H2047 0.951 . S
C2066 C2064 1.388 . S
C2066 C2067 1.366 . S
C2067 C2066 1.366 . S
C2067 C2068 1.414 . S
C2067 C2070 1.499 . S
C2068 H2048 0.950 . S
C2068 C2067 1.414 . S
C2068 C2069 1.374 . S
C2069 H2049 0.950 . S
C2069 C2065 1.385 . S
C2069 C2068 1.374 . S
C2070 C2067 1.499 . S
C2070 C2071 1.373 . S
C2070 C2072 1.389 . S
C2071 H2050 0.950 . S
C2071 C2070 1.373 . S
C2071 C2087 1.377 . S
C2072 C2070 1.389 . S
C2072 C2073 1.524 . S
C2072 C2086 1.377 . S
C2073 C2072 1.524 . S
C2073 C2074 1.397 . S
C2073 C2078 1.363 . S
C2074 H2051 0.950 . S
C2074 C2073 1.397 . S
C2074 C2075 1.334 . S
C2075 H2052 0.950 . S
C2075 C2074 1.334 . S
C2075 C2076 1.287 . S
C2076 C2075 1.287 . S
C2076 C2077 1.524 . S
C2076 H2095 0.913 . S
C2077 H2053 0.950 . S
C2077 C2076 1.524 . S
C2077 C2078 1.415 . S
C2078 H2054 0.950 . S
C2078 C2073 1.363 . S
C2078 C2077 1.415 . S
C2079 H2055 0.951 . S
C2079 C2080 1.366 . S
C2079 C2081 1.388 . S
C2080 C2079 1.366 . S
C2080 C2084 1.385 . S
C2081 H2056 0.951 . S
C2081 C2079 1.388 . S
C2081 C2082 1.366 . S
C2082 C2081 1.366 . S
C2082 C2083 1.414 . S
C2082 C2085 1.499 . S
C2083 H2057 0.950 . S
C2083 C2082 1.414 . S
C2083 C2084 1.374 . S
C2084 H2058 0.950 . S
C2084 C2080 1.385 . S
C2084 C2083 1.374 . S
C2085 C2082 1.499 . S
C2085 C2086 1.373 . S
C2085 C2087 1.389 . S
C2086 H2059 0.950 . S
C2086 C2072 1.377 . S
C2086 C2085 1.373 . S
C2087 C2071 1.377 . S
C2087 C2085 1.389 . S
C2087 C2088 1.524 . S
C2088 C2087 1.524 . S
C2088 C2089 1.397 . S
C2088 C2093 1.363 . S
C2089 H2060 0.950 . S
C2089 C2088 1.397 . S
C2089 C2090 1.334 . S
C2090 H2061 0.950 . S
C2090 C2089 1.334 . S
C2090 C2091 1.287 . S
C2091 C2090 1.287 . S
C2091 C2092 1.524 . S
C2091 H2094 0.999 . S
C2092 H2062 0.950 . S
C2092 C2091 1.524 . S
C2092 C2093 1.415 . S
C2093 H2063 0.950 . S
C2093 C2088 1.363 . S
C2093 C2092 1.415 . S
H2094 C2091 0.999 . S
H2095 C2076 0.913 . S
H2096 C2114 0.951 . S
H2097 C2116 0.951 . S
H2098 C2118 0.950 . S
H2099 C2119 0.950 . S
H2100 C2121 0.950 . S
H2101 C2124 0.950 . S
H2102 C2125 0.950 . S
H2103 C2127 0.950 . S
H2104 C2128 0.950 . S
H2105 C2129 0.951 . S
H2106 C2131 0.951 . S
H2107 C2133 0.950 . S
H2108 C2134 0.950 . S
H2109 C2136 0.950 . S
H2110 C2139 0.950 . S
H2111 C2140 0.950 . S
H2112 C2142 0.950 . S
H2113 C2143 0.950 . S
C2114 H2096 0.951 . S
C2114 C2115 1.366 . S
C2114 C2116 1.388 . S
C2115 C2114 1.366 . S
C2115 C2119 1.385 . S
C2116 H2097 0.951 . S
C2116 C2114 1.388 . S
C2116 C2117 1.366 . S
C2117 C2116 1.366 . S
C2117 C2118 1.414 . S
C2117 C2120 1.499 . S
C2118 H2098 0.950 . S
C2118 C2117 1.414 . S
C2118 C2119 1.374 . S
C2119 H2099 0.950 . S
C2119 C2115 1.385 . S
C2119 C2118 1.374 . S
C2120 C2117 1.499 . S
C2120 C2121 1.373 . S
C2120 C2122 1.389 . S
C2121 H2100 0.950 . S
C2121 C2120 1.373 . S
C2121 C2137 1.377 . S
C2122 C2120 1.389 . S
C2122 C2123 1.524 . S
C2122 C2136 1.377 . S
C2123 C2122 1.524 . S
C2123 C2124 1.397 . S
C2123 C2128 1.363 . S
C2124 H2101 0.950 . S
C2124 C2123 1.397 . S
C2124 C2125 1.334 . S
C2125 H2102 0.950 . S
C2125 C2124 1.334 . S
C2125 C2126 1.287 . S
C2126 C2125 1.287 . S
C2126 C2127 1.524 . S
C2126 H2145 0.913 . S
C2127 H2103 0.950 . S
C2127 C2126 1.524 . S
C2127 C2128 1.415 . S
C2128 H2104 0.950 . S
C2128 C2123 1.363 . S
C2128 C2127 1.415 . S
C2129 H2105 0.951 . S
C2129 C2130 1.366 . S
C2129 C2131 1.388 . S
C2130 C2129 1.366 . S
C2130 C2134 1.385 . S
C2131 H2106 0.951 . S
C2131 C2129 1.388 . S
C2131 C2132 1.366 . S
C2132 C2131 1.366 . S
C2132 C2133 1.414 . S
C2132 C2135 1.499 . S
C2133 H2107 0.950 . S
C2133 C2132 1.414 . S
C2133 C2134 1.374 . S
C2134 H2108 0.950 . S
C2134 C2130 1.385 . S
C2134 C2133 1.374 . S
C2135 C2132 1.499 . S
C2135 C2136 1.373 . S
C2135 C2137 1.389 . S
C2136 H2109 0.950 . S
C2136 C2122 1.377 . S
C2136 C2135 1.373 . S
C2137 C2121 1.377 . S
C2137 C2135 1.389 . S
C2137 C2138 1.524 . S
C2138 C2137 1.524 . S
C2138 C2139 1.397 . S
C2138 C2143 1.363 . S
C2139 H2110 0.950 . S
C2139 C2138 1.397 . S
C2139 C2140 1.334 . S
C2140 H2111 0.950 . S
C2140 C2139 1.334 . S
C2140 C2141 1.287 . S
C2141 C2140 1.287 . S
C2141 C2142 1.524 . S
C2141 H2144 0.999 . S
C2142 H2112 0.950 . S
C2142 C2141 1.524 . S
C2142 C2143 1.415 . S
C2143 H2113 0.950 . S
C2143 C2138 1.363 . S
C2143 C2142 1.415 . S
H2144 C2141 0.999 . S
H2145 C2126 0.913 . S
H2146 C2164 0.951 . S
H2147 C2166 0.951 . S
H2148 C2168 0.950 . S
H2149 C2169 0.950 . S
H2150 C2171 0.950 . S
H2151 C2174 0.950 . S
H2152 C2175 0.950 . S
H2153 C2177 0.950 . S
H2154 C2178 0.950 . S
H2155 C2179 0.951 . S
H2156 C2181 0.951 . S
H2157 C2183 0.950 . S
H2158 C2184 0.950 . S
H2159 C2186 0.950 . S
H2160 C2189 0.950 . S
H2161 C2190 0.950 . S
H2162 C2192 0.950 . S
H2163 C2193 0.950 . S
C2164 H2146 0.951 . S
C2164 C2165 1.366 . S
C2164 C2166 1.388 . S
C2165 C2164 1.366 . S
C2165 C2169 1.385 . S
C2166 H2147 0.951 . S
C2166 C2164 1.388 . S
C2166 C2167 1.366 . S
C2167 C2166 1.366 . S
C2167 C2168 1.414 . S
C2167 C2170 1.499 . S
C2168 H2148 0.950 . S
C2168 C2167 1.414 . S
C2168 C2169 1.374 . S
C2169 H2149 0.950 . S
C2169 C2165 1.385 . S
C2169 C2168 1.374 . S
C2170 C2167 1.499 . S
C2170 C2171 1.373 . S
C2170 C2172 1.389 . S
C2171 H2150 0.950 . S
C2171 C2170 1.373 . S
C2171 C2187 1.377 . S
C2172 C2170 1.389 . S
C2172 C2173 1.524 . S
C2172 C2186 1.377 . S
C2173 C2172 1.524 . S
C2173 C2174 1.397 . S
C2173 C2178 1.363 . S
C2174 H2151 0.950 . S
C2174 C2173 1.397 . S
C2174 C2175 1.334 . S
C2175 H2152 0.950 . S
C2175 C2174 1.334 . S
C2175 C2176 1.287 . S
C2176 C2175 1.287 . S
C2176 C2177 1.524 . S
C2176 H2195 0.913 . S
C2177 H2153 0.950 . S
C2177 C2176 1.524 . S
C2177 C2178 1.415 . S
C2178 H2154 0.950 . S
C2178 C2173 1.363 . S
C2178 C2177 1.415 . S
C2179 H2155 0.951 . S
C2179 C2180 1.366 . S
C2179 C2181 1.388 . S
C2180 C2179 1.366 . S
C2180 C2184 1.385 . S
C2181 H2156 0.951 . S
C2181 C2179 1.388 . S
C2181 C2182 1.366 . S
C2182 C2181 1.366 . S
C2182 C2183 1.414 . S
C2182 C2185 1.499 . S
C2183 H2157 0.950 . S
C2183 C2182 1.414 . S
C2183 C2184 1.374 . S
C2184 H2158 0.950 . S
C2184 C2180 1.385 . S
C2184 C2183 1.374 . S
C2185 C2182 1.499 . S
C2185 C2186 1.373 . S
C2185 C2187 1.389 . S
C2186 H2159 0.950 . S
C2186 C2172 1.377 . S
C2186 C2185 1.373 . S
C2187 C2171 1.377 . S
C2187 C2185 1.389 . S
C2187 C2188 1.524 . S
C2188 C2187 1.524 . S
C2188 C2189 1.397 . S
C2188 C2193 1.363 . S
C2189 H2160 0.950 . S
C2189 C2188 1.397 . S
C2189 C2190 1.334 . S
C2190 H2161 0.950 . S
C2190 C2189 1.334 . S
C2190 C2191 1.287 . S
C2191 C2190 1.287 . S
C2191 C2192 1.524 . S
C2191 H2194 0.999 . S
C2192 H2162 0.950 . S
C2192 C2191 1.524 . S
C2192 C2193 1.415 . S
C2193 H2163 0.950 . S
C2193 C2188 1.363 . S
C2193 C2192 1.415 . S
H2194 C2191 0.999 . S
H2195 C2176 0.913 . S
H2196 C2214 0.951 . S
H2197 C2216 0.951 . S
H2198 C2218 0.950 . S
H2199 C2219 0.950 . S
H2200 C2221 0.950 . S
H2201 C2224 0.950 . S
H2202 C2225 0.950 . S
H2203 C2227 0.950 . S
H2204 C2228 0.950 . S
H2205 C2229 0.951 . S
H2206 C2231 0.951 . S
H2207 C2233 0.950 . S
H2208 C2234 0.950 . S
H2209 C2236 0.950 . S
H2210 C2239 0.950 . S
H2211 C2240 0.950 . S
H2212 C2242 0.950 . S
H2213 C2243 0.950 . S
C2214 H2196 0.951 . S
C2214 C2215 1.366 . S
C2214 C2216 1.388 . S
C2215 C2214 1.366 . S
C2215 C2219 1.385 . S
C2216 H2197 0.951 . S
C2216 C2214 1.388 . S
C2216 C2217 1.366 . S
C2217 C2216 1.366 . S
C2217 C2218 1.414 . S
C2217 C2220 1.499 . S
C2218 H2198 0.950 . S
C2218 C2217 1.414 . S
C2218 C2219 1.374 . S
C2219 H2199 0.950 . S
C2219 C2215 1.385 . S
C2219 C2218 1.374 . S
C2220 C2217 1.499 . S
C2220 C2221 1.373 . S
C2220 C2222 1.389 . S
C2221 H2200 0.950 . S
C2221 C2220 1.373 . S
C2221 C2237 1.377 . S
C2222 C2220 1.389 . S
C2222 C2223 1.524 . S
C2222 C2236 1.377 . S
C2223 C2222 1.524 . S
C2223 C2224 1.397 . S
C2223 C2228 1.363 . S
C2224 H2201 0.950 . S
C2224 C2223 1.397 . S
C2224 C2225 1.334 . S
C2225 H2202 0.950 . S
C2225 C2224 1.334 . S
C2225 C2226 1.287 . S
C2226 C2225 1.287 . S
C2226 C2227 1.524 . S
C2226 H2245 0.913 . S
C2227 H2203 0.950 . S
C2227 C2226 1.524 . S
C2227 C2228 1.415 . S
C2228 H2204 0.950 . S
C2228 C2223 1.363 . S
C2228 C2227 1.415 . S
C2229 H2205 0.951 . S
C2229 C2230 1.366 . S
C2229 C2231 1.388 . S
C2230 C2229 1.366 . S
C2230 C2234 1.385 . S
C2231 H2206 0.951 . S
C2231 C2229 1.388 . S
C2231 C2232 1.366 . S
C2232 C2231 1.366 . S
C2232 C2233 1.414 . S
C2232 C2235 1.499 . S
C2233 H2207 0.950 . S
C2233 C2232 1.414 . S
C2233 C2234 1.374 . S
C2234 H2208 0.950 . S
C2234 C2230 1.385 . S
C2234 C2233 1.374 . S
C2235 C2232 1.499 . S
C2235 C2236 1.373 . S
C2235 C2237 1.389 . S
C2236 H2209 0.950 . S
C2236 C2222 1.377 . S
C2236 C2235 1.373 . S
C2237 C2221 1.377 . S
C2237 C2235 1.389 . S
C2237 C2238 1.524 . S
C2238 C2237 1.524 . S
C2238 C2239 1.397 . S
C2238 C2243 1.363 . S
C2239 H2210 0.950 . S
C2239 C2238 1.397 . S
C2239 C2240 1.334 . S
C2240 H2211 0.950 . S
C2240 C2239 1.334 . S
C2240 C2241 1.287 . S
C2241 C2240 1.287 . S
C2241 C2242 1.524 . S
C2241 H2244 0.999 . S
C2242 H2212 0.950 . S
C2242 C2241 1.524 . S
C2242 C2243 1.415 . S
C2243 H2213 0.950 . S
C2243 C2238 1.363 . S
C2243 C2242 1.415 . S
H2244 C2241 0.999 . S
H2245 C2226 0.913 . S
H2246 C2264 0.951 . S
H2247 C2266 0.951 . S
H2248 C2268 0.950 . S
H2249 C2269 0.950 . S
H2250 C2271 0.950 . S
H2251 C2274 0.950 . S
H2252 C2275 0.950 . S
H2253 C2277 0.950 . S
H2254 C2278 0.950 . S
H2255 C2279 0.951 . S
H2256 C2281 0.951 . S
H2257 C2283 0.950 . S
H2258 C2284 0.950 . S
H2259 C2286 0.950 . S
H2260 C2289 0.950 . S
H2261 C2290 0.950 . S
H2262 C2292 0.950 . S
H2263 C2293 0.950 . S
C2264 H2246 0.951 . S
C2264 C2265 1.366 . S
C2264 C2266 1.388 . S
C2265 C2264 1.366 . S
C2265 C2269 1.385 . S
C2266 H2247 0.951 . S
C2266 C2264 1.388 . S
C2266 C2267 1.366 . S
C2267 C2266 1.366 . S
C2267 C2268 1.414 . S
C2267 C2270 1.499 . S
C2268 H2248 0.950 . S
C2268 C2267 1.414 . S
C2268 C2269 1.374 . S
C2269 H2249 0.950 . S
C2269 C2265 1.385 . S
C2269 C2268 1.374 . S
C2270 C2267 1.499 . S
C2270 C2271 1.373 . S
C2270 C2272 1.389 . S
C2271 H2250 0.950 . S
C2271 C2270 1.373 . S
C2271 C2287 1.377 . S
C2272 C2270 1.389 . S
C2272 C2273 1.524 . S
C2272 C2286 1.377 . S
C2273 C2272 1.524 . S
C2273 C2274 1.397 . S
C2273 C2278 1.363 . S
C2274 H2251 0.950 . S
C2274 C2273 1.397 . S
C2274 C2275 1.334 . S
C2275 H2252 0.950 . S
C2275 C2274 1.334 . S
C2275 C2276 1.287 . S
C2276 C2275 1.287 . S
C2276 C2277 1.524 . S
C2276 H2295 0.913 . S
C2277 H2253 0.950 . S
C2277 C2276 1.524 . S
C2277 C2278 1.415 . S
C2278 H2254 0.950 . S
C2278 C2273 1.363 . S
C2278 C2277 1.415 . S
C2279 H2255 0.951 . S
C2279 C2280 1.366 . S
C2279 C2281 1.388 . S
C2280 C2279 1.366 . S
C2280 C2284 1.385 . S
C2281 H2256 0.951 . S
C2281 C2279 1.388 . S
C2281 C2282 1.366 . S
C2282 C2281 1.366 . S
C2282 C2283 1.414 . S
C2282 C2285 1.499 . S
C2283 H2257 0.950 . S
C2283 C2282 1.414 . S
C2283 C2284 1.374 . S
C2284 H2258 0.950 . S
C2284 C2280 1.385 . S
C2284 C2283 1.374 . S
C2285 C2282 1.499 . S
C2285 C2286 1.373 . S
C2285 C2287 1.389 . S
C2286 H2259 0.950 . S
C2286 C2272 1.377 . S
C2286 C2285 1.373 . S
C2287 C2271 1.377 . S
C2287 C2285 1.389 . S
C2287 C2288 1.524 . S
C2288 C2287 1.524 . S
C2288 C2289 1.397 . S
C2288 C2293 1.363 . S
C2289 H2260 0.950 . S
C2289 C2288 1.397 . S
C2289 C2290 1.334 . S
C2290 H2261 0.950 . S
C2290 C2289 1.334 . S
C2290 C2291 1.287 . S
C2291 C2290 1.287 . S
C2291 C2292 1.524 . S
C2291 H2294 0.999 . S
C2292 H2262 0.950 . S
C2292 C2291 1.524 . S
C2292 C2293 1.415 . S
C2293 H2263 0.950 . S
C2293 C2288 1.363 . S
C2293 C2292 1.415 . S
H2294 C2291 0.999 . S
H2295 C2276 0.913 . S
H2296 C2314 0.951 . S
H2297 C2316 0.951 . S
H2298 C2318 0.950 . S
H2299 C2319 0.950 . S
H2300 C2321 0.950 . S
H2301 C2324 0.950 . S
H2302 C2325 0.950 . S
H2303 C2327 0.950 . S
H2304 C2328 0.950 . S
H2305 C2329 0.951 . S
H2306 C2331 0.951 . S
H2307 C2333 0.950 . S
H2308 C2334 0.950 . S
H2309 C2336 0.950 . S
H2310 C2339 0.950 . S
H2311 C2340 0.950 . S
H2312 C2342 0.950 . S
H2313 C2343 0.950 . S
C2314 H2296 0.951 . S
C2314 C2315 1.366 . S
C2314 C2316 1.388 . S
C2315 C2314 1.366 . S
C2315 C2319 1.385 . S
C2316 H2297 0.951 . S
C2316 C2314 1.388 . S
C2316 C2317 1.366 . S
C2317 C2316 1.366 . S
C2317 C2318 1.414 . S
C2317 C2320 1.499 . S
C2318 H2298 0.950 . S
C2318 C2317 1.414 . S
C2318 C2319 1.374 . S
C2319 H2299 0.950 . S
C2319 C2315 1.385 . S
C2319 C2318 1.374 . S
C2320 C2317 1.499 . S
C2320 C2321 1.373 . S
C2320 C2322 1.389 . S
C2321 H2300 0.950 . S
C2321 C2320 1.373 . S
C2321 C2337 1.377 . S
C2322 C2320 1.389 . S
C2322 C2323 1.524 . S
C2322 C2336 1.377 . S
C2323 C2322 1.524 . S
C2323 C2324 1.397 . S
C2323 C2328 1.363 . S
C2324 H2301 0.950 . S
C2324 C2323 1.397 . S
C2324 C2325 1.334 . S
C2325 H2302 0.950 . S
C2325 C2324 1.334 . S
C2325 C2326 1.287 . S
C2326 C2325 1.287 . S
C2326 C2327 1.524 . S
C2326 H2345 0.913 . S
C2327 H2303 0.950 . S
C2327 C2326 1.524 . S
C2327 C2328 1.415 . S
C2328 H2304 0.950 . S
C2328 C2323 1.363 . S
C2328 C2327 1.415 . S
C2329 H2305 0.951 . S
C2329 C2330 1.366 . S
C2329 C2331 1.388 . S
C2330 C2329 1.366 . S
C2330 C2334 1.385 . S
C2331 H2306 0.951 . S
C2331 C2329 1.388 . S
C2331 C2332 1.366 . S
C2332 C2331 1.366 . S
C2332 C2333 1.414 . S
C2332 C2335 1.499 . S
C2333 H2307 0.950 . S
C2333 C2332 1.414 . S
C2333 C2334 1.374 . S
C2334 H2308 0.950 . S
C2334 C2330 1.385 . S
C2334 C2333 1.374 . S
C2335 C2332 1.499 . S
C2335 C2336 1.373 . S
C2335 C2337 1.389 . S
C2336 H2309 0.950 . S
C2336 C2322 1.377 . S
C2336 C2335 1.373 . S
C2337 C2321 1.377 . S
C2337 C2335 1.389 . S
C2337 C2338 1.524 . S
C2338 C2337 1.524 . S
C2338 C2339 1.397 . S
C2338 C2343 1.363 . S
C2339 H2310 0.950 . S
C2339 C2338 1.397 . S
C2339 C2340 1.334 . S
C2340 H2311 0.950 . S
C2340 C2339 1.334 . S
C2340 C2341 1.287 . S
C2341 C2340 1.287 . S
C2341 C2342 1.524 . S
C2341 H2344 0.999 . S
C2342 H2312 0.950 . S
C2342 C2341 1.524 . S
C2342 C2343 1.415 . S
C2343 H2313 0.950 . S
C2343 C2338 1.363 . S
C2343 C2342 1.415 . S
H2344 C2341 0.999 . S
H2345 C2326 0.913 . S
H2346 C2364 0.951 . S
H2347 C2366 0.951 . S
H2348 C2368 0.950 . S
H2349 C2369 0.950 . S
H2350 C2371 0.950 . S
H2351 C2374 0.950 . S
H2352 C2375 0.950 . S
H2353 C2377 0.950 . S
H2354 C2378 0.950 . S
H2355 C2379 0.951 . S
H2356 C2381 0.951 . S
H2357 C2383 0.950 . S
H2358 C2384 0.950 . S
H2359 C2386 0.950 . S
H2360 C2389 0.950 . S
H2361 C2390 0.950 . S
H2362 C2392 0.950 . S
H2363 C2393 0.950 . S
C2364 H2346 0.951 . S
C2364 C2365 1.366 . S
C2364 C2366 1.388 . S
C2365 C2364 1.366 . S
C2365 C2369 1.385 . S
C2366 H2347 0.951 . S
C2366 C2364 1.388 . S
C2366 C2367 1.366 . S
C2367 C2366 1.366 . S
C2367 C2368 1.414 . S
C2367 C2370 1.499 . S
C2368 H2348 0.950 . S
C2368 C2367 1.414 . S
C2368 C2369 1.374 . S
C2369 H2349 0.950 . S
C2369 C2365 1.385 . S
C2369 C2368 1.374 . S
C2370 C2367 1.499 . S
C2370 C2371 1.373 . S
C2370 C2372 1.389 . S
C2371 H2350 0.950 . S
C2371 C2370 1.373 . S
C2371 C2387 1.377 . S
C2372 C2370 1.389 . S
C2372 C2373 1.524 . S
C2372 C2386 1.377 . S
C2373 C2372 1.524 . S
C2373 C2374 1.397 . S
C2373 C2378 1.363 . S
C2374 H2351 0.950 . S
C2374 C2373 1.397 . S
C2374 C2375 1.334 . S
C2375 H2352 0.950 . S
C2375 C2374 1.334 . S
C2375 C2376 1.287 . S
C2376 C2375 1.287 . S
C2376 C2377 1.524 . S
C2376 H2395 0.913 . S
C2377 H2353 0.950 . S
C2377 C2376 1.524 . S
C2377 C2378 1.415 . S
C2378 H2354 0.950 . S
C2378 C2373 1.363 . S
C2378 C2377 1.415 . S
C2379 H2355 0.951 . S
C2379 C2380 1.366 . S
C2379 C2381 1.388 . S
C2380 C2379 1.366 . S
C2380 C2384 1.385 . S
C2381 H2356 0.951 . S
C2381 C2379 1.388 . S
C2381 C2382 1.366 . S
C2382 C2381 1.366 . S
C2382 C2383 1.414 . S
C2382 C2385 1.499 . S
C2383 H2357 0.950 . S
C2383 C2382 1.414 . S
C2383 C2384 1.374 . S
C2384 H2358 0.950 . S
C2384 C2380 1.385 . S
C2384 C2383 1.374 . S
C2385 C2382 1.499 . S
C2385 C2386 1.373 . S
C2385 C2387 1.389 . S
C2386 H2359 0.950 . S
C2386 C2372 1.377 . S
C2386 C2385 1.373 . S
C2387 C2371 1.377 . S
C2387 C2385 1.389 . S
C2387 C2388 1.524 . S
C2388 C2387 1.524 . S
C2388 C2389 1.397 . S
C2388 C2393 1.363 . S
C2389 H2360 0.950 . S
C2389 C2388 1.397 . S
C2389 C2390 1.334 . S
C2390 H2361 0.950 . S
C2390 C2389 1.334 . S
C2390 C2391 1.287 . S
C2391 C2390 1.287 . S
C2391 C2392 1.524 . S
C2391 H2394 0.999 . S
C2392 H2362 0.950 . S
C2392 C2391 1.524 . S
C2392 C2393 1.415 . S
C2393 H2363 0.950 . S
C2393 C2388 1.363 . S
C2393 C2392 1.415 . S
H2394 C2391 0.999 . S
H2395 C2376 0.913 . S
H2396 C2414 0.951 . S
H2397 C2416 0.951 . S
H2398 C2418 0.950 . S
H2399 C2419 0.950 . S
H2400 C2421 0.950 . S
H2401 C2424 0.950 . S
H2402 C2425 0.950 . S
H2403 C2427 0.950 . S
H2404 C2428 0.950 . S
H2405 C2429 0.951 . S
H2406 C2431 0.951 . S
H2407 C2433 0.950 . S
H2408 C2434 0.950 . S
H2409 C2436 0.950 . S
H2410 C2439 0.950 . S
H2411 C2440 0.950 . S
H2412 C2442 0.950 . S
H2413 C2443 0.950 . S
C2414 H2396 0.951 . S
C2414 C2415 1.366 . S
C2414 C2416 1.388 . S
C2415 C2414 1.366 . S
C2415 C2419 1.385 . S
C2416 H2397 0.951 . S
C2416 C2414 1.388 . S
C2416 C2417 1.366 . S
C2417 C2416 1.366 . S
C2417 C2418 1.414 . S
C2417 C2420 1.499 . S
C2418 H2398 0.950 . S
C2418 C2417 1.414 . S
C2418 C2419 1.374 . S
C2419 H2399 0.950 . S
C2419 C2415 1.385 . S
C2419 C2418 1.374 . S
C2420 C2417 1.499 . S
C2420 C2421 1.373 . S
C2420 C2422 1.389 . S
C2421 H2400 0.950 . S
C2421 C2420 1.373 . S
C2421 C2437 1.377 . S
C2422 C2420 1.389 . S
C2422 C2423 1.524 . S
C2422 C2436 1.377 . S
C2423 C2422 1.524 . S
C2423 C2424 1.397 . S
C2423 C2428 1.363 . S
C2424 H2401 0.950 . S
C2424 C2423 1.397 . S
C2424 C2425 1.334 . S
C2425 H2402 0.950 . S
C2425 C2424 1.334 . S
C2425 C2426 1.287 . S
C2426 C2425 1.287 . S
C2426 C2427 1.524 . S
C2426 H2445 0.913 . S
C2427 H2403 0.950 . S
C2427 C2426 1.524 . S
C2427 C2428 1.415 . S
C2428 H2404 0.950 . S
C2428 C2423 1.363 . S
C2428 C2427 1.415 . S
C2429 H2405 0.951 . S
C2429 C2430 1.366 . S
C2429 C2431 1.388 . S
C2430 C2429 1.366 . S
C2430 C2434 1.385 . S
C2431 H2406 0.951 . S
C2431 C2429 1.388 . S
C2431 C2432 1.366 . S
C2432 C2431 1.366 . S
C2432 C2433 1.414 . S
C2432 C2435 1.499 . S
C2433 H2407 0.950 . S
C2433 C2432 1.414 . S
C2433 C2434 1.374 . S
C2434 H2408 0.950 . S
C2434 C2430 1.385 . S
C2434 C2433 1.374 . S
C2435 C2432 1.499 . S
C2435 C2436 1.373 . S
C2435 C2437 1.389 . S
C2436 H2409 0.950 . S
C2436 C2422 1.377 . S
C2436 C2435 1.373 . S
C2437 C2421 1.377 . S
C2437 C2435 1.389 . S
C2437 C2438 1.524 . S
C2438 C2437 1.524 . S
C2438 C2439 1.397 . S
C2438 C2443 1.363 . S
C2439 H2410 0.950 . S
C2439 C2438 1.397 . S
C2439 C2440 1.334 . S
C2440 H2411 0.950 . S
C2440 C2439 1.334 . S
C2440 C2441 1.287 . S
C2441 C2440 1.287 . S
C2441 C2442 1.524 . S
C2441 H2444 0.999 . S
C2442 H2412 0.950 . S
C2442 C2441 1.524 . S
C2442 C2443 1.415 . S
C2443 H2413 0.950 . S
C2443 C2438 1.363 . S
C2443 C2442 1.415 . S
H2444 C2441 0.999 . S
H2445 C2426 0.913 . S
H2446 C2464 0.951 . S
H2447 C2466 0.951 . S
H2448 C2468 0.950 . S
H2449 C2469 0.950 . S
H2450 C2471 0.950 . S
H2451 C2474 0.950 . S
H2452 C2475 0.950 . S
H2453 C2477 0.950 . S
H2454 C2478 0.950 . S
H2455 C2479 0.951 . S
H2456 C2481 0.951 . S
H2457 C2483 0.950 . S
H2458 C2484 0.950 . S
H2459 C2486 0.950 . S
H2460 C2489 0.950 . S
H2461 C2490 0.950 . S
H2462 C2492 0.950 . S
H2463 C2493 0.950 . S
C2464 H2446 0.951 . S
C2464 C2465 1.366 . S
C2464 C2466 1.388 . S
C2465 C2464 1.366 . S
C2465 C2469 1.385 . S
C2466 H2447 0.951 . S
C2466 C2464 1.388 . S
C2466 C2467 1.366 . S
C2467 C2466 1.366 . S
C2467 C2468 1.414 . S
C2467 C2470 1.499 . S
C2468 H2448 0.950 . S
C2468 C2467 1.414 . S
C2468 C2469 1.374 . S
C2469 H2449 0.950 . S
C2469 C2465 1.385 . S
C2469 C2468 1.374 . S
C2470 C2467 1.499 . S
C2470 C2471 1.373 . S
C2470 C2472 1.389 . S
C2471 H2450 0.950 . S
C2471 C2470 1.373 . S
C2471 C2487 1.377 . S
C2472 C2470 1.389 . S
C2472 C2473 1.524 . S
C2472 C2486 1.377 . S
C2473 C2472 1.524 . S
C2473 C2474 1.397 . S
C2473 C2478 1.363 . S
C2474 H2451 0.950 . S
C2474 C2473 1.397 . S
C2474 C2475 1.334 . S
C2475 H2452 0.950 . S
C2475 C2474 1.334 . S
C2475 C2476 1.287 . S
C2476 C2475 1.287 . S
C2476 C2477 1.524 . S
C2476 H2495 0.913 . S
C2477 H2453 0.950 . S
C2477 C2476 1.524 . S
C2477 C2478 1.415 . S
C2478 H2454 0.950 . S
C2478 C2473 1.363 . S
C2478 C2477 1.415 . S
C2479 H2455 0.951 . S
C2479 C2480 1.366 . S
C2479 C2481 1.388 . S
C2480 C2479 1.366 . S
C2480 C2484 1.385 . S
C2481 H2456 0.951 . S
C2481 C2479 1.388 . S
C2481 C2482 1.366 . S
C2482 C2481 1.366 . S
C2482 C2483 1.414 . S
C2482 C2485 1.499 . S
C2483 H2457 0.950 . S
C2483 C2482 1.414 . S
C2483 C2484 1.374 . S
C2484 H2458 0.950 . S
C2484 C2480 1.385 . S
C2484 C2483 1.374 . S
C2485 C2482 1.499 . S
C2485 C2486 1.373 . S
C2485 C2487 1.389 . S
C2486 H2459 0.950 . S
C2486 C2472 1.377 . S
C2486 C2485 1.373 . S
C2487 C2471 1.377 . S
C2487 C2485 1.389 . S
C2487 C2488 1.524 . S
C2488 C2487 1.524 . S
C2488 C2489 1.397 . S
C2488 C2493 1.363 . S
C2489 H2460 0.950 . S
C2489 C2488 1.397 . S
C2489 C2490 1.334 . S
C2490 H2461 0.950 . S
C2490 C2489 1.334 . S
C2490 C2491 1.287 . S
C2491 C2490 1.287 . S
C2491 C2492 1.524 . S
C2491 H2494 0.999 . S
C2492 H2462 0.950 . S
C2492 C2491 1.524 . S
C2492 C2493 1.415 . S
C2493 H2463 0.950 . S
C2493 C2488 1.363 . S
C2493 C2492 1.415 . S
H2494 C2491 0.999 . S
H2495 C2476 0.913 . S
H2496 C2514 0.951 . S
H2497 C2516 0.951 . S
H2498 C2518 0.950 . S
H2499 C2519 0.950 . S
H2500 C2521 0.950 . S
H2501 C2524 0.950 . S
H2502 C2525 0.950 . S
H2503 C2527 0.950 . S
H2504 C2528 0.950 . S
H2505 C2529 0.951 . S
H2506 C2531 0.951 . S
H2507 C2533 0.950 . S
H2508 C2534 0.950 . S
H2509 C2536 0.950 . S
H2510 C2539 0.950 . S
H2511 C2540 0.950 . S
H2512 C2542 0.950 . S
H2513 C2543 0.950 . S
C2514 H2496 0.951 . S
C2514 C2515 1.366 . S
C2514 C2516 1.388 . S
C2515 C2514 1.366 . S
C2515 C2519 1.385 . S
C2516 H2497 0.951 . S
C2516 C2514 1.388 . S
C2516 C2517 1.366 . S
C2517 C2516 1.366 . S
C2517 C2518 1.414 . S
C2517 C2520 1.499 . S
C2518 H2498 0.950 . S
C2518 C2517 1.414 . S
C2518 C2519 1.374 . S
C2519 H2499 0.950 . S
C2519 C2515 1.385 . S
C2519 C2518 1.374 . S
C2520 C2517 1.499 . S
C2520 C2521 1.373 1_655 S
C2520 C2522 1.389 . S
C2521 H2500 0.950 . S
C2521 C2520 1.373 1_455 S
C2521 C2537 1.377 . S
C2522 C2520 1.389 . S
C2522 C2523 1.524 . S
C2522 C2536 1.377 . S
C2523 C2522 1.524 . S
C2523 C2524 1.397 . S
C2523 C2528 1.363 . S
C2524 H2501 0.950 . S
C2524 C2523 1.397 . S
C2524 C2525 1.334 . S
C2525 H2502 0.950 . S
C2525 C2524 1.334 . S
C2525 C2526 1.287 . S
C2526 C2525 1.287 . S
C2526 C2527 1.524 . S
C2526 H2545 0.913 . S
C2527 H2503 0.950 . S
C2527 C2526 1.524 . S
C2527 C2528 1.415 . S
C2528 H2504 0.950 . S
C2528 C2523 1.363 . S
C2528 C2527 1.415 . S
C2529 H2505 0.951 . S
C2529 C2530 1.366 . S
C2529 C2531 1.388 . S
C2530 C2529 1.366 . S
C2530 C2534 1.385 . S
C2531 H2506 0.951 . S
C2531 C2529 1.388 . S
C2531 C2532 1.366 . S
C2532 C2531 1.366 . S
C2532 C2533 1.414 . S
C2532 C2535 1.499 . S
C2533 H2507 0.950 . S
C2533 C2532 1.414 . S
C2533 C2534 1.374 . S
C2534 H2508 0.950 . S
C2534 C2530 1.385 . S
C2534 C2533 1.374 . S
C2535 C2532 1.499 . S
C2535 C2536 1.373 1_455 S
C2535 C2537 1.389 . S
C2536 H2509 0.950 . S
C2536 C2522 1.377 . S
C2536 C2535 1.373 1_655 S
C2537 C2521 1.377 . S
C2537 C2535 1.389 . S
C2537 C2538 1.524 . S
C2538 C2537 1.524 . S
C2538 C2539 1.397 . S
C2538 C2543 1.363 . S
C2539 H2510 0.950 . S
C2539 C2538 1.397 . S
C2539 C2540 1.334 . S
C2540 H2511 0.950 . S
C2540 C2539 1.334 . S
C2540 C2541 1.287 . S
C2541 C2540 1.287 . S
C2541 C2542 1.524 . S
C2541 H2544 0.999 . S
C2542 H2512 0.950 . S
C2542 C2541 1.524 . S
C2542 C2543 1.415 . S
C2543 H2513 0.950 . S
C2543 C2538 1.363 . S
C2543 C2542 1.415 . S
H2544 C2541 0.999 . S
H2545 C2526 0.913 . S
H2546 C2564 0.951 . S
H2547 C2566 0.951 . S
H2548 C2568 0.950 . S
H2549 C2569 0.950 . S
H2550 C2571 0.950 . S
H2551 C2574 0.950 . S
H2552 C2575 0.950 . S
H2553 C2577 0.950 . S
H2554 C2578 0.950 . S
H2555 C2579 0.951 . S
H2556 C2581 0.951 . S
H2557 C2583 0.950 . S
H2558 C2584 0.950 . S
H2559 C2586 0.950 . S
H2560 C2589 0.950 . S
H2561 C2590 0.950 . S
H2562 C2592 0.950 . S
H2563 C2593 0.950 . S
C2564 H2546 0.951 . S
C2564 C2565 1.366 . S
C2564 C2566 1.388 . S
C2565 C2564 1.366 . S
C2565 C2569 1.385 . S
C2566 H2547 0.951 . S
C2566 C2564 1.388 . S
C2566 C2567 1.366 . S
C2567 C2566 1.366 . S
C2567 C2568 1.414 . S
C2567 C2570 1.499 . S
C2568 H2548 0.950 . S
C2568 C2567 1.414 . S
C2568 C2569 1.374 . S
C2569 H2549 0.950 . S
C2569 C2565 1.385 . S
C2569 C2568 1.374 . S
C2570 C2567 1.499 . S
C2570 C2571 1.373 . S
C2570 C2572 1.389 1_565 S
C2571 H2550 0.950 . S
C2571 C2570 1.373 . S
C2571 C2587 1.377 . S
C2572 C2570 1.389 1_545 S
C2572 C2573 1.524 . S
C2572 C2586 1.377 . S
C2573 C2572 1.524 . S
C2573 C2574 1.397 . S
C2573 C2578 1.363 . S
C2574 H2551 0.950 . S
C2574 C2573 1.397 . S
C2574 C2575 1.334 . S
C2575 H2552 0.950 . S
C2575 C2574 1.334 . S
C2575 C2576 1.287 . S
C2576 C2575 1.287 . S
C2576 C2577 1.524 . S
C2576 H2595 0.913 . S
C2577 H2553 0.950 . S
C2577 C2576 1.524 . S
C2577 C2578 1.415 . S
C2578 H2554 0.950 . S
C2578 C2573 1.363 . S
C2578 C2577 1.415 . S
C2579 H2555 0.951 . S
C2579 C2580 1.366 . S
C2579 C2581 1.388 . S
C2580 C2579 1.366 . S
C2580 C2584 1.385 . S
C2581 H2556 0.951 . S
C2581 C2579 1.388 . S
C2581 C2582 1.366 . S
C2582 C2581 1.366 . S
C2582 C2583 1.414 . S
C2582 C2585 1.499 . S
C2583 H2557 0.950 . S
C2583 C2582 1.414 . S
C2583 C2584 1.374 . S
C2584 H2558 0.950 . S
C2584 C2580 1.385 . S
C2584 C2583 1.374 . S
C2585 C2582 1.499 . S
C2585 C2586 1.373 . S
C2585 C2587 1.389 1_545 S
C2586 H2559 0.950 . S
C2586 C2572 1.377 . S
C2586 C2585 1.373 . S
C2587 C2571 1.377 . S
C2587 C2585 1.389 1_565 S
C2587 C2588 1.524 . S
C2588 C2587 1.524 . S
C2588 C2589 1.397 . S
C2588 C2593 1.363 . S
C2589 H2560 0.950 . S
C2589 C2588 1.397 . S
C2589 C2590 1.334 . S
C2590 H2561 0.950 . S
C2590 C2589 1.334 . S
C2590 C2591 1.287 . S
C2591 C2590 1.287 . S
C2591 C2592 1.524 . S
C2591 H2594 0.999 . S
C2592 H2562 0.950 . S
C2592 C2591 1.524 . S
C2592 C2593 1.415 . S
C2593 H2563 0.950 . S
C2593 C2588 1.363 . S
C2593 C2592 1.415 . S
H2594 C2591 0.999 . S
H2595 C2576 0.913 . S
H2596 C2614 0.951 . S
H2597 C2616 0.951 . S
H2598 C2618 0.950 . S
H2599 C2619 0.950 . S
H2600 C2621 0.950 . S
H2601 C2624 0.950 . S
H2602 C2625 0.950 . S
H2603 C2627 0.950 . S
H2604 C2628 0.950 . S
H2605 C2629 0.951 . S
H2606 C2631 0.951 . S
H2607 C2633 0.950 . S
H2608 C2634 0.950 . S
H2609 C2636 0.950 . S
H2610 C2639 0.950 . S
H2611 C2640 0.950 . S
H2612 C2642 0.950 . S
H2613 C2643 0.950 . S
C2614 H2596 0.951 . S
C2614 C2615 1.366 . S
C2614 C2616 1.388 . S
C2615 C2614 1.366 . S
C2615 C2619 1.385 . S
C2616 H2597 0.951 . S
C2616 C2614 1.388 . S
C2616 C2617 1.366 . S
C2617 C2616 1.366 . S
C2617 C2618 1.414 . S
C2617 C2620 1.499 . S
C2618 H2598 0.950 . S
C2618 C2617 1.414 . S
C2618 C2619 1.374 . S
C2619 H2599 0.950 . S
C2619 C2615 1.385 . S
C2619 C2618 1.374 . S
C2620 C2617 1.499 . S
C2620 C2621 1.372 1_655 S
C2620 C2622 1.389 . S
C2621 H2600 0.950 . S
C2621 C2620 1.372 1_455 S
C2621 C2637 1.378 . S
C2622 C2620 1.389 . S
C2622 C2623 1.524 . S
C2622 C2636 1.378 . S
C2623 C2622 1.524 . S
C2623 C2624 1.397 . S
C2623 C2628 1.363 . S
C2624 H2601 0.950 . S
C2624 C2623 1.397 . S
C2624 C2625 1.334 . S
C2625 H2602 0.950 . S
C2625 C2624 1.334 . S
C2625 C2626 1.287 . S
C2626 C2625 1.287 . S
C2626 C2627 1.524 . S
C2626 H2645 0.913 . S
C2627 H2603 0.950 . S
C2627 C2626 1.524 . S
C2627 C2628 1.415 . S
C2628 H2604 0.950 . S
C2628 C2623 1.363 . S
C2628 C2627 1.415 . S
C2629 H2605 0.951 . S
C2629 C2630 1.366 . S
C2629 C2631 1.388 . S
C2630 C2629 1.366 . S
C2630 C2634 1.385 . S
C2631 H2606 0.951 . S
C2631 C2629 1.388 . S
C2631 C2632 1.366 . S
C2632 C2631 1.366 . S
C2632 C2633 1.414 . S
C2632 C2635 1.499 . S
C2633 H2607 0.950 . S
C2633 C2632 1.414 . S
C2633 C2634 1.374 . S
C2634 H2608 0.950 . S
C2634 C2630 1.385 . S
C2634 C2633 1.374 . S
C2635 C2632 1.499 . S
C2635 C2636 1.372 1_455 S
C2635 C2637 1.389 . S
C2636 H2609 0.950 . S
C2636 C2622 1.378 . S
C2636 C2635 1.372 1_655 S
C2637 C2621 1.378 . S
C2637 C2635 1.389 . S
C2637 C2638 1.524 . S
C2638 C2637 1.524 . S
C2638 C2639 1.397 . S
C2638 C2643 1.363 . S
C2639 H2610 0.950 . S
C2639 C2638 1.397 . S
C2639 C2640 1.334 . S
C2640 H2611 0.950 . S
C2640 C2639 1.334 . S
C2640 C2641 1.287 . S
C2641 C2640 1.287 . S
C2641 C2642 1.524 . S
C2641 H2644 0.999 . S
C2642 H2612 0.950 . S
C2642 C2641 1.524 . S
C2642 C2643 1.415 . S
C2643 H2613 0.950 . S
C2643 C2638 1.363 . S
C2643 C2642 1.415 . S
H2644 C2641 0.999 . S
H2645 C2626 0.913 . S
H2646 C2664 0.951 . S
H2647 C2666 0.951 . S
H2648 C2668 0.950 . S
H2649 C2669 0.950 . S
H2650 C2671 0.950 . S
H2651 C2674 0.950 . S
H2652 C2675 0.950 . S
H2653 C2677 0.950 . S
H2654 C2678 0.950 . S
H2655 C2679 0.951 . S
H2656 C2681 0.951 . S
H2657 C2683 0.950 . S
H2658 C2684 0.950 . S
H2659 C2686 0.950 . S
H2660 C2689 0.950 . S
H2661 C2690 0.950 . S
H2662 C2692 0.950 . S
H2663 C2693 0.950 . S
C2664 H2646 0.951 . S
C2664 C2665 1.366 . S
C2664 C2666 1.388 . S
C2665 C2664 1.366 . S
C2665 C2669 1.385 . S
C2666 H2647 0.951 . S
C2666 C2664 1.388 . S
C2666 C2667 1.366 . S
C2667 C2666 1.366 . S
C2667 C2668 1.414 . S
C2667 C2670 1.499 . S
C2668 H2648 0.950 . S
C2668 C2667 1.414 . S
C2668 C2669 1.374 . S
C2669 H2649 0.950 . S
C2669 C2665 1.385 . S
C2669 C2668 1.374 . S
C2670 C2667 1.499 . S
C2670 C2671 1.373 . S
C2670 C2672 1.389 1_565 S
C2671 H2650 0.950 . S
C2671 C2670 1.373 . S
C2671 C2687 1.377 . S
C2672 C2670 1.389 1_545 S
C2672 C2673 1.524 . S
C2672 C2686 1.377 . S
C2673 C2672 1.524 . S
C2673 C2674 1.397 . S
C2673 C2678 1.363 . S
C2674 H2651 0.950 . S
C2674 C2673 1.397 . S
C2674 C2675 1.334 . S
C2675 H2652 0.950 . S
C2675 C2674 1.334 . S
C2675 C2676 1.287 . S
C2676 C2675 1.287 . S
C2676 C2677 1.524 . S
C2676 H2695 0.913 . S
C2677 H2653 0.950 . S
C2677 C2676 1.524 . S
C2677 C2678 1.415 . S
C2678 H2654 0.950 . S
C2678 C2673 1.363 . S
C2678 C2677 1.415 . S
C2679 H2655 0.951 . S
C2679 C2680 1.366 . S
C2679 C2681 1.388 . S
C2680 C2679 1.366 . S
C2680 C2684 1.385 . S
C2681 H2656 0.951 . S
C2681 C2679 1.388 . S
C2681 C2682 1.366 . S
C2682 C2681 1.366 . S
C2682 C2683 1.414 . S
C2682 C2685 1.499 . S
C2683 H2657 0.950 . S
C2683 C2682 1.414 . S
C2683 C2684 1.374 . S
C2684 H2658 0.950 . S
C2684 C2680 1.385 . S
C2684 C2683 1.374 . S
C2685 C2682 1.499 . S
C2685 C2686 1.373 . S
C2685 C2687 1.389 1_545 S
C2686 H2659 0.950 . S
C2686 C2672 1.377 . S
C2686 C2685 1.373 . S
C2687 C2671 1.377 . S
C2687 C2685 1.389 1_565 S
C2687 C2688 1.524 . S
C2688 C2687 1.524 . S
C2688 C2689 1.397 . S
C2688 C2693 1.363 . S
C2689 H2660 0.950 . S
C2689 C2688 1.397 . S
C2689 C2690 1.334 . S
C2690 H2661 0.950 . S
C2690 C2689 1.334 . S
C2690 C2691 1.287 . S
C2691 C2690 1.287 . S
C2691 C2692 1.524 . S
C2691 H2694 0.999 . S
C2692 H2662 0.950 . S
C2692 C2691 1.524 . S
C2692 C2693 1.415 . S
C2693 H2663 0.950 . S
C2693 C2688 1.363 . S
C2693 C2692 1.415 . S
H2694 C2691 0.999 . S
H2695 C2676 0.913 . S
H2696 C2714 0.951 . S
H2697 C2716 0.951 . S
H2698 C2718 0.950 . S
H2699 C2719 0.950 . S
H2700 C2721 0.950 . S
H2701 C2724 0.950 . S
H2702 C2725 0.950 . S
H2703 C2727 0.950 . S
H2704 C2728 0.950 . S
H2705 C2729 0.951 . S
H2706 C2731 0.951 . S
H2707 C2733 0.950 . S
H2708 C2734 0.950 . S
H2709 C2736 0.950 . S
H2710 C2739 0.950 . S
H2711 C2740 0.950 . S
H2712 C2742 0.950 . S
H2713 C2743 0.950 . S
C2714 H2696 0.951 . S
C2714 C2715 1.366 . S
C2714 C2716 1.388 . S
C2715 C2714 1.366 . S
C2715 C2719 1.385 . S
C2716 H2697 0.951 . S
C2716 C2714 1.388 . S
C2716 C2717 1.366 . S
C2717 C2716 1.366 . S
C2717 C2718 1.414 . S
C2717 C2720 1.499 . S
C2718 H2698 0.950 . S
C2718 C2717 1.414 . S
C2718 C2719 1.374 . S
C2719 H2699 0.950 . S
C2719 C2715 1.385 . S
C2719 C2718 1.374 . S
C2720 C2717 1.499 . S
C2720 C2721 1.373 . S
C2720 C2722 1.389 . S
C2721 H2700 0.950 . S
C2721 C2720 1.373 . S
C2721 C2737 1.377 1_565 S
C2722 C2720 1.389 . S
C2722 C2723 1.524 . S
C2722 C2736 1.377 1_565 S
C2723 C2722 1.524 . S
C2723 C2724 1.397 . S
C2723 C2728 1.363 1_565 S
C2724 H2701 0.950 . S
C2724 C2723 1.397 . S
C2724 C2725 1.334 . S
C2725 H2702 0.950 . S
C2725 C2724 1.334 . S
C2725 C2726 1.287 . S
C2726 C2725 1.287 . S
C2726 C2727 1.524 1_565 S
C2726 H2745 0.913 . S
C2727 H2703 0.950 . S
C2727 C2726 1.524 1_545 S
C2727 C2728 1.415 . S
C2728 H2704 0.950 . S
C2728 C2723 1.363 1_545 S
C2728 C2727 1.415 . S
C2729 H2705 0.951 . S
C2729 C2730 1.366 . S
C2729 C2731 1.388 . S
C2730 C2729 1.366 . S
C2730 C2734 1.385 . S
C2731 H2706 0.951 . S
C2731 C2729 1.388 . S
C2731 C2732 1.366 . S
C2732 C2731 1.366 . S
C2732 C2733 1.414 . S
C2732 C2735 1.499 . S
C2733 H2707 0.950 . S
C2733 C2732 1.414 . S
C2733 C2734 1.374 . S
C2734 H2708 0.950 . S
C2734 C2730 1.385 . S
C2734 C2733 1.374 . S
C2735 C2732 1.499 . S
C2735 C2736 1.373 . S
C2735 C2737 1.389 . S
C2736 H2709 0.950 . S
C2736 C2722 1.377 1_545 S
C2736 C2735 1.373 . S
C2737 C2721 1.377 1_545 S
C2737 C2735 1.389 . S
C2737 C2738 1.524 . S
C2738 C2737 1.524 . S
C2738 C2739 1.397 . S
C2738 C2743 1.363 1_545 S
C2739 H2710 0.950 . S
C2739 C2738 1.397 . S
C2739 C2740 1.334 . S
C2740 H2711 0.950 . S
C2740 C2739 1.334 . S
C2740 C2741 1.287 . S
C2741 C2740 1.287 . S
C2741 C2742 1.524 1_545 S
C2741 H2744 0.999 . S
C2742 H2712 0.950 . S
C2742 C2741 1.524 1_565 S
C2742 C2743 1.415 . S
C2743 H2713 0.950 . S
C2743 C2738 1.363 1_565 S
C2743 C2742 1.415 . S
H2744 C2741 0.999 . S
H2745 C2726 0.913 . S
H2746 C2764 0.951 . S
H2747 C2766 0.951 . S
H2748 C2768 0.950 . S
H2749 C2769 0.950 . S
H2750 C2771 0.950 . S
H2751 C2774 0.950 . S
H2752 C2775 0.950 . S
H2753 C2777 0.950 . S
H2754 C2778 0.950 . S
H2755 C2779 0.951 . S
H2756 C2781 0.951 . S
H2757 C2783 0.950 . S
H2758 C2784 0.950 . S
H2759 C2786 0.950 . S
H2760 C2789 0.950 . S
H2761 C2790 0.950 . S
H2762 C2792 0.950 . S
H2763 C2793 0.950 . S
C2764 H2746 0.951 . S
C2764 C2765 1.366 . S
C2764 C2766 1.388 . S
C2765 C2764 1.366 . S
C2765 C2769 1.385 . S
C2766 H2747 0.951 . S
C2766 C2764 1.388 . S
C2766 C2767 1.366 . S
C2767 C2766 1.366 . S
C2767 C2768 1.414 . S
C2767 C2770 1.499 . S
C2768 H2748 0.950 . S
C2768 C2767 1.414 . S
C2768 C2769 1.374 . S
C2769 H2749 0.950 . S
C2769 C2765 1.385 . S
C2769 C2768 1.374 . S
C2770 C2767 1.499 . S
C2770 C2771 1.373 1_655 S
C2770 C2772 1.389 . S
C2771 H2750 0.950 . S
C2771 C2770 1.373 1_455 S
C2771 C2787 1.377 . S
C2772 C2770 1.389 . S
C2772 C2773 1.524 . S
C2772 C2786 1.377 . S
C2773 C2772 1.524 . S
C2773 C2774 1.397 . S
C2773 C2778 1.363 . S
C2774 H2751 0.950 . S
C2774 C2773 1.397 . S
C2774 C2775 1.334 . S
C2775 H2752 0.950 . S
C2775 C2774 1.334 . S
C2775 C2776 1.287 . S
C2776 C2775 1.287 . S
C2776 C2777 1.524 . S
C2776 H2795 0.913 . S
C2777 H2753 0.950 . S
C2777 C2776 1.524 . S
C2777 C2778 1.415 . S
C2778 H2754 0.950 . S
C2778 C2773 1.363 . S
C2778 C2777 1.415 . S
C2779 H2755 0.951 . S
C2779 C2780 1.366 . S
C2779 C2781 1.388 . S
C2780 C2779 1.366 . S
C2780 C2784 1.385 . S
C2781 H2756 0.951 . S
C2781 C2779 1.388 . S
C2781 C2782 1.366 . S
C2782 C2781 1.366 . S
C2782 C2783 1.414 . S
C2782 C2785 1.499 . S
C2783 H2757 0.950 . S
C2783 C2782 1.414 . S
C2783 C2784 1.374 . S
C2784 H2758 0.950 . S
C2784 C2780 1.385 . S
C2784 C2783 1.374 . S
C2785 C2782 1.499 . S
C2785 C2786 1.373 1_455 S
C2785 C2787 1.389 . S
C2786 H2759 0.950 . S
C2786 C2772 1.377 . S
C2786 C2785 1.373 1_655 S
C2787 C2771 1.377 . S
C2787 C2785 1.389 . S
C2787 C2788 1.524 . S
C2788 C2787 1.524 . S
C2788 C2789 1.397 . S
C2788 C2793 1.363 . S
C2789 H2760 0.950 . S
C2789 C2788 1.397 . S
C2789 C2790 1.334 . S
C2790 H2761 0.950 . S
C2790 C2789 1.334 . S
C2790 C2791 1.287 . S
C2791 C2790 1.287 . S
C2791 C2792 1.524 . S
C2791 H2794 0.999 . S
C2792 H2762 0.950 . S
C2792 C2791 1.524 . S
C2792 C2793 1.415 . S
C2793 H2763 0.950 . S
C2793 C2788 1.363 . S
C2793 C2792 1.415 . S
H2794 C2791 0.999 . S
H2795 C2776 0.913 . S
H2796 C2814 0.951 . S
H2797 C2816 0.951 . S
H2798 C2818 0.950 . S
H2799 C2819 0.950 . S
H2800 C2821 0.950 . S
H2801 C2824 0.950 . S
H2802 C2825 0.950 . S
H2803 C2827 0.950 . S
H2804 C2828 0.950 . S
H2805 C2829 0.951 . S
H2806 C2831 0.951 . S
H2807 C2833 0.950 . S
H2808 C2834 0.950 . S
H2809 C2836 0.950 . S
H2810 C2839 0.950 . S
H2811 C2840 0.950 . S
H2812 C2842 0.950 . S
H2813 C2843 0.950 . S
C2814 H2796 0.951 . S
C2814 C2815 1.366 . S
C2814 C2816 1.388 . S
C2815 C2814 1.366 . S
C2815 C2819 1.385 . S
C2816 H2797 0.951 . S
C2816 C2814 1.388 . S
C2816 C2817 1.366 . S
C2817 C2816 1.366 . S
C2817 C2818 1.414 . S
C2817 C2820 1.499 . S
C2818 H2798 0.950 . S
C2818 C2817 1.414 . S
C2818 C2819 1.374 . S
C2819 H2799 0.950 . S
C2819 C2815 1.385 . S
C2819 C2818 1.374 . S
C2820 C2817 1.499 . S
C2820 C2821 1.373 . S
C2820 C2822 1.389 1_565 S
C2821 H2800 0.950 . S
C2821 C2820 1.373 . S
C2821 C2837 1.377 . S
C2822 C2820 1.389 1_545 S
C2822 C2823 1.524 . S
C2822 C2836 1.377 . S
C2823 C2822 1.524 . S
C2823 C2824 1.397 . S
C2823 C2828 1.363 . S
C2824 H2801 0.950 . S
C2824 C2823 1.397 . S
C2824 C2825 1.334 . S
C2825 H2802 0.950 . S
C2825 C2824 1.334 . S
C2825 C2826 1.287 . S
C2826 C2825 1.287 . S
C2826 C2827 1.524 . S
C2826 H2845 0.913 . S
C2827 H2803 0.950 . S
C2827 C2826 1.524 . S
C2827 C2828 1.415 . S
C2828 H2804 0.950 . S
C2828 C2823 1.363 . S
C2828 C2827 1.415 . S
C2829 H2805 0.951 . S
C2829 C2830 1.366 . S
C2829 C2831 1.388 . S
C2830 C2829 1.366 . S
C2830 C2834 1.385 . S
C2831 H2806 0.951 . S
C2831 C2829 1.388 . S
C2831 C2832 1.366 . S
C2832 C2831 1.366 . S
C2832 C2833 1.414 . S
C2832 C2835 1.499 . S
C2833 H2807 0.950 . S
C2833 C2832 1.414 . S
C2833 C2834 1.374 . S
C2834 H2808 0.950 . S
C2834 C2830 1.385 . S
C2834 C2833 1.374 . S
C2835 C2832 1.499 . S
C2835 C2836 1.373 . S
C2835 C2837 1.389 1_545 S
C2836 H2809 0.950 . S
C2836 C2822 1.377 . S
C2836 C2835 1.373 . S
C2837 C2821 1.377 . S
C2837 C2835 1.389 1_565 S
C2837 C2838 1.524 . S
C2838 C2837 1.524 . S
C2838 C2839 1.397 . S
C2838 C2843 1.363 . S
C2839 H2810 0.950 . S
C2839 C2838 1.397 . S
C2839 C2840 1.334 . S
C2840 H2811 0.950 . S
C2840 C2839 1.334 . S
C2840 C2841 1.287 . S
C2841 C2840 1.287 . S
C2841 C2842 1.524 . S
C2841 H2844 0.999 . S
C2842 H2812 0.950 . S
C2842 C2841 1.524 . S
C2842 C2843 1.415 . S
C2843 H2813 0.950 . S
C2843 C2838 1.363 . S
C2843 C2842 1.415 . S
H2844 C2841 0.999 . S
H2845 C2826 0.913 . S
H2846 C2864 0.951 . S
H2847 C2866 0.951 . S
H2848 C2868 0.950 . S
H2849 C2869 0.950 . S
H2850 C2871 0.950 . S
H2851 C2874 0.950 . S
H2852 C2875 0.950 . S
H2853 C2877 0.950 . S
H2854 C2878 0.950 . S
H2855 C2879 0.951 . S
H2856 C2881 0.951 . S
H2857 C2883 0.950 . S
H2858 C2884 0.950 . S
H2859 C2886 0.950 . S
H2860 C2889 0.950 . S
H2861 C2890 0.950 . S
H2862 C2892 0.950 . S
H2863 C2893 0.950 . S
C2864 H2846 0.951 . S
C2864 C2865 1.366 . S
C2864 C2866 1.388 . S
C2865 C2864 1.366 . S
C2865 C2869 1.385 . S
C2866 H2847 0.951 . S
C2866 C2864 1.388 . S
C2866 C2867 1.366 . S
C2867 C2866 1.366 . S
C2867 C2868 1.414 . S
C2867 C2870 1.499 . S
C2868 H2848 0.950 . S
C2868 C2867 1.414 . S
C2868 C2869 1.374 . S
C2869 H2849 0.950 . S
C2869 C2865 1.385 . S
C2869 C2868 1.374 . S
C2870 C2867 1.499 . S
C2870 C2871 1.373 1_655 S
C2870 C2872 1.389 . S
C2871 H2850 0.950 . S
C2871 C2870 1.373 1_455 S
C2871 C2887 1.377 . S
C2872 C2870 1.389 . S
C2872 C2873 1.524 . S
C2872 C2886 1.377 . S
C2873 C2872 1.524 . S
C2873 C2874 1.397 . S
C2873 C2878 1.363 . S
C2874 H2851 0.950 . S
C2874 C2873 1.397 . S
C2874 C2875 1.334 . S
C2875 H2852 0.950 . S
C2875 C2874 1.334 . S
C2875 C2876 1.287 . S
C2876 C2875 1.287 . S
C2876 C2877 1.524 . S
C2876 H2895 0.913 . S
C2877 H2853 0.950 . S
C2877 C2876 1.524 . S
C2877 C2878 1.415 . S
C2878 H2854 0.950 . S
C2878 C2873 1.363 . S
C2878 C2877 1.415 . S
C2879 H2855 0.951 . S
C2879 C2880 1.366 . S
C2879 C2881 1.388 . S
C2880 C2879 1.366 . S
C2880 C2884 1.385 . S
C2881 H2856 0.951 . S
C2881 C2879 1.388 . S
C2881 C2882 1.366 . S
C2882 C2881 1.366 . S
C2882 C2883 1.414 . S
C2882 C2885 1.499 . S
C2883 H2857 0.950 . S
C2883 C2882 1.414 . S
C2883 C2884 1.374 . S
C2884 H2858 0.950 . S
C2884 C2880 1.385 . S
C2884 C2883 1.374 . S
C2885 C2882 1.499 . S
C2885 C2886 1.373 1_455 S
C2885 C2887 1.389 . S
C2886 H2859 0.950 . S
C2886 C2872 1.377 . S
C2886 C2885 1.373 1_655 S
C2887 C2871 1.377 . S
C2887 C2885 1.389 . S
C2887 C2888 1.524 . S
C2888 C2887 1.524 . S
C2888 C2889 1.397 . S
C2888 C2893 1.363 . S
C2889 H2860 0.950 . S
C2889 C2888 1.397 . S
C2889 C2890 1.334 . S
C2890 H2861 0.950 . S
C2890 C2889 1.334 . S
C2890 C2891 1.287 . S
C2891 C2890 1.287 . S
C2891 C2892 1.524 . S
C2891 H2894 0.999 . S
C2892 H2862 0.950 . S
C2892 C2891 1.524 . S
C2892 C2893 1.415 . S
C2893 H2863 0.950 . S
C2893 C2888 1.363 . S
C2893 C2892 1.415 . S
H2894 C2891 0.999 . S
H2895 C2876 0.913 . S
H2896 C2914 0.951 . S
H2897 C2916 0.951 . S
H2898 C2918 0.950 . S
H2899 C2919 0.950 . S
H2900 C2921 0.950 . S
H2901 C2924 0.950 . S
H2902 C2925 0.950 . S
H2903 C2927 0.950 . S
H2904 C2928 0.950 . S
H2905 C2929 0.951 . S
H2906 C2931 0.951 . S
H2907 C2933 0.950 . S
H2908 C2934 0.950 . S
H2909 C2936 0.950 . S
H2910 C2939 0.950 . S
H2911 C2940 0.950 . S
H2912 C2942 0.950 . S
H2913 C2943 0.950 . S
C2914 H2896 0.951 . S
C2914 C2915 1.366 . S
C2914 C2916 1.388 . S
C2915 C2914 1.366 . S
C2915 C2919 1.385 . S
C2916 H2897 0.951 . S
C2916 C2914 1.388 . S
C2916 C2917 1.366 . S
C2917 C2916 1.366 . S
C2917 C2918 1.414 . S
C2917 C2920 1.499 . S
C2918 H2898 0.950 . S
C2918 C2917 1.414 . S
C2918 C2919 1.374 . S
C2919 H2899 0.950 . S
C2919 C2915 1.385 . S
C2919 C2918 1.374 . S
C2920 C2917 1.499 . S
C2920 C2921 1.373 1_556 S
C2920 C2922 1.389 . S
C2921 H2900 0.950 . S
C2921 C2920 1.373 1_554 S
C2921 C2937 1.377 . S
C2922 C2920 1.389 . S
C2922 C2923 1.524 . S
C2922 C2936 1.377 . S
C2923 C2922 1.524 . S
C2923 C2924 1.397 . S
C2923 C2928 1.363 . S
C2924 H2901 0.950 . S
C2924 C2923 1.397 . S
C2924 C2925 1.334 . S
C2925 H2902 0.950 . S
C2925 C2924 1.334 . S
C2925 C2926 1.287 . S
C2926 C2925 1.287 . S
C2926 C2927 1.524 . S
C2926 H2945 0.913 . S
C2927 H2903 0.950 . S
C2927 C2926 1.524 . S
C2927 C2928 1.415 . S
C2928 H2904 0.950 . S
C2928 C2923 1.363 . S
C2928 C2927 1.415 . S
C2929 H2905 0.951 . S
C2929 C2930 1.366 . S
C2929 C2931 1.388 . S
C2930 C2929 1.366 . S
C2930 C2934 1.385 . S
C2931 H2906 0.951 . S
C2931 C2929 1.388 . S
C2931 C2932 1.366 . S
C2932 C2931 1.366 . S
C2932 C2933 1.414 . S
C2932 C2935 1.499 . S
C2933 H2907 0.950 . S
C2933 C2932 1.414 . S
C2933 C2934 1.374 . S
C2934 H2908 0.950 . S
C2934 C2930 1.385 . S
C2934 C2933 1.374 . S
C2935 C2932 1.499 . S
C2935 C2936 1.373 1_554 S
C2935 C2937 1.389 . S
C2936 H2909 0.950 . S
C2936 C2922 1.377 . S
C2936 C2935 1.373 1_556 S
C2937 C2921 1.377 . S
C2937 C2935 1.389 . S
C2937 C2938 1.524 . S
C2938 C2937 1.524 . S
C2938 C2939 1.397 . S
C2938 C2943 1.363 . S
C2939 H2910 0.950 . S
C2939 C2938 1.397 . S
C2939 C2940 1.334 . S
C2940 H2911 0.950 . S
C2940 C2939 1.334 . S
C2940 C2941 1.287 . S
C2941 C2940 1.287 . S
C2941 C2942 1.524 . S
C2941 H2944 0.999 . S
C2942 H2912 0.950 . S
C2942 C2941 1.524 . S
C2942 C2943 1.415 . S
C2943 H2913 0.950 . S
C2943 C2938 1.363 . S
C2943 C2942 1.415 . S
H2944 C2941 0.999 . S
H2945 C2926 0.913 . S
H2946 C2964 0.951 . S
H2947 C2966 0.951 . S
H2948 C2968 0.950 . S
H2949 C2969 0.950 . S
H2950 C2971 0.950 . S
H2951 C2974 0.950 . S
H2952 C2975 0.950 . S
H2953 C2977 0.950 . S
H2954 C2978 0.950 . S
H2955 C2979 0.951 . S
H2956 C2981 0.951 . S
H2957 C2983 0.950 . S
H2958 C2984 0.950 . S
H2959 C2986 0.950 . S
H2960 C2989 0.950 . S
H2961 C2990 0.950 . S
H2962 C2992 0.950 . S
H2963 C2993 0.950 . S
C2964 H2946 0.951 . S
C2964 C2965 1.366 . S
C2964 C2966 1.388 . S
C2965 C2964 1.366 . S
C2965 C2969 1.385 . S
C2966 H2947 0.951 . S
C2966 C2964 1.388 . S
C2966 C2967 1.366 . S
C2967 C2966 1.366 . S
C2967 C2968 1.414 . S
C2967 C2970 1.499 . S
C2968 H2948 0.950 . S
C2968 C2967 1.414 . S
C2968 C2969 1.374 . S
C2969 H2949 0.950 . S
C2969 C2965 1.385 . S
C2969 C2968 1.374 . S
C2970 C2967 1.499 . S
C2970 C2971 1.373 . S
C2970 C2972 1.389 1_556 S
C2971 H2950 0.950 . S
C2971 C2970 1.373 . S
C2971 C2987 1.377 . S
C2972 C2970 1.389 1_554 S
C2972 C2973 1.524 . S
C2972 C2986 1.377 . S
C2973 C2972 1.524 . S
C2973 C2974 1.397 1_554 S
C2973 C2978 1.363 . S
C2974 H2951 0.950 . S
C2974 C2973 1.397 1_556 S
C2974 C2975 1.334 . S
C2975 H2952 0.950 . S
C2975 C2974 1.334 . S
C2975 C2976 1.287 1_556 S
C2976 C2975 1.287 1_554 S
C2976 C2977 1.524 . S
C2976 H2995 0.913 . S
C2977 H2953 0.950 . S
C2977 C2976 1.524 . S
C2977 C2978 1.415 . S
C2978 H2954 0.950 . S
C2978 C2973 1.363 . S
C2978 C2977 1.415 . S
C2979 H2955 0.951 . S
C2979 C2980 1.366 . S
C2979 C2981 1.388 . S
C2980 C2979 1.366 . S
C2980 C2984 1.385 . S
C2981 H2956 0.951 . S
C2981 C2979 1.388 . S
C2981 C2982 1.366 . S
C2982 C2981 1.366 . S
C2982 C2983 1.414 . S
C2982 C2985 1.499 . S
C2983 H2957 0.950 . S
C2983 C2982 1.414 . S
C2983 C2984 1.374 . S
C2984 H2958 0.950 . S
C2984 C2980 1.385 . S
C2984 C2983 1.374 . S
C2985 C2982 1.499 . S
C2985 C2986 1.373 . S
C2985 C2987 1.389 1_554 S
C2986 H2959 0.950 . S
C2986 C2972 1.377 . S
C2986 C2985 1.373 . S
C2987 C2971 1.377 . S
C2987 C2985 1.389 1_556 S
C2987 C2988 1.524 . S
C2988 C2987 1.524 . S
C2988 C2989 1.397 1_556 S
C2988 C2993 1.363 . S
C2989 H2960 0.950 . S
C2989 C2988 1.397 1_554 S
C2989 C2990 1.334 . S
C2990 H2961 0.950 . S
C2990 C2989 1.334 . S
C2990 C2991 1.287 1_554 S
C2991 C2990 1.287 1_556 S
C2991 C2992 1.524 . S
C2991 H2994 0.999 . S
C2992 H2962 0.950 . S
C2992 C2991 1.524 . S
C2992 C2993 1.415 . S
C2993 H2963 0.950 . S
C2993 C2988 1.363 . S
C2993 C2992 1.415 . S
H2994 C2991 0.999 . S
H2995 C2976 0.913 . S
H2996 C3014 0.951 . S
H2997 C3016 0.951 . S
H2998 C3018 0.950 . S
H2999 C3019 0.950 . S
H3000 C3021 0.950 . S
H3001 C3024 0.950 . S
H3002 C3025 0.950 . S
H3003 C3027 0.950 . S
H3004 C3028 0.950 . S
H3005 C3029 0.951 . S
H3006 C3031 0.951 . S
H3007 C3033 0.950 . S
H3008 C3034 0.950 . S
H3009 C3036 0.950 . S
H3010 C3039 0.950 . S
H3011 C3040 0.950 . S
H3012 C3042 0.950 . S
H3013 C3043 0.950 . S
C3014 H2996 0.951 . S
C3014 C3015 1.366 . S
C3014 C3016 1.388 . S
C3015 C3014 1.366 . S
C3015 C3019 1.385 . S
C3016 H2997 0.951 . S
C3016 C3014 1.388 . S
C3016 C3017 1.366 . S
C3017 C3016 1.366 . S
C3017 C3018 1.414 . S
C3017 C3020 1.499 . S
C3018 H2998 0.950 . S
C3018 C3017 1.414 . S
C3018 C3019 1.374 . S
C3019 H2999 0.950 . S
C3019 C3015 1.385 . S
C3019 C3018 1.374 . S
C3020 C3017 1.499 . S
C3020 C3021 1.373 1_556 S
C3020 C3022 1.389 . S
C3021 H3000 0.950 . S
C3021 C3020 1.373 1_554 S
C3021 C3037 1.377 . S
C3022 C3020 1.389 . S
C3022 C3023 1.524 . S
C3022 C3036 1.377 . S
C3023 C3022 1.524 . S
C3023 C3024 1.397 . S
C3023 C3028 1.363 . S
C3024 H3001 0.950 . S
C3024 C3023 1.397 . S
C3024 C3025 1.334 . S
C3025 H3002 0.950 . S
C3025 C3024 1.334 . S
C3025 C3026 1.287 . S
C3026 C3025 1.287 . S
C3026 C3027 1.524 . S
C3026 H3045 0.913 . S
C3027 H3003 0.950 . S
C3027 C3026 1.524 . S
C3027 C3028 1.415 . S
C3028 H3004 0.950 . S
C3028 C3023 1.363 . S
C3028 C3027 1.415 . S
C3029 H3005 0.951 . S
C3029 C3030 1.366 . S
C3029 C3031 1.388 . S
C3030 C3029 1.366 . S
C3030 C3034 1.385 . S
C3031 H3006 0.951 . S
C3031 C3029 1.388 . S
C3031 C3032 1.366 . S
C3032 C3031 1.366 . S
C3032 C3033 1.414 . S
C3032 C3035 1.499 . S
C3033 H3007 0.950 . S
C3033 C3032 1.414 . S
C3033 C3034 1.374 . S
C3034 H3008 0.950 . S
C3034 C3030 1.385 . S
C3034 C3033 1.374 . S
C3035 C3032 1.499 . S
C3035 C3036 1.373 1_554 S
C3035 C3037 1.389 . S
C3036 H3009 0.950 . S
C3036 C3022 1.377 . S
C3036 C3035 1.373 1_556 S
C3037 C3021 1.377 . S
C3037 C3035 1.389 . S
C3037 C3038 1.524 . S
C3038 C3037 1.524 . S
C3038 C3039 1.397 . S
C3038 C3043 1.363 . S
C3039 H3010 0.950 . S
C3039 C3038 1.397 . S
C3039 C3040 1.334 . S
C3040 H3011 0.950 . S
C3040 C3039 1.334 . S
C3040 C3041 1.287 . S
C3041 C3040 1.287 . S
C3041 C3042 1.524 . S
C3041 H3044 0.999 . S
C3042 H3012 0.950 . S
C3042 C3041 1.524 . S
C3042 C3043 1.415 . S
C3043 H3013 0.950 . S
C3043 C3038 1.363 . S
C3043 C3042 1.415 . S
H3044 C3041 0.999 . S
H3045 C3026 0.913 . S
H3046 C3064 0.951 . S
H3047 C3066 0.951 . S
H3048 C3068 0.950 . S
H3049 C3069 0.950 . S
H3050 C3071 0.950 . S
H3051 C3074 0.949 . S
H3052 C3075 0.950 . S
H3053 C3077 0.950 . S
H3054 C3078 0.950 . S
H3055 C3079 0.951 . S
H3056 C3081 0.951 . S
H3057 C3083 0.950 . S
H3058 C3084 0.950 . S
H3059 C3086 0.950 . S
H3060 C3089 0.949 . S
H3061 C3090 0.950 . S
H3062 C3092 0.950 . S
H3063 C3093 0.950 . S
C3064 H3046 0.951 . S
C3064 C3065 1.366 . S
C3064 C3066 1.388 . S
C3065 C3064 1.366 . S
C3065 C3069 1.385 . S
C3066 H3047 0.951 . S
C3066 C3064 1.388 . S
C3066 C3067 1.366 . S
C3067 C3066 1.366 . S
C3067 C3068 1.414 . S
C3067 C3070 1.499 . S
C3068 H3048 0.950 . S
C3068 C3067 1.414 . S
C3068 C3069 1.374 . S
C3069 H3049 0.950 . S
C3069 C3065 1.385 . S
C3069 C3068 1.374 . S
C3070 C3067 1.499 . S
C3070 C3071 1.373 . S
C3070 C3072 1.389 . S
C3071 H3050 0.950 . S
C3071 C3070 1.373 . S
C3071 C3087 1.377 1_556 S
C3072 C3070 1.389 . S
C3072 C3073 1.524 . S
C3072 C3086 1.377 1_556 S
C3073 C3072 1.524 . S
C3073 C3074 1.397 . S
C3073 C3078 1.363 . S
C3074 H3051 0.949 . S
C3074 C3073 1.397 . S
C3074 C3075 1.334 . S
C3075 H3052 0.950 . S
C3075 C3074 1.334 . S
C3075 C3076 1.287 . S
C3076 C3075 1.287 . S
C3076 C3077 1.524 . S
C3076 H3095 0.913 . S
C3077 H3053 0.950 . S
C3077 C3076 1.524 . S
C3077 C3078 1.415 . S
C3078 H3054 0.950 . S
C3078 C3073 1.363 . S
C3078 C3077 1.415 . S
C3079 H3055 0.951 . S
C3079 C3080 1.366 . S
C3079 C3081 1.388 . S
C3080 C3079 1.366 . S
C3080 C3084 1.385 . S
C3081 H3056 0.951 . S
C3081 C3079 1.388 . S
C3081 C3082 1.366 . S
C3082 C3081 1.366 . S
C3082 C3083 1.414 . S
C3082 C3085 1.499 . S
C3083 H3057 0.950 . S
C3083 C3082 1.414 . S
C3083 C3084 1.374 . S
C3084 H3058 0.950 . S
C3084 C3080 1.385 . S
C3084 C3083 1.374 . S
C3085 C3082 1.499 . S
C3085 C3086 1.373 . S
C3085 C3087 1.389 . S
C3086 H3059 0.950 . S
C3086 C3072 1.377 1_554 S
C3086 C3085 1.373 . S
C3087 C3071 1.377 1_554 S
C3087 C3085 1.389 . S
C3087 C3088 1.524 . S
C3088 C3087 1.524 . S
C3088 C3089 1.397 . S
C3088 C3093 1.363 . S
C3089 H3060 0.949 . S
C3089 C3088 1.397 . S
C3089 C3090 1.334 . S
C3090 H3061 0.950 . S
C3090 C3089 1.334 . S
C3090 C3091 1.287 . S
C3091 C3090 1.287 . S
C3091 C3092 1.524 . S
C3091 H3094 0.999 . S
C3092 H3062 0.950 . S
C3092 C3091 1.524 . S
C3092 C3093 1.415 . S
C3093 H3063 0.950 . S
C3093 C3088 1.363 . S
C3093 C3092 1.415 . S
H3094 C3091 0.999 . S
H3095 C3076 0.913 . S
H3096 C3114 0.951 . S
H3097 C3116 0.951 . S
H3098 C3118 0.950 . S
H3099 C3119 0.950 . S
H3100 C3121 0.950 . S
H3101 C3124 0.950 . S
H3102 C3125 0.950 . S
H3103 C3127 0.950 . S
H3104 C3128 0.950 . S
H3105 C3129 0.951 . S
H3106 C3131 0.951 . S
H3107 C3133 0.950 . S
H3108 C3134 0.950 . S
H3109 C3136 0.950 . S
H3110 C3139 0.950 . S
H3111 C3140 0.950 . S
H3112 C3142 0.950 . S
H3113 C3143 0.950 . S
C3114 H3096 0.951 . S
C3114 C3115 1.366 . S
C3114 C3116 1.388 . S
C3115 C3114 1.366 . S
C3115 C3119 1.385 . S
C3116 H3097 0.951 . S
C3116 C3114 1.388 . S
C3116 C3117 1.366 . S
C3117 C3116 1.366 . S
C3117 C3118 1.414 . S
C3117 C3120 1.499 . S
C3118 H3098 0.950 . S
C3118 C3117 1.414 . S
C3118 C3119 1.374 . S
C3119 H3099 0.950 . S
C3119 C3115 1.385 . S
C3119 C3118 1.374 . S
C3120 C3117 1.499 . S
C3120 C3121 1.373 . S
C3120 C3122 1.389 . S
C3121 H3100 0.950 . S
C3121 C3120 1.373 . S
C3121 C3137 1.377 . S
C3122 C3120 1.389 . S
C3122 C3123 1.524 . S
C3122 C3136 1.377 . S
C3123 C3122 1.524 . S
C3123 C3124 1.397 . S
C3123 C3128 1.363 . S
C3124 H3101 0.950 . S
C3124 C3123 1.397 . S
C3124 C3125 1.334 . S
C3125 H3102 0.950 . S
C3125 C3124 1.334 . S
C3125 C3126 1.287 . S
C3126 C3125 1.287 . S
C3126 C3127 1.524 . S
C3126 H3145 0.913 . S
C3127 H3103 0.950 . S
C3127 C3126 1.524 . S
C3127 C3128 1.415 . S
C3128 H3104 0.950 . S
C3128 C3123 1.363 . S
C3128 C3127 1.415 . S
C3129 H3105 0.951 . S
C3129 C3130 1.366 . S
C3129 C3131 1.388 . S
C3130 C3129 1.366 . S
C3130 C3134 1.385 . S
C3131 H3106 0.951 . S
C3131 C3129 1.388 . S
C3131 C3132 1.366 . S
C3132 C3131 1.366 . S
C3132 C3133 1.414 . S
C3132 C3135 1.499 . S
C3133 H3107 0.950 . S
C3133 C3132 1.414 . S
C3133 C3134 1.374 . S
C3134 H3108 0.950 . S
C3134 C3130 1.385 . S
C3134 C3133 1.374 . S
C3135 C3132 1.499 . S
C3135 C3136 1.373 . S
C3135 C3137 1.389 . S
C3136 H3109 0.950 . S
C3136 C3122 1.377 . S
C3136 C3135 1.373 . S
C3137 C3121 1.377 . S
C3137 C3135 1.389 . S
C3137 C3138 1.524 . S
C3138 C3137 1.524 . S
C3138 C3139 1.397 . S
C3138 C3143 1.363 . S
C3139 H3110 0.950 . S
C3139 C3138 1.397 . S
C3139 C3140 1.334 . S
C3140 H3111 0.950 . S
C3140 C3139 1.334 . S
C3140 C3141 1.287 . S
C3141 C3140 1.287 . S
C3141 C3142 1.524 . S
C3141 H3144 0.999 . S
C3142 H3112 0.950 . S
C3142 C3141 1.524 . S
C3142 C3143 1.415 . S
C3143 H3113 0.950 . S
C3143 C3138 1.363 . S
C3143 C3142 1.415 . S
H3144 C3141 0.999 . S
H3145 C3126 0.913 . S
H3146 C3164 0.951 . S
H3147 C3166 0.951 . S
H3148 C3168 0.950 . S
H3149 C3169 0.950 . S
H3150 C3171 0.950 . S
H3151 C3174 0.950 . S
H3152 C3175 0.950 . S
H3153 C3177 0.950 . S
H3154 C3178 0.950 . S
H3155 C3179 0.951 . S
H3156 C3181 0.951 . S
H3157 C3183 0.950 . S
H3158 C3184 0.950 . S
H3159 C3186 0.950 . S
H3160 C3189 0.950 . S
H3161 C3190 0.950 . S
H3162 C3192 0.950 . S
H3163 C3193 0.950 . S
C3164 H3146 0.951 . S
C3164 C3165 1.366 . S
C3164 C3166 1.388 . S
C3165 C3164 1.366 . S
C3165 C3169 1.385 . S
C3166 H3147 0.951 . S
C3166 C3164 1.388 . S
C3166 C3167 1.366 . S
C3167 C3166 1.366 . S
C3167 C3168 1.414 . S
C3167 C3170 1.499 . S
C3168 H3148 0.950 . S
C3168 C3167 1.414 . S
C3168 C3169 1.374 . S
C3169 H3149 0.950 . S
C3169 C3165 1.385 . S
C3169 C3168 1.374 . S
C3170 C3167 1.499 . S
C3170 C3171 1.373 . S
C3170 C3172 1.389 . S
C3171 H3150 0.950 . S
C3171 C3170 1.373 . S
C3171 C3187 1.377 . S
C3172 C3170 1.389 . S
C3172 C3173 1.524 . S
C3172 C3186 1.377 . S
C3173 C3172 1.524 . S
C3173 C3174 1.397 . S
C3173 C3178 1.363 . S
C3174 H3151 0.950 . S
C3174 C3173 1.397 . S
C3174 C3175 1.334 . S
C3175 H3152 0.950 . S
C3175 C3174 1.334 . S
C3175 C3176 1.287 . S
C3176 C3175 1.287 . S
C3176 C3177 1.524 . S
C3176 H3195 0.913 . S
C3177 H3153 0.950 . S
C3177 C3176 1.524 . S
C3177 C3178 1.415 . S
C3178 H3154 0.950 . S
C3178 C3173 1.363 . S
C3178 C3177 1.415 . S
C3179 H3155 0.951 . S
C3179 C3180 1.366 . S
C3179 C3181 1.388 . S
C3180 C3179 1.366 . S
C3180 C3184 1.385 . S
C3181 H3156 0.951 . S
C3181 C3179 1.388 . S
C3181 C3182 1.366 . S
C3182 C3181 1.366 . S
C3182 C3183 1.414 . S
C3182 C3185 1.499 . S
C3183 H3157 0.950 . S
C3183 C3182 1.414 . S
C3183 C3184 1.374 . S
C3184 H3158 0.950 . S
C3184 C3180 1.385 . S
C3184 C3183 1.374 . S
C3185 C3182 1.499 . S
C3185 C3186 1.373 . S
C3185 C3187 1.389 . S
C3186 H3159 0.950 . S
C3186 C3172 1.377 . S
C3186 C3185 1.373 . S
C3187 C3171 1.377 . S
C3187 C3185 1.389 . S
C3187 C3188 1.524 . S
C3188 C3187 1.524 . S
C3188 C3189 1.397 . S
C3188 C3193 1.363 . S
C3189 H3160 0.950 . S
C3189 C3188 1.397 . S
C3189 C3190 1.334 . S
C3190 H3161 0.950 . S
C3190 C3189 1.334 . S
C3190 C3191 1.287 . S
C3191 C3190 1.287 . S
C3191 C3192 1.524 . S
C3191 H3194 0.999 . S
C3192 H3162 0.950 . S
C3192 C3191 1.524 . S
C3192 C3193 1.415 . S
C3193 H3163 0.950 . S
C3193 C3188 1.363 . S
C3193 C3192 1.415 . S
H3194 C3191 0.999 . S
H3195 C3176 0.913 . S
H3196 C3214 0.951 . S
H3197 C3216 0.951 . S
H3198 C3218 0.950 . S
H3199 C3219 0.950 . S
H3200 C3221 0.950 . S
H3201 C3224 0.950 . S
H3202 C3225 0.950 . S
H3203 C3227 0.950 . S
H3204 C3228 0.950 . S
H3205 C3229 0.951 . S
H3206 C3231 0.951 . S
H3207 C3233 0.950 . S
H3208 C3234 0.950 . S
H3209 C3236 0.950 . S
H3210 C3239 0.950 . S
H3211 C3240 0.950 . S
H3212 C3242 0.950 . S
H3213 C3243 0.950 . S
C3214 H3196 0.951 . S
C3214 C3215 1.366 . S
C3214 C3216 1.388 . S
C3215 C3214 1.366 . S
C3215 C3219 1.385 . S
C3216 H3197 0.951 . S
C3216 C3214 1.388 . S
C3216 C3217 1.366 . S
C3217 C3216 1.366 . S
C3217 C3218 1.414 . S
C3217 C3220 1.499 . S
C3218 H3198 0.950 . S
C3218 C3217 1.414 . S
C3218 C3219 1.374 . S
C3219 H3199 0.950 . S
C3219 C3215 1.385 . S
C3219 C3218 1.374 . S
C3220 C3217 1.499 . S
C3220 C3221 1.373 . S
C3220 C3222 1.389 . S
C3221 H3200 0.950 . S
C3221 C3220 1.373 . S
C3221 C3237 1.377 . S
C3222 C3220 1.389 . S
C3222 C3223 1.524 . S
C3222 C3236 1.377 . S
C3223 C3222 1.524 . S
C3223 C3224 1.397 . S
C3223 C3228 1.363 . S
C3224 H3201 0.950 . S
C3224 C3223 1.397 . S
C3224 C3225 1.334 . S
C3225 H3202 0.950 . S
C3225 C3224 1.334 . S
C3225 C3226 1.287 . S
C3226 C3225 1.287 . S
C3226 C3227 1.524 . S
C3226 H3245 0.913 . S
C3227 H3203 0.950 . S
C3227 C3226 1.524 . S
C3227 C3228 1.415 . S
C3228 H3204 0.950 . S
C3228 C3223 1.363 . S
C3228 C3227 1.415 . S
C3229 H3205 0.951 . S
C3229 C3230 1.366 . S
C3229 C3231 1.388 . S
C3230 C3229 1.366 . S
C3230 C3234 1.385 . S
C3231 H3206 0.951 . S
C3231 C3229 1.388 . S
C3231 C3232 1.366 . S
C3232 C3231 1.366 . S
C3232 C3233 1.414 . S
C3232 C3235 1.499 . S
C3233 H3207 0.950 . S
C3233 C3232 1.414 . S
C3233 C3234 1.374 . S
C3234 H3208 0.950 . S
C3234 C3230 1.385 . S
C3234 C3233 1.374 . S
C3235 C3232 1.499 . S
C3235 C3236 1.373 . S
C3235 C3237 1.389 . S
C3236 H3209 0.950 . S
C3236 C3222 1.377 . S
C3236 C3235 1.373 . S
C3237 C3221 1.377 . S
C3237 C3235 1.389 . S
C3237 C3238 1.524 . S
C3238 C3237 1.524 . S
C3238 C3239 1.397 . S
C3238 C3243 1.363 . S
C3239 H3210 0.950 . S
C3239 C3238 1.397 . S
C3239 C3240 1.334 . S
C3240 H3211 0.950 . S
C3240 C3239 1.334 . S
C3240 C3241 1.287 . S
C3241 C3240 1.287 . S
C3241 C3242 1.524 . S
C3241 H3244 0.999 . S
C3242 H3212 0.950 . S
C3242 C3241 1.524 . S
C3242 C3243 1.415 . S
C3243 H3213 0.950 . S
C3243 C3238 1.363 . S
C3243 C3242 1.415 . S
H3244 C3241 0.999 . S
H3245 C3226 0.913 . S
H3246 C3264 0.951 . S
H3247 C3266 0.951 . S
H3248 C3268 0.950 . S
H3249 C3269 0.950 . S
H3250 C3271 0.950 . S
H3251 C3274 0.950 . S
H3252 C3275 0.950 . S
H3253 C3277 0.950 . S
H3254 C3278 0.950 . S
H3255 C3279 0.951 . S
H3256 C3281 0.951 . S
H3257 C3283 0.950 . S
H3258 C3284 0.950 . S
H3259 C3286 0.950 . S
H3260 C3289 0.950 . S
H3261 C3290 0.950 . S
H3262 C3292 0.950 . S
H3263 C3293 0.950 . S
C3264 H3246 0.951 . S
C3264 C3265 1.366 . S
C3264 C3266 1.388 . S
C3265 C3264 1.366 . S
C3265 C3269 1.385 . S
C3266 H3247 0.951 . S
C3266 C3264 1.388 . S
C3266 C3267 1.366 . S
C3267 C3266 1.366 . S
C3267 C3268 1.414 . S
C3267 C3270 1.499 . S
C3268 H3248 0.950 . S
C3268 C3267 1.414 . S
C3268 C3269 1.374 . S
C3269 H3249 0.950 . S
C3269 C3265 1.385 . S
C3269 C3268 1.374 . S
C3270 C3267 1.499 . S
C3270 C3271 1.373 . S
C3270 C3272 1.389 . S
C3271 H3250 0.950 . S
C3271 C3270 1.373 . S
C3271 C3287 1.377 . S
C3272 C3270 1.389 . S
C3272 C3273 1.524 . S
C3272 C3286 1.377 . S
C3273 C3272 1.524 . S
C3273 C3274 1.397 . S
C3273 C3278 1.363 . S
C3274 H3251 0.950 . S
C3274 C3273 1.397 . S
C3274 C3275 1.334 . S
C3275 H3252 0.950 . S
C3275 C3274 1.334 . S
C3275 C3276 1.287 . S
C3276 C3275 1.287 . S
C3276 C3277 1.524 . S
C3276 H3295 0.913 . S
C3277 H3253 0.950 . S
C3277 C3276 1.524 . S
C3277 C3278 1.415 . S
C3278 H3254 0.950 . S
C3278 C3273 1.363 . S
C3278 C3277 1.415 . S
C3279 H3255 0.951 . S
C3279 C3280 1.366 . S
C3279 C3281 1.388 . S
C3280 C3279 1.366 . S
C3280 C3284 1.385 . S
C3281 H3256 0.951 . S
C3281 C3279 1.388 . S
C3281 C3282 1.366 . S
C3282 C3281 1.366 . S
C3282 C3283 1.414 . S
C3282 C3285 1.499 . S
C3283 H3257 0.950 . S
C3283 C3282 1.414 . S
C3283 C3284 1.374 . S
C3284 H3258 0.950 . S
C3284 C3280 1.385 . S
C3284 C3283 1.374 . S
C3285 C3282 1.499 . S
C3285 C3286 1.373 . S
C3285 C3287 1.389 . S
C3286 H3259 0.950 . S
C3286 C3272 1.377 . S
C3286 C3285 1.373 . S
C3287 C3271 1.377 . S
C3287 C3285 1.389 . S
C3287 C3288 1.524 . S
C3288 C3287 1.524 . S
C3288 C3289 1.397 . S
C3288 C3293 1.363 . S
C3289 H3260 0.950 . S
C3289 C3288 1.397 . S
C3289 C3290 1.334 . S
C3290 H3261 0.950 . S
C3290 C3289 1.334 . S
C3290 C3291 1.287 . S
C3291 C3290 1.287 . S
C3291 C3292 1.524 . S
C3291 H3294 0.999 . S
C3292 H3262 0.950 . S
C3292 C3291 1.524 . S
C3292 C3293 1.415 . S
C3293 H3263 0.950 . S
C3293 C3288 1.363 . S
C3293 C3292 1.415 . S
H3294 C3291 0.999 . S
H3295 C3276 0.913 . S
H3296 C3314 0.951 . S
H3297 C3316 0.951 . S
H3298 C3318 0.950 . S
H3299 C3319 0.950 . S
H3300 C3321 0.950 . S
H3301 C3324 0.950 . S
H3302 C3325 0.950 . S
H3303 C3327 0.950 . S
H3304 C3328 0.950 . S
H3305 C3329 0.951 . S
H3306 C3331 0.951 . S
H3307 C3333 0.950 . S
H3308 C3334 0.950 . S
H3309 C3336 0.950 . S
H3310 C3339 0.950 . S
H3311 C3340 0.950 . S
H3312 C3342 0.950 . S
H3313 C3343 0.950 . S
C3314 H3296 0.951 . S
C3314 C3315 1.366 . S
C3314 C3316 1.388 . S
C3315 C3314 1.366 . S
C3315 C3319 1.385 . S
C3316 H3297 0.951 . S
C3316 C3314 1.388 . S
C3316 C3317 1.366 . S
C3317 C3316 1.366 . S
C3317 C3318 1.414 . S
C3317 C3320 1.499 . S
C3318 H3298 0.950 . S
C3318 C3317 1.414 . S
C3318 C3319 1.374 . S
C3319 H3299 0.950 . S
C3319 C3315 1.385 . S
C3319 C3318 1.374 . S
C3320 C3317 1.499 . S
C3320 C3321 1.373 . S
C3320 C3322 1.389 . S
C3321 H3300 0.950 . S
C3321 C3320 1.373 . S
C3321 C3337 1.377 . S
C3322 C3320 1.389 . S
C3322 C3323 1.524 . S
C3322 C3336 1.377 . S
C3323 C3322 1.524 . S
C3323 C3324 1.397 . S
C3323 C3328 1.363 . S
C3324 H3301 0.950 . S
C3324 C3323 1.397 . S
C3324 C3325 1.334 . S
C3325 H3302 0.950 . S
C3325 C3324 1.334 . S
C3325 C3326 1.287 . S
C3326 C3325 1.287 . S
C3326 C3327 1.524 . S
C3326 H3345 0.913 . S
C3327 H3303 0.950 . S
C3327 C3326 1.524 . S
C3327 C3328 1.415 . S
C3328 H3304 0.950 . S
C3328 C3323 1.363 . S
C3328 C3327 1.415 . S
C3329 H3305 0.951 . S
C3329 C3330 1.366 . S
C3329 C3331 1.388 . S
C3330 C3329 1.366 . S
C3330 C3334 1.385 . S
C3331 H3306 0.951 . S
C3331 C3329 1.388 . S
C3331 C3332 1.366 . S
C3332 C3331 1.366 . S
C3332 C3333 1.414 . S
C3332 C3335 1.499 . S
C3333 H3307 0.950 . S
C3333 C3332 1.414 . S
C3333 C3334 1.374 . S
C3334 H3308 0.950 . S
C3334 C3330 1.385 . S
C3334 C3333 1.374 . S
C3335 C3332 1.499 . S
C3335 C3336 1.373 . S
C3335 C3337 1.389 . S
C3336 H3309 0.950 . S
C3336 C3322 1.377 . S
C3336 C3335 1.373 . S
C3337 C3321 1.377 . S
C3337 C3335 1.389 . S
C3337 C3338 1.524 . S
C3338 C3337 1.524 . S
C3338 C3339 1.397 . S
C3338 C3343 1.363 . S
C3339 H3310 0.950 . S
C3339 C3338 1.397 . S
C3339 C3340 1.334 . S
C3340 H3311 0.950 . S
C3340 C3339 1.334 . S
C3340 C3341 1.287 . S
C3341 C3340 1.287 . S
C3341 C3342 1.524 . S
C3341 H3344 0.999 . S
C3342 H3312 0.950 . S
C3342 C3341 1.524 . S
C3342 C3343 1.415 . S
C3343 H3313 0.950 . S
C3343 C3338 1.363 . S
C3343 C3342 1.415 . S
H3344 C3341 0.999 . S
H3345 C3326 0.913 . S
H3346 C3364 0.951 . S
H3347 C3366 0.951 . S
H3348 C3368 0.950 . S
H3349 C3369 0.950 . S
H3350 C3371 0.950 . S
H3351 C3374 0.950 . S
H3352 C3375 0.950 . S
H3353 C3377 0.950 . S
H3354 C3378 0.950 . S
H3355 C3379 0.951 . S
H3356 C3381 0.951 . S
H3357 C3383 0.950 . S
H3358 C3384 0.950 . S
H3359 C3386 0.950 . S
H3360 C3389 0.950 . S
H3361 C3390 0.950 . S
H3362 C3392 0.950 . S
H3363 C3393 0.950 . S
C3364 H3346 0.951 . S
C3364 C3365 1.366 . S
C3364 C3366 1.388 . S
C3365 C3364 1.366 . S
C3365 C3369 1.385 . S
C3366 H3347 0.951 . S
C3366 C3364 1.388 . S
C3366 C3367 1.366 . S
C3367 C3366 1.366 . S
C3367 C3368 1.414 . S
C3367 C3370 1.499 . S
C3368 H3348 0.950 . S
C3368 C3367 1.414 . S
C3368 C3369 1.374 . S
C3369 H3349 0.950 . S
C3369 C3365 1.385 . S
C3369 C3368 1.374 . S
C3370 C3367 1.499 . S
C3370 C3371 1.373 . S
C3370 C3372 1.389 . S
C3371 H3350 0.950 . S
C3371 C3370 1.373 . S
C3371 C3387 1.377 . S
C3372 C3370 1.389 . S
C3372 C3373 1.524 . S
C3372 C3386 1.377 . S
C3373 C3372 1.524 . S
C3373 C3374 1.397 . S
C3373 C3378 1.363 . S
C3374 H3351 0.950 . S
C3374 C3373 1.397 . S
C3374 C3375 1.334 . S
C3375 H3352 0.950 . S
C3375 C3374 1.334 . S
C3375 C3376 1.287 . S
C3376 C3375 1.287 . S
C3376 C3377 1.524 . S
C3376 H3395 0.913 . S
C3377 H3353 0.950 . S
C3377 C3376 1.524 . S
C3377 C3378 1.415 . S
C3378 H3354 0.950 . S
C3378 C3373 1.363 . S
C3378 C3377 1.415 . S
C3379 H3355 0.951 . S
C3379 C3380 1.366 . S
C3379 C3381 1.388 . S
C3380 C3379 1.366 . S
C3380 C3384 1.385 . S
C3381 H3356 0.951 . S
C3381 C3379 1.388 . S
C3381 C3382 1.366 . S
C3382 C3381 1.366 . S
C3382 C3383 1.414 . S
C3382 C3385 1.499 . S
C3383 H3357 0.950 . S
C3383 C3382 1.414 . S
C3383 C3384 1.374 . S
C3384 H3358 0.950 . S
C3384 C3380 1.385 . S
C3384 C3383 1.374 . S
C3385 C3382 1.499 . S
C3385 C3386 1.373 . S
C3385 C3387 1.389 . S
C3386 H3359 0.950 . S
C3386 C3372 1.377 . S
C3386 C3385 1.373 . S
C3387 C3371 1.377 . S
C3387 C3385 1.389 . S
C3387 C3388 1.524 . S
C3388 C3387 1.524 . S
C3388 C3389 1.397 . S
C3388 C3393 1.363 . S
C3389 H3360 0.950 . S
C3389 C3388 1.397 . S
C3389 C3390 1.334 . S
C3390 H3361 0.950 . S
C3390 C3389 1.334 . S
C3390 C3391 1.287 . S
C3391 C3390 1.287 . S
C3391 C3392 1.524 . S
C3391 H3394 0.999 . S
C3392 H3362 0.950 . S
C3392 C3391 1.524 . S
C3392 C3393 1.415 . S
C3393 H3363 0.950 . S
C3393 C3388 1.363 . S
C3393 C3392 1.415 . S
H3394 C3391 0.999 . S
H3395 C3376 0.913 . S
H3396 C3414 0.951 . S
H3397 C3416 0.951 . S
H3398 C3418 0.950 . S
H3399 C3419 0.950 . S
H3400 C3421 0.950 . S
H3401 C3424 0.950 . S
H3402 C3425 0.950 . S
H3403 C3427 0.950 . S
H3404 C3428 0.950 . S
H3405 C3429 0.951 . S
H3406 C3431 0.951 . S
H3407 C3433 0.950 . S
H3408 C3434 0.950 . S
H3409 C3436 0.950 . S
H3410 C3439 0.950 . S
H3411 C3440 0.950 . S
H3412 C3442 0.950 . S
H3413 C3443 0.950 . S
C3414 H3396 0.951 . S
C3414 C3415 1.366 . S
C3414 C3416 1.388 . S
C3415 C3414 1.366 . S
C3415 C3419 1.385 . S
C3416 H3397 0.951 . S
C3416 C3414 1.388 . S
C3416 C3417 1.366 . S
C3417 C3416 1.366 . S
C3417 C3418 1.414 . S
C3417 C3420 1.499 . S
C3418 H3398 0.950 . S
C3418 C3417 1.414 . S
C3418 C3419 1.374 . S
C3419 H3399 0.950 . S
C3419 C3415 1.385 . S
C3419 C3418 1.374 . S
C3420 C3417 1.499 . S
C3420 C3421 1.373 . S
C3420 C3422 1.389 . S
C3421 H3400 0.950 . S
C3421 C3420 1.373 . S
C3421 C3437 1.377 . S
C3422 C3420 1.389 . S
C3422 C3423 1.524 . S
C3422 C3436 1.377 . S
C3423 C3422 1.524 . S
C3423 C3424 1.397 . S
C3423 C3428 1.363 . S
C3424 H3401 0.950 . S
C3424 C3423 1.397 . S
C3424 C3425 1.334 . S
C3425 H3402 0.950 . S
C3425 C3424 1.334 . S
C3425 C3426 1.287 . S
C3426 C3425 1.287 . S
C3426 C3427 1.524 . S
C3426 H3445 0.913 . S
C3427 H3403 0.950 . S
C3427 C3426 1.524 . S
C3427 C3428 1.415 . S
C3428 H3404 0.950 . S
C3428 C3423 1.363 . S
C3428 C3427 1.415 . S
C3429 H3405 0.951 . S
C3429 C3430 1.366 . S
C3429 C3431 1.388 . S
C3430 C3429 1.366 . S
C3430 C3434 1.385 . S
C3431 H3406 0.951 . S
C3431 C3429 1.388 . S
C3431 C3432 1.366 . S
C3432 C3431 1.366 . S
C3432 C3433 1.414 . S
C3432 C3435 1.499 . S
C3433 H3407 0.950 . S
C3433 C3432 1.414 . S
C3433 C3434 1.374 . S
C3434 H3408 0.950 . S
C3434 C3430 1.385 . S
C3434 C3433 1.374 . S
C3435 C3432 1.499 . S
C3435 C3436 1.373 . S
C3435 C3437 1.389 . S
C3436 H3409 0.950 . S
C3436 C3422 1.377 . S
C3436 C3435 1.373 . S
C3437 C3421 1.377 . S
C3437 C3435 1.389 . S
C3437 C3438 1.524 . S
C3438 C3437 1.524 . S
C3438 C3439 1.397 . S
C3438 C3443 1.363 . S
C3439 H3410 0.950 . S
C3439 C3438 1.397 . S
C3439 C3440 1.334 . S
C3440 H3411 0.950 . S
C3440 C3439 1.334 . S
C3440 C3441 1.287 . S
C3441 C3440 1.287 . S
C3441 C3442 1.524 . S
C3441 H3444 0.999 . S
C3442 H3412 0.950 . S
C3442 C3441 1.524 . S
C3442 C3443 1.415 . S
C3443 H3413 0.950 . S
C3443 C3438 1.363 . S
C3443 C3442 1.415 . S
H3444 C3441 0.999 . S
H3445 C3426 0.913 . S
H3446 C3464 0.951 . S
H3447 C3466 0.951 . S
H3448 C3468 0.950 . S
H3449 C3469 0.950 . S
H3450 C3471 0.950 . S
H3451 C3474 0.950 . S
H3452 C3475 0.950 . S
H3453 C3477 0.950 . S
H3454 C3478 0.950 . S
H3455 C3479 0.951 . S
H3456 C3481 0.951 . S
H3457 C3483 0.950 . S
H3458 C3484 0.950 . S
H3459 C3486 0.950 . S
H3460 C3489 0.950 . S
H3461 C3490 0.950 . S
H3462 C3492 0.950 . S
H3463 C3493 0.950 . S
C3464 H3446 0.951 . S
C3464 C3465 1.366 . S
C3464 C3466 1.388 . S
C3465 C3464 1.366 . S
C3465 C3469 1.385 . S
C3466 H3447 0.951 . S
C3466 C3464 1.388 . S
C3466 C3467 1.366 . S
C3467 C3466 1.366 . S
C3467 C3468 1.414 . S
C3467 C3470 1.499 . S
C3468 H3448 0.950 . S
C3468 C3467 1.414 . S
C3468 C3469 1.374 . S
C3469 H3449 0.950 . S
C3469 C3465 1.385 . S
C3469 C3468 1.374 . S
C3470 C3467 1.499 . S
C3470 C3471 1.373 . S
C3470 C3472 1.389 . S
C3471 H3450 0.950 . S
C3471 C3470 1.373 . S
C3471 C3487 1.377 . S
C3472 C3470 1.389 . S
C3472 C3473 1.524 . S
C3472 C3486 1.377 . S
C3473 C3472 1.524 . S
C3473 C3474 1.397 . S
C3473 C3478 1.363 . S
C3474 H3451 0.950 . S
C3474 C3473 1.397 . S
C3474 C3475 1.334 . S
C3475 H3452 0.950 . S
C3475 C3474 1.334 . S
C3475 C3476 1.287 . S
C3476 C3475 1.287 . S
C3476 C3477 1.524 . S
C3476 H3495 0.913 . S
C3477 H3453 0.950 . S
C3477 C3476 1.524 . S
C3477 C3478 1.415 . S
C3478 H3454 0.950 . S
C3478 C3473 1.363 . S
C3478 C3477 1.415 . S
C3479 H3455 0.951 . S
C3479 C3480 1.366 . S
C3479 C3481 1.388 . S
C3480 C3479 1.366 . S
C3480 C3484 1.385 . S
C3481 H3456 0.951 . S
C3481 C3479 1.388 . S
C3481 C3482 1.366 . S
C3482 C3481 1.366 . S
C3482 C3483 1.414 . S
C3482 C3485 1.499 . S
C3483 H3457 0.950 . S
C3483 C3482 1.414 . S
C3483 C3484 1.374 . S
C3484 H3458 0.950 . S
C3484 C3480 1.385 . S
C3484 C3483 1.374 . S
C3485 C3482 1.499 . S
C3485 C3486 1.373 . S
C3485 C3487 1.389 . S
C3486 H3459 0.950 . S
C3486 C3472 1.377 . S
C3486 C3485 1.373 . S
C3487 C3471 1.377 . S
C3487 C3485 1.389 . S
C3487 C3488 1.524 . S
C3488 C3487 1.524 . S
C3488 C3489 1.397 . S
C3488 C3493 1.363 . S
C3489 H3460 0.950 . S
C3489 C3488 1.397 . S
C3489 C3490 1.334 . S
C3490 H3461 0.950 . S
C3490 C3489 1.334 . S
C3490 C3491 1.287 . S
C3491 C3490 1.287 . S
C3491 C3492 1.524 . S
C3491 H3494 0.999 . S
C3492 H3462 0.950 . S
C3492 C3491 1.524 . S
C3492 C3493 1.415 . S
C3493 H3463 0.950 . S
C3493 C3488 1.363 . S
C3493 C3492 1.415 . S
H3494 C3491 0.999 . S
H3495 C3476 0.913 . S
H3496 C3514 0.951 . S
H3497 C3516 0.951 . S
H3498 C3518 0.950 . S
H3499 C3519 0.950 . S
H3500 C3521 0.950 . S
H3501 C3524 0.950 . S
H3502 C3525 0.950 . S
H3503 C3527 0.950 . S
H3504 C3528 0.950 . S
H3505 C3529 0.951 . S
H3506 C3531 0.951 . S
H3507 C3533 0.950 . S
H3508 C3534 0.950 . S
H3509 C3536 0.950 . S
H3510 C3539 0.950 . S
H3511 C3540 0.950 . S
H3512 C3542 0.950 . S
H3513 C3543 0.950 . S
C3514 H3496 0.951 . S
C3514 C3515 1.366 . S
C3514 C3516 1.388 . S
C3515 C3514 1.366 . S
C3515 C3519 1.385 . S
C3516 H3497 0.951 . S
C3516 C3514 1.388 . S
C3516 C3517 1.366 . S
C3517 C3516 1.366 . S
C3517 C3518 1.414 . S
C3517 C3520 1.499 . S
C3518 H3498 0.950 . S
C3518 C3517 1.414 . S
C3518 C3519 1.374 . S
C3519 H3499 0.950 . S
C3519 C3515 1.385 . S
C3519 C3518 1.374 . S
C3520 C3517 1.499 . S
C3520 C3521 1.373 . S
C3520 C3522 1.389 . S
C3521 H3500 0.950 . S
C3521 C3520 1.373 . S
C3521 C3537 1.377 . S
C3522 C3520 1.389 . S
C3522 C3523 1.524 . S
C3522 C3536 1.377 . S
C3523 C3522 1.524 . S
C3523 C3524 1.397 . S
C3523 C3528 1.363 . S
C3524 H3501 0.950 . S
C3524 C3523 1.397 . S
C3524 C3525 1.334 . S
C3525 H3502 0.950 . S
C3525 C3524 1.334 . S
C3525 C3526 1.287 . S
C3526 C3525 1.287 . S
C3526 C3527 1.524 . S
C3526 H3545 0.913 . S
C3527 H3503 0.950 . S
C3527 C3526 1.524 . S
C3527 C3528 1.415 . S
C3528 H3504 0.950 . S
C3528 C3523 1.363 . S
C3528 C3527 1.415 . S
C3529 H3505 0.951 . S
C3529 C3530 1.366 . S
C3529 C3531 1.388 . S
C3530 C3529 1.366 . S
C3530 C3534 1.385 . S
C3531 H3506 0.951 . S
C3531 C3529 1.388 . S
C3531 C3532 1.366 . S
C3532 C3531 1.366 . S
C3532 C3533 1.414 . S
C3532 C3535 1.499 . S
C3533 H3507 0.950 . S
C3533 C3532 1.414 . S
C3533 C3534 1.374 . S
C3534 H3508 0.950 . S
C3534 C3530 1.385 . S
C3534 C3533 1.374 . S
C3535 C3532 1.499 . S
C3535 C3536 1.373 . S
C3535 C3537 1.389 . S
C3536 H3509 0.950 . S
C3536 C3522 1.377 . S
C3536 C3535 1.373 . S
C3537 C3521 1.377 . S
C3537 C3535 1.389 . S
C3537 C3538 1.524 . S
C3538 C3537 1.524 . S
C3538 C3539 1.397 . S
C3538 C3543 1.363 . S
C3539 H3510 0.950 . S
C3539 C3538 1.397 . S
C3539 C3540 1.334 . S
C3540 H3511 0.950 . S
C3540 C3539 1.334 . S
C3540 C3541 1.287 . S
C3541 C3540 1.287 . S
C3541 C3542 1.524 . S
C3541 H3544 0.999 . S
C3542 H3512 0.950 . S
C3542 C3541 1.524 . S
C3542 C3543 1.415 . S
C3543 H3513 0.950 . S
C3543 C3538 1.363 . S
C3543 C3542 1.415 . S
H3544 C3541 0.999 . S
H3545 C3526 0.913 . S
H3546 C3564 0.951 . S
H3547 C3566 0.951 . S
H3548 C3568 0.950 . S
H3549 C3569 0.950 . S
H3550 C3571 0.950 . S
H3551 C3574 0.950 . S
H3552 C3575 0.950 . S
H3553 C3577 0.950 . S
H3554 C3578 0.950 . S
H3555 C3579 0.951 . S
H3556 C3581 0.951 . S
H3557 C3583 0.950 . S
H3558 C3584 0.950 . S
H3559 C3586 0.950 . S
H3560 C3589 0.950 . S
H3561 C3590 0.950 . S
H3562 C3592 0.950 . S
H3563 C3593 0.950 . S
C3564 H3546 0.951 . S
C3564 C3565 1.366 . S
C3564 C3566 1.388 . S
C3565 C3564 1.366 . S
C3565 C3569 1.385 . S
C3566 H3547 0.951 . S
C3566 C3564 1.388 . S
C3566 C3567 1.366 . S
C3567 C3566 1.366 . S
C3567 C3568 1.414 . S
C3567 C3570 1.499 . S
C3568 H3548 0.950 . S
C3568 C3567 1.414 . S
C3568 C3569 1.374 . S
C3569 H3549 0.950 . S
C3569 C3565 1.385 . S
C3569 C3568 1.374 . S
C3570 C3567 1.499 . S
C3570 C3571 1.373 . S
C3570 C3572 1.389 . S
C3571 H3550 0.950 . S
C3571 C3570 1.373 . S
C3571 C3587 1.377 . S
C3572 C3570 1.389 . S
C3572 C3573 1.524 . S
C3572 C3586 1.377 . S
C3573 C3572 1.524 . S
C3573 C3574 1.397 . S
C3573 C3578 1.363 . S
C3574 H3551 0.950 . S
C3574 C3573 1.397 . S
C3574 C3575 1.334 . S
C3575 H3552 0.950 . S
C3575 C3574 1.334 . S
C3575 C3576 1.287 . S
C3576 C3575 1.287 . S
C3576 C3577 1.524 . S
C3576 H3595 0.913 . S
C3577 H3553 0.950 . S
C3577 C3576 1.524 . S
C3577 C3578 1.415 . S
C3578 H3554 0.950 . S
C3578 C3573 1.363 . S
C3578 C3577 1.415 . S
C3579 H3555 0.951 . S
C3579 C3580 1.366 . S
C3579 C3581 1.388 . S
C3580 C3579 1.366 . S
C3580 C3584 1.385 . S
C3581 H3556 0.951 . S
C3581 C3579 1.388 . S
C3581 C3582 1.366 . S
C3582 C3581 1.366 . S
C3582 C3583 1.414 . S
C3582 C3585 1.499 . S
C3583 H3557 0.950 . S
C3583 C3582 1.414 . S
C3583 C3584 1.374 . S
C3584 H3558 0.950 . S
C3584 C3580 1.385 . S
C3584 C3583 1.374 . S
C3585 C3582 1.499 . S
C3585 C3586 1.373 . S
C3585 C3587 1.389 . S
C3586 H3559 0.950 . S
C3586 C3572 1.377 . S
C3586 C3585 1.373 . S
C3587 C3571 1.377 . S
C3587 C3585 1.389 . S
C3587 C3588 1.524 . S
C3588 C3587 1.524 . S
C3588 C3589 1.397 . S
C3588 C3593 1.363 . S
C3589 H3560 0.950 . S
C3589 C3588 1.397 . S
C3589 C3590 1.334 . S
C3590 H3561 0.950 . S
C3590 C3589 1.334 . S
C3590 C3591 1.287 . S
C3591 C3590 1.287 . S
C3591 C3592 1.524 . S
C3591 H3594 0.999 . S
C3592 H3562 0.950 . S
C3592 C3591 1.524 . S
C3592 C3593 1.415 . S
C3593 H3563 0.950 . S
C3593 C3588 1.363 . S
C3593 C3592 1.415 . S
H3594 C3591 0.999 . S
H3595 C3576 0.913 . S
H3596 C3614 0.951 . S
H3597 C3616 0.951 . S
H3598 C3618 0.950 . S
H3599 C3619 0.950 . S
H3600 C3621 0.950 . S
H3601 C3624 0.950 . S
H3602 C3625 0.950 . S
H3603 C3627 0.950 . S
H3604 C3628 0.950 . S
H3605 C3629 0.951 . S
H3606 C3631 0.951 . S
H3607 C3633 0.950 . S
H3608 C3634 0.950 . S
H3609 C3636 0.950 . S
H3610 C3639 0.950 . S
H3611 C3640 0.950 . S
H3612 C3642 0.950 . S
H3613 C3643 0.950 . S
C3614 H3596 0.951 . S
C3614 C3615 1.366 . S
C3614 C3616 1.388 . S
C3615 C3614 1.366 . S
C3615 C3619 1.385 . S
C3616 H3597 0.951 . S
C3616 C3614 1.388 . S
C3616 C3617 1.366 . S
C3617 C3616 1.366 . S
C3617 C3618 1.414 . S
C3617 C3620 1.499 . S
C3618 H3598 0.950 . S
C3618 C3617 1.414 . S
C3618 C3619 1.374 . S
C3619 H3599 0.950 . S
C3619 C3615 1.385 . S
C3619 C3618 1.374 . S
C3620 C3617 1.499 . S
C3620 C3621 1.373 . S
C3620 C3622 1.389 . S
C3621 H3600 0.950 . S
C3621 C3620 1.373 . S
C3621 C3637 1.377 . S
C3622 C3620 1.389 . S
C3622 C3623 1.524 . S
C3622 C3636 1.377 . S
C3623 C3622 1.524 . S
C3623 C3624 1.397 . S
C3623 C3628 1.363 . S
C3624 H3601 0.950 . S
C3624 C3623 1.397 . S
C3624 C3625 1.334 . S
C3625 H3602 0.950 . S
C3625 C3624 1.334 . S
C3625 C3626 1.287 . S
C3626 C3625 1.287 . S
C3626 C3627 1.524 . S
C3626 H3645 0.913 . S
C3627 H3603 0.950 . S
C3627 C3626 1.524 . S
C3627 C3628 1.415 . S
C3628 H3604 0.950 . S
C3628 C3623 1.363 . S
C3628 C3627 1.415 . S
C3629 H3605 0.951 . S
C3629 C3630 1.366 . S
C3629 C3631 1.388 . S
C3630 C3629 1.366 . S
C3630 C3634 1.385 . S
C3631 H3606 0.951 . S
C3631 C3629 1.388 . S
C3631 C3632 1.366 . S
C3632 C3631 1.366 . S
C3632 C3633 1.414 . S
C3632 C3635 1.499 . S
C3633 H3607 0.950 . S
C3633 C3632 1.414 . S
C3633 C3634 1.374 . S
C3634 H3608 0.950 . S
C3634 C3630 1.385 . S
C3634 C3633 1.374 . S
C3635 C3632 1.499 . S
C3635 C3636 1.373 . S
C3635 C3637 1.389 . S
C3636 H3609 0.950 . S
C3636 C3622 1.377 . S
C3636 C3635 1.373 . S
C3637 C3621 1.377 . S
C3637 C3635 1.389 . S
C3637 C3638 1.524 . S
C3638 C3637 1.524 . S
C3638 C3639 1.397 . S
C3638 C3643 1.363 . S
C3639 H3610 0.950 . S
C3639 C3638 1.397 . S
C3639 C3640 1.334 . S
C3640 H3611 0.950 . S
C3640 C3639 1.334 . S
C3640 C3641 1.287 . S
C3641 C3640 1.287 . S
C3641 C3642 1.524 . S
C3641 H3644 0.999 . S
C3642 H3612 0.950 . S
C3642 C3641 1.524 . S
C3642 C3643 1.415 . S
C3643 H3613 0.950 . S
C3643 C3638 1.363 . S
C3643 C3642 1.415 . S
H3644 C3641 0.999 . S
H3645 C3626 0.913 . S
H3646 C3664 0.951 . S
H3647 C3666 0.951 . S
H3648 C3668 0.950 . S
H3649 C3669 0.950 . S
H3650 C3671 0.950 . S
H3651 C3674 0.950 . S
H3652 C3675 0.950 . S
H3653 C3677 0.950 . S
H3654 C3678 0.950 . S
H3655 C3679 0.951 . S
H3656 C3681 0.951 . S
H3657 C3683 0.950 . S
H3658 C3684 0.950 . S
H3659 C3686 0.950 . S
H3660 C3689 0.950 . S
H3661 C3690 0.950 . S
H3662 C3692 0.950 . S
H3663 C3693 0.950 . S
C3664 H3646 0.951 . S
C3664 C3665 1.366 . S
C3664 C3666 1.388 . S
C3665 C3664 1.366 . S
C3665 C3669 1.385 . S
C3666 H3647 0.951 . S
C3666 C3664 1.388 . S
C3666 C3667 1.366 . S
C3667 C3666 1.366 . S
C3667 C3668 1.414 . S
C3667 C3670 1.499 . S
C3668 H3648 0.950 . S
C3668 C3667 1.414 . S
C3668 C3669 1.374 . S
C3669 H3649 0.950 . S
C3669 C3665 1.385 . S
C3669 C3668 1.374 . S
C3670 C3667 1.499 . S
C3670 C3671 1.373 . S
C3670 C3672 1.389 . S
C3671 H3650 0.950 . S
C3671 C3670 1.373 . S
C3671 C3687 1.377 . S
C3672 C3670 1.389 . S
C3672 C3673 1.524 . S
C3672 C3686 1.377 . S
C3673 C3672 1.524 . S
C3673 C3674 1.397 . S
C3673 C3678 1.363 . S
C3674 H3651 0.950 . S
C3674 C3673 1.397 . S
C3674 C3675 1.334 . S
C3675 H3652 0.950 . S
C3675 C3674 1.334 . S
C3675 C3676 1.287 . S
C3676 C3675 1.287 . S
C3676 C3677 1.524 . S
C3676 H3695 0.913 . S
C3677 H3653 0.950 . S
C3677 C3676 1.524 . S
C3677 C3678 1.415 . S
C3678 H3654 0.950 . S
C3678 C3673 1.363 . S
C3678 C3677 1.415 . S
C3679 H3655 0.951 . S
C3679 C3680 1.366 . S
C3679 C3681 1.388 . S
C3680 C3679 1.366 . S
C3680 C3684 1.385 . S
C3681 H3656 0.951 . S
C3681 C3679 1.388 . S
C3681 C3682 1.366 . S
C3682 C3681 1.366 . S
C3682 C3683 1.414 . S
C3682 C3685 1.499 . S
C3683 H3657 0.950 . S
C3683 C3682 1.414 . S
C3683 C3684 1.374 . S
C3684 H3658 0.950 . S
C3684 C3680 1.385 . S
C3684 C3683 1.374 . S
C3685 C3682 1.499 . S
C3685 C3686 1.373 . S
C3685 C3687 1.389 . S
C3686 H3659 0.950 . S
C3686 C3672 1.377 . S
C3686 C3685 1.373 . S
C3687 C3671 1.377 . S
C3687 C3685 1.389 . S
C3687 C3688 1.524 . S
C3688 C3687 1.524 . S
C3688 C3689 1.397 . S
C3688 C3693 1.363 . S
C3689 H3660 0.950 . S
C3689 C3688 1.397 . S
C3689 C3690 1.334 . S
C3690 H3661 0.950 . S
C3690 C3689 1.334 . S
C3690 C3691 1.287 . S
C3691 C3690 1.287 . S
C3691 C3692 1.524 . S
C3691 H3694 0.999 . S
C3692 H3662 0.950 . S
C3692 C3691 1.524 . S
C3692 C3693 1.415 . S
C3693 H3663 0.950 . S
C3693 C3688 1.363 . S
C3693 C3692 1.415 . S
H3694 C3691 0.999 . S
H3695 C3676 0.913 . S
H3696 C3714 0.951 . S
H3697 C3716 0.951 . S
H3698 C3718 0.950 . S
H3699 C3719 0.950 . S
H3700 C3721 0.950 . S
H3701 C3724 0.950 . S
H3702 C3725 0.950 . S
H3703 C3727 0.950 . S
H3704 C3728 0.950 . S
H3705 C3729 0.951 . S
H3706 C3731 0.951 . S
H3707 C3733 0.950 . S
H3708 C3734 0.950 . S
H3709 C3736 0.950 . S
H3710 C3739 0.950 . S
H3711 C3740 0.950 . S
H3712 C3742 0.950 . S
H3713 C3743 0.950 . S
C3714 H3696 0.951 . S
C3714 C3715 1.366 . S
C3714 C3716 1.388 . S
C3715 C3714 1.366 . S
C3715 C3719 1.385 . S
C3716 H3697 0.951 . S
C3716 C3714 1.388 . S
C3716 C3717 1.366 . S
C3717 C3716 1.366 . S
C3717 C3718 1.414 . S
C3717 C3720 1.499 . S
C3718 H3698 0.950 . S
C3718 C3717 1.414 . S
C3718 C3719 1.374 . S
C3719 H3699 0.950 . S
C3719 C3715 1.385 . S
C3719 C3718 1.374 . S
C3720 C3717 1.499 . S
C3720 C3721 1.373 . S
C3720 C3722 1.389 . S
C3721 H3700 0.950 . S
C3721 C3720 1.373 . S
C3721 C3737 1.377 . S
C3722 C3720 1.389 . S
C3722 C3723 1.524 . S
C3722 C3736 1.377 . S
C3723 C3722 1.524 . S
C3723 C3724 1.397 . S
C3723 C3728 1.363 . S
C3724 H3701 0.950 . S
C3724 C3723 1.397 . S
C3724 C3725 1.334 . S
C3725 H3702 0.950 . S
C3725 C3724 1.334 . S
C3725 C3726 1.287 . S
C3726 C3725 1.287 . S
C3726 C3727 1.524 . S
C3726 H3745 0.913 . S
C3727 H3703 0.950 . S
C3727 C3726 1.524 . S
C3727 C3728 1.415 . S
C3728 H3704 0.950 . S
C3728 C3723 1.363 . S
C3728 C3727 1.415 . S
C3729 H3705 0.951 . S
C3729 C3730 1.366 . S
C3729 C3731 1.388 . S
C3730 C3729 1.366 . S
C3730 C3734 1.385 . S
C3731 H3706 0.951 . S
C3731 C3729 1.388 . S
C3731 C3732 1.366 . S
C3732 C3731 1.366 . S
C3732 C3733 1.414 . S
C3732 C3735 1.499 . S
C3733 H3707 0.950 . S
C3733 C3732 1.414 . S
C3733 C3734 1.374 . S
C3734 H3708 0.950 . S
C3734 C3730 1.385 . S
C3734 C3733 1.374 . S
C3735 C3732 1.499 . S
C3735 C3736 1.373 . S
C3735 C3737 1.389 . S
C3736 H3709 0.950 . S
C3736 C3722 1.377 . S
C3736 C3735 1.373 . S
C3737 C3721 1.377 . S
C3737 C3735 1.389 . S
C3737 C3738 1.524 . S
C3738 C3737 1.524 . S
C3738 C3739 1.397 . S
C3738 C3743 1.363 . S
C3739 H3710 0.950 . S
C3739 C3738 1.397 . S
C3739 C3740 1.334 . S
C3740 H3711 0.950 . S
C3740 C3739 1.334 . S
C3740 C3741 1.287 . S
C3741 C3740 1.287 . S
C3741 C3742 1.524 . S
C3741 H3744 0.999 . S
C3742 H3712 0.950 . S
C3742 C3741 1.524 . S
C3742 C3743 1.415 . S
C3743 H3713 0.950 . S
C3743 C3738 1.363 . S
C3743 C3742 1.415 . S
H3744 C3741 0.999 . S
H3745 C3726 0.913 . S
H3746 C3764 0.951 . S
H3747 C3766 0.951 . S
H3748 C3768 0.950 . S
H3749 C3769 0.950 . S
H3750 C3771 0.950 . S
H3751 C3774 0.950 . S
H3752 C3775 0.950 . S
H3753 C3777 0.950 . S
H3754 C3778 0.950 . S
H3755 C3779 0.951 . S
H3756 C3781 0.951 . S
H3757 C3783 0.950 . S
H3758 C3784 0.950 . S
H3759 C3786 0.950 . S
H3760 C3789 0.950 . S
H3761 C3790 0.950 . S
H3762 C3792 0.950 . S
H3763 C3793 0.950 . S
C3764 H3746 0.951 . S
C3764 C3765 1.366 . S
C3764 C3766 1.388 . S
C3765 C3764 1.366 . S
C3765 C3769 1.385 . S
C3766 H3747 0.951 . S
C3766 C3764 1.388 . S
C3766 C3767 1.366 . S
C3767 C3766 1.366 . S
C3767 C3768 1.414 . S
C3767 C3770 1.499 . S
C3768 H3748 0.950 . S
C3768 C3767 1.414 . S
C3768 C3769 1.374 . S
C3769 H3749 0.950 . S
C3769 C3765 1.385 . S
C3769 C3768 1.374 . S
C3770 C3767 1.499 . S
C3770 C3771 1.373 . S
C3770 C3772 1.389 . S
C3771 H3750 0.950 . S
C3771 C3770 1.373 . S
C3771 C3787 1.377 . S
C3772 C3770 1.389 . S
C3772 C3773 1.524 . S
C3772 C3786 1.377 . S
C3773 C3772 1.524 . S
C3773 C3774 1.397 . S
C3773 C3778 1.363 . S
C3774 H3751 0.950 . S
C3774 C3773 1.397 . S
C3774 C3775 1.334 . S
C3775 H3752 0.950 . S
C3775 C3774 1.334 . S
C3775 C3776 1.287 . S
C3776 C3775 1.287 . S
C3776 C3777 1.524 . S
C3776 H3795 0.913 . S
C3777 H3753 0.950 . S
C3777 C3776 1.524 . S
C3777 C3778 1.415 . S
C3778 H3754 0.950 . S
C3778 C3773 1.363 . S
C3778 C3777 1.415 . S
C3779 H3755 0.951 . S
C3779 C3780 1.366 . S
C3779 C3781 1.388 . S
C3780 C3779 1.366 . S
C3780 C3784 1.385 . S
C3781 H3756 0.951 . S
C3781 C3779 1.388 . S
C3781 C3782 1.366 . S
C3782 C3781 1.366 . S
C3782 C3783 1.414 . S
C3782 C3785 1.499 . S
C3783 H3757 0.950 . S
C3783 C3782 1.414 . S
C3783 C3784 1.374 . S
C3784 H3758 0.950 . S
C3784 C3780 1.385 . S
C3784 C3783 1.374 . S
C3785 C3782 1.499 . S
C3785 C3786 1.373 . S
C3785 C3787 1.389 . S
C3786 H3759 0.950 . S
C3786 C3772 1.377 . S
C3786 C3785 1.373 . S
C3787 C3771 1.377 . S
C3787 C3785 1.389 . S
C3787 C3788 1.524 . S
C3788 C3787 1.524 . S
C3788 C3789 1.397 . S
C3788 C3793 1.363 . S
C3789 H3760 0.950 . S
C3789 C3788 1.397 . S
C3789 C3790 1.334 . S
C3790 H3761 0.950 . S
C3790 C3789 1.334 . S
C3790 C3791 1.287 . S
C3791 C3790 1.287 . S
C3791 C3792 1.524 . S
C3791 H3794 0.999 . S
C3792 H3762 0.950 . S
C3792 C3791 1.524 . S
C3792 C3793 1.415 . S
C3793 H3763 0.950 . S
C3793 C3788 1.363 . S
C3793 C3792 1.415 . S
H3794 C3791 0.999 . S
H3795 C3776 0.913 . S
H3796 C3814 0.951 . S
H3797 C3816 0.951 . S
H3798 C3818 0.950 . S
H3799 C3819 0.950 . S
H3800 C3821 0.950 . S
H3801 C3824 0.950 . S
H3802 C3825 0.950 . S
H3803 C3827 0.950 . S
H3804 C3828 0.950 . S
H3805 C3829 0.951 . S
H3806 C3831 0.951 . S
H3807 C3833 0.950 . S
H3808 C3834 0.950 . S
H3809 C3836 0.950 . S
H3810 C3839 0.950 . S
H3811 C3840 0.950 . S
H3812 C3842 0.950 . S
H3813 C3843 0.950 . S
C3814 H3796 0.951 . S
C3814 C3815 1.366 . S
C3814 C3816 1.388 . S
C3815 C3814 1.366 . S
C3815 C3819 1.385 . S
C3816 H3797 0.951 . S
C3816 C3814 1.388 . S
C3816 C3817 1.366 . S
C3817 C3816 1.366 . S
C3817 C3818 1.414 . S
C3817 C3820 1.499 . S
C3818 H3798 0.950 . S
C3818 C3817 1.414 . S
C3818 C3819 1.374 . S
C3819 H3799 0.950 . S
C3819 C3815 1.385 . S
C3819 C3818 1.374 . S
C3820 C3817 1.499 . S
C3820 C3821 1.373 . S
C3820 C3822 1.389 . S
C3821 H3800 0.950 . S
C3821 C3820 1.373 . S
C3821 C3837 1.377 . S
C3822 C3820 1.389 . S
C3822 C3823 1.524 . S
C3822 C3836 1.377 . S
C3823 C3822 1.524 . S
C3823 C3824 1.397 . S
C3823 C3828 1.363 . S
C3824 H3801 0.950 . S
C3824 C3823 1.397 . S
C3824 C3825 1.334 . S
C3825 H3802 0.950 . S
C3825 C3824 1.334 . S
C3825 C3826 1.287 . S
C3826 C3825 1.287 . S
C3826 C3827 1.524 . S
C3826 H3845 0.913 . S
C3827 H3803 0.950 . S
C3827 C3826 1.524 . S
C3827 C3828 1.415 . S
C3828 H3804 0.950 . S
C3828 C3823 1.363 . S
C3828 C3827 1.415 . S
C3829 H3805 0.951 . S
C3829 C3830 1.366 . S
C3829 C3831 1.388 . S
C3830 C3829 1.366 . S
C3830 C3834 1.385 . S
C3831 H3806 0.951 . S
C3831 C3829 1.388 . S
C3831 C3832 1.366 . S
C3832 C3831 1.366 . S
C3832 C3833 1.414 . S
C3832 C3835 1.499 . S
C3833 H3807 0.950 . S
C3833 C3832 1.414 . S
C3833 C3834 1.374 . S
C3834 H3808 0.950 . S
C3834 C3830 1.385 . S
C3834 C3833 1.374 . S
C3835 C3832 1.499 . S
C3835 C3836 1.373 . S
C3835 C3837 1.389 . S
C3836 H3809 0.950 . S
C3836 C3822 1.377 . S
C3836 C3835 1.373 . S
C3837 C3821 1.377 . S
C3837 C3835 1.389 . S
C3837 C3838 1.524 . S
C3838 C3837 1.524 . S
C3838 C3839 1.397 . S
C3838 C3843 1.363 . S
C3839 H3810 0.950 . S
C3839 C3838 1.397 . S
C3839 C3840 1.334 . S
C3840 H3811 0.950 . S
C3840 C3839 1.334 . S
C3840 C3841 1.287 . S
C3841 C3840 1.287 . S
C3841 C3842 1.524 . S
C3841 H3844 0.999 . S
C3842 H3812 0.950 . S
C3842 C3841 1.524 . S
C3842 C3843 1.415 . S
C3843 H3813 0.950 . S
C3843 C3838 1.363 . S
C3843 C3842 1.415 . S
H3844 C3841 0.999 . S
H3845 C3826 0.913 . S
H3846 C3864 0.951 . S
H3847 C3866 0.951 . S
H3848 C3868 0.950 . S
H3849 C3869 0.950 . S
H3850 C3871 0.950 . S
H3851 C3874 0.950 . S
H3852 C3875 0.950 . S
H3853 C3877 0.950 . S
H3854 C3878 0.950 . S
H3855 C3879 0.951 . S
H3856 C3881 0.951 . S
H3857 C3883 0.950 . S
H3858 C3884 0.950 . S
H3859 C3886 0.950 . S
H3860 C3889 0.950 . S
H3861 C3890 0.950 . S
H3862 C3892 0.950 . S
H3863 C3893 0.950 . S
C3864 H3846 0.951 . S
C3864 C3865 1.366 . S
C3864 C3866 1.388 . S
C3865 C3864 1.366 . S
C3865 C3869 1.385 . S
C3866 H3847 0.951 . S
C3866 C3864 1.388 . S
C3866 C3867 1.366 . S
C3867 C3866 1.366 . S
C3867 C3868 1.414 . S
C3867 C3870 1.499 . S
C3868 H3848 0.950 . S
C3868 C3867 1.414 . S
C3868 C3869 1.374 . S
C3869 H3849 0.950 . S
C3869 C3865 1.385 . S
C3869 C3868 1.374 . S
C3870 C3867 1.499 . S
C3870 C3871 1.373 . S
C3870 C3872 1.389 . S
C3871 H3850 0.950 . S
C3871 C3870 1.373 . S
C3871 C3887 1.377 . S
C3872 C3870 1.389 . S
C3872 C3873 1.524 . S
C3872 C3886 1.377 . S
C3873 C3872 1.524 . S
C3873 C3874 1.397 . S
C3873 C3878 1.363 . S
C3874 H3851 0.950 . S
C3874 C3873 1.397 . S
C3874 C3875 1.334 . S
C3875 H3852 0.950 . S
C3875 C3874 1.334 . S
C3875 C3876 1.287 . S
C3876 C3875 1.287 . S
C3876 C3877 1.524 . S
C3876 H3895 0.913 . S
C3877 H3853 0.950 . S
C3877 C3876 1.524 . S
C3877 C3878 1.415 . S
C3878 H3854 0.950 . S
C3878 C3873 1.363 . S
C3878 C3877 1.415 . S
C3879 H3855 0.951 . S
C3879 C3880 1.366 . S
C3879 C3881 1.388 . S
C3880 C3879 1.366 . S
C3880 C3884 1.385 . S
C3881 H3856 0.951 . S
C3881 C3879 1.388 . S
C3881 C3882 1.366 . S
C3882 C3881 1.366 . S
C3882 C3883 1.414 . S
C3882 C3885 1.499 . S
C3883 H3857 0.950 . S
C3883 C3882 1.414 . S
C3883 C3884 1.374 . S
C3884 H3858 0.950 . S
C3884 C3880 1.385 . S
C3884 C3883 1.374 . S
C3885 C3882 1.499 . S
C3885 C3886 1.373 . S
C3885 C3887 1.389 . S
C3886 H3859 0.950 . S
C3886 C3872 1.377 . S
C3886 C3885 1.373 . S
C3887 C3871 1.377 . S
C3887 C3885 1.389 . S
C3887 C3888 1.524 . S
C3888 C3887 1.524 . S
C3888 C3889 1.397 . S
C3888 C3893 1.363 . S
C3889 H3860 0.950 . S
C3889 C3888 1.397 . S
C3889 C3890 1.334 . S
C3890 H3861 0.950 . S
C3890 C3889 1.334 . S
C3890 C3891 1.287 . S
C3891 C3890 1.287 . S
C3891 C3892 1.524 . S
C3891 H3894 0.999 . S
C3892 H3862 0.950 . S
C3892 C3891 1.524 . S
C3892 C3893 1.415 . S
C3893 H3863 0.950 . S
C3893 C3888 1.363 . S
C3893 C3892 1.415 . S
H3894 C3891 0.999 . S
H3895 C3876 0.913 . S
H3896 C3914 0.951 . S
H3897 C3916 0.951 . S
H3898 C3918 0.950 . S
H3899 C3919 0.950 . S
H3900 C3921 0.950 . S
H3901 C3924 0.950 . S
H3902 C3925 0.950 . S
H3903 C3927 0.950 . S
H3904 C3928 0.950 . S
H3905 C3929 0.951 . S
H3906 C3931 0.951 . S
H3907 C3933 0.950 . S
H3908 C3934 0.950 . S
H3909 C3936 0.950 . S
H3910 C3939 0.950 . S
H3911 C3940 0.950 . S
H3912 C3942 0.950 . S
H3913 C3943 0.950 . S
C3914 H3896 0.951 . S
C3914 C3915 1.366 . S
C3914 C3916 1.388 . S
C3915 C3914 1.366 . S
C3915 C3919 1.385 . S
C3916 H3897 0.951 . S
C3916 C3914 1.388 . S
C3916 C3917 1.366 . S
C3917 C3916 1.366 . S
C3917 C3918 1.414 . S
C3917 C3920 1.499 . S
C3918 H3898 0.950 . S
C3918 C3917 1.414 . S
C3918 C3919 1.374 . S
C3919 H3899 0.950 . S
C3919 C3915 1.385 . S
C3919 C3918 1.374 . S
C3920 C3917 1.499 . S
C3920 C3921 1.373 . S
C3920 C3922 1.389 . S
C3921 H3900 0.950 . S
C3921 C3920 1.373 . S
C3921 C3937 1.377 . S
C3922 C3920 1.389 . S
C3922 C3923 1.524 . S
C3922 C3936 1.377 . S
C3923 C3922 1.524 . S
C3923 C3924 1.397 . S
C3923 C3928 1.363 . S
C3924 H3901 0.950 . S
C3924 C3923 1.397 . S
C3924 C3925 1.334 . S
C3925 H3902 0.950 . S
C3925 C3924 1.334 . S
C3925 C3926 1.287 . S
C3926 C3925 1.287 . S
C3926 C3927 1.524 . S
C3926 H3945 0.913 . S
C3927 H3903 0.950 . S
C3927 C3926 1.524 . S
C3927 C3928 1.415 . S
C3928 H3904 0.950 . S
C3928 C3923 1.363 . S
C3928 C3927 1.415 . S
C3929 H3905 0.951 . S
C3929 C3930 1.366 . S
C3929 C3931 1.388 . S
C3930 C3929 1.366 . S
C3930 C3934 1.385 . S
C3931 H3906 0.951 . S
C3931 C3929 1.388 . S
C3931 C3932 1.366 . S
C3932 C3931 1.366 . S
C3932 C3933 1.414 . S
C3932 C3935 1.499 . S
C3933 H3907 0.950 . S
C3933 C3932 1.414 . S
C3933 C3934 1.374 . S
C3934 H3908 0.950 . S
C3934 C3930 1.385 . S
C3934 C3933 1.374 . S
C3935 C3932 1.499 . S
C3935 C3936 1.373 . S
C3935 C3937 1.389 . S
C3936 H3909 0.950 . S
C3936 C3922 1.377 . S
C3936 C3935 1.373 . S
C3937 C3921 1.377 . S
C3937 C3935 1.389 . S
C3937 C3938 1.524 . S
C3938 C3937 1.524 . S
C3938 C3939 1.397 . S
C3938 C3943 1.363 . S
C3939 H3910 0.950 . S
C3939 C3938 1.397 . S
C3939 C3940 1.334 . S
C3940 H3911 0.950 . S
C3940 C3939 1.334 . S
C3940 C3941 1.287 . S
C3941 C3940 1.287 . S
C3941 C3942 1.524 . S
C3941 H3944 0.999 . S
C3942 H3912 0.950 . S
C3942 C3941 1.524 . S
C3942 C3943 1.415 . S
C3943 H3913 0.950 . S
C3943 C3938 1.363 . S
C3943 C3942 1.415 . S
H3944 C3941 0.999 . S
H3945 C3926 0.913 . S
H3946 C3964 0.951 . S
H3947 C3966 0.951 . S
H3948 C3968 0.950 . S
H3949 C3969 0.950 . S
H3950 C3971 0.950 . S
H3951 C3974 0.950 . S
H3952 C3975 0.950 . S
H3953 C3977 0.950 . S
H3954 C3978 0.950 . S
H3955 C3979 0.951 . S
H3956 C3981 0.951 . S
H3957 C3983 0.950 . S
H3958 C3984 0.950 . S
H3959 C3986 0.950 . S
H3960 C3989 0.950 . S
H3961 C3990 0.950 . S
H3962 C3992 0.950 . S
H3963 C3993 0.950 . S
C3964 H3946 0.951 . S
C3964 C3965 1.366 . S
C3964 C3966 1.388 . S
C3965 C3964 1.366 . S
C3965 C3969 1.385 . S
C3966 H3947 0.951 . S
C3966 C3964 1.388 . S
C3966 C3967 1.366 . S
C3967 C3966 1.366 . S
C3967 C3968 1.414 . S
C3967 C3970 1.499 . S
C3968 H3948 0.950 . S
C3968 C3967 1.414 . S
C3968 C3969 1.374 . S
C3969 H3949 0.950 . S
C3969 C3965 1.385 . S
C3969 C3968 1.374 . S
C3970 C3967 1.499 . S
C3970 C3971 1.373 . S
C3970 C3972 1.389 . S
C3971 H3950 0.950 . S
C3971 C3970 1.373 . S
C3971 C3987 1.377 . S
C3972 C3970 1.389 . S
C3972 C3973 1.524 . S
C3972 C3986 1.377 . S
C3973 C3972 1.524 . S
C3973 C3974 1.397 . S
C3973 C3978 1.363 . S
C3974 H3951 0.950 . S
C3974 C3973 1.397 . S
C3974 C3975 1.334 . S
C3975 H3952 0.950 . S
C3975 C3974 1.334 . S
C3975 C3976 1.287 . S
C3976 C3975 1.287 . S
C3976 C3977 1.524 . S
C3976 H3995 0.913 . S
C3977 H3953 0.950 . S
C3977 C3976 1.524 . S
C3977 C3978 1.415 . S
C3978 H3954 0.950 . S
C3978 C3973 1.363 . S
C3978 C3977 1.415 . S
C3979 H3955 0.951 . S
C3979 C3980 1.366 . S
C3979 C3981 1.388 . S
C3980 C3979 1.366 . S
C3980 C3984 1.385 . S
C3981 H3956 0.951 . S
C3981 C3979 1.388 . S
C3981 C3982 1.366 . S
C3982 C3981 1.366 . S
C3982 C3983 1.414 . S
C3982 C3985 1.499 . S
C3983 H3957 0.950 . S
C3983 C3982 1.414 . S
C3983 C3984 1.374 . S
C3984 H3958 0.950 . S
C3984 C3980 1.385 . S
C3984 C3983 1.374 . S
C3985 C3982 1.499 . S
C3985 C3986 1.373 . S
C3985 C3987 1.389 . S
C3986 H3959 0.950 . S
C3986 C3972 1.377 . S
C3986 C3985 1.373 . S
C3987 C3971 1.377 . S
C3987 C3985 1.389 . S
C3987 C3988 1.524 . S
C3988 C3987 1.524 . S
C3988 C3989 1.397 . S
C3988 C3993 1.363 . S
C3989 H3960 0.950 . S
C3989 C3988 1.397 . S
C3989 C3990 1.334 . S
C3990 H3961 0.950 . S
C3990 C3989 1.334 . S
C3990 C3991 1.287 . S
C3991 C3990 1.287 . S
C3991 C3992 1.524 . S
C3991 H3994 0.999 . S
C3992 H3962 0.950 . S
C3992 C3991 1.524 . S
C3992 C3993 1.415 . S
C3993 H3963 0.950 . S
C3993 C3988 1.363 . S
C3993 C3992 1.415 . S
H3994 C3991 0.999 . S
H3995 C3976 0.913 . S
H3996 C4014 0.951 . S
H3997 C4016 0.951 . S
H3998 C4018 0.950 . S
H3999 C4019 0.950 . S
H4000 C4021 0.950 . S
H4001 C4024 0.950 . S
H4002 C4025 0.950 . S
H4003 C4027 0.950 . S
H4004 C4028 0.950 . S
H4005 C4029 0.951 . S
H4006 C4031 0.951 . S
H4007 C4033 0.950 . S
H4008 C4034 0.950 . S
H4009 C4036 0.950 . S
H4010 C4039 0.950 . S
H4011 C4040 0.950 . S
H4012 C4042 0.950 . S
H4013 C4043 0.950 . S
C4014 H3996 0.951 . S
C4014 C4015 1.366 . S
C4014 C4016 1.388 . S
C4015 C4014 1.366 . S
C4015 C4019 1.385 . S
C4016 H3997 0.951 . S
C4016 C4014 1.388 . S
C4016 C4017 1.366 . S
C4017 C4016 1.366 . S
C4017 C4018 1.414 . S
C4017 C4020 1.499 . S
C4018 H3998 0.950 . S
C4018 C4017 1.414 . S
C4018 C4019 1.374 . S
C4019 H3999 0.950 . S
C4019 C4015 1.385 . S
C4019 C4018 1.374 . S
C4020 C4017 1.499 . S
C4020 C4021 1.373 . S
C4020 C4022 1.389 . S
C4021 H4000 0.950 . S
C4021 C4020 1.373 . S
C4021 C4037 1.377 . S
C4022 C4020 1.389 . S
C4022 C4023 1.524 . S
C4022 C4036 1.377 . S
C4023 C4022 1.524 . S
C4023 C4024 1.397 . S
C4023 C4028 1.363 . S
C4024 H4001 0.950 . S
C4024 C4023 1.397 . S
C4024 C4025 1.334 . S
C4025 H4002 0.950 . S
C4025 C4024 1.334 . S
C4025 C4026 1.287 . S
C4026 C4025 1.287 . S
C4026 C4027 1.524 . S
C4026 H4045 0.913 . S
C4027 H4003 0.950 . S
C4027 C4026 1.524 . S
C4027 C4028 1.415 . S
C4028 H4004 0.950 . S
C4028 C4023 1.363 . S
C4028 C4027 1.415 . S
C4029 H4005 0.951 . S
C4029 C4030 1.366 . S
C4029 C4031 1.388 . S
C4030 C4029 1.366 . S
C4030 C4034 1.385 . S
C4031 H4006 0.951 . S
C4031 C4029 1.388 . S
C4031 C4032 1.366 . S
C4032 C4031 1.366 . S
C4032 C4033 1.414 . S
C4032 C4035 1.499 . S
C4033 H4007 0.950 . S
C4033 C4032 1.414 . S
C4033 C4034 1.374 . S
C4034 H4008 0.950 . S
C4034 C4030 1.385 . S
C4034 C4033 1.374 . S
C4035 C4032 1.499 . S
C4035 C4036 1.373 . S
C4035 C4037 1.389 . S
C4036 H4009 0.950 . S
C4036 C4022 1.377 . S
C4036 C4035 1.373 . S
C4037 C4021 1.377 . S
C4037 C4035 1.389 . S
C4037 C4038 1.524 . S
C4038 C4037 1.524 . S
C4038 C4039 1.397 . S
C4038 C4043 1.363 . S
C4039 H4010 0.950 . S
C4039 C4038 1.397 . S
C4039 C4040 1.334 . S
C4040 H4011 0.950 . S
C4040 C4039 1.334 . S
C4040 C4041 1.287 . S
C4041 C4040 1.287 . S
C4041 C4042 1.524 . S
C4041 H4044 0.999 . S
C4042 H4012 0.950 . S
C4042 C4041 1.524 . S
C4042 C4043 1.415 . S
C4043 H4013 0.950 . S
C4043 C4038 1.363 . S
C4043 C4042 1.415 . S
H4044 C4041 0.999 . S
H4045 C4026 0.913 . S
H4046 C4064 0.951 . S
H4047 C4066 0.951 . S
H4048 C4068 0.950 . S
H4049 C4069 0.950 . S
H4050 C4071 0.950 . S
H4051 C4074 0.950 . S
H4052 C4075 0.950 . S
H4053 C4077 0.950 . S
H4054 C4078 0.950 . S
H4055 C4079 0.951 . S
H4056 C4081 0.951 . S
H4057 C4083 0.950 . S
H4058 C4084 0.950 . S
H4059 C4086 0.950 . S
H4060 C4089 0.950 . S
H4061 C4090 0.950 . S
H4062 C4092 0.950 . S
H4063 C4093 0.950 . S
C4064 H4046 0.951 . S
C4064 C4065 1.366 . S
C4064 C4066 1.388 . S
C4065 C4064 1.366 . S
C4065 C4069 1.385 . S
C4066 H4047 0.951 . S
C4066 C4064 1.388 . S
C4066 C4067 1.366 . S
C4067 C4066 1.366 . S
C4067 C4068 1.414 . S
C4067 C4070 1.499 . S
C4068 H4048 0.950 . S
C4068 C4067 1.414 . S
C4068 C4069 1.374 . S
C4069 H4049 0.950 . S
C4069 C4065 1.385 . S
C4069 C4068 1.374 . S
C4070 C4067 1.499 . S
C4070 C4071 1.373 . S
C4070 C4072 1.389 . S
C4071 H4050 0.950 . S
C4071 C4070 1.373 . S
C4071 C4087 1.377 . S
C4072 C4070 1.389 . S
C4072 C4073 1.524 . S
C4072 C4086 1.377 . S
C4073 C4072 1.524 . S
C4073 C4074 1.397 . S
C4073 C4078 1.363 . S
C4074 H4051 0.950 . S
C4074 C4073 1.397 . S
C4074 C4075 1.334 . S
C4075 H4052 0.950 . S
C4075 C4074 1.334 . S
C4075 C4076 1.287 . S
C4076 C4075 1.287 . S
C4076 C4077 1.524 . S
C4076 H4095 0.913 . S
C4077 H4053 0.950 . S
C4077 C4076 1.524 . S
C4077 C4078 1.415 . S
C4078 H4054 0.950 . S
C4078 C4073 1.363 . S
C4078 C4077 1.415 . S
C4079 H4055 0.951 . S
C4079 C4080 1.366 . S
C4079 C4081 1.388 . S
C4080 C4079 1.366 . S
C4080 C4084 1.385 . S
C4081 H4056 0.951 . S
C4081 C4079 1.388 . S
C4081 C4082 1.366 . S
C4082 C4081 1.366 . S
C4082 C4083 1.414 . S
C4082 C4085 1.499 . S
C4083 H4057 0.950 . S
C4083 C4082 1.414 . S
C4083 C4084 1.374 . S
C4084 H4058 0.950 . S
C4084 C4080 1.385 . S
C4084 C4083 1.374 . S
C4085 C4082 1.499 . S
C4085 C4086 1.373 . S
C4085 C4087 1.389 . S
C4086 H4059 0.950 . S
C4086 C4072 1.377 . S
C4086 C4085 1.373 . S
C4087 C4071 1.377 . S
C4087 C4085 1.389 . S
C4087 C4088 1.524 . S
C4088 C4087 1.524 . S
C4088 C4089 1.397 . S
C4088 C4093 1.363 . S
C4089 H4060 0.950 . S
C4089 C4088 1.397 . S
C4089 C4090 1.334 . S
C4090 H4061 0.950 . S
C4090 C4089 1.334 . S
C4090 C4091 1.287 . S
C4091 C4090 1.287 . S
C4091 C4092 1.524 . S
C4091 H4094 0.999 . S
C4092 H4062 0.950 . S
C4092 C4091 1.524 . S
C4092 C4093 1.415 . S
C4093 H4063 0.950 . S
C4093 C4088 1.363 . S
C4093 C4092 1.415 . S
H4094 C4091 0.999 . S
H4095 C4076 0.913 . S
H4096 C4114 0.951 . S
H4097 C4116 0.951 . S
H4098 C4118 0.950 . S
H4099 C4119 0.950 . S
H4100 C4121 0.950 . S
H4101 C4124 0.950 . S
H4102 C4125 0.950 . S
H4103 C4127 0.950 . S
H4104 C4128 0.950 . S
H4105 C4129 0.951 . S
H4106 C4131 0.951 . S
H4107 C4133 0.950 . S
H4108 C4134 0.950 . S
H4109 C4136 0.950 . S
H4110 C4139 0.950 . S
H4111 C4140 0.950 . S
H4112 C4142 0.950 . S
H4113 C4143 0.950 . S
C4114 H4096 0.951 . S
C4114 C4115 1.366 . S
C4114 C4116 1.388 . S
C4115 C4114 1.366 . S
C4115 C4119 1.385 . S
C4116 H4097 0.951 . S
C4116 C4114 1.388 . S
C4116 C4117 1.366 . S
C4117 C4116 1.366 . S
C4117 C4118 1.414 . S
C4117 C4120 1.499 . S
C4118 H4098 0.950 . S
C4118 C4117 1.414 . S
C4118 C4119 1.374 . S
C4119 H4099 0.950 . S
C4119 C4115 1.385 . S
C4119 C4118 1.374 . S
C4120 C4117 1.499 . S
C4120 C4121 1.373 . S
C4120 C4122 1.389 . S
C4121 H4100 0.950 . S
C4121 C4120 1.373 . S
C4121 C4137 1.377 . S
C4122 C4120 1.389 . S
C4122 C4123 1.524 . S
C4122 C4136 1.377 . S
C4123 C4122 1.524 . S
C4123 C4124 1.397 . S
C4123 C4128 1.363 . S
C4124 H4101 0.950 . S
C4124 C4123 1.397 . S
C4124 C4125 1.334 . S
C4125 H4102 0.950 . S
C4125 C4124 1.334 . S
C4125 C4126 1.287 . S
C4126 C4125 1.287 . S
C4126 C4127 1.524 . S
C4126 H4145 0.913 . S
C4127 H4103 0.950 . S
C4127 C4126 1.524 . S
C4127 C4128 1.415 . S
C4128 H4104 0.950 . S
C4128 C4123 1.363 . S
C4128 C4127 1.415 . S
C4129 H4105 0.951 . S
C4129 C4130 1.366 . S
C4129 C4131 1.388 . S
C4130 C4129 1.366 . S
C4130 C4134 1.385 . S
C4131 H4106 0.951 . S
C4131 C4129 1.388 . S
C4131 C4132 1.366 . S
C4132 C4131 1.366 . S
C4132 C4133 1.414 . S
C4132 C4135 1.499 . S
C4133 H4107 0.950 . S
C4133 C4132 1.414 . S
C4133 C4134 1.374 . S
C4134 H4108 0.950 . S
C4134 C4130 1.385 . S
C4134 C4133 1.374 . S
C4135 C4132 1.499 . S
C4135 C4136 1.373 . S
C4135 C4137 1.389 . S
C4136 H4109 0.950 . S
C4136 C4122 1.377 . S
C4136 C4135 1.373 . S
C4137 C4121 1.377 . S
C4137 C4135 1.389 . S
C4137 C4138 1.524 . S
C4138 C4137 1.524 . S
C4138 C4139 1.397 . S
C4138 C4143 1.363 . S
C4139 H4110 0.950 . S
C4139 C4138 1.397 . S
C4139 C4140 1.334 . S
C4140 H4111 0.950 . S
C4140 C4139 1.334 . S
C4140 C4141 1.287 . S
C4141 C4140 1.287 . S
C4141 C4142 1.524 . S
C4141 H4144 0.999 . S
C4142 H4112 0.950 . S
C4142 C4141 1.524 . S
C4142 C4143 1.415 . S
C4143 H4113 0.950 . S
C4143 C4138 1.363 . S
C4143 C4142 1.415 . S
H4144 C4141 0.999 . S
H4145 C4126 0.913 . S
H4146 C4164 0.951 . S
H4147 C4166 0.951 . S
H4148 C4168 0.950 . S
H4149 C4169 0.950 . S
H4150 C4171 0.950 . S
H4151 C4174 0.950 . S
H4152 C4175 0.950 . S
H4153 C4177 0.950 . S
H4154 C4178 0.950 . S
H4155 C4179 0.951 . S
H4156 C4181 0.951 . S
H4157 C4183 0.950 . S
H4158 C4184 0.950 . S
H4159 C4186 0.950 . S
H4160 C4189 0.950 . S
H4161 C4190 0.950 . S
H4162 C4192 0.950 . S
H4163 C4193 0.950 . S
C4164 H4146 0.951 . S
C4164 C4165 1.366 . S
C4164 C4166 1.388 . S
C4165 C4164 1.366 . S
C4165 C4169 1.385 . S
C4166 H4147 0.951 . S
C4166 C4164 1.388 . S
C4166 C4167 1.366 . S
C4167 C4166 1.366 . S
C4167 C4168 1.414 . S
C4167 C4170 1.499 . S
C4168 H4148 0.950 . S
C4168 C4167 1.414 . S
C4168 C4169 1.374 . S
C4169 H4149 0.950 . S
C4169 C4165 1.385 . S
C4169 C4168 1.374 . S
C4170 C4167 1.499 . S
C4170 C4171 1.373 . S
C4170 C4172 1.389 . S
C4171 H4150 0.950 . S
C4171 C4170 1.373 . S
C4171 C4187 1.377 . S
C4172 C4170 1.389 . S
C4172 C4173 1.524 . S
C4172 C4186 1.377 . S
C4173 C4172 1.524 . S
C4173 C4174 1.397 . S
C4173 C4178 1.363 . S
C4174 H4151 0.950 . S
C4174 C4173 1.397 . S
C4174 C4175 1.334 . S
C4175 H4152 0.950 . S
C4175 C4174 1.334 . S
C4175 C4176 1.287 . S
C4176 C4175 1.287 . S
C4176 C4177 1.524 . S
C4176 H4195 0.913 . S
C4177 H4153 0.950 . S
C4177 C4176 1.524 . S
C4177 C4178 1.415 . S
C4178 H4154 0.950 . S
C4178 C4173 1.363 . S
C4178 C4177 1.415 . S
C4179 H4155 0.951 . S
C4179 C4180 1.366 . S
C4179 C4181 1.388 . S
C4180 C4179 1.366 . S
C4180 C4184 1.385 . S
C4181 H4156 0.951 . S
C4181 C4179 1.388 . S
C4181 C4182 1.366 . S
C4182 C4181 1.366 . S
C4182 C4183 1.414 . S
C4182 C4185 1.499 . S
C4183 H4157 0.950 . S
C4183 C4182 1.414 . S
C4183 C4184 1.374 . S
C4184 H4158 0.950 . S
C4184 C4180 1.385 . S
C4184 C4183 1.374 . S
C4185 C4182 1.499 . S
C4185 C4186 1.373 . S
C4185 C4187 1.389 . S
C4186 H4159 0.950 . S
C4186 C4172 1.377 . S
C4186 C4185 1.373 . S
C4187 C4171 1.377 . S
C4187 C4185 1.389 . S
C4187 C4188 1.524 . S
C4188 C4187 1.524 . S
C4188 C4189 1.397 . S
C4188 C4193 1.363 . S
C4189 H4160 0.950 . S
C4189 C4188 1.397 . S
C4189 C4190 1.334 . S
C4190 H4161 0.950 . S
C4190 C4189 1.334 . S
C4190 C4191 1.287 . S
C4191 C4190 1.287 . S
C4191 C4192 1.524 . S
C4191 H4194 0.999 . S
C4192 H4162 0.950 . S
C4192 C4191 1.524 . S
C4192 C4193 1.415 . S
C4193 H4163 0.950 . S
C4193 C4188 1.363 . S
C4193 C4192 1.415 . S
H4194 C4191 0.999 . S
H4195 C4176 0.913 . S
H4196 C4214 0.951 . S
H4197 C4216 0.951 . S
H4198 C4218 0.950 . S
H4199 C4219 0.950 . S
H4200 C4221 0.950 . S
H4201 C4224 0.950 . S
H4202 C4225 0.950 . S
H4203 C4227 0.950 . S
H4204 C4228 0.950 . S
H4205 C4229 0.951 . S
H4206 C4231 0.951 . S
H4207 C4233 0.950 . S
H4208 C4234 0.950 . S
H4209 C4236 0.950 . S
H4210 C4239 0.950 . S
H4211 C4240 0.950 . S
H4212 C4242 0.950 . S
H4213 C4243 0.950 . S
C4214 H4196 0.951 . S
C4214 C4215 1.366 . S
C4214 C4216 1.388 . S
C4215 C4214 1.366 . S
C4215 C4219 1.385 . S
C4216 H4197 0.951 . S
C4216 C4214 1.388 . S
C4216 C4217 1.366 . S
C4217 C4216 1.366 . S
C4217 C4218 1.414 . S
C4217 C4220 1.499 . S
C4218 H4198 0.950 . S
C4218 C4217 1.414 . S
C4218 C4219 1.374 . S
C4219 H4199 0.950 . S
C4219 C4215 1.385 . S
C4219 C4218 1.374 . S
C4220 C4217 1.499 . S
C4220 C4221 1.373 . S
C4220 C4222 1.389 . S
C4221 H4200 0.950 . S
C4221 C4220 1.373 . S
C4221 C4237 1.377 . S
C4222 C4220 1.389 . S
C4222 C4223 1.524 . S
C4222 C4236 1.377 . S
C4223 C4222 1.524 . S
C4223 C4224 1.397 . S
C4223 C4228 1.363 . S
C4224 H4201 0.950 . S
C4224 C4223 1.397 . S
C4224 C4225 1.334 . S
C4225 H4202 0.950 . S
C4225 C4224 1.334 . S
C4225 C4226 1.287 . S
C4226 C4225 1.287 . S
C4226 C4227 1.524 . S
C4226 H4245 0.913 . S
C4227 H4203 0.950 . S
C4227 C4226 1.524 . S
C4227 C4228 1.415 . S
C4228 H4204 0.950 . S
C4228 C4223 1.363 . S
C4228 C4227 1.415 . S
C4229 H4205 0.951 . S
C4229 C4230 1.366 . S
C4229 C4231 1.388 . S
C4230 C4229 1.366 . S
C4230 C4234 1.385 . S
C4231 H4206 0.951 . S
C4231 C4229 1.388 . S
C4231 C4232 1.366 . S
C4232 C4231 1.366 . S
C4232 C4233 1.414 . S
C4232 C4235 1.499 . S
C4233 H4207 0.950 . S
C4233 C4232 1.414 . S
C4233 C4234 1.374 . S
C4234 H4208 0.950 . S
C4234 C4230 1.385 . S
C4234 C4233 1.374 . S
C4235 C4232 1.499 . S
C4235 C4236 1.373 . S
C4235 C4237 1.389 . S
C4236 H4209 0.950 . S
C4236 C4222 1.377 . S
C4236 C4235 1.373 . S
C4237 C4221 1.377 . S
C4237 C4235 1.389 . S
C4237 C4238 1.524 . S
C4238 C4237 1.524 . S
C4238 C4239 1.397 . S
C4238 C4243 1.363 . S
C4239 H4210 0.950 . S
C4239 C4238 1.397 . S
C4239 C4240 1.334 . S
C4240 H4211 0.950 . S
C4240 C4239 1.334 . S
C4240 C4241 1.287 . S
C4241 C4240 1.287 . S
C4241 C4242 1.524 . S
C4241 H4244 0.999 . S
C4242 H4212 0.950 . S
C4242 C4241 1.524 . S
C4242 C4243 1.415 . S
C4243 H4213 0.950 . S
C4243 C4238 1.363 . S
C4243 C4242 1.415 . S
H4244 C4241 0.999 . S
H4245 C4226 0.913 . S
H4246 C4264 0.951 . S
H4247 C4266 0.951 . S
H4248 C4268 0.950 . S
H4249 C4269 0.950 . S
H4250 C4271 0.950 . S
H4251 C4274 0.950 . S
H4252 C4275 0.950 . S
H4253 C4277 0.950 . S
H4254 C4278 0.950 . S
H4255 C4279 0.951 . S
H4256 C4281 0.951 . S
H4257 C4283 0.950 . S
H4258 C4284 0.950 . S
H4259 C4286 0.950 . S
H4260 C4289 0.950 . S
H4261 C4290 0.950 . S
H4262 C4292 0.950 . S
H4263 C4293 0.950 . S
C4264 H4246 0.951 . S
C4264 C4265 1.366 . S
C4264 C4266 1.388 . S
C4265 C4264 1.366 . S
C4265 C4269 1.385 . S
C4266 H4247 0.951 . S
C4266 C4264 1.388 . S
C4266 C4267 1.366 . S
C4267 C4266 1.366 . S
C4267 C4268 1.414 . S
C4267 C4270 1.499 . S
C4268 H4248 0.950 . S
C4268 C4267 1.414 . S
C4268 C4269 1.374 . S
C4269 H4249 0.950 . S
C4269 C4265 1.385 . S
C4269 C4268 1.374 . S
C4270 C4267 1.499 . S
C4270 C4271 1.373 . S
C4270 C4272 1.389 . S
C4271 H4250 0.950 . S
C4271 C4270 1.373 . S
C4271 C4287 1.377 . S
C4272 C4270 1.389 . S
C4272 C4273 1.524 . S
C4272 C4286 1.377 . S
C4273 C4272 1.524 . S
C4273 C4274 1.397 . S
C4273 C4278 1.363 . S
C4274 H4251 0.950 . S
C4274 C4273 1.397 . S
C4274 C4275 1.334 . S
C4275 H4252 0.950 . S
C4275 C4274 1.334 . S
C4275 C4276 1.287 . S
C4276 C4275 1.287 . S
C4276 C4277 1.524 . S
C4276 H4295 0.913 . S
C4277 H4253 0.950 . S
C4277 C4276 1.524 . S
C4277 C4278 1.415 . S
C4278 H4254 0.950 . S
C4278 C4273 1.363 . S
C4278 C4277 1.415 . S
C4279 H4255 0.951 . S
C4279 C4280 1.366 . S
C4279 C4281 1.388 . S
C4280 C4279 1.366 . S
C4280 C4284 1.385 . S
C4281 H4256 0.951 . S
C4281 C4279 1.388 . S
C4281 C4282 1.366 . S
C4282 C4281 1.366 . S
C4282 C4283 1.414 . S
C4282 C4285 1.499 . S
C4283 H4257 0.950 . S
C4283 C4282 1.414 . S
C4283 C4284 1.374 . S
C4284 H4258 0.950 . S
C4284 C4280 1.385 . S
C4284 C4283 1.374 . S
C4285 C4282 1.499 . S
C4285 C4286 1.373 . S
C4285 C4287 1.389 . S
C4286 H4259 0.950 . S
C4286 C4272 1.377 . S
C4286 C4285 1.373 . S
C4287 C4271 1.377 . S
C4287 C4285 1.389 . S
C4287 C4288 1.524 . S
C4288 C4287 1.524 . S
C4288 C4289 1.397 . S
C4288 C4293 1.363 . S
C4289 H4260 0.950 . S
C4289 C4288 1.397 . S
C4289 C4290 1.334 . S
C4290 H4261 0.950 . S
C4290 C4289 1.334 . S
C4290 C4291 1.287 . S
C4291 C4290 1.287 . S
C4291 C4292 1.524 . S
C4291 H4294 0.999 . S
C4292 H4262 0.950 . S
C4292 C4291 1.524 . S
C4292 C4293 1.415 . S
C4293 H4263 0.950 . S
C4293 C4288 1.363 . S
C4293 C4292 1.415 . S
H4294 C4291 0.999 . S
H4295 C4276 0.913 . S
H4296 C4314 0.951 . S
H4297 C4316 0.951 . S
H4298 C4318 0.950 . S
H4299 C4319 0.950 . S
H4300 C4321 0.950 . S
H4301 C4324 0.950 . S
H4302 C4325 0.950 . S
H4303 C4327 0.950 . S
H4304 C4328 0.950 . S
H4305 C4329 0.951 . S
H4306 C4331 0.951 . S
H4307 C4333 0.950 . S
H4308 C4334 0.950 . S
H4309 C4336 0.950 . S
H4310 C4339 0.950 . S
H4311 C4340 0.950 . S
H4312 C4342 0.950 . S
H4313 C4343 0.950 . S
C4314 H4296 0.951 . S
C4314 C4315 1.366 . S
C4314 C4316 1.388 . S
C4315 C4314 1.366 . S
C4315 C4319 1.385 . S
C4316 H4297 0.951 . S
C4316 C4314 1.388 . S
C4316 C4317 1.366 . S
C4317 C4316 1.366 . S
C4317 C4318 1.414 . S
C4317 C4320 1.499 . S
C4318 H4298 0.950 . S
C4318 C4317 1.414 . S
C4318 C4319 1.374 . S
C4319 H4299 0.950 . S
C4319 C4315 1.385 . S
C4319 C4318 1.374 . S
C4320 C4317 1.499 . S
C4320 C4321 1.373 . S
C4320 C4322 1.389 . S
C4321 H4300 0.950 . S
C4321 C4320 1.373 . S
C4321 C4337 1.377 1_655 S
C4322 C4320 1.389 . S
C4322 C4323 1.524 . S
C4322 C4336 1.377 1_655 S
C4323 C4322 1.524 . S
C4323 C4324 1.397 . S
C4323 C4328 1.363 1_655 S
C4324 H4301 0.950 . S
C4324 C4323 1.397 . S
C4324 C4325 1.334 . S
C4325 H4302 0.950 . S
C4325 C4324 1.334 . S
C4325 C4326 1.287 . S
C4326 C4325 1.287 . S
C4326 C4327 1.524 1_655 S
C4326 H4345 0.913 . S
C4327 H4303 0.950 . S
C4327 C4326 1.524 1_455 S
C4327 C4328 1.415 . S
C4328 H4304 0.950 . S
C4328 C4323 1.363 1_455 S
C4328 C4327 1.415 . S
C4329 H4305 0.951 . S
C4329 C4330 1.366 . S
C4329 C4331 1.388 . S
C4330 C4329 1.366 . S
C4330 C4334 1.385 . S
C4331 H4306 0.951 . S
C4331 C4329 1.388 . S
C4331 C4332 1.366 . S
C4332 C4331 1.366 . S
C4332 C4333 1.414 . S
C4332 C4335 1.499 . S
C4333 H4307 0.950 . S
C4333 C4332 1.414 . S
C4333 C4334 1.374 . S
C4334 H4308 0.950 . S
C4334 C4330 1.385 . S
C4334 C4333 1.374 . S
C4335 C4332 1.499 . S
C4335 C4336 1.373 . S
C4335 C4337 1.389 . S
C4336 H4309 0.950 . S
C4336 C4322 1.377 1_455 S
C4336 C4335 1.373 . S
C4337 C4321 1.377 1_455 S
C4337 C4335 1.389 . S
C4337 C4338 1.524 . S
C4338 C4337 1.524 . S
C4338 C4339 1.397 . S
C4338 C4343 1.363 1_455 S
C4339 H4310 0.950 . S
C4339 C4338 1.397 . S
C4339 C4340 1.334 . S
C4340 H4311 0.950 . S
C4340 C4339 1.334 . S
C4340 C4341 1.287 . S
C4341 C4340 1.287 . S
C4341 C4342 1.524 1_455 S
C4341 H4344 0.999 . S
C4342 H4312 0.950 . S
C4342 C4341 1.524 1_655 S
C4342 C4343 1.415 . S
C4343 H4313 0.950 . S
C4343 C4338 1.363 1_655 S
C4343 C4342 1.415 . S
H4344 C4341 0.999 . S
H4345 C4326 0.913 . S
H4346 C4364 0.951 . S
H4347 C4366 0.951 . S
H4348 C4368 0.950 . S
H4349 C4369 0.950 . S
H4350 C4371 0.950 . S
H4351 C4374 0.950 . S
H4352 C4375 0.932 1_565 S
H4353 C4377 0.950 . S
H4354 C4378 0.950 . S
H4355 C4379 0.951 . S
H4356 C4381 0.951 . S
H4357 C4383 0.950 . S
H4358 C4384 0.950 . S
H4359 C4386 0.950 . S
H4360 C4389 0.950 . S
H4361 C4390 0.932 1_545 S
H4362 C4392 0.950 . S
H4363 C4393 0.950 . S
C4364 H4346 0.951 . S
C4364 C4365 1.366 . S
C4364 C4366 1.388 . S
C4365 C4364 1.366 . S
C4365 C4369 1.385 . S
C4366 H4347 0.951 . S
C4366 C4364 1.388 . S
C4366 C4367 1.366 . S
C4367 C4366 1.366 . S
C4367 C4368 1.414 . S
C4367 C4370 1.499 . S
C4368 H4348 0.950 . S
C4368 C4367 1.414 . S
C4368 C4369 1.374 . S
C4369 H4349 0.950 . S
C4369 C4365 1.385 . S
C4369 C4368 1.374 . S
C4370 C4367 1.499 . S
C4370 C4371 1.373 . S
C4370 C4372 1.336 1_565 S
C4371 H4350 0.950 . S
C4371 C4370 1.373 . S
C4371 C4387 1.428 . S
C4372 C4370 1.336 1_545 S
C4372 C4373 1.534 . S
C4372 C4386 1.428 . S
C4373 C4372 1.534 . S
C4373 C4374 1.397 1_545 S
C4373 C4378 1.363 . S
C4374 H4351 0.950 . S
C4374 C4373 1.397 1_565 S
C4374 C4375 1.328 1_565 S
C4375 H4352 0.932 1_545 S
C4375 C4374 1.328 1_545 S
C4375 C4376 1.316 . S
C4376 C4375 1.316 . S
C4376 C4377 1.524 . S
C4376 H4395 0.913 . S
C4377 H4353 0.950 . S
C4377 C4376 1.524 . S
C4377 C4378 1.415 . S
C4378 H4354 0.950 . S
C4378 C4373 1.363 . S
C4378 C4377 1.415 . S
C4379 H4355 0.951 . S
C4379 C4380 1.366 . S
C4379 C4381 1.388 . S
C4380 C4379 1.366 . S
C4380 C4384 1.385 . S
C4381 H4356 0.951 . S
C4381 C4379 1.388 . S
C4381 C4382 1.366 . S
C4382 C4381 1.366 . S
C4382 C4383 1.414 . S
C4382 C4385 1.499 . S
C4383 H4357 0.950 . S
C4383 C4382 1.414 . S
C4383 C4384 1.374 . S
C4384 H4358 0.950 . S
C4384 C4380 1.385 . S
C4384 C4383 1.374 . S
C4385 C4382 1.499 . S
C4385 C4386 1.373 . S
C4385 C4387 1.336 1_545 S
C4386 H4359 0.950 . S
C4386 C4372 1.428 . S
C4386 C4385 1.373 . S
C4387 C4371 1.428 . S
C4387 C4385 1.336 1_565 S
C4387 C4388 1.534 . S
C4388 C4387 1.534 . S
C4388 C4389 1.397 1_565 S
C4388 C4393 1.363 . S
C4389 H4360 0.950 . S
C4389 C4388 1.397 1_545 S
C4389 C4390 1.328 1_545 S
C4390 H4361 0.932 1_565 S
C4390 C4389 1.328 1_565 S
C4390 C4391 1.316 . S
C4391 C4390 1.316 . S
C4391 C4392 1.524 . S
C4391 H4394 0.999 . S
C4392 H4362 0.950 . S
C4392 C4391 1.524 . S
C4392 C4393 1.415 . S
C4393 H4363 0.950 . S
C4393 C4388 1.363 . S
C4393 C4392 1.415 . S
H4394 C4391 0.999 . S
H4395 C4376 0.913 . S
H4396 C4414 0.951 . S
H4397 C4416 0.951 . S
H4398 C4418 0.950 . S
H4399 C4419 0.950 . S
H4400 C4421 0.950 . S
H4401 C4424 0.950 . S
H4402 C4425 0.950 . S
H4403 C4427 0.950 . S
H4404 C4428 0.950 . S
H4405 C4429 0.951 . S
H4406 C4431 0.951 . S
H4407 C4433 0.950 . S
H4408 C4434 0.950 . S
H4409 C4436 0.950 . S
H4410 C4439 0.950 . S
H4411 C4440 0.950 . S
H4412 C4442 0.950 . S
H4413 C4443 0.950 . S
C4414 H4396 0.951 . S
C4414 C4415 1.366 . S
C4414 C4416 1.388 . S
C4415 C4414 1.366 . S
C4415 C4419 1.385 . S
C4416 H4397 0.951 . S
C4416 C4414 1.388 . S
C4416 C4417 1.366 . S
C4417 C4416 1.366 . S
C4417 C4418 1.414 . S
C4417 C4420 1.499 . S
C4418 H4398 0.950 . S
C4418 C4417 1.414 . S
C4418 C4419 1.374 . S
C4419 H4399 0.950 . S
C4419 C4415 1.385 . S
C4419 C4418 1.374 . S
C4420 C4417 1.499 . S
C4420 C4421 1.373 . S
C4420 C4422 1.389 . S
C4421 H4400 0.950 . S
C4421 C4420 1.373 . S
C4421 C4437 1.377 1_655 S
C4422 C4420 1.389 . S
C4422 C4423 1.524 . S
C4422 C4436 1.377 1_655 S
C4423 C4422 1.524 . S
C4423 C4424 1.397 . S
C4423 C4428 1.363 1_655 S
C4424 H4401 0.950 . S
C4424 C4423 1.397 . S
C4424 C4425 1.334 . S
C4425 H4402 0.950 . S
C4425 C4424 1.334 . S
C4425 C4426 1.287 . S
C4426 C4425 1.287 . S
C4426 C4427 1.524 1_655 S
C4426 H4445 0.913 . S
C4427 H4403 0.950 . S
C4427 C4426 1.524 1_455 S
C4427 C4428 1.415 . S
C4428 H4404 0.950 . S
C4428 C4423 1.363 1_455 S
C4428 C4427 1.415 . S
C4429 H4405 0.951 . S
C4429 C4430 1.366 . S
C4429 C4431 1.388 . S
C4430 C4429 1.366 . S
C4430 C4434 1.385 . S
C4431 H4406 0.951 . S
C4431 C4429 1.388 . S
C4431 C4432 1.366 . S
C4432 C4431 1.366 . S
C4432 C4433 1.414 . S
C4432 C4435 1.499 . S
C4433 H4407 0.950 . S
C4433 C4432 1.414 . S
C4433 C4434 1.374 . S
C4434 H4408 0.950 . S
C4434 C4430 1.385 . S
C4434 C4433 1.374 . S
C4435 C4432 1.499 . S
C4435 C4436 1.373 . S
C4435 C4437 1.389 . S
C4436 H4409 0.950 . S
C4436 C4422 1.377 1_455 S
C4436 C4435 1.373 . S
C4437 C4421 1.377 1_455 S
C4437 C4435 1.389 . S
C4437 C4438 1.524 . S
C4438 C4437 1.524 . S
C4438 C4439 1.397 . S
C4438 C4443 1.363 1_455 S
C4439 H4410 0.950 . S
C4439 C4438 1.397 . S
C4439 C4440 1.334 . S
C4440 H4411 0.950 . S
C4440 C4439 1.334 . S
C4440 C4441 1.287 . S
C4441 C4440 1.287 . S
C4441 C4442 1.524 1_455 S
C4441 H4444 0.999 . S
C4442 H4412 0.950 . S
C4442 C4441 1.524 1_655 S
C4442 C4443 1.415 . S
C4443 H4413 0.950 . S
C4443 C4438 1.363 1_655 S
C4443 C4442 1.415 . S
H4444 C4441 0.999 . S
H4445 C4426 0.913 . S
H4446 C4464 0.951 . S
H4447 C4466 0.951 . S
H4448 C4468 0.950 . S
H4449 C4469 0.950 . S
H4450 C4471 0.950 . S
H4451 C4474 0.950 . S
H4452 C4475 0.950 . S
H4453 C4477 0.950 . S
H4454 C4478 0.950 . S
H4455 C4479 0.951 . S
H4456 C4481 0.951 . S
H4457 C4483 0.950 . S
H4458 C4484 0.950 . S
H4459 C4486 0.950 . S
H4460 C4489 0.950 . S
H4461 C4490 0.950 . S
H4462 C4492 0.950 . S
H4463 C4493 0.950 . S
C4464 H4446 0.951 . S
C4464 C4465 1.366 . S
C4464 C4466 1.388 . S
C4465 C4464 1.366 . S
C4465 C4469 1.385 . S
C4466 H4447 0.951 . S
C4466 C4464 1.388 . S
C4466 C4467 1.366 . S
C4467 C4466 1.366 . S
C4467 C4468 1.414 . S
C4467 C4470 1.499 . S
C4468 H4448 0.950 . S
C4468 C4467 1.414 . S
C4468 C4469 1.374 . S
C4469 H4449 0.950 . S
C4469 C4465 1.385 . S
C4469 C4468 1.374 . S
C4470 C4467 1.499 . S
C4470 C4471 1.373 . S
C4470 C4472 1.389 . S
C4471 H4450 0.950 . S
C4471 C4470 1.373 . S
C4471 C4487 1.377 1_565 S
C4472 C4470 1.389 . S
C4472 C4473 1.524 . S
C4472 C4486 1.377 1_565 S
C4473 C4472 1.524 . S
C4473 C4474 1.397 . S
C4473 C4478 1.363 . S
C4474 H4451 0.950 . S
C4474 C4473 1.397 . S
C4474 C4475 1.334 . S
C4475 H4452 0.950 . S
C4475 C4474 1.334 . S
C4475 C4476 1.287 . S
C4476 C4475 1.287 . S
C4476 C4477 1.524 . S
C4476 H4495 0.913 . S
C4477 H4453 0.950 . S
C4477 C4476 1.524 . S
C4477 C4478 1.415 . S
C4478 H4454 0.950 . S
C4478 C4473 1.363 . S
C4478 C4477 1.415 . S
C4479 H4455 0.951 . S
C4479 C4480 1.366 . S
C4479 C4481 1.388 . S
C4480 C4479 1.366 . S
C4480 C4484 1.385 . S
C4481 H4456 0.951 . S
C4481 C4479 1.388 . S
C4481 C4482 1.366 . S
C4482 C4481 1.366 . S
C4482 C4483 1.414 . S
C4482 C4485 1.499 . S
C4483 H4457 0.950 . S
C4483 C4482 1.414 . S
C4483 C4484 1.374 . S
C4484 H4458 0.950 . S
C4484 C4480 1.385 . S
C4484 C4483 1.374 . S
C4485 C4482 1.499 . S
C4485 C4486 1.373 . S
C4485 C4487 1.389 . S
C4486 H4459 0.950 . S
C4486 C4472 1.377 1_545 S
C4486 C4485 1.373 . S
C4487 C4471 1.377 1_545 S
C4487 C4485 1.389 . S
C4487 C4488 1.524 . S
C4488 C4487 1.524 . S
C4488 C4489 1.397 . S
C4488 C4493 1.363 . S
C4489 H4460 0.950 . S
C4489 C4488 1.397 . S
C4489 C4490 1.334 . S
C4490 H4461 0.950 . S
C4490 C4489 1.334 . S
C4490 C4491 1.287 . S
C4491 C4490 1.287 . S
C4491 C4492 1.524 . S
C4491 H4494 0.999 . S
C4492 H4462 0.950 . S
C4492 C4491 1.524 . S
C4492 C4493 1.415 . S
C4493 H4463 0.950 . S
C4493 C4488 1.363 . S
C4493 C4492 1.415 . S
H4494 C4491 0.999 . S
H4495 C4476 0.913 . S
H4496 C4514 0.951 . S
H4497 C4516 0.951 . S
H4498 C4518 0.950 . S
H4499 C4519 0.950 . S
H4500 C4521 0.950 . S
H4501 C4524 0.950 . S
H4502 C4525 0.960 . S
H4503 C4527 0.950 . S
H4504 C4528 0.950 . S
H4505 C4529 0.951 . S
H4506 C4531 0.951 . S
H4507 C4533 0.950 . S
H4508 C4534 0.950 . S
H4509 C4536 0.950 . S
H4510 C4539 0.950 . S
H4511 C4540 0.960 . S
H4512 C4542 0.950 . S
H4513 C4543 0.950 . S
C4514 H4496 0.951 . S
C4514 C4515 1.366 . S
C4514 C4516 1.388 . S
C4515 C4514 1.366 . S
C4515 C4519 1.385 . S
C4516 H4497 0.951 . S
C4516 C4514 1.388 . S
C4516 C4517 1.366 . S
C4517 C4516 1.366 . S
C4517 C4518 1.414 . S
C4517 C4520 1.499 . S
C4518 H4498 0.950 . S
C4518 C4517 1.414 . S
C4518 C4519 1.374 . S
C4519 H4499 0.950 . S
C4519 C4515 1.385 . S
C4519 C4518 1.374 . S
C4520 C4517 1.499 . S
C4520 C4521 1.373 . S
C4520 C4522 1.410 . S
C4521 H4500 0.950 . S
C4521 C4520 1.373 . S
C4521 C4537 1.356 1_655 S
C4522 C4520 1.410 . S
C4522 C4523 1.521 1_655 S
C4522 C4536 1.356 1_655 S
C4523 C4522 1.521 1_455 S
C4523 C4524 1.389 1_455 S
C4523 C4528 1.381 . S
C4524 H4501 0.950 . S
C4524 C4523 1.389 1_655 S
C4524 C4525 1.338 . S
C4525 H4502 0.960 . S
C4525 C4524 1.338 . S
C4525 C4526 1.275 1_655 S
C4526 C4525 1.275 1_455 S
C4526 C4527 1.524 . S
C4526 H4545 0.913 . S
C4527 H4503 0.950 . S
C4527 C4526 1.524 . S
C4527 C4528 1.415 . S
C4528 H4504 0.950 . S
C4528 C4523 1.381 . S
C4528 C4527 1.415 . S
C4529 H4505 0.951 . S
C4529 C4530 1.366 . S
C4529 C4531 1.388 . S
C4530 C4529 1.366 . S
C4530 C4534 1.385 . S
C4531 H4506 0.951 . S
C4531 C4529 1.388 . S
C4531 C4532 1.366 . S
C4532 C4531 1.366 . S
C4532 C4533 1.414 . S
C4532 C4535 1.499 . S
C4533 H4507 0.950 . S
C4533 C4532 1.414 . S
C4533 C4534 1.374 . S
C4534 H4508 0.950 . S
C4534 C4530 1.385 . S
C4534 C4533 1.374 . S
C4535 C4532 1.499 . S
C4535 C4536 1.373 . S
C4535 C4537 1.410 . S
C4536 H4509 0.950 . S
C4536 C4522 1.356 1_455 S
C4536 C4535 1.373 . S
C4537 C4521 1.356 1_455 S
C4537 C4535 1.410 . S
C4537 C4538 1.521 1_455 S
C4538 C4537 1.521 1_655 S
C4538 C4539 1.389 1_655 S
C4538 C4543 1.381 . S
C4539 H4510 0.950 . S
C4539 C4538 1.389 1_455 S
C4539 C4540 1.338 . S
C4540 H4511 0.960 . S
C4540 C4539 1.338 . S
C4540 C4541 1.275 1_455 S
C4541 C4540 1.275 1_655 S
C4541 C4542 1.524 . S
C4541 H4544 0.999 . S
C4542 H4512 0.950 . S
C4542 C4541 1.524 . S
C4542 C4543 1.415 . S
C4543 H4513 0.950 . S
C4543 C4538 1.381 . S
C4543 C4542 1.415 . S
H4544 C4541 0.999 . S
H4545 C4526 0.913 . S
H4546 C4564 0.951 . S
H4547 C4566 0.951 . S
H4548 C4568 0.950 . S
H4549 C4569 0.950 . S
H4550 C4571 0.950 . S
H4551 C4574 0.950 . S
H4552 C4575 0.950 . S
H4553 C4577 0.950 . S
H4554 C4578 0.950 . S
H4555 C4579 0.951 . S
H4556 C4581 0.951 . S
H4557 C4583 0.950 . S
H4558 C4584 0.950 . S
H4559 C4586 0.950 . S
H4560 C4589 0.950 . S
H4561 C4590 0.950 . S
H4562 C4592 0.950 . S
H4563 C4593 0.950 . S
C4564 H4546 0.951 . S
C4564 C4565 1.366 . S
C4564 C4566 1.388 . S
C4565 C4564 1.366 . S
C4565 C4569 1.385 . S
C4566 H4547 0.951 . S
C4566 C4564 1.388 . S
C4566 C4567 1.366 . S
C4567 C4566 1.366 . S
C4567 C4568 1.414 . S
C4567 C4570 1.499 . S
C4568 H4548 0.950 . S
C4568 C4567 1.414 . S
C4568 C4569 1.374 . S
C4569 H4549 0.950 . S
C4569 C4565 1.385 . S
C4569 C4568 1.374 . S
C4570 C4567 1.499 . S
C4570 C4571 1.373 . S
C4570 C4572 1.389 . S
C4571 H4550 0.950 . S
C4571 C4570 1.373 . S
C4571 C4587 1.377 1_565 S
C4572 C4570 1.389 . S
C4572 C4573 1.524 . S
C4572 C4586 1.377 1_565 S
C4573 C4572 1.524 . S
C4573 C4574 1.397 . S
C4573 C4578 1.363 . S
C4574 H4551 0.950 . S
C4574 C4573 1.397 . S
C4574 C4575 1.334 . S
C4575 H4552 0.950 . S
C4575 C4574 1.334 . S
C4575 C4576 1.287 . S
C4576 C4575 1.287 . S
C4576 C4577 1.524 . S
C4576 H4595 0.913 . S
C4577 H4553 0.950 . S
C4577 C4576 1.524 . S
C4577 C4578 1.415 . S
C4578 H4554 0.950 . S
C4578 C4573 1.363 . S
C4578 C4577 1.415 . S
C4579 H4555 0.951 . S
C4579 C4580 1.366 . S
C4579 C4581 1.388 . S
C4580 C4579 1.366 . S
C4580 C4584 1.385 . S
C4581 H4556 0.951 . S
C4581 C4579 1.388 . S
C4581 C4582 1.366 . S
C4582 C4581 1.366 . S
C4582 C4583 1.414 . S
C4582 C4585 1.499 . S
C4583 H4557 0.950 . S
C4583 C4582 1.414 . S
C4583 C4584 1.374 . S
C4584 H4558 0.950 . S
C4584 C4580 1.385 . S
C4584 C4583 1.374 . S
C4585 C4582 1.499 . S
C4585 C4586 1.373 . S
C4585 C4587 1.389 . S
C4586 H4559 0.950 . S
C4586 C4572 1.377 1_545 S
C4586 C4585 1.373 . S
C4587 C4571 1.377 1_545 S
C4587 C4585 1.389 . S
C4587 C4588 1.524 . S
C4588 C4587 1.524 . S
C4588 C4589 1.397 . S
C4588 C4593 1.363 . S
C4589 H4560 0.950 . S
C4589 C4588 1.397 . S
C4589 C4590 1.334 . S
C4590 H4561 0.950 . S
C4590 C4589 1.334 . S
C4590 C4591 1.287 . S
C4591 C4590 1.287 . S
C4591 C4592 1.524 . S
C4591 H4594 0.999 . S
C4592 H4562 0.950 . S
C4592 C4591 1.524 . S
C4592 C4593 1.415 . S
C4593 H4563 0.950 . S
C4593 C4588 1.363 . S
C4593 C4592 1.415 . S
H4594 C4591 0.999 . S
H4595 C4576 0.913 . S
H4596 C4614 0.951 . S
H4597 C4616 0.951 . S
H4598 C4618 0.950 . S
H4599 C4619 0.950 . S
H4600 C4621 0.950 . S
H4601 C4624 0.950 . S
H4602 C4625 0.950 . S
H4603 C4627 0.953 . S
H4604 C4628 0.949 1_455 S
H4605 C4629 0.951 . S
H4606 C4631 0.951 . S
H4607 C4633 0.950 . S
H4608 C4634 0.950 . S
H4609 C4636 0.950 . S
H4610 C4639 0.950 . S
H4611 C4640 0.950 . S
H4612 C4642 0.953 . S
H4613 C4643 0.949 1_655 S
C4614 H4596 0.951 . S
C4614 C4615 1.366 . S
C4614 C4616 1.388 . S
C4615 C4614 1.366 . S
C4615 C4619 1.385 . S
C4616 H4597 0.951 . S
C4616 C4614 1.388 . S
C4616 C4617 1.366 . S
C4617 C4616 1.366 . S
C4617 C4618 1.414 . S
C4617 C4620 1.499 . S
C4618 H4598 0.950 . S
C4618 C4617 1.414 . S
C4618 C4619 1.374 . S
C4619 H4599 0.950 . S
C4619 C4615 1.385 . S
C4619 C4618 1.374 . S
C4620 C4617 1.499 . S
C4620 C4621 1.373 . S
C4620 C4622 1.389 . S
C4621 H4600 0.950 . S
C4621 C4620 1.373 . S
C4621 C4637 1.377 1_655 S
C4622 C4620 1.389 . S
C4622 C4623 1.524 . S
C4622 C4636 1.377 1_655 S
C4623 C4622 1.524 . S
C4623 C4624 1.397 . S
C4623 C4628 1.363 . S
C4624 H4601 0.950 . S
C4624 C4623 1.397 . S
C4624 C4625 1.334 . S
C4625 H4602 0.950 . S
C4625 C4624 1.334 . S
C4625 C4626 1.287 . S
C4626 C4625 1.287 . S
C4626 C4627 1.524 . S
C4626 H4645 0.913 . S
C4627 H4603 0.953 . S
C4627 C4626 1.524 . S
C4627 C4628 1.415 . S
C4628 H4604 0.949 1_655 S
C4628 C4623 1.363 . S
C4628 C4627 1.415 . S
C4629 H4605 0.951 . S
C4629 C4630 1.366 . S
C4629 C4631 1.388 . S
C4630 C4629 1.366 . S
C4630 C4634 1.385 . S
C4631 H4606 0.951 . S
C4631 C4629 1.388 . S
C4631 C4632 1.366 . S
C4632 C4631 1.366 . S
C4632 C4633 1.414 . S
C4632 C4635 1.499 . S
C4633 H4607 0.950 . S
C4633 C4632 1.414 . S
C4633 C4634 1.374 . S
C4634 H4608 0.950 . S
C4634 C4630 1.385 . S
C4634 C4633 1.374 . S
C4635 C4632 1.499 . S
C4635 C4636 1.373 . S
C4635 C4637 1.389 . S
C4636 H4609 0.950 . S
C4636 C4622 1.377 1_455 S
C4636 C4635 1.373 . S
C4637 C4621 1.377 1_455 S
C4637 C4635 1.389 . S
C4637 C4638 1.524 . S
C4638 C4637 1.524 . S
C4638 C4639 1.397 . S
C4638 C4643 1.363 . S
C4639 H4610 0.950 . S
C4639 C4638 1.397 . S
C4639 C4640 1.334 . S
C4640 H4611 0.950 . S
C4640 C4639 1.334 . S
C4640 C4641 1.287 . S
C4641 C4640 1.287 . S
C4641 C4642 1.524 . S
C4641 H4644 0.999 . S
C4642 H4612 0.953 . S
C4642 C4641 1.524 . S
C4642 C4643 1.415 . S
C4643 H4613 0.949 1_455 S
C4643 C4638 1.363 . S
C4643 C4642 1.415 . S
H4644 C4641 0.999 . S
H4645 C4626 0.913 . S
H4646 C4664 0.951 . S
H4647 C4666 0.951 . S
H4648 C4668 0.950 . S
H4649 C4669 0.950 . S
H4650 C4671 0.950 . S
H4651 C4674 0.950 . S
H4652 C4675 0.950 . S
H4653 C4677 0.950 . S
H4654 C4678 0.950 . S
H4655 C4679 0.951 . S
H4656 C4681 0.951 . S
H4657 C4683 0.950 . S
H4658 C4684 0.950 . S
H4659 C4686 0.950 . S
H4660 C4689 0.950 . S
H4661 C4690 0.950 . S
H4662 C4692 0.950 . S
H4663 C4693 0.950 . S
C4664 H4646 0.951 . S
C4664 C4665 1.366 . S
C4664 C4666 1.388 . S
C4665 C4664 1.366 . S
C4665 C4669 1.385 . S
C4666 H4647 0.951 . S
C4666 C4664 1.388 . S
C4666 C4667 1.366 . S
C4667 C4666 1.366 . S
C4667 C4668 1.414 . S
C4667 C4670 1.499 . S
C4668 H4648 0.950 . S
C4668 C4667 1.414 . S
C4668 C4669 1.374 . S
C4669 H4649 0.950 . S
C4669 C4665 1.385 . S
C4669 C4668 1.374 . S
C4670 C4667 1.499 . S
C4670 C4671 1.373 . S
C4670 C4672 1.389 1_565 S
C4671 H4650 0.950 . S
C4671 C4670 1.373 . S
C4671 C4687 1.377 . S
C4672 C4670 1.389 1_545 S
C4672 C4673 1.524 . S
C4672 C4686 1.377 . S
C4673 C4672 1.524 . S
C4673 C4674 1.397 1_545 S
C4673 C4678 1.363 . S
C4674 H4651 0.950 . S
C4674 C4673 1.397 1_565 S
C4674 C4675 1.334 . S
C4675 H4652 0.950 . S
C4675 C4674 1.334 . S
C4675 C4676 1.287 1_565 S
C4676 C4675 1.287 1_545 S
C4676 C4677 1.524 . S
C4676 H4695 0.913 . S
C4677 H4653 0.950 . S
C4677 C4676 1.524 . S
C4677 C4678 1.415 . S
C4678 H4654 0.950 . S
C4678 C4673 1.363 . S
C4678 C4677 1.415 . S
C4679 H4655 0.951 . S
C4679 C4680 1.366 . S
C4679 C4681 1.388 . S
C4680 C4679 1.366 . S
C4680 C4684 1.385 . S
C4681 H4656 0.951 . S
C4681 C4679 1.388 . S
C4681 C4682 1.366 . S
C4682 C4681 1.366 . S
C4682 C4683 1.414 . S
C4682 C4685 1.499 . S
C4683 H4657 0.950 . S
C4683 C4682 1.414 . S
C4683 C4684 1.374 . S
C4684 H4658 0.950 . S
C4684 C4680 1.385 . S
C4684 C4683 1.374 . S
C4685 C4682 1.499 . S
C4685 C4686 1.373 . S
C4685 C4687 1.389 1_545 S
C4686 H4659 0.950 . S
C4686 C4672 1.377 . S
C4686 C4685 1.373 . S
C4687 C4671 1.377 . S
C4687 C4685 1.389 1_565 S
C4687 C4688 1.524 . S
C4688 C4687 1.524 . S
C4688 C4689 1.397 1_565 S
C4688 C4693 1.363 . S
C4689 H4660 0.950 . S
C4689 C4688 1.397 1_545 S
C4689 C4690 1.334 . S
C4690 H4661 0.950 . S
C4690 C4689 1.334 . S
C4690 C4691 1.287 1_545 S
C4691 C4690 1.287 1_565 S
C4691 C4692 1.524 . S
C4691 H4694 0.999 . S
C4692 H4662 0.950 . S
C4692 C4691 1.524 . S
C4692 C4693 1.415 . S
C4693 H4663 0.950 . S
C4693 C4688 1.363 . S
C4693 C4692 1.415 . S
H4694 C4691 0.999 . S
H4695 C4676 0.913 . S
H4696 C4714 0.951 . S
H4697 C4716 0.951 . S
H4698 C4718 0.950 . S
H4699 C4719 0.950 . S
H4700 C4721 0.950 . S
H4701 C4724 0.950 . S
H4702 C4725 0.950 . S
H4703 C4727 0.950 . S
H4704 C4728 0.950 1_554 S
H4705 C4729 0.951 . S
H4706 C4731 0.951 . S
H4707 C4733 0.950 . S
H4708 C4734 0.950 . S
H4709 C4736 0.950 . S
H4710 C4739 0.950 . S
H4711 C4740 0.950 . S
H4712 C4742 0.950 . S
H4713 C4743 0.950 1_556 S
C4714 H4696 0.951 . S
C4714 C4715 1.366 . S
C4714 C4716 1.388 . S
C4715 C4714 1.366 . S
C4715 C4719 1.385 . S
C4716 H4697 0.951 . S
C4716 C4714 1.388 . S
C4716 C4717 1.366 . S
C4717 C4716 1.366 . S
C4717 C4718 1.414 . S
C4717 C4720 1.499 . S
C4718 H4698 0.950 . S
C4718 C4717 1.414 . S
C4718 C4719 1.374 . S
C4719 H4699 0.950 . S
C4719 C4715 1.385 . S
C4719 C4718 1.374 . S
C4720 C4717 1.499 . S
C4720 C4721 1.373 . S
C4720 C4722 1.389 . S
C4721 H4700 0.950 . S
C4721 C4720 1.373 . S
C4721 C4737 1.377 1_556 S
C4722 C4720 1.389 . S
C4722 C4723 1.524 . S
C4722 C4736 1.377 1_556 S
C4723 C4722 1.524 . S
C4723 C4724 1.397 . S
C4723 C4728 1.363 . S
C4724 H4701 0.950 . S
C4724 C4723 1.397 . S
C4724 C4725 1.334 . S
C4725 H4702 0.950 . S
C4725 C4724 1.334 . S
C4725 C4726 1.287 . S
C4726 C4725 1.287 . S
C4726 C4727 1.524 . S
C4726 H4745 0.913 . S
C4727 H4703 0.950 . S
C4727 C4726 1.524 . S
C4727 C4728 1.415 . S
C4728 H4704 0.950 1_556 S
C4728 C4723 1.363 . S
C4728 C4727 1.415 . S
C4729 H4705 0.951 . S
C4729 C4730 1.366 . S
C4729 C4731 1.388 . S
C4730 C4729 1.366 . S
C4730 C4734 1.385 . S
C4731 H4706 0.951 . S
C4731 C4729 1.388 . S
C4731 C4732 1.366 . S
C4732 C4731 1.366 . S
C4732 C4733 1.414 . S
C4732 C4735 1.499 . S
C4733 H4707 0.950 . S
C4733 C4732 1.414 . S
C4733 C4734 1.374 . S
C4734 H4708 0.950 . S
C4734 C4730 1.385 . S
C4734 C4733 1.374 . S
C4735 C4732 1.499 . S
C4735 C4736 1.373 . S
C4735 C4737 1.389 . S
C4736 H4709 0.950 . S
C4736 C4722 1.377 1_554 S
C4736 C4735 1.373 . S
C4737 C4721 1.377 1_554 S
C4737 C4735 1.389 . S
C4737 C4738 1.524 . S
C4738 C4737 1.524 . S
C4738 C4739 1.397 . S
C4738 C4743 1.363 . S
C4739 H4710 0.950 . S
C4739 C4738 1.397 . S
C4739 C4740 1.334 . S
C4740 H4711 0.950 . S
C4740 C4739 1.334 . S
C4740 C4741 1.287 . S
C4741 C4740 1.287 . S
C4741 C4742 1.524 . S
C4741 H4744 0.999 . S
C4742 H4712 0.950 . S
C4742 C4741 1.524 . S
C4742 C4743 1.415 . S
C4743 H4713 0.950 1_554 S
C4743 C4738 1.363 . S
C4743 C4742 1.415 . S
H4744 C4741 0.999 . S
H4745 C4726 0.913 . S
H4746 C4764 0.951 . S
H4747 C4766 0.951 . S
H4748 C4768 0.950 . S
H4749 C4769 0.950 . S
H4750 C4771 0.950 . S
H4751 C4774 0.950 . S
H4752 C4775 0.950 . S
H4753 C4777 0.950 1_554 S
H4754 C4778 0.962 . S
H4755 C4779 0.951 . S
H4756 C4781 0.951 . S
H4757 C4783 0.950 . S
H4758 C4784 0.950 . S
H4759 C4786 0.950 . S
H4760 C4789 0.950 . S
H4761 C4790 0.950 . S
H4762 C4792 0.950 1_556 S
H4763 C4793 0.962 . S
C4764 H4746 0.951 . S
C4764 C4765 1.366 . S
C4764 C4766 1.388 . S
C4765 C4764 1.366 . S
C4765 C4769 1.385 . S
C4766 H4747 0.951 . S
C4766 C4764 1.388 . S
C4766 C4767 1.366 . S
C4767 C4766 1.366 . S
C4767 C4768 1.414 . S
C4767 C4770 1.499 . S
C4768 H4748 0.950 . S
C4768 C4767 1.414 . S
C4768 C4769 1.374 . S
C4769 H4749 0.950 . S
C4769 C4765 1.385 . S
C4769 C4768 1.374 . S
C4770 C4767 1.499 . S
C4770 C4771 1.373 . S
C4770 C4772 1.389 . S
C4771 H4750 0.950 . S
C4771 C4770 1.373 . S
C4771 C4787 1.377 1_556 S
C4772 C4770 1.389 . S
C4772 C4773 1.524 . S
C4772 C4786 1.377 1_556 S
C4773 C4772 1.524 . S
C4773 C4774 1.397 . S
C4773 C4778 1.355 1_556 S
C4774 H4751 0.950 . S
C4774 C4773 1.397 . S
C4774 C4775 1.334 . S
C4775 H4752 0.950 . S
C4775 C4774 1.334 . S
C4775 C4776 1.287 . S
C4776 C4775 1.287 . S
C4776 C4777 1.524 . S
C4776 H4795 0.913 . S
C4777 H4753 0.950 1_556 S
C4777 C4776 1.524 . S
C4777 C4778 1.412 1_556 S
C4778 H4754 0.962 . S
C4778 C4773 1.355 1_554 S
C4778 C4777 1.412 1_554 S
C4779 H4755 0.951 . S
C4779 C4780 1.366 . S
C4779 C4781 1.388 . S
C4780 C4779 1.366 . S
C4780 C4784 1.385 . S
C4781 H4756 0.951 . S
C4781 C4779 1.388 . S
C4781 C4782 1.366 . S
C4782 C4781 1.366 . S
C4782 C4783 1.414 . S
C4782 C4785 1.499 . S
C4783 H4757 0.950 . S
C4783 C4782 1.414 . S
C4783 C4784 1.374 . S
C4784 H4758 0.950 . S
C4784 C4780 1.385 . S
C4784 C4783 1.374 . S
C4785 C4782 1.499 . S
C4785 C4786 1.373 . S
C4785 C4787 1.389 . S
C4786 H4759 0.950 . S
C4786 C4772 1.377 1_554 S
C4786 C4785 1.373 . S
C4787 C4771 1.377 1_554 S
C4787 C4785 1.389 . S
C4787 C4788 1.524 . S
C4788 C4787 1.524 . S
C4788 C4789 1.397 . S
C4788 C4793 1.355 1_554 S
C4789 H4760 0.950 . S
C4789 C4788 1.397 . S
C4789 C4790 1.334 . S
C4790 H4761 0.950 . S
C4790 C4789 1.334 . S
C4790 C4791 1.287 . S
C4791 C4790 1.287 . S
C4791 C4792 1.524 . S
C4791 H4794 0.999 . S
C4792 H4762 0.950 1_554 S
C4792 C4791 1.524 . S
C4792 C4793 1.412 1_554 S
C4793 H4763 0.962 . S
C4793 C4788 1.355 1_556 S
C4793 C4792 1.412 1_556 S
H4794 C4791 0.999 . S
H4795 C4776 0.913 . S
H4796 C4814 0.951 . S
H4797 C4816 0.951 . S
H4798 C4818 0.950 . S
H4799 C4819 0.950 . S
H4800 C4821 0.950 . S
H4801 C4824 0.950 . S
H4802 C4825 0.950 . S
H4803 C4827 0.950 . S
H4804 C4828 0.950 . S
H4805 C4829 0.951 . S
H4806 C4831 0.951 . S
H4807 C4833 0.950 . S
H4808 C4834 0.950 . S
H4809 C4836 0.950 . S
H4810 C4839 0.950 . S
H4811 C4840 0.950 . S
H4812 C4842 0.950 . S
H4813 C4843 0.950 . S
C4814 H4796 0.951 . S
C4814 C4815 1.366 . S
C4814 C4816 1.388 . S
C4815 C4814 1.366 . S
C4815 C4819 1.385 . S
C4816 H4797 0.951 . S
C4816 C4814 1.388 . S
C4816 C4817 1.366 . S
C4817 C4816 1.366 . S
C4817 C4818 1.414 . S
C4817 C4820 1.499 . S
C4818 H4798 0.950 . S
C4818 C4817 1.414 . S
C4818 C4819 1.374 . S
C4819 H4799 0.950 . S
C4819 C4815 1.385 . S
C4819 C4818 1.374 . S
C4820 C4817 1.499 . S
C4820 C4821 1.373 . S
C4820 C4822 1.389 . S
C4821 H4800 0.950 . S
C4821 C4820 1.373 . S
C4821 C4837 1.377 1_556 S
C4822 C4820 1.389 . S
C4822 C4823 1.524 . S
C4822 C4836 1.377 1_556 S
C4823 C4822 1.524 . S
C4823 C4824 1.397 . S
C4823 C4828 1.363 . S
C4824 H4801 0.950 . S
C4824 C4823 1.397 . S
C4824 C4825 1.334 . S
C4825 H4802 0.950 . S
C4825 C4824 1.334 . S
C4825 C4826 1.287 . S
C4826 C4825 1.287 . S
C4826 C4827 1.524 . S
C4826 H4845 0.913 . S
C4827 H4803 0.950 . S
C4827 C4826 1.524 . S
C4827 C4828 1.415 . S
C4828 H4804 0.950 . S
C4828 C4823 1.363 . S
C4828 C4827 1.415 . S
C4829 H4805 0.951 . S
C4829 C4830 1.366 . S
C4829 C4831 1.388 . S
C4830 C4829 1.366 . S
C4830 C4834 1.385 . S
C4831 H4806 0.951 . S
C4831 C4829 1.388 . S
C4831 C4832 1.366 . S
C4832 C4831 1.366 . S
C4832 C4833 1.414 . S
C4832 C4835 1.499 . S
C4833 H4807 0.950 . S
C4833 C4832 1.414 . S
C4833 C4834 1.374 . S
C4834 H4808 0.950 . S
C4834 C4830 1.385 . S
C4834 C4833 1.374 . S
C4835 C4832 1.499 . S
C4835 C4836 1.373 . S
C4835 C4837 1.389 . S
C4836 H4809 0.950 . S
C4836 C4822 1.377 1_554 S
C4836 C4835 1.373 . S
C4837 C4821 1.377 1_554 S
C4837 C4835 1.389 . S
C4837 C4838 1.524 . S
C4838 C4837 1.524 . S
C4838 C4839 1.397 . S
C4838 C4843 1.363 . S
C4839 H4810 0.950 . S
C4839 C4838 1.397 . S
C4839 C4840 1.334 . S
C4840 H4811 0.950 . S
C4840 C4839 1.334 . S
C4840 C4841 1.287 . S
C4841 C4840 1.287 . S
C4841 C4842 1.524 . S
C4841 H4844 0.999 . S
C4842 H4812 0.950 . S
C4842 C4841 1.524 . S
C4842 C4843 1.415 . S
C4843 H4813 0.950 . S
C4843 C4838 1.363 . S
C4843 C4842 1.415 . S
H4844 C4841 0.999 . S
H4845 C4826 0.913 . S
H4846 C4864 0.951 . S
H4847 C4866 0.951 . S
H4848 C4868 0.950 . S
H4849 C4869 0.950 . S
H4850 C4871 0.950 . S
H4851 C4874 0.950 . S
H4852 C4875 0.950 . S
H4853 C4877 0.950 . S
H4854 C4878 0.950 . S
H4855 C4879 0.951 . S
H4856 C4881 0.951 . S
H4857 C4883 0.950 . S
H4858 C4884 0.950 . S
H4859 C4886 0.950 . S
H4860 C4889 0.950 . S
H4861 C4890 0.950 . S
H4862 C4892 0.950 . S
H4863 C4893 0.950 . S
C4864 H4846 0.951 . S
C4864 C4865 1.366 . S
C4864 C4866 1.388 . S
C4865 C4864 1.366 . S
C4865 C4869 1.385 . S
C4866 H4847 0.951 . S
C4866 C4864 1.388 . S
C4866 C4867 1.366 . S
C4867 C4866 1.366 . S
C4867 C4868 1.414 . S
C4867 C4870 1.499 . S
C4868 H4848 0.950 . S
C4868 C4867 1.414 . S
C4868 C4869 1.374 . S
C4869 H4849 0.950 . S
C4869 C4865 1.385 . S
C4869 C4868 1.374 . S
C4870 C4867 1.499 . S
C4870 C4871 1.373 . S
C4870 C4872 1.389 1_556 S
C4871 H4850 0.950 . S
C4871 C4870 1.373 . S
C4871 C4887 1.377 . S
C4872 C4870 1.389 1_554 S
C4872 C4873 1.524 . S
C4872 C4886 1.377 . S
C4873 C4872 1.524 . S
C4873 C4874 1.397 1_554 S
C4873 C4878 1.363 . S
C4874 H4851 0.950 . S
C4874 C4873 1.397 1_556 S
C4874 C4875 1.334 . S
C4875 H4852 0.950 . S
C4875 C4874 1.334 . S
C4875 C4876 1.287 1_556 S
C4876 C4875 1.287 1_554 S
C4876 C4877 1.524 . S
C4876 H4895 0.913 . S
C4877 H4853 0.950 . S
C4877 C4876 1.524 . S
C4877 C4878 1.415 . S
C4878 H4854 0.950 . S
C4878 C4873 1.363 . S
C4878 C4877 1.415 . S
C4879 H4855 0.951 . S
C4879 C4880 1.366 . S
C4879 C4881 1.388 . S
C4880 C4879 1.366 . S
C4880 C4884 1.385 . S
C4881 H4856 0.951 . S
C4881 C4879 1.388 . S
C4881 C4882 1.366 . S
C4882 C4881 1.366 . S
C4882 C4883 1.414 . S
C4882 C4885 1.499 . S
C4883 H4857 0.950 . S
C4883 C4882 1.414 . S
C4883 C4884 1.374 . S
C4884 H4858 0.950 . S
C4884 C4880 1.385 . S
C4884 C4883 1.374 . S
C4885 C4882 1.499 . S
C4885 C4886 1.373 . S
C4885 C4887 1.389 1_554 S
C4886 H4859 0.950 . S
C4886 C4872 1.377 . S
C4886 C4885 1.373 . S
C4887 C4871 1.377 . S
C4887 C4885 1.389 1_556 S
C4887 C4888 1.524 . S
C4888 C4887 1.524 . S
C4888 C4889 1.397 1_556 S
C4888 C4893 1.363 . S
C4889 H4860 0.950 . S
C4889 C4888 1.397 1_554 S
C4889 C4890 1.334 . S
C4890 H4861 0.950 . S
C4890 C4889 1.334 . S
C4890 C4891 1.287 1_554 S
C4891 C4890 1.287 1_556 S
C4891 C4892 1.524 . S
C4891 H4894 0.999 . S
C4892 H4862 0.950 . S
C4892 C4891 1.524 . S
C4892 C4893 1.415 . S
C4893 H4863 0.950 . S
C4893 C4888 1.363 . S
C4893 C4892 1.415 . S
H4894 C4891 0.999 . S
H4895 C4876 0.913 . S
C715 C8 2.797 . S
C730 C382 2.767 . S
C765 C37 2.797 . S
C780 C411 2.766 . S
C815 C66 2.797 . S
C830 C440 2.766 . S
C865 C95 2.797 . S
C880 C353 2.766 . S
C915 C124 2.797 . S
C930 C324 2.766 . S
C965 C153 2.797 . S
C980 C237 2.766 . S
C1015 C182 2.797 . S
C1030 C266 2.766 . S
C1065 C211 2.797 . S
C1080 C295 2.767 . S
C1115 C240 2.797 . S
C1130 C34 2.766 . S
C1165 C269 2.797 . S
C1180 C63 2.767 . S
C1215 C298 2.797 . S
C1230 C92 2.766 . S
C1265 C327 2.797 . S
C1280 C5 2.766 . S
C1315 C208 2.766 . S
C1330 C356 2.797 . S
C1365 C385 2.797 . S
C1380 C121 2.766 . S
C1415 C414 2.797 . S
C1430 C150 2.767 . S
C1465 C443 2.797 . S
C1480 C179 2.767 . S
C1515 C472 2.797 . S
C1530 C643 2.766 . S
C1565 C501 2.797 . S
C1580 C527 2.766 . S
C1615 C530 2.797 . S
C1630 C556 2.766 . S
C1665 C559 2.797 . S
C1680 C585 2.767 . S
C1715 C588 2.797 . S
C1730 C498 2.767 . S
C1765 C617 2.797 . S
C1780 C672 2.766 . S
C1815 C646 2.797 . S
C1830 C614 2.766 . S
C1865 C675 2.797 . S
C1880 C469 2.767 . S
C1915 C3 2.178 . S
C1930 C641 2.178 . S
C1965 C32 2.178 . S
C1980 C467 2.178 . S
C2015 C670 2.178 . S
C2030 C61 2.178 . S
C2065 C612 2.178 . S
C2080 C90 2.178 . S
C2115 C119 2.178 . S
C2130 C525 2.178 . S
C2165 C148 2.178 . S
C2180 C554 2.178 . S
C2215 C583 2.178 . S
C2230 C177 2.178 . S
C2265 C496 2.178 . S
C2280 C206 2.178 . S
C2315 C380 2.178 . S
C2330 C235 2.178 . S
C2365 C409 2.178 . S
C2380 C264 2.178 . S
C2415 C438 2.178 . S
C2430 C293 2.178 . S
C2465 C322 2.178 . S
C2480 C351 2.178 . S
C2515 C79 0.714 . S
C2530 C21 0.714 . S
C2565 C108 0.714 . S
C2580 C50 0.714 . S
C2615 C195 0.715 . S
C2630 C137 0.713 . S
C2665 C224 0.714 . S
C2680 C166 0.714 . S
C2715 C369 0.715 . S
C2730 C253 0.713 . S
C2765 C282 0.713 . S
C2780 C398 0.715 . S
C2815 C311 0.714 . S
C2830 C427 0.714 . S
C2865 C456 0.713 . S
C2880 C340 0.715 . S
C2915 C572 0.713 . S
C2930 C485 0.715 . S
C2965 C514 0.715 . S
C2980 C630 0.713 . S
C3015 C543 0.714 . S
C3030 C659 0.714 . S
C3065 C601 0.713 . S
C3080 C688 0.715 . S
C3115 C245 0.862 . S
C3130 C15 0.894 . S
C3165 C44 0.893 . S
C3180 C274 0.864 . S
C3215 C73 0.894 . S
C3230 C303 0.862 . S
C3265 C332 0.864 . S
C3280 C102 0.893 . S
C3315 C131 0.893 . S
C3330 C361 0.863 . S
C3365 C160 0.894 . S
C3380 C390 0.864 . S
C3415 C419 0.864 . S
C3430 C189 0.893 . S
C3465 C218 0.893 . S
C3480 C448 0.864 . S
C3515 C477 0.861 . S
C3530 C247 0.895 . S
C3565 C680 0.863 . S
C3580 C276 0.894 . S
C3615 C622 0.863 . S
C3630 C305 0.893 . S
C3665 C651 0.861 . S
C3680 C334 0.895 . S
C3715 C363 0.894 . S
C3730 C506 0.862 . S
C3765 C392 0.894 . S
C3780 C535 0.862 . S
C3815 C421 0.893 . S
C3830 C564 0.864 . S
C3865 C450 0.893 . S
C3880 C593 0.863 . S
C3915 C479 0.894 . S
C3930 C13 0.861 . S
C3965 C129 0.861 . S
C3980 C508 0.895 . S
C4015 C158 0.861 . S
C4030 C537 0.895 . S
C4065 C566 0.894 . S
C4080 C187 0.862 . S
C4115 C595 0.895 . S
C4130 C216 0.862 . S
C4165 C624 0.893 . S
C4180 C71 0.864 . S
C4215 C653 0.893 . S
C4230 C100 0.864 . S
C4265 C682 0.895 . S
C4280 C42 0.861 . S
C4315 C271 1.015 . S
C4330 C10 1.013 . S
C4365 C300 1.014 . S
C4380 C39 1.014 . S
C4415 C68 1.015 . S
C4430 C329 1.013 . S
C4465 C97 1.013 . S
C4480 C242 1.014 . S
C4515 C445 1.014 . S
C4530 C126 1.015 . S
C4565 C358 1.013 . S
C4580 C155 1.015 . S
C4615 C184 1.014 . S
C4630 C387 1.015 . S
C4665 C213 1.015 . S
C4680 C416 1.014 . S
C4715 C532 1.014 . S
C4730 C474 1.013 . S
C4765 C503 1.014 . S
C4780 C648 1.013 . S
C4815 C561 1.013 . S
C4830 C677 1.015 . S
C4865 C590 1.015 . S
C4880 C619 1.014 . S
