# Generated by pormake.
# Topology yfc, (5)-cn, num edge types: 1
# Building blocks:
#     Node 0, Type 0, BuildingBlock: XOMCOT_clean_sbu_1, # of connection points: 5
#     Node 1, Type 0, BuildingBlock: XOMCOT_clean_sbu_1, # of connection points: 5
#     Node 2, Type 0, BuildingBlock: XOMCOT_clean_sbu_1, # of connection points: 5
#     Node 3, Type 0, BuildingBlock: XOMCOT_clean_sbu_1, # of connection points: 5
#     Node 4, Type 0, BuildingBlock: XOMCOT_clean_sbu_1, # of connection points: 5
#     Node 5, Type 0, BuildingBlock: XOMCOT_clean_sbu_1, # of connection points: 5
#     Node 6, Type 0, BuildingBlock: XOMCOT_clean_sbu_1, # of connection points: 5
#     Node 7, Type 0, BuildingBlock: XOMCOT_clean_sbu_1, # of connection points: 5
#     Node 8, Type 0, BuildingBlock: XOMCOT_clean_sbu_1, # of connection points: 5
#     Node 9, Type 0, BuildingBlock: XOMCOT_clean_sbu_1, # of connection points: 5
#     Node 10, Type 0, BuildingBlock: XOMCOT_clean_sbu_1, # of connection points: 5
#     Node 11, Type 0, BuildingBlock: XOMCOT_clean_sbu_1, # of connection points: 5
#     Node 12, Type 0, BuildingBlock: XOMCOT_clean_sbu_1, # of connection points: 5
#     Node 13, Type 0, BuildingBlock: XOMCOT_clean_sbu_1, # of connection points: 5
#     Node 14, Type 0, BuildingBlock: XOMCOT_clean_sbu_1, # of connection points: 5
#     Node 15, Type 0, BuildingBlock: XOMCOT_clean_sbu_1, # of connection points: 5
#     Edge 16, Type (0, 0), BuildingBlock: KIFKEQ_clean_linker_1, # of connection points: 2
#     Edge 17, Type (0, 0), BuildingBlock: KIFKEQ_clean_linker_1, # of connection points: 2
#     Edge 18, Type (0, 0), BuildingBlock: KIFKEQ_clean_linker_1, # of connection points: 2
#     Edge 19, Type (0, 0), BuildingBlock: KIFKEQ_clean_linker_1, # of connection points: 2
#     Edge 20, Type (0, 0), BuildingBlock: KIFKEQ_clean_linker_1, # of connection points: 2
#     Edge 21, Type (0, 0), BuildingBlock: KIFKEQ_clean_linker_1, # of connection points: 2
#     Edge 22, Type (0, 0), BuildingBlock: KIFKEQ_clean_linker_1, # of connection points: 2
#     Edge 23, Type (0, 0), BuildingBlock: KIFKEQ_clean_linker_1, # of connection points: 2
#     Edge 24, Type (0, 0), BuildingBlock: KIFKEQ_clean_linker_1, # of connection points: 2
#     Edge 25, Type (0, 0), BuildingBlock: KIFKEQ_clean_linker_1, # of connection points: 2
#     Edge 26, Type (0, 0), BuildingBlock: KIFKEQ_clean_linker_1, # of connection points: 2
#     Edge 27, Type (0, 0), BuildingBlock: KIFKEQ_clean_linker_1, # of connection points: 2
#     Edge 28, Type (0, 0), BuildingBlock: KIFKEQ_clean_linker_1, # of connection points: 2
#     Edge 29, Type (0, 0), BuildingBlock: KIFKEQ_clean_linker_1, # of connection points: 2
#     Edge 30, Type (0, 0), BuildingBlock: KIFKEQ_clean_linker_1, # of connection points: 2
#     Edge 31, Type (0, 0), BuildingBlock: KIFKEQ_clean_linker_1, # of connection points: 2
#     Edge 32, Type (0, 0), BuildingBlock: KIFKEQ_clean_linker_1, # of connection points: 2
#     Edge 33, Type (0, 0), BuildingBlock: KIFKEQ_clean_linker_1, # of connection points: 2
#     Edge 34, Type (0, 0), BuildingBlock: KIFKEQ_clean_linker_1, # of connection points: 2
#     Edge 35, Type (0, 0), BuildingBlock: KIFKEQ_clean_linker_1, # of connection points: 2
#     Edge 36, Type (0, 0), BuildingBlock: KIFKEQ_clean_linker_1, # of connection points: 2
#     Edge 37, Type (0, 0), BuildingBlock: KIFKEQ_clean_linker_1, # of connection points: 2
#     Edge 38, Type (0, 0), BuildingBlock: KIFKEQ_clean_linker_1, # of connection points: 2
#     Edge 39, Type (0, 0), BuildingBlock: KIFKEQ_clean_linker_1, # of connection points: 2
#     Edge 40, Type (0, 0), BuildingBlock: KIFKEQ_clean_linker_1, # of connection points: 2
#     Edge 41, Type (0, 0), BuildingBlock: KIFKEQ_clean_linker_1, # of connection points: 2
#     Edge 42, Type (0, 0), BuildingBlock: KIFKEQ_clean_linker_1, # of connection points: 2
#     Edge 43, Type (0, 0), BuildingBlock: KIFKEQ_clean_linker_1, # of connection points: 2
#     Edge 44, Type (0, 0), BuildingBlock: KIFKEQ_clean_linker_1, # of connection points: 2
#     Edge 45, Type (0, 0), BuildingBlock: KIFKEQ_clean_linker_1, # of connection points: 2
#     Edge 46, Type (0, 0), BuildingBlock: KIFKEQ_clean_linker_1, # of connection points: 2
#     Edge 47, Type (0, 0), BuildingBlock: KIFKEQ_clean_linker_1, # of connection points: 2
#     Edge 48, Type (0, 0), BuildingBlock: KIFKEQ_clean_linker_1, # of connection points: 2
#     Edge 49, Type (0, 0), BuildingBlock: KIFKEQ_clean_linker_1, # of connection points: 2
#     Edge 50, Type (0, 0), BuildingBlock: KIFKEQ_clean_linker_1, # of connection points: 2
#     Edge 51, Type (0, 0), BuildingBlock: KIFKEQ_clean_linker_1, # of connection points: 2
#     Edge 52, Type (0, 0), BuildingBlock: KIFKEQ_clean_linker_1, # of connection points: 2
#     Edge 53, Type (0, 0), BuildingBlock: KIFKEQ_clean_linker_1, # of connection points: 2
#     Edge 54, Type (0, 0), BuildingBlock: KIFKEQ_clean_linker_1, # of connection points: 2
#     Edge 55, Type (0, 0), BuildingBlock: KIFKEQ_clean_linker_1, # of connection points: 2
# Relax obj value: 0.647
# Max RMSD: 0.269
# Mean RMSD: 0.269
data_MOF--net-yfc--node1-XOMCOT_clean_sbu_1--edge1-KIFKEQ_clean_linker_1
_symmetry_space_group_name_H-M    P1
_symmetry_Int_Tables_number       1
_symmetry_cell_setting            triclinic
loop_
_symmetry_equiv_pos_as_xyz
'x, y, z'
_cell_length_a     41.180354
_cell_length_b     41.176182
_cell_length_c     47.824804
_cell_angle_alpha  89.986851
_cell_angle_beta   89.998668
_cell_angle_gamma 89.969936
loop_
_atom_site_label
_atom_site_type_symbol
_atom_site_fract_x
_atom_site_fract_y
_atom_site_fract_z
_atom_type_partial_charge
C0 C 0.70088 0.98032 0.14237 0.0
C1 C 0.68103 0.95718 0.15416 0.0
N2 N 0.66924 0.96883 0.17849 0.0
N3 N 0.70165 0.00672 0.15899 0.0
C4 C 0.68182 0.99911 0.18068 0.0
H5 H 0.71496 0.97737 0.12347 0.0
Co6 Co 0.72952 0.04261 0.15516 0.0
C7 C 0.69134 0.10043 0.17325 0.0
O8 O 0.71734 0.11392 0.18415 0.0
N9 N 0.75797 0.07884 0.15099 0.0
C10 C 0.79556 0.11662 0.15857 0.0
C11 C 0.78607 0.08526 0.1644 0.0
C12 C 0.75207 0.10609 0.13585 0.0
N13 N 0.77371 0.13012 0.14105 0.0
O14 O 0.72052 0.04505 0.11592 0.0
H15 H 0.79797 0.06916 0.17899 0.0
H16 H 0.73046 0.10914 0.12326 0.0
O17 O 0.69271 0.07179 0.16291 0.0
C18 C 0.74472 0.03369 0.10242 0.0
O19 O 0.76884 0.02099 0.11674 0.0
N20 N 0.74142 0.03769 0.19276 0.0
C21 C 0.77803 0.03188 0.24139 0.0
C22 C 0.75013 0.0517 0.2407 0.0
C23 C 0.73156 0.05357 0.21629 0.0
C24 C 0.76513 0.01472 0.19439 0.0
C25 C 0.78336 0.01093 0.21868 0.0
H26 H 0.71031 0.0687 0.21637 0.0
H27 H 0.77146 1.00089 0.17595 0.0
H28 H 0.67826 0.01474 0.19859 0.0
H29 H 0.67646 0.93323 0.14575 0.0
H30 H 0.81556 0.12923 0.16844 0.0
H31 H 0.74388 0.06763 0.25785 0.0
H32 H 0.80313 0.99361 0.21865 0.0
C33 C 0.5334 0.70384 0.64743 0.0
C34 C 0.55481 0.68235 0.65959 0.0
N35 N 0.53995 0.66798 0.68145 0.0
N36 N 0.50495 0.70301 0.66134 0.0
C37 C 0.50965 0.68074 0.68183 0.0
H38 H 0.53883 0.72009 0.63031 0.0
Co39 Co 0.4698 0.73138 0.65582 0.0
C40 C 0.41228 0.69771 0.67836 0.0
O41 O 0.40306 0.7251 0.69008 0.0
N42 N 0.43408 0.7603 0.64967 0.0
C43 C 0.39906 0.80145 0.65132 0.0
C44 C 0.43009 0.79144 0.65774 0.0
C45 C 0.40559 0.75277 0.63688 0.0
N46 N 0.38319 0.7768 0.63871 0.0
O47 O 0.46753 0.71982 0.61721 0.0
H48 H 0.44803 0.80599 0.66835 0.0
H49 H 0.40069 0.72898 0.62831 0.0
O50 O 0.43934 0.69627 0.66525 0.0
C51 C 0.48048 0.74269 0.60309 0.0
O52 O 0.49417 0.76673 0.6168 0.0
N53 N 0.4747 0.74563 0.69293 0.0
C54 C 0.48026 0.78125 0.7421 0.0
C55 C 0.4654 0.75049 0.74215 0.0
C56 C 0.46373 0.73257 0.71741 0.0
C57 C 0.49369 0.77266 0.69351 0.0
C58 C 0.49681 0.79095 0.71786 0.0
H59 H 0.45244 0.70901 0.71806 0.0
H60 H 0.5046 0.78134 0.67434 0.0
H61 H 0.49148 0.67454 0.69722 0.0
H62 H 0.57995 0.67894 0.65369 0.0
H63 H 0.38889 0.82491 0.65644 0.0
H64 H 0.45311 0.74113 0.76045 0.0
H65 H 0.51019 0.81356 0.71709 0.0
C66 C 0.79384 0.53027 0.15161 0.0
C67 C 0.81359 0.55428 0.16211 0.0
N68 N 0.83628 0.54052 0.17868 0.0
N69 N 0.80387 0.50127 0.1613 0.0
C70 C 0.83005 0.50822 0.17742 0.0
H71 H 0.7722 0.53398 0.13922 0.0
Co72 Co 0.77937 0.46313 0.15818 0.0
C73 C 0.81954 0.41118 0.18158 0.0
O74 O 0.79395 0.40183 0.19593 0.0
N75 N 0.75388 0.42428 0.1543 0.0
C76 C 0.71486 0.38686 0.15609 0.0
C77 C 0.72263 0.41875 0.16138 0.0
C78 C 0.76374 0.39554 0.14313 0.0
N79 N 0.74101 0.37185 0.14509 0.0
O80 O 0.78823 0.46091 0.11906 0.0
H81 H 0.70607 0.4364 0.16992 0.0
H82 H 0.78789 0.39177 0.1349 0.0
O83 O 0.81797 0.43662 0.16626 0.0
C84 C 0.76338 0.47102 0.10571 0.0
O85 O 0.73852 0.48196 0.12017 0.0
N86 N 0.76791 0.46785 0.19608 0.0
C87 C 0.73944 0.4727 0.24869 0.0
C88 C 0.77271 0.46574 0.24601 0.0
C89 C 0.78664 0.46383 0.21942 0.0
C90 C 0.7375 0.48039 0.19863 0.0
C91 C 0.72236 0.48212 0.22461 0.0
H92 H 0.81207 0.45792 0.21786 0.0
H93 H 0.72418 0.48732 0.18008 0.0
H94 H 0.84336 0.49009 0.18904 0.0
H95 H 0.80989 0.58008 0.15924 0.0
H96 H 0.69162 0.37575 0.16042 0.0
H97 H 0.7875 0.46024 0.26412 0.0
H98 H 0.69689 0.48853 0.22529 0.0
C99 C 0.98831 0.81574 0.63946 0.0
C100 C 0.96487 0.83515 0.65138 0.0
N101 N 0.9771 0.84863 0.67483 0.0
N102 N 0.01548 0.81693 0.65511 0.0
C103 C 0.008 0.83748 0.67634 0.0
H104 H 0.98509 0.80064 0.6212 0.0
Co105 Co 0.05248 0.79052 0.65092 0.0
C106 C 0.10874 0.83187 0.66702 0.0
O107 O 0.1239 0.80688 0.67807 0.0
N108 N 0.08982 0.76349 0.64642 0.0
C109 C 0.12825 0.7263 0.6533 0.0
C110 C 0.09686 0.73531 0.6595 0.0
C111 C 0.11683 0.76998 0.6311 0.0
N112 N 0.1412 0.74853 0.63586 0.0
O113 O 0.05322 0.79858 0.61156 0.0
H114 H 0.08106 0.72283 0.67395 0.0
H115 H 0.1194 0.79169 0.61856 0.0
O116 O 0.07997 0.82875 0.65729 0.0
C117 C 0.04185 0.77376 0.59897 0.0
O118 O 0.03073 0.74962 0.61422 0.0
N119 N 0.04929 0.7795 0.68882 0.0
C120 C 0.04423 0.74644 0.73939 0.0
C121 C 0.06283 0.77501 0.73733 0.0
C122 C 0.06445 0.79167 0.71192 0.0
C123 C 0.02789 0.75448 0.69141 0.0
C124 C 0.02474 0.73775 0.71654 0.0
H125 H 0.07849 0.81363 0.71102 0.0
H126 H 0.01471 0.74618 0.6732 0.0
H127 H 0.02429 0.84263 0.6935 0.0
H128 H 0.94035 0.83826 0.6437 0.0
H129 H 0.14123 0.70626 0.66275 0.0
H130 H 0.07777 0.7834 0.75449 0.0
H131 H 0.00879 0.71688 0.7174 0.0
C132 C 0.70973 0.53133 0.85062 0.0
C133 C 0.68928 0.55479 0.83992 0.0
N134 N 0.66745 0.54027 0.82302 0.0
N135 N 0.70084 0.50203 0.8407 0.0
C136 C 0.67471 0.50826 0.82433 0.0
H137 H 0.73104 0.53566 0.86329 0.0
Co138 Co 0.72546 0.46379 0.84321 0.0
C139 C 0.68398 0.41335 0.81873 0.0
O140 O 0.70922 0.40252 0.80469 0.0
N141 N 0.75069 0.42475 0.84619 0.0
C142 C 0.78891 0.38658 0.84268 0.0
C143 C 0.78149 0.4187 0.83793 0.0
C144 C 0.74073 0.39604 0.85727 0.0
N145 N 0.76304 0.37207 0.85452 0.0
O146 O 0.71674 0.46073 0.88229 0.0
H147 H 0.7978 0.43604 0.82859 0.0
H148 H 0.71692 0.39255 0.86634 0.0
O149 O 0.68678 0.43802 0.83475 0.0
C150 C 0.74155 0.47095 0.8956 0.0
O151 O 0.76618 0.48232 0.88111 0.0
N152 N 0.73683 0.46939 0.80536 0.0
C153 C 0.76551 0.47717 0.75303 0.0
C154 C 0.73253 0.46888 0.75533 0.0
C155 C 0.71847 0.46553 0.78176 0.0
C156 C 0.76694 0.4827 0.80333 0.0
C157 C 0.78215 0.48597 0.77751 0.0
H158 H 0.69318 0.45904 0.78288 0.0
H159 H 0.78003 0.48903 0.82217 0.0
H160 H 0.66208 0.48985 0.81249 0.0
H161 H 0.69185 0.58073 0.84278 0.0
H162 H 0.81124 0.37463 0.83664 0.0
H163 H 0.71806 0.46365 0.73697 0.0
H164 H 0.80743 0.49312 0.77719 0.0
C165 C 0.9751 0.7154 0.34401 0.0
C166 C 0.95023 0.69689 0.33325 0.0
N167 N 0.96314 0.67333 0.31712 0.0
N168 N 1.00371 0.70369 0.3348 0.0
C169 C 0.99564 0.67768 0.31886 0.0
H170 H 0.97235 0.73735 0.35617 0.0
Co171 Co 0.04311 0.72618 0.33724 0.0
C172 C 0.09217 0.67863 0.31853 0.0
O173 O 0.10575 0.70073 0.30254 0.0
N174 N 0.08311 0.74982 0.34016 0.0
C175 C 0.12068 0.78885 0.33833 0.0
C176 C 0.08879 0.78109 0.33299 0.0
C177 C 0.11185 0.73984 0.35118 0.0
N178 N 0.13534 0.7627 0.34945 0.0
O179 O 0.04386 0.72067 0.37682 0.0
H180 H 0.07111 0.79769 0.32451 0.0
H181 H 0.11564 0.71611 0.36023 0.0
O182 O 0.06693 0.68534 0.3329 0.0
C183 C 0.03514 0.74662 0.38928 0.0
O184 O 0.02573 0.77145 0.37401 0.0
N185 N 0.04031 0.73447 0.29864 0.0
C186 C 0.03994 0.76089 0.24495 0.0
C187 C 0.04546 0.72746 0.24905 0.0
C188 C 0.04542 0.71465 0.27616 0.0
C189 C 0.02861 0.76494 0.29449 0.0
C190 C 0.02912 0.77903 0.26808 0.0
H191 H 0.0505 0.68917 0.27879 0.0
H192 H 0.02089 0.77922 0.31226 0.0
H193 H 0.01302 0.66372 0.30693 0.0
H194 H 0.92454 0.70148 0.33596 0.0
H195 H 0.13241 0.81172 0.33357 0.0
H196 H 0.05139 0.71153 0.23181 0.0
H197 H 0.02345 0.80459 0.26668 0.0
C198 C 0.80429 0.97556 0.84965 0.0
C199 C 0.82528 0.95228 0.83967 0.0
N200 N 0.84547 0.96619 0.82095 0.0
N201 N 0.81107 1.00427 0.83751 0.0
C202 C 0.83677 0.99794 0.82061 0.0
H203 H 0.78409 0.97133 0.8636 0.0
Co204 Co 0.78348 0.04055 0.83965 0.0
C205 C 0.81918 0.09502 0.81547 0.0
O206 O 0.79307 0.10119 0.80055 0.0
N207 N 0.75494 0.07748 0.84265 0.0
C208 C 0.71372 0.11243 0.83935 0.0
C209 C 0.72361 0.08096 0.83477 0.0
C210 C 0.76259 0.10697 0.85366 0.0
N211 N 0.7385 0.12911 0.8508 0.0
O212 O 0.79168 0.04445 0.87888 0.0
H213 H 0.70844 0.06223 0.82606 0.0
H214 H 0.78624 0.11257 0.86223 0.0
O215 O 0.81989 0.06999 0.83135 0.0
C216 C 0.76728 0.03357 0.89238 0.0
O217 O 0.74316 0.02082 0.87811 0.0
N218 N 0.77276 0.0341 0.80164 0.0
C219 C 0.74417 0.02944 0.74886 0.0
C220 C 0.7775 0.03655 0.75171 0.0
C221 C 0.79129 0.03894 0.77832 0.0
C222 C 0.74311 0.01999 0.79892 0.0
C223 C 0.72785 0.01843 0.77297 0.0
H224 H 0.81629 0.04641 0.77988 0.0
H225 H 0.73016 0.01222 0.81742 0.0
H226 H 0.84762 0.01574 0.80696 0.0
H227 H 0.82462 0.92675 0.84495 0.0
H228 H 0.69008 0.12225 0.83425 0.0
H229 H 0.79267 0.04214 0.73393 0.0
H230 H 0.70276 0.01089 0.77275 0.0
C231 C 0.5375 0.79491 0.35033 0.0
C232 C 0.56208 0.81443 0.34037 0.0
N233 N 0.54925 0.83634 0.32251 0.0
N234 N 0.50912 0.80436 0.33896 0.0
C235 C 0.51699 0.83001 0.32252 0.0
H236 H 0.54045 0.77398 0.36374 0.0
Co237 Co 0.47028 0.78064 0.34071 0.0
C238 C 0.42121 0.8244 0.31684 0.0
O239 O 0.40961 0.80008 0.3021 0.0
N240 N 0.43074 0.75616 0.343 0.0
C241 C 0.39353 0.71681 0.34111 0.0
C242 C 0.42553 0.72468 0.33629 0.0
C243 C 0.40158 0.76623 0.35314 0.0
N244 N 0.37833 0.74313 0.35139 0.0
O245 O 0.46704 0.78852 0.37991 0.0
H246 H 0.44355 0.70805 0.32842 0.0
H247 H 0.39728 0.79037 0.3613 0.0
O248 O 0.44565 0.82021 0.33288 0.0
C249 C 0.47578 0.76305 0.3931 0.0
O250 O 0.48619 0.73804 0.37854 0.0
N251 N 0.47586 0.77002 0.30268 0.0
C252 C 0.482 0.74187 0.25002 0.0
C253 C 0.47466 0.77503 0.25271 0.0
C254 C 0.47211 0.7888 0.27931 0.0
C255 C 0.48847 0.73963 0.30019 0.0
C256 C 0.49093 0.72469 0.27419 0.0
H257 H 0.46615 0.8142 0.28073 0.0
H258 H 0.4949 0.72618 0.31881 0.0
H259 H 0.49975 0.84249 0.30934 0.0
H260 H 0.58762 0.81171 0.34512 0.0
H261 H 0.38213 0.69374 0.33652 0.0
H262 H 0.46938 0.78984 0.23456 0.0
H263 H 0.49747 0.69925 0.2735 0.0
C264 C 0.30384 0.03114 0.8591 0.0
C265 C 0.3241 0.05429 0.84778 0.0
N266 N 0.34028 0.04095 0.82612 0.0
N267 N 0.30719 1.0032 0.84474 0.0
C268 C 0.3298 0.00985 0.82496 0.0
H269 H 0.28665 0.03496 0.87586 0.0
Co270 Co 0.28093 0.96628 0.84794 0.0
C271 C 0.32184 0.91094 0.82895 0.0
O272 O 0.29667 0.89653 0.81749 0.0
N273 N 0.25407 0.92878 0.85145 0.0
C274 C 0.21695 0.89038 0.84433 0.0
C275 C 0.22572 0.92195 0.83856 0.0
C276 C 0.261 0.90139 0.8661 0.0
N277 N 0.23952 0.87712 0.86128 0.0
O278 O 0.28981 0.96364 0.88698 0.0
H279 H 0.21289 0.93808 0.82462 0.0
H280 H 0.28288 0.89864 0.87839 0.0
O281 O 0.3189 0.93902 0.84006 0.0
C282 C 0.26521 0.97413 0.90042 0.0
O283 O 0.2406 0.98586 0.8861 0.0
N284 N 0.26931 0.97144 0.81042 0.0
C285 C 0.23696 0.98039 0.75994 0.0
C286 C 0.26599 0.9624 0.76108 0.0
C287 C 0.28224 0.95875 0.78654 0.0
C288 C 0.24362 0.99221 0.80902 0.0
C289 C 0.22712 0.99717 0.78399 0.0
H290 H 0.30455 0.94519 0.78678 0.0
H291 H 0.23474 1.0035 0.82796 0.0
H292 H 0.33688 0.99281 0.80887 0.0
H293 H 0.32593 0.07932 0.85449 0.0
H294 H 0.19671 0.87758 0.83503 0.0
H295 H 0.27509 0.94947 0.74301 0.0
H296 H 0.20565 0.01237 0.78396 0.0
C297 C 0.47934 0.30398 0.35717 0.0
C298 C 0.45575 0.32394 0.34607 0.0
N299 N 0.46811 0.3393 0.32352 0.0
N300 N 0.50664 0.30673 0.34184 0.0
C301 C 0.49913 0.32863 0.32169 0.0
H302 H 0.47628 0.28754 0.37459 0.0
Co303 Co 0.54427 0.28123 0.34452 0.0
C304 C 0.59876 0.32666 0.33082 0.0
O305 O 0.61669 0.30375 0.3196 0.0
N306 N 0.58232 0.25498 0.34732 0.0
C307 C 0.62019 0.21767 0.3388 0.0
C308 C 0.5888 0.22724 0.33336 0.0
C309 C 0.60971 0.26063 0.36235 0.0
N310 N 0.63371 0.23905 0.35667 0.0
O311 O 0.54568 0.28741 0.38405 0.0
H312 H 0.57245 0.2153 0.31904 0.0
H313 H 0.61268 0.28167 0.37566 0.0
O314 O 0.57009 0.32075 0.33958 0.0
C315 C 0.53619 0.26198 0.39686 0.0
O316 O 0.5256 0.23734 0.38195 0.0
N317 N 0.54078 0.2722 0.30629 0.0
C318 C 0.5376 0.24009 0.25525 0.0
C319 C 0.55643 0.26838 0.25825 0.0
C320 C 0.55726 0.2845 0.28394 0.0
C321 C 0.51906 0.24763 0.30267 0.0
C322 C 0.51687 0.23133 0.27725 0.0
H323 H 0.57207 0.30583 0.28575 0.0
H324 H 0.50518 0.23902 0.32039 0.0
H325 H 0.51559 0.33516 0.30499 0.0
H326 H 0.43111 0.3262 0.35369 0.0
H327 H 0.63268 0.19773 0.32871 0.0
H328 H 0.57239 0.27668 0.24174 0.0
H329 H 0.50094 0.2105 0.27563 0.0
C330 C 0.20825 0.47923 0.85116 0.0
C331 C 0.1874 0.45671 0.83974 0.0
N332 N 0.16723 0.47215 0.82201 0.0
N333 N 0.20124 0.50893 0.84092 0.0
C334 C 0.17579 0.50382 0.82347 0.0
H335 H 0.22846 0.47382 0.86477 0.0
Co336 Co 0.22725 0.54607 0.84575 0.0
C337 C 0.18838 0.60075 0.82478 0.0
O338 O 0.21414 0.61144 0.81139 0.0
N339 N 0.25413 0.58357 0.85144 0.0
C340 C 0.2948 0.61924 0.85107 0.0
C341 C 0.28579 0.58785 0.84509 0.0
C342 C 0.24533 0.61236 0.86314 0.0
N343 N 0.26906 0.63509 0.86188 0.0
O344 O 0.21788 0.54678 0.88478 0.0
H345 H 0.30175 0.5697 0.83646 0.0
H346 H 0.22119 0.61705 0.87103 0.0
O347 O 0.18962 0.57409 0.83847 0.0
C348 C 0.2406 0.53299 0.89843 0.0
O349 O 0.26476 0.51978 0.88452 0.0
N350 N 0.23893 0.54325 0.8077 0.0
C351 C 0.26749 0.54137 0.75464 0.0
C352 C 0.23424 0.54863 0.75792 0.0
C353 C 0.22052 0.54971 0.7846 0.0
C354 C 0.26885 0.52987 0.80442 0.0
C355 C 0.28406 0.5297 0.77841 0.0
H356 H 0.1954 0.55663 0.78639 0.0
H357 H 0.28181 0.521 0.82255 0.0
H358 H 0.16433 0.52267 0.81127 0.0
H359 H 0.18851 0.43068 0.84278 0.0
H360 H 0.31853 0.62955 0.84721 0.0
H361 H 0.21886 0.55484 0.74043 0.0
H362 H 0.30915 0.52221 0.77788 0.0
C363 C 0.03674 0.21866 0.35349 0.0
C364 C 0.06149 0.19922 0.34375 0.0
N365 N 0.04867 0.17606 0.32713 0.0
N366 N 0.00826 0.20793 0.34323 0.0
C367 C 0.01627 0.18156 0.32771 0.0
H368 H 0.03961 0.24039 0.36592 0.0
Co369 Co 0.96899 0.23093 0.3452 0.0
C370 C 0.92177 0.18792 0.31822 0.0
O371 O 0.91099 0.21292 0.30384 0.0
N372 N 0.92891 0.25467 0.34788 0.0
C373 C 0.89162 0.29396 0.34788 0.0
C374 C 0.9238 0.2867 0.3436 0.0
C375 C 0.89939 0.24356 0.35636 0.0
N376 N 0.87595 0.26667 0.35554 0.0
O377 O 0.96533 0.22138 0.38411 0.0
H378 H 0.94211 0.30431 0.33825 0.0
H379 H 0.89502 0.21866 0.36242 0.0
O380 O 0.94505 0.19141 0.33563 0.0
C381 C 0.97495 0.24627 0.39765 0.0
O382 O 0.98585 0.27127 0.38336 0.0
N383 N 0.97504 0.24326 0.30745 0.0
C384 C 0.97969 0.27266 0.25497 0.0
C385 C 0.97638 0.23874 0.25743 0.0
C386 C 0.97416 0.22449 0.28389 0.0
C387 C 0.98508 0.2746 0.3054 0.0
C388 C 0.98639 0.29016 0.27958 0.0
H389 H 0.97053 0.19864 0.28504 0.0
H390 H 0.99058 0.28813 0.32417 0.0
H391 H 0.99894 0.16792 0.31551 0.0
H392 H 0.08709 0.20287 0.34773 0.0
H393 H 0.8808 0.31777 0.34571 0.0
H394 H 0.97395 0.22328 0.23927 0.0
H395 H 0.99054 0.31605 0.27961 0.0
C396 C 0.30464 0.47986 0.14883 0.0
C397 C 0.32316 0.45513 0.15985 0.0
N398 N 0.34255 0.46751 0.17992 0.0
N399 N 0.31226 0.50797 0.16166 0.0
C400 C 0.33578 0.49969 0.18021 0.0
H401 H 0.28565 0.47702 0.13345 0.0
Co402 Co 0.28923 0.54732 0.15879 0.0
C403 C 0.33714 0.59682 0.17684 0.0
O404 O 0.31533 0.61215 0.19193 0.0
N405 N 0.26532 0.58702 0.15559 0.0
C406 C 0.22574 0.62367 0.15912 0.0
C407 C 0.23407 0.59169 0.16306 0.0
C408 C 0.27464 0.61643 0.14544 0.0
N409 N 0.25154 0.63965 0.14857 0.0
O410 O 0.29539 0.54813 0.11925 0.0
H411 H 0.21797 0.57321 0.17099 0.0
H412 H 0.29847 0.62098 0.1369 0.0
O413 O 0.32989 0.57095 0.1636 0.0
C414 C 0.27041 0.53681 0.10691 0.0
O415 O 0.24625 0.52585 0.12219 0.0
N416 N 0.28004 0.54457 0.19722 0.0
C417 C 0.25077 0.54211 0.24969 0.0
C418 C 0.28323 0.55217 0.24687 0.0
C419 C 0.29764 0.55284 0.22038 0.0
C420 C 0.25063 0.53002 0.20027 0.0
C421 C 0.23519 0.52915 0.2261 0.0
H422 H 0.32257 0.56048 0.2188 0.0
H423 H 0.23805 0.52103 0.18199 0.0
H424 H 0.34633 0.51658 0.19488 0.0
H425 H 0.32151 0.42977 0.15411 0.0
H426 H 0.20236 0.63418 0.16402 0.0
H427 H 0.29693 0.56073 0.26473 0.0
H428 H 0.21034 0.52067 0.22685 0.0
C429 C 0.03044 0.30234 0.65315 0.0
C430 C 0.05424 0.32215 0.66423 0.0
N431 N 0.03996 0.34409 0.68115 0.0
N432 N 1.00123 0.31186 0.66287 0.0
C433 C 0.00785 0.33762 0.67953 0.0
H434 H 0.03441 0.28116 0.64024 0.0
Co435 Co 0.96192 0.28922 0.65969 0.0
C436 C 0.91277 0.33715 0.67755 0.0
O437 O 0.89801 0.31528 0.69299 0.0
N438 N 0.92181 0.26587 0.65617 0.0
C439 C 0.88316 0.22809 0.65926 0.0
C440 C 0.91522 0.2352 0.66449 0.0
C441 C 0.89347 0.27606 0.64452 0.0
N442 N 0.86923 0.25402 0.64702 0.0
O443 O 0.96193 0.29507 0.62017 0.0
H444 H 0.93227 0.21871 0.67403 0.0
H445 H 0.89042 0.29963 0.63489 0.0
O446 O 0.93842 0.33003 0.66396 0.0
C447 C 0.97114 0.26928 0.60774 0.0
O448 O 0.98032 0.24439 0.62305 0.0
N449 N 0.96403 0.28055 0.69828 0.0
C450 C 0.96582 0.25356 0.75183 0.0
C451 C 0.95871 0.28673 0.74796 0.0
C452 C 0.95798 0.2998 0.72096 0.0
C453 C 0.97659 0.25036 0.70213 0.0
C454 C 0.97683 0.236 0.72844 0.0
H455 H 0.95194 0.3251 0.71862 0.0
H456 H 0.98449 0.23646 0.68419 0.0
H457 H 0.98962 0.35068 0.69123 0.0
H458 H 0.08017 0.31916 0.66156 0.0
H459 H 0.87081 0.20592 0.66513 0.0
H460 H 0.95237 0.30226 0.76536 0.0
H461 H 0.98339 0.21063 0.72962 0.0
C462 C 0.20024 0.02989 0.14868 0.0
C463 C 0.17955 0.05272 0.15981 0.0
N464 N 0.16824 0.04158 0.18449 0.0
N465 N 0.20202 1.00418 0.16605 0.0
C466 C 0.18191 0.01187 0.18751 0.0
H467 H 0.21421 0.03267 0.12971 0.0
Co468 Co 0.23137 0.96941 0.16299 0.0
C469 C 0.19766 0.91125 0.18471 0.0
O470 O 0.22457 0.90231 0.19735 0.0
N471 N 0.26123 0.9341 0.15944 0.0
C472 C 0.29985 0.89724 0.16701 0.0
C473 C 0.2899 0.92866 0.17231 0.0
C474 C 0.25532 0.90615 0.14528 0.0
N475 N 0.27766 0.88277 0.15043 0.0
O476 O 0.22185 0.96508 0.1241 0.0
H477 H 0.30192 0.94546 0.1862 0.0
H478 H 0.23339 0.90223 0.1333 0.0
O479 O 0.19637 0.93856 0.17193 0.0
C480 C 0.24545 0.97697 0.11019 0.0
O481 O 0.26917 0.99105 0.12403 0.0
N482 N 0.24371 0.9765 0.20024 0.0
C483 C 0.28027 0.98566 0.24849 0.0
C484 C 0.25169 0.96681 0.24905 0.0
C485 C 0.23307 0.96345 0.2248 0.0
C486 C 0.26778 0.99911 0.20051 0.0
C487 C 0.28594 1.00467 0.22458 0.0
H488 H 0.2111 0.94937 0.22583 0.0
H489 H 0.27438 0.01127 0.18128 0.0
H490 H 0.17887 0.99682 0.20584 0.0
H491 H 0.17413 0.07618 0.15074 0.0
H492 H 0.32049 0.88531 0.17653 0.0
H493 H 0.2448 0.95267 0.26714 0.0
H494 H 0.30592 0.02166 0.22348 0.0
C495 C 0.4801 0.19425 0.6452 0.0
C496 C 0.45734 0.17341 0.65624 0.0
N497 N 0.46925 0.16069 0.68012 0.0
N498 N 0.50646 0.19473 0.66189 0.0
C499 C 0.49927 0.17369 0.6828 0.0
H500 H 0.47679 0.20939 0.62696 0.0
Co501 Co 0.54098 0.22433 0.65952 0.0
C502 C 0.59894 0.18973 0.68122 0.0
O503 O 0.60864 0.21637 0.69387 0.0
N504 N 0.57586 0.2547 0.65673 0.0
C505 C 0.60889 0.29671 0.66355 0.0
C506 C 0.57816 0.28462 0.66804 0.0
C507 C 0.60506 0.25008 0.6441 0.0
N508 N 0.62621 0.27464 0.64897 0.0
O509 O 0.54594 0.21558 0.62049 0.0
H510 H 0.55926 0.29668 0.67972 0.0
H511 H 0.61149 0.2277 0.63363 0.0
O512 O 0.57172 0.18925 0.66831 0.0
C513 C 0.53377 0.23918 0.60673 0.0
O514 O 0.51932 0.26256 0.62074 0.0
N515 N 0.53338 0.23585 0.69694 0.0
C516 C 0.52441 0.27173 0.74556 0.0
C517 C 0.54346 0.24329 0.74575 0.0
C518 C 0.54677 0.22502 0.72131 0.0
C519 C 0.51041 0.25962 0.69764 0.0
C520 C 0.50507 0.27755 0.72188 0.0
H521 H 0.56112 0.20321 0.72205 0.0
H522 H 0.49803 0.26638 0.67855 0.0
H523 H 0.5148 0.16972 0.70071 0.0
H524 H 0.43335 0.16899 0.64784 0.0
H525 H 0.61794 0.31964 0.67134 0.0
H526 H 0.55787 0.23637 0.76369 0.0
H527 H 0.48808 0.29759 0.7211 0.0
H528 H 0.6673 0.90345 0.18589 0.0
H529 H 0.6295 0.99346 0.2189 0.0
H530 H 0.63772 0.87333 0.22125 0.0
H531 H 0.60036 0.96307 0.2551 0.0
H532 H 0.52656 0.8909 0.29665 0.0
H533 H 0.5549 0.92417 0.262 0.0
H534 H 0.64021 0.86419 0.27128 0.0
H535 H 0.61186 0.83056 0.30501 0.0
C536 C 0.65251 0.91692 0.20054 0.0
C537 C 0.65084 0.95104 0.19933 0.0
C538 C 0.63581 0.89957 0.22116 0.0
C539 C 0.61682 0.9157 0.24127 0.0
C540 C 0.61465 0.94981 0.2399 0.0
C541 C 0.63158 0.96727 0.21927 0.0
C542 C 0.55135 0.88478 0.2913 0.0
C543 C 0.56672 0.8578 0.30371 0.0
C544 C 0.56771 0.90407 0.27157 0.0
C545 C 0.59979 0.89674 0.26359 0.0
C546 C 0.61537 0.8703 0.27653 0.0
C547 C 0.59914 0.85117 0.29626 0.0
H548 H 0.64661 0.51825 0.77246 0.0
H549 H 0.63826 0.59892 0.82966 0.0
H550 H 0.61269 0.54689 0.73878 0.0
H551 H 0.605 0.62802 0.79558 0.0
H552 H 0.52456 0.66188 0.73656 0.0
H553 H 0.55244 0.62881 0.77155 0.0
H554 H 0.61809 0.59362 0.70799 0.0
H555 H 0.58973 0.62601 0.67298 0.0
C556 C 0.63722 0.54191 0.77808 0.0
C557 C 0.64526 0.55622 0.80391 0.0
C558 C 0.61804 0.55855 0.75855 0.0
C559 C 0.6062 0.58991 0.7643 0.0
C560 C 0.61343 0.60383 0.79046 0.0
C561 C 0.63278 0.58726 0.80994 0.0
C562 C 0.54458 0.64668 0.72994 0.0
C563 C 0.55489 0.6467 0.70187 0.0
C564 C 0.56083 0.62797 0.7501 0.0
C565 C 0.58766 0.60858 0.74269 0.0
C566 C 0.59738 0.60798 0.71448 0.0
C567 C 0.5813 0.62683 0.6944 0.0
H568 H 0.90655 0.68641 0.29056 0.0
H569 H 0.98085 0.61316 0.29928 0.0
H570 H 0.87842 0.65266 0.25652 0.0
H571 H 0.95249 0.57911 0.26486 0.0
H572 H 0.86542 0.51749 0.22621 0.0
H573 H 0.8981 0.54831 0.25953 0.0
H574 H 0.88976 0.63335 0.20737 0.0
H575 H 0.85799 0.60261 0.17367 0.0
C576 C 0.91673 0.66291 0.28547 0.0
C577 C 0.94592 0.65245 0.29782 0.0
C578 C 0.90076 0.6437 0.26567 0.0
C579 C 0.9133 0.61327 0.25782 0.0
C580 C 0.94217 0.60241 0.27052 0.0
C581 C 0.95847 0.62193 0.29011 0.0
C582 C 0.87101 0.54254 0.22143 0.0
C583 C 0.8585 0.55751 0.19718 0.0
C584 C 0.88973 0.56025 0.24068 0.0
C585 C 0.89614 0.5934 0.23631 0.0
C586 C 0.88471 0.60801 0.21164 0.0
C587 C 0.86638 0.59031 0.1923 0.0
H588 H 1.00167 0.8912 0.7131 0.0
H589 H 0.9121 0.84806 0.68443 0.0
H590 H 0.97162 0.92033 0.74957 0.0
H591 H 0.88231 0.87755 0.72004 0.0
H592 H 0.84293 0.90285 0.80494 0.0
H593 H 0.87644 0.87565 0.77054 0.0
H594 H 0.93022 0.96419 0.75697 0.0
H595 H 0.897 0.99155 0.79235 0.0
C596 C 0.97565 0.88796 0.71446 0.0
C597 C 0.95945 0.86716 0.69569 0.0
C598 C 0.95837 0.90488 0.73524 0.0
C599 C 0.92453 0.90114 0.73793 0.0
C600 C 0.90839 0.8807 0.71891 0.0
C601 C 0.92553 0.86402 0.69815 0.0
C602 C 0.86217 0.91661 0.79514 0.0
C603 C 0.86706 0.9496 0.80164 0.0
C604 C 0.88122 0.90098 0.77501 0.0
C605 C 0.90584 0.91775 0.76065 0.0
C606 C 0.91151 0.95048 0.76764 0.0
C607 C 0.89227 0.96625 0.78779 0.0
H608 H 0.33773 0.10458 0.81159 0.0
H609 H 0.38899 0.01524 0.79465 0.0
H610 H 0.37028 0.13237 0.77655 0.0
H611 H 0.42148 0.04318 0.75903 0.0
H612 H 0.49399 0.11768 0.71774 0.0
H613 H 0.46398 0.08769 0.75378 0.0
H614 H 0.37454 0.13085 0.72487 0.0
H615 H 0.4043 0.16091 0.68942 0.0
C616 C 0.35617 0.09088 0.80062 0.0
C617 C 0.3607 0.0576 0.80605 0.0
C618 C 0.37464 0.10679 0.78025 0.0
C619 C 0.39836 0.08998 0.76482 0.0
C620 C 0.40349 0.05686 0.77062 0.0
C621 C 0.38471 0.0408 0.79087 0.0
C622 C 0.46793 0.12071 0.71912 0.0
C623 C 0.45162 0.1417 0.70059 0.0
C624 C 0.45071 0.10337 0.73962 0.0
C625 C 0.41686 0.10701 0.74232 0.0
C626 C 0.40062 0.12774 0.72361 0.0
C627 C 0.4177 0.14473 0.70301 0.0
H628 H 0.40304 0.34043 0.31379 0.0
H629 H 0.49343 0.38401 0.28754 0.0
H630 H 0.37396 0.37253 0.27935 0.0
H631 H 0.46422 0.41553 0.25224 0.0
H632 H 0.39378 0.48983 0.21054 0.0
H633 H 0.42478 0.46003 0.24586 0.0
H634 H 0.36771 0.37428 0.22917 0.0
H635 H 0.33626 0.40406 0.1948 0.0
C636 C 0.4168 0.357 0.30086 0.0
C637 C 0.45074 0.35945 0.30361 0.0
C638 C 0.40008 0.37518 0.28075 0.0
C639 C 0.4167 0.39646 0.26273 0.0
C640 C 0.45057 0.39951 0.2658 0.0
C641 C 0.46738 0.38117 0.28591 0.0
C642 C 0.38778 0.46465 0.21446 0.0
C643 C 0.36235 0.44952 0.19968 0.0
C644 C 0.40577 0.44746 0.23457 0.0
C645 C 0.39865 0.41475 0.24058 0.0
C646 C 0.37361 0.39955 0.22547 0.0
C647 C 0.35577 0.41662 0.20537 0.0
H648 H 0.09732 0.37531 0.67392 0.0
H649 H 0.0192 0.36153 0.73288 0.0
H650 H 0.12611 0.4089 0.70816 0.0
H651 H 0.04775 0.39519 0.76692 0.0
H652 H 0.13119 0.41808 0.8301 0.0
H653 H 0.09853 0.38921 0.79538 0.0
H654 H 0.12192 0.46237 0.73395 0.0
H655 H 0.1547 0.49116 0.76873 0.0
C656 C 0.08621 0.37965 0.69409 0.0
C657 C 0.05593 0.36578 0.70058 0.0
C658 C 0.10257 0.39907 0.71365 0.0
C659 C 0.08926 0.4047 0.74032 0.0
C660 C 0.05878 0.39117 0.74665 0.0
C661 C 0.04225 0.37214 0.727 0.0
C662 C 0.12912 0.42811 0.80925 0.0
C663 C 0.14548 0.45693 0.80222 0.0
C664 C 0.11028 0.41169 0.78938 0.0
C665 C 0.10767 0.42343 0.76184 0.0
C666 C 0.12361 0.45256 0.75491 0.0
C667 C 0.1421 0.46924 0.77492 0.0
H668 H 0.02665 0.11987 0.3036 0.0
H669 H 0.1105 0.18269 0.30794 0.0
H670 H 0.05468 0.08603 0.26915 0.0
H671 H 0.13858 0.14853 0.27449 0.0
H672 H 0.16392 0.10713 0.18975 0.0
H673 H 0.13432 0.13765 0.22481 0.0
H674 H 0.10111 0.04817 0.26215 0.0
H675 H 0.1302 0.0173 0.22623 0.0
C676 C 0.05106 0.12641 0.29743 0.0
C677 C 0.0661 0.15425 0.30863 0.0
C678 C 0.06725 0.10682 0.27782 0.0
C679 C 0.09881 0.1147 0.26879 0.0
C680 C 0.11411 0.14198 0.28057 0.0
C681 C 0.09805 0.16143 0.30015 0.0
C682 C 0.15001 0.09377 0.20509 0.0
C683 C 0.14954 0.05959 0.20497 0.0
C684 C 0.13331 0.11137 0.22553 0.0
C685 C 0.11556 0.09543 0.24656 0.0
C686 C 0.11446 0.06126 0.24623 0.0
C687 C 0.13137 0.04355 0.22576 0.0
H688 H 0.68513 0.1656 0.17347 0.0
H689 H 0.62885 0.07713 0.17395 0.0
H690 H 0.63649 0.19707 0.18176 0.0
H691 H 0.5794 0.109 0.18255 0.0
H692 H 0.55294 0.25309 0.20013 0.0
H693 H 0.58167 0.21625 0.16867 0.0
H694 H 0.56672 0.13756 0.22693 0.0
H695 H 0.53896 0.17386 0.25832 0.0
C696 C 0.66212 0.15294 0.17475 0.0
C697 C 0.66077 0.11892 0.17365 0.0
C698 C 0.63408 0.17105 0.17911 0.0
C699 C 0.60404 0.15553 0.18288 0.0
C700 C 0.60228 0.12157 0.17977 0.0
C701 C 0.63048 0.10336 0.17494 0.0
C702 C 0.55502 0.22773 0.20586 0.0
C703 C 0.54448 0.2168 0.23221 0.0
C704 C 0.57127 0.2066 0.18774 0.0
C705 C 0.57709 0.17421 0.19565 0.0
C706 C 0.56259 0.16232 0.22013 0.0
C707 C 0.54657 0.18338 0.23827 0.0
H708 H 0.3302 0.52385 0.73703 0.0
H709 H 0.24708 0.58085 0.71042 0.0
H710 H 0.36499 0.55803 0.70921 0.0
H711 H 0.2815 0.6116 0.68019 0.0
H712 H 0.34931 0.69834 0.69391 0.0
H713 H 0.31326 0.65305 0.70002 0.0
H714 H 0.38799 0.58746 0.67071 0.0
H715 H 0.42506 0.63373 0.66527 0.0
C716 C 0.31888 0.5431 0.72519 0.0
C717 C 0.28576 0.55118 0.72869 0.0
C718 C 0.33905 0.56225 0.70843 0.0
C719 C 0.32623 0.58889 0.69383 0.0
C720 C 0.29237 0.59238 0.69252 0.0
C721 C 0.27239 0.57416 0.71002 0.0
C722 C 0.35818 0.67435 0.68858 0.0
C723 C 0.39024 0.66954 0.67964 0.0
C724 C 0.33718 0.64825 0.69158 0.0
C725 C 0.34751 0.61643 0.68562 0.0
C726 C 0.3793 0.61163 0.67557 0.0
C727 C 0.4005 0.63805 0.67248 0.0
H728 H 0.94221 0.25027 0.21076 0.0
H729 H 0.99608 0.33526 0.23729 0.0
H730 H 0.91072 0.28348 0.17975 0.0
H731 H 0.96114 0.36891 0.20876 0.0
H732 H 0.88236 0.42639 0.16643 0.0
H733 H 0.93021 0.39092 0.17032 0.0
H734 H 0.86842 0.3135 0.20053 0.0
H735 H 0.82169 0.34804 0.19607 0.0
C736 C 0.94818 0.27579 0.20986 0.0
C737 C 0.97038 0.29012 0.22862 0.0
C738 C 0.92956 0.29503 0.19205 0.0
C739 C 0.93181 0.32903 0.1933 0.0
C740 C 0.9579 0.34283 0.20798 0.0
C741 C 0.9775 0.3234 0.22503 0.0
C742 C 0.87924 0.40157 0.17344 0.0
C743 C 0.84848 0.39013 0.18149 0.0
C744 C 0.90654 0.38129 0.17565 0.0
C745 C 0.90327 0.34924 0.18557 0.0
C746 C 0.87207 0.33768 0.1922 0.0
C747 C 0.84515 0.3578 0.19017 0.0
H748 H 0.25161 0.975 0.70376 0.0
H749 H 0.1708 0.97643 0.76153 0.0
H750 H 0.2167 0.95001 0.66857 0.0
H751 H 0.1364 0.95238 0.7266 0.0
H752 H 0.08088 0.89228 0.67038 0.0
H753 H 0.10919 0.94315 0.68137 0.0
H754 H 0.2012 0.89292 0.67583 0.0
H755 H 0.17318 0.84286 0.66517 0.0
C756 C 0.22626 0.97103 0.7087 0.0
C757 C 0.21442 0.97666 0.73586 0.0
C758 C 0.20621 0.95698 0.68846 0.0
C759 C 0.17406 0.94842 0.69509 0.0
C760 C 0.16103 0.95862 0.72074 0.0
C761 C 0.18101 0.97247 0.74096 0.0
C762 C 0.10719 0.89256 0.6707 0.0
C763 C 0.12491 0.86366 0.66761 0.0
C764 C 0.12336 0.9216 0.67689 0.0
C765 C 0.15741 0.92202 0.67968 0.0
C766 C 0.17503 0.89367 0.67359 0.0
C767 C 0.15893 0.86477 0.66785 0.0
H768 H 0.51871 0.33771 0.73758 0.0
H769 H 0.54465 0.26705 0.801 0.0
H770 H 0.54788 0.37884 0.76271 0.0
H771 H 0.57595 0.3088 0.82513 0.0
H772 H 0.63476 0.40137 0.85599 0.0
H773 H 0.58357 0.37225 0.8461 0.0
H774 H 0.61133 0.36469 0.75925 0.0
H775 H 0.66198 0.39255 0.76913 0.0
C776 C 0.52926 0.33084 0.75742 0.0
C777 C 0.53044 0.29819 0.76635 0.0
C778 C 0.54621 0.35478 0.77181 0.0
C779 C 0.56493 0.34664 0.79521 0.0
C780 C 0.56194 0.31551 0.80684 0.0
C781 C 0.54447 0.29146 0.79263 0.0
C782 C 0.62944 0.39376 0.8348 0.0
C783 C 0.6521 0.39892 0.81327 0.0
C784 C 0.60038 0.3772 0.82921 0.0
C785 C 0.59348 0.36675 0.8019 0.0
C786 C 0.61583 0.37303 0.7804 0.0
C787 C 0.64491 0.38869 0.78606 0.0
H788 H 0.25735 0.59497 0.28387 0.0
H789 H 0.19936 0.50831 0.27286 0.0
H790 H 0.21551 0.61797 0.31314 0.0
H791 H 0.15645 0.53257 0.30121 0.0
H792 H 0.08667 0.62686 0.28437 0.0
H793 H 0.12566 0.58235 0.28058 0.0
H794 H 0.17534 0.61736 0.35419 0.0
H795 H 0.13573 0.66144 0.35819 0.0
C796 C 0.23639 0.58009 0.28858 0.0
C797 C 0.23134 0.55019 0.27503 0.0
C798 C 0.21222 0.59344 0.30545 0.0
C799 C 0.18244 0.57734 0.30886 0.0
C800 C 0.17904 0.54567 0.29848 0.0
C801 C 0.20353 0.53198 0.28203 0.0
C802 C 0.10501 0.62398 0.30045 0.0
C803 C 0.10845 0.64729 0.3215 0.0
C804 C 0.12725 0.5985 0.29841 0.0
C805 C 0.15361 0.59654 0.31706 0.0
C806 C 0.15523 0.61832 0.33961 0.0
C807 C 0.13265 0.64351 0.34187 0.0
H808 H 0.91987 0.2714 0.7912 0.0
H809 H 0.98962 0.19535 0.77352 0.0
H810 H 0.88978 0.23451 0.82022 0.0
H811 H 0.95665 0.15736 0.79976 0.0
H812 H 0.88149 0.0897 0.83645 0.0
H813 H 0.92389 0.13175 0.83557 0.0
H814 H 0.85625 0.19762 0.79582 0.0
H815 H 0.81481 0.15678 0.79723 0.0
C816 C 0.92955 0.24719 0.7938 0.0
C817 C 0.95612 0.23596 0.77794 0.0
C818 C 0.91181 0.22576 0.81038 0.0
C819 C 0.91949 0.19251 0.81061 0.0
C820 C 0.94932 0.18261 0.79924 0.0
C821 C 0.96788 0.20441 0.78353 0.0
C822 C 0.87586 0.11338 0.82786 0.0
C823 C 0.84506 0.11975 0.81643 0.0
C824 C 0.90002 0.13744 0.82744 0.0
C825 C 0.89348 0.16826 0.81593 0.0
C826 C 0.86218 0.17462 0.80555 0.0
C827 C 0.83841 0.1508 0.80582 0.0
H828 H 0.34631 0.99307 0.24075 0.0
H829 H 0.27624 0.96436 0.30378 0.0
H830 H 0.38787 0.96384 0.26516 0.0
H831 H 0.31844 0.93283 0.327 0.0
H832 H 0.40886 0.87155 0.35588 0.0
H833 H 0.38042 0.92352 0.34766 0.0
H834 H 0.37555 0.90119 0.2595 0.0
H835 H 0.40273 0.84976 0.26775 0.0
C836 C 0.33956 0.98183 0.26033 0.0
C837 C 0.30692 0.97979 0.2692 0.0
C838 C 0.36382 0.96485 0.27432 0.0
C839 C 0.35599 0.94516 0.2972 0.0
C840 C 0.3249 0.94747 0.30901 0.0
C841 C 0.30056 0.96505 0.29527 0.0
C842 C 0.40206 0.87828 0.33478 0.0
C843 C 0.40768 0.85689 0.31239 0.0
C844 C 0.38589 0.90779 0.33013 0.0
C845 C 0.37631 0.91643 0.30295 0.0
C846 C 0.38325 0.89541 0.2806 0.0
C847 C 0.39851 0.86586 0.28531 0.0
H848 H 0.47169 0.7699 0.79868 0.0
H849 H 0.47191 0.84694 0.73708 0.0
H850 H 0.4418 0.80515 0.83065 0.0
H851 H 0.4436 0.88189 0.76921 0.0
H852 H 0.33287 0.84639 0.82905 0.0
H853 H 0.38346 0.81861 0.81886 0.0
H854 H 0.43327 0.91085 0.81495 0.0
H855 H 0.38209 0.93887 0.82564 0.0
C856 C 0.46637 0.79453 0.7922 0.0
C857 C 0.47327 0.80501 0.76482 0.0
C858 C 0.44955 0.81479 0.81065 0.0
C859 C 0.43982 0.84599 0.80216 0.0
C860 C 0.45083 0.85801 0.77642 0.0
C861 C 0.46721 0.83771 0.75788 0.0
C862 C 0.35477 0.8607 0.82672 0.0
C863 C 0.35359 0.89472 0.8276 0.0
C864 C 0.38389 0.84477 0.82127 0.0
C865 C 0.41235 0.86257 0.8161 0.0
C866 C 0.41166 0.89659 0.81892 0.0
C867 C 0.38246 0.91257 0.82492 0.0
H868 H 0.75255 0.42383 0.2856 0.0
H869 H 0.68474 0.50229 0.27084 0.0
H870 H 0.71494 0.39922 0.31754 0.0
H871 H 0.64613 0.4765 0.30258 0.0
H872 H 0.58242 0.3783 0.29875 0.0
H873 H 0.61643 0.42599 0.29078 0.0
H874 H 0.67981 0.39574 0.35801 0.0
H875 H 0.64605 0.34769 0.36523 0.0
C876 C 0.73023 0.43674 0.28999 0.0
C877 C 0.7214 0.4646 0.27477 0.0
C878 C 0.70842 0.42243 0.30848 0.0
C879 C 0.67716 0.43548 0.3121 0.0
C880 C 0.6698 0.46552 0.2997 0.0
C881 C 0.69189 0.48014 0.28138 0.0
C882 C 0.60288 0.38273 0.31248 0.0
C883 C 0.61215 0.35945 0.33225 0.0
C884 C 0.62231 0.41008 0.3081 0.0
C885 C 0.6512 0.41431 0.32347 0.0
C886 C 0.65804 0.39284 0.34555 0.0
C887 C 0.63881 0.36538 0.34968 0.0
H888 H 0.05784 0.75942 0.79495 0.0
H889 H 0.04398 0.68007 0.73683 0.0
H890 H 0.08395 0.72197 0.82756 0.0
H891 H 0.0687 0.64321 0.76949 0.0
H892 H 0.18577 0.66605 0.82526 0.0
H893 H 0.13882 0.70004 0.81616 0.0
H894 H 0.07737 0.61497 0.815 0.0
H895 H 0.125 0.58068 0.82433 0.0
C896 C 0.0594 0.73398 0.7894 0.0
C897 C 0.0497 0.72315 0.76277 0.0
C898 C 0.07407 0.7125 0.80822 0.0
C899 C 0.07893 0.67981 0.80082 0.0
C900 C 0.06521 0.66819 0.77592 0.0
C901 C 0.05093 0.68961 0.75704 0.0
C902 C 0.1621 0.65469 0.82369 0.0
C903 C 0.15892 0.62082 0.82475 0.0
C904 C 0.13508 0.6742 0.81892 0.0
C905 C 0.10439 0.66016 0.81469 0.0
C906 C 0.10079 0.62638 0.8181 0.0
C907 C 0.12793 0.6068 0.82334 0.0
H908 H 0.90897 0.16376 0.26746 0.0
H909 H 0.90384 0.1405 0.35533 0.0
H910 H 0.88045 0.11389 0.25618 0.0
H911 H 0.87417 0.0901 0.34403 0.0
H912 H 0.77318 0.05396 0.2962 0.0
H913 H 0.81567 0.08361 0.32084 0.0
H914 H 0.88581 0.05208 0.25968 0.0
H915 H 0.84388 0.02465 0.23397 0.0
C916 C 0.90211 0.14755 0.28431 0.0
C917 C 0.90838 0.15575 0.31217 0.0
C918 C 0.88606 0.11886 0.2779 0.0
C919 C 0.8754 0.09799 0.29926 0.0
C920 C 0.88242 0.10571 0.32724 0.0
C921 C 0.89933 0.13432 0.33365 0.0
C922 C 0.79773 0.05277 0.28818 0.0
C923 C 0.80441 0.03809 0.26218 0.0
C924 C 0.82219 0.06931 0.30267 0.0
C925 C 0.85371 0.07084 0.29159 0.0
C926 C 0.86148 0.0517 0.26833 0.0
C927 C 0.83712 0.0357 0.25364 0.0
H928 H 0.43318 0.7543 0.2129 0.0
H929 H 0.51285 0.68801 0.22782 0.0
H930 H 0.40849 0.71552 0.18203 0.0
H931 H 0.4871 0.64828 0.19713 0.0
H932 H 0.38998 0.58451 0.20842 0.0
H933 H 0.43747 0.61951 0.21275 0.0
H934 H 0.40315 0.67754 0.1434 0.0
H935 H 0.35529 0.64265 0.13969 0.0
C936 C 0.44636 0.73209 0.20868 0.0
C937 C 0.47446 0.72388 0.22383 0.0
C938 C 0.43203 0.70962 0.19079 0.0
C939 C 0.44535 0.67839 0.1878 0.0
C940 C 0.47589 0.67191 0.19963 0.0
C941 C 0.49049 0.69461 0.21735 0.0
C942 C 0.39343 0.60398 0.19347 0.0
C943 C 0.36928 0.61127 0.17391 0.0
C944 C 0.4207 0.62392 0.19572 0.0
C945 C 0.42388 0.65157 0.17858 0.0
C946 C 0.4012 0.65662 0.15703 0.0
C947 C 0.37389 0.63672 0.15488 0.0
H948 H 0.8189 0.51006 0.73228 0.0
H949 H 0.7546 0.42967 0.71419 0.0
H950 H 0.85976 0.48622 0.70153 0.0
H951 H 0.79446 0.40716 0.6829 0.0
H952 H 0.87059 0.35898 0.63854 0.0
H953 H 0.83483 0.40621 0.64359 0.0
H954 H 0.88706 0.43424 0.71817 0.0
H955 H 0.92223 0.38693 0.7131 0.0
C956 C 0.81294 0.488 0.72109 0.0
C957 C 0.78396 0.47107 0.72678 0.0
C958 C 0.83626 0.47458 0.70327 0.0
C959 C 0.83058 0.44447 0.69041 0.0
C960 C 0.79962 0.43042 0.69253 0.0
C961 C 0.77658 0.44348 0.71064 0.0
C962 C 0.87501 0.37605 0.65534 0.0
C963 C 0.89868 0.36957 0.67563 0.0
C964 C 0.85471 0.40304 0.65818 0.0
C965 C 0.85802 0.42377 0.68135 0.0
C966 C 0.88413 0.41898 0.6999 0.0
C967 C 0.90415 0.39183 0.69718 0.0
H968 H 0.08614 0.74062 0.20665 0.0
H969 H 0.02007 0.82034 0.22276 0.0
H970 H 0.11941 0.77596 0.17881 0.0
H971 H 0.05617 0.8566 0.19789 0.0
H972 H 0.13578 0.92044 0.16387 0.0
H973 H 0.09118 0.88088 0.16385 0.0
H974 H 0.15459 0.8106 0.20321 0.0
H975 H 0.19832 0.84902 0.20253 0.0
C976 C 0.07795 0.76536 0.20396 0.0
C977 C 0.05143 0.77796 0.21911 0.0
C978 C 0.09757 0.78589 0.18811 0.0
C979 C 0.0918 0.81953 0.18792 0.0
C980 C 0.0621 0.83099 0.19844 0.0
C981 C 0.04168 0.81014 0.21337 0.0
C982 C 0.14003 0.89636 0.17223 0.0
C983 C 0.17038 0.88805 0.18364 0.0
C984 C 0.11458 0.8737 0.17213 0.0
C985 C 0.11924 0.84236 0.18324 0.0
C986 C 0.15005 0.83406 0.19375 0.0
C987 C 0.17516 0.85649 0.19389 0.0
H988 H 0.68121 0.01221 0.73185 0.0
H989 H 0.76379 0.0697 0.70502 0.0
H990 H 0.64569 0.04787 0.70598 0.0
H991 H 0.72856 0.10214 0.67675 0.0
H992 H 0.66208 0.18863 0.69633 0.0
H993 H 0.69778 0.14262 0.69987 0.0
H994 H 0.62183 0.07969 0.66879 0.0
H995 H 0.58517 0.12665 0.66584 0.0
C996 C 0.69223 0.03184 0.72026 0.0
C997 C 0.72547 0.03961 0.72326 0.0
C998 C 0.67163 0.05189 0.70467 0.0
C999 C 0.68416 0.07913 0.69074 0.0
C1000 C 0.71799 0.08238 0.68862 0.0
C1001 C 0.73842 0.0632 0.70495 0.0
C1002 C 0.65286 0.16509 0.69006 0.0
C1003 C 0.62061 0.1612 0.68127 0.0
C1004 C 0.67363 0.13861 0.6916 0.0
C1005 C 0.66289 0.10733 0.6843 0.0
C1006 C 0.63085 0.10345 0.67458 0.0
C1007 C 0.60989 0.13027 0.67292 0.0
H1008 H 0.79017 0.3411 0.11683 0.0
H1009 H 0.70154 0.32261 0.16269 0.0
H1010 H 0.79853 0.2828 0.11187 0.0
H1011 H 0.70996 0.26489 0.15757 0.0
H1012 H 0.71793 0.16246 0.12761 0.0
H1013 H 0.71018 0.22075 0.12469 0.0
H1014 H 0.8124 0.23555 0.14017 0.0
H1015 H 0.82046 0.17693 0.14218 0.0
C1016 C 0.77236 0.32491 0.12583 0.0
C1017 C 0.74508 0.3372 0.14019 0.0
C1018 C 0.77724 0.29129 0.12298 0.0
C1019 C 0.7549 0.26896 0.13423 0.0
C1020 C 0.72742 0.28122 0.14812 0.0
C1021 C 0.7226 0.31468 0.15107 0.0
C1022 C 0.73901 0.17788 0.12982 0.0
C1023 C 0.76986 0.16459 0.13547 0.0
C1024 C 0.73443 0.21155 0.12847 0.0
C1025 C 0.76054 0.23307 0.13261 0.0
C1026 C 0.79169 0.21984 0.1368 0.0
C1027 C 0.79627 0.1861 0.13822 0.0
H1028 H 0.35116 0.7308 0.60785 0.0
H1029 H 0.33513 0.81709 0.65752 0.0
H1030 H 0.29268 0.72414 0.60289 0.0
H1031 H 0.27712 0.8104 0.65234 0.0
H1032 H 0.1734 0.80476 0.62392 0.0
H1033 H 0.23182 0.81234 0.62036 0.0
H1034 H 0.24624 0.70929 0.6316 0.0
H1035 H 0.18766 0.70156 0.63436 0.0
C1036 C 0.33545 0.74846 0.61768 0.0
C1037 C 0.34849 0.77445 0.63326 0.0
C1038 C 0.30172 0.74457 0.61481 0.0
C1039 C 0.27998 0.76667 0.62725 0.0
C1040 C 0.29297 0.79313 0.64207 0.0
C1041 C 0.32659 0.79695 0.64506 0.0
C1042 C 0.18883 0.78355 0.62507 0.0
C1043 C 0.17551 0.75252 0.62976 0.0
C1044 C 0.22253 0.78798 0.62334 0.0
C1045 C 0.24397 0.76151 0.62605 0.0
C1046 C 0.23062 0.73028 0.62929 0.0
C1047 C 0.19691 0.72586 0.63114 0.0
H1048 H 0.7019 0.17576 0.8257 0.0
H1049 H 0.78 0.16239 0.88489 0.0
H1050 H 0.70716 0.2341 0.83005 0.0
H1051 H 0.78517 0.22122 0.88939 0.0
H1052 H 0.81008 0.32644 0.86215 0.0
H1053 H 0.80325 0.26776 0.86364 0.0
H1054 H 0.69917 0.2799 0.85952 0.0
H1055 H 0.70608 0.33846 0.85664 0.0
C1056 C 0.71982 0.18512 0.84011 0.0
C1057 C 0.74042 0.16398 0.85501 0.0
C1058 C 0.72285 0.21885 0.84262 0.0
C1059 C 0.74655 0.23266 0.86015 0.0
C1060 C 0.76689 0.21158 0.8754 0.0
C1061 C 0.76389 0.17773 0.87285 0.0
C1062 C 0.78571 0.31668 0.86156 0.0
C1063 C 0.7587 0.33748 0.859 0.0
C1064 C 0.78175 0.28288 0.86274 0.0
C1065 C 0.75064 0.26882 0.86148 0.0
C1066 C 0.72356 0.28969 0.86006 0.0
C1067 C 0.72751 0.32348 0.8588 0.0
H1068 H 0.34186 0.79711 0.34317 0.0
H1069 H 0.33618 0.697 0.36913 0.0
H1070 H 0.28295 0.80147 0.3456 0.0
H1071 H 0.27725 0.7014 0.37258 0.0
H1072 H 0.17182 0.70876 0.34151 0.0
H1073 H 0.23066 0.70421 0.34488 0.0
H1074 H 0.23592 0.804 0.3727 0.0
H1075 H 0.17706 0.80853 0.3683 0.0
C1076 C 0.32804 0.77623 0.35005 0.0
C1077 C 0.34376 0.74668 0.35589 0.0
C1078 C 0.29411 0.77868 0.3515 0.0
C1079 C 0.27491 0.75174 0.35917 0.0
C1080 C 0.29089 0.72252 0.36598 0.0
C1081 C 0.32478 0.71999 0.36418 0.0
C1082 C 0.18553 0.72949 0.34884 0.0
C1083 C 0.16974 0.75899 0.35465 0.0
C1084 C 0.21941 0.72696 0.3508 0.0
C1085 C 0.23848 0.7538 0.35894 0.0
C1086 C 0.22239 0.78297 0.36574 0.0
C1087 C 0.18856 0.78557 0.36343 0.0
H1088 H 0.22176 0.66734 0.89106 0.0
H1089 H 0.30894 0.68296 0.8425 0.0
H1090 H 0.21454 0.72595 0.89499 0.0
H1091 H 0.30168 0.74097 0.84652 0.0
H1092 H 0.29572 0.84484 0.87315 0.0
H1093 H 0.30316 0.78655 0.87756 0.0
H1094 H 0.20015 0.77215 0.86612 0.0
H1095 H 0.1925 0.83072 0.86277 0.0
C1096 C 0.23949 0.68302 0.88129 0.0
C1097 C 0.26601 0.66987 0.86646 0.0
C1098 C 0.23528 0.71678 0.88353 0.0
C1099 C 0.25753 0.73839 0.87112 0.0
C1100 C 0.28434 0.72526 0.85685 0.0
C1101 C 0.2885 0.69164 0.85454 0.0
C1102 C 0.27447 0.82948 0.87217 0.0
C1103 C 0.24347 0.8428 0.86735 0.0
C1104 C 0.27883 0.79582 0.87437 0.0
C1105 C 0.25234 0.7744 0.87184 0.0
C1106 C 0.22114 0.78777 0.86832 0.0
C1107 C 0.21678 0.82146 0.8661 0.0
H1108 H 0.84411 0.21756 0.38268 0.0
H1109 H 0.82792 0.30658 0.33685 0.0
H1110 H 0.78546 0.21036 0.38717 0.0
H1111 H 0.76988 0.29943 0.34146 0.0
H1112 H 0.66699 0.2939 0.37053 0.0
H1113 H 0.72549 0.30031 0.37409 0.0
H1114 H 0.73808 0.19773 0.35876 0.0
H1115 H 0.67933 0.19115 0.35618 0.0
C1116 C 0.82825 0.23563 0.37358 0.0
C1117 C 0.84119 0.26278 0.3595 0.0
C1118 C 0.79451 0.23148 0.37616 0.0
C1119 C 0.77276 0.2544 0.36484 0.0
C1120 C 0.78572 0.2816 0.35102 0.0
C1121 C 0.8193 0.28571 0.34837 0.0
C1122 C 0.68202 0.27254 0.36851 0.0
C1123 C 0.66812 0.24205 0.36273 0.0
C1124 C 0.71578 0.27629 0.37022 0.0
C1125 C 0.73673 0.24964 0.36627 0.0
C1126 C 0.72283 0.21883 0.36198 0.0
C1127 C 0.68903 0.2151 0.36023 0.0
H1128 H 0.29867 0.67301 0.11997 0.0
H1129 H 0.21256 0.6869 0.17031 0.0
H1130 H 0.30551 0.73182 0.11717 0.0
H1131 H 0.21941 0.74497 0.1674 0.0
H1132 H 0.22203 0.84875 0.14059 0.0
H1133 H 0.21604 0.79039 0.13653 0.0
H1134 H 0.31966 0.77856 0.14605 0.0
H1135 H 0.32586 0.83747 0.14904 0.0
C1136 C 0.28112 0.68833 0.13039 0.0
C1137 C 0.25489 0.67462 0.14524 0.0
C1138 C 0.28511 0.72221 0.12881 0.0
C1139 C 0.26293 0.74336 0.14192 0.0
C1140 C 0.23664 0.72966 0.15649 0.0
C1141 C 0.2327 0.69598 0.15814 0.0
C1142 C 0.24374 0.83399 0.14118 0.0
C1143 C 0.27451 0.84818 0.1452 0.0
C1144 C 0.24022 0.80025 0.13923 0.0
C1145 C 0.2673 0.7795 0.14127 0.0
C1146 C 0.29823 0.79367 0.14422 0.0
C1147 C 0.30177 0.82752 0.1462 0.0
H1148 H 0.67194 0.31043 0.67637 0.0
H1149 H 0.66072 0.23789 0.61181 0.0
H1150 H 0.73038 0.30679 0.67201 0.0
H1151 H 0.71966 0.23426 0.60749 0.0
H1152 H 0.82431 0.20743 0.63602 0.0
H1153 H 0.76558 0.21409 0.63355 0.0
H1154 H 0.77685 0.31775 0.64337 0.0
H1155 H 0.83548 0.31083 0.64697 0.0
C1156 C 0.68173 0.29411 0.6608 0.0
C1157 C 0.66112 0.27444 0.64447 0.0
C1158 C 0.71555 0.29202 0.6583 0.0
C1159 C 0.73001 0.27019 0.63942 0.0
C1160 C 0.7095 0.25103 0.62258 0.0
C1161 C 0.67557 0.25315 0.62504 0.0
C1162 C 0.8143 0.23167 0.63755 0.0
C1163 C 0.83482 0.25855 0.64186 0.0
C1164 C 0.78053 0.23555 0.63584 0.0
C1165 C 0.76622 0.26646 0.63843 0.0
C1166 C 0.78684 0.2935 0.64168 0.0
C1167 C 0.82063 0.2896 0.64336 0.0
H1168 H 0.81277 0.05539 0.9302 0.0
H1169 H 0.71488 0.01822 0.92421 0.0
H1170 H 0.80687 0.05881 0.98113 0.0
H1171 H 0.70922 0.02135 0.97463 0.0
H1172 H 0.69963 0.05662 0.06471 0.0
H1173 H 0.70551 0.06011 0.01379 0.0
H1174 H 0.80205 0.01972 0.02 0.0
H1175 H 0.7964 0.01648 0.07041 0.0
C1176 C 0.79007 0.048 0.9397 0.0
C1177 C 0.76443 0.03632 0.92316 0.0
C1178 C 0.78667 0.0499 0.96883 0.0
C1179 C 0.75751 0.04039 0.9819 0.0
C1180 C 0.7318 0.02929 0.96524 0.0
C1181 C 0.73523 0.02721 0.93629 0.0
C1182 C 0.72207 0.04855 0.05515 0.0
C1183 C 0.74741 0.03608 0.07161 0.0
C1184 C 0.72546 0.05052 0.02602 0.0
C1185 C 0.75433 0.04028 0.01287 0.0
C1186 C 0.77973 0.02826 0.02945 0.0
C1187 C 0.77629 0.02612 0.0584 0.0
H1188 H 0.46065 0.81059 0.43136 0.0
H1189 H 0.48552 0.70891 0.42445 0.0
H1190 H 0.45876 0.80509 0.48234 0.0
H1191 H 0.48395 0.70361 0.475 0.0
H1192 H 0.45164 0.69957 0.56672 0.0
H1193 H 0.44704 0.70491 0.5158 0.0
H1194 H 0.49943 0.79566 0.51934 0.0
H1195 H 0.50383 0.79056 0.5697 0.0
C1196 C 0.46561 0.78713 0.44067 0.0
C1197 C 0.4735 0.76031 0.42388 0.0
C1198 C 0.46461 0.78396 0.46983 0.0
C1199 C 0.47125 0.75388 0.48268 0.0
C1200 C 0.47835 0.72698 0.46577 0.0
C1201 C 0.47954 0.73017 0.43676 0.0
C1202 C 0.4622 0.72056 0.55655 0.0
C1203 C 0.47819 0.74453 0.57225 0.0
C1204 C 0.45956 0.72366 0.52745 0.0
C1205 C 0.47267 0.75087 0.5136 0.0
C1206 C 0.48856 0.77474 0.52939 0.0
C1207 C 0.49134 0.77158 0.5583 0.0
H1208 H 0.80912 0.44976 0.06791 0.0
H1209 H 0.71143 0.48758 0.07377 0.0
H1210 H 0.80344 0.4467 0.01697 0.0
H1211 H 0.70599 0.48487 0.02333 0.0
H1212 H 0.69614 0.4492 0.93347 0.0
H1213 H 0.70193 0.44622 0.9844 0.0
H1214 H 0.79902 0.48516 0.9779 0.0
H1215 H 0.79348 0.48778 0.92746 0.0
C1216 C 0.78653 0.45744 0.05837 0.0
C1217 C 0.76084 0.46906 0.07489 0.0
C1218 C 0.78326 0.45574 0.02924 0.0
C1219 C 0.75418 0.46546 0.01613 0.0
C1220 C 0.72848 0.47672 0.03276 0.0
C1221 C 0.73179 0.47855 0.06172 0.0
C1222 C 0.71868 0.45705 0.94297 0.0
C1223 C 0.74423 0.46888 0.92642 0.0
C1224 C 0.72201 0.4554 0.9721 0.0
C1225 C 0.751 0.46539 0.98518 0.0
C1226 C 0.77659 0.47682 0.96851 0.0
C1227 C 0.77323 0.47859 0.93954 0.0
H1228 H 0.05486 0.70147 0.42807 0.0
H1229 H 0.02041 0.80021 0.42003 0.0
H1230 H 0.05874 0.70868 0.47874 0.0
H1231 H 0.02391 0.80717 0.47038 0.0
H1232 H 0.06304 0.81787 0.55972 0.0
H1233 H 0.06349 0.81102 0.50881 0.0
H1234 H 0.02133 0.71559 0.51809 0.0
H1235 H 0.0212 0.72215 0.56848 0.0
C1236 C 0.04803 0.72462 0.43709 0.0
C1237 C 0.03719 0.75017 0.42002 0.0
C1238 C 0.0502 0.72876 0.46609 0.0
C1239 C 0.04168 0.75856 0.47857 0.0
C1240 C 0.0311 0.7841 0.46142 0.0
C1241 C 0.02883 0.77995 0.43254 0.0
C1242 C 0.05389 0.79548 0.55082 0.0
C1243 C 0.04202 0.77064 0.56815 0.0
C1244 C 0.05408 0.79156 0.52171 0.0
C1245 C 0.04256 0.76266 0.50943 0.0
C1246 C 0.03085 0.73789 0.52685 0.0
C1247 C 0.03054 0.74184 0.55579 0.0
H1248 H 0.29622 0.99487 0.07749 0.0
H1249 H 0.20059 0.95189 0.07345 0.0
H1250 H 0.30122 0.99084 0.02708 0.0
H1251 H 0.20582 0.94759 0.02252 0.0
H1252 H 0.21291 0.98909 0.9325 0.0
H1253 H 0.20796 0.98641 0.98301 0.0
H1254 H 0.30639 0.95074 0.98887 0.0
H1255 H 0.31156 0.95368 0.93789 0.0
C1256 C 0.27623 0.98443 0.06584 0.0
C1257 C 0.24785 0.97391 0.07947 0.0
C1258 C 0.2793 0.98183 0.03692 0.0
C1259 C 0.25401 0.9688 0.02084 0.0
C1260 C 0.22566 0.95796 0.03441 0.0
C1261 C 0.22264 0.96038 0.06352 0.0
C1262 C 0.23357 0.98059 0.94447 0.0
C1263 C 0.26277 0.97184 0.93119 0.0
C1264 C 0.23055 0.97876 0.97345 0.0
C1265 C 0.25671 0.96829 0.98991 0.0
C1266 C 0.28587 0.95915 0.97668 0.0
C1267 C 0.28885 0.96079 0.94754 0.0
H1268 H 0.51485 0.28993 0.57441 0.0
H1269 H 0.55921 0.19494 0.56947 0.0
H1270 H 0.51835 0.29543 0.52404 0.0
H1271 H 0.56299 0.2007 0.51853 0.0
H1272 H 0.52221 0.20865 0.42818 0.0
H1273 H 0.5247 0.2028 0.47869 0.0
H1274 H 0.55801 0.30188 0.486 0.0
H1275 H 0.5552 0.30795 0.43514 0.0
C1276 C 0.52549 0.27018 0.56258 0.0
C1277 C 0.53658 0.24185 0.57597 0.0
C1278 C 0.52776 0.27354 0.53365 0.0
C1279 C 0.54107 0.24861 0.51728 0.0
C1280 C 0.55241 0.22027 0.53061 0.0
C1281 C 0.5503 0.21697 0.55973 0.0
C1282 C 0.53012 0.22925 0.44048 0.0
C1283 C 0.53825 0.2589 0.42764 0.0
C1284 C 0.53184 0.22573 0.46946 0.0
C1285 C 0.54159 0.25182 0.48635 0.0
C1286 C 0.55012 0.28141 0.47352 0.0
C1287 C 0.54855 0.28489 0.44443 0.0
H1288 H 0.2372 0.49297 0.07615 0.0
H1289 H 0.29617 0.57923 0.06863 0.0
H1290 H 0.22857 0.49275 0.02563 0.0
H1291 H 0.2867 0.5794 0.01776 0.0
H1292 H 0.22009 0.58076 0.93419 0.0
H1293 H 0.22857 0.58274 0.98516 0.0
H1294 H 0.27269 0.48774 0.98242 0.0
H1295 H 0.26513 0.48609 0.93175 0.0
C1296 C 0.24835 0.51186 0.06364 0.0
C1297 C 0.2675 0.53602 0.0762 0.0
C1298 C 0.24334 0.51173 0.03481 0.0
C1299 C 0.25676 0.53619 0.01802 0.0
C1300 C 0.27591 0.56046 0.03045 0.0
C1301 C 0.28159 0.56016 0.05937 0.0
C1302 C 0.23122 0.56022 0.94463 0.0
C1303 C 0.2418 0.53318 0.92921 0.0
C1304 C 0.23638 0.56151 0.97359 0.0
C1305 C 0.25144 0.53546 0.98748 0.0
C1306 C 0.26108 0.50811 0.97211 0.0
C1307 C 0.25667 0.50715 0.94322 0.0
H1308 H 0.99239 0.29764 0.42981 0.0
H1309 H 0.95291 0.2006 0.43528 0.0
H1310 H 0.98947 0.30297 0.48019 0.0
H1311 H 0.94958 0.20622 0.48625 0.0
H1312 H 0.98793 0.21637 0.57686 0.0
H1313 H 0.98671 0.21019 0.52634 0.0
H1314 H 0.95023 0.30811 0.5181 0.0
H1315 H 0.95189 0.31454 0.56892 0.0
C1316 C 0.98294 0.27739 0.44176 0.0
C1317 C 0.97296 0.24859 0.42848 0.0
C1318 C 0.98102 0.28063 0.47071 0.0
C1319 C 0.96911 0.25515 0.48725 0.0
C1320 C 0.95908 0.22624 0.47406 0.0
C1321 C 0.96091 0.22301 0.44491 0.0
C1322 C 0.97961 0.23665 0.56434 0.0
C1323 C 0.97021 0.26608 0.57693 0.0
C1324 C 0.97864 0.23295 0.53534 0.0
C1325 C 0.96832 0.2586 0.51818 0.0
C1326 C 0.95863 0.28798 0.53076 0.0
C1327 C 0.95953 0.29168 0.55985 0.0
loop_
_geom_bond_atom_site_label_1
_geom_bond_atom_site_label_2
_geom_bond_distance
_geom_bond_site_symmetry_2
_ccdc_geom_bond_type
C0 C1 1.351 . S
C0 N3 1.368 1_565 S
C0 H5 0.931 . S
C1 C0 1.351 . S
C1 N2 1.373 . S
C1 H29 0.930 . S
N2 C1 1.373 . S
N2 C4 1.340 . S
N3 C0 1.368 1_545 S
N3 C4 1.321 1_545 S
N3 Co6 2.135 . S
C4 N2 1.340 . S
C4 N3 1.321 1_565 S
C4 H28 0.930 1_565 S
H5 C0 0.931 . S
Co6 N3 2.135 . S
Co6 N9 2.121 . S
Co6 O14 2.055 . S
Co6 O17 2.039 . S
Co6 N20 2.140 . S
C7 O8 1.227 . S
C7 O17 1.265 . S
O8 C7 1.227 . S
N9 Co6 2.121 . S
N9 C11 1.375 . S
N9 C12 1.313 . S
C10 C11 1.338 . S
C10 N13 1.377 . S
C10 H30 0.930 . S
C11 N9 1.375 . S
C11 C10 1.338 . S
C11 H15 0.931 . S
C12 N9 1.313 . S
C12 N13 1.344 . S
C12 H16 0.930 . S
N13 C10 1.377 . S
N13 C12 1.344 . S
O14 Co6 2.055 . S
O14 C18 1.253 . S
H15 C11 0.931 . S
H16 C12 0.930 . S
O17 Co6 2.039 . S
O17 C7 1.265 . S
C18 O14 1.253 . S
C18 O19 1.227 . S
O19 C18 1.227 . S
N20 Co6 2.140 . S
N20 C23 1.346 . S
N20 C24 1.345 . S
C21 C22 1.387 . S
C21 C25 1.391 . S
C22 C21 1.387 . S
C22 C23 1.369 . S
C22 H31 0.929 . S
C23 N20 1.346 . S
C23 C22 1.369 . S
C23 H26 0.928 . S
C24 N20 1.345 . S
C24 C25 1.371 . S
C24 H27 0.931 . S
C25 C21 1.391 . S
C25 C24 1.371 . S
C25 H32 0.930 . S
H26 C23 0.928 . S
H27 C24 0.931 . S
H28 C4 0.930 1_545 S
H29 C1 0.930 . S
H30 C10 0.930 . S
H31 C22 0.929 . S
H32 C25 0.930 . S
C33 C34 1.351 . S
C33 N36 1.368 . S
C33 H38 0.931 . S
C34 C33 1.351 . S
C34 N35 1.373 . S
C34 H62 0.930 . S
N35 C34 1.373 . S
N35 C37 1.340 . S
N36 C33 1.368 . S
N36 C37 1.321 . S
N36 Co39 2.135 . S
C37 N35 1.340 . S
C37 N36 1.321 . S
C37 H61 0.930 . S
H38 C33 0.931 . S
Co39 N36 2.135 . S
Co39 N42 2.121 . S
Co39 O47 2.055 . S
Co39 O50 2.039 . S
Co39 N53 2.140 . S
C40 O41 1.227 . S
C40 O50 1.265 . S
O41 C40 1.227 . S
N42 Co39 2.121 . S
N42 C44 1.375 . S
N42 C45 1.313 . S
C43 C44 1.338 . S
C43 N46 1.377 . S
C43 H63 0.930 . S
C44 N42 1.375 . S
C44 C43 1.338 . S
C44 H48 0.931 . S
C45 N42 1.313 . S
C45 N46 1.344 . S
C45 H49 0.930 . S
N46 C43 1.377 . S
N46 C45 1.344 . S
O47 Co39 2.055 . S
O47 C51 1.253 . S
H48 C44 0.931 . S
H49 C45 0.930 . S
O50 Co39 2.039 . S
O50 C40 1.265 . S
C51 O47 1.253 . S
C51 O52 1.227 . S
O52 C51 1.227 . S
N53 Co39 2.140 . S
N53 C56 1.346 . S
N53 C57 1.345 . S
C54 C55 1.387 . S
C54 C58 1.391 . S
C55 C54 1.387 . S
C55 C56 1.369 . S
C55 H64 0.929 . S
C56 N53 1.346 . S
C56 C55 1.369 . S
C56 H59 0.928 . S
C57 N53 1.345 . S
C57 C58 1.371 . S
C57 H60 0.931 . S
C58 C54 1.391 . S
C58 C57 1.371 . S
C58 H65 0.930 . S
H59 C56 0.928 . S
H60 C57 0.931 . S
H61 C37 0.930 . S
H62 C34 0.930 . S
H63 C43 0.930 . S
H64 C55 0.929 . S
H65 C58 0.930 . S
C66 C67 1.351 . S
C66 N69 1.368 . S
C66 H71 0.931 . S
C67 C66 1.351 . S
C67 N68 1.373 . S
C67 H95 0.930 . S
N68 C67 1.373 . S
N68 C70 1.340 . S
N69 C66 1.368 . S
N69 C70 1.321 . S
N69 Co72 2.135 . S
C70 N68 1.340 . S
C70 N69 1.321 . S
C70 H94 0.930 . S
H71 C66 0.931 . S
Co72 N69 2.135 . S
Co72 N75 2.121 . S
Co72 O80 2.055 . S
Co72 O83 2.039 . S
Co72 N86 2.140 . S
C73 O74 1.227 . S
C73 O83 1.265 . S
O74 C73 1.227 . S
N75 Co72 2.121 . S
N75 C77 1.375 . S
N75 C78 1.313 . S
C76 C77 1.338 . S
C76 N79 1.377 . S
C76 H96 0.930 . S
C77 N75 1.375 . S
C77 C76 1.338 . S
C77 H81 0.931 . S
C78 N75 1.313 . S
C78 N79 1.344 . S
C78 H82 0.930 . S
N79 C76 1.377 . S
N79 C78 1.344 . S
O80 Co72 2.055 . S
O80 C84 1.253 . S
H81 C77 0.931 . S
H82 C78 0.930 . S
O83 Co72 2.039 . S
O83 C73 1.265 . S
C84 O80 1.253 . S
C84 O85 1.227 . S
O85 C84 1.227 . S
N86 Co72 2.140 . S
N86 C89 1.346 . S
N86 C90 1.345 . S
C87 C88 1.387 . S
C87 C91 1.391 . S
C88 C87 1.387 . S
C88 C89 1.369 . S
C88 H97 0.929 . S
C89 N86 1.346 . S
C89 C88 1.369 . S
C89 H92 0.928 . S
C90 N86 1.345 . S
C90 C91 1.371 . S
C90 H93 0.931 . S
C91 C87 1.391 . S
C91 C90 1.371 . S
C91 H98 0.930 . S
H92 C89 0.928 . S
H93 C90 0.931 . S
H94 C70 0.930 . S
H95 C67 0.930 . S
H96 C76 0.930 . S
H97 C88 0.929 . S
H98 C91 0.930 . S
C99 C100 1.351 . S
C99 N102 1.368 1_655 S
C99 H104 0.931 . S
C100 C99 1.351 . S
C100 N101 1.373 . S
C100 H128 0.930 . S
N101 C100 1.373 . S
N101 C103 1.340 . S
N102 C99 1.368 1_455 S
N102 C103 1.321 1_455 S
N102 Co105 2.135 . S
C103 N101 1.340 . S
C103 N102 1.321 1_655 S
C103 H127 0.930 1_655 S
H104 C99 0.931 . S
Co105 N102 2.135 . S
Co105 N108 2.121 . S
Co105 O113 2.055 . S
Co105 O116 2.039 . S
Co105 N119 2.140 . S
C106 O107 1.227 . S
C106 O116 1.265 . S
O107 C106 1.227 . S
N108 Co105 2.121 . S
N108 C110 1.375 . S
N108 C111 1.313 . S
C109 C110 1.338 . S
C109 N112 1.377 . S
C109 H129 0.930 . S
C110 N108 1.375 . S
C110 C109 1.338 . S
C110 H114 0.931 . S
C111 N108 1.313 . S
C111 N112 1.344 . S
C111 H115 0.930 . S
N112 C109 1.377 . S
N112 C111 1.344 . S
O113 Co105 2.055 . S
O113 C117 1.253 . S
H114 C110 0.931 . S
H115 C111 0.930 . S
O116 Co105 2.039 . S
O116 C106 1.265 . S
C117 O113 1.253 . S
C117 O118 1.227 . S
O118 C117 1.227 . S
N119 Co105 2.140 . S
N119 C122 1.346 . S
N119 C123 1.345 . S
C120 C121 1.387 . S
C120 C124 1.391 . S
C121 C120 1.387 . S
C121 C122 1.369 . S
C121 H130 0.929 . S
C122 N119 1.346 . S
C122 C121 1.369 . S
C122 H125 0.928 . S
C123 N119 1.345 . S
C123 C124 1.371 . S
C123 H126 0.931 . S
C124 C120 1.391 . S
C124 C123 1.371 . S
C124 H131 0.930 . S
H125 C122 0.928 . S
H126 C123 0.931 . S
H127 C103 0.930 1_455 S
H128 C100 0.930 . S
H129 C109 0.930 . S
H130 C121 0.929 . S
H131 C124 0.930 . S
C132 C133 1.351 . S
C132 N135 1.368 . S
C132 H137 0.931 . S
C133 C132 1.351 . S
C133 N134 1.373 . S
C133 H161 0.930 . S
N134 C133 1.373 . S
N134 C136 1.340 . S
N135 C132 1.368 . S
N135 C136 1.321 . S
N135 Co138 2.135 . S
C136 N134 1.340 . S
C136 N135 1.321 . S
C136 H160 0.930 . S
H137 C132 0.931 . S
Co138 N135 2.135 . S
Co138 N141 2.121 . S
Co138 O146 2.055 . S
Co138 O149 2.039 . S
Co138 N152 2.140 . S
C139 O140 1.227 . S
C139 O149 1.265 . S
O140 C139 1.227 . S
N141 Co138 2.121 . S
N141 C143 1.375 . S
N141 C144 1.313 . S
C142 C143 1.338 . S
C142 N145 1.377 . S
C142 H162 0.930 . S
C143 N141 1.375 . S
C143 C142 1.338 . S
C143 H147 0.931 . S
C144 N141 1.313 . S
C144 N145 1.344 . S
C144 H148 0.930 . S
N145 C142 1.377 . S
N145 C144 1.344 . S
O146 Co138 2.055 . S
O146 C150 1.253 . S
H147 C143 0.931 . S
H148 C144 0.930 . S
O149 Co138 2.039 . S
O149 C139 1.265 . S
C150 O146 1.253 . S
C150 O151 1.227 . S
O151 C150 1.227 . S
N152 Co138 2.140 . S
N152 C155 1.346 . S
N152 C156 1.345 . S
C153 C154 1.387 . S
C153 C157 1.391 . S
C154 C153 1.387 . S
C154 C155 1.369 . S
C154 H163 0.929 . S
C155 N152 1.346 . S
C155 C154 1.369 . S
C155 H158 0.928 . S
C156 N152 1.345 . S
C156 C157 1.371 . S
C156 H159 0.931 . S
C157 C153 1.391 . S
C157 C156 1.371 . S
C157 H164 0.930 . S
H158 C155 0.928 . S
H159 C156 0.931 . S
H160 C136 0.930 . S
H161 C133 0.930 . S
H162 C142 0.930 . S
H163 C154 0.929 . S
H164 C157 0.930 . S
C165 C166 1.351 . S
C165 N168 1.368 1_655 S
C165 H170 0.931 . S
C166 C165 1.351 . S
C166 N167 1.373 . S
C166 H194 0.930 . S
N167 C166 1.373 . S
N167 C169 1.340 . S
N168 C165 1.368 1_455 S
N168 C169 1.321 1_455 S
N168 Co171 2.135 . S
C169 N167 1.340 . S
C169 N168 1.321 1_655 S
C169 H193 0.930 1_655 S
H170 C165 0.931 . S
Co171 N168 2.135 . S
Co171 N174 2.121 . S
Co171 O179 2.055 . S
Co171 O182 2.039 . S
Co171 N185 2.140 . S
C172 O173 1.227 . S
C172 O182 1.265 . S
O173 C172 1.227 . S
N174 Co171 2.121 . S
N174 C176 1.375 . S
N174 C177 1.313 . S
C175 C176 1.338 . S
C175 N178 1.377 . S
C175 H195 0.930 . S
C176 N174 1.375 . S
C176 C175 1.338 . S
C176 H180 0.931 . S
C177 N174 1.313 . S
C177 N178 1.344 . S
C177 H181 0.930 . S
N178 C175 1.377 . S
N178 C177 1.344 . S
O179 Co171 2.055 . S
O179 C183 1.253 . S
H180 C176 0.931 . S
H181 C177 0.930 . S
O182 Co171 2.039 . S
O182 C172 1.265 . S
C183 O179 1.253 . S
C183 O184 1.227 . S
O184 C183 1.227 . S
N185 Co171 2.140 . S
N185 C188 1.346 . S
N185 C189 1.345 . S
C186 C187 1.387 . S
C186 C190 1.391 . S
C187 C186 1.387 . S
C187 C188 1.369 . S
C187 H196 0.929 . S
C188 N185 1.346 . S
C188 C187 1.369 . S
C188 H191 0.928 . S
C189 N185 1.345 . S
C189 C190 1.371 . S
C189 H192 0.931 . S
C190 C186 1.391 . S
C190 C189 1.371 . S
C190 H197 0.930 . S
H191 C188 0.928 . S
H192 C189 0.931 . S
H193 C169 0.930 1_455 S
H194 C166 0.930 . S
H195 C175 0.930 . S
H196 C187 0.929 . S
H197 C190 0.930 . S
C198 C199 1.351 . S
C198 N201 1.368 1_565 S
C198 H203 0.931 . S
C199 C198 1.351 . S
C199 N200 1.373 . S
C199 H227 0.930 . S
N200 C199 1.373 . S
N200 C202 1.340 . S
N201 C198 1.368 1_545 S
N201 C202 1.321 1_545 S
N201 Co204 2.135 . S
C202 N200 1.340 . S
C202 N201 1.321 1_565 S
C202 H226 0.930 1_565 S
H203 C198 0.931 . S
Co204 N201 2.135 . S
Co204 N207 2.121 . S
Co204 O212 2.055 . S
Co204 O215 2.039 . S
Co204 N218 2.140 . S
C205 O206 1.227 . S
C205 O215 1.265 . S
O206 C205 1.227 . S
N207 Co204 2.121 . S
N207 C209 1.375 . S
N207 C210 1.313 . S
C208 C209 1.338 . S
C208 N211 1.377 . S
C208 H228 0.930 . S
C209 N207 1.375 . S
C209 C208 1.338 . S
C209 H213 0.931 . S
C210 N207 1.313 . S
C210 N211 1.344 . S
C210 H214 0.930 . S
N211 C208 1.377 . S
N211 C210 1.344 . S
O212 Co204 2.055 . S
O212 C216 1.253 . S
H213 C209 0.931 . S
H214 C210 0.930 . S
O215 Co204 2.039 . S
O215 C205 1.265 . S
C216 O212 1.253 . S
C216 O217 1.227 . S
O217 C216 1.227 . S
N218 Co204 2.140 . S
N218 C221 1.346 . S
N218 C222 1.345 . S
C219 C220 1.387 . S
C219 C223 1.391 . S
C220 C219 1.387 . S
C220 C221 1.369 . S
C220 H229 0.929 . S
C221 N218 1.346 . S
C221 C220 1.369 . S
C221 H224 0.928 . S
C222 N218 1.345 . S
C222 C223 1.371 . S
C222 H225 0.931 . S
C223 C219 1.391 . S
C223 C222 1.371 . S
C223 H230 0.930 . S
H224 C221 0.928 . S
H225 C222 0.931 . S
H226 C202 0.930 1_545 S
H227 C199 0.930 . S
H228 C208 0.930 . S
H229 C220 0.929 . S
H230 C223 0.930 . S
C231 C232 1.351 . S
C231 N234 1.368 . S
C231 H236 0.931 . S
C232 C231 1.351 . S
C232 N233 1.373 . S
C232 H260 0.930 . S
N233 C232 1.373 . S
N233 C235 1.340 . S
N234 C231 1.368 . S
N234 C235 1.321 . S
N234 Co237 2.135 . S
C235 N233 1.340 . S
C235 N234 1.321 . S
C235 H259 0.930 . S
H236 C231 0.931 . S
Co237 N234 2.135 . S
Co237 N240 2.121 . S
Co237 O245 2.055 . S
Co237 O248 2.039 . S
Co237 N251 2.140 . S
C238 O239 1.227 . S
C238 O248 1.265 . S
O239 C238 1.227 . S
N240 Co237 2.121 . S
N240 C242 1.375 . S
N240 C243 1.313 . S
C241 C242 1.338 . S
C241 N244 1.377 . S
C241 H261 0.930 . S
C242 N240 1.375 . S
C242 C241 1.338 . S
C242 H246 0.931 . S
C243 N240 1.313 . S
C243 N244 1.344 . S
C243 H247 0.930 . S
N244 C241 1.377 . S
N244 C243 1.344 . S
O245 Co237 2.055 . S
O245 C249 1.253 . S
H246 C242 0.931 . S
H247 C243 0.930 . S
O248 Co237 2.039 . S
O248 C238 1.265 . S
C249 O245 1.253 . S
C249 O250 1.227 . S
O250 C249 1.227 . S
N251 Co237 2.140 . S
N251 C254 1.346 . S
N251 C255 1.345 . S
C252 C253 1.387 . S
C252 C256 1.391 . S
C253 C252 1.387 . S
C253 C254 1.369 . S
C253 H262 0.929 . S
C254 N251 1.346 . S
C254 C253 1.369 . S
C254 H257 0.928 . S
C255 N251 1.345 . S
C255 C256 1.371 . S
C255 H258 0.931 . S
C256 C252 1.391 . S
C256 C255 1.371 . S
C256 H263 0.930 . S
H257 C254 0.928 . S
H258 C255 0.931 . S
H259 C235 0.930 . S
H260 C232 0.930 . S
H261 C241 0.930 . S
H262 C253 0.929 . S
H263 C256 0.930 . S
C264 C265 1.351 . S
C264 N267 1.368 1_545 S
C264 H269 0.931 . S
C265 C264 1.351 . S
C265 N266 1.373 . S
C265 H293 0.930 . S
N266 C265 1.373 . S
N266 C268 1.340 . S
N267 C264 1.368 1_565 S
N267 C268 1.321 1_565 S
N267 Co270 2.135 . S
C268 N266 1.340 . S
C268 N267 1.321 1_545 S
C268 H292 0.930 1_545 S
H269 C264 0.931 . S
Co270 N267 2.135 . S
Co270 N273 2.121 . S
Co270 O278 2.055 . S
Co270 O281 2.039 . S
Co270 N284 2.140 . S
C271 O272 1.227 . S
C271 O281 1.265 . S
O272 C271 1.227 . S
N273 Co270 2.121 . S
N273 C275 1.375 . S
N273 C276 1.313 . S
C274 C275 1.338 . S
C274 N277 1.377 . S
C274 H294 0.930 . S
C275 N273 1.375 . S
C275 C274 1.338 . S
C275 H279 0.931 . S
C276 N273 1.313 . S
C276 N277 1.344 . S
C276 H280 0.930 . S
N277 C274 1.377 . S
N277 C276 1.344 . S
O278 Co270 2.055 . S
O278 C282 1.253 . S
H279 C275 0.931 . S
H280 C276 0.930 . S
O281 Co270 2.039 . S
O281 C271 1.265 . S
C282 O278 1.253 . S
C282 O283 1.227 . S
O283 C282 1.227 . S
N284 Co270 2.140 . S
N284 C287 1.346 . S
N284 C288 1.345 . S
C285 C286 1.387 . S
C285 C289 1.391 . S
C286 C285 1.387 . S
C286 C287 1.369 . S
C286 H295 0.929 . S
C287 N284 1.346 . S
C287 C286 1.369 . S
C287 H290 0.928 . S
C288 N284 1.345 . S
C288 C289 1.371 . S
C288 H291 0.931 . S
C289 C285 1.391 . S
C289 C288 1.371 . S
C289 H296 0.930 . S
H290 C287 0.928 . S
H291 C288 0.931 . S
H292 C268 0.930 1_565 S
H293 C265 0.930 . S
H294 C274 0.930 . S
H295 C286 0.929 . S
H296 C289 0.930 . S
C297 C298 1.351 . S
C297 N300 1.368 . S
C297 H302 0.931 . S
C298 C297 1.351 . S
C298 N299 1.373 . S
C298 H326 0.930 . S
N299 C298 1.373 . S
N299 C301 1.340 . S
N300 C297 1.368 . S
N300 C301 1.321 . S
N300 Co303 2.135 . S
C301 N299 1.340 . S
C301 N300 1.321 . S
C301 H325 0.930 . S
H302 C297 0.931 . S
Co303 N300 2.135 . S
Co303 N306 2.121 . S
Co303 O311 2.055 . S
Co303 O314 2.039 . S
Co303 N317 2.140 . S
C304 O305 1.227 . S
C304 O314 1.265 . S
O305 C304 1.227 . S
N306 Co303 2.121 . S
N306 C308 1.375 . S
N306 C309 1.313 . S
C307 C308 1.338 . S
C307 N310 1.377 . S
C307 H327 0.930 . S
C308 N306 1.375 . S
C308 C307 1.338 . S
C308 H312 0.931 . S
C309 N306 1.313 . S
C309 N310 1.344 . S
C309 H313 0.930 . S
N310 C307 1.377 . S
N310 C309 1.344 . S
O311 Co303 2.055 . S
O311 C315 1.253 . S
H312 C308 0.931 . S
H313 C309 0.930 . S
O314 Co303 2.039 . S
O314 C304 1.265 . S
C315 O311 1.253 . S
C315 O316 1.227 . S
O316 C315 1.227 . S
N317 Co303 2.140 . S
N317 C320 1.346 . S
N317 C321 1.345 . S
C318 C319 1.387 . S
C318 C322 1.391 . S
C319 C318 1.387 . S
C319 C320 1.369 . S
C319 H328 0.929 . S
C320 N317 1.346 . S
C320 C319 1.369 . S
C320 H323 0.928 . S
C321 N317 1.345 . S
C321 C322 1.371 . S
C321 H324 0.931 . S
C322 C318 1.391 . S
C322 C321 1.371 . S
C322 H329 0.930 . S
H323 C320 0.928 . S
H324 C321 0.931 . S
H325 C301 0.930 . S
H326 C298 0.930 . S
H327 C307 0.930 . S
H328 C319 0.929 . S
H329 C322 0.930 . S
C330 C331 1.351 . S
C330 N333 1.368 . S
C330 H335 0.931 . S
C331 C330 1.351 . S
C331 N332 1.373 . S
C331 H359 0.930 . S
N332 C331 1.373 . S
N332 C334 1.340 . S
N333 C330 1.368 . S
N333 C334 1.321 . S
N333 Co336 2.135 . S
C334 N332 1.340 . S
C334 N333 1.321 . S
C334 H358 0.930 . S
H335 C330 0.931 . S
Co336 N333 2.135 . S
Co336 N339 2.121 . S
Co336 O344 2.055 . S
Co336 O347 2.039 . S
Co336 N350 2.140 . S
C337 O338 1.227 . S
C337 O347 1.265 . S
O338 C337 1.227 . S
N339 Co336 2.121 . S
N339 C341 1.375 . S
N339 C342 1.313 . S
C340 C341 1.338 . S
C340 N343 1.377 . S
C340 H360 0.930 . S
C341 N339 1.375 . S
C341 C340 1.338 . S
C341 H345 0.931 . S
C342 N339 1.313 . S
C342 N343 1.344 . S
C342 H346 0.930 . S
N343 C340 1.377 . S
N343 C342 1.344 . S
O344 Co336 2.055 . S
O344 C348 1.253 . S
H345 C341 0.931 . S
H346 C342 0.930 . S
O347 Co336 2.039 . S
O347 C337 1.265 . S
C348 O344 1.253 . S
C348 O349 1.227 . S
O349 C348 1.227 . S
N350 Co336 2.140 . S
N350 C353 1.346 . S
N350 C354 1.345 . S
C351 C352 1.387 . S
C351 C355 1.391 . S
C352 C351 1.387 . S
C352 C353 1.369 . S
C352 H361 0.929 . S
C353 N350 1.346 . S
C353 C352 1.369 . S
C353 H356 0.928 . S
C354 N350 1.345 . S
C354 C355 1.371 . S
C354 H357 0.931 . S
C355 C351 1.391 . S
C355 C354 1.371 . S
C355 H362 0.930 . S
H356 C353 0.928 . S
H357 C354 0.931 . S
H358 C334 0.930 . S
H359 C331 0.930 . S
H360 C340 0.930 . S
H361 C352 0.929 . S
H362 C355 0.930 . S
C363 C364 1.351 . S
C363 N366 1.368 1_455 S
C363 H368 0.931 . S
C364 C363 1.351 . S
C364 N365 1.373 . S
C364 H392 0.930 . S
N365 C364 1.373 . S
N365 C367 1.340 . S
N366 C363 1.368 1_655 S
N366 C367 1.321 1_655 S
N366 Co369 2.135 . S
C367 N365 1.340 . S
C367 N366 1.321 1_455 S
C367 H391 0.930 1_455 S
H368 C363 0.931 . S
Co369 N366 2.135 . S
Co369 N372 2.121 . S
Co369 O377 2.055 . S
Co369 O380 2.039 . S
Co369 N383 2.140 . S
C370 O371 1.227 . S
C370 O380 1.265 . S
O371 C370 1.227 . S
N372 Co369 2.121 . S
N372 C374 1.375 . S
N372 C375 1.313 . S
C373 C374 1.338 . S
C373 N376 1.377 . S
C373 H393 0.930 . S
C374 N372 1.375 . S
C374 C373 1.338 . S
C374 H378 0.931 . S
C375 N372 1.313 . S
C375 N376 1.344 . S
C375 H379 0.930 . S
N376 C373 1.377 . S
N376 C375 1.344 . S
O377 Co369 2.055 . S
O377 C381 1.253 . S
H378 C374 0.931 . S
H379 C375 0.930 . S
O380 Co369 2.039 . S
O380 C370 1.265 . S
C381 O377 1.253 . S
C381 O382 1.227 . S
O382 C381 1.227 . S
N383 Co369 2.140 . S
N383 C386 1.346 . S
N383 C387 1.345 . S
C384 C385 1.387 . S
C384 C388 1.391 . S
C385 C384 1.387 . S
C385 C386 1.369 . S
C385 H394 0.929 . S
C386 N383 1.346 . S
C386 C385 1.369 . S
C386 H389 0.928 . S
C387 N383 1.345 . S
C387 C388 1.371 . S
C387 H390 0.931 . S
C388 C384 1.391 . S
C388 C387 1.371 . S
C388 H395 0.930 . S
H389 C386 0.928 . S
H390 C387 0.931 . S
H391 C367 0.930 1_655 S
H392 C364 0.930 . S
H393 C373 0.930 . S
H394 C385 0.929 . S
H395 C388 0.930 . S
C396 C397 1.351 . S
C396 N399 1.368 . S
C396 H401 0.931 . S
C397 C396 1.351 . S
C397 N398 1.373 . S
C397 H425 0.930 . S
N398 C397 1.373 . S
N398 C400 1.340 . S
N399 C396 1.368 . S
N399 C400 1.321 . S
N399 Co402 2.135 . S
C400 N398 1.340 . S
C400 N399 1.321 . S
C400 H424 0.930 . S
H401 C396 0.931 . S
Co402 N399 2.135 . S
Co402 N405 2.121 . S
Co402 O410 2.055 . S
Co402 O413 2.039 . S
Co402 N416 2.140 . S
C403 O404 1.227 . S
C403 O413 1.265 . S
O404 C403 1.227 . S
N405 Co402 2.121 . S
N405 C407 1.375 . S
N405 C408 1.313 . S
C406 C407 1.338 . S
C406 N409 1.377 . S
C406 H426 0.930 . S
C407 N405 1.375 . S
C407 C406 1.338 . S
C407 H411 0.931 . S
C408 N405 1.313 . S
C408 N409 1.344 . S
C408 H412 0.930 . S
N409 C406 1.377 . S
N409 C408 1.344 . S
O410 Co402 2.055 . S
O410 C414 1.253 . S
H411 C407 0.931 . S
H412 C408 0.930 . S
O413 Co402 2.039 . S
O413 C403 1.265 . S
C414 O410 1.253 . S
C414 O415 1.227 . S
O415 C414 1.227 . S
N416 Co402 2.140 . S
N416 C419 1.346 . S
N416 C420 1.345 . S
C417 C418 1.387 . S
C417 C421 1.391 . S
C418 C417 1.387 . S
C418 C419 1.369 . S
C418 H427 0.929 . S
C419 N416 1.346 . S
C419 C418 1.369 . S
C419 H422 0.928 . S
C420 N416 1.345 . S
C420 C421 1.371 . S
C420 H423 0.931 . S
C421 C417 1.391 . S
C421 C420 1.371 . S
C421 H428 0.930 . S
H422 C419 0.928 . S
H423 C420 0.931 . S
H424 C400 0.930 . S
H425 C397 0.930 . S
H426 C406 0.930 . S
H427 C418 0.929 . S
H428 C421 0.930 . S
C429 C430 1.351 . S
C429 N432 1.368 1_455 S
C429 H434 0.931 . S
C430 C429 1.351 . S
C430 N431 1.373 . S
C430 H458 0.930 . S
N431 C430 1.373 . S
N431 C433 1.340 . S
N432 C429 1.368 1_655 S
N432 C433 1.321 1_655 S
N432 Co435 2.135 . S
C433 N431 1.340 . S
C433 N432 1.321 1_455 S
C433 H457 0.930 1_455 S
H434 C429 0.931 . S
Co435 N432 2.135 . S
Co435 N438 2.121 . S
Co435 O443 2.055 . S
Co435 O446 2.039 . S
Co435 N449 2.140 . S
C436 O437 1.227 . S
C436 O446 1.265 . S
O437 C436 1.227 . S
N438 Co435 2.121 . S
N438 C440 1.375 . S
N438 C441 1.313 . S
C439 C440 1.338 . S
C439 N442 1.377 . S
C439 H459 0.930 . S
C440 N438 1.375 . S
C440 C439 1.338 . S
C440 H444 0.931 . S
C441 N438 1.313 . S
C441 N442 1.344 . S
C441 H445 0.930 . S
N442 C439 1.377 . S
N442 C441 1.344 . S
O443 Co435 2.055 . S
O443 C447 1.253 . S
H444 C440 0.931 . S
H445 C441 0.930 . S
O446 Co435 2.039 . S
O446 C436 1.265 . S
C447 O443 1.253 . S
C447 O448 1.227 . S
O448 C447 1.227 . S
N449 Co435 2.140 . S
N449 C452 1.346 . S
N449 C453 1.345 . S
C450 C451 1.387 . S
C450 C454 1.391 . S
C451 C450 1.387 . S
C451 C452 1.369 . S
C451 H460 0.929 . S
C452 N449 1.346 . S
C452 C451 1.369 . S
C452 H455 0.928 . S
C453 N449 1.345 . S
C453 C454 1.371 . S
C453 H456 0.931 . S
C454 C450 1.391 . S
C454 C453 1.371 . S
C454 H461 0.930 . S
H455 C452 0.928 . S
H456 C453 0.931 . S
H457 C433 0.930 1_655 S
H458 C430 0.930 . S
H459 C439 0.930 . S
H460 C451 0.929 . S
H461 C454 0.930 . S
C462 C463 1.351 . S
C462 N465 1.368 1_545 S
C462 H467 0.931 . S
C463 C462 1.351 . S
C463 N464 1.373 . S
C463 H491 0.930 . S
N464 C463 1.373 . S
N464 C466 1.340 . S
N465 C462 1.368 1_565 S
N465 C466 1.321 1_565 S
N465 Co468 2.135 . S
C466 N464 1.340 . S
C466 N465 1.321 1_545 S
C466 H490 0.930 1_545 S
H467 C462 0.931 . S
Co468 N465 2.135 . S
Co468 N471 2.121 . S
Co468 O476 2.055 . S
Co468 O479 2.039 . S
Co468 N482 2.140 . S
C469 O470 1.227 . S
C469 O479 1.265 . S
O470 C469 1.227 . S
N471 Co468 2.121 . S
N471 C473 1.375 . S
N471 C474 1.313 . S
C472 C473 1.338 . S
C472 N475 1.377 . S
C472 H492 0.930 . S
C473 N471 1.375 . S
C473 C472 1.338 . S
C473 H477 0.931 . S
C474 N471 1.313 . S
C474 N475 1.344 . S
C474 H478 0.930 . S
N475 C472 1.377 . S
N475 C474 1.344 . S
O476 Co468 2.055 . S
O476 C480 1.253 . S
H477 C473 0.931 . S
H478 C474 0.930 . S
O479 Co468 2.039 . S
O479 C469 1.265 . S
C480 O476 1.253 . S
C480 O481 1.227 . S
O481 C480 1.227 . S
N482 Co468 2.140 . S
N482 C485 1.346 . S
N482 C486 1.345 . S
C483 C484 1.387 . S
C483 C487 1.391 . S
C484 C483 1.387 . S
C484 C485 1.369 . S
C484 H493 0.929 . S
C485 N482 1.346 . S
C485 C484 1.369 . S
C485 H488 0.928 . S
C486 N482 1.345 . S
C486 C487 1.371 . S
C486 H489 0.931 . S
C487 C483 1.391 . S
C487 C486 1.371 . S
C487 H494 0.930 . S
H488 C485 0.928 . S
H489 C486 0.931 . S
H490 C466 0.930 1_565 S
H491 C463 0.930 . S
H492 C472 0.930 . S
H493 C484 0.929 . S
H494 C487 0.930 . S
C495 C496 1.351 . S
C495 N498 1.368 . S
C495 H500 0.931 . S
C496 C495 1.351 . S
C496 N497 1.373 . S
C496 H524 0.930 . S
N497 C496 1.373 . S
N497 C499 1.340 . S
N498 C495 1.368 . S
N498 C499 1.321 . S
N498 Co501 2.135 . S
C499 N497 1.340 . S
C499 N498 1.321 . S
C499 H523 0.930 . S
H500 C495 0.931 . S
Co501 N498 2.135 . S
Co501 N504 2.121 . S
Co501 O509 2.055 . S
Co501 O512 2.039 . S
Co501 N515 2.140 . S
C502 O503 1.227 . S
C502 O512 1.265 . S
O503 C502 1.227 . S
N504 Co501 2.121 . S
N504 C506 1.375 . S
N504 C507 1.313 . S
C505 C506 1.338 . S
C505 N508 1.377 . S
C505 H525 0.930 . S
C506 N504 1.375 . S
C506 C505 1.338 . S
C506 H510 0.931 . S
C507 N504 1.313 . S
C507 N508 1.344 . S
C507 H511 0.930 . S
N508 C505 1.377 . S
N508 C507 1.344 . S
O509 Co501 2.055 . S
O509 C513 1.253 . S
H510 C506 0.931 . S
H511 C507 0.930 . S
O512 Co501 2.039 . S
O512 C502 1.265 . S
C513 O509 1.253 . S
C513 O514 1.227 . S
O514 C513 1.227 . S
N515 Co501 2.140 . S
N515 C518 1.346 . S
N515 C519 1.345 . S
C516 C517 1.387 . S
C516 C520 1.391 . S
C517 C516 1.387 . S
C517 C518 1.369 . S
C517 H526 0.929 . S
C518 N515 1.346 . S
C518 C517 1.369 . S
C518 H521 0.928 . S
C519 N515 1.345 . S
C519 C520 1.371 . S
C519 H522 0.931 . S
C520 C516 1.391 . S
C520 C519 1.371 . S
C520 H527 0.930 . S
H521 C518 0.928 . S
H522 C519 0.931 . S
H523 C499 0.930 . S
H524 C496 0.930 . S
H525 C505 0.930 . S
H526 C517 0.929 . S
H527 C520 0.930 . S
H528 C536 0.950 . S
H529 C541 0.950 . S
H530 C538 0.950 . S
H531 C540 0.950 . S
H532 C542 0.950 . S
H533 C544 0.950 . S
H534 C546 0.950 . S
H535 C547 0.950 . S
C536 H528 0.950 . S
C536 C537 1.386 . S
C536 C538 1.391 . S
C537 C536 1.386 . S
C537 C541 1.393 . S
C538 H530 0.950 . S
C538 C536 1.391 . S
C538 C539 1.400 . S
C539 C538 1.400 . S
C539 C540 1.398 . S
C539 C545 1.491 . S
C540 H531 0.950 . S
C540 C539 1.398 . S
C540 C541 1.391 . S
C541 H529 0.950 . S
C541 C537 1.393 . S
C541 C540 1.391 . S
C542 H532 0.950 . S
C542 C543 1.386 . S
C542 C544 1.391 . S
C543 C542 1.386 . S
C543 C547 1.393 . S
C544 H533 0.950 . S
C544 C542 1.391 . S
C544 C545 1.400 . S
C545 C539 1.491 . S
C545 C544 1.400 . S
C545 C546 1.398 . S
C546 H534 0.950 . S
C546 C545 1.398 . S
C546 C547 1.391 . S
C547 H535 0.950 . S
C547 C543 1.393 . S
C547 C546 1.391 . S
H548 C556 0.950 . S
H549 C561 0.950 . S
H550 C558 0.950 . S
H551 C560 0.950 . S
H552 C562 0.950 . S
H553 C564 0.950 . S
H554 C566 0.950 . S
H555 C567 0.950 . S
C556 H548 0.950 . S
C556 C557 1.386 . S
C556 C558 1.391 . S
C557 C556 1.386 . S
C557 C561 1.393 . S
C558 H550 0.950 . S
C558 C556 1.391 . S
C558 C559 1.400 . S
C559 C558 1.400 . S
C559 C560 1.398 . S
C559 C565 1.491 . S
C560 H551 0.950 . S
C560 C559 1.398 . S
C560 C561 1.391 . S
C561 H549 0.950 . S
C561 C557 1.393 . S
C561 C560 1.391 . S
C562 H552 0.950 . S
C562 C563 1.386 . S
C562 C564 1.391 . S
C563 C562 1.386 . S
C563 C567 1.393 . S
C564 H553 0.950 . S
C564 C562 1.391 . S
C564 C565 1.400 . S
C565 C559 1.491 . S
C565 C564 1.400 . S
C565 C566 1.398 . S
C566 H554 0.950 . S
C566 C565 1.398 . S
C566 C567 1.391 . S
C567 H555 0.950 . S
C567 C563 1.393 . S
C567 C566 1.391 . S
H568 C576 0.950 . S
H569 C581 0.950 . S
H570 C578 0.950 . S
H571 C580 0.950 . S
H572 C582 0.950 . S
H573 C584 0.950 . S
H574 C586 0.950 . S
H575 C587 0.950 . S
C576 H568 0.950 . S
C576 C577 1.386 . S
C576 C578 1.391 . S
C577 C576 1.386 . S
C577 C581 1.393 . S
C578 H570 0.950 . S
C578 C576 1.391 . S
C578 C579 1.400 . S
C579 C578 1.400 . S
C579 C580 1.398 . S
C579 C585 1.491 . S
C580 H571 0.950 . S
C580 C579 1.398 . S
C580 C581 1.391 . S
C581 H569 0.950 . S
C581 C577 1.393 . S
C581 C580 1.391 . S
C582 H572 0.950 . S
C582 C583 1.386 . S
C582 C584 1.391 . S
C583 C582 1.386 . S
C583 C587 1.393 . S
C584 H573 0.950 . S
C584 C582 1.391 . S
C584 C585 1.400 . S
C585 C579 1.491 . S
C585 C584 1.400 . S
C585 C586 1.398 . S
C586 H574 0.950 . S
C586 C585 1.398 . S
C586 C587 1.391 . S
C587 H575 0.950 . S
C587 C583 1.393 . S
C587 C586 1.391 . S
H588 C596 0.950 . S
H589 C601 0.950 . S
H590 C598 0.950 . S
H591 C600 0.950 . S
H592 C602 0.950 . S
H593 C604 0.950 . S
H594 C606 0.950 . S
H595 C607 0.950 . S
C596 H588 0.950 . S
C596 C597 1.386 . S
C596 C598 1.391 . S
C597 C596 1.386 . S
C597 C601 1.393 . S
C598 H590 0.950 . S
C598 C596 1.391 . S
C598 C599 1.400 . S
C599 C598 1.400 . S
C599 C600 1.398 . S
C599 C605 1.491 . S
C600 H591 0.950 . S
C600 C599 1.398 . S
C600 C601 1.391 . S
C601 H589 0.950 . S
C601 C597 1.393 . S
C601 C600 1.391 . S
C602 H592 0.950 . S
C602 C603 1.386 . S
C602 C604 1.391 . S
C603 C602 1.386 . S
C603 C607 1.393 . S
C604 H593 0.950 . S
C604 C602 1.391 . S
C604 C605 1.400 . S
C605 C599 1.491 . S
C605 C604 1.400 . S
C605 C606 1.398 . S
C606 H594 0.950 . S
C606 C605 1.398 . S
C606 C607 1.391 . S
C607 H595 0.950 . S
C607 C603 1.393 . S
C607 C606 1.391 . S
H608 C616 0.950 . S
H609 C621 0.950 . S
H610 C618 0.950 . S
H611 C620 0.950 . S
H612 C622 0.950 . S
H613 C624 0.950 . S
H614 C626 0.950 . S
H615 C627 0.950 . S
C616 H608 0.950 . S
C616 C617 1.386 . S
C616 C618 1.391 . S
C617 C616 1.386 . S
C617 C621 1.393 . S
C618 H610 0.950 . S
C618 C616 1.391 . S
C618 C619 1.400 . S
C619 C618 1.400 . S
C619 C620 1.398 . S
C619 C625 1.491 . S
C620 H611 0.950 . S
C620 C619 1.398 . S
C620 C621 1.391 . S
C621 H609 0.950 . S
C621 C617 1.393 . S
C621 C620 1.391 . S
C622 H612 0.950 . S
C622 C623 1.386 . S
C622 C624 1.391 . S
C623 C622 1.386 . S
C623 C627 1.393 . S
C624 H613 0.950 . S
C624 C622 1.391 . S
C624 C625 1.400 . S
C625 C619 1.491 . S
C625 C624 1.400 . S
C625 C626 1.398 . S
C626 H614 0.950 . S
C626 C625 1.398 . S
C626 C627 1.391 . S
C627 H615 0.950 . S
C627 C623 1.393 . S
C627 C626 1.391 . S
H628 C636 0.950 . S
H629 C641 0.950 . S
H630 C638 0.950 . S
H631 C640 0.950 . S
H632 C642 0.950 . S
H633 C644 0.950 . S
H634 C646 0.950 . S
H635 C647 0.950 . S
C636 H628 0.950 . S
C636 C637 1.386 . S
C636 C638 1.391 . S
C637 C636 1.386 . S
C637 C641 1.393 . S
C638 H630 0.950 . S
C638 C636 1.391 . S
C638 C639 1.400 . S
C639 C638 1.400 . S
C639 C640 1.398 . S
C639 C645 1.491 . S
C640 H631 0.950 . S
C640 C639 1.398 . S
C640 C641 1.391 . S
C641 H629 0.950 . S
C641 C637 1.393 . S
C641 C640 1.391 . S
C642 H632 0.950 . S
C642 C643 1.386 . S
C642 C644 1.391 . S
C643 C642 1.386 . S
C643 C647 1.393 . S
C644 H633 0.950 . S
C644 C642 1.391 . S
C644 C645 1.400 . S
C645 C639 1.491 . S
C645 C644 1.400 . S
C645 C646 1.398 . S
C646 H634 0.950 . S
C646 C645 1.398 . S
C646 C647 1.391 . S
C647 H635 0.950 . S
C647 C643 1.393 . S
C647 C646 1.391 . S
H648 C656 0.950 . S
H649 C661 0.950 . S
H650 C658 0.950 . S
H651 C660 0.950 . S
H652 C662 0.950 . S
H653 C664 0.950 . S
H654 C666 0.950 . S
H655 C667 0.950 . S
C656 H648 0.950 . S
C656 C657 1.386 . S
C656 C658 1.391 . S
C657 C656 1.386 . S
C657 C661 1.393 . S
C658 H650 0.950 . S
C658 C656 1.391 . S
C658 C659 1.400 . S
C659 C658 1.400 . S
C659 C660 1.398 . S
C659 C665 1.491 . S
C660 H651 0.950 . S
C660 C659 1.398 . S
C660 C661 1.391 . S
C661 H649 0.950 . S
C661 C657 1.393 . S
C661 C660 1.391 . S
C662 H652 0.950 . S
C662 C663 1.386 . S
C662 C664 1.391 . S
C663 C662 1.386 . S
C663 C667 1.393 . S
C664 H653 0.950 . S
C664 C662 1.391 . S
C664 C665 1.400 . S
C665 C659 1.491 . S
C665 C664 1.400 . S
C665 C666 1.398 . S
C666 H654 0.950 . S
C666 C665 1.398 . S
C666 C667 1.391 . S
C667 H655 0.950 . S
C667 C663 1.393 . S
C667 C666 1.391 . S
H668 C676 0.950 . S
H669 C681 0.950 . S
H670 C678 0.950 . S
H671 C680 0.950 . S
H672 C682 0.950 . S
H673 C684 0.950 . S
H674 C686 0.950 . S
H675 C687 0.950 . S
C676 H668 0.950 . S
C676 C677 1.386 . S
C676 C678 1.391 . S
C677 C676 1.386 . S
C677 C681 1.393 . S
C678 H670 0.950 . S
C678 C676 1.391 . S
C678 C679 1.400 . S
C679 C678 1.400 . S
C679 C680 1.398 . S
C679 C685 1.491 . S
C680 H671 0.950 . S
C680 C679 1.398 . S
C680 C681 1.391 . S
C681 H669 0.950 . S
C681 C677 1.393 . S
C681 C680 1.391 . S
C682 H672 0.950 . S
C682 C683 1.386 . S
C682 C684 1.391 . S
C683 C682 1.386 . S
C683 C687 1.393 . S
C684 H673 0.950 . S
C684 C682 1.391 . S
C684 C685 1.400 . S
C685 C679 1.491 . S
C685 C684 1.400 . S
C685 C686 1.398 . S
C686 H674 0.950 . S
C686 C685 1.398 . S
C686 C687 1.391 . S
C687 H675 0.950 . S
C687 C683 1.393 . S
C687 C686 1.391 . S
H688 C696 0.950 . S
H689 C701 0.950 . S
H690 C698 0.950 . S
H691 C700 0.950 . S
H692 C702 0.950 . S
H693 C704 0.950 . S
H694 C706 0.950 . S
H695 C707 0.950 . S
C696 H688 0.950 . S
C696 C697 1.386 . S
C696 C698 1.391 . S
C697 C696 1.386 . S
C697 C701 1.393 . S
C698 H690 0.950 . S
C698 C696 1.391 . S
C698 C699 1.400 . S
C699 C698 1.400 . S
C699 C700 1.398 . S
C699 C705 1.491 . S
C700 H691 0.950 . S
C700 C699 1.398 . S
C700 C701 1.391 . S
C701 H689 0.950 . S
C701 C697 1.393 . S
C701 C700 1.391 . S
C702 H692 0.950 . S
C702 C703 1.386 . S
C702 C704 1.391 . S
C703 C702 1.386 . S
C703 C707 1.393 . S
C704 H693 0.950 . S
C704 C702 1.391 . S
C704 C705 1.400 . S
C705 C699 1.491 . S
C705 C704 1.400 . S
C705 C706 1.398 . S
C706 H694 0.950 . S
C706 C705 1.398 . S
C706 C707 1.391 . S
C707 H695 0.950 . S
C707 C703 1.393 . S
C707 C706 1.391 . S
H708 C716 0.950 . S
H709 C721 0.950 . S
H710 C718 0.950 . S
H711 C720 0.950 . S
H712 C722 0.950 . S
H713 C724 0.950 . S
H714 C726 0.950 . S
H715 C727 0.950 . S
C716 H708 0.950 . S
C716 C717 1.386 . S
C716 C718 1.391 . S
C717 C716 1.386 . S
C717 C721 1.393 . S
C718 H710 0.950 . S
C718 C716 1.391 . S
C718 C719 1.400 . S
C719 C718 1.400 . S
C719 C720 1.398 . S
C719 C725 1.491 . S
C720 H711 0.950 . S
C720 C719 1.398 . S
C720 C721 1.391 . S
C721 H709 0.950 . S
C721 C717 1.393 . S
C721 C720 1.391 . S
C722 H712 0.950 . S
C722 C723 1.386 . S
C722 C724 1.391 . S
C723 C722 1.386 . S
C723 C727 1.393 . S
C724 H713 0.950 . S
C724 C722 1.391 . S
C724 C725 1.400 . S
C725 C719 1.491 . S
C725 C724 1.400 . S
C725 C726 1.398 . S
C726 H714 0.950 . S
C726 C725 1.398 . S
C726 C727 1.391 . S
C727 H715 0.950 . S
C727 C723 1.393 . S
C727 C726 1.391 . S
H728 C736 0.950 . S
H729 C741 0.950 . S
H730 C738 0.950 . S
H731 C740 0.950 . S
H732 C742 0.950 . S
H733 C744 0.950 . S
H734 C746 0.950 . S
H735 C747 0.950 . S
C736 H728 0.950 . S
C736 C737 1.386 . S
C736 C738 1.391 . S
C737 C736 1.386 . S
C737 C741 1.393 . S
C738 H730 0.950 . S
C738 C736 1.391 . S
C738 C739 1.400 . S
C739 C738 1.400 . S
C739 C740 1.398 . S
C739 C745 1.491 . S
C740 H731 0.950 . S
C740 C739 1.398 . S
C740 C741 1.391 . S
C741 H729 0.950 . S
C741 C737 1.393 . S
C741 C740 1.391 . S
C742 H732 0.950 . S
C742 C743 1.386 . S
C742 C744 1.391 . S
C743 C742 1.386 . S
C743 C747 1.393 . S
C744 H733 0.950 . S
C744 C742 1.391 . S
C744 C745 1.400 . S
C745 C739 1.491 . S
C745 C744 1.400 . S
C745 C746 1.398 . S
C746 H734 0.950 . S
C746 C745 1.398 . S
C746 C747 1.391 . S
C747 H735 0.950 . S
C747 C743 1.393 . S
C747 C746 1.391 . S
H748 C756 0.950 . S
H749 C761 0.950 . S
H750 C758 0.950 . S
H751 C760 0.950 . S
H752 C762 0.950 . S
H753 C764 0.950 . S
H754 C766 0.950 . S
H755 C767 0.950 . S
C756 H748 0.950 . S
C756 C757 1.386 . S
C756 C758 1.391 . S
C757 C756 1.386 . S
C757 C761 1.393 . S
C758 H750 0.950 . S
C758 C756 1.391 . S
C758 C759 1.400 . S
C759 C758 1.400 . S
C759 C760 1.398 . S
C759 C765 1.491 . S
C760 H751 0.950 . S
C760 C759 1.398 . S
C760 C761 1.391 . S
C761 H749 0.950 . S
C761 C757 1.393 . S
C761 C760 1.391 . S
C762 H752 0.950 . S
C762 C763 1.386 . S
C762 C764 1.391 . S
C763 C762 1.386 . S
C763 C767 1.393 . S
C764 H753 0.950 . S
C764 C762 1.391 . S
C764 C765 1.400 . S
C765 C759 1.491 . S
C765 C764 1.400 . S
C765 C766 1.398 . S
C766 H754 0.950 . S
C766 C765 1.398 . S
C766 C767 1.391 . S
C767 H755 0.950 . S
C767 C763 1.393 . S
C767 C766 1.391 . S
H768 C776 0.950 . S
H769 C781 0.950 . S
H770 C778 0.950 . S
H771 C780 0.950 . S
H772 C782 0.950 . S
H773 C784 0.950 . S
H774 C786 0.950 . S
H775 C787 0.950 . S
C776 H768 0.950 . S
C776 C777 1.386 . S
C776 C778 1.391 . S
C777 C776 1.386 . S
C777 C781 1.393 . S
C778 H770 0.950 . S
C778 C776 1.391 . S
C778 C779 1.400 . S
C779 C778 1.400 . S
C779 C780 1.398 . S
C779 C785 1.491 . S
C780 H771 0.950 . S
C780 C779 1.398 . S
C780 C781 1.391 . S
C781 H769 0.950 . S
C781 C777 1.393 . S
C781 C780 1.391 . S
C782 H772 0.950 . S
C782 C783 1.386 . S
C782 C784 1.391 . S
C783 C782 1.386 . S
C783 C787 1.393 . S
C784 H773 0.950 . S
C784 C782 1.391 . S
C784 C785 1.400 . S
C785 C779 1.491 . S
C785 C784 1.400 . S
C785 C786 1.398 . S
C786 H774 0.950 . S
C786 C785 1.398 . S
C786 C787 1.391 . S
C787 H775 0.950 . S
C787 C783 1.393 . S
C787 C786 1.391 . S
H788 C796 0.950 . S
H789 C801 0.950 . S
H790 C798 0.950 . S
H791 C800 0.950 . S
H792 C802 0.950 . S
H793 C804 0.950 . S
H794 C806 0.950 . S
H795 C807 0.950 . S
C796 H788 0.950 . S
C796 C797 1.386 . S
C796 C798 1.391 . S
C797 C796 1.386 . S
C797 C801 1.393 . S
C798 H790 0.950 . S
C798 C796 1.391 . S
C798 C799 1.400 . S
C799 C798 1.400 . S
C799 C800 1.398 . S
C799 C805 1.491 . S
C800 H791 0.950 . S
C800 C799 1.398 . S
C800 C801 1.391 . S
C801 H789 0.950 . S
C801 C797 1.393 . S
C801 C800 1.391 . S
C802 H792 0.950 . S
C802 C803 1.386 . S
C802 C804 1.391 . S
C803 C802 1.386 . S
C803 C807 1.393 . S
C804 H793 0.950 . S
C804 C802 1.391 . S
C804 C805 1.400 . S
C805 C799 1.491 . S
C805 C804 1.400 . S
C805 C806 1.398 . S
C806 H794 0.950 . S
C806 C805 1.398 . S
C806 C807 1.391 . S
C807 H795 0.950 . S
C807 C803 1.393 . S
C807 C806 1.391 . S
H808 C816 0.950 . S
H809 C821 0.950 . S
H810 C818 0.950 . S
H811 C820 0.950 . S
H812 C822 0.950 . S
H813 C824 0.950 . S
H814 C826 0.950 . S
H815 C827 0.950 . S
C816 H808 0.950 . S
C816 C817 1.386 . S
C816 C818 1.391 . S
C817 C816 1.386 . S
C817 C821 1.393 . S
C818 H810 0.950 . S
C818 C816 1.391 . S
C818 C819 1.400 . S
C819 C818 1.400 . S
C819 C820 1.398 . S
C819 C825 1.491 . S
C820 H811 0.950 . S
C820 C819 1.398 . S
C820 C821 1.391 . S
C821 H809 0.950 . S
C821 C817 1.393 . S
C821 C820 1.391 . S
C822 H812 0.950 . S
C822 C823 1.386 . S
C822 C824 1.391 . S
C823 C822 1.386 . S
C823 C827 1.393 . S
C824 H813 0.950 . S
C824 C822 1.391 . S
C824 C825 1.400 . S
C825 C819 1.491 . S
C825 C824 1.400 . S
C825 C826 1.398 . S
C826 H814 0.950 . S
C826 C825 1.398 . S
C826 C827 1.391 . S
C827 H815 0.950 . S
C827 C823 1.393 . S
C827 C826 1.391 . S
H828 C836 0.950 . S
H829 C841 0.950 . S
H830 C838 0.950 . S
H831 C840 0.950 . S
H832 C842 0.950 . S
H833 C844 0.950 . S
H834 C846 0.950 . S
H835 C847 0.950 . S
C836 H828 0.950 . S
C836 C837 1.386 . S
C836 C838 1.391 . S
C837 C836 1.386 . S
C837 C841 1.393 . S
C838 H830 0.950 . S
C838 C836 1.391 . S
C838 C839 1.400 . S
C839 C838 1.400 . S
C839 C840 1.398 . S
C839 C845 1.491 . S
C840 H831 0.950 . S
C840 C839 1.398 . S
C840 C841 1.391 . S
C841 H829 0.950 . S
C841 C837 1.393 . S
C841 C840 1.391 . S
C842 H832 0.950 . S
C842 C843 1.386 . S
C842 C844 1.391 . S
C843 C842 1.386 . S
C843 C847 1.393 . S
C844 H833 0.950 . S
C844 C842 1.391 . S
C844 C845 1.400 . S
C845 C839 1.491 . S
C845 C844 1.400 . S
C845 C846 1.398 . S
C846 H834 0.950 . S
C846 C845 1.398 . S
C846 C847 1.391 . S
C847 H835 0.950 . S
C847 C843 1.393 . S
C847 C846 1.391 . S
H848 C856 0.950 . S
H849 C861 0.950 . S
H850 C858 0.950 . S
H851 C860 0.950 . S
H852 C862 0.950 . S
H853 C864 0.950 . S
H854 C866 0.950 . S
H855 C867 0.950 . S
C856 H848 0.950 . S
C856 C857 1.386 . S
C856 C858 1.391 . S
C857 C856 1.386 . S
C857 C861 1.393 . S
C858 H850 0.950 . S
C858 C856 1.391 . S
C858 C859 1.400 . S
C859 C858 1.400 . S
C859 C860 1.398 . S
C859 C865 1.491 . S
C860 H851 0.950 . S
C860 C859 1.398 . S
C860 C861 1.391 . S
C861 H849 0.950 . S
C861 C857 1.393 . S
C861 C860 1.391 . S
C862 H852 0.950 . S
C862 C863 1.386 . S
C862 C864 1.391 . S
C863 C862 1.386 . S
C863 C867 1.393 . S
C864 H853 0.950 . S
C864 C862 1.391 . S
C864 C865 1.400 . S
C865 C859 1.491 . S
C865 C864 1.400 . S
C865 C866 1.398 . S
C866 H854 0.950 . S
C866 C865 1.398 . S
C866 C867 1.391 . S
C867 H855 0.950 . S
C867 C863 1.393 . S
C867 C866 1.391 . S
H868 C876 0.950 . S
H869 C881 0.950 . S
H870 C878 0.950 . S
H871 C880 0.950 . S
H872 C882 0.950 . S
H873 C884 0.950 . S
H874 C886 0.950 . S
H875 C887 0.950 . S
C876 H868 0.950 . S
C876 C877 1.386 . S
C876 C878 1.391 . S
C877 C876 1.386 . S
C877 C881 1.393 . S
C878 H870 0.950 . S
C878 C876 1.391 . S
C878 C879 1.400 . S
C879 C878 1.400 . S
C879 C880 1.398 . S
C879 C885 1.491 . S
C880 H871 0.950 . S
C880 C879 1.398 . S
C880 C881 1.391 . S
C881 H869 0.950 . S
C881 C877 1.393 . S
C881 C880 1.391 . S
C882 H872 0.950 . S
C882 C883 1.386 . S
C882 C884 1.391 . S
C883 C882 1.386 . S
C883 C887 1.393 . S
C884 H873 0.950 . S
C884 C882 1.391 . S
C884 C885 1.400 . S
C885 C879 1.491 . S
C885 C884 1.400 . S
C885 C886 1.398 . S
C886 H874 0.950 . S
C886 C885 1.398 . S
C886 C887 1.391 . S
C887 H875 0.950 . S
C887 C883 1.393 . S
C887 C886 1.391 . S
H888 C896 0.950 . S
H889 C901 0.950 . S
H890 C898 0.950 . S
H891 C900 0.950 . S
H892 C902 0.950 . S
H893 C904 0.950 . S
H894 C906 0.950 . S
H895 C907 0.950 . S
C896 H888 0.950 . S
C896 C897 1.386 . S
C896 C898 1.391 . S
C897 C896 1.386 . S
C897 C901 1.393 . S
C898 H890 0.950 . S
C898 C896 1.391 . S
C898 C899 1.400 . S
C899 C898 1.400 . S
C899 C900 1.398 . S
C899 C905 1.491 . S
C900 H891 0.950 . S
C900 C899 1.398 . S
C900 C901 1.391 . S
C901 H889 0.950 . S
C901 C897 1.393 . S
C901 C900 1.391 . S
C902 H892 0.950 . S
C902 C903 1.386 . S
C902 C904 1.391 . S
C903 C902 1.386 . S
C903 C907 1.393 . S
C904 H893 0.950 . S
C904 C902 1.391 . S
C904 C905 1.400 . S
C905 C899 1.491 . S
C905 C904 1.400 . S
C905 C906 1.398 . S
C906 H894 0.950 . S
C906 C905 1.398 . S
C906 C907 1.391 . S
C907 H895 0.950 . S
C907 C903 1.393 . S
C907 C906 1.391 . S
H908 C916 0.950 . S
H909 C921 0.950 . S
H910 C918 0.950 . S
H911 C920 0.950 . S
H912 C922 0.950 . S
H913 C924 0.950 . S
H914 C926 0.950 . S
H915 C927 0.950 . S
C916 H908 0.950 . S
C916 C917 1.386 . S
C916 C918 1.391 . S
C917 C916 1.386 . S
C917 C921 1.393 . S
C918 H910 0.950 . S
C918 C916 1.391 . S
C918 C919 1.400 . S
C919 C918 1.400 . S
C919 C920 1.398 . S
C919 C925 1.491 . S
C920 H911 0.950 . S
C920 C919 1.398 . S
C920 C921 1.391 . S
C921 H909 0.950 . S
C921 C917 1.393 . S
C921 C920 1.391 . S
C922 H912 0.950 . S
C922 C923 1.386 . S
C922 C924 1.391 . S
C923 C922 1.386 . S
C923 C927 1.393 . S
C924 H913 0.950 . S
C924 C922 1.391 . S
C924 C925 1.400 . S
C925 C919 1.491 . S
C925 C924 1.400 . S
C925 C926 1.398 . S
C926 H914 0.950 . S
C926 C925 1.398 . S
C926 C927 1.391 . S
C927 H915 0.950 . S
C927 C923 1.393 . S
C927 C926 1.391 . S
H928 C936 0.950 . S
H929 C941 0.950 . S
H930 C938 0.950 . S
H931 C940 0.950 . S
H932 C942 0.950 . S
H933 C944 0.950 . S
H934 C946 0.950 . S
H935 C947 0.950 . S
C936 H928 0.950 . S
C936 C937 1.386 . S
C936 C938 1.391 . S
C937 C936 1.386 . S
C937 C941 1.393 . S
C938 H930 0.950 . S
C938 C936 1.391 . S
C938 C939 1.400 . S
C939 C938 1.400 . S
C939 C940 1.398 . S
C939 C945 1.491 . S
C940 H931 0.950 . S
C940 C939 1.398 . S
C940 C941 1.391 . S
C941 H929 0.950 . S
C941 C937 1.393 . S
C941 C940 1.391 . S
C942 H932 0.950 . S
C942 C943 1.386 . S
C942 C944 1.391 . S
C943 C942 1.386 . S
C943 C947 1.393 . S
C944 H933 0.950 . S
C944 C942 1.391 . S
C944 C945 1.400 . S
C945 C939 1.491 . S
C945 C944 1.400 . S
C945 C946 1.398 . S
C946 H934 0.950 . S
C946 C945 1.398 . S
C946 C947 1.391 . S
C947 H935 0.950 . S
C947 C943 1.393 . S
C947 C946 1.391 . S
H948 C956 0.950 . S
H949 C961 0.950 . S
H950 C958 0.950 . S
H951 C960 0.950 . S
H952 C962 0.950 . S
H953 C964 0.950 . S
H954 C966 0.950 . S
H955 C967 0.950 . S
C956 H948 0.950 . S
C956 C957 1.386 . S
C956 C958 1.391 . S
C957 C956 1.386 . S
C957 C961 1.393 . S
C958 H950 0.950 . S
C958 C956 1.391 . S
C958 C959 1.400 . S
C959 C958 1.400 . S
C959 C960 1.398 . S
C959 C965 1.491 . S
C960 H951 0.950 . S
C960 C959 1.398 . S
C960 C961 1.391 . S
C961 H949 0.950 . S
C961 C957 1.393 . S
C961 C960 1.391 . S
C962 H952 0.950 . S
C962 C963 1.386 . S
C962 C964 1.391 . S
C963 C962 1.386 . S
C963 C967 1.393 . S
C964 H953 0.950 . S
C964 C962 1.391 . S
C964 C965 1.400 . S
C965 C959 1.491 . S
C965 C964 1.400 . S
C965 C966 1.398 . S
C966 H954 0.950 . S
C966 C965 1.398 . S
C966 C967 1.391 . S
C967 H955 0.950 . S
C967 C963 1.393 . S
C967 C966 1.391 . S
H968 C976 0.950 . S
H969 C981 0.950 . S
H970 C978 0.950 . S
H971 C980 0.950 . S
H972 C982 0.950 . S
H973 C984 0.950 . S
H974 C986 0.950 . S
H975 C987 0.950 . S
C976 H968 0.950 . S
C976 C977 1.386 . S
C976 C978 1.391 . S
C977 C976 1.386 . S
C977 C981 1.393 . S
C978 H970 0.950 . S
C978 C976 1.391 . S
C978 C979 1.400 . S
C979 C978 1.400 . S
C979 C980 1.398 . S
C979 C985 1.491 . S
C980 H971 0.950 . S
C980 C979 1.398 . S
C980 C981 1.391 . S
C981 H969 0.950 . S
C981 C977 1.393 . S
C981 C980 1.391 . S
C982 H972 0.950 . S
C982 C983 1.386 . S
C982 C984 1.391 . S
C983 C982 1.386 . S
C983 C987 1.393 . S
C984 H973 0.950 . S
C984 C982 1.391 . S
C984 C985 1.400 . S
C985 C979 1.491 . S
C985 C984 1.400 . S
C985 C986 1.398 . S
C986 H974 0.950 . S
C986 C985 1.398 . S
C986 C987 1.391 . S
C987 H975 0.950 . S
C987 C983 1.393 . S
C987 C986 1.391 . S
H988 C996 0.950 . S
H989 C1001 0.950 . S
H990 C998 0.950 . S
H991 C1000 0.950 . S
H992 C1002 0.950 . S
H993 C1004 0.950 . S
H994 C1006 0.950 . S
H995 C1007 0.950 . S
C996 H988 0.950 . S
C996 C997 1.386 . S
C996 C998 1.391 . S
C997 C996 1.386 . S
C997 C1001 1.393 . S
C998 H990 0.950 . S
C998 C996 1.391 . S
C998 C999 1.400 . S
C999 C998 1.400 . S
C999 C1000 1.398 . S
C999 C1005 1.491 . S
C1000 H991 0.950 . S
C1000 C999 1.398 . S
C1000 C1001 1.391 . S
C1001 H989 0.950 . S
C1001 C997 1.393 . S
C1001 C1000 1.391 . S
C1002 H992 0.950 . S
C1002 C1003 1.386 . S
C1002 C1004 1.391 . S
C1003 C1002 1.386 . S
C1003 C1007 1.393 . S
C1004 H993 0.950 . S
C1004 C1002 1.391 . S
C1004 C1005 1.400 . S
C1005 C999 1.491 . S
C1005 C1004 1.400 . S
C1005 C1006 1.398 . S
C1006 H994 0.950 . S
C1006 C1005 1.398 . S
C1006 C1007 1.391 . S
C1007 H995 0.950 . S
C1007 C1003 1.393 . S
C1007 C1006 1.391 . S
H1008 C1016 0.950 . S
H1009 C1021 0.950 . S
H1010 C1018 0.950 . S
H1011 C1020 0.950 . S
H1012 C1022 0.950 . S
H1013 C1024 0.950 . S
H1014 C1026 0.950 . S
H1015 C1027 0.950 . S
C1016 H1008 0.950 . S
C1016 C1017 1.386 . S
C1016 C1018 1.391 . S
C1017 C1016 1.386 . S
C1017 C1021 1.393 . S
C1018 H1010 0.950 . S
C1018 C1016 1.391 . S
C1018 C1019 1.400 . S
C1019 C1018 1.400 . S
C1019 C1020 1.398 . S
C1019 C1025 1.491 . S
C1020 H1011 0.950 . S
C1020 C1019 1.398 . S
C1020 C1021 1.391 . S
C1021 H1009 0.950 . S
C1021 C1017 1.393 . S
C1021 C1020 1.391 . S
C1022 H1012 0.950 . S
C1022 C1023 1.386 . S
C1022 C1024 1.391 . S
C1023 C1022 1.386 . S
C1023 C1027 1.393 . S
C1024 H1013 0.950 . S
C1024 C1022 1.391 . S
C1024 C1025 1.400 . S
C1025 C1019 1.491 . S
C1025 C1024 1.400 . S
C1025 C1026 1.398 . S
C1026 H1014 0.950 . S
C1026 C1025 1.398 . S
C1026 C1027 1.391 . S
C1027 H1015 0.950 . S
C1027 C1023 1.393 . S
C1027 C1026 1.391 . S
H1028 C1036 0.950 . S
H1029 C1041 0.950 . S
H1030 C1038 0.950 . S
H1031 C1040 0.950 . S
H1032 C1042 0.950 . S
H1033 C1044 0.950 . S
H1034 C1046 0.950 . S
H1035 C1047 0.950 . S
C1036 H1028 0.950 . S
C1036 C1037 1.386 . S
C1036 C1038 1.391 . S
C1037 C1036 1.386 . S
C1037 C1041 1.393 . S
C1038 H1030 0.950 . S
C1038 C1036 1.391 . S
C1038 C1039 1.400 . S
C1039 C1038 1.400 . S
C1039 C1040 1.398 . S
C1039 C1045 1.491 . S
C1040 H1031 0.950 . S
C1040 C1039 1.398 . S
C1040 C1041 1.391 . S
C1041 H1029 0.950 . S
C1041 C1037 1.393 . S
C1041 C1040 1.391 . S
C1042 H1032 0.950 . S
C1042 C1043 1.386 . S
C1042 C1044 1.391 . S
C1043 C1042 1.386 . S
C1043 C1047 1.393 . S
C1044 H1033 0.950 . S
C1044 C1042 1.391 . S
C1044 C1045 1.400 . S
C1045 C1039 1.491 . S
C1045 C1044 1.400 . S
C1045 C1046 1.398 . S
C1046 H1034 0.950 . S
C1046 C1045 1.398 . S
C1046 C1047 1.391 . S
C1047 H1035 0.950 . S
C1047 C1043 1.393 . S
C1047 C1046 1.391 . S
H1048 C1056 0.950 . S
H1049 C1061 0.950 . S
H1050 C1058 0.950 . S
H1051 C1060 0.950 . S
H1052 C1062 0.950 . S
H1053 C1064 0.950 . S
H1054 C1066 0.950 . S
H1055 C1067 0.950 . S
C1056 H1048 0.950 . S
C1056 C1057 1.386 . S
C1056 C1058 1.391 . S
C1057 C1056 1.386 . S
C1057 C1061 1.393 . S
C1058 H1050 0.950 . S
C1058 C1056 1.391 . S
C1058 C1059 1.400 . S
C1059 C1058 1.400 . S
C1059 C1060 1.398 . S
C1059 C1065 1.491 . S
C1060 H1051 0.950 . S
C1060 C1059 1.398 . S
C1060 C1061 1.391 . S
C1061 H1049 0.950 . S
C1061 C1057 1.393 . S
C1061 C1060 1.391 . S
C1062 H1052 0.950 . S
C1062 C1063 1.386 . S
C1062 C1064 1.391 . S
C1063 C1062 1.386 . S
C1063 C1067 1.393 . S
C1064 H1053 0.950 . S
C1064 C1062 1.391 . S
C1064 C1065 1.400 . S
C1065 C1059 1.491 . S
C1065 C1064 1.400 . S
C1065 C1066 1.398 . S
C1066 H1054 0.950 . S
C1066 C1065 1.398 . S
C1066 C1067 1.391 . S
C1067 H1055 0.950 . S
C1067 C1063 1.393 . S
C1067 C1066 1.391 . S
H1068 C1076 0.950 . S
H1069 C1081 0.950 . S
H1070 C1078 0.950 . S
H1071 C1080 0.950 . S
H1072 C1082 0.950 . S
H1073 C1084 0.950 . S
H1074 C1086 0.950 . S
H1075 C1087 0.950 . S
C1076 H1068 0.950 . S
C1076 C1077 1.386 . S
C1076 C1078 1.391 . S
C1077 C1076 1.386 . S
C1077 C1081 1.393 . S
C1078 H1070 0.950 . S
C1078 C1076 1.391 . S
C1078 C1079 1.400 . S
C1079 C1078 1.400 . S
C1079 C1080 1.398 . S
C1079 C1085 1.491 . S
C1080 H1071 0.950 . S
C1080 C1079 1.398 . S
C1080 C1081 1.391 . S
C1081 H1069 0.950 . S
C1081 C1077 1.393 . S
C1081 C1080 1.391 . S
C1082 H1072 0.950 . S
C1082 C1083 1.386 . S
C1082 C1084 1.391 . S
C1083 C1082 1.386 . S
C1083 C1087 1.393 . S
C1084 H1073 0.950 . S
C1084 C1082 1.391 . S
C1084 C1085 1.400 . S
C1085 C1079 1.491 . S
C1085 C1084 1.400 . S
C1085 C1086 1.398 . S
C1086 H1074 0.950 . S
C1086 C1085 1.398 . S
C1086 C1087 1.391 . S
C1087 H1075 0.950 . S
C1087 C1083 1.393 . S
C1087 C1086 1.391 . S
H1088 C1096 0.950 . S
H1089 C1101 0.950 . S
H1090 C1098 0.950 . S
H1091 C1100 0.950 . S
H1092 C1102 0.950 . S
H1093 C1104 0.950 . S
H1094 C1106 0.950 . S
H1095 C1107 0.950 . S
C1096 H1088 0.950 . S
C1096 C1097 1.386 . S
C1096 C1098 1.391 . S
C1097 C1096 1.386 . S
C1097 C1101 1.393 . S
C1098 H1090 0.950 . S
C1098 C1096 1.391 . S
C1098 C1099 1.400 . S
C1099 C1098 1.400 . S
C1099 C1100 1.398 . S
C1099 C1105 1.491 . S
C1100 H1091 0.950 . S
C1100 C1099 1.398 . S
C1100 C1101 1.391 . S
C1101 H1089 0.950 . S
C1101 C1097 1.393 . S
C1101 C1100 1.391 . S
C1102 H1092 0.950 . S
C1102 C1103 1.386 . S
C1102 C1104 1.391 . S
C1103 C1102 1.386 . S
C1103 C1107 1.393 . S
C1104 H1093 0.950 . S
C1104 C1102 1.391 . S
C1104 C1105 1.400 . S
C1105 C1099 1.491 . S
C1105 C1104 1.400 . S
C1105 C1106 1.398 . S
C1106 H1094 0.950 . S
C1106 C1105 1.398 . S
C1106 C1107 1.391 . S
C1107 H1095 0.950 . S
C1107 C1103 1.393 . S
C1107 C1106 1.391 . S
H1108 C1116 0.950 . S
H1109 C1121 0.950 . S
H1110 C1118 0.950 . S
H1111 C1120 0.950 . S
H1112 C1122 0.950 . S
H1113 C1124 0.950 . S
H1114 C1126 0.950 . S
H1115 C1127 0.950 . S
C1116 H1108 0.950 . S
C1116 C1117 1.386 . S
C1116 C1118 1.391 . S
C1117 C1116 1.386 . S
C1117 C1121 1.393 . S
C1118 H1110 0.950 . S
C1118 C1116 1.391 . S
C1118 C1119 1.400 . S
C1119 C1118 1.400 . S
C1119 C1120 1.398 . S
C1119 C1125 1.491 . S
C1120 H1111 0.950 . S
C1120 C1119 1.398 . S
C1120 C1121 1.391 . S
C1121 H1109 0.950 . S
C1121 C1117 1.393 . S
C1121 C1120 1.391 . S
C1122 H1112 0.950 . S
C1122 C1123 1.386 . S
C1122 C1124 1.391 . S
C1123 C1122 1.386 . S
C1123 C1127 1.393 . S
C1124 H1113 0.950 . S
C1124 C1122 1.391 . S
C1124 C1125 1.400 . S
C1125 C1119 1.491 . S
C1125 C1124 1.400 . S
C1125 C1126 1.398 . S
C1126 H1114 0.950 . S
C1126 C1125 1.398 . S
C1126 C1127 1.391 . S
C1127 H1115 0.950 . S
C1127 C1123 1.393 . S
C1127 C1126 1.391 . S
H1128 C1136 0.950 . S
H1129 C1141 0.950 . S
H1130 C1138 0.950 . S
H1131 C1140 0.950 . S
H1132 C1142 0.950 . S
H1133 C1144 0.950 . S
H1134 C1146 0.950 . S
H1135 C1147 0.950 . S
C1136 H1128 0.950 . S
C1136 C1137 1.386 . S
C1136 C1138 1.391 . S
C1137 C1136 1.386 . S
C1137 C1141 1.393 . S
C1138 H1130 0.950 . S
C1138 C1136 1.391 . S
C1138 C1139 1.400 . S
C1139 C1138 1.400 . S
C1139 C1140 1.398 . S
C1139 C1145 1.491 . S
C1140 H1131 0.950 . S
C1140 C1139 1.398 . S
C1140 C1141 1.391 . S
C1141 H1129 0.950 . S
C1141 C1137 1.393 . S
C1141 C1140 1.391 . S
C1142 H1132 0.950 . S
C1142 C1143 1.386 . S
C1142 C1144 1.391 . S
C1143 C1142 1.386 . S
C1143 C1147 1.393 . S
C1144 H1133 0.950 . S
C1144 C1142 1.391 . S
C1144 C1145 1.400 . S
C1145 C1139 1.491 . S
C1145 C1144 1.400 . S
C1145 C1146 1.398 . S
C1146 H1134 0.950 . S
C1146 C1145 1.398 . S
C1146 C1147 1.391 . S
C1147 H1135 0.950 . S
C1147 C1143 1.393 . S
C1147 C1146 1.391 . S
H1148 C1156 0.950 . S
H1149 C1161 0.950 . S
H1150 C1158 0.950 . S
H1151 C1160 0.950 . S
H1152 C1162 0.950 . S
H1153 C1164 0.950 . S
H1154 C1166 0.950 . S
H1155 C1167 0.950 . S
C1156 H1148 0.950 . S
C1156 C1157 1.386 . S
C1156 C1158 1.391 . S
C1157 C1156 1.386 . S
C1157 C1161 1.393 . S
C1158 H1150 0.950 . S
C1158 C1156 1.391 . S
C1158 C1159 1.400 . S
C1159 C1158 1.400 . S
C1159 C1160 1.398 . S
C1159 C1165 1.491 . S
C1160 H1151 0.950 . S
C1160 C1159 1.398 . S
C1160 C1161 1.391 . S
C1161 H1149 0.950 . S
C1161 C1157 1.393 . S
C1161 C1160 1.391 . S
C1162 H1152 0.950 . S
C1162 C1163 1.386 . S
C1162 C1164 1.391 . S
C1163 C1162 1.386 . S
C1163 C1167 1.393 . S
C1164 H1153 0.950 . S
C1164 C1162 1.391 . S
C1164 C1165 1.400 . S
C1165 C1159 1.491 . S
C1165 C1164 1.400 . S
C1165 C1166 1.398 . S
C1166 H1154 0.950 . S
C1166 C1165 1.398 . S
C1166 C1167 1.391 . S
C1167 H1155 0.950 . S
C1167 C1163 1.393 . S
C1167 C1166 1.391 . S
H1168 C1176 0.950 . S
H1169 C1181 0.950 . S
H1170 C1178 0.950 . S
H1171 C1180 0.950 . S
H1172 C1182 0.950 . S
H1173 C1184 0.950 . S
H1174 C1186 0.950 . S
H1175 C1187 0.950 . S
C1176 H1168 0.950 . S
C1176 C1177 1.386 . S
C1176 C1178 1.391 . S
C1177 C1176 1.386 . S
C1177 C1181 1.393 . S
C1178 H1170 0.950 . S
C1178 C1176 1.391 . S
C1178 C1179 1.400 . S
C1179 C1178 1.400 . S
C1179 C1180 1.398 . S
C1179 C1185 1.491 1_556 S
C1180 H1171 0.950 . S
C1180 C1179 1.398 . S
C1180 C1181 1.391 . S
C1181 H1169 0.950 . S
C1181 C1177 1.393 . S
C1181 C1180 1.391 . S
C1182 H1172 0.950 . S
C1182 C1183 1.386 . S
C1182 C1184 1.391 . S
C1183 C1182 1.386 . S
C1183 C1187 1.393 . S
C1184 H1173 0.950 . S
C1184 C1182 1.391 . S
C1184 C1185 1.400 . S
C1185 C1179 1.491 1_554 S
C1185 C1184 1.400 . S
C1185 C1186 1.398 . S
C1186 H1174 0.950 . S
C1186 C1185 1.398 . S
C1186 C1187 1.391 . S
C1187 H1175 0.950 . S
C1187 C1183 1.393 . S
C1187 C1186 1.391 . S
H1188 C1196 0.950 . S
H1189 C1201 0.950 . S
H1190 C1198 0.950 . S
H1191 C1200 0.950 . S
H1192 C1202 0.950 . S
H1193 C1204 0.950 . S
H1194 C1206 0.950 . S
H1195 C1207 0.950 . S
C1196 H1188 0.950 . S
C1196 C1197 1.386 . S
C1196 C1198 1.391 . S
C1197 C1196 1.386 . S
C1197 C1201 1.393 . S
C1198 H1190 0.950 . S
C1198 C1196 1.391 . S
C1198 C1199 1.400 . S
C1199 C1198 1.400 . S
C1199 C1200 1.398 . S
C1199 C1205 1.491 . S
C1200 H1191 0.950 . S
C1200 C1199 1.398 . S
C1200 C1201 1.391 . S
C1201 H1189 0.950 . S
C1201 C1197 1.393 . S
C1201 C1200 1.391 . S
C1202 H1192 0.950 . S
C1202 C1203 1.386 . S
C1202 C1204 1.391 . S
C1203 C1202 1.386 . S
C1203 C1207 1.393 . S
C1204 H1193 0.950 . S
C1204 C1202 1.391 . S
C1204 C1205 1.400 . S
C1205 C1199 1.491 . S
C1205 C1204 1.400 . S
C1205 C1206 1.398 . S
C1206 H1194 0.950 . S
C1206 C1205 1.398 . S
C1206 C1207 1.391 . S
C1207 H1195 0.950 . S
C1207 C1203 1.393 . S
C1207 C1206 1.391 . S
H1208 C1216 0.950 . S
H1209 C1221 0.950 . S
H1210 C1218 0.950 . S
H1211 C1220 0.950 . S
H1212 C1222 0.950 . S
H1213 C1224 0.950 . S
H1214 C1226 0.950 . S
H1215 C1227 0.950 . S
C1216 H1208 0.950 . S
C1216 C1217 1.386 . S
C1216 C1218 1.391 . S
C1217 C1216 1.386 . S
C1217 C1221 1.393 . S
C1218 H1210 0.950 . S
C1218 C1216 1.391 . S
C1218 C1219 1.400 . S
C1219 C1218 1.400 . S
C1219 C1220 1.398 . S
C1219 C1225 1.491 1_554 S
C1220 H1211 0.950 . S
C1220 C1219 1.398 . S
C1220 C1221 1.391 . S
C1221 H1209 0.950 . S
C1221 C1217 1.393 . S
C1221 C1220 1.391 . S
C1222 H1212 0.950 . S
C1222 C1223 1.386 . S
C1222 C1224 1.391 . S
C1223 C1222 1.386 . S
C1223 C1227 1.393 . S
C1224 H1213 0.950 . S
C1224 C1222 1.391 . S
C1224 C1225 1.400 . S
C1225 C1219 1.491 1_556 S
C1225 C1224 1.400 . S
C1225 C1226 1.398 . S
C1226 H1214 0.950 . S
C1226 C1225 1.398 . S
C1226 C1227 1.391 . S
C1227 H1215 0.950 . S
C1227 C1223 1.393 . S
C1227 C1226 1.391 . S
H1228 C1236 0.950 1_655 S
H1229 C1241 0.950 . S
H1230 C1238 0.950 1_655 S
H1231 C1240 0.950 . S
H1232 C1242 0.950 . S
H1233 C1244 0.950 . S
H1234 C1246 0.950 1_655 S
H1235 C1247 0.950 1_655 S
C1236 H1228 0.950 1_455 S
C1236 C1237 1.386 . S
C1236 C1238 1.391 . S
C1237 C1236 1.386 . S
C1237 C1241 1.393 . S
C1238 H1230 0.950 1_455 S
C1238 C1236 1.391 . S
C1238 C1239 1.400 . S
C1239 C1238 1.400 . S
C1239 C1240 1.398 . S
C1239 C1245 1.491 . S
C1240 H1231 0.950 . S
C1240 C1239 1.398 . S
C1240 C1241 1.391 . S
C1241 H1229 0.950 . S
C1241 C1237 1.393 . S
C1241 C1240 1.391 . S
C1242 H1232 0.950 . S
C1242 C1243 1.386 . S
C1242 C1244 1.391 . S
C1243 C1242 1.386 . S
C1243 C1247 1.393 . S
C1244 H1233 0.950 . S
C1244 C1242 1.391 . S
C1244 C1245 1.400 . S
C1245 C1239 1.491 . S
C1245 C1244 1.400 . S
C1245 C1246 1.398 . S
C1246 H1234 0.950 1_455 S
C1246 C1245 1.398 . S
C1246 C1247 1.391 . S
C1247 H1235 0.950 1_455 S
C1247 C1243 1.393 . S
C1247 C1246 1.391 . S
H1248 C1256 0.950 . S
H1249 C1261 0.950 . S
H1250 C1258 0.950 . S
H1251 C1260 0.950 . S
H1252 C1262 0.950 . S
H1253 C1264 0.950 . S
H1254 C1266 0.950 . S
H1255 C1267 0.950 . S
C1256 H1248 0.950 . S
C1256 C1257 1.386 . S
C1256 C1258 1.391 . S
C1257 C1256 1.386 . S
C1257 C1261 1.393 . S
C1258 H1250 0.950 . S
C1258 C1256 1.391 . S
C1258 C1259 1.400 . S
C1259 C1258 1.400 . S
C1259 C1260 1.398 . S
C1259 C1265 1.491 1_554 S
C1260 H1251 0.950 . S
C1260 C1259 1.398 . S
C1260 C1261 1.391 . S
C1261 H1249 0.950 . S
C1261 C1257 1.393 . S
C1261 C1260 1.391 . S
C1262 H1252 0.950 . S
C1262 C1263 1.386 . S
C1262 C1264 1.391 . S
C1263 C1262 1.386 . S
C1263 C1267 1.393 . S
C1264 H1253 0.950 . S
C1264 C1262 1.391 . S
C1264 C1265 1.400 . S
C1265 C1259 1.491 1_556 S
C1265 C1264 1.400 . S
C1265 C1266 1.398 . S
C1266 H1254 0.950 . S
C1266 C1265 1.398 . S
C1266 C1267 1.391 . S
C1267 H1255 0.950 . S
C1267 C1263 1.393 . S
C1267 C1266 1.391 . S
H1268 C1276 0.950 . S
H1269 C1281 0.950 . S
H1270 C1278 0.950 . S
H1271 C1280 0.950 . S
H1272 C1282 0.950 . S
H1273 C1284 0.950 . S
H1274 C1286 0.950 . S
H1275 C1287 0.950 . S
C1276 H1268 0.950 . S
C1276 C1277 1.386 . S
C1276 C1278 1.391 . S
C1277 C1276 1.386 . S
C1277 C1281 1.393 . S
C1278 H1270 0.950 . S
C1278 C1276 1.391 . S
C1278 C1279 1.400 . S
C1279 C1278 1.400 . S
C1279 C1280 1.398 . S
C1279 C1285 1.491 . S
C1280 H1271 0.950 . S
C1280 C1279 1.398 . S
C1280 C1281 1.391 . S
C1281 H1269 0.950 . S
C1281 C1277 1.393 . S
C1281 C1280 1.391 . S
C1282 H1272 0.950 . S
C1282 C1283 1.386 . S
C1282 C1284 1.391 . S
C1283 C1282 1.386 . S
C1283 C1287 1.393 . S
C1284 H1273 0.950 . S
C1284 C1282 1.391 . S
C1284 C1285 1.400 . S
C1285 C1279 1.491 . S
C1285 C1284 1.400 . S
C1285 C1286 1.398 . S
C1286 H1274 0.950 . S
C1286 C1285 1.398 . S
C1286 C1287 1.391 . S
C1287 H1275 0.950 . S
C1287 C1283 1.393 . S
C1287 C1286 1.391 . S
H1288 C1296 0.950 . S
H1289 C1301 0.950 . S
H1290 C1298 0.950 . S
H1291 C1300 0.950 . S
H1292 C1302 0.950 . S
H1293 C1304 0.950 . S
H1294 C1306 0.950 . S
H1295 C1307 0.950 . S
C1296 H1288 0.950 . S
C1296 C1297 1.386 . S
C1296 C1298 1.391 . S
C1297 C1296 1.386 . S
C1297 C1301 1.393 . S
C1298 H1290 0.950 . S
C1298 C1296 1.391 . S
C1298 C1299 1.400 . S
C1299 C1298 1.400 . S
C1299 C1300 1.398 . S
C1299 C1305 1.491 1_554 S
C1300 H1291 0.950 . S
C1300 C1299 1.398 . S
C1300 C1301 1.391 . S
C1301 H1289 0.950 . S
C1301 C1297 1.393 . S
C1301 C1300 1.391 . S
C1302 H1292 0.950 . S
C1302 C1303 1.386 . S
C1302 C1304 1.391 . S
C1303 C1302 1.386 . S
C1303 C1307 1.393 . S
C1304 H1293 0.950 . S
C1304 C1302 1.391 . S
C1304 C1305 1.400 . S
C1305 C1299 1.491 1_556 S
C1305 C1304 1.400 . S
C1305 C1306 1.398 . S
C1306 H1294 0.950 . S
C1306 C1305 1.398 . S
C1306 C1307 1.391 . S
C1307 H1295 0.950 . S
C1307 C1303 1.393 . S
C1307 C1306 1.391 . S
H1308 C1316 0.950 . S
H1309 C1321 0.950 1_455 S
H1310 C1318 0.950 . S
H1311 C1320 0.950 1_455 S
H1312 C1322 0.950 1_455 S
H1313 C1324 0.950 1_455 S
H1314 C1326 0.950 . S
H1315 C1327 0.950 . S
C1316 H1308 0.950 . S
C1316 C1317 1.386 . S
C1316 C1318 1.391 . S
C1317 C1316 1.386 . S
C1317 C1321 1.393 . S
C1318 H1310 0.950 . S
C1318 C1316 1.391 . S
C1318 C1319 1.400 . S
C1319 C1318 1.400 . S
C1319 C1320 1.398 . S
C1319 C1325 1.491 . S
C1320 H1311 0.950 1_655 S
C1320 C1319 1.398 . S
C1320 C1321 1.391 . S
C1321 H1309 0.950 1_655 S
C1321 C1317 1.393 . S
C1321 C1320 1.391 . S
C1322 H1312 0.950 1_655 S
C1322 C1323 1.386 . S
C1322 C1324 1.391 . S
C1323 C1322 1.386 . S
C1323 C1327 1.393 . S
C1324 H1313 0.950 1_655 S
C1324 C1322 1.391 . S
C1324 C1325 1.400 . S
C1325 C1319 1.491 . S
C1325 C1324 1.400 . S
C1325 C1326 1.398 . S
C1326 H1314 0.950 . S
C1326 C1325 1.398 . S
C1326 C1327 1.391 . S
C1327 H1315 0.950 . S
C1327 C1323 1.393 . S
C1327 C1326 1.391 . S
C537 N2 2.013 . S
C543 N233 2.013 . S
C557 N134 2.006 . S
C563 N35 2.011 . S
C577 N167 2.009 . S
C583 N68 2.014 . S
C597 N101 2.007 . S
C603 N200 2.008 . S
C617 N266 2.007 . S
C623 N497 2.008 . S
C637 N299 2.006 . S
C643 N398 2.010 . S
C657 N431 2.007 . S
C663 N332 2.012 . S
C677 N365 2.013 . S
C683 N464 2.012 . S
C697 C7 0.827 . S
C703 C318 0.812 . S
C717 C351 0.779 . S
C723 C40 0.823 . S
C737 C384 0.803 . S
C743 C73 0.829 . S
C757 C285 0.782 . S
C763 C106 0.832 . S
C777 C516 0.825 . S
C783 C139 0.823 . S
C797 C417 0.766 . S
C803 C172 0.832 . S
C817 C450 0.795 . S
C823 C205 0.831 . S
C837 C483 0.835 . S
C843 C238 0.817 . S
C857 C54 0.827 . S
C863 C271 0.823 . S
C877 C87 0.835 . S
C883 C304 0.817 . S
C897 C120 0.812 . S
C903 C337 0.827 . S
C917 C370 0.829 . S
C923 C21 0.765 . S
C937 C252 0.834 . S
C943 C403 0.816 . S
C957 C153 0.767 . S
C963 C436 0.832 . S
C977 C186 0.798 . S
C983 C469 0.819 . S
C997 C219 0.788 . S
C1003 C502 0.832 . S
C1017 N79 0.919 . S
C1023 N13 0.969 . S
C1037 N46 0.924 . S
C1043 N112 0.971 . S
C1057 N211 0.970 . S
C1063 N145 0.934 . S
C1077 N244 0.943 . S
C1083 N178 0.967 . S
C1097 N343 0.962 . S
C1103 N277 0.910 . S
C1117 N376 0.971 . S
C1123 N310 0.927 . S
C1137 N409 0.968 . S
C1143 N475 0.941 . S
C1157 N508 0.912 . S
C1163 N442 0.937 . S
C1177 C216 1.256 . S
C1183 C18 1.266 . S
C1197 C249 1.268 . S
C1203 C51 1.274 . S
C1217 C84 1.260 . S
C1223 C150 1.274 . S
C1237 C183 1.266 . S
C1243 C117 1.274 . S
C1257 C480 1.263 . S
C1263 C282 1.275 . S
C1277 C513 1.256 . S
C1283 C315 1.269 . S
C1297 C414 1.258 . S
C1303 C348 1.261 . S
C1317 C381 1.268 . S
C1323 C447 1.273 . S
