# Generated by pormake.
# Topology vby, (6)-cn, num edge types: 1
# Building blocks:
#     Node 0, Type 0, BuildingBlock: FUNLAD_clean_sbu_0, # of connection points: 6
#     Node 1, Type 0, BuildingBlock: FUNLAD_clean_sbu_0, # of connection points: 6
#     Node 2, Type 0, BuildingBlock: FUNLAD_clean_sbu_0, # of connection points: 6
#     Node 3, Type 0, BuildingBlock: FUNLAD_clean_sbu_0, # of connection points: 6
#     Node 4, Type 0, BuildingBlock: FUNLAD_clean_sbu_0, # of connection points: 6
#     Node 5, Type 0, BuildingBlock: FUNLAD_clean_sbu_0, # of connection points: 6
#     Node 6, Type 0, BuildingBlock: FUNLAD_clean_sbu_0, # of connection points: 6
#     Node 7, Type 0, BuildingBlock: FUNLAD_clean_sbu_0, # of connection points: 6
#     Edge 8, Type (0, 0), BuildingBlock: AJUNOK_clean_linker_0, # of connection points: 2
#     Edge 9, Type (0, 0), BuildingBlock: AJUNOK_clean_linker_0, # of connection points: 2
#     Edge 10, Type (0, 0), BuildingBlock: AJUNOK_clean_linker_0, # of connection points: 2
#     Edge 11, Type (0, 0), BuildingBlock: AJUNOK_clean_linker_0, # of connection points: 2
#     Edge 12, Type (0, 0), BuildingBlock: AJUNOK_clean_linker_0, # of connection points: 2
#     Edge 13, Type (0, 0), BuildingBlock: AJUNOK_clean_linker_0, # of connection points: 2
#     Edge 14, Type (0, 0), BuildingBlock: AJUNOK_clean_linker_0, # of connection points: 2
#     Edge 15, Type (0, 0), BuildingBlock: AJUNOK_clean_linker_0, # of connection points: 2
#     Edge 16, Type (0, 0), BuildingBlock: AJUNOK_clean_linker_0, # of connection points: 2
#     Edge 17, Type (0, 0), BuildingBlock: AJUNOK_clean_linker_0, # of connection points: 2
#     Edge 18, Type (0, 0), BuildingBlock: AJUNOK_clean_linker_0, # of connection points: 2
#     Edge 19, Type (0, 0), BuildingBlock: AJUNOK_clean_linker_0, # of connection points: 2
#     Edge 20, Type (0, 0), BuildingBlock: AJUNOK_clean_linker_0, # of connection points: 2
#     Edge 21, Type (0, 0), BuildingBlock: AJUNOK_clean_linker_0, # of connection points: 2
#     Edge 22, Type (0, 0), BuildingBlock: AJUNOK_clean_linker_0, # of connection points: 2
#     Edge 23, Type (0, 0), BuildingBlock: AJUNOK_clean_linker_0, # of connection points: 2
#     Edge 24, Type (0, 0), BuildingBlock: AJUNOK_clean_linker_0, # of connection points: 2
#     Edge 25, Type (0, 0), BuildingBlock: AJUNOK_clean_linker_0, # of connection points: 2
#     Edge 26, Type (0, 0), BuildingBlock: AJUNOK_clean_linker_0, # of connection points: 2
#     Edge 27, Type (0, 0), BuildingBlock: AJUNOK_clean_linker_0, # of connection points: 2
#     Edge 28, Type (0, 0), BuildingBlock: AJUNOK_clean_linker_0, # of connection points: 2
#     Edge 29, Type (0, 0), BuildingBlock: AJUNOK_clean_linker_0, # of connection points: 2
#     Edge 30, Type (0, 0), BuildingBlock: AJUNOK_clean_linker_0, # of connection points: 2
#     Edge 31, Type (0, 0), BuildingBlock: AJUNOK_clean_linker_0, # of connection points: 2
# Relax obj value: 0.040
# Max RMSD: 0.109
# Mean RMSD: 0.104
data_MOF--net-vby--node1-FUNLAD_clean_sbu_0--edge1-AJUNOK_clean_linker_0
_symmetry_space_group_name_H-M    P1
_symmetry_Int_Tables_number       1
_symmetry_cell_setting            triclinic
loop_
_symmetry_equiv_pos_as_xyz
'x, y, z'
_cell_length_a     11.281541
_cell_length_b     43.413081
_cell_length_c     35.156025
_cell_angle_alpha  88.097857
_cell_angle_beta   90.057215
_cell_angle_gamma 89.964609
loop_
_atom_site_label
_atom_site_type_symbol
_atom_site_fract_x
_atom_site_fract_y
_atom_site_fract_z
_atom_type_partial_charge
C0 C 0.01951 0.42637 0.02925 0.0
N1 N 0.04461 0.36091 0.11999 0.0
C2 C 0.10851 0.3805 0.14143 0.0
C3 C 0.09441 0.38017 0.18104 0.0
C4 C 0.01288 0.35974 0.19863 0.0
C5 C 0.94821 0.33995 0.17562 0.0
C6 C 0.96698 0.34054 0.13646 0.0
Zn7 Zn 0.05041 0.36265 0.06161 0.0
C8 C 0.80663 0.35826 0.03017 0.0
N9 N 0.04338 0.3648 0.93998 0.0
C10 C 0.09849 0.3869 0.91806 0.0
C11 C -0.02638 0.34311 0.9241 0.0
C12 C 0.95402 0.34359 0.88497 0.0
C13 C 0.00649 0.36663 0.8618 0.0
C14 C 0.08164 0.38813 0.87854 0.0
Zn15 Zn 0.04931 0.36425 0.99825 0.0
O16 O 0.02705 0.41112 0.0607 0.0
C17 C 0.2924 0.36901 0.03025 0.0
O18 O 0.02749 0.41226 0.99827 0.0
H19 H 0.9305 0.32573 0.94193 0.0
H20 H 0.16915 0.39667 0.12777 0.0
H21 H 0.15319 0.40399 0.93128 0.0
O22 O 0.23461 0.36771 0.06129 0.0
O23 O 0.23653 0.36896 0.99873 0.0
H24 H 0.91689 0.32512 0.11906 0.0
O25 O 0.07517 0.31635 0.9992 0.0
O26 O 0.0782 0.31422 0.06149 0.0
O27 O 0.86188 0.3597 0.99876 0.0
O28 O 0.86547 0.3579 0.06085 0.0
C29 C 0.0908 0.30091 0.03007 0.0
H30 H 0.14627 0.39582 0.19769 0.0
H31 H 0.88144 0.32457 0.18753 0.0
H32 H 0.8975 0.32624 0.87296 0.0
H33 H 0.12401 0.40616 0.86141 0.0
C34 C 0.92616 0.55826 0.03105 0.0
N35 N 0.89785 0.61862 0.12156 0.0
C36 C 0.83981 0.59679 0.14308 0.0
C37 C 0.85274 0.59569 0.18274 0.0
C38 C 0.92639 0.61718 0.2002 0.0
C39 C -0.01632 0.63963 0.17732 0.0
C40 C -0.03217 0.64001 0.13798 0.0
Zn41 Zn 0.89243 0.61939 0.0632 0.0
C42 C 0.13587 0.62708 0.03116 0.0
N43 N 0.8973 0.62382 0.94138 0.0
C44 C 0.83861 0.60204 0.92173 0.0
C45 C -0.03164 0.6449 0.92315 0.0
C46 C -0.01498 0.64409 0.88384 0.0
C47 C 0.92717 0.62158 0.86295 0.0
C48 C 0.85223 0.60052 0.88229 0.0
Zn49 Zn 0.8931 0.62271 0.99981 0.0
O50 O 0.91586 0.57113 0.06284 0.0
C51 C 0.65009 0.61531 0.03108 0.0
O52 O 0.91912 0.57463 1.00051 0.0
H53 H 0.01468 0.66195 0.93927 0.0
H54 H 0.78525 0.5799 0.12944 0.0
H55 H 0.78365 0.58527 0.93679 0.0
O56 O 0.70525 0.61449 0.06274 0.0
O57 O 0.70872 0.61712 1.00023 0.0
H58 H 0.01332 0.65716 0.12044 0.0
O59 O 0.86301 0.67073 1.0002 0.0
O60 O 0.86472 0.6675 0.06254 0.0
O61 O 0.07776 0.62832 1.00028 0.0
O62 O 0.07995 0.62428 0.0624 0.0
C63 C 0.84866 0.68339 0.03197 0.0
H64 H 0.80808 0.57781 0.19946 0.0
H65 H 0.04049 0.65671 0.18976 0.0
H66 H 0.04307 0.66082 0.8699 0.0
H67 H 0.80735 0.58254 0.86725 0.0
C68 C 0.0246 0.55699 0.53257 0.0
N69 N 0.05277 0.62141 0.44129 0.0
C70 C 0.10911 0.59947 0.42122 0.0
C71 C 0.09222 0.59804 0.38186 0.0
C72 C 0.01568 0.61916 0.36324 0.0
C73 C 0.96222 0.64217 0.38444 0.0
C74 C -0.01787 0.64289 0.42357 0.0
Zn75 Zn 0.05793 0.62062 0.49962 0.0
C76 C 0.81457 0.62559 0.53065 0.0
N77 N 0.05114 0.61916 0.62149 0.0
C78 C 0.10642 0.59736 0.64391 0.0
C79 C -0.01834 0.64113 0.63695 0.0
C80 C 0.96278 0.6413 0.67611 0.0
C81 C 0.01557 0.61861 0.69983 0.0
C82 C 0.09024 0.59677 0.68347 0.0
Zn83 Zn 0.05751 0.6191 0.56304 0.0
O84 O 0.03161 0.57228 0.50118 0.0
C85 C 0.30037 0.61389 0.53121 0.0
O86 O 0.03495 0.57099 0.56358 0.0
H87 H 0.93839 0.65829 0.61877 0.0
H88 H 0.16446 0.58253 0.43588 0.0
H89 H 0.16094 0.58004 0.63106 0.0
O90 O 0.24206 0.61488 0.50022 0.0
O91 O 0.24494 0.61428 0.56277 0.0
H92 H 0.93829 0.66017 0.43998 0.0
O93 O 0.08367 0.66706 0.56144 0.0
O94 O 0.08827 0.6689 0.49911 0.0
O95 O 0.87011 0.62377 0.56205 0.0
O96 O 0.87313 0.62621 0.49991 0.0
C97 C 0.10016 0.68233 0.53048 0.0
H98 H 0.13542 0.58005 0.36635 0.0
H99 H 0.90465 0.65927 0.37095 0.0
H100 H 0.9066 0.65891 0.68773 0.0
H101 H 0.13282 0.57897 0.70096 0.0
C102 C 0.83885 0.30054 0.53225 0.0
N103 N 0.89288 0.36333 0.44088 0.0
C104 C -0.03077 0.34253 0.42626 0.0
C105 C -0.01216 0.34158 0.3872 0.0
C106 C 0.92415 0.36143 0.36237 0.0
C107 C 0.84455 0.3825 0.37808 0.0
C108 C 0.83057 0.38317 0.41768 0.0
Zn109 Zn 0.88447 0.3639 0.4992 0.0
C110 C 0.6421 0.36881 0.52955 0.0
N111 N 0.88704 0.36147 0.62074 0.0
C112 C 0.95621 0.34017 0.6394 0.0
C113 C 0.82941 0.38373 0.63991 0.0
C114 C 0.84263 0.38555 0.67932 0.0
C115 C 0.91597 0.3643 0.69905 0.0
C116 C -0.02775 0.34123 0.67868 0.0
Zn117 Zn 0.88516 0.36182 0.56253 0.0
O118 O 0.85411 0.31552 0.50094 0.0
C119 C 0.12812 0.35667 0.5317 0.0
O120 O 0.85602 0.31403 0.56328 0.0
H121 H 0.77581 0.40061 0.62447 0.0
H122 H 0.01774 0.32682 0.445 0.0
H123 H 0.00166 0.32276 0.62363 0.0
O124 O 0.06952 0.35856 0.50098 0.0
O125 O 0.07265 0.35643 0.56309 0.0
H126 H 0.77065 0.39961 0.42986 0.0
O127 O 0.91035 0.40963 0.56091 0.0
O128 O 0.91031 0.41246 0.49853 0.0
O129 O 0.69807 0.36725 0.56105 0.0
O130 O 0.69994 0.36934 0.4985 0.0
C131 C 0.91956 0.42565 0.53021 0.0
H132 H 0.05325 0.32572 0.3767 0.0
H133 H 0.79362 0.39825 0.35997 0.0
H134 H 0.79889 0.4039 0.69403 0.0
H135 H 0.02888 0.32433 0.69299 0.0
C136 C 0.51569 0.92565 0.03041 0.0
N137 N 0.54657 0.86224 0.12254 0.0
C138 C 0.60195 0.88432 0.14266 0.0
C139 C 0.58513 0.88566 0.18204 0.0
C140 C 0.50968 0.8643 0.20062 0.0
C141 C 0.4572 0.84118 0.17937 0.0
C142 C 0.47692 0.84056 0.14024 0.0
Zn143 Zn 0.55172 0.86283 0.06419 0.0
C144 C 0.30804 0.85655 0.03246 0.0
N145 N 0.5455 0.86292 0.94245 0.0
C146 C 0.60331 0.88473 0.92083 0.0
C147 C 0.47578 0.84143 0.92613 0.0
C148 C 0.4599 0.84171 0.88677 0.0
C149 C 0.51714 0.86411 0.8638 0.0
C150 C 0.59052 0.8857 0.88118 0.0
Zn151 Zn 0.55065 0.86291 1.00081 0.0
O152 O 0.52598 0.91104 0.06217 0.0
C153 C 0.79387 0.86895 0.03181 0.0
O154 O 0.52406 0.91102 0.99982 0.0
H155 H 0.43042 0.8243 0.94375 0.0
H156 H 0.65653 0.9014 0.12803 0.0
H157 H 0.65751 0.90175 0.93438 0.0
O158 O 0.73877 0.86826 0.06345 0.0
O159 O 0.73515 0.86857 1.00093 0.0
H160 H 0.43375 0.82319 0.12379 0.0
O161 O 0.58119 0.81496 1.00278 0.0
O162 O 0.58173 0.81472 0.06511 0.0
O163 O 0.36599 0.85726 1.00159 0.0
O164 O 0.36417 0.85746 0.06372 0.0
C165 C 0.5975 0.80059 0.03443 0.0
H166 H 0.62754 0.90375 0.19759 0.0
H167 H 0.4005 0.8239 0.19284 0.0
H168 H 0.40315 0.82458 0.87438 0.0
H169 H 0.63503 0.90358 0.8644 0.0
C170 C 0.40879 0.05694 0.03001 0.0
N171 N 0.38218 0.11872 0.1198 0.0
C172 C 0.32814 0.09659 0.14198 0.0
C173 C 0.34554 0.09558 0.18149 0.0
C174 C 0.42025 0.11732 0.19802 0.0
C175 C 0.47161 0.14037 0.17457 0.0
C176 C 0.45136 0.14065 0.13546 0.0
Zn177 Zn 0.37539 0.11897 0.06144 0.0
C178 C 0.61849 0.12547 0.02917 0.0
N179 N 0.37984 0.1216 0.93969 0.0
C180 C 0.31653 0.10122 0.91922 0.0
C181 C 0.45609 0.14182 0.92227 0.0
C182 C 0.47508 0.14117 0.88314 0.0
C183 C 0.41361 0.11988 0.86129 0.0
C184 C 0.33118 0.1002 0.87974 0.0
Zn185 Zn 0.3752 0.12053 0.99805 0.0
O186 O 0.40095 0.07045 0.0615 0.0
C187 C 0.13271 0.11376 0.02965 0.0
O188 O 0.39907 0.07269 0.9991 0.0
H189 H 0.50517 0.15798 0.93892 0.0
H190 H 0.27385 0.07932 0.12896 0.0
H191 H 0.25623 0.08537 0.9336 0.0
O192 O 0.18835 0.11354 0.06123 0.0
O193 O 0.19079 0.11537 0.99868 0.0
H194 H 0.49352 0.15807 0.11743 0.0
O195 O 0.34749 0.16834 0.99761 0.0
O196 O 0.34543 0.16734 0.05994 0.0
O197 O 0.55994 0.12546 0.99843 0.0
O198 O 0.56291 0.12427 0.06054 0.0
C199 C 0.33094 0.18213 0.02845 0.0
H200 H 0.30398 0.07754 0.19879 0.0
H201 H 0.52775 0.15791 0.18637 0.0
H202 H 0.53962 0.15675 0.87028 0.0
H203 H 0.27883 0.08409 0.86396 0.0
C204 C 0.51631 0.05763 0.53118 0.0
N205 N 0.54431 0.12163 0.4392 0.0
C206 C 0.60238 0.09968 0.41964 0.0
C207 C 0.58837 0.09812 0.38019 0.0
C208 C 0.5135 0.11924 0.36085 0.0
C209 C 0.45652 0.14193 0.38165 0.0
C210 C 0.47368 0.14282 0.42091 0.0
Zn211 Zn 0.54831 0.12115 0.49756 0.0
C212 C 0.30493 0.12604 0.52826 0.0
N213 N 0.54141 0.11996 0.61922 0.0
C214 C 0.60474 0.09965 0.64146 0.0
C215 C 0.46476 0.14017 0.63485 0.0
C216 C 0.44611 0.13978 0.67403 0.0
C217 C 0.50815 0.11872 0.69779 0.0
C218 C 0.59025 0.09884 0.68106 0.0
Zn219 Zn 0.54797 0.11991 0.56091 0.0
O220 O 0.52178 0.07265 0.49953 0.0
C221 C 0.79077 0.11474 0.52928 0.0
O222 O 0.52744 0.07195 0.56189 0.0
H223 H 0.41567 0.15629 0.6168 0.0
H224 H 0.65716 0.08288 0.43476 0.0
H225 H 0.66543 0.08383 0.62847 0.0
O226 O 0.73233 0.11532 0.49833 0.0
O227 O 0.73548 0.11552 0.56082 0.0
H228 H 0.42805 0.16002 0.43696 0.0
O229 O 0.57226 0.16779 0.55929 0.0
O230 O 0.57934 0.16958 0.49698 0.0
O231 O 0.36049 0.12409 0.55963 0.0
O232 O 0.36347 0.12685 0.49751 0.0
C233 C 0.59036 0.18303 0.52841 0.0
H234 H 0.63279 0.08005 0.36517 0.0
H235 H 0.39869 0.15873 0.36767 0.0
H236 H 0.38169 0.15548 0.6855 0.0
H237 H 0.64287 0.08286 0.69829 0.0
C238 C 0.3421 0.80065 0.53338 0.0
N239 N 0.39089 0.86431 0.44225 0.0
C240 C 0.46109 0.84296 0.42589 0.0
C241 C 0.47729 0.84341 0.38656 0.0
C242 C 0.41998 0.86588 0.36364 0.0
C243 C 0.34597 0.88731 0.38105 0.0
C244 C 0.33283 0.88616 0.42069 0.0
Zn245 Zn 0.3863 0.86383 0.50062 0.0
C246 C 0.14416 0.86863 0.5329 0.0
N247 N 0.39336 0.86099 0.62241 0.0
C248 C 0.46371 0.83935 0.63997 0.0
C249 C 0.33719 0.88284 0.64268 0.0
C250 C 0.35381 0.88398 0.68208 0.0
C251 C 0.42981 0.86266 0.70056 0.0
C252 C 0.48327 0.83978 0.67914 0.0
Zn253 Zn 0.38754 0.86207 0.56404 0.0
O254 O 0.3575 0.81544 0.50194 0.0
C255 C 0.63013 0.85681 0.53255 0.0
O256 O 0.35841 0.81434 0.56431 0.0
H257 H 0.28206 0.8999 0.62816 0.0
H258 H 0.50666 0.8258 0.44346 0.0
H259 H 0.50746 0.82215 0.62341 0.0
O260 O 0.57389 0.85873 0.50127 0.0
O261 O 0.57239 0.85659 0.56345 0.0
H262 H 0.27821 0.90306 0.4343 0.0
O263 O 0.41257 0.90997 0.56286 0.0
O264 O 0.41053 0.91232 0.50048 0.0
O265 O 0.2029 0.86747 0.56381 0.0
O266 O 0.19917 0.86895 0.50125 0.0
C267 C 0.4201 0.92579 0.53193 0.0
H268 H 0.53439 0.82637 0.37415 0.0
H269 H 0.30128 0.90521 0.36431 0.0
H270 H 0.31072 0.9019 0.69774 0.0
H271 H 0.54051 0.82254 0.69251 0.0
C272 C 0.48709 0.36445 0.99681 0.0
C273 C 0.42367 0.36758 0.03094 0.0
C274 C 0.61046 0.36078 0.99689 0.0
C275 C 0.67547 0.36001 0.03109 0.0
H276 H 0.44119 0.36453 0.96973 0.0
H277 H 0.65508 0.35864 0.96983 0.0
S278 S 0.55215 0.36775 0.12835 0.0
N279 N 0.4358 0.37011 0.09996 0.0
N280 N 0.66696 0.36304 0.10013 0.0
C281 C 0.61321 0.36317 0.06547 0.0
C282 C 0.48767 0.36705 0.06538 0.0
C283 C 0.33037 0.61905 0.06439 0.0
C284 C 0.26719 0.62563 0.03053 0.0
C285 C 0.45364 0.61507 0.0642 0.0
C286 C 0.51886 0.61743 0.03013 0.0
H287 H 0.2843 0.61658 0.09134 0.0
H288 H 0.49799 0.61018 0.09107 0.0
S289 S 0.39625 0.63531 0.93364 0.0
N290 N 0.2798 0.63506 0.96198 0.0
N291 N 0.51076 0.62747 0.96153 0.0
C292 C 0.45684 0.6242 0.99602 0.0
C293 C 0.3314 0.62838 0.99625 0.0
C294 C 0.61898 0.62257 0.56414 0.0
C295 C 0.68334 0.62375 0.52984 0.0
C296 C 0.49574 0.61859 0.56438 0.0
C297 C 0.4317 0.61553 0.53032 0.0
H298 H 0.66404 0.6246 0.59117 0.0
H299 H 0.45042 0.61821 0.59154 0.0
S300 S 0.55832 0.61649 0.43266 0.0
N301 N 0.67352 0.62125 0.46077 0.0
N302 N 0.44264 0.6136 0.46121 0.0
C303 C 0.49505 0.6165 0.49576 0.0
C304 C 0.62047 0.6207 0.49552 0.0
C305 C 0.44691 0.36728 0.56346 0.0
C306 C 0.51087 0.36664 0.52912 0.0
C307 C 0.32371 0.36314 0.56422 0.0
C308 C 0.25941 0.35812 0.53066 0.0
H309 H 0.49222 0.37097 0.59011 0.0
H310 H 0.27853 0.36434 0.5913 0.0
S311 S 0.38504 0.35292 0.43338 0.0
N312 N 0.50044 0.35968 0.46071 0.0
N313 N 0.26968 0.35177 0.46217 0.0
C314 C 0.3224 0.35703 0.49615 0.0
C315 C 0.44773 0.36137 0.49536 0.0
C316 C -0.00968 0.86737 0.06512 0.0
C317 C 0.92514 0.86676 0.03099 0.0
C318 C 0.11352 0.86316 0.06549 0.0
C319 C 0.17669 0.8581 0.03174 0.0
H320 H 0.94599 0.87103 0.09192 0.0
H321 H 0.15958 0.86429 0.09246 0.0
S322 S 0.04772 0.85327 0.93479 0.0
N323 N 0.9333 0.85999 0.96249 0.0
N324 N 0.16406 0.85196 0.96325 0.0
C325 C 0.1125 0.8571 0.99742 0.0
C326 C -0.01285 0.86152 0.99701 0.0
C327 C 0.93758 0.11837 0.0629 0.0
C328 C 0.00139 0.11539 0.02883 0.0
C329 C 0.81431 0.12237 0.06269 0.0
C330 C 0.74973 0.12361 0.0284 0.0
H331 H -0.01688 0.11794 0.09006 0.0
H332 H 0.76941 0.12434 0.08973 0.0
S333 S 0.87421 0.11656 0.93118 0.0
N334 N -0.00994 0.11359 0.95972 0.0
N335 N 0.75918 0.12128 0.95931 0.0
C336 C 0.81241 0.12063 0.99406 0.0
C337 C 0.93783 0.11642 0.99428 0.0
C338 C 0.10955 0.12358 0.56186 0.0
C339 C 0.17374 0.12424 0.52753 0.0
C340 C -0.01372 0.11974 0.56224 0.0
C341 C 0.92206 0.1163 0.5283 0.0
H342 H 0.15477 0.12594 0.58881 0.0
H343 H 0.94108 0.11976 0.58941 0.0
S344 S 0.04819 0.11578 0.43063 0.0
N345 N 0.16362 0.1208 0.45857 0.0
N346 N 0.93259 0.11342 0.45927 0.0
C347 C -0.01477 0.11673 0.49371 0.0
C348 C 0.1107 0.1208 0.49332 0.0
C349 C 0.82412 0.86584 0.49955 0.0
C350 C 0.76143 0.85813 0.53313 0.0
C351 C 0.94737 0.86984 0.49987 0.0
C352 C 0.01301 0.86634 0.53381 0.0
H353 H 0.77761 0.8693 0.47277 0.0
H354 H -0.00863 0.87571 0.47324 0.0
S355 S 0.89195 0.84463 0.62934 0.0
N356 N 0.77501 0.84605 0.60113 0.0
N357 N 0.00604 0.85358 0.60182 0.0
C358 C 0.95154 0.85828 0.56759 0.0
C359 C 0.8261 0.85412 0.56722 0.0
C360 C 0.95673 0.50674 0.0636 0.0
C361 C 0.94933 0.5247 0.02961 0.0
C362 C -0.01951 0.47509 0.06318 0.0
C363 C -0.00217 0.46007 0.02876 0.0
H364 H 0.94411 0.51714 0.09089 0.0
H365 H -0.01535 0.46234 0.09016 0.0
S366 S -0.01068 0.49665 0.93168 0.0
N367 N 0.96237 0.52509 0.96042 0.0
N368 N 0.00703 0.46572 0.95965 0.0
C369 C -0.00885 0.47776 0.9945 0.0
C370 C 0.96687 0.51001 0.99492 0.0
C371 C 0.95548 0.47704 0.49772 0.0
C372 C 0.94516 0.45912 0.53163 0.0
C373 C -0.01769 0.50853 0.49832 0.0
C374 C 5e-05 0.52342 0.53287 0.0
H375 H 0.94287 0.46672 0.47037 0.0
H376 H -0.01136 0.52128 0.47139 0.0
S377 S -0.01551 0.48687 0.62983 0.0
N378 N 0.95578 0.45866 0.60092 0.0
N379 N 0.00624 0.51767 0.60198 0.0
C380 C -0.00955 0.50576 0.56704 0.0
C381 C 0.96295 0.4737 0.56644 0.0
C382 C 0.47851 0.97487 0.06349 0.0
C383 C 0.48979 0.95916 0.02927 0.0
C384 C 0.45109 0.00634 0.06345 0.0
C385 C 0.43378 0.02343 0.0292 0.0
H386 H 0.49072 0.96281 0.09068 0.0
H387 H 0.444 0.01731 0.09058 0.0
S388 S 0.45243 -0.00677 0.93161 0.0
N389 N 0.48095 0.96315 0.96006 0.0
N390 N 0.42937 0.02217 0.95994 0.0
C391 C 0.44448 0.008 0.99469 0.0
C392 C 0.47255 0.97594 0.99474 0.0
C393 C 0.4798 0.00833 0.49811 0.0
C394 C 0.49338 0.02398 0.53227 0.0
C395 C 0.45533 0.97669 0.49828 0.0
C396 C 0.44334 0.95939 0.53262 0.0
H397 H 0.48785 0.02057 0.47087 0.0
H398 H 0.44604 0.96576 0.47118 0.0
S399 S 0.47037 0.98934 0.63012 0.0
N400 N 0.49282 0.01967 0.60155 0.0
N401 N 0.44681 0.96037 0.60188 0.0
C402 C 0.45662 0.97474 0.56706 0.0
C403 C 0.48168 0.00696 0.56688 0.0
C404 C 0.18916 0.25557 0.06281 0.0
C405 C 0.14368 0.26961 0.02918 0.0
C406 C 0.25348 0.22795 0.06212 0.0
C407 C 0.27544 0.21319 0.02776 0.0
H408 H 0.17701 0.26625 0.08995 0.0
H409 H 0.28547 0.21801 0.08888 0.0
S410 S 0.1724 0.23985 0.93169 0.0
N411 N 0.1227 0.26613 0.96051 0.0
N412 N 0.24398 0.21451 0.95914 0.0
C413 C 0.22992 0.22689 0.99388 0.0
C414 C 0.16374 0.25492 0.99463 0.0
C415 C 0.68068 0.75562 1.00063 0.0
C416 C 0.65493 0.76976 0.03514 0.0
C417 C 0.74795 0.72852 0.99978 0.0
C418 C 0.79253 0.71429 0.03341 0.0
H419 H 0.64979 0.7657 0.97382 0.0
H420 H 0.76318 0.7184 0.97246 0.0
S421 S 0.75255 0.74219 0.1314 0.0
N422 N 0.68083 0.76754 0.10398 0.0
N423 N 0.8073 0.71671 0.10236 0.0
C424 C 0.76811 0.72825 0.06818 0.0
C425 C 0.69909 0.75583 0.06906 0.0
C426 C 0.2072 0.72655 0.4985 0.0
C427 C 0.15307 0.71359 0.53137 0.0
C428 C 0.27183 0.75408 0.4997 0.0
C429 C 0.28546 0.76977 0.53383 0.0
H430 H 0.20189 0.71505 0.47168 0.0
H431 H 0.31097 0.76318 0.47354 0.0
S432 S 0.15562 0.74644 0.62762 0.0
N433 N 0.11358 0.71926 0.59883 0.0
N434 N 0.23518 0.77076 0.60119 0.0
C435 C 0.2307 0.75722 0.56688 0.0
C436 C 0.1643 0.72929 0.5656 0.0
C437 C 0.76202 0.25495 0.49789 0.0
C438 C 0.78101 0.26978 0.5324 0.0
C439 C 0.69563 0.22769 0.49654 0.0
C440 C 0.64486 0.21414 0.52963 0.0
H441 H 0.79815 0.26454 0.47153 0.0
H442 H 0.68615 0.21687 0.46937 0.0
S443 S 0.66315 0.24448 0.62711 0.0
N444 N 0.74041 0.26916 0.60047 0.0
N445 N 0.61515 0.21829 0.59787 0.0
C446 C 0.66163 0.22898 0.56428 0.0
C447 C 0.73002 0.25659 0.56571 0.0
C448 C -0.01899 0.38756 0.25942 0.0
C449 C -0.00765 0.3596 0.24053 0.0
C450 C 0.95719 0.38798 0.29859 0.0
C451 C 0.94341 0.36047 0.32047 0.0
H452 H -0.01079 0.40935 0.24374 0.0
H453 H 0.9512 0.41007 0.31192 0.0
S454 S 0.96375 0.28105 0.28476 0.0
N455 N -0.00909 0.30362 0.24709 0.0
N456 N 0.93895 0.30443 0.31994 0.0
C457 C 0.9533 0.33235 0.30185 0.0
C458 C -0.0206 0.33191 0.26215 0.0
C459 C 0.06286 0.61623 0.25645 0.0
C460 C 0.9464 0.61611 0.24198 0.0
C461 C 0.08464 0.61654 0.29573 0.0
C462 C -0.00927 0.61719 0.32193 0.0
H463 H 0.13781 0.61614 0.23721 0.0
H464 H 0.17559 0.61698 0.30561 0.0
S465 S 0.66977 0.61631 0.29883 0.0
N466 N 0.73621 0.61608 0.25699 0.0
N467 N 0.77701 0.61662 0.33083 0.0
C468 C 0.87391 0.61664 0.30789 0.0
C469 C 0.85178 0.61605 0.26793 0.0
C470 C 0.06387 0.61918 0.80689 0.0
C471 C 0.94748 0.61977 0.82132 0.0
C472 C 0.08541 0.61799 0.76762 0.0
C473 C -0.00868 0.61781 0.74137 0.0
H474 H 0.1389 0.61956 0.82612 0.0
H475 H 0.17628 0.61792 0.75768 0.0
S476 S 0.6705 0.61852 0.76451 0.0
N477 N 0.73723 0.61969 0.80627 0.0
N478 N 0.77755 0.61741 0.73258 0.0
C479 C 0.87463 0.61806 0.75546 0.0
C480 C 0.85275 0.619 0.7954 0.0
C481 C 0.05332 0.36669 0.75488 0.0
C482 C 0.9367 0.36643 0.74055 0.0
C483 C 0.07545 0.3677 0.79409 0.0
C484 C -0.01832 0.36804 0.82036 0.0
H485 H 0.12805 0.36605 0.73558 0.0
H486 H 0.16644 0.36739 0.80399 0.0
S487 S 0.66055 0.36851 0.79749 0.0
N488 N 0.72664 0.36726 0.75567 0.0
N489 N 0.7681 0.36918 0.82936 0.0
C490 C 0.86478 0.3683 0.80639 0.0
C491 C 0.8423 0.36753 0.76649 0.0
C492 C 0.57851 0.86691 0.26822 0.0
C493 C 0.48467 0.86617 0.24194 0.0
C494 C 0.55665 0.8671 0.3075 0.0
C495 C 0.44017 0.86702 0.32188 0.0
H496 H 0.66948 0.86664 0.2584 0.0
H497 H 0.63155 0.86726 0.32681 0.0
S498 S 0.16366 0.86648 0.26484 0.0
N499 N 0.27094 0.8664 0.2329 0.0
N500 N 0.23004 0.86675 0.30672 0.0
C501 C 0.34561 0.86698 0.29586 0.0
C502 C 0.36783 0.86649 0.25591 0.0
C503 C 0.35256 0.11595 0.26594 0.0
C504 C 0.44586 0.11606 0.23946 0.0
C505 C 0.37529 0.11683 0.30516 0.0
C506 C 0.49212 0.11738 0.3193 0.0
H507 H 0.26139 0.11595 0.25623 0.0
H508 H 0.30085 0.11709 0.3246 0.0
S509 S 0.76737 0.11665 0.2618 0.0
N510 N 0.65935 0.11578 0.2301 0.0
N511 N 0.70191 0.11744 0.30376 0.0
C512 C 0.58609 0.11681 0.29315 0.0
C513 C 0.56299 0.11619 0.25325 0.0
C514 C 0.44913 0.14613 0.7977 0.0
C515 C 0.43647 0.11858 0.81959 0.0
C516 C 0.47404 0.14584 0.75871 0.0
C517 C 0.48635 0.118 0.73966 0.0
H518 H 0.43901 0.16823 0.81075 0.0
H519 H 0.48417 0.16774 0.7434 0.0
S520 S 0.46159 0.03932 0.78372 0.0
N521 N 0.44143 0.06254 0.8194 0.0
N522 N 0.48168 0.06201 0.74565 0.0
C523 C 0.47346 0.09021 0.7611 0.0
C524 C 0.44958 0.0905 0.80105 0.0
C525 C 0.35999 0.86486 0.76805 0.0
C526 C 0.45423 0.8643 0.74195 0.0
C527 C 0.38127 0.86502 0.80737 0.0
C528 C 0.49753 0.86508 0.82199 0.0
H529 H 0.26917 0.86452 0.75803 0.0
H530 H 0.30609 0.86509 0.82652 0.0
S531 S 0.7749 0.86492 0.7655 0.0
N532 N 0.66807 0.86477 0.73335 0.0
N533 N 0.70791 0.86505 0.80725 0.0
C534 C 0.59248 0.86516 0.79616 0.0
C535 C 0.57086 0.86471 0.75616 0.0
loop_
_geom_bond_atom_site_label_1
_geom_bond_atom_site_label_2
_geom_bond_distance
_geom_bond_site_symmetry_2
_ccdc_geom_bond_type
C0 O16 1.251 . S
C0 O18 1.254 1_554 S
N1 C2 1.333 . S
N1 C6 1.307 . S
N1 Zn7 2.020 . S
C2 N1 1.333 . S
C2 C3 1.379 . S
C2 H20 0.952 . S
C3 C2 1.379 . S
C3 C4 1.390 . S
C3 H30 0.949 . S
C4 C3 1.390 . S
C4 C5 1.357 . S
C5 C4 1.357 . S
C5 C6 1.370 . S
C5 H31 0.950 1_455 S
C6 N1 1.307 . S
C6 C5 1.370 . S
C6 H24 0.948 1_455 S
Zn7 N1 2.020 . S
Zn7 O16 2.039 . S
Zn7 O22 2.034 . S
Zn7 O26 2.025 . S
Zn7 O28 2.024 1_455 S
C8 O27 1.246 1_554 S
C8 O28 1.249 . S
N9 C10 1.307 . S
N9 C11 1.333 . S
N9 Zn15 2.020 . S
C10 N9 1.307 . S
C10 C14 1.370 . S
C10 H21 0.948 . S
C11 N9 1.333 . S
C11 C12 1.379 . S
C11 H19 0.952 . S
C12 C11 1.379 . S
C12 C13 1.390 . S
C12 H32 0.949 1_455 S
C13 C12 1.390 . S
C13 C14 1.357 . S
C14 C10 1.370 . S
C14 C13 1.357 . S
C14 H33 0.950 . S
Zn15 N9 2.020 . S
Zn15 O18 2.025 . S
Zn15 O23 2.024 . S
Zn15 O25 2.039 . S
Zn15 O27 2.034 1_455 S
O16 C0 1.251 . S
O16 Zn7 2.039 . S
C17 O22 1.246 . S
C17 O23 1.249 1_554 S
O18 C0 1.254 1_556 S
O18 Zn15 2.025 . S
H19 C11 0.952 . S
H20 C2 0.952 . S
H21 C10 0.948 . S
O22 Zn7 2.034 . S
O22 C17 1.246 . S
O23 Zn15 2.024 . S
O23 C17 1.249 1_556 S
H24 C6 0.948 1_655 S
O25 Zn15 2.039 . S
O25 C29 1.251 1_556 S
O26 Zn7 2.025 . S
O26 C29 1.254 . S
O27 C8 1.246 1_556 S
O27 Zn15 2.034 1_655 S
O28 Zn7 2.024 1_655 S
O28 C8 1.249 . S
C29 O25 1.251 1_554 S
C29 O26 1.254 . S
H30 C3 0.949 . S
H31 C5 0.950 1_655 S
H32 C12 0.949 1_655 S
H33 C14 0.950 . S
C34 O50 1.251 . S
C34 O52 1.254 1_554 S
N35 C36 1.333 . S
N35 C40 1.307 . S
N35 Zn41 2.020 . S
C36 N35 1.333 . S
C36 C37 1.379 . S
C36 H54 0.952 . S
C37 C36 1.379 . S
C37 C38 1.390 . S
C37 H64 0.949 . S
C38 C37 1.390 . S
C38 C39 1.357 . S
C39 C38 1.357 . S
C39 C40 1.370 . S
C39 H65 0.950 1_655 S
C40 N35 1.307 . S
C40 C39 1.370 . S
C40 H58 0.948 1_655 S
Zn41 N35 2.020 . S
Zn41 O50 2.039 . S
Zn41 O56 2.034 . S
Zn41 O60 2.025 . S
Zn41 O62 2.024 1_655 S
C42 O61 1.246 1_554 S
C42 O62 1.249 . S
N43 C44 1.307 . S
N43 C45 1.333 . S
N43 Zn49 2.020 . S
C44 N43 1.307 . S
C44 C48 1.370 . S
C44 H55 0.948 . S
C45 N43 1.333 . S
C45 C46 1.379 . S
C45 H53 0.952 . S
C46 C45 1.379 . S
C46 C47 1.390 . S
C46 H66 0.950 . S
C47 C46 1.390 . S
C47 C48 1.357 . S
C48 C44 1.370 . S
C48 C47 1.357 . S
C48 H67 0.950 . S
Zn49 N43 2.020 . S
Zn49 O52 2.025 . S
Zn49 O57 2.024 . S
Zn49 O59 2.039 . S
Zn49 O61 2.034 1_655 S
O50 C34 1.251 . S
O50 Zn41 2.039 . S
C51 O56 1.246 . S
C51 O57 1.249 1_554 S
O52 C34 1.254 1_556 S
O52 Zn49 2.025 . S
H53 C45 0.952 . S
H54 C36 0.952 . S
H55 C44 0.948 . S
O56 Zn41 2.034 . S
O56 C51 1.246 . S
O57 Zn49 2.024 . S
O57 C51 1.249 1_556 S
H58 C40 0.948 1_455 S
O59 Zn49 2.039 . S
O59 C63 1.251 1_556 S
O60 Zn41 2.025 . S
O60 C63 1.254 . S
O61 C42 1.246 1_556 S
O61 Zn49 2.034 1_455 S
O62 Zn41 2.024 1_455 S
O62 C42 1.249 . S
C63 O59 1.251 1_554 S
C63 O60 1.254 . S
H64 C37 0.949 . S
H65 C39 0.950 1_455 S
H66 C46 0.950 . S
H67 C48 0.950 . S
C68 O84 1.251 . S
C68 O86 1.254 . S
N69 C70 1.333 . S
N69 C74 1.307 . S
N69 Zn75 2.020 . S
C70 N69 1.333 . S
C70 C71 1.379 . S
C70 H88 0.952 . S
C71 C70 1.379 . S
C71 C72 1.390 . S
C71 H98 0.949 . S
C72 C71 1.390 . S
C72 C73 1.357 . S
C73 C72 1.357 . S
C73 C74 1.370 . S
C73 H99 0.950 1_455 S
C74 N69 1.307 . S
C74 C73 1.370 . S
C74 H92 0.948 1_455 S
Zn75 N69 2.020 . S
Zn75 O84 2.039 . S
Zn75 O90 2.034 . S
Zn75 O94 2.025 . S
Zn75 O96 2.024 1_455 S
C76 O95 1.246 . S
C76 O96 1.249 . S
N77 C78 1.307 . S
N77 C79 1.333 . S
N77 Zn83 2.020 . S
C78 N77 1.307 . S
C78 C82 1.370 . S
C78 H89 0.948 . S
C79 N77 1.333 . S
C79 C80 1.379 . S
C79 H87 0.952 . S
C80 C79 1.379 . S
C80 C81 1.390 . S
C80 H100 0.949 1_455 S
C81 C80 1.390 . S
C81 C82 1.357 . S
C82 C78 1.370 . S
C82 C81 1.357 . S
C82 H101 0.950 . S
Zn83 N77 2.020 . S
Zn83 O86 2.025 . S
Zn83 O91 2.024 . S
Zn83 O93 2.039 . S
Zn83 O95 2.034 1_455 S
O84 C68 1.251 . S
O84 Zn75 2.039 . S
C85 O90 1.246 . S
C85 O91 1.249 . S
O86 C68 1.254 . S
O86 Zn83 2.025 . S
H87 C79 0.952 . S
H88 C70 0.952 . S
H89 C78 0.948 . S
O90 Zn75 2.034 . S
O90 C85 1.246 . S
O91 Zn83 2.024 . S
O91 C85 1.249 . S
H92 C74 0.948 1_655 S
O93 Zn83 2.039 . S
O93 C97 1.251 . S
O94 Zn75 2.025 . S
O94 C97 1.254 . S
O95 C76 1.246 . S
O95 Zn83 2.034 1_655 S
O96 Zn75 2.024 1_655 S
O96 C76 1.249 . S
C97 O93 1.251 . S
C97 O94 1.254 . S
H98 C71 0.949 . S
H99 C73 0.950 1_655 S
H100 C80 0.949 1_655 S
H101 C82 0.950 . S
C102 O118 1.251 . S
C102 O120 1.254 . S
N103 C104 1.333 . S
N103 C108 1.307 . S
N103 Zn109 2.020 . S
C104 N103 1.333 . S
C104 C105 1.379 . S
C104 H122 0.952 . S
C105 C104 1.379 . S
C105 C106 1.390 . S
C105 H132 0.949 1_655 S
C106 C105 1.390 . S
C106 C107 1.357 . S
C107 C106 1.357 . S
C107 C108 1.370 . S
C107 H133 0.950 . S
C108 N103 1.307 . S
C108 C107 1.370 . S
C108 H126 0.948 . S
Zn109 N103 2.020 . S
Zn109 O118 2.039 . S
Zn109 O124 2.034 1_655 S
Zn109 O128 2.025 . S
Zn109 O130 2.024 . S
C110 O129 1.246 . S
C110 O130 1.249 . S
N111 C112 1.307 . S
N111 C113 1.333 . S
N111 Zn117 2.020 . S
C112 N111 1.307 . S
C112 C116 1.370 . S
C112 H123 0.948 1_655 S
C113 N111 1.333 . S
C113 C114 1.379 . S
C113 H121 0.952 . S
C114 C113 1.379 . S
C114 C115 1.390 . S
C114 H134 0.949 . S
C115 C114 1.390 . S
C115 C116 1.357 . S
C116 C112 1.370 . S
C116 C115 1.357 . S
C116 H135 0.950 1_655 S
Zn117 N111 2.020 . S
Zn117 O120 2.025 . S
Zn117 O125 2.024 1_655 S
Zn117 O127 2.039 . S
Zn117 O129 2.034 . S
O118 C102 1.251 . S
O118 Zn109 2.039 . S
C119 O124 1.246 . S
C119 O125 1.249 . S
O120 C102 1.254 . S
O120 Zn117 2.025 . S
H121 C113 0.952 . S
H122 C104 0.952 . S
H123 C112 0.948 1_455 S
O124 Zn109 2.034 1_455 S
O124 C119 1.246 . S
O125 Zn117 2.024 1_455 S
O125 C119 1.249 . S
H126 C108 0.948 . S
O127 Zn117 2.039 . S
O127 C131 1.251 . S
O128 Zn109 2.025 . S
O128 C131 1.254 . S
O129 C110 1.246 . S
O129 Zn117 2.034 . S
O130 Zn109 2.024 . S
O130 C110 1.249 . S
C131 O127 1.251 . S
C131 O128 1.254 . S
H132 C105 0.949 1_455 S
H133 C107 0.950 . S
H134 C114 0.949 . S
H135 C116 0.950 1_455 S
C136 O152 1.251 . S
C136 O154 1.254 1_554 S
N137 C138 1.333 . S
N137 C142 1.307 . S
N137 Zn143 2.020 . S
C138 N137 1.333 . S
C138 C139 1.379 . S
C138 H156 0.952 . S
C139 C138 1.379 . S
C139 C140 1.390 . S
C139 H166 0.949 . S
C140 C139 1.390 . S
C140 C141 1.357 . S
C141 C140 1.357 . S
C141 C142 1.370 . S
C141 H167 0.950 . S
C142 N137 1.307 . S
C142 C141 1.370 . S
C142 H160 0.948 . S
Zn143 N137 2.020 . S
Zn143 O152 2.039 . S
Zn143 O158 2.034 . S
Zn143 O162 2.025 . S
Zn143 O164 2.024 . S
C144 O163 1.246 1_554 S
C144 O164 1.249 . S
N145 C146 1.307 . S
N145 C147 1.333 . S
N145 Zn151 2.020 . S
C146 N145 1.307 . S
C146 C150 1.370 . S
C146 H157 0.948 . S
C147 N145 1.333 . S
C147 C148 1.379 . S
C147 H155 0.952 . S
C148 C147 1.379 . S
C148 C149 1.390 . S
C148 H168 0.949 . S
C149 C148 1.390 . S
C149 C150 1.357 . S
C150 C146 1.370 . S
C150 C149 1.357 . S
C150 H169 0.950 . S
Zn151 N145 2.020 . S
Zn151 O154 2.025 . S
Zn151 O159 2.024 . S
Zn151 O161 2.039 . S
Zn151 O163 2.034 . S
O152 C136 1.251 . S
O152 Zn143 2.039 . S
C153 O158 1.246 . S
C153 O159 1.249 1_554 S
O154 C136 1.254 1_556 S
O154 Zn151 2.025 . S
H155 C147 0.952 . S
H156 C138 0.952 . S
H157 C146 0.948 . S
O158 Zn143 2.034 . S
O158 C153 1.246 . S
O159 Zn151 2.024 . S
O159 C153 1.249 1_556 S
H160 C142 0.948 . S
O161 Zn151 2.039 . S
O161 C165 1.251 1_556 S
O162 Zn143 2.025 . S
O162 C165 1.254 . S
O163 C144 1.246 1_556 S
O163 Zn151 2.034 . S
O164 Zn143 2.024 . S
O164 C144 1.249 . S
C165 O161 1.251 1_554 S
C165 O162 1.254 . S
H166 C139 0.949 . S
H167 C141 0.950 . S
H168 C148 0.949 . S
H169 C150 0.950 . S
C170 O186 1.251 . S
C170 O188 1.254 1_554 S
N171 C172 1.333 . S
N171 C176 1.307 . S
N171 Zn177 2.020 . S
C172 N171 1.333 . S
C172 C173 1.379 . S
C172 H190 0.952 . S
C173 C172 1.379 . S
C173 C174 1.390 . S
C173 H200 0.949 . S
C174 C173 1.390 . S
C174 C175 1.357 . S
C175 C174 1.357 . S
C175 C176 1.370 . S
C175 H201 0.950 . S
C176 N171 1.307 . S
C176 C175 1.370 . S
C176 H194 0.948 . S
Zn177 N171 2.020 . S
Zn177 O186 2.039 . S
Zn177 O192 2.034 . S
Zn177 O196 2.025 . S
Zn177 O198 2.024 . S
C178 O197 1.246 1_554 S
C178 O198 1.249 . S
N179 C180 1.307 . S
N179 C181 1.333 . S
N179 Zn185 2.020 . S
C180 N179 1.307 . S
C180 C184 1.370 . S
C180 H191 0.948 . S
C181 N179 1.333 . S
C181 C182 1.379 . S
C181 H189 0.952 . S
C182 C181 1.379 . S
C182 C183 1.390 . S
C182 H202 0.949 . S
C183 C182 1.390 . S
C183 C184 1.357 . S
C184 C180 1.370 . S
C184 C183 1.357 . S
C184 H203 0.950 . S
Zn185 N179 2.020 . S
Zn185 O188 2.025 . S
Zn185 O193 2.024 . S
Zn185 O195 2.039 . S
Zn185 O197 2.034 . S
O186 C170 1.251 . S
O186 Zn177 2.039 . S
C187 O192 1.246 . S
C187 O193 1.249 1_554 S
O188 C170 1.254 1_556 S
O188 Zn185 2.025 . S
H189 C181 0.952 . S
H190 C172 0.952 . S
H191 C180 0.948 . S
O192 Zn177 2.034 . S
O192 C187 1.246 . S
O193 Zn185 2.024 . S
O193 C187 1.249 1_556 S
H194 C176 0.948 . S
O195 Zn185 2.039 . S
O195 C199 1.251 1_556 S
O196 Zn177 2.025 . S
O196 C199 1.254 . S
O197 C178 1.246 1_556 S
O197 Zn185 2.034 . S
O198 Zn177 2.024 . S
O198 C178 1.249 . S
C199 O195 1.251 1_554 S
C199 O196 1.254 . S
H200 C173 0.949 . S
H201 C175 0.950 . S
H202 C182 0.949 . S
H203 C184 0.950 . S
C204 O220 1.251 . S
C204 O222 1.254 . S
N205 C206 1.333 . S
N205 C210 1.307 . S
N205 Zn211 2.020 . S
C206 N205 1.333 . S
C206 C207 1.379 . S
C206 H224 0.952 . S
C207 C206 1.379 . S
C207 C208 1.390 . S
C207 H234 0.949 . S
C208 C207 1.390 . S
C208 C209 1.357 . S
C209 C208 1.357 . S
C209 C210 1.370 . S
C209 H235 0.950 . S
C210 N205 1.307 . S
C210 C209 1.370 . S
C210 H228 0.948 . S
Zn211 N205 2.020 . S
Zn211 O220 2.039 . S
Zn211 O226 2.034 . S
Zn211 O230 2.025 . S
Zn211 O232 2.024 . S
C212 O231 1.246 . S
C212 O232 1.249 . S
N213 C214 1.307 . S
N213 C215 1.333 . S
N213 Zn219 2.020 . S
C214 N213 1.307 . S
C214 C218 1.370 . S
C214 H225 0.948 . S
C215 N213 1.333 . S
C215 C216 1.379 . S
C215 H223 0.952 . S
C216 C215 1.379 . S
C216 C217 1.390 . S
C216 H236 0.949 . S
C217 C216 1.390 . S
C217 C218 1.357 . S
C218 C214 1.370 . S
C218 C217 1.357 . S
C218 H237 0.950 . S
Zn219 N213 2.020 . S
Zn219 O222 2.025 . S
Zn219 O227 2.024 . S
Zn219 O229 2.039 . S
Zn219 O231 2.034 . S
O220 C204 1.251 . S
O220 Zn211 2.039 . S
C221 O226 1.246 . S
C221 O227 1.249 . S
O222 C204 1.254 . S
O222 Zn219 2.025 . S
H223 C215 0.952 . S
H224 C206 0.952 . S
H225 C214 0.948 . S
O226 Zn211 2.034 . S
O226 C221 1.246 . S
O227 Zn219 2.024 . S
O227 C221 1.249 . S
H228 C210 0.948 . S
O229 Zn219 2.039 . S
O229 C233 1.251 . S
O230 Zn211 2.025 . S
O230 C233 1.254 . S
O231 C212 1.246 . S
O231 Zn219 2.034 . S
O232 Zn211 2.024 . S
O232 C212 1.249 . S
C233 O229 1.251 . S
C233 O230 1.254 . S
H234 C207 0.949 . S
H235 C209 0.950 . S
H236 C216 0.949 . S
H237 C218 0.950 . S
C238 O254 1.251 . S
C238 O256 1.254 . S
N239 C240 1.333 . S
N239 C244 1.307 . S
N239 Zn245 2.020 . S
C240 N239 1.333 . S
C240 C241 1.379 . S
C240 H258 0.952 . S
C241 C240 1.379 . S
C241 C242 1.390 . S
C241 H268 0.949 . S
C242 C241 1.390 . S
C242 C243 1.357 . S
C243 C242 1.357 . S
C243 C244 1.370 . S
C243 H269 0.950 . S
C244 N239 1.307 . S
C244 C243 1.370 . S
C244 H262 0.948 . S
Zn245 N239 2.020 . S
Zn245 O254 2.039 . S
Zn245 O260 2.034 . S
Zn245 O264 2.025 . S
Zn245 O266 2.024 . S
C246 O265 1.246 . S
C246 O266 1.249 . S
N247 C248 1.307 . S
N247 C249 1.333 . S
N247 Zn253 2.020 . S
C248 N247 1.307 . S
C248 C252 1.370 . S
C248 H259 0.948 . S
C249 N247 1.333 . S
C249 C250 1.379 . S
C249 H257 0.952 . S
C250 C249 1.379 . S
C250 C251 1.390 . S
C250 H270 0.949 . S
C251 C250 1.390 . S
C251 C252 1.357 . S
C252 C248 1.370 . S
C252 C251 1.357 . S
C252 H271 0.950 . S
Zn253 N247 2.020 . S
Zn253 O256 2.025 . S
Zn253 O261 2.024 . S
Zn253 O263 2.039 . S
Zn253 O265 2.034 . S
O254 C238 1.251 . S
O254 Zn245 2.039 . S
C255 O260 1.246 . S
C255 O261 1.249 . S
O256 C238 1.254 . S
O256 Zn253 2.025 . S
H257 C249 0.952 . S
H258 C240 0.952 . S
H259 C248 0.948 . S
O260 Zn245 2.034 . S
O260 C255 1.246 . S
O261 Zn253 2.024 . S
O261 C255 1.249 . S
H262 C244 0.948 . S
O263 Zn253 2.039 . S
O263 C267 1.251 . S
O264 Zn245 2.025 . S
O264 C267 1.254 . S
O265 C246 1.246 . S
O265 Zn253 2.034 . S
O266 Zn245 2.024 . S
O266 C246 1.249 . S
C267 O263 1.251 . S
C267 O264 1.254 . S
H268 C241 0.949 . S
H269 C243 0.950 . S
H270 C250 0.949 . S
H271 C252 0.950 . S
C272 C273 1.369 1_556 S
C272 C274 1.419 . S
C272 H276 0.930 . S
C273 C272 1.369 1_554 S
C273 C282 1.429 . S
C274 C272 1.419 . S
C274 C275 1.363 1_556 S
C274 H277 0.929 . S
C275 C274 1.363 1_554 S
C275 C281 1.428 . S
H276 C272 0.930 . S
H277 C274 0.929 . S
S278 N279 1.613 . S
S278 N280 1.610 . S
N279 S278 1.613 . S
N279 C282 1.350 . S
N280 S278 1.610 . S
N280 C281 1.351 . S
C281 C275 1.428 . S
C281 N280 1.351 . S
C281 C282 1.434 . S
C282 C273 1.429 . S
C282 N279 1.350 . S
C282 C281 1.434 . S
C283 C284 1.369 . S
C283 C285 1.419 . S
C283 H287 0.930 . S
C284 C283 1.369 . S
C284 C293 1.429 1_554 S
C285 C283 1.419 . S
C285 C286 1.363 . S
C285 H288 0.929 . S
C286 C285 1.363 . S
C286 C292 1.428 1_554 S
H287 C283 0.930 . S
H288 C285 0.929 . S
S289 N290 1.613 . S
S289 N291 1.610 . S
N290 S289 1.613 . S
N290 C293 1.350 . S
N291 S289 1.610 . S
N291 C292 1.351 . S
C292 C286 1.428 1_556 S
C292 N291 1.351 . S
C292 C293 1.434 . S
C293 C284 1.429 1_556 S
C293 N290 1.350 . S
C293 C292 1.434 . S
C294 C295 1.369 . S
C294 C296 1.419 . S
C294 H298 0.930 . S
C295 C294 1.369 . S
C295 C304 1.429 . S
C296 C294 1.419 . S
C296 C297 1.363 . S
C296 H299 0.929 . S
C297 C296 1.363 . S
C297 C303 1.428 . S
H298 C294 0.930 . S
H299 C296 0.929 . S
S300 N301 1.613 . S
S300 N302 1.610 . S
N301 S300 1.613 . S
N301 C304 1.350 . S
N302 S300 1.610 . S
N302 C303 1.351 . S
C303 C297 1.428 . S
C303 N302 1.351 . S
C303 C304 1.434 . S
C304 C295 1.429 . S
C304 N301 1.350 . S
C304 C303 1.434 . S
C305 C306 1.369 . S
C305 C307 1.419 . S
C305 H309 0.930 . S
C306 C305 1.369 . S
C306 C315 1.429 . S
C307 C305 1.419 . S
C307 C308 1.363 . S
C307 H310 0.929 . S
C308 C307 1.363 . S
C308 C314 1.428 . S
H309 C305 0.930 . S
H310 C307 0.929 . S
S311 N312 1.613 . S
S311 N313 1.610 . S
N312 S311 1.613 . S
N312 C315 1.350 . S
N313 S311 1.610 . S
N313 C314 1.351 . S
C314 C308 1.428 . S
C314 N313 1.351 . S
C314 C315 1.434 . S
C315 C306 1.429 . S
C315 N312 1.350 . S
C315 C314 1.434 . S
C316 C317 1.369 1_455 S
C316 C318 1.419 . S
C316 H320 0.930 1_455 S
C317 C316 1.369 1_655 S
C317 C326 1.429 . S
C318 C316 1.419 . S
C318 C319 1.363 . S
C318 H321 0.929 . S
C319 C318 1.363 . S
C319 C325 1.428 . S
H320 C316 0.930 1_655 S
H321 C318 0.929 . S
S322 N323 1.613 1_455 S
S322 N324 1.610 . S
N323 S322 1.613 1_655 S
N323 C326 1.350 . S
N324 S322 1.610 . S
N324 C325 1.351 . S
C325 C319 1.428 . S
C325 N324 1.351 . S
C325 C326 1.434 1_455 S
C326 C317 1.429 . S
C326 N323 1.350 . S
C326 C325 1.434 1_655 S
C327 C328 1.369 . S
C327 C329 1.419 1_455 S
C327 H331 0.930 . S
C328 C327 1.369 . S
C328 C337 1.429 1_454 S
C329 C327 1.419 1_655 S
C329 C330 1.363 . S
C329 H332 0.929 . S
C330 C329 1.363 . S
C330 C336 1.428 1_554 S
H331 C327 0.930 . S
H332 C329 0.929 . S
S333 N334 1.613 1_655 S
S333 N335 1.610 . S
N334 S333 1.613 1_455 S
N334 C337 1.350 1_455 S
N335 S333 1.610 . S
N335 C336 1.351 . S
C336 C330 1.428 1_556 S
C336 N335 1.351 . S
C336 C337 1.434 . S
C337 C328 1.429 1_656 S
C337 N334 1.350 1_655 S
C337 C336 1.434 . S
C338 C339 1.369 . S
C338 C340 1.419 1_455 S
C338 H342 0.930 . S
C339 C338 1.369 . S
C339 C348 1.429 . S
C340 C338 1.419 1_655 S
C340 C341 1.363 . S
C340 H343 0.929 . S
C341 C340 1.363 . S
C341 C347 1.428 1_655 S
H342 C338 0.930 . S
H343 C340 0.929 . S
S344 N345 1.613 . S
S344 N346 1.610 1_455 S
N345 S344 1.613 . S
N345 C348 1.350 . S
N346 S344 1.610 1_655 S
N346 C347 1.351 1_655 S
C347 C341 1.428 1_455 S
C347 N346 1.351 1_455 S
C347 C348 1.434 . S
C348 C339 1.429 . S
C348 N345 1.350 . S
C348 C347 1.434 . S
C349 C350 1.369 . S
C349 C351 1.419 . S
C349 H353 0.930 . S
C350 C349 1.369 . S
C350 C359 1.429 . S
C351 C349 1.419 . S
C351 C352 1.363 1_655 S
C351 H354 0.929 1_655 S
C352 C351 1.363 1_455 S
C352 C358 1.428 . S
H353 C349 0.930 . S
H354 C351 0.929 1_455 S
S355 N356 1.613 . S
S355 N357 1.610 1_655 S
N356 S355 1.613 . S
N356 C359 1.350 . S
N357 S355 1.610 1_455 S
N357 C358 1.351 . S
C358 C352 1.428 . S
C358 N357 1.351 . S
C358 C359 1.434 1_455 S
C359 C350 1.429 . S
C359 N356 1.350 . S
C359 C358 1.434 1_655 S
C360 C361 1.369 . S
C360 C362 1.419 . S
C360 H364 0.930 . S
C361 C360 1.369 . S
C361 C370 1.429 1_654 S
C362 C360 1.419 . S
C362 C363 1.363 1_655 S
C362 H365 0.929 . S
C363 C362 1.363 1_455 S
C363 C369 1.428 1_554 S
H364 C360 0.930 . S
H365 C362 0.929 . S
S366 N367 1.613 . S
S366 N368 1.610 . S
N367 S366 1.613 . S
N367 C370 1.350 . S
N368 S366 1.610 . S
N368 C369 1.351 . S
C369 C363 1.428 1_556 S
C369 N368 1.351 . S
C369 C370 1.434 . S
C370 C361 1.429 1_456 S
C370 N367 1.350 . S
C370 C369 1.434 . S
C371 C372 1.369 . S
C371 C373 1.419 . S
C371 H375 0.930 . S
C372 C371 1.369 . S
C372 C381 1.429 1_655 S
C373 C371 1.419 . S
C373 C374 1.363 1_655 S
C373 H376 0.929 . S
C374 C373 1.363 1_455 S
C374 C380 1.428 . S
H375 C371 0.930 . S
H376 C373 0.929 . S
S377 N378 1.613 . S
S377 N379 1.610 . S
N378 S377 1.613 . S
N378 C381 1.350 . S
N379 S377 1.610 . S
N379 C380 1.351 . S
C380 C374 1.428 . S
C380 N379 1.351 . S
C380 C381 1.434 . S
C381 C372 1.429 1_455 S
C381 N378 1.350 . S
C381 C380 1.434 . S
C382 C383 1.369 . S
C382 C384 1.419 1_565 S
C382 H386 0.930 . S
C383 C382 1.369 . S
C383 C392 1.429 1_554 S
C384 C382 1.419 1_545 S
C384 C385 1.363 . S
C384 H387 0.929 . S
C385 C384 1.363 . S
C385 C391 1.425 1_554 S
H386 C382 0.930 . S
H387 C384 0.929 . S
S388 N389 1.613 . S
S388 N390 1.610 1_565 S
N389 S388 1.613 . S
N389 C392 1.350 . S
N390 S388 1.610 1_545 S
N390 C391 1.355 . S
C391 C385 1.425 1_556 S
C391 N390 1.355 . S
C391 C392 1.435 1_545 S
C392 C383 1.429 1_556 S
C392 N389 1.350 . S
C392 C391 1.435 1_565 S
C393 C394 1.369 . S
C393 C395 1.419 1_545 S
C393 H397 0.930 . S
C394 C393 1.369 . S
C394 C403 1.429 . S
C395 C393 1.419 1_565 S
C395 C396 1.363 . S
C395 H398 0.929 . S
C396 C395 1.363 . S
C396 C402 1.428 . S
H397 C393 0.930 . S
H398 C395 0.929 . S
S399 N400 1.616 1_565 S
S399 N401 1.608 . S
N400 S399 1.616 1_545 S
N400 C403 1.350 . S
N401 S399 1.608 . S
N401 C402 1.351 . S
C402 C396 1.428 . S
C402 N401 1.351 . S
C402 C403 1.434 1_565 S
C403 C394 1.429 . S
C403 N400 1.350 . S
C403 C402 1.434 1_545 S
C404 C405 1.369 . S
C404 C406 1.419 . S
C404 H408 0.930 . S
C405 C404 1.369 . S
C405 C414 1.429 1_554 S
C406 C404 1.419 . S
C406 C407 1.363 . S
C406 H409 0.929 . S
C407 C406 1.363 . S
C407 C413 1.428 1_554 S
H408 C404 0.930 . S
H409 C406 0.929 . S
S410 N411 1.613 . S
S410 N412 1.610 1_655 S
N411 S410 1.613 . S
N411 C414 1.346 1_655 S
N412 S410 1.610 1_455 S
N412 C413 1.351 . S
C413 C407 1.428 1_556 S
C413 N412 1.351 . S
C413 C414 1.434 . S
C414 C405 1.429 1_556 S
C414 N411 1.346 1_455 S
C414 C413 1.434 . S
C415 C416 1.369 1_556 S
C415 C417 1.419 . S
C415 H419 0.930 . S
C416 C415 1.369 1_554 S
C416 C425 1.429 . S
C417 C415 1.419 . S
C417 C418 1.363 1_556 S
C417 H420 0.929 . S
C418 C417 1.363 1_554 S
C418 C424 1.428 . S
H419 C415 0.930 . S
H420 C417 0.929 . S
S421 N422 1.613 . S
S421 N423 1.610 . S
N422 S421 1.613 . S
N422 C425 1.350 . S
N423 S421 1.610 . S
N423 C424 1.351 . S
C424 C418 1.428 . S
C424 N423 1.351 . S
C424 C425 1.434 . S
C425 C416 1.429 . S
C425 N422 1.350 . S
C425 C424 1.434 . S
C426 C427 1.369 . S
C426 C428 1.419 . S
C426 H430 0.930 . S
C427 C426 1.369 . S
C427 C436 1.429 . S
C428 C426 1.419 . S
C428 C429 1.363 . S
C428 H431 0.929 . S
C429 C428 1.363 . S
C429 C435 1.428 . S
H430 C426 0.930 . S
H431 C428 0.929 . S
S432 N433 1.613 . S
S432 N434 1.610 . S
N433 S432 1.613 . S
N433 C436 1.350 . S
N434 S432 1.610 . S
N434 C435 1.351 . S
C435 C429 1.428 . S
C435 N434 1.351 . S
C435 C436 1.434 . S
C436 C427 1.429 . S
C436 N433 1.350 . S
C436 C435 1.434 . S
C437 C438 1.369 . S
C437 C439 1.419 . S
C437 H441 0.930 . S
C438 C437 1.369 . S
C438 C447 1.429 . S
C439 C437 1.419 . S
C439 C440 1.363 . S
C439 H442 0.929 . S
C440 C439 1.363 . S
C440 C446 1.428 . S
H441 C437 0.930 . S
H442 C439 0.929 . S
S443 N444 1.613 . S
S443 N445 1.610 . S
N444 S443 1.613 . S
N444 C447 1.350 . S
N445 S443 1.610 . S
N445 C446 1.351 . S
C446 C440 1.428 . S
C446 N445 1.351 . S
C446 C447 1.434 . S
C447 C438 1.429 . S
C447 N444 1.350 . S
C447 C446 1.434 . S
C448 C449 1.369 . S
C448 C450 1.419 . S
C448 H452 0.930 . S
C449 C448 1.369 . S
C449 C458 1.429 1_455 S
C450 C448 1.419 . S
C450 C451 1.363 1_455 S
C450 H453 0.929 . S
C451 C450 1.363 1_655 S
C451 C457 1.428 . S
H452 C448 0.930 . S
H453 C450 0.929 . S
S454 N455 1.613 . S
S454 N456 1.610 . S
N455 S454 1.613 . S
N455 C458 1.350 . S
N456 S454 1.610 . S
N456 C457 1.351 . S
C457 C451 1.428 . S
C457 N456 1.351 . S
C457 C458 1.434 . S
C458 C449 1.429 1_655 S
C458 N455 1.350 . S
C458 C457 1.434 . S
C459 C460 1.369 1_455 S
C459 C461 1.419 . S
C459 H463 0.930 . S
C460 C459 1.369 1_655 S
C460 C469 1.429 . S
C461 C459 1.419 . S
C461 C462 1.363 . S
C461 H464 0.929 . S
C462 C461 1.363 . S
C462 C468 1.428 1_455 S
H463 C459 0.930 . S
H464 C461 0.929 . S
S465 N466 1.613 . S
S465 N467 1.610 . S
N466 S465 1.613 . S
N466 C469 1.350 . S
N467 S465 1.610 . S
N467 C468 1.351 . S
C468 C462 1.428 1_655 S
C468 N467 1.351 . S
C468 C469 1.434 . S
C469 C460 1.429 . S
C469 N466 1.350 . S
C469 C468 1.434 . S
C470 C471 1.369 1_455 S
C470 C472 1.419 . S
C470 H474 0.930 . S
C471 C470 1.369 1_655 S
C471 C480 1.429 . S
C472 C470 1.419 . S
C472 C473 1.363 . S
C472 H475 0.929 . S
C473 C472 1.363 . S
C473 C479 1.428 1_455 S
H474 C470 0.930 . S
H475 C472 0.929 . S
S476 N477 1.613 . S
S476 N478 1.610 . S
N477 S476 1.613 . S
N477 C480 1.350 . S
N478 S476 1.610 . S
N478 C479 1.351 . S
C479 C473 1.428 1_655 S
C479 N478 1.351 . S
C479 C480 1.434 . S
C480 C471 1.429 . S
C480 N477 1.350 . S
C480 C479 1.434 . S
C481 C482 1.369 1_455 S
C481 C483 1.419 . S
C481 H485 0.930 . S
C482 C481 1.369 1_655 S
C482 C491 1.429 . S
C483 C481 1.419 . S
C483 C484 1.363 . S
C483 H486 0.929 . S
C484 C483 1.363 . S
C484 C490 1.428 1_455 S
H485 C481 0.930 . S
H486 C483 0.929 . S
S487 N488 1.613 . S
S487 N489 1.610 . S
N488 S487 1.613 . S
N488 C491 1.350 . S
N489 S487 1.610 . S
N489 C490 1.351 . S
C490 C484 1.428 1_655 S
C490 N489 1.351 . S
C490 C491 1.434 . S
C491 C482 1.429 . S
C491 N488 1.350 . S
C491 C490 1.434 . S
C492 C493 1.369 . S
C492 C494 1.419 . S
C492 H496 0.930 . S
C493 C492 1.369 . S
C493 C502 1.429 . S
C494 C492 1.419 . S
C494 C495 1.363 . S
C494 H497 0.929 . S
C495 C494 1.363 . S
C495 C501 1.428 . S
H496 C492 0.930 . S
H497 C494 0.929 . S
S498 N499 1.613 . S
S498 N500 1.610 . S
N499 S498 1.613 . S
N499 C502 1.350 . S
N500 S498 1.610 . S
N500 C501 1.351 . S
C501 C495 1.428 . S
C501 N500 1.351 . S
C501 C502 1.434 . S
C502 C493 1.429 . S
C502 N499 1.350 . S
C502 C501 1.434 . S
C503 C504 1.369 . S
C503 C505 1.419 . S
C503 H507 0.930 . S
C504 C503 1.369 . S
C504 C513 1.429 . S
C505 C503 1.419 . S
C505 C506 1.363 . S
C505 H508 0.929 . S
C506 C505 1.363 . S
C506 C512 1.428 . S
H507 C503 0.930 . S
H508 C505 0.929 . S
S509 N510 1.613 . S
S509 N511 1.610 . S
N510 S509 1.613 . S
N510 C513 1.350 . S
N511 S509 1.610 . S
N511 C512 1.351 . S
C512 C506 1.428 . S
C512 N511 1.351 . S
C512 C513 1.434 . S
C513 C504 1.429 . S
C513 N510 1.350 . S
C513 C512 1.434 . S
C514 C515 1.369 . S
C514 C516 1.419 . S
C514 H518 0.930 . S
C515 C514 1.369 . S
C515 C524 1.429 . S
C516 C514 1.419 . S
C516 C517 1.363 . S
C516 H519 0.929 . S
C517 C516 1.363 . S
C517 C523 1.428 . S
H518 C514 0.930 . S
H519 C516 0.929 . S
S520 N521 1.613 . S
S520 N522 1.610 . S
N521 S520 1.613 . S
N521 C524 1.350 . S
N522 S520 1.610 . S
N522 C523 1.351 . S
C523 C517 1.428 . S
C523 N522 1.351 . S
C523 C524 1.434 . S
C524 C515 1.429 . S
C524 N521 1.350 . S
C524 C523 1.434 . S
C525 C526 1.369 . S
C525 C527 1.419 . S
C525 H529 0.930 . S
C526 C525 1.369 . S
C526 C535 1.429 . S
C527 C525 1.419 . S
C527 C528 1.363 . S
C527 H530 0.929 . S
C528 C527 1.363 . S
C528 C534 1.428 . S
H529 C525 0.930 . S
H530 C527 0.929 . S
S531 N532 1.613 . S
S531 N533 1.610 . S
N532 S531 1.613 . S
N532 C535 1.350 . S
N533 S531 1.610 . S
N533 C534 1.351 . S
C534 C528 1.428 . S
C534 N533 1.351 . S
C534 C535 1.434 . S
C535 C526 1.429 . S
C535 N532 1.350 . S
C535 C534 1.434 . S
C273 C17 1.283 . S
C275 C8 1.281 . S
C284 C42 1.283 . S
C286 C51 1.281 . S
C295 C76 1.281 . S
C297 C85 1.283 . S
C306 C110 1.281 . S
C308 C119 1.283 . S
C317 C153 1.282 . S
C319 C144 1.283 . S
C328 C187 1.282 . S
C330 C178 1.282 . S
C339 C212 1.281 . S
C341 C221 1.283 . S
C350 C255 1.282 . S
C352 C246 1.282 . S
C361 C34 1.535 . S
C363 C0 1.536 . S
C372 C131 1.535 . S
C374 C68 1.534 . S
C383 C136 1.537 . S
C385 C170 1.534 . S
C394 C204 1.534 . S
C396 C267 1.535 . S
C405 C29 1.654 . S
C407 C199 1.647 . S
C416 C165 1.647 . S
C418 C63 1.652 . S
C427 C97 1.652 . S
C429 C238 1.646 . S
C438 C102 1.645 . S
C440 C233 1.651 . S
C449 C4 1.569 . S
C451 C106 1.569 . S
C460 C38 1.576 . S
C462 C72 1.582 . S
C471 C47 1.559 . S
C473 C81 1.566 . S
C482 C115 1.568 . S
C484 C13 1.560 . S
C493 C140 1.569 . S
C495 C242 1.569 . S
C504 C174 1.576 . S
C506 C208 1.584 . S
C515 C183 1.558 . S
C517 C217 1.567 . S
C526 C251 1.563 . S
C528 C149 1.564 . S
