# Generated by pormake.
# Topology mmt, (4)-cn, num edge types: 1
# Building blocks:
#     Node 0, Type 0, BuildingBlock: CEKHIL_clean_sbu_0, # of connection points: 4
#     Node 1, Type 0, BuildingBlock: CEKHIL_clean_sbu_0, # of connection points: 4
#     Node 2, Type 0, BuildingBlock: CEKHIL_clean_sbu_0, # of connection points: 4
#     Node 3, Type 0, BuildingBlock: CEKHIL_clean_sbu_0, # of connection points: 4
#     Node 4, Type 0, BuildingBlock: CEKHIL_clean_sbu_0, # of connection points: 4
#     Node 5, Type 0, BuildingBlock: CEKHIL_clean_sbu_0, # of connection points: 4
#     Node 6, Type 0, BuildingBlock: CEKHIL_clean_sbu_0, # of connection points: 4
#     Node 7, Type 0, BuildingBlock: CEKHIL_clean_sbu_0, # of connection points: 4
#     Edge 8, Type (0, 0), BuildingBlock: EZIPEK_clean_linker_0, # of connection points: 2
#     Edge 9, Type (0, 0), BuildingBlock: EZIPEK_clean_linker_0, # of connection points: 2
#     Edge 10, Type (0, 0), BuildingBlock: EZIPEK_clean_linker_0, # of connection points: 2
#     Edge 11, Type (0, 0), BuildingBlock: EZIPEK_clean_linker_0, # of connection points: 2
#     Edge 12, Type (0, 0), BuildingBlock: EZIPEK_clean_linker_0, # of connection points: 2
#     Edge 13, Type (0, 0), BuildingBlock: EZIPEK_clean_linker_0, # of connection points: 2
#     Edge 14, Type (0, 0), BuildingBlock: EZIPEK_clean_linker_0, # of connection points: 2
#     Edge 15, Type (0, 0), BuildingBlock: EZIPEK_clean_linker_0, # of connection points: 2
#     Edge 16, Type (0, 0), BuildingBlock: EZIPEK_clean_linker_0, # of connection points: 2
#     Edge 17, Type (0, 0), BuildingBlock: EZIPEK_clean_linker_0, # of connection points: 2
#     Edge 18, Type (0, 0), BuildingBlock: EZIPEK_clean_linker_0, # of connection points: 2
#     Edge 19, Type (0, 0), BuildingBlock: EZIPEK_clean_linker_0, # of connection points: 2
#     Edge 20, Type (0, 0), BuildingBlock: EZIPEK_clean_linker_0, # of connection points: 2
#     Edge 21, Type (0, 0), BuildingBlock: EZIPEK_clean_linker_0, # of connection points: 2
#     Edge 22, Type (0, 0), BuildingBlock: EZIPEK_clean_linker_0, # of connection points: 2
#     Edge 23, Type (0, 0), BuildingBlock: EZIPEK_clean_linker_0, # of connection points: 2
# Relax obj value: 0.031
# Max RMSD: 0.050
# Mean RMSD: 0.050
data_MOF--net-mmt--node1-CEKHIL_clean_sbu_0--edge1-EZIPEK_clean_linker_0
_symmetry_space_group_name_H-M    P1
_symmetry_Int_Tables_number       1
_symmetry_cell_setting            triclinic
loop_
_symmetry_equiv_pos_as_xyz
'x, y, z'
_cell_length_a     16.33151
_cell_length_b     26.529658
_cell_length_c     32.183109
_cell_angle_alpha  90.129434
_cell_angle_beta   89.940546
_cell_angle_gamma 89.847379
loop_
_atom_site_label
_atom_site_type_symbol
_atom_site_fract_x
_atom_site_fract_y
_atom_site_fract_z
_atom_type_partial_charge
Co0 Co 0.10539 0.57945 0.36537 0.0
O1 O 0.03091 0.58912 0.41178 0.0
O2 O 0.10802 0.52167 0.40269 0.0
C3 C 0.16425 0.65733 0.36842 0.0
O4 O 0.19178 0.55685 0.32306 0.0
Co5 Co 0.0839 0.64211 0.28654 0.0
O6 O 0.17342 0.59932 0.26323 0.0
C7 C 0.96697 0.56334 0.30307 0.0
C8 C 0.05473 0.54559 0.42555 0.0
C9 C 0.21051 0.56639 0.28495 0.0
O10 O 0.01723 0.54586 0.33029 0.0
O11 O 0.97433 0.60816 0.28926 0.0
O12 O 0.18758 0.62125 0.39291 0.0
O13 O 0.10032 0.64726 0.34616 0.0
Co14 Co 0.3928 0.92785 0.37713 0.0
O15 O 0.46683 0.91978 0.4238 0.0
O16 O 0.38928 0.9869 0.41304 0.0
C17 C 0.33854 0.84829 0.3825 0.0
O18 O 0.30689 0.94972 0.33438 0.0
Co19 Co 0.40382 0.86014 0.29856 0.0
O20 O 0.3056 0.89738 0.27918 0.0
C21 C 0.52382 0.94161 0.31075 0.0
C22 C 0.44244 0.96385 0.43633 0.0
C23 C 0.27826 0.93558 0.29888 0.0
O24 O 0.48288 0.95869 0.3421 0.0
O25 O 0.50698 0.90023 0.29215 0.0
O26 O 0.31115 0.88546 0.40503 0.0
O27 O 0.39867 0.86068 0.35871 0.0
Co28 Co 0.6045 0.426 0.1451 0.0
O29 O 0.53194 0.41848 0.09773 0.0
O30 O 0.61558 0.48277 0.1075 0.0
C31 C 0.65399 0.34467 0.14374 0.0
O32 O 0.69089 0.44684 0.18775 0.0
Co33 Co 0.58199 0.36652 0.22578 0.0
O34 O 0.67187 0.40813 0.24869 0.0
C35 C 0.46979 0.44964 0.20853 0.0
C36 C 0.56082 0.46103 0.08435 0.0
C37 C 0.70993 0.43969 0.22615 0.0
O38 O 0.51487 0.46266 0.17741 0.0
O39 O 0.48153 0.40942 0.22942 0.0
O40 O 0.68421 0.37967 0.12005 0.0
O41 O 0.59228 0.3597 0.16571 0.0
Co42 Co 0.89265 0.07463 0.15442 0.0
O43 O 0.96332 0.08815 0.10709 0.0
O44 O 0.89437 0.01756 0.11638 0.0
C45 C 0.82412 0.15007 0.15369 0.0
O46 O 0.81187 0.04636 0.19721 0.0
Co47 Co 0.90301 0.13617 0.23538 0.0
O48 O 0.81357 0.09251 0.25593 0.0
C49 C 0.02506 0.05671 0.22065 0.0
C50 C 0.94381 0.04373 0.09332 0.0
C51 C 0.78631 0.05594 0.23435 0.0
O52 O 0.98786 0.04454 0.18678 0.0
O53 O 0.00458 0.09458 0.24302 0.0
O54 O 0.80396 0.11358 0.12885 0.0
O55 O 0.88959 0.14215 0.17548 0.0
Co56 Co 0.89641 0.43503 0.64705 0.0
O57 O 0.96889 0.42455 0.59981 0.0
O58 O 0.89492 0.49319 0.61038 0.0
C59 C 0.83608 0.35776 0.64356 0.0
O60 O 0.81327 0.4602 0.69031 0.0
Co61 Co 0.90118 0.36989 0.72674 0.0
O62 O 0.79346 0.40131 0.7392 0.0
C63 C 0.02104 0.4528 0.71604 0.0
C64 C 0.9462 0.46874 0.58682 0.0
C65 C 0.77505 0.44325 0.72245 0.0
O66 O 0.98829 0.46532 0.68109 0.0
O67 O 0.99787 0.41488 0.7376 0.0
O68 O 0.8117 0.39439 0.61981 0.0
O69 O 0.89867 0.36777 0.66664 0.0
Co70 Co 0.62062 0.08289 0.65015 0.0
O71 O 0.54292 0.0919 0.60515 0.0
O72 O 0.61984 0.02412 0.61397 0.0
C73 C 0.67999 0.16006 0.64477 0.0
O74 O 0.70954 0.06012 0.69109 0.0
Co75 Co 0.61569 0.15008 0.72935 0.0
O76 O 0.71347 0.11133 0.747 0.0
C77 C 0.49638 0.06759 0.72032 0.0
C78 C 0.56568 0.04785 0.59174 0.0
C79 C 0.73991 0.07358 0.72644 0.0
O80 O 0.53244 0.05241 0.68684 0.0
O81 O 0.51622 0.10779 0.73987 0.0
O82 O 0.70138 0.12345 0.62016 0.0
O83 O 0.61912 0.15029 0.66914 0.0
Co84 Co 0.39456 0.58247 0.86915 0.0
O85 O 0.46759 0.59205 0.91609 0.0
O86 O 0.39349 0.52371 0.90506 0.0
C87 C 0.33459 0.66011 0.87347 0.0
O88 O 0.31096 0.55821 0.82608 0.0
Co89 Co 0.39972 0.64817 0.78993 0.0
O90 O 0.29211 0.61718 0.77712 0.0
C91 C 0.52 0.56511 0.8002 0.0
C92 C 0.44524 0.54763 0.92852 0.0
C93 C 0.27316 0.57541 0.79392 0.0
O94 O 0.486 0.55201 0.83468 0.0
O95 O 0.49749 0.60359 0.77905 0.0
O96 O 0.31032 0.6233 0.897 0.0
O97 O 0.39689 0.64996 0.85007 0.0
Co98 Co 0.11978 0.93673 0.87389 0.0
O99 O 0.04495 0.92518 0.9199 0.0
O100 O 0.11854 0.99416 0.91154 0.0
C101 C 0.1811 0.85943 0.87658 0.0
O102 O 0.2048 0.96302 0.8324 0.0
Co103 Co 0.11855 0.87316 0.79288 0.0
O104 O 0.22368 0.90741 0.7805 0.0
C105 C 0.99515 0.95392 0.80462 0.0
C106 C 0.06626 0.96919 0.93389 0.0
C107 C 0.24277 0.94787 0.7995 0.0
O108 O 0.02892 0.96734 0.83914 0.0
O109 O 0.01824 0.91568 0.78322 0.0
O110 O 0.20367 0.89546 0.90146 0.0
O111 O 0.11954 0.87003 0.85297 0.0
C112 C 0.25775 0.49534 0.23921 0.0
C113 C 0.27743 0.53737 0.26467 0.0
C114 C 0.42385 0.52479 0.25007 0.0
C115 C 0.40387 0.48379 0.22351 0.0
N116 N 0.30303 0.43488 0.18707 0.0
N117 N 0.37655 0.5969 0.29024 0.0
C118 C 0.321 0.47056 0.21637 0.0
C119 C 0.35981 0.55356 0.26883 0.0
N120 N 0.17882 0.47825 0.23792 0.0
N121 N 0.50418 0.53479 0.25877 0.0
H122 H 0.33176 0.6174 0.3061 0.0
H123 H 0.43361 0.61427 0.29037 0.0
H124 H 0.55268 0.51562 0.24467 0.0
H125 H 0.52312 0.56003 0.28159 0.0
H126 H 0.16146 0.44471 0.22365 0.0
H127 H 0.13084 0.49585 0.25379 0.0
H128 H 0.24389 0.42655 0.17727 0.0
H129 H 0.34818 0.41633 0.16982 0.0
C130 C 0.17221 0.04251 0.2401 0.0
C131 C 0.09139 0.0235 0.23685 0.0
C132 C 0.13413 0.94545 0.27212 0.0
C133 C 0.21316 0.96635 0.27858 0.0
N134 N 0.3071 0.03593 0.27132 0.0
N135 N 0.99214 0.95918 0.25283 0.0
C136 C 0.23201 0.01531 0.26338 0.0
C137 C 0.07164 0.97533 0.25331 0.0
N138 N 0.19236 0.08577 0.21947 0.0
N139 N 0.11876 0.89692 0.28408 0.0
H140 H 0.94501 0.979 0.23834 0.0
H141 H 0.97137 0.92776 0.26896 0.0
H142 H 0.16042 0.87518 0.30087 0.0
H143 H 0.06649 0.87708 0.27557 0.0
H144 H 0.25182 0.09936 0.21674 0.0
H145 H 0.15018 0.10608 0.20177 0.0
H146 H 0.3216 0.07344 0.26556 0.0
H147 H 0.35426 0.01643 0.28606 0.0
C148 C 0.82484 0.45076 0.27898 0.0
C149 C 0.77763 0.4701 0.24536 0.0
C150 C 0.86974 0.54228 0.24378 0.0
C151 C 0.90312 0.52963 0.28343 0.0
N152 N 0.89238 0.47295 0.34279 0.0
N153 N 0.74341 0.54531 0.20585 0.0
C154 C 0.87492 0.48423 0.30242 0.0
C155 C 0.79609 0.51925 0.23078 0.0
N156 N 0.8259 0.4004 0.2876 0.0
N157 N 0.91013 0.57309 0.21677 0.0
H158 H 0.6842 0.5332 0.19928 0.0
H159 H 0.75504 0.58236 0.19676 0.0
H160 H 0.97096 0.58373 0.22088 0.0
H161 H 0.88766 0.58068 0.18708 0.0
H162 H 0.86428 0.38493 0.31014 0.0
H163 H 0.79809 0.37357 0.26863 0.0
H164 H 0.86708 0.44182 0.35778 0.0
H165 H 0.92261 0.49722 0.36284 0.0
C166 C 0.64243 0.02124 0.23277 0.0
C167 C 0.71976 0.02487 0.25284 0.0
C168 C 0.66452 0.97994 0.31361 0.0
C169 C 0.58956 0.97296 0.29222 0.0
N170 N 0.50769 0.98328 0.23034 0.0
N171 N 0.80885 1.00041 0.30914 0.0
C172 C 0.57889 0.99243 0.25143 0.0
C173 C 0.73185 1.00245 0.29252 0.0
N174 N 0.62795 0.04744 0.19693 0.0
N175 N 0.67144 0.96507 0.35411 0.0
H176 H 0.86008 0.01553 0.29444 0.0
H177 H 0.82367 0.97982 0.33559 0.0
H178 H 0.62504 0.94624 0.36998 0.0
H179 H 0.72076 0.97458 0.37302 0.0
H180 H 0.57002 0.05214 0.18404 0.0
H181 H 0.67257 0.06776 0.18117 0.0
H182 H 0.50044 0.98978 0.19866 0.0
H183 H 0.45648 0.96666 0.24391 0.0
C184 C 0.65857 0.52251 0.80329 0.0
C185 C 0.58449 0.53205 0.78184 0.0
C186 C 0.63904 0.48901 0.72005 0.0
C187 C 0.71029 0.47493 0.7426 0.0
N188 N 0.78251 0.47288 0.80848 0.0
N189 N 0.49583 0.51159 0.72454 0.0
C190 C 0.71818 0.48975 0.78516 0.0
C191 C 0.57246 0.51177 0.7415 0.0
N192 N 0.67383 0.54654 0.84011 0.0
N193 N 0.63415 0.48099 0.67817 0.0
H194 H 0.44474 0.52468 0.74072 0.0
H195 H 0.48141 0.49294 0.69698 0.0
H196 H 0.68018 0.46391 0.66076 0.0
H197 H 0.58711 0.49564 0.65993 0.0
H198 H 0.73054 0.54587 0.85486 0.0
H199 H 0.63196 0.57086 0.85427 0.0
H200 H 0.78541 0.47709 0.84063 0.0
H201 H 0.83084 0.45177 0.79652 0.0
C202 C 0.88419 0.06437 0.75346 0.0
C203 C 0.80611 0.04264 0.74566 0.0
C204 C 0.849 0.96565 0.78239 0.0
C205 C 0.92892 0.98574 0.7868 0.0
N206 N 0.02706 0.05062 0.77072 0.0
N207 N 0.71581 0.97071 0.74939 0.0
C208 C 0.94767 0.03425 0.77096 0.0
C209 C 0.78917 0.99259 0.75897 0.0
N210 N 0.89777 0.11399 0.74445 0.0
N211 N 0.82946 0.92168 0.80214 0.0
H212 H 0.6682 0.98974 0.73463 0.0
H213 H 0.70357 0.9326 0.75369 0.0
H214 H 0.87158 0.90135 0.81984 0.0
H215 H 0.77023 0.90752 0.80416 0.0
H216 H 0.94957 0.13358 0.7541 0.0
H217 H 0.85484 0.13686 0.72971 0.0
H218 H 0.04639 0.08273 0.755 0.0
H219 H 0.07537 0.02999 0.78339 0.0
C220 C 0.21863 0.52746 0.73163 0.0
C221 C 0.20878 0.54391 0.77367 0.0
C222 C 0.07075 0.50788 0.77407 0.0
C223 C 0.08485 0.48591 0.73448 0.0
N224 N 0.17851 0.46704 0.67876 0.0
N225 N 0.13004 0.53989 0.83745 0.0
C226 C 0.16042 0.49373 0.71398 0.0
C227 C 0.13649 0.53088 0.79576 0.0
N228 N 0.2834 0.54367 0.70836 0.0
N229 N 0.99331 0.50909 0.79011 0.0
H230 H 0.17611 0.55644 0.85503 0.0
H231 H 0.0818 0.52631 0.85542 0.0
H232 H 0.94293 0.49558 0.77373 0.0
H233 H 0.97778 0.52883 0.81703 0.0
H234 H 0.28783 0.53758 0.67644 0.0
H235 H 0.32996 0.56635 0.71991 0.0
H236 H 0.23615 0.46695 0.66488 0.0
H237 H 0.13817 0.44113 0.66561 0.0
C238 C 0.29391 0.99879 0.73869 0.0
C239 C 0.30592 0.98094 0.78005 0.0
C240 C 0.44523 0.01555 0.77978 0.0
C241 C 0.43187 0.03563 0.73946 0.0
N242 N 0.34085 0.05255 0.68236 0.0
N243 N 0.38641 0.9823 0.84302 0.0
C244 C 0.35564 0.0286 0.71922 0.0
C245 C 0.37949 0.99241 0.80155 0.0
N246 N 0.22265 0.98799 0.71825 0.0
N247 N 0.52204 0.01676 0.79669 0.0
H248 H 0.34026 0.96557 0.86043 0.0
H249 H 0.43487 0.99495 0.86125 0.0
H250 H 0.57205 0.03317 0.78183 0.0
H251 H 0.53817 0.99741 0.82359 0.0
H252 H 0.21425 0.9934 0.68653 0.0
H253 H 0.17187 0.97202 0.73277 0.0
H254 H 0.28384 0.05391 0.66801 0.0
H255 H 0.38464 0.07432 0.66715 0.0
C256 C 0.08534 0.51643 0.49881 0.0
C257 C 0.02674 0.52603 0.46696 0.0
C258 C 0.91601 0.49859 0.51401 0.0
C259 C 0.97428 0.48921 0.54585 0.0
N260 N 0.1145 0.48599 0.56864 0.0
N261 N 0.88484 0.53576 0.44716 0.0
C262 C 0.05906 0.49711 0.53815 0.0
C263 C 0.94171 0.51997 0.47547 0.0
N264 N 0.16541 0.5296 0.4925 0.0
N265 N 0.83649 0.48383 0.51952 0.0
H266 H 0.8998 0.54969 0.41796 0.0
H267 H 0.82258 0.53884 0.45365 0.0
H268 H 0.81502 0.46741 0.54682 0.0
H269 H 0.79306 0.4834 0.49588 0.0
H270 H 0.21063 0.52832 0.51516 0.0
H271 H 0.18663 0.54577 0.46506 0.0
H272 H 0.17751 0.48438 0.5642 0.0
H273 H 0.09726 0.47634 0.59875 0.0
C274 C 0.52598 0.02822 0.47537 0.0
C275 C 0.47272 0.98605 0.47611 0.0
C276 C 0.48395 0.98253 0.55247 0.0
C277 C 0.53342 0.02654 0.55195 0.0
N278 N 0.59556 0.09452 0.51352 0.0
N279 N 0.39145 0.92699 0.51501 0.0
C280 C 0.55226 0.05046 0.51355 0.0
C281 C 0.44945 0.9641 0.51459 0.0
N282 N 0.55467 0.04549 0.43807 0.0
N283 N 0.46981 0.95836 0.58927 0.0
H284 H 0.3648 0.91268 0.48803 0.0
H285 H 0.36479 0.91292 0.54195 0.0
H286 H 0.48885 0.97251 0.61792 0.0
H287 H 0.44307 0.92291 0.59145 0.0
H288 H 0.60097 0.07212 0.43517 0.0
H289 H 0.53655 0.03038 0.40959 0.0
H290 H 0.60236 0.11728 0.48746 0.0
H291 H 0.62135 0.11013 0.5402 0.0
C292 C 0.54959 0.45892 1.00604 0.0
C293 C 0.5324 0.48368 0.04435 0.0
C294 C 0.45452 0.54892 1.00677 0.0
C295 C 0.47584 0.5258 0.96836 0.0
N296 N 0.55397 0.46367 0.93061 0.0
N297 N 0.47589 0.55494 0.08132 0.0
C298 C 0.52584 0.48193 0.96778 0.0
C299 C 0.48747 0.52967 0.04468 0.0
N300 N 0.5888 0.41331 1.00618 0.0
N301 N 0.3993 0.58779 1.0072 0.0
H302 H 0.49349 0.54053 0.11007 0.0
H303 H 0.45308 0.59155 0.08318 0.0
H304 H 0.37357 0.60279 0.98027 0.0
H305 H 0.3737 0.60272 0.03418 0.0
H306 H 0.59405 0.39023 0.98011 0.0
H307 H 0.61254 0.39694 0.03301 0.0
H308 H 0.5979 0.43537 0.92792 0.0
H309 H 0.53839 0.47966 0.9021 0.0
C310 C 0.08978 0.99556 1.00839 0.0
C311 C 0.03485 0.9891 0.9745 0.0
C312 C 0.91999 0.01761 0.01875 0.0
C313 C 0.97508 0.02429 0.05255 0.0
N314 N 0.11288 0.02469 0.07917 0.0
N315 N 0.89747 0.9901 0.94738 0.0
C316 C 0.06017 0.01481 0.04716 0.0
C317 C 0.9498 0.99896 0.97976 0.0
N318 N 0.16946 0.98017 1.00425 0.0
N319 N 0.83992 0.03202 0.02333 0.0
H320 H 0.91749 0.98023 0.91767 0.0
H321 H 0.83401 0.99048 0.94984 0.0
H322 H 0.81613 0.0462 0.05108 0.0
H323 H 0.79743 0.03312 0.99934 0.0
H324 H 0.21109 0.97835 0.02862 0.0
H325 H 0.19337 0.96547 0.97671 0.0
H326 H 0.17629 0.0251 0.07619 0.0
H327 H 0.09329 0.03509 0.10883 0.0
C328 C 0.19898 0.73551 0.40969 0.0
C329 C 0.20168 0.70867 0.37141 0.0
C330 C 0.31152 0.76386 0.34745 0.0
C331 C 0.30032 0.79634 0.38222 0.0
N332 N 0.24332 0.80705 0.45107 0.0
N333 N 0.2457 0.70689 0.3 0.0
C334 C 0.24635 0.78056 0.41467 0.0
C335 C 0.25272 0.72615 0.33905 0.0
N336 N 0.15196 0.71733 0.44149 0.0
N337 N 0.38189 0.76498 0.32451 0.0
H338 H 0.20087 0.68094 0.29246 0.0
H339 H 0.27737 0.72145 0.27457 0.0
H340 H 0.43437 0.7837 0.33427 0.0
H341 H 0.39358 0.73973 0.30034 0.0
H342 H 0.15361 0.73097 0.47179 0.0
H343 H 0.11175 0.68717 0.43777 0.0
H344 H 0.19684 0.8035 0.47299 0.0
H345 H 0.28961 0.83161 0.46021 0.0
C346 C 0.71651 0.21099 0.18089 0.0
C347 C 0.78053 0.19987 0.15241 0.0
C348 C 0.7426 0.27522 0.11248 0.0
C349 C 0.68852 0.29144 0.14472 0.0
N350 N 0.61677 0.26913 0.20824 0.0
N351 N 0.86114 0.22511 0.09339 0.0
C352 C 0.67355 0.25781 0.17854 0.0
C353 C 0.79574 0.2333 0.11906 0.0
N354 N 0.69257 0.17524 0.20868 0.0
N355 N 0.73793 0.29661 0.07397 0.0
H356 H 0.90077 0.19448 0.0968 0.0
H357 H 0.88019 0.25121 0.07126 0.0
H358 H 0.69146 0.32162 0.0657 0.0
H359 H 0.77145 0.28366 0.04852 0.0
H360 H 0.64001 0.17773 0.22692 0.0
H361 H 0.72204 0.14085 0.21092 0.0
H362 H 0.6185 0.25395 0.23808 0.0
H363 H 0.56415 0.28982 0.2021 0.0
C364 C 0.67187 0.25504 0.64316 0.0
C365 C 0.72044 0.21053 0.64379 0.0
C366 C 0.84422 0.26279 0.63831 0.0
C367 C 0.79611 0.30709 0.64355 0.0
N368 N 0.66447 0.34376 0.65973 0.0
N369 N 0.85494 0.17278 0.64921 0.0
C370 C 0.70998 0.30277 0.64839 0.0
C371 C 0.80727 0.21456 0.64332 0.0
N372 N 0.58972 0.25227 0.63543 0.0
N373 N 0.92449 0.26648 0.62664 0.0
H374 H 0.83103 0.13691 0.65407 0.0
H375 H 0.91806 0.17453 0.65366 0.0
H376 H 0.95334 0.30081 0.62106 0.0
H377 H 0.95995 0.2354 0.61815 0.0
H378 H 0.55322 0.284 0.63062 0.0
H379 H 0.55969 0.21854 0.62896 0.0
H380 H 0.60282 0.34158 0.66792 0.0
H381 H 0.6904 0.37882 0.66535 0.0
C382 C 0.3443 0.75517 0.87827 0.0
C383 C 0.2953 0.7112 0.87436 0.0
C384 C 0.17189 0.76437 0.87804 0.0
C385 C 0.22089 0.8085 0.87625 0.0
N386 N 0.35465 0.84468 0.86545 0.0
N387 N 0.16187 0.6759 0.86095 0.0
C388 C 0.30744 0.80359 0.87385 0.0
C389 C 0.20885 0.71633 0.87163 0.0
N390 N 0.42545 0.7511 0.88806 0.0
N391 N 0.09054 0.76783 0.88766 0.0
H392 H 0.18703 0.64092 0.85386 0.0
H393 H 0.0995 0.67865 0.85448 0.0
H394 H 0.0615 0.80186 0.89462 0.0
H395 H 0.0541 0.73638 0.89331 0.0
H396 H 0.46178 0.78214 0.89528 0.0
H397 H 0.45438 0.71668 0.89353 0.0
H398 H 0.41716 0.84235 0.85918 0.0
H399 H 0.32977 0.8802 0.86018 0.0
loop_
_geom_bond_atom_site_label_1
_geom_bond_atom_site_label_2
_geom_bond_distance
_geom_bond_site_symmetry_2
_ccdc_geom_bond_type
Co0 O1 2.216 . S
Co0 O2 2.091 . S
Co0 O4 2.004 . S
Co0 O10 2.021 . S
Co0 O12 2.137 . S
Co0 O13 2.244 . S
O1 Co0 2.216 . S
O1 C8 1.247 . S
O2 Co0 2.091 . S
O2 C8 1.261 . S
C3 O12 1.247 . S
C3 O13 1.272 . S
O4 Co0 2.004 . S
O4 C9 1.259 . S
Co5 O6 2.061 . S
Co5 O11 2.052 . S
Co5 O13 2.135 . S
O6 Co5 2.061 . S
O6 C9 1.235 . S
C7 O10 1.238 . S
C7 O11 1.241 . S
C8 O1 1.247 . S
C8 O2 1.261 . S
C9 O4 1.259 . S
C9 O6 1.235 . S
O10 Co0 2.021 . S
O10 C7 1.238 . S
O11 Co5 2.052 . S
O11 C7 1.241 . S
O12 Co0 2.137 . S
O12 C3 1.247 . S
O13 Co0 2.244 . S
O13 C3 1.272 . S
O13 Co5 2.135 . S
Co14 O15 2.216 . S
Co14 O16 2.091 . S
Co14 O18 2.004 . S
Co14 O24 2.021 . S
Co14 O26 2.137 . S
Co14 O27 2.244 . S
O15 Co14 2.216 . S
O15 C22 1.247 . S
O16 Co14 2.091 . S
O16 C22 1.261 . S
C17 O26 1.247 . S
C17 O27 1.272 . S
O18 Co14 2.004 . S
O18 C23 1.259 . S
Co19 O20 2.061 . S
Co19 O25 2.052 . S
Co19 O27 2.135 . S
O20 Co19 2.061 . S
O20 C23 1.235 . S
C21 O24 1.238 . S
C21 O25 1.241 . S
C22 O15 1.247 . S
C22 O16 1.261 . S
C23 O18 1.259 . S
C23 O20 1.235 . S
O24 Co14 2.021 . S
O24 C21 1.238 . S
O25 Co19 2.052 . S
O25 C21 1.241 . S
O26 Co14 2.137 . S
O26 C17 1.247 . S
O27 Co14 2.244 . S
O27 C17 1.272 . S
O27 Co19 2.135 . S
Co28 O29 2.216 . S
Co28 O30 2.091 . S
Co28 O32 2.004 . S
Co28 O38 2.021 . S
Co28 O40 2.137 . S
Co28 O41 2.244 . S
O29 Co28 2.216 . S
O29 C36 1.247 . S
O30 Co28 2.091 . S
O30 C36 1.261 . S
C31 O40 1.247 . S
C31 O41 1.272 . S
O32 Co28 2.004 . S
O32 C37 1.259 . S
Co33 O34 2.061 . S
Co33 O39 2.052 . S
Co33 O41 2.135 . S
O34 Co33 2.061 . S
O34 C37 1.235 . S
C35 O38 1.238 . S
C35 O39 1.241 . S
C36 O29 1.247 . S
C36 O30 1.261 . S
C37 O32 1.259 . S
C37 O34 1.235 . S
O38 Co28 2.021 . S
O38 C35 1.238 . S
O39 Co33 2.052 . S
O39 C35 1.241 . S
O40 Co28 2.137 . S
O40 C31 1.247 . S
O41 Co28 2.244 . S
O41 C31 1.272 . S
O41 Co33 2.135 . S
Co42 O43 2.216 . S
Co42 O44 2.091 . S
Co42 O46 2.004 . S
Co42 O52 2.021 . S
Co42 O54 2.137 . S
Co42 O55 2.244 . S
O43 Co42 2.216 . S
O43 C50 1.247 . S
O44 Co42 2.091 . S
O44 C50 1.261 . S
C45 O54 1.247 . S
C45 O55 1.272 . S
O46 Co42 2.004 . S
O46 C51 1.259 . S
Co47 O48 2.061 . S
Co47 O53 2.052 . S
Co47 O55 2.135 . S
O48 Co47 2.061 . S
O48 C51 1.235 . S
C49 O52 1.238 . S
C49 O53 1.241 . S
C50 O43 1.247 . S
C50 O44 1.261 . S
C51 O46 1.259 . S
C51 O48 1.235 . S
O52 Co42 2.021 . S
O52 C49 1.238 . S
O53 Co47 2.052 . S
O53 C49 1.241 . S
O54 Co42 2.137 . S
O54 C45 1.247 . S
O55 Co42 2.244 . S
O55 C45 1.272 . S
O55 Co47 2.135 . S
Co56 O57 2.216 . S
Co56 O58 2.091 . S
Co56 O60 2.004 . S
Co56 O66 2.021 . S
Co56 O68 2.137 . S
Co56 O69 2.244 . S
O57 Co56 2.216 . S
O57 C64 1.247 . S
O58 Co56 2.091 . S
O58 C64 1.261 . S
C59 O68 1.247 . S
C59 O69 1.272 . S
O60 Co56 2.004 . S
O60 C65 1.259 . S
Co61 O62 2.061 . S
Co61 O67 2.052 . S
Co61 O69 2.135 . S
O62 Co61 2.061 . S
O62 C65 1.235 . S
C63 O66 1.238 . S
C63 O67 1.241 . S
C64 O57 1.247 . S
C64 O58 1.261 . S
C65 O60 1.259 . S
C65 O62 1.235 . S
O66 Co56 2.021 . S
O66 C63 1.238 . S
O67 Co61 2.052 . S
O67 C63 1.241 . S
O68 Co56 2.137 . S
O68 C59 1.247 . S
O69 Co56 2.244 . S
O69 C59 1.272 . S
O69 Co61 2.135 . S
Co70 O71 2.216 . S
Co70 O72 2.091 . S
Co70 O74 2.004 . S
Co70 O80 2.021 . S
Co70 O82 2.137 . S
Co70 O83 2.244 . S
O71 Co70 2.216 . S
O71 C78 1.247 . S
O72 Co70 2.091 . S
O72 C78 1.261 . S
C73 O82 1.247 . S
C73 O83 1.272 . S
O74 Co70 2.004 . S
O74 C79 1.259 . S
Co75 O76 2.061 . S
Co75 O81 2.052 . S
Co75 O83 2.135 . S
O76 Co75 2.061 . S
O76 C79 1.235 . S
C77 O80 1.238 . S
C77 O81 1.241 . S
C78 O71 1.247 . S
C78 O72 1.261 . S
C79 O74 1.259 . S
C79 O76 1.235 . S
O80 Co70 2.021 . S
O80 C77 1.238 . S
O81 Co75 2.052 . S
O81 C77 1.241 . S
O82 Co70 2.137 . S
O82 C73 1.247 . S
O83 Co70 2.244 . S
O83 C73 1.272 . S
O83 Co75 2.135 . S
Co84 O85 2.216 . S
Co84 O86 2.091 . S
Co84 O88 2.004 . S
Co84 O94 2.021 . S
Co84 O96 2.137 . S
Co84 O97 2.244 . S
O85 Co84 2.216 . S
O85 C92 1.247 . S
O86 Co84 2.091 . S
O86 C92 1.261 . S
C87 O96 1.247 . S
C87 O97 1.272 . S
O88 Co84 2.004 . S
O88 C93 1.259 . S
Co89 O90 2.061 . S
Co89 O95 2.052 . S
Co89 O97 2.135 . S
O90 Co89 2.061 . S
O90 C93 1.235 . S
C91 O94 1.238 . S
C91 O95 1.241 . S
C92 O85 1.247 . S
C92 O86 1.261 . S
C93 O88 1.259 . S
C93 O90 1.235 . S
O94 Co84 2.021 . S
O94 C91 1.238 . S
O95 Co89 2.052 . S
O95 C91 1.241 . S
O96 Co84 2.137 . S
O96 C87 1.247 . S
O97 Co84 2.244 . S
O97 C87 1.272 . S
O97 Co89 2.135 . S
Co98 O99 2.216 . S
Co98 O100 2.091 . S
Co98 O102 2.004 . S
Co98 O108 2.021 . S
Co98 O110 2.137 . S
Co98 O111 2.244 . S
O99 Co98 2.216 . S
O99 C106 1.247 . S
O100 Co98 2.091 . S
O100 C106 1.261 . S
C101 O110 1.247 . S
C101 O111 1.272 . S
O102 Co98 2.004 . S
O102 C107 1.259 . S
Co103 O104 2.061 . S
Co103 O109 2.052 . S
Co103 O111 2.135 . S
O104 Co103 2.061 . S
O104 C107 1.235 . S
C105 O108 1.238 . S
C105 O109 1.241 . S
C106 O99 1.247 . S
C106 O100 1.261 . S
C107 O102 1.259 . S
C107 O104 1.235 . S
O108 Co98 2.021 . S
O108 C105 1.238 . S
O109 Co103 2.052 . S
O109 C105 1.241 . S
O110 Co98 2.137 . S
O110 C101 1.247 . S
O111 Co98 2.244 . S
O111 C101 1.272 . S
O111 Co103 2.135 . S
C112 C113 1.363 . S
C112 C118 1.379 . S
C112 N120 1.356 . S
C113 C112 1.363 . S
C113 C119 1.363 . S
C114 C115 1.363 . S
C114 C119 1.379 . S
C114 N121 1.356 . S
C115 C114 1.363 . S
C115 C118 1.363 . S
N116 C118 1.356 . S
N116 H128 0.984 . S
N116 H129 0.985 . S
N117 C119 1.356 . S
N117 H122 0.984 . S
N117 H123 0.985 . S
C118 C112 1.379 . S
C118 C115 1.363 . S
C118 N116 1.356 . S
C119 C113 1.363 . S
C119 C114 1.379 . S
C119 N117 1.356 . S
N120 C112 1.356 . S
N120 H126 0.984 . S
N120 H127 0.984 . S
N121 C114 1.356 . S
N121 H124 0.984 . S
N121 H125 0.985 . S
H122 N117 0.984 . S
H123 N117 0.985 . S
H124 N121 0.984 . S
H125 N121 0.985 . S
H126 N120 0.984 . S
H127 N120 0.984 . S
H128 N116 0.984 . S
H129 N116 0.985 . S
C130 C131 1.363 . S
C130 C136 1.379 . S
C130 N138 1.356 . S
C131 C130 1.363 . S
C131 C137 1.363 1_545 S
C132 C133 1.363 . S
C132 C137 1.379 . S
C132 N139 1.356 . S
C133 C132 1.363 . S
C133 C136 1.363 1_565 S
N134 C136 1.356 . S
N134 H146 0.984 . S
N134 H147 0.985 . S
N135 C137 1.356 1_655 S
N135 H140 0.978 1_565 S
N135 H141 0.985 . S
C136 C130 1.379 . S
C136 C133 1.363 1_545 S
C136 N134 1.356 . S
C137 C131 1.363 1_565 S
C137 C132 1.379 . S
C137 N135 1.356 1_455 S
N138 C130 1.356 . S
N138 H144 0.984 . S
N138 H145 0.984 . S
N139 C132 1.356 . S
N139 H142 0.984 . S
N139 H143 0.985 . S
H140 N135 0.978 1_545 S
H141 N135 0.985 . S
H142 N139 0.984 . S
H143 N139 0.985 . S
H144 N138 0.984 . S
H145 N138 0.984 . S
H146 N134 0.984 . S
H147 N134 0.985 . S
C148 C149 1.363 . S
C148 C154 1.379 . S
C148 N156 1.356 . S
C149 C148 1.363 . S
C149 C155 1.363 . S
C150 C151 1.363 . S
C150 C155 1.379 . S
C150 N157 1.356 . S
C151 C150 1.363 . S
C151 C154 1.363 . S
N152 C154 1.356 . S
N152 H164 0.984 . S
N152 H165 0.985 . S
N153 C155 1.356 . S
N153 H158 0.984 . S
N153 H159 0.985 . S
C154 C148 1.379 . S
C154 C151 1.363 . S
C154 N152 1.356 . S
C155 C149 1.363 . S
C155 C150 1.379 . S
C155 N153 1.356 . S
N156 C148 1.356 . S
N156 H162 0.984 . S
N156 H163 0.984 . S
N157 C150 1.356 . S
N157 H160 0.984 1_655 S
N157 H161 0.985 1_655 S
H158 N153 0.984 . S
H159 N153 0.985 . S
H160 N157 0.984 1_455 S
H161 N157 0.985 1_455 S
H162 N156 0.984 . S
H163 N156 0.984 . S
H164 N152 0.984 . S
H165 N152 0.985 . S
C166 C167 1.363 . S
C166 C172 1.379 1_545 S
C166 N174 1.356 . S
C167 C166 1.363 . S
C167 C173 1.363 1_545 S
C168 C169 1.363 . S
C168 C173 1.379 . S
C168 N175 1.356 . S
C169 C168 1.363 . S
C169 C172 1.363 . S
N170 C172 1.356 . S
N170 H182 0.982 1_565 S
N170 H183 0.985 . S
N171 C173 1.356 1_545 S
N171 H176 0.984 . S
N171 H177 0.985 1_545 S
C172 C166 1.379 1_565 S
C172 C169 1.363 . S
C172 N170 1.356 . S
C173 C167 1.363 1_565 S
C173 C168 1.379 . S
C173 N171 1.356 1_565 S
N174 C166 1.356 . S
N174 H180 0.984 . S
N174 H181 0.984 . S
N175 C168 1.356 . S
N175 H178 0.984 . S
N175 H179 0.985 . S
H176 N171 0.984 . S
H177 N171 0.985 1_565 S
H178 N175 0.984 . S
H179 N175 0.985 . S
H180 N174 0.984 . S
H181 N174 0.984 . S
H182 N170 0.982 1_545 S
H183 N170 0.985 . S
C184 C185 1.363 . S
C184 C190 1.379 . S
C184 N192 1.356 . S
C185 C184 1.363 . S
C185 C191 1.363 . S
C186 C187 1.363 . S
C186 C191 1.379 . S
C186 N193 1.356 . S
C187 C186 1.363 . S
C187 C190 1.363 . S
N188 C190 1.356 . S
N188 H200 0.984 . S
N188 H201 0.985 . S
N189 C191 1.356 . S
N189 H194 0.984 . S
N189 H195 0.985 . S
C190 C184 1.379 . S
C190 C187 1.363 . S
C190 N188 1.356 . S
C191 C185 1.363 . S
C191 C186 1.379 . S
C191 N189 1.356 . S
N192 C184 1.356 . S
N192 H198 0.984 . S
N192 H199 0.984 . S
N193 C186 1.356 . S
N193 H196 0.984 . S
N193 H197 0.985 . S
H194 N189 0.984 . S
H195 N189 0.985 . S
H196 N193 0.984 . S
H197 N193 0.985 . S
H198 N192 0.984 . S
H199 N192 0.984 . S
H200 N188 0.984 . S
H201 N188 0.985 . S
C202 C203 1.363 . S
C202 C208 1.379 . S
C202 N210 1.356 . S
C203 C202 1.363 . S
C203 C209 1.363 1_545 S
C204 C205 1.363 . S
C204 C209 1.379 . S
C204 N211 1.356 . S
C205 C204 1.363 . S
C205 C208 1.363 1_565 S
N206 C208 1.356 1_455 S
N206 H218 0.984 . S
N206 H219 0.985 . S
N207 C209 1.356 . S
N207 H212 0.984 . S
N207 H213 0.985 . S
C208 C202 1.379 . S
C208 C205 1.363 1_545 S
C208 N206 1.356 1_655 S
C209 C203 1.363 1_565 S
C209 C204 1.379 . S
C209 N207 1.356 . S
N210 C202 1.356 . S
N210 H216 0.984 . S
N210 H217 0.984 . S
N211 C204 1.356 . S
N211 H214 0.984 . S
N211 H215 0.985 . S
H212 N207 0.984 . S
H213 N207 0.985 . S
H214 N211 0.984 . S
H215 N211 0.985 . S
H216 N210 0.984 . S
H217 N210 0.984 . S
H218 N206 0.984 . S
H219 N206 0.985 . S
C220 C221 1.363 . S
C220 C226 1.379 . S
C220 N228 1.356 . S
C221 C220 1.363 . S
C221 C227 1.363 . S
C222 C223 1.363 . S
C222 C227 1.379 . S
C222 N229 1.356 1_455 S
C223 C222 1.363 . S
C223 C226 1.363 . S
N224 C226 1.356 . S
N224 H236 0.984 . S
N224 H237 0.985 . S
N225 C227 1.356 . S
N225 H230 0.984 . S
N225 H231 0.985 . S
C226 C220 1.379 . S
C226 C223 1.363 . S
C226 N224 1.356 . S
C227 C221 1.363 . S
C227 C222 1.379 . S
C227 N225 1.356 . S
N228 C220 1.356 . S
N228 H234 0.984 . S
N228 H235 0.984 . S
N229 C222 1.356 1_655 S
N229 H232 0.984 . S
N229 H233 0.985 . S
H230 N225 0.984 . S
H231 N225 0.985 . S
H232 N229 0.984 . S
H233 N229 0.985 . S
H234 N228 0.984 . S
H235 N228 0.984 . S
H236 N224 0.984 . S
H237 N224 0.985 . S
C238 C239 1.363 1_545 S
C238 C244 1.379 . S
C238 N246 1.356 . S
C239 C238 1.363 1_565 S
C239 C245 1.363 . S
C240 C241 1.363 1_565 S
C240 C245 1.379 . S
C240 N247 1.356 . S
C241 C240 1.363 1_545 S
C241 C244 1.363 . S
N242 C244 1.356 . S
N242 H254 0.984 . S
N242 H255 0.985 . S
N243 C245 1.356 . S
N243 H248 0.984 . S
N243 H249 0.985 . S
C244 C238 1.379 . S
C244 C241 1.363 . S
C244 N242 1.356 . S
C245 C239 1.363 . S
C245 C240 1.379 . S
C245 N243 1.356 . S
N246 C238 1.356 . S
N246 H252 0.984 . S
N246 H253 0.984 . S
N247 C240 1.356 . S
N247 H250 0.984 . S
N247 H251 0.985 . S
H248 N243 0.984 . S
H249 N243 0.985 . S
H250 N247 0.984 . S
H251 N247 0.985 . S
H252 N246 0.984 . S
H253 N246 0.984 . S
H254 N242 0.984 . S
H255 N242 0.985 . S
C256 C257 1.363 . S
C256 C262 1.379 . S
C256 N264 1.356 . S
C257 C256 1.363 . S
C257 C263 1.363 1_455 S
C258 C259 1.363 . S
C258 C263 1.379 . S
C258 N265 1.356 . S
C259 C258 1.363 . S
C259 C262 1.363 1_655 S
N260 C262 1.356 . S
N260 H272 0.984 . S
N260 H273 0.985 . S
N261 C263 1.356 . S
N261 H266 0.984 . S
N261 H267 0.985 . S
C262 C256 1.379 . S
C262 C259 1.363 1_455 S
C262 N260 1.356 . S
C263 C257 1.363 1_655 S
C263 C258 1.379 . S
C263 N261 1.356 . S
N264 C256 1.356 . S
N264 H270 0.984 . S
N264 H271 0.984 . S
N265 C258 1.356 . S
N265 H268 0.984 . S
N265 H269 0.985 . S
H266 N261 0.984 . S
H267 N261 0.985 . S
H268 N265 0.984 . S
H269 N265 0.985 . S
H270 N264 0.984 . S
H271 N264 0.984 . S
H272 N260 0.984 . S
H273 N260 0.985 . S
C274 C275 1.363 1_545 S
C274 C280 1.379 . S
C274 N282 1.356 . S
C275 C274 1.363 1_565 S
C275 C281 1.363 . S
C276 C277 1.363 1_565 S
C276 C281 1.379 . S
C276 N283 1.356 . S
C277 C276 1.363 1_545 S
C277 C280 1.363 . S
N278 C280 1.356 . S
N278 H290 0.984 . S
N278 H291 0.985 . S
N279 C281 1.356 . S
N279 H284 0.984 . S
N279 H285 0.985 . S
C280 C274 1.379 . S
C280 C277 1.363 . S
C280 N278 1.356 . S
C281 C275 1.363 . S
C281 C276 1.379 . S
C281 N279 1.356 . S
N282 C274 1.356 . S
N282 H288 0.984 . S
N282 H289 0.984 . S
N283 C276 1.356 . S
N283 H286 0.984 . S
N283 H287 0.985 . S
H284 N279 0.984 . S
H285 N279 0.985 . S
H286 N283 0.984 . S
H287 N283 0.985 . S
H288 N282 0.984 . S
H289 N282 0.984 . S
H290 N278 0.984 . S
H291 N278 0.985 . S
C292 C293 1.363 . S
C292 C298 1.379 1_554 S
C292 N300 1.356 . S
C293 C292 1.363 . S
C293 C299 1.363 . S
C294 C295 1.363 . S
C294 C299 1.379 1_556 S
C294 N301 1.356 . S
C295 C294 1.363 . S
C295 C298 1.363 . S
N296 C298 1.356 . S
N296 H308 0.984 . S
N296 H309 0.985 . S
N297 C299 1.356 . S
N297 H302 0.984 . S
N297 H303 0.985 . S
C298 C292 1.379 1_556 S
C298 C295 1.363 . S
C298 N296 1.356 . S
C299 C293 1.363 . S
C299 C294 1.379 1_554 S
C299 N297 1.356 . S
N300 C292 1.356 . S
N300 H306 0.984 . S
N300 H307 0.984 . S
N301 C294 1.356 . S
N301 H304 0.984 . S
N301 H305 0.985 . S
H302 N297 0.984 . S
H303 N297 0.985 . S
H304 N301 0.984 . S
H305 N301 0.985 . S
H306 N300 0.984 . S
H307 N300 0.984 . S
H308 N296 0.984 . S
H309 N296 0.985 . S
C310 C311 1.363 1_554 S
C310 C316 1.370 1_565 S
C310 N318 1.356 1_554 S
C311 C310 1.363 1_556 S
C311 C317 1.372 1_455 S
C312 C313 1.363 1_556 S
C312 C317 1.370 1_545 S
C312 N319 1.356 1_556 S
C313 C312 1.363 1_554 S
C313 C316 1.372 1_655 S
N314 C316 1.360 . S
N314 H326 0.984 1_545 S
N314 H327 0.985 . S
N315 C317 1.360 . S
N315 H320 0.984 . S
N315 H321 0.985 1_565 S
C316 C310 1.370 1_545 S
C316 C313 1.372 1_455 S
C316 N314 1.360 . S
C317 C311 1.372 1_655 S
C317 C312 1.370 1_565 S
C317 N315 1.360 . S
N318 C310 1.356 1_556 S
N318 H324 0.984 1_556 S
N318 H325 0.984 . S
N319 C312 1.356 1_554 S
N319 H322 0.984 . S
N319 H323 0.985 1_554 S
H320 N315 0.984 . S
H321 N315 0.985 1_545 S
H322 N319 0.984 . S
H323 N319 0.985 1_556 S
H324 N318 0.984 1_554 S
H325 N318 0.984 . S
H326 N314 0.984 1_565 S
H327 N314 0.985 . S
C328 C329 1.363 . S
C328 C334 1.379 . S
C328 N336 1.356 . S
C329 C328 1.363 . S
C329 C335 1.363 . S
C330 C331 1.363 . S
C330 C335 1.379 . S
C330 N337 1.356 . S
C331 C330 1.363 . S
C331 C334 1.363 . S
N332 C334 1.356 . S
N332 H344 0.984 . S
N332 H345 0.985 . S
N333 C335 1.356 . S
N333 H338 0.984 . S
N333 H339 0.985 . S
C334 C328 1.379 . S
C334 C331 1.363 . S
C334 N332 1.356 . S
C335 C329 1.363 . S
C335 C330 1.379 . S
C335 N333 1.356 . S
N336 C328 1.356 . S
N336 H342 0.984 . S
N336 H343 0.984 . S
N337 C330 1.356 . S
N337 H340 0.984 . S
N337 H341 0.985 . S
H338 N333 0.984 . S
H339 N333 0.985 . S
H340 N337 0.984 . S
H341 N337 0.985 . S
H342 N336 0.984 . S
H343 N336 0.984 . S
H344 N332 0.984 . S
H345 N332 0.985 . S
C346 C347 1.363 . S
C346 C352 1.379 . S
C346 N354 1.356 . S
C347 C346 1.363 . S
C347 C353 1.363 . S
C348 C349 1.363 . S
C348 C353 1.379 . S
C348 N355 1.356 . S
C349 C348 1.363 . S
C349 C352 1.363 . S
N350 C352 1.356 . S
N350 H362 0.984 . S
N350 H363 0.985 . S
N351 C353 1.356 . S
N351 H356 0.984 . S
N351 H357 0.985 . S
C352 C346 1.379 . S
C352 C349 1.363 . S
C352 N350 1.356 . S
C353 C347 1.363 . S
C353 C348 1.379 . S
C353 N351 1.356 . S
N354 C346 1.356 . S
N354 H360 0.984 . S
N354 H361 0.984 . S
N355 C348 1.356 . S
N355 H358 0.984 . S
N355 H359 0.985 . S
H356 N351 0.984 . S
H357 N351 0.985 . S
H358 N355 0.984 . S
H359 N355 0.985 . S
H360 N354 0.984 . S
H361 N354 0.984 . S
H362 N350 0.984 . S
H363 N350 0.985 . S
C364 C365 1.363 . S
C364 C370 1.379 . S
C364 N372 1.356 . S
C365 C364 1.363 . S
C365 C371 1.363 . S
C366 C367 1.363 . S
C366 C371 1.379 . S
C366 N373 1.356 . S
C367 C366 1.363 . S
C367 C370 1.363 . S
N368 C370 1.356 . S
N368 H380 0.984 . S
N368 H381 0.985 . S
N369 C371 1.356 . S
N369 H374 0.984 . S
N369 H375 0.985 . S
C370 C364 1.379 . S
C370 C367 1.363 . S
C370 N368 1.356 . S
C371 C365 1.363 . S
C371 C366 1.379 . S
C371 N369 1.356 . S
N372 C364 1.356 . S
N372 H378 0.984 . S
N372 H379 0.984 . S
N373 C366 1.356 . S
N373 H376 0.984 . S
N373 H377 0.985 . S
H374 N369 0.984 . S
H375 N369 0.985 . S
H376 N373 0.984 . S
H377 N373 0.985 . S
H378 N372 0.984 . S
H379 N372 0.984 . S
H380 N368 0.984 . S
H381 N368 0.985 . S
C382 C383 1.363 . S
C382 C388 1.379 . S
C382 N390 1.356 . S
C383 C382 1.363 . S
C383 C389 1.363 . S
C384 C385 1.363 . S
C384 C389 1.379 . S
C384 N391 1.356 . S
C385 C384 1.363 . S
C385 C388 1.363 . S
N386 C388 1.356 . S
N386 H398 0.984 . S
N386 H399 0.985 . S
N387 C389 1.356 . S
N387 H392 0.984 . S
N387 H393 0.985 . S
C388 C382 1.379 . S
C388 C385 1.363 . S
C388 N386 1.356 . S
C389 C383 1.363 . S
C389 C384 1.379 . S
C389 N387 1.356 . S
N390 C382 1.356 . S
N390 H396 0.984 . S
N390 H397 0.984 . S
N391 C384 1.356 . S
N391 H394 0.984 . S
N391 H395 0.985 . S
H392 N387 0.984 . S
H393 N387 0.985 . S
H394 N391 0.984 . S
H395 N391 0.985 . S
H396 N390 0.984 . S
H397 N390 0.984 . S
H398 N386 0.984 . S
H399 N386 0.985 . S
C113 C9 1.418 . S
C115 C35 1.404 . S
C131 C49 1.404 1_455 S
C133 C23 1.418 . S
C149 C37 1.418 . S
C151 C7 1.404 1_655 S
C167 C51 1.418 . S
C169 C21 1.404 . S
C185 C91 1.404 . S
C187 C65 1.418 . S
C203 C79 1.418 . S
C205 C105 1.404 1_655 S
C221 C93 1.418 . S
C223 C63 1.404 1_455 S
C239 C107 1.418 . S
C241 C77 1.404 . S
C257 C8 1.525 . S
C259 C64 1.525 . S
C275 C22 1.525 . S
C277 C78 1.525 . S
C293 C36 1.525 . S
C295 C92 1.525 . S
C311 C106 1.525 . S
C313 C50 1.525 . S
C329 C3 1.527 . S
C331 C17 1.527 . S
C347 C45 1.527 . S
C349 C31 1.527 . S
C365 C73 1.527 . S
C367 C59 1.527 . S
C383 C87 1.527 . S
C385 C101 1.527 . S
