# Generated by pormake.
# Topology fns, (5)-cn, num edge types: 1
# Building blocks:
#     Node 0, Type 0, BuildingBlock: XOMCOT_clean_sbu_0, # of connection points: 5
#     Node 1, Type 0, BuildingBlock: XOMCOT_clean_sbu_0, # of connection points: 5
#     Node 2, Type 0, BuildingBlock: XOMCOT_clean_sbu_0, # of connection points: 5
#     Node 3, Type 0, BuildingBlock: XOMCOT_clean_sbu_0, # of connection points: 5
#     Node 4, Type 0, BuildingBlock: XOMCOT_clean_sbu_0, # of connection points: 5
#     Node 5, Type 0, BuildingBlock: XOMCOT_clean_sbu_0, # of connection points: 5
#     Edge 6, Type (0, 0), BuildingBlock: ZUJKAS_clean_linker_0, # of connection points: 2
#     Edge 7, Type (0, 0), BuildingBlock: ZUJKAS_clean_linker_0, # of connection points: 2
#     Edge 8, Type (0, 0), BuildingBlock: ZUJKAS_clean_linker_0, # of connection points: 2
#     Edge 9, Type (0, 0), BuildingBlock: ZUJKAS_clean_linker_0, # of connection points: 2
#     Edge 10, Type (0, 0), BuildingBlock: ZUJKAS_clean_linker_0, # of connection points: 2
#     Edge 11, Type (0, 0), BuildingBlock: ZUJKAS_clean_linker_0, # of connection points: 2
#     Edge 12, Type (0, 0), BuildingBlock: ZUJKAS_clean_linker_0, # of connection points: 2
#     Edge 13, Type (0, 0), BuildingBlock: ZUJKAS_clean_linker_0, # of connection points: 2
#     Edge 14, Type (0, 0), BuildingBlock: ZUJKAS_clean_linker_0, # of connection points: 2
#     Edge 15, Type (0, 0), BuildingBlock: ZUJKAS_clean_linker_0, # of connection points: 2
#     Edge 16, Type (0, 0), BuildingBlock: ZUJKAS_clean_linker_0, # of connection points: 2
#     Edge 17, Type (0, 0), BuildingBlock: ZUJKAS_clean_linker_0, # of connection points: 2
#     Edge 18, Type (0, 0), BuildingBlock: ZUJKAS_clean_linker_0, # of connection points: 2
#     Edge 19, Type (0, 0), BuildingBlock: ZUJKAS_clean_linker_0, # of connection points: 2
#     Edge 20, Type (0, 0), BuildingBlock: ZUJKAS_clean_linker_0, # of connection points: 2
# Relax obj value: 0.201
# Max RMSD: 0.295
# Mean RMSD: 0.294
data_MOF--net-fns--node1-XOMCOT_clean_sbu_0--edge1-ZUJKAS_clean_linker_0
_symmetry_space_group_name_H-M    P1
_symmetry_Int_Tables_number       1
_symmetry_cell_setting            triclinic
loop_
_symmetry_equiv_pos_as_xyz
'x, y, z'
_cell_length_a     70.582752
_cell_length_b     70.739581
_cell_length_c     22.018612
_cell_angle_alpha  89.990569
_cell_angle_beta   90.04764
_cell_angle_gamma 119.94364
loop_
_atom_site_label
_atom_site_type_symbol
_atom_site_fract_x
_atom_site_fract_y
_atom_site_fract_z
_atom_type_partial_charge
Co0 Co 0.18067 0.61852 0.17325 0.0
C1 C 0.18282 0.61538 0.30645 0.0
C2 C 0.20452 0.60691 0.26131 0.0
C3 C 0.20674 0.60564 0.3231 0.0
N4 N 0.18945 0.61291 0.2511 0.0
N5 N 0.19312 0.61101 0.35143 0.0
H6 H 0.17074 0.62033 0.31347 0.0
H7 H 0.21361 0.60412 0.22639 0.0
C8 C 0.17453 0.58004 0.09833 0.0
O9 O 0.15545 0.57655 0.07876 0.0
N10 N 0.17247 0.62462 0.09416 0.0
C11 C 0.1599 0.63354 0.08154 0.0
C12 C 0.15945 0.63607 0.01969 0.0
C13 C 0.1803 0.62289 0.03964 0.0
N14 N 0.17219 0.62923 0.99328 0.0
C15 C 0.13618 0.60523 0.20311 0.0
C16 C 0.12252 0.56173 0.22312 0.0
C17 C 0.1072 0.56879 0.22721 0.0
C18 C 0.11443 0.59098 0.21843 0.0
C19 C 0.14417 0.57661 0.20778 0.0
N20 N 0.15045 0.59779 0.19412 0.0
H21 H 0.14164 0.62237 0.20043 0.0
H22 H 0.15589 0.57105 0.2076 0.0
H23 H 0.15215 0.63875 0.11434 0.0
H24 H 0.19218 0.61762 0.03404 0.0
O25 O 0.1828 0.64489 0.20608 0.0
O26 O 0.20974 0.6426 0.16142 0.0
O27 O 0.18561 0.59535 0.13614 0.0
C28 C 0.20322 0.65451 0.18953 0.0
H29 H 0.218 0.6017 0.34539 0.0
H30 H 0.15036 0.64243 0.99615 0.0
H31 H 0.11784 0.54485 0.23107 0.0
H32 H 0.10346 0.59739 0.22443 0.0
Co33 Co 0.5638 0.18711 0.50751 0.0
C34 C 0.5692 0.1894 0.64084 0.0
C35 C 0.5998 0.20868 0.59487 0.0
C36 C 0.60351 0.21095 0.65652 0.0
N37 N 0.57834 0.19513 0.58524 0.0
N38 N 0.58425 0.19887 0.68549 0.0
H39 H 0.55184 0.17894 0.64817 0.0
H40 H 0.61189 0.21658 0.55957 0.0
C41 C 0.59246 0.17564 0.43349 0.0
O42 O 0.57507 0.15783 0.41429 0.0
N43 N 0.54945 0.1798 0.42832 0.0
C44 C 0.52785 0.16913 0.41571 0.0
C45 C 0.52499 0.16867 0.35384 0.0
C46 C 0.55929 0.18675 0.37368 0.0
N47 N 0.5448 0.17961 0.32731 0.0
C48 C 0.52928 0.14381 0.53687 0.0
C49 C 0.55594 0.1262 0.55714 0.0
C50 C 0.53322 0.11237 0.55739 0.0
C51 C 0.51983 0.12156 0.54911 0.0
C52 C 0.56466 0.14834 0.54448 0.0
N53 N 0.55134 0.15655 0.52987 0.0
H54 H 0.51882 0.15079 0.53396 0.0
H55 H 0.58218 0.15882 0.54592 0.0
H56 H 0.51482 0.16293 0.44851 0.0
H57 H 0.57676 0.19685 0.36795 0.0
O58 O 0.5413 0.19252 0.53855 0.0
O59 O 0.57199 0.21705 0.49372 0.0
O60 O 0.5906 0.18835 0.4712 0.0
C61 C 0.55374 0.21254 0.52024 0.0
H62 H 0.61924 0.22072 0.67815 0.0
H63 H 0.50944 0.16138 0.33041 0.0
H64 H 0.56694 0.11992 0.56496 0.0
H65 H 0.5022 0.11167 0.55225 0.0
Co66 Co 0.37208 0.5619 0.8319 0.0
C67 C 0.3763 0.5676 0.96693 0.0
C68 C 0.38329 0.59693 0.92033 0.0
C69 C 0.38431 0.60078 0.98181 0.0
N70 N 0.37881 0.57626 0.91076 0.0
N71 N 0.37984 0.58228 0.01108 0.0
H72 H 0.37119 0.55079 0.97592 0.0
H73 H 0.38492 0.60825 0.88493 0.0
C74 C 0.41549 0.60254 0.81342 0.0
O75 O 0.42254 0.59884 0.86484 0.0
N76 N 0.36502 0.54802 0.7534 0.0
C77 C 0.35767 0.52683 0.74137 0.0
C78 C 0.35581 0.5239 0.67934 0.0
C79 C 0.36739 0.55769 0.69904 0.0
N80 N 0.36199 0.54335 0.65273 0.0
C81 C 0.38529 0.53352 0.88832 0.0
C82 C 0.42208 0.54625 0.81791 0.0
C83 C 0.41744 0.53105 0.86444 0.0
C84 C 0.39856 0.52441 0.8993 0.0
C85 C 0.40843 0.55497 0.80875 0.0
N86 N 0.39102 0.54962 0.84614 0.0
H87 H 0.37005 0.52708 0.91251 0.0
H88 H 0.41173 0.56572 0.77056 0.0
H89 H 0.35438 0.51449 0.77526 0.0
H90 H 0.37296 0.57487 0.69367 0.0
O91 O 0.34473 0.53863 0.86404 0.0
O92 O 0.34953 0.56926 0.82225 0.0
O93 O 0.39636 0.5891 0.79382 0.0
C94 C 0.33646 0.5508 0.84852 0.0
H95 H 0.38709 0.61573 1.0032 0.0
H96 H 0.3509 0.50873 0.65576 0.0
H97 H 0.43618 0.55145 0.78878 0.0
H98 H 0.39376 0.51188 0.93365 0.0
Co99 Co 0.80588 0.37171 0.17625 0.0
C100 C 0.80173 0.37282 0.30937 0.0
C101 C 0.77914 0.37983 0.26312 0.0
C102 C 0.77629 0.38052 0.32482 0.0
N103 N 0.79516 0.37511 0.25369 0.0
N104 N 0.7905 0.37611 0.35388 0.0
H105 H 0.81462 0.36902 0.31692 0.0
H106 H 0.77004 0.38237 0.22766 0.0
C107 C 0.81367 0.41152 0.10613 0.0
O108 O 0.83272 0.41458 0.08776 0.0
N109 N 0.81602 0.36791 0.09738 0.0
C110 C 0.83066 0.36155 0.08407 0.0
C111 C 0.83159 0.35978 0.02203 0.0
C112 C 0.80768 0.36904 0.04306 0.0
N113 N 0.81719 0.36459 0.99619 0.0
C114 C 0.84945 0.38414 0.2152 0.0
C115 C 0.86292 0.42746 0.23744 0.0
C116 C 0.87816 0.42034 0.2428 0.0
C117 C 0.87099 0.39818 0.23325 0.0
C118 C 0.84155 0.41282 0.21927 0.0
N119 N 0.83549 0.39182 0.20398 0.0
H120 H 0.84397 0.367 0.21099 0.0
H121 H 0.82988 0.41843 0.21812 0.0
H122 H 0.83967 0.35768 0.11629 0.0
H123 H 0.79456 0.37265 0.03813 0.0
O124 O 0.80294 0.34442 0.2044 0.0
O125 O 0.77726 0.34811 0.15651 0.0
O126 O 0.80186 0.39589 0.14228 0.0
C127 C 0.78313 0.33537 0.18279 0.0
H128 H 0.76434 0.38362 0.34647 0.0
H129 H 0.84215 0.35532 0.99798 0.0
H130 H 0.86742 0.44417 0.2475 0.0
H131 H 0.88197 0.39176 0.23854 0.0
Co132 Co 0.43144 0.80774 0.50926 0.0
C133 C 0.42537 0.80631 0.6441 0.0
C134 C 0.39708 0.78178 0.59773 0.0
C135 C 0.39331 0.77891 0.65924 0.0
N136 N 0.41699 0.79931 0.58797 0.0
N137 N 0.41117 0.79432 0.68838 0.0
H138 H 0.44174 0.81927 0.65301 0.0
H139 H 0.38631 0.77123 0.56246 0.0
C140 C 0.38841 0.80568 0.48874 0.0
O141 O 0.391 0.81616 0.54011 0.0
N142 N 0.44548 0.81536 0.43094 0.0
C143 C 0.4663 0.83062 0.419 0.0
C144 C 0.46935 0.83177 0.357 0.0
C145 C 0.43617 0.80733 0.37652 0.0
N146 N 0.45036 0.81715 0.3303 0.0
C147 C 0.45672 0.85013 0.56368 0.0
C148 C 0.44056 0.87102 0.49237 0.0
C149 C 0.45576 0.88287 0.53793 0.0
C150 C 0.46418 0.87226 0.57312 0.0
C151 C 0.4337 0.84898 0.48422 0.0
N152 N 0.44073 0.83842 0.5221 0.0
H153 H 0.46439 0.84266 0.58863 0.0
H154 H 0.42319 0.84066 0.44615 0.0
H155 H 0.47825 0.84055 0.4529 0.0
H156 H 0.41935 0.79458 0.37101 0.0
O157 O 0.45635 0.807 0.54332 0.0
O158 O 0.42741 0.77889 0.50142 0.0
O159 O 0.40317 0.80167 0.46989 0.0
C160 C 0.44613 0.7864 0.5289 0.0
H161 H 0.37896 0.76584 0.68078 0.0
H162 H 0.48424 0.84299 0.33347 0.0
H163 H 0.43451 0.87888 0.46204 0.0
H164 H 0.47649 0.88099 0.60752 0.0
Co165 Co 0.62158 0.43268 0.8437 0.0
C166 C 0.61881 0.42741 0.97695 0.0
C167 C 0.61029 0.39735 0.93144 0.0
C168 C 0.60896 0.39378 0.99318 0.0
N169 N 0.61634 0.41838 0.92149 0.0
N170 N 0.61435 0.4127 0.02176 0.0
H171 H 0.62371 0.44438 0.98414 0.0
H172 H 0.60742 0.38552 0.89634 0.0
C173 C 0.58239 0.40144 0.76951 0.0
O174 O 0.57996 0.41766 0.74984 0.0
N175 N 0.6273 0.44685 0.7646 0.0
C176 C 0.6358 0.46823 0.75173 0.0
C177 C 0.63822 0.4711 0.68984 0.0
C178 C 0.62569 0.43727 0.71022 0.0
N179 N 0.63172 0.45158 0.66369 0.0
C180 C 0.60937 0.46461 0.87589 0.0
C181 C 0.56549 0.43539 0.89374 0.0
C182 C 0.57282 0.4578 0.89673 0.0
C183 C 0.59523 0.47247 0.8896 0.0
C184 C 0.58023 0.4283 0.88005 0.0
N185 N 0.60156 0.44289 0.86666 0.0
H186 H 0.62665 0.47602 0.87377 0.0
H187 H 0.57437 0.411 0.88013 0.0
H188 H 0.64077 0.48119 0.78432 0.0
H189 H 0.62062 0.42019 0.70488 0.0
O190 O 0.64883 0.45651 0.8745 0.0
O191 O 0.64489 0.42674 0.82921 0.0
O192 O 0.59745 0.4049 0.80759 0.0
C193 C 0.65769 0.44519 0.856 0.0
H194 H 0.60491 0.37855 0.01526 0.0
H195 H 0.64425 0.48644 0.66608 0.0
H196 H 0.54844 0.42338 0.90051 0.0
H197 H 0.60183 0.48987 0.89489 0.0
H198 H 0.2156 0.58735 0.11906 0.0
H199 H 0.23393 0.5702 0.07035 0.0
H200 H 0.17492 0.52723 0.97203 0.0
H201 H 0.15645 0.54511 0.0194 0.0
H202 H 0.22741 0.52967 0.06768 0.0
H203 H 0.21776 0.5547 0.83491 0.0
H204 H 0.21081 0.56461 0.9018 0.0
H205 H 0.19312 0.53719 0.87589 0.0
C206 C 0.20635 0.57417 0.08739 0.0
C207 C 0.18458 0.56778 0.07265 0.0
C208 C 0.21688 0.56429 0.05967 0.0
C209 C 0.20593 0.54762 0.01685 0.0
C210 C 0.18385 0.5404 1.00394 0.0
H211 H 0.30319 0.51176 0.89145 0.0
H212 H 0.26675 0.50399 0.92454 0.0
C213 C 0.17328 0.55053 0.03131 0.0
C214 C 0.21854 0.53912 0.98427 0.0
H215 H 0.24195 0.54156 0.8468 0.0
C216 C 0.23033 0.53184 0.01914 0.0
C217 C 0.2222 0.54188 0.92088 0.0
C218 C 0.21046 0.55014 0.881 0.0
C219 C 0.24716 0.52933 0.99363 0.0
C220 C 0.25172 0.53338 0.93085 0.0
C221 C 0.23847 0.53856 0.89493 0.0
C222 C 0.27232 0.53632 0.90398 0.0
C223 C 0.26107 0.52427 0.03525 0.0
C224 C 0.28709 0.55663 0.87858 0.0
C225 C 0.30756 0.5609 0.85856 0.0
C226 C 0.31386 0.54503 0.86403 0.0
C227 C 0.29882 0.52437 0.88729 0.0
C228 C 0.27807 0.51996 0.90653 0.0
H229 H 0.25766 0.52541 0.08396 0.0
H230 H 0.25767 0.50742 0.02649 0.0
H231 H 0.27872 0.53564 0.02685 0.0
H232 H 0.2831 0.56955 0.87615 0.0
H233 H 0.31874 0.57698 0.84081 0.0
H234 H 0.6325 0.20435 0.47899 0.0
H235 H 0.66686 0.22319 0.42269 0.0
H236 H 0.63517 0.184 0.26482 0.0
H237 H 0.60061 0.16484 0.32105 0.0
H238 H 0.69039 0.20342 0.32225 0.0
H239 H 0.65618 0.25602 0.25019 0.0
H240 H 0.64932 0.24305 0.32372 0.0
H241 H 0.63894 0.22683 0.25642 0.0
C242 C 0.63298 0.19929 0.43284 0.0
C243 C 0.61386 0.1833 0.40416 0.0
C244 C 0.65264 0.20997 0.40093 0.0
C245 C 0.65344 0.20492 0.33984 0.0
C246 C 0.63481 0.1879 0.31223 0.0
H247 H 0.74822 0.3091 0.11226 0.0
H248 H 0.71774 0.27318 0.13898 0.0
C249 C 0.61512 0.17702 0.34438 0.0
C250 C 0.6725 0.22001 0.30306 0.0
H251 H 0.69295 0.26846 0.22866 0.0
C252 C 0.69096 0.21749 0.30073 0.0
C253 C 0.67298 0.23816 0.27489 0.0
C254 C 0.65336 0.24134 0.27603 0.0
C255 C 0.71029 0.23319 0.27214 0.0
C256 C 0.71122 0.25209 0.2471 0.0
C257 C 0.69233 0.254 0.24759 0.0
C258 C 0.73177 0.27103 0.22446 0.0
C259 C 0.72946 0.22935 0.26932 0.0
C260 C 0.75025 0.28144 0.26232 0.0
C261 C 0.76792 0.30176 0.24631 0.0
C262 C 0.76708 0.31222 0.19307 0.0
C263 C 0.74918 0.30135 0.1537 0.0
C264 C 0.73178 0.28084 0.16896 0.0
H265 H 0.72386 0.21163 0.26821 0.0
H266 H 0.7398 0.2372 0.22882 0.0
H267 H 0.73962 0.23623 0.31068 0.0
H268 H 0.75046 0.2746 0.30613 0.0
H269 H 0.78144 0.30996 0.27776 0.0
H270 H 0.47897 0.79483 0.60941 0.0
H271 H 0.4875 0.76822 0.65428 0.0
H272 H 0.43907 0.71796 0.53915 0.0
H273 H 0.43062 0.74434 0.49408 0.0
H274 H 0.4565 0.73307 0.71738 0.0
H275 H 0.48825 0.70392 0.53284 0.0
H276 H 0.48818 0.7294 0.52835 0.0
H277 H 0.46397 0.70405 0.50955 0.0
C278 C 0.47061 0.77824 0.59249 0.0
C279 C 0.45406 0.77161 0.54844 0.0
C280 C 0.4755 0.76307 0.61816 0.0
C281 C 0.46414 0.74118 0.59949 0.0
C282 C 0.44843 0.73486 0.55325 0.0
H283 H 0.40726 0.61325 0.70154 0.0
H284 H 0.42565 0.64886 0.65283 0.0
C285 C 0.44346 0.74993 0.5279 0.0
C286 C 0.46595 0.72417 0.63402 0.0
H287 H 0.46869 0.67779 0.61387 0.0
C288 C 0.45982 0.72131 0.69541 0.0
C289 C 0.47035 0.70892 0.60523 0.0
C290 C 0.47828 0.71187 0.54049 0.0
C291 C 0.45593 0.70251 0.72716 0.0
C292 C 0.45867 0.68639 0.69684 0.0
C293 C 0.4665 0.69012 0.63692 0.0
C294 C 0.45014 0.66433 0.72303 0.0
C295 C 0.44717 0.69924 0.79117 0.0
C296 C 0.45829 0.66101 0.77776 0.0
C297 C 0.44765 0.64058 0.80618 0.0
C298 C 0.42877 0.62321 0.78007 0.0
C299 C 0.42158 0.62632 0.72333 0.0
C300 C 0.43216 0.64666 0.69516 0.0
H301 H 0.44307 0.71191 0.80475 0.0
H302 H 0.43227 0.68297 0.7959 0.0
H303 H 0.45966 0.69999 0.82325 0.0
H304 H 0.47238 0.67438 0.79948 0.0
H305 H 0.45369 0.63866 0.84964 0.0
H306 H 0.68943 0.48334 0.90747 0.0
H307 H 0.72616 0.49176 0.93945 0.0
H308 H 0.71358 0.42948 0.86998 0.0
H309 H 0.67767 0.42151 0.83599 0.0
H310 H 0.73567 0.47242 0.02168 0.0
H311 H 0.7745 0.46503 0.81485 0.0
H312 H 0.75021 0.46741 0.81176 0.0
H313 H 0.74818 0.44103 0.81974 0.0
C314 C 0.6948 0.47175 0.8977 0.0
C315 C 0.68069 0.45178 0.86919 0.0
C316 C 0.71577 0.47657 0.91595 0.0
C317 C 0.72291 0.46147 0.90607 0.0
C318 C 0.70892 0.4418 0.87621 0.0
H319 H 0.77392 0.40726 0.1298 0.0
H320 H 0.75747 0.4266 0.0831 0.0
C321 C 0.68819 0.43712 0.85738 0.0
C322 C 0.74343 0.4645 0.93389 0.0
H323 H 0.7832 0.45143 0.9091 0.0
C324 C 0.74649 0.4685 0.9966 0.0
C325 C 0.75819 0.46021 0.90139 0.0
C326 C 0.7577 0.45847 0.83307 0.0
C327 C 0.76218 0.46579 0.0285 0.0
C328 C 0.77453 0.45811 0.99724 0.0
C329 C 0.7733 0.45667 0.93362 0.0
C330 C 0.78595 0.44831 0.02988 0.0
C331 C 0.76466 0.47033 0.09584 0.0
C332 C 0.80737 0.45359 0.01455 0.0
C333 C 0.81679 0.44212 0.04056 0.0
C334 C 0.80488 0.42515 0.08214 0.0
C335 C 0.78367 0.42031 0.09831 0.0
C336 C 0.77427 0.43159 0.07208 0.0
H337 H 0.76217 0.48427 0.10691 0.0
H338 H 0.75194 0.45586 0.1205 0.0
H339 H 0.78102 0.47407 0.11253 0.0
H340 H 0.81661 0.46625 0.98154 0.0
H341 H 0.83314 0.4462 0.02703 0.0
H342 H 0.38015 0.78829 0.3748 0.0
H343 H 0.34547 0.77115 0.32061 0.0
H344 H 0.31562 0.78739 0.46719 0.0
H345 H 0.35042 0.80446 0.52252 0.0
H346 H 0.29343 0.74412 0.43767 0.0
H347 H 0.31034 0.79292 0.2284 0.0
H348 H 0.33081 0.78543 0.2415 0.0
H349 H 0.32764 0.80296 0.29483 0.0
C350 C 0.36634 0.78856 0.39527 0.0
C351 C 0.36802 0.79762 0.45321 0.0
C352 C 0.34655 0.77895 0.36381 0.0
C353 C 0.32804 0.77831 0.38937 0.0
C354 C 0.32979 0.78793 0.4464 0.0
H355 H 0.19597 0.68134 0.26363 0.0
H356 H 0.22382 0.71546 0.31047 0.0
C357 C 0.34967 0.79765 0.47793 0.0
C358 C 0.30648 0.7651 0.35976 0.0
H359 H 0.28119 0.75507 0.22175 0.0
C360 C 0.29044 0.7468 0.39099 0.0
C361 C 0.30265 0.76868 0.2989 0.0
C362 C 0.31871 0.78871 0.26421 0.0
C363 C 0.27147 0.73102 0.36151 0.0
C364 C 0.26833 0.73388 0.29941 0.0
C365 C 0.28368 0.75291 0.2693 0.0
C366 C 0.25095 0.71594 0.26336 0.0
C367 C 0.25579 0.71064 0.3958 0.0
C368 C 0.2569 0.70567 0.21895 0.0
C369 C 0.24109 0.68634 0.19193 0.0
C370 C 0.21903 0.67696 0.20884 0.0
C371 C 0.21287 0.68814 0.24996 0.0
C372 C 0.22875 0.70755 0.27698 0.0
H373 H 0.26239 0.70951 0.44065 0.0
H374 H 0.24027 0.71064 0.40368 0.0
H375 H 0.25197 0.69584 0.36903 0.0
H376 H 0.27395 0.71194 0.20768 0.0
H377 H 0.24633 0.6782 0.16009 0.0
H378 H 0.51464 0.2077 0.55861 0.0
H379 H 0.50695 0.23676 0.58667 0.0
H380 H 0.57332 0.28498 0.54121 0.0
H381 H 0.58068 0.25627 0.51075 0.0
H382 H 0.52312 0.26371 0.67437 0.0
H383 H 0.54337 0.31402 0.46918 0.0
H384 H 0.53979 0.28691 0.46729 0.0
H385 H 0.56607 0.31021 0.48552 0.0
C386 C 0.5274 0.22455 0.55342 0.0
C387 C 0.54824 0.22974 0.53236 0.0
C388 C 0.52299 0.24113 0.56938 0.0
C389 C 0.53939 0.26315 0.56485 0.0
C390 C 0.5601 0.26824 0.54298 0.0
H391 H 0.58391 0.36504 0.80069 0.0
H392 H 0.56642 0.32997 0.75009 0.0
C393 C 0.56439 0.25175 0.52619 0.0
C394 C 0.53608 0.28079 0.58985 0.0
H395 H 0.55178 0.33428 0.56641 0.0
C396 C 0.52879 0.27893 0.65006 0.0
C397 C 0.54267 0.3005 0.55795 0.0
C398 C 0.54813 0.30286 0.49117 0.0
C399 C 0.53022 0.29692 0.68103 0.0
C400 C 0.53993 0.31745 0.65174 0.0
C401 C 0.5449 0.31871 0.58962 0.0
C402 C 0.54815 0.33808 0.6864 0.0
C403 C 0.52208 0.29385 0.7456 0.0
C404 C 0.54412 0.35467 0.6669 0.0
C405 C 0.55454 0.37513 0.69534 0.0
C406 C 0.56924 0.37931 0.74349 0.0
C407 C 0.57265 0.36242 0.76395 0.0
C408 C 0.5624 0.34216 0.73541 0.0
H409 H 0.50748 0.27743 0.75166 0.0
H410 H 0.53496 0.29492 0.77668 0.0
H411 H 0.51777 0.30637 0.75894 0.0
H412 H 0.53337 0.35198 0.62871 0.0
H413 H 0.55164 0.38783 0.67835 0.0
H414 H 0.16888 0.65388 0.90387 0.0
H415 H 0.17264 0.65061 0.79471 0.0
H416 H 0.18741 0.59921 0.82671 0.0
H417 H 0.1834 0.60216 0.93615 0.0
H418 H 0.21563 0.63161 0.74159 0.0
H419 H 0.12797 0.59991 0.68791 0.0
H420 H 0.14069 0.6248 0.73097 0.0
H421 H 0.13759 0.6002 0.76411 0.0
C422 C 0.17277 0.64176 0.88785 0.0
C423 C 0.17567 0.62818 0.929 0.0
C424 C 0.17492 0.63992 0.82535 0.0
C425 C 0.17993 0.62442 0.80257 0.0
C426 C 0.18344 0.61123 0.84339 0.0
H427 H 0.19985 0.58835 0.43986 0.0
H428 H 0.19695 0.59167 0.54949 0.0
C429 C 0.18126 0.61303 0.90599 0.0
C430 C 0.18156 0.62204 0.73611 0.0
H431 H 0.15212 0.60913 0.6043 0.0
C432 C 0.20174 0.62659 0.71154 0.0
C433 C 0.16341 0.61554 0.69706 0.0
C434 C 0.14112 0.60964 0.72122 0.0
C435 C 0.20439 0.62527 0.64871 0.0
C436 C 0.18623 0.61877 0.60961 0.0
C437 C 0.16603 0.61415 0.63428 0.0
C438 C 0.18781 0.6166 0.54298 0.0
C439 C 0.22674 0.63137 0.62464 0.0
C440 C 0.18298 0.62901 0.50271 0.0
C441 C 0.18451 0.62706 0.4399 0.0
C442 C 0.19086 0.6126 0.41611 0.0
C443 C 0.19533 0.59993 0.45664 0.0
C444 C 0.19371 0.60184 0.51937 0.0
H445 H 0.23985 0.6415 0.65761 0.0
H446 H 0.22748 0.61629 0.61612 0.0
H447 H 0.2301 0.64047 0.58119 0.0
H448 H 0.17829 0.64043 0.51994 0.0
H449 H 0.18116 0.63721 0.4101 0.0
H450 H 0.60987 0.22755 0.77252 0.0
H451 H 0.60405 0.22411 0.88204 0.0
H452 H 0.54405 0.16326 0.85618 0.0
H453 H 0.55018 0.16609 0.74655 0.0
H454 H 0.57036 0.22199 0.94851 0.0
H455 H 0.5752 0.14683 0.98264 0.0
H456 H 0.58379 0.1624 0.91313 0.0
H457 H 0.55526 0.14385 0.92712 0.0
C458 C 0.5956 0.21323 0.78992 0.0
C459 C 0.5806 0.197 0.75036 0.0
C460 C 0.59222 0.21139 0.85269 0.0
C461 C 0.57381 0.19327 0.87745 0.0
C462 C 0.55862 0.17718 0.83822 0.0
H463 H 0.51913 0.15354 0.23639 0.0
H464 H 0.52686 0.15785 0.12773 0.0
C465 C 0.56202 0.17896 0.77537 0.0
C466 C 0.57029 0.19154 0.9442 0.0
H467 H 0.56285 0.1589 0.0667 0.0
C468 C 0.56886 0.20827 0.97444 0.0
C469 C 0.56841 0.17366 0.978 0.0
C470 C 0.57095 0.15576 0.94874 0.0
C471 C 0.56505 0.20733 0.03728 0.0
C472 C 0.56288 0.18931 0.07086 0.0
C473 C 0.56448 0.17267 0.04077 0.0
C474 C 0.55836 0.18711 0.13703 0.0
C475 C 0.56282 0.22533 0.06702 0.0
C476 C 0.5736 0.20206 0.17846 0.0
C477 C 0.56917 0.19973 0.24084 0.0
C478 C 0.5494 0.18236 0.26297 0.0
C479 C 0.5343 0.16735 0.22112 0.0
C480 C 0.53877 0.16967 0.15891 0.0
H481 H 0.56018 0.23544 0.03316 0.0
H482 H 0.54901 0.21853 0.09972 0.0
H483 H 0.57802 0.23615 0.09253 0.0
H484 H 0.58899 0.21545 0.16257 0.0
H485 H 0.58116 0.21164 0.27152 0.0
H486 H 0.33972 0.51488 0.56174 0.0
H487 H 0.34333 0.52236 0.45281 0.0
H488 H 0.39046 0.5898 0.48816 0.0
H489 H 0.38763 0.58233 0.59699 0.0
H490 H 0.33549 0.55097 0.3866 0.0
H491 H 0.42241 0.57259 0.36577 0.0
H492 H 0.40624 0.55941 0.43229 0.0
H493 H 0.41761 0.58827 0.42143 0.0
C494 C 0.35106 0.53126 0.54648 0.0
C495 C 0.36349 0.54794 0.58842 0.0
C496 C 0.35298 0.53553 0.48413 0.0
C497 C 0.36743 0.55655 0.46229 0.0
C498 C 0.37954 0.57336 0.50392 0.0
H499 H 0.40072 0.61234 0.09942 0.0
H500 H 0.39713 0.60633 0.20928 0.0
C501 C 0.37767 0.5691 0.56631 0.0
C502 C 0.36956 0.56086 0.39597 0.0
H503 H 0.40606 0.57817 0.27863 0.0
C504 C 0.3509 0.55685 0.36293 0.0
C505 C 0.3897 0.56857 0.36523 0.0
C506 C 0.41011 0.57229 0.39779 0.0
C507 C 0.35187 0.56058 0.30007 0.0
C508 C 0.37198 0.56821 0.26933 0.0
C509 C 0.39067 0.57234 0.30238 0.0
C510 C 0.37392 0.57179 0.20272 0.0
C511 C 0.33145 0.55669 0.26726 0.0
C512 C 0.36226 0.55432 0.16262 0.0
C513 C 0.3642 0.55771 0.09984 0.0
C514 C 0.37794 0.57866 0.07587 0.0
C515 C 0.38977 0.59608 0.1163 0.0
C516 C 0.38784 0.59266 0.17909 0.0
H517 H 0.31908 0.55636 0.2991 0.0
H518 H 0.33529 0.5695 0.23255 0.0
H519 H 0.32406 0.54069 0.24379 0.0
H520 H 0.3517 0.53801 0.1799 0.0
H521 H 0.35469 0.54396 0.07024 0.0
H522 H 0.82413 0.34269 0.90561 0.0
H523 H 0.81915 0.34525 0.79681 0.0
H524 H 0.79544 0.3898 0.83158 0.0
H525 H 0.80115 0.38799 0.94048 0.0
H526 H 0.78185 0.33512 0.73167 0.0
H527 H 0.84335 0.42297 0.70671 0.0
H528 H 0.84165 0.40755 0.77382 0.0
H529 H 0.82274 0.41729 0.76283 0.0
C530 C 0.81808 0.35323 0.89026 0.0
C531 C 0.81321 0.36527 0.93204 0.0
C532 C 0.81509 0.35455 0.82796 0.0
C533 C 0.80727 0.36799 0.80591 0.0
C534 C 0.80191 0.37966 0.84743 0.0
H535 H 0.78067 0.39673 0.4418 0.0
H536 H 0.78406 0.39418 0.55158 0.0
C537 C 0.80493 0.37838 0.90983 0.0
C538 C 0.80457 0.36956 0.73949 0.0
H539 H 0.82169 0.40525 0.62029 0.0
C540 C 0.79059 0.35044 0.70728 0.0
C541 C 0.81599 0.38957 0.70773 0.0
C542 C 0.83193 0.4105 0.73933 0.0
C543 C 0.78754 0.35083 0.64432 0.0
C544 C 0.79904 0.37081 0.61254 0.0
C545 C 0.81289 0.38995 0.64477 0.0
C546 C 0.79695 0.37219 0.54579 0.0
C547 C 0.77172 0.32989 0.61255 0.0
C548 C 0.80334 0.3609 0.50596 0.0
C549 C 0.80132 0.36223 0.4431 0.0
C550 C 0.79293 0.37496 0.41872 0.0
C551 C 0.78684 0.38649 0.45887 0.0
C552 C 0.78891 0.38517 0.52169 0.0
H553 H 0.76019 0.31743 0.64499 0.0
H554 H 0.76213 0.33284 0.5776 0.0
H555 H 0.78101 0.32312 0.58952 0.0
H556 H 0.80997 0.35109 0.52352 0.0
H557 H 0.80604 0.35303 0.41372 0.0
H558 H 0.41096 0.80091 0.27383 0.0
H559 H 0.40374 0.79563 0.16483 0.0
H560 H 0.47241 0.82105 0.1309 0.0
H561 H 0.4797 0.82564 0.23986 0.0
H562 H 0.41984 0.82674 0.07427 0.0
H563 H 0.44457 0.76472 0.0333 0.0
H564 H 0.43983 0.77162 0.10854 0.0
H565 H 0.46525 0.78888 0.07024 0.0
C566 C 0.42451 0.80502 0.24343 0.0
C567 C 0.44593 0.81361 0.26594 0.0
C568 C 0.42035 0.80214 0.18099 0.0
C569 C 0.43748 0.80765 0.13973 0.0
C570 C 0.45886 0.81627 0.16192 0.0
H571 H 0.45002 0.8109 0.74783 0.0
H572 H 0.45593 0.81447 0.85764 0.0
C573 C 0.46304 0.81914 0.22432 0.0
C574 C 0.4331 0.80514 0.07337 0.0
H575 H 0.43863 0.78084 0.94577 0.0
C576 C 0.4238 0.81658 0.04621 0.0
C577 C 0.4383 0.7919 0.03682 0.0
C578 C 0.44735 0.77841 0.0637 0.0
C579 C 0.42002 0.81553 0.98332 0.0
C580 C 0.42541 0.80245 0.94675 0.0
C581 C 0.43459 0.79092 0.9739 0.0
C582 C 0.4217 0.80055 0.88013 0.0
C583 C 0.4108 0.82886 0.95631 0.0
C584 C 0.40047 0.79137 0.85632 0.0
C585 C 0.39704 0.78941 0.79351 0.0
C586 C 0.41478 0.79654 0.7532 0.0
C587 C 0.43602 0.8056 0.77734 0.0
C588 C 0.43942 0.8075 0.84017 0.0
H589 H 0.41254 0.84193 0.98769 0.0
H590 H 0.41903 0.83644 0.91278 0.0
H591 H 0.39313 0.81803 0.94693 0.0
H592 H 0.38652 0.78558 0.88637 0.0
H593 H 0.38051 0.78248 0.77651 0.0
H594 H 0.64012 0.45074 0.08129 0.0
H595 H 0.64297 0.45661 0.19121 0.0
H596 H 0.59448 0.3891 0.21927 0.0
H597 H 0.59153 0.3831 0.10956 0.0
H598 H 0.61127 0.45101 0.27488 0.0
H599 H 0.64429 0.39628 0.32841 0.0
H600 H 0.64333 0.40502 0.25202 0.0
H601 H 0.6191 0.38337 0.2865 0.0
C602 C 0.62996 0.43717 0.11076 0.0
C603 C 0.6157 0.4164 0.08651 0.0
C604 C 0.63169 0.44053 0.17363 0.0
C605 C 0.61925 0.4232 0.21352 0.0
C606 C 0.60467 0.40257 0.18946 0.0
H607 H 0.60481 0.41319 0.60701 0.0
H608 H 0.60179 0.4061 0.4976 0.0
C609 C 0.60299 0.39918 0.12666 0.0
C610 C 0.62123 0.42682 0.28022 0.0
H611 H 0.63422 0.41047 0.41226 0.0
C612 C 0.61639 0.44222 0.30489 0.0
C613 C 0.62783 0.41528 0.31935 0.0
C614 C 0.63414 0.3992 0.2953 0.0
C615 C 0.6177 0.4462 0.36767 0.0
C616 C 0.62437 0.43471 0.40673 0.0
C617 C 0.62909 0.41923 0.38218 0.0
C618 C 0.6268 0.43879 0.47315 0.0
C619 C 0.61156 0.46239 0.39182 0.0
C620 C 0.64222 0.45935 0.49573 0.0
C621 C 0.6441 0.46342 0.55819 0.0
C622 C 0.63065 0.44697 0.59948 0.0
C623 C 0.61559 0.42618 0.5767 0.0
C624 C 0.61374 0.42213 0.51413 0.0
H625 H 0.60167 0.46562 0.35854 0.0
H626 H 0.60217 0.45646 0.43477 0.0
H627 H 0.62668 0.47807 0.40142 0.0
H628 H 0.65281 0.4723 0.46496 0.0
H629 H 0.65615 0.47947 0.57407 0.0
H630 H 0.90603 0.41456 0.31773 0.0
H631 H 0.9452 0.43962 0.33294 0.0
H632 H 0.94208 0.48629 0.21344 0.0
H633 H 0.90314 0.46141 0.19762 0.0
H634 H 0.97671 0.45486 0.24312 0.0
H635 H 0.97591 0.52402 0.35795 0.0
H636 H 0.9519 0.49729 0.35246 0.0
H637 H 0.95992 0.516 0.28961 0.0
C638 C 0.91368 0.43022 0.29495 0.0
C639 C 0.90146 0.43601 0.25651 0.0
C640 C 0.93601 0.44454 0.30398 0.0
C641 C 0.94645 0.46494 0.27511 0.0
C642 C 0.93423 0.47088 0.23746 0.0
H643 H 0.07146 0.56766 0.17596 0.0
H644 H 0.03297 0.54185 0.19604 0.0
C645 C 0.91196 0.45661 0.22842 0.0
C646 C 0.97041 0.47938 0.28 0.0
H647 H 0.00972 0.53189 0.31004 0.0
C648 C 0.984 0.47159 0.25882 0.0
C649 C 0.97982 0.50116 0.30062 0.0
C650 C 0.96613 0.51006 0.32702 0.0
C651 C 0.0067 0.48539 0.25444 0.0
C652 C 0.01598 0.50743 0.27245 0.0
C653 C 0.0025 0.51498 0.296 0.0
C654 C 0.03939 0.52332 0.26281 0.0
C655 C 0.02047 0.47661 0.22775 0.0
C656 C 0.05571 0.52154 0.29432 0.0
C657 C 0.07778 0.53635 0.28315 0.0
C658 C 0.08384 0.55322 0.24046 0.0
C659 C 0.06737 0.55505 0.20967 0.0
C660 C 0.04537 0.54028 0.22089 0.0
H661 H 0.01033 0.46028 0.20676 0.0
H662 H 0.03177 0.48795 0.19283 0.0
H663 H 0.03051 0.47512 0.26419 0.0
H664 H 0.05137 0.50873 0.32753 0.0
H665 H 0.09007 0.53471 0.30832 0.0
H666 H 0.49955 0.08053 0.4925 0.0
H667 H 0.48528 0.04118 0.49728 0.0
H668 H 0.53117 0.05072 0.63976 0.0
H669 H 0.54537 0.09019 0.63599 0.0
H670 H 0.51246 0.02164 0.47804 0.0
H671 H 0.47043 0.00076 0.70212 0.0
H672 H 0.47655 0.0253 0.66112 0.0
H673 H 0.49787 0.0236 0.70075 0.0
C674 C 0.50632 0.07424 0.52573 0.0
C675 C 0.52356 0.08845 0.56394 0.0
C676 C 0.49823 0.05179 0.52812 0.0
C677 C 0.50709 0.04312 0.56913 0.0
C678 C 0.52398 0.05714 0.60829 0.0
H679 H 0.49776 0.9161 0.55387 0.0
H680 H 0.51039 0.95511 0.56427 0.0
C681 C 0.53218 0.07965 0.60571 0.0
C682 C 0.49958 0.01954 0.56794 0.0
H683 H 0.47262 0.97255 0.65037 0.0
C684 C 0.50376 0.01089 0.51568 0.0
C685 C 0.48815 0.00564 0.61706 0.0
C686 C 0.48278 0.01416 0.6734 0.0
C687 C 0.49692 0.98862 0.51137 0.0
C688 C 0.48573 0.97476 0.56075 0.0
C689 C 0.48136 0.98335 0.61287 0.0
C690 C 0.47803 0.95118 0.55817 0.0
C691 C 0.5014 0.97996 0.45379 0.0
C692 C 0.45566 0.93618 0.55235 0.0
C693 C 0.4484 0.91394 0.54634 0.0
C694 C 0.46342 0.90637 0.54665 0.0
C695 C 0.4858 0.92144 0.55398 0.0
C696 C 0.49305 0.94369 0.55957 0.0
H697 H 0.50697 0.99208 0.41631 0.0
H698 H 0.51434 0.97575 0.46259 0.0
H699 H 0.48649 0.96486 0.43882 0.0
H700 H 0.44387 0.94173 0.5513 0.0
H701 H 0.43104 0.90266 0.54142 0.0
H702 H 0.43133 0.5239 0.97367 0.0
H703 H 0.45665 0.51018 0.99119 0.0
H704 H 0.46197 0.50417 0.79791 0.0
H705 H 0.43637 0.51737 0.78005 0.0
H706 H 0.45581 0.46741 0.86783 0.0
H707 H 0.52334 0.54625 0.95548 0.0
H708 H 0.4972 0.53583 0.99194 0.0
H709 H 0.50037 0.54438 0.91407 0.0
C710 C 0.43773 0.51944 0.93497 0.0
C711 C 0.43201 0.52188 0.87545 0.0
C712 C 0.45232 0.5118 0.94504 0.0
C713 C 0.46137 0.50647 0.89579 0.0
C714 C 0.45524 0.50834 0.83648 0.0
H715 H 0.573 0.49225 0.84039 0.0
H716 H 0.5457 0.50373 0.8479 0.0
C717 C 0.44075 0.51602 0.82636 0.0
C718 C 0.47742 0.49913 0.90545 0.0
H719 H 0.52993 0.51675 0.95056 0.0
C720 C 0.47196 0.47809 0.88644 0.0
C721 C 0.49849 0.51324 0.92925 0.0
C722 C 0.50538 0.53626 0.94853 0.0
C723 C 0.48716 0.47085 0.88967 0.0
C724 C 0.50828 0.485 0.91317 0.0
C725 C 0.51364 0.50593 0.93305 0.0
C726 C 0.52551 0.47891 0.91309 0.0
C727 C 0.48082 0.44846 0.86578 0.0
C728 C 0.52343 0.46149 0.94845 0.0
C729 C 0.53909 0.45494 0.94454 0.0
C730 C 0.55712 0.46577 0.90529 0.0
C731 C 0.55947 0.48371 0.87156 0.0
C732 C 0.54384 0.49023 0.87555 0.0
H733 H 0.46543 0.44126 0.839 0.0
H734 H 0.494 0.44914 0.83672 0.0
H735 H 0.47837 0.43744 0.90453 0.0
H736 H 0.50957 0.4528 0.97848 0.0
H737 H 0.537 0.44132 0.97194 0.0
loop_
_geom_bond_atom_site_label_1
_geom_bond_atom_site_label_2
_geom_bond_distance
_geom_bond_site_symmetry_2
_ccdc_geom_bond_type
Co0 N4 2.148 . S
Co0 N10 2.128 . S
Co0 N20 2.194 . S
Co0 O25 2.351 . S
Co0 O26 2.155 . S
Co0 O27 2.096 . S
C1 N4 1.301 . S
C1 N5 1.328 . S
C1 H6 0.930 . S
C2 C3 1.333 . S
C2 N4 1.317 . S
C2 H7 0.930 . S
C3 C2 1.333 . S
C3 N5 1.350 . S
C3 H29 0.931 . S
N4 Co0 2.148 . S
N4 C1 1.301 . S
N4 C2 1.317 . S
N5 C1 1.328 . S
N5 C3 1.350 . S
H6 C1 0.930 . S
H7 C2 0.930 . S
C8 O9 1.224 . S
C8 O27 1.247 . S
O9 C8 1.224 . S
N10 Co0 2.128 . S
N10 C11 1.355 . S
N10 C13 1.311 . S
C11 N10 1.355 . S
C11 C12 1.363 . S
C11 H23 0.929 . S
C12 C11 1.363 . S
C12 N14 1.375 1_554 S
C12 H30 0.931 1_554 S
C13 N10 1.311 . S
C13 N14 1.347 1_554 S
C13 H24 0.929 . S
N14 C12 1.375 1_556 S
N14 C13 1.347 1_556 S
C15 C18 1.365 . S
C15 N20 1.328 . S
C15 H21 0.929 . S
C16 C17 1.362 . S
C16 C19 1.378 . S
C16 H31 0.929 . S
C17 C16 1.362 . S
C17 C18 1.366 . S
C18 C15 1.365 . S
C18 C17 1.366 . S
C18 H32 0.930 . S
C19 C16 1.378 . S
C19 N20 1.315 . S
C19 H22 0.930 . S
N20 Co0 2.194 . S
N20 C15 1.328 . S
N20 C19 1.315 . S
H21 C15 0.929 . S
H22 C19 0.930 . S
H23 C11 0.929 . S
H24 C13 0.929 . S
O25 Co0 2.351 . S
O25 C28 1.244 . S
O26 Co0 2.155 . S
O26 C28 1.240 . S
O27 Co0 2.096 . S
O27 C8 1.247 . S
C28 O25 1.244 . S
C28 O26 1.240 . S
H29 C3 0.931 . S
H30 C12 0.931 1_556 S
H31 C16 0.929 . S
H32 C18 0.930 . S
Co33 N37 2.148 . S
Co33 N43 2.128 . S
Co33 N53 2.194 . S
Co33 O58 2.351 . S
Co33 O59 2.155 . S
Co33 O60 2.096 . S
C34 N37 1.301 . S
C34 N38 1.328 . S
C34 H39 0.930 . S
C35 C36 1.333 . S
C35 N37 1.317 . S
C35 H40 0.930 . S
C36 C35 1.333 . S
C36 N38 1.350 . S
C36 H62 0.931 . S
N37 Co33 2.148 . S
N37 C34 1.301 . S
N37 C35 1.317 . S
N38 C34 1.328 . S
N38 C36 1.350 . S
H39 C34 0.930 . S
H40 C35 0.930 . S
C41 O42 1.224 . S
C41 O60 1.247 . S
O42 C41 1.224 . S
N43 Co33 2.128 . S
N43 C44 1.355 . S
N43 C46 1.311 . S
C44 N43 1.355 . S
C44 C45 1.363 . S
C44 H56 0.929 . S
C45 C44 1.363 . S
C45 N47 1.375 . S
C45 H63 0.931 . S
C46 N43 1.311 . S
C46 N47 1.347 . S
C46 H57 0.929 . S
N47 C45 1.375 . S
N47 C46 1.347 . S
C48 C51 1.365 . S
C48 N53 1.328 . S
C48 H54 0.929 . S
C49 C50 1.362 . S
C49 C52 1.378 . S
C49 H64 0.929 . S
C50 C49 1.362 . S
C50 C51 1.366 . S
C51 C48 1.365 . S
C51 C50 1.366 . S
C51 H65 0.930 . S
C52 C49 1.378 . S
C52 N53 1.315 . S
C52 H55 0.930 . S
N53 Co33 2.194 . S
N53 C48 1.328 . S
N53 C52 1.315 . S
H54 C48 0.929 . S
H55 C52 0.930 . S
H56 C44 0.929 . S
H57 C46 0.929 . S
O58 Co33 2.351 . S
O58 C61 1.244 . S
O59 Co33 2.155 . S
O59 C61 1.240 . S
O60 Co33 2.096 . S
O60 C41 1.247 . S
C61 O58 1.244 . S
C61 O59 1.240 . S
H62 C36 0.931 . S
H63 C45 0.931 . S
H64 C49 0.929 . S
H65 C51 0.930 . S
Co66 N70 2.148 . S
Co66 N76 2.128 . S
Co66 N86 2.194 . S
Co66 O91 2.351 . S
Co66 O92 2.155 . S
Co66 O93 2.096 . S
C67 N70 1.301 . S
C67 N71 1.328 1_556 S
C67 H72 0.930 . S
C68 C69 1.333 . S
C68 N70 1.317 . S
C68 H73 0.930 . S
C69 C68 1.333 . S
C69 N71 1.350 1_556 S
C69 H95 0.931 1_556 S
N70 Co66 2.148 . S
N70 C67 1.301 . S
N70 C68 1.317 . S
N71 C67 1.328 1_554 S
N71 C69 1.350 1_554 S
H72 C67 0.930 . S
H73 C68 0.930 . S
C74 O75 1.224 . S
C74 O93 1.247 . S
O75 C74 1.224 . S
N76 Co66 2.128 . S
N76 C77 1.355 . S
N76 C79 1.311 . S
C77 N76 1.355 . S
C77 C78 1.363 . S
C77 H89 0.929 . S
C78 C77 1.363 . S
C78 N80 1.375 . S
C78 H96 0.931 . S
C79 N76 1.311 . S
C79 N80 1.347 . S
C79 H90 0.929 . S
N80 C78 1.375 . S
N80 C79 1.347 . S
C81 C84 1.365 . S
C81 N86 1.328 . S
C81 H87 0.929 . S
C82 C83 1.362 . S
C82 C85 1.378 . S
C82 H97 0.929 . S
C83 C82 1.362 . S
C83 C84 1.366 . S
C84 C81 1.365 . S
C84 C83 1.366 . S
C84 H98 0.930 . S
C85 C82 1.378 . S
C85 N86 1.315 . S
C85 H88 0.930 . S
N86 Co66 2.194 . S
N86 C81 1.328 . S
N86 C85 1.315 . S
H87 C81 0.929 . S
H88 C85 0.930 . S
H89 C77 0.929 . S
H90 C79 0.929 . S
O91 Co66 2.351 . S
O91 C94 1.244 . S
O92 Co66 2.155 . S
O92 C94 1.240 . S
O93 Co66 2.096 . S
O93 C74 1.247 . S
C94 O91 1.244 . S
C94 O92 1.240 . S
H95 C69 0.931 1_554 S
H96 C78 0.931 . S
H97 C82 0.929 . S
H98 C84 0.930 . S
Co99 N103 2.148 . S
Co99 N109 2.128 . S
Co99 N119 2.194 . S
Co99 O124 2.351 . S
Co99 O125 2.155 . S
Co99 O126 2.096 . S
C100 N103 1.301 . S
C100 N104 1.328 . S
C100 H105 0.930 . S
C101 C102 1.333 . S
C101 N103 1.317 . S
C101 H106 0.930 . S
C102 C101 1.333 . S
C102 N104 1.350 . S
C102 H128 0.931 . S
N103 Co99 2.148 . S
N103 C100 1.301 . S
N103 C101 1.317 . S
N104 C100 1.328 . S
N104 C102 1.350 . S
H105 C100 0.930 . S
H106 C101 0.930 . S
C107 O108 1.224 . S
C107 O126 1.247 . S
O108 C107 1.224 . S
N109 Co99 2.128 . S
N109 C110 1.355 . S
N109 C112 1.311 . S
C110 N109 1.355 . S
C110 C111 1.363 . S
C110 H122 0.929 . S
C111 C110 1.363 . S
C111 N113 1.375 1_554 S
C111 H129 0.931 1_554 S
C112 N109 1.311 . S
C112 N113 1.347 1_554 S
C112 H123 0.929 . S
N113 C111 1.375 1_556 S
N113 C112 1.347 1_556 S
C114 C117 1.365 . S
C114 N119 1.328 . S
C114 H120 0.929 . S
C115 C116 1.362 . S
C115 C118 1.378 . S
C115 H130 0.929 . S
C116 C115 1.362 . S
C116 C117 1.366 . S
C117 C114 1.365 . S
C117 C116 1.366 . S
C117 H131 0.930 . S
C118 C115 1.378 . S
C118 N119 1.315 . S
C118 H121 0.930 . S
N119 Co99 2.194 . S
N119 C114 1.328 . S
N119 C118 1.315 . S
H120 C114 0.929 . S
H121 C118 0.930 . S
H122 C110 0.929 . S
H123 C112 0.929 . S
O124 Co99 2.351 . S
O124 C127 1.244 . S
O125 Co99 2.155 . S
O125 C127 1.240 . S
O126 Co99 2.096 . S
O126 C107 1.247 . S
C127 O124 1.244 . S
C127 O125 1.240 . S
H128 C102 0.931 . S
H129 C111 0.931 1_556 S
H130 C115 0.929 . S
H131 C117 0.930 . S
Co132 N136 2.148 . S
Co132 N142 2.128 . S
Co132 N152 2.194 . S
Co132 O157 2.351 . S
Co132 O158 2.155 . S
Co132 O159 2.096 . S
C133 N136 1.301 . S
C133 N137 1.328 . S
C133 H138 0.930 . S
C134 C135 1.333 . S
C134 N136 1.317 . S
C134 H139 0.930 . S
C135 C134 1.333 . S
C135 N137 1.350 . S
C135 H161 0.931 . S
N136 Co132 2.148 . S
N136 C133 1.301 . S
N136 C134 1.317 . S
N137 C133 1.328 . S
N137 C135 1.350 . S
H138 C133 0.930 . S
H139 C134 0.930 . S
C140 O141 1.224 . S
C140 O159 1.247 . S
O141 C140 1.224 . S
N142 Co132 2.128 . S
N142 C143 1.355 . S
N142 C145 1.311 . S
C143 N142 1.355 . S
C143 C144 1.363 . S
C143 H155 0.929 . S
C144 C143 1.363 . S
C144 N146 1.375 . S
C144 H162 0.931 . S
C145 N142 1.311 . S
C145 N146 1.347 . S
C145 H156 0.929 . S
N146 C144 1.375 . S
N146 C145 1.347 . S
C147 C150 1.365 . S
C147 N152 1.328 . S
C147 H153 0.929 . S
C148 C149 1.362 . S
C148 C151 1.378 . S
C148 H163 0.929 . S
C149 C148 1.362 . S
C149 C150 1.366 . S
C150 C147 1.365 . S
C150 C149 1.366 . S
C150 H164 0.930 . S
C151 C148 1.378 . S
C151 N152 1.315 . S
C151 H154 0.930 . S
N152 Co132 2.194 . S
N152 C147 1.328 . S
N152 C151 1.315 . S
H153 C147 0.929 . S
H154 C151 0.930 . S
H155 C143 0.929 . S
H156 C145 0.929 . S
O157 Co132 2.351 . S
O157 C160 1.244 . S
O158 Co132 2.155 . S
O158 C160 1.240 . S
O159 Co132 2.096 . S
O159 C140 1.247 . S
C160 O157 1.244 . S
C160 O158 1.240 . S
H161 C135 0.931 . S
H162 C144 0.931 . S
H163 C148 0.929 . S
H164 C150 0.930 . S
Co165 N169 2.148 . S
Co165 N175 2.128 . S
Co165 N185 2.194 . S
Co165 O190 2.351 . S
Co165 O191 2.155 . S
Co165 O192 2.096 . S
C166 N169 1.301 . S
C166 N170 1.328 1_556 S
C166 H171 0.930 . S
C167 C168 1.333 . S
C167 N169 1.317 . S
C167 H172 0.930 . S
C168 C167 1.333 . S
C168 N170 1.350 1_556 S
C168 H194 0.931 1_556 S
N169 Co165 2.148 . S
N169 C166 1.301 . S
N169 C167 1.317 . S
N170 C166 1.328 1_554 S
N170 C168 1.350 1_554 S
H171 C166 0.930 . S
H172 C167 0.930 . S
C173 O174 1.224 . S
C173 O192 1.247 . S
O174 C173 1.224 . S
N175 Co165 2.128 . S
N175 C176 1.355 . S
N175 C178 1.311 . S
C176 N175 1.355 . S
C176 C177 1.363 . S
C176 H188 0.929 . S
C177 C176 1.363 . S
C177 N179 1.375 . S
C177 H195 0.931 . S
C178 N175 1.311 . S
C178 N179 1.347 . S
C178 H189 0.929 . S
N179 C177 1.375 . S
N179 C178 1.347 . S
C180 C183 1.365 . S
C180 N185 1.328 . S
C180 H186 0.929 . S
C181 C182 1.362 . S
C181 C184 1.378 . S
C181 H196 0.929 . S
C182 C181 1.362 . S
C182 C183 1.366 . S
C183 C180 1.365 . S
C183 C182 1.366 . S
C183 H197 0.930 . S
C184 C181 1.378 . S
C184 N185 1.315 . S
C184 H187 0.930 . S
N185 Co165 2.194 . S
N185 C180 1.328 . S
N185 C184 1.315 . S
H186 C180 0.929 . S
H187 C184 0.930 . S
H188 C176 0.929 . S
H189 C178 0.929 . S
O190 Co165 2.351 . S
O190 C193 1.244 . S
O191 Co165 2.155 . S
O191 C193 1.240 . S
O192 Co165 2.096 . S
O192 C173 1.247 . S
C193 O190 1.244 . S
C193 O191 1.240 . S
H194 C168 0.931 1_554 S
H195 C177 0.931 . S
H196 C181 0.929 . S
H197 C183 0.930 . S
H198 C206 0.929 . S
H199 C208 0.930 . S
H200 C210 0.930 . S
H201 C213 0.929 . S
H202 C216 0.930 . S
H203 C218 0.960 . S
H204 C218 0.960 . S
H205 C218 0.960 . S
C206 H198 0.929 . S
C206 C207 1.377 . S
C206 C208 1.384 . S
C207 C206 1.377 . S
C207 C213 1.390 . S
C208 H199 0.930 . S
C208 C206 1.384 . S
C208 C209 1.372 . S
C209 C208 1.372 . S
C209 C210 1.400 . S
C209 C214 1.490 . S
C210 H200 0.930 . S
C210 C209 1.400 . S
C210 C213 1.386 . S
H211 C227 0.930 . S
H212 C228 0.931 . S
C213 H201 0.929 . S
C213 C207 1.390 . S
C213 C210 1.386 . S
C214 C209 1.490 . S
C214 C216 1.395 . S
C214 C217 1.403 1_554 S
H215 C221 0.930 . S
C216 H202 0.930 . S
C216 C214 1.395 . S
C216 C219 1.403 . S
C217 C214 1.403 1_556 S
C217 C218 1.524 . S
C217 C221 1.400 . S
C218 H203 0.960 . S
C218 H204 0.960 . S
C218 H205 0.960 . S
C218 C217 1.524 . S
C219 C216 1.403 . S
C219 C220 1.392 1_554 S
C219 C223 1.495 . S
C220 C219 1.392 1_556 S
C220 C221 1.385 . S
C220 C222 1.478 . S
C221 H215 0.930 . S
C221 C217 1.400 . S
C221 C220 1.385 . S
C222 C220 1.478 . S
C222 C224 1.381 . S
C222 C228 1.383 . S
C223 C219 1.495 . S
C223 H229 0.959 . S
C223 H230 0.961 . S
C223 H231 0.960 . S
C224 C222 1.381 . S
C224 C225 1.394 . S
C224 H232 0.930 . S
C225 C224 1.394 . S
C225 C226 1.383 . S
C225 H233 0.929 . S
C226 C225 1.383 . S
C226 C227 1.377 . S
C227 H211 0.930 . S
C227 C226 1.377 . S
C227 C228 1.379 . S
C228 H212 0.931 . S
C228 C222 1.383 . S
C228 C227 1.379 . S
H229 C223 0.959 . S
H230 C223 0.961 . S
H231 C223 0.960 . S
H232 C224 0.930 . S
H233 C225 0.929 . S
H234 C242 0.929 . S
H235 C244 0.930 . S
H236 C246 0.930 . S
H237 C249 0.929 . S
H238 C252 0.930 . S
H239 C254 0.960 . S
H240 C254 0.960 . S
H241 C254 0.960 . S
C242 H234 0.929 . S
C242 C243 1.377 . S
C242 C244 1.384 . S
C243 C242 1.377 . S
C243 C249 1.390 . S
C244 H235 0.930 . S
C244 C242 1.384 . S
C244 C245 1.372 . S
C245 C244 1.372 . S
C245 C246 1.400 . S
C245 C250 1.490 . S
C246 H236 0.930 . S
C246 C245 1.400 . S
C246 C249 1.386 . S
H247 C263 0.930 . S
H248 C264 0.931 . S
C249 H237 0.929 . S
C249 C243 1.390 . S
C249 C246 1.386 . S
C250 C245 1.490 . S
C250 C252 1.395 . S
C250 C253 1.403 . S
H251 C257 0.930 . S
C252 H238 0.930 . S
C252 C250 1.395 . S
C252 C255 1.403 . S
C253 C250 1.403 . S
C253 C254 1.524 . S
C253 C257 1.400 . S
C254 H239 0.960 . S
C254 H240 0.960 . S
C254 H241 0.960 . S
C254 C253 1.524 . S
C255 C252 1.403 . S
C255 C256 1.392 . S
C255 C259 1.495 . S
C256 C255 1.392 . S
C256 C257 1.385 . S
C256 C258 1.478 . S
C257 H251 0.930 . S
C257 C253 1.400 . S
C257 C256 1.385 . S
C258 C256 1.478 . S
C258 C260 1.381 . S
C258 C264 1.383 . S
C259 C255 1.495 . S
C259 H265 0.959 . S
C259 H266 0.961 . S
C259 H267 0.960 . S
C260 C258 1.381 . S
C260 C261 1.394 . S
C260 H268 0.930 . S
C261 C260 1.394 . S
C261 C262 1.383 . S
C261 H269 0.929 . S
C262 C261 1.383 . S
C262 C263 1.377 . S
C263 H247 0.930 . S
C263 C262 1.377 . S
C263 C264 1.379 . S
C264 H248 0.931 . S
C264 C258 1.383 . S
C264 C263 1.379 . S
H265 C259 0.959 . S
H266 C259 0.961 . S
H267 C259 0.960 . S
H268 C260 0.930 . S
H269 C261 0.929 . S
H270 C278 0.929 . S
H271 C280 0.930 . S
H272 C282 0.930 . S
H273 C285 0.929 . S
H274 C288 0.930 . S
H275 C290 0.960 . S
H276 C290 0.960 . S
H277 C290 0.960 . S
C278 H270 0.929 . S
C278 C279 1.377 . S
C278 C280 1.384 . S
C279 C278 1.377 . S
C279 C285 1.390 . S
C280 H271 0.930 . S
C280 C278 1.384 . S
C280 C281 1.372 . S
C281 C280 1.372 . S
C281 C282 1.400 . S
C281 C286 1.490 . S
C282 H272 0.930 . S
C282 C281 1.400 . S
C282 C285 1.386 . S
H283 C299 0.930 . S
H284 C300 0.931 . S
C285 H273 0.929 . S
C285 C279 1.390 . S
C285 C282 1.386 . S
C286 C281 1.490 . S
C286 C288 1.395 . S
C286 C289 1.403 . S
H287 C293 0.930 . S
C288 H274 0.930 . S
C288 C286 1.395 . S
C288 C291 1.403 . S
C289 C286 1.403 . S
C289 C290 1.524 . S
C289 C293 1.400 . S
C290 H275 0.960 . S
C290 H276 0.960 . S
C290 H277 0.960 . S
C290 C289 1.524 . S
C291 C288 1.403 . S
C291 C292 1.392 . S
C291 C295 1.495 . S
C292 C291 1.392 . S
C292 C293 1.385 . S
C292 C294 1.478 . S
C293 H287 0.930 . S
C293 C289 1.400 . S
C293 C292 1.385 . S
C294 C292 1.478 . S
C294 C296 1.381 . S
C294 C300 1.383 . S
C295 C291 1.495 . S
C295 H301 0.959 . S
C295 H302 0.961 . S
C295 H303 0.960 . S
C296 C294 1.381 . S
C296 C297 1.394 . S
C296 H304 0.930 . S
C297 C296 1.394 . S
C297 C298 1.383 . S
C297 H305 0.929 . S
C298 C297 1.383 . S
C298 C299 1.377 . S
C299 H283 0.930 . S
C299 C298 1.377 . S
C299 C300 1.379 . S
C300 H284 0.931 . S
C300 C294 1.383 . S
C300 C299 1.379 . S
H301 C295 0.959 . S
H302 C295 0.961 . S
H303 C295 0.960 . S
H304 C296 0.930 . S
H305 C297 0.929 . S
H306 C314 0.929 . S
H307 C316 0.930 . S
H308 C318 0.930 . S
H309 C321 0.929 . S
H310 C324 0.930 . S
H311 C326 0.960 . S
H312 C326 0.960 . S
H313 C326 0.960 . S
C314 H306 0.929 . S
C314 C315 1.377 . S
C314 C316 1.384 . S
C315 C314 1.377 . S
C315 C321 1.390 . S
C316 H307 0.930 . S
C316 C314 1.384 . S
C316 C317 1.372 . S
C317 C316 1.372 . S
C317 C318 1.400 . S
C317 C322 1.490 . S
C318 H308 0.930 . S
C318 C317 1.400 . S
C318 C321 1.386 . S
H319 C335 0.930 . S
H320 C336 0.931 . S
C321 H309 0.929 . S
C321 C315 1.390 . S
C321 C318 1.386 . S
C322 C317 1.490 . S
C322 C324 1.395 1_556 S
C322 C325 1.403 . S
H323 C329 0.930 . S
C324 H310 0.930 . S
C324 C322 1.395 1_554 S
C324 C327 1.403 . S
C325 C322 1.403 . S
C325 C326 1.524 . S
C325 C329 1.400 . S
C326 H311 0.960 . S
C326 H312 0.960 . S
C326 H313 0.960 . S
C326 C325 1.524 . S
C327 C324 1.403 . S
C327 C328 1.392 . S
C327 C331 1.495 . S
C328 C327 1.392 . S
C328 C329 1.385 1_554 S
C328 C330 1.478 . S
C329 H323 0.930 . S
C329 C325 1.400 . S
C329 C328 1.385 1_556 S
C330 C328 1.478 . S
C330 C332 1.381 . S
C330 C336 1.383 . S
C331 C327 1.495 . S
C331 H337 0.959 . S
C331 H338 0.961 . S
C331 H339 0.960 . S
C332 C330 1.381 . S
C332 C333 1.394 . S
C332 H340 0.930 . S
C333 C332 1.394 . S
C333 C334 1.383 . S
C333 H341 0.929 . S
C334 C333 1.383 . S
C334 C335 1.377 . S
C335 H319 0.930 . S
C335 C334 1.377 . S
C335 C336 1.379 . S
C336 H320 0.931 . S
C336 C330 1.383 . S
C336 C335 1.379 . S
H337 C331 0.959 . S
H338 C331 0.961 . S
H339 C331 0.960 . S
H340 C332 0.930 . S
H341 C333 0.929 . S
H342 C350 0.929 . S
H343 C352 0.930 . S
H344 C354 0.930 . S
H345 C357 0.929 . S
H346 C360 0.930 . S
H347 C362 0.960 . S
H348 C362 0.960 . S
H349 C362 0.960 . S
C350 H342 0.929 . S
C350 C351 1.377 . S
C350 C352 1.384 . S
C351 C350 1.377 . S
C351 C357 1.390 . S
C352 H343 0.930 . S
C352 C350 1.384 . S
C352 C353 1.372 . S
C353 C352 1.372 . S
C353 C354 1.400 . S
C353 C358 1.490 . S
C354 H344 0.930 . S
C354 C353 1.400 . S
C354 C357 1.386 . S
H355 C371 0.930 . S
H356 C372 0.931 . S
C357 H345 0.929 . S
C357 C351 1.390 . S
C357 C354 1.386 . S
C358 C353 1.490 . S
C358 C360 1.395 . S
C358 C361 1.403 . S
H359 C365 0.930 . S
C360 H346 0.930 . S
C360 C358 1.395 . S
C360 C363 1.403 . S
C361 C358 1.403 . S
C361 C362 1.524 . S
C361 C365 1.400 . S
C362 H347 0.960 . S
C362 H348 0.960 . S
C362 H349 0.960 . S
C362 C361 1.524 . S
C363 C360 1.403 . S
C363 C364 1.392 . S
C363 C367 1.495 . S
C364 C363 1.392 . S
C364 C365 1.385 . S
C364 C366 1.478 . S
C365 H359 0.930 . S
C365 C361 1.400 . S
C365 C364 1.385 . S
C366 C364 1.478 . S
C366 C368 1.381 . S
C366 C372 1.383 . S
C367 C363 1.495 . S
C367 H373 0.959 . S
C367 H374 0.961 . S
C367 H375 0.960 . S
C368 C366 1.381 . S
C368 C369 1.394 . S
C368 H376 0.930 . S
C369 C368 1.394 . S
C369 C370 1.383 . S
C369 H377 0.929 . S
C370 C369 1.383 . S
C370 C371 1.377 . S
C371 H355 0.930 . S
C371 C370 1.377 . S
C371 C372 1.379 . S
C372 H356 0.931 . S
C372 C366 1.383 . S
C372 C371 1.379 . S
H373 C367 0.959 . S
H374 C367 0.961 . S
H375 C367 0.960 . S
H376 C368 0.930 . S
H377 C369 0.929 . S
H378 C386 0.929 . S
H379 C388 0.930 . S
H380 C390 0.930 . S
H381 C393 0.929 . S
H382 C396 0.930 . S
H383 C398 0.960 . S
H384 C398 0.960 . S
H385 C398 0.960 . S
C386 H378 0.929 . S
C386 C387 1.377 . S
C386 C388 1.384 . S
C387 C386 1.377 . S
C387 C393 1.390 . S
C388 H379 0.930 . S
C388 C386 1.384 . S
C388 C389 1.372 . S
C389 C388 1.372 . S
C389 C390 1.400 . S
C389 C394 1.490 . S
C390 H380 0.930 . S
C390 C389 1.400 . S
C390 C393 1.386 . S
H391 C407 0.930 . S
H392 C408 0.931 . S
C393 H381 0.929 . S
C393 C387 1.390 . S
C393 C390 1.386 . S
C394 C389 1.490 . S
C394 C396 1.395 . S
C394 C397 1.403 . S
H395 C401 0.930 . S
C396 H382 0.930 . S
C396 C394 1.395 . S
C396 C399 1.403 . S
C397 C394 1.403 . S
C397 C398 1.524 . S
C397 C401 1.400 . S
C398 H383 0.960 . S
C398 H384 0.960 . S
C398 H385 0.960 . S
C398 C397 1.524 . S
C399 C396 1.403 . S
C399 C400 1.392 . S
C399 C403 1.495 . S
C400 C399 1.392 . S
C400 C401 1.385 . S
C400 C402 1.478 . S
C401 H395 0.930 . S
C401 C397 1.400 . S
C401 C400 1.385 . S
C402 C400 1.478 . S
C402 C404 1.381 . S
C402 C408 1.383 . S
C403 C399 1.495 . S
C403 H409 0.959 . S
C403 H410 0.961 . S
C403 H411 0.960 . S
C404 C402 1.381 . S
C404 C405 1.394 . S
C404 H412 0.930 . S
C405 C404 1.394 . S
C405 C406 1.383 . S
C405 H413 0.929 . S
C406 C405 1.383 . S
C406 C407 1.377 . S
C407 H391 0.930 . S
C407 C406 1.377 . S
C407 C408 1.379 . S
C408 H392 0.931 . S
C408 C402 1.383 . S
C408 C407 1.379 . S
H409 C403 0.959 . S
H410 C403 0.961 . S
H411 C403 0.960 . S
H412 C404 0.930 . S
H413 C405 0.929 . S
H414 C422 0.929 . S
H415 C424 0.930 . S
H416 C426 0.930 . S
H417 C429 0.929 . S
H418 C432 0.930 . S
H419 C434 0.960 . S
H420 C434 0.960 . S
H421 C434 0.960 . S
C422 H414 0.929 . S
C422 C423 1.377 . S
C422 C424 1.384 . S
C423 C422 1.377 . S
C423 C429 1.390 . S
C424 H415 0.930 . S
C424 C422 1.384 . S
C424 C425 1.372 . S
C425 C424 1.372 . S
C425 C426 1.400 . S
C425 C430 1.490 . S
C426 H416 0.930 . S
C426 C425 1.400 . S
C426 C429 1.386 . S
H427 C443 0.930 . S
H428 C444 0.931 . S
C429 H417 0.929 . S
C429 C423 1.390 . S
C429 C426 1.386 . S
C430 C425 1.490 . S
C430 C432 1.395 . S
C430 C433 1.403 . S
H431 C437 0.930 . S
C432 H418 0.930 . S
C432 C430 1.395 . S
C432 C435 1.403 . S
C433 C430 1.403 . S
C433 C434 1.524 . S
C433 C437 1.400 . S
C434 H419 0.960 . S
C434 H420 0.960 . S
C434 H421 0.960 . S
C434 C433 1.524 . S
C435 C432 1.403 . S
C435 C436 1.392 . S
C435 C439 1.495 . S
C436 C435 1.392 . S
C436 C437 1.385 . S
C436 C438 1.478 . S
C437 H431 0.930 . S
C437 C433 1.400 . S
C437 C436 1.385 . S
C438 C436 1.478 . S
C438 C440 1.381 . S
C438 C444 1.383 . S
C439 C435 1.495 . S
C439 H445 0.959 . S
C439 H446 0.961 . S
C439 H447 0.960 . S
C440 C438 1.381 . S
C440 C441 1.394 . S
C440 H448 0.930 . S
C441 C440 1.394 . S
C441 C442 1.383 . S
C441 H449 0.929 . S
C442 C441 1.383 . S
C442 C443 1.377 . S
C443 H427 0.930 . S
C443 C442 1.377 . S
C443 C444 1.379 . S
C444 H428 0.931 . S
C444 C438 1.383 . S
C444 C443 1.379 . S
H445 C439 0.959 . S
H446 C439 0.961 . S
H447 C439 0.960 . S
H448 C440 0.930 . S
H449 C441 0.929 . S
H450 C458 0.929 . S
H451 C460 0.930 . S
H452 C462 0.930 . S
H453 C465 0.929 . S
H454 C468 0.930 . S
H455 C470 0.960 . S
H456 C470 0.960 . S
H457 C470 0.960 . S
C458 H450 0.929 . S
C458 C459 1.377 . S
C458 C460 1.384 . S
C459 C458 1.377 . S
C459 C465 1.390 . S
C460 H451 0.930 . S
C460 C458 1.384 . S
C460 C461 1.372 . S
C461 C460 1.372 . S
C461 C462 1.400 . S
C461 C466 1.490 . S
C462 H452 0.930 . S
C462 C461 1.400 . S
C462 C465 1.386 . S
H463 C479 0.930 . S
H464 C480 0.931 . S
C465 H453 0.929 . S
C465 C459 1.390 . S
C465 C462 1.386 . S
C466 C461 1.490 . S
C466 C468 1.395 . S
C466 C469 1.403 . S
H467 C473 0.930 . S
C468 H454 0.930 . S
C468 C466 1.395 . S
C468 C471 1.403 1_556 S
C469 C466 1.403 . S
C469 C470 1.524 . S
C469 C473 1.400 1_556 S
C470 H455 0.960 . S
C470 H456 0.960 . S
C470 H457 0.960 . S
C470 C469 1.524 . S
C471 C468 1.403 1_554 S
C471 C472 1.392 . S
C471 C475 1.495 . S
C472 C471 1.392 . S
C472 C473 1.385 . S
C472 C474 1.478 . S
C473 H467 0.930 . S
C473 C469 1.400 1_554 S
C473 C472 1.385 . S
C474 C472 1.478 . S
C474 C476 1.381 . S
C474 C480 1.383 . S
C475 C471 1.495 . S
C475 H481 0.959 . S
C475 H482 0.961 . S
C475 H483 0.960 . S
C476 C474 1.381 . S
C476 C477 1.394 . S
C476 H484 0.930 . S
C477 C476 1.394 . S
C477 C478 1.383 . S
C477 H485 0.929 . S
C478 C477 1.383 . S
C478 C479 1.377 . S
C479 H463 0.930 . S
C479 C478 1.377 . S
C479 C480 1.379 . S
C480 H464 0.931 . S
C480 C474 1.383 . S
C480 C479 1.379 . S
H481 C475 0.959 . S
H482 C475 0.961 . S
H483 C475 0.960 . S
H484 C476 0.930 . S
H485 C477 0.929 . S
H486 C494 0.929 . S
H487 C496 0.930 . S
H488 C498 0.930 . S
H489 C501 0.929 . S
H490 C504 0.930 . S
H491 C506 0.960 . S
H492 C506 0.960 . S
H493 C506 0.960 . S
C494 H486 0.929 . S
C494 C495 1.377 . S
C494 C496 1.384 . S
C495 C494 1.377 . S
C495 C501 1.390 . S
C496 H487 0.930 . S
C496 C494 1.384 . S
C496 C497 1.372 . S
C497 C496 1.372 . S
C497 C498 1.400 . S
C497 C502 1.490 . S
C498 H488 0.930 . S
C498 C497 1.400 . S
C498 C501 1.386 . S
H499 C515 0.930 . S
H500 C516 0.931 . S
C501 H489 0.929 . S
C501 C495 1.390 . S
C501 C498 1.386 . S
C502 C497 1.490 . S
C502 C504 1.395 . S
C502 C505 1.403 . S
H503 C509 0.930 . S
C504 H490 0.930 . S
C504 C502 1.395 . S
C504 C507 1.403 . S
C505 C502 1.403 . S
C505 C506 1.524 . S
C505 C509 1.400 . S
C506 H491 0.960 . S
C506 H492 0.960 . S
C506 H493 0.960 . S
C506 C505 1.524 . S
C507 C504 1.403 . S
C507 C508 1.392 . S
C507 C511 1.495 . S
C508 C507 1.392 . S
C508 C509 1.385 . S
C508 C510 1.478 . S
C509 H503 0.930 . S
C509 C505 1.400 . S
C509 C508 1.385 . S
C510 C508 1.478 . S
C510 C512 1.381 . S
C510 C516 1.383 . S
C511 C507 1.495 . S
C511 H517 0.959 . S
C511 H518 0.961 . S
C511 H519 0.960 . S
C512 C510 1.381 . S
C512 C513 1.394 . S
C512 H520 0.930 . S
C513 C512 1.394 . S
C513 C514 1.383 . S
C513 H521 0.929 . S
C514 C513 1.383 . S
C514 C515 1.377 . S
C515 H499 0.930 . S
C515 C514 1.377 . S
C515 C516 1.379 . S
C516 H500 0.931 . S
C516 C510 1.383 . S
C516 C515 1.379 . S
H517 C511 0.959 . S
H518 C511 0.961 . S
H519 C511 0.960 . S
H520 C512 0.930 . S
H521 C513 0.929 . S
H522 C530 0.929 . S
H523 C532 0.930 . S
H524 C534 0.930 . S
H525 C537 0.929 . S
H526 C540 0.930 . S
H527 C542 0.960 . S
H528 C542 0.960 . S
H529 C542 0.960 . S
C530 H522 0.929 . S
C530 C531 1.377 . S
C530 C532 1.384 . S
C531 C530 1.377 . S
C531 C537 1.390 . S
C532 H523 0.930 . S
C532 C530 1.384 . S
C532 C533 1.372 . S
C533 C532 1.372 . S
C533 C534 1.400 . S
C533 C538 1.490 . S
C534 H524 0.930 . S
C534 C533 1.400 . S
C534 C537 1.386 . S
H535 C551 0.930 . S
H536 C552 0.931 . S
C537 H525 0.929 . S
C537 C531 1.390 . S
C537 C534 1.386 . S
C538 C533 1.490 . S
C538 C540 1.395 . S
C538 C541 1.403 . S
H539 C545 0.930 . S
C540 H526 0.930 . S
C540 C538 1.395 . S
C540 C543 1.403 . S
C541 C538 1.403 . S
C541 C542 1.524 . S
C541 C545 1.400 . S
C542 H527 0.960 . S
C542 H528 0.960 . S
C542 H529 0.960 . S
C542 C541 1.524 . S
C543 C540 1.403 . S
C543 C544 1.392 . S
C543 C547 1.495 . S
C544 C543 1.392 . S
C544 C545 1.385 . S
C544 C546 1.478 . S
C545 H539 0.930 . S
C545 C541 1.400 . S
C545 C544 1.385 . S
C546 C544 1.478 . S
C546 C548 1.381 . S
C546 C552 1.383 . S
C547 C543 1.495 . S
C547 H553 0.959 . S
C547 H554 0.961 . S
C547 H555 0.960 . S
C548 C546 1.381 . S
C548 C549 1.394 . S
C548 H556 0.930 . S
C549 C548 1.394 . S
C549 C550 1.383 . S
C549 H557 0.929 . S
C550 C549 1.383 . S
C550 C551 1.377 . S
C551 H535 0.930 . S
C551 C550 1.377 . S
C551 C552 1.379 . S
C552 H536 0.931 . S
C552 C546 1.383 . S
C552 C551 1.379 . S
H553 C547 0.959 . S
H554 C547 0.961 . S
H555 C547 0.960 . S
H556 C548 0.930 . S
H557 C549 0.929 . S
H558 C566 0.929 . S
H559 C568 0.930 . S
H560 C570 0.930 . S
H561 C573 0.929 . S
H562 C576 0.930 . S
H563 C578 0.960 . S
H564 C578 0.960 . S
H565 C578 0.960 . S
C566 H558 0.929 . S
C566 C567 1.377 . S
C566 C568 1.384 . S
C567 C566 1.377 . S
C567 C573 1.390 . S
C568 H559 0.930 . S
C568 C566 1.384 . S
C568 C569 1.372 . S
C569 C568 1.372 . S
C569 C570 1.400 . S
C569 C574 1.490 . S
C570 H560 0.930 . S
C570 C569 1.400 . S
C570 C573 1.386 . S
H571 C587 0.930 . S
H572 C588 0.931 . S
C573 H561 0.929 . S
C573 C567 1.390 . S
C573 C570 1.386 . S
C574 C569 1.490 . S
C574 C576 1.395 . S
C574 C577 1.403 . S
H575 C581 0.930 . S
C576 H562 0.930 . S
C576 C574 1.395 . S
C576 C579 1.403 1_554 S
C577 C574 1.403 . S
C577 C578 1.524 . S
C577 C581 1.400 1_554 S
C578 H563 0.960 . S
C578 H564 0.960 . S
C578 H565 0.960 . S
C578 C577 1.524 . S
C579 C576 1.403 1_556 S
C579 C580 1.392 . S
C579 C583 1.495 . S
C580 C579 1.392 . S
C580 C581 1.385 . S
C580 C582 1.478 . S
C581 H575 0.930 . S
C581 C577 1.400 1_556 S
C581 C580 1.385 . S
C582 C580 1.478 . S
C582 C584 1.381 . S
C582 C588 1.383 . S
C583 C579 1.495 . S
C583 H589 0.959 . S
C583 H590 0.961 . S
C583 H591 0.960 . S
C584 C582 1.381 . S
C584 C585 1.394 . S
C584 H592 0.930 . S
C585 C584 1.394 . S
C585 C586 1.383 . S
C585 H593 0.929 . S
C586 C585 1.383 . S
C586 C587 1.377 . S
C587 H571 0.930 . S
C587 C586 1.377 . S
C587 C588 1.379 . S
C588 H572 0.931 . S
C588 C582 1.383 . S
C588 C587 1.379 . S
H589 C583 0.959 . S
H590 C583 0.961 . S
H591 C583 0.960 . S
H592 C584 0.930 . S
H593 C585 0.929 . S
H594 C602 0.929 . S
H595 C604 0.930 . S
H596 C606 0.930 . S
H597 C609 0.929 . S
H598 C612 0.930 . S
H599 C614 0.960 . S
H600 C614 0.960 . S
H601 C614 0.960 . S
C602 H594 0.929 . S
C602 C603 1.377 . S
C602 C604 1.384 . S
C603 C602 1.377 . S
C603 C609 1.390 . S
C604 H595 0.930 . S
C604 C602 1.384 . S
C604 C605 1.372 . S
C605 C604 1.372 . S
C605 C606 1.400 . S
C605 C610 1.490 . S
C606 H596 0.930 . S
C606 C605 1.400 . S
C606 C609 1.386 . S
H607 C623 0.930 . S
H608 C624 0.931 . S
C609 H597 0.929 . S
C609 C603 1.390 . S
C609 C606 1.386 . S
C610 C605 1.490 . S
C610 C612 1.395 . S
C610 C613 1.403 . S
H611 C617 0.930 . S
C612 H598 0.930 . S
C612 C610 1.395 . S
C612 C615 1.403 . S
C613 C610 1.403 . S
C613 C614 1.524 . S
C613 C617 1.400 . S
C614 H599 0.960 . S
C614 H600 0.960 . S
C614 H601 0.960 . S
C614 C613 1.524 . S
C615 C612 1.403 . S
C615 C616 1.392 . S
C615 C619 1.495 . S
C616 C615 1.392 . S
C616 C617 1.385 . S
C616 C618 1.478 . S
C617 H611 0.930 . S
C617 C613 1.400 . S
C617 C616 1.385 . S
C618 C616 1.478 . S
C618 C620 1.381 . S
C618 C624 1.383 . S
C619 C615 1.495 . S
C619 H625 0.959 . S
C619 H626 0.961 . S
C619 H627 0.960 . S
C620 C618 1.381 . S
C620 C621 1.394 . S
C620 H628 0.930 . S
C621 C620 1.394 . S
C621 C622 1.383 . S
C621 H629 0.929 . S
C622 C621 1.383 . S
C622 C623 1.377 . S
C623 H607 0.930 . S
C623 C622 1.377 . S
C623 C624 1.379 . S
C624 H608 0.931 . S
C624 C618 1.383 . S
C624 C623 1.379 . S
H625 C619 0.959 . S
H626 C619 0.961 . S
H627 C619 0.960 . S
H628 C620 0.930 . S
H629 C621 0.929 . S
H630 C638 0.929 . S
H631 C640 0.930 . S
H632 C642 0.930 . S
H633 C645 0.929 . S
H634 C648 0.930 . S
H635 C650 0.960 . S
H636 C650 0.960 . S
H637 C650 0.960 . S
C638 H630 0.929 . S
C638 C639 1.377 . S
C638 C640 1.384 . S
C639 C638 1.377 . S
C639 C645 1.390 . S
C640 H631 0.930 . S
C640 C638 1.384 . S
C640 C641 1.372 . S
C641 C640 1.372 . S
C641 C642 1.400 . S
C641 C646 1.490 . S
C642 H632 0.930 . S
C642 C641 1.400 . S
C642 C645 1.386 . S
H643 C659 0.930 . S
H644 C660 0.931 . S
C645 H633 0.929 . S
C645 C639 1.390 . S
C645 C642 1.386 . S
C646 C641 1.490 . S
C646 C648 1.395 . S
C646 C649 1.403 . S
H647 C653 0.930 . S
C648 H634 0.930 . S
C648 C646 1.395 . S
C648 C651 1.403 1_655 S
C649 C646 1.403 . S
C649 C650 1.524 . S
C649 C653 1.400 1_655 S
C650 H635 0.960 . S
C650 H636 0.960 . S
C650 H637 0.960 . S
C650 C649 1.524 . S
C651 C648 1.403 1_455 S
C651 C652 1.392 . S
C651 C655 1.495 . S
C652 C651 1.392 . S
C652 C653 1.385 . S
C652 C654 1.478 . S
C653 H647 0.930 . S
C653 C649 1.400 1_455 S
C653 C652 1.385 . S
C654 C652 1.478 . S
C654 C656 1.381 . S
C654 C660 1.383 . S
C655 C651 1.495 . S
C655 H661 0.959 . S
C655 H662 0.961 . S
C655 H663 0.960 . S
C656 C654 1.381 . S
C656 C657 1.394 . S
C656 H664 0.930 . S
C657 C656 1.394 . S
C657 C658 1.383 . S
C657 H665 0.929 . S
C658 C657 1.383 . S
C658 C659 1.377 . S
C659 H643 0.930 . S
C659 C658 1.377 . S
C659 C660 1.379 . S
C660 H644 0.931 . S
C660 C654 1.383 . S
C660 C659 1.379 . S
H661 C655 0.959 . S
H662 C655 0.961 . S
H663 C655 0.960 . S
H664 C656 0.930 . S
H665 C657 0.929 . S
H666 C674 0.929 . S
H667 C676 0.930 . S
H668 C678 0.930 . S
H669 C681 0.929 . S
H670 C684 0.930 . S
H671 C686 0.960 . S
H672 C686 0.960 . S
H673 C686 0.960 . S
C674 H666 0.929 . S
C674 C675 1.377 . S
C674 C676 1.384 . S
C675 C674 1.377 . S
C675 C681 1.390 . S
C676 H667 0.930 . S
C676 C674 1.384 . S
C676 C677 1.372 . S
C677 C676 1.372 . S
C677 C678 1.400 . S
C677 C682 1.490 . S
C678 H668 0.930 . S
C678 C677 1.400 . S
C678 C681 1.386 . S
H679 C695 0.930 . S
H680 C696 0.931 . S
C681 H669 0.929 . S
C681 C675 1.390 . S
C681 C678 1.386 . S
C682 C677 1.490 . S
C682 C684 1.395 . S
C682 C685 1.403 . S
H683 C689 0.930 . S
C684 H670 0.930 . S
C684 C682 1.395 . S
C684 C687 1.403 1_545 S
C685 C682 1.403 . S
C685 C686 1.524 . S
C685 C689 1.400 1_545 S
C686 H671 0.960 . S
C686 H672 0.960 . S
C686 H673 0.960 . S
C686 C685 1.524 . S
C687 C684 1.403 1_565 S
C687 C688 1.392 . S
C687 C691 1.495 . S
C688 C687 1.392 . S
C688 C689 1.385 . S
C688 C690 1.478 . S
C689 H683 0.930 . S
C689 C685 1.400 1_565 S
C689 C688 1.385 . S
C690 C688 1.478 . S
C690 C692 1.381 . S
C690 C696 1.383 . S
C691 C687 1.495 . S
C691 H697 0.959 . S
C691 H698 0.961 . S
C691 H699 0.960 . S
C692 C690 1.381 . S
C692 C693 1.394 . S
C692 H700 0.930 . S
C693 C692 1.394 . S
C693 C694 1.383 . S
C693 H701 0.929 . S
C694 C693 1.383 . S
C694 C695 1.377 . S
C695 H679 0.930 . S
C695 C694 1.377 . S
C695 C696 1.379 . S
C696 H680 0.931 . S
C696 C690 1.383 . S
C696 C695 1.379 . S
H697 C691 0.959 . S
H698 C691 0.961 . S
H699 C691 0.960 . S
H700 C692 0.930 . S
H701 C693 0.929 . S
H702 C710 0.929 . S
H703 C712 0.930 . S
H704 C714 0.930 . S
H705 C717 0.929 . S
H706 C720 0.930 . S
H707 C722 0.960 . S
H708 C722 0.960 . S
H709 C722 0.960 . S
C710 H702 0.929 . S
C710 C711 1.377 . S
C710 C712 1.384 . S
C711 C710 1.377 . S
C711 C717 1.390 . S
C712 H703 0.930 . S
C712 C710 1.384 . S
C712 C713 1.372 . S
C713 C712 1.372 . S
C713 C714 1.400 . S
C713 C718 1.490 . S
C714 H704 0.930 . S
C714 C713 1.400 . S
C714 C717 1.386 . S
H715 C731 0.930 . S
H716 C732 0.931 . S
C717 H705 0.929 . S
C717 C711 1.390 . S
C717 C714 1.386 . S
C718 C713 1.490 . S
C718 C720 1.395 . S
C718 C721 1.403 . S
H719 C725 0.930 . S
C720 H706 0.930 . S
C720 C718 1.395 . S
C720 C723 1.403 . S
C721 C718 1.403 . S
C721 C722 1.524 . S
C721 C725 1.400 . S
C722 H707 0.960 . S
C722 H708 0.960 . S
C722 H709 0.960 . S
C722 C721 1.524 . S
C723 C720 1.403 . S
C723 C724 1.392 . S
C723 C727 1.495 . S
C724 C723 1.392 . S
C724 C725 1.385 . S
C724 C726 1.478 . S
C725 H719 0.930 . S
C725 C721 1.400 . S
C725 C724 1.385 . S
C726 C724 1.478 . S
C726 C728 1.381 . S
C726 C732 1.383 . S
C727 C723 1.495 . S
C727 H733 0.959 . S
C727 H734 0.961 . S
C727 H735 0.960 . S
C728 C726 1.381 . S
C728 C729 1.394 . S
C728 H736 0.930 . S
C729 C728 1.394 . S
C729 C730 1.383 . S
C729 H737 0.929 . S
C730 C729 1.383 . S
C730 C731 1.377 . S
C731 H715 0.930 . S
C731 C730 1.377 . S
C731 C732 1.379 . S
C732 H716 0.931 . S
C732 C726 1.383 . S
C732 C731 1.379 . S
H733 C727 0.959 . S
H734 C727 0.961 . S
H735 C727 0.960 . S
H736 C728 0.930 . S
H737 C729 0.929 . S
C207 C8 0.535 . S
C226 C94 0.545 . S
C243 C41 0.547 . S
C262 C127 0.630 . S
C279 C160 0.574 . S
C298 C74 0.496 . S
C315 C193 0.579 . S
C334 C107 0.551 . S
C351 C140 0.535 . S
C370 C28 0.605 . S
C387 C61 0.567 . S
C406 C173 0.596 . S
C423 N14 1.427 . S
C442 N5 1.420 . S
C459 N38 1.431 . S
C478 N47 1.429 . S
C495 N80 1.426 . S
C514 N71 1.426 . S
C531 N113 1.426 . S
C550 N104 1.427 . S
C567 N146 1.431 . S
C586 N137 1.437 . S
C603 N170 1.431 . S
C622 N179 1.412 . S
C639 C116 1.079 . S
C658 C17 1.074 . S
C675 C50 1.082 . S
C694 C149 1.082 . S
C711 C83 1.079 . S
C730 C182 1.076 . S
