# Generated by pormake.
# Topology yfl, (5)-cn, num edge types: 1
# Building blocks:
#     Node 0, Type 0, BuildingBlock: BEQFEK_clean_sbu_0, # of connection points: 5
#     Node 1, Type 0, BuildingBlock: BEQFEK_clean_sbu_0, # of connection points: 5
#     Node 2, Type 0, BuildingBlock: BEQFEK_clean_sbu_0, # of connection points: 5
#     Node 3, Type 0, BuildingBlock: BEQFEK_clean_sbu_0, # of connection points: 5
#     Node 4, Type 0, BuildingBlock: BEQFEK_clean_sbu_0, # of connection points: 5
#     Node 5, Type 0, BuildingBlock: BEQFEK_clean_sbu_0, # of connection points: 5
#     Node 6, Type 0, BuildingBlock: BEQFEK_clean_sbu_0, # of connection points: 5
#     Node 7, Type 0, BuildingBlock: BEQFEK_clean_sbu_0, # of connection points: 5
#     Node 8, Type 0, BuildingBlock: BEQFEK_clean_sbu_0, # of connection points: 5
#     Node 9, Type 0, BuildingBlock: BEQFEK_clean_sbu_0, # of connection points: 5
#     Node 10, Type 0, BuildingBlock: BEQFEK_clean_sbu_0, # of connection points: 5
#     Node 11, Type 0, BuildingBlock: BEQFEK_clean_sbu_0, # of connection points: 5
#     Node 12, Type 0, BuildingBlock: BEQFEK_clean_sbu_0, # of connection points: 5
#     Node 13, Type 0, BuildingBlock: BEQFEK_clean_sbu_0, # of connection points: 5
#     Node 14, Type 0, BuildingBlock: BEQFEK_clean_sbu_0, # of connection points: 5
#     Node 15, Type 0, BuildingBlock: BEQFEK_clean_sbu_0, # of connection points: 5
#     Edge 16, Type (0, 0), BuildingBlock: UVAHIK_clean_linker_0, # of connection points: 2
#     Edge 17, Type (0, 0), BuildingBlock: UVAHIK_clean_linker_0, # of connection points: 2
#     Edge 18, Type (0, 0), BuildingBlock: UVAHIK_clean_linker_0, # of connection points: 2
#     Edge 19, Type (0, 0), BuildingBlock: UVAHIK_clean_linker_0, # of connection points: 2
#     Edge 20, Type (0, 0), BuildingBlock: UVAHIK_clean_linker_0, # of connection points: 2
#     Edge 21, Type (0, 0), BuildingBlock: UVAHIK_clean_linker_0, # of connection points: 2
#     Edge 22, Type (0, 0), BuildingBlock: UVAHIK_clean_linker_0, # of connection points: 2
#     Edge 23, Type (0, 0), BuildingBlock: UVAHIK_clean_linker_0, # of connection points: 2
#     Edge 24, Type (0, 0), BuildingBlock: UVAHIK_clean_linker_0, # of connection points: 2
#     Edge 25, Type (0, 0), BuildingBlock: UVAHIK_clean_linker_0, # of connection points: 2
#     Edge 26, Type (0, 0), BuildingBlock: UVAHIK_clean_linker_0, # of connection points: 2
#     Edge 27, Type (0, 0), BuildingBlock: UVAHIK_clean_linker_0, # of connection points: 2
#     Edge 28, Type (0, 0), BuildingBlock: UVAHIK_clean_linker_0, # of connection points: 2
#     Edge 29, Type (0, 0), BuildingBlock: UVAHIK_clean_linker_0, # of connection points: 2
#     Edge 30, Type (0, 0), BuildingBlock: UVAHIK_clean_linker_0, # of connection points: 2
#     Edge 31, Type (0, 0), BuildingBlock: UVAHIK_clean_linker_0, # of connection points: 2
#     Edge 32, Type (0, 0), BuildingBlock: UVAHIK_clean_linker_0, # of connection points: 2
#     Edge 33, Type (0, 0), BuildingBlock: UVAHIK_clean_linker_0, # of connection points: 2
#     Edge 34, Type (0, 0), BuildingBlock: UVAHIK_clean_linker_0, # of connection points: 2
#     Edge 35, Type (0, 0), BuildingBlock: UVAHIK_clean_linker_0, # of connection points: 2
#     Edge 36, Type (0, 0), BuildingBlock: UVAHIK_clean_linker_0, # of connection points: 2
#     Edge 37, Type (0, 0), BuildingBlock: UVAHIK_clean_linker_0, # of connection points: 2
#     Edge 38, Type (0, 0), BuildingBlock: UVAHIK_clean_linker_0, # of connection points: 2
#     Edge 39, Type (0, 0), BuildingBlock: UVAHIK_clean_linker_0, # of connection points: 2
#     Edge 40, Type (0, 0), BuildingBlock: UVAHIK_clean_linker_0, # of connection points: 2
#     Edge 41, Type (0, 0), BuildingBlock: UVAHIK_clean_linker_0, # of connection points: 2
#     Edge 42, Type (0, 0), BuildingBlock: UVAHIK_clean_linker_0, # of connection points: 2
#     Edge 43, Type (0, 0), BuildingBlock: UVAHIK_clean_linker_0, # of connection points: 2
#     Edge 44, Type (0, 0), BuildingBlock: UVAHIK_clean_linker_0, # of connection points: 2
#     Edge 45, Type (0, 0), BuildingBlock: UVAHIK_clean_linker_0, # of connection points: 2
#     Edge 46, Type (0, 0), BuildingBlock: UVAHIK_clean_linker_0, # of connection points: 2
#     Edge 47, Type (0, 0), BuildingBlock: UVAHIK_clean_linker_0, # of connection points: 2
#     Edge 48, Type (0, 0), BuildingBlock: UVAHIK_clean_linker_0, # of connection points: 2
#     Edge 49, Type (0, 0), BuildingBlock: UVAHIK_clean_linker_0, # of connection points: 2
#     Edge 50, Type (0, 0), BuildingBlock: UVAHIK_clean_linker_0, # of connection points: 2
#     Edge 51, Type (0, 0), BuildingBlock: UVAHIK_clean_linker_0, # of connection points: 2
#     Edge 52, Type (0, 0), BuildingBlock: UVAHIK_clean_linker_0, # of connection points: 2
#     Edge 53, Type (0, 0), BuildingBlock: UVAHIK_clean_linker_0, # of connection points: 2
#     Edge 54, Type (0, 0), BuildingBlock: UVAHIK_clean_linker_0, # of connection points: 2
#     Edge 55, Type (0, 0), BuildingBlock: UVAHIK_clean_linker_0, # of connection points: 2
# Relax obj value: 0.269
# Max RMSD: 0.170
# Mean RMSD: 0.170
data_MOF--net-yfl--node1-BEQFEK_clean_sbu_0--edge1-UVAHIK_clean_linker_0
_symmetry_space_group_name_H-M    P1
_symmetry_Int_Tables_number       1
_symmetry_cell_setting            triclinic
loop_
_symmetry_equiv_pos_as_xyz
'x, y, z'
_cell_length_a     38.075881
_cell_length_b     38.030141
_cell_length_c     139.36289
_cell_angle_alpha  89.990523
_cell_angle_beta   90.024579
_cell_angle_gamma 90.007833
loop_
_atom_site_label
_atom_site_type_symbol
_atom_site_fract_x
_atom_site_fract_y
_atom_site_fract_z
_atom_type_partial_charge
Co0 Co 0.0361 0.25707 0.28966 0.0
Co1 Co 0.10239 0.26894 0.30255 0.0
C2 C 0.04681 0.32266 0.30176 0.0
O3 O 0.03028 0.30368 0.29574 0.0
O4 O 0.07596 0.31267 0.3053 0.0
C5 C 0.96232 0.25511 0.28748 0.0
O6 O 0.96367 0.2665 0.29638 0.0
C7 C 0.14774 0.27819 0.31941 0.0
C8 C 0.19412 0.24677 0.31522 0.0
C9 C 0.17985 0.26595 0.3227 0.0
N10 N 0.14316 0.26652 0.31039 0.0
N11 N 0.17128 0.24838 0.30786 0.0
C12 C 0.11996 0.29672 0.32508 0.0
H13 H 0.0935 0.29019 0.32227 0.0
H14 H 0.12146 0.28949 0.33279 0.0
H15 H 0.12395 0.32552 0.32443 0.0
C16 C 0.03204 0.19191 0.30109 0.0
N17 N 0.04697 0.22298 0.29897 0.0
N18 N 0.07394 0.22835 0.30469 0.0
C19 C 0.07653 0.20101 0.31082 0.0
C20 C 0.05013 0.17698 0.30872 0.0
C21 C 0.00312 0.17563 0.29532 0.0
H22 H 0.00548 0.18346 0.28769 0.0
H23 H 0.97748 0.18512 0.29808 0.0
H24 H 0.00372 0.14652 0.29581 0.0
O25 O 0.07334 0.25956 0.27987 0.0
O26 O 0.11965 0.27053 0.28908 0.0
H27 H 0.12945 0.19434 0.31563 0.0
H28 H 0.0969 0.17675 0.32377 0.0
C29 C 0.10297 0.1985 0.31874 0.0
H30 H 0.10314 0.22334 0.32286 0.0
H31 H 0.1741 0.23569 0.30127 0.0
O32 O 0.99079 0.24739 0.28321 0.0
C33 C 0.10597 0.26596 0.28082 0.0
Co34 Co 0.25996 0.96049 0.70488 0.0
Co35 Co 0.25961 0.89458 0.69134 0.0
C36 C 0.32009 0.9435 0.69144 0.0
O37 O 0.30514 0.96172 0.69792 0.0
O38 O 0.3055 0.91616 0.68797 0.0
C39 C 0.27002 0.03337 0.7089 0.0
O40 O 0.2864 0.03298 0.70061 0.0
C41 C 0.26116 0.8482 0.6744 0.0
C42 C 0.22072 0.80902 0.67831 0.0
C43 C 0.24304 0.81909 0.67096 0.0
N44 N 0.2493 0.8555 0.68326 0.0
N45 N 0.22555 0.83166 0.68561 0.0
C46 C 0.29021 0.86807 0.66961 0.0
H47 H 0.31221 0.87143 0.67472 0.0
H48 H 0.28067 0.89459 0.66755 0.0
H49 H 0.30034 0.8541 0.6632 0.0
C50 C 0.19424 0.97515 0.6945 0.0
N51 N 0.22271 0.95519 0.69618 0.0
N52 N 0.22303 0.92848 0.69018 0.0
C53 C 0.19501 0.93112 0.6843 0.0
C54 C 0.17582 0.96073 0.68686 0.0
C55 C 0.18382 0.00588 0.70058 0.0
H56 H 0.19046 0.00066 0.70819 0.0
H57 H 0.19862 0.02946 0.6982 0.0
H58 H 0.15528 0.01137 0.70003 0.0
O59 O 0.26065 0.92176 0.71424 0.0
O60 O 0.26223 0.87536 0.70461 0.0
H61 H 0.17775 0.88152 0.67886 0.0
H62 H 0.16819 0.91819 0.67105 0.0
C63 C 0.1878 0.9069 0.67607 0.0
H64 H 0.21243 0.90189 0.67207 0.0
H65 H 0.21188 0.83149 0.69209 0.0
O66 O 0.25598 0.00528 0.71202 0.0
C67 C 0.26211 0.88865 0.713 0.0
Co68 Co 0.9615 0.74639 0.2892 0.0
Co69 Co 0.89563 0.74175 0.30256 0.0
C70 C 0.94511 0.68236 0.30141 0.0
O71 O 0.96287 0.69954 0.29526 0.0
O72 O 0.91763 0.69538 0.30521 0.0
C73 C 0.03482 0.74076 0.28657 0.0
O74 O 0.03305 0.72905 0.29543 0.0
C75 C 0.84945 0.73522 0.31933 0.0
C76 C 0.8073 0.7729 0.31565 0.0
C77 C 0.81869 0.75012 0.32275 0.0
N78 N 0.85596 0.74864 0.3106 0.0
N79 N 0.83044 0.77076 0.30838 0.0
C80 C 0.87424 0.71164 0.32464 0.0
H81 H 0.90171 0.71714 0.32245 0.0
H82 H 0.87166 0.7151 0.33251 0.0
H83 H 0.86814 0.6839 0.32282 0.0
C84 C 0.97447 0.80979 0.30087 0.0
N85 N 0.95529 0.78131 0.29859 0.0
N86 N 0.92835 0.77895 0.30447 0.0
C87 C 0.92987 0.80575 0.3108 0.0
C88 C 0.9592 0.82607 0.30873 0.0
C89 C 0.00532 0.82241 0.29517 0.0
H90 H 0.00154 0.81623 0.28746 0.0
H91 H 0.02933 0.80878 0.29772 0.0
H92 H 0.00912 0.85118 0.29599 0.0
O93 O 0.92335 0.74713 0.27965 0.0
O94 O 0.87716 0.74156 0.28922 0.0
H95 H 0.87881 0.81932 0.31595 0.0
H96 H 0.91403 0.83109 0.32404 0.0
C97 C 0.90457 0.81098 0.31888 0.0
H98 H 0.90092 0.78585 0.32277 0.0
H99 H 0.82944 0.78523 0.30203 0.0
O100 O 0.00693 0.75141 0.28248 0.0
C101 C 0.89036 0.74408 0.28085 0.0
Co102 Co 0.73532 0.03435 0.70402 0.0
Co103 Co 0.72735 0.10198 0.69145 0.0
C104 C 0.67351 0.04587 0.69079 0.0
O105 O 0.69048 0.02831 0.69702 0.0
O106 O 0.68475 0.07538 0.68779 0.0
C107 C 0.73663 0.96032 0.70616 0.0
O108 O 0.72604 0.96158 0.6972 0.0
C109 C 0.72077 0.14649 0.67449 0.0
C110 C 0.74247 0.19699 0.67965 0.0
C111 C 0.72837 0.18065 0.67163 0.0
N112 N 0.73001 0.14297 0.68374 0.0
N113 N 0.74262 0.1733 0.68682 0.0
C114 C 0.70826 0.11651 0.66842 0.0
H115 H 0.71625 0.09103 0.67162 0.0
H116 H 0.71904 0.11848 0.66104 0.0
H117 H 0.67916 0.11718 0.66802 0.0
C118 C 0.80367 0.03169 0.69397 0.0
N119 N 0.77197 0.04624 0.6955 0.0
N120 N 0.76849 0.07417 0.69001 0.0
C121 C 0.7978 0.07803 0.68469 0.0
C122 C 0.82107 0.05122 0.68702 0.0
C123 C 0.81802 0.00171 0.69973 0.0
H124 H 0.80884 0.0036 0.70726 0.0
H125 H 0.80824 0.97662 0.69666 0.0
H126 H 0.84715 0.00143 0.69965 0.0
O127 O 0.72973 0.07106 0.71395 0.0
O128 O 0.72284 0.1185 0.70488 0.0
H129 H 0.8037 0.13238 0.68105 0.0
H130 H 0.82753 0.1028 0.67322 0.0
C131 C 0.80306 0.10647 0.6774 0.0
H132 H 0.78078 0.1064 0.67231 0.0
H133 H 0.75194 0.17761 0.69376 0.0
O134 O 0.74398 0.98884 0.71048 0.0
C135 C 0.72454 0.10399 0.7131 0.0
Co136 Co 0.03486 0.23373 0.95449 0.0
Co137 Co 0.10279 0.23212 0.94185 0.0
C138 C 0.05122 0.17348 0.94116 0.0
O139 O 0.03221 0.18873 0.94741 0.0
O140 O 0.07974 0.18723 0.93821 0.0
C141 C 0.96136 0.22647 0.95846 0.0
O142 O 0.96117 0.20865 0.95038 0.0
C143 C 0.14895 0.22814 0.92508 0.0
C144 C 0.19371 0.26118 0.92967 0.0
C145 C 0.18097 0.24146 0.92207 0.0
N146 N 0.14306 0.2394 0.93407 0.0
N147 N 0.17006 0.2588 0.93681 0.0
C148 C 0.1227 0.20814 0.91923 0.0
H149 H 0.09564 0.2144 0.92163 0.0
H150 H 0.12538 0.21441 0.91149 0.0
H151 H 0.12723 0.17956 0.92024 0.0
C152 C 0.0239 0.29985 0.94381 0.0
N153 N 0.04287 0.27099 0.94586 0.0
N154 N 0.07109 0.27037 0.94042 0.0
C155 C 0.07085 0.2989 0.93466 0.0
C156 C 0.04086 0.31838 0.93661 0.0
C157 C 0.99123 0.31024 0.94907 0.0
H158 H 0.99475 0.30565 0.95687 0.0
H159 H 0.96908 0.29366 0.94656 0.0
H160 H 0.98459 0.33831 0.94789 0.0
O161 O 0.07242 0.23093 0.96425 0.0
O162 O 0.12024 0.22853 0.95521 0.0
H163 H 0.12356 0.31179 0.93074 0.0
H164 H 0.09072 0.32945 0.92269 0.0
C165 C 0.09801 0.30654 0.92719 0.0
H166 H 0.10114 0.28331 0.92248 0.0
H167 H 0.17191 0.27115 0.94348 0.0
O168 O 0.98988 0.24009 0.9614 0.0
C169 C 0.10562 0.22855 0.96342 0.0
Co170 Co 0.23048 0.96052 0.0436 0.0
Co171 Co 0.22467 0.88955 0.05487 0.0
C172 C 0.17025 0.9458 0.05673 0.0
O173 O 0.18714 0.96621 0.05118 0.0
O174 O 0.18121 0.91496 0.0586 0.0
C175 C 0.22768 0.0349 0.04029 0.0
O176 O 0.21055 0.03523 0.04846 0.0
C177 C 0.22 0.84645 0.07197 0.0
C178 C 0.2355 0.79372 0.0668 0.0
C179 C 0.22518 0.81209 0.0749 0.0
N180 N 0.22728 0.8485 0.06257 0.0
N181 N 0.23634 0.8169 0.05949 0.0
C182 C 0.20644 0.87667 0.07778 0.0
H183 H 0.21794 0.90171 0.07516 0.0
H184 H 0.21206 0.87339 0.08553 0.0
H185 H 0.17754 0.87824 0.07685 0.0
C186 C 0.29946 0.96202 0.05322 0.0
N187 N 0.26797 0.94715 0.05162 0.0
N188 N 0.26546 0.91789 0.05662 0.0
C189 C 0.29536 0.91337 0.06167 0.0
C190 C 0.31788 0.94123 0.05969 0.0
C191 C 0.31252 0.9937 0.04792 0.0
H192 H 0.30467 0.99201 0.04027 0.0
H193 H 0.30028 0.01759 0.05103 0.0
H194 H 0.3415 0.99616 0.04833 0.0
O195 O 0.22299 0.92495 0.03342 0.0
O196 O 0.22103 0.87431 0.04134 0.0
H197 H 0.30001 0.85814 0.06439 0.0
H198 H 0.32767 0.88514 0.07199 0.0
C199 C 0.30181 0.8833 0.06838 0.0
H200 H 0.28136 0.8833 0.07402 0.0
H201 H 0.24323 0.81121 0.05241 0.0
O202 O 0.23969 0.00599 0.0371 0.0
C203 C 0.22022 0.89157 0.03351 0.0
Co204 Co 0.96127 0.76042 0.95112 0.0
Co205 Co 0.89514 0.76557 0.93791 0.0
C206 C 0.95092 0.82047 0.93739 0.0
O207 O 0.96831 0.80428 0.94382 0.0
O208 O 0.92174 0.80857 0.93432 0.0
C209 C 0.03475 0.76004 0.95584 0.0
O210 O 0.03892 0.77136 0.94701 0.0
C211 C 0.85373 0.76903 0.92029 0.0
C212 C 0.80365 0.74471 0.92481 0.0
C213 C 0.82087 0.75909 0.91699 0.0
N214 N 0.85584 0.7609 0.92964 0.0
N215 N 0.8257 0.74677 0.93234 0.0
C216 C 0.88385 0.78283 0.91451 0.0
H217 H 0.90915 0.77475 0.91779 0.0
H218 H 0.88251 0.77321 0.907 0.0
H219 H 0.88269 0.81198 0.91443 0.0
C220 C 0.96692 0.69121 0.9417 0.0
N221 N 0.95152 0.72274 0.9428 0.0
N222 N 0.92399 0.72478 0.93711 0.0
C223 C 0.92125 0.69451 0.93212 0.0
C224 C 0.94836 0.67236 0.93487 0.0
C225 C -0.00161 0.67931 0.94726 0.0
H226 H 0.99314 0.68205 0.95505 0.0
H227 H 0.02098 0.69649 0.94546 0.0
H228 H 0.00556 0.65171 0.9456 0.0
O229 O 0.92269 0.76672 0.9604 0.0
O230 O 0.87585 0.77124 0.95103 0.0
H231 H 0.86634 0.68827 0.9294 0.0
H232 H 0.89377 0.65864 0.92262 0.0
C233 C 0.89157 0.68574 0.92549 0.0
H234 H 0.8914 0.70458 0.91943 0.0
H235 H 0.82056 0.73767 0.93926 0.0
O236 O 0.00412 0.75235 0.95879 0.0
C237 C 0.88978 0.77095 0.95934 0.0
Co238 Co 0.76033 0.03399 0.04246 0.0
Co239 Co 0.75847 0.10041 0.05579 0.0
C240 C 0.81846 0.05012 0.05637 0.0
O241 O 0.80429 0.03079 0.05 0.0
O242 O 0.80384 0.0783 0.05926 0.0
C243 C 0.76947 0.96134 0.03749 0.0
O244 O 0.7865 0.95973 0.04567 0.0
C245 C 0.76008 0.14357 0.07324 0.0
C246 C 0.72418 0.18702 0.06937 0.0
C247 C 0.74431 0.17374 0.07681 0.0
N248 N 0.74907 0.13882 0.06417 0.0
N249 N 0.72796 0.16508 0.06186 0.0
C250 C 0.7864 0.12031 0.07809 0.0
H251 H 0.81033 0.11868 0.07359 0.0
H252 H 0.77548 0.09338 0.07878 0.0
H253 H 0.79426 0.13041 0.08523 0.0
C254 C 0.69293 0.02028 0.05211 0.0
N255 N 0.72179 0.03997 0.05071 0.0
N256 N 0.72133 0.06697 0.05661 0.0
C257 C 0.69234 0.06486 0.06214 0.0
C258 C 0.67338 0.0352 0.05946 0.0
C259 C 0.68333 0.98929 0.04602 0.0
H260 H 0.6902 0.99461 0.03843 0.0
H261 H 0.6985 0.96603 0.04845 0.0
H262 H 0.65487 0.98326 0.04645 0.0
O263 O 0.76354 0.07329 0.03326 0.0
O264 O 0.76234 0.12034 0.04266 0.0
H265 H 0.67631 0.11548 0.06714 0.0
H266 H 0.66251 0.07958 0.07477 0.0
C267 C 0.68403 0.08963 0.07016 0.0
H268 H 0.70767 0.0934 0.07467 0.0
H269 H 0.71554 0.1676 0.05522 0.0
O270 O 0.75573 0.99026 0.03488 0.0
C271 C 0.76418 0.10651 0.03436 0.0
Co272 Co 0.53597 0.75922 0.79024 0.0
Co273 Co 0.60621 0.76138 0.80192 0.0
C274 C 0.5554 0.82058 0.80289 0.0
O275 O 0.53468 0.80479 0.79715 0.0
O276 O 0.58458 0.80702 0.80539 0.0
C277 C 0.46172 0.76593 0.78729 0.0
O278 O 0.46284 0.78373 0.79536 0.0
C279 C 0.6554 0.76676 0.81801 0.0
C280 C 0.69795 0.73099 0.8134 0.0
C281 C 0.6872 0.75247 0.82086 0.0
N282 N 0.64772 0.75434 0.80924 0.0
N283 N 0.67348 0.73339 0.80646 0.0
C284 C 0.63076 0.78857 0.82389 0.0
H285 H 0.60315 0.78204 0.82208 0.0
H286 H 0.6351 0.78436 0.83168 0.0
H287 H 0.63521 0.81676 0.82223 0.0
C288 C 0.52687 0.69367 0.80125 0.0
N289 N 0.54539 0.72252 0.79891 0.0
N290 N 0.57427 0.72366 0.80409 0.0
C291 C 0.57476 0.69566 0.81004 0.0
C292 C 0.54469 0.67579 0.80844 0.0
C293 C 0.49401 0.68246 0.7962 0.0
H294 H 0.49641 0.68776 0.7884 0.0
H295 H 0.47154 0.69791 0.79901 0.0
H296 H 0.48861 0.65406 0.79725 0.0
O297 O 0.57179 0.76082 0.77997 0.0
O298 O 0.62128 0.76342 0.78834 0.0
H299 H 0.62742 0.68174 0.81374 0.0
H300 H 0.59505 0.66772 0.82242 0.0
C301 C 0.6026 0.68901 0.8174 0.0
H302 H 0.60725 0.7133 0.82159 0.0
H303 H 0.67374 0.7198 0.79995 0.0
O304 O 0.4898 0.75262 0.78396 0.0
C305 C 0.60513 0.76285 0.78035 0.0
Co306 Co 0.76037 0.45988 0.20518 0.0
Co307 Co 0.76024 0.39118 0.1927 0.0
C308 C 0.82101 0.44022 0.19238 0.0
O309 O 0.80596 0.46071 0.19832 0.0
O310 O 0.80644 0.41193 0.18957 0.0
C311 C 0.76873 0.5336 0.20838 0.0
O312 O 0.78522 0.53234 0.20011 0.0
C313 C 0.76358 0.34536 0.17582 0.0
C314 C 0.72688 0.30277 0.17983 0.0
C315 C 0.74776 0.31496 0.1724 0.0
N316 N 0.75183 0.35133 0.18476 0.0
N317 N 0.73032 0.32552 0.18717 0.0
C318 C 0.79033 0.36794 0.1709 0.0
H319 H 0.77944 0.39471 0.16982 0.0
H320 H 0.79884 0.35676 0.16394 0.0
H321 H 0.81382 0.37033 0.17555 0.0
C322 C 0.69505 0.47251 0.19437 0.0
N323 N 0.72342 0.45287 0.19643 0.0
N324 N 0.7237 0.42482 0.19091 0.0
C325 C 0.69569 0.42613 0.18499 0.0
C326 C 0.67663 0.45641 0.18699 0.0
C327 C 0.68458 0.50459 0.19991 0.0
H328 H 0.6905 0.50081 0.20763 0.0
H329 H 0.69993 0.52744 0.19728 0.0
H330 H 0.65618 0.51036 0.19911 0.0
O331 O 0.76086 0.42241 0.21501 0.0
O332 O 0.76181 0.37393 0.20614 0.0
H333 H 0.68043 0.37452 0.18057 0.0
H334 H 0.66724 0.40886 0.17234 0.0
C335 C 0.68831 0.39983 0.17725 0.0
H336 H 0.71241 0.39542 0.17299 0.0
H337 H 0.7172 0.32399 0.19373 0.0
O338 O 0.75544 0.50564 0.21182 0.0
C339 C 0.76183 0.38905 0.21429 0.0
Co340 Co 0.46452 0.23794 0.79425 0.0
Co341 Co 0.39632 0.23182 0.80668 0.0
C342 C 0.45008 0.17554 0.80708 0.0
O343 O 0.46909 0.19283 0.80123 0.0
O344 O 0.42035 0.187 0.80984 0.0
C345 C 0.53839 0.23389 0.79075 0.0
O346 O 0.5387 0.21738 0.79903 0.0
C347 C 0.34952 0.22494 0.82324 0.0
C348 C 0.30445 0.25777 0.81878 0.0
C349 C 0.31733 0.23775 0.82629 0.0
N350 N 0.35538 0.23687 0.81432 0.0
N351 N 0.32814 0.25602 0.81163 0.0
C352 C 0.37612 0.20525 0.82905 0.0
H353 H 0.40307 0.21205 0.82667 0.0
H354 H 0.37336 0.21123 0.83681 0.0
H355 H 0.37212 0.17662 0.82798 0.0
C356 C 0.47007 0.30528 0.80463 0.0
N357 N 0.45407 0.27442 0.80289 0.0
N358 N 0.4265 0.27129 0.80851 0.0
C359 C 0.42457 0.29988 0.81421 0.0
C360 C 0.45205 0.32247 0.81192 0.0
C361 C 0.49996 0.31914 0.79876 0.0
H362 H 0.497 0.31074 0.79118 0.0
H363 H 0.52494 0.30816 0.80156 0.0
H364 H 0.50127 0.34825 0.79901 0.0
O365 O 0.4276 0.2338 0.78434 0.0
O366 O 0.37956 0.22944 0.79325 0.0
H367 H 0.37187 0.3109 0.81856 0.0
H368 H 0.40489 0.32649 0.82687 0.0
C369 C 0.39762 0.30489 0.8219 0.0
H370 H 0.395 0.28038 0.82612 0.0
H371 H 0.3263 0.26891 0.80504 0.0
O372 O 0.5096 0.2461 0.78755 0.0
C373 C 0.39445 0.23044 0.78508 0.0
Co374 Co 0.23993 0.53069 0.20321 0.0
Co375 Co 0.23021 0.59909 0.19102 0.0
C376 C 0.17657 0.54237 0.19071 0.0
O377 O 0.19469 0.52382 0.19647 0.0
O378 O 0.1869 0.57257 0.18799 0.0
C379 C 0.24243 0.45654 0.20581 0.0
O380 O 0.23095 0.45654 0.19691 0.0
C381 C 0.2209 0.64246 0.17396 0.0
C382 C 0.24115 0.694 0.17876 0.0
C383 C 0.22689 0.67673 0.1709 0.0
N384 N 0.23116 0.6398 0.18315 0.0
N385 N 0.24293 0.67073 0.18602 0.0
C386 C 0.2088 0.61167 0.16813 0.0
H387 H 0.2178 0.58668 0.17143 0.0
H388 H 0.21893 0.61339 0.16068 0.0
H389 H 0.17967 0.61143 0.16791 0.0
C390 C 0.307 0.52869 0.1926 0.0
N391 N 0.27548 0.5431 0.19444 0.0
N392 N 0.27131 0.57132 0.18909 0.0
C393 C 0.30005 0.57551 0.18355 0.0
C394 C 0.3236 0.54856 0.18558 0.0
C395 C 0.32206 0.49858 0.19817 0.0
H396 H 0.31381 0.50031 0.20578 0.0
H397 H 0.31192 0.47355 0.19516 0.0
H398 H 0.35117 0.49832 0.19785 0.0
O399 O 0.23494 0.56743 0.21318 0.0
O400 O 0.22751 0.61569 0.20445 0.0
H401 H 0.30485 0.63015 0.18013 0.0
H402 H 0.32886 0.60142 0.17209 0.0
C403 C 0.30452 0.60444 0.17637 0.0
H404 H 0.28203 0.60428 0.17135 0.0
H405 H 0.2527 0.67578 0.19288 0.0
O406 O 0.24983 0.48567 0.2098 0.0
C407 C 0.2299 0.60045 0.21256 0.0
Co408 Co 0.52762 0.72778 0.44916 0.0
Co409 Co 0.5974 0.72324 0.43731 0.0
C410 C 0.53997 0.67078 0.43467 0.0
O411 O 0.52089 0.6863 0.44086 0.0
O412 O 0.57075 0.68163 0.43267 0.0
C413 C 0.45421 0.72318 0.45386 0.0
O414 O 0.45242 0.70384 0.44607 0.0
C415 C 0.64293 0.72125 0.42048 0.0
C416 C 0.69232 0.74384 0.42611 0.0
C417 C 0.6767 0.73078 0.41787 0.0
N418 N 0.63876 0.72826 0.42985 0.0
N419 N 0.66848 0.74136 0.43321 0.0
C420 C 0.61393 0.70893 0.41405 0.0
H421 H 0.58814 0.71767 0.41689 0.0
H422 H 0.6175 0.71902 0.40665 0.0
H423 H 0.61411 0.67976 0.41383 0.0
C424 C 0.52571 0.79812 0.44042 0.0
N425 N 0.54065 0.76642 0.44159 0.0
N426 N 0.56963 0.76477 0.43646 0.0
C427 C 0.57397 0.7956 0.43182 0.0
C428 C 0.54625 0.81762 0.43418 0.0
C429 C 0.49258 0.8094 0.4453 0.0
H430 H 0.49667 0.80919 0.45319 0.0
H431 H 0.47142 0.7903 0.44364 0.0
H432 H 0.48416 0.836 0.44298 0.0
O433 O 0.56378 0.71831 0.45905 0.0
O434 O 0.61309 0.71522 0.45065 0.0
H435 H 0.62953 0.80112 0.43023 0.0
H436 H 0.60441 0.83241 0.42332 0.0
C437 C 0.60541 0.80483 0.4259 0.0
H438 H 0.60679 0.787 0.41962 0.0
H439 H 0.67217 0.74947 0.44029 0.0
O440 O 0.48337 0.73696 0.45622 0.0
C441 C 0.59689 0.714 0.45862 0.0
Co442 Co 0.72568 0.46768 0.54517 0.0
Co443 Co 0.72393 0.39547 0.55596 0.0
C444 C 0.67024 0.45175 0.55955 0.0
O445 O 0.68501 0.47277 0.55372 0.0
O446 O 0.68184 0.42077 0.5609 0.0
C447 C 0.71727 0.54091 0.54051 0.0
O448 O 0.69691 0.5414 0.54811 0.0
C449 C 0.73032 0.35218 0.57304 0.0
C450 C 0.7302 0.29823 0.56714 0.0
C451 C 0.73142 0.31706 0.57564 0.0
N452 N 0.72888 0.3541 0.56344 0.0
N453 N 0.729 0.32181 0.55993 0.0
C454 C 0.72743 0.38336 0.57956 0.0
H455 H 0.72294 0.40779 0.5754 0.0
H456 H 0.752 0.38645 0.58374 0.0
H457 H 0.70566 0.37925 0.58474 0.0
C458 C 0.79687 0.46935 0.55323 0.0
N459 N 0.76517 0.45425 0.55233 0.0
N460 N 0.76522 0.42364 0.55675 0.0
C461 C 0.79745 0.41804 0.56047 0.0
C462 C 0.81835 0.44696 0.55842 0.0
C463 C 0.8065 0.504 0.54887 0.0
H464 H 0.80745 0.50124 0.54095 0.0
H465 H 0.78603 0.52371 0.55063 0.0
H466 H 0.83231 0.5135 0.55151 0.0
O467 O 0.71608 0.43233 0.53504 0.0
O468 O 0.71572 0.38094 0.54257 0.0
H469 H 0.79716 0.36158 0.56095 0.0
H470 H 0.83843 0.38134 0.56441 0.0
C471 C 0.80943 0.384 0.56476 0.0
H472 H 0.80146 0.38306 0.5724 0.0
H473 H 0.72749 0.31586 0.55263 0.0
O474 O 0.7333 0.51271 0.53831 0.0
C475 C 0.71314 0.39898 0.53491 0.0
Co476 Co 0.46877 0.27124 0.4472 0.0
Co477 Co 0.39554 0.26222 0.43726 0.0
C478 C 0.44256 0.32465 0.43351 0.0
O479 O 0.46668 0.31277 0.43892 0.0
O480 O 0.41354 0.3084 0.43247 0.0
C481 C 0.53992 0.29039 0.45204 0.0
O482 O 0.53622 0.31426 0.44531 0.0
C483 C 0.34826 0.26018 0.42095 0.0
C484 C 0.30255 0.2306 0.42646 0.0
C485 C 0.3154 0.24775 0.41842 0.0
N486 N 0.35455 0.25118 0.43009 0.0
N487 N 0.32711 0.23361 0.43338 0.0
C488 C 0.37438 0.27825 0.41462 0.0
H489 H 0.40148 0.27086 0.41676 0.0
H490 H 0.37009 0.27134 0.40697 0.0
H491 H 0.37148 0.30712 0.41545 0.0
C492 C 0.48074 0.20243 0.43834 0.0
N493 N 0.46056 0.23077 0.43989 0.0
N494 N 0.42981 0.2262 0.43577 0.0
C495 C 0.42928 0.19428 0.43155 0.0
C496 C 0.46159 0.17815 0.43307 0.0
C497 C 0.51768 0.19889 0.4419 0.0
H498 H 0.53239 0.22341 0.44035 0.0
H499 H 0.53143 0.17644 0.43847 0.0
H500 H 0.51734 0.19508 0.44979 0.0
O501 O 0.43383 0.2754 0.45764 0.0
O502 O 0.38175 0.26689 0.45089 0.0
H503 H 0.40168 0.15062 0.42492 0.0
H504 H 0.39012 0.1939 0.42057 0.0
C505 C 0.39737 0.1784 0.42702 0.0
H506 H 0.37514 0.17968 0.43214 0.0
H507 H 0.32523 0.22353 0.44033 0.0
O508 O 0.51498 0.26903 0.45369 0.0
C509 C 0.40059 0.27275 0.45827 0.0
Co510 Co 0.27396 0.53196 0.54274 0.0
Co511 Co 0.26466 0.60001 0.55516 0.0
C512 C 0.3258 0.55071 0.55781 0.0
O513 O 0.31463 0.52976 0.55138 0.0
O514 O 0.30958 0.57907 0.5598 0.0
C515 C 0.28431 0.45891 0.53766 0.0
O516 O 0.29639 0.45533 0.54643 0.0
C517 C 0.25254 0.63903 0.57302 0.0
C518 C 0.23714 0.69132 0.56752 0.0
C519 C 0.24259 0.67256 0.57592 0.0
N520 N 0.25259 0.6381 0.56337 0.0
N521 N 0.24328 0.66939 0.56014 0.0
C522 C 0.26363 0.60884 0.57922 0.0
H523 H 0.27811 0.58888 0.57503 0.0
H524 H 0.24005 0.59586 0.58226 0.0
H525 H 0.28021 0.61829 0.58525 0.0
C526 C 0.20374 0.51698 0.55052 0.0
N527 N 0.23252 0.53728 0.5499 0.0
N528 N 0.2278 0.56613 0.55496 0.0
C529 C 0.19532 0.56535 0.55883 0.0
C530 C 0.17919 0.5341 0.55618 0.0
C531 C 0.20032 0.48162 0.5459 0.0
H532 H 0.22262 0.46487 0.54817 0.0
H533 H 0.17556 0.4682 0.54792 0.0
H534 H 0.20155 0.48463 0.53798 0.0
O535 O 0.27907 0.57123 0.53351 0.0
O536 O 0.27219 0.61967 0.54218 0.0
H537 H 0.14973 0.59283 0.56429 0.0
H538 H 0.18862 0.59566 0.57159 0.0
C539 C 0.17875 0.59531 0.56411 0.0
H540 H 0.18583 0.62055 0.56064 0.0
H541 H 0.24141 0.67587 0.55288 0.0
O542 O 0.27292 0.48867 0.53491 0.0
C543 C 0.27768 0.6046 0.53417 0.0
C544 C 0.11538 0.26071 0.26308 0.0
C545 C 0.12781 0.27099 0.27215 0.0
C546 C 0.13402 0.26947 0.25478 0.0
C547 C 0.21839 0.30896 0.24598 0.0
H548 H 0.15797 0.34638 0.22605 0.0
C549 C 0.25399 0.42388 0.22106 0.0
C550 C 0.24069 0.42415 0.21166 0.0
C551 C 0.24663 0.39586 0.22722 0.0
C552 C 0.17533 0.33536 0.23143 0.0
H553 H 0.17052 0.29689 0.27966 0.0
H554 H 0.20223 0.3133 0.26524 0.0
H555 H 0.13232 0.3139 0.23926 0.0
H556 H 0.21166 0.39395 0.20108 0.0
H557 H 0.19856 0.34518 0.21189 0.0
H558 H 0.26115 0.33278 0.23835 0.0
C559 C 0.17856 0.29778 0.26448 0.0
C560 C 0.16061 0.3166 0.23903 0.0
C561 C 0.16018 0.28859 0.27278 0.0
C562 C 0.2221 0.39465 0.20831 0.0
C563 C 0.21448 0.36677 0.2145 0.0
C564 C 0.23308 0.32813 0.23842 0.0
C565 C 0.16524 0.28918 0.25535 0.0
C566 C 0.1818 0.30398 0.24655 0.0
C567 C 0.22563 0.3677 0.22411 0.0
C568 C 0.21155 0.34228 0.2312 0.0
H569 H 0.09076 0.24667 0.26237 0.0
H570 H 0.12338 0.26167 0.2479 0.0
H571 H 0.23561 0.29899 0.25154 0.0
H572 H 0.26864 0.4461 0.22383 0.0
H573 H 0.25541 0.39743 0.2346 0.0
C574 C 0.40352 0.79123 0.78274 0.0
C575 C 0.42942 0.76541 0.78144 0.0
C576 C 0.376 0.79453 0.77617 0.0
C577 C 0.35951 0.77569 0.75071 0.0
H578 H 0.26999 0.81987 0.75622 0.0
C579 C 0.27529 0.82969 0.7202 0.0
C580 C 0.26724 0.8655 0.72143 0.0
C581 C 0.28598 0.80927 0.72801 0.0
C582 C 0.29479 0.80727 0.75458 0.0
H583 H 0.44505 0.7206 0.77283 0.0
H584 H 0.39634 0.72551 0.76156 0.0
H585 H 0.30584 0.79719 0.7694 0.0
H586 H 0.26114 0.90708 0.73197 0.0
H587 H 0.27999 0.87155 0.74554 0.0
H588 H 0.34907 0.78666 0.73596 0.0
C589 C 0.39793 0.74411 0.76743 0.0
C590 C 0.3154 0.79441 0.76212 0.0
C591 C 0.42576 0.74117 0.77391 0.0
C592 C 0.26748 0.87968 0.73075 0.0
C593 C 0.278 0.85922 0.73856 0.0
C594 C 0.33882 0.78822 0.74319 0.0
C595 C 0.37354 0.77175 0.76824 0.0
C596 C 0.34858 0.77953 0.76029 0.0
C597 C 0.28861 0.82418 0.73721 0.0
C598 C 0.30678 0.80516 0.74506 0.0
H599 H 0.40565 0.81027 0.78849 0.0
H600 H 0.35799 0.81635 0.77701 0.0
H601 H 0.38509 0.765 0.74898 0.0
H602 H 0.27505 0.8178 0.71314 0.0
H603 H 0.29357 0.78219 0.72679 0.0
C604 C 0.79455 0.59204 0.21251 0.0
C605 C 0.76899 0.56612 0.21415 0.0
C606 C 0.79818 0.62029 0.21884 0.0
C607 C 0.7803 0.64048 0.2442 0.0
H608 H 0.82247 0.72999 0.23748 0.0
C609 C 0.83164 0.73073 0.2736 0.0
C610 C 0.8674 0.7389 0.27238 0.0
C611 C 0.81161 0.71881 0.26586 0.0
C612 C 0.81044 0.7052 0.23945 0.0
H613 H 0.72513 0.55099 0.22315 0.0
H614 H 0.73055 0.60096 0.23401 0.0
H615 H 0.80043 0.69138 0.22481 0.0
H616 H 0.90915 0.74426 0.26188 0.0
H617 H 0.87425 0.72326 0.24841 0.0
H618 H 0.79107 0.65376 0.25878 0.0
C619 C 0.74872 0.59886 0.22806 0.0
C620 C 0.79797 0.683 0.2322 0.0
C621 C 0.74548 0.5703 0.22182 0.0
C622 C 0.88179 0.73788 0.26309 0.0
C623 C 0.8617 0.72606 0.25535 0.0
C624 C 0.79239 0.66277 0.25142 0.0
C625 C 0.77596 0.6235 0.22686 0.0
C626 C 0.78375 0.64985 0.23448 0.0
C627 C 0.82686 0.71499 0.25674 0.0
C628 C 0.80853 0.69489 0.24912 0.0
H629 H 0.81305 0.5895 0.20665 0.0
H630 H 0.81971 0.63842 0.21772 0.0
H631 H 0.77017 0.61499 0.24627 0.0
H632 H 0.81956 0.73163 0.28063 0.0
H633 H 0.78464 0.71097 0.2671 0.0
C634 C 0.59466 0.20619 0.78555 0.0
C635 C 0.56938 0.23274 0.78441 0.0
C636 C 0.6201 0.20061 0.7785 0.0
C637 C 0.63004 0.21477 0.75252 0.0
H638 H 0.71948 0.16841 0.75666 0.0
C639 C 0.70918 0.16133 0.72087 0.0
C640 C 0.71798 0.12556 0.72176 0.0
C641 C 0.69874 0.18071 0.72888 0.0
C642 C 0.69462 0.1815 0.75541 0.0
H643 H 0.553 0.27657 0.77555 0.0
H644 H 0.5983 0.26788 0.76343 0.0
H645 H 0.68775 0.1933 0.77032 0.0
H646 H 0.72495 0.08277 0.7319 0.0
H647 H 0.7065 0.11665 0.74587 0.0
H648 H 0.63653 0.20245 0.73768 0.0
C649 C 0.59768 0.25036 0.76955 0.0
C650 C 0.67638 0.19566 0.76322 0.0
C651 C 0.57185 0.25553 0.77652 0.0
C652 C 0.71812 0.1102 0.73094 0.0
C653 C 0.70781 0.12967 0.73897 0.0
C654 C 0.64841 0.20101 0.74474 0.0
C655 C 0.62111 0.22184 0.77023 0.0
C656 C 0.64338 0.21168 0.7619 0.0
C657 C 0.69704 0.16482 0.73796 0.0
C658 C 0.68045 0.18348 0.74612 0.0
H659 H 0.59339 0.18818 0.79157 0.0
H660 H 0.63743 0.17822 0.77926 0.0
H661 H 0.60443 0.22617 0.7512 0.0
H662 H 0.70912 0.17414 0.71392 0.0
H663 H 0.69097 0.20789 0.72792 0.0
C664 C 0.25091 0.06856 0.02625 0.0
C665 C 0.22768 0.06627 0.03405 0.0
C666 C 0.24701 0.09514 0.01941 0.0
C667 C 0.19549 0.17648 0.01343 0.0
H668 H 0.2028 0.13927 0.98761 0.0
C669 C 0.1119 0.22216 0.98125 0.0
C670 C 0.12733 0.22245 0.97209 0.0
C671 C 0.13122 0.21136 0.98925 0.0
C672 C 0.20127 0.15043 0.99475 0.0
H673 H 0.1836 0.09123 0.04114 0.0
H674 H 0.17581 0.13658 0.02907 0.0
H675 H 0.22472 0.10499 0.00096 0.0
H676 H 0.17594 0.21406 0.96427 0.0
H677 H 0.20945 0.19497 0.97823 0.0
H678 H 0.1698 0.22104 0.0071 0.0
C679 C 0.19761 0.11854 0.02828 0.0
C680 C 0.21399 0.13078 0.00245 0.0
C681 C 0.20193 0.09234 0.03521 0.0
C682 C 0.16311 0.21384 0.9712 0.0
C683 C 0.18233 0.20283 0.97919 0.0
C684 C 0.18234 0.19599 0.00571 0.0
C685 C 0.21935 0.11956 0.02012 0.0
C686 C 0.21058 0.14313 0.01192 0.0
C687 C 0.16629 0.20047 0.98824 0.0
C688 C 0.18447 0.18277 0.99631 0.0
H689 H 0.27136 0.04909 0.02526 0.0
H690 H 0.26488 0.09568 0.01337 0.0
H691 H 0.19298 0.18715 0.0206 0.0
H692 H 0.08448 0.22886 0.9822 0.0
H693 H 0.11808 0.20958 0.99613 0.0
C694 C 0.09808 0.77119 0.9598 0.0
C695 C 0.06427 0.76101 0.96274 0.0
C696 C 0.1245 0.77715 0.96659 0.0
C697 C 0.14502 0.76879 0.99283 0.0
H698 H 0.19585 0.85564 0.98852 0.0
C699 C 0.21851 0.83607 0.02382 0.0
C700 C 0.21393 0.87267 0.0244 0.0
C701 C 0.20961 0.81792 0.01544 0.0
C702 C 0.1818 0.83138 0.98987 0.0
H703 H 0.03231 0.74693 0.97504 0.0
H704 H 0.07755 0.75833 0.98681 0.0
H705 H 0.16203 0.82995 0.97554 0.0
H706 H 0.19746 0.91908 0.01656 0.0
H707 H 0.18057 0.88755 0.00217 0.0
H708 H 0.16218 0.77184 0.00737 0.0
C709 C 0.08423 0.76115 0.9793 0.0
C710 C 0.16283 0.81625 0.98235 0.0
C711 C 0.05803 0.75488 0.97253 0.0
C712 C 0.20143 0.89089 0.01633 0.0
C713 C 0.19201 0.87273 0.00802 0.0
C714 C 0.16349 0.78424 0.00039 0.0
C715 C 0.11754 0.77331 0.97646 0.0
C716 C 0.14313 0.78542 0.98383 0.0
C717 C 0.19538 0.83591 0.00751 0.0
C718 C 0.1811 0.81641 -0.0009 0.0
H719 H 0.10383 0.77577 0.95229 0.0
H720 H 0.15005 0.7858 0.96413 0.0
H721 H 0.13091 0.74456 0.99418 0.0
H722 H 0.22852 0.82134 0.02989 0.0
H723 H 0.21327 0.7897 0.01525 0.0
C724 C 0.83272 0.78911 0.96682 0.0
C725 C 0.8678 0.77819 0.96787 0.0
C726 C 0.81348 0.80041 0.97477 0.0
C727 C 0.81217 0.80385 0.00138 0.0
H728 H 0.77352 0.89695 -0.00268 0.0
C729 C 0.79564 0.90502 0.03166 0.0
C730 C 0.76997 0.93132 0.03078 0.0
C731 C 0.79968 0.87972 0.02447 0.0
C732 C 0.78326 0.87061 -0.00141 0.0
H733 H 0.9093 0.76821 0.9782 0.0
H734 H 0.87578 0.78806 0.99204 0.0
H735 H 0.79459 0.8634 0.98372 0.0
H736 H 0.72634 0.94997 0.02218 0.0
H737 H 0.73257 0.90515 0.0098 0.0
H738 H 0.80159 0.81151 0.01632 0.0
C739 C 0.86313 0.78782 0.98508 0.0
C740 C 0.79544 0.85137 0.99076 0.0
C741 C 0.88244 0.77672 0.97712 0.0
C742 C 0.74675 0.93033 0.02295 0.0
C743 C 0.75045 0.90474 0.01584 0.0
C744 C 0.79967 0.82301 0.00923 0.0
C745 C 0.82883 0.80076 0.98394 0.0
C746 C 0.8109 0.81822 0.99209 0.0
C747 C 0.7778 0.87993 0.01633 0.0
C748 C 0.78597 0.85707 0.00796 0.0
H749 H 0.82053 0.79031 0.9598 0.0
H750 H 0.78694 0.8099 0.97371 0.0
H751 H 0.82362 0.77816 0.00259 0.0
H752 H 0.81393 0.90512 0.03761 0.0
H753 H 0.82125 0.86131 0.02507 0.0
C754 C 0.77037 0.11462 0.01661 0.0
C755 C 0.77037 0.12916 0.02588 0.0
C756 C 0.78136 0.13455 0.00875 0.0
C757 C 0.84337 0.2041 0.00373 0.0
H758 H 0.80784 0.19617 0.97774 0.0
C759 C 0.92777 0.25072 0.97237 0.0
C760 C 0.93008 0.22683 0.96471 0.0
C761 C 0.90085 0.24774 0.97912 0.0
C762 C 0.81814 0.19862 0.98495 0.0
H763 H 0.77952 0.17688 0.03406 0.0
H764 H 0.79897 0.21155 0.02032 0.0
H765 H 0.77275 0.17406 0.99112 0.0
H766 H 0.90488 0.18248 0.95778 0.0
H767 H 0.85882 0.17636 0.96972 0.0
H768 H 0.88959 0.22645 -0.00235 0.0
C769 C 0.79068 0.18463 0.01917 0.0
C770 C 0.79796 0.18609 0.99261 0.0
C771 C 0.77945 0.16477 0.02703 0.0
C772 C 0.9038 0.20127 0.96361 0.0
C773 C 0.87718 0.19793 0.97045 0.0
C774 C 0.86366 0.21628 0.99609 0.0
C775 C 0.79275 0.16938 0.01 0.0
C776 C 0.81081 0.18789 0.00205 0.0
C777 C 0.87602 0.22044 0.97846 0.0
C778 C 0.85177 0.21282 0.98658 0.0
H779 H 0.76328 0.08736 0.01545 0.0
H780 H 0.78293 0.12198 0.00179 0.0
H781 H 0.85424 0.2054 0.0109 0.0
H782 H 0.94738 0.27108 0.9733 0.0
H783 H 0.90027 0.26611 0.98506 0.0
C784 C 0.60986 0.76079 0.76242 0.0
C785 C 0.62524 0.76786 0.77137 0.0
C786 C 0.62721 0.76994 0.75394 0.0
C787 C 0.71229 0.80564 0.74432 0.0
H788 H 0.65033 0.8511 0.72606 0.0
C789 C 0.74825 0.92491 0.72095 0.0
C790 C 0.73416 0.92717 0.71165 0.0
C791 C 0.74065 0.89603 0.72679 0.0
C792 C 0.66802 0.83788 0.73097 0.0
H793 H 0.67166 0.78835 0.77846 0.0
H794 H 0.70113 0.80564 0.76379 0.0
H795 H 0.62544 0.81714 0.7391 0.0
H796 H 0.7032 0.89977 0.70092 0.0
H797 H 0.68947 0.84962 0.7112 0.0
H798 H 0.75477 0.82898 0.73646 0.0
C799 C 0.67615 0.79222 0.76321 0.0
C800 C 0.65375 0.81822 0.73847 0.0
C801 C 0.65908 0.78253 0.77167 0.0
C802 C 0.71433 0.89888 0.70807 0.0
C803 C 0.70637 0.87021 0.71395 0.0
C804 C 0.72654 0.82581 0.73689 0.0
C805 C 0.66004 0.78695 0.75424 0.0
C806 C 0.67563 0.80265 0.74541 0.0
C807 C 0.71854 0.86908 0.72346 0.0
C808 C 0.70446 0.84282 0.73029 0.0
H809 H 0.584 0.74903 0.76195 0.0
H810 H 0.61435 0.76463 0.74716 0.0
H811 H 0.73001 0.79336 0.7494 0.0
H812 H 0.76384 0.94619 0.72388 0.0
H813 H 0.75019 0.89594 0.73411 0.0
C814 C 0.75936 0.38185 0.23214 0.0
C815 C 0.76672 0.36769 0.22306 0.0
C816 C 0.76893 0.3637 0.24046 0.0
C817 C 0.80725 0.27861 0.24938 0.0
H818 H 0.8511 0.34023 0.26803 0.0
C819 C 0.92713 0.24344 0.27265 0.0
C820 C 0.92915 0.25715 0.282 0.0
C821 C 0.89815 0.25079 0.26684 0.0
C822 C 0.83835 0.32259 0.26301 0.0
H823 H 0.78804 0.32251 0.21556 0.0
H824 H 0.80609 0.29167 0.22998 0.0
H825 H 0.81634 0.36534 0.25519 0.0
H826 H 0.90116 0.28705 0.29283 0.0
H827 H 0.8508 0.30026 0.28261 0.0
H828 H 0.83183 0.23604 0.25695 0.0
C829 C 0.79213 0.31629 0.23077 0.0
C830 C 0.81822 0.33699 0.25563 0.0
C831 C 0.78198 0.33414 0.22246 0.0
C832 C 0.90051 0.27626 0.28564 0.0
C833 C 0.87171 0.28392 0.27979 0.0
C834 C 0.82789 0.26424 0.25671 0.0
C835 C 0.78673 0.33132 0.23988 0.0
C836 C 0.80314 0.3153 0.24856 0.0
C837 C 0.87081 0.27223 0.27024 0.0
C838 C 0.84429 0.28621 0.26345 0.0
H839 H 0.74714 0.40745 0.23283 0.0
H840 H 0.76342 0.37569 0.24735 0.0
H841 H 0.79543 0.261 0.2442 0.0
H842 H 0.94868 0.2284 0.26967 0.0
H843 H 0.89826 0.24161 0.25948 0.0
C844 C 0.29872 0.08946 0.71392 0.0
C845 C 0.27174 0.0647 0.71512 0.0
C846 C 0.30378 0.11605 0.72069 0.0
C847 C 0.28632 0.13176 0.74632 0.0
H848 H 0.33301 0.22037 0.74111 0.0
C849 C 0.33712 0.21659 0.77712 0.0
C850 C 0.37313 0.22433 0.77635 0.0
C851 C 0.31813 0.20541 0.76911 0.0
C852 C 0.31977 0.19579 0.74265 0.0
H853 H 0.22693 0.0501 0.72383 0.0
H854 H 0.23483 0.09731 0.73546 0.0
H855 H 0.30993 0.18543 0.72779 0.0
H856 H 0.4167 0.22912 0.76639 0.0
H857 H 0.38353 0.20943 0.75243 0.0
H858 H 0.29673 0.14169 0.76112 0.0
C859 C 0.25299 0.09548 0.72951 0.0
C860 C 0.30669 0.17569 0.73504 0.0
C861 C 0.24832 0.06853 0.72282 0.0
C862 C 0.38908 0.2231 0.76725 0.0
C863 C 0.37001 0.21206 0.75923 0.0
C864 C 0.29901 0.15198 0.7539 0.0
C865 C 0.28161 0.11874 0.72874 0.0
C866 C 0.29065 0.14293 0.73677 0.0
C867 C 0.33468 0.20194 0.76015 0.0
C868 C 0.31667 0.18374 0.75214 0.0
H869 H 0.3172 0.08713 0.70804 0.0
H870 H 0.32632 0.13316 0.71988 0.0
H871 H 0.27482 0.10643 0.74796 0.0
H872 H 0.32387 0.21762 0.78399 0.0
H873 H 0.29079 0.19822 0.76999 0.0
C874 C 0.23163 0.60673 0.23046 0.0
C875 C 0.22407 0.62113 0.22141 0.0
C876 C 0.2223 0.6247 0.23883 0.0
C877 C 0.18672 0.71034 0.24796 0.0
H878 H 0.14149 0.64995 0.26665 0.0
C879 C 0.06998 0.75059 0.27165 0.0
C880 C 0.06747 0.7366 0.28096 0.0
C881 C 0.09827 0.74181 0.26575 0.0
C882 C 0.15466 0.66722 0.26163 0.0
H883 H 0.20242 0.66648 0.21404 0.0
H884 H 0.185 0.69707 0.22854 0.0
H885 H 0.17479 0.62386 0.25366 0.0
H886 H 0.09394 0.70455 0.29163 0.0
H887 H 0.14316 0.68893 0.28125 0.0
H888 H 0.16426 0.75363 0.25569 0.0
C889 C 0.19885 0.67234 0.22925 0.0
C890 C 0.1739 0.65226 0.25416 0.0
C891 C 0.2086 0.65461 0.2209 0.0
C892 C 0.09499 0.71558 0.28447 0.0
C893 C 0.12313 0.70654 0.27853 0.0
C894 C 0.16706 0.7253 0.25539 0.0
C895 C 0.20476 0.65722 0.23833 0.0
C896 C 0.18937 0.67356 0.24707 0.0
C897 C 0.12445 0.71868 0.26902 0.0
C898 C 0.15012 0.70381 0.26215 0.0
H899 H 0.244 0.58119 0.2311 0.0
H900 H 0.22799 0.61261 0.24569 0.0
H901 H 0.1989 0.72759 0.24275 0.0
H902 H 0.04931 0.76708 0.26877 0.0
H903 H 0.09847 0.75137 0.25843 0.0
C904 C 0.74042 0.57158 0.52595 0.0
C905 C 0.71638 0.5703 0.53358 0.0
C906 C 0.73566 0.59541 0.51843 0.0
C907 C 0.68074 0.6713 0.51011 0.0
H908 H 0.69146 0.62583 0.48538 0.0
C909 C 0.59997 0.70694 0.47649 0.0
C910 C 0.61674 0.70614 0.4675 0.0
C911 C 0.61806 0.69708 0.48479 0.0
C912 C 0.68889 0.63923 0.4922 0.0
H913 H 0.67 0.59467 0.53968 0.0
H914 H 0.66102 0.63533 0.52648 0.0
H915 H 0.71373 0.59713 0.49968 0.0
H916 H 0.66615 0.69576 0.46026 0.0
H917 H 0.69753 0.67826 0.47475 0.0
H918 H 0.65404 0.71253 0.50255 0.0
C919 C 0.68393 0.61848 0.52632 0.0
C920 C 0.70182 0.62283 0.50043 0.0
C921 C 0.68896 0.59497 0.53389 0.0
C922 C 0.65235 0.69646 0.46705 0.0
C923 C 0.67034 0.68637 0.47534 0.0
C924 C 0.66749 0.68756 0.50187 0.0
C925 C 0.70649 0.61813 0.51833 0.0
C926 C 0.69726 0.63826 0.50952 0.0
C927 C 0.65321 0.68602 0.48427 0.0
C928 C 0.67084 0.67131 0.49286 0.0
H929 H 0.76212 0.55321 0.52559 0.0
H930 H 0.7541 0.59506 0.51252 0.0
H931 H 0.67729 0.68423 0.51696 0.0
H932 H 0.57262 0.71444 0.4771 0.0
H933 H 0.60407 0.69672 0.49155 0.0
C934 C 0.59146 0.32194 0.45906 0.0
C935 C 0.57005 0.2919 0.45871 0.0
C936 C 0.61571 0.32627 0.46649 0.0
C937 C 0.62633 0.29881 0.49152 0.0
H938 H 0.71098 0.35519 0.48993 0.0
C939 C 0.69865 0.34469 0.52549 0.0
C940 C 0.70566 0.38099 0.52571 0.0
C941 C 0.68925 0.32825 0.5169 0.0
C942 C 0.68743 0.33932 0.49047 0.0
H943 H 0.55961 0.24128 0.46529 0.0
H944 H 0.60255 0.24845 0.47812 0.0
H945 H 0.68266 0.33477 0.47521 0.0
H946 H 0.7098 0.42814 0.517 0.0
H947 H 0.69311 0.3995 0.50207 0.0
H948 H 0.63047 0.30415 0.50674 0.0
C949 C 0.59984 0.26918 0.47284 0.0
C950 C 0.6712 0.32766 0.48205 0.0
C951 C 0.57536 0.265 0.46547 0.0
C952 C 0.70439 0.40018 0.5171 0.0
C953 C 0.69514 0.3837 0.50851 0.0
C954 C 0.64264 0.31028 0.49991 0.0
C955 C 0.61929 0.30048 0.47366 0.0
C956 C 0.6399 0.30808 0.48248 0.0
C957 C 0.68685 0.34771 0.50835 0.0
C958 C 0.67281 0.33144 0.49948 0.0
H959 H 0.58806 0.34311 0.45394 0.0
H960 H 0.63001 0.35084 0.46692 0.0
H961 H 0.60195 0.28432 0.49214 0.0
H962 H 0.69963 0.32906 0.53198 0.0
H963 H 0.6833 0.30039 0.51697 0.0
C964 C 0.29747 0.39593 0.53363 0.0
C965 C 0.28612 0.42946 0.53075 0.0
C966 C 0.30236 0.36925 0.52685 0.0
C967 C 0.33735 0.32979 0.51057 0.0
H968 H 0.28657 0.32894 0.48646 0.0
C969 C 0.40338 0.29208 0.47538 0.0
C970 C 0.38364 0.27867 0.46769 0.0
C971 C 0.38714 0.30108 0.48399 0.0
C972 C 0.30071 0.32806 0.4932 0.0
H973 H 0.26946 0.46083 0.51856 0.0
H974 H 0.27906 0.41514 0.50678 0.0
H975 H 0.26284 0.36111 0.50002 0.0
H976 H 0.3316 0.26215 0.46323 0.0
H977 H 0.30328 0.27707 0.4784 0.0
H978 H 0.37504 0.29644 0.50378 0.0
C979 C 0.28349 0.40885 0.51426 0.0
C980 C 0.28732 0.34703 0.50095 0.0
C981 C 0.2783 0.43531 0.52103 0.0
C982 C 0.34749 0.27281 0.46898 0.0
C983 C 0.33124 0.28149 0.47767 0.0
C984 C 0.35046 0.31036 0.50286 0.0
C985 C 0.29625 0.37567 0.51704 0.0
C986 C 0.30631 0.34951 0.50959 0.0
C987 C 0.35075 0.29651 0.48521 0.0
C988 C 0.33317 0.31062 0.49394 0.0
H989 H 0.30336 0.3905 0.54109 0.0
H990 H 0.31165 0.34384 0.52927 0.0
H991 H 0.35278 0.33099 0.51709 0.0
H992 H 0.43127 0.29698 0.47464 0.0
H993 H 0.40302 0.31317 0.48953 0.0
C994 C 0.28403 0.61042 0.51637 0.0
C995 C 0.28423 0.6261 0.52551 0.0
C996 C 0.2934 0.6298 0.50826 0.0
C997 C 0.351 0.70105 0.50164 0.0
H998 H 0.30755 0.69132 0.47661 0.0
C999 C 0.42418 0.74819 0.46828 0.0
C1000 C 0.42454 0.72398 0.46067 0.0
C1001 C 0.3995 0.74508 0.47565 0.0
C1002 C 0.32007 0.69426 0.48354 0.0
H1003 H 0.29289 0.67489 0.53323 0.0
H1004 H 0.3099 0.70859 0.51903 0.0
H1005 H 0.27763 0.66847 0.49081 0.0
H1006 H 0.39789 0.67902 0.45446 0.0
H1007 H 0.35584 0.67273 0.46742 0.0
H1008 H 0.39444 0.72455 0.49444 0.0
C1009 C 0.30239 0.68129 0.51819 0.0
C1010 C 0.30283 0.68132 0.49166 0.0
C1011 C 0.2926 0.662 0.5263 0.0
C1012 C 0.39831 0.69808 0.46024 0.0
C1013 C 0.37398 0.69463 0.46767 0.0
C1014 C 0.36843 0.71358 0.49352 0.0
C1015 C 0.30349 0.66518 0.50912 0.0
C1016 C 0.31859 0.68379 0.50075 0.0
C1017 C 0.37502 0.71735 0.47564 0.0
C1018 C 0.35366 0.70947 0.48433 0.0
H1019 H 0.27747 0.58288 0.5155 0.0
H1020 H 0.29437 0.6166 0.50138 0.0
H1021 H 0.36397 0.70294 0.50854 0.0
H1022 H 0.44379 0.76878 0.46872 0.0
H1023 H 0.4005 0.76364 0.48153 0.0
C1024 C 0.01074 0.1302 0.31521 0.0
C1025 C 0.04468 0.14172 0.3129 0.0
C1026 C 0.00501 0.09547 0.31804 0.0
C1027 C 0.0455 0.00868 0.31481 0.0
H1028 H 0.96724 0.97827 0.33056 0.0
C1029 C 0.00571 0.86425 0.31579 0.0
C1030 C 0.9704 0.85922 0.31327 0.0
C1031 C 0.01746 0.89726 0.31875 0.0
C1032 C 0.98935 0.98643 0.32621 0.0
H1033 H 0.09949 0.12674 0.31214 0.0
H1034 H 0.08987 0.06661 0.31755 0.0
H1035 H 0.9842 0.0403 0.33044 0.0
H1036 H 0.91923 0.88379 0.31232 0.0
H1037 H 0.93965 0.94159 0.31752 0.0
H1038 H 0.05013 0.95516 0.31039 0.0
C1039 C 0.06746 0.084 0.31694 0.0
C1040 C -0.00103 0.0219 0.32609 0.0
C1041 C 0.07307 0.11857 0.31397 0.0
C1042 C 0.94653 0.88703 0.31432 0.0
C1043 C 0.95822 0.92004 0.31731 0.0
C1044 C 0.03613 0.97329 0.31501 0.0
C1045 C 0.03323 0.07169 0.31871 0.0
C1046 C 0.02649 0.03359 0.32016 0.0
C1047 C 0.99401 0.92572 0.31925 0.0
C1048 C 0.00734 0.96198 0.32048 0.0
H1049 H 0.98848 0.14776 0.31452 0.0
H1050 H 0.97824 0.08691 0.31922 0.0
H1051 H 0.0664 0.01666 0.31001 0.0
H1052 H 0.02444 0.84294 0.31514 0.0
H1053 H 0.04511 0.90088 0.32029 0.0
C1054 C 0.114 0.9489 0.68191 0.0
C1055 C 0.14187 0.97272 0.68295 0.0
C1056 C 0.08064 0.96089 0.67936 0.0
C1057 C 0.02665 0.03721 0.68303 0.0
H1058 H 0.96059 0.98947 0.66633 0.0
C1059 C 0.8811 0.07453 0.68364 0.0
C1060 C 0.85744 0.04628 0.68363 0.0
C1061 C 0.91619 0.06928 0.68114 0.0
C1062 C 0.97868 0.003 0.67106 0.0
H1063 H 0.15766 0.02718 0.68157 0.0
H1064 H 0.09894 0.0484 0.67734 0.0
H1065 H 0.02258 0.97275 0.66608 0.0
H1066 H 0.85127 0.9907 0.68077 0.0
H1067 H 0.91291 0.98092 0.6769 0.0
H1068 H 0.98298 0.06586 0.68851 0.0
C1069 C 0.10291 0.02052 0.67849 0.0
C1070 C 0.01413 0.99355 0.67086 0.0
C1071 C 0.13635 0.00845 0.68094 0.0
C1072 C 0.86917 0.01284 0.68087 0.0
C1073 C 0.90439 0.00741 0.67853 0.0
C1074 C 0.99123 0.04633 0.68333 0.0
C1075 C 0.0746 0.99694 0.67792 0.0
C1076 C 0.03826 0.01012 0.67699 0.0
C1077 C 0.92849 0.03547 0.6788 0.0
C1078 C 0.96664 0.02882 0.6775 0.0
H1079 H 0.11756 0.92127 0.68352 0.0
H1080 H 0.05916 0.94223 0.67909 0.0
H1081 H 0.04462 0.05004 0.68794 0.0
H1082 H 0.87275 0.10051 0.68585 0.0
H1083 H 0.93384 0.0916 0.68128 0.0
C1084 C 0.96147 0.62491 0.92303 0.0
C1085 C 0.9528 0.63508 0.9324 0.0
C1086 C 0.96712 0.58942 0.92089 0.0
C1087 C 0.95007 0.49986 0.92991 0.0
H1088 H 0.03864 0.4754 0.91791 0.0
C1089 C 0.99611 0.35688 0.92886 0.0
C1090 C 0.03021 0.35236 0.93245 0.0
C1091 C 0.98454 0.39015 0.92605 0.0
C1092 C 0.01368 0.48184 0.9212 0.0
H1093 H 0.94202 0.617 0.94682 0.0
H1094 H 0.95176 0.55502 0.94313 0.0
H1095 H 0.02027 0.53695 0.91858 0.0
H1096 H 0.07957 0.37814 0.93556 0.0
H1097 H 0.05943 0.43644 0.93073 0.0
H1098 H 0.94426 0.44524 0.93304 0.0
C1099 C 0.95412 0.57415 0.93741 0.0
C1100 C 0.00304 0.51699 0.9215 0.0
C1101 C 0.94885 0.60952 0.93955 0.0
C1102 C 0.05322 0.38109 0.93273 0.0
C1103 C 0.0417 0.41437 0.92993 0.0
C1104 C 0.96062 0.46479 0.92958 0.0
C1105 C 0.96361 0.56376 0.92809 0.0
C1106 C 0.97173 0.52639 0.92617 0.0
C1107 C 0.00692 0.41943 0.92681 0.0
C1108 C 0.99309 0.45554 0.92551 0.0
H1109 H 0.9645 0.64446 0.91744 0.0
H1110 H 0.97432 0.58204 0.91365 0.0
H1111 H 0.9256 0.5064 0.93345 0.0
H1112 H 0.9781 0.33486 0.9285 0.0
H1113 H 0.95775 0.39317 0.92356 0.0
C1114 C 0.63356 0.9875 0.0652 0.0
C1115 C 0.63905 0.02318 0.06311 0.0
C1116 C 0.6 0.9753 0.06745 0.0
C1117 C 0.51145 0.00069 0.07506 0.0
H1118 H 0.48005 0.93063 0.05677 0.0
C1119 C 0.36558 0.97918 0.06627 0.0
C1120 C 0.35444 0.94625 0.06293 0.0
C1121 C 0.40094 0.98513 0.06834 0.0
C1122 C 0.48836 0.94946 0.06213 0.0
H1123 H 0.61444 0.07441 0.06216 0.0
H1124 H 0.55579 0.05322 0.06636 0.0
H1125 H 0.54151 0.94726 0.05722 0.0
H1126 H 0.371 0.89331 0.05944 0.0
H1127 H 0.4323 0.90281 0.06367 0.0
H1128 H 0.45833 0.00299 0.08 0.0
C1129 C 0.57743 0.03474 0.06625 0.0
C1130 C 0.52365 0.95908 0.06235 0.0
C1131 C 0.61091 0.04684 0.06386 0.0
C1132 C 0.37889 0.91885 0.06212 0.0
C1133 C 0.41412 0.92452 0.0644 0.0
C1134 C 0.47616 0.99059 0.07498 0.0
C1135 C 0.57155 -0.00127 0.0678 0.0
C1136 C 0.53532 0.98535 0.06864 0.0
C1137 C 0.42581 0.95803 0.06727 0.0
C1138 C 0.46398 0.96551 0.06833 0.0
H1139 H 0.65504 0.96888 0.0648 0.0
H1140 H 0.59605 0.94744 0.06866 0.0
H1141 H 0.52 0.02088 0.08002 0.0
H1142 H 0.34707 0.00066 0.06698 0.0
H1143 H 0.40886 0.01142 0.07039 0.0
C1144 C 0.49276 0.3695 0.81767 0.0
C1145 C 0.4585 0.35839 0.81556 0.0
C1146 C 0.49951 0.40466 0.81988 0.0
C1147 C 0.46032 0.49203 0.81564 0.0
H1148 H 0.54104 0.52352 0.83029 0.0
C1149 C 0.50015 0.63695 0.81618 0.0
C1150 C 0.5346 0.64208 0.8129 0.0
C1151 C 0.48914 0.60372 0.81918 0.0
C1152 C 0.51826 0.51504 0.82624 0.0
H1153 H 0.4041 0.37473 0.81461 0.0
H1154 H 0.41539 0.43552 0.81907 0.0
H1155 H 0.52335 0.46176 0.83098 0.0
H1156 H 0.5851 0.61732 0.8106 0.0
H1157 H 0.56605 0.55919 0.816 0.0
H1158 H 0.45547 0.54518 0.81086 0.0
C1159 C 0.43737 0.41751 0.81869 0.0
C1160 C 0.50823 0.47969 0.82658 0.0
C1161 C 0.43077 0.38252 0.81628 0.0
C1162 C 0.55849 0.61403 0.8132 0.0
C1163 C 0.5476 0.58085 0.81629 0.0
C1164 C 0.47 0.52735 0.81544 0.0
C1165 C 0.47197 0.42933 0.82018 0.0
C1166 C 0.4797 0.46755 0.82106 0.0
C1167 C 0.51255 0.5752 0.81903 0.0
C1168 C 0.49957 0.539 0.82053 0.0
H1169 H 0.51453 0.35122 0.81728 0.0
H1170 H 0.52654 0.41268 0.82088 0.0
H1171 H 0.43869 0.48376 0.81113 0.0
H1172 H 0.48143 0.6584 0.81613 0.0
H1173 H 0.46204 0.60004 0.82132 0.0
C1174 C 0.61465 0.44438 0.18216 0.0
C1175 C 0.64295 0.4679 0.18279 0.0
C1176 C 0.58158 0.45628 0.1793 0.0
C1177 C 0.5286 0.53356 0.18162 0.0
H1178 H 0.46301 0.48467 0.16504 0.0
C1179 C 0.38345 0.57181 0.18184 0.0
C1180 C 0.35962 0.54369 0.18189 0.0
C1181 C 0.41847 0.56631 0.1793 0.0
C1182 C 0.48093 0.49854 0.16974 0.0
H1183 H 0.65972 0.52161 0.18042 0.0
H1184 H 0.60146 0.54275 0.17569 0.0
H1185 H 0.52471 0.46696 0.1653 0.0
H1186 H 0.35306 0.48818 0.179 0.0
H1187 H 0.41451 0.47793 0.17514 0.0
H1188 H 0.48504 0.56341 0.18664 0.0
C1189 C 0.60494 0.51514 0.17737 0.0
C1190 C 0.51625 0.48852 0.16982 0.0
C1191 C 0.6381 0.50313 0.1801 0.0
C1192 C 0.37108 0.51023 0.17907 0.0
C1193 C 0.40624 0.50452 0.17673 0.0
C1194 C 0.4933 0.54318 0.18167 0.0
C1195 C 0.57625 0.49197 0.17716 0.0
C1196 C 0.5402 0.50552 0.17591 0.0
C1197 C 0.4306 0.53236 0.17701 0.0
C1198 C 0.4688 0.52528 0.17589 0.0
H1199 H 0.61767 0.41718 0.18432 0.0
H1200 H 0.55976 0.43799 0.17932 0.0
H1201 H 0.54647 0.54676 0.18649 0.0
H1202 H 0.37534 0.59781 0.1841 0.0
H1203 H 0.43625 0.58853 0.17942 0.0
C1204 C 0.53721 0.86674 0.42255 0.0
C1205 C 0.54265 0.8552 0.43199 0.0
C1206 C 0.53244 0.90256 0.42066 0.0
C1207 C 0.54863 0.99006 0.43092 0.0
H1208 H 0.46362 0.0192 0.41777 0.0
C1209 C 0.48346 0.12059 0.43884 0.0
C1210 C 0.47152 0.14138 0.43121 0.0
C1211 C 0.49512 0.08649 0.43719 0.0
C1212 C 0.48782 0.01147 0.42128 0.0
H1213 H 0.54829 0.87109 0.44681 0.0
H1214 H 0.54026 0.93362 0.44355 0.0
H1215 H 0.48037 0.95698 0.41788 0.0
H1216 H 0.46121 0.14298 0.41594 0.0
H1217 H 0.48127 0.08236 0.41303 0.0
H1218 H 0.55547 0.04412 0.43465 0.0
C1219 C 0.53973 0.91531 0.4376 0.0
C1220 C 0.4974 0.97597 0.42134 0.0
C1221 C 0.54405 0.87965 0.43948 0.0
C1222 C 0.47033 0.12721 0.42192 0.0
C1223 C 0.48183 0.09276 0.42026 0.0
C1224 C 0.53913 0.02539 0.43085 0.0
C1225 C 0.53368 0.92711 0.42819 0.0
C1226 C 0.52717 0.96488 0.42648 0.0
C1227 C 0.49488 0.07237 0.42788 0.0
C1228 C 0.50793 0.03622 0.42636 0.0
H1229 H 0.53607 0.84803 0.4167 0.0
H1230 H 0.52782 0.91108 0.41335 0.0
H1231 H 0.57206 0.98221 0.43478 0.0
H1232 H 0.48397 0.13083 0.44609 0.0
H1233 H 0.50418 0.07104 0.44324 0.0
C1234 C 0.12115 0.51431 0.55018 0.0
C1235 C 0.14272 0.52316 0.55795 0.0
C1236 C 0.08724 0.50201 0.55175 0.0
C1237 C 0.01491 0.50159 0.56892 0.0
H1238 H 0.98212 0.42531 0.55274 0.0
C1239 C 0.87116 0.44992 0.569 0.0
C1240 C 0.85645 0.45019 0.55977 0.0
C1241 C 0.90737 0.45439 0.57018 0.0
C1242 C 0.991 0.44648 0.55735 0.0
H1243 H 0.14596 0.52753 0.57341 0.0
H1244 H 0.08597 0.50596 0.57621 0.0
H1245 H 0.04382 0.44231 0.55233 0.0
H1246 H 0.86724 0.45391 0.54456 0.0
H1247 H 0.93047 0.46141 0.54658 0.0
H1248 H 0.96162 0.50622 0.57373 0.0
C1249 C 0.09545 0.50838 0.56892 0.0
C1250 C 0.02621 0.4563 0.55709 0.0
C1251 C 0.12959 0.52068 0.56733 0.0
C1252 C 0.87821 0.45393 0.55174 0.0
C1253 C 0.91428 0.4579 0.5529 0.0
C1254 C 0.97959 0.49162 0.56921 0.0
C1255 C 0.07419 0.49843 0.56113 0.0
C1256 C 0.03824 0.48476 0.56261 0.0
C1257 C 0.92916 0.45844 0.56212 0.0
C1258 C 0.96719 0.46479 0.56317 0.0
H1259 H 0.13064 0.51674 0.54288 0.0
H1260 H 0.07112 0.49547 0.54559 0.0
H1261 H 0.0235 0.52366 0.57324 0.0
H1262 H 0.85458 0.44693 0.57526 0.0
H1263 H 0.91833 0.45466 0.57735 0.0
C1264 C 0.93755 0.62525 0.31034 0.0
C1265 C 0.95605 0.64594 0.30367 0.0
C1266 C 0.94656 0.58988 0.31173 0.0
C1267 C 0.98219 0.51723 0.29824 0.0
H1268 H 0.002 0.47103 0.32247 0.0
C1269 C 0.05085 0.38105 0.31017 0.0
C1270 C 0.03239 0.35768 0.30419 0.0
C1271 C 0.03866 0.41541 0.31155 0.0
C1272 C 0.99642 0.4837 0.31568 0.0
H1273 H -0.00039 0.64609 0.29358 0.0
H1274 H 0.01468 0.58468 0.29591 0.0
H1275 H 0.98704 0.53402 0.32224 0.0
H1276 H 0.9854 0.35142 0.29548 0.0
H1277 H 0.96456 0.41117 0.29784 0.0
H1278 H 0.9916 0.4675 0.29162 0.0
C1279 C 0.99321 0.59574 0.30003 0.0
C1280 C 0.98772 0.51951 0.31556 0.0
C1281 C 0.98452 0.63095 0.29871 0.0
C1282 C 0.00059 0.3688 0.30004 0.0
C1283 C 0.98858 0.40304 0.30138 0.0
C1284 C 0.99034 0.48157 0.29838 0.0
C1285 C 0.9739 0.57471 0.30638 0.0
C1286 C 0.98103 0.53658 0.30681 0.0
C1287 C 0.00794 0.42694 0.30693 0.0
C1288 C -0.0022 0.46448 0.30707 0.0
H1289 H 0.91563 0.63609 0.31432 0.0
H1290 H 0.9313 0.57405 0.31667 0.0
H1291 H 0.9769 0.52979 0.29141 0.0
H1292 H 0.0753 0.37322 0.31353 0.0
H1293 H 0.05412 0.43343 0.31584 0.0
C1294 C 0.37435 0.93407 0.68143 0.0
C1295 C 0.35546 0.95426 0.68813 0.0
C1296 C 0.40854 0.94364 0.67882 0.0
C1297 C 0.48744 0.95584 0.68072 0.0
H1298 H 0.51536 0.05387 0.68009 0.0
C1299 C 0.62502 0.0016 0.69139 0.0
C1300 C 0.63931 0.03229 0.68735 0.0
C1301 C 0.5914 0.99037 0.68887 0.0
C1302 C 0.50813 0.02633 0.68003 0.0
H1303 H 0.35744 0.00093 0.6971 0.0
H1304 H 0.41675 0.01705 0.69271 0.0
H1305 H 0.45337 0.03872 0.68006 0.0
H1306 H 0.63025 0.0741 0.67704 0.0
H1307 H 0.57162 0.05413 0.67252 0.0
H1308 H 0.54225 0.94347 0.68074 0.0
C1309 C 0.40515 0.99418 0.68934 0.0
C1310 C 0.47252 0.01766 0.68015 0.0
C1311 C 0.37113 0.98468 0.69193 0.0
C1312 C 0.61985 0.05056 0.68037 0.0
C1313 C 0.5862 0.03918 0.6778 0.0
C1314 C 0.5231 0.9645 0.68053 0.0
C1315 C 0.42444 0.97362 0.68283 0.0
C1316 C 0.46178 0.98239 0.68087 0.0
C1317 C 0.57128 0.00938 0.68218 0.0
C1318 C 0.53386 -0.0001 0.68055 0.0
H1319 H 0.36302 0.91056 0.67834 0.0
H1320 H 0.42263 0.9274 0.67373 0.0
H1321 H 0.48012 0.9284 0.68129 0.0
H1322 H 0.63929 0.98678 0.69676 0.0
H1323 H 0.58064 0.96763 0.6925 0.0
C1324 C 0.00988 0.12244 0.94118 0.0
C1325 C 0.04011 0.1387 0.93747 0.0
C1326 C 0.00018 0.08887 0.93817 0.0
C1327 C 0.03824 0.00826 0.92818 0.0
H1328 H 0.94056 0.97944 0.92803 0.0
C1329 C 0.94486 0.87485 0.92726 0.0
C1330 C 0.96407 0.85485 0.93394 0.0
C1331 C 0.95563 0.90892 0.92486 0.0
C1332 C 0.96797 0.98698 0.92783 0.0
H1333 H 0.08311 0.13287 0.92738 0.0
H1334 H 0.06585 0.0742 0.92203 0.0
H1335 H 0.95513 0.04161 0.92871 0.0
H1336 H 0.01071 0.85431 0.94291 0.0
H1337 H 0.02884 0.91353 0.93894 0.0
H1338 H 0.05107 0.9536 0.92734 0.0
C1339 C 0.04999 0.08733 0.92739 0.0
C1340 C 0.97633 0.02267 0.92835 0.0
C1341 C 0.05982 0.12099 0.93044 0.0
C1342 C 0.99515 0.86898 0.93778 0.0
C1343 C 0.00579 0.90296 0.93542 0.0
C1344 C 0.02987 0.97257 0.92757 0.0
C1345 C 0.02029 0.0707 0.93132 0.0
C1346 C 0.01154 0.03364 0.92893 0.0
C1347 C 0.98578 0.92367 0.9291 0.0
C1348 C 0.99465 0.96143 0.92777 0.0
H1349 H 0.99404 0.13525 0.94661 0.0
H1350 H 0.97754 0.07669 0.9415 0.0
H1351 H 0.06564 0.01571 0.92862 0.0
H1352 H 0.92096 0.86462 0.9241 0.0
H1353 H 0.93989 0.92399 0.91986 0.0
C1354 C 0.87564 0.06591 0.06414 0.0
C1355 C 0.85341 0.04034 0.06012 0.0
C1356 C 0.91014 0.05737 0.06665 0.0
C1357 C 0.97117 0.98478 0.07169 0.0
H1358 H 0.03912 0.04093 0.05777 0.0
C1359 C 0.10915 0.93358 0.06234 0.0
C1360 C 0.13626 0.95774 0.0606 0.0
C1361 C 0.0755 0.94541 0.0647 0.0
C1362 C 0.02086 0.0254 0.06195 0.0
H1363 H 0.84906 0.98533 0.05617 0.0
H1364 H 0.90913 0.97038 0.06069 0.0
H1365 H 0.97797 0.05864 0.05795 0.0
H1366 H 0.15047 0.01289 0.06078 0.0
H1367 H 0.0924 0.03352 0.0654 0.0
H1368 H 0.01395 0.95141 0.07568 0.0
C1369 C 0.89994 0.99701 0.06184 0.0
C1370 C 0.98569 0.03558 0.06201 0.0
C1371 C 0.86567 0.00566 0.05918 0.0
C1372 C 0.12982 0.99374 0.06192 0.0
C1373 C 0.09644 0.00554 0.0645 0.0
C1374 C 0.00654 0.97489 0.07179 0.0
C1375 C 0.92273 0.02298 0.06536 0.0
C1376 C 0.96041 0.01489 0.06666 0.0
C1377 C 0.06847 0.98165 0.06557 0.0
C1378 C 0.03173 0.99454 0.06669 0.0
H1379 H 0.86693 0.09286 0.06495 0.0
H1380 H 0.92728 0.07781 0.06938 0.0
H1381 H 0.95209 0.96854 0.07538 0.0
H1382 H 0.11343 0.90565 0.06136 0.0
H1383 H 0.05471 0.92614 0.06534 0.0
C1384 C 0.43818 0.11338 0.81192 0.0
C1385 C 0.46227 0.14057 0.81019 0.0
C1386 C 0.45001 0.07903 0.81347 0.0
C1387 C 0.52843 0.02402 0.8085 0.0
H1388 H 0.47521 0.95346 0.82235 0.0
C1389 C 0.57158 0.87899 0.80993 0.0
C1390 C 0.54576 0.85595 0.8064 0.0
C1391 C 0.56287 0.91356 0.81237 0.0
C1392 C 0.49038 0.97301 0.81851 0.0
H1393 H 0.5175 0.15399 0.80952 0.0
H1394 H 0.53825 0.09468 0.81275 0.0
H1395 H 0.45789 0.01522 0.82341 0.0
H1396 H 0.49026 0.85042 0.80318 0.0
H1397 H 0.47506 0.91061 0.80759 0.0
H1398 H 0.56093 0.98172 0.80365 0.0
C1399 C 0.5102 0.09925 0.81246 0.0
C1400 C 0.48038 0.00835 0.81905 0.0
C1401 C 0.49836 0.13334 0.81068 0.0
C1402 C 0.51079 0.86762 0.80581 0.0
C1403 C 0.50201 0.90197 0.8084 0.0
C1404 C 0.53875 0.98887 0.80811 0.0
C1405 C 0.48622 0.07135 0.81352 0.0
C1406 C 0.49884 0.03426 0.81388 0.0
C1407 C 0.52809 0.92545 0.8115 0.0
C1408 C 0.51943 0.96297 0.81295 0.0
H1409 H 0.41017 0.11827 0.81155 0.0
H1410 H 0.43065 0.05834 0.81415 0.0
H1411 H 0.54293 0.04286 0.80423 0.0
H1412 H 0.59874 0.87074 0.81048 0.0
H1413 H 0.5834 0.93122 0.81477 0.0
C1414 C 0.86925 0.48356 0.18958 0.0
C1415 C 0.85681 0.44882 0.18907 0.0
C1416 C 0.90402 0.49133 0.18722 0.0
C1417 C 0.98967 0.45332 0.18873 0.0
H1418 H 0.0196 0.53103 0.17268 0.0
C1419 C 0.13477 0.49305 0.18762 0.0
C1420 C 0.14192 0.52926 0.1876 0.0
C1421 C 0.101 0.48075 0.18562 0.0
C1422 C 0.01172 0.50943 0.17726 0.0
H1423 H 0.8707 0.39513 0.18542 0.0
H1424 H 0.93196 0.4087 0.18158 0.0
H1425 H 0.95758 0.51464 0.1732 0.0
H1426 H 0.11977 0.58097 0.18517 0.0
H1427 H 0.06052 0.55985 0.18218 0.0
H1428 H 0.04282 0.44933 0.19337 0.0
C1429 C 0.91454 0.42985 0.1837 0.0
C1430 C 0.97626 0.49993 0.17749 0.0
C1431 C 0.87954 0.42215 0.18587 0.0
C1432 C 0.115 0.55289 0.1852 0.0
C1433 C 0.08102 0.54066 0.18342 0.0
C1434 C 0.02495 0.4632 0.18866 0.0
C1435 C 0.92714 0.46442 0.18448 0.0
C1436 C 0.96493 0.4721 0.18332 0.0
C1437 C 0.07338 0.50444 0.18379 0.0
C1438 C 0.03643 0.49176 0.18304 0.0
H1439 H 0.85227 0.50468 0.19196 0.0
H1440 H 0.91325 0.51815 0.18795 0.0
H1441 H 0.98144 0.43204 0.19339 0.0
H1442 H 0.15519 0.4742 0.18931 0.0
H1443 H 0.09647 0.45265 0.1857 0.0
C1444 C 0.48984 0.63367 0.42921 0.0
C1445 C 0.52623 0.63873 0.43006 0.0
C1446 C 0.47647 0.60176 0.42589 0.0
C1447 C 0.50221 0.51437 0.41562 0.0
H1448 H 0.42509 0.48169 0.43145 0.0
C1449 C 0.48226 0.37226 0.42774 0.0
C1450 C 0.44805 0.35896 0.4288 0.0
C1451 C 0.48768 0.40657 0.42456 0.0
C1452 C 0.44605 0.49058 0.42679 0.0
H1453 H 0.57727 0.61524 0.42762 0.0
H1454 H 0.55408 0.55887 0.42229 0.0
H1455 H 0.44255 0.54284 0.43217 0.0
H1456 H 0.39275 0.3703 0.42673 0.0
H1457 H 0.40228 0.43088 0.42135 0.0
H1458 H 0.50709 0.46098 0.41084 0.0
C1459 C 0.5357 0.57974 0.42391 0.0
C1460 C 0.45613 0.52578 0.42718 0.0
C1461 C 0.54908 0.61198 0.42705 0.0
C1462 C 0.4194 0.37994 0.42604 0.0
C1463 C 0.42482 0.41454 0.42297 0.0
C1464 C 0.49236 0.47896 0.41533 0.0
C1465 C 0.49918 0.57389 0.42356 0.0
C1466 C 0.48504 0.53795 0.42183 0.0
C1467 C 0.45899 0.42843 0.42246 0.0
C1468 C 0.46486 0.46659 0.42114 0.0
H1469 H 0.47163 0.65416 0.4313 0.0
H1470 H 0.44825 0.59861 0.42546 0.0
H1471 H 0.52406 0.52295 0.41124 0.0
H1472 H 0.50489 0.35656 0.4297 0.0
H1473 H 0.51428 0.41665 0.42433 0.0
C1474 C 0.3724 0.50793 0.56251 0.0
C1475 C 0.35913 0.54239 0.56272 0.0
C1476 C 0.40572 0.50056 0.56614 0.0
C1477 C 0.48965 0.54221 0.56761 0.0
H1478 H 0.51751 0.45708 0.58091 0.0
C1479 C 0.63263 0.49905 0.56639 0.0
C1480 C 0.63784 0.46329 0.56437 0.0
C1481 C 0.60015 0.51095 0.56968 0.0
C1482 C 0.51022 0.48094 0.57716 0.0
H1483 H 0.36945 0.59579 0.56742 0.0
H1484 H 0.42832 0.58296 0.57356 0.0
H1485 H 0.45559 0.47389 0.5804 0.0
H1486 H 0.61411 0.41157 0.56471 0.0
H1487 H 0.5568 0.43237 0.56994 0.0
H1488 H 0.54327 0.54814 0.56365 0.0
C1489 C 0.4127 0.56171 0.57062 0.0
C1490 C 0.47481 0.49064 0.57695 0.0
C1491 C 0.37908 0.56901 0.56711 0.0
C1492 C 0.61071 0.43931 0.56622 0.0
C1493 C 0.5779 0.4513 0.5693 0.0
C1494 C 0.52488 0.53228 0.56769 0.0
C1495 C 0.4266 0.52758 0.56996 0.0
C1496 C 0.46415 0.52084 0.57193 0.0
C1497 C 0.57187 0.48747 0.57077 0.0
C1498 C 0.53553 0.50092 0.57221 0.0
H1499 H 0.35749 0.48678 0.55926 0.0
H1500 H 0.41593 0.47409 0.56545 0.0
H1501 H 0.48211 0.56537 0.56358 0.0
H1502 H 0.65342 0.51799 0.56518 0.0
H1503 H 0.59689 0.5388 0.57102 0.0
C1504 C 0.28281 0.22231 0.40457 0.0
C1505 C 0.29755 0.25164 0.40913 0.0
C1506 C 0.26793 0.22562 0.39545 0.0
C1507 C 0.26774 0.28539 0.37432 0.0
H1508 H 0.19078 0.22554 0.36622 0.0
C1509 C 0.19402 0.29797 0.33789 0.0
C1510 C 0.1932 0.26658 0.33261 0.0
C1511 C 0.20572 0.29787 0.34741 0.0
C1512 C 0.21228 0.24239 0.36842 0.0
H1513 H 0.30648 0.30772 0.40815 0.0
H1514 H 0.27924 0.314 0.39241 0.0
H1515 H 0.2114 0.22278 0.38277 0.0
H1516 H 0.20386 0.21064 0.33297 0.0
H1517 H 0.2236 0.21034 0.34968 0.0
H1518 H 0.26776 0.30547 0.35993 0.0
C1519 C 0.28043 0.28809 0.39562 0.0
C1520 C 0.22429 0.24068 0.37787 0.0
C1521 C 0.29588 0.2846 0.40465 0.0
C1522 C 0.2044 0.23518 0.33692 0.0
C1523 C 0.21541 0.23495 0.34646 0.0
C1524 C 0.25524 0.28753 0.36491 0.0
C1525 C 0.26681 0.25853 0.39082 0.0
C1526 C 0.25254 0.2618 0.38091 0.0
C1527 C 0.21609 0.26626 0.35178 0.0
C1528 C 0.22777 0.2657 0.36187 0.0
H1529 H 0.28391 0.19662 0.40792 0.0
H1530 H 0.25823 0.20214 0.39195 0.0
H1531 H 0.28994 0.3016 0.37631 0.0
H1532 H 0.18572 0.32251 0.33466 0.0
H1533 H 0.20612 0.32231 0.3514 0.0
C1534 C 0.24615 0.82508 0.6531 0.0
C1535 C 0.24346 0.80359 0.66125 0.0
C1536 C 0.24516 0.81042 0.64393 0.0
C1537 C 0.25474 0.72579 0.631 0.0
H1538 H 0.20871 0.77708 0.61048 0.0
C1539 C 0.22928 0.66634 0.59351 0.0
C1540 C 0.24022 0.68715 0.58574 0.0
C1541 C 0.22839 0.68026 0.60278 0.0
C1542 C 0.22179 0.76259 0.61614 0.0
H1543 H 0.23583 0.7502 0.66624 0.0
H1544 H 0.23304 0.72454 0.65021 0.0
H1545 H 0.20939 0.80155 0.62664 0.0
H1546 H 0.257 0.7394 0.5815 0.0
H1547 H 0.25482 0.76388 0.59768 0.0
H1548 H 0.26651 0.68655 0.62046 0.0
C1549 C 0.23728 0.75259 0.65088 0.0
C1550 C 0.22235 0.77663 0.62539 0.0
C1551 C 0.23864 0.76727 0.66006 0.0
C1552 C 0.24871 0.72261 0.58736 0.0
C1553 C 0.24743 0.73665 0.59661 0.0
C1554 C 0.25381 0.71158 0.62177 0.0
C1555 C 0.24061 0.774 0.6427 0.0
C1556 C 0.23911 0.75855 0.63292 0.0
C1557 C 0.23767 0.71547 0.60441 0.0
C1558 C 0.23757 0.72999 0.61425 0.0
H1559 H 0.24825 0.85335 0.65376 0.0
H1560 H 0.24803 0.82771 0.63781 0.0
H1561 H 0.26833 0.71139 0.63658 0.0
H1562 H 0.22084 0.6395 0.59248 0.0
H1563 H 0.22002 0.66362 0.60866 0.0
C1564 C 0.79316 0.77651 0.33747 0.0
C1565 C 0.80304 0.74642 0.33234 0.0
C1566 C 0.77919 0.77348 0.34668 0.0
C1567 C 0.77076 0.71062 0.36702 0.0
H1568 H 0.70183 0.77865 0.37569 0.0
C1569 C 0.68954 0.70088 0.40232 0.0
C1570 C 0.69221 0.73067 0.40821 0.0
C1571 C 0.70349 0.70138 0.39305 0.0
C1572 C 0.72114 0.75958 0.37334 0.0
H1573 H 0.80499 0.68956 0.33253 0.0
H1574 H 0.77917 0.68395 0.3485 0.0
H1575 H 0.72366 0.78159 0.35928 0.0
H1576 H 0.7117 0.78404 0.40923 0.0
H1577 H 0.73528 0.78527 0.39288 0.0
H1578 H 0.76697 0.68804 0.3811 0.0
C1579 C 0.7834 0.71003 0.34561 0.0
C1580 C 0.73387 0.76133 0.36397 0.0
C1581 C 0.79802 0.71315 0.33645 0.0
C1582 C 0.70937 0.76079 0.40478 0.0
C1583 C 0.72265 0.76155 0.39546 0.0
C1584 C 0.75745 0.70848 0.37634 0.0
C1585 C 0.77402 0.7402 0.35087 0.0
C1586 C 0.75922 0.73717 0.36072 0.0
C1587 C 0.71969 0.7319 0.38952 0.0
C1588 C 0.73289 0.73321 0.37959 0.0
H1589 H 0.79705 0.80247 0.33445 0.0
H1590 H 0.77306 0.79736 0.35056 0.0
H1591 H 0.79064 0.69191 0.36485 0.0
H1592 H 0.67677 0.67723 0.40488 0.0
H1593 H 0.70098 0.67825 0.38856 0.0
C1594 C 0.69876 0.18694 0.65561 0.0
C1595 C 0.72591 0.19628 0.66195 0.0
C1596 C 0.69795 0.20054 0.64631 0.0
C1597 C 0.72953 0.27339 0.63142 0.0
H1598 H 0.71807 0.20796 0.6103 0.0
C1599 C 0.75425 0.31501 0.59239 0.0
C1600 C 0.73114 0.30223 0.58538 0.0
C1601 C 0.75302 0.30183 0.60173 0.0
C1602 C 0.7208 0.22666 0.61612 0.0
H1603 H 0.77241 0.2286 0.6637 0.0
H1604 H 0.77073 0.25269 0.64748 0.0
H1605 H 0.7155 0.18648 0.62678 0.0
H1606 H 0.68941 0.26514 0.58242 0.0
H1607 H 0.68661 0.24248 0.59881 0.0
H1608 H 0.73446 0.31367 0.62082 0.0
C1609 C 0.75029 0.23459 0.64968 0.0
C1610 C 0.71937 0.21433 0.62554 0.0
C1611 C 0.75126 0.22077 0.65895 0.0
C1612 C 0.70744 0.27539 0.58775 0.0
C1613 C 0.70596 0.26239 0.59711 0.0
C1614 C 0.73067 0.28579 0.62201 0.0
C1615 C 0.72392 0.22421 0.64324 0.0
C1616 C 0.72397 0.23755 0.63327 0.0
C1617 C 0.72856 0.27569 0.60423 0.0
C1618 C 0.72659 0.26253 0.61424 0.0
H1619 H 0.67798 0.16935 0.65783 0.0
H1620 H 0.67691 0.19271 0.64153 0.0
H1621 H 0.73273 0.2919 0.63727 0.0
H1622 H 0.77362 0.33482 0.59064 0.0
H1623 H 0.77147 0.31195 0.60696 0.0
C1624 C 0.21039 0.26889 0.90804 0.0
C1625 C 0.19701 0.23873 0.9125 0.0
C1626 C 0.22427 0.26694 0.89879 0.0
C1627 C 0.2248 0.21004 0.87713 0.0
H1628 H 0.30111 0.27183 0.86968 0.0
C1629 C 0.30041 0.20341 0.84087 0.0
C1630 C 0.30209 0.23561 0.83597 0.0
C1631 C 0.28737 0.20203 0.85023 0.0
C1632 C 0.27974 0.25451 0.87169 0.0
H1633 H 0.18909 0.1826 0.91113 0.0
H1634 H 0.21448 0.17874 0.89508 0.0
H1635 H 0.28063 0.2719 0.88624 0.0
H1636 H 0.29109 0.29141 0.83681 0.0
H1637 H 0.26898 0.28913 0.85329 0.0
H1638 H 0.22487 0.19213 0.86254 0.0
C1639 C 0.2131 0.20422 0.89853 0.0
C1640 C 0.26783 0.25464 0.88115 0.0
C1641 C 0.19867 0.20633 0.90772 0.0
C1642 C 0.29 0.26629 0.84047 0.0
C1643 C 0.27761 0.26503 0.84988 0.0
C1644 C 0.23718 0.20948 0.8677 0.0
C1645 C 0.22575 0.23458 0.8939 0.0
C1646 C 0.23983 0.23281 0.88397 0.0
C1647 C 0.27641 0.23295 0.85484 0.0
C1648 C 0.26439 0.23209 0.86489 0.0
H1649 H 0.2092 0.29421 0.91159 0.0
H1650 H 0.23311 0.29101 0.89542 0.0
H1651 H 0.20286 0.19325 0.87899 0.0
H1652 H 0.30924 0.17938 0.83746 0.0
H1653 H 0.28661 0.17703 0.85395 0.0
C1654 C 0.246 0.71814 0.15806 0.0
C1655 C 0.22266 0.69195 0.1612 0.0
C1656 C 0.24331 0.73189 0.14881 0.0
C1657 C 0.21322 0.70964 0.12481 0.0
H1658 H 0.21941 0.81 0.1202 0.0
C1659 C 0.20142 0.76923 0.08676 0.0
C1660 C 0.22309 0.79801 0.0847 0.0
C1661 C 0.19911 0.75638 0.09614 0.0
C1662 C 0.21807 0.78187 0.12135 0.0
H1663 H 0.17635 0.66181 0.15734 0.0
H1664 H 0.17256 0.68487 0.14104 0.0
H1665 H 0.21921 0.78793 0.13662 0.0
H1666 H 0.26096 0.83475 0.09048 0.0
H1667 H 0.25775 0.81197 0.10681 0.0
H1668 H 0.21324 0.70334 0.10957 0.0
C1669 C 0.19332 0.69418 0.14571 0.0
C1670 C 0.21779 0.7693 0.13075 0.0
C1671 C 0.19575 0.68072 0.15501 0.0
C1672 C 0.24333 0.81309 0.09201 0.0
C1673 C 0.24135 0.80009 0.10135 0.0
C1674 C 0.2139 0.72217 0.11539 0.0
C1675 C 0.21725 0.71968 0.14251 0.0
C1676 C 0.21563 0.73308 0.13256 0.0
C1677 C 0.21895 0.7718 0.10355 0.0
C1678 C 0.21666 0.75843 0.11355 0.0
H1679 H 0.26689 0.7275 0.16268 0.0
H1680 H 0.2622 0.75144 0.1465 0.0
H1681 H 0.2119 0.68153 0.12603 0.0
H1682 H 0.18579 0.75715 0.08116 0.0
H1683 H 0.18141 0.73475 0.09759 0.0
C1684 C 0.79099 0.73045 0.90321 0.0
C1685 C 0.80748 0.76014 0.9071 0.0
C1686 C 0.77872 0.73086 0.89379 0.0
C1687 C 0.78623 0.78057 0.87085 0.0
H1688 H 0.70305 0.72656 0.86443 0.0
C1689 C 0.70871 0.78774 0.83479 0.0
C1690 C 0.7039 0.75497 0.83035 0.0
C1691 C 0.72284 0.78963 0.84403 0.0
C1692 C 0.72637 0.74165 0.86614 0.0
H1693 H 0.82308 0.81398 0.90442 0.0
H1694 H 0.80037 0.81541 0.88805 0.0
H1695 H 0.72331 0.72846 0.88099 0.0
H1696 H 0.71048 0.69867 0.83185 0.0
H1697 H 0.73436 0.70194 0.84815 0.0
H1698 H 0.78812 0.79463 0.85594 0.0
C1699 C 0.79806 0.79126 0.89211 0.0
C1700 C 0.73818 0.74259 0.87561 0.0
C1701 C 0.81094 0.79056 0.90149 0.0
C1702 C 0.71402 0.72421 0.83516 0.0
C1703 C 0.72745 0.72605 0.84446 0.0
C1704 C 0.77394 0.78016 0.8614 0.0
C1705 C 0.78192 0.76133 0.88811 0.0
C1706 C 0.76855 0.76168 0.87808 0.0
C1707 C 0.73171 0.75874 0.84898 0.0
C1708 C 0.74419 0.76034 0.85898 0.0
H1709 H 0.78827 0.70661 0.90741 0.0
H1710 H 0.7672 0.70704 0.89092 0.0
H1711 H 0.80998 0.79511 0.87242 0.0
H1712 H 0.70136 0.81178 0.83114 0.0
H1713 H 0.72593 0.81509 0.84742 0.0
C1714 C 0.74299 0.16543 0.09459 0.0
C1715 C 0.74545 0.18796 0.08665 0.0
C1716 C 0.74355 0.17898 0.10389 0.0
C1717 C 0.76869 0.25815 0.11766 0.0
H1718 H 0.7088 0.21722 0.13721 0.0
C1719 C 0.74685 0.32238 0.1546 0.0
C1720 C 0.74876 0.30018 0.16263 0.0
C1721 C 0.7469 0.30835 0.14535 0.0
C1722 C 0.72591 0.22865 0.13184 0.0
H1723 H 0.74847 0.2423 0.0821 0.0
H1724 H 0.74871 0.26626 0.09837 0.0
H1725 H 0.70738 0.19379 0.12093 0.0
H1726 H 0.75043 0.24599 0.16737 0.0
H1727 H 0.75035 0.22125 0.15114 0.0
H1728 H 0.78677 0.29336 0.12858 0.0
C1729 C 0.74758 0.23801 0.09744 0.0
C1730 C 0.72516 0.21524 0.12252 0.0
C1731 C 0.7472 0.22438 0.08814 0.0
C1732 C 0.74948 0.26363 0.16127 0.0
C1733 C 0.74928 0.24954 0.15201 0.0
C1734 C 0.76926 0.2717 0.12697 0.0
C1735 C 0.74594 0.21544 0.10543 0.0
C1736 C 0.74656 0.22982 0.11532 0.0
C1737 C 0.74818 0.27181 0.14397 0.0
C1738 C 0.74789 0.25707 0.13414 0.0
H1739 H 0.74015 0.13731 0.09363 0.0
H1740 H 0.74234 0.16084 0.10987 0.0
H1741 H 0.78594 0.26959 0.11233 0.0
H1742 H 0.74456 0.35059 0.15545 0.0
H1743 H 0.74517 0.32608 0.13928 0.0
loop_
_geom_bond_atom_site_label_1
_geom_bond_atom_site_label_2
_geom_bond_distance
_geom_bond_site_symmetry_2
_ccdc_geom_bond_type
Co0 O3 1.970 . S
Co0 N17 1.989 . S
Co0 O25 1.967 . S
Co0 O32 1.920 1_455 S
Co1 O4 1.966 . S
Co1 N10 2.022 . S
Co1 N18 1.993 . S
Co1 O26 1.941 . S
C2 O3 1.258 . S
C2 O4 1.263 . S
O3 Co0 1.970 . S
O3 C2 1.258 . S
O4 Co1 1.966 . S
O4 C2 1.263 . S
C5 O6 1.235 . S
C5 O32 1.289 . S
O6 C5 1.235 . S
C7 C9 1.400 . S
C7 N10 1.351 . S
C7 C12 1.501 . S
C8 C9 1.387 . S
C8 N11 1.341 . S
C9 C7 1.400 . S
C9 C8 1.387 . S
N10 Co1 2.022 . S
N10 C7 1.351 . S
N10 N11 1.365 . S
N11 C8 1.341 . S
N11 N10 1.365 . S
N11 H31 0.862 . S
C12 C7 1.501 . S
C12 H13 0.961 . S
C12 H14 0.961 . S
C12 H15 0.960 . S
H13 C12 0.961 . S
H14 C12 0.961 . S
H15 C12 0.960 . S
C16 N17 1.342 . S
C16 C20 1.401 . S
C16 C21 1.499 1_455 S
N17 Co0 1.989 . S
N17 C16 1.342 . S
N17 N18 1.388 . S
N18 Co1 1.993 . S
N18 N17 1.388 . S
N18 C19 1.346 . S
C19 N18 1.346 . S
C19 C20 1.396 . S
C19 C29 1.510 . S
C20 C16 1.401 . S
C20 C19 1.396 . S
C21 C16 1.499 1_655 S
C21 H22 0.959 . S
C21 H23 0.960 . S
C21 H24 0.961 1_655 S
H22 C21 0.959 . S
H23 C21 0.960 . S
H24 C21 0.961 1_455 S
O25 Co0 1.967 . S
O25 C33 1.258 . S
O26 Co1 1.941 . S
O26 C33 1.266 . S
H27 C29 0.959 . S
H28 C29 0.961 . S
C29 C19 1.510 . S
C29 H27 0.959 . S
C29 H28 0.961 . S
C29 H30 0.960 . S
H30 C29 0.960 . S
H31 N11 0.862 . S
O32 Co0 1.920 1_655 S
O32 C5 1.289 . S
C33 O25 1.258 . S
C33 O26 1.266 . S
Co34 O37 1.970 . S
Co34 N51 1.989 . S
Co34 O59 1.967 . S
Co34 O66 1.920 1_565 S
Co35 O38 1.966 . S
Co35 N44 2.022 . S
Co35 N52 1.993 . S
Co35 O60 1.941 . S
C36 O37 1.258 . S
C36 O38 1.263 . S
O37 Co34 1.970 . S
O37 C36 1.258 . S
O38 Co35 1.966 . S
O38 C36 1.263 . S
C39 O40 1.235 . S
C39 O66 1.289 . S
O40 C39 1.235 . S
C41 C43 1.400 . S
C41 N44 1.351 . S
C41 C46 1.501 . S
C42 C43 1.387 . S
C42 N45 1.341 . S
C43 C41 1.400 . S
C43 C42 1.387 . S
N44 Co35 2.022 . S
N44 C41 1.351 . S
N44 N45 1.365 . S
N45 C42 1.341 . S
N45 N44 1.365 . S
N45 H65 0.862 . S
C46 C41 1.501 . S
C46 H47 0.961 . S
C46 H48 0.961 . S
C46 H49 0.960 . S
H47 C46 0.961 . S
H48 C46 0.961 . S
H49 C46 0.960 . S
C50 N51 1.342 . S
C50 C54 1.401 . S
C50 C55 1.499 1_565 S
N51 Co34 1.989 . S
N51 C50 1.342 . S
N51 N52 1.388 . S
N52 Co35 1.993 . S
N52 N51 1.388 . S
N52 C53 1.346 . S
C53 N52 1.346 . S
C53 C54 1.396 . S
C53 C63 1.510 . S
C54 C50 1.401 . S
C54 C53 1.396 . S
C55 C50 1.499 1_545 S
C55 H56 0.959 . S
C55 H57 0.960 . S
C55 H58 0.961 1_545 S
H56 C55 0.959 . S
H57 C55 0.960 . S
H58 C55 0.961 1_565 S
O59 Co34 1.967 . S
O59 C67 1.258 . S
O60 Co35 1.941 . S
O60 C67 1.266 . S
H61 C63 0.959 . S
H62 C63 0.961 . S
C63 C53 1.510 . S
C63 H61 0.959 . S
C63 H62 0.961 . S
C63 H64 0.960 . S
H64 C63 0.960 . S
H65 N45 0.862 . S
O66 Co34 1.920 1_545 S
O66 C39 1.289 . S
C67 O59 1.258 . S
C67 O60 1.266 . S
Co68 O71 1.970 . S
Co68 N85 1.989 . S
Co68 O93 1.967 . S
Co68 O100 1.920 1_655 S
Co69 O72 1.966 . S
Co69 N78 2.022 . S
Co69 N86 1.993 . S
Co69 O94 1.941 . S
C70 O71 1.258 . S
C70 O72 1.263 . S
O71 Co68 1.970 . S
O71 C70 1.258 . S
O72 Co69 1.966 . S
O72 C70 1.263 . S
C73 O74 1.235 . S
C73 O100 1.289 . S
O74 C73 1.235 . S
C75 C77 1.400 . S
C75 N78 1.351 . S
C75 C80 1.501 . S
C76 C77 1.387 . S
C76 N79 1.341 . S
C77 C75 1.400 . S
C77 C76 1.387 . S
N78 Co69 2.022 . S
N78 C75 1.351 . S
N78 N79 1.365 . S
N79 C76 1.341 . S
N79 N78 1.365 . S
N79 H99 0.862 . S
C80 C75 1.501 . S
C80 H81 0.961 . S
C80 H82 0.961 . S
C80 H83 0.960 . S
H81 C80 0.961 . S
H82 C80 0.961 . S
H83 C80 0.960 . S
C84 N85 1.342 . S
C84 C88 1.401 . S
C84 C89 1.499 1_655 S
N85 Co68 1.989 . S
N85 C84 1.342 . S
N85 N86 1.388 . S
N86 Co69 1.993 . S
N86 N85 1.388 . S
N86 C87 1.346 . S
C87 N86 1.346 . S
C87 C88 1.396 . S
C87 C97 1.510 . S
C88 C84 1.401 . S
C88 C87 1.396 . S
C89 C84 1.499 1_455 S
C89 H90 0.959 . S
C89 H91 0.960 . S
C89 H92 0.961 1_455 S
H90 C89 0.959 . S
H91 C89 0.960 . S
H92 C89 0.961 1_655 S
O93 Co68 1.967 . S
O93 C101 1.258 . S
O94 Co69 1.941 . S
O94 C101 1.266 . S
H95 C97 0.959 . S
H96 C97 0.961 . S
C97 C87 1.510 . S
C97 H95 0.959 . S
C97 H96 0.961 . S
C97 H98 0.960 . S
H98 C97 0.960 . S
H99 N79 0.862 . S
O100 Co68 1.920 1_455 S
O100 C73 1.289 . S
C101 O93 1.258 . S
C101 O94 1.266 . S
Co102 O105 1.970 . S
Co102 N119 1.989 . S
Co102 O127 1.967 . S
Co102 O134 1.920 1_545 S
Co103 O106 1.966 . S
Co103 N112 2.022 . S
Co103 N120 1.993 . S
Co103 O128 1.941 . S
C104 O105 1.258 . S
C104 O106 1.263 . S
O105 Co102 1.970 . S
O105 C104 1.258 . S
O106 Co103 1.966 . S
O106 C104 1.263 . S
C107 O108 1.235 . S
C107 O134 1.289 . S
O108 C107 1.235 . S
C109 C111 1.400 . S
C109 N112 1.351 . S
C109 C114 1.501 . S
C110 C111 1.387 . S
C110 N113 1.341 . S
C111 C109 1.400 . S
C111 C110 1.387 . S
N112 Co103 2.022 . S
N112 C109 1.351 . S
N112 N113 1.365 . S
N113 C110 1.341 . S
N113 N112 1.365 . S
N113 H133 0.862 . S
C114 C109 1.501 . S
C114 H115 0.961 . S
C114 H116 0.961 . S
C114 H117 0.960 . S
H115 C114 0.961 . S
H116 C114 0.961 . S
H117 C114 0.960 . S
C118 N119 1.342 . S
C118 C122 1.401 . S
C118 C123 1.499 1_545 S
N119 Co102 1.989 . S
N119 C118 1.342 . S
N119 N120 1.388 . S
N120 Co103 1.993 . S
N120 N119 1.388 . S
N120 C121 1.346 . S
C121 N120 1.346 . S
C121 C122 1.396 . S
C121 C131 1.510 . S
C122 C118 1.401 . S
C122 C121 1.396 . S
C123 C118 1.499 1_565 S
C123 H124 0.959 . S
C123 H125 0.960 . S
C123 H126 0.961 1_565 S
H124 C123 0.959 . S
H125 C123 0.960 . S
H126 C123 0.961 1_545 S
O127 Co102 1.967 . S
O127 C135 1.258 . S
O128 Co103 1.941 . S
O128 C135 1.266 . S
H129 C131 0.959 . S
H130 C131 0.961 . S
C131 C121 1.510 . S
C131 H129 0.959 . S
C131 H130 0.961 . S
C131 H132 0.960 . S
H132 C131 0.960 . S
H133 N113 0.862 . S
O134 Co102 1.920 1_565 S
O134 C107 1.289 . S
C135 O127 1.258 . S
C135 O128 1.266 . S
Co136 O139 1.970 . S
Co136 N153 1.989 . S
Co136 O161 1.967 . S
Co136 O168 1.920 1_455 S
Co137 O140 1.966 . S
Co137 N146 2.022 . S
Co137 N154 1.993 . S
Co137 O162 1.941 . S
C138 O139 1.258 . S
C138 O140 1.263 . S
O139 Co136 1.970 . S
O139 C138 1.258 . S
O140 Co137 1.966 . S
O140 C138 1.263 . S
C141 O142 1.235 . S
C141 O168 1.289 . S
O142 C141 1.235 . S
C143 C145 1.400 . S
C143 N146 1.351 . S
C143 C148 1.501 . S
C144 C145 1.387 . S
C144 N147 1.341 . S
C145 C143 1.400 . S
C145 C144 1.387 . S
N146 Co137 2.022 . S
N146 C143 1.351 . S
N146 N147 1.365 . S
N147 C144 1.341 . S
N147 N146 1.365 . S
N147 H167 0.862 . S
C148 C143 1.501 . S
C148 H149 0.961 . S
C148 H150 0.961 . S
C148 H151 0.960 . S
H149 C148 0.961 . S
H150 C148 0.961 . S
H151 C148 0.960 . S
C152 N153 1.342 . S
C152 C156 1.401 . S
C152 C157 1.499 1_455 S
N153 Co136 1.989 . S
N153 C152 1.342 . S
N153 N154 1.388 . S
N154 Co137 1.993 . S
N154 N153 1.388 . S
N154 C155 1.346 . S
C155 N154 1.346 . S
C155 C156 1.396 . S
C155 C165 1.510 . S
C156 C152 1.401 . S
C156 C155 1.396 . S
C157 C152 1.499 1_655 S
C157 H158 0.959 . S
C157 H159 0.960 . S
C157 H160 0.961 1_655 S
H158 C157 0.959 . S
H159 C157 0.960 . S
H160 C157 0.961 1_455 S
O161 Co136 1.967 . S
O161 C169 1.258 . S
O162 Co137 1.941 . S
O162 C169 1.266 . S
H163 C165 0.959 . S
H164 C165 0.961 . S
C165 C155 1.510 . S
C165 H163 0.959 . S
C165 H164 0.961 . S
C165 H166 0.960 . S
H166 C165 0.960 . S
H167 N147 0.862 . S
O168 Co136 1.920 1_655 S
O168 C141 1.289 . S
C169 O161 1.258 . S
C169 O162 1.266 . S
Co170 O173 1.970 . S
Co170 N187 1.989 . S
Co170 O195 1.967 . S
Co170 O202 1.920 1_565 S
Co171 O174 1.966 . S
Co171 N180 2.022 . S
Co171 N188 1.993 . S
Co171 O196 1.941 . S
C172 O173 1.258 . S
C172 O174 1.263 . S
O173 Co170 1.970 . S
O173 C172 1.258 . S
O174 Co171 1.966 . S
O174 C172 1.263 . S
C175 O176 1.235 . S
C175 O202 1.289 . S
O176 C175 1.235 . S
C177 C179 1.400 . S
C177 N180 1.351 . S
C177 C182 1.501 . S
C178 C179 1.387 . S
C178 N181 1.341 . S
C179 C177 1.400 . S
C179 C178 1.387 . S
N180 Co171 2.022 . S
N180 C177 1.351 . S
N180 N181 1.365 . S
N181 C178 1.341 . S
N181 N180 1.365 . S
N181 H201 0.862 . S
C182 C177 1.501 . S
C182 H183 0.961 . S
C182 H184 0.961 . S
C182 H185 0.960 . S
H183 C182 0.961 . S
H184 C182 0.961 . S
H185 C182 0.960 . S
C186 N187 1.342 . S
C186 C190 1.401 . S
C186 C191 1.499 1_565 S
N187 Co170 1.989 . S
N187 C186 1.342 . S
N187 N188 1.388 . S
N188 Co171 1.993 . S
N188 N187 1.388 . S
N188 C189 1.346 . S
C189 N188 1.346 . S
C189 C190 1.396 . S
C189 C199 1.510 . S
C190 C186 1.401 . S
C190 C189 1.396 . S
C191 C186 1.499 1_545 S
C191 H192 0.959 . S
C191 H193 0.960 . S
C191 H194 0.961 1_545 S
H192 C191 0.959 . S
H193 C191 0.960 . S
H194 C191 0.961 1_565 S
O195 Co170 1.967 . S
O195 C203 1.258 . S
O196 Co171 1.941 . S
O196 C203 1.266 . S
H197 C199 0.959 . S
H198 C199 0.961 . S
C199 C189 1.510 . S
C199 H197 0.959 . S
C199 H198 0.961 . S
C199 H200 0.960 . S
H200 C199 0.960 . S
H201 N181 0.862 . S
O202 Co170 1.920 1_545 S
O202 C175 1.289 . S
C203 O195 1.258 . S
C203 O196 1.266 . S
Co204 O207 1.970 . S
Co204 N221 1.989 . S
Co204 O229 1.967 . S
Co204 O236 1.920 1_655 S
Co205 O208 1.966 . S
Co205 N214 2.022 . S
Co205 N222 1.993 . S
Co205 O230 1.941 . S
C206 O207 1.258 . S
C206 O208 1.263 . S
O207 Co204 1.970 . S
O207 C206 1.258 . S
O208 Co205 1.966 . S
O208 C206 1.263 . S
C209 O210 1.235 . S
C209 O236 1.289 . S
O210 C209 1.235 . S
C211 C213 1.400 . S
C211 N214 1.351 . S
C211 C216 1.501 . S
C212 C213 1.387 . S
C212 N215 1.341 . S
C213 C211 1.400 . S
C213 C212 1.387 . S
N214 Co205 2.022 . S
N214 C211 1.351 . S
N214 N215 1.365 . S
N215 C212 1.341 . S
N215 N214 1.365 . S
N215 H235 0.862 . S
C216 C211 1.501 . S
C216 H217 0.961 . S
C216 H218 0.961 . S
C216 H219 0.960 . S
H217 C216 0.961 . S
H218 C216 0.961 . S
H219 C216 0.960 . S
C220 N221 1.342 . S
C220 C224 1.401 . S
C220 C225 1.499 1_655 S
N221 Co204 1.989 . S
N221 C220 1.342 . S
N221 N222 1.388 . S
N222 Co205 1.993 . S
N222 N221 1.388 . S
N222 C223 1.346 . S
C223 N222 1.346 . S
C223 C224 1.396 . S
C223 C233 1.510 . S
C224 C220 1.401 . S
C224 C223 1.396 . S
C225 C220 1.499 1_455 S
C225 H226 0.959 . S
C225 H227 0.960 . S
C225 H228 0.961 1_455 S
H226 C225 0.959 . S
H227 C225 0.960 . S
H228 C225 0.961 1_655 S
O229 Co204 1.967 . S
O229 C237 1.258 . S
O230 Co205 1.941 . S
O230 C237 1.266 . S
H231 C233 0.959 . S
H232 C233 0.961 . S
C233 C223 1.510 . S
C233 H231 0.959 . S
C233 H232 0.961 . S
C233 H234 0.960 . S
H234 C233 0.960 . S
H235 N215 0.862 . S
O236 Co204 1.920 1_455 S
O236 C209 1.289 . S
C237 O229 1.258 . S
C237 O230 1.266 . S
Co238 O241 1.970 . S
Co238 N255 1.989 . S
Co238 O263 1.967 . S
Co238 O270 1.920 1_545 S
Co239 O242 1.966 . S
Co239 N248 2.022 . S
Co239 N256 1.993 . S
Co239 O264 1.941 . S
C240 O241 1.258 . S
C240 O242 1.263 . S
O241 Co238 1.970 . S
O241 C240 1.258 . S
O242 Co239 1.966 . S
O242 C240 1.263 . S
C243 O244 1.235 . S
C243 O270 1.289 . S
O244 C243 1.235 . S
C245 C247 1.400 . S
C245 N248 1.351 . S
C245 C250 1.501 . S
C246 C247 1.387 . S
C246 N249 1.341 . S
C247 C245 1.400 . S
C247 C246 1.387 . S
N248 Co239 2.022 . S
N248 C245 1.351 . S
N248 N249 1.365 . S
N249 C246 1.341 . S
N249 N248 1.365 . S
N249 H269 0.862 . S
C250 C245 1.501 . S
C250 H251 0.961 . S
C250 H252 0.961 . S
C250 H253 0.960 . S
H251 C250 0.961 . S
H252 C250 0.961 . S
H253 C250 0.960 . S
C254 N255 1.342 . S
C254 C258 1.401 . S
C254 C259 1.499 1_545 S
N255 Co238 1.989 . S
N255 C254 1.342 . S
N255 N256 1.388 . S
N256 Co239 1.993 . S
N256 N255 1.388 . S
N256 C257 1.346 . S
C257 N256 1.346 . S
C257 C258 1.396 . S
C257 C267 1.510 . S
C258 C254 1.401 . S
C258 C257 1.396 . S
C259 C254 1.499 1_565 S
C259 H260 0.959 . S
C259 H261 0.960 . S
C259 H262 0.961 1_565 S
H260 C259 0.959 . S
H261 C259 0.960 . S
H262 C259 0.961 1_545 S
O263 Co238 1.967 . S
O263 C271 1.258 . S
O264 Co239 1.941 . S
O264 C271 1.266 . S
H265 C267 0.959 . S
H266 C267 0.961 . S
C267 C257 1.510 . S
C267 H265 0.959 . S
C267 H266 0.961 . S
C267 H268 0.960 . S
H268 C267 0.960 . S
H269 N249 0.862 . S
O270 Co238 1.920 1_565 S
O270 C243 1.289 . S
C271 O263 1.258 . S
C271 O264 1.266 . S
Co272 O275 1.970 . S
Co272 N289 1.989 . S
Co272 O297 1.967 . S
Co272 O304 1.920 . S
Co273 O276 1.966 . S
Co273 N282 2.022 . S
Co273 N290 1.993 . S
Co273 O298 1.941 . S
C274 O275 1.258 . S
C274 O276 1.263 . S
O275 Co272 1.970 . S
O275 C274 1.258 . S
O276 Co273 1.966 . S
O276 C274 1.263 . S
C277 O278 1.235 . S
C277 O304 1.289 . S
O278 C277 1.235 . S
C279 C281 1.400 . S
C279 N282 1.351 . S
C279 C284 1.501 . S
C280 C281 1.387 . S
C280 N283 1.341 . S
C281 C279 1.400 . S
C281 C280 1.387 . S
N282 Co273 2.022 . S
N282 C279 1.351 . S
N282 N283 1.365 . S
N283 C280 1.341 . S
N283 N282 1.365 . S
N283 H303 0.862 . S
C284 C279 1.501 . S
C284 H285 0.961 . S
C284 H286 0.961 . S
C284 H287 0.960 . S
H285 C284 0.961 . S
H286 C284 0.961 . S
H287 C284 0.960 . S
C288 N289 1.342 . S
C288 C292 1.401 . S
C288 C293 1.499 . S
N289 Co272 1.989 . S
N289 C288 1.342 . S
N289 N290 1.388 . S
N290 Co273 1.993 . S
N290 N289 1.388 . S
N290 C291 1.346 . S
C291 N290 1.346 . S
C291 C292 1.396 . S
C291 C301 1.510 . S
C292 C288 1.401 . S
C292 C291 1.396 . S
C293 C288 1.499 . S
C293 H294 0.959 . S
C293 H295 0.960 . S
C293 H296 0.961 . S
H294 C293 0.959 . S
H295 C293 0.960 . S
H296 C293 0.961 . S
O297 Co272 1.967 . S
O297 C305 1.258 . S
O298 Co273 1.941 . S
O298 C305 1.266 . S
H299 C301 0.959 . S
H300 C301 0.961 . S
C301 C291 1.510 . S
C301 H299 0.959 . S
C301 H300 0.961 . S
C301 H302 0.960 . S
H302 C301 0.960 . S
H303 N283 0.862 . S
O304 Co272 1.920 . S
O304 C277 1.289 . S
C305 O297 1.258 . S
C305 O298 1.266 . S
Co306 O309 1.970 . S
Co306 N323 1.989 . S
Co306 O331 1.967 . S
Co306 O338 1.920 . S
Co307 O310 1.966 . S
Co307 N316 2.022 . S
Co307 N324 1.993 . S
Co307 O332 1.941 . S
C308 O309 1.258 . S
C308 O310 1.263 . S
O309 Co306 1.970 . S
O309 C308 1.258 . S
O310 Co307 1.966 . S
O310 C308 1.263 . S
C311 O312 1.235 . S
C311 O338 1.289 . S
O312 C311 1.235 . S
C313 C315 1.400 . S
C313 N316 1.351 . S
C313 C318 1.501 . S
C314 C315 1.387 . S
C314 N317 1.341 . S
C315 C313 1.400 . S
C315 C314 1.387 . S
N316 Co307 2.022 . S
N316 C313 1.351 . S
N316 N317 1.365 . S
N317 C314 1.341 . S
N317 N316 1.365 . S
N317 H337 0.862 . S
C318 C313 1.501 . S
C318 H319 0.961 . S
C318 H320 0.961 . S
C318 H321 0.960 . S
H319 C318 0.961 . S
H320 C318 0.961 . S
H321 C318 0.960 . S
C322 N323 1.342 . S
C322 C326 1.401 . S
C322 C327 1.499 . S
N323 Co306 1.989 . S
N323 C322 1.342 . S
N323 N324 1.388 . S
N324 Co307 1.993 . S
N324 N323 1.388 . S
N324 C325 1.346 . S
C325 N324 1.346 . S
C325 C326 1.396 . S
C325 C335 1.510 . S
C326 C322 1.401 . S
C326 C325 1.396 . S
C327 C322 1.499 . S
C327 H328 0.959 . S
C327 H329 0.960 . S
C327 H330 0.961 . S
H328 C327 0.959 . S
H329 C327 0.960 . S
H330 C327 0.961 . S
O331 Co306 1.967 . S
O331 C339 1.258 . S
O332 Co307 1.941 . S
O332 C339 1.266 . S
H333 C335 0.959 . S
H334 C335 0.961 . S
C335 C325 1.510 . S
C335 H333 0.959 . S
C335 H334 0.961 . S
C335 H336 0.960 . S
H336 C335 0.960 . S
H337 N317 0.862 . S
O338 Co306 1.920 . S
O338 C311 1.289 . S
C339 O331 1.258 . S
C339 O332 1.266 . S
Co340 O343 1.970 . S
Co340 N357 1.989 . S
Co340 O365 1.967 . S
Co340 O372 1.920 . S
Co341 O344 1.966 . S
Co341 N350 2.022 . S
Co341 N358 1.993 . S
Co341 O366 1.941 . S
C342 O343 1.258 . S
C342 O344 1.263 . S
O343 Co340 1.970 . S
O343 C342 1.258 . S
O344 Co341 1.966 . S
O344 C342 1.263 . S
C345 O346 1.235 . S
C345 O372 1.289 . S
O346 C345 1.235 . S
C347 C349 1.400 . S
C347 N350 1.351 . S
C347 C352 1.501 . S
C348 C349 1.387 . S
C348 N351 1.341 . S
C349 C347 1.400 . S
C349 C348 1.387 . S
N350 Co341 2.022 . S
N350 C347 1.351 . S
N350 N351 1.365 . S
N351 C348 1.341 . S
N351 N350 1.365 . S
N351 H371 0.862 . S
C352 C347 1.501 . S
C352 H353 0.961 . S
C352 H354 0.961 . S
C352 H355 0.960 . S
H353 C352 0.961 . S
H354 C352 0.961 . S
H355 C352 0.960 . S
C356 N357 1.342 . S
C356 C360 1.401 . S
C356 C361 1.499 . S
N357 Co340 1.989 . S
N357 C356 1.342 . S
N357 N358 1.388 . S
N358 Co341 1.993 . S
N358 N357 1.388 . S
N358 C359 1.346 . S
C359 N358 1.346 . S
C359 C360 1.396 . S
C359 C369 1.510 . S
C360 C356 1.401 . S
C360 C359 1.396 . S
C361 C356 1.499 . S
C361 H362 0.959 . S
C361 H363 0.960 . S
C361 H364 0.961 . S
H362 C361 0.959 . S
H363 C361 0.960 . S
H364 C361 0.961 . S
O365 Co340 1.967 . S
O365 C373 1.258 . S
O366 Co341 1.941 . S
O366 C373 1.266 . S
H367 C369 0.959 . S
H368 C369 0.961 . S
C369 C359 1.510 . S
C369 H367 0.959 . S
C369 H368 0.961 . S
C369 H370 0.960 . S
H370 C369 0.960 . S
H371 N351 0.862 . S
O372 Co340 1.920 . S
O372 C345 1.289 . S
C373 O365 1.258 . S
C373 O366 1.266 . S
Co374 O377 1.970 . S
Co374 N391 1.989 . S
Co374 O399 1.967 . S
Co374 O406 1.920 . S
Co375 O378 1.966 . S
Co375 N384 2.022 . S
Co375 N392 1.993 . S
Co375 O400 1.941 . S
C376 O377 1.258 . S
C376 O378 1.263 . S
O377 Co374 1.970 . S
O377 C376 1.258 . S
O378 Co375 1.966 . S
O378 C376 1.263 . S
C379 O380 1.235 . S
C379 O406 1.289 . S
O380 C379 1.235 . S
C381 C383 1.400 . S
C381 N384 1.351 . S
C381 C386 1.501 . S
C382 C383 1.387 . S
C382 N385 1.341 . S
C383 C381 1.400 . S
C383 C382 1.387 . S
N384 Co375 2.022 . S
N384 C381 1.351 . S
N384 N385 1.365 . S
N385 C382 1.341 . S
N385 N384 1.365 . S
N385 H405 0.862 . S
C386 C381 1.501 . S
C386 H387 0.961 . S
C386 H388 0.961 . S
C386 H389 0.960 . S
H387 C386 0.961 . S
H388 C386 0.961 . S
H389 C386 0.960 . S
C390 N391 1.342 . S
C390 C394 1.401 . S
C390 C395 1.499 . S
N391 Co374 1.989 . S
N391 C390 1.342 . S
N391 N392 1.388 . S
N392 Co375 1.993 . S
N392 N391 1.388 . S
N392 C393 1.346 . S
C393 N392 1.346 . S
C393 C394 1.396 . S
C393 C403 1.510 . S
C394 C390 1.401 . S
C394 C393 1.396 . S
C395 C390 1.499 . S
C395 H396 0.959 . S
C395 H397 0.960 . S
C395 H398 0.961 . S
H396 C395 0.959 . S
H397 C395 0.960 . S
H398 C395 0.961 . S
O399 Co374 1.967 . S
O399 C407 1.258 . S
O400 Co375 1.941 . S
O400 C407 1.266 . S
H401 C403 0.959 . S
H402 C403 0.961 . S
C403 C393 1.510 . S
C403 H401 0.959 . S
C403 H402 0.961 . S
C403 H404 0.960 . S
H404 C403 0.960 . S
H405 N385 0.862 . S
O406 Co374 1.920 . S
O406 C379 1.289 . S
C407 O399 1.258 . S
C407 O400 1.266 . S
Co408 O411 1.970 . S
Co408 N425 1.989 . S
Co408 O433 1.967 . S
Co408 O440 1.920 . S
Co409 O412 1.966 . S
Co409 N418 2.022 . S
Co409 N426 1.993 . S
Co409 O434 1.941 . S
C410 O411 1.258 . S
C410 O412 1.263 . S
O411 Co408 1.970 . S
O411 C410 1.258 . S
O412 Co409 1.966 . S
O412 C410 1.263 . S
C413 O414 1.235 . S
C413 O440 1.289 . S
O414 C413 1.235 . S
C415 C417 1.400 . S
C415 N418 1.351 . S
C415 C420 1.501 . S
C416 C417 1.387 . S
C416 N419 1.341 . S
C417 C415 1.400 . S
C417 C416 1.387 . S
N418 Co409 2.022 . S
N418 C415 1.351 . S
N418 N419 1.365 . S
N419 C416 1.341 . S
N419 N418 1.365 . S
N419 H439 0.862 . S
C420 C415 1.501 . S
C420 H421 0.961 . S
C420 H422 0.961 . S
C420 H423 0.960 . S
H421 C420 0.961 . S
H422 C420 0.961 . S
H423 C420 0.960 . S
C424 N425 1.342 . S
C424 C428 1.401 . S
C424 C429 1.499 . S
N425 Co408 1.989 . S
N425 C424 1.342 . S
N425 N426 1.388 . S
N426 Co409 1.993 . S
N426 N425 1.388 . S
N426 C427 1.346 . S
C427 N426 1.346 . S
C427 C428 1.396 . S
C427 C437 1.510 . S
C428 C424 1.401 . S
C428 C427 1.396 . S
C429 C424 1.499 . S
C429 H430 0.959 . S
C429 H431 0.960 . S
C429 H432 0.961 . S
H430 C429 0.959 . S
H431 C429 0.960 . S
H432 C429 0.961 . S
O433 Co408 1.967 . S
O433 C441 1.258 . S
O434 Co409 1.941 . S
O434 C441 1.266 . S
H435 C437 0.959 . S
H436 C437 0.961 . S
C437 C427 1.510 . S
C437 H435 0.959 . S
C437 H436 0.961 . S
C437 H438 0.960 . S
H438 C437 0.960 . S
H439 N419 0.862 . S
O440 Co408 1.920 . S
O440 C413 1.289 . S
C441 O433 1.258 . S
C441 O434 1.266 . S
Co442 O445 1.970 . S
Co442 N459 1.989 . S
Co442 O467 1.967 . S
Co442 O474 1.920 . S
Co443 O446 1.966 . S
Co443 N452 2.022 . S
Co443 N460 1.993 . S
Co443 O468 1.941 . S
C444 O445 1.258 . S
C444 O446 1.263 . S
O445 Co442 1.970 . S
O445 C444 1.258 . S
O446 Co443 1.966 . S
O446 C444 1.263 . S
C447 O448 1.235 . S
C447 O474 1.289 . S
O448 C447 1.235 . S
C449 C451 1.400 . S
C449 N452 1.351 . S
C449 C454 1.501 . S
C450 C451 1.387 . S
C450 N453 1.341 . S
C451 C449 1.400 . S
C451 C450 1.387 . S
N452 Co443 2.022 . S
N452 C449 1.351 . S
N452 N453 1.365 . S
N453 C450 1.341 . S
N453 N452 1.365 . S
N453 H473 0.862 . S
C454 C449 1.501 . S
C454 H455 0.961 . S
C454 H456 0.961 . S
C454 H457 0.960 . S
H455 C454 0.961 . S
H456 C454 0.961 . S
H457 C454 0.960 . S
C458 N459 1.342 . S
C458 C462 1.401 . S
C458 C463 1.499 . S
N459 Co442 1.989 . S
N459 C458 1.342 . S
N459 N460 1.388 . S
N460 Co443 1.993 . S
N460 N459 1.388 . S
N460 C461 1.346 . S
C461 N460 1.346 . S
C461 C462 1.396 . S
C461 C471 1.510 . S
C462 C458 1.401 . S
C462 C461 1.396 . S
C463 C458 1.499 . S
C463 H464 0.959 . S
C463 H465 0.960 . S
C463 H466 0.961 . S
H464 C463 0.959 . S
H465 C463 0.960 . S
H466 C463 0.961 . S
O467 Co442 1.967 . S
O467 C475 1.258 . S
O468 Co443 1.941 . S
O468 C475 1.266 . S
H469 C471 0.959 . S
H470 C471 0.961 . S
C471 C461 1.510 . S
C471 H469 0.959 . S
C471 H470 0.961 . S
C471 H472 0.960 . S
H472 C471 0.960 . S
H473 N453 0.862 . S
O474 Co442 1.920 . S
O474 C447 1.289 . S
C475 O467 1.258 . S
C475 O468 1.266 . S
Co476 O479 1.970 . S
Co476 N493 1.989 . S
Co476 O501 1.967 . S
Co476 O508 1.920 . S
Co477 O480 1.966 . S
Co477 N486 2.022 . S
Co477 N494 1.993 . S
Co477 O502 1.941 . S
C478 O479 1.258 . S
C478 O480 1.263 . S
O479 Co476 1.970 . S
O479 C478 1.258 . S
O480 Co477 1.966 . S
O480 C478 1.263 . S
C481 O482 1.235 . S
C481 O508 1.289 . S
O482 C481 1.235 . S
C483 C485 1.400 . S
C483 N486 1.351 . S
C483 C488 1.501 . S
C484 C485 1.387 . S
C484 N487 1.341 . S
C485 C483 1.400 . S
C485 C484 1.387 . S
N486 Co477 2.022 . S
N486 C483 1.351 . S
N486 N487 1.365 . S
N487 C484 1.341 . S
N487 N486 1.365 . S
N487 H507 0.862 . S
C488 C483 1.501 . S
C488 H489 0.961 . S
C488 H490 0.961 . S
C488 H491 0.960 . S
H489 C488 0.961 . S
H490 C488 0.961 . S
H491 C488 0.960 . S
C492 N493 1.342 . S
C492 C496 1.401 . S
C492 C497 1.499 . S
N493 Co476 1.989 . S
N493 C492 1.342 . S
N493 N494 1.388 . S
N494 Co477 1.993 . S
N494 N493 1.388 . S
N494 C495 1.346 . S
C495 N494 1.346 . S
C495 C496 1.396 . S
C495 C505 1.510 . S
C496 C492 1.401 . S
C496 C495 1.396 . S
C497 C492 1.499 . S
C497 H498 0.959 . S
C497 H499 0.960 . S
C497 H500 0.961 . S
H498 C497 0.959 . S
H499 C497 0.960 . S
H500 C497 0.961 . S
O501 Co476 1.967 . S
O501 C509 1.258 . S
O502 Co477 1.941 . S
O502 C509 1.266 . S
H503 C505 0.959 . S
H504 C505 0.961 . S
C505 C495 1.510 . S
C505 H503 0.959 . S
C505 H504 0.961 . S
C505 H506 0.960 . S
H506 C505 0.960 . S
H507 N487 0.862 . S
O508 Co476 1.920 . S
O508 C481 1.289 . S
C509 O501 1.258 . S
C509 O502 1.266 . S
Co510 O513 1.970 . S
Co510 N527 1.989 . S
Co510 O535 1.967 . S
Co510 O542 1.920 . S
Co511 O514 1.966 . S
Co511 N520 2.022 . S
Co511 N528 1.993 . S
Co511 O536 1.941 . S
C512 O513 1.258 . S
C512 O514 1.263 . S
O513 Co510 1.970 . S
O513 C512 1.258 . S
O514 Co511 1.966 . S
O514 C512 1.263 . S
C515 O516 1.235 . S
C515 O542 1.289 . S
O516 C515 1.235 . S
C517 C519 1.400 . S
C517 N520 1.351 . S
C517 C522 1.501 . S
C518 C519 1.387 . S
C518 N521 1.341 . S
C519 C517 1.400 . S
C519 C518 1.387 . S
N520 Co511 2.022 . S
N520 C517 1.351 . S
N520 N521 1.365 . S
N521 C518 1.341 . S
N521 N520 1.365 . S
N521 H541 0.862 . S
C522 C517 1.501 . S
C522 H523 0.961 . S
C522 H524 0.961 . S
C522 H525 0.960 . S
H523 C522 0.961 . S
H524 C522 0.961 . S
H525 C522 0.960 . S
C526 N527 1.342 . S
C526 C530 1.401 . S
C526 C531 1.499 . S
N527 Co510 1.989 . S
N527 C526 1.342 . S
N527 N528 1.388 . S
N528 Co511 1.993 . S
N528 N527 1.388 . S
N528 C529 1.346 . S
C529 N528 1.346 . S
C529 C530 1.396 . S
C529 C539 1.510 . S
C530 C526 1.401 . S
C530 C529 1.396 . S
C531 C526 1.499 . S
C531 H532 0.959 . S
C531 H533 0.960 . S
C531 H534 0.961 . S
H532 C531 0.959 . S
H533 C531 0.960 . S
H534 C531 0.961 . S
O535 Co510 1.967 . S
O535 C543 1.258 . S
O536 Co511 1.941 . S
O536 C543 1.266 . S
H537 C539 0.959 . S
H538 C539 0.961 . S
C539 C529 1.510 . S
C539 H537 0.959 . S
C539 H538 0.961 . S
C539 H540 0.960 . S
H540 C539 0.960 . S
H541 N521 0.862 . S
O542 Co510 1.920 . S
O542 C515 1.289 . S
C543 O535 1.258 . S
C543 O536 1.266 . S
C544 C545 1.349 . S
C544 C546 1.327 . S
C544 H569 0.950 . S
C545 C544 1.349 . S
C545 C561 1.349 . S
C546 C544 1.327 . S
C546 C565 1.429 . S
C546 H570 0.950 . S
C547 C564 1.574 . S
C547 C566 1.368 . S
C547 H571 0.949 . S
H548 C552 0.949 . S
C549 C550 1.349 . S
C549 C551 1.327 . S
C549 H572 0.950 . S
C550 C549 1.349 . S
C550 C562 1.349 . S
C551 C549 1.327 . S
C551 C567 1.429 . S
C551 H573 0.950 . S
C552 H548 0.949 . S
C552 C560 1.574 . S
C552 C568 1.368 . S
H553 C561 0.950 . S
H554 C559 0.950 . S
H555 C560 0.949 . S
H556 C562 0.950 . S
H557 C563 0.950 . S
H558 C564 0.949 . S
C559 H554 0.950 . S
C559 C561 1.327 . S
C559 C565 1.429 . S
C560 C552 1.574 . S
C560 H555 0.949 . S
C560 C566 1.368 . S
C561 C545 1.349 . S
C561 H553 0.950 . S
C561 C559 1.327 . S
C562 C550 1.349 . S
C562 H556 0.950 . S
C562 C563 1.327 . S
C563 H557 0.950 . S
C563 C562 1.327 . S
C563 C567 1.429 . S
C564 C547 1.574 . S
C564 H558 0.949 . S
C564 C568 1.368 . S
C565 C546 1.429 . S
C565 C559 1.429 . S
C565 C566 1.523 . S
C566 C547 1.368 . S
C566 C560 1.368 . S
C566 C565 1.523 . S
C567 C551 1.429 . S
C567 C563 1.429 . S
C567 C568 1.523 . S
C568 C552 1.368 . S
C568 C564 1.368 . S
C568 C567 1.523 . S
H569 C544 0.950 . S
H570 C546 0.950 . S
H571 C547 0.949 . S
H572 C549 0.950 . S
H573 C551 0.950 . S
C574 C575 1.349 . S
C574 C576 1.327 . S
C574 H599 0.950 . S
C575 C574 1.349 . S
C575 C591 1.349 . S
C576 C574 1.327 . S
C576 C595 1.429 . S
C576 H600 0.950 . S
C577 C594 1.574 . S
C577 C596 1.368 . S
C577 H601 0.949 . S
H578 C582 0.949 . S
C579 C580 1.349 . S
C579 C581 1.327 . S
C579 H602 0.950 . S
C580 C579 1.349 . S
C580 C592 1.349 . S
C581 C579 1.327 . S
C581 C597 1.429 . S
C581 H603 0.950 . S
C582 H578 0.949 . S
C582 C590 1.574 . S
C582 C598 1.368 . S
H583 C591 0.950 . S
H584 C589 0.950 . S
H585 C590 0.949 . S
H586 C592 0.950 . S
H587 C593 0.950 . S
H588 C594 0.949 . S
C589 H584 0.950 . S
C589 C591 1.327 . S
C589 C595 1.429 . S
C590 C582 1.574 . S
C590 H585 0.949 . S
C590 C596 1.368 . S
C591 C575 1.349 . S
C591 H583 0.950 . S
C591 C589 1.327 . S
C592 C580 1.349 . S
C592 H586 0.950 . S
C592 C593 1.327 . S
C593 H587 0.950 . S
C593 C592 1.327 . S
C593 C597 1.429 . S
C594 C577 1.574 . S
C594 H588 0.949 . S
C594 C598 1.368 . S
C595 C576 1.429 . S
C595 C589 1.429 . S
C595 C596 1.523 . S
C596 C577 1.368 . S
C596 C590 1.368 . S
C596 C595 1.523 . S
C597 C581 1.429 . S
C597 C593 1.429 . S
C597 C598 1.523 . S
C598 C582 1.368 . S
C598 C594 1.368 . S
C598 C597 1.523 . S
H599 C574 0.950 . S
H600 C576 0.950 . S
H601 C577 0.949 . S
H602 C579 0.950 . S
H603 C581 0.950 . S
C604 C605 1.349 . S
C604 C606 1.327 . S
C604 H629 0.950 . S
C605 C604 1.349 . S
C605 C621 1.349 . S
C606 C604 1.327 . S
C606 C625 1.429 . S
C606 H630 0.950 . S
C607 C624 1.574 . S
C607 C626 1.368 . S
C607 H631 0.949 . S
H608 C612 0.949 . S
C609 C610 1.349 . S
C609 C611 1.327 . S
C609 H632 0.950 . S
C610 C609 1.349 . S
C610 C622 1.349 . S
C611 C609 1.327 . S
C611 C627 1.429 . S
C611 H633 0.950 . S
C612 H608 0.949 . S
C612 C620 1.574 . S
C612 C628 1.368 . S
H613 C621 0.950 . S
H614 C619 0.950 . S
H615 C620 0.949 . S
H616 C622 0.950 . S
H617 C623 0.950 . S
H618 C624 0.949 . S
C619 H614 0.950 . S
C619 C621 1.327 . S
C619 C625 1.429 . S
C620 C612 1.574 . S
C620 H615 0.949 . S
C620 C626 1.368 . S
C621 C605 1.349 . S
C621 H613 0.950 . S
C621 C619 1.327 . S
C622 C610 1.349 . S
C622 H616 0.950 . S
C622 C623 1.327 . S
C623 H617 0.950 . S
C623 C622 1.327 . S
C623 C627 1.429 . S
C624 C607 1.574 . S
C624 H618 0.949 . S
C624 C628 1.368 . S
C625 C606 1.429 . S
C625 C619 1.429 . S
C625 C626 1.523 . S
C626 C607 1.368 . S
C626 C620 1.368 . S
C626 C625 1.523 . S
C627 C611 1.429 . S
C627 C623 1.429 . S
C627 C628 1.523 . S
C628 C612 1.368 . S
C628 C624 1.368 . S
C628 C627 1.523 . S
H629 C604 0.950 . S
H630 C606 0.950 . S
H631 C607 0.949 . S
H632 C609 0.950 . S
H633 C611 0.950 . S
C634 C635 1.349 . S
C634 C636 1.327 . S
C634 H659 0.950 . S
C635 C634 1.349 . S
C635 C651 1.349 . S
C636 C634 1.327 . S
C636 C655 1.429 . S
C636 H660 0.950 . S
C637 C654 1.574 . S
C637 C656 1.368 . S
C637 H661 0.949 . S
H638 C642 0.949 . S
C639 C640 1.349 . S
C639 C641 1.327 . S
C639 H662 0.950 . S
C640 C639 1.349 . S
C640 C652 1.349 . S
C641 C639 1.327 . S
C641 C657 1.429 . S
C641 H663 0.950 . S
C642 H638 0.949 . S
C642 C650 1.574 . S
C642 C658 1.368 . S
H643 C651 0.950 . S
H644 C649 0.950 . S
H645 C650 0.949 . S
H646 C652 0.950 . S
H647 C653 0.950 . S
H648 C654 0.949 . S
C649 H644 0.950 . S
C649 C651 1.327 . S
C649 C655 1.429 . S
C650 C642 1.574 . S
C650 H645 0.949 . S
C650 C656 1.368 . S
C651 C635 1.349 . S
C651 H643 0.950 . S
C651 C649 1.327 . S
C652 C640 1.349 . S
C652 H646 0.950 . S
C652 C653 1.327 . S
C653 H647 0.950 . S
C653 C652 1.327 . S
C653 C657 1.429 . S
C654 C637 1.574 . S
C654 H648 0.949 . S
C654 C658 1.368 . S
C655 C636 1.429 . S
C655 C649 1.429 . S
C655 C656 1.523 . S
C656 C637 1.368 . S
C656 C650 1.368 . S
C656 C655 1.523 . S
C657 C641 1.429 . S
C657 C653 1.429 . S
C657 C658 1.523 . S
C658 C642 1.368 . S
C658 C654 1.368 . S
C658 C657 1.523 . S
H659 C634 0.950 . S
H660 C636 0.950 . S
H661 C637 0.949 . S
H662 C639 0.950 . S
H663 C641 0.950 . S
C664 C665 1.349 . S
C664 C666 1.327 . S
C664 H689 0.950 . S
C665 C664 1.349 . S
C665 C681 1.349 . S
C666 C664 1.327 . S
C666 C685 1.429 . S
C666 H690 0.950 . S
C667 C684 1.489 1_554 S
C667 C686 1.412 . S
C667 H691 0.996 . S
H668 C672 0.949 . S
C669 C670 1.349 . S
C669 C671 1.327 . S
C669 H692 0.950 . S
C670 C669 1.349 . S
C670 C682 1.349 . S
C671 C669 1.327 . S
C671 C687 1.429 . S
C671 H693 0.950 . S
C672 H668 0.949 . S
C672 C680 1.574 1_556 S
C672 C688 1.368 . S
H673 C681 0.950 . S
H674 C679 0.950 . S
H675 C680 0.949 . S
H676 C682 0.950 . S
H677 C683 0.950 . S
H678 C684 0.949 . S
C679 H674 0.950 . S
C679 C681 1.327 . S
C679 C685 1.429 . S
C680 C672 1.574 1_554 S
C680 H675 0.949 . S
C680 C686 1.368 . S
C681 C665 1.349 . S
C681 H673 0.950 . S
C681 C679 1.327 . S
C682 C670 1.349 . S
C682 H676 0.950 . S
C682 C683 1.327 . S
C683 H677 0.950 . S
C683 C682 1.327 . S
C683 C687 1.429 . S
C684 C667 1.489 1_556 S
C684 H678 0.949 . S
C684 C688 1.368 . S
C685 C666 1.429 . S
C685 C679 1.429 . S
C685 C686 1.523 . S
C686 C667 1.412 . S
C686 C680 1.368 . S
C686 C685 1.523 . S
C687 C671 1.429 . S
C687 C683 1.429 . S
C687 C688 1.523 . S
C688 C672 1.368 . S
C688 C684 1.368 . S
C688 C687 1.523 . S
H689 C664 0.950 . S
H690 C666 0.950 . S
H691 C667 0.996 . S
H692 C669 0.950 . S
H693 C671 0.950 . S
C694 C695 1.349 . S
C694 C696 1.327 . S
C694 H719 0.950 . S
C695 C694 1.349 . S
C695 C711 1.349 . S
C696 C694 1.327 . S
C696 C715 1.429 . S
C696 H720 0.950 . S
C697 C714 1.567 . S
C697 C716 1.372 1_554 S
C697 H721 0.952 1_554 S
H698 C702 0.949 . S
C699 C700 1.349 . S
C699 C701 1.327 . S
C699 H722 0.950 . S
C700 C699 1.349 . S
C700 C712 1.349 . S
C701 C699 1.327 . S
C701 C717 1.429 . S
C701 H723 0.950 . S
C702 H698 0.949 . S
C702 C710 1.574 1_554 S
C702 C718 1.368 . S
H703 C711 0.950 . S
H704 C709 0.950 . S
H705 C710 0.949 . S
H706 C712 0.950 . S
H707 C713 0.950 . S
H708 C714 0.949 . S
C709 H704 0.950 . S
C709 C711 1.327 . S
C709 C715 1.429 . S
C710 C702 1.574 1_556 S
C710 H705 0.949 . S
C710 C716 1.368 . S
C711 C695 1.349 . S
C711 H703 0.950 . S
C711 C709 1.327 . S
C712 C700 1.349 . S
C712 H706 0.950 . S
C712 C713 1.327 . S
C713 H707 0.950 . S
C713 C712 1.327 . S
C713 C717 1.429 . S
C714 C697 1.567 . S
C714 H708 0.949 . S
C714 C718 1.368 . S
C715 C696 1.429 . S
C715 C709 1.429 . S
C715 C716 1.523 . S
C716 C697 1.372 1_556 S
C716 C710 1.368 . S
C716 C715 1.523 . S
C717 C701 1.429 . S
C717 C713 1.429 . S
C717 C718 1.523 . S
C718 C702 1.368 . S
C718 C714 1.368 . S
C718 C717 1.523 . S
H719 C694 0.950 . S
H720 C696 0.950 . S
H721 C697 0.952 1_556 S
H722 C699 0.950 . S
H723 C701 0.950 . S
C724 C725 1.349 . S
C724 C726 1.327 . S
C724 H749 0.950 . S
C725 C724 1.349 . S
C725 C741 1.349 . S
C726 C724 1.327 . S
C726 C745 1.429 . S
C726 H750 0.950 . S
C727 C744 1.574 1_556 S
C727 C746 1.368 . S
C727 H751 0.949 . S
H728 C732 0.949 . S
C729 C730 1.349 . S
C729 C731 1.327 . S
C729 H752 0.950 . S
C730 C729 1.349 . S
C730 C742 1.349 . S
C731 C729 1.327 . S
C731 C747 1.429 . S
C731 H753 0.950 . S
C732 H728 0.949 . S
C732 C740 1.574 . S
C732 C748 1.368 1_556 S
H733 C741 0.950 . S
H734 C739 0.950 . S
H735 C740 0.949 . S
H736 C742 0.950 . S
H737 C743 0.950 . S
H738 C744 0.949 . S
C739 H734 0.950 . S
C739 C741 1.327 . S
C739 C745 1.429 . S
C740 C732 1.574 . S
C740 H735 0.949 . S
C740 C746 1.368 . S
C741 C725 1.349 . S
C741 H733 0.950 . S
C741 C739 1.327 . S
C742 C730 1.349 . S
C742 H736 0.950 . S
C742 C743 1.327 . S
C743 H737 0.950 . S
C743 C742 1.327 . S
C743 C747 1.429 . S
C744 C727 1.574 1_554 S
C744 H738 0.949 . S
C744 C748 1.368 . S
C745 C726 1.429 . S
C745 C739 1.429 . S
C745 C746 1.523 . S
C746 C727 1.368 . S
C746 C740 1.368 . S
C746 C745 1.523 . S
C747 C731 1.429 . S
C747 C743 1.429 . S
C747 C748 1.523 . S
C748 C732 1.368 1_554 S
C748 C744 1.368 . S
C748 C747 1.523 . S
H749 C724 0.950 . S
H750 C726 0.950 . S
H751 C727 0.949 . S
H752 C729 0.950 . S
H753 C731 0.950 . S
C754 C755 1.349 . S
C754 C756 1.327 . S
C754 H779 0.950 . S
C755 C754 1.349 . S
C755 C771 1.349 . S
C756 C754 1.327 . S
C756 C775 1.429 . S
C756 H780 0.950 . S
C757 C774 1.574 . S
C757 C776 1.368 . S
C757 H781 0.949 . S
H758 C762 0.949 . S
C759 C760 1.349 . S
C759 C761 1.327 . S
C759 H782 0.950 . S
C760 C759 1.349 . S
C760 C772 1.349 . S
C761 C759 1.327 . S
C761 C777 1.429 . S
C761 H783 0.950 . S
C762 H758 0.949 . S
C762 C770 1.574 1_556 S
C762 C778 1.368 . S
H763 C771 0.950 . S
H764 C769 0.950 . S
H765 C770 0.949 . S
H766 C772 0.950 . S
H767 C773 0.950 . S
H768 C774 0.949 . S
C769 H764 0.950 . S
C769 C771 1.327 . S
C769 C775 1.429 . S
C770 C762 1.574 1_554 S
C770 H765 0.949 . S
C770 C776 1.368 . S
C771 C755 1.349 . S
C771 H763 0.950 . S
C771 C769 1.327 . S
C772 C760 1.349 . S
C772 H766 0.950 . S
C772 C773 1.327 . S
C773 H767 0.950 . S
C773 C772 1.327 . S
C773 C777 1.429 . S
C774 C757 1.574 . S
C774 H768 0.949 . S
C774 C778 1.368 1_554 S
C775 C756 1.429 . S
C775 C769 1.429 . S
C775 C776 1.523 . S
C776 C757 1.368 . S
C776 C770 1.368 . S
C776 C775 1.523 . S
C777 C761 1.429 . S
C777 C773 1.429 . S
C777 C778 1.523 . S
C778 C762 1.368 . S
C778 C774 1.368 1_556 S
C778 C777 1.523 . S
H779 C754 0.950 . S
H780 C756 0.950 . S
H781 C757 0.949 . S
H782 C759 0.950 . S
H783 C761 0.950 . S
C784 C785 1.349 . S
C784 C786 1.327 . S
C784 H809 0.950 . S
C785 C784 1.349 . S
C785 C801 1.349 . S
C786 C784 1.327 . S
C786 C805 1.429 . S
C786 H810 0.950 . S
C787 C804 1.574 . S
C787 C806 1.368 . S
C787 H811 0.949 . S
H788 C792 0.949 . S
C789 C790 1.349 . S
C789 C791 1.327 . S
C789 H812 0.950 . S
C790 C789 1.349 . S
C790 C802 1.349 . S
C791 C789 1.327 . S
C791 C807 1.429 . S
C791 H813 0.950 . S
C792 H788 0.949 . S
C792 C800 1.574 . S
C792 C808 1.368 . S
H793 C801 0.950 . S
H794 C799 0.950 . S
H795 C800 0.949 . S
H796 C802 0.950 . S
H797 C803 0.950 . S
H798 C804 0.949 . S
C799 H794 0.950 . S
C799 C801 1.327 . S
C799 C805 1.429 . S
C800 C792 1.574 . S
C800 H795 0.949 . S
C800 C806 1.368 . S
C801 C785 1.349 . S
C801 H793 0.950 . S
C801 C799 1.327 . S
C802 C790 1.349 . S
C802 H796 0.950 . S
C802 C803 1.327 . S
C803 H797 0.950 . S
C803 C802 1.327 . S
C803 C807 1.429 . S
C804 C787 1.574 . S
C804 H798 0.949 . S
C804 C808 1.368 . S
C805 C786 1.429 . S
C805 C799 1.429 . S
C805 C806 1.523 . S
C806 C787 1.368 . S
C806 C800 1.368 . S
C806 C805 1.523 . S
C807 C791 1.429 . S
C807 C803 1.429 . S
C807 C808 1.523 . S
C808 C792 1.368 . S
C808 C804 1.368 . S
C808 C807 1.523 . S
H809 C784 0.950 . S
H810 C786 0.950 . S
H811 C787 0.949 . S
H812 C789 0.950 . S
H813 C791 0.950 . S
C814 C815 1.349 . S
C814 C816 1.327 . S
C814 H839 0.950 . S
C815 C814 1.349 . S
C815 C831 1.349 . S
C816 C814 1.327 . S
C816 C835 1.429 . S
C816 H840 0.950 . S
C817 C834 1.574 . S
C817 C836 1.368 . S
C817 H841 0.949 . S
H818 C822 0.949 . S
C819 C820 1.349 . S
C819 C821 1.327 . S
C819 H842 0.950 . S
C820 C819 1.349 . S
C820 C832 1.349 . S
C821 C819 1.327 . S
C821 C837 1.429 . S
C821 H843 0.950 . S
C822 H818 0.949 . S
C822 C830 1.574 . S
C822 C838 1.368 . S
H823 C831 0.950 . S
H824 C829 0.950 . S
H825 C830 0.949 . S
H826 C832 0.950 . S
H827 C833 0.950 . S
H828 C834 0.949 . S
C829 H824 0.950 . S
C829 C831 1.327 . S
C829 C835 1.429 . S
C830 C822 1.574 . S
C830 H825 0.949 . S
C830 C836 1.368 . S
C831 C815 1.349 . S
C831 H823 0.950 . S
C831 C829 1.327 . S
C832 C820 1.349 . S
C832 H826 0.950 . S
C832 C833 1.327 . S
C833 H827 0.950 . S
C833 C832 1.327 . S
C833 C837 1.429 . S
C834 C817 1.574 . S
C834 H828 0.949 . S
C834 C838 1.368 . S
C835 C816 1.429 . S
C835 C829 1.429 . S
C835 C836 1.523 . S
C836 C817 1.368 . S
C836 C830 1.368 . S
C836 C835 1.523 . S
C837 C821 1.429 . S
C837 C833 1.429 . S
C837 C838 1.523 . S
C838 C822 1.368 . S
C838 C834 1.368 . S
C838 C837 1.523 . S
H839 C814 0.950 . S
H840 C816 0.950 . S
H841 C817 0.949 . S
H842 C819 0.950 . S
H843 C821 0.950 . S
C844 C845 1.349 . S
C844 C846 1.327 . S
C844 H869 0.950 . S
C845 C844 1.349 . S
C845 C861 1.349 . S
C846 C844 1.327 . S
C846 C865 1.429 . S
C846 H870 0.950 . S
C847 C864 1.574 . S
C847 C866 1.368 . S
C847 H871 0.949 . S
H848 C852 0.949 . S
C849 C850 1.349 . S
C849 C851 1.327 . S
C849 H872 0.950 . S
C850 C849 1.349 . S
C850 C862 1.349 . S
C851 C849 1.327 . S
C851 C867 1.429 . S
C851 H873 0.950 . S
C852 H848 0.949 . S
C852 C860 1.574 . S
C852 C868 1.368 . S
H853 C861 0.950 . S
H854 C859 0.950 . S
H855 C860 0.949 . S
H856 C862 0.950 . S
H857 C863 0.950 . S
H858 C864 0.949 . S
C859 H854 0.950 . S
C859 C861 1.327 . S
C859 C865 1.429 . S
C860 C852 1.574 . S
C860 H855 0.949 . S
C860 C866 1.368 . S
C861 C845 1.349 . S
C861 H853 0.950 . S
C861 C859 1.327 . S
C862 C850 1.349 . S
C862 H856 0.950 . S
C862 C863 1.327 . S
C863 H857 0.950 . S
C863 C862 1.327 . S
C863 C867 1.429 . S
C864 C847 1.574 . S
C864 H858 0.949 . S
C864 C868 1.368 . S
C865 C846 1.429 . S
C865 C859 1.429 . S
C865 C866 1.523 . S
C866 C847 1.368 . S
C866 C860 1.368 . S
C866 C865 1.523 . S
C867 C851 1.429 . S
C867 C863 1.429 . S
C867 C868 1.523 . S
C868 C852 1.368 . S
C868 C864 1.368 . S
C868 C867 1.523 . S
H869 C844 0.950 . S
H870 C846 0.950 . S
H871 C847 0.949 . S
H872 C849 0.950 . S
H873 C851 0.950 . S
C874 C875 1.349 . S
C874 C876 1.327 . S
C874 H899 0.950 . S
C875 C874 1.349 . S
C875 C891 1.349 . S
C876 C874 1.327 . S
C876 C895 1.429 . S
C876 H900 0.950 . S
C877 C894 1.574 . S
C877 C896 1.368 . S
C877 H901 0.949 . S
H878 C882 0.949 . S
C879 C880 1.349 . S
C879 C881 1.327 . S
C879 H902 0.950 . S
C880 C879 1.349 . S
C880 C892 1.349 . S
C881 C879 1.327 . S
C881 C897 1.429 . S
C881 H903 0.950 . S
C882 H878 0.949 . S
C882 C890 1.574 . S
C882 C898 1.368 . S
H883 C891 0.950 . S
H884 C889 0.950 . S
H885 C890 0.949 . S
H886 C892 0.950 . S
H887 C893 0.950 . S
H888 C894 0.949 . S
C889 H884 0.950 . S
C889 C891 1.327 . S
C889 C895 1.429 . S
C890 C882 1.574 . S
C890 H885 0.949 . S
C890 C896 1.368 . S
C891 C875 1.349 . S
C891 H883 0.950 . S
C891 C889 1.327 . S
C892 C880 1.349 . S
C892 H886 0.950 . S
C892 C893 1.327 . S
C893 H887 0.950 . S
C893 C892 1.327 . S
C893 C897 1.429 . S
C894 C877 1.574 . S
C894 H888 0.949 . S
C894 C898 1.368 . S
C895 C876 1.429 . S
C895 C889 1.429 . S
C895 C896 1.523 . S
C896 C877 1.368 . S
C896 C890 1.368 . S
C896 C895 1.523 . S
C897 C881 1.429 . S
C897 C893 1.429 . S
C897 C898 1.523 . S
C898 C882 1.368 . S
C898 C894 1.368 . S
C898 C897 1.523 . S
H899 C874 0.950 . S
H900 C876 0.950 . S
H901 C877 0.949 . S
H902 C879 0.950 . S
H903 C881 0.950 . S
C904 C905 1.349 . S
C904 C906 1.327 . S
C904 H929 0.950 . S
C905 C904 1.349 . S
C905 C921 1.349 . S
C906 C904 1.327 . S
C906 C925 1.429 . S
C906 H930 0.950 . S
C907 C924 1.574 . S
C907 C926 1.368 . S
C907 H931 0.949 . S
H908 C912 0.949 . S
C909 C910 1.349 . S
C909 C911 1.327 . S
C909 H932 0.950 . S
C910 C909 1.349 . S
C910 C922 1.349 . S
C911 C909 1.327 . S
C911 C927 1.429 . S
C911 H933 0.950 . S
C912 H908 0.949 . S
C912 C920 1.574 . S
C912 C928 1.368 . S
H913 C921 0.950 . S
H914 C919 0.950 . S
H915 C920 0.949 . S
H916 C922 0.950 . S
H917 C923 0.950 . S
H918 C924 0.949 . S
C919 H914 0.950 . S
C919 C921 1.327 . S
C919 C925 1.429 . S
C920 C912 1.574 . S
C920 H915 0.949 . S
C920 C926 1.368 . S
C921 C905 1.349 . S
C921 H913 0.950 . S
C921 C919 1.327 . S
C922 C910 1.349 . S
C922 H916 0.950 . S
C922 C923 1.327 . S
C923 H917 0.950 . S
C923 C922 1.327 . S
C923 C927 1.429 . S
C924 C907 1.574 . S
C924 H918 0.949 . S
C924 C928 1.368 . S
C925 C906 1.429 . S
C925 C919 1.429 . S
C925 C926 1.523 . S
C926 C907 1.368 . S
C926 C920 1.368 . S
C926 C925 1.523 . S
C927 C911 1.429 . S
C927 C923 1.429 . S
C927 C928 1.523 . S
C928 C912 1.368 . S
C928 C924 1.368 . S
C928 C927 1.523 . S
H929 C904 0.950 . S
H930 C906 0.950 . S
H931 C907 0.949 . S
H932 C909 0.950 . S
H933 C911 0.950 . S
C934 C935 1.349 . S
C934 C936 1.327 . S
C934 H959 0.950 . S
C935 C934 1.349 . S
C935 C951 1.349 . S
C936 C934 1.327 . S
C936 C955 1.429 . S
C936 H960 0.950 . S
C937 C954 1.574 . S
C937 C956 1.368 . S
C937 H961 0.949 . S
H938 C942 0.949 . S
C939 C940 1.349 . S
C939 C941 1.327 . S
C939 H962 0.950 . S
C940 C939 1.349 . S
C940 C952 1.349 . S
C941 C939 1.327 . S
C941 C957 1.429 . S
C941 H963 0.950 . S
C942 H938 0.949 . S
C942 C950 1.574 . S
C942 C958 1.368 . S
H943 C951 0.950 . S
H944 C949 0.950 . S
H945 C950 0.949 . S
H946 C952 0.950 . S
H947 C953 0.950 . S
H948 C954 0.949 . S
C949 H944 0.950 . S
C949 C951 1.327 . S
C949 C955 1.429 . S
C950 C942 1.574 . S
C950 H945 0.949 . S
C950 C956 1.368 . S
C951 C935 1.349 . S
C951 H943 0.950 . S
C951 C949 1.327 . S
C952 C940 1.349 . S
C952 H946 0.950 . S
C952 C953 1.327 . S
C953 H947 0.950 . S
C953 C952 1.327 . S
C953 C957 1.429 . S
C954 C937 1.574 . S
C954 H948 0.949 . S
C954 C958 1.368 . S
C955 C936 1.429 . S
C955 C949 1.429 . S
C955 C956 1.523 . S
C956 C937 1.368 . S
C956 C950 1.368 . S
C956 C955 1.523 . S
C957 C941 1.429 . S
C957 C953 1.429 . S
C957 C958 1.523 . S
C958 C942 1.368 . S
C958 C954 1.368 . S
C958 C957 1.523 . S
H959 C934 0.950 . S
H960 C936 0.950 . S
H961 C937 0.949 . S
H962 C939 0.950 . S
H963 C941 0.950 . S
C964 C965 1.349 . S
C964 C966 1.327 . S
C964 H989 0.950 . S
C965 C964 1.349 . S
C965 C981 1.349 . S
C966 C964 1.327 . S
C966 C985 1.429 . S
C966 H990 0.950 . S
C967 C984 1.574 . S
C967 C986 1.368 . S
C967 H991 0.949 . S
H968 C972 0.949 . S
C969 C970 1.349 . S
C969 C971 1.327 . S
C969 H992 0.950 . S
C970 C969 1.349 . S
C970 C982 1.349 . S
C971 C969 1.327 . S
C971 C987 1.429 . S
C971 H993 0.950 . S
C972 H968 0.949 . S
C972 C980 1.574 . S
C972 C988 1.368 . S
H973 C981 0.950 . S
H974 C979 0.950 . S
H975 C980 0.949 . S
H976 C982 0.950 . S
H977 C983 0.950 . S
H978 C984 0.949 . S
C979 H974 0.950 . S
C979 C981 1.327 . S
C979 C985 1.429 . S
C980 C972 1.574 . S
C980 H975 0.949 . S
C980 C986 1.368 . S
C981 C965 1.349 . S
C981 H973 0.950 . S
C981 C979 1.327 . S
C982 C970 1.349 . S
C982 H976 0.950 . S
C982 C983 1.327 . S
C983 H977 0.950 . S
C983 C982 1.327 . S
C983 C987 1.429 . S
C984 C967 1.574 . S
C984 H978 0.949 . S
C984 C988 1.368 . S
C985 C966 1.429 . S
C985 C979 1.429 . S
C985 C986 1.523 . S
C986 C967 1.368 . S
C986 C980 1.368 . S
C986 C985 1.523 . S
C987 C971 1.429 . S
C987 C983 1.429 . S
C987 C988 1.523 . S
C988 C972 1.368 . S
C988 C984 1.368 . S
C988 C987 1.523 . S
H989 C964 0.950 . S
H990 C966 0.950 . S
H991 C967 0.949 . S
H992 C969 0.950 . S
H993 C971 0.950 . S
C994 C995 1.349 . S
C994 C996 1.327 . S
C994 H1019 0.950 . S
C995 C994 1.349 . S
C995 C1011 1.349 . S
C996 C994 1.327 . S
C996 C1015 1.429 . S
C996 H1020 0.950 . S
C997 C1014 1.574 . S
C997 C1016 1.368 . S
C997 H1021 0.949 . S
H998 C1002 0.949 . S
C999 C1000 1.349 . S
C999 C1001 1.327 . S
C999 H1022 0.950 . S
C1000 C999 1.349 . S
C1000 C1012 1.349 . S
C1001 C999 1.327 . S
C1001 C1017 1.429 . S
C1001 H1023 0.950 . S
C1002 H998 0.949 . S
C1002 C1010 1.574 . S
C1002 C1018 1.368 . S
H1003 C1011 0.950 . S
H1004 C1009 0.950 . S
H1005 C1010 0.949 . S
H1006 C1012 0.950 . S
H1007 C1013 0.950 . S
H1008 C1014 0.949 . S
C1009 H1004 0.950 . S
C1009 C1011 1.327 . S
C1009 C1015 1.429 . S
C1010 C1002 1.574 . S
C1010 H1005 0.949 . S
C1010 C1016 1.368 . S
C1011 C995 1.349 . S
C1011 H1003 0.950 . S
C1011 C1009 1.327 . S
C1012 C1000 1.349 . S
C1012 H1006 0.950 . S
C1012 C1013 1.327 . S
C1013 H1007 0.950 . S
C1013 C1012 1.327 . S
C1013 C1017 1.429 . S
C1014 C997 1.574 . S
C1014 H1008 0.949 . S
C1014 C1018 1.368 . S
C1015 C996 1.429 . S
C1015 C1009 1.429 . S
C1015 C1016 1.523 . S
C1016 C997 1.368 . S
C1016 C1010 1.368 . S
C1016 C1015 1.523 . S
C1017 C1001 1.429 . S
C1017 C1013 1.429 . S
C1017 C1018 1.523 . S
C1018 C1002 1.368 . S
C1018 C1014 1.368 . S
C1018 C1017 1.523 . S
H1019 C994 0.950 . S
H1020 C996 0.950 . S
H1021 C997 0.949 . S
H1022 C999 0.950 . S
H1023 C1001 0.950 . S
C1024 C1025 1.349 . S
C1024 C1026 1.327 . S
C1024 H1049 0.950 . S
C1025 C1024 1.349 . S
C1025 C1041 1.349 . S
C1026 C1024 1.327 . S
C1026 C1045 1.429 . S
C1026 H1050 0.950 1_455 S
C1027 C1044 1.574 1_545 S
C1027 C1046 1.368 . S
C1027 H1051 0.949 . S
H1028 C1032 0.949 . S
C1029 C1030 1.349 . S
C1029 C1031 1.327 . S
C1029 H1052 0.950 . S
C1030 C1029 1.349 . S
C1030 C1042 1.349 . S
C1031 C1029 1.327 . S
C1031 C1047 1.429 . S
C1031 H1053 0.950 1_655 S
C1032 H1028 0.949 . S
C1032 C1040 1.574 1_565 S
C1032 C1048 1.368 . S
H1033 C1041 0.950 . S
H1034 C1039 0.950 . S
H1035 C1040 0.949 . S
H1036 C1042 0.950 . S
H1037 C1043 0.950 . S
H1038 C1044 0.949 . S
C1039 H1034 0.950 . S
C1039 C1041 1.327 . S
C1039 C1045 1.429 . S
C1040 C1032 1.574 1_545 S
C1040 H1035 0.949 . S
C1040 C1046 1.368 1_655 S
C1041 C1025 1.349 . S
C1041 H1033 0.950 . S
C1041 C1039 1.327 . S
C1042 C1030 1.349 . S
C1042 H1036 0.950 . S
C1042 C1043 1.327 . S
C1043 H1037 0.950 . S
C1043 C1042 1.327 . S
C1043 C1047 1.429 . S
C1044 C1027 1.574 1_565 S
C1044 H1038 0.949 . S
C1044 C1048 1.368 1_455 S
C1045 C1026 1.429 . S
C1045 C1039 1.429 . S
C1045 C1046 1.523 . S
C1046 C1027 1.368 . S
C1046 C1040 1.368 1_455 S
C1046 C1045 1.523 . S
C1047 C1031 1.429 . S
C1047 C1043 1.429 . S
C1047 C1048 1.523 . S
C1048 C1032 1.368 . S
C1048 C1044 1.368 1_655 S
C1048 C1047 1.523 . S
H1049 C1024 0.950 . S
H1050 C1026 0.950 1_655 S
H1051 C1027 0.949 . S
H1052 C1029 0.950 . S
H1053 C1031 0.950 1_455 S
C1054 C1055 1.349 . S
C1054 C1056 1.327 . S
C1054 H1079 0.950 . S
C1055 C1054 1.349 . S
C1055 C1071 1.349 . S
C1056 C1054 1.327 . S
C1056 C1075 1.429 . S
C1056 H1080 0.950 . S
C1057 C1074 1.574 1_455 S
C1057 C1076 1.368 1_545 S
C1057 H1081 0.949 . S
H1058 C1062 0.949 . S
C1059 C1060 1.349 . S
C1059 C1061 1.327 . S
C1059 H1082 0.950 . S
C1060 C1059 1.349 . S
C1060 C1072 1.349 . S
C1061 C1059 1.327 . S
C1061 C1077 1.429 . S
C1061 H1083 0.950 . S
C1062 H1058 0.949 . S
C1062 C1070 1.574 1_655 S
C1062 C1078 1.368 1_565 S
H1063 C1071 0.950 . S
H1064 C1069 0.950 1_545 S
H1065 C1070 0.949 . S
H1066 C1072 0.950 . S
H1067 C1073 0.950 1_565 S
H1068 C1074 0.949 . S
C1069 H1064 0.950 1_565 S
C1069 C1071 1.327 . S
C1069 C1075 1.429 . S
C1070 C1062 1.574 1_455 S
C1070 H1065 0.949 . S
C1070 C1076 1.368 . S
C1071 C1055 1.349 . S
C1071 H1063 0.950 . S
C1071 C1069 1.327 . S
C1072 C1060 1.349 . S
C1072 H1066 0.950 . S
C1072 C1073 1.327 . S
C1073 H1067 0.950 1_545 S
C1073 C1072 1.327 . S
C1073 C1077 1.429 . S
C1074 C1057 1.574 1_655 S
C1074 H1068 0.949 . S
C1074 C1078 1.368 . S
C1075 C1056 1.429 . S
C1075 C1069 1.429 . S
C1075 C1076 1.523 . S
C1076 C1057 1.368 1_565 S
C1076 C1070 1.368 . S
C1076 C1075 1.523 . S
C1077 C1061 1.429 . S
C1077 C1073 1.429 . S
C1077 C1078 1.523 . S
C1078 C1062 1.368 1_545 S
C1078 C1074 1.368 . S
C1078 C1077 1.523 . S
H1079 C1054 0.950 . S
H1080 C1056 0.950 . S
H1081 C1057 0.949 . S
H1082 C1059 0.950 . S
H1083 C1061 0.950 . S
C1084 C1085 1.349 . S
C1084 C1086 1.327 . S
C1084 H1109 0.950 . S
C1085 C1084 1.349 . S
C1085 C1101 1.349 . S
C1086 C1084 1.327 . S
C1086 C1105 1.429 . S
C1086 H1110 0.950 1_655 S
C1087 C1104 1.574 . S
C1087 C1106 1.368 . S
C1087 H1111 0.949 . S
H1088 C1092 0.949 . S
C1089 C1090 1.349 . S
C1089 C1091 1.327 . S
C1089 H1112 0.950 . S
C1090 C1089 1.349 . S
C1090 C1102 1.349 . S
C1091 C1089 1.327 . S
C1091 C1107 1.429 . S
C1091 H1113 0.950 1_455 S
C1092 H1088 0.949 . S
C1092 C1100 1.574 . S
C1092 C1108 1.368 . S
H1093 C1101 0.950 . S
H1094 C1099 0.950 . S
H1095 C1100 0.949 . S
H1096 C1102 0.950 . S
H1097 C1103 0.950 . S
H1098 C1104 0.949 . S
C1099 H1094 0.950 . S
C1099 C1101 1.327 . S
C1099 C1105 1.429 . S
C1100 C1092 1.574 . S
C1100 H1095 0.949 . S
C1100 C1106 1.368 1_455 S
C1101 C1085 1.349 . S
C1101 H1093 0.950 . S
C1101 C1099 1.327 . S
C1102 C1090 1.349 . S
C1102 H1096 0.950 . S
C1102 C1103 1.327 . S
C1103 H1097 0.950 . S
C1103 C1102 1.327 . S
C1103 C1107 1.429 . S
C1104 C1087 1.574 . S
C1104 H1098 0.949 . S
C1104 C1108 1.368 1_655 S
C1105 C1086 1.429 . S
C1105 C1099 1.429 . S
C1105 C1106 1.523 . S
C1106 C1087 1.368 . S
C1106 C1100 1.368 1_655 S
C1106 C1105 1.523 . S
C1107 C1091 1.429 . S
C1107 C1103 1.429 . S
C1107 C1108 1.523 . S
C1108 C1092 1.368 . S
C1108 C1104 1.368 1_455 S
C1108 C1107 1.523 . S
H1109 C1084 0.950 . S
H1110 C1086 0.950 1_455 S
H1111 C1087 0.949 . S
H1112 C1089 0.950 . S
H1113 C1091 0.950 1_655 S
C1114 C1115 1.349 . S
C1114 C1116 1.327 . S
C1114 H1139 0.950 . S
C1115 C1114 1.349 . S
C1115 C1131 1.349 . S
C1116 C1114 1.327 . S
C1116 C1135 1.429 . S
C1116 H1140 0.950 1_545 S
C1117 C1134 1.574 . S
C1117 C1136 1.368 . S
C1117 H1141 0.949 . S
H1118 C1122 0.949 . S
C1119 C1120 1.349 . S
C1119 C1121 1.327 . S
C1119 H1142 0.950 . S
C1120 C1119 1.349 . S
C1120 C1132 1.349 . S
C1121 C1119 1.327 . S
C1121 C1137 1.429 . S
C1121 H1143 0.950 1_565 S
C1122 H1118 0.949 . S
C1122 C1130 1.574 . S
C1122 C1138 1.368 . S
H1123 C1131 0.950 . S
H1124 C1129 0.950 . S
H1125 C1130 0.949 . S
H1126 C1132 0.950 . S
H1127 C1133 0.950 . S
H1128 C1134 0.949 . S
C1129 H1124 0.950 . S
C1129 C1131 1.327 . S
C1129 C1135 1.429 . S
C1130 C1122 1.574 . S
C1130 H1125 0.949 . S
C1130 C1136 1.368 1_565 S
C1131 C1115 1.349 . S
C1131 H1123 0.950 . S
C1131 C1129 1.327 . S
C1132 C1120 1.349 . S
C1132 H1126 0.950 . S
C1132 C1133 1.327 . S
C1133 H1127 0.950 . S
C1133 C1132 1.327 . S
C1133 C1137 1.429 . S
C1134 C1117 1.574 . S
C1134 H1128 0.949 . S
C1134 C1138 1.368 1_545 S
C1135 C1116 1.429 . S
C1135 C1129 1.429 . S
C1135 C1136 1.523 . S
C1136 C1117 1.368 . S
C1136 C1130 1.368 1_545 S
C1136 C1135 1.523 . S
C1137 C1121 1.429 . S
C1137 C1133 1.429 . S
C1137 C1138 1.523 . S
C1138 C1122 1.368 . S
C1138 C1134 1.368 1_565 S
C1138 C1137 1.523 . S
H1139 C1114 0.950 . S
H1140 C1116 0.950 1_565 S
H1141 C1117 0.949 . S
H1142 C1119 0.950 . S
H1143 C1121 0.950 1_545 S
C1144 C1145 1.349 . S
C1144 C1146 1.327 . S
C1144 H1169 0.950 . S
C1145 C1144 1.349 . S
C1145 C1161 1.349 . S
C1146 C1144 1.327 . S
C1146 C1165 1.429 . S
C1146 H1170 0.950 . S
C1147 C1164 1.574 . S
C1147 C1166 1.368 . S
C1147 H1171 0.949 . S
H1148 C1152 0.949 . S
C1149 C1150 1.349 . S
C1149 C1151 1.327 . S
C1149 H1172 0.950 . S
C1150 C1149 1.349 . S
C1150 C1162 1.349 . S
C1151 C1149 1.327 . S
C1151 C1167 1.429 . S
C1151 H1173 0.950 . S
C1152 H1148 0.949 . S
C1152 C1160 1.574 . S
C1152 C1168 1.368 . S
H1153 C1161 0.950 . S
H1154 C1159 0.950 . S
H1155 C1160 0.949 . S
H1156 C1162 0.950 . S
H1157 C1163 0.950 . S
H1158 C1164 0.949 . S
C1159 H1154 0.950 . S
C1159 C1161 1.327 . S
C1159 C1165 1.429 . S
C1160 C1152 1.574 . S
C1160 H1155 0.949 . S
C1160 C1166 1.368 . S
C1161 C1145 1.349 . S
C1161 H1153 0.950 . S
C1161 C1159 1.327 . S
C1162 C1150 1.349 . S
C1162 H1156 0.950 . S
C1162 C1163 1.327 . S
C1163 H1157 0.950 . S
C1163 C1162 1.327 . S
C1163 C1167 1.429 . S
C1164 C1147 1.574 . S
C1164 H1158 0.949 . S
C1164 C1168 1.368 . S
C1165 C1146 1.429 . S
C1165 C1159 1.429 . S
C1165 C1166 1.523 . S
C1166 C1147 1.368 . S
C1166 C1160 1.368 . S
C1166 C1165 1.523 . S
C1167 C1151 1.429 . S
C1167 C1163 1.429 . S
C1167 C1168 1.523 . S
C1168 C1152 1.368 . S
C1168 C1164 1.368 . S
C1168 C1167 1.523 . S
H1169 C1144 0.950 . S
H1170 C1146 0.950 . S
H1171 C1147 0.949 . S
H1172 C1149 0.950 . S
H1173 C1151 0.950 . S
C1174 C1175 1.349 . S
C1174 C1176 1.327 . S
C1174 H1199 0.950 . S
C1175 C1174 1.349 . S
C1175 C1191 1.349 . S
C1176 C1174 1.327 . S
C1176 C1195 1.429 . S
C1176 H1200 0.950 . S
C1177 C1194 1.574 . S
C1177 C1196 1.368 . S
C1177 H1201 0.949 . S
H1178 C1182 0.949 . S
C1179 C1180 1.349 . S
C1179 C1181 1.327 . S
C1179 H1202 0.950 . S
C1180 C1179 1.349 . S
C1180 C1192 1.349 . S
C1181 C1179 1.327 . S
C1181 C1197 1.429 . S
C1181 H1203 0.950 . S
C1182 H1178 0.949 . S
C1182 C1190 1.574 . S
C1182 C1198 1.368 . S
H1183 C1191 0.950 . S
H1184 C1189 0.950 . S
H1185 C1190 0.949 . S
H1186 C1192 0.950 . S
H1187 C1193 0.950 . S
H1188 C1194 0.949 . S
C1189 H1184 0.950 . S
C1189 C1191 1.327 . S
C1189 C1195 1.429 . S
C1190 C1182 1.574 . S
C1190 H1185 0.949 . S
C1190 C1196 1.368 . S
C1191 C1175 1.349 . S
C1191 H1183 0.950 . S
C1191 C1189 1.327 . S
C1192 C1180 1.349 . S
C1192 H1186 0.950 . S
C1192 C1193 1.327 . S
C1193 H1187 0.950 . S
C1193 C1192 1.327 . S
C1193 C1197 1.429 . S
C1194 C1177 1.574 . S
C1194 H1188 0.949 . S
C1194 C1198 1.368 . S
C1195 C1176 1.429 . S
C1195 C1189 1.429 . S
C1195 C1196 1.523 . S
C1196 C1177 1.368 . S
C1196 C1190 1.368 . S
C1196 C1195 1.523 . S
C1197 C1181 1.429 . S
C1197 C1193 1.429 . S
C1197 C1198 1.523 . S
C1198 C1182 1.368 . S
C1198 C1194 1.368 . S
C1198 C1197 1.523 . S
H1199 C1174 0.950 . S
H1200 C1176 0.950 . S
H1201 C1177 0.949 . S
H1202 C1179 0.950 . S
H1203 C1181 0.950 . S
C1204 C1205 1.349 . S
C1204 C1206 1.327 . S
C1204 H1229 0.950 . S
C1205 C1204 1.349 . S
C1205 C1221 1.349 . S
C1206 C1204 1.327 . S
C1206 C1225 1.429 . S
C1206 H1230 0.950 . S
C1207 C1224 1.574 1_565 S
C1207 C1226 1.368 . S
C1207 H1231 0.949 . S
H1208 C1212 0.949 . S
C1209 C1210 1.349 . S
C1209 C1211 1.327 . S
C1209 H1232 0.950 . S
C1210 C1209 1.349 . S
C1210 C1222 1.349 . S
C1211 C1209 1.327 . S
C1211 C1227 1.429 . S
C1211 H1233 0.950 . S
C1212 H1208 0.949 . S
C1212 C1220 1.574 1_545 S
C1212 C1228 1.368 . S
H1213 C1221 0.950 . S
H1214 C1219 0.950 . S
H1215 C1220 0.949 . S
H1216 C1222 0.950 . S
H1217 C1223 0.950 . S
H1218 C1224 0.949 . S
C1219 H1214 0.950 . S
C1219 C1221 1.327 . S
C1219 C1225 1.429 . S
C1220 C1212 1.574 1_565 S
C1220 H1215 0.949 . S
C1220 C1226 1.368 . S
C1221 C1205 1.349 . S
C1221 H1213 0.950 . S
C1221 C1219 1.327 . S
C1222 C1210 1.349 . S
C1222 H1216 0.950 . S
C1222 C1223 1.327 . S
C1223 H1217 0.950 . S
C1223 C1222 1.327 . S
C1223 C1227 1.429 . S
C1224 C1207 1.574 1_545 S
C1224 H1218 0.949 . S
C1224 C1228 1.368 . S
C1225 C1206 1.429 . S
C1225 C1219 1.429 . S
C1225 C1226 1.523 . S
C1226 C1207 1.368 . S
C1226 C1220 1.368 . S
C1226 C1225 1.523 . S
C1227 C1211 1.429 . S
C1227 C1223 1.429 . S
C1227 C1228 1.523 . S
C1228 C1212 1.368 . S
C1228 C1224 1.368 . S
C1228 C1227 1.523 . S
H1229 C1204 0.950 . S
H1230 C1206 0.950 . S
H1231 C1207 0.949 . S
H1232 C1209 0.950 . S
H1233 C1211 0.950 . S
C1234 C1235 1.349 . S
C1234 C1236 1.327 . S
C1234 H1259 0.950 . S
C1235 C1234 1.349 . S
C1235 C1251 1.349 . S
C1236 C1234 1.327 . S
C1236 C1255 1.429 . S
C1236 H1260 0.950 . S
C1237 C1254 1.574 1_455 S
C1237 C1256 1.368 . S
C1237 H1261 0.949 . S
H1238 C1242 0.949 . S
C1239 C1240 1.349 . S
C1239 C1241 1.327 . S
C1239 H1262 0.950 . S
C1240 C1239 1.349 . S
C1240 C1252 1.349 . S
C1241 C1239 1.327 . S
C1241 C1257 1.429 . S
C1241 H1263 0.950 . S
C1242 H1238 0.949 . S
C1242 C1250 1.574 1_655 S
C1242 C1258 1.368 . S
H1243 C1251 0.950 . S
H1244 C1249 0.950 . S
H1245 C1250 0.949 . S
H1246 C1252 0.950 . S
H1247 C1253 0.950 . S
H1248 C1254 0.949 . S
C1249 H1244 0.950 . S
C1249 C1251 1.327 . S
C1249 C1255 1.429 . S
C1250 C1242 1.574 1_455 S
C1250 H1245 0.949 . S
C1250 C1256 1.368 . S
C1251 C1235 1.349 . S
C1251 H1243 0.950 . S
C1251 C1249 1.327 . S
C1252 C1240 1.349 . S
C1252 H1246 0.950 . S
C1252 C1253 1.327 . S
C1253 H1247 0.950 . S
C1253 C1252 1.327 . S
C1253 C1257 1.429 . S
C1254 C1237 1.574 1_655 S
C1254 H1248 0.949 . S
C1254 C1258 1.368 . S
C1255 C1236 1.429 . S
C1255 C1249 1.429 . S
C1255 C1256 1.523 . S
C1256 C1237 1.368 . S
C1256 C1250 1.368 . S
C1256 C1255 1.523 . S
C1257 C1241 1.429 . S
C1257 C1253 1.429 . S
C1257 C1258 1.523 . S
C1258 C1242 1.368 . S
C1258 C1254 1.368 . S
C1258 C1257 1.523 . S
H1259 C1234 0.950 . S
H1260 C1236 0.950 . S
H1261 C1237 0.949 . S
H1262 C1239 0.950 . S
H1263 C1241 0.950 . S
C1264 C1265 1.349 . S
C1264 C1266 1.327 . S
C1264 H1289 0.950 . S
C1265 C1264 1.349 . S
C1265 C1281 1.349 . S
C1266 C1264 1.327 . S
C1266 C1285 1.429 . S
C1266 H1290 0.950 . S
C1267 C1284 1.574 . S
C1267 C1286 1.368 1_455 S
C1267 H1291 0.949 . S
H1268 C1272 0.949 . S
C1269 C1270 1.349 . S
C1269 C1271 1.327 . S
C1269 H1292 0.950 . S
C1270 C1269 1.349 . S
C1270 C1282 1.349 . S
C1271 C1269 1.327 . S
C1271 C1287 1.429 . S
C1271 H1293 0.950 . S
C1272 H1268 0.949 . S
C1272 C1280 1.574 . S
C1272 C1288 1.368 1_655 S
H1273 C1281 0.939 1_455 S
H1274 C1279 0.950 1_455 S
H1275 C1280 0.949 . S
H1276 C1282 0.939 1_655 S
H1277 C1283 0.950 1_655 S
H1278 C1284 0.949 . S
C1279 H1274 0.950 1_655 S
C1279 C1281 1.327 . S
C1279 C1285 1.429 . S
C1280 C1272 1.574 . S
C1280 H1275 0.949 . S
C1280 C1286 1.368 . S
C1281 C1265 1.349 . S
C1281 H1273 0.939 1_655 S
C1281 C1279 1.327 . S
C1282 C1270 1.349 . S
C1282 H1276 0.939 1_455 S
C1282 C1283 1.327 . S
C1283 H1277 0.950 1_455 S
C1283 C1282 1.327 . S
C1283 C1287 1.429 . S
C1284 C1267 1.574 . S
C1284 H1278 0.949 . S
C1284 C1288 1.368 . S
C1285 C1266 1.429 . S
C1285 C1279 1.429 . S
C1285 C1286 1.523 . S
C1286 C1267 1.368 1_655 S
C1286 C1280 1.368 . S
C1286 C1285 1.523 . S
C1287 C1271 1.429 . S
C1287 C1283 1.429 . S
C1287 C1288 1.523 . S
C1288 C1272 1.368 1_455 S
C1288 C1284 1.368 . S
C1288 C1287 1.523 . S
H1289 C1264 0.950 . S
H1290 C1266 0.950 . S
H1291 C1267 0.949 . S
H1292 C1269 0.950 . S
H1293 C1271 0.950 . S
C1294 C1295 1.349 . S
C1294 C1296 1.327 . S
C1294 H1319 0.939 1_565 S
C1295 C1294 1.349 . S
C1295 C1311 1.349 . S
C1296 C1294 1.327 . S
C1296 C1315 1.429 . S
C1296 H1320 0.950 1_565 S
C1297 C1314 1.574 . S
C1297 C1316 1.368 . S
C1297 H1321 0.949 . S
H1298 C1302 0.949 . S
C1299 C1300 1.349 . S
C1299 C1301 1.327 . S
C1299 H1322 0.939 1_545 S
C1300 C1299 1.349 . S
C1300 C1312 1.349 . S
C1301 C1299 1.327 . S
C1301 C1317 1.429 . S
C1301 H1323 0.950 1_545 S
C1302 H1298 0.949 . S
C1302 C1310 1.574 . S
C1302 C1318 1.368 . S
H1303 C1311 0.950 . S
H1304 C1309 0.950 . S
H1305 C1310 0.949 . S
H1306 C1312 0.950 . S
H1307 C1313 0.950 . S
H1308 C1314 0.949 . S
C1309 H1304 0.950 . S
C1309 C1311 1.327 . S
C1309 C1315 1.429 . S
C1310 C1302 1.574 . S
C1310 H1305 0.949 . S
C1310 C1316 1.368 1_545 S
C1311 C1295 1.349 . S
C1311 H1303 0.950 . S
C1311 C1309 1.327 . S
C1312 C1300 1.349 . S
C1312 H1306 0.950 . S
C1312 C1313 1.327 . S
C1313 H1307 0.950 . S
C1313 C1312 1.327 . S
C1313 C1317 1.429 . S
C1314 C1297 1.574 . S
C1314 H1308 0.949 . S
C1314 C1318 1.368 1_565 S
C1315 C1296 1.429 . S
C1315 C1309 1.429 . S
C1315 C1316 1.523 . S
C1316 C1297 1.368 . S
C1316 C1310 1.368 1_565 S
C1316 C1315 1.523 . S
C1317 C1301 1.429 . S
C1317 C1313 1.429 . S
C1317 C1318 1.523 . S
C1318 C1302 1.368 . S
C1318 C1314 1.368 1_545 S
C1318 C1317 1.523 . S
H1319 C1294 0.939 1_545 S
H1320 C1296 0.950 1_545 S
H1321 C1297 0.949 . S
H1322 C1299 0.939 1_565 S
H1323 C1301 0.950 1_565 S
C1324 C1325 1.349 . S
C1324 C1326 1.327 . S
C1324 H1349 0.939 1_455 S
C1325 C1324 1.349 . S
C1325 C1341 1.349 . S
C1326 C1324 1.327 . S
C1326 C1345 1.429 . S
C1326 H1350 0.950 1_455 S
C1327 C1344 1.574 1_545 S
C1327 C1346 1.368 . S
C1327 H1351 0.949 . S
H1328 C1332 0.949 . S
C1329 C1330 1.349 . S
C1329 C1331 1.327 . S
C1329 H1352 0.939 1_655 S
C1330 C1329 1.349 . S
C1330 C1342 1.349 . S
C1331 C1329 1.327 . S
C1331 C1347 1.429 . S
C1331 H1353 0.950 1_655 S
C1332 H1328 0.949 . S
C1332 C1340 1.574 1_565 S
C1332 C1348 1.368 . S
H1333 C1341 0.950 . S
H1334 C1339 0.950 . S
H1335 C1340 0.949 . S
H1336 C1342 0.950 . S
H1337 C1343 0.950 . S
H1338 C1344 0.949 . S
C1339 H1334 0.950 . S
C1339 C1341 1.327 . S
C1339 C1345 1.429 . S
C1340 C1332 1.574 1_545 S
C1340 H1335 0.949 . S
C1340 C1346 1.368 1_655 S
C1341 C1325 1.349 . S
C1341 H1333 0.950 . S
C1341 C1339 1.327 . S
C1342 C1330 1.349 . S
C1342 H1336 0.950 . S
C1342 C1343 1.327 . S
C1343 H1337 0.950 . S
C1343 C1342 1.327 . S
C1343 C1347 1.429 . S
C1344 C1327 1.574 1_565 S
C1344 H1338 0.949 . S
C1344 C1348 1.368 1_455 S
C1345 C1326 1.429 . S
C1345 C1339 1.429 . S
C1345 C1346 1.523 . S
C1346 C1327 1.368 . S
C1346 C1340 1.368 1_455 S
C1346 C1345 1.523 . S
C1347 C1331 1.429 . S
C1347 C1343 1.429 . S
C1347 C1348 1.523 . S
C1348 C1332 1.368 . S
C1348 C1344 1.368 1_655 S
C1348 C1347 1.523 . S
H1349 C1324 0.939 1_655 S
H1350 C1326 0.950 1_655 S
H1351 C1327 0.949 . S
H1352 C1329 0.939 1_455 S
H1353 C1331 0.950 1_455 S
C1354 C1355 1.349 . S
C1354 C1356 1.327 . S
C1354 H1379 0.950 . S
C1355 C1354 1.349 . S
C1355 C1371 1.349 . S
C1356 C1354 1.327 . S
C1356 C1375 1.429 . S
C1356 H1380 0.950 . S
C1357 C1374 1.574 1_655 S
C1357 C1376 1.368 1_565 S
C1357 H1381 0.949 . S
H1358 C1362 0.949 . S
C1359 C1360 1.349 . S
C1359 C1361 1.327 . S
C1359 H1382 0.950 . S
C1360 C1359 1.349 . S
C1360 C1372 1.349 . S
C1361 C1359 1.327 . S
C1361 C1377 1.429 . S
C1361 H1383 0.950 . S
C1362 H1358 0.949 . S
C1362 C1370 1.574 1_455 S
C1362 C1378 1.368 1_545 S
H1363 C1371 0.939 1_565 S
H1364 C1369 0.950 1_565 S
H1365 C1370 0.949 . S
H1366 C1372 0.939 1_545 S
H1367 C1373 0.950 1_545 S
H1368 C1374 0.949 . S
C1369 H1364 0.950 1_545 S
C1369 C1371 1.327 . S
C1369 C1375 1.429 . S
C1370 C1362 1.574 1_655 S
C1370 H1365 0.949 . S
C1370 C1376 1.368 . S
C1371 C1355 1.349 . S
C1371 H1363 0.939 1_545 S
C1371 C1369 1.327 . S
C1372 C1360 1.349 . S
C1372 H1366 0.939 1_565 S
C1372 C1373 1.327 . S
C1373 H1367 0.950 1_565 S
C1373 C1372 1.327 . S
C1373 C1377 1.429 . S
C1374 C1357 1.574 1_455 S
C1374 H1368 0.949 . S
C1374 C1378 1.368 . S
C1375 C1356 1.429 . S
C1375 C1369 1.429 . S
C1375 C1376 1.523 . S
C1376 C1357 1.368 1_545 S
C1376 C1370 1.368 . S
C1376 C1375 1.523 . S
C1377 C1361 1.429 . S
C1377 C1373 1.429 . S
C1377 C1378 1.523 . S
C1378 C1362 1.368 1_565 S
C1378 C1374 1.368 . S
C1378 C1377 1.523 . S
H1379 C1354 0.950 . S
H1380 C1356 0.950 . S
H1381 C1357 0.949 . S
H1382 C1359 0.950 . S
H1383 C1361 0.950 . S
C1384 C1385 1.349 . S
C1384 C1386 1.327 . S
C1384 H1409 0.950 . S
C1385 C1384 1.349 . S
C1385 C1401 1.349 . S
C1386 C1384 1.327 . S
C1386 C1405 1.429 . S
C1386 H1410 0.950 . S
C1387 C1404 1.574 1_545 S
C1387 C1406 1.368 . S
C1387 H1411 0.949 . S
H1388 C1392 0.949 . S
C1389 C1390 1.349 . S
C1389 C1391 1.327 . S
C1389 H1412 0.950 . S
C1390 C1389 1.349 . S
C1390 C1402 1.349 . S
C1391 C1389 1.327 . S
C1391 C1407 1.429 . S
C1391 H1413 0.950 . S
C1392 H1388 0.949 . S
C1392 C1400 1.574 1_565 S
C1392 C1408 1.368 . S
H1393 C1401 0.950 . S
H1394 C1399 0.950 . S
H1395 C1400 0.949 . S
H1396 C1402 0.950 . S
H1397 C1403 0.950 . S
H1398 C1404 0.949 . S
C1399 H1394 0.950 . S
C1399 C1401 1.327 . S
C1399 C1405 1.429 . S
C1400 C1392 1.574 1_545 S
C1400 H1395 0.949 . S
C1400 C1406 1.368 . S
C1401 C1385 1.349 . S
C1401 H1393 0.950 . S
C1401 C1399 1.327 . S
C1402 C1390 1.349 . S
C1402 H1396 0.950 . S
C1402 C1403 1.327 . S
C1403 H1397 0.950 . S
C1403 C1402 1.327 . S
C1403 C1407 1.429 . S
C1404 C1387 1.574 1_565 S
C1404 H1398 0.949 . S
C1404 C1408 1.368 . S
C1405 C1386 1.429 . S
C1405 C1399 1.429 . S
C1405 C1406 1.523 . S
C1406 C1387 1.368 . S
C1406 C1400 1.368 . S
C1406 C1405 1.523 . S
C1407 C1391 1.429 . S
C1407 C1403 1.429 . S
C1407 C1408 1.523 . S
C1408 C1392 1.368 . S
C1408 C1404 1.368 . S
C1408 C1407 1.523 . S
H1409 C1384 0.950 . S
H1410 C1386 0.950 . S
H1411 C1387 0.949 . S
H1412 C1389 0.950 . S
H1413 C1391 0.950 . S
C1414 C1415 1.349 . S
C1414 C1416 1.327 . S
C1414 H1439 0.950 . S
C1415 C1414 1.349 . S
C1415 C1431 1.349 . S
C1416 C1414 1.327 . S
C1416 C1435 1.429 . S
C1416 H1440 0.950 . S
C1417 C1434 1.574 1_655 S
C1417 C1436 1.368 . S
C1417 H1441 0.949 . S
H1418 C1422 0.949 . S
C1419 C1420 1.349 . S
C1419 C1421 1.327 . S
C1419 H1442 0.950 . S
C1420 C1419 1.349 . S
C1420 C1432 1.349 . S
C1421 C1419 1.327 . S
C1421 C1437 1.429 . S
C1421 H1443 0.950 . S
C1422 H1418 0.949 . S
C1422 C1430 1.574 1_455 S
C1422 C1438 1.368 . S
H1423 C1431 0.950 . S
H1424 C1429 0.950 . S
H1425 C1430 0.949 . S
H1426 C1432 0.950 . S
H1427 C1433 0.950 . S
H1428 C1434 0.949 . S
C1429 H1424 0.950 . S
C1429 C1431 1.327 . S
C1429 C1435 1.429 . S
C1430 C1422 1.574 1_655 S
C1430 H1425 0.949 . S
C1430 C1436 1.368 . S
C1431 C1415 1.349 . S
C1431 H1423 0.950 . S
C1431 C1429 1.327 . S
C1432 C1420 1.349 . S
C1432 H1426 0.950 . S
C1432 C1433 1.327 . S
C1433 H1427 0.950 . S
C1433 C1432 1.327 . S
C1433 C1437 1.429 . S
C1434 C1417 1.574 1_455 S
C1434 H1428 0.949 . S
C1434 C1438 1.368 . S
C1435 C1416 1.429 . S
C1435 C1429 1.429 . S
C1435 C1436 1.523 . S
C1436 C1417 1.368 . S
C1436 C1430 1.368 . S
C1436 C1435 1.523 . S
C1437 C1421 1.429 . S
C1437 C1433 1.429 . S
C1437 C1438 1.523 . S
C1438 C1422 1.368 . S
C1438 C1434 1.368 . S
C1438 C1437 1.523 . S
H1439 C1414 0.950 . S
H1440 C1416 0.950 . S
H1441 C1417 0.949 . S
H1442 C1419 0.950 . S
H1443 C1421 0.950 . S
C1444 C1445 1.349 . S
C1444 C1446 1.327 . S
C1444 H1469 0.950 . S
C1445 C1444 1.349 . S
C1445 C1461 1.349 . S
C1446 C1444 1.327 . S
C1446 C1465 1.429 . S
C1446 H1470 0.950 . S
C1447 C1464 1.574 . S
C1447 C1466 1.368 . S
C1447 H1471 0.949 . S
H1448 C1452 0.949 . S
C1449 C1450 1.349 . S
C1449 C1451 1.327 . S
C1449 H1472 0.950 . S
C1450 C1449 1.349 . S
C1450 C1462 1.349 . S
C1451 C1449 1.327 . S
C1451 C1467 1.429 . S
C1451 H1473 0.950 . S
C1452 H1448 0.949 . S
C1452 C1460 1.574 . S
C1452 C1468 1.368 . S
H1453 C1461 0.950 . S
H1454 C1459 0.950 . S
H1455 C1460 0.949 . S
H1456 C1462 0.950 . S
H1457 C1463 0.950 . S
H1458 C1464 0.949 . S
C1459 H1454 0.950 . S
C1459 C1461 1.327 . S
C1459 C1465 1.429 . S
C1460 C1452 1.574 . S
C1460 H1455 0.949 . S
C1460 C1466 1.368 . S
C1461 C1445 1.349 . S
C1461 H1453 0.950 . S
C1461 C1459 1.327 . S
C1462 C1450 1.349 . S
C1462 H1456 0.950 . S
C1462 C1463 1.327 . S
C1463 H1457 0.950 . S
C1463 C1462 1.327 . S
C1463 C1467 1.429 . S
C1464 C1447 1.574 . S
C1464 H1458 0.949 . S
C1464 C1468 1.368 . S
C1465 C1446 1.429 . S
C1465 C1459 1.429 . S
C1465 C1466 1.523 . S
C1466 C1447 1.368 . S
C1466 C1460 1.368 . S
C1466 C1465 1.523 . S
C1467 C1451 1.429 . S
C1467 C1463 1.429 . S
C1467 C1468 1.523 . S
C1468 C1452 1.368 . S
C1468 C1464 1.368 . S
C1468 C1467 1.523 . S
H1469 C1444 0.950 . S
H1470 C1446 0.950 . S
H1471 C1447 0.949 . S
H1472 C1449 0.950 . S
H1473 C1451 0.950 . S
C1474 C1475 1.349 . S
C1474 C1476 1.327 . S
C1474 H1499 0.950 . S
C1475 C1474 1.349 . S
C1475 C1491 1.349 . S
C1476 C1474 1.327 . S
C1476 C1495 1.429 . S
C1476 H1500 0.950 . S
C1477 C1494 1.574 . S
C1477 C1496 1.368 . S
C1477 H1501 0.949 . S
H1478 C1482 0.949 . S
C1479 C1480 1.349 . S
C1479 C1481 1.327 . S
C1479 H1502 0.950 . S
C1480 C1479 1.349 . S
C1480 C1492 1.349 . S
C1481 C1479 1.327 . S
C1481 C1497 1.429 . S
C1481 H1503 0.950 . S
C1482 H1478 0.949 . S
C1482 C1490 1.574 . S
C1482 C1498 1.368 . S
H1483 C1491 0.950 . S
H1484 C1489 0.950 . S
H1485 C1490 0.949 . S
H1486 C1492 0.950 . S
H1487 C1493 0.950 . S
H1488 C1494 0.949 . S
C1489 H1484 0.950 . S
C1489 C1491 1.327 . S
C1489 C1495 1.429 . S
C1490 C1482 1.574 . S
C1490 H1485 0.949 . S
C1490 C1496 1.368 . S
C1491 C1475 1.349 . S
C1491 H1483 0.950 . S
C1491 C1489 1.327 . S
C1492 C1480 1.349 . S
C1492 H1486 0.950 . S
C1492 C1493 1.327 . S
C1493 H1487 0.950 . S
C1493 C1492 1.327 . S
C1493 C1497 1.429 . S
C1494 C1477 1.574 . S
C1494 H1488 0.949 . S
C1494 C1498 1.368 . S
C1495 C1476 1.429 . S
C1495 C1489 1.429 . S
C1495 C1496 1.523 . S
C1496 C1477 1.368 . S
C1496 C1490 1.368 . S
C1496 C1495 1.523 . S
C1497 C1481 1.429 . S
C1497 C1493 1.429 . S
C1497 C1498 1.523 . S
C1498 C1482 1.368 . S
C1498 C1494 1.368 . S
C1498 C1497 1.523 . S
H1499 C1474 0.950 . S
H1500 C1476 0.950 . S
H1501 C1477 0.949 . S
H1502 C1479 0.950 . S
H1503 C1481 0.950 . S
C1504 C1505 1.349 . S
C1504 C1506 1.327 . S
C1504 H1529 0.950 . S
C1505 C1504 1.349 . S
C1505 C1521 1.349 . S
C1506 C1504 1.327 . S
C1506 C1525 1.429 . S
C1506 H1530 0.950 . S
C1507 C1524 1.574 . S
C1507 C1526 1.368 . S
C1507 H1531 0.949 . S
H1508 C1512 0.949 . S
C1509 C1510 1.349 . S
C1509 C1511 1.327 . S
C1509 H1532 0.950 . S
C1510 C1509 1.349 . S
C1510 C1522 1.349 . S
C1511 C1509 1.327 . S
C1511 C1527 1.429 . S
C1511 H1533 0.950 . S
C1512 H1508 0.949 . S
C1512 C1520 1.574 . S
C1512 C1528 1.368 . S
H1513 C1521 0.950 . S
H1514 C1519 0.950 . S
H1515 C1520 0.949 . S
H1516 C1522 0.950 . S
H1517 C1523 0.950 . S
H1518 C1524 0.949 . S
C1519 H1514 0.950 . S
C1519 C1521 1.327 . S
C1519 C1525 1.429 . S
C1520 C1512 1.574 . S
C1520 H1515 0.949 . S
C1520 C1526 1.368 . S
C1521 C1505 1.349 . S
C1521 H1513 0.950 . S
C1521 C1519 1.327 . S
C1522 C1510 1.349 . S
C1522 H1516 0.950 . S
C1522 C1523 1.327 . S
C1523 H1517 0.950 . S
C1523 C1522 1.327 . S
C1523 C1527 1.429 . S
C1524 C1507 1.574 . S
C1524 H1518 0.949 . S
C1524 C1528 1.368 . S
C1525 C1506 1.429 . S
C1525 C1519 1.429 . S
C1525 C1526 1.523 . S
C1526 C1507 1.368 . S
C1526 C1520 1.368 . S
C1526 C1525 1.523 . S
C1527 C1511 1.429 . S
C1527 C1523 1.429 . S
C1527 C1528 1.523 . S
C1528 C1512 1.368 . S
C1528 C1524 1.368 . S
C1528 C1527 1.523 . S
H1529 C1504 0.950 . S
H1530 C1506 0.950 . S
H1531 C1507 0.949 . S
H1532 C1509 0.950 . S
H1533 C1511 0.950 . S
C1534 C1535 1.349 . S
C1534 C1536 1.327 . S
C1534 H1559 0.950 . S
C1535 C1534 1.349 . S
C1535 C1551 1.349 . S
C1536 C1534 1.327 . S
C1536 C1555 1.429 . S
C1536 H1560 0.950 . S
C1537 C1554 1.574 . S
C1537 C1556 1.368 . S
C1537 H1561 0.949 . S
H1538 C1542 0.949 . S
C1539 C1540 1.349 . S
C1539 C1541 1.327 . S
C1539 H1562 0.950 . S
C1540 C1539 1.349 . S
C1540 C1552 1.349 . S
C1541 C1539 1.327 . S
C1541 C1557 1.429 . S
C1541 H1563 0.950 . S
C1542 H1538 0.949 . S
C1542 C1550 1.574 . S
C1542 C1558 1.368 . S
H1543 C1551 0.950 . S
H1544 C1549 0.950 . S
H1545 C1550 0.949 . S
H1546 C1552 0.950 . S
H1547 C1553 0.950 . S
H1548 C1554 0.949 . S
C1549 H1544 0.950 . S
C1549 C1551 1.327 . S
C1549 C1555 1.429 . S
C1550 C1542 1.574 . S
C1550 H1545 0.949 . S
C1550 C1556 1.368 . S
C1551 C1535 1.349 . S
C1551 H1543 0.950 . S
C1551 C1549 1.327 . S
C1552 C1540 1.349 . S
C1552 H1546 0.950 . S
C1552 C1553 1.327 . S
C1553 H1547 0.950 . S
C1553 C1552 1.327 . S
C1553 C1557 1.429 . S
C1554 C1537 1.574 . S
C1554 H1548 0.949 . S
C1554 C1558 1.368 . S
C1555 C1536 1.429 . S
C1555 C1549 1.429 . S
C1555 C1556 1.523 . S
C1556 C1537 1.368 . S
C1556 C1550 1.368 . S
C1556 C1555 1.523 . S
C1557 C1541 1.429 . S
C1557 C1553 1.429 . S
C1557 C1558 1.523 . S
C1558 C1542 1.368 . S
C1558 C1554 1.368 . S
C1558 C1557 1.523 . S
H1559 C1534 0.950 . S
H1560 C1536 0.950 . S
H1561 C1537 0.949 . S
H1562 C1539 0.950 . S
H1563 C1541 0.950 . S
C1564 C1565 1.349 . S
C1564 C1566 1.327 . S
C1564 H1589 0.950 . S
C1565 C1564 1.349 . S
C1565 C1581 1.349 . S
C1566 C1564 1.327 . S
C1566 C1585 1.429 . S
C1566 H1590 0.950 . S
C1567 C1584 1.574 . S
C1567 C1586 1.368 . S
C1567 H1591 0.949 . S
H1568 C1572 0.949 . S
C1569 C1570 1.349 . S
C1569 C1571 1.327 . S
C1569 H1592 0.950 . S
C1570 C1569 1.349 . S
C1570 C1582 1.349 . S
C1571 C1569 1.327 . S
C1571 C1587 1.429 . S
C1571 H1593 0.950 . S
C1572 H1568 0.949 . S
C1572 C1580 1.574 . S
C1572 C1588 1.368 . S
H1573 C1581 0.950 . S
H1574 C1579 0.950 . S
H1575 C1580 0.949 . S
H1576 C1582 0.950 . S
H1577 C1583 0.950 . S
H1578 C1584 0.949 . S
C1579 H1574 0.950 . S
C1579 C1581 1.327 . S
C1579 C1585 1.429 . S
C1580 C1572 1.574 . S
C1580 H1575 0.949 . S
C1580 C1586 1.368 . S
C1581 C1565 1.349 . S
C1581 H1573 0.950 . S
C1581 C1579 1.327 . S
C1582 C1570 1.349 . S
C1582 H1576 0.950 . S
C1582 C1583 1.327 . S
C1583 H1577 0.950 . S
C1583 C1582 1.327 . S
C1583 C1587 1.429 . S
C1584 C1567 1.574 . S
C1584 H1578 0.949 . S
C1584 C1588 1.368 . S
C1585 C1566 1.429 . S
C1585 C1579 1.429 . S
C1585 C1586 1.523 . S
C1586 C1567 1.368 . S
C1586 C1580 1.368 . S
C1586 C1585 1.523 . S
C1587 C1571 1.429 . S
C1587 C1583 1.429 . S
C1587 C1588 1.523 . S
C1588 C1572 1.368 . S
C1588 C1584 1.368 . S
C1588 C1587 1.523 . S
H1589 C1564 0.950 . S
H1590 C1566 0.950 . S
H1591 C1567 0.949 . S
H1592 C1569 0.950 . S
H1593 C1571 0.950 . S
C1594 C1595 1.349 . S
C1594 C1596 1.327 . S
C1594 H1619 0.950 . S
C1595 C1594 1.349 . S
C1595 C1611 1.349 . S
C1596 C1594 1.327 . S
C1596 C1615 1.429 . S
C1596 H1620 0.950 . S
C1597 C1614 1.574 . S
C1597 C1616 1.368 . S
C1597 H1621 0.949 . S
H1598 C1602 0.949 . S
C1599 C1600 1.349 . S
C1599 C1601 1.327 . S
C1599 H1622 0.950 . S
C1600 C1599 1.349 . S
C1600 C1612 1.349 . S
C1601 C1599 1.327 . S
C1601 C1617 1.429 . S
C1601 H1623 0.950 . S
C1602 H1598 0.949 . S
C1602 C1610 1.574 . S
C1602 C1618 1.368 . S
H1603 C1611 0.950 . S
H1604 C1609 0.950 . S
H1605 C1610 0.949 . S
H1606 C1612 0.950 . S
H1607 C1613 0.950 . S
H1608 C1614 0.949 . S
C1609 H1604 0.950 . S
C1609 C1611 1.327 . S
C1609 C1615 1.429 . S
C1610 C1602 1.574 . S
C1610 H1605 0.949 . S
C1610 C1616 1.368 . S
C1611 C1595 1.349 . S
C1611 H1603 0.950 . S
C1611 C1609 1.327 . S
C1612 C1600 1.349 . S
C1612 H1606 0.950 . S
C1612 C1613 1.327 . S
C1613 H1607 0.950 . S
C1613 C1612 1.327 . S
C1613 C1617 1.429 . S
C1614 C1597 1.574 . S
C1614 H1608 0.949 . S
C1614 C1618 1.368 . S
C1615 C1596 1.429 . S
C1615 C1609 1.429 . S
C1615 C1616 1.523 . S
C1616 C1597 1.368 . S
C1616 C1610 1.368 . S
C1616 C1615 1.523 . S
C1617 C1601 1.429 . S
C1617 C1613 1.429 . S
C1617 C1618 1.523 . S
C1618 C1602 1.368 . S
C1618 C1614 1.368 . S
C1618 C1617 1.523 . S
H1619 C1594 0.950 . S
H1620 C1596 0.950 . S
H1621 C1597 0.949 . S
H1622 C1599 0.950 . S
H1623 C1601 0.950 . S
C1624 C1625 1.349 . S
C1624 C1626 1.327 . S
C1624 H1649 0.950 . S
C1625 C1624 1.349 . S
C1625 C1641 1.349 . S
C1626 C1624 1.327 . S
C1626 C1645 1.429 . S
C1626 H1650 0.950 . S
C1627 C1644 1.574 . S
C1627 C1646 1.368 . S
C1627 H1651 0.949 . S
H1628 C1632 0.949 . S
C1629 C1630 1.349 . S
C1629 C1631 1.327 . S
C1629 H1652 0.950 . S
C1630 C1629 1.349 . S
C1630 C1642 1.349 . S
C1631 C1629 1.327 . S
C1631 C1647 1.429 . S
C1631 H1653 0.950 . S
C1632 H1628 0.949 . S
C1632 C1640 1.574 . S
C1632 C1648 1.368 . S
H1633 C1641 0.950 . S
H1634 C1639 0.950 . S
H1635 C1640 0.949 . S
H1636 C1642 0.950 . S
H1637 C1643 0.950 . S
H1638 C1644 0.949 . S
C1639 H1634 0.950 . S
C1639 C1641 1.327 . S
C1639 C1645 1.429 . S
C1640 C1632 1.574 . S
C1640 H1635 0.949 . S
C1640 C1646 1.368 . S
C1641 C1625 1.349 . S
C1641 H1633 0.950 . S
C1641 C1639 1.327 . S
C1642 C1630 1.349 . S
C1642 H1636 0.950 . S
C1642 C1643 1.327 . S
C1643 H1637 0.950 . S
C1643 C1642 1.327 . S
C1643 C1647 1.429 . S
C1644 C1627 1.574 . S
C1644 H1638 0.949 . S
C1644 C1648 1.368 . S
C1645 C1626 1.429 . S
C1645 C1639 1.429 . S
C1645 C1646 1.523 . S
C1646 C1627 1.368 . S
C1646 C1640 1.368 . S
C1646 C1645 1.523 . S
C1647 C1631 1.429 . S
C1647 C1643 1.429 . S
C1647 C1648 1.523 . S
C1648 C1632 1.368 . S
C1648 C1644 1.368 . S
C1648 C1647 1.523 . S
H1649 C1624 0.950 . S
H1650 C1626 0.950 . S
H1651 C1627 0.949 . S
H1652 C1629 0.950 . S
H1653 C1631 0.950 . S
C1654 C1655 1.349 . S
C1654 C1656 1.327 . S
C1654 H1679 0.950 . S
C1655 C1654 1.349 . S
C1655 C1671 1.349 . S
C1656 C1654 1.327 . S
C1656 C1675 1.429 . S
C1656 H1680 0.950 . S
C1657 C1674 1.574 . S
C1657 C1676 1.368 . S
C1657 H1681 0.949 . S
H1658 C1662 0.949 . S
C1659 C1660 1.349 . S
C1659 C1661 1.327 . S
C1659 H1682 0.950 . S
C1660 C1659 1.349 . S
C1660 C1672 1.349 . S
C1661 C1659 1.327 . S
C1661 C1677 1.429 . S
C1661 H1683 0.950 . S
C1662 H1658 0.949 . S
C1662 C1670 1.574 . S
C1662 C1678 1.368 . S
H1663 C1671 0.950 . S
H1664 C1669 0.950 . S
H1665 C1670 0.949 . S
H1666 C1672 0.950 . S
H1667 C1673 0.950 . S
H1668 C1674 0.949 . S
C1669 H1664 0.950 . S
C1669 C1671 1.327 . S
C1669 C1675 1.429 . S
C1670 C1662 1.574 . S
C1670 H1665 0.949 . S
C1670 C1676 1.368 . S
C1671 C1655 1.349 . S
C1671 H1663 0.950 . S
C1671 C1669 1.327 . S
C1672 C1660 1.349 . S
C1672 H1666 0.950 . S
C1672 C1673 1.327 . S
C1673 H1667 0.950 . S
C1673 C1672 1.327 . S
C1673 C1677 1.429 . S
C1674 C1657 1.574 . S
C1674 H1668 0.949 . S
C1674 C1678 1.368 . S
C1675 C1656 1.429 . S
C1675 C1669 1.429 . S
C1675 C1676 1.523 . S
C1676 C1657 1.368 . S
C1676 C1670 1.368 . S
C1676 C1675 1.523 . S
C1677 C1661 1.429 . S
C1677 C1673 1.429 . S
C1677 C1678 1.523 . S
C1678 C1662 1.368 . S
C1678 C1674 1.368 . S
C1678 C1677 1.523 . S
H1679 C1654 0.950 . S
H1680 C1656 0.950 . S
H1681 C1657 0.949 . S
H1682 C1659 0.950 . S
H1683 C1661 0.950 . S
C1684 C1685 1.349 . S
C1684 C1686 1.327 . S
C1684 H1709 0.950 . S
C1685 C1684 1.349 . S
C1685 C1701 1.349 . S
C1686 C1684 1.327 . S
C1686 C1705 1.429 . S
C1686 H1710 0.950 . S
C1687 C1704 1.574 . S
C1687 C1706 1.368 . S
C1687 H1711 0.949 . S
H1688 C1692 0.949 . S
C1689 C1690 1.349 . S
C1689 C1691 1.327 . S
C1689 H1712 0.950 . S
C1690 C1689 1.349 . S
C1690 C1702 1.349 . S
C1691 C1689 1.327 . S
C1691 C1707 1.429 . S
C1691 H1713 0.950 . S
C1692 H1688 0.949 . S
C1692 C1700 1.574 . S
C1692 C1708 1.368 . S
H1693 C1701 0.950 . S
H1694 C1699 0.950 . S
H1695 C1700 0.949 . S
H1696 C1702 0.950 . S
H1697 C1703 0.950 . S
H1698 C1704 0.949 . S
C1699 H1694 0.950 . S
C1699 C1701 1.327 . S
C1699 C1705 1.429 . S
C1700 C1692 1.574 . S
C1700 H1695 0.949 . S
C1700 C1706 1.368 . S
C1701 C1685 1.349 . S
C1701 H1693 0.950 . S
C1701 C1699 1.327 . S
C1702 C1690 1.349 . S
C1702 H1696 0.950 . S
C1702 C1703 1.327 . S
C1703 H1697 0.950 . S
C1703 C1702 1.327 . S
C1703 C1707 1.429 . S
C1704 C1687 1.574 . S
C1704 H1698 0.949 . S
C1704 C1708 1.368 . S
C1705 C1686 1.429 . S
C1705 C1699 1.429 . S
C1705 C1706 1.523 . S
C1706 C1687 1.368 . S
C1706 C1700 1.368 . S
C1706 C1705 1.523 . S
C1707 C1691 1.429 . S
C1707 C1703 1.429 . S
C1707 C1708 1.523 . S
C1708 C1692 1.368 . S
C1708 C1704 1.368 . S
C1708 C1707 1.523 . S
H1709 C1684 0.950 . S
H1710 C1686 0.950 . S
H1711 C1687 0.949 . S
H1712 C1689 0.950 . S
H1713 C1691 0.950 . S
C1714 C1715 1.349 . S
C1714 C1716 1.327 . S
C1714 H1739 0.950 . S
C1715 C1714 1.349 . S
C1715 C1731 1.349 . S
C1716 C1714 1.327 . S
C1716 C1735 1.429 . S
C1716 H1740 0.950 . S
C1717 C1734 1.574 . S
C1717 C1736 1.368 . S
C1717 H1741 0.949 . S
H1718 C1722 0.949 . S
C1719 C1720 1.349 . S
C1719 C1721 1.327 . S
C1719 H1742 0.950 . S
C1720 C1719 1.349 . S
C1720 C1732 1.349 . S
C1721 C1719 1.327 . S
C1721 C1737 1.429 . S
C1721 H1743 0.950 . S
C1722 H1718 0.949 . S
C1722 C1730 1.574 . S
C1722 C1738 1.368 . S
H1723 C1731 0.950 . S
H1724 C1729 0.950 . S
H1725 C1730 0.949 . S
H1726 C1732 0.950 . S
H1727 C1733 0.950 . S
H1728 C1734 0.949 . S
C1729 H1724 0.950 . S
C1729 C1731 1.327 . S
C1729 C1735 1.429 . S
C1730 C1722 1.574 . S
C1730 H1725 0.949 . S
C1730 C1736 1.368 . S
C1731 C1715 1.349 . S
C1731 H1723 0.950 . S
C1731 C1729 1.327 . S
C1732 C1720 1.349 . S
C1732 H1726 0.950 . S
C1732 C1733 1.327 . S
C1733 H1727 0.950 . S
C1733 C1732 1.327 . S
C1733 C1737 1.429 . S
C1734 C1717 1.574 . S
C1734 H1728 0.949 . S
C1734 C1738 1.368 . S
C1735 C1716 1.429 . S
C1735 C1729 1.429 . S
C1735 C1736 1.523 . S
C1736 C1717 1.368 . S
C1736 C1730 1.368 . S
C1736 C1735 1.523 . S
C1737 C1721 1.429 . S
C1737 C1733 1.429 . S
C1737 C1738 1.523 . S
C1738 C1722 1.368 . S
C1738 C1734 1.368 . S
C1738 C1737 1.523 . S
H1739 C1714 0.950 . S
H1740 C1716 0.950 . S
H1741 C1717 0.949 . S
H1742 C1719 0.950 . S
H1743 C1721 0.950 . S
C545 C33 0.622 . S
C550 C379 0.624 . S
C575 C277 0.624 . S
C580 C67 0.623 . S
C605 C311 0.624 . S
C610 C101 0.623 . S
C635 C345 0.624 . S
C640 C135 0.623 . S
C665 C175 0.624 . S
C670 C169 0.622 . S
C695 C209 0.624 . S
C700 C203 0.623 . S
C725 C237 0.623 . S
C730 C243 0.624 . S
C755 C271 0.622 . S
C760 C141 0.624 . S
C785 C305 0.623 . S
C790 C107 0.624 . S
C815 C339 0.622 . S
C820 C5 0.623 . S
C845 C39 0.624 . S
C850 C373 0.623 . S
C875 C407 0.623 . S
C880 C73 0.624 . S
C905 C447 0.624 . S
C910 C441 0.623 . S
C935 C481 0.623 . S
C940 C475 0.622 . S
C965 C515 0.623 . S
C970 C509 0.622 . S
C995 C543 0.623 . S
C1000 C413 0.624 . S
C1025 C20 1.310 . S
C1030 C88 1.310 . S
C1055 C54 1.310 . S
C1060 C122 1.310 . S
C1085 C224 1.311 . S
C1090 C156 1.311 . S
C1115 C258 1.311 . S
C1120 C190 1.311 . S
C1145 C360 1.311 . S
C1150 C292 1.311 . S
C1175 C326 1.311 . S
C1180 C394 1.311 . S
C1205 C428 1.311 . S
C1210 C496 1.311 . S
C1235 C530 1.311 . S
C1240 C462 1.311 . S
C1265 C70 0.924 . S
C1270 C2 0.924 . S
C1295 C36 0.924 . S
C1300 C104 0.924 . S
C1325 C138 0.923 . S
C1330 C206 0.923 . S
C1355 C240 0.923 . S
C1360 C172 0.923 . S
C1385 C342 0.923 . S
C1390 C274 0.923 . S
C1415 C308 0.923 . S
C1420 C376 0.923 . S
C1445 C410 0.923 . S
C1450 C478 0.924 . S
C1475 C512 0.924 . S
C1480 C444 0.924 . S
C1505 C485 1.511 . S
C1510 C9 1.511 . S
C1535 C43 1.510 . S
C1540 C519 1.510 . S
C1565 C77 1.510 . S
C1570 C417 1.510 . S
C1595 C111 1.510 . S
C1600 C451 1.510 . S
C1625 C145 1.511 . S
C1630 C349 1.511 . S
C1655 C383 1.511 . S
C1660 C179 1.511 . S
C1685 C213 1.510 . S
C1690 C281 1.510 . S
C1715 C247 1.511 . S
C1720 C315 1.511 . S
