# Generated by pormake.
# Topology umz, (4)-cn, num edge types: 1
# Building blocks:
#     Node 0, Type 0, BuildingBlock: QUQFOY_clean_sbu_1, # of connection points: 4
#     Node 1, Type 0, BuildingBlock: QUQFOY_clean_sbu_1, # of connection points: 4
#     Node 2, Type 0, BuildingBlock: QUQFOY_clean_sbu_1, # of connection points: 4
#     Node 3, Type 0, BuildingBlock: QUQFOY_clean_sbu_1, # of connection points: 4
#     Node 4, Type 0, BuildingBlock: QUQFOY_clean_sbu_1, # of connection points: 4
#     Node 5, Type 0, BuildingBlock: QUQFOY_clean_sbu_1, # of connection points: 4
#     Node 6, Type 0, BuildingBlock: QUQFOY_clean_sbu_1, # of connection points: 4
#     Node 7, Type 0, BuildingBlock: QUQFOY_clean_sbu_1, # of connection points: 4
#     Node 8, Type 0, BuildingBlock: QUQFOY_clean_sbu_1, # of connection points: 4
#     Node 9, Type 0, BuildingBlock: QUQFOY_clean_sbu_1, # of connection points: 4
#     Node 10, Type 0, BuildingBlock: QUQFOY_clean_sbu_1, # of connection points: 4
#     Node 11, Type 0, BuildingBlock: QUQFOY_clean_sbu_1, # of connection points: 4
#     Node 12, Type 0, BuildingBlock: QUQFOY_clean_sbu_1, # of connection points: 4
#     Node 13, Type 0, BuildingBlock: QUQFOY_clean_sbu_1, # of connection points: 4
#     Node 14, Type 0, BuildingBlock: QUQFOY_clean_sbu_1, # of connection points: 4
#     Node 15, Type 0, BuildingBlock: QUQFOY_clean_sbu_1, # of connection points: 4
#     Edge 16, Type (0, 0), BuildingBlock: CIFDUS_clean_linker_0, # of connection points: 2
#     Edge 17, Type (0, 0), BuildingBlock: CIFDUS_clean_linker_0, # of connection points: 2
#     Edge 18, Type (0, 0), BuildingBlock: CIFDUS_clean_linker_0, # of connection points: 2
#     Edge 19, Type (0, 0), BuildingBlock: CIFDUS_clean_linker_0, # of connection points: 2
#     Edge 20, Type (0, 0), BuildingBlock: CIFDUS_clean_linker_0, # of connection points: 2
#     Edge 21, Type (0, 0), BuildingBlock: CIFDUS_clean_linker_0, # of connection points: 2
#     Edge 22, Type (0, 0), BuildingBlock: CIFDUS_clean_linker_0, # of connection points: 2
#     Edge 23, Type (0, 0), BuildingBlock: CIFDUS_clean_linker_0, # of connection points: 2
#     Edge 24, Type (0, 0), BuildingBlock: CIFDUS_clean_linker_0, # of connection points: 2
#     Edge 25, Type (0, 0), BuildingBlock: CIFDUS_clean_linker_0, # of connection points: 2
#     Edge 26, Type (0, 0), BuildingBlock: CIFDUS_clean_linker_0, # of connection points: 2
#     Edge 27, Type (0, 0), BuildingBlock: CIFDUS_clean_linker_0, # of connection points: 2
#     Edge 28, Type (0, 0), BuildingBlock: CIFDUS_clean_linker_0, # of connection points: 2
#     Edge 29, Type (0, 0), BuildingBlock: CIFDUS_clean_linker_0, # of connection points: 2
#     Edge 30, Type (0, 0), BuildingBlock: CIFDUS_clean_linker_0, # of connection points: 2
#     Edge 31, Type (0, 0), BuildingBlock: CIFDUS_clean_linker_0, # of connection points: 2
#     Edge 32, Type (0, 0), BuildingBlock: CIFDUS_clean_linker_0, # of connection points: 2
#     Edge 33, Type (0, 0), BuildingBlock: CIFDUS_clean_linker_0, # of connection points: 2
#     Edge 34, Type (0, 0), BuildingBlock: CIFDUS_clean_linker_0, # of connection points: 2
#     Edge 35, Type (0, 0), BuildingBlock: CIFDUS_clean_linker_0, # of connection points: 2
#     Edge 36, Type (0, 0), BuildingBlock: CIFDUS_clean_linker_0, # of connection points: 2
#     Edge 37, Type (0, 0), BuildingBlock: CIFDUS_clean_linker_0, # of connection points: 2
#     Edge 38, Type (0, 0), BuildingBlock: CIFDUS_clean_linker_0, # of connection points: 2
#     Edge 39, Type (0, 0), BuildingBlock: CIFDUS_clean_linker_0, # of connection points: 2
#     Edge 40, Type (0, 0), BuildingBlock: CIFDUS_clean_linker_0, # of connection points: 2
#     Edge 41, Type (0, 0), BuildingBlock: CIFDUS_clean_linker_0, # of connection points: 2
#     Edge 42, Type (0, 0), BuildingBlock: CIFDUS_clean_linker_0, # of connection points: 2
#     Edge 43, Type (0, 0), BuildingBlock: CIFDUS_clean_linker_0, # of connection points: 2
#     Edge 44, Type (0, 0), BuildingBlock: CIFDUS_clean_linker_0, # of connection points: 2
#     Edge 45, Type (0, 0), BuildingBlock: CIFDUS_clean_linker_0, # of connection points: 2
#     Edge 46, Type (0, 0), BuildingBlock: CIFDUS_clean_linker_0, # of connection points: 2
#     Edge 47, Type (0, 0), BuildingBlock: CIFDUS_clean_linker_0, # of connection points: 2
# Relax obj value: 0.238
# Max RMSD: 0.192
# Mean RMSD: 0.192
data_MOF--net-umz--node1-QUQFOY_clean_sbu_1--edge1-CIFDUS_clean_linker_0
_symmetry_space_group_name_H-M    P1
_symmetry_Int_Tables_number       1
_symmetry_cell_setting            triclinic
loop_
_symmetry_equiv_pos_as_xyz
'x, y, z'
_cell_length_a     57.271372
_cell_length_b     57.283466
_cell_length_c     19.484781
_cell_angle_alpha  90.0304
_cell_angle_beta   90.066636
_cell_angle_gamma 89.930422
loop_
_atom_site_label
_atom_site_type_symbol
_atom_site_fract_x
_atom_site_fract_y
_atom_site_fract_z
_atom_type_partial_charge
O0 O 0.08507 0.65599 0.05651 0.0
Cd1 Cd 0.07065 0.67594 0.13314 0.0
Cd2 Cd 0.03923 0.63509 0.13417 0.0
O3 O 0.05853 0.62804 0.04716 0.0
O4 O 0.0855 0.70691 0.11878 0.0
O5 O 0.04757 0.70119 0.1069 0.0
C6 C 0.06528 0.71506 0.10231 0.0
C7 C 1.00523 0.61278 0.15435 0.0
C8 C 0.07744 0.63763 0.02772 0.0
C9 C 0.07252 0.6462 0.25593 0.0
O10 O 0.05797 0.63386 0.22305 0.0
O11 O 0.07945 0.66559 0.23175 0.0
O12 O 0.02548 0.60356 0.14739 0.0
O13 O 1.00353 0.63494 0.14396 0.0
O14 O 0.87182 0.03984 0.45194 0.0
Cd15 Cd 0.85576 0.0322 0.54333 0.0
Cd16 Cd 0.89222 1.0013 0.54272 0.0
O17 O 0.89387 0.00858 0.43939 0.0
O18 O 0.82743 0.05233 0.53714 0.0
O19 O 0.82539 0.01392 0.54013 0.0
C20 C 0.81486 0.03376 0.53405 0.0
C21 C 0.89836 0.96463 0.59175 0.0
C22 C 0.88577 0.02768 0.41609 0.0
C23 C 0.89485 0.04182 0.63898 0.0
O24 O 0.90609 0.02692 0.60387 0.0
O25 O 0.873 0.04452 0.62964 0.0
O26 O 0.91435 0.97487 0.55652 0.0
O27 O 0.87799 0.97429 0.59452 0.0
O28 O 0.45687 0.87925 0.9761 0.0
Cd29 Cd 0.46673 0.86292 0.06546 0.0
Cd30 Cd 0.49697 0.89881 0.06351 0.0
O31 O 0.48785 0.90145 0.96136 0.0
O32 O 0.44919 0.83295 0.06072 0.0
O33 O 0.48769 0.83448 0.05854 0.0
C34 C 0.46883 0.82218 0.05478 0.0
C35 C 0.53457 0.90357 0.10806 0.0
C36 C 0.4684 0.89359 0.93987 0.0
C37 C 0.45782 0.90093 0.16441 0.0
O38 O 0.47238 0.91234 0.1287 0.0
O39 O 0.455 0.87916 0.15406 0.0
O40 O 0.52411 0.92018 0.07578 0.0
O41 O 0.52446 0.88344 0.11059 0.0
O42 O 0.6281 0.45747 0.44696 0.0
Cd43 Cd 0.64085 0.4668 0.54117 0.0
Cd44 Cd 0.60929 0.49938 0.52349 0.0
O45 O 0.6096 0.49002 0.421 0.0
O46 O 0.66921 0.4469 0.54891 0.0
O47 O 0.67086 0.48536 0.5423 0.0
C48 C 0.68164 0.46554 0.54376 0.0
C49 C 0.6138 0.53523 0.57685 0.0
C50 C 0.61671 0.46973 0.40429 0.0
C51 C 0.59797 0.46251 0.62422 0.0
O52 O 0.58967 0.47771 0.58359 0.0
O53 O 0.6196 0.45735 0.62238 0.0
O54 O 0.59594 0.53107 0.53817 0.0
O55 O 0.63052 0.52 0.57818 0.0
O56 O 0.04524 0.89705 0.02132 0.0
Cd57 Cd 0.03647 0.88112 0.93117 0.0
Cd58 Cd 1.00298 0.91308 0.9395 0.0
O59 O 0.01214 0.91519 0.04216 0.0
O60 O 0.05605 0.85249 0.93614 0.0
O61 O 0.01749 0.85143 0.9363 0.0
C62 C 0.03715 0.84051 0.94243 0.0
C63 C 0.96511 0.91262 0.89585 0.0
C64 C 0.03254 0.90914 0.06103 0.0
C65 C 0.04123 0.92075 0.8369 0.0
O66 O 0.02532 0.92993 0.87343 0.0
O67 O 0.04689 0.89944 0.84536 0.0
O68 O 0.97304 0.93038 0.92908 0.0
O69 O 0.97801 0.89412 0.89245 0.0
O70 O 0.62678 0.04476 0.5162 0.0
Cd71 Cd 0.63974 0.03314 0.42446 0.0
Cd72 Cd 0.60503 1.00304 0.44119 0.0
O73 O 0.60487 0.01442 0.54196 0.0
O74 O 0.6713 0.0476 0.42183 0.0
O75 O 0.66583 0.00942 0.42637 0.0
C76 C 0.68004 0.02693 0.42769 0.0
C77 C 0.60046 0.96499 0.40104 0.0
C78 C 0.61355 0.03414 0.55797 0.0
C79 C 0.59899 0.04032 0.33496 0.0
O80 O 0.58926 0.02576 0.37474 0.0
O81 O 0.62079 0.04437 0.33995 0.0
O82 O 0.58442 0.97508 0.43669 0.0
O83 O 0.62022 0.9756 0.39405 0.0
O84 O 0.47552 0.63084 -0.00439 0.0
Cd85 Cd 0.48308 0.64994 0.90921 0.0
Cd86 Cd 0.51278 0.61405 0.89823 0.0
O87 O 0.50717 0.60913 0.00181 0.0
O88 O 0.46595 0.67963 0.9273 0.0
O89 O 0.50427 0.67813 0.91618 0.0
C90 C 0.48576 0.69024 0.92924 0.0
C91 C 0.54829 0.61081 0.84044 0.0
C92 C 0.48792 0.61597 0.02741 0.0
C93 C 0.471 0.61474 0.80595 0.0
O94 O 0.48595 0.60231 0.83738 0.0
O95 O 0.46905 0.63636 0.81992 0.0
O96 O 0.53934 0.59331 0.87245 0.0
O97 O 0.53818 0.63089 0.84649 0.0
O98 O 0.87086 0.44348 0.43273 0.0
Cd99 Cd 0.84921 0.45772 0.36041 0.0
Cd100 Cd 0.89216 0.48842 0.34305 0.0
O101 O 0.89938 0.4695 0.43133 0.0
O102 O 0.818 0.4453 0.38607 0.0
O103 O 0.82622 0.48302 0.38608 0.0
C104 C 0.8115 0.46645 0.39829 0.0
C105 C 0.92007 0.51783 0.31903 0.0
C106 C 0.89009 0.45114 0.45591 0.0
C107 C 0.87376 0.45496 0.22811 0.0
O108 O 0.88749 0.46995 0.25394 0.0
O109 O 0.85624 0.44746 0.26132 0.0
O110 O 0.92535 0.49616 0.32363 0.0
O111 O 0.89869 0.52353 0.33105 0.0
O112 O 0.93197 0.35502 0.93571 0.0
Cd113 Cd 0.94704 0.33597 0.85822 0.0
Cd114 Cd 0.97711 0.37639 0.85711 0.0
O115 O 0.95791 0.3835 0.94424 0.0
O116 O 0.93673 0.30346 0.87641 0.0
O117 O 0.9738 0.31435 0.88041 0.0
C118 C 0.95823 0.29829 0.88915 0.0
C119 C 0.01117 0.39849 0.83648 0.0
C120 C 0.93925 0.37357 0.96421 0.0
C121 C 0.94371 0.36523 0.73581 0.0
O122 O 0.95829 0.37765 0.76836 0.0
O123 O 0.93701 0.34578 0.76018 0.0
O124 O 0.99097 0.40783 0.84358 0.0
O125 O 0.01279 0.37634 0.8471 0.0
O126 O 0.1372 0.97036 0.52885 0.0
Cd127 Cd 0.15355 0.97759 0.43747 0.0
Cd128 Cd 0.11755 0.00757 0.43573 0.0
O129 O 0.11518 1.00171 0.5398 0.0
O130 O 0.18229 0.95809 0.44504 0.0
O131 O 0.18347 0.99654 0.44036 0.0
C132 C 0.19444 0.97697 0.44734 0.0
C133 C 0.11573 0.04251 0.37518 0.0
C134 C 0.12314 0.98267 0.56397 0.0
C135 C 0.11476 0.96681 0.34258 0.0
O136 O 0.10328 0.98137 0.37821 0.0
O137 O 0.13672 0.96477 0.351 0.0
O138 O 0.0983 0.03537 0.41139 0.0
O139 O 0.13519 0.03113 0.37967 0.0
O140 O 0.54776 0.13221 0.01568 0.0
Cd141 Cd 0.5368 0.14608 0.92443 0.0
Cd142 Cd 0.50401 0.1147 0.94138 0.0
O143 O 0.51539 0.11355 0.04206 0.0
O144 O 0.55139 0.17758 0.92274 0.0
O145 O 0.51315 0.17209 0.92763 0.0
C146 C 0.53071 0.18627 0.92938 0.0
C147 C 0.46569 0.11365 0.9014 0.0
C148 C 0.53592 0.12018 0.05775 0.0
C149 C 0.54039 0.10517 0.8346 0.0
O150 O 0.52507 0.09685 0.87471 0.0
O151 O 0.54643 0.1265 0.83942 0.0
O152 O 0.47428 0.09676 0.93712 0.0
O153 O 0.47804 0.13236 0.8945 0.0
O154 O 0.39107 0.55081 0.49178 0.0
Cd155 Cd 0.37209 0.54252 0.40579 0.0
Cd156 Cd 0.40683 0.51028 0.40006 0.0
O157 O 0.41098 0.51814 0.50278 0.0
O158 O 0.34457 0.56345 0.4169 0.0
O159 O 0.34155 0.52508 0.41835 0.0
C160 C 0.33171 0.54526 0.42495 0.0
C161 C 0.41001 0.47248 0.35572 0.0
C162 C 0.40493 0.53799 0.52596 0.0
C163 C 0.40828 0.55018 0.30085 0.0
O164 O 0.41996 0.53501 0.33384 0.0
O165 O 0.38686 0.55359 0.31493 0.0
O166 O 0.42741 0.48269 0.38486 0.0
O167 O 0.39012 0.48313 0.35524 0.0
O168 O 0.96454 0.11263 0.95685 0.0
Cd169 Cd 0.97202 0.1286 0.0481 0.0
Cd170 Cd 1.00559 0.09692 0.0408 0.0
O171 O 0.99799 0.09496 0.93698 0.0
O172 O 0.94944 0.15503 0.04607 0.0
O173 O 0.98757 0.16037 0.04406 0.0
C174 C 0.96682 0.16913 0.04057 0.0
C175 C 0.0409 0.10218 0.09716 0.0
C176 C 0.97758 0.10076 0.91741 0.0
C177 C 0.9672 0.08791 0.13932 0.0
O178 O 0.98285 0.07873 0.10189 0.0
O179 O 0.96213 0.10944 0.13293 0.0
O180 O 0.03692 0.08356 0.06163 0.0
O181 O 0.02586 0.11903 0.09389 0.0
O182 O 0.38479 0.97257 0.4776 0.0
Cd183 Cd 0.36906 0.98251 0.56725 0.0
Cd184 Cd 0.40223 0.01451 0.55994 0.0
O185 O 0.40444 1.00484 0.45776 0.0
O186 O 0.33806 0.96689 0.56257 0.0
O187 O 0.34216 1.00527 0.56321 0.0
C188 C 0.32865 0.9873 0.55792 0.0
C189 C 0.40495 0.0525 0.60251 0.0
C190 C 0.39779 0.98466 0.43877 0.0
C191 C 0.40792 0.97598 0.66319 0.0
O192 O 0.41775 0.9915 0.62681 0.0
O193 O 0.38646 0.9711 0.65396 0.0
O194 O 0.4219 0.04298 0.56928 0.0
O195 O 0.38546 0.04123 0.6064 0.0
O196 O 0.54429 0.37494 0.94527 0.0
Cd197 Cd 0.53544 0.36164 0.03908 0.0
Cd198 Cd 0.50239 0.39533 0.0227 0.0
O199 O 0.51219 0.39454 0.92082 0.0
O200 O 0.55537 0.33314 0.0434 0.0
O201 O 0.51689 0.33154 0.0396 0.0
C202 C 0.5367 0.32072 0.03892 0.0
C203 C 0.4647 0.40051 0.06517 0.0
C204 C 0.53219 0.38688 0.90344 0.0
C205 C 0.54065 0.4039 0.12468 0.0
O206 O 0.52537 0.41262 0.08506 0.0
O207 O 0.54566 0.38226 0.12131 0.0
O208 O 0.47439 0.41595 0.02658 0.0
O209 O 0.47544 0.38089 0.07398 0.0
O210 O 0.14514 0.56794 0.55958 0.0
Cd211 Cd 0.16682 0.55332 0.63122 0.0
Cd212 Cd 0.12411 0.52254 0.64721 0.0
O213 O 0.11701 0.5415 0.55898 0.0
O214 O 0.19806 0.56582 0.60624 0.0
O215 O 0.1897 0.52815 0.60359 0.0
C216 C 0.20445 0.54476 0.59229 0.0
C217 C 0.09632 0.49296 0.67008 0.0
C218 C 0.12611 0.56013 0.53548 0.0
C219 C 0.14213 0.55571 0.76325 0.0
O220 O 0.12835 0.54092 0.73667 0.0
O221 O 0.15984 0.56311 0.73073 0.0
O222 O 0.09091 0.51459 0.66547 0.0
O223 O 0.11778 0.4874 0.65876 0.0
H224 H 0.02614 0.73702 0.05236 0.0
H225 H 0.09979 0.74721 0.08987 0.0
H226 H 0.0977 0.78591 0.03923 0.0
H227 H 0.07532 0.81703 0.9855 0.0
H228 H 1.00143 0.80854 0.95055 0.0
H229 H 1.00335 0.76892 -0.0021 0.0
C230 C 0.04167 0.74778 0.04979 0.0
C231 C 0.06307 0.73916 0.07517 0.0
C232 C 0.0404 0.77023 0.02034 0.0
C233 C 0.08306 0.75332 0.07105 0.0
C234 C 0.08194 0.77549 0.04178 0.0
C235 C 0.05963 0.80648 0.98739 0.0
C236 C 0.03829 0.81571 0.96399 0.0
C237 C 0.06076 0.78407 0.01613 0.0
C238 C 0.01811 0.80182 0.96781 0.0
C239 C 0.01919 0.77921 -0.00475 0.0
H240 H 0.7112 0.06065 0.45961 0.0
H241 H 0.70551 0.98621 0.43061 0.0
H242 H 0.74659 0.98143 0.46339 0.0
H243 H 0.78419 0.99865 0.50133 0.0
H244 H 0.78857 0.0732 0.53202 0.0
H245 H 0.74789 0.07756 0.49851 0.0
C246 C 0.71893 0.04336 0.45977 0.0
C247 C 0.70531 0.02385 0.44207 0.0
C248 C 0.74232 0.04072 0.47988 0.0
C249 C 0.71563 1.00156 0.44357 0.0
C250 C 0.73909 0.99881 0.46265 0.0
C251 C 0.77616 0.0158 0.50127 0.0
C252 C 0.78949 0.03555 0.51931 0.0
C253 C 0.7526 0.01828 0.48139 0.0
C254 C 0.77881 0.05767 0.51846 0.0
C255 C 0.75552 0.06023 0.49903 0.0
H256 H 0.5058 0.79549 0.01158 0.0
H257 H 0.43248 0.79193 0.06185 0.0
H258 H 0.43134 0.75122 0.02637 0.0
H259 H 0.45055 0.71694 0.97827 0.0
H260 H 0.52382 0.71945 0.92782 0.0
H261 H 0.52553 0.76024 0.9656 0.0
C262 C 0.48966 0.78571 0.01547 0.0
C263 C 0.46926 0.79682 0.0394 0.0
C264 C 0.48902 0.76218 -0.00584 0.0
C265 C 0.44844 0.7839 0.0436 0.0
C266 C 0.44773 0.76059 0.02309 0.0
C267 C 0.46692 0.72639 0.97516 0.0
C268 C 0.48698 0.71517 0.94969 0.0
C269 C 0.46781 0.74965 -0.00244 0.0
C270 C 0.50807 0.72768 0.94685 0.0
C271 C 0.50907 0.75099 0.96866 0.0
H272 H 0.71152 0.49932 0.49756 0.0
H273 H 0.70888 0.42716 0.56098 0.0
H274 H 0.74893 0.42141 0.52282 0.0
H275 H 0.78356 0.43579 0.46362 0.0
H276 H 0.78721 0.5078 0.40023 0.0
H277 H 0.74792 0.51469 0.44597 0.0
C278 C 0.71987 0.48248 0.50419 0.0
C279 C 0.70712 0.46367 0.53173 0.0
C280 C 0.74295 0.47914 0.4811 0.0
C281 C 0.7182 0.44191 0.53968 0.0
C282 C 0.7411 0.43855 0.51755 0.0
C283 C 0.77578 0.45302 0.45974 0.0
C284 C 0.78812 0.47117 0.42759 0.0
C285 C 0.7534 0.45685 0.48663 0.0
C286 C 0.77798 0.49349 0.42428 0.0
C287 C 0.75554 0.49743 0.45049 0.0
H288 H 0.92891 0.26702 0.94627 0.0
H289 H 1.00147 0.27757 0.89626 0.0
H290 H 0.01107 0.23907 0.94362 0.0
H291 H 0.99832 0.20167 -0.00451 0.0
H292 H 0.92555 0.19234 0.04623 0.0
H293 H 0.91669 0.23124 0.00342 0.0
C294 C 0.94684 0.2609 0.94539 0.0
C295 C 0.9644 0.275 0.91687 0.0
C296 C 0.95223 0.23901 0.97349 0.0
C297 C 0.9876 0.26696 0.91744 0.0
C298 C 0.99309 0.24498 0.94468 0.0
C299 C 0.98061 0.20832 -0.00186 0.0
C300 C 0.96262 0.19402 0.02385 0.0
C301 C 0.97551 0.23077 0.97258 0.0
C302 C 0.93973 0.20288 0.02656 0.0
C303 C 0.9346 0.22512 0.00178 0.0
H304 H 0.29875 0.95282 0.52228 0.0
H305 H 0.30204 0.02725 0.55471 0.0
H306 H 0.261 0.03096 0.52054 0.0
H307 H 0.22403 0.01281 0.48128 0.0
H308 H 0.22186 0.93829 0.44815 0.0
H309 H 0.26265 0.935 0.48184 0.0
C310 C 0.2905 0.96988 0.52244 0.0
C311 C 0.30344 0.9897 0.54159 0.0
C312 C 0.2671 0.97191 0.50181 0.0
C313 C 0.29246 0.01167 0.5406 0.0
C314 C 0.26901 0.01382 0.52077 0.0
C315 C 0.23257 0.9959 0.48081 0.0
C316 C 0.21984 0.97584 0.46209 0.0
C317 C 0.25616 0.99404 0.50095 0.0
C318 C 0.23116 0.95404 0.46229 0.0
C319 C 0.25451 0.95209 0.4818 0.0
H320 H 0.56392 0.21669 0.97084 0.0
H321 H 0.49031 0.21214 0.92591 0.0
H322 H 0.48523 0.25309 0.95941 0.0
H323 H 0.50199 0.29039 0.00093 0.0
H324 H 0.57563 0.29376 0.04782 0.0
H325 H 0.58026 0.253 0.01523 0.0
C326 C 0.54677 0.22466 0.96772 0.0
C327 C 0.52758 0.21143 0.94508 0.0
C328 C 0.54392 0.24797 -0.01165 0.0
C329 C 0.50542 0.22198 0.94263 0.0
C330 C 0.50249 0.24537 0.96211 0.0
C331 C 0.51898 0.28211 0.00483 0.0
C332 C 0.53842 0.2952 0.02687 0.0
C333 C 0.52162 0.25854 0.98533 0.0
C334 C 0.56034 0.28419 0.0311 0.0
C335 C 0.56306 0.26086 0.01213 0.0
H336 H 0.30172 0.5115 0.47161 0.0
H337 H 0.30637 0.58528 0.42824 0.0
H338 H 0.26768 0.5914 0.47627 0.0
H339 H 0.23332 0.57646 0.5351 0.0
H340 H 0.22741 0.50286 0.5782 0.0
H341 H 0.26579 0.49605 0.52613 0.0
C342 C 0.29412 0.52884 0.47189 0.0
C343 C 0.30704 0.5479 0.44654 0.0
C344 C 0.27176 0.53235 0.50034 0.0
C345 C 0.29693 0.57029 0.44756 0.0
C346 C 0.27479 0.57386 0.47527 0.0
C347 C 0.24041 0.5589 0.5334 0.0
C348 C 0.22764 0.54024 0.56128 0.0
C349 C 0.26224 0.55512 0.5028 0.0
C350 C 0.23696 0.51756 0.5575 0.0
C351 C 0.25889 0.51366 0.5276 0.0
H352 H 0.081 0.59132 0.00582 0.0
H353 H 0.10786 0.65762 0.93741 0.0
H354 H 0.13354 0.6377 0.85562 0.0
H355 H 0.14624 0.60137 0.79843 0.0
H356 H 0.11912 0.53534 0.86844 0.0
H357 H 0.09629 0.55515 0.95662 0.0
C358 C 0.09235 0.6014 0.97259 0.0
C359 C 0.09219 0.62587 0.97627 0.0
C360 C 0.10737 0.58985 0.92713 0.0
C361 C 0.10748 0.63873 0.93458 0.0
C362 C 0.12225 0.62736 0.88823 0.0
C363 C 0.13593 0.59132 0.83451 0.0
C364 C 0.13436 0.56697 0.82721 0.0
C365 C 0.12222 0.60291 0.88371 0.0
C366 C 0.12062 0.55413 0.8734 0.0
C367 C 0.10735 0.56544 0.92323 0.0
H368 H 0.92372 0.09528 0.18952 0.0
H369 H 0.98151 0.04695 0.19665 0.0
H370 H 0.96007 0.02219 0.27681 0.0
H371 H 0.92591 0.01564 0.35033 0.0
H372 H 0.86811 0.06404 0.34253 0.0
H373 H 0.8883 0.08703 0.25574 0.0
C374 C 0.93163 0.07937 0.20883 0.0
C375 C 0.95426 0.07313 0.18813 0.0
C376 C 0.9191 0.06506 0.25407 0.0
C377 C 0.96413 0.0522 0.2123 0.0
C378 C 0.95187 0.038 0.25794 0.0
C379 C 0.91749 0.0309 0.3285 0.0
C380 C 0.89561 0.03818 0.35323 0.0
C381 C 0.92941 0.04436 0.27965 0.0
C382 C 0.88501 0.0581 0.32462 0.0
C383 C 0.89661 0.07137 0.27534 0.0
H384 H 0.47994 0.93388 0.87453 0.0
H385 H 0.43058 0.87701 0.87011 0.0
H386 H 0.4072 0.89763 0.78471 0.0
H387 H 0.39937 0.93297 0.71678 0.0
H388 H 0.44877 0.98979 0.72164 0.0
H389 H 0.4733 0.96817 0.80194 0.0
C390 C 0.46434 0.92577 0.85388 0.0
C391 C 0.45703 0.90396 0.87885 0.0
C392 C 0.45067 0.93794 0.80588 0.0
C393 C 0.43661 0.89381 0.85188 0.0
C394 C 0.42311 0.90566 0.80338 0.0
C395 C 0.41544 0.94064 0.73577 0.0
C396 C 0.4221 0.96303 0.71389 0.0
C397 C 0.42967 0.92799 0.78128 0.0
C398 C 0.44318 0.9726 0.73794 0.0
C399 C 0.45729 0.96023 0.78368 0.0
H400 H 0.58348 0.39773 0.18258 0.0
H401 H 0.52523 0.44549 0.17419 0.0
H402 H 0.54514 0.47195 0.25289 0.0
H403 H 0.57798 0.48035 0.32994 0.0
H404 H 0.63614 0.4325 0.33917 0.0
H405 H 0.61773 0.40767 0.25295 0.0
C406 C 0.57515 0.41389 0.1982 0.0
C407 C 0.55282 0.41949 0.17332 0.0
C408 C 0.58682 0.42921 0.24289 0.0
C409 C 0.5424 0.44072 0.19294 0.0
C410 C 0.55379 0.45592 0.23777 0.0
C411 C 0.58691 0.46483 0.31173 0.0
C412 C 0.60834 0.45826 0.34101 0.0
C413 C 0.57593 0.45027 0.26351 0.0
C414 C 0.61957 0.43792 0.31746 0.0
C415 C 0.60897 0.42359 0.26859 0.0
H416 H 0.06841 0.96773 0.31281 0.0
H417 H 0.1329 0.93333 0.25766 0.0
H418 H 0.11226 0.91055 0.17078 0.0
H419 H 0.0767 0.90227 0.10634 0.0
H420 H 0.01246 0.93781 0.15747 0.0
H421 H 0.03227 0.95798 0.25166 0.0
C422 C 0.078 0.95519 0.28203 0.0
C423 C 0.10225 0.9524 0.29137 0.0
C424 C 0.06607 0.9423 0.23188 0.0
C425 C 0.1143 0.93596 0.25126 0.0
C426 C 0.10249 0.92289 0.20168 0.0
C427 C 0.06686 0.9142 0.13847 0.0
C428 C 0.04312 0.91863 0.1245 0.0
C429 C 0.07847 0.92617 0.19103 0.0
C430 C 0.03073 0.9341 0.16698 0.0
C431 C 0.04208 0.94574 0.22055 0.0
H432 H 0.58324 0.10942 0.77521 0.0
H433 H 0.52259 0.06487 0.78339 0.0
H434 H 0.54108 0.03734 0.70498 0.0
H435 H 0.57371 0.0267 0.63002 0.0
H436 H 0.63434 0.07121 0.62071 0.0
H437 H 0.61693 0.09755 0.70487 0.0
C438 C 0.57406 0.09376 0.75943 0.0
C439 C 0.55151 0.08933 0.78449 0.0
C440 C 0.58492 0.07777 0.71494 0.0
C441 C 0.53996 0.06874 0.7646 0.0
C442 C 0.55054 0.05292 0.71996 0.0
C443 C 0.58335 0.04186 0.64759 0.0
C444 C 0.60526 0.04697 0.61912 0.0
C445 C 0.57299 0.05727 0.69465 0.0
C446 C 0.61741 0.06688 0.64185 0.0
C447 C 0.60739 0.08207 0.68956 0.0
H448 H 0.45405 0.54872 0.26303 0.0
H449 H 0.38923 0.58487 0.2225 0.0
H450 H 0.40895 0.60986 0.1396 0.0
H451 H 0.44398 0.62062 0.07641 0.0
H452 H 0.50868 0.58379 0.11257 0.0
H453 H 0.48962 0.56021 0.20097 0.0
C454 C 0.44419 0.56202 0.236 0.0
C455 C 0.42012 0.56479 0.24878 0.0
C456 C 0.45564 0.57637 0.18831 0.0
C457 C 0.40771 0.58223 0.21347 0.0
C458 C 0.41899 0.59661 0.16625 0.0
C459 C 0.4541 0.60766 0.10412 0.0
C460 C 0.47778 0.60402 0.08781 0.0
C461 C 0.4429 0.59378 0.15319 0.0
C462 C 0.49047 0.58702 0.12417 0.0
C463 C 0.47953 0.57343 0.17436 0.0
H464 H 0.95727 0.4045 0.67115 0.0
H465 H 0.90496 0.35031 0.66379 0.0
H466 H 0.88355 0.37237 0.576 0.0
H467 H 0.87862 0.40831 0.50745 0.0
H468 H 0.93066 0.46274 0.52079 0.0
H469 H 0.95298 0.43938 0.60206 0.0
C470 C 0.94127 0.39728 0.65015 0.0
C471 C 0.93266 0.37579 0.67443 0.0
C472 C 0.92877 0.41034 0.60192 0.0
C473 C 0.91204 0.36674 0.64588 0.0
C474 C 0.89968 0.37948 0.59626 0.0
C475 C 0.89477 0.41514 0.52841 0.0
C476 C 0.90282 0.4374 0.50834 0.0
C477 C 0.90764 0.40155 0.57513 0.0
C478 C 0.92393 0.4458 0.53554 0.0
C479 C 0.93679 0.4324 0.58176 0.0
H480 H 0.93463 0.41982 0.9846 0.0
H481 H 0.90954 0.35319 0.05593 0.0
H482 H 0.88369 0.37284 0.13788 0.0
H483 H 0.87041 0.40911 0.19444 0.0
H484 H 0.89576 0.47545 0.12134 0.0
H485 H 0.91867 0.45582 0.03297 0.0
C486 C 0.92362 0.40961 0.01848 0.0
C487 C 0.92435 0.38515 0.01563 0.0
C488 C 0.90849 0.421 0.064 0.0
C489 C 0.90949 0.37209 0.05814 0.0
C490 C 0.89462 0.38331 0.10457 0.0
C491 C 0.88034 0.41924 0.15764 0.0
C492 C 0.88141 0.44365 0.16413 0.0
C493 C 0.89411 0.40777 0.10832 0.0
C494 C 0.89466 0.45662 0.11701 0.0
C495 C 0.90797 0.44541 0.06707 0.0
H496 H 0.08551 0.91486 0.79072 0.0
H497 H 0.02559 0.96021 0.77396 0.0
H498 H 0.04677 0.98535 0.69421 0.0
H499 H 0.08159 0.99318 0.6243 0.0
H500 H 0.14154 0.94783 0.64196 0.0
H501 H 0.12133 0.9244 0.72771 0.0
C502 C 0.07707 0.93018 0.76929 0.0
C503 C 0.05393 0.93548 0.78729 0.0
C504 C 0.08948 0.94477 0.72444 0.0
C505 C 0.04336 0.95568 0.76041 0.0
C506 C 0.05549 0.97011 0.71505 0.0
C507 C 0.09044 0.97852 0.64816 0.0
C508 C 0.113 0.97223 0.62656 0.0
C509 C 0.07851 0.96476 0.69636 0.0
C510 C 0.12414 0.95303 0.65755 0.0
C511 C 0.11253 0.93948 0.7062 0.0
H512 H 0.60778 0.08229 0.27475 0.0
H513 H 0.5568 0.02698 0.2849 0.0
H514 H 0.53133 0.04823 0.20644 0.0
H515 H 0.52424 0.08162 0.13084 0.0
H516 H 0.57524 0.13688 0.11937 0.0
H517 H 0.59963 0.11688 0.20373 0.0
C518 C 0.59116 0.07487 0.25941 0.0
C519 C 0.58431 0.05302 0.28502 0.0
C520 C 0.5764 0.08732 0.21485 0.0
C521 C 0.56253 0.04376 0.26568 0.0
C522 C 0.54789 0.05593 0.22101 0.0
C523 C 0.54042 0.08956 0.14796 0.0
C524 C 0.5479 0.11068 0.11885 0.0
C525 C 0.55466 0.07768 0.19511 0.0
C526 C 0.56908 0.12059 0.14101 0.0
C527 C 0.58314 0.10909 0.18883 0.0
H528 H 0.4014 0.58227 0.57419 0.0
H529 H 0.43474 0.51604 0.61533 0.0
H530 H 0.45764 0.53404 0.70708 0.0
H531 H 0.4699 0.56895 0.77005 0.0
H532 H 0.43742 0.6354 0.72619 0.0
H533 H 0.41251 0.61682 0.64023 0.0
C534 C 0.41344 0.57162 0.60371 0.0
C535 C 0.41638 0.54781 0.58768 0.0
C536 C 0.42692 0.58218 0.65513 0.0
C537 C 0.43213 0.53439 0.62649 0.0
C538 C 0.44531 0.5447 0.67871 0.0
C539 C 0.45737 0.57943 0.74183 0.0
C540 C 0.45568 0.60361 0.75423 0.0
C541 C 0.44318 0.56866 0.69244 0.0
C542 C 0.4392 0.61681 0.71743 0.0
C543 C 0.42491 0.60619 0.6684 0.0
H544 H 0.94113 0.03996 0.67055 0.0
H545 H 0.87727 0.07631 0.72121 0.0
H546 H 0.89823 0.09966 0.80599 0.0
H547 H 0.93382 0.10814 0.86969 0.0
H548 H 0.99746 0.07076 0.82381 0.0
H549 H 0.97744 0.0498 0.7314 0.0
C550 C 0.93176 0.05302 0.69997 0.0
C551 C 0.90757 0.05622 0.68987 0.0
C552 C 0.94388 0.06631 0.74892 0.0
C553 C 0.8958 0.07334 0.72822 0.0
C554 C 0.90779 0.08676 0.77656 0.0
C555 C 0.9435 0.09563 0.83909 0.0
C556 C 0.96713 0.09094 0.85406 0.0
C557 C 0.93174 0.08319 0.78779 0.0
C558 C 0.9793 0.07473 0.81346 0.0
C559 C 0.9678 0.06261 0.76098 0.0
H560 H 0.39245 0.93973 0.39809 0.0
H561 H 0.42645 1.0042 0.34174 0.0
H562 H 0.44763 0.98384 0.25065 0.0
H563 H 0.45833 0.94738 0.19268 0.0
H564 H 0.42524 0.88275 0.25212 0.0
H565 H 0.40198 0.90366 0.33734 0.0
C566 C 0.40424 0.94949 0.3654 0.0
C567 C 0.40789 0.9735 0.37695 0.0
C568 C 0.41679 0.93758 0.31453 0.0
C569 C 0.42329 0.98574 0.33402 0.0
C570 C 0.43552 0.97407 0.28223 0.0
C571 C 0.44604 0.9378 0.2242 0.0
C572 C 0.4437 0.91345 0.21634 0.0
C573 C 0.43276 0.94991 0.27309 0.0
C574 C 0.42753 0.90143 0.25735 0.0
C575 C 0.41416 0.9134 0.30593 0.0
H576 H 0.52132 0.42536 0.82833 0.0
H577 H 0.56946 0.36743 0.83859 0.0
H578 H 0.59415 0.38573 0.75216 0.0
H579 H 0.60398 0.41985 0.6819 0.0
H580 H 0.55598 0.47786 0.6716 0.0
H581 H 0.52947 0.45798 0.75031 0.0
C582 C 0.53688 0.41646 0.81034 0.0
C583 C 0.54361 0.39515 0.84011 0.0
C584 C 0.55134 0.42735 0.76186 0.0
C585 C 0.56395 0.38392 0.81665 0.0
C586 C 0.57819 0.39444 0.76763 0.0
C587 C 0.58774 0.42813 0.69705 0.0
C588 C 0.5821 0.45039 0.6719 0.0
C589 C 0.57245 0.4165 0.7416 0.0
C590 C 0.56078 0.46075 0.69073 0.0
C591 C 0.54557 0.44939 0.73554 0.0
H592 H 0.13718 0.60328 0.48561 0.0
H593 H 0.0859 0.54824 0.46908 0.0
H594 H 0.0636 0.57155 0.38766 0.0
H595 H 0.05916 0.60656 0.31917 0.0
H596 H 0.11075 0.66137 0.32977 0.0
H597 H 0.13206 0.63935 0.4178 0.0
C598 C 0.12119 0.59631 0.46394 0.0
C599 C 0.11336 0.5739 0.48313 0.0
C600 C 0.10834 0.60987 0.41712 0.0
C601 C 0.09246 0.56531 0.45502 0.0
C602 C 0.07961 0.57868 0.4087 0.0
C603 C 0.07497 0.61393 0.34096 0.0
C604 C 0.08341 0.63558 0.31748 0.0
C605 C 0.08743 0.60089 0.38935 0.0
C606 C 0.1038 0.64481 0.34701 0.0
C607 C 0.1161 0.6321 0.3968 0.0
H608 H 0.91427 0.56238 0.26768 0.0
H609 H 0.9666 0.51082 0.31881 0.0
H610 H 0.99685 0.53528 0.27017 0.0
H611 H 0.00864 0.57022 0.21052 0.0
H612 H 0.9581 0.62342 0.16034 0.0
H613 H 0.92694 0.59933 0.21051 0.0
C614 C 0.93234 0.55672 0.2689 0.0
C615 C 0.9381 0.53471 0.29667 0.0
C616 C 0.94992 0.57095 0.24011 0.0
C617 C 0.96159 0.52756 0.29752 0.0
C618 C 0.97896 0.54151 0.26948 0.0
C619 C 0.99079 0.5766 0.20986 0.0
C620 C 0.98566 0.59845 0.18077 0.0
C621 C 0.97329 0.56301 0.23982 0.0
C622 C 0.96248 0.60653 0.18181 0.0
C623 C 0.9447 0.59281 0.21078 0.0
H624 H 0.88694 0.95994 0.72499 0.0
H625 H 0.92624 0.92749 0.56247 0.0
H626 H 0.94696 0.90325 0.64612 0.0
H627 H 0.95969 0.8979 0.76549 0.0
H628 H 0.92486 0.93552 0.92725 0.0
H629 H 0.89632 0.9507 0.84502 0.0
C630 C 0.89936 0.94685 0.7079 0.0
C631 C 0.905 0.94531 0.63785 0.0
C632 C 0.91232 0.9342 0.7567 0.0
C633 C 0.92156 0.9288 0.6162 0.0
C634 C 0.93355 0.91512 0.6641 0.0
C635 C 0.94527 0.90866 0.78298 0.0
C636 C 0.94424 0.91552 0.8522 0.0
C637 C 0.92994 0.91857 0.73463 0.0
C638 C 0.92587 0.92995 0.87418 0.0
C639 C 0.9097 0.93878 0.82705 0.0
H640 H 0.54131 0.89222 0.24076 0.0
H641 H 0.57266 0.92891 0.07153 0.0
H642 H 0.60067 0.94728 0.14963 0.0
H643 H 0.61064 0.9588 0.26748 0.0
H644 H 0.5745 0.92716 0.4373 0.0
H645 H 0.55439 0.90058 0.35858 0.0
C646 C 0.55488 0.90355 0.22089 0.0
C647 C 0.55516 0.90908 0.1506 0.0
C648 C 0.56985 0.91522 0.26678 0.0
C649 C 0.57232 0.9243 0.12544 0.0
C650 C 0.58818 0.93493 0.17019 0.0
C651 C 0.59906 0.94544 0.28732 0.0
C652 C 0.59419 0.94472 0.35801 0.0
C653 C 0.58638 0.93138 0.24128 0.0
C654 C 0.57863 0.92784 0.38309 0.0
C655 C 0.56698 0.91281 0.33799 0.0
H656 H 0.59191 0.57738 0.56744 0.0
H657 H 0.63096 0.53366 0.70644 0.0
H658 H 0.61667 0.55624 0.80395 0.0
H659 H 0.5865 0.58285 0.84985 0.0
H660 H 0.54916 0.6281 0.71131 0.0
H661 H 0.56966 0.61091 0.61359 0.0
C662 C 0.59799 0.5734 0.61887 0.0
C663 C 0.61215 0.55367 0.6298 0.0
C664 C 0.58971 0.58652 0.67492 0.0
C665 C 0.62007 0.54877 0.69659 0.0
C666 C 0.61168 0.56153 0.75258 0.0
C667 C 0.58358 0.58954 0.79847 0.0
C668 C 0.56621 0.60649 0.78754 0.0
C669 C 0.59552 0.57962 0.74252 0.0
C670 C 0.56255 0.61513 0.72093 0.0
C671 C 0.57409 0.60511 0.66492 0.0
H672 H 0.10225 0.44878 0.72384 0.0
H673 H 0.04974 0.49937 0.66643 0.0
H674 H 0.01942 0.47491 0.71478 0.0
H675 H 0.00764 0.44039 0.77646 0.0
H676 H 0.05839 0.38815 0.83301 0.0
H677 H 0.08961 0.4121 0.78253 0.0
C678 C 0.08413 0.45421 0.72114 0.0
C679 C 0.07833 0.47597 0.69179 0.0
C680 C 0.06652 0.44 0.74981 0.0
C681 C 0.05477 0.48283 0.68901 0.0
C682 C 0.03736 0.46889 0.71688 0.0
C683 C 0.02554 0.4342 0.77843 0.0
C684 C 0.03073 0.41268 0.80948 0.0
C685 C 0.04307 0.4477 0.74832 0.0
C686 C 0.05398 0.40479 0.81003 0.0
C687 C 0.07178 0.41844 0.7809 0.0
H688 H 0.08325 0.08049 0.09375 0.0
H689 H 0.03829 0.12155 0.22385 0.0
H690 H 0.06051 0.10945 0.32471 0.0
H691 H 0.08734 0.08065 0.37688 0.0
H692 H 0.13372 0.04125 0.24672 0.0
H693 H 0.11678 0.05961 0.1451 0.0
C694 C 0.0789 0.08747 0.1439 0.0
C695 C 0.05897 0.1016 0.15147 0.0
C696 C 0.09182 0.08046 0.20186 0.0
C697 C 0.05358 0.11068 0.2166 0.0
C698 C 0.06614 0.10355 0.27452 0.0
C699 C 0.09433 0.0768 0.3264 0.0
C700 C 0.11152 0.05942 0.3192 0.0
C701 C 0.08451 0.08748 0.26805 0.0
C702 C 0.12054 0.05463 0.25363 0.0
C703 C 0.11066 0.06493 0.19535 0.0
H704 H 0.39195 0.0589 0.73401 0.0
H705 H 0.43036 0.09093 0.56918 0.0
H706 H 0.44862 0.11799 0.6502 0.0
H707 H 0.46004 0.12616 0.76923 0.0
H708 H 0.42647 0.08928 0.93445 0.0
H709 H 0.39959 0.07096 0.853 0.0
C710 C 0.40358 0.07247 0.71566 0.0
C711 C 0.40975 0.07308 0.64585 0.0
C712 C 0.4152 0.08685 0.76323 0.0
C713 C 0.42529 0.09028 0.62271 0.0
C714 C 0.43588 0.10559 0.66915 0.0
C715 C 0.44619 0.11487 0.78756 0.0
C716 C 0.44511 0.10912 0.85765 0.0
C717 C 0.43192 0.10318 0.73987 0.0
C718 C 0.4275 0.09402 0.88072 0.0
C719 C 0.4123 0.08338 0.83403 0.0
H720 H 0.46017 0.39218 0.20026 0.0
H721 H 0.42669 0.42651 0.02986 0.0
H722 H 0.40194 0.44863 0.10904 0.0
H723 H 0.39612 0.46401 0.2258 0.0
H724 H 0.43477 0.4342 0.3941 0.0
H725 H 0.45088 0.40432 0.31784 0.0
C726 C 0.44676 0.40379 0.18057 0.0
C727 C 0.44505 0.40761 0.10947 0.0
C728 C 0.43384 0.41763 0.22653 0.0
C729 C 0.42812 0.42319 0.08444 0.0
C730 C 0.41417 0.436 0.12977 0.0
C731 C 0.40737 0.4504 0.24602 0.0
C732 C 0.41416 0.4511 0.31534 0.0
C733 C 0.41774 0.43425 0.20088 0.0
C734 C 0.42924 0.43383 0.3409 0.0
C735 C 0.43857 0.41687 0.29719 0.0
loop_
_geom_bond_atom_site_label_1
_geom_bond_atom_site_label_2
_geom_bond_distance
_geom_bond_site_symmetry_2
_ccdc_geom_bond_type
O0 Cd1 2.223 . S
O0 C8 1.315 . S
Cd1 O0 2.223 . S
Cd1 O4 2.297 . S
Cd1 O5 2.439 . S
Cd1 O11 2.240 . S
Cd2 O3 2.240 . S
Cd2 O10 2.223 . S
Cd2 O12 2.297 1_455 S
Cd2 O13 2.439 1_455 S
O3 Cd2 2.240 . S
O3 C8 1.279 . S
O4 Cd1 2.297 . S
O4 C6 1.247 . S
O5 Cd1 2.439 . S
O5 C6 1.208 . S
C6 O4 1.247 . S
C6 O5 1.208 . S
C7 O12 1.247 . S
C7 O13 1.208 . S
C8 O0 1.315 . S
C8 O3 1.279 . S
C9 O10 1.315 . S
C9 O11 1.279 . S
O10 Cd2 2.223 . S
O10 C9 1.315 . S
O11 Cd1 2.240 . S
O11 C9 1.279 . S
O12 Cd2 2.297 1_655 S
O12 C7 1.247 . S
O13 Cd2 2.439 1_655 S
O13 C7 1.208 . S
O14 Cd15 2.223 . S
O14 C22 1.315 . S
Cd15 O14 2.223 . S
Cd15 O18 2.297 . S
Cd15 O19 2.439 . S
Cd15 O25 2.240 . S
Cd16 O17 2.240 . S
Cd16 O24 2.223 . S
Cd16 O26 2.297 1_545 S
Cd16 O27 2.439 1_545 S
O17 Cd16 2.240 . S
O17 C22 1.279 . S
O18 Cd15 2.297 . S
O18 C20 1.247 . S
O19 Cd15 2.439 . S
O19 C20 1.208 . S
C20 O18 1.247 . S
C20 O19 1.208 . S
C21 O26 1.247 . S
C21 O27 1.208 . S
C22 O14 1.315 . S
C22 O17 1.279 . S
C23 O24 1.315 . S
C23 O25 1.279 . S
O24 Cd16 2.223 . S
O24 C23 1.315 . S
O25 Cd15 2.240 . S
O25 C23 1.279 . S
O26 Cd16 2.297 1_565 S
O26 C21 1.247 . S
O27 Cd16 2.439 1_565 S
O27 C21 1.208 . S
O28 Cd29 2.223 . S
O28 C36 1.315 . S
Cd29 O28 2.223 . S
Cd29 O32 2.297 . S
Cd29 O33 2.439 . S
Cd29 O39 2.240 . S
Cd30 O31 2.240 . S
Cd30 O38 2.223 . S
Cd30 O40 2.297 . S
Cd30 O41 2.439 . S
O31 Cd30 2.240 . S
O31 C36 1.279 . S
O32 Cd29 2.297 . S
O32 C34 1.247 . S
O33 Cd29 2.439 . S
O33 C34 1.208 . S
C34 O32 1.247 . S
C34 O33 1.208 . S
C35 O40 1.247 . S
C35 O41 1.208 . S
C36 O28 1.315 . S
C36 O31 1.279 . S
C37 O38 1.315 . S
C37 O39 1.279 . S
O38 Cd30 2.223 . S
O38 C37 1.315 . S
O39 Cd29 2.240 . S
O39 C37 1.279 . S
O40 Cd30 2.297 . S
O40 C35 1.247 . S
O41 Cd30 2.439 . S
O41 C35 1.208 . S
O42 Cd43 2.223 . S
O42 C50 1.315 . S
Cd43 O42 2.223 . S
Cd43 O46 2.297 . S
Cd43 O47 2.439 . S
Cd43 O53 2.240 . S
Cd44 O45 2.240 . S
Cd44 O52 2.223 . S
Cd44 O54 2.297 . S
Cd44 O55 2.439 . S
O45 Cd44 2.240 . S
O45 C50 1.279 . S
O46 Cd43 2.297 . S
O46 C48 1.247 . S
O47 Cd43 2.439 . S
O47 C48 1.208 . S
C48 O46 1.247 . S
C48 O47 1.208 . S
C49 O54 1.247 . S
C49 O55 1.208 . S
C50 O42 1.315 . S
C50 O45 1.279 . S
C51 O52 1.315 . S
C51 O53 1.279 . S
O52 Cd44 2.223 . S
O52 C51 1.315 . S
O53 Cd43 2.240 . S
O53 C51 1.279 . S
O54 Cd44 2.297 . S
O54 C49 1.247 . S
O55 Cd44 2.439 . S
O55 C49 1.208 . S
O56 Cd57 2.223 . S
O56 C64 1.315 . S
Cd57 O56 2.223 . S
Cd57 O60 2.297 . S
Cd57 O61 2.439 . S
Cd57 O67 2.240 . S
Cd58 O59 2.240 . S
Cd58 O66 2.223 . S
Cd58 O68 2.297 1_455 S
Cd58 O69 2.439 1_455 S
O59 Cd58 2.240 . S
O59 C64 1.279 . S
O60 Cd57 2.297 . S
O60 C62 1.247 . S
O61 Cd57 2.439 . S
O61 C62 1.208 . S
C62 O60 1.247 . S
C62 O61 1.208 . S
C63 O68 1.247 . S
C63 O69 1.208 . S
C64 O56 1.315 . S
C64 O59 1.279 . S
C65 O66 1.315 . S
C65 O67 1.279 . S
O66 Cd58 2.223 . S
O66 C65 1.315 . S
O67 Cd57 2.240 . S
O67 C65 1.279 . S
O68 Cd58 2.297 1_655 S
O68 C63 1.247 . S
O69 Cd58 2.439 1_655 S
O69 C63 1.208 . S
O70 Cd71 2.223 . S
O70 C78 1.315 . S
Cd71 O70 2.223 . S
Cd71 O74 2.297 . S
Cd71 O75 2.439 . S
Cd71 O81 2.240 . S
Cd72 O73 2.240 . S
Cd72 O80 2.223 . S
Cd72 O82 2.297 1_545 S
Cd72 O83 2.439 1_545 S
O73 Cd72 2.240 . S
O73 C78 1.279 . S
O74 Cd71 2.297 . S
O74 C76 1.247 . S
O75 Cd71 2.439 . S
O75 C76 1.208 . S
C76 O74 1.247 . S
C76 O75 1.208 . S
C77 O82 1.247 . S
C77 O83 1.208 . S
C78 O70 1.315 . S
C78 O73 1.279 . S
C79 O80 1.315 . S
C79 O81 1.279 . S
O80 Cd72 2.223 . S
O80 C79 1.315 . S
O81 Cd71 2.240 . S
O81 C79 1.279 . S
O82 Cd72 2.297 1_565 S
O82 C77 1.247 . S
O83 Cd72 2.439 1_565 S
O83 C77 1.208 . S
O84 Cd85 2.223 . S
O84 C92 1.315 . S
Cd85 O84 2.223 . S
Cd85 O88 2.297 . S
Cd85 O89 2.439 . S
Cd85 O95 2.240 . S
Cd86 O87 2.240 . S
Cd86 O94 2.223 . S
Cd86 O96 2.297 . S
Cd86 O97 2.439 . S
O87 Cd86 2.240 . S
O87 C92 1.279 . S
O88 Cd85 2.297 . S
O88 C90 1.247 . S
O89 Cd85 2.439 . S
O89 C90 1.208 . S
C90 O88 1.247 . S
C90 O89 1.208 . S
C91 O96 1.247 . S
C91 O97 1.208 . S
C92 O84 1.315 . S
C92 O87 1.279 . S
C93 O94 1.315 . S
C93 O95 1.279 . S
O94 Cd86 2.223 . S
O94 C93 1.315 . S
O95 Cd85 2.240 . S
O95 C93 1.279 . S
O96 Cd86 2.297 . S
O96 C91 1.247 . S
O97 Cd86 2.439 . S
O97 C91 1.208 . S
O98 Cd99 2.223 . S
O98 C106 1.315 . S
Cd99 O98 2.223 . S
Cd99 O102 2.297 . S
Cd99 O103 2.439 . S
Cd99 O109 2.240 . S
Cd100 O101 2.240 . S
Cd100 O108 2.223 . S
Cd100 O110 2.297 . S
Cd100 O111 2.439 . S
O101 Cd100 2.240 . S
O101 C106 1.279 . S
O102 Cd99 2.297 . S
O102 C104 1.247 . S
O103 Cd99 2.439 . S
O103 C104 1.208 . S
C104 O102 1.247 . S
C104 O103 1.208 . S
C105 O110 1.247 . S
C105 O111 1.208 . S
C106 O98 1.315 . S
C106 O101 1.279 . S
C107 O108 1.315 . S
C107 O109 1.279 . S
O108 Cd100 2.223 . S
O108 C107 1.315 . S
O109 Cd99 2.240 . S
O109 C107 1.279 . S
O110 Cd100 2.297 . S
O110 C105 1.247 . S
O111 Cd100 2.439 . S
O111 C105 1.208 . S
O112 Cd113 2.223 . S
O112 C120 1.315 . S
Cd113 O112 2.223 . S
Cd113 O116 2.297 . S
Cd113 O117 2.439 . S
Cd113 O123 2.240 . S
Cd114 O115 2.240 . S
Cd114 O122 2.223 . S
Cd114 O124 2.297 1_655 S
Cd114 O125 2.439 1_655 S
O115 Cd114 2.240 . S
O115 C120 1.279 . S
O116 Cd113 2.297 . S
O116 C118 1.247 . S
O117 Cd113 2.439 . S
O117 C118 1.208 . S
C118 O116 1.247 . S
C118 O117 1.208 . S
C119 O124 1.247 . S
C119 O125 1.208 . S
C120 O112 1.315 . S
C120 O115 1.279 . S
C121 O122 1.315 . S
C121 O123 1.279 . S
O122 Cd114 2.223 . S
O122 C121 1.315 . S
O123 Cd113 2.240 . S
O123 C121 1.279 . S
O124 Cd114 2.297 1_455 S
O124 C119 1.247 . S
O125 Cd114 2.439 1_455 S
O125 C119 1.208 . S
O126 Cd127 2.223 . S
O126 C134 1.315 . S
Cd127 O126 2.223 . S
Cd127 O130 2.297 . S
Cd127 O131 2.439 . S
Cd127 O137 2.240 . S
Cd128 O129 2.240 . S
Cd128 O136 2.223 . S
Cd128 O138 2.297 1_565 S
Cd128 O139 2.439 1_565 S
O129 Cd128 2.240 . S
O129 C134 1.279 . S
O130 Cd127 2.297 . S
O130 C132 1.247 . S
O131 Cd127 2.439 . S
O131 C132 1.208 . S
C132 O130 1.247 . S
C132 O131 1.208 . S
C133 O138 1.247 . S
C133 O139 1.208 . S
C134 O126 1.315 . S
C134 O129 1.279 . S
C135 O136 1.315 . S
C135 O137 1.279 . S
O136 Cd128 2.223 . S
O136 C135 1.315 . S
O137 Cd127 2.240 . S
O137 C135 1.279 . S
O138 Cd128 2.297 1_545 S
O138 C133 1.247 . S
O139 Cd128 2.439 1_545 S
O139 C133 1.208 . S
O140 Cd141 2.223 . S
O140 C148 1.315 . S
Cd141 O140 2.223 . S
Cd141 O144 2.297 . S
Cd141 O145 2.439 . S
Cd141 O151 2.240 . S
Cd142 O143 2.240 . S
Cd142 O150 2.223 . S
Cd142 O152 2.297 . S
Cd142 O153 2.439 . S
O143 Cd142 2.240 . S
O143 C148 1.279 . S
O144 Cd141 2.297 . S
O144 C146 1.247 . S
O145 Cd141 2.439 . S
O145 C146 1.208 . S
C146 O144 1.247 . S
C146 O145 1.208 . S
C147 O152 1.247 . S
C147 O153 1.208 . S
C148 O140 1.315 . S
C148 O143 1.279 . S
C149 O150 1.315 . S
C149 O151 1.279 . S
O150 Cd142 2.223 . S
O150 C149 1.315 . S
O151 Cd141 2.240 . S
O151 C149 1.279 . S
O152 Cd142 2.297 . S
O152 C147 1.247 . S
O153 Cd142 2.439 . S
O153 C147 1.208 . S
O154 Cd155 2.223 . S
O154 C162 1.315 . S
Cd155 O154 2.223 . S
Cd155 O158 2.297 . S
Cd155 O159 2.439 . S
Cd155 O165 2.240 . S
Cd156 O157 2.240 . S
Cd156 O164 2.223 . S
Cd156 O166 2.297 . S
Cd156 O167 2.439 . S
O157 Cd156 2.240 . S
O157 C162 1.279 . S
O158 Cd155 2.297 . S
O158 C160 1.247 . S
O159 Cd155 2.439 . S
O159 C160 1.208 . S
C160 O158 1.247 . S
C160 O159 1.208 . S
C161 O166 1.247 . S
C161 O167 1.208 . S
C162 O154 1.315 . S
C162 O157 1.279 . S
C163 O164 1.315 . S
C163 O165 1.279 . S
O164 Cd156 2.223 . S
O164 C163 1.315 . S
O165 Cd155 2.240 . S
O165 C163 1.279 . S
O166 Cd156 2.297 . S
O166 C161 1.247 . S
O167 Cd156 2.439 . S
O167 C161 1.208 . S
O168 Cd169 2.223 . S
O168 C176 1.315 . S
Cd169 O168 2.223 . S
Cd169 O172 2.297 . S
Cd169 O173 2.439 . S
Cd169 O179 2.240 . S
Cd170 O171 2.240 . S
Cd170 O178 2.223 . S
Cd170 O180 2.297 1_655 S
Cd170 O181 2.439 1_655 S
O171 Cd170 2.240 . S
O171 C176 1.279 . S
O172 Cd169 2.297 . S
O172 C174 1.247 . S
O173 Cd169 2.439 . S
O173 C174 1.208 . S
C174 O172 1.247 . S
C174 O173 1.208 . S
C175 O180 1.247 . S
C175 O181 1.208 . S
C176 O168 1.315 . S
C176 O171 1.279 . S
C177 O178 1.315 . S
C177 O179 1.279 . S
O178 Cd170 2.223 . S
O178 C177 1.315 . S
O179 Cd169 2.240 . S
O179 C177 1.279 . S
O180 Cd170 2.297 1_455 S
O180 C175 1.247 . S
O181 Cd170 2.439 1_455 S
O181 C175 1.208 . S
O182 Cd183 2.223 . S
O182 C190 1.315 . S
Cd183 O182 2.223 . S
Cd183 O186 2.297 . S
Cd183 O187 2.439 . S
Cd183 O193 2.240 . S
Cd184 O185 2.240 . S
Cd184 O192 2.223 . S
Cd184 O194 2.297 1_565 S
Cd184 O195 2.439 1_565 S
O185 Cd184 2.240 . S
O185 C190 1.279 . S
O186 Cd183 2.297 . S
O186 C188 1.247 . S
O187 Cd183 2.439 . S
O187 C188 1.208 . S
C188 O186 1.247 . S
C188 O187 1.208 . S
C189 O194 1.247 . S
C189 O195 1.208 . S
C190 O182 1.315 . S
C190 O185 1.279 . S
C191 O192 1.315 . S
C191 O193 1.279 . S
O192 Cd184 2.223 . S
O192 C191 1.315 . S
O193 Cd183 2.240 . S
O193 C191 1.279 . S
O194 Cd184 2.297 1_545 S
O194 C189 1.247 . S
O195 Cd184 2.439 1_545 S
O195 C189 1.208 . S
O196 Cd197 2.223 . S
O196 C204 1.315 . S
Cd197 O196 2.223 . S
Cd197 O200 2.297 . S
Cd197 O201 2.439 . S
Cd197 O207 2.240 . S
Cd198 O199 2.240 . S
Cd198 O206 2.223 . S
Cd198 O208 2.297 . S
Cd198 O209 2.439 . S
O199 Cd198 2.240 . S
O199 C204 1.279 . S
O200 Cd197 2.297 . S
O200 C202 1.247 . S
O201 Cd197 2.439 . S
O201 C202 1.208 . S
C202 O200 1.247 . S
C202 O201 1.208 . S
C203 O208 1.247 . S
C203 O209 1.208 . S
C204 O196 1.315 . S
C204 O199 1.279 . S
C205 O206 1.315 . S
C205 O207 1.279 . S
O206 Cd198 2.223 . S
O206 C205 1.315 . S
O207 Cd197 2.240 . S
O207 C205 1.279 . S
O208 Cd198 2.297 . S
O208 C203 1.247 . S
O209 Cd198 2.439 . S
O209 C203 1.208 . S
O210 Cd211 2.223 . S
O210 C218 1.315 . S
Cd211 O210 2.223 . S
Cd211 O214 2.297 . S
Cd211 O215 2.439 . S
Cd211 O221 2.240 . S
Cd212 O213 2.240 . S
Cd212 O220 2.223 . S
Cd212 O222 2.297 . S
Cd212 O223 2.439 . S
O213 Cd212 2.240 . S
O213 C218 1.279 . S
O214 Cd211 2.297 . S
O214 C216 1.247 . S
O215 Cd211 2.439 . S
O215 C216 1.208 . S
C216 O214 1.247 . S
C216 O215 1.208 . S
C217 O222 1.247 . S
C217 O223 1.208 . S
C218 O210 1.315 . S
C218 O213 1.279 . S
C219 O220 1.315 . S
C219 O221 1.279 . S
O220 Cd212 2.223 . S
O220 C219 1.315 . S
O221 Cd211 2.240 . S
O221 C219 1.279 . S
O222 Cd212 2.297 . S
O222 C217 1.247 . S
O223 Cd212 2.439 . S
O223 C217 1.208 . S
H224 C230 0.930 . S
H225 C233 0.930 . S
H226 C234 0.930 . S
H227 C235 0.930 . S
H228 C238 0.930 . S
H229 C239 0.930 . S
C230 H224 0.930 . S
C230 C231 1.355 1_556 S
C230 C232 1.415 . S
C231 C230 1.355 1_554 S
C231 C233 1.419 . S
C232 C230 1.415 . S
C232 C237 1.425 1_556 S
C232 C239 1.409 . S
C233 H225 0.930 . S
C233 C231 1.419 . S
C233 C234 1.362 . S
C234 H226 0.930 . S
C234 C233 1.362 . S
C234 C237 1.409 . S
C235 H227 0.930 . S
C235 C236 1.355 1_554 S
C235 C237 1.415 . S
C236 C235 1.355 1_556 S
C236 C238 1.419 . S
C237 C232 1.425 1_554 S
C237 C234 1.409 . S
C237 C235 1.415 . S
C238 H228 0.930 . S
C238 C236 1.419 . S
C238 C239 1.362 . S
C239 H229 0.930 . S
C239 C232 1.409 . S
C239 C238 1.362 . S
H240 C246 0.930 . S
H241 C249 0.930 . S
H242 C250 0.930 . S
H243 C251 0.930 . S
H244 C254 0.930 . S
H245 C255 0.930 . S
C246 H240 0.930 . S
C246 C247 1.355 . S
C246 C248 1.415 . S
C247 C246 1.355 . S
C247 C249 1.419 . S
C248 C246 1.415 . S
C248 C253 1.425 . S
C248 C255 1.409 . S
C249 H241 0.930 . S
C249 C247 1.419 . S
C249 C250 1.362 . S
C250 H242 0.930 . S
C250 C249 1.362 . S
C250 C253 1.409 . S
C251 H243 0.930 . S
C251 C252 1.355 . S
C251 C253 1.415 . S
C252 C251 1.355 . S
C252 C254 1.419 . S
C253 C248 1.425 . S
C253 C250 1.409 . S
C253 C251 1.415 . S
C254 H244 0.930 . S
C254 C252 1.419 . S
C254 C255 1.362 . S
C255 H245 0.930 . S
C255 C248 1.409 . S
C255 C254 1.362 . S
H256 C262 0.930 . S
H257 C265 0.930 . S
H258 C266 0.930 . S
H259 C267 0.930 . S
H260 C270 0.930 . S
H261 C271 0.930 . S
C262 H256 0.930 . S
C262 C263 1.355 . S
C262 C264 1.415 . S
C263 C262 1.355 . S
C263 C265 1.419 1_554 S
C264 C262 1.415 . S
C264 C269 1.425 1_554 S
C264 C271 1.409 . S
C265 H257 0.930 . S
C265 C263 1.419 1_556 S
C265 C266 1.362 . S
C266 H258 0.930 . S
C266 C265 1.362 . S
C266 C269 1.409 . S
C267 H259 0.930 . S
C267 C268 1.355 . S
C267 C269 1.415 . S
C268 C267 1.355 . S
C268 C270 1.419 1_556 S
C269 C264 1.425 1_556 S
C269 C266 1.409 . S
C269 C267 1.415 . S
C270 H260 0.930 . S
C270 C268 1.419 1_554 S
C270 C271 1.362 . S
C271 H261 0.930 . S
C271 C264 1.409 . S
C271 C270 1.362 . S
H272 C278 0.930 . S
H273 C281 0.930 . S
H274 C282 0.930 . S
H275 C283 0.930 . S
H276 C286 0.930 . S
H277 C287 0.930 . S
C278 H272 0.930 . S
C278 C279 1.355 . S
C278 C280 1.415 . S
C279 C278 1.355 . S
C279 C281 1.419 . S
C280 C278 1.415 . S
C280 C285 1.425 . S
C280 C287 1.409 . S
C281 H273 0.930 . S
C281 C279 1.419 . S
C281 C282 1.362 . S
C282 H274 0.930 . S
C282 C281 1.362 . S
C282 C285 1.409 . S
C283 H275 0.930 . S
C283 C284 1.355 . S
C283 C285 1.415 . S
C284 C283 1.355 . S
C284 C286 1.419 . S
C285 C280 1.425 . S
C285 C282 1.409 . S
C285 C283 1.415 . S
C286 H276 0.930 . S
C286 C284 1.419 . S
C286 C287 1.362 . S
C287 H277 0.930 . S
C287 C280 1.409 . S
C287 C286 1.362 . S
H288 C294 0.930 . S
H289 C297 0.929 . S
H290 C298 0.930 1_455 S
H291 C299 0.930 . S
H292 C302 0.930 . S
H293 C303 0.930 . S
C294 H288 0.930 . S
C294 C295 1.355 . S
C294 C296 1.415 . S
C295 C294 1.355 . S
C295 C297 1.419 1_556 S
C296 C294 1.415 . S
C296 C301 1.425 1_556 S
C296 C303 1.409 . S
C297 H289 0.929 . S
C297 C295 1.419 1_554 S
C297 C298 1.362 . S
C298 H290 0.930 1_655 S
C298 C297 1.362 . S
C298 C301 1.409 . S
C299 H291 0.930 . S
C299 C300 1.355 . S
C299 C301 1.415 . S
C300 C299 1.355 . S
C300 C302 1.419 1_554 S
C301 C296 1.425 1_554 S
C301 C298 1.409 . S
C301 C299 1.415 . S
C302 H292 0.930 . S
C302 C300 1.419 1_556 S
C302 C303 1.362 . S
C303 H293 0.930 . S
C303 C296 1.409 . S
C303 C302 1.362 . S
H304 C310 0.930 . S
H305 C313 0.930 . S
H306 C314 0.930 . S
H307 C315 0.930 . S
H308 C318 0.930 . S
H309 C319 0.930 . S
C310 H304 0.930 . S
C310 C311 1.355 . S
C310 C312 1.415 . S
C311 C310 1.355 . S
C311 C313 1.419 . S
C312 C310 1.415 . S
C312 C317 1.425 . S
C312 C319 1.409 . S
C313 H305 0.930 . S
C313 C311 1.419 . S
C313 C314 1.362 . S
C314 H306 0.930 . S
C314 C313 1.362 . S
C314 C317 1.409 . S
C315 H307 0.930 . S
C315 C316 1.355 . S
C315 C317 1.415 . S
C316 C315 1.355 . S
C316 C318 1.419 . S
C317 C312 1.425 . S
C317 C314 1.409 . S
C317 C315 1.415 . S
C318 H308 0.930 . S
C318 C316 1.419 . S
C318 C319 1.362 . S
C319 H309 0.930 . S
C319 C312 1.409 . S
C319 C318 1.362 . S
H320 C326 0.930 . S
H321 C329 0.930 . S
H322 C330 0.930 . S
H323 C331 0.930 . S
H324 C334 0.930 . S
H325 C335 0.930 . S
C326 H320 0.930 . S
C326 C327 1.355 . S
C326 C328 1.415 1_556 S
C327 C326 1.355 . S
C327 C329 1.419 . S
C328 C326 1.415 1_554 S
C328 C333 1.425 1_554 S
C328 C335 1.409 . S
C329 H321 0.930 . S
C329 C327 1.419 . S
C329 C330 1.362 . S
C330 H322 0.930 . S
C330 C329 1.362 . S
C330 C333 1.409 . S
C331 H323 0.930 . S
C331 C332 1.355 . S
C331 C333 1.415 1_554 S
C332 C331 1.355 . S
C332 C334 1.419 . S
C333 C328 1.425 1_556 S
C333 C330 1.409 . S
C333 C331 1.415 1_556 S
C334 H324 0.930 . S
C334 C332 1.419 . S
C334 C335 1.362 . S
C335 H325 0.930 . S
C335 C328 1.409 . S
C335 C334 1.362 . S
H336 C342 0.930 . S
H337 C345 0.930 . S
H338 C346 0.930 . S
H339 C347 0.930 . S
H340 C350 0.930 . S
H341 C351 0.930 . S
C342 H336 0.930 . S
C342 C343 1.355 . S
C342 C344 1.415 . S
C343 C342 1.355 . S
C343 C345 1.419 . S
C344 C342 1.415 . S
C344 C349 1.425 . S
C344 C351 1.409 . S
C345 H337 0.930 . S
C345 C343 1.419 . S
C345 C346 1.362 . S
C346 H338 0.930 . S
C346 C345 1.362 . S
C346 C349 1.409 . S
C347 H339 0.930 . S
C347 C348 1.355 . S
C347 C349 1.415 . S
C348 C347 1.355 . S
C348 C350 1.419 . S
C349 C344 1.425 . S
C349 C346 1.409 . S
C349 C347 1.415 . S
C350 H340 0.930 . S
C350 C348 1.419 . S
C350 C351 1.362 . S
C351 H341 0.930 . S
C351 C344 1.409 . S
C351 C350 1.362 . S
H352 C358 0.930 . S
H353 C361 0.930 . S
H354 C362 0.930 . S
H355 C363 0.930 . S
H356 C366 0.930 . S
H357 C367 0.930 . S
C358 H352 0.930 . S
C358 C359 1.355 . S
C358 C360 1.415 . S
C359 C358 1.355 . S
C359 C361 1.419 . S
C360 C358 1.415 . S
C360 C365 1.425 . S
C360 C367 1.409 . S
C361 H353 0.930 . S
C361 C359 1.419 . S
C361 C362 1.362 . S
C362 H354 0.930 . S
C362 C361 1.362 . S
C362 C365 1.409 . S
C363 H355 0.930 . S
C363 C364 1.355 . S
C363 C365 1.415 . S
C364 C363 1.355 . S
C364 C366 1.419 . S
C365 C360 1.425 . S
C365 C362 1.409 . S
C365 C363 1.415 . S
C366 H356 0.930 . S
C366 C364 1.419 . S
C366 C367 1.362 . S
C367 H357 0.930 . S
C367 C360 1.409 . S
C367 C366 1.362 . S
H368 C374 0.930 . S
H369 C377 0.930 . S
H370 C378 0.930 . S
H371 C379 0.930 . S
H372 C382 0.930 . S
H373 C383 0.930 . S
C374 H368 0.930 . S
C374 C375 1.355 . S
C374 C376 1.415 . S
C375 C374 1.355 . S
C375 C377 1.419 . S
C376 C374 1.415 . S
C376 C381 1.425 . S
C376 C383 1.409 . S
C377 H369 0.930 . S
C377 C375 1.419 . S
C377 C378 1.362 . S
C378 H370 0.930 . S
C378 C377 1.362 . S
C378 C381 1.409 . S
C379 H371 0.930 . S
C379 C380 1.355 . S
C379 C381 1.415 . S
C380 C379 1.355 . S
C380 C382 1.419 . S
C381 C376 1.425 . S
C381 C378 1.409 . S
C381 C379 1.415 . S
C382 H372 0.930 . S
C382 C380 1.419 . S
C382 C383 1.362 . S
C383 H373 0.930 . S
C383 C376 1.409 . S
C383 C382 1.362 . S
H384 C390 0.930 . S
H385 C393 0.930 . S
H386 C394 0.930 . S
H387 C395 0.930 . S
H388 C398 0.930 . S
H389 C399 0.930 . S
C390 H384 0.930 . S
C390 C391 1.355 . S
C390 C392 1.415 . S
C391 C390 1.355 . S
C391 C393 1.419 1_556 S
C392 C390 1.415 . S
C392 C397 1.425 . S
C392 C399 1.409 . S
C393 H385 0.930 . S
C393 C391 1.419 1_554 S
C393 C394 1.362 1_554 S
C394 H386 0.930 . S
C394 C393 1.362 1_556 S
C394 C397 1.409 . S
C395 H387 0.930 . S
C395 C396 1.355 . S
C395 C397 1.415 . S
C396 C395 1.355 . S
C396 C398 1.419 . S
C397 C392 1.425 . S
C397 C394 1.409 . S
C397 C395 1.415 . S
C398 H388 0.930 . S
C398 C396 1.419 . S
C398 C399 1.362 . S
C399 H389 0.930 . S
C399 C392 1.409 . S
C399 C398 1.362 . S
H400 C406 0.930 . S
H401 C409 0.930 . S
H402 C410 0.930 . S
H403 C411 0.930 . S
H404 C414 0.930 . S
H405 C415 0.930 . S
C406 H400 0.930 . S
C406 C407 1.355 . S
C406 C408 1.415 . S
C407 C406 1.355 . S
C407 C409 1.419 . S
C408 C406 1.415 . S
C408 C413 1.425 . S
C408 C415 1.409 . S
C409 H401 0.930 . S
C409 C407 1.419 . S
C409 C410 1.362 . S
C410 H402 0.930 . S
C410 C409 1.362 . S
C410 C413 1.409 . S
C411 H403 0.930 . S
C411 C412 1.355 . S
C411 C413 1.415 . S
C412 C411 1.355 . S
C412 C414 1.419 . S
C413 C408 1.425 . S
C413 C410 1.409 . S
C413 C411 1.415 . S
C414 H404 0.930 . S
C414 C412 1.419 . S
C414 C415 1.362 . S
C415 H405 0.930 . S
C415 C408 1.409 . S
C415 C414 1.362 . S
H416 C422 0.930 . S
H417 C425 0.930 . S
H418 C426 0.930 . S
H419 C427 0.930 1_556 S
H420 C430 0.930 . S
H421 C431 0.930 . S
C422 H416 0.930 . S
C422 C423 1.355 . S
C422 C424 1.415 . S
C423 C422 1.355 . S
C423 C425 1.419 . S
C424 C422 1.415 . S
C424 C429 1.425 . S
C424 C431 1.409 . S
C425 H417 0.930 . S
C425 C423 1.419 . S
C425 C426 1.362 . S
C426 H418 0.930 . S
C426 C425 1.362 . S
C426 C429 1.409 . S
C427 H419 0.930 1_554 S
C427 C428 1.355 . S
C427 C429 1.415 . S
C428 C427 1.355 . S
C428 C430 1.419 . S
C429 C424 1.425 . S
C429 C426 1.409 . S
C429 C427 1.415 . S
C430 H420 0.930 . S
C430 C428 1.419 . S
C430 C431 1.362 . S
C431 H421 0.930 . S
C431 C424 1.409 . S
C431 C430 1.362 . S
H432 C438 0.930 . S
H433 C441 0.930 . S
H434 C442 0.930 . S
H435 C443 0.930 . S
H436 C446 0.930 . S
H437 C447 0.930 . S
C438 H432 0.930 . S
C438 C439 1.355 . S
C438 C440 1.415 . S
C439 C438 1.355 . S
C439 C441 1.419 . S
C440 C438 1.415 . S
C440 C445 1.425 . S
C440 C447 1.409 . S
C441 H433 0.930 . S
C441 C439 1.419 . S
C441 C442 1.362 . S
C442 H434 0.930 . S
C442 C441 1.362 . S
C442 C445 1.409 . S
C443 H435 0.930 . S
C443 C444 1.355 . S
C443 C445 1.415 . S
C444 C443 1.355 . S
C444 C446 1.419 . S
C445 C440 1.425 . S
C445 C442 1.409 . S
C445 C443 1.415 . S
C446 H436 0.930 . S
C446 C444 1.419 . S
C446 C447 1.362 . S
C447 H437 0.930 . S
C447 C440 1.409 . S
C447 C446 1.362 . S
H448 C454 0.930 . S
H449 C457 0.930 . S
H450 C458 0.930 . S
H451 C459 0.930 . S
H452 C462 0.930 1_556 S
H453 C463 0.930 . S
C454 H448 0.930 . S
C454 C455 1.355 . S
C454 C456 1.415 . S
C455 C454 1.355 . S
C455 C457 1.419 . S
C456 C454 1.415 . S
C456 C461 1.425 . S
C456 C463 1.409 . S
C457 H449 0.930 . S
C457 C455 1.419 . S
C457 C458 1.362 . S
C458 H450 0.930 . S
C458 C457 1.362 . S
C458 C461 1.409 . S
C459 H451 0.930 . S
C459 C460 1.355 . S
C459 C461 1.415 . S
C460 C459 1.355 . S
C460 C462 1.419 . S
C461 C456 1.425 . S
C461 C458 1.409 . S
C461 C459 1.415 . S
C462 H452 0.930 1_554 S
C462 C460 1.419 . S
C462 C463 1.362 . S
C463 H453 0.930 . S
C463 C456 1.409 . S
C463 C462 1.362 . S
H464 C470 0.930 . S
H465 C473 0.930 . S
H466 C474 0.930 . S
H467 C475 0.930 . S
H468 C478 0.930 . S
H469 C479 0.930 . S
C470 H464 0.930 . S
C470 C471 1.355 . S
C470 C472 1.415 . S
C471 C470 1.355 . S
C471 C473 1.419 . S
C472 C470 1.415 . S
C472 C477 1.425 . S
C472 C479 1.409 . S
C473 H465 0.930 . S
C473 C471 1.419 . S
C473 C474 1.362 . S
C474 H466 0.930 . S
C474 C473 1.362 . S
C474 C477 1.409 . S
C475 H467 0.930 . S
C475 C476 1.355 . S
C475 C477 1.415 . S
C476 C475 1.355 . S
C476 C478 1.419 . S
C477 C472 1.425 . S
C477 C474 1.409 . S
C477 C475 1.415 . S
C478 H468 0.930 . S
C478 C476 1.419 . S
C478 C479 1.362 . S
C479 H469 0.930 . S
C479 C472 1.409 . S
C479 C478 1.362 . S
H480 C486 0.930 . S
H481 C489 0.930 . S
H482 C490 0.930 . S
H483 C491 0.930 . S
H484 C494 0.930 . S
H485 C495 0.930 . S
C486 H480 0.930 . S
C486 C487 1.355 . S
C486 C488 1.415 . S
C487 C486 1.355 . S
C487 C489 1.419 . S
C488 C486 1.415 . S
C488 C493 1.425 . S
C488 C495 1.409 . S
C489 H481 0.930 . S
C489 C487 1.419 . S
C489 C490 1.362 . S
C490 H482 0.930 . S
C490 C489 1.362 . S
C490 C493 1.409 . S
C491 H483 0.930 . S
C491 C492 1.355 . S
C491 C493 1.415 . S
C492 C491 1.355 . S
C492 C494 1.419 . S
C493 C488 1.425 . S
C493 C490 1.409 . S
C493 C491 1.415 . S
C494 H484 0.930 . S
C494 C492 1.419 . S
C494 C495 1.362 . S
C495 H485 0.930 . S
C495 C488 1.409 . S
C495 C494 1.362 . S
H496 C502 0.930 . S
H497 C505 0.930 . S
H498 C506 0.930 . S
H499 C507 0.930 . S
H500 C510 0.930 . S
H501 C511 0.930 . S
C502 H496 0.930 . S
C502 C503 1.355 . S
C502 C504 1.415 . S
C503 C502 1.355 . S
C503 C505 1.419 . S
C504 C502 1.415 . S
C504 C509 1.425 . S
C504 C511 1.409 . S
C505 H497 0.930 . S
C505 C503 1.419 . S
C505 C506 1.362 . S
C506 H498 0.930 . S
C506 C505 1.362 . S
C506 C509 1.409 . S
C507 H499 0.930 . S
C507 C508 1.355 . S
C507 C509 1.415 . S
C508 C507 1.355 . S
C508 C510 1.419 . S
C509 C504 1.425 . S
C509 C506 1.409 . S
C509 C507 1.415 . S
C510 H500 0.930 . S
C510 C508 1.419 . S
C510 C511 1.362 . S
C511 H501 0.930 . S
C511 C504 1.409 . S
C511 C510 1.362 . S
H512 C518 0.930 . S
H513 C521 0.930 . S
H514 C522 0.930 . S
H515 C523 0.930 . S
H516 C526 0.930 1_556 S
H517 C527 0.930 . S
C518 H512 0.930 . S
C518 C519 1.355 . S
C518 C520 1.415 . S
C519 C518 1.355 . S
C519 C521 1.419 . S
C520 C518 1.415 . S
C520 C525 1.425 . S
C520 C527 1.409 . S
C521 H513 0.930 . S
C521 C519 1.419 . S
C521 C522 1.362 . S
C522 H514 0.930 . S
C522 C521 1.362 . S
C522 C525 1.409 . S
C523 H515 0.930 . S
C523 C524 1.355 . S
C523 C525 1.415 . S
C524 C523 1.355 . S
C524 C526 1.419 . S
C525 C520 1.425 . S
C525 C522 1.409 . S
C525 C523 1.415 . S
C526 H516 0.930 1_554 S
C526 C524 1.419 . S
C526 C527 1.362 . S
C527 H517 0.930 . S
C527 C520 1.409 . S
C527 C526 1.362 . S
H528 C534 0.930 . S
H529 C537 0.930 . S
H530 C538 0.930 . S
H531 C539 0.930 . S
H532 C542 0.930 . S
H533 C543 0.930 . S
C534 H528 0.930 . S
C534 C535 1.355 . S
C534 C536 1.415 . S
C535 C534 1.355 . S
C535 C537 1.419 . S
C536 C534 1.415 . S
C536 C541 1.425 . S
C536 C543 1.409 . S
C537 H529 0.930 . S
C537 C535 1.419 . S
C537 C538 1.362 . S
C538 H530 0.930 . S
C538 C537 1.362 . S
C538 C541 1.409 . S
C539 H531 0.930 . S
C539 C540 1.355 . S
C539 C541 1.415 . S
C540 C539 1.355 . S
C540 C542 1.419 . S
C541 C536 1.425 . S
C541 C538 1.409 . S
C541 C539 1.415 . S
C542 H532 0.930 . S
C542 C540 1.419 . S
C542 C543 1.362 . S
C543 H533 0.930 . S
C543 C536 1.409 . S
C543 C542 1.362 . S
H544 C550 0.930 . S
H545 C553 0.930 . S
H546 C554 0.930 . S
H547 C555 0.930 . S
H548 C558 0.930 1_554 S
H549 C559 0.930 . S
C550 H544 0.930 . S
C550 C551 1.355 . S
C550 C552 1.415 . S
C551 C550 1.355 . S
C551 C553 1.419 . S
C552 C550 1.415 . S
C552 C557 1.425 . S
C552 C559 1.409 . S
C553 H545 0.930 . S
C553 C551 1.419 . S
C553 C554 1.362 . S
C554 H546 0.930 . S
C554 C553 1.362 . S
C554 C557 1.409 . S
C555 H547 0.930 . S
C555 C556 1.355 . S
C555 C557 1.415 . S
C556 C555 1.355 . S
C556 C558 1.419 . S
C557 C552 1.425 . S
C557 C554 1.409 . S
C557 C555 1.415 . S
C558 H548 0.930 1_556 S
C558 C556 1.419 . S
C558 C559 1.362 . S
C559 H549 0.930 . S
C559 C552 1.409 . S
C559 C558 1.362 . S
H560 C566 0.930 . S
H561 C569 0.930 . S
H562 C570 0.930 . S
H563 C571 0.930 . S
H564 C574 0.930 . S
H565 C575 0.930 . S
C566 H560 0.930 . S
C566 C567 1.355 . S
C566 C568 1.415 . S
C567 C566 1.355 . S
C567 C569 1.419 . S
C568 C566 1.415 . S
C568 C573 1.425 . S
C568 C575 1.409 . S
C569 H561 0.930 . S
C569 C567 1.419 . S
C569 C570 1.362 . S
C570 H562 0.930 . S
C570 C569 1.362 . S
C570 C573 1.409 . S
C571 H563 0.930 . S
C571 C572 1.355 . S
C571 C573 1.415 . S
C572 C571 1.355 . S
C572 C574 1.419 . S
C573 C568 1.425 . S
C573 C570 1.409 . S
C573 C571 1.415 . S
C574 H564 0.930 . S
C574 C572 1.419 . S
C574 C575 1.362 . S
C575 H565 0.930 . S
C575 C568 1.409 . S
C575 C574 1.362 . S
H576 C582 0.930 . S
H577 C585 0.930 1_554 S
H578 C586 0.930 . S
H579 C587 0.930 . S
H580 C590 0.930 . S
H581 C591 0.930 . S
C582 H576 0.930 . S
C582 C583 1.355 . S
C582 C584 1.415 . S
C583 C582 1.355 . S
C583 C585 1.419 . S
C584 C582 1.415 . S
C584 C589 1.425 . S
C584 C591 1.409 . S
C585 H577 0.930 1_556 S
C585 C583 1.419 . S
C585 C586 1.362 . S
C586 H578 0.930 . S
C586 C585 1.362 . S
C586 C589 1.409 . S
C587 H579 0.930 . S
C587 C588 1.355 . S
C587 C589 1.415 . S
C588 C587 1.355 . S
C588 C590 1.419 . S
C589 C584 1.425 . S
C589 C586 1.409 . S
C589 C587 1.415 . S
C590 H580 0.930 . S
C590 C588 1.419 . S
C590 C591 1.362 . S
C591 H581 0.930 . S
C591 C584 1.409 . S
C591 C590 1.362 . S
H592 C598 0.930 . S
H593 C601 0.930 . S
H594 C602 0.930 . S
H595 C603 0.930 . S
H596 C606 0.930 . S
H597 C607 0.930 . S
C598 H592 0.930 . S
C598 C599 1.355 . S
C598 C600 1.415 . S
C599 C598 1.355 . S
C599 C601 1.419 . S
C600 C598 1.415 . S
C600 C605 1.425 . S
C600 C607 1.409 . S
C601 H593 0.930 . S
C601 C599 1.419 . S
C601 C602 1.362 . S
C602 H594 0.930 . S
C602 C601 1.362 . S
C602 C605 1.409 . S
C603 H595 0.930 . S
C603 C604 1.355 . S
C603 C605 1.415 . S
C604 C603 1.355 . S
C604 C606 1.419 . S
C605 C600 1.425 . S
C605 C602 1.409 . S
C605 C603 1.415 . S
C606 H596 0.930 . S
C606 C604 1.419 . S
C606 C607 1.362 . S
C607 H597 0.930 . S
C607 C600 1.409 . S
C607 C606 1.362 . S
H608 C614 0.930 . S
H609 C617 0.930 . S
H610 C618 0.930 . S
H611 C619 0.930 . S
H612 C622 0.930 . S
H613 C623 0.930 . S
C614 H608 0.930 . S
C614 C615 1.355 . S
C614 C616 1.415 . S
C615 C614 1.355 . S
C615 C617 1.419 . S
C616 C614 1.415 . S
C616 C621 1.425 . S
C616 C623 1.409 . S
C617 H609 0.930 . S
C617 C615 1.419 . S
C617 C618 1.362 . S
C618 H610 0.930 . S
C618 C617 1.362 . S
C618 C621 1.409 . S
C619 H611 0.930 . S
C619 C620 1.355 . S
C619 C621 1.415 . S
C620 C619 1.355 . S
C620 C622 1.419 . S
C621 C616 1.425 . S
C621 C618 1.409 . S
C621 C619 1.415 . S
C622 H612 0.930 . S
C622 C620 1.419 . S
C622 C623 1.362 . S
C623 H613 0.930 . S
C623 C616 1.409 . S
C623 C622 1.362 . S
H624 C630 0.930 . S
H625 C633 0.930 . S
H626 C634 0.930 . S
H627 C635 0.930 . S
H628 C638 0.930 . S
H629 C639 0.930 . S
C630 H624 0.930 . S
C630 C631 1.355 . S
C630 C632 1.415 . S
C631 C630 1.355 . S
C631 C633 1.419 . S
C632 C630 1.415 . S
C632 C637 1.425 . S
C632 C639 1.409 . S
C633 H625 0.930 . S
C633 C631 1.419 . S
C633 C634 1.362 . S
C634 H626 0.930 . S
C634 C633 1.362 . S
C634 C637 1.409 . S
C635 H627 0.930 . S
C635 C636 1.355 . S
C635 C637 1.415 . S
C636 C635 1.355 . S
C636 C638 1.419 . S
C637 C632 1.425 . S
C637 C634 1.409 . S
C637 C635 1.415 . S
C638 H628 0.930 . S
C638 C636 1.419 . S
C638 C639 1.362 . S
C639 H629 0.930 . S
C639 C632 1.409 . S
C639 C638 1.362 . S
H640 C646 0.930 . S
H641 C649 0.930 . S
H642 C650 0.930 . S
H643 C651 0.930 . S
H644 C654 0.930 . S
H645 C655 0.930 . S
C646 H640 0.930 . S
C646 C647 1.355 . S
C646 C648 1.415 . S
C647 C646 1.355 . S
C647 C649 1.419 . S
C648 C646 1.415 . S
C648 C653 1.425 . S
C648 C655 1.409 . S
C649 H641 0.930 . S
C649 C647 1.419 . S
C649 C650 1.362 . S
C650 H642 0.930 . S
C650 C649 1.362 . S
C650 C653 1.409 . S
C651 H643 0.930 . S
C651 C652 1.355 . S
C651 C653 1.415 . S
C652 C651 1.355 . S
C652 C654 1.419 . S
C653 C648 1.425 . S
C653 C650 1.409 . S
C653 C651 1.415 . S
C654 H644 0.930 . S
C654 C652 1.419 . S
C654 C655 1.362 . S
C655 H645 0.930 . S
C655 C648 1.409 . S
C655 C654 1.362 . S
H656 C662 0.930 . S
H657 C665 0.930 . S
H658 C666 0.930 . S
H659 C667 0.930 . S
H660 C670 0.930 . S
H661 C671 0.930 . S
C662 H656 0.930 . S
C662 C663 1.355 . S
C662 C664 1.415 . S
C663 C662 1.355 . S
C663 C665 1.419 . S
C664 C662 1.415 . S
C664 C669 1.425 . S
C664 C671 1.409 . S
C665 H657 0.930 . S
C665 C663 1.419 . S
C665 C666 1.362 . S
C666 H658 0.930 . S
C666 C665 1.362 . S
C666 C669 1.409 . S
C667 H659 0.930 . S
C667 C668 1.355 . S
C667 C669 1.415 . S
C668 C667 1.355 . S
C668 C670 1.419 . S
C669 C664 1.425 . S
C669 C666 1.409 . S
C669 C667 1.415 . S
C670 H660 0.930 . S
C670 C668 1.419 . S
C670 C671 1.362 . S
C671 H661 0.930 . S
C671 C664 1.409 . S
C671 C670 1.362 . S
H672 C678 0.930 . S
H673 C681 0.930 . S
H674 C682 0.930 . S
H675 C683 0.930 . S
H676 C686 0.930 . S
H677 C687 0.930 . S
C678 H672 0.930 . S
C678 C679 1.355 . S
C678 C680 1.415 . S
C679 C678 1.355 . S
C679 C681 1.419 . S
C680 C678 1.415 . S
C680 C685 1.425 . S
C680 C687 1.409 . S
C681 H673 0.930 . S
C681 C679 1.419 . S
C681 C682 1.362 . S
C682 H674 0.930 . S
C682 C681 1.362 . S
C682 C685 1.409 . S
C683 H675 0.930 . S
C683 C684 1.355 . S
C683 C685 1.415 . S
C684 C683 1.355 . S
C684 C686 1.419 . S
C685 C680 1.425 . S
C685 C682 1.409 . S
C685 C683 1.415 . S
C686 H676 0.930 . S
C686 C684 1.419 . S
C686 C687 1.362 . S
C687 H677 0.930 . S
C687 C680 1.409 . S
C687 C686 1.362 . S
H688 C694 0.930 . S
H689 C697 0.930 . S
H690 C698 0.930 . S
H691 C699 0.930 . S
H692 C702 0.930 . S
H693 C703 0.930 . S
C694 H688 0.930 . S
C694 C695 1.355 . S
C694 C696 1.415 . S
C695 C694 1.355 . S
C695 C697 1.419 . S
C696 C694 1.415 . S
C696 C701 1.425 . S
C696 C703 1.409 . S
C697 H689 0.930 . S
C697 C695 1.419 . S
C697 C698 1.362 . S
C698 H690 0.930 . S
C698 C697 1.362 . S
C698 C701 1.409 . S
C699 H691 0.930 . S
C699 C700 1.355 . S
C699 C701 1.415 . S
C700 C699 1.355 . S
C700 C702 1.419 . S
C701 C696 1.425 . S
C701 C698 1.409 . S
C701 C699 1.415 . S
C702 H692 0.930 . S
C702 C700 1.419 . S
C702 C703 1.362 . S
C703 H693 0.930 . S
C703 C696 1.409 . S
C703 C702 1.362 . S
H704 C710 0.930 . S
H705 C713 0.930 . S
H706 C714 0.930 . S
H707 C715 0.930 . S
H708 C718 0.930 . S
H709 C719 0.930 . S
C710 H704 0.930 . S
C710 C711 1.355 . S
C710 C712 1.415 . S
C711 C710 1.355 . S
C711 C713 1.419 . S
C712 C710 1.415 . S
C712 C717 1.425 . S
C712 C719 1.409 . S
C713 H705 0.930 . S
C713 C711 1.419 . S
C713 C714 1.362 . S
C714 H706 0.930 . S
C714 C713 1.362 . S
C714 C717 1.409 . S
C715 H707 0.930 . S
C715 C716 1.355 . S
C715 C717 1.415 . S
C716 C715 1.355 . S
C716 C718 1.419 . S
C717 C712 1.425 . S
C717 C714 1.409 . S
C717 C715 1.415 . S
C718 H708 0.930 . S
C718 C716 1.419 . S
C718 C719 1.362 . S
C719 H709 0.930 . S
C719 C712 1.409 . S
C719 C718 1.362 . S
H720 C726 0.930 . S
H721 C729 0.930 . S
H722 C730 0.930 . S
H723 C731 0.930 . S
H724 C734 0.930 . S
H725 C735 0.930 . S
C726 H720 0.930 . S
C726 C727 1.355 . S
C726 C728 1.415 . S
C727 C726 1.355 . S
C727 C729 1.419 . S
C728 C726 1.415 . S
C728 C733 1.425 . S
C728 C735 1.409 . S
C729 H721 0.930 . S
C729 C727 1.419 . S
C729 C730 1.362 . S
C730 H722 0.930 . S
C730 C729 1.362 . S
C730 C733 1.409 . S
C731 H723 0.930 . S
C731 C732 1.355 . S
C731 C733 1.415 . S
C732 C731 1.355 . S
C732 C734 1.419 . S
C733 C728 1.425 . S
C733 C730 1.409 . S
C733 C731 1.415 . S
C734 H724 0.930 . S
C734 C732 1.419 . S
C734 C735 1.362 . S
C735 H725 0.930 . S
C735 C728 1.409 . S
C735 C734 1.362 . S
C231 C6 1.018 . S
C236 C62 1.070 . S
C247 C76 1.038 . S
C252 C20 1.045 . S
C263 C34 1.074 . S
C268 C90 1.078 . S
C279 C48 1.012 . S
C284 C104 1.085 . S
C295 C118 1.083 . S
C300 C174 1.068 . S
C311 C188 1.060 . S
C316 C132 1.025 . S
C327 C146 1.103 . S
C332 C202 1.016 . S
C343 C160 1.045 . S
C348 C216 1.037 . S
C359 C8 1.697 1_556 S
C364 C219 1.647 . S
C375 C177 1.648 . S
C380 C22 1.700 . S
C391 C36 1.704 1_556 S
C396 C191 1.681 . S
C407 C205 1.648 . S
C412 C50 1.697 . S
C423 C135 1.689 . S
C428 C64 1.697 1_554 S
C439 C149 1.647 . S
C444 C78 1.697 . S
C455 C163 1.685 . S
C460 C92 1.703 1_554 S
C471 C121 1.686 . S
C476 C106 1.703 . S
C487 C120 1.696 1_554 S
C492 C107 1.650 . S
C503 C65 1.651 . S
C508 C134 1.696 . S
C519 C79 1.663 . S
C524 C148 1.704 1_554 S
C535 C162 1.700 . S
C540 C93 1.692 . S
C551 C23 1.692 . S
C556 C176 1.699 1_556 S
C567 C190 1.701 . S
C572 C37 1.691 . S
C583 C204 1.701 1_556 S
C588 C51 1.650 . S
C599 C218 1.704 . S
C604 C9 1.672 . S
C615 C105 1.281 . S
C620 C7 1.364 . S
C631 C21 1.256 . S
C636 C63 1.350 . S
C647 C35 1.257 . S
C652 C77 1.313 . S
C663 C49 1.275 . S
C668 C91 1.363 . S
C679 C217 1.256 . S
C684 C119 1.350 . S
C695 C175 1.328 . S
C700 C133 1.346 . S
C711 C189 1.360 . S
C716 C147 1.267 . S
C727 C203 1.360 . S
C732 C161 1.267 . S
