# Generated by pormake.
# Topology whv, (6)-cn, num edge types: 1
# Building blocks:
#     Node 0, Type 0, BuildingBlock: VOLQOD_clean_sbu_1, # of connection points: 6
#     Node 1, Type 0, BuildingBlock: VOLQOD_clean_sbu_1, # of connection points: 6
#     Node 2, Type 0, BuildingBlock: VOLQOD_clean_sbu_1, # of connection points: 6
#     Node 3, Type 0, BuildingBlock: VOLQOD_clean_sbu_1, # of connection points: 6
#     Node 4, Type 0, BuildingBlock: VOLQOD_clean_sbu_1, # of connection points: 6
#     Node 5, Type 0, BuildingBlock: VOLQOD_clean_sbu_1, # of connection points: 6
#     Node 6, Type 0, BuildingBlock: VOLQOD_clean_sbu_1, # of connection points: 6
#     Node 7, Type 0, BuildingBlock: VOLQOD_clean_sbu_1, # of connection points: 6
#     Node 8, Type 0, BuildingBlock: VOLQOD_clean_sbu_1, # of connection points: 6
#     Node 9, Type 0, BuildingBlock: VOLQOD_clean_sbu_1, # of connection points: 6
#     Node 10, Type 0, BuildingBlock: VOLQOD_clean_sbu_1, # of connection points: 6
#     Node 11, Type 0, BuildingBlock: VOLQOD_clean_sbu_1, # of connection points: 6
#     Node 12, Type 0, BuildingBlock: VOLQOD_clean_sbu_1, # of connection points: 6
#     Node 13, Type 0, BuildingBlock: VOLQOD_clean_sbu_1, # of connection points: 6
#     Node 14, Type 0, BuildingBlock: VOLQOD_clean_sbu_1, # of connection points: 6
#     Node 15, Type 0, BuildingBlock: VOLQOD_clean_sbu_1, # of connection points: 6
#     Edge 16, Type (0, 0), BuildingBlock: XIVTED_clean_linker_0, # of connection points: 2
#     Edge 17, Type (0, 0), BuildingBlock: XIVTED_clean_linker_0, # of connection points: 2
#     Edge 18, Type (0, 0), BuildingBlock: XIVTED_clean_linker_0, # of connection points: 2
#     Edge 19, Type (0, 0), BuildingBlock: XIVTED_clean_linker_0, # of connection points: 2
#     Edge 20, Type (0, 0), BuildingBlock: XIVTED_clean_linker_0, # of connection points: 2
#     Edge 21, Type (0, 0), BuildingBlock: XIVTED_clean_linker_0, # of connection points: 2
#     Edge 22, Type (0, 0), BuildingBlock: XIVTED_clean_linker_0, # of connection points: 2
#     Edge 23, Type (0, 0), BuildingBlock: XIVTED_clean_linker_0, # of connection points: 2
#     Edge 24, Type (0, 0), BuildingBlock: XIVTED_clean_linker_0, # of connection points: 2
#     Edge 25, Type (0, 0), BuildingBlock: XIVTED_clean_linker_0, # of connection points: 2
#     Edge 26, Type (0, 0), BuildingBlock: XIVTED_clean_linker_0, # of connection points: 2
#     Edge 27, Type (0, 0), BuildingBlock: XIVTED_clean_linker_0, # of connection points: 2
#     Edge 28, Type (0, 0), BuildingBlock: XIVTED_clean_linker_0, # of connection points: 2
#     Edge 29, Type (0, 0), BuildingBlock: XIVTED_clean_linker_0, # of connection points: 2
#     Edge 30, Type (0, 0), BuildingBlock: XIVTED_clean_linker_0, # of connection points: 2
#     Edge 31, Type (0, 0), BuildingBlock: XIVTED_clean_linker_0, # of connection points: 2
#     Edge 32, Type (0, 0), BuildingBlock: XIVTED_clean_linker_0, # of connection points: 2
#     Edge 33, Type (0, 0), BuildingBlock: XIVTED_clean_linker_0, # of connection points: 2
#     Edge 34, Type (0, 0), BuildingBlock: XIVTED_clean_linker_0, # of connection points: 2
#     Edge 35, Type (0, 0), BuildingBlock: XIVTED_clean_linker_0, # of connection points: 2
#     Edge 36, Type (0, 0), BuildingBlock: XIVTED_clean_linker_0, # of connection points: 2
#     Edge 37, Type (0, 0), BuildingBlock: XIVTED_clean_linker_0, # of connection points: 2
#     Edge 38, Type (0, 0), BuildingBlock: XIVTED_clean_linker_0, # of connection points: 2
#     Edge 39, Type (0, 0), BuildingBlock: XIVTED_clean_linker_0, # of connection points: 2
#     Edge 40, Type (0, 0), BuildingBlock: XIVTED_clean_linker_0, # of connection points: 2
#     Edge 41, Type (0, 0), BuildingBlock: XIVTED_clean_linker_0, # of connection points: 2
#     Edge 42, Type (0, 0), BuildingBlock: XIVTED_clean_linker_0, # of connection points: 2
#     Edge 43, Type (0, 0), BuildingBlock: XIVTED_clean_linker_0, # of connection points: 2
#     Edge 44, Type (0, 0), BuildingBlock: XIVTED_clean_linker_0, # of connection points: 2
#     Edge 45, Type (0, 0), BuildingBlock: XIVTED_clean_linker_0, # of connection points: 2
#     Edge 46, Type (0, 0), BuildingBlock: XIVTED_clean_linker_0, # of connection points: 2
#     Edge 47, Type (0, 0), BuildingBlock: XIVTED_clean_linker_0, # of connection points: 2
#     Edge 48, Type (0, 0), BuildingBlock: XIVTED_clean_linker_0, # of connection points: 2
#     Edge 49, Type (0, 0), BuildingBlock: XIVTED_clean_linker_0, # of connection points: 2
#     Edge 50, Type (0, 0), BuildingBlock: XIVTED_clean_linker_0, # of connection points: 2
#     Edge 51, Type (0, 0), BuildingBlock: XIVTED_clean_linker_0, # of connection points: 2
#     Edge 52, Type (0, 0), BuildingBlock: XIVTED_clean_linker_0, # of connection points: 2
#     Edge 53, Type (0, 0), BuildingBlock: XIVTED_clean_linker_0, # of connection points: 2
#     Edge 54, Type (0, 0), BuildingBlock: XIVTED_clean_linker_0, # of connection points: 2
#     Edge 55, Type (0, 0), BuildingBlock: XIVTED_clean_linker_0, # of connection points: 2
#     Edge 56, Type (0, 0), BuildingBlock: XIVTED_clean_linker_0, # of connection points: 2
#     Edge 57, Type (0, 0), BuildingBlock: XIVTED_clean_linker_0, # of connection points: 2
#     Edge 58, Type (0, 0), BuildingBlock: XIVTED_clean_linker_0, # of connection points: 2
#     Edge 59, Type (0, 0), BuildingBlock: XIVTED_clean_linker_0, # of connection points: 2
#     Edge 60, Type (0, 0), BuildingBlock: XIVTED_clean_linker_0, # of connection points: 2
#     Edge 61, Type (0, 0), BuildingBlock: XIVTED_clean_linker_0, # of connection points: 2
#     Edge 62, Type (0, 0), BuildingBlock: XIVTED_clean_linker_0, # of connection points: 2
#     Edge 63, Type (0, 0), BuildingBlock: XIVTED_clean_linker_0, # of connection points: 2
# Relax obj value: 0.298
# Max RMSD: 0.250
# Mean RMSD: 0.250
data_MOF--net-whv--node1-VOLQOD_clean_sbu_1--edge1-XIVTED_clean_linker_0
_symmetry_space_group_name_H-M    P1
_symmetry_Int_Tables_number       1
_symmetry_cell_setting            triclinic
loop_
_symmetry_equiv_pos_as_xyz
'x, y, z'
_cell_length_a     54.656956
_cell_length_b     54.694862
_cell_length_c     27.186788
_cell_angle_alpha  90.047495
_cell_angle_beta   89.97222
_cell_angle_gamma 89.978492
loop_
_atom_site_label
_atom_site_type_symbol
_atom_site_fract_x
_atom_site_fract_y
_atom_site_fract_z
_atom_type_partial_charge
O0 O 0.29404 0.1875 0.9233 0.0
Zn1 Zn 0.30751 0.1623 0.96755 0.0
O2 O 0.31278 0.17671 0.03171 0.0
Zn3 Zn 0.34746 0.17522 0.04677 0.0
Zn4 Zn 0.30082 0.2099 0.03305 0.0
Zn5 Zn 0.29365 0.15881 0.07883 0.0
O6 O 0.35328 0.14845 0.09817 0.0
O7 O 0.31534 0.13503 0.1126 0.0
O8 O 0.33834 0.1506 0.93409 0.0
O9 O 0.36596 0.16501 0.98631 0.0
O10 O 0.3613 0.20938 0.06022 0.0
O11 O 0.32938 0.23196 0.03711 0.0
O12 O 0.28084 0.21705 0.09326 0.0
O13 O 0.2802 0.13787 0.96844 0.0
O14 O 0.27961 0.18099 0.13029 0.0
O15 O 0.26573 0.14177 0.04447 0.0
C16 C 0.2833 0.20787 0.92924 0.0
C17 C 0.33839 0.13353 0.11869 0.0
C18 C 0.35165 0.23008 0.05009 0.0
C19 C 0.36048 0.15518 0.94534 0.0
C20 C 0.27499 0.20378 0.12983 0.0
C21 C 0.26361 0.13402 0.00046 0.0
O22 O 0.28246 0.21833 0.9711 0.0
O23 O 0.54542 0.54735 0.16449 0.0
Zn24 Zn 0.57103 0.55983 0.20905 0.0
O25 O 0.55701 0.56511 0.27357 0.0
Zn26 Zn 0.55843 0.59988 0.28846 0.0
Zn27 Zn 0.52389 0.55274 0.27537 0.0
Zn28 Zn 0.57524 0.5462 0.32066 0.0
O29 O 0.58454 0.60578 0.34109 0.0
O30 O 0.59867 0.56809 0.35493 0.0
O31 O 0.58349 0.59054 0.17651 0.0
O32 O 0.56959 0.61851 0.22858 0.0
O33 O 0.52414 0.61347 0.30156 0.0
O34 O 0.50158 0.58103 0.28157 0.0
O35 O 0.51725 0.53202 0.33483 0.0
O36 O 0.59486 0.53193 0.20932 0.0
O37 O 0.55332 0.53164 0.37198 0.0
O38 O 0.59263 0.51851 0.28633 0.0
C39 C 0.52511 0.53651 0.17049 0.0
C40 C 0.59966 0.59112 0.36162 0.0
C41 C 0.50339 0.60341 0.29364 0.0
C42 C 0.57958 0.6128 0.18785 0.0
C43 C 0.53066 0.52637 0.37135 0.0
C44 C 0.59958 0.51587 0.24189 0.0
O45 O 0.51506 0.53505 0.21268 0.0
O46 O 0.18708 0.79525 0.41179 0.0
Zn47 Zn 0.17501 0.82083 0.45696 0.0
O48 O 0.17016 0.80653 0.52136 0.0
Zn49 Zn 0.13569 0.80875 0.53815 0.0
Zn50 Zn 0.1816 0.7731 0.5221 0.0
Zn51 Zn 0.19001 0.82408 0.56777 0.0
O52 O 0.13087 0.83577 0.58952 0.0
O53 O 0.16923 0.84815 0.60298 0.0
O54 O 0.144 0.83317 0.42516 0.0
O55 O 0.11674 0.8189 0.47832 0.0
O56 O 0.12147 0.77499 0.55339 0.0
O57 O 0.15275 0.75169 0.52954 0.0
O58 O 0.20273 0.76571 0.58059 0.0
O59 O 0.20295 0.8446 0.45667 0.0
O60 O 0.20432 0.80163 0.61821 0.0
O61 O 0.21772 0.84078 0.53243 0.0
C62 C 0.19698 0.77441 0.4167 0.0
C63 C 0.14628 0.85022 0.60984 0.0
C64 C 0.13072 0.75404 0.54385 0.0
C65 C 0.12192 0.82871 0.43719 0.0
C66 C 0.20896 0.77885 0.61713 0.0
C67 C 0.21971 0.84839 0.48833 0.0
O68 O 0.19817 0.76387 0.45842 0.0
O69 O 0.94168 0.43488 0.66472 0.0
Zn70 Zn 0.91488 0.4247 0.70878 0.0
O71 O 0.92782 0.42024 0.77428 0.0
Zn72 Zn 0.92394 0.38625 0.79427 0.0
Zn73 Zn 0.9614 0.43078 0.77685 0.0
Zn74 Zn 0.91033 0.44153 0.81739 0.0
O75 O 0.89609 0.38357 0.84558 0.0
O76 O 0.88404 0.4225 0.84851 0.0
O77 O 0.90178 0.3937 0.67884 0.0
O78 O 0.91336 0.36667 0.73513 0.0
O79 O 0.95732 0.37113 0.81103 0.0
O80 O 0.98174 0.40143 0.78662 0.0
O81 O 0.9684 0.45209 0.83514 0.0
O82 O 0.89212 0.45355 0.70484 0.0
O83 O 0.93195 0.45504 0.87033 0.0
O84 O 0.89565 0.46938 0.77981 0.0
C85 C 0.9625 0.44469 0.67088 0.0
C86 C 0.8809 0.4001 0.85931 0.0
C87 C 0.97863 0.37969 0.80185 0.0
C88 C 0.90462 0.37167 0.69287 0.0
C89 C 0.9549 0.4589 0.87072 0.0
C90 C 0.8885 0.47088 0.73536 0.0
O91 O 0.97208 0.4466 0.71342 0.0
O92 O 0.69134 0.80009 0.12942 0.0
Zn93 Zn 0.677 0.82494 0.08552 0.0
O94 O 0.67151 0.8105 0.02152 0.0
Zn95 Zn 0.63663 0.81148 0.00732 0.0
Zn96 Zn 0.68413 0.77752 0.01988 0.0
Zn97 Zn 0.69021 0.82875 0.97414 0.0
O98 O 0.63032 0.83761 0.95474 0.0
O99 O 0.66793 0.85197 0.94027 0.0
O100 O 0.64626 0.836 0.11964 0.0
O101 O 0.61819 0.82233 0.06763 0.0
O102 O 0.62326 0.77691 0.99534 0.0
O103 O 0.65602 0.75492 0.01594 0.0
O104 O 0.70404 0.77076 0.95936 0.0
O105 O 0.70349 0.85017 0.08404 0.0
O106 O 0.7045 0.80686 0.92247 0.0
O107 O 0.71803 0.84623 0.00815 0.0
C108 C 0.70222 0.77981 0.12335 0.0
C109 C 0.64485 0.8528 0.93395 0.0
C110 C 0.63355 0.75637 0.00425 0.0
C111 C 0.62399 0.83195 0.10865 0.0
C112 C 0.70953 0.78415 0.92275 0.0
C113 C 0.72004 0.85417 0.05205 0.0
O114 O 0.70282 0.76927 0.08156 0.0
O115 O 0.43909 0.43701 0.88339 0.0
Zn116 Zn 0.41375 0.42407 0.83869 0.0
O117 O 0.42815 0.41863 0.77457 0.0
Zn118 Zn 0.42693 0.38382 0.76023 0.0
Zn119 Zn 0.4612 0.4311 0.77302 0.0
Zn120 Zn 0.41003 0.43733 0.72706 0.0
O121 O 0.40016 0.37756 0.7088 0.0
O122 O 0.38653 0.41531 0.69353 0.0
O123 O 0.40142 0.39342 0.87168 0.0
O124 O 0.41662 0.36548 0.82099 0.0
O125 O 0.46131 0.37042 0.74649 0.0
O126 O 0.48361 0.40287 0.76763 0.0
O127 O 0.46797 0.45153 0.71315 0.0
O128 O 0.3897 0.45175 0.83762 0.0
O129 O 0.43202 0.45152 0.67551 0.0
O130 O 0.39264 0.46522 0.76075 0.0
C131 C 0.4594 0.44787 0.87754 0.0
C132 C 0.38517 0.39224 0.68788 0.0
C133 C 0.48198 0.38051 0.75517 0.0
C134 C 0.40622 0.37122 0.86128 0.0
C135 C 0.45466 0.45686 0.67628 0.0
C136 C 0.3853 0.46784 0.80493 0.0
O137 O 0.46967 0.44912 0.83553 0.0
O138 O 0.79686 0.18809 0.63892 0.0
Zn139 Zn 0.80797 0.16179 0.5944 0.0
O140 O 0.81366 0.17534 0.52969 0.0
Zn141 Zn 0.84838 0.1729 0.51477 0.0
Zn142 Zn 0.80238 0.20885 0.52768 0.0
Zn143 Zn 0.79426 0.15744 0.48275 0.0
O144 O 0.8536 0.14692 0.46169 0.0
O145 O 0.81559 0.13366 0.44769 0.0
O146 O 0.83817 0.14805 0.62669 0.0
O147 O 0.86651 0.16109 0.57455 0.0
O148 O 0.86321 0.20666 0.50224 0.0
O149 O 0.8313 0.23024 0.52078 0.0
O150 O 0.78146 0.21581 0.4688 0.0
O151 O 0.77917 0.13915 0.59449 0.0
O152 O 0.77998 0.1797 0.4319 0.0
O153 O 0.76618 0.14067 0.51712 0.0
C154 C 0.78701 0.2089 0.63297 0.0
C155 C 0.8386 0.13225 0.44082 0.0
C156 C 0.85372 0.22772 0.50948 0.0
C157 C 0.86053 0.15126 0.61525 0.0
C158 C 0.77526 0.20247 0.43254 0.0
C159 C 0.76318 0.13435 0.56182 0.0
O160 O 0.78562 0.21879 0.59067 0.0
O161 O 0.04894 0.54355 0.38372 0.0
Zn162 Zn 0.07351 0.55786 0.33898 0.0
O163 O 0.05884 0.56255 0.27494 0.0
Zn164 Zn 0.05964 0.59715 0.25904 0.0
Zn165 Zn 0.0259 0.5499 0.27426 0.0
Zn166 Zn 0.07701 0.54347 0.22812 0.0
O167 O 0.08611 0.60307 0.20694 0.0
O168 O 0.10018 0.56531 0.19325 0.0
O169 O 0.0842 0.58911 0.37177 0.0
O170 O 0.06954 0.61634 0.31905 0.0
O171 O 0.02519 0.60997 0.24468 0.0
O172 O 0.00319 0.57792 0.26922 0.0
O173 O 0.01901 0.5295 0.2146 0.0
O174 O 0.09901 0.53154 0.33818 0.0
O175 O 0.05503 0.5287 0.17726 0.0
O176 O 0.09464 0.51617 0.26302 0.0
C177 C 0.02878 0.53239 0.37809 0.0
C178 C 0.10118 0.58832 0.1864 0.0
C179 C 0.00465 0.60001 0.25499 0.0
C180 C 0.07937 0.61114 0.36017 0.0
C181 C 0.03231 0.52369 0.17802 0.0
C182 C 0.10287 0.51468 0.30677 0.0
O183 O 0.01809 0.53152 0.3365 0.0
O184 O 0.79599 0.68892 0.41201 0.0
Zn185 Zn 0.80819 0.66315 0.45645 0.0
O186 O 0.81365 0.6773 0.52076 0.0
Zn187 Zn 0.8484 0.67576 0.53505 0.0
Zn188 Zn 0.80169 0.71051 0.52281 0.0
Zn189 Zn 0.79487 0.65914 0.56808 0.0
O190 O 0.85456 0.64909 0.58602 0.0
O191 O 0.81683 0.63542 0.60141 0.0
O192 O 0.83874 0.65032 0.42355 0.0
O193 O 0.86661 0.66551 0.47433 0.0
O194 O 0.86232 0.70962 0.54957 0.0
O195 O 0.83021 0.73252 0.52916 0.0
O196 O 0.781 0.71719 0.58236 0.0
O197 O 0.78006 0.63967 0.45711 0.0
O198 O 0.78077 0.68118 0.61971 0.0
O199 O 0.76685 0.64203 0.53429 0.0
C200 C 0.7857 0.70953 0.41786 0.0
C201 C 0.83993 0.63407 0.60687 0.0
C202 C 0.85254 0.73046 0.54152 0.0
C203 C 0.86094 0.65511 0.43405 0.0
C204 C 0.77553 0.70384 0.61906 0.0
C205 C 0.76404 0.63511 0.48989 0.0
O206 O 0.78442 0.71969 0.45998 0.0
O207 O 0.05148 0.04311 0.66356 0.0
Zn208 Zn 0.07553 0.05771 0.70933 0.0
O209 O 0.06044 0.06162 0.77332 0.0
Zn210 Zn 0.05994 0.09608 0.79047 0.0
Zn211 Zn 0.02798 0.04787 0.77317 0.0
Zn212 Zn 0.07897 0.04298 0.82007 0.0
O213 O 0.08596 0.10259 0.84315 0.0
O214 O 0.1015 0.06531 0.85552 0.0
O215 O 0.08551 0.08961 0.67789 0.0
O216 O 0.0695 0.11584 0.73126 0.0
O217 O 0.025 0.10771 0.8046 0.0
O218 O 0.00427 0.07495 0.77931 0.0
O219 O 0.02158 0.02676 0.83186 0.0
O220 O 0.10166 0.03192 0.71 0.0
O221 O 0.05722 0.02761 0.87056 0.0
O222 O 0.09721 0.01618 0.7848 0.0
C223 C 0.03154 0.03149 0.66865 0.0
C224 C 0.10159 0.08828 0.86321 0.0
C225 C 0.00487 0.097 0.7941 0.0
C226 C 0.07978 0.11135 0.69022 0.0
C227 C 0.03476 0.0216 0.86895 0.0
C228 C 0.10563 0.01498 0.74115 0.0
O229 O 0.0208 0.03004 0.71013 0.0
O230 O 0.69418 0.30103 0.92268 0.0
Zn231 Zn 0.67796 0.3248 0.96704 0.0
O232 O 0.67144 0.30852 0.02914 0.0
Zn233 Zn 0.63665 0.30957 0.04242 0.0
Zn234 Zn 0.68373 0.27547 0.02944 0.0
Zn235 Zn 0.6894 0.3255 0.07877 0.0
O236 O 0.62977 0.33614 0.09378 0.0
O237 O 0.66739 0.34947 0.11123 0.0
O238 O 0.64718 0.33521 0.93113 0.0
O239 O 0.61908 0.31971 0.98105 0.0
O240 O 0.62311 0.27525 0.05487 0.0
O241 O 0.65533 0.25307 0.03159 0.0
O242 O 0.70321 0.26764 0.09018 0.0
O243 O 0.70361 0.35118 0.97362 0.0
O244 O 0.7021 0.3029 0.13024 0.0
O245 O 0.71822 0.34202 0.0476 0.0
C246 C 0.70404 0.28013 0.9275 0.0
C247 C 0.64425 0.35103 0.11557 0.0
C248 C 0.63299 0.2547 0.04433 0.0
C249 C 0.62498 0.32989 0.9407 0.0
C250 C 0.70763 0.28035 0.12837 0.0
C251 C 0.72041 0.35254 0.00607 0.0
O252 O 0.70284 0.26829 0.96778 0.0
O253 O 0.43666 0.93727 0.1623 0.0
Zn254 Zn 0.4115 0.92422 0.20747 0.0
O255 O 0.42599 0.91952 0.27177 0.0
Zn256 Zn 0.4254 0.88487 0.28742 0.0
Zn257 Zn 0.45883 0.93244 0.27293 0.0
Zn258 Zn 0.40763 0.93831 0.31878 0.0
O259 O 0.39912 0.87864 0.33963 0.0
O260 O 0.38463 0.91622 0.35348 0.0
O261 O 0.39967 0.89303 0.1756 0.0
O262 O 0.41517 0.86588 0.22756 0.0
O263 O 0.45991 0.87204 0.30135 0.0
O264 O 0.48171 0.9047 0.27958 0.0
O265 O 0.4653 0.95355 0.33182 0.0
O266 O 0.38695 0.95152 0.20789 0.0
O267 O 0.42942 0.95325 0.36972 0.0
O268 O 0.38985 0.96564 0.28432 0.0
C269 C 0.45688 0.94835 0.168 0.0
C270 C 0.38389 0.8932 0.36022 0.0
C271 C 0.48041 0.88244 0.29272 0.0
C272 C 0.40473 0.87101 0.18703 0.0
C273 C 0.45196 0.95896 0.3686 0.0
C274 C 0.38242 0.96783 0.24013 0.0
O275 O 0.46711 0.94989 0.20997 0.0
O276 O 0.18713 0.29676 0.64147 0.0
Zn277 Zn 0.17454 0.32238 0.59716 0.0
O278 O 0.1695 0.30825 0.53259 0.0
Zn279 Zn 0.13489 0.31007 0.51677 0.0
Zn280 Zn 0.18132 0.27497 0.53087 0.0
Zn281 Zn 0.18892 0.3262 0.48606 0.0
O282 O 0.12953 0.33701 0.46563 0.0
O283 O 0.16762 0.35008 0.45163 0.0
O284 O 0.14353 0.33418 0.63 0.0
O285 O 0.1161 0.31985 0.57725 0.0
O286 O 0.12107 0.2762 0.50103 0.0
O287 O 0.1528 0.25314 0.52317 0.0
O288 O 0.20243 0.26813 0.47213 0.0
O289 O 0.20238 0.34636 0.59743 0.0
O290 O 0.20334 0.30412 0.43486 0.0
O291 O 0.21669 0.34296 0.52119 0.0
C292 C 0.19725 0.27606 0.63584 0.0
C293 C 0.14461 0.35175 0.44517 0.0
C294 C 0.13068 0.25531 0.50944 0.0
C295 C 0.12142 0.32954 0.61846 0.0
C296 C 0.20836 0.28142 0.43565 0.0
C297 C 0.21896 0.35034 0.56543 0.0
O298 O 0.19828 0.2657 0.59391 0.0
O299 O 0.93945 0.93726 0.38115 0.0
Zn300 Zn 0.91372 0.92547 0.33606 0.0
O301 O 0.92775 0.92058 0.27155 0.0
Zn302 Zn 0.92569 0.88602 0.25518 0.0
Zn303 Zn 0.96116 0.93205 0.2706 0.0
Zn304 Zn 0.90995 0.94043 0.22536 0.0
O305 O 0.89907 0.88116 0.20309 0.0
O306 O 0.88618 0.91936 0.18983 0.0
O307 O 0.90102 0.89475 0.36761 0.0
O308 O 0.91507 0.86712 0.31495 0.0
O309 O 0.95957 0.87183 0.24051 0.0
O310 O 0.98277 0.90336 0.26311 0.0
O311 O 0.9684 0.95306 0.21216 0.0
O312 O 0.88996 0.95328 0.33671 0.0
O313 O 0.9324 0.95481 0.17485 0.0
O314 O 0.89288 0.96809 0.26085 0.0
C315 C 0.96024 0.94726 0.37591 0.0
C316 C 0.88449 0.89641 0.18267 0.0
C317 C 0.98051 0.88125 0.2494 0.0
C318 C 0.90516 0.8726 0.35587 0.0
C319 C 0.95522 0.95933 0.17575 0.0
C320 C 0.88561 0.96996 0.30525 0.0
O321 O 0.97055 0.94867 0.33398 0.0
O322 O 0.29324 0.68346 0.12924 0.0
Zn323 Zn 0.30775 0.65907 0.08425 0.0
O324 O 0.31253 0.67408 0.02049 0.0
Zn325 Zn 0.34716 0.67371 0.00492 0.0
Zn326 Zn 0.29954 0.70688 0.02008 0.0
Zn327 Zn 0.294 0.65586 0.97302 0.0
O328 O 0.35373 0.64726 0.95317 0.0
O329 O 0.31624 0.63263 0.93903 0.0
O330 O 0.33907 0.64844 0.11726 0.0
O331 O 0.36608 0.66402 0.06508 0.0
O332 O 0.35979 0.70825 0.99125 0.0
O333 O 0.3274 0.72986 0.01561 0.0
O334 O 0.27922 0.71363 0.96018 0.0
O335 O 0.28138 0.6336 0.08263 0.0
O336 O 0.27956 0.67785 0.92185 0.0
O337 O 0.26644 0.63828 0.00719 0.0
C338 C 0.28205 0.70363 0.12401 0.0
C339 C 0.33932 0.63187 0.93269 0.0
C340 C 0.34959 0.72864 0.00178 0.0
C341 C 0.36102 0.65387 0.10593 0.0
C342 C 0.27406 0.70044 0.92303 0.0
C343 C 0.26466 0.62995 0.0508 0.0
O344 O 0.28114 0.71446 0.08257 0.0
O345 O 0.5436 0.04735 0.88121 0.0
Zn346 Zn 0.56901 0.06023 0.83651 0.0
O347 O 0.55484 0.065 0.77202 0.0
Zn348 Zn 0.55596 0.0996 0.75614 0.0
Zn349 Zn 0.52179 0.05263 0.77064 0.0
Zn350 Zn 0.57311 0.04581 0.72546 0.0
O351 O 0.5823 0.10534 0.70381 0.0
O352 O 0.59656 0.06758 0.69097 0.0
O353 O 0.58103 0.09129 0.86855 0.0
O354 O 0.56656 0.11859 0.81576 0.0
O355 O 0.52162 0.11301 0.74288 0.0
O356 O 0.49934 0.08082 0.76544 0.0
O357 O 0.51504 0.03217 0.711 0.0
O358 O 0.59337 0.03281 0.83658 0.0
O359 O 0.5512 0.03125 0.6742 0.0
O360 O 0.59042 0.01826 0.76048 0.0
C361 C 0.52344 0.03622 0.87516 0.0
C362 C 0.59751 0.09056 0.68378 0.0
C363 C 0.50099 0.10308 0.75241 0.0
C364 C 0.5766 0.11337 0.85665 0.0
C365 C 0.52846 0.02633 0.67461 0.0
C366 C 0.59777 0.01626 0.80478 0.0
O367 O 0.51336 0.0347 0.83303 0.0
H368 H 0.22731 0.11181 0.05457 0.0
H369 H 0.12697 0.13041 0.84657 0.0
H370 H 0.24481 0.13694 0.9082 0.0
H371 H 0.12345 0.06808 0.94343 0.0
H372 H 0.16641 0.14163 0.88349 0.0
H373 H 0.1855 0.10248 0.0264 0.0
C374 C 0.22246 0.11506 0.01651 0.0
C375 C 0.23962 0.12487 0.98354 0.0
C376 C 0.15673 0.12573 0.89709 0.0
C377 C 0.19192 0.11537 0.95207 0.0
C378 C 0.13417 0.11952 0.87653 0.0
C379 C 0.1221 0.09828 0.89196 0.0
C380 C 0.16691 0.11086 0.93389 0.0
C381 C 0.13235 0.08455 0.93045 0.0
C382 C 0.19866 0.10991 0.00065 0.0
C383 C 0.23232 0.12904 0.93472 0.0
N384 N 0.15424 0.09105 0.95014 0.0
N385 N 0.20895 0.12455 0.92063 0.0
H386 H 0.60343 0.37764 0.09358 0.0
H387 H 0.62219 0.48034 0.29718 0.0
H388 H 0.6637 0.37376 0.19569 0.0
H389 H 0.59674 0.49609 0.15023 0.0
H390 H 0.63142 0.43827 0.27098 0.0
H391 H 0.59285 0.41802 0.12686 0.0
C392 C 0.61401 0.385 0.12386 0.0
C393 C 0.63448 0.37247 0.14191 0.0
C394 C 0.62397 0.4511 0.2446 0.0
C395 C 0.62265 0.41843 0.17966 0.0
C396 C 0.61886 0.47507 0.25936 0.0
C397 C 0.60891 0.4918 0.22573 0.0
C398 C 0.6184 0.44375 0.19642 0.0
C399 C 0.6047 0.48393 0.17726 0.0
C400 C 0.60817 0.40811 0.14235 0.0
C401 C 0.64782 0.38296 0.18071 0.0
N402 N 0.60918 0.4604 0.16424 0.0
N403 N 0.6417 0.4054 0.19834 0.0
H404 H 0.3631 0.91243 0.44254 0.0
H405 H 0.23756 0.84734 0.39488 0.0
H406 H 0.3563 0.85309 0.33891 0.0
H407 H 0.25687 0.86882 0.54275 0.0
H408 H 0.2794 0.85586 0.36868 0.0
H409 H 0.3231 0.90153 0.47726 0.0
C410 C 0.35338 0.89677 0.42788 0.0
C411 C 0.36293 0.88353 0.38802 0.0
C412 C 0.2744 0.8588 0.40679 0.0
C413 C 0.31708 0.87172 0.42603 0.0
C414 C 0.25045 0.85432 0.4217 0.0
C415 C 0.24367 0.85749 0.47112 0.0
C416 C 0.29161 0.86699 0.44124 0.0
C417 C 0.26133 0.8662 0.50431 0.0
C418 C 0.33061 0.89067 0.44753 0.0
C419 C 0.34963 0.86356 0.36997 0.0
N420 N 0.28454 0.8708 0.4887 0.0
N421 N 0.32709 0.85854 0.3885 0.0
H422 H 0.82034 0.61179 0.68722 0.0
H423 H 0.89136 0.48869 0.64201 0.0
H424 H 0.88057 0.60725 0.58504 0.0
H425 H 0.86586 0.5073 0.78764 0.0
H426 H 0.88148 0.53011 0.61469 0.0
H427 H 0.83211 0.57193 0.72104 0.0
C428 C 0.83631 0.60257 0.67258 0.0
C429 C 0.84961 0.61276 0.63349 0.0
C430 C 0.87798 0.52504 0.65255 0.0
C431 C 0.8625 0.56706 0.67059 0.0
C432 C 0.88326 0.50135 0.66802 0.0
C433 C 0.8793 0.49455 0.71714 0.0
C434 C 0.86821 0.54188 0.68615 0.0
C435 C 0.86915 0.51183 0.74945 0.0
C436 C 0.84293 0.57988 0.69174 0.0
C437 C 0.87003 0.60008 0.61551 0.0
N438 N 0.86379 0.53473 0.7333 0.0
N439 N 0.87562 0.57762 0.63365 0.0
H440 H 0.73719 0.85497 0.14596 0.0
H441 H 0.86413 0.91709 0.10125 0.0
H442 H 0.75781 0.87344 -0.00286 0.0
H443 H 0.85583 0.85683 0.20211 0.0
H444 H 0.82403 0.90726 0.06552 0.0
H445 H 0.77893 0.86329 0.1726 0.0
C446 C 0.75033 0.86128 0.11896 0.0
C447 C 0.74394 0.86356 0.06914 0.0
C448 C 0.83124 0.89599 0.09488 0.0
C449 C 0.79181 0.87289 0.09968 0.0
C450 C 0.85405 0.90149 0.11514 0.0
C451 C 0.86323 0.88765 0.1545 0.0
C452 C 0.8173 0.87707 0.11533 0.0
C453 C 0.84947 0.86777 0.1715 0.0
C454 C 0.77423 0.86565 0.13419 0.0
C455 C 0.76196 0.87148 0.03587 0.0
N456 N 0.82691 0.86336 0.15244 0.0
N457 N 0.78515 0.87601 0.0518 0.0
H458 H 0.36255 0.5032 0.74939 0.0
H459 H 0.38108 0.60628 0.95202 0.0
H460 H 0.38817 0.48778 0.89635 0.0
H461 H 0.31931 0.60886 0.85345 0.0
H462 H 0.39213 0.56619 0.9179 0.0
H463 H 0.353 0.54526 0.7755 0.0
C464 C 0.36586 0.50855 0.78718 0.0
C465 C 0.37591 0.49191 0.82088 0.0
C466 C 0.37638 0.57578 0.90333 0.0
C467 C 0.36612 0.53991 0.85002 0.0
C468 C 0.37027 0.59872 0.92229 0.0
C469 C 0.34924 0.61076 0.90554 0.0
C470 C 0.36162 0.56517 0.86682 0.0
C471 C 0.33561 0.60002 0.86742 0.0
C472 C 0.36057 0.53249 0.80187 0.0
C473 C 0.38011 0.49986 0.86929 0.0
N474 N 0.34201 0.57776 0.8493 0.0
N475 N 0.37548 0.52337 0.88224 0.0
H476 H 0.61951 0.0702 0.60373 0.0
H477 H 0.74372 0.13716 0.6538 0.0
H478 H 0.62447 0.13132 0.70356 0.0
H479 H 0.72688 0.11288 0.50644 0.0
H480 H 0.70156 0.1289 0.67793 0.0
H481 H 0.65979 0.08096 0.5702 0.0
C482 C 0.62888 0.0862 0.61779 0.0
C483 C 0.61873 0.09998 0.65632 0.0
C484 C 0.70716 0.1253 0.64038 0.0
C485 C 0.66489 0.11168 0.61962 0.0
C486 C 0.7313 0.12964 0.62668 0.0
C487 C 0.73889 0.12559 0.57799 0.0
C488 C 0.69054 0.11637 0.60553 0.0
C489 C 0.7218 0.11619 0.54436 0.0
C490 C 0.65181 0.09223 0.59879 0.0
C491 C 0.6316 0.1204 0.67357 0.0
N492 N 0.69837 0.11173 0.55884 0.0
N493 N 0.6543 0.12536 0.65575 0.0
H494 H 0.10416 0.37948 0.46394 0.0
H495 H 0.12422 0.47764 0.25328 0.0
H496 H 0.16544 0.37286 0.36474 0.0
H497 H 0.10141 0.49719 0.40024 0.0
H498 H 0.13306 0.43599 0.28266 0.0
H499 H 0.09463 0.41945 0.42757 0.0
C500 C 0.11518 0.38615 0.43366 0.0
C501 C 0.13561 0.373 0.41729 0.0
C502 C 0.12631 0.44957 0.30829 0.0
C503 C 0.12496 0.4184 0.37599 0.0
C504 C 0.12143 0.47329 0.29174 0.0
C505 C 0.1123 0.49095 0.32445 0.0
C506 C 0.12125 0.44344 0.35737 0.0
C507 C 0.10874 0.48428 0.37384 0.0
C508 C 0.10994 0.40901 0.41341 0.0
C509 C 0.14957 0.38259 0.37842 0.0
N510 N 0.11289 0.46097 0.38862 0.0
N511 N 0.14399 0.40477 0.35898 0.0
H512 H 0.62536 0.63295 0.34394 0.0
H513 H 0.7286 0.61225 0.54518 0.0
H514 H 0.62258 0.57032 0.44014 0.0
H515 H 0.74394 0.63875 0.3988 0.0
H516 H 0.68641 0.60318 0.5192 0.0
H517 H 0.66547 0.64354 0.37842 0.0
C518 C 0.63288 0.62185 0.37325 0.0
C519 C 0.62079 0.60071 0.38917 0.0
C520 C 0.69918 0.61084 0.49294 0.0
C521 C 0.66641 0.61257 0.4283 0.0
C522 C 0.7232 0.61586 0.50754 0.0
C523 C 0.73986 0.62602 0.47396 0.0
C524 C 0.69172 0.61677 0.44502 0.0
C525 C 0.73185 0.63061 0.42576 0.0
C526 C 0.65583 0.6277 0.39241 0.0
C527 C 0.63147 0.58671 0.42678 0.0
N528 N 0.70828 0.62624 0.41292 0.0
N529 N 0.65376 0.59286 0.4451 0.0
H530 H 0.16662 0.87008 0.69203 0.0
H531 H 0.10673 -0.00142 0.64658 0.0
H532 H 0.10786 0.88008 0.58817 0.0
H533 H 0.12531 0.97713 0.79481 0.0
H534 H 0.11492 0.95694 0.61892 0.0
H535 H 0.15768 0.91054 0.72699 0.0
C536 C 0.15152 0.88062 0.67732 0.0
C537 C 0.13781 0.87178 0.63744 0.0
C538 C 0.11738 0.96145 0.65742 0.0
C539 C 0.1283 0.91814 0.67566 0.0
C540 C 0.11309 0.98529 0.6732 0.0
C541 C 0.11539 0.99139 0.72318 0.0
C542 C 0.1245 0.94366 0.69156 0.0
C543 C 0.12334 0.9732 0.75597 0.0
C544 C 0.14654 0.90365 0.69709 0.0
C545 C 0.11862 0.88616 0.61929 0.0
N546 N 0.12771 0.95009 0.73955 0.0
N547 N 0.11471 0.90889 0.63796 0.0
H548 H 0.83953 0.42731 0.86356 0.0
H549 H 0.76518 0.34106 0.0442 0.0
H550 H 0.86966 0.35866 0.91352 0.0
H551 H 0.73043 0.38615 0.93427 0.0
H552 H 0.80524 0.35282 0.01129 0.0
H553 H 0.80113 0.41748 0.90382 0.0
C554 C 0.83818 0.41018 0.88335 0.0
C555 C 0.85794 0.39374 0.88515 0.0
C556 C 0.78881 0.36026 0.99481 0.0
C557 C 0.81376 0.38255 0.93167 0.0
C558 C 0.76597 0.35384 0.01383 0.0
C559 C 0.74442 0.36272 0.99194 0.0
C560 C 0.79008 0.37603 0.95433 0.0
C561 C 0.74655 0.37891 0.95223 0.0
C562 C 0.81614 0.40459 0.90613 0.0
C563 C 0.85488 0.37178 0.91107 0.0
N564 N 0.76899 0.38509 0.93475 0.0
N565 N 0.83315 0.36683 0.93364 0.0
H566 H 0.38281 0.98618 0.14705 0.0
H567 H 0.31875 0.11203 0.19991 0.0
H568 H 0.36156 0.00441 0.29566 0.0
H569 H 0.37791 0.10533 0.09575 0.0
H570 H 0.32896 0.07146 0.23256 0.0
H571 H 0.37409 0.02813 0.12219 0.0
C572 C 0.37581 -0.00116 0.17431 0.0
C573 C 0.37284 0.99173 0.22358 0.0
C574 C 0.33992 0.0791 0.20315 0.0
C575 C 0.36312 0.03983 0.1952 0.0
C576 C 0.33421 0.1022 0.18468 0.0
C577 C 0.34763 0.11199 0.1453 0.0
C578 C 0.35863 0.06548 0.18096 0.0
C579 C 0.36732 0.0985 0.12649 0.0
C580 C 0.37121 0.02286 0.16016 0.0
C581 C 0.36407 0.00912 0.25732 0.0
N582 N 0.37196 0.07567 0.14388 0.0
N583 N 0.35939 0.03242 0.24246 0.0
H584 H 0.36445 0.41085 0.60503 0.0
H585 H 0.23723 0.34933 0.65865 0.0
H586 H 0.35635 0.35344 0.71239 0.0
H587 H 0.25614 0.37026 0.51029 0.0
H588 H 0.27935 0.35716 0.68386 0.0
H589 H 0.32383 0.40089 0.57226 0.0
C590 C 0.3543 0.39579 0.62092 0.0
C591 C 0.36372 0.38281 0.66122 0.0
C592 C 0.27421 0.36015 0.64586 0.0
C593 C 0.31711 0.37211 0.62542 0.0
C594 C 0.25009 0.35606 0.63152 0.0
C595 C 0.2431 0.35925 0.58223 0.0
C596 C 0.2914 0.36793 0.61097 0.0
C597 C 0.26074 0.36763 0.54865 0.0
C598 C 0.33116 0.39023 0.6024 0.0
C599 C 0.34982 0.36365 0.68091 0.0
N600 N 0.28412 0.37181 0.56369 0.0
N601 N 0.32696 0.35916 0.6634 0.0
H602 H 0.81766 0.11099 0.36049 0.0
H603 H 0.88649 0.9871 0.39912 0.0
H604 H 0.87961 0.10522 0.45802 0.0
H605 H 0.86434 0.00724 0.25214 0.0
H606 H 0.87693 0.02837 0.42701 0.0
H607 H 0.82893 0.07156 0.32352 0.0
C608 C 0.83388 0.10161 0.37344 0.0
C609 C 0.8478 0.11129 0.41224 0.0
C610 C 0.87407 0.02368 0.38872 0.0
C611 C 0.86011 0.06614 0.37154 0.0
C612 C 0.87917 5e-05 0.37282 0.0
C613 C 0.87613 -0.00634 0.32315 0.0
C614 C 0.86535 0.04098 0.35508 0.0
C615 C 0.86691 0.01141 0.29072 0.0
C616 C 0.84023 0.07919 0.35243 0.0
C617 C 0.86855 0.09845 0.42792 0.0
N618 N 0.86167 0.03432 0.30734 0.0
N619 N 0.87383 0.07624 0.40814 0.0
H620 H 0.12849 0.62895 0.20548 0.0
H621 H 0.22784 0.60893 -0.0037 0.0
H622 H 0.1222 0.56811 0.10522 0.0
H623 H 0.2465 0.63152 0.14382 0.0
H624 H 0.18588 0.60045 0.02453 0.0
H625 H 0.16854 0.63868 0.1695 0.0
C626 C 0.13523 0.61811 0.17498 0.0
C627 C 0.12217 0.59771 0.15826 0.0
C628 C 0.19933 0.60709 0.05054 0.0
C629 C 0.16768 0.60856 0.11746 0.0
C630 C 0.22322 0.61174 0.03465 0.0
C631 C 0.24074 0.62069 0.06786 0.0
C632 C 0.19287 0.61217 0.09945 0.0
C633 C 0.23373 0.62431 0.11706 0.0
C634 C 0.15814 0.62344 0.15497 0.0
C635 C 0.13185 0.58396 0.11915 0.0
N636 N 0.21026 0.62036 0.1312 0.0
N637 N 0.15411 0.58961 0.1 0.0
H638 H 0.66406 0.87384 0.85185 0.0
H639 H 0.5972 -0.00139 0.89836 0.0
H640 H 0.60451 0.88019 0.95518 0.0
H641 H 0.61869 0.9792 0.7505 0.0
H642 H 0.60646 0.95705 0.92491 0.0
H643 H 0.65272 0.91363 0.81689 0.0
C644 C 0.64829 0.88342 0.86644 0.0
C645 C 0.63509 0.87377 0.90626 0.0
C646 C 0.60925 0.96196 0.88672 0.0
C647 C 0.62277 0.91942 0.86791 0.0
C648 C 0.60433 0.98577 0.87159 0.0
C649 C 0.60728 -0.00755 0.82206 0.0
C650 C 0.61766 0.94478 0.85241 0.0
C651 C 0.61622 0.97482 0.78901 0.0
C652 C 0.64193 0.90607 0.84662 0.0
C653 C 0.61496 0.88691 0.92417 0.0
N654 N 0.62126 0.95175 0.80484 0.0
N655 N 0.60968 0.90934 0.90547 0.0
H656 H 0.40718 0.17286 0.94726 0.0
H657 H 0.45427 0.09053 0.72962 0.0
H658 H 0.35856 0.12843 0.85961 0.0
H659 H 0.4973 0.14842 0.79348 0.0
H660 H 0.41774 0.10745 0.76864 0.0
H661 H 0.43944 0.16634 0.88689 0.0
C662 C 0.40328 0.16163 0.91537 0.0
C663 C 0.38018 0.15084 0.90894 0.0
C664 C 0.43501 0.1169 0.77307 0.0
C665 C 0.41717 0.14349 0.83918 0.0
C666 C 0.45582 0.10738 0.75038 0.0
C667 C 0.4788 0.11803 0.75869 0.0
C668 C 0.43735 0.13688 0.80514 0.0
C669 C 0.4799 0.13972 0.78606 0.0
C670 C 0.42168 0.15816 0.88057 0.0
C671 C 0.37615 0.13688 0.86635 0.0
N672 N 0.45954 0.14809 0.80942 0.0
N673 N 0.39455 0.13337 0.83337 0.0
H674 H 0.59964 0.60831 0.0955 0.0
H675 H 0.64651 0.71046 0.97724 0.0
H676 H 0.57136 0.662 0.19728 0.0
H677 H 0.5891 0.75111 0.04887 0.0
H678 H 0.63075 0.67297 0.01321 0.0
H679 H 0.60748 0.6409 0.0363 0.0
C680 C 0.59533 0.62697 0.10566 0.0
C681 C 0.58526 0.63241 0.15193 0.0
C682 C 0.62086 0.68979 0.01966 0.0
C683 C 0.59442 0.66999 0.08434 0.0
C684 C 0.62988 0.71127 -0.00109 0.0
C685 C 0.61905 0.73386 0.01006 0.0
C686 C 0.60101 0.69097 0.05242 0.0
C687 C 0.59782 0.73401 0.03897 0.0
C688 C 0.59987 0.64564 0.07178 0.0
C689 C 0.57952 0.65691 0.16246 0.0
N690 N 0.58984 0.71294 0.06021 0.0
N691 N 0.58425 0.67475 0.12904 0.0
H692 H 0.02705 0.8927 0.22317 0.0
H693 H 0.07511 0.81142 0.4411 0.0
H694 H 0.98387 0.83601 0.29076 0.0
H695 H 0.12336 0.85495 0.35087 0.0
H696 H 0.04245 0.81774 0.38162 0.0
H697 H 0.06376 0.87547 0.26081 0.0
C698 C 0.02549 0.87601 0.24441 0.0
C699 C 0.00244 0.86583 0.25423 0.0
C700 C 0.06021 0.82577 0.37454 0.0
C701 C 0.04411 0.84668 0.29917 0.0
C702 C 0.07885 0.82242 0.40884 0.0
C703 C 0.10196 0.83302 0.40143 0.0
C704 C 0.06451 0.84012 0.33266 0.0
C705 C 0.10576 0.84667 0.35839 0.0
C706 C 0.0464 0.86633 0.26634 0.0
C707 C 0.00132 0.84435 0.28219 0.0
N708 N 0.08714 0.85007 0.3259 0.0
N709 N 0.02181 0.83584 0.30481 0.0
H710 H 0.89861 0.23065 0.5528 0.0
H711 H 0.88023 0.37344 0.60457 0.0
H712 H 0.84286 0.27441 0.48338 0.0
H713 H 0.9191 0.32397 0.70052 0.0
H714 H 0.874 0.33975 0.54646 0.0
H715 H 0.91535 0.26772 0.59064 0.0
C716 C 0.89056 0.24819 0.54379 0.0
C717 C 0.86921 0.24953 0.51539 0.0
C718 C 0.884 0.33637 0.58016 0.0
C719 C 0.88772 0.29171 0.55944 0.0
C720 C 0.88742 0.35553 0.61348 0.0
C721 C 0.89985 0.35145 0.65791 0.0
C722 C 0.8933 0.31305 0.59107 0.0
C723 C 0.90903 0.3279 0.66717 0.0
C724 C 0.89985 0.26928 0.56604 0.0
C725 C 0.85926 0.27266 0.50544 0.0
N726 N 0.90553 0.30961 0.63412 0.0
N727 N 0.86834 0.29283 0.52811 0.0
H728 H 0.62872 0.85166 0.20121 0.0
H729 H 0.52593 0.8962 0.32078 0.0
H730 H 0.57501 0.8223 0.1008 0.0
H731 H 0.48648 0.83755 0.25073 0.0
H732 H 0.56381 0.88086 0.28547 0.0
H733 H 0.59638 0.85826 0.26175 0.0
C734 C 0.6101 0.84684 0.19166 0.0
C735 C 0.60455 0.83687 0.14536 0.0
C736 C 0.54717 0.8706 0.27932 0.0
C737 C 0.56731 0.84457 0.21447 0.0
C738 C 0.52548 0.87938 0.29971 0.0
C739 C 0.50311 0.86812 0.28855 0.0
C740 C 0.54638 0.85059 0.24694 0.0
C741 C 0.50341 0.84663 0.2605 0.0
C742 C 0.5916 0.85066 0.2263 0.0
C743 C 0.58015 0.83044 0.1356 0.0
N744 N 0.52465 0.83892 0.2395 0.0
N745 N 0.56247 0.83448 0.16975 0.0
H746 H 0.39762 0.23282 0.01113 0.0
H747 H 0.37879 0.3742 0.94592 0.0
H748 H 0.33935 0.27718 0.07013 0.0
H749 H 0.42279 0.32403 0.86078 0.0
H750 H 0.37113 0.34155 0.0056 0.0
H751 H 0.41513 0.26936 0.97265 0.0
C752 C 0.3891 0.25041 0.01771 0.0
C753 C 0.36692 0.25203 0.04342 0.0
C754 C 0.38258 0.33779 0.97397 0.0
C755 C 0.38636 0.29361 -0.00141 0.0
C756 C 0.38686 0.35637 0.93977 0.0
C757 C 0.40112 0.35177 0.8978 0.0
C758 C 0.39282 0.31451 0.96643 0.0
C759 C 0.41133 0.32835 0.8921 0.0
C760 C 0.39886 0.27119 0.9951 0.0
C761 C 0.3564 0.2752 0.05022 0.0
N762 N 0.40692 0.31061 0.92588 0.0
N763 N 0.36599 0.29505 0.02727 0.0
H764 H 0.85592 0.12895 0.70547 0.0
H765 H 0.95942 0.08138 0.81858 0.0
H766 H 0.90949 0.16084 0.60792 0.0
H767 H -0.00197 0.14277 0.75673 0.0
H768 H 0.92137 0.0971 0.78464 0.0
H769 H 0.88846 0.12057 0.76477 0.0
C770 C 0.87454 0.13398 0.69628 0.0
C771 C 0.88 0.14518 0.65113 0.0
C772 C 0.93786 0.10779 0.78006 0.0
C773 C 0.9174 0.13555 0.71879 0.0
C774 C 0.95964 0.09879 0.7996 0.0
C775 C 0.98184 0.11081 0.79037 0.0
C776 C 0.93839 0.1288 0.75042 0.0
C777 C 0.98125 0.13308 0.76499 0.0
C778 C 0.89314 0.12915 0.73018 0.0
C779 C 0.90441 0.15177 0.64178 0.0
N780 N 0.95994 0.14104 0.74472 0.0
N781 N 0.92216 0.14681 0.67523 0.0
H782 H 0.10506 0.60908 0.44695 0.0
H783 H 0.08503 0.75105 0.50411 0.0
H784 H 0.06252 0.6582 0.35673 0.0
H785 H 0.14218 0.70742 0.5691 0.0
H786 H 0.06779 0.71397 0.4672 0.0
H787 H 0.11126 0.64226 0.50617 0.0
C788 C 0.09701 0.6268 0.43958 0.0
C789 C 0.08361 0.63096 0.39633 0.0
C790 C 0.08371 0.71243 0.4907 0.0
C791 C 0.09023 0.66881 0.46441 0.0
C792 C 0.09329 0.73353 0.51244 0.0
C793 C 0.11515 0.73223 0.53924 0.0
C794 C 0.09609 0.69005 0.49615 0.0
C795 C 0.12538 0.70913 0.54829 0.0
C796 C 0.10044 0.64568 0.47353 0.0
C797 C 0.07335 0.65424 0.38908 0.0
N798 N 0.11601 0.68897 0.52608 0.0
N799 N 0.07696 0.67229 0.42264 0.0
H800 H 0.85881 0.6263 0.35112 0.0
H801 H 0.00031 0.64691 0.28851 0.0
H802 H 0.90752 0.67305 0.43355 0.0
H803 H 0.95807 0.58588 0.23498 0.0
H804 H 0.96287 0.66463 0.32313 0.0
H805 H 0.89201 0.61826 0.29258 0.0
C806 C 0.87642 0.63491 0.35685 0.0
C807 C 0.88051 0.65 0.39782 0.0
C808 C 0.96171 0.64767 0.30268 0.0
C809 C 0.91832 0.64131 0.33056 0.0
C810 C 0.98301 0.63776 0.28231 0.0
C811 C 0.98224 0.6148 0.25944 0.0
C812 C 0.93964 0.63452 0.29981 0.0
C813 C 0.95939 0.60353 0.2529 0.0
C814 C 0.8953 0.63042 0.32333 0.0
C815 C 0.90364 0.66091 0.40306 0.0
N816 N 0.93904 0.6133 0.2737 0.0
N817 N 0.92166 0.65627 0.36998 0.0
H818 H 0.14258 0.20925 0.48095 0.0
H819 H 0.06088 0.15753 0.69526 0.0
H820 H 0.08544 0.25109 0.55074 0.0
H821 H 0.10638 0.1114 0.60428 0.0
H822 H 0.06675 0.19093 0.63728 0.0
H823 H 0.12556 0.17197 0.51642 0.0
C824 C 0.12584 0.21041 0.50223 0.0
C825 C 0.11546 0.23322 0.51329 0.0
C826 C 0.0753 0.17346 0.62969 0.0
C827 C 0.09654 0.19087 0.5558 0.0
C828 C 0.07218 0.15441 0.66312 0.0
C829 C 0.0835 0.13169 0.65511 0.0
C830 C 0.09011 0.16997 0.58809 0.0
C831 C 0.09754 0.12867 0.61227 0.0
C832 C 0.11628 0.18916 0.52293 0.0
C833 C 0.09393 0.23382 0.54125 0.0
N834 N 0.10068 0.14768 0.58067 0.0
N835 N 0.08552 0.21299 0.56267 0.0
H836 H 0.62727 0.35762 0.85626 0.0
H837 H 0.48637 0.33429 0.79222 0.0
H838 H 0.5788 0.31096 0.9394 0.0
H839 H 0.52857 0.39413 0.73354 0.0
H840 H 0.52377 0.31748 0.82858 0.0
H841 H 0.5944 0.36422 0.79629 0.0
C842 C 0.60979 0.34872 0.86185 0.0
C843 C 0.60566 0.3341 0.90344 0.0
C844 C 0.52494 0.33396 0.80665 0.0
C845 C 0.56823 0.34115 0.83458 0.0
C846 C 0.50366 0.34333 0.78526 0.0
C847 C 0.5044 0.36576 0.76041 0.0
C848 C 0.54698 0.34711 0.80288 0.0
C849 C 0.52725 0.3769 0.75297 0.0
C850 C 0.59109 0.35239 0.82752 0.0
C851 C 0.58271 0.32278 0.90845 0.0
N852 N 0.54758 0.36771 0.77485 0.0
N853 N 0.56487 0.32663 0.87462 0.0
H854 H 0.33583 0.77518 0.98068 0.0
H855 H 0.42278 0.82446 0.1889 0.0
H856 H 0.39556 0.73299 0.03987 0.0
H857 H 0.37634 0.87213 0.10348 0.0
H858 H 0.415 0.7916 0.13045 0.0
H859 H 0.35324 0.81201 0.01748 0.0
C860 C 0.35312 0.77387 0.0 0.0
C861 C 0.36423 0.75105 0.00756 0.0
C862 C 0.40666 0.80929 0.12418 0.0
C863 C 0.38371 0.79287 0.05146 0.0
C864 C 0.41088 0.82803 0.15789 0.0
C865 C 0.39989 0.85103 0.15155 0.0
C866 C 0.39105 0.81337 0.08405 0.0
C867 C 0.385 0.85464 0.11011 0.0
C868 C 0.36295 0.79486 0.02138 0.0
C869 C 0.38649 0.75027 0.03306 0.0
N870 N 0.38078 0.83591 0.07825 0.0
N871 N 0.39521 0.77081 0.05519 0.0
H872 H 0.1235 0.35442 0.70643 0.0
H873 H 0.98122 0.3343 0.7608 0.0
H874 H 0.07434 0.31285 0.61438 0.0
H875 H 0.02503 0.38974 0.83099 0.0
H876 H 0.01839 0.31715 0.724 0.0
H877 H 0.09028 0.35991 0.76605 0.0
C878 C 0.10577 0.34645 0.69872 0.0
C879 C 0.10161 0.33354 0.65486 0.0
C880 C 0.01995 0.33264 0.74864 0.0
C881 C 0.06374 0.33928 0.72339 0.0
C882 C -0.00121 0.34213 0.77038 0.0
C883 C 0.00012 0.36356 0.79853 0.0
C884 C 0.04244 0.3447 0.7554 0.0
C885 C 0.0233 0.37326 0.80913 0.0
C886 C 0.08688 0.34945 0.73291 0.0
C887 C 0.07832 0.32333 0.64721 0.0
N888 N 0.04353 0.36406 0.78679 0.0
N889 N 0.06028 0.32651 0.68098 0.0
H890 H 0.89852 0.73371 0.50298 0.0
H891 H 0.87858 0.87521 0.44153 0.0
H892 H 0.84016 0.77728 0.56401 0.0
H893 H 0.92146 0.82537 0.35332 0.0
H894 H 0.87169 0.84233 0.50109 0.0
H895 H 0.91574 0.77062 0.46555 0.0
C896 C 0.88993 0.7512 0.51026 0.0
C897 C 0.86776 0.75249 0.53606 0.0
C898 C 0.88272 0.8387 0.4688 0.0
C899 C 0.88686 0.79448 0.49245 0.0
C900 C 0.88654 0.85739 0.43466 0.0
C901 C 0.90025 0.85294 0.39191 0.0
C902 C 0.89291 0.81549 0.46039 0.0
C903 C 0.91039 0.82955 0.38527 0.0
C904 C 0.89952 0.77219 0.48825 0.0
C905 C 0.85718 0.77555 0.54389 0.0
N906 N 0.90645 0.81171 0.41904 0.0
N907 N 0.86658 0.79561 0.52144 0.0
H908 H 0.40717 0.67289 0.1035 0.0
H909 H 0.45699 0.59079 0.31883 0.0
H910 H 0.36015 0.6269 0.19135 0.0
H911 H 0.49907 0.64868 0.25252 0.0
H912 H 0.41997 0.6075 0.28156 0.0
H913 H 0.43991 0.66693 0.16297 0.0
C914 C 0.40372 0.66145 0.13526 0.0
C915 C 0.38095 0.65003 0.14197 0.0
C916 C 0.43715 0.617 0.2762 0.0
C917 C 0.41848 0.64331 0.21069 0.0
C918 C 0.45825 0.60759 0.29787 0.0
C919 C 0.4811 0.61828 0.2883 0.0
C920 C 0.43905 0.63691 0.24389 0.0
C921 C 0.48179 0.63993 0.26082 0.0
C922 C 0.42239 0.65828 0.16954 0.0
C923 C 0.37748 0.63583 0.18438 0.0
N924 N 0.46113 0.64819 0.23847 0.0
N925 N 0.39615 0.63263 0.21684 0.0
H926 H 0.55981 0.16039 0.85349 0.0
H927 H 0.64549 0.20785 0.06573 0.0
H928 H 0.60416 0.11178 0.94125 0.0
H929 H 0.5875 0.2514 0.00361 0.0
H930 H 0.62774 0.17144 0.02792 0.0
H931 H 0.5678 0.19318 0.912 0.0
C932 C 0.57131 0.1566 0.88502 0.0
C933 C 0.58164 0.13334 0.89203 0.0
C934 C 0.61848 0.18881 0.02356 0.0
C935 C 0.5907 0.17092 0.95959 0.0
C936 C 0.62849 0.20956 0.04551 0.0
C937 C 0.61798 0.23262 0.0375 0.0
C938 C 0.59814 0.19127 0.99246 0.0
C939 C 0.59609 0.23392 0.01082 0.0
C940 C 0.57564 0.17531 0.91875 0.0
C941 C 0.59601 0.12947 0.93409 0.0
N942 N 0.5872 0.21359 0.98819 0.0
N943 N 0.60035 0.14815 0.96599 0.0
H944 H 0.26378 0.25211 0.14384 0.0
H945 H 0.22015 0.2332 0.42211 0.0
H946 H 0.26164 0.18189 0.21639 0.0
H947 H 0.22205 0.30338 0.3494 0.0
H948 H 0.23597 0.21417 0.34742 0.0
H949 H 0.24832 0.27119 0.21877 0.0
C950 C 0.25993 0.24067 0.1754 0.0
C951 C 0.26405 0.21534 0.17379 0.0
C952 C 0.233 0.23374 0.34787 0.0
C953 C 0.24652 0.23714 0.25986 0.0
C954 C 0.22405 0.24465 0.39058 0.0
C955 C 0.21971 0.26994 0.39204 0.0
C956 C 0.23764 0.2482 0.30625 0.0
C957 C 0.22508 0.28382 0.34999 0.0
C958 C 0.25117 0.2516 0.21825 0.0
C959 C 0.25875 0.20147 0.2159 0.0
N960 N 0.23369 0.27275 0.30877 0.0
N961 N 0.25032 0.21257 0.25724 0.0
H962 H 0.50275 0.46934 0.66251 0.0
H963 H 0.48264 0.51366 0.38502 0.0
H964 H 0.43249 0.46979 0.58977 0.0
H965 H 0.55294 0.51313 0.45758 0.0
H966 H 0.46403 0.49714 0.45947 0.0
H967 H 0.52143 0.48563 0.5879 0.0
C968 C 0.49121 0.47298 0.63098 0.0
C969 C 0.46599 0.46815 0.63246 0.0
C970 C 0.48354 0.50057 0.45905 0.0
C971 C 0.48733 0.48666 0.54675 0.0
C972 C 0.49421 0.50995 0.41647 0.0
C973 C 0.51941 0.51484 0.41501 0.0
C974 C 0.49814 0.49607 0.50055 0.0
C975 C 0.53344 0.50967 0.45698 0.0
C976 C 0.50192 0.48222 0.58831 0.0
C977 C 0.452 0.47321 0.59038 0.0
N978 N 0.5226 0.50063 0.49807 0.0
N979 N 0.46287 0.48213 0.54923 0.0
H980 H 0.22018 0.73043 0.63029 0.0
H981 H 0.26194 0.74859 0.9099 0.0
H982 H 0.22275 0.8005 0.7036 0.0
H983 H 0.26159 0.67869 0.83574 0.0
H984 H 0.24682 0.76776 0.83493 0.0
H985 H 0.23547 0.71111 0.70508 0.0
C986 C 0.22412 0.7418 0.66195 0.0
C987 C 0.22011 0.76714 0.66065 0.0
C988 C 0.24999 0.74822 0.83509 0.0
C989 C 0.23741 0.74508 0.74652 0.0
C990 C 0.25853 0.73722 0.87798 0.0
C991 C 0.26309 0.71197 0.87914 0.0
C992 C 0.24596 0.73389 0.79299 0.0
C993 C 0.25836 0.69821 0.83657 0.0
C994 C 0.23277 0.73072 0.70472 0.0
C995 C 0.22552 0.78091 0.70287 0.0
N996 N 0.25011 0.70937 0.79519 0.0
N997 N 0.23381 0.76968 0.74413 0.0
H998 H 0.98395 0.51257 0.16389 0.0
H999 H 0.00336 0.46917 0.88562 0.0
H1000 H 0.05438 0.50996 0.09185 0.0
H1001 H 0.9327 0.47316 0.95649 0.0
H1002 H 0.02234 0.48422 0.96088 0.0
H1003 H 0.96493 0.49737 0.08873 0.0
C1004 C -0.00454 0.50864 0.13242 0.0
C1005 C 0.02082 0.51261 0.13419 0.0
C1006 C 0.00267 0.48188 0.95993 0.0
C1007 C -0.00091 0.4954 0.04787 0.0
C1008 C 0.99179 0.47336 0.91687 0.0
C1009 C 0.96638 0.46985 0.91471 0.0
C1010 C 0.98807 0.48689 0.0012 0.0
C1011 C 0.95235 0.47558 0.95644 0.0
C1012 C 0.98456 0.50005 0.08942 0.0
C1013 C 0.03477 0.50722 0.09219 0.0
N1014 N 0.96341 0.48374 -0.00197 0.0
N1015 N 0.0237 0.49896 0.05071 0.0
H1016 H 0.72276 0.80647 0.83655 0.0
H1017 H 0.76197 0.68154 0.70505 0.0
H1018 H 0.72085 0.73592 0.90779 0.0
H1019 H 0.76401 0.75207 0.63371 0.0
H1020 H 0.74637 0.70112 0.77933 0.0
H1021 H 0.73815 0.7869 0.76204 0.0
C1022 C 0.72571 0.78689 0.83668 0.0
C1023 C 0.72047 0.77282 0.87854 0.0
C1024 C 0.75016 0.7123 0.74738 0.0
C1025 C 0.73791 0.75028 0.79314 0.0
C1026 C 0.759 0.70113 0.70485 0.0
C1027 C 0.76437 0.71518 0.66304 0.0
C1028 C 0.74668 0.73773 0.74821 0.0
C1029 C 0.76015 0.74049 0.66503 0.0
C1030 C 0.73442 0.77571 0.79402 0.0
C1031 C 0.72463 0.74751 0.87644 0.0
N1032 N 0.75163 0.75096 0.70697 0.0
N1033 N 0.73304 0.73705 0.8344 0.0
H1034 H 0.71945 0.23202 0.1411 0.0
H1035 H 0.76306 0.25059 0.4195 0.0
H1036 H 0.71983 0.30174 0.21594 0.0
H1037 H 0.76161 0.18047 0.34625 0.0
H1038 H 0.74674 0.26952 0.34531 0.0
H1039 H 0.73511 0.21275 0.21571 0.0
C1040 C 0.72293 0.24331 0.1731 0.0
C1041 C 0.7183 0.26855 0.17224 0.0
C1042 C 0.74991 0.24998 0.34551 0.0
C1043 C 0.73606 0.24657 0.2578 0.0
C1044 C 0.75917 0.23913 0.38794 0.0
C1045 C 0.76377 0.21389 0.38911 0.0
C1046 C 0.74523 0.23552 0.30387 0.0
C1047 C 0.75838 0.19999 0.34704 0.0
C1048 C 0.73179 0.23227 0.21574 0.0
C1049 C 0.7231 0.28223 0.21487 0.0
N1050 N 0.74947 0.21101 0.30607 0.0
N1051 N 0.73168 0.27105 0.25591 0.0
H1052 H 0.98681 0.00844 0.88098 0.0
H1053 H 0.00362 0.97067 0.16299 0.0
H1054 H 0.05626 0.00978 0.95679 0.0
H1055 H 0.93385 0.97205 0.08835 0.0
H1056 H 0.02329 0.98485 0.08772 0.0
H1057 H 0.96733 -0.00613 0.95608 0.0
C1058 C -0.00197 0.00548 0.91327 0.0
C1059 C 0.02322 0.01043 0.91259 0.0
C1060 C 0.00367 0.98214 0.08788 0.0
C1061 C 0.00094 -0.00603 -0.00113 0.0
C1062 C -0.00761 0.97414 0.13092 0.0
C1063 C 0.96703 0.97011 0.132 0.0
C1064 C 0.98951 0.9861 0.04556 0.0
C1065 C 0.95345 0.97489 0.08926 0.0
C1066 C 0.98685 -0.00274 0.95624 0.0
C1067 C 0.03679 0.00625 0.9556 0.0
N1068 N 0.96488 0.98255 0.04773 0.0
N1069 N 0.02545 -0.00165 -0.00293 0.0
H1070 H 0.48033 0.01423 0.66073 0.0
H1071 H 0.49992 0.97195 0.38177 0.0
H1072 H 0.55062 0.01341 0.588 0.0
H1073 H 0.4298 0.97185 0.4552 0.0
H1074 H 0.5187 0.98793 0.45653 0.0
H1075 H 0.46151 -0.00136 0.58572 0.0
C1076 C 0.49185 0.01063 0.62912 0.0
C1077 C 0.51711 0.01518 0.6307 0.0
C1078 C 0.49919 0.98448 0.45623 0.0
C1079 C 0.49561 -0.0025 0.54452 0.0
C1080 C 0.48842 0.97544 0.41347 0.0
C1081 C 0.46324 0.97048 0.4122 0.0
C1082 C 0.48469 0.98859 0.49807 0.0
C1083 C 0.44929 0.97536 0.45446 0.0
C1084 C 0.48106 0.0018 0.58621 0.0
C1085 C 0.53109 0.01019 0.58852 0.0
N1086 N 0.46022 0.98406 0.49572 0.0
N1087 N 0.52013 0.00169 0.54711 0.0
H1088 H 0.22366 0.23339 0.64017 0.0
H1089 H 0.25605 0.25003 0.92541 0.0
H1090 H 0.19758 0.29325 0.72993 0.0
H1091 H 0.2819 0.19006 0.83567 0.0
H1092 H 0.23429 0.26621 0.85398 0.0
H1093 H 0.24463 0.21672 0.71209 0.0
C1094 C 0.22224 0.24295 0.67497 0.0
C1095 C 0.20894 0.26476 0.67898 0.0
C1096 C 0.24476 0.24952 0.85002 0.0
C1097 C 0.23292 0.24597 0.76111 0.0
C1098 C 0.25722 0.24033 0.89074 0.0
C1099 C 0.27079 0.21869 0.88654 0.0
C1100 C 0.24591 0.23693 0.80497 0.0
C1101 C 0.27165 0.20682 0.84071 0.0
C1102 C 0.23425 0.23348 0.71597 0.0
C1103 C 0.2077 0.27641 0.725 0.0
N1104 N 0.25936 0.21609 0.80175 0.0
N1105 N 0.21961 0.2669 0.76422 0.0
H1106 H 0.50034 0.47694 0.88091 0.0
H1107 H 0.48415 0.50744 0.16726 0.0
H1108 H 0.44277 0.44724 0.97204 0.0
H1109 H 0.54129 0.53766 0.07571 0.0
H1110 H 0.46835 0.48545 0.0957 0.0
H1111 H 0.51596 0.49912 0.95239 0.0
C1112 C 0.49108 0.47498 0.91592 0.0
C1113 C 0.4702 0.46029 0.92044 0.0
C1114 C 0.48432 0.49696 0.09136 0.0
C1115 C 0.48779 0.48566 0.00208 0.0
C1116 C 0.49327 0.50957 0.13215 0.0
C1117 C 0.5141 0.52432 0.12754 0.0
C1118 C 0.49632 0.49916 0.04582 0.0
C1119 C 0.52523 0.5264 0.08112 0.0
C1120 C 0.49993 0.48769 0.95666 0.0
C1121 C 0.45889 0.45842 0.96672 0.0
N1122 N 0.51623 0.5139 0.04213 0.0
N1123 N 0.4678 0.47101 0.00568 0.0
H1124 H 0.19647 0.79176 0.32276 0.0
H1125 H 0.27974 0.6844 0.2164 0.0
H1126 H 0.22289 0.73144 0.41055 0.0
H1127 H 0.25518 0.74599 0.12998 0.0
H1128 H 0.25808 0.70076 0.28716 0.0
H1129 H 0.21658 0.77438 0.25119 0.0
C1130 C 0.20644 0.77478 0.32703 0.0
C1131 C 0.2081 0.76307 0.37289 0.0
C1132 C 0.25743 0.71072 0.25277 0.0
C1133 C 0.23126 0.74313 0.29077 0.0
C1134 C 0.26984 0.70143 0.21225 0.0
C1135 C 0.26933 0.7139 0.1671 0.0
C1136 C 0.24439 0.73265 0.24826 0.0
C1137 C 0.25611 0.7358 0.16405 0.0
C1138 C 0.21795 0.76489 0.28603 0.0
C1139 C 0.22118 0.74109 0.37598 0.0
N1140 N 0.24415 0.7445 0.20419 0.0
N1141 N 0.23236 0.73185 0.3354 0.0
H1142 H 0.98848 0.50249 0.38124 0.0
H1143 H 0.00394 0.47307 0.66784 0.0
H1144 H 0.04627 0.53207 0.47196 0.0
H1145 H 0.94821 0.4411 0.57521 0.0
H1146 H 0.02066 0.49394 0.59578 0.0
H1147 H 0.97359 0.47948 0.45217 0.0
C1148 C -0.00204 0.50423 0.41605 0.0
C1149 C 0.01861 0.51923 0.42067 0.0
C1150 C 0.00484 0.48224 0.5913 0.0
C1151 C 0.00186 0.4929 0.50169 0.0
C1152 C -0.00463 0.47027 0.63236 0.0
C1153 C 0.97454 0.45552 0.62762 0.0
C1154 C -0.00666 0.47941 0.5454 0.0
C1155 C 0.96417 0.45249 0.58074 0.0
C1156 C 0.98954 0.49102 0.45646 0.0
C1157 C 0.03026 0.52073 0.46663 0.0
N1158 N 0.9736 0.46446 0.54153 0.0
N1159 N 0.02171 0.50772 0.50534 0.0
H1160 H 0.72859 0.7371 0.12748 0.0
H1161 H 0.76028 0.7528 0.41326 0.0
H1162 H 0.70475 0.79819 0.21638 0.0
H1163 H 0.78521 0.69236 0.32375 0.0
H1164 H 0.74029 0.7702 0.3409 0.0
H1165 H 0.74983 0.72046 0.19913 0.0
C1166 C 0.72779 0.74697 0.16199 0.0
C1167 C 0.71486 0.76902 0.16594 0.0
C1168 C 0.7502 0.75315 0.33718 0.0
C1169 C 0.73909 0.75022 0.24779 0.0
C1170 C 0.76163 0.74325 0.37845 0.0
C1171 C 0.77434 0.72108 0.37462 0.0
C1172 C 0.75152 0.74073 0.29195 0.0
C1173 C 0.77554 0.70948 0.32855 0.0
C1174 C 0.73994 0.73752 0.20284 0.0
C1175 C 0.71446 0.7811 0.21156 0.0
N1176 N 0.7642 0.71941 0.28907 0.0
N1177 N 0.7264 0.77153 0.25068 0.0
H1178 H 0.76238 0.25268 0.63742 0.0
H1179 H 0.72945 0.23694 0.92242 0.0
H1180 H 0.78704 0.19245 0.72751 0.0
H1181 H 0.70878 0.29988 0.83584 0.0
H1182 H 0.75098 0.22046 0.85102 0.0
H1183 H 0.74302 0.27075 0.70999 0.0
C1184 C 0.76382 0.24333 0.6724 0.0
C1185 C 0.77622 0.22097 0.67632 0.0
C1186 C 0.74176 0.23791 0.84774 0.0
C1187 C 0.75412 0.2414 0.75917 0.0
C1188 C 0.72944 0.24729 0.88846 0.0
C1189 C 0.71725 0.26977 0.88508 0.0
C1190 C 0.74181 0.25109 0.80337 0.0
C1191 C 0.71789 0.28244 0.84016 0.0
C1192 C 0.75277 0.25362 0.71378 0.0
C1193 C 0.77757 0.20966 0.7226 0.0
N1194 N 0.72992 0.27289 0.80103 0.0
N1195 N 0.76657 0.21995 0.76213 0.0
H1196 H 0.9439 0.94547 0.47053 0.0
H1197 H 0.05031 0.03028 0.57563 0.0
H1198 H 0.00275 0.97395 0.38112 0.0
H1199 H 0.98983 0.00375 0.66304 0.0
H1200 H 0.03395 0.00873 0.50467 0.0
H1201 H 0.96158 0.96531 0.54203 0.0
C1202 C 0.96062 0.95585 0.46588 0.0
C1203 C 0.9718 0.95818 0.41961 0.0
C1204 C 0.02425 0.00762 0.53933 0.0
C1205 C 0.99209 0.98103 0.50164 0.0
C1206 C 0.03353 0.01996 0.57994 0.0
C1207 C 0.02136 0.01887 0.6254 0.0
C1208 C 0.00263 -0.00593 0.54414 0.0
C1209 C -0.00022 0.00514 0.62871 0.0
C1210 C 0.97068 0.9672 0.50684 0.0
C1211 C -0.00651 0.97173 0.41604 0.0
N1212 N 0.99109 -0.00673 0.58853 0.0
N1213 N 0.0029 0.98275 0.4566 0.0
H1214 H 0.48204 0.00782 0.8785 0.0
H1215 H 0.49844 0.97642 0.16414 0.0
H1216 H 0.54027 0.03633 0.96949 0.0
H1217 H 0.43977 0.94831 0.0738 0.0
H1218 H 0.51441 -0.0018 0.0926 0.0
H1219 H 0.46604 0.98591 0.94992 0.0
C1220 C 0.49138 0.00957 0.91346 0.0
C1221 C 0.51253 0.02387 0.91798 0.0
C1222 C 0.49806 0.98721 0.0885 0.0
C1223 C 0.4945 -0.00119 -0.00047 0.0
C1224 C 0.48899 0.97473 0.12928 0.0
C1225 C 0.46772 0.96059 0.12499 0.0
C1226 C 0.48574 0.9855 0.04326 0.0
C1227 C 0.4562 0.95905 0.07891 0.0
C1228 C 0.4823 -0.00299 0.95416 0.0
C1229 C 0.52393 0.02547 0.96418 0.0
N1230 N 0.46534 0.97141 0.03987 0.0
N1231 N 0.51479 0.01305 0.0031 0.0
loop_
_geom_bond_atom_site_label_1
_geom_bond_atom_site_label_2
_geom_bond_distance
_geom_bond_site_symmetry_2
_ccdc_geom_bond_type
O0 Zn1 1.953 . S
O0 C16 1.225 . S
Zn1 O0 1.953 . S
Zn1 O2 1.949 1_556 S
Zn1 O8 1.919 . S
Zn1 O13 1.924 . S
O2 Zn1 1.949 1_554 S
O2 Zn3 1.923 . S
O2 Zn4 1.950 . S
O2 Zn5 1.945 . S
Zn3 O2 1.923 . S
Zn3 O6 1.933 . S
Zn3 O9 1.941 1_554 S
Zn3 O10 1.965 . S
Zn4 O2 1.950 . S
Zn4 O11 1.938 . S
Zn4 O12 1.906 . S
Zn4 O22 1.953 1_554 S
Zn5 O2 1.945 . S
Zn5 O7 1.932 . S
Zn5 O14 1.977 . S
Zn5 O15 1.910 . S
O6 Zn3 1.933 . S
O6 C17 1.226 . S
O7 Zn5 1.932 . S
O7 C17 1.307 . S
O8 Zn1 1.919 . S
O8 C19 1.253 . S
O9 Zn3 1.941 1_556 S
O9 C19 1.283 . S
O10 Zn3 1.965 . S
O10 C18 1.303 . S
O11 Zn4 1.938 . S
O11 C18 1.247 . S
O12 Zn4 1.906 . S
O12 C20 1.304 . S
O13 Zn1 1.924 . S
O13 C21 1.311 . S
O14 Zn5 1.977 . S
O14 C20 1.272 . S
O15 Zn5 1.910 . S
O15 C21 1.231 1_554 S
C16 O0 1.225 . S
C16 O22 1.298 . S
C17 O6 1.226 . S
C17 O7 1.307 . S
C18 O10 1.303 . S
C18 O11 1.247 . S
C19 O8 1.253 . S
C19 O9 1.283 . S
C20 O12 1.304 . S
C20 O14 1.272 . S
C21 O13 1.311 . S
C21 O15 1.231 1_556 S
O22 Zn4 1.953 1_556 S
O22 C16 1.298 . S
O23 Zn24 1.953 . S
O23 C39 1.225 . S
Zn24 O23 1.953 . S
Zn24 O25 1.949 . S
Zn24 O31 1.919 . S
Zn24 O36 1.924 . S
O25 Zn24 1.949 . S
O25 Zn26 1.923 . S
O25 Zn27 1.950 . S
O25 Zn28 1.945 . S
Zn26 O25 1.923 . S
Zn26 O29 1.933 . S
Zn26 O32 1.941 . S
Zn26 O33 1.965 . S
Zn27 O25 1.950 . S
Zn27 O34 1.938 . S
Zn27 O35 1.906 . S
Zn27 O45 1.953 . S
Zn28 O25 1.945 . S
Zn28 O30 1.932 . S
Zn28 O37 1.977 . S
Zn28 O38 1.910 . S
O29 Zn26 1.933 . S
O29 C40 1.226 . S
O30 Zn28 1.932 . S
O30 C40 1.307 . S
O31 Zn24 1.919 . S
O31 C42 1.253 . S
O32 Zn26 1.941 . S
O32 C42 1.283 . S
O33 Zn26 1.965 . S
O33 C41 1.303 . S
O34 Zn27 1.938 . S
O34 C41 1.247 . S
O35 Zn27 1.906 . S
O35 C43 1.304 . S
O36 Zn24 1.924 . S
O36 C44 1.311 . S
O37 Zn28 1.977 . S
O37 C43 1.272 . S
O38 Zn28 1.910 . S
O38 C44 1.231 . S
C39 O23 1.225 . S
C39 O45 1.298 . S
C40 O29 1.226 . S
C40 O30 1.307 . S
C41 O33 1.303 . S
C41 O34 1.247 . S
C42 O31 1.253 . S
C42 O32 1.283 . S
C43 O35 1.304 . S
C43 O37 1.272 . S
C44 O36 1.311 . S
C44 O38 1.231 . S
O45 Zn27 1.953 . S
O45 C39 1.298 . S
O46 Zn47 1.953 . S
O46 C62 1.225 . S
Zn47 O46 1.953 . S
Zn47 O48 1.949 . S
Zn47 O54 1.919 . S
Zn47 O59 1.924 . S
O48 Zn47 1.949 . S
O48 Zn49 1.923 . S
O48 Zn50 1.950 . S
O48 Zn51 1.945 . S
Zn49 O48 1.923 . S
Zn49 O52 1.933 . S
Zn49 O55 1.941 . S
Zn49 O56 1.965 . S
Zn50 O48 1.950 . S
Zn50 O57 1.938 . S
Zn50 O58 1.906 . S
Zn50 O68 1.953 . S
Zn51 O48 1.945 . S
Zn51 O53 1.932 . S
Zn51 O60 1.977 . S
Zn51 O61 1.910 . S
O52 Zn49 1.933 . S
O52 C63 1.226 . S
O53 Zn51 1.932 . S
O53 C63 1.307 . S
O54 Zn47 1.919 . S
O54 C65 1.253 . S
O55 Zn49 1.941 . S
O55 C65 1.283 . S
O56 Zn49 1.965 . S
O56 C64 1.303 . S
O57 Zn50 1.938 . S
O57 C64 1.247 . S
O58 Zn50 1.906 . S
O58 C66 1.304 . S
O59 Zn47 1.924 . S
O59 C67 1.311 . S
O60 Zn51 1.977 . S
O60 C66 1.272 . S
O61 Zn51 1.910 . S
O61 C67 1.231 . S
C62 O46 1.225 . S
C62 O68 1.298 . S
C63 O52 1.226 . S
C63 O53 1.307 . S
C64 O56 1.303 . S
C64 O57 1.247 . S
C65 O54 1.253 . S
C65 O55 1.283 . S
C66 O58 1.304 . S
C66 O60 1.272 . S
C67 O59 1.311 . S
C67 O61 1.231 . S
O68 Zn50 1.953 . S
O68 C62 1.298 . S
O69 Zn70 1.953 . S
O69 C85 1.225 . S
Zn70 O69 1.953 . S
Zn70 O71 1.949 . S
Zn70 O77 1.919 . S
Zn70 O82 1.924 . S
O71 Zn70 1.949 . S
O71 Zn72 1.923 . S
O71 Zn73 1.950 . S
O71 Zn74 1.945 . S
Zn72 O71 1.923 . S
Zn72 O75 1.933 . S
Zn72 O78 1.941 . S
Zn72 O79 1.965 . S
Zn73 O71 1.950 . S
Zn73 O80 1.962 . S
Zn73 O81 1.906 . S
Zn73 O91 1.953 . S
Zn74 O71 1.945 . S
Zn74 O76 1.932 . S
Zn74 O83 1.977 . S
Zn74 O84 1.910 . S
O75 Zn72 1.933 . S
O75 C86 1.226 . S
O76 Zn74 1.932 . S
O76 C86 1.307 . S
O77 Zn70 1.919 . S
O77 C88 1.253 . S
O78 Zn72 1.941 . S
O78 C88 1.283 . S
O79 Zn72 1.965 . S
O79 C87 1.303 . S
O80 Zn73 1.962 . S
O80 C87 1.253 . S
O81 Zn73 1.906 . S
O81 C89 1.304 . S
O82 Zn70 1.924 . S
O82 C90 1.311 . S
O83 Zn74 1.977 . S
O83 C89 1.272 . S
O84 Zn74 1.910 . S
O84 C90 1.231 . S
C85 O69 1.225 . S
C85 O91 1.298 . S
C86 O75 1.226 . S
C86 O76 1.307 . S
C87 O79 1.303 . S
C87 O80 1.253 . S
C88 O77 1.253 . S
C88 O78 1.283 . S
C89 O81 1.304 . S
C89 O83 1.272 . S
C90 O82 1.311 . S
C90 O84 1.231 . S
O91 Zn73 1.953 . S
O91 C85 1.298 . S
O92 Zn93 1.953 . S
O92 C108 1.225 . S
Zn93 O92 1.953 . S
Zn93 O94 1.949 . S
Zn93 O100 1.919 . S
Zn93 O105 1.924 . S
O94 Zn93 1.949 . S
O94 Zn95 1.923 . S
O94 Zn96 1.950 . S
O94 Zn97 1.930 1_554 S
Zn95 O94 1.923 . S
Zn95 O98 1.933 1_554 S
Zn95 O101 1.941 . S
Zn95 O102 1.965 . S
Zn96 O94 1.950 . S
Zn96 O103 1.938 . S
Zn96 O104 1.906 1_554 S
Zn96 O114 1.953 . S
Zn97 O94 1.930 1_556 S
Zn97 O99 1.947 . S
Zn97 O106 1.991 . S
Zn97 O107 1.900 1_556 S
O98 Zn95 1.933 1_556 S
O98 C109 1.226 . S
O99 Zn97 1.947 . S
O99 C109 1.307 . S
O100 Zn93 1.919 . S
O100 C111 1.253 . S
O101 Zn95 1.941 . S
O101 C111 1.283 . S
O102 Zn95 1.965 . S
O102 C110 1.303 . S
O103 Zn96 1.938 . S
O103 C110 1.247 . S
O104 Zn96 1.906 1_556 S
O104 C112 1.304 . S
O105 Zn93 1.924 . S
O105 C113 1.311 . S
O106 Zn97 1.991 . S
O106 C112 1.272 . S
O107 Zn97 1.900 1_554 S
O107 C113 1.231 . S
C108 O92 1.225 . S
C108 O114 1.298 . S
C109 O98 1.226 . S
C109 O99 1.307 . S
C110 O102 1.303 . S
C110 O103 1.247 . S
C111 O100 1.253 . S
C111 O101 1.283 . S
C112 O104 1.304 . S
C112 O106 1.272 . S
C113 O105 1.311 . S
C113 O107 1.231 . S
O114 Zn96 1.953 . S
O114 C108 1.298 . S
O115 Zn116 1.953 . S
O115 C131 1.225 . S
Zn116 O115 1.953 . S
Zn116 O117 1.949 . S
Zn116 O123 1.919 . S
Zn116 O128 1.924 . S
O117 Zn116 1.949 . S
O117 Zn118 1.923 . S
O117 Zn119 1.950 . S
O117 Zn120 1.945 . S
Zn118 O117 1.923 . S
Zn118 O121 1.933 . S
Zn118 O124 1.941 . S
Zn118 O125 1.965 . S
Zn119 O117 1.950 . S
Zn119 O126 1.938 . S
Zn119 O127 1.906 . S
Zn119 O137 1.953 . S
Zn120 O117 1.945 . S
Zn120 O122 1.932 . S
Zn120 O129 1.977 . S
Zn120 O130 1.910 . S
O121 Zn118 1.933 . S
O121 C132 1.226 . S
O122 Zn120 1.932 . S
O122 C132 1.307 . S
O123 Zn116 1.919 . S
O123 C134 1.253 . S
O124 Zn118 1.941 . S
O124 C134 1.283 . S
O125 Zn118 1.965 . S
O125 C133 1.303 . S
O126 Zn119 1.938 . S
O126 C133 1.247 . S
O127 Zn119 1.906 . S
O127 C135 1.304 . S
O128 Zn116 1.924 . S
O128 C136 1.311 . S
O129 Zn120 1.977 . S
O129 C135 1.272 . S
O130 Zn120 1.910 . S
O130 C136 1.231 . S
C131 O115 1.225 . S
C131 O137 1.298 . S
C132 O121 1.226 . S
C132 O122 1.307 . S
C133 O125 1.303 . S
C133 O126 1.247 . S
C134 O123 1.253 . S
C134 O124 1.283 . S
C135 O127 1.304 . S
C135 O129 1.272 . S
C136 O128 1.311 . S
C136 O130 1.231 . S
O137 Zn119 1.953 . S
O137 C131 1.298 . S
O138 Zn139 1.953 . S
O138 C154 1.225 . S
Zn139 O138 1.953 . S
Zn139 O140 1.949 . S
Zn139 O146 1.919 . S
Zn139 O151 1.924 . S
O140 Zn139 1.949 . S
O140 Zn141 1.923 . S
O140 Zn142 1.950 . S
O140 Zn143 1.945 . S
Zn141 O140 1.923 . S
Zn141 O144 1.933 . S
Zn141 O147 1.941 . S
Zn141 O148 1.965 . S
Zn142 O140 1.950 . S
Zn142 O149 1.938 . S
Zn142 O150 1.906 . S
Zn142 O160 1.953 . S
Zn143 O140 1.945 . S
Zn143 O145 1.932 . S
Zn143 O152 1.977 . S
Zn143 O153 1.910 . S
O144 Zn141 1.933 . S
O144 C155 1.226 . S
O145 Zn143 1.932 . S
O145 C155 1.307 . S
O146 Zn139 1.919 . S
O146 C157 1.253 . S
O147 Zn141 1.941 . S
O147 C157 1.283 . S
O148 Zn141 1.965 . S
O148 C156 1.303 . S
O149 Zn142 1.938 . S
O149 C156 1.247 . S
O150 Zn142 1.906 . S
O150 C158 1.304 . S
O151 Zn139 1.924 . S
O151 C159 1.311 . S
O152 Zn143 1.977 . S
O152 C158 1.272 . S
O153 Zn143 1.910 . S
O153 C159 1.231 . S
C154 O138 1.225 . S
C154 O160 1.298 . S
C155 O144 1.226 . S
C155 O145 1.307 . S
C156 O148 1.303 . S
C156 O149 1.247 . S
C157 O146 1.253 . S
C157 O147 1.283 . S
C158 O150 1.304 . S
C158 O152 1.272 . S
C159 O151 1.311 . S
C159 O153 1.231 . S
O160 Zn142 1.953 . S
O160 C154 1.298 . S
O161 Zn162 1.953 . S
O161 C177 1.225 . S
Zn162 O161 1.953 . S
Zn162 O163 1.949 . S
Zn162 O169 1.919 . S
Zn162 O174 1.924 . S
O163 Zn162 1.949 . S
O163 Zn164 1.923 . S
O163 Zn165 1.950 . S
O163 Zn166 1.945 . S
Zn164 O163 1.923 . S
Zn164 O167 1.933 . S
Zn164 O170 1.941 . S
Zn164 O171 1.965 . S
Zn165 O163 1.950 . S
Zn165 O172 1.962 . S
Zn165 O173 1.906 . S
Zn165 O183 1.953 . S
Zn166 O163 1.945 . S
Zn166 O168 1.932 . S
Zn166 O175 1.977 . S
Zn166 O176 1.910 . S
O167 Zn164 1.933 . S
O167 C178 1.226 . S
O168 Zn166 1.932 . S
O168 C178 1.307 . S
O169 Zn162 1.919 . S
O169 C180 1.253 . S
O170 Zn164 1.941 . S
O170 C180 1.283 . S
O171 Zn164 1.965 . S
O171 C179 1.303 . S
O172 Zn165 1.962 . S
O172 C179 1.253 . S
O173 Zn165 1.906 . S
O173 C181 1.304 . S
O174 Zn162 1.924 . S
O174 C182 1.311 . S
O175 Zn166 1.977 . S
O175 C181 1.272 . S
O176 Zn166 1.910 . S
O176 C182 1.231 . S
C177 O161 1.225 . S
C177 O183 1.298 . S
C178 O167 1.226 . S
C178 O168 1.307 . S
C179 O171 1.303 . S
C179 O172 1.253 . S
C180 O169 1.253 . S
C180 O170 1.283 . S
C181 O173 1.304 . S
C181 O175 1.272 . S
C182 O174 1.311 . S
C182 O176 1.231 . S
O183 Zn165 1.953 . S
O183 C177 1.298 . S
O184 Zn185 1.953 . S
O184 C200 1.225 . S
Zn185 O184 1.953 . S
Zn185 O186 1.949 . S
Zn185 O192 1.919 . S
Zn185 O197 1.924 . S
O186 Zn185 1.949 . S
O186 Zn187 1.923 . S
O186 Zn188 1.950 . S
O186 Zn189 1.945 . S
Zn187 O186 1.923 . S
Zn187 O190 1.933 . S
Zn187 O193 1.941 . S
Zn187 O194 1.965 . S
Zn188 O186 1.950 . S
Zn188 O195 1.938 . S
Zn188 O196 1.906 . S
Zn188 O206 1.953 . S
Zn189 O186 1.945 . S
Zn189 O191 1.932 . S
Zn189 O198 1.977 . S
Zn189 O199 1.910 . S
O190 Zn187 1.933 . S
O190 C201 1.226 . S
O191 Zn189 1.932 . S
O191 C201 1.307 . S
O192 Zn185 1.919 . S
O192 C203 1.253 . S
O193 Zn187 1.941 . S
O193 C203 1.283 . S
O194 Zn187 1.965 . S
O194 C202 1.303 . S
O195 Zn188 1.938 . S
O195 C202 1.247 . S
O196 Zn188 1.906 . S
O196 C204 1.304 . S
O197 Zn185 1.924 . S
O197 C205 1.311 . S
O198 Zn189 1.977 . S
O198 C204 1.272 . S
O199 Zn189 1.910 . S
O199 C205 1.231 . S
C200 O184 1.225 . S
C200 O206 1.298 . S
C201 O190 1.226 . S
C201 O191 1.307 . S
C202 O194 1.303 . S
C202 O195 1.247 . S
C203 O192 1.253 . S
C203 O193 1.283 . S
C204 O196 1.304 . S
C204 O198 1.272 . S
C205 O197 1.311 . S
C205 O199 1.231 . S
O206 Zn188 1.953 . S
O206 C200 1.298 . S
O207 Zn208 1.953 . S
O207 C223 1.225 . S
Zn208 O207 1.953 . S
Zn208 O209 1.949 . S
Zn208 O215 1.919 . S
Zn208 O220 1.924 . S
O209 Zn208 1.949 . S
O209 Zn210 1.923 . S
O209 Zn211 1.950 . S
O209 Zn212 1.945 . S
Zn210 O209 1.923 . S
Zn210 O213 1.933 . S
Zn210 O216 1.941 . S
Zn210 O217 1.965 . S
Zn211 O209 1.950 . S
Zn211 O218 1.962 . S
Zn211 O219 1.906 . S
Zn211 O229 1.953 . S
Zn212 O209 1.945 . S
Zn212 O214 1.932 . S
Zn212 O221 1.977 . S
Zn212 O222 1.910 . S
O213 Zn210 1.933 . S
O213 C224 1.226 . S
O214 Zn212 1.932 . S
O214 C224 1.307 . S
O215 Zn208 1.919 . S
O215 C226 1.253 . S
O216 Zn210 1.941 . S
O216 C226 1.283 . S
O217 Zn210 1.965 . S
O217 C225 1.303 . S
O218 Zn211 1.962 . S
O218 C225 1.253 . S
O219 Zn211 1.906 . S
O219 C227 1.304 . S
O220 Zn208 1.924 . S
O220 C228 1.311 . S
O221 Zn212 1.977 . S
O221 C227 1.272 . S
O222 Zn212 1.910 . S
O222 C228 1.231 . S
C223 O207 1.225 . S
C223 O229 1.298 . S
C224 O213 1.226 . S
C224 O214 1.307 . S
C225 O217 1.303 . S
C225 O218 1.253 . S
C226 O215 1.253 . S
C226 O216 1.283 . S
C227 O219 1.304 . S
C227 O221 1.272 . S
C228 O220 1.311 . S
C228 O222 1.231 . S
O229 Zn211 1.953 . S
O229 C223 1.298 . S
O230 Zn231 1.953 . S
O230 C246 1.225 . S
Zn231 O230 1.953 . S
Zn231 O232 1.949 1_556 S
Zn231 O238 1.919 . S
Zn231 O243 1.924 . S
O232 Zn231 1.949 1_554 S
O232 Zn233 1.923 . S
O232 Zn234 1.950 . S
O232 Zn235 1.945 . S
Zn233 O232 1.923 . S
Zn233 O236 1.933 . S
Zn233 O239 1.941 1_554 S
Zn233 O240 1.965 . S
Zn234 O232 1.950 . S
Zn234 O241 1.938 . S
Zn234 O242 1.906 . S
Zn234 O252 1.953 1_554 S
Zn235 O232 1.945 . S
Zn235 O237 1.932 . S
Zn235 O244 1.977 . S
Zn235 O245 1.910 . S
O236 Zn233 1.933 . S
O236 C247 1.226 . S
O237 Zn235 1.932 . S
O237 C247 1.307 . S
O238 Zn231 1.919 . S
O238 C249 1.253 . S
O239 Zn233 1.941 1_556 S
O239 C249 1.283 . S
O240 Zn233 1.965 . S
O240 C248 1.303 . S
O241 Zn234 1.938 . S
O241 C248 1.247 . S
O242 Zn234 1.906 . S
O242 C250 1.304 . S
O243 Zn231 1.924 . S
O243 C251 1.311 . S
O244 Zn235 1.977 . S
O244 C250 1.272 . S
O245 Zn235 1.910 . S
O245 C251 1.231 1_554 S
C246 O230 1.225 . S
C246 O252 1.298 . S
C247 O236 1.226 . S
C247 O237 1.307 . S
C248 O240 1.303 . S
C248 O241 1.247 . S
C249 O238 1.253 . S
C249 O239 1.283 . S
C250 O242 1.304 . S
C250 O244 1.272 . S
C251 O243 1.311 . S
C251 O245 1.231 1_556 S
O252 Zn234 1.953 1_556 S
O252 C246 1.298 . S
O253 Zn254 1.953 . S
O253 C269 1.225 . S
Zn254 O253 1.953 . S
Zn254 O255 1.949 . S
Zn254 O261 1.919 . S
Zn254 O266 1.924 . S
O255 Zn254 1.949 . S
O255 Zn256 1.923 . S
O255 Zn257 1.950 . S
O255 Zn258 1.945 . S
Zn256 O255 1.923 . S
Zn256 O259 1.933 . S
Zn256 O262 1.941 . S
Zn256 O263 1.965 . S
Zn257 O255 1.950 . S
Zn257 O264 1.938 . S
Zn257 O265 1.906 . S
Zn257 O275 1.953 . S
Zn258 O255 1.945 . S
Zn258 O260 1.932 . S
Zn258 O267 1.977 . S
Zn258 O268 1.910 . S
O259 Zn256 1.933 . S
O259 C270 1.226 . S
O260 Zn258 1.932 . S
O260 C270 1.307 . S
O261 Zn254 1.919 . S
O261 C272 1.253 . S
O262 Zn256 1.941 . S
O262 C272 1.283 . S
O263 Zn256 1.965 . S
O263 C271 1.303 . S
O264 Zn257 1.938 . S
O264 C271 1.247 . S
O265 Zn257 1.906 . S
O265 C273 1.304 . S
O266 Zn254 1.924 . S
O266 C274 1.311 . S
O267 Zn258 1.977 . S
O267 C273 1.272 . S
O268 Zn258 1.910 . S
O268 C274 1.231 . S
C269 O253 1.225 . S
C269 O275 1.298 . S
C270 O259 1.226 . S
C270 O260 1.307 . S
C271 O263 1.303 . S
C271 O264 1.247 . S
C272 O261 1.253 . S
C272 O262 1.283 . S
C273 O265 1.304 . S
C273 O267 1.272 . S
C274 O266 1.311 . S
C274 O268 1.231 . S
O275 Zn257 1.953 . S
O275 C269 1.298 . S
O276 Zn277 1.953 . S
O276 C292 1.225 . S
Zn277 O276 1.953 . S
Zn277 O278 1.949 . S
Zn277 O284 1.919 . S
Zn277 O289 1.924 . S
O278 Zn277 1.949 . S
O278 Zn279 1.923 . S
O278 Zn280 1.950 . S
O278 Zn281 1.945 . S
Zn279 O278 1.923 . S
Zn279 O282 1.933 . S
Zn279 O285 1.941 . S
Zn279 O286 1.965 . S
Zn280 O278 1.950 . S
Zn280 O287 1.938 . S
Zn280 O288 1.906 . S
Zn280 O298 1.953 . S
Zn281 O278 1.945 . S
Zn281 O283 1.932 . S
Zn281 O290 1.977 . S
Zn281 O291 1.910 . S
O282 Zn279 1.933 . S
O282 C293 1.226 . S
O283 Zn281 1.932 . S
O283 C293 1.307 . S
O284 Zn277 1.919 . S
O284 C295 1.253 . S
O285 Zn279 1.941 . S
O285 C295 1.283 . S
O286 Zn279 1.965 . S
O286 C294 1.303 . S
O287 Zn280 1.938 . S
O287 C294 1.247 . S
O288 Zn280 1.906 . S
O288 C296 1.304 . S
O289 Zn277 1.924 . S
O289 C297 1.311 . S
O290 Zn281 1.977 . S
O290 C296 1.272 . S
O291 Zn281 1.910 . S
O291 C297 1.231 . S
C292 O276 1.225 . S
C292 O298 1.298 . S
C293 O282 1.226 . S
C293 O283 1.307 . S
C294 O286 1.303 . S
C294 O287 1.247 . S
C295 O284 1.253 . S
C295 O285 1.283 . S
C296 O288 1.304 . S
C296 O290 1.272 . S
C297 O289 1.311 . S
C297 O291 1.231 . S
O298 Zn280 1.953 . S
O298 C292 1.298 . S
O299 Zn300 1.953 . S
O299 C315 1.225 . S
Zn300 O299 1.953 . S
Zn300 O301 1.949 . S
Zn300 O307 1.919 . S
Zn300 O312 1.924 . S
O301 Zn300 1.949 . S
O301 Zn302 1.923 . S
O301 Zn303 1.950 . S
O301 Zn304 1.945 . S
Zn302 O301 1.923 . S
Zn302 O305 1.933 . S
Zn302 O308 1.941 . S
Zn302 O309 1.965 . S
Zn303 O301 1.950 . S
Zn303 O310 1.962 . S
Zn303 O311 1.906 . S
Zn303 O321 1.953 . S
Zn304 O301 1.945 . S
Zn304 O306 1.932 . S
Zn304 O313 1.977 . S
Zn304 O314 1.910 . S
O305 Zn302 1.933 . S
O305 C316 1.226 . S
O306 Zn304 1.932 . S
O306 C316 1.307 . S
O307 Zn300 1.919 . S
O307 C318 1.253 . S
O308 Zn302 1.941 . S
O308 C318 1.283 . S
O309 Zn302 1.965 . S
O309 C317 1.303 . S
O310 Zn303 1.962 . S
O310 C317 1.253 . S
O311 Zn303 1.906 . S
O311 C319 1.304 . S
O312 Zn300 1.924 . S
O312 C320 1.311 . S
O313 Zn304 1.977 . S
O313 C319 1.272 . S
O314 Zn304 1.910 . S
O314 C320 1.231 . S
C315 O299 1.225 . S
C315 O321 1.298 . S
C316 O305 1.226 . S
C316 O306 1.307 . S
C317 O309 1.303 . S
C317 O310 1.253 . S
C318 O307 1.253 . S
C318 O308 1.283 . S
C319 O311 1.304 . S
C319 O313 1.272 . S
C320 O312 1.311 . S
C320 O314 1.231 . S
O321 Zn303 1.953 . S
O321 C315 1.298 . S
O322 Zn323 1.953 . S
O322 C338 1.225 . S
Zn323 O322 1.953 . S
Zn323 O324 1.949 . S
Zn323 O330 1.919 . S
Zn323 O335 1.924 . S
O324 Zn323 1.949 . S
O324 Zn325 1.923 . S
O324 Zn326 1.950 . S
O324 Zn327 1.930 1_554 S
Zn325 O324 1.923 . S
Zn325 O328 1.933 1_554 S
Zn325 O331 1.941 . S
Zn325 O332 1.965 . S
Zn326 O324 1.950 . S
Zn326 O333 1.938 . S
Zn326 O334 1.906 1_554 S
Zn326 O344 1.953 . S
Zn327 O324 1.930 1_556 S
Zn327 O329 1.947 . S
Zn327 O336 1.991 . S
Zn327 O337 1.900 1_556 S
O328 Zn325 1.933 1_556 S
O328 C339 1.226 . S
O329 Zn327 1.947 . S
O329 C339 1.307 . S
O330 Zn323 1.919 . S
O330 C341 1.253 . S
O331 Zn325 1.941 . S
O331 C341 1.283 . S
O332 Zn325 1.965 . S
O332 C340 1.303 . S
O333 Zn326 1.938 . S
O333 C340 1.247 . S
O334 Zn326 1.906 1_556 S
O334 C342 1.304 . S
O335 Zn323 1.924 . S
O335 C343 1.311 . S
O336 Zn327 1.991 . S
O336 C342 1.272 . S
O337 Zn327 1.900 1_554 S
O337 C343 1.231 . S
C338 O322 1.225 . S
C338 O344 1.298 . S
C339 O328 1.226 . S
C339 O329 1.307 . S
C340 O332 1.303 . S
C340 O333 1.247 . S
C341 O330 1.253 . S
C341 O331 1.283 . S
C342 O334 1.304 . S
C342 O336 1.272 . S
C343 O335 1.311 . S
C343 O337 1.231 . S
O344 Zn326 1.953 . S
O344 C338 1.298 . S
O345 Zn346 1.953 . S
O345 C361 1.225 . S
Zn346 O345 1.953 . S
Zn346 O347 1.949 . S
Zn346 O353 1.919 . S
Zn346 O358 1.924 . S
O347 Zn346 1.949 . S
O347 Zn348 1.923 . S
O347 Zn349 1.950 . S
O347 Zn350 1.945 . S
Zn348 O347 1.923 . S
Zn348 O351 1.933 . S
Zn348 O354 1.941 . S
Zn348 O355 1.965 . S
Zn349 O347 1.950 . S
Zn349 O356 1.938 . S
Zn349 O357 1.906 . S
Zn349 O367 1.953 . S
Zn350 O347 1.945 . S
Zn350 O352 1.932 . S
Zn350 O359 1.977 . S
Zn350 O360 1.910 . S
O351 Zn348 1.933 . S
O351 C362 1.226 . S
O352 Zn350 1.932 . S
O352 C362 1.307 . S
O353 Zn346 1.919 . S
O353 C364 1.253 . S
O354 Zn348 1.941 . S
O354 C364 1.283 . S
O355 Zn348 1.965 . S
O355 C363 1.303 . S
O356 Zn349 1.938 . S
O356 C363 1.247 . S
O357 Zn349 1.906 . S
O357 C365 1.304 . S
O358 Zn346 1.924 . S
O358 C366 1.311 . S
O359 Zn350 1.977 . S
O359 C365 1.272 . S
O360 Zn350 1.910 . S
O360 C366 1.231 . S
C361 O345 1.225 . S
C361 O367 1.298 . S
C362 O351 1.226 . S
C362 O352 1.307 . S
C363 O355 1.303 . S
C363 O356 1.247 . S
C364 O353 1.253 . S
C364 O354 1.283 . S
C365 O357 1.304 . S
C365 O359 1.272 . S
C366 O358 1.311 . S
C366 O360 1.231 . S
O367 Zn349 1.953 . S
O367 C361 1.298 . S
H368 C374 0.930 1_554 S
H369 C378 0.930 . S
H370 C383 0.929 . S
H371 C381 0.929 . S
H372 C376 0.929 . S
H373 C382 0.929 1_554 S
C374 H368 0.930 1_556 S
C374 C375 1.367 . S
C374 C382 1.378 . S
C375 C374 1.367 . S
C375 C383 1.433 . S
C376 H372 0.929 . S
C376 C378 1.378 . S
C376 C380 1.350 . S
C377 C380 1.463 . S
C377 C382 1.350 . S
C377 N385 1.427 . S
C378 H369 0.930 . S
C378 C376 1.378 . S
C378 C379 1.367 . S
C379 C378 1.367 . S
C379 C381 1.433 . S
C380 C376 1.350 . S
C380 C377 1.463 . S
C380 N384 1.427 . S
C381 H371 0.929 . S
C381 C379 1.433 . S
C381 N384 1.384 . S
C382 H373 0.929 1_556 S
C382 C374 1.378 . S
C382 C377 1.350 . S
C383 H370 0.929 . S
C383 C375 1.433 . S
C383 N385 1.384 . S
N384 C380 1.427 . S
N384 C381 1.384 . S
N385 C377 1.427 . S
N385 C383 1.384 . S
H386 C392 0.930 . S
H387 C396 0.930 . S
H388 C401 0.929 . S
H389 C399 0.929 . S
H390 C394 0.929 . S
H391 C400 0.929 . S
C392 H386 0.930 . S
C392 C393 1.367 . S
C392 C400 1.378 . S
C393 C392 1.367 . S
C393 C401 1.433 . S
C394 H390 0.929 . S
C394 C396 1.378 . S
C394 C398 1.350 . S
C395 C398 1.463 . S
C395 C400 1.350 . S
C395 N403 1.427 . S
C396 H387 0.930 . S
C396 C394 1.378 . S
C396 C397 1.367 . S
C397 C396 1.367 . S
C397 C399 1.433 . S
C398 C394 1.350 . S
C398 C395 1.463 . S
C398 N402 1.427 . S
C399 H389 0.929 . S
C399 C397 1.433 . S
C399 N402 1.384 . S
C400 H391 0.929 . S
C400 C392 1.378 . S
C400 C395 1.350 . S
C401 H388 0.929 . S
C401 C393 1.433 . S
C401 N403 1.384 . S
N402 C398 1.427 . S
N402 C399 1.384 . S
N403 C395 1.427 . S
N403 C401 1.384 . S
H404 C410 0.930 . S
H405 C414 0.930 . S
H406 C419 0.929 . S
H407 C417 0.929 . S
H408 C412 0.929 . S
H409 C418 0.929 . S
C410 H404 0.930 . S
C410 C411 1.367 . S
C410 C418 1.378 . S
C411 C410 1.367 . S
C411 C419 1.433 . S
C412 H408 0.929 . S
C412 C414 1.378 . S
C412 C416 1.350 . S
C413 C416 1.463 . S
C413 C418 1.350 . S
C413 N421 1.427 . S
C414 H405 0.930 . S
C414 C412 1.378 . S
C414 C415 1.367 . S
C415 C414 1.367 . S
C415 C417 1.433 . S
C416 C412 1.350 . S
C416 C413 1.463 . S
C416 N420 1.427 . S
C417 H407 0.929 . S
C417 C415 1.433 . S
C417 N420 1.384 . S
C418 H409 0.929 . S
C418 C410 1.378 . S
C418 C413 1.350 . S
C419 H406 0.929 . S
C419 C411 1.433 . S
C419 N421 1.384 . S
N420 C416 1.427 . S
N420 C417 1.384 . S
N421 C413 1.427 . S
N421 C419 1.384 . S
H422 C428 0.930 . S
H423 C432 0.930 . S
H424 C437 0.929 . S
H425 C435 0.929 . S
H426 C430 0.929 . S
H427 C436 0.929 . S
C428 H422 0.930 . S
C428 C429 1.367 . S
C428 C436 1.378 . S
C429 C428 1.367 . S
C429 C437 1.433 . S
C430 H426 0.929 . S
C430 C432 1.378 . S
C430 C434 1.350 . S
C431 C434 1.463 . S
C431 C436 1.350 . S
C431 N439 1.427 . S
C432 H423 0.930 . S
C432 C430 1.378 . S
C432 C433 1.367 . S
C433 C432 1.367 . S
C433 C435 1.433 . S
C434 C430 1.350 . S
C434 C431 1.463 . S
C434 N438 1.427 . S
C435 H425 0.929 . S
C435 C433 1.433 . S
C435 N438 1.384 . S
C436 H427 0.929 . S
C436 C428 1.378 . S
C436 C431 1.350 . S
C437 H424 0.929 . S
C437 C429 1.433 . S
C437 N439 1.384 . S
N438 C434 1.427 . S
N438 C435 1.384 . S
N439 C431 1.427 . S
N439 C437 1.384 . S
H440 C446 0.930 . S
H441 C450 0.930 . S
H442 C455 0.929 . S
H443 C453 0.929 . S
H444 C448 0.929 . S
H445 C454 0.929 . S
C446 H440 0.930 . S
C446 C447 1.367 . S
C446 C454 1.378 . S
C447 C446 1.367 . S
C447 C455 1.433 . S
C448 H444 0.929 . S
C448 C450 1.378 . S
C448 C452 1.350 . S
C449 C452 1.463 . S
C449 C454 1.350 . S
C449 N457 1.427 . S
C450 H441 0.930 . S
C450 C448 1.378 . S
C450 C451 1.367 . S
C451 C450 1.367 . S
C451 C453 1.433 . S
C452 C448 1.350 . S
C452 C449 1.463 . S
C452 N456 1.427 . S
C453 H443 0.929 . S
C453 C451 1.433 . S
C453 N456 1.384 . S
C454 H445 0.929 . S
C454 C446 1.378 . S
C454 C449 1.350 . S
C455 H442 0.929 . S
C455 C447 1.433 . S
C455 N457 1.384 . S
N456 C452 1.427 . S
N456 C453 1.384 . S
N457 C449 1.427 . S
N457 C455 1.384 . S
H458 C464 0.930 . S
H459 C468 0.930 . S
H460 C473 0.929 . S
H461 C471 0.929 . S
H462 C466 0.929 . S
H463 C472 0.929 . S
C464 H458 0.930 . S
C464 C465 1.367 . S
C464 C472 1.378 . S
C465 C464 1.367 . S
C465 C473 1.433 . S
C466 H462 0.929 . S
C466 C468 1.378 . S
C466 C470 1.350 . S
C467 C470 1.463 . S
C467 C472 1.350 . S
C467 N475 1.427 . S
C468 H459 0.930 . S
C468 C466 1.378 . S
C468 C469 1.367 . S
C469 C468 1.367 . S
C469 C471 1.433 . S
C470 C466 1.350 . S
C470 C467 1.463 . S
C470 N474 1.427 . S
C471 H461 0.929 . S
C471 C469 1.433 . S
C471 N474 1.384 . S
C472 H463 0.929 . S
C472 C464 1.378 . S
C472 C467 1.350 . S
C473 H460 0.929 . S
C473 C465 1.433 . S
C473 N475 1.384 . S
N474 C470 1.427 . S
N474 C471 1.384 . S
N475 C467 1.427 . S
N475 C473 1.384 . S
H476 C482 0.930 . S
H477 C486 0.930 . S
H478 C491 0.929 . S
H479 C489 0.929 . S
H480 C484 0.929 . S
H481 C490 0.929 . S
C482 H476 0.930 . S
C482 C483 1.367 . S
C482 C490 1.378 . S
C483 C482 1.367 . S
C483 C491 1.433 . S
C484 H480 0.929 . S
C484 C486 1.378 . S
C484 C488 1.350 . S
C485 C488 1.463 . S
C485 C490 1.350 . S
C485 N493 1.427 . S
C486 H477 0.930 . S
C486 C484 1.378 . S
C486 C487 1.367 . S
C487 C486 1.367 . S
C487 C489 1.433 . S
C488 C484 1.350 . S
C488 C485 1.463 . S
C488 N492 1.427 . S
C489 H479 0.929 . S
C489 C487 1.433 . S
C489 N492 1.384 . S
C490 H481 0.929 . S
C490 C482 1.378 . S
C490 C485 1.350 . S
C491 H478 0.929 . S
C491 C483 1.433 . S
C491 N493 1.384 . S
N492 C488 1.427 . S
N492 C489 1.384 . S
N493 C485 1.427 . S
N493 C491 1.384 . S
H494 C500 0.930 . S
H495 C504 0.930 . S
H496 C509 0.929 . S
H497 C507 0.929 . S
H498 C502 0.929 . S
H499 C508 0.929 . S
C500 H494 0.930 . S
C500 C501 1.367 . S
C500 C508 1.378 . S
C501 C500 1.367 . S
C501 C509 1.433 . S
C502 H498 0.929 . S
C502 C504 1.378 . S
C502 C506 1.350 . S
C503 C506 1.463 . S
C503 C508 1.350 . S
C503 N511 1.427 . S
C504 H495 0.930 . S
C504 C502 1.378 . S
C504 C505 1.367 . S
C505 C504 1.367 . S
C505 C507 1.433 . S
C506 C502 1.350 . S
C506 C503 1.463 . S
C506 N510 1.427 . S
C507 H497 0.929 . S
C507 C505 1.433 . S
C507 N510 1.384 . S
C508 H499 0.929 . S
C508 C500 1.378 . S
C508 C503 1.350 . S
C509 H496 0.929 . S
C509 C501 1.433 . S
C509 N511 1.384 . S
N510 C506 1.427 . S
N510 C507 1.384 . S
N511 C503 1.427 . S
N511 C509 1.384 . S
H512 C518 0.930 . S
H513 C522 0.930 . S
H514 C527 0.929 . S
H515 C525 0.929 . S
H516 C520 0.929 . S
H517 C526 0.929 . S
C518 H512 0.930 . S
C518 C519 1.367 . S
C518 C526 1.378 . S
C519 C518 1.367 . S
C519 C527 1.433 . S
C520 H516 0.929 . S
C520 C522 1.378 . S
C520 C524 1.350 . S
C521 C524 1.463 . S
C521 C526 1.350 . S
C521 N529 1.427 . S
C522 H513 0.930 . S
C522 C520 1.378 . S
C522 C523 1.367 . S
C523 C522 1.367 . S
C523 C525 1.433 . S
C524 C520 1.350 . S
C524 C521 1.463 . S
C524 N528 1.427 . S
C525 H515 0.929 . S
C525 C523 1.433 . S
C525 N528 1.384 . S
C526 H517 0.929 . S
C526 C518 1.378 . S
C526 C521 1.350 . S
C527 H514 0.929 . S
C527 C519 1.433 . S
C527 N529 1.384 . S
N528 C524 1.427 . S
N528 C525 1.384 . S
N529 C521 1.427 . S
N529 C527 1.384 . S
H530 C536 0.930 . S
H531 C540 0.930 . S
H532 C545 0.929 . S
H533 C543 0.929 . S
H534 C538 0.929 . S
H535 C544 0.929 . S
C536 H530 0.930 . S
C536 C537 1.367 . S
C536 C544 1.378 . S
C537 C536 1.367 . S
C537 C545 1.433 . S
C538 H534 0.929 . S
C538 C540 1.378 . S
C538 C542 1.350 . S
C539 C542 1.463 . S
C539 C544 1.350 . S
C539 N547 1.427 . S
C540 H531 0.930 . S
C540 C538 1.378 . S
C540 C541 1.367 . S
C541 C540 1.367 . S
C541 C543 1.433 . S
C542 C538 1.350 . S
C542 C539 1.463 . S
C542 N546 1.427 . S
C543 H533 0.929 . S
C543 C541 1.433 . S
C543 N546 1.384 . S
C544 H535 0.929 . S
C544 C536 1.378 . S
C544 C539 1.350 . S
C545 H532 0.929 . S
C545 C537 1.433 . S
C545 N547 1.384 . S
N546 C542 1.427 . S
N546 C543 1.384 . S
N547 C539 1.427 . S
N547 C545 1.384 . S
H548 C554 0.930 . S
H549 C558 0.930 . S
H550 C563 0.929 . S
H551 C561 0.929 . S
H552 C556 0.929 . S
H553 C562 0.929 . S
C554 H548 0.930 . S
C554 C555 1.367 . S
C554 C562 1.378 . S
C555 C554 1.367 . S
C555 C563 1.433 . S
C556 H552 0.929 . S
C556 C558 1.378 . S
C556 C560 1.350 . S
C557 C560 1.463 . S
C557 C562 1.350 . S
C557 N565 1.427 . S
C558 H549 0.930 . S
C558 C556 1.378 . S
C558 C559 1.367 . S
C559 C558 1.367 . S
C559 C561 1.433 . S
C560 C556 1.350 . S
C560 C557 1.463 . S
C560 N564 1.427 . S
C561 H551 0.929 . S
C561 C559 1.433 . S
C561 N564 1.384 . S
C562 H553 0.929 . S
C562 C554 1.378 . S
C562 C557 1.350 . S
C563 H550 0.929 . S
C563 C555 1.433 . S
C563 N565 1.384 . S
N564 C560 1.427 . S
N564 C561 1.384 . S
N565 C557 1.427 . S
N565 C563 1.384 . S
H566 C572 0.930 . S
H567 C576 0.930 . S
H568 C581 0.929 . S
H569 C579 0.929 . S
H570 C574 0.929 . S
H571 C580 0.929 . S
C572 H566 0.930 . S
C572 C573 1.367 . S
C572 C580 1.378 . S
C573 C572 1.367 . S
C573 C581 1.433 . S
C574 H570 0.929 . S
C574 C576 1.378 . S
C574 C578 1.350 . S
C575 C578 1.463 . S
C575 C580 1.350 . S
C575 N583 1.427 . S
C576 H567 0.930 . S
C576 C574 1.378 . S
C576 C577 1.367 . S
C577 C576 1.367 . S
C577 C579 1.433 . S
C578 C574 1.350 . S
C578 C575 1.463 . S
C578 N582 1.427 . S
C579 H569 0.929 . S
C579 C577 1.433 . S
C579 N582 1.384 . S
C580 H571 0.929 . S
C580 C572 1.378 . S
C580 C575 1.350 . S
C581 H568 0.929 . S
C581 C573 1.433 . S
C581 N583 1.384 . S
N582 C578 1.427 . S
N582 C579 1.384 . S
N583 C575 1.427 . S
N583 C581 1.384 . S
H584 C590 0.930 . S
H585 C594 0.930 . S
H586 C599 0.929 . S
H587 C597 0.929 . S
H588 C592 0.929 . S
H589 C598 0.929 . S
C590 H584 0.930 . S
C590 C591 1.367 . S
C590 C598 1.378 . S
C591 C590 1.367 . S
C591 C599 1.433 . S
C592 H588 0.929 . S
C592 C594 1.378 . S
C592 C596 1.350 . S
C593 C596 1.463 . S
C593 C598 1.350 . S
C593 N601 1.427 . S
C594 H585 0.930 . S
C594 C592 1.378 . S
C594 C595 1.367 . S
C595 C594 1.367 . S
C595 C597 1.433 . S
C596 C592 1.350 . S
C596 C593 1.463 . S
C596 N600 1.427 . S
C597 H587 0.929 . S
C597 C595 1.433 . S
C597 N600 1.384 . S
C598 H589 0.929 . S
C598 C590 1.378 . S
C598 C593 1.350 . S
C599 H586 0.929 . S
C599 C591 1.433 . S
C599 N601 1.384 . S
N600 C596 1.427 . S
N600 C597 1.384 . S
N601 C593 1.427 . S
N601 C599 1.384 . S
H602 C608 0.930 . S
H603 C612 0.930 . S
H604 C617 0.929 . S
H605 C615 0.929 . S
H606 C610 0.929 . S
H607 C616 0.929 . S
C608 H602 0.930 . S
C608 C609 1.367 . S
C608 C616 1.378 . S
C609 C608 1.367 . S
C609 C617 1.433 . S
C610 H606 0.929 . S
C610 C612 1.378 . S
C610 C614 1.350 . S
C611 C614 1.463 . S
C611 C616 1.350 . S
C611 N619 1.427 . S
C612 H603 0.930 . S
C612 C610 1.378 . S
C612 C613 1.367 . S
C613 C612 1.367 . S
C613 C615 1.433 . S
C614 C610 1.350 . S
C614 C611 1.463 . S
C614 N618 1.427 . S
C615 H605 0.929 . S
C615 C613 1.433 . S
C615 N618 1.384 . S
C616 H607 0.929 . S
C616 C608 1.378 . S
C616 C611 1.350 . S
C617 H604 0.929 . S
C617 C609 1.433 . S
C617 N619 1.384 . S
N618 C614 1.427 . S
N618 C615 1.384 . S
N619 C611 1.427 . S
N619 C617 1.384 . S
H620 C626 0.930 . S
H621 C630 0.930 . S
H622 C635 0.929 . S
H623 C633 0.929 . S
H624 C628 0.929 . S
H625 C634 0.929 . S
C626 H620 0.930 . S
C626 C627 1.367 . S
C626 C634 1.378 . S
C627 C626 1.367 . S
C627 C635 1.433 . S
C628 H624 0.929 . S
C628 C630 1.378 . S
C628 C632 1.350 . S
C629 C632 1.463 . S
C629 C634 1.350 . S
C629 N637 1.427 . S
C630 H621 0.930 . S
C630 C628 1.378 . S
C630 C631 1.367 . S
C631 C630 1.367 . S
C631 C633 1.433 . S
C632 C628 1.350 . S
C632 C629 1.463 . S
C632 N636 1.427 . S
C633 H623 0.929 . S
C633 C631 1.433 . S
C633 N636 1.384 . S
C634 H625 0.929 . S
C634 C626 1.378 . S
C634 C629 1.350 . S
C635 H622 0.929 . S
C635 C627 1.433 . S
C635 N637 1.384 . S
N636 C632 1.427 . S
N636 C633 1.384 . S
N637 C629 1.427 . S
N637 C635 1.384 . S
H638 C644 0.930 . S
H639 C648 0.930 . S
H640 C653 0.929 . S
H641 C651 0.929 . S
H642 C646 0.929 . S
H643 C652 0.929 . S
C644 H638 0.930 . S
C644 C645 1.367 . S
C644 C652 1.378 . S
C645 C644 1.367 . S
C645 C653 1.433 . S
C646 H642 0.929 . S
C646 C648 1.378 . S
C646 C650 1.350 . S
C647 C650 1.463 . S
C647 C652 1.350 . S
C647 N655 1.427 . S
C648 H639 0.930 . S
C648 C646 1.378 . S
C648 C649 1.367 . S
C649 C648 1.367 . S
C649 C651 1.433 . S
C650 C646 1.350 . S
C650 C647 1.463 . S
C650 N654 1.427 . S
C651 H641 0.929 . S
C651 C649 1.433 . S
C651 N654 1.384 . S
C652 H643 0.929 . S
C652 C644 1.378 . S
C652 C647 1.350 . S
C653 H640 0.929 . S
C653 C645 1.433 . S
C653 N655 1.384 . S
N654 C650 1.427 . S
N654 C651 1.384 . S
N655 C647 1.427 . S
N655 C653 1.384 . S
H656 C662 0.930 . S
H657 C666 0.930 . S
H658 C671 0.929 . S
H659 C669 0.929 . S
H660 C664 0.929 . S
H661 C670 0.929 . S
C662 H656 0.930 . S
C662 C663 1.367 . S
C662 C670 1.378 . S
C663 C662 1.367 . S
C663 C671 1.433 . S
C664 H660 0.929 . S
C664 C666 1.378 . S
C664 C668 1.350 . S
C665 C668 1.463 . S
C665 C670 1.350 . S
C665 N673 1.427 . S
C666 H657 0.930 . S
C666 C664 1.378 . S
C666 C667 1.367 . S
C667 C666 1.367 . S
C667 C669 1.433 . S
C668 C664 1.350 . S
C668 C665 1.463 . S
C668 N672 1.427 . S
C669 H659 0.929 . S
C669 C667 1.433 . S
C669 N672 1.384 . S
C670 H661 0.929 . S
C670 C662 1.378 . S
C670 C665 1.350 . S
C671 H658 0.929 . S
C671 C663 1.433 . S
C671 N673 1.384 . S
N672 C668 1.427 . S
N672 C669 1.384 . S
N673 C665 1.427 . S
N673 C671 1.384 . S
H674 C680 0.930 . S
H675 C684 0.930 . S
H676 C689 0.929 . S
H677 C687 0.929 . S
H678 C682 0.929 . S
H679 C688 0.929 . S
C680 H674 0.930 . S
C680 C681 1.367 . S
C680 C688 1.378 . S
C681 C680 1.367 . S
C681 C689 1.433 . S
C682 H678 0.929 . S
C682 C684 1.378 . S
C682 C686 1.350 . S
C683 C686 1.463 . S
C683 C688 1.350 . S
C683 N691 1.427 . S
C684 H675 0.930 . S
C684 C682 1.378 . S
C684 C685 1.367 . S
C685 C684 1.367 . S
C685 C687 1.433 . S
C686 C682 1.350 . S
C686 C683 1.463 . S
C686 N690 1.427 . S
C687 H677 0.929 . S
C687 C685 1.433 . S
C687 N690 1.384 . S
C688 H679 0.929 . S
C688 C680 1.378 . S
C688 C683 1.350 . S
C689 H676 0.929 . S
C689 C681 1.433 . S
C689 N691 1.384 . S
N690 C686 1.427 . S
N690 C687 1.384 . S
N691 C683 1.427 . S
N691 C689 1.384 . S
H692 C698 0.930 . S
H693 C702 0.930 . S
H694 C707 0.929 . S
H695 C705 0.929 . S
H696 C700 0.929 . S
H697 C706 0.929 . S
C698 H692 0.930 . S
C698 C699 1.367 . S
C698 C706 1.378 . S
C699 C698 1.367 . S
C699 C707 1.433 . S
C700 H696 0.929 . S
C700 C702 1.378 . S
C700 C704 1.350 . S
C701 C704 1.463 . S
C701 C706 1.350 . S
C701 N709 1.427 . S
C702 H693 0.930 . S
C702 C700 1.378 . S
C702 C703 1.367 . S
C703 C702 1.367 . S
C703 C705 1.433 . S
C704 C700 1.350 . S
C704 C701 1.463 . S
C704 N708 1.427 . S
C705 H695 0.929 . S
C705 C703 1.433 . S
C705 N708 1.384 . S
C706 H697 0.929 . S
C706 C698 1.378 . S
C706 C701 1.350 . S
C707 H694 0.929 . S
C707 C699 1.433 . S
C707 N709 1.384 . S
N708 C704 1.427 . S
N708 C705 1.384 . S
N709 C701 1.427 . S
N709 C707 1.384 . S
H710 C716 0.930 . S
H711 C720 0.930 . S
H712 C725 0.929 . S
H713 C723 0.929 . S
H714 C718 0.929 . S
H715 C724 0.929 . S
C716 H710 0.930 . S
C716 C717 1.367 . S
C716 C724 1.378 . S
C717 C716 1.367 . S
C717 C725 1.433 . S
C718 H714 0.929 . S
C718 C720 1.378 . S
C718 C722 1.350 . S
C719 C722 1.463 . S
C719 C724 1.350 . S
C719 N727 1.427 . S
C720 H711 0.930 . S
C720 C718 1.378 . S
C720 C721 1.367 . S
C721 C720 1.367 . S
C721 C723 1.433 . S
C722 C718 1.350 . S
C722 C719 1.463 . S
C722 N726 1.427 . S
C723 H713 0.929 . S
C723 C721 1.433 . S
C723 N726 1.384 . S
C724 H715 0.929 . S
C724 C716 1.378 . S
C724 C719 1.350 . S
C725 H712 0.929 . S
C725 C717 1.433 . S
C725 N727 1.384 . S
N726 C722 1.427 . S
N726 C723 1.384 . S
N727 C719 1.427 . S
N727 C725 1.384 . S
H728 C734 0.930 . S
H729 C738 0.930 . S
H730 C743 0.929 . S
H731 C741 0.929 . S
H732 C736 0.929 . S
H733 C742 0.929 . S
C734 H728 0.930 . S
C734 C735 1.367 . S
C734 C742 1.378 . S
C735 C734 1.367 . S
C735 C743 1.433 . S
C736 H732 0.929 . S
C736 C738 1.378 . S
C736 C740 1.350 . S
C737 C740 1.463 . S
C737 C742 1.350 . S
C737 N745 1.427 . S
C738 H729 0.930 . S
C738 C736 1.378 . S
C738 C739 1.367 . S
C739 C738 1.367 . S
C739 C741 1.433 . S
C740 C736 1.350 . S
C740 C737 1.463 . S
C740 N744 1.427 . S
C741 H731 0.929 . S
C741 C739 1.433 . S
C741 N744 1.384 . S
C742 H733 0.929 . S
C742 C734 1.378 . S
C742 C737 1.350 . S
C743 H730 0.929 . S
C743 C735 1.433 . S
C743 N745 1.384 . S
N744 C740 1.427 . S
N744 C741 1.384 . S
N745 C737 1.427 . S
N745 C743 1.384 . S
H746 C752 0.930 . S
H747 C756 0.930 . S
H748 C761 0.929 . S
H749 C759 0.929 . S
H750 C754 0.929 . S
H751 C760 0.929 . S
C752 H746 0.930 . S
C752 C753 1.367 1_554 S
C752 C760 1.378 1_554 S
C753 C752 1.367 1_556 S
C753 C761 1.433 . S
C754 H750 0.929 . S
C754 C756 1.378 . S
C754 C758 1.350 . S
C755 C758 1.463 . S
C755 C760 1.350 . S
C755 N763 1.427 . S
C756 H747 0.930 . S
C756 C754 1.378 . S
C756 C757 1.367 . S
C757 C756 1.367 . S
C757 C759 1.433 . S
C758 C754 1.350 . S
C758 C755 1.463 . S
C758 N762 1.427 . S
C759 H749 0.929 . S
C759 C757 1.433 . S
C759 N762 1.384 . S
C760 H751 0.929 . S
C760 C752 1.378 1_556 S
C760 C755 1.350 . S
C761 H748 0.929 . S
C761 C753 1.433 . S
C761 N763 1.384 . S
N762 C758 1.427 . S
N762 C759 1.384 . S
N763 C755 1.427 . S
N763 C761 1.384 . S
H764 C770 0.930 . S
H765 C774 0.930 . S
H766 C779 0.929 . S
H767 C777 0.929 . S
H768 C772 0.929 . S
H769 C778 0.929 . S
C770 H764 0.930 . S
C770 C771 1.367 . S
C770 C778 1.378 . S
C771 C770 1.367 . S
C771 C779 1.433 . S
C772 H768 0.929 . S
C772 C774 1.378 . S
C772 C776 1.350 . S
C773 C776 1.463 . S
C773 C778 1.350 . S
C773 N781 1.427 . S
C774 H765 0.930 . S
C774 C772 1.378 . S
C774 C775 1.367 . S
C775 C774 1.367 . S
C775 C777 1.433 . S
C776 C772 1.350 . S
C776 C773 1.463 . S
C776 N780 1.427 . S
C777 H767 0.929 . S
C777 C775 1.433 . S
C777 N780 1.384 . S
C778 H769 0.929 . S
C778 C770 1.378 . S
C778 C773 1.350 . S
C779 H766 0.929 . S
C779 C771 1.433 . S
C779 N781 1.384 . S
N780 C776 1.427 . S
N780 C777 1.384 . S
N781 C773 1.427 . S
N781 C779 1.384 . S
H782 C788 0.930 . S
H783 C792 0.930 . S
H784 C797 0.929 . S
H785 C795 0.929 . S
H786 C790 0.929 . S
H787 C796 0.929 . S
C788 H782 0.930 . S
C788 C789 1.367 . S
C788 C796 1.378 . S
C789 C788 1.367 . S
C789 C797 1.433 . S
C790 H786 0.929 . S
C790 C792 1.378 . S
C790 C794 1.350 . S
C791 C794 1.463 . S
C791 C796 1.350 . S
C791 N799 1.427 . S
C792 H783 0.930 . S
C792 C790 1.378 . S
C792 C793 1.367 . S
C793 C792 1.367 . S
C793 C795 1.433 . S
C794 C790 1.350 . S
C794 C791 1.463 . S
C794 N798 1.427 . S
C795 H785 0.929 . S
C795 C793 1.433 . S
C795 N798 1.384 . S
C796 H787 0.929 . S
C796 C788 1.378 . S
C796 C791 1.350 . S
C797 H784 0.929 . S
C797 C789 1.433 . S
C797 N799 1.384 . S
N798 C794 1.427 . S
N798 C795 1.384 . S
N799 C791 1.427 . S
N799 C797 1.384 . S
H800 C806 0.930 . S
H801 C810 0.930 . S
H802 C815 0.929 . S
H803 C813 0.929 . S
H804 C808 0.929 . S
H805 C814 0.929 . S
C806 H800 0.930 . S
C806 C807 1.367 . S
C806 C814 1.378 . S
C807 C806 1.367 . S
C807 C815 1.433 . S
C808 H804 0.929 . S
C808 C810 1.378 . S
C808 C812 1.350 . S
C809 C812 1.463 . S
C809 C814 1.350 . S
C809 N817 1.427 . S
C810 H801 0.930 . S
C810 C808 1.378 . S
C810 C811 1.367 . S
C811 C810 1.367 . S
C811 C813 1.433 . S
C812 C808 1.350 . S
C812 C809 1.463 . S
C812 N816 1.427 . S
C813 H803 0.929 . S
C813 C811 1.433 . S
C813 N816 1.384 . S
C814 H805 0.929 . S
C814 C806 1.378 . S
C814 C809 1.350 . S
C815 H802 0.929 . S
C815 C807 1.433 . S
C815 N817 1.384 . S
N816 C812 1.427 . S
N816 C813 1.384 . S
N817 C809 1.427 . S
N817 C815 1.384 . S
H818 C824 0.930 . S
H819 C828 0.930 . S
H820 C833 0.929 . S
H821 C831 0.929 . S
H822 C826 0.929 . S
H823 C832 0.929 . S
C824 H818 0.930 . S
C824 C825 1.367 . S
C824 C832 1.378 . S
C825 C824 1.367 . S
C825 C833 1.433 . S
C826 H822 0.929 . S
C826 C828 1.378 . S
C826 C830 1.350 . S
C827 C830 1.463 . S
C827 C832 1.350 . S
C827 N835 1.427 . S
C828 H819 0.930 . S
C828 C826 1.378 . S
C828 C829 1.367 . S
C829 C828 1.367 . S
C829 C831 1.433 . S
C830 C826 1.350 . S
C830 C827 1.463 . S
C830 N834 1.427 . S
C831 H821 0.929 . S
C831 C829 1.433 . S
C831 N834 1.384 . S
C832 H823 0.929 . S
C832 C824 1.378 . S
C832 C827 1.350 . S
C833 H820 0.929 . S
C833 C825 1.433 . S
C833 N835 1.384 . S
N834 C830 1.427 . S
N834 C831 1.384 . S
N835 C827 1.427 . S
N835 C833 1.384 . S
H836 C842 0.930 . S
H837 C846 0.930 . S
H838 C851 0.929 . S
H839 C849 0.929 . S
H840 C844 0.929 . S
H841 C850 0.929 . S
C842 H836 0.930 . S
C842 C843 1.367 . S
C842 C850 1.378 . S
C843 C842 1.367 . S
C843 C851 1.433 . S
C844 H840 0.929 . S
C844 C846 1.378 . S
C844 C848 1.350 . S
C845 C848 1.463 . S
C845 C850 1.350 . S
C845 N853 1.427 . S
C846 H837 0.930 . S
C846 C844 1.378 . S
C846 C847 1.367 . S
C847 C846 1.367 . S
C847 C849 1.433 . S
C848 C844 1.350 . S
C848 C845 1.463 . S
C848 N852 1.427 . S
C849 H839 0.929 . S
C849 C847 1.433 . S
C849 N852 1.384 . S
C850 H841 0.929 . S
C850 C842 1.378 . S
C850 C845 1.350 . S
C851 H838 0.929 . S
C851 C843 1.433 . S
C851 N853 1.384 . S
N852 C848 1.427 . S
N852 C849 1.384 . S
N853 C845 1.427 . S
N853 C851 1.384 . S
H854 C860 0.930 . S
H855 C864 0.930 . S
H856 C869 0.929 . S
H857 C867 0.929 . S
H858 C862 0.929 . S
H859 C868 0.929 . S
C860 H854 0.930 . S
C860 C861 1.367 . S
C860 C868 1.378 . S
C861 C860 1.367 . S
C861 C869 1.433 . S
C862 H858 0.929 . S
C862 C864 1.378 . S
C862 C866 1.350 . S
C863 C866 1.463 . S
C863 C868 1.350 . S
C863 N871 1.427 . S
C864 H855 0.930 . S
C864 C862 1.378 . S
C864 C865 1.367 . S
C865 C864 1.367 . S
C865 C867 1.433 . S
C866 C862 1.350 . S
C866 C863 1.463 . S
C866 N870 1.427 . S
C867 H857 0.929 . S
C867 C865 1.433 . S
C867 N870 1.384 . S
C868 H859 0.929 . S
C868 C860 1.378 . S
C868 C863 1.350 . S
C869 H856 0.929 . S
C869 C861 1.433 . S
C869 N871 1.384 . S
N870 C866 1.427 . S
N870 C867 1.384 . S
N871 C863 1.427 . S
N871 C869 1.384 . S
H872 C878 0.930 . S
H873 C882 0.930 . S
H874 C887 0.929 . S
H875 C885 0.929 . S
H876 C880 0.929 . S
H877 C886 0.929 . S
C878 H872 0.930 . S
C878 C879 1.367 . S
C878 C886 1.378 . S
C879 C878 1.367 . S
C879 C887 1.433 . S
C880 H876 0.929 . S
C880 C882 1.378 . S
C880 C884 1.350 . S
C881 C884 1.463 . S
C881 C886 1.350 . S
C881 N889 1.427 . S
C882 H873 0.930 . S
C882 C880 1.378 . S
C882 C883 1.367 . S
C883 C882 1.367 . S
C883 C885 1.433 . S
C884 C880 1.350 . S
C884 C881 1.463 . S
C884 N888 1.427 . S
C885 H875 0.929 . S
C885 C883 1.433 . S
C885 N888 1.384 . S
C886 H877 0.929 . S
C886 C878 1.378 . S
C886 C881 1.350 . S
C887 H874 0.929 . S
C887 C879 1.433 . S
C887 N889 1.384 . S
N888 C884 1.427 . S
N888 C885 1.384 . S
N889 C881 1.427 . S
N889 C887 1.384 . S
H890 C896 0.930 . S
H891 C900 0.930 . S
H892 C905 0.929 . S
H893 C903 0.929 . S
H894 C898 0.929 . S
H895 C904 0.929 . S
C896 H890 0.930 . S
C896 C897 1.367 . S
C896 C904 1.378 . S
C897 C896 1.367 . S
C897 C905 1.433 . S
C898 H894 0.929 . S
C898 C900 1.378 . S
C898 C902 1.350 . S
C899 C902 1.463 . S
C899 C904 1.350 . S
C899 N907 1.427 . S
C900 H891 0.930 . S
C900 C898 1.378 . S
C900 C901 1.367 . S
C901 C900 1.367 . S
C901 C903 1.433 . S
C902 C898 1.350 . S
C902 C899 1.463 . S
C902 N906 1.427 . S
C903 H893 0.929 . S
C903 C901 1.433 . S
C903 N906 1.384 . S
C904 H895 0.929 . S
C904 C896 1.378 . S
C904 C899 1.350 . S
C905 H892 0.929 . S
C905 C897 1.433 . S
C905 N907 1.384 . S
N906 C902 1.427 . S
N906 C903 1.384 . S
N907 C899 1.427 . S
N907 C905 1.384 . S
H908 C914 0.930 . S
H909 C918 0.930 . S
H910 C923 0.929 . S
H911 C921 0.929 . S
H912 C916 0.929 . S
H913 C922 0.929 . S
C914 H908 0.930 . S
C914 C915 1.367 . S
C914 C922 1.378 . S
C915 C914 1.367 . S
C915 C923 1.433 . S
C916 H912 0.929 . S
C916 C918 1.378 . S
C916 C920 1.350 . S
C917 C920 1.463 . S
C917 C922 1.350 . S
C917 N925 1.427 . S
C918 H909 0.930 . S
C918 C916 1.378 . S
C918 C919 1.367 . S
C919 C918 1.367 . S
C919 C921 1.433 . S
C920 C916 1.350 . S
C920 C917 1.463 . S
C920 N924 1.427 . S
C921 H911 0.929 . S
C921 C919 1.433 . S
C921 N924 1.384 . S
C922 H913 0.929 . S
C922 C914 1.378 . S
C922 C917 1.350 . S
C923 H910 0.929 . S
C923 C915 1.433 . S
C923 N925 1.384 . S
N924 C920 1.427 . S
N924 C921 1.384 . S
N925 C917 1.427 . S
N925 C923 1.384 . S
H926 C932 0.930 . S
H927 C936 0.930 . S
H928 C941 0.929 . S
H929 C939 0.929 1_554 S
H930 C934 0.929 . S
H931 C940 0.929 . S
C932 H926 0.930 . S
C932 C933 1.367 . S
C932 C940 1.378 . S
C933 C932 1.367 . S
C933 C941 1.433 . S
C934 H930 0.929 . S
C934 C936 1.378 . S
C934 C938 1.350 . S
C935 C938 1.463 . S
C935 C940 1.350 . S
C935 N943 1.427 . S
C936 H927 0.930 . S
C936 C934 1.378 . S
C936 C937 1.367 . S
C937 C936 1.367 . S
C937 C939 1.433 . S
C938 C934 1.350 . S
C938 C935 1.463 . S
C938 N942 1.427 . S
C939 H929 0.929 1_556 S
C939 C937 1.433 . S
C939 N942 1.384 . S
C940 H931 0.929 . S
C940 C932 1.378 . S
C940 C935 1.350 . S
C941 H928 0.929 . S
C941 C933 1.433 . S
C941 N943 1.384 . S
N942 C938 1.427 . S
N942 C939 1.384 . S
N943 C935 1.427 . S
N943 C941 1.384 . S
H944 C950 0.930 . S
H945 C954 0.930 . S
H946 C959 0.929 . S
H947 C957 0.929 . S
H948 C952 0.929 . S
H949 C958 0.929 . S
C950 H944 0.930 . S
C950 C951 1.367 . S
C950 C958 1.378 . S
C951 C950 1.367 . S
C951 C959 1.433 . S
C952 H948 0.929 . S
C952 C954 1.378 . S
C952 C956 1.350 . S
C953 C956 1.463 . S
C953 C958 1.350 . S
C953 N961 1.427 . S
C954 H945 0.930 . S
C954 C952 1.378 . S
C954 C955 1.367 . S
C955 C954 1.367 . S
C955 C957 1.433 . S
C956 C952 1.350 . S
C956 C953 1.463 . S
C956 N960 1.427 . S
C957 H947 0.929 . S
C957 C955 1.433 . S
C957 N960 1.384 . S
C958 H949 0.929 . S
C958 C950 1.378 . S
C958 C953 1.350 . S
C959 H946 0.929 . S
C959 C951 1.433 . S
C959 N961 1.384 . S
N960 C956 1.427 . S
N960 C957 1.384 . S
N961 C953 1.427 . S
N961 C959 1.384 . S
H962 C968 0.930 . S
H963 C972 0.930 . S
H964 C977 0.929 . S
H965 C975 0.929 . S
H966 C970 0.929 . S
H967 C976 0.929 . S
C968 H962 0.930 . S
C968 C969 1.367 . S
C968 C976 1.378 . S
C969 C968 1.367 . S
C969 C977 1.433 . S
C970 H966 0.929 . S
C970 C972 1.378 . S
C970 C974 1.350 . S
C971 C974 1.463 . S
C971 C976 1.350 . S
C971 N979 1.427 . S
C972 H963 0.930 . S
C972 C970 1.378 . S
C972 C973 1.367 . S
C973 C972 1.367 . S
C973 C975 1.433 . S
C974 C970 1.350 . S
C974 C971 1.463 . S
C974 N978 1.427 . S
C975 H965 0.929 . S
C975 C973 1.433 . S
C975 N978 1.384 . S
C976 H967 0.929 . S
C976 C968 1.378 . S
C976 C971 1.350 . S
C977 H964 0.929 . S
C977 C969 1.433 . S
C977 N979 1.384 . S
N978 C974 1.427 . S
N978 C975 1.384 . S
N979 C971 1.427 . S
N979 C977 1.384 . S
H980 C986 0.930 . S
H981 C990 0.930 . S
H982 C995 0.929 . S
H983 C993 0.929 . S
H984 C988 0.929 . S
H985 C994 0.929 . S
C986 H980 0.930 . S
C986 C987 1.367 . S
C986 C994 1.378 . S
C987 C986 1.367 . S
C987 C995 1.433 . S
C988 H984 0.929 . S
C988 C990 1.378 . S
C988 C992 1.350 . S
C989 C992 1.463 . S
C989 C994 1.350 . S
C989 N997 1.427 . S
C990 H981 0.930 . S
C990 C988 1.378 . S
C990 C991 1.367 . S
C991 C990 1.367 . S
C991 C993 1.433 . S
C992 C988 1.350 . S
C992 C989 1.463 . S
C992 N996 1.427 . S
C993 H983 0.929 . S
C993 C991 1.433 . S
C993 N996 1.384 . S
C994 H985 0.929 . S
C994 C986 1.378 . S
C994 C989 1.350 . S
C995 H982 0.929 . S
C995 C987 1.433 . S
C995 N997 1.384 . S
N996 C992 1.427 . S
N996 C993 1.384 . S
N997 C989 1.427 . S
N997 C995 1.384 . S
H998 C1004 0.930 . S
H999 C1008 0.930 . S
H1000 C1013 0.929 . S
H1001 C1011 0.929 . S
H1002 C1006 0.929 . S
H1003 C1012 0.929 . S
C1004 H998 0.930 . S
C1004 C1005 1.367 1_655 S
C1004 C1012 1.378 . S
C1005 C1004 1.367 1_455 S
C1005 C1013 1.433 . S
C1006 H1002 0.929 . S
C1006 C1008 1.378 . S
C1006 C1010 1.350 1_456 S
C1007 C1010 1.463 1_455 S
C1007 C1012 1.350 1_455 S
C1007 N1015 1.427 . S
C1008 H999 0.930 . S
C1008 C1006 1.378 . S
C1008 C1009 1.367 1_455 S
C1009 C1008 1.367 1_655 S
C1009 C1011 1.433 . S
C1010 C1006 1.350 1_654 S
C1010 C1007 1.463 1_655 S
C1010 N1014 1.428 . S
C1011 H1001 0.929 . S
C1011 C1009 1.433 . S
C1011 N1014 1.373 1_556 S
C1012 H1003 0.929 . S
C1012 C1004 1.378 . S
C1012 C1007 1.350 1_655 S
C1013 H1000 0.929 . S
C1013 C1005 1.433 . S
C1013 N1015 1.384 . S
N1014 C1010 1.428 . S
N1014 C1011 1.373 1_554 S
N1015 C1007 1.427 . S
N1015 C1013 1.384 . S
H1016 C1022 0.930 . S
H1017 C1026 0.930 . S
H1018 C1031 0.929 . S
H1019 C1029 0.929 . S
H1020 C1024 0.929 . S
H1021 C1030 0.929 . S
C1022 H1016 0.930 . S
C1022 C1023 1.367 . S
C1022 C1030 1.378 . S
C1023 C1022 1.367 . S
C1023 C1031 1.433 . S
C1024 H1020 0.929 . S
C1024 C1026 1.378 . S
C1024 C1028 1.350 . S
C1025 C1028 1.463 . S
C1025 C1030 1.350 . S
C1025 N1033 1.427 . S
C1026 H1017 0.930 . S
C1026 C1024 1.378 . S
C1026 C1027 1.367 . S
C1027 C1026 1.367 . S
C1027 C1029 1.433 . S
C1028 C1024 1.350 . S
C1028 C1025 1.463 . S
C1028 N1032 1.427 . S
C1029 H1019 0.929 . S
C1029 C1027 1.433 . S
C1029 N1032 1.384 . S
C1030 H1021 0.929 . S
C1030 C1022 1.378 . S
C1030 C1025 1.350 . S
C1031 H1018 0.929 . S
C1031 C1023 1.433 . S
C1031 N1033 1.384 . S
N1032 C1028 1.427 . S
N1032 C1029 1.384 . S
N1033 C1025 1.427 . S
N1033 C1031 1.384 . S
H1034 C1040 0.930 . S
H1035 C1044 0.930 . S
H1036 C1049 0.929 . S
H1037 C1047 0.929 . S
H1038 C1042 0.929 . S
H1039 C1048 0.929 . S
C1040 H1034 0.930 . S
C1040 C1041 1.367 . S
C1040 C1048 1.378 . S
C1041 C1040 1.367 . S
C1041 C1049 1.433 . S
C1042 H1038 0.929 . S
C1042 C1044 1.378 . S
C1042 C1046 1.350 . S
C1043 C1046 1.463 . S
C1043 C1048 1.350 . S
C1043 N1051 1.427 . S
C1044 H1035 0.930 . S
C1044 C1042 1.378 . S
C1044 C1045 1.367 . S
C1045 C1044 1.367 . S
C1045 C1047 1.433 . S
C1046 C1042 1.350 . S
C1046 C1043 1.463 . S
C1046 N1050 1.427 . S
C1047 H1037 0.929 . S
C1047 C1045 1.433 . S
C1047 N1050 1.384 . S
C1048 H1039 0.929 . S
C1048 C1040 1.378 . S
C1048 C1043 1.350 . S
C1049 H1036 0.929 . S
C1049 C1041 1.433 . S
C1049 N1051 1.384 . S
N1050 C1046 1.427 . S
N1050 C1047 1.384 . S
N1051 C1043 1.427 . S
N1051 C1049 1.384 . S
H1052 C1058 0.930 . S
H1053 C1062 0.930 . S
H1054 C1067 0.929 . S
H1055 C1065 0.929 . S
H1056 C1060 0.944 . S
H1057 C1066 0.944 . S
C1058 H1052 0.930 . S
C1058 C1059 1.367 1_565 S
C1058 C1066 1.368 1_455 S
C1059 C1058 1.367 1_545 S
C1059 C1067 1.433 . S
C1060 H1056 0.944 . S
C1060 C1062 1.368 1_455 S
C1060 C1064 1.345 1_445 S
C1061 C1064 1.463 1_445 S
C1061 C1066 1.345 1_444 S
C1061 N1069 1.427 . S
C1062 H1053 0.930 . S
C1062 C1060 1.368 1_655 S
C1062 C1063 1.367 1_545 S
C1063 C1062 1.367 1_565 S
C1063 C1065 1.433 . S
C1064 C1060 1.345 1_665 S
C1064 C1061 1.463 1_665 S
C1064 N1068 1.427 . S
C1065 H1055 0.929 . S
C1065 C1063 1.433 . S
C1065 N1068 1.384 . S
C1066 H1057 0.944 . S
C1066 C1058 1.368 1_655 S
C1066 C1061 1.345 1_666 S
C1067 H1054 0.929 . S
C1067 C1059 1.433 . S
C1067 N1069 1.385 1_556 S
N1068 C1064 1.427 . S
N1068 C1065 1.384 . S
N1069 C1061 1.427 . S
N1069 C1067 1.385 1_554 S
H1070 C1076 0.930 . S
H1071 C1080 0.930 . S
H1072 C1085 0.929 . S
H1073 C1083 0.929 . S
H1074 C1078 0.929 . S
H1075 C1084 0.929 . S
C1076 H1070 0.930 . S
C1076 C1077 1.367 1_565 S
C1076 C1084 1.378 . S
C1077 C1076 1.367 1_545 S
C1077 C1085 1.433 . S
C1078 H1074 0.929 . S
C1078 C1080 1.378 . S
C1078 C1082 1.350 1_545 S
C1079 C1082 1.463 1_545 S
C1079 C1084 1.350 1_545 S
C1079 N1087 1.427 . S
C1080 H1071 0.930 . S
C1080 C1078 1.378 . S
C1080 C1081 1.367 1_545 S
C1081 C1080 1.367 1_565 S
C1081 C1083 1.433 . S
C1082 C1078 1.350 1_565 S
C1082 C1079 1.463 1_565 S
C1082 N1086 1.427 . S
C1083 H1073 0.929 . S
C1083 C1081 1.433 . S
C1083 N1086 1.384 . S
C1084 H1075 0.929 . S
C1084 C1076 1.378 . S
C1084 C1079 1.350 1_565 S
C1085 H1072 0.929 . S
C1085 C1077 1.433 . S
C1085 N1087 1.384 . S
N1086 C1082 1.427 . S
N1086 C1083 1.384 . S
N1087 C1079 1.427 . S
N1087 C1085 1.384 . S
H1088 C1094 0.930 . S
H1089 C1098 0.930 . S
H1090 C1103 0.929 . S
H1091 C1101 0.929 . S
H1092 C1096 0.929 . S
H1093 C1102 0.929 . S
C1094 H1088 0.930 . S
C1094 C1095 1.367 . S
C1094 C1102 1.378 . S
C1095 C1094 1.367 . S
C1095 C1103 1.433 . S
C1096 H1092 0.929 . S
C1096 C1098 1.378 . S
C1096 C1100 1.350 . S
C1097 C1100 1.463 . S
C1097 C1102 1.350 . S
C1097 N1105 1.427 . S
C1098 H1089 0.930 . S
C1098 C1096 1.378 . S
C1098 C1099 1.367 . S
C1099 C1098 1.367 . S
C1099 C1101 1.433 . S
C1100 C1096 1.350 . S
C1100 C1097 1.463 . S
C1100 N1104 1.427 . S
C1101 H1091 0.929 . S
C1101 C1099 1.433 . S
C1101 N1104 1.384 . S
C1102 H1093 0.929 . S
C1102 C1094 1.378 . S
C1102 C1097 1.350 . S
C1103 H1090 0.929 . S
C1103 C1095 1.433 . S
C1103 N1105 1.384 . S
N1104 C1100 1.427 . S
N1104 C1101 1.384 . S
N1105 C1097 1.427 . S
N1105 C1103 1.384 . S
H1106 C1112 0.930 . S
H1107 C1116 0.930 . S
H1108 C1121 0.929 . S
H1109 C1119 0.929 . S
H1110 C1114 0.929 . S
H1111 C1120 0.929 . S
C1112 H1106 0.930 . S
C1112 C1113 1.367 . S
C1112 C1120 1.378 . S
C1113 C1112 1.367 . S
C1113 C1121 1.433 . S
C1114 H1110 0.929 . S
C1114 C1116 1.378 . S
C1114 C1118 1.350 . S
C1115 C1118 1.463 . S
C1115 C1120 1.350 1_554 S
C1115 N1123 1.427 1_554 S
C1116 H1107 0.930 . S
C1116 C1114 1.378 . S
C1116 C1117 1.367 . S
C1117 C1116 1.367 . S
C1117 C1119 1.433 . S
C1118 C1114 1.350 . S
C1118 C1115 1.463 . S
C1118 N1122 1.427 . S
C1119 H1109 0.929 . S
C1119 C1117 1.433 . S
C1119 N1122 1.384 . S
C1120 H1111 0.929 . S
C1120 C1112 1.378 . S
C1120 C1115 1.350 1_556 S
C1121 H1108 0.929 . S
C1121 C1113 1.433 . S
C1121 N1123 1.384 . S
N1122 C1118 1.427 . S
N1122 C1119 1.384 . S
N1123 C1115 1.427 1_556 S
N1123 C1121 1.384 . S
H1124 C1130 0.930 . S
H1125 C1134 0.930 . S
H1126 C1139 0.929 . S
H1127 C1137 0.929 . S
H1128 C1132 0.929 . S
H1129 C1138 0.929 . S
C1130 H1124 0.930 . S
C1130 C1131 1.367 . S
C1130 C1138 1.378 . S
C1131 C1130 1.367 . S
C1131 C1139 1.433 . S
C1132 H1128 0.929 . S
C1132 C1134 1.378 . S
C1132 C1136 1.350 . S
C1133 C1136 1.463 . S
C1133 C1138 1.350 . S
C1133 N1141 1.427 . S
C1134 H1125 0.930 . S
C1134 C1132 1.378 . S
C1134 C1135 1.367 . S
C1135 C1134 1.367 . S
C1135 C1137 1.433 . S
C1136 C1132 1.350 . S
C1136 C1133 1.463 . S
C1136 N1140 1.427 . S
C1137 H1127 0.929 . S
C1137 C1135 1.433 . S
C1137 N1140 1.384 . S
C1138 H1129 0.929 . S
C1138 C1130 1.378 . S
C1138 C1133 1.350 . S
C1139 H1126 0.929 . S
C1139 C1131 1.433 . S
C1139 N1141 1.384 . S
N1140 C1136 1.427 . S
N1140 C1137 1.384 . S
N1141 C1133 1.427 . S
N1141 C1139 1.384 . S
H1142 C1148 0.930 . S
H1143 C1152 0.930 . S
H1144 C1157 0.929 1_655 S
H1145 C1155 0.929 1_455 S
H1146 C1150 0.929 . S
H1147 C1156 0.929 . S
C1148 H1142 0.930 . S
C1148 C1149 1.367 . S
C1148 C1156 1.378 . S
C1149 C1148 1.367 . S
C1149 C1157 1.433 . S
C1150 H1146 0.929 . S
C1150 C1152 1.378 . S
C1150 C1154 1.350 . S
C1151 C1154 1.463 1_455 S
C1151 C1156 1.350 . S
C1151 N1159 1.427 1_455 S
C1152 H1143 0.930 . S
C1152 C1150 1.378 . S
C1152 C1153 1.367 . S
C1153 C1152 1.367 . S
C1153 C1155 1.433 . S
C1154 C1150 1.350 . S
C1154 C1151 1.463 1_655 S
C1154 N1158 1.427 1_655 S
C1155 H1145 0.929 1_655 S
C1155 C1153 1.433 . S
C1155 N1158 1.384 1_655 S
C1156 H1147 0.929 . S
C1156 C1148 1.378 . S
C1156 C1151 1.350 . S
C1157 H1144 0.929 1_455 S
C1157 C1149 1.433 . S
C1157 N1159 1.384 1_455 S
N1158 C1154 1.427 1_455 S
N1158 C1155 1.384 1_455 S
N1159 C1151 1.427 1_655 S
N1159 C1157 1.384 1_655 S
H1160 C1166 0.930 . S
H1161 C1170 0.930 . S
H1162 C1175 0.929 . S
H1163 C1173 0.929 . S
H1164 C1168 0.929 . S
H1165 C1174 0.929 . S
C1166 H1160 0.930 . S
C1166 C1167 1.367 . S
C1166 C1174 1.378 . S
C1167 C1166 1.367 . S
C1167 C1175 1.433 . S
C1168 H1164 0.929 . S
C1168 C1170 1.378 . S
C1168 C1172 1.350 . S
C1169 C1172 1.463 . S
C1169 C1174 1.350 . S
C1169 N1177 1.427 . S
C1170 H1161 0.930 . S
C1170 C1168 1.378 . S
C1170 C1171 1.367 . S
C1171 C1170 1.367 . S
C1171 C1173 1.433 . S
C1172 C1168 1.350 . S
C1172 C1169 1.463 . S
C1172 N1176 1.427 . S
C1173 H1163 0.929 . S
C1173 C1171 1.433 . S
C1173 N1176 1.384 . S
C1174 H1165 0.929 . S
C1174 C1166 1.378 . S
C1174 C1169 1.350 . S
C1175 H1162 0.929 . S
C1175 C1167 1.433 . S
C1175 N1177 1.384 . S
N1176 C1172 1.427 . S
N1176 C1173 1.384 . S
N1177 C1169 1.427 . S
N1177 C1175 1.384 . S
H1178 C1184 0.930 . S
H1179 C1188 0.930 . S
H1180 C1193 0.929 . S
H1181 C1191 0.929 . S
H1182 C1186 0.929 . S
H1183 C1192 0.929 . S
C1184 H1178 0.930 . S
C1184 C1185 1.367 . S
C1184 C1192 1.378 . S
C1185 C1184 1.367 . S
C1185 C1193 1.433 . S
C1186 H1182 0.929 . S
C1186 C1188 1.378 . S
C1186 C1190 1.350 . S
C1187 C1190 1.463 . S
C1187 C1192 1.350 . S
C1187 N1195 1.427 . S
C1188 H1179 0.930 . S
C1188 C1186 1.378 . S
C1188 C1189 1.367 . S
C1189 C1188 1.367 . S
C1189 C1191 1.433 . S
C1190 C1186 1.350 . S
C1190 C1187 1.463 . S
C1190 N1194 1.427 . S
C1191 H1181 0.929 . S
C1191 C1189 1.433 . S
C1191 N1194 1.384 . S
C1192 H1183 0.929 . S
C1192 C1184 1.378 . S
C1192 C1187 1.350 . S
C1193 H1180 0.929 . S
C1193 C1185 1.433 . S
C1193 N1195 1.384 . S
N1194 C1190 1.427 . S
N1194 C1191 1.384 . S
N1195 C1187 1.427 . S
N1195 C1193 1.384 . S
H1196 C1202 0.930 . S
H1197 C1206 0.930 . S
H1198 C1211 0.911 1_545 S
H1199 C1209 0.911 1_565 S
H1200 C1204 0.929 . S
H1201 C1210 0.929 . S
C1202 H1196 0.930 . S
C1202 C1203 1.367 1_455 S
C1202 C1210 1.378 . S
C1203 C1202 1.367 1_655 S
C1203 C1211 1.467 . S
C1204 H1200 0.929 . S
C1204 C1206 1.378 . S
C1204 C1208 1.350 1_655 S
C1205 C1208 1.463 1_665 S
C1205 C1210 1.350 1_655 S
C1205 N1213 1.427 1_565 S
C1206 H1197 0.930 . S
C1206 C1204 1.378 . S
C1206 C1207 1.367 1_655 S
C1207 C1206 1.367 1_455 S
C1207 C1209 1.467 . S
C1208 C1204 1.350 1_455 S
C1208 C1205 1.463 1_445 S
C1208 N1212 1.427 1_545 S
C1209 H1199 0.911 1_545 S
C1209 C1207 1.467 . S
C1209 N1212 1.370 1_545 S
C1210 H1201 0.929 . S
C1210 C1202 1.378 . S
C1210 C1205 1.350 1_455 S
C1211 H1198 0.911 1_565 S
C1211 C1203 1.467 . S
C1211 N1213 1.370 1_565 S
N1212 C1208 1.427 1_565 S
N1212 C1209 1.370 1_565 S
N1213 C1205 1.427 1_545 S
N1213 C1211 1.370 1_545 S
H1214 C1220 0.930 1_565 S
H1215 C1224 0.930 1_545 S
H1216 C1229 0.929 . S
H1217 C1227 0.929 . S
H1218 C1222 0.929 . S
H1219 C1228 0.929 . S
C1220 H1214 0.930 1_545 S
C1220 C1221 1.367 . S
C1220 C1228 1.378 1_545 S
C1221 C1220 1.367 . S
C1221 C1229 1.433 . S
C1222 H1218 0.929 . S
C1222 C1224 1.378 1_545 S
C1222 C1226 1.350 1_545 S
C1223 C1226 1.463 1_545 S
C1223 C1228 1.350 1_544 S
C1223 N1231 1.427 1_554 S
C1224 H1215 0.930 1_565 S
C1224 C1222 1.378 1_565 S
C1224 C1225 1.367 . S
C1225 C1224 1.367 . S
C1225 C1227 1.433 . S
C1226 C1222 1.350 1_565 S
C1226 C1223 1.463 1_565 S
C1226 N1230 1.427 . S
C1227 H1217 0.929 . S
C1227 C1225 1.433 . S
C1227 N1230 1.384 . S
C1228 H1219 0.929 . S
C1228 C1220 1.378 1_565 S
C1228 C1223 1.350 1_566 S
C1229 H1216 0.929 . S
C1229 C1221 1.433 . S
C1229 N1231 1.384 . S
N1230 C1226 1.427 . S
N1230 C1227 1.384 . S
N1231 C1223 1.427 1_556 S
N1231 C1229 1.384 . S
C375 C21 1.682 . S
C379 C224 1.630 . S
C393 C247 1.631 . S
C397 C44 1.681 . S
C411 C270 1.636 . S
C415 C67 1.681 . S
C429 C201 1.639 . S
C433 C90 1.681 . S
C447 C113 1.681 . S
C451 C316 1.632 . S
C465 C136 1.681 . S
C469 C339 1.629 . S
C483 C362 1.633 . S
C487 C159 1.681 . S
C501 C293 1.628 . S
C505 C182 1.681 . S
C519 C40 1.630 . S
C523 C205 1.682 . S
C537 C63 1.639 . S
C541 C228 1.681 1_565 S
C555 C86 1.631 . S
C559 C251 1.681 . S
C573 C274 1.681 1_545 S
C577 C17 1.640 . S
C591 C132 1.640 . S
C595 C297 1.681 . S
C609 C155 1.631 . S
C613 C320 1.681 1_545 S
C627 C178 1.629 . S
C631 C343 1.681 . S
C645 C109 1.640 . S
C649 C366 1.681 1_565 S
C663 C19 1.524 . S
C667 C363 1.549 . S
C681 C42 1.526 . S
C685 C110 1.550 . S
C699 C317 1.549 1_455 S
C703 C65 1.524 . S
C717 C156 1.558 . S
C721 C88 1.536 . S
C735 C111 1.526 . S
C739 C271 1.550 . S
C753 C18 1.557 1_556 S
C757 C134 1.536 . S
C771 C157 1.526 . S
C775 C225 1.550 1_655 S
C789 C180 1.537 . S
C793 C64 1.558 . S
C807 C203 1.535 . S
C811 C179 1.557 1_655 S
C825 C294 1.551 . S
C829 C226 1.528 . S
C843 C249 1.536 . S
C847 C133 1.558 . S
C861 C340 1.549 . S
C865 C272 1.525 . S
C879 C295 1.534 . S
C883 C87 1.556 1_455 S
C897 C202 1.557 . S
C901 C318 1.535 . S
C915 C341 1.525 . S
C919 C41 1.549 . S
C933 C364 1.524 . S
C937 C248 1.549 1_556 S
C951 C20 1.486 . S
C955 C296 1.486 . S
C969 C135 1.486 . S
C973 C43 1.486 . S
C987 C66 1.486 . S
C991 C342 1.486 . S
C1005 C181 1.486 . S
C1009 C89 1.486 . S
C1023 C112 1.487 . S
C1027 C204 1.487 . S
C1041 C250 1.486 . S
C1045 C158 1.486 . S
C1059 C227 1.486 . S
C1063 C319 1.486 . S
C1077 C365 1.486 . S
C1081 C273 1.486 . S
C1095 C292 0.781 . S
C1099 C16 0.781 . S
C1113 C131 0.775 . S
C1117 C39 0.775 . S
C1131 C62 0.759 . S
C1135 C338 0.759 . S
C1149 C177 0.770 . S
C1153 C85 0.770 . S
C1167 C108 0.781 . S
C1171 C200 0.781 . S
C1185 C154 0.777 . S
C1189 C246 0.777 . S
C1203 C315 0.773 . S
C1207 C223 0.773 . S
C1221 C361 0.764 . S
C1225 C269 0.764 . S
