# Generated by pormake.
# Topology pcb, (4)-cn, num edge types: 1
# Building blocks:
#     Node 0, Type 0, BuildingBlock: GALJAG_clean_sbu_0, # of connection points: 4
#     Node 1, Type 0, BuildingBlock: GALJAG_clean_sbu_0, # of connection points: 4
#     Node 2, Type 0, BuildingBlock: GALJAG_clean_sbu_0, # of connection points: 4
#     Node 3, Type 0, BuildingBlock: GALJAG_clean_sbu_0, # of connection points: 4
#     Node 4, Type 0, BuildingBlock: GALJAG_clean_sbu_0, # of connection points: 4
#     Node 5, Type 0, BuildingBlock: GALJAG_clean_sbu_0, # of connection points: 4
#     Node 6, Type 0, BuildingBlock: GALJAG_clean_sbu_0, # of connection points: 4
#     Node 7, Type 0, BuildingBlock: GALJAG_clean_sbu_0, # of connection points: 4
#     Node 8, Type 0, BuildingBlock: GALJAG_clean_sbu_0, # of connection points: 4
#     Node 9, Type 0, BuildingBlock: GALJAG_clean_sbu_0, # of connection points: 4
#     Node 10, Type 0, BuildingBlock: GALJAG_clean_sbu_0, # of connection points: 4
#     Node 11, Type 0, BuildingBlock: GALJAG_clean_sbu_0, # of connection points: 4
#     Node 12, Type 0, BuildingBlock: GALJAG_clean_sbu_0, # of connection points: 4
#     Node 13, Type 0, BuildingBlock: GALJAG_clean_sbu_0, # of connection points: 4
#     Node 14, Type 0, BuildingBlock: GALJAG_clean_sbu_0, # of connection points: 4
#     Node 15, Type 0, BuildingBlock: GALJAG_clean_sbu_0, # of connection points: 4
#     Edge 16, Type (0, 0), BuildingBlock: KIFKEQ_clean_linker_1, # of connection points: 2
#     Edge 17, Type (0, 0), BuildingBlock: KIFKEQ_clean_linker_1, # of connection points: 2
#     Edge 18, Type (0, 0), BuildingBlock: KIFKEQ_clean_linker_1, # of connection points: 2
#     Edge 19, Type (0, 0), BuildingBlock: KIFKEQ_clean_linker_1, # of connection points: 2
#     Edge 20, Type (0, 0), BuildingBlock: KIFKEQ_clean_linker_1, # of connection points: 2
#     Edge 21, Type (0, 0), BuildingBlock: KIFKEQ_clean_linker_1, # of connection points: 2
#     Edge 22, Type (0, 0), BuildingBlock: KIFKEQ_clean_linker_1, # of connection points: 2
#     Edge 23, Type (0, 0), BuildingBlock: KIFKEQ_clean_linker_1, # of connection points: 2
#     Edge 24, Type (0, 0), BuildingBlock: KIFKEQ_clean_linker_1, # of connection points: 2
#     Edge 25, Type (0, 0), BuildingBlock: KIFKEQ_clean_linker_1, # of connection points: 2
#     Edge 26, Type (0, 0), BuildingBlock: KIFKEQ_clean_linker_1, # of connection points: 2
#     Edge 27, Type (0, 0), BuildingBlock: KIFKEQ_clean_linker_1, # of connection points: 2
#     Edge 28, Type (0, 0), BuildingBlock: KIFKEQ_clean_linker_1, # of connection points: 2
#     Edge 29, Type (0, 0), BuildingBlock: KIFKEQ_clean_linker_1, # of connection points: 2
#     Edge 30, Type (0, 0), BuildingBlock: KIFKEQ_clean_linker_1, # of connection points: 2
#     Edge 31, Type (0, 0), BuildingBlock: KIFKEQ_clean_linker_1, # of connection points: 2
#     Edge 32, Type (0, 0), BuildingBlock: KIFKEQ_clean_linker_1, # of connection points: 2
#     Edge 33, Type (0, 0), BuildingBlock: KIFKEQ_clean_linker_1, # of connection points: 2
#     Edge 34, Type (0, 0), BuildingBlock: KIFKEQ_clean_linker_1, # of connection points: 2
#     Edge 35, Type (0, 0), BuildingBlock: KIFKEQ_clean_linker_1, # of connection points: 2
#     Edge 36, Type (0, 0), BuildingBlock: KIFKEQ_clean_linker_1, # of connection points: 2
#     Edge 37, Type (0, 0), BuildingBlock: KIFKEQ_clean_linker_1, # of connection points: 2
#     Edge 38, Type (0, 0), BuildingBlock: KIFKEQ_clean_linker_1, # of connection points: 2
#     Edge 39, Type (0, 0), BuildingBlock: KIFKEQ_clean_linker_1, # of connection points: 2
#     Edge 40, Type (0, 0), BuildingBlock: KIFKEQ_clean_linker_1, # of connection points: 2
#     Edge 41, Type (0, 0), BuildingBlock: KIFKEQ_clean_linker_1, # of connection points: 2
#     Edge 42, Type (0, 0), BuildingBlock: KIFKEQ_clean_linker_1, # of connection points: 2
#     Edge 43, Type (0, 0), BuildingBlock: KIFKEQ_clean_linker_1, # of connection points: 2
#     Edge 44, Type (0, 0), BuildingBlock: KIFKEQ_clean_linker_1, # of connection points: 2
#     Edge 45, Type (0, 0), BuildingBlock: KIFKEQ_clean_linker_1, # of connection points: 2
#     Edge 46, Type (0, 0), BuildingBlock: KIFKEQ_clean_linker_1, # of connection points: 2
#     Edge 47, Type (0, 0), BuildingBlock: KIFKEQ_clean_linker_1, # of connection points: 2
# Relax obj value: 0.356
# Max RMSD: 0.193
# Mean RMSD: 0.171
data_MOF--net-pcb--node1-GALJAG_clean_sbu_0--edge1-KIFKEQ_clean_linker_1
_symmetry_space_group_name_H-M    P1
_symmetry_Int_Tables_number       1
_symmetry_cell_setting            triclinic
loop_
_symmetry_equiv_pos_as_xyz
'x, y, z'
_cell_length_a     38.668465
_cell_length_b     49.062865
_cell_length_c     49.096375
_cell_angle_alpha  98.769179
_cell_angle_beta   95.880634
_cell_angle_gamma 95.790305
loop_
_atom_site_label
_atom_site_type_symbol
_atom_site_fract_x
_atom_site_fract_y
_atom_site_fract_z
_atom_type_partial_charge
In0 In 0.23781 0.13066 0.10589 0.0
O1 O 0.24352 0.1442 0.15217 0.0
O2 O 0.26653 0.17229 0.12828 0.0
C3 C 0.26022 0.08198 0.11332 0.0
C4 C 0.16819 0.12976 0.10802 0.0
C5 C 0.25662 0.14387 0.05764 0.0
O6 O 0.27374 0.10482 0.12767 0.0
O7 O 0.23611 0.08377 0.09448 0.0
O8 O 0.22677 0.14622 0.06515 0.0
O9 O 0.27754 0.13478 0.07453 0.0
C10 C 0.25959 0.16778 0.15191 0.0
O11 O 0.1888 0.15182 0.11077 0.0
O12 O 0.18242 0.10775 0.10309 0.0
In13 In 0.85467 0.14143 0.16381 0.0
O14 O 0.85836 0.16857 0.20684 0.0
O15 O 0.80833 0.15468 0.184 0.0
C16 C 0.92111 0.13662 0.15437 0.0
C17 C 0.83339 0.08847 0.16719 0.0
C18 C 0.83587 0.17024 0.12351 0.0
O19 O 0.91371 0.15189 0.1757 0.0
O20 O 0.89505 0.1238 0.13824 0.0
O21 O 0.8191 0.14751 0.12601 0.0
O22 O 0.86232 0.17842 0.1412 0.0
C23 C 0.8255 0.16832 0.20579 0.0
O24 O 0.8214 0.1003 0.14777 0.0
O25 O 0.85645 0.10328 0.18485 0.0
In26 In 0.78971 0.82798 0.13263 0.0
O27 O 0.75086 0.81423 0.16133 0.0
O28 O 0.77205 0.78297 0.13569 0.0
C29 C 0.78459 0.88257 0.14801 0.0
C30 C 0.85938 0.82706 0.14373 0.0
C31 C 0.76967 0.81849 0.07773 0.0
O32 O 0.77078 0.86884 0.12507 0.0
O33 O 0.80035 0.86865 0.16377 0.0
O34 O 0.79848 0.81246 0.08837 0.0
O35 O 0.75012 0.82826 0.09499 0.0
C36 C 0.7523 0.78868 0.15404 0.0
O37 O 0.84454 0.82786 0.11985 0.0
O38 O 0.83909 0.82658 0.16223 0.0
In39 In 0.18954 0.84862 0.1611 0.0
O40 O 0.13963 0.86347 0.1764 0.0
O41 O 0.13739 0.82169 0.15619 0.0
C42 C 0.22881 0.89773 0.16561 0.0
C43 C 0.21843 0.82126 0.19939 0.0
C44 C 0.18583 0.8379 0.10557 0.0
O45 O 0.19999 0.89525 0.17556 0.0
O46 O 0.23853 0.87525 0.15461 0.0
O47 O 0.20512 0.82556 0.12088 0.0
O48 O 0.16835 0.85494 0.11835 0.0
C49 C 0.12117 0.84046 0.16764 0.0
O50 O 0.21007 0.81013 0.17436 0.0
O51 O 0.21321 0.84633 0.20483 0.0
In52 In 0.1494 0.81797 0.84336 0.0
O53 O 0.16335 0.77795 0.81903 0.0
O54 O 0.20444 0.81026 0.83558 0.0
C55 C 0.07999 0.80265 0.82941 0.0
C56 C 0.16737 0.82096 0.89821 0.0
C57 C 0.15505 0.86746 0.826 0.0
O58 O 0.1 0.80886 0.81201 0.0
O59 O 0.09535 0.80251 0.85326 0.0
O60 O 0.14032 0.86335 0.84704 0.0
O61 O 0.16762 0.84674 0.81403 0.0
C62 C 0.19576 0.78618 0.82201 0.0
O63 O 0.16922 0.8421 0.8864 0.0
O64 O 0.15672 0.79832 0.88229 0.0
In65 In 0.17758 0.11521 0.81187 0.0
O66 O 0.1279 0.10372 0.83084 0.0
O67 O 0.14062 0.14604 0.82725 0.0
C68 C 0.17268 0.06101 0.79041 0.0
C69 C 0.18933 0.14047 0.76812 0.0
C70 C 0.2235 0.1285 0.8585 0.0
O71 O 0.14631 0.07411 0.79203 0.0
O72 O 0.20176 0.07565 0.79836 0.0
O73 O 0.21268 0.1466 0.84516 0.0
O74 O 0.21172 0.10387 0.84801 0.0
C75 C 0.11954 0.12807 0.8347 0.0
O76 O 0.21381 0.13412 0.78408 0.0
O77 O 0.15904 0.13344 0.77383 0.0
In78 In 0.81491 0.18311 0.88119 0.0
O79 O 0.87371 0.18931 0.89612 0.0
O80 O 0.85501 0.15909 0.86051 0.0
C81 C 0.80339 0.20275 0.93329 0.0
C82 C 0.79693 0.22044 0.84873 0.0
C83 C 0.78213 0.13094 0.86819 0.0
O84 O 0.83136 0.20988 0.92371 0.0
O85 O 0.78096 0.18661 0.91628 0.0
O86 O 0.78325 0.14726 0.85063 0.0
O87 O 0.79705 0.14112 0.89217 0.0
C88 C 0.88092 0.17102 0.87722 0.0
O89 O 0.77505 0.20785 0.86117 0.0
O90 O 0.8276 0.2143 0.85277 0.0
In91 In 0.77564 0.87289 0.83521 0.0
O92 O 0.73911 0.83641 0.81001 0.0
O93 O 0.76358 0.86576 0.78835 0.0
C94 C 0.76495 0.86462 0.88667 0.0
C95 C 0.83826 0.85393 0.83144 0.0
C96 C 0.76346 0.9259 0.83506 0.0
O97 O 0.74142 0.85732 0.86627 0.0
O98 O 0.79304 0.87686 0.88113 0.0
O99 O 0.79221 0.91726 0.83023 0.0
O100 O 0.74049 0.90775 0.84007 0.0
C101 C 0.74479 0.84296 0.78687 0.0
O102 O 0.83425 0.87918 0.83161 0.0
O103 O 0.81098 0.83855 0.83382 0.0
In104 In 0.73964 0.6409 0.59911 0.0
O105 O 0.77253 0.66913 0.63604 0.0
O106 O 0.73712 0.68691 0.60977 0.0
C107 C 0.76007 0.5912 0.60493 0.0
C108 C 0.67398 0.63097 0.6121 0.0
C109 C 0.75627 0.65153 0.54977 0.0
O110 O 0.77317 0.61315 0.6212 0.0
O111 O 0.73827 0.59475 0.58522 0.0
O112 O 0.72632 0.6532 0.55742 0.0
O113 O 0.77853 0.64421 0.56709 0.0
C114 C 0.75863 0.69047 0.63139 0.0
O115 O 0.68053 0.63015 0.58735 0.0
O116 O 0.70048 0.63636 0.63003 0.0
In117 In 0.36166 0.63673 0.66868 0.0
O118 O 0.35752 0.68027 0.69171 0.0
O119 O 0.34667 0.64625 0.71249 0.0
C120 C 0.42855 0.63022 0.6618 0.0
C121 C 0.3338 0.58557 0.67371 0.0
C122 C 0.33635 0.65517 0.62243 0.0
O123 O 0.42055 0.64728 0.68152 0.0
O124 O 0.40286 0.61641 0.64605 0.0
O125 O 0.31688 0.64111 0.63564 0.0
O126 O 0.36805 0.65967 0.63253 0.0
C127 C 0.34797 0.67203 0.71311 0.0
O128 O 0.3171 0.60103 0.66018 0.0
O129 O 0.36436 0.59583 0.68417 0.0
In130 In 0.28666 0.33429 0.64379 0.0
O131 O 0.3384 0.32106 0.63156 0.0
O132 O 0.33824 0.34249 0.67254 0.0
C133 C 0.27253 0.33866 0.59004 0.0
C134 C 0.25421 0.28921 0.66003 0.0
C135 C 0.27153 0.38476 0.66607 0.0
O136 O 0.30065 0.34952 0.60473 0.0
O137 O 0.25142 0.32498 0.60236 0.0
O138 O 0.25425 0.37058 0.64452 0.0
O139 O 0.29519 0.3728 0.67734 0.0
C140 C 0.3558 0.33107 0.65469 0.0
O141 O 0.24852 0.31354 0.66927 0.0
O142 O 0.27569 0.28772 0.64245 0.0
In143 In 0.68551 0.35222 0.66199 0.0
O144 O 0.71828 0.32126 0.67894 0.0
O145 O 0.70138 0.35226 0.70802 0.0
C146 C 0.69491 0.32811 0.61064 0.0
C147 C 0.61774 0.34476 0.67044 0.0
C148 C 0.70655 0.40494 0.65643 0.0
O149 O 0.71975 0.34151 0.62761 0.0
O150 O 0.66576 0.32602 0.61999 0.0
O151 O 0.67734 0.39206 0.64563 0.0
O152 O 0.72502 0.39157 0.67112 0.0
C153 C 0.71769 0.33131 0.70406 0.0
O154 O 0.63616 0.36806 0.67699 0.0
O155 O 0.63373 0.32521 0.66015 0.0
In156 In 0.66006 0.32975 0.35544 0.0
O157 O 0.68861 0.34463 0.39888 0.0
O158 O 0.65956 0.30436 0.39025 0.0
C159 C 0.67482 0.37283 0.32917 0.0
C160 C 0.69577 0.29188 0.32925 0.0
C161 C 0.5914 0.33425 0.35591 0.0
O162 O 0.6872 0.37279 0.35403 0.0
O163 O 0.65551 0.35101 0.31761 0.0
O164 O 0.60236 0.31548 0.33947 0.0
O165 O 0.61497 0.35002 0.37222 0.0
C166 C 0.67881 0.32258 0.40776 0.0
O167 O 0.66314 0.28724 0.33013 0.0
O168 O 0.70987 0.31551 0.34128 0.0
In169 In 0.66084 0.61205 0.30412 0.0
O170 O 0.65408 0.65138 0.28606 0.0
O171 O 0.6872 0.62398 0.26736 0.0
C172 C 0.70563 0.62704 0.35121 0.0
C173 C 0.59508 0.6141 0.31734 0.0
C174 C 0.66751 0.55904 0.28337 0.0
O175 O 0.69681 0.64439 0.3361 0.0
O176 O 0.69173 0.6025 0.34264 0.0
O177 O 0.63813 0.56751 0.28619 0.0
O178 O 0.69329 0.57764 0.28975 0.0
C179 C 0.67377 0.64636 0.26749 0.0
O180 O 0.60212 0.61106 0.29259 0.0
O181 O 0.62114 0.6156 0.33543 0.0
In182 In 0.29151 0.66627 0.37509 0.0
O183 O 0.34961 0.66395 0.38846 0.0
O184 O 0.32913 0.64721 0.34693 0.0
C185 C 0.28227 0.68256 0.42859 0.0
C186 C 0.27331 0.70701 0.3473 0.0
C187 C 0.25604 0.61546 0.35904 0.0
O188 O 0.3087 0.69163 0.41813 0.0
O189 O 0.25977 0.66631 0.41173 0.0
O190 O 0.25799 0.63313 0.34289 0.0
O191 O 0.27173 0.62355 0.38321 0.0
C192 C 0.35537 0.65188 0.3651 0.0
O193 O 0.25121 0.68819 0.35208 0.0
O194 O 0.30425 0.7059 0.35745 0.0
In195 In 0.26898 0.37042 0.34315 0.0
O196 O 0.32043 0.37017 0.32409 0.0
O197 O 0.32289 0.37291 0.36777 0.0
C198 C 0.24473 0.416 0.32786 0.0
C199 C 0.24965 0.3233 0.30698 0.0
C200 C 0.24831 0.36868 0.39342 0.0
O201 O 0.27602 0.41117 0.32685 0.0
O202 O 0.22527 0.39752 0.33615 0.0
O203 O 0.23766 0.34978 0.37292 0.0
O204 O 0.26852 0.38861 0.38825 0.0
C205 C 0.33928 0.3711 0.34679 0.0
O206 O 0.26485 0.32382 0.33103 0.0
O207 O 0.24212 0.34652 0.30169 0.0
H208 H 0.26932 0.27278 0.31321 0.0
H209 H 0.22515 0.31841 0.25216 0.0
H210 H 0.27524 0.2348 0.27651 0.0
H211 H 0.2303 0.28002 0.21541 0.0
H212 H 0.28203 0.22287 0.15508 0.0
H213 H 0.27854 0.2599 0.19371 0.0
H214 H 0.24139 0.19881 0.24207 0.0
H215 H 0.2457 0.16193 0.20388 0.0
C216 C 0.26017 0.27442 0.29199 0.0
C217 C 0.24688 0.29855 0.28548 0.0
C218 C 0.26364 0.25269 0.27097 0.0
C219 C 0.25377 0.25466 0.24308 0.0
C220 C 0.23889 0.27824 0.2367 0.0
C221 C 0.23548 0.30003 0.25774 0.0
C222 C 0.27389 0.21739 0.1742 0.0
C223 C 0.26401 0.1896 0.17649 0.0
C224 C 0.27142 0.23856 0.19615 0.0
C225 C 0.25908 0.23223 0.22069 0.0
C226 C 0.25104 0.20432 0.22345 0.0
C227 C 0.25353 0.18321 0.20157 0.0
H228 H 0.67466 0.23723 0.30853 0.0
H229 H 0.7628 0.30082 0.31783 0.0
H230 H 0.70789 0.20439 0.28292 0.0
H231 H 0.79547 0.26852 0.29137 0.0
H232 H 0.85491 0.2 0.25531 0.0
H233 H 0.82443 0.22734 0.28925 0.0
H234 H 0.72597 0.19874 0.23787 0.0
H235 H 0.75596 0.17104 0.2049 0.0
C236 C 0.70114 0.24415 0.30507 0.0
C237 C 0.71607 0.27158 0.31487 0.0
C238 C 0.72015 0.22542 0.29038 0.0
C239 C 0.75427 0.2339 0.28492 0.0
C240 C 0.76949 0.26116 0.29551 0.0
C241 C 0.75063 0.27978 0.31045 0.0
C242 C 0.8267 0.19939 0.25158 0.0
C243 C 0.80782 0.18356 0.22745 0.0
C244 C 0.80927 0.21508 0.27088 0.0
C245 C 0.77274 0.21524 0.26625 0.0
C246 C 0.75396 0.19876 0.24241 0.0
C247 C 0.77126 0.18304 0.22332 0.0
H248 H 0.72155 0.79635 0.20161 0.0
H249 H 0.74412 0.73273 0.13704 0.0
H250 H 0.69932 0.76078 0.22701 0.0
H251 H 0.72051 0.69699 0.16182 0.0
H252 H 0.72369 0.645 0.23217 0.0
H253 H 0.73862 0.67883 0.20249 0.0
H254 H 0.65444 0.72449 0.22862 0.0
H255 H 0.64054 0.69119 0.25914 0.0
C256 C 0.72104 0.77472 0.19259 0.0
C257 C 0.73478 0.76724 0.16752 0.0
C258 C 0.70814 0.7543 0.20706 0.0
C259 C 0.70836 0.72599 0.19655 0.0
C260 C 0.72064 0.71859 0.17077 0.0
C261 C 0.73392 0.73903 0.15648 0.0
C262 C 0.7083 0.66218 0.2314 0.0
C263 C 0.68119 0.66564 0.24807 0.0
C264 C 0.71664 0.68148 0.21425 0.0
C265 C 0.69776 0.70444 0.21321 0.0
C266 C 0.6699 0.70733 0.22929 0.0
C267 C 0.66182 0.6882 0.24666 0.0
H268 H 0.31469 0.75227 0.33816 0.0
H269 H 0.21259 0.70543 0.31348 0.0
H270 H 0.30294 0.78107 0.30251 0.0
H271 H 0.20107 0.73408 0.27777 0.0
H272 H 0.21616 0.76517 0.19542 0.0
H273 H 0.22937 0.73899 0.23297 0.0
H274 H 0.25971 0.81573 0.29015 0.0
H275 H 0.24622 0.84201 0.25265 0.0
C276 C 0.2896 0.7484 0.32537 0.0
C277 C 0.26456 0.72662 0.32849 0.0
C278 C 0.28292 0.76484 0.30503 0.0
C279 C 0.25131 0.75949 0.28728 0.0
C280 C 0.22585 0.73831 0.29099 0.0
C281 C 0.23232 0.72212 0.31156 0.0
C282 C 0.22602 0.77643 0.21593 0.0
C283 C 0.23011 0.80557 0.2212 0.0
C284 C 0.23327 0.76148 0.23741 0.0
C285 C 0.24516 0.77542 0.26442 0.0
C286 C 0.25056 0.80455 0.26947 0.0
C287 C 0.24285 0.81952 0.24806 0.0
H288 H 0.34633 0.72799 0.71826 0.0
H289 H 0.31732 0.65688 0.75684 0.0
H290 H 0.31286 0.75608 0.74886 0.0
H291 H 0.28392 0.68501 0.78742 0.0
H292 H 0.18515 0.73207 0.7967 0.0
H293 H 0.22772 0.70507 0.77505 0.0
H294 H 0.3073 0.7755 0.79879 0.0
H295 H 0.26477 0.80254 0.82044 0.0
C296 C 0.3335 0.71856 0.73372 0.0
C297 C 0.33406 0.69022 0.735 0.0
C298 C 0.31443 0.73464 0.75125 0.0
C299 C 0.29548 0.72255 0.7702 0.0
C300 C 0.29792 0.69467 0.77269 0.0
C301 C 0.31719 0.67866 0.75531 0.0
C302 C 0.2118 0.74168 0.79747 0.0
C303 C 0.22165 0.76939 0.81008 0.0
C304 C 0.2362 0.7262 0.7853 0.0
C305 C 0.27078 0.73825 0.78537 0.0
C306 C 0.28077 0.76581 0.79838 0.0
C307 C 0.25645 0.78121 0.81078 0.0
H308 H 0.14149 0.16494 0.73847 0.0
H309 H 0.25147 0.15466 0.74939 0.0
H310 H 0.15328 0.19841 0.70748 0.0
H311 H 0.26317 0.18804 0.7184 0.0
H312 H 0.26974 0.23623 0.64758 0.0
H313 H 0.25052 0.19647 0.66902 0.0
H314 H 0.18635 0.24691 0.71775 0.0
H315 H 0.20553 0.28672 0.69632 0.0
C316 C 0.16806 0.16946 0.73385 0.0
C317 C 0.19565 0.15741 0.74645 0.0
C318 C 0.17478 0.18867 0.71625 0.0
C319 C 0.20912 0.19587 0.71072 0.0
C320 C 0.2364 0.18268 0.72215 0.0
C321 C 0.22975 0.16369 0.73997 0.0
C322 C 0.25113 0.23871 0.66257 0.0
C323 C 0.23932 0.26458 0.6705 0.0
C324 C 0.24025 0.216 0.67486 0.0
C325 C 0.21713 0.21871 0.69508 0.0
C326 C 0.20397 0.24422 0.70201 0.0
C327 C 0.21509 0.26701 0.68989 0.0
H328 H 0.73376 0.23977 0.83938 0.0
H329 H 0.83854 0.24486 0.81572 0.0
H330 H 0.71714 0.26966 0.80588 0.0
H331 H 0.82191 0.27471 0.78233 0.0
H332 H 0.7599 0.29014 0.70058 0.0
H333 H 0.78111 0.26592 0.73765 0.0
H334 H 0.73068 0.31877 0.7961 0.0
H335 H 0.70939 0.34309 0.75893 0.0
C336 C 0.75327 0.24748 0.8272 0.0
C337 C 0.78734 0.2399 0.82998 0.0
C338 C 0.74384 0.26469 0.80819 0.0
C339 C 0.76825 0.27438 0.79151 0.0
C340 C 0.80253 0.2673 0.79478 0.0
C341 C 0.81204 0.25031 0.81393 0.0
C342 C 0.75367 0.29677 0.7214 0.0
C343 C 0.73295 0.3184 0.72692 0.0
C344 C 0.76593 0.28301 0.74262 0.0
C345 C 0.75743 0.29048 0.76967 0.0
C346 C 0.73733 0.31251 0.77534 0.0
C347 C 0.72535 0.32648 0.75414 0.0
H348 H 0.7198 0.78822 0.78068 0.0
H349 H 0.75703 0.85172 0.73505 0.0
H350 H 0.72476 0.75261 0.74126 0.0
H351 H 0.7621 0.81601 0.69567 0.0
H352 H 0.73557 0.7396 0.62379 0.0
H353 H 0.728 0.77787 0.6599 0.0
H354 H 0.7789 0.73662 0.72179 0.0
H355 H 0.78634 0.69823 0.6857 0.0
C356 C 0.72812 0.79462 0.76197 0.0
C357 C 0.73832 0.8227 0.76099 0.0
C358 C 0.73144 0.77423 0.73959 0.0
C359 C 0.74469 0.7816 0.71579 0.0
C360 C 0.75205 0.8098 0.71388 0.0
C361 C 0.74897 0.83021 0.73635 0.0
C362 C 0.74581 0.73901 0.64505 0.0
C363 C 0.7614 0.71593 0.65202 0.0
C364 C 0.74135 0.76085 0.66568 0.0
C365 C 0.75217 0.75984 0.69362 0.0
C366 C 0.76961 0.73754 0.70041 0.0
C367 C 0.77434 0.7158 0.67975 0.0
H368 H 0.24132 0.17985 0.89001 0.0
H369 H 0.25128 0.09288 0.88958 0.0
H370 H 0.26249 0.18974 0.93954 0.0
H371 H 0.27199 0.10268 0.93894 0.0
H372 H 0.30854 0.12486 0.02862 0.0
H373 H 0.31398 0.12646 0.97955 0.0
H374 H 0.22783 0.17598 0.97596 0.0
H375 H 0.22252 0.17437 0.02455 0.0
C376 C 0.24897 0.16299 0.90031 0.0
C377 C 0.24399 0.13552 0.88616 0.0
C378 C 0.26102 0.16865 0.92865 0.0
C379 C 0.26839 0.14693 0.94318 0.0
C380 C 0.26672 0.11989 0.92833 0.0
C381 C 0.25455 0.11423 0.90007 0.0
C382 C 0.29147 0.13668 0.01744 0.0
C383 C 0.26477 0.14914 0.03013 0.0
C384 C 0.29453 0.13755 0.98941 0.0
C385 C 0.27123 0.15121 0.97389 0.0
C386 C 0.24645 0.16554 0.98737 0.0
C387 C 0.24315 0.16439 0.01516 0.0
H388 H 0.75675 0.17585 0.96047 0.0
H389 H 0.84252 0.24173 0.97338 0.0
H390 H 0.76042 0.1759 0.00978 0.0
H391 H 0.84474 0.24346 0.02346 0.0
H392 H 0.88046 0.20006 0.09703 0.0
H393 H 0.86707 0.21636 0.05336 0.0
H394 H 0.75672 0.19144 0.05521 0.0
H395 H 0.77101 0.17295 0.09778 0.0
C396 C 0.77555 0.19115 0.97404 0.0
C397 C 0.79984 0.20838 0.96313 0.0
C398 C 0.77756 0.19138 0.00256 0.0
C399 C 0.80345 0.20932 0.02091 0.0
C400 C 0.82527 0.22868 0.01 0.0
C401 C 0.8238 0.22794 0.98133 0.0
C402 C 0.85333 0.1985 0.0882 0.0
C403 C 0.82681 0.18479 0.10026 0.0
C404 C 0.84547 0.20811 0.06323 0.0
C405 C 0.81073 0.20483 0.05021 0.0
C406 C 0.78389 0.19346 0.06396 0.0
C407 C 0.79195 0.18303 0.08845 0.0
H408 H 0.707 0.83972 0.90507 0.0
H409 H 0.81537 0.87262 0.93066 0.0
H410 H 0.70373 0.82431 0.95014 0.0
H411 H 0.81207 0.85722 0.97519 0.0
H412 H 0.80941 0.80059 0.03761 0.0
H413 H 0.80452 0.80975 0.99007 0.0
H414 H 0.70935 0.84657 0.00237 0.0
H415 H 0.71411 0.83734 0.05016 0.0
C416 C 0.72997 0.84381 0.92036 0.0
C417 C 0.76146 0.85729 0.91437 0.0
C418 C 0.72808 0.83499 0.94604 0.0
C419 C 0.75781 0.83919 0.96587 0.0
C420 C 0.78896 0.85322 0.96003 0.0
C421 C 0.79074 0.86226 0.93463 0.0
C422 C 0.78701 0.81008 0.03003 0.0
C423 C 0.76238 0.81858 0.04768 0.0
C424 C 0.78434 0.81545 0.00288 0.0
C425 C 0.75693 0.82932 -0.00719 0.0
C426 C 0.73075 0.83588 0.00969 0.0
C427 C 0.7335 0.8306 0.037 0.0
H428 H 0.21853 0.8013 0.07198 0.0
H429 H 0.15079 0.86608 0.07049 0.0
H430 H 0.2177 0.79675 0.02145 0.0
H431 H 0.14991 0.86147 0.02044 0.0
H432 H 0.18504 0.86771 0.93678 0.0
H433 H 0.19237 0.87104 0.98716 0.0
H434 H 0.17366 0.78167 0.97846 0.0
H435 H 0.16656 0.77828 0.92796 0.0
C436 C 0.20343 0.81446 0.06087 0.0
C437 C 0.18475 0.83405 0.07512 0.0
C438 C 0.20291 0.81183 0.03203 0.0
C439 C 0.18402 0.82896 0.01713 0.0
C440 C 0.16519 0.84834 0.03145 0.0
C441 C 0.16549 0.85081 0.0601 0.0
C442 C 0.18286 0.84876 0.94561 0.0
C443 C 0.17494 0.82276 0.9285 0.0
C444 C 0.1869 0.85067 0.97442 0.0
C445 C 0.18325 0.82661 0.98666 0.0
C446 C 0.17678 0.80052 0.96955 0.0
C447 C 0.17255 0.79861 0.94069 0.0
H448 H 0.13463 0.17494 0.12233 0.0
H449 H 0.11829 0.08527 0.10481 0.0
H450 H 0.07487 0.17583 0.13369 0.0
H451 H 0.05833 0.08617 0.11646 0.0
H452 H 0.94233 0.1031 0.11133 0.0
H453 H 0.00172 0.10089 0.09927 0.0
H454 H 0.04113 0.16293 0.17091 0.0
H455 H 0.98157 0.16535 0.18286 0.0
C456 C 0.11818 0.15541 0.12074 0.0
C457 C 0.13111 0.13002 0.11267 0.0
C458 C 0.08405 0.15593 0.1275 0.0
C459 C 0.06203 0.13108 0.12623 0.0
C460 C 0.07467 0.10567 0.1175 0.0
C461 C 0.10895 0.10514 0.11086 0.0
C462 C 0.9637 0.11618 0.12458 0.0
C463 C 0.95733 0.13446 0.14801 0.0
C464 C -0.00229 0.11481 0.11773 0.0
C465 C 0.02606 0.1318 0.13407 0.0
C466 C 0.01973 0.14984 0.15772 0.0
C467 C 0.98569 0.15111 0.16466 0.0
H468 H 0.80854 0.91682 0.1971 0.0
H469 H 0.76283 0.91679 0.11305 0.0
H470 H 0.81544 0.96757 0.20554 0.0
H471 H 0.77124 0.96705 0.12083 0.0
H472 H 0.77269 0.05787 0.14274 0.0
H473 H 0.75517 0.00872 0.14237 0.0
H474 H 0.85196 0.00395 0.19318 0.0
H475 H 0.86828 0.05349 0.1948 0.0
C476 C 0.79975 0.92769 0.18053 0.0
C477 C 0.78529 0.91294 0.15441 0.0
C478 C 0.80394 0.95673 0.18526 0.0
C479 C 0.79415 0.9715 0.16382 0.0
C480 C 0.77854 0.95654 0.13802 0.0
C481 C 0.77393 0.92762 0.13345 0.0
C482 C 0.78996 0.04629 0.15406 0.0
C483 C 0.82195 0.05928 0.16856 0.0
C484 C 0.78005 0.01811 0.15376 0.0
C485 C 0.80234 0.00219 0.16743 0.0
C486 C 0.83388 0.01554 0.18272 0.0
C487 C 0.84343 0.04389 0.18348 0.0
H488 H 0.90518 0.81763 0.10599 0.0
H489 H 0.89961 0.83688 0.19417 0.0
H490 H 0.9686 0.81908 0.11479 0.0
H491 H 0.96349 0.83863 0.20295 0.0
H492 H 0.08047 0.87581 0.19437 0.0
H493 H 0.0164 0.87071 0.19099 0.0
H494 H 0.01194 0.79102 0.13863 0.0
H495 H 0.0757 0.7959 0.14213 0.0
C496 C 0.91754 0.82208 0.12726 0.0
C497 C 0.89755 0.82713 0.1494 0.0
C498 C 0.95378 0.82276 0.13229 0.0
C499 C 0.9708 0.82887 0.15954 0.0
C500 C 0.95089 0.83394 0.18175 0.0
C501 C 0.91445 0.83283 0.17673 0.0
C502 C 0.06577 0.85705 0.18249 0.0
C503 C 0.08299 0.83634 0.16836 0.0
C504 C 0.0292 0.8541 0.18066 0.0
C505 C 0.00938 0.83057 0.16438 0.0
C506 C 0.02668 0.80946 0.15109 0.0
C507 C 0.06314 0.81224 0.15319 0.0
H508 H 0.29356 0.07268 0.16199 0.0
H509 H 0.24433 0.03081 0.08146 0.0
H510 H 0.29661 0.0278 0.17747 0.0
H511 H 0.24814 0.98599 0.09681 0.0
H512 H 0.22151 0.94826 0.19475 0.0
H513 H 0.24055 -0.00641 0.18297 0.0
H514 H 0.29294 0.95392 0.11691 0.0
H515 H 0.27461 0.90856 0.12905 0.0
C516 C 0.28436 0.05387 0.14736 0.0
C517 C 0.26841 0.05514 0.1206 0.0
C518 C 0.28605 0.02828 0.15626 0.0
C519 C 0.27256 0.0036 0.13833 0.0
C520 C 0.25901 0.00478 0.11093 0.0
C521 C 0.25667 0.03038 0.1022 0.0
C522 C 0.23801 0.94931 0.1783 0.0
C523 C 0.24643 0.92498 0.16271 0.0
C524 C 0.24899 0.9752 0.17163 0.0
C525 C 0.26801 0.97708 0.14896 0.0
C526 C 0.27825 0.9529 0.13445 0.0
C527 C 0.26787 0.92703 0.14148 0.0
H528 H 0.89782 0.88081 0.81814 0.0
H529 H 0.85458 0.80217 0.83714 0.0
H530 H 0.95375 0.86266 0.81309 0.0
H531 H 0.91063 0.78405 0.83213 0.0
H532 H 0.03191 0.78659 0.86241 0.0
H533 H 0.97079 0.79545 0.85957 0.0
H534 H 0.9805 0.82604 0.78243 0.0
H535 H 0.04169 0.81713 0.78521 0.0
C536 C 0.90027 0.85964 0.82115 0.0
C537 C 0.87199 0.84296 0.8282 0.0
C538 C 0.93213 0.84915 0.81798 0.0
C539 C 0.9364 0.82188 0.82205 0.0
C540 C 0.90803 0.80514 0.82893 0.0
C541 C 0.87603 0.81553 0.8318 0.0
C542 C 0.02071 0.79446 0.84445 0.0
C543 C 0.0416 0.80141 0.82417 0.0
C544 C 0.98572 0.79951 0.84281 0.0
C545 C 0.97115 0.81183 0.821 0.0
C546 C 0.99131 0.8169 0.79967 0.0
C547 C 0.02621 0.81157 0.80115 0.0
H548 H 0.12009 0.91119 0.84258 0.0
H549 H 0.19321 0.88393 0.78625 0.0
H550 H 0.12283 0.95575 0.82633 0.0
H551 H 0.19605 0.92883 0.76999 0.0
H552 H 0.22522 0.02777 0.78979 0.0
H553 H 0.21944 0.97838 0.79296 0.0
H554 H 0.10686 0.97588 0.78296 0.0
H555 H 0.11253 0.02524 0.77987 0.0
C556 C 0.13665 0.91471 0.82665 0.0
C557 C 0.15659 0.89421 0.81579 0.0
C558 C 0.13794 0.9401 0.81713 0.0
C559 C 0.15943 0.9456 0.79673 0.0
C560 C 0.17927 0.92505 0.78572 0.0
C561 C 0.17765 0.89945 0.79503 0.0
C562 C 0.19924 0.01649 0.78744 0.0
C563 C 0.16934 0.03041 0.78504 0.0
C564 C 0.19595 0.98821 0.78921 0.0
C565 C 0.16272 0.97352 0.78871 0.0
C566 C 0.13279 0.98691 0.78387 0.0
C567 C 0.13606 0.0151 0.78194 0.0
H568 H 0.0969 0.17904 0.84626 0.0
H569 H 0.06776 0.09186 0.84727 0.0
H570 H 0.03994 0.18922 0.85992 0.0
H571 H 0.01098 0.10208 0.86108 0.0
H572 H 0.90032 0.12822 0.8425 0.0
H573 H 0.95942 0.11784 0.83582 0.0
H574 H 0.00186 0.18811 0.89859 0.0
H575 H 0.94238 0.19861 0.90527 0.0
C576 C 0.07849 0.16212 0.84974 0.0
C577 C 0.0866 0.13464 0.84548 0.0
C578 C 0.046 0.16797 0.85771 0.0
C579 C 0.021 0.1464 0.86138 0.0
C580 C 0.02963 0.11905 0.85806 0.0
C581 C 0.06216 0.11323 0.85026 0.0
C582 C 0.92223 0.14137 0.855 0.0
C583 C 0.9168 0.16428 0.87434 0.0
C584 C 0.95606 0.13531 0.85132 0.0
C585 C 0.98521 0.15213 0.86674 0.0
C586 C 0.97983 0.1749 0.88632 0.0
C587 C 0.94586 0.18084 0.89021 0.0
H588 H 0.71392 0.95361 0.85965 0.0
H589 H 0.80107 0.9644 0.81232 0.0
H590 H 0.70958 0.00365 0.86493 0.0
H591 H 0.79642 0.01405 0.81725 0.0
H592 H 0.76753 0.10005 0.81638 0.0
H593 H 0.75498 0.04944 0.80493 0.0
H594 H 0.75357 0.04455 0.89188 0.0
H595 H 0.76642 0.09499 0.90336 0.0
C596 C 0.73168 0.9666 0.84998 0.0
C597 C 0.75801 0.95527 0.83578 0.0
C598 C 0.72922 -0.00486 0.85303 0.0
C599 C 0.7526 0.01262 0.84143 0.0
C600 C 0.77779 0.00099 0.82611 0.0
C601 C 0.78064 0.97264 0.82349 0.0
C602 C 0.76372 0.08819 0.83295 0.0
C603 C 0.7683 0.10133 0.86077 0.0
C604 C 0.75667 0.05928 0.82641 0.0
C605 C 0.75352 0.04316 0.84755 0.0
C606 C 0.75562 0.05651 0.87517 0.0
C607 C 0.76318 0.08533 0.88174 0.0
H608 H 0.73275 0.59241 0.38367 0.0
H609 H 0.72787 0.67929 0.37962 0.0
H610 H 0.75861 0.60438 0.43181 0.0
H611 H 0.75419 0.69138 0.42802 0.0
H612 H 0.80461 0.6294 0.51868 0.0
H613 H 0.80575 0.62845 0.46867 0.0
H614 H 0.72356 0.68195 0.4681 0.0
H615 H 0.72249 0.68279 0.51756 0.0
C616 C 0.73807 0.61414 0.3929 0.0
C617 C 0.72762 0.6349 0.37817 0.0
C618 C 0.75327 0.62104 0.42041 0.0
C619 C 0.75812 0.64881 0.43376 0.0
C620 C 0.75042 0.66977 0.41827 0.0
C621 C 0.73536 0.66287 0.39063 0.0
C622 C 0.78765 0.6416 0.50791 0.0
C623 C 0.76306 0.65578 0.52171 0.0
C624 C 0.78821 0.64101 0.47936 0.0
C625 C 0.76455 0.65495 0.46446 0.0
C626 C 0.74234 0.6712 0.47897 0.0
C627 C 0.74147 0.67147 0.50727 0.0
H628 H 0.26871 0.65279 0.59826 0.0
H629 H 0.37591 0.67932 0.58819 0.0
H630 H 0.24922 0.66644 0.55383 0.0
H631 H 0.35697 0.69171 0.54367 0.0
H632 H 0.32108 0.72176 0.46833 0.0
H633 H 0.32863 0.72124 0.51816 0.0
H634 H 0.25034 0.64965 0.50638 0.0
H635 H 0.24156 0.65129 0.45699 0.0
C636 C 0.28804 0.66162 0.58659 0.0
C637 C 0.32381 0.66481 0.59655 0.0
C638 C 0.27694 0.66937 0.56112 0.0
C639 C 0.30146 0.6802 0.54504 0.0
C640 C 0.33715 0.68406 0.55559 0.0
C641 C 0.34812 0.67662 0.58107 0.0
C642 C 0.3048 0.70647 0.4766 0.0
C643 C 0.28111 0.68635 0.45882 0.0
C644 C 0.30932 0.70597 0.5051 0.0
C645 C 0.29081 0.68492 0.51628 0.0
C646 C 0.26501 0.66624 0.49867 0.0
C647 C 0.26003 0.66709 0.47025 0.0
H648 H 0.26261 0.40865 0.43911 0.0
H649 H 0.21998 0.32279 0.41219 0.0
H650 H 0.26282 0.40224 0.48734 0.0
H651 H 0.22099 0.31617 0.46057 0.0
H652 H 0.21307 0.31936 0.55412 0.0
H653 H 0.2 0.32834 0.5066 0.0
H654 H 0.30132 0.37662 0.51375 0.0
H655 H 0.31405 0.36806 0.56092 0.0
C656 C 0.25275 0.38852 0.44353 0.0
C657 C 0.24179 0.3661 0.42198 0.0
C658 C 0.25305 0.38481 0.47112 0.0
C659 C 0.24266 0.35855 0.47769 0.0
C660 C 0.22913 0.33664 0.45613 0.0
C661 C 0.22863 0.34042 0.42845 0.0
C662 C 0.23245 0.33188 0.54543 0.0
C663 C 0.26457 0.34302 0.56115 0.0
C664 C 0.22498 0.33701 0.51831 0.0
C665 C 0.24945 0.35347 0.50661 0.0
C666 C 0.28158 0.3644 0.52239 0.0
C667 C 0.28904 0.35925 0.54934 0.0
H668 H 0.71688 0.35957 0.44989 0.0
H669 H 0.66055 0.27702 0.43101 0.0
H670 H 0.7261 0.35511 0.49878 0.0
H671 H 0.67034 0.27233 0.47987 0.0
H672 H 0.64476 0.2998 0.57062 0.0
H673 H 0.64625 0.29401 0.52069 0.0
H674 H 0.75413 0.331 0.53373 0.0
H675 H 0.75242 0.33725 0.58388 0.0
C676 C 0.70699 0.3403 0.45614 0.0
C677 C 0.68764 0.31879 0.43675 0.0
C678 C 0.71253 0.33763 0.4841 0.0
C679 C 0.69884 0.31337 0.49318 0.0
C680 C 0.68085 0.29137 0.47353 0.0
C681 C 0.6753 0.29406 0.44557 0.0
C682 C 0.66904 0.30612 0.56285 0.0
C683 C 0.69832 0.31931 0.58108 0.0
C684 C 0.66997 0.30268 0.53422 0.0
C685 C 0.70021 0.31237 0.52328 0.0
C686 C 0.7303 0.32375 0.54159 0.0
C687 C 0.72939 0.32715 0.57027 0.0
H688 H 0.65466 0.6317 0.66395 0.0
H689 H 0.61255 0.62269 0.57765 0.0
H690 H 0.59547 0.62899 0.67716 0.0
H691 H 0.55335 0.62054 0.59089 0.0
H692 H 0.4508 0.59412 0.62143 0.0
H693 H 0.51044 0.5916 0.6102 0.0
H694 H 0.54802 0.65826 0.67823 0.0
H695 H 0.48833 0.66038 0.68981 0.0
C696 C 0.63272 0.62902 0.6478 0.0
C697 C 0.63815 0.62747 0.61978 0.0
C698 C 0.59886 0.62764 0.65539 0.0
C699 C 0.56976 0.62469 0.6351 0.0
C700 C 0.57523 0.6225 0.60699 0.0
C701 C 0.60911 0.62386 0.59941 0.0
C702 C 0.47185 0.60807 0.63414 0.0
C703 C 0.46496 0.62753 0.65643 0.0
C704 C 0.50596 0.60673 0.6276 0.0
C705 C 0.53389 0.62484 0.6432 0.0
C706 C 0.52709 0.64382 0.66598 0.0
C707 C 0.49292 0.64514 0.67255 0.0
H708 H 0.26616 0.56107 0.66002 0.0
H709 H 0.36851 0.54692 0.6952 0.0
H710 H 0.24304 0.51391 0.66449 0.0
H711 H 0.34613 0.49979 0.69859 0.0
H712 H 0.30216 0.41917 0.71318 0.0
H713 H 0.31073 0.46979 0.72021 0.0
H714 H 0.24688 0.46831 0.64221 0.0
H715 H 0.23697 0.41801 0.63605 0.0
C716 C 0.28366 0.54786 0.66871 0.0
C717 C 0.31915 0.55753 0.67707 0.0
C718 C 0.27048 0.52086 0.67125 0.0
C719 C 0.29265 0.50296 0.68195 0.0
C720 C 0.328 0.51305 0.69085 0.0
C721 C 0.34101 0.54003 0.68859 0.0
C722 C 0.28908 0.42978 0.69803 0.0
C723 C 0.26936 0.4147 0.67388 0.0
C724 C 0.29425 0.45876 0.70188 0.0
C725 C 0.28033 0.47315 0.68139 0.0
C726 C 0.25797 0.45805 0.65849 0.0
C727 C 0.25236 0.42911 0.65488 0.0
H728 H 0.57709 0.384 0.68992 0.0
H729 H 0.57276 0.2971 0.6555 0.0
H730 H 0.51349 0.37881 0.68874 0.0
H731 H 0.50923 0.29181 0.6547 0.0
H732 H 0.3979 0.30611 0.6199 0.0
H733 H 0.46141 0.30791 0.62691 0.0
H734 H 0.46361 0.35669 0.70828 0.0
H735 H 0.39987 0.35517 0.70109 0.0
C736 C 0.56259 0.36371 0.68251 0.0
C737 C 0.57983 0.34101 0.67261 0.0
C738 C 0.52618 0.3607 0.68196 0.0
C739 C 0.50634 0.33494 0.67145 0.0
C740 C 0.52378 0.31201 0.66254 0.0
C741 C 0.56016 0.31501 0.66313 0.0
C742 C 0.4119 0.31701 0.63938 0.0
C743 C 0.39398 0.33058 0.65991 0.0
C744 C 0.44827 0.3179 0.64347 0.0
C745 C 0.46752 0.33244 0.66815 0.0
C746 C 0.4495 0.34555 0.68894 0.0
C747 C 0.41304 0.34456 0.68488 0.0
H748 H 0.74309 0.54236 0.56968 0.0
H749 H 0.78575 0.57681 0.65409 0.0
H750 H 0.7358 0.4962 0.58231 0.0
H751 H 0.7777 0.53052 0.66693 0.0
H752 H 0.76983 0.43649 0.67449 0.0
H753 H 0.79093 0.48078 0.66091 0.0
H754 H 0.69199 0.47929 0.61076 0.0
H755 H 0.67122 0.43542 0.62399 0.0
C756 C 0.75166 0.53995 0.5908 0.0
C757 C 0.76448 0.56317 0.611 0.0
C758 C 0.74725 0.51357 0.59808 0.0
C759 C 0.75531 0.50991 0.62576 0.0
C760 C 0.77118 0.53274 0.64545 0.0
C761 C 0.77581 0.55922 0.6381 0.0
C762 C 0.75264 0.44579 0.66068 0.0
C763 C 0.71891 0.43252 0.65025 0.0
C764 C 0.76472 0.47105 0.6529 0.0
C765 C 0.74334 0.48321 0.63439 0.0
C766 C 0.70943 0.47009 0.62448 0.0
C767 C 0.69737 0.44508 0.63231 0.0
H768 H 0.38436 0.37118 0.39326 0.0
H769 H 0.37872 0.36253 0.30396 0.0
H770 H 0.44508 0.36137 0.39571 0.0
H771 H 0.43968 0.35314 0.30644 0.0
H772 H 0.53574 0.30661 0.31991 0.0
H773 H 0.47471 0.31615 0.31786 0.0
H774 H 0.5026 0.38216 0.38809 0.0
H775 H 0.56319 0.37237 0.3904 0.0
C776 C 0.39625 0.36752 0.37418 0.0
C777 C 0.37686 0.36768 0.34843 0.0
C778 C 0.43102 0.36193 0.37559 0.0
C779 C 0.44711 0.35634 0.35125 0.0
C780 C 0.42784 0.35695 0.32551 0.0
C781 C 0.39307 0.3626 0.32412 0.0
C782 C 0.5287 0.323 0.33501 0.0
C783 C 0.55417 0.33872 0.35532 0.0
C784 C 0.49387 0.32862 0.3337 0.0
C785 C 0.48389 0.34998 0.35277 0.0
C786 C 0.50937 0.36539 0.3733 0.0
C787 C 0.54411 0.35983 0.37455 0.0
H788 H 0.64372 0.37989 0.27874 0.0
H789 H 0.71724 0.42112 0.34861 0.0
H790 H 0.64603 0.42269 0.25891 0.0
H791 H 0.7194 0.46384 0.3289 0.0
H792 H 0.72861 0.53576 0.2856 0.0
H793 H 0.73524 0.48756 0.28969 0.0
H794 H 0.62287 0.46712 0.27534 0.0
H795 H 0.61624 0.51518 0.27107 0.0
C796 C 0.66084 0.39795 0.2896 0.0
C797 C 0.68002 0.39733 0.31537 0.0
C798 C 0.6621 0.42242 0.27826 0.0
C799 C 0.68278 0.44659 0.29239 0.0
C800 C 0.70353 0.44544 0.31735 0.0
C801 C 0.70209 0.42105 0.32877 0.0
C802 C 0.70539 0.52079 0.28247 0.0
C803 C 0.67186 0.52926 0.27847 0.0
C804 C 0.70921 0.49325 0.28497 0.0
C805 C 0.67957 0.47373 0.28329 0.0
C806 C 0.64622 0.48168 0.27663 0.0
C807 C 0.64239 0.50924 0.27429 0.0
H808 H 0.57221 0.61522 0.36825 0.0
H809 H 0.53754 0.6199 0.28282 0.0
H810 H 0.51373 0.62206 0.38047 0.0
H811 H 0.47959 0.62782 0.29508 0.0
H812 H 0.37069 0.61836 0.3196 0.0
H813 H 0.42799 0.60666 0.30877 0.0
H814 H 0.47586 0.65734 0.38587 0.0
H815 H 0.41821 0.66805 0.39713 0.0
C816 C 0.55206 0.61772 0.3521 0.0
C817 C 0.55938 0.61701 0.32459 0.0
C818 C 0.51861 0.62184 0.35912 0.0
C819 C 0.49188 0.62558 0.3388 0.0
C820 C 0.49928 0.62455 0.31121 0.0
C821 C 0.53259 0.62017 0.30417 0.0
C822 C 0.39348 0.62686 0.33429 0.0
C823 C 0.39007 0.64421 0.35915 0.0
C824 C 0.42636 0.6203 0.32802 0.0
C825 C 0.45667 0.63121 0.34632 0.0
C826 C 0.4531 0.64825 0.37144 0.0
C827 C 0.4201 0.65456 0.37784 0.0
H828 H 0.27625 0.45354 0.30026 0.0
H829 H 0.18844 0.43929 0.34611 0.0
H830 H 0.26613 0.50195 0.30219 0.0
H831 H 0.17849 0.48803 0.34829 0.0
H832 H 0.23646 0.57785 0.3914 0.0
H833 H 0.22107 0.528 0.37694 0.0
H834 H 0.22517 0.53782 0.29135 0.0
H835 H 0.2403 0.58798 0.30586 0.0
C836 C 0.25417 0.46061 0.31005 0.0
C837 C 0.23345 0.44289 0.3234 0.0
C838 C 0.24819 0.48826 0.31097 0.0
C839 C 0.2217 0.49872 0.32559 0.0
C840 C 0.19918 0.48043 0.33701 0.0
C841 C 0.20484 0.4526 0.33571 0.0
C842 C 0.23314 0.56946 0.36945 0.0
C843 C 0.24004 0.5866 0.34977 0.0
C844 C 0.22401 0.54096 0.36113 0.0
C845 C 0.2221 0.5291 0.33303 0.0
C846 C 0.22658 0.54652 0.31314 0.0
C847 C 0.2352 0.57514 0.32144 0.0
loop_
_geom_bond_atom_site_label_1
_geom_bond_atom_site_label_2
_geom_bond_distance
_geom_bond_site_symmetry_2
_ccdc_geom_bond_type
In0 O1 2.294 . S
In0 O2 2.326 . S
In0 O6 2.266 . S
In0 O7 2.326 . S
In0 O8 2.266 . S
In0 O9 2.326 . S
In0 O11 2.294 . S
In0 O12 2.326 . S
O1 In0 2.294 . S
O1 C10 1.240 . S
O2 In0 2.326 . S
O2 C10 1.252 . S
C3 O6 1.252 . S
C3 O7 1.260 . S
C4 O11 1.240 . S
C4 O12 1.252 . S
C5 O8 1.252 . S
C5 O9 1.260 . S
O6 In0 2.266 . S
O6 C3 1.252 . S
O7 In0 2.326 . S
O7 C3 1.260 . S
O8 In0 2.266 . S
O8 C5 1.252 . S
O9 In0 2.326 . S
O9 C5 1.260 . S
C10 O1 1.240 . S
C10 O2 1.252 . S
O11 In0 2.294 . S
O11 C4 1.240 . S
O12 In0 2.326 . S
O12 C4 1.252 . S
In13 O14 2.294 . S
In13 O15 2.326 . S
In13 O19 2.266 . S
In13 O20 2.326 . S
In13 O21 2.266 . S
In13 O22 2.326 . S
In13 O24 2.294 . S
In13 O25 2.326 . S
O14 In13 2.294 . S
O14 C23 1.240 . S
O15 In13 2.326 . S
O15 C23 1.252 . S
C16 O19 1.252 . S
C16 O20 1.260 . S
C17 O24 1.240 . S
C17 O25 1.252 . S
C18 O21 1.252 . S
C18 O22 1.260 . S
O19 In13 2.266 . S
O19 C16 1.252 . S
O20 In13 2.326 . S
O20 C16 1.260 . S
O21 In13 2.266 . S
O21 C18 1.252 . S
O22 In13 2.326 . S
O22 C18 1.260 . S
C23 O14 1.240 . S
C23 O15 1.252 . S
O24 In13 2.294 . S
O24 C17 1.240 . S
O25 In13 2.326 . S
O25 C17 1.252 . S
In26 O27 2.294 . S
In26 O28 2.326 . S
In26 O32 2.266 . S
In26 O33 2.326 . S
In26 O34 2.266 . S
In26 O35 2.326 . S
In26 O37 2.294 . S
In26 O38 2.326 . S
O27 In26 2.294 . S
O27 C36 1.240 . S
O28 In26 2.326 . S
O28 C36 1.252 . S
C29 O32 1.252 . S
C29 O33 1.260 . S
C30 O37 1.240 . S
C30 O38 1.252 . S
C31 O34 1.252 . S
C31 O35 1.260 . S
O32 In26 2.266 . S
O32 C29 1.252 . S
O33 In26 2.326 . S
O33 C29 1.260 . S
O34 In26 2.266 . S
O34 C31 1.252 . S
O35 In26 2.326 . S
O35 C31 1.260 . S
C36 O27 1.240 . S
C36 O28 1.252 . S
O37 In26 2.294 . S
O37 C30 1.240 . S
O38 In26 2.326 . S
O38 C30 1.252 . S
In39 O40 2.294 . S
In39 O41 2.326 . S
In39 O45 2.266 . S
In39 O46 2.326 . S
In39 O47 2.266 . S
In39 O48 2.326 . S
In39 O50 2.294 . S
In39 O51 2.326 . S
O40 In39 2.294 . S
O40 C49 1.240 . S
O41 In39 2.326 . S
O41 C49 1.252 . S
C42 O45 1.252 . S
C42 O46 1.260 . S
C43 O50 1.240 . S
C43 O51 1.252 . S
C44 O47 1.252 . S
C44 O48 1.260 . S
O45 In39 2.266 . S
O45 C42 1.252 . S
O46 In39 2.326 . S
O46 C42 1.260 . S
O47 In39 2.266 . S
O47 C44 1.252 . S
O48 In39 2.326 . S
O48 C44 1.260 . S
C49 O40 1.240 . S
C49 O41 1.252 . S
O50 In39 2.294 . S
O50 C43 1.240 . S
O51 In39 2.326 . S
O51 C43 1.252 . S
In52 O53 2.294 . S
In52 O54 2.326 . S
In52 O58 2.266 . S
In52 O59 2.326 . S
In52 O60 2.266 . S
In52 O61 2.326 . S
In52 O63 2.294 . S
In52 O64 2.326 . S
O53 In52 2.294 . S
O53 C62 1.240 . S
O54 In52 2.326 . S
O54 C62 1.252 . S
C55 O58 1.252 . S
C55 O59 1.260 . S
C56 O63 1.240 . S
C56 O64 1.252 . S
C57 O60 1.252 . S
C57 O61 1.260 . S
O58 In52 2.266 . S
O58 C55 1.252 . S
O59 In52 2.326 . S
O59 C55 1.260 . S
O60 In52 2.266 . S
O60 C57 1.252 . S
O61 In52 2.326 . S
O61 C57 1.260 . S
C62 O53 1.240 . S
C62 O54 1.252 . S
O63 In52 2.294 . S
O63 C56 1.240 . S
O64 In52 2.326 . S
O64 C56 1.252 . S
In65 O66 2.294 . S
In65 O67 2.326 . S
In65 O71 2.266 . S
In65 O72 2.326 . S
In65 O73 2.266 . S
In65 O74 2.326 . S
In65 O76 2.294 . S
In65 O77 2.326 . S
O66 In65 2.294 . S
O66 C75 1.240 . S
O67 In65 2.326 . S
O67 C75 1.252 . S
C68 O71 1.252 . S
C68 O72 1.260 . S
C69 O76 1.240 . S
C69 O77 1.252 . S
C70 O73 1.252 . S
C70 O74 1.260 . S
O71 In65 2.266 . S
O71 C68 1.252 . S
O72 In65 2.326 . S
O72 C68 1.260 . S
O73 In65 2.266 . S
O73 C70 1.252 . S
O74 In65 2.326 . S
O74 C70 1.260 . S
C75 O66 1.240 . S
C75 O67 1.252 . S
O76 In65 2.294 . S
O76 C69 1.240 . S
O77 In65 2.326 . S
O77 C69 1.252 . S
In78 O79 2.294 . S
In78 O80 2.326 . S
In78 O84 2.266 . S
In78 O85 2.326 . S
In78 O86 2.266 . S
In78 O87 2.326 . S
In78 O89 2.294 . S
In78 O90 2.326 . S
O79 In78 2.294 . S
O79 C88 1.240 . S
O80 In78 2.326 . S
O80 C88 1.252 . S
C81 O84 1.252 . S
C81 O85 1.260 . S
C82 O89 1.240 . S
C82 O90 1.252 . S
C83 O86 1.252 . S
C83 O87 1.260 . S
O84 In78 2.266 . S
O84 C81 1.252 . S
O85 In78 2.326 . S
O85 C81 1.260 . S
O86 In78 2.266 . S
O86 C83 1.252 . S
O87 In78 2.326 . S
O87 C83 1.260 . S
C88 O79 1.240 . S
C88 O80 1.252 . S
O89 In78 2.294 . S
O89 C82 1.240 . S
O90 In78 2.326 . S
O90 C82 1.252 . S
In91 O92 2.294 . S
In91 O93 2.326 . S
In91 O97 2.266 . S
In91 O98 2.326 . S
In91 O99 2.266 . S
In91 O100 2.326 . S
In91 O102 2.294 . S
In91 O103 2.326 . S
O92 In91 2.294 . S
O92 C101 1.240 . S
O93 In91 2.326 . S
O93 C101 1.252 . S
C94 O97 1.252 . S
C94 O98 1.260 . S
C95 O102 1.240 . S
C95 O103 1.252 . S
C96 O99 1.252 . S
C96 O100 1.260 . S
O97 In91 2.266 . S
O97 C94 1.252 . S
O98 In91 2.326 . S
O98 C94 1.260 . S
O99 In91 2.266 . S
O99 C96 1.252 . S
O100 In91 2.326 . S
O100 C96 1.260 . S
C101 O92 1.240 . S
C101 O93 1.252 . S
O102 In91 2.294 . S
O102 C95 1.240 . S
O103 In91 2.326 . S
O103 C95 1.252 . S
In104 O105 2.294 . S
In104 O106 2.326 . S
In104 O110 2.266 . S
In104 O111 2.326 . S
In104 O112 2.266 . S
In104 O113 2.326 . S
In104 O115 2.294 . S
In104 O116 2.326 . S
O105 In104 2.294 . S
O105 C114 1.240 . S
O106 In104 2.326 . S
O106 C114 1.252 . S
C107 O110 1.252 . S
C107 O111 1.260 . S
C108 O115 1.240 . S
C108 O116 1.252 . S
C109 O112 1.252 . S
C109 O113 1.260 . S
O110 In104 2.266 . S
O110 C107 1.252 . S
O111 In104 2.326 . S
O111 C107 1.260 . S
O112 In104 2.266 . S
O112 C109 1.252 . S
O113 In104 2.326 . S
O113 C109 1.260 . S
C114 O105 1.240 . S
C114 O106 1.252 . S
O115 In104 2.294 . S
O115 C108 1.240 . S
O116 In104 2.326 . S
O116 C108 1.252 . S
In117 O118 2.294 . S
In117 O119 2.326 . S
In117 O123 2.266 . S
In117 O124 2.326 . S
In117 O125 2.266 . S
In117 O126 2.326 . S
In117 O128 2.294 . S
In117 O129 2.326 . S
O118 In117 2.294 . S
O118 C127 1.240 . S
O119 In117 2.326 . S
O119 C127 1.252 . S
C120 O123 1.252 . S
C120 O124 1.260 . S
C121 O128 1.240 . S
C121 O129 1.252 . S
C122 O125 1.252 . S
C122 O126 1.260 . S
O123 In117 2.266 . S
O123 C120 1.252 . S
O124 In117 2.326 . S
O124 C120 1.260 . S
O125 In117 2.266 . S
O125 C122 1.252 . S
O126 In117 2.326 . S
O126 C122 1.260 . S
C127 O118 1.240 . S
C127 O119 1.252 . S
O128 In117 2.294 . S
O128 C121 1.240 . S
O129 In117 2.326 . S
O129 C121 1.252 . S
In130 O131 2.294 . S
In130 O132 2.326 . S
In130 O136 2.266 . S
In130 O137 2.326 . S
In130 O138 2.266 . S
In130 O139 2.326 . S
In130 O141 2.294 . S
In130 O142 2.326 . S
O131 In130 2.294 . S
O131 C140 1.240 . S
O132 In130 2.326 . S
O132 C140 1.252 . S
C133 O136 1.252 . S
C133 O137 1.260 . S
C134 O141 1.240 . S
C134 O142 1.252 . S
C135 O138 1.252 . S
C135 O139 1.260 . S
O136 In130 2.266 . S
O136 C133 1.252 . S
O137 In130 2.326 . S
O137 C133 1.260 . S
O138 In130 2.266 . S
O138 C135 1.252 . S
O139 In130 2.326 . S
O139 C135 1.260 . S
C140 O131 1.240 . S
C140 O132 1.252 . S
O141 In130 2.294 . S
O141 C134 1.240 . S
O142 In130 2.326 . S
O142 C134 1.252 . S
In143 O144 2.294 . S
In143 O145 2.326 . S
In143 O149 2.266 . S
In143 O150 2.326 . S
In143 O151 2.266 . S
In143 O152 2.326 . S
In143 O154 2.294 . S
In143 O155 2.326 . S
O144 In143 2.294 . S
O144 C153 1.240 . S
O145 In143 2.326 . S
O145 C153 1.252 . S
C146 O149 1.252 . S
C146 O150 1.260 . S
C147 O154 1.240 . S
C147 O155 1.252 . S
C148 O151 1.252 . S
C148 O152 1.260 . S
O149 In143 2.266 . S
O149 C146 1.252 . S
O150 In143 2.326 . S
O150 C146 1.260 . S
O151 In143 2.266 . S
O151 C148 1.252 . S
O152 In143 2.326 . S
O152 C148 1.260 . S
C153 O144 1.240 . S
C153 O145 1.252 . S
O154 In143 2.294 . S
O154 C147 1.240 . S
O155 In143 2.326 . S
O155 C147 1.252 . S
In156 O157 2.294 . S
In156 O158 2.326 . S
In156 O162 2.266 . S
In156 O163 2.326 . S
In156 O164 2.266 . S
In156 O165 2.326 . S
In156 O167 2.294 . S
In156 O168 2.326 . S
O157 In156 2.294 . S
O157 C166 1.240 . S
O158 In156 2.326 . S
O158 C166 1.252 . S
C159 O162 1.252 . S
C159 O163 1.260 . S
C160 O167 1.240 . S
C160 O168 1.252 . S
C161 O164 1.252 . S
C161 O165 1.260 . S
O162 In156 2.266 . S
O162 C159 1.252 . S
O163 In156 2.326 . S
O163 C159 1.260 . S
O164 In156 2.266 . S
O164 C161 1.252 . S
O165 In156 2.326 . S
O165 C161 1.260 . S
C166 O157 1.240 . S
C166 O158 1.252 . S
O167 In156 2.294 . S
O167 C160 1.240 . S
O168 In156 2.326 . S
O168 C160 1.252 . S
In169 O170 2.294 . S
In169 O171 2.326 . S
In169 O175 2.266 . S
In169 O176 2.326 . S
In169 O177 2.266 . S
In169 O178 2.326 . S
In169 O180 2.294 . S
In169 O181 2.326 . S
O170 In169 2.294 . S
O170 C179 1.240 . S
O171 In169 2.326 . S
O171 C179 1.252 . S
C172 O175 1.252 . S
C172 O176 1.260 . S
C173 O180 1.240 . S
C173 O181 1.252 . S
C174 O177 1.252 . S
C174 O178 1.260 . S
O175 In169 2.266 . S
O175 C172 1.252 . S
O176 In169 2.326 . S
O176 C172 1.260 . S
O177 In169 2.266 . S
O177 C174 1.252 . S
O178 In169 2.326 . S
O178 C174 1.260 . S
C179 O170 1.240 . S
C179 O171 1.252 . S
O180 In169 2.294 . S
O180 C173 1.240 . S
O181 In169 2.326 . S
O181 C173 1.252 . S
In182 O183 2.294 . S
In182 O184 2.326 . S
In182 O188 2.266 . S
In182 O189 2.326 . S
In182 O190 2.266 . S
In182 O191 2.326 . S
In182 O193 2.294 . S
In182 O194 2.326 . S
O183 In182 2.294 . S
O183 C192 1.240 . S
O184 In182 2.326 . S
O184 C192 1.252 . S
C185 O188 1.252 . S
C185 O189 1.260 . S
C186 O193 1.240 . S
C186 O194 1.252 . S
C187 O190 1.252 . S
C187 O191 1.260 . S
O188 In182 2.266 . S
O188 C185 1.252 . S
O189 In182 2.326 . S
O189 C185 1.260 . S
O190 In182 2.266 . S
O190 C187 1.252 . S
O191 In182 2.326 . S
O191 C187 1.260 . S
C192 O183 1.240 . S
C192 O184 1.252 . S
O193 In182 2.294 . S
O193 C186 1.240 . S
O194 In182 2.326 . S
O194 C186 1.252 . S
In195 O196 2.294 . S
In195 O197 2.326 . S
In195 O201 2.266 . S
In195 O202 2.326 . S
In195 O203 2.266 . S
In195 O204 2.326 . S
In195 O206 2.294 . S
In195 O207 2.326 . S
O196 In195 2.294 . S
O196 C205 1.240 . S
O197 In195 2.326 . S
O197 C205 1.252 . S
C198 O201 1.252 . S
C198 O202 1.260 . S
C199 O206 1.240 . S
C199 O207 1.252 . S
C200 O203 1.252 . S
C200 O204 1.260 . S
O201 In195 2.266 . S
O201 C198 1.252 . S
O202 In195 2.326 . S
O202 C198 1.260 . S
O203 In195 2.266 . S
O203 C200 1.252 . S
O204 In195 2.326 . S
O204 C200 1.260 . S
C205 O196 1.240 . S
C205 O197 1.252 . S
O206 In195 2.294 . S
O206 C199 1.240 . S
O207 In195 2.326 . S
O207 C199 1.252 . S
H208 C216 0.950 . S
H209 C221 0.950 . S
H210 C218 0.950 . S
H211 C220 0.950 . S
H212 C222 0.950 . S
H213 C224 0.950 . S
H214 C226 0.950 . S
H215 C227 0.950 . S
C216 H208 0.950 . S
C216 C217 1.386 . S
C216 C218 1.391 . S
C217 C216 1.386 . S
C217 C221 1.393 . S
C218 H210 0.950 . S
C218 C216 1.391 . S
C218 C219 1.400 . S
C219 C218 1.400 . S
C219 C220 1.398 . S
C219 C225 1.491 . S
C220 H211 0.950 . S
C220 C219 1.398 . S
C220 C221 1.391 . S
C221 H209 0.950 . S
C221 C217 1.393 . S
C221 C220 1.391 . S
C222 H212 0.950 . S
C222 C223 1.386 . S
C222 C224 1.391 . S
C223 C222 1.386 . S
C223 C227 1.393 . S
C224 H213 0.950 . S
C224 C222 1.391 . S
C224 C225 1.400 . S
C225 C219 1.491 . S
C225 C224 1.400 . S
C225 C226 1.398 . S
C226 H214 0.950 . S
C226 C225 1.398 . S
C226 C227 1.391 . S
C227 H215 0.950 . S
C227 C223 1.393 . S
C227 C226 1.391 . S
H228 C236 0.950 . S
H229 C241 0.950 . S
H230 C238 0.950 . S
H231 C240 0.950 . S
H232 C242 0.950 . S
H233 C244 0.950 . S
H234 C246 0.950 . S
H235 C247 0.950 . S
C236 H228 0.950 . S
C236 C237 1.386 . S
C236 C238 1.391 . S
C237 C236 1.386 . S
C237 C241 1.393 . S
C238 H230 0.950 . S
C238 C236 1.391 . S
C238 C239 1.400 . S
C239 C238 1.400 . S
C239 C240 1.398 . S
C239 C245 1.491 . S
C240 H231 0.950 . S
C240 C239 1.398 . S
C240 C241 1.391 . S
C241 H229 0.950 . S
C241 C237 1.393 . S
C241 C240 1.391 . S
C242 H232 0.950 . S
C242 C243 1.386 . S
C242 C244 1.391 . S
C243 C242 1.386 . S
C243 C247 1.393 . S
C244 H233 0.950 . S
C244 C242 1.391 . S
C244 C245 1.400 . S
C245 C239 1.491 . S
C245 C244 1.400 . S
C245 C246 1.398 . S
C246 H234 0.950 . S
C246 C245 1.398 . S
C246 C247 1.391 . S
C247 H235 0.950 . S
C247 C243 1.393 . S
C247 C246 1.391 . S
H248 C256 0.950 . S
H249 C261 0.950 . S
H250 C258 0.950 . S
H251 C260 0.950 . S
H252 C262 0.950 . S
H253 C264 0.950 . S
H254 C266 0.950 . S
H255 C267 0.950 . S
C256 H248 0.950 . S
C256 C257 1.386 . S
C256 C258 1.391 . S
C257 C256 1.386 . S
C257 C261 1.393 . S
C258 H250 0.950 . S
C258 C256 1.391 . S
C258 C259 1.400 . S
C259 C258 1.400 . S
C259 C260 1.398 . S
C259 C265 1.491 . S
C260 H251 0.950 . S
C260 C259 1.398 . S
C260 C261 1.391 . S
C261 H249 0.950 . S
C261 C257 1.393 . S
C261 C260 1.391 . S
C262 H252 0.950 . S
C262 C263 1.386 . S
C262 C264 1.391 . S
C263 C262 1.386 . S
C263 C267 1.393 . S
C264 H253 0.950 . S
C264 C262 1.391 . S
C264 C265 1.400 . S
C265 C259 1.491 . S
C265 C264 1.400 . S
C265 C266 1.398 . S
C266 H254 0.950 . S
C266 C265 1.398 . S
C266 C267 1.391 . S
C267 H255 0.950 . S
C267 C263 1.393 . S
C267 C266 1.391 . S
H268 C276 0.950 . S
H269 C281 0.950 . S
H270 C278 0.950 . S
H271 C280 0.950 . S
H272 C282 0.950 . S
H273 C284 0.950 . S
H274 C286 0.950 . S
H275 C287 0.950 . S
C276 H268 0.950 . S
C276 C277 1.386 . S
C276 C278 1.391 . S
C277 C276 1.386 . S
C277 C281 1.393 . S
C278 H270 0.950 . S
C278 C276 1.391 . S
C278 C279 1.400 . S
C279 C278 1.400 . S
C279 C280 1.398 . S
C279 C285 1.491 . S
C280 H271 0.950 . S
C280 C279 1.398 . S
C280 C281 1.391 . S
C281 H269 0.950 . S
C281 C277 1.393 . S
C281 C280 1.391 . S
C282 H272 0.950 . S
C282 C283 1.386 . S
C282 C284 1.391 . S
C283 C282 1.386 . S
C283 C287 1.393 . S
C284 H273 0.950 . S
C284 C282 1.391 . S
C284 C285 1.400 . S
C285 C279 1.491 . S
C285 C284 1.400 . S
C285 C286 1.398 . S
C286 H274 0.950 . S
C286 C285 1.398 . S
C286 C287 1.391 . S
C287 H275 0.950 . S
C287 C283 1.393 . S
C287 C286 1.391 . S
H288 C296 0.950 . S
H289 C301 0.950 . S
H290 C298 0.950 . S
H291 C300 0.950 . S
H292 C302 0.950 . S
H293 C304 0.950 . S
H294 C306 0.950 . S
H295 C307 0.950 . S
C296 H288 0.950 . S
C296 C297 1.386 . S
C296 C298 1.391 . S
C297 C296 1.386 . S
C297 C301 1.393 . S
C298 H290 0.950 . S
C298 C296 1.391 . S
C298 C299 1.400 . S
C299 C298 1.400 . S
C299 C300 1.398 . S
C299 C305 1.491 . S
C300 H291 0.950 . S
C300 C299 1.398 . S
C300 C301 1.391 . S
C301 H289 0.950 . S
C301 C297 1.393 . S
C301 C300 1.391 . S
C302 H292 0.950 . S
C302 C303 1.386 . S
C302 C304 1.391 . S
C303 C302 1.386 . S
C303 C307 1.393 . S
C304 H293 0.950 . S
C304 C302 1.391 . S
C304 C305 1.400 . S
C305 C299 1.491 . S
C305 C304 1.400 . S
C305 C306 1.398 . S
C306 H294 0.950 . S
C306 C305 1.398 . S
C306 C307 1.391 . S
C307 H295 0.950 . S
C307 C303 1.393 . S
C307 C306 1.391 . S
H308 C316 0.950 . S
H309 C321 0.950 . S
H310 C318 0.950 . S
H311 C320 0.950 . S
H312 C322 0.950 . S
H313 C324 0.950 . S
H314 C326 0.950 . S
H315 C327 0.950 . S
C316 H308 0.950 . S
C316 C317 1.386 . S
C316 C318 1.391 . S
C317 C316 1.386 . S
C317 C321 1.393 . S
C318 H310 0.950 . S
C318 C316 1.391 . S
C318 C319 1.400 . S
C319 C318 1.400 . S
C319 C320 1.398 . S
C319 C325 1.491 . S
C320 H311 0.950 . S
C320 C319 1.398 . S
C320 C321 1.391 . S
C321 H309 0.950 . S
C321 C317 1.393 . S
C321 C320 1.391 . S
C322 H312 0.950 . S
C322 C323 1.386 . S
C322 C324 1.391 . S
C323 C322 1.386 . S
C323 C327 1.393 . S
C324 H313 0.950 . S
C324 C322 1.391 . S
C324 C325 1.400 . S
C325 C319 1.491 . S
C325 C324 1.400 . S
C325 C326 1.398 . S
C326 H314 0.950 . S
C326 C325 1.398 . S
C326 C327 1.391 . S
C327 H315 0.950 . S
C327 C323 1.393 . S
C327 C326 1.391 . S
H328 C336 0.950 . S
H329 C341 0.950 . S
H330 C338 0.950 . S
H331 C340 0.950 . S
H332 C342 0.950 . S
H333 C344 0.950 . S
H334 C346 0.950 . S
H335 C347 0.950 . S
C336 H328 0.950 . S
C336 C337 1.386 . S
C336 C338 1.391 . S
C337 C336 1.386 . S
C337 C341 1.393 . S
C338 H330 0.950 . S
C338 C336 1.391 . S
C338 C339 1.400 . S
C339 C338 1.400 . S
C339 C340 1.398 . S
C339 C345 1.491 . S
C340 H331 0.950 . S
C340 C339 1.398 . S
C340 C341 1.391 . S
C341 H329 0.950 . S
C341 C337 1.393 . S
C341 C340 1.391 . S
C342 H332 0.950 . S
C342 C343 1.386 . S
C342 C344 1.391 . S
C343 C342 1.386 . S
C343 C347 1.393 . S
C344 H333 0.950 . S
C344 C342 1.391 . S
C344 C345 1.400 . S
C345 C339 1.491 . S
C345 C344 1.400 . S
C345 C346 1.398 . S
C346 H334 0.950 . S
C346 C345 1.398 . S
C346 C347 1.391 . S
C347 H335 0.950 . S
C347 C343 1.393 . S
C347 C346 1.391 . S
H348 C356 0.950 . S
H349 C361 0.950 . S
H350 C358 0.950 . S
H351 C360 0.950 . S
H352 C362 0.950 . S
H353 C364 0.950 . S
H354 C366 0.950 . S
H355 C367 0.950 . S
C356 H348 0.950 . S
C356 C357 1.386 . S
C356 C358 1.391 . S
C357 C356 1.386 . S
C357 C361 1.393 . S
C358 H350 0.950 . S
C358 C356 1.391 . S
C358 C359 1.400 . S
C359 C358 1.400 . S
C359 C360 1.398 . S
C359 C365 1.491 . S
C360 H351 0.950 . S
C360 C359 1.398 . S
C360 C361 1.391 . S
C361 H349 0.950 . S
C361 C357 1.393 . S
C361 C360 1.391 . S
C362 H352 0.950 . S
C362 C363 1.386 . S
C362 C364 1.391 . S
C363 C362 1.386 . S
C363 C367 1.393 . S
C364 H353 0.950 . S
C364 C362 1.391 . S
C364 C365 1.400 . S
C365 C359 1.491 . S
C365 C364 1.400 . S
C365 C366 1.398 . S
C366 H354 0.950 . S
C366 C365 1.398 . S
C366 C367 1.391 . S
C367 H355 0.950 . S
C367 C363 1.393 . S
C367 C366 1.391 . S
H368 C376 0.950 . S
H369 C381 0.950 . S
H370 C378 0.950 . S
H371 C380 0.950 . S
H372 C382 0.950 . S
H373 C384 0.950 . S
H374 C386 0.950 1_556 S
H375 C387 0.950 . S
C376 H368 0.950 . S
C376 C377 1.386 . S
C376 C378 1.391 . S
C377 C376 1.386 . S
C377 C381 1.393 . S
C378 H370 0.950 . S
C378 C376 1.391 . S
C378 C379 1.400 . S
C379 C378 1.400 . S
C379 C380 1.398 . S
C379 C385 1.491 . S
C380 H371 0.950 . S
C380 C379 1.398 . S
C380 C381 1.391 . S
C381 H369 0.950 . S
C381 C377 1.393 . S
C381 C380 1.391 . S
C382 H372 0.950 . S
C382 C383 1.386 . S
C382 C384 1.391 1_554 S
C383 C382 1.386 . S
C383 C387 1.393 . S
C384 H373 0.950 . S
C384 C382 1.391 1_556 S
C384 C385 1.401 . S
C385 C379 1.491 . S
C385 C384 1.401 . S
C385 C386 1.398 1_556 S
C386 H374 0.950 1_554 S
C386 C385 1.398 1_554 S
C386 C387 1.391 . S
C387 H375 0.950 . S
C387 C383 1.393 . S
C387 C386 1.391 . S
H388 C396 0.950 . S
H389 C401 0.950 . S
H390 C398 0.978 . S
H391 C400 0.950 1_554 S
H392 C402 0.950 . S
H393 C404 0.950 . S
H394 C406 0.950 . S
H395 C407 0.950 . S
C396 H388 0.950 . S
C396 C397 1.386 . S
C396 C398 1.352 1_556 S
C397 C396 1.386 . S
C397 C401 1.393 . S
C398 H390 0.978 . S
C398 C396 1.352 1_554 S
C398 C399 1.413 . S
C399 C398 1.413 . S
C399 C400 1.398 1_554 S
C399 C405 1.491 . S
C400 H391 0.950 1_556 S
C400 C399 1.398 1_556 S
C400 C401 1.391 . S
C401 H389 0.950 . S
C401 C397 1.393 . S
C401 C400 1.391 . S
C402 H392 0.950 . S
C402 C403 1.386 . S
C402 C404 1.391 . S
C403 C402 1.386 . S
C403 C407 1.393 . S
C404 H393 0.950 . S
C404 C402 1.391 . S
C404 C405 1.400 . S
C405 C399 1.491 . S
C405 C404 1.400 . S
C405 C406 1.398 . S
C406 H394 0.950 . S
C406 C405 1.398 . S
C406 C407 1.391 . S
C407 H395 0.950 . S
C407 C403 1.393 . S
C407 C406 1.391 . S
H408 C416 0.950 . S
H409 C421 0.950 . S
H410 C418 0.950 1_554 S
H411 C420 0.950 . S
H412 C422 0.950 . S
H413 C424 0.950 . S
H414 C426 0.950 . S
H415 C427 0.950 . S
C416 H408 0.950 . S
C416 C417 1.386 . S
C416 C418 1.391 . S
C417 C416 1.386 . S
C417 C421 1.393 . S
C418 H410 0.950 1_556 S
C418 C416 1.391 . S
C418 C419 1.400 1_556 S
C419 C418 1.400 1_554 S
C419 C420 1.398 1_554 S
C419 C425 1.491 . S
C420 H411 0.950 . S
C420 C419 1.398 1_556 S
C420 C421 1.391 . S
C421 H409 0.950 . S
C421 C417 1.393 . S
C421 C420 1.391 . S
C422 H412 0.950 . S
C422 C423 1.386 . S
C422 C424 1.391 . S
C423 C422 1.386 . S
C423 C427 1.393 . S
C424 H413 0.950 . S
C424 C422 1.391 . S
C424 C425 1.400 . S
C425 C419 1.491 . S
C425 C424 1.400 . S
C425 C426 1.398 . S
C426 H414 0.950 . S
C426 C425 1.398 . S
C426 C427 1.391 . S
C427 H415 0.950 . S
C427 C423 1.393 . S
C427 C426 1.391 . S
H428 C436 0.950 . S
H429 C441 0.950 . S
H430 C438 0.943 1_556 S
H431 C440 0.950 . S
H432 C442 0.950 . S
H433 C444 0.950 . S
H434 C446 0.950 . S
H435 C447 0.950 . S
C436 H428 0.950 . S
C436 C437 1.386 . S
C436 C438 1.391 . S
C437 C436 1.386 . S
C437 C441 1.393 . S
C438 H430 0.943 1_554 S
C438 C436 1.391 . S
C438 C439 1.400 1_554 S
C439 C438 1.400 1_556 S
C439 C440 1.398 1_556 S
C439 C445 1.491 . S
C440 H431 0.950 . S
C440 C439 1.398 1_554 S
C440 C441 1.391 . S
C441 H429 0.950 . S
C441 C437 1.393 . S
C441 C440 1.391 . S
C442 H432 0.950 . S
C442 C443 1.386 . S
C442 C444 1.391 . S
C443 C442 1.386 . S
C443 C447 1.393 . S
C444 H433 0.950 . S
C444 C442 1.391 . S
C444 C445 1.400 . S
C445 C439 1.491 . S
C445 C444 1.400 . S
C445 C446 1.398 . S
C446 H434 0.950 . S
C446 C445 1.398 . S
C446 C447 1.391 . S
C447 H435 0.950 . S
C447 C443 1.393 . S
C447 C446 1.391 . S
H448 C456 0.950 . S
H449 C461 0.950 . S
H450 C458 0.950 . S
H451 C460 0.950 . S
H452 C462 0.950 . S
H453 C464 0.950 . S
H454 C466 0.950 . S
H455 C467 0.950 . S
C456 H448 0.950 . S
C456 C457 1.386 . S
C456 C458 1.391 . S
C457 C456 1.386 . S
C457 C461 1.393 . S
C458 H450 0.950 . S
C458 C456 1.391 . S
C458 C459 1.400 . S
C459 C458 1.400 . S
C459 C460 1.398 . S
C459 C465 1.491 . S
C460 H451 0.950 . S
C460 C459 1.398 . S
C460 C461 1.391 . S
C461 H449 0.950 . S
C461 C457 1.393 . S
C461 C460 1.391 . S
C462 H452 0.950 . S
C462 C463 1.386 . S
C462 C464 1.391 1_655 S
C463 C462 1.386 . S
C463 C467 1.393 . S
C464 H453 0.950 . S
C464 C462 1.391 1_455 S
C464 C465 1.400 . S
C465 C459 1.491 . S
C465 C464 1.400 . S
C465 C466 1.398 . S
C466 H454 0.950 . S
C466 C465 1.398 . S
C466 C467 1.391 1_455 S
C467 H455 0.950 . S
C467 C463 1.393 . S
C467 C466 1.391 1_655 S
H468 C476 0.950 . S
H469 C481 0.950 . S
H470 C478 0.956 . S
H471 C480 0.950 . S
H472 C482 0.950 . S
H473 C484 0.950 . S
H474 C486 0.950 . S
H475 C487 0.950 . S
C476 H468 0.950 . S
C476 C477 1.386 . S
C476 C478 1.391 . S
C477 C476 1.386 . S
C477 C481 1.393 . S
C478 H470 0.956 . S
C478 C476 1.391 . S
C478 C479 1.400 1_565 S
C479 C478 1.400 1_545 S
C479 C480 1.398 1_545 S
C479 C485 1.491 . S
C480 H471 0.950 . S
C480 C479 1.398 1_565 S
C480 C481 1.391 . S
C481 H469 0.950 . S
C481 C477 1.393 . S
C481 C480 1.391 . S
C482 H472 0.950 . S
C482 C483 1.386 . S
C482 C484 1.391 . S
C483 C482 1.386 . S
C483 C487 1.393 . S
C484 H473 0.950 . S
C484 C482 1.391 . S
C484 C485 1.400 . S
C485 C479 1.491 . S
C485 C484 1.400 . S
C485 C486 1.398 . S
C486 H474 0.950 . S
C486 C485 1.398 . S
C486 C487 1.391 . S
C487 H475 0.950 . S
C487 C483 1.393 . S
C487 C486 1.391 . S
H488 C496 0.950 . S
H489 C501 0.950 . S
H490 C498 0.950 . S
H491 C500 0.950 . S
H492 C502 0.950 . S
H493 C504 0.950 . S
H494 C506 0.950 . S
H495 C507 0.950 . S
C496 H488 0.950 . S
C496 C497 1.386 . S
C496 C498 1.391 . S
C497 C496 1.386 . S
C497 C501 1.393 . S
C498 H490 0.950 . S
C498 C496 1.391 . S
C498 C499 1.400 . S
C499 C498 1.400 . S
C499 C500 1.398 . S
C499 C505 1.491 1_655 S
C500 H491 0.950 . S
C500 C499 1.398 . S
C500 C501 1.391 . S
C501 H489 0.950 . S
C501 C497 1.393 . S
C501 C500 1.391 . S
C502 H492 0.950 . S
C502 C503 1.386 . S
C502 C504 1.391 . S
C503 C502 1.386 . S
C503 C507 1.393 . S
C504 H493 0.950 . S
C504 C502 1.391 . S
C504 C505 1.400 . S
C505 C499 1.491 1_455 S
C505 C504 1.400 . S
C505 C506 1.398 . S
C506 H494 0.950 . S
C506 C505 1.398 . S
C506 C507 1.391 . S
C507 H495 0.950 . S
C507 C503 1.393 . S
C507 C506 1.391 . S
H508 C516 0.950 . S
H509 C521 0.950 . S
H510 C518 0.950 1_565 S
H511 C520 0.950 . S
H512 C522 0.950 . S
H513 C524 0.950 . S
H514 C526 0.950 . S
H515 C527 0.950 . S
C516 H508 0.950 . S
C516 C517 1.386 . S
C516 C518 1.391 . S
C517 C516 1.386 . S
C517 C521 1.393 . S
C518 H510 0.950 1_545 S
C518 C516 1.391 . S
C518 C519 1.400 1_545 S
C519 C518 1.400 1_565 S
C519 C520 1.398 1_565 S
C519 C525 1.491 . S
C520 H511 0.950 . S
C520 C519 1.398 1_545 S
C520 C521 1.391 . S
C521 H509 0.950 . S
C521 C517 1.393 . S
C521 C520 1.391 . S
C522 H512 0.950 . S
C522 C523 1.386 . S
C522 C524 1.391 . S
C523 C522 1.386 . S
C523 C527 1.393 . S
C524 H513 0.950 . S
C524 C522 1.391 . S
C524 C525 1.400 . S
C525 C519 1.491 . S
C525 C524 1.400 . S
C525 C526 1.398 . S
C526 H514 0.950 . S
C526 C525 1.398 . S
C526 C527 1.391 . S
C527 H515 0.950 . S
C527 C523 1.393 . S
C527 C526 1.391 . S
H528 C536 0.950 . S
H529 C541 0.950 . S
H530 C538 0.950 . S
H531 C540 0.950 . S
H532 C542 0.950 . S
H533 C544 0.950 . S
H534 C546 0.950 . S
H535 C547 0.950 . S
C536 H528 0.950 . S
C536 C537 1.386 . S
C536 C538 1.391 . S
C537 C536 1.386 . S
C537 C541 1.393 . S
C538 H530 0.950 . S
C538 C536 1.391 . S
C538 C539 1.400 . S
C539 C538 1.400 . S
C539 C540 1.398 . S
C539 C545 1.491 . S
C540 H531 0.950 . S
C540 C539 1.398 . S
C540 C541 1.391 . S
C541 H529 0.950 . S
C541 C537 1.393 . S
C541 C540 1.391 . S
C542 H532 0.950 . S
C542 C543 1.386 . S
C542 C544 1.391 1_455 S
C543 C542 1.386 . S
C543 C547 1.393 . S
C544 H533 0.950 . S
C544 C542 1.391 1_655 S
C544 C545 1.400 . S
C545 C539 1.491 . S
C545 C544 1.400 . S
C545 C546 1.398 . S
C546 H534 0.950 . S
C546 C545 1.398 . S
C546 C547 1.391 1_655 S
C547 H535 0.950 . S
C547 C543 1.393 . S
C547 C546 1.391 1_455 S
H548 C556 0.950 . S
H549 C561 0.950 . S
H550 C558 0.950 . S
H551 C560 0.950 . S
H552 C562 0.950 . S
H553 C564 0.950 . S
H554 C566 0.944 1_565 S
H555 C567 0.950 . S
C556 H548 0.950 . S
C556 C557 1.386 . S
C556 C558 1.391 . S
C557 C556 1.386 . S
C557 C561 1.393 . S
C558 H550 0.950 . S
C558 C556 1.391 . S
C558 C559 1.400 . S
C559 C558 1.400 . S
C559 C560 1.398 . S
C559 C565 1.491 . S
C560 H551 0.950 . S
C560 C559 1.398 . S
C560 C561 1.391 . S
C561 H549 0.950 . S
C561 C557 1.393 . S
C561 C560 1.391 . S
C562 H552 0.950 . S
C562 C563 1.386 . S
C562 C564 1.391 1_545 S
C563 C562 1.386 . S
C563 C567 1.393 . S
C564 H553 0.950 . S
C564 C562 1.391 1_565 S
C564 C565 1.400 . S
C565 C559 1.491 . S
C565 C564 1.400 . S
C565 C566 1.398 1_565 S
C566 H554 0.944 1_545 S
C566 C565 1.398 1_545 S
C566 C567 1.391 . S
C567 H555 0.950 . S
C567 C563 1.393 . S
C567 C566 1.391 . S
H568 C576 0.950 . S
H569 C581 0.950 . S
H570 C578 0.950 . S
H571 C580 0.950 . S
H572 C582 0.950 . S
H573 C584 0.950 . S
H574 C586 0.950 . S
H575 C587 0.950 . S
C576 H568 0.950 . S
C576 C577 1.386 . S
C576 C578 1.391 . S
C577 C576 1.386 . S
C577 C581 1.393 . S
C578 H570 0.950 . S
C578 C576 1.391 . S
C578 C579 1.400 . S
C579 C578 1.400 . S
C579 C580 1.398 . S
C579 C585 1.491 1_455 S
C580 H571 0.950 . S
C580 C579 1.398 . S
C580 C581 1.391 . S
C581 H569 0.950 . S
C581 C577 1.393 . S
C581 C580 1.391 . S
C582 H572 0.950 . S
C582 C583 1.386 . S
C582 C584 1.391 . S
C583 C582 1.386 . S
C583 C587 1.393 . S
C584 H573 0.950 . S
C584 C582 1.391 . S
C584 C585 1.400 . S
C585 C579 1.491 1_655 S
C585 C584 1.400 . S
C585 C586 1.398 . S
C586 H574 0.950 . S
C586 C585 1.398 . S
C586 C587 1.391 . S
C587 H575 0.950 . S
C587 C583 1.393 . S
C587 C586 1.391 . S
H588 C596 0.950 . S
H589 C601 0.950 . S
H590 C598 0.950 . S
H591 C600 0.950 1_545 S
H592 C602 0.950 . S
H593 C604 0.950 . S
H594 C606 0.950 . S
H595 C607 0.950 . S
C596 H588 0.950 . S
C596 C597 1.386 . S
C596 C598 1.391 1_565 S
C597 C596 1.386 . S
C597 C601 1.393 . S
C598 H590 0.950 . S
C598 C596 1.391 1_545 S
C598 C599 1.400 . S
C599 C598 1.400 . S
C599 C600 1.398 1_545 S
C599 C605 1.491 . S
C600 H591 0.950 1_565 S
C600 C599 1.398 1_565 S
C600 C601 1.391 . S
C601 H589 0.950 . S
C601 C597 1.393 . S
C601 C600 1.391 . S
C602 H592 0.950 . S
C602 C603 1.386 . S
C602 C604 1.391 . S
C603 C602 1.386 . S
C603 C607 1.393 . S
C604 H593 0.950 . S
C604 C602 1.391 . S
C604 C605 1.400 . S
C605 C599 1.491 . S
C605 C604 1.400 . S
C605 C606 1.398 . S
C606 H594 0.950 . S
C606 C605 1.398 . S
C606 C607 1.391 . S
C607 H595 0.950 . S
C607 C603 1.393 . S
C607 C606 1.391 . S
H608 C616 0.950 . S
H609 C621 0.950 . S
H610 C618 0.950 . S
H611 C620 0.950 . S
H612 C622 0.950 . S
H613 C624 0.950 . S
H614 C626 0.950 . S
H615 C627 0.950 . S
C616 H608 0.950 . S
C616 C617 1.386 . S
C616 C618 1.391 . S
C617 C616 1.386 . S
C617 C621 1.393 . S
C618 H610 0.950 . S
C618 C616 1.391 . S
C618 C619 1.400 . S
C619 C618 1.400 . S
C619 C620 1.398 . S
C619 C625 1.491 . S
C620 H611 0.950 . S
C620 C619 1.398 . S
C620 C621 1.391 . S
C621 H609 0.950 . S
C621 C617 1.393 . S
C621 C620 1.391 . S
C622 H612 0.950 . S
C622 C623 1.386 . S
C622 C624 1.391 . S
C623 C622 1.386 . S
C623 C627 1.393 . S
C624 H613 0.950 . S
C624 C622 1.391 . S
C624 C625 1.400 . S
C625 C619 1.491 . S
C625 C624 1.400 . S
C625 C626 1.398 . S
C626 H614 0.950 . S
C626 C625 1.398 . S
C626 C627 1.391 . S
C627 H615 0.950 . S
C627 C623 1.393 . S
C627 C626 1.391 . S
H628 C636 0.950 . S
H629 C641 0.950 . S
H630 C638 0.950 . S
H631 C640 0.950 . S
H632 C642 0.950 . S
H633 C644 0.950 . S
H634 C646 0.950 . S
H635 C647 0.950 . S
C636 H628 0.950 . S
C636 C637 1.386 . S
C636 C638 1.391 . S
C637 C636 1.386 . S
C637 C641 1.393 . S
C638 H630 0.950 . S
C638 C636 1.391 . S
C638 C639 1.400 . S
C639 C638 1.400 . S
C639 C640 1.398 . S
C639 C645 1.491 . S
C640 H631 0.950 . S
C640 C639 1.398 . S
C640 C641 1.391 . S
C641 H629 0.950 . S
C641 C637 1.393 . S
C641 C640 1.391 . S
C642 H632 0.950 . S
C642 C643 1.386 . S
C642 C644 1.391 . S
C643 C642 1.386 . S
C643 C647 1.393 . S
C644 H633 0.950 . S
C644 C642 1.391 . S
C644 C645 1.400 . S
C645 C639 1.491 . S
C645 C644 1.400 . S
C645 C646 1.398 . S
C646 H634 0.950 . S
C646 C645 1.398 . S
C646 C647 1.391 . S
C647 H635 0.950 . S
C647 C643 1.393 . S
C647 C646 1.391 . S
H648 C656 0.950 . S
H649 C661 0.950 . S
H650 C658 0.950 . S
H651 C660 0.950 . S
H652 C662 0.950 . S
H653 C664 0.950 . S
H654 C666 0.950 . S
H655 C667 0.950 . S
C656 H648 0.950 . S
C656 C657 1.386 . S
C656 C658 1.391 . S
C657 C656 1.386 . S
C657 C661 1.393 . S
C658 H650 0.950 . S
C658 C656 1.391 . S
C658 C659 1.400 . S
C659 C658 1.400 . S
C659 C660 1.398 . S
C659 C665 1.491 . S
C660 H651 0.950 . S
C660 C659 1.398 . S
C660 C661 1.391 . S
C661 H649 0.950 . S
C661 C657 1.393 . S
C661 C660 1.391 . S
C662 H652 0.950 . S
C662 C663 1.386 . S
C662 C664 1.391 . S
C663 C662 1.386 . S
C663 C667 1.393 . S
C664 H653 0.950 . S
C664 C662 1.391 . S
C664 C665 1.400 . S
C665 C659 1.491 . S
C665 C664 1.400 . S
C665 C666 1.398 . S
C666 H654 0.950 . S
C666 C665 1.398 . S
C666 C667 1.391 . S
C667 H655 0.950 . S
C667 C663 1.393 . S
C667 C666 1.391 . S
H668 C676 0.950 . S
H669 C681 0.950 . S
H670 C678 0.950 . S
H671 C680 0.950 . S
H672 C682 0.950 . S
H673 C684 0.950 . S
H674 C686 0.950 . S
H675 C687 0.950 . S
C676 H668 0.950 . S
C676 C677 1.386 . S
C676 C678 1.391 . S
C677 C676 1.386 . S
C677 C681 1.393 . S
C678 H670 0.950 . S
C678 C676 1.391 . S
C678 C679 1.400 . S
C679 C678 1.400 . S
C679 C680 1.398 . S
C679 C685 1.491 . S
C680 H671 0.950 . S
C680 C679 1.398 . S
C680 C681 1.391 . S
C681 H669 0.950 . S
C681 C677 1.393 . S
C681 C680 1.391 . S
C682 H672 0.950 . S
C682 C683 1.386 . S
C682 C684 1.391 . S
C683 C682 1.386 . S
C683 C687 1.393 . S
C684 H673 0.950 . S
C684 C682 1.391 . S
C684 C685 1.400 . S
C685 C679 1.491 . S
C685 C684 1.400 . S
C685 C686 1.398 . S
C686 H674 0.950 . S
C686 C685 1.398 . S
C686 C687 1.391 . S
C687 H675 0.950 . S
C687 C683 1.393 . S
C687 C686 1.391 . S
H688 C696 0.950 . S
H689 C701 0.950 . S
H690 C698 0.950 . S
H691 C700 0.950 . S
H692 C702 0.950 . S
H693 C704 0.950 . S
H694 C706 0.950 . S
H695 C707 0.950 . S
C696 H688 0.950 . S
C696 C697 1.386 . S
C696 C698 1.391 . S
C697 C696 1.386 . S
C697 C701 1.393 . S
C698 H690 0.950 . S
C698 C696 1.391 . S
C698 C699 1.400 . S
C699 C698 1.400 . S
C699 C700 1.398 . S
C699 C705 1.491 . S
C700 H691 0.950 . S
C700 C699 1.398 . S
C700 C701 1.391 . S
C701 H689 0.950 . S
C701 C697 1.393 . S
C701 C700 1.391 . S
C702 H692 0.950 . S
C702 C703 1.386 . S
C702 C704 1.391 . S
C703 C702 1.386 . S
C703 C707 1.393 . S
C704 H693 0.950 . S
C704 C702 1.391 . S
C704 C705 1.400 . S
C705 C699 1.491 . S
C705 C704 1.400 . S
C705 C706 1.398 . S
C706 H694 0.950 . S
C706 C705 1.398 . S
C706 C707 1.391 . S
C707 H695 0.950 . S
C707 C703 1.393 . S
C707 C706 1.391 . S
H708 C716 0.950 . S
H709 C721 0.950 . S
H710 C718 0.950 . S
H711 C720 0.950 . S
H712 C722 0.950 . S
H713 C724 0.950 . S
H714 C726 0.950 . S
H715 C727 0.950 . S
C716 H708 0.950 . S
C716 C717 1.386 . S
C716 C718 1.391 . S
C717 C716 1.386 . S
C717 C721 1.393 . S
C718 H710 0.950 . S
C718 C716 1.391 . S
C718 C719 1.400 . S
C719 C718 1.400 . S
C719 C720 1.398 . S
C719 C725 1.491 . S
C720 H711 0.950 . S
C720 C719 1.398 . S
C720 C721 1.391 . S
C721 H709 0.950 . S
C721 C717 1.393 . S
C721 C720 1.391 . S
C722 H712 0.950 . S
C722 C723 1.386 . S
C722 C724 1.391 . S
C723 C722 1.386 . S
C723 C727 1.393 . S
C724 H713 0.950 . S
C724 C722 1.391 . S
C724 C725 1.400 . S
C725 C719 1.491 . S
C725 C724 1.400 . S
C725 C726 1.398 . S
C726 H714 0.950 . S
C726 C725 1.398 . S
C726 C727 1.391 . S
C727 H715 0.950 . S
C727 C723 1.393 . S
C727 C726 1.391 . S
H728 C736 0.950 . S
H729 C741 0.950 . S
H730 C738 0.950 . S
H731 C740 0.950 . S
H732 C742 0.950 . S
H733 C744 0.950 . S
H734 C746 0.950 . S
H735 C747 0.950 . S
C736 H728 0.950 . S
C736 C737 1.386 . S
C736 C738 1.391 . S
C737 C736 1.386 . S
C737 C741 1.393 . S
C738 H730 0.950 . S
C738 C736 1.391 . S
C738 C739 1.400 . S
C739 C738 1.400 . S
C739 C740 1.398 . S
C739 C745 1.491 . S
C740 H731 0.950 . S
C740 C739 1.398 . S
C740 C741 1.391 . S
C741 H729 0.950 . S
C741 C737 1.393 . S
C741 C740 1.391 . S
C742 H732 0.950 . S
C742 C743 1.386 . S
C742 C744 1.391 . S
C743 C742 1.386 . S
C743 C747 1.393 . S
C744 H733 0.950 . S
C744 C742 1.391 . S
C744 C745 1.400 . S
C745 C739 1.491 . S
C745 C744 1.400 . S
C745 C746 1.398 . S
C746 H734 0.950 . S
C746 C745 1.398 . S
C746 C747 1.391 . S
C747 H735 0.950 . S
C747 C743 1.393 . S
C747 C746 1.391 . S
H748 C756 0.950 . S
H749 C761 0.950 . S
H750 C758 0.950 . S
H751 C760 0.950 . S
H752 C762 0.950 . S
H753 C764 0.950 . S
H754 C766 0.950 . S
H755 C767 0.950 . S
C756 H748 0.950 . S
C756 C757 1.386 . S
C756 C758 1.391 . S
C757 C756 1.386 . S
C757 C761 1.393 . S
C758 H750 0.950 . S
C758 C756 1.391 . S
C758 C759 1.400 . S
C759 C758 1.400 . S
C759 C760 1.398 . S
C759 C765 1.491 . S
C760 H751 0.950 . S
C760 C759 1.398 . S
C760 C761 1.391 . S
C761 H749 0.950 . S
C761 C757 1.393 . S
C761 C760 1.391 . S
C762 H752 0.950 . S
C762 C763 1.386 . S
C762 C764 1.391 . S
C763 C762 1.386 . S
C763 C767 1.393 . S
C764 H753 0.950 . S
C764 C762 1.391 . S
C764 C765 1.400 . S
C765 C759 1.491 . S
C765 C764 1.400 . S
C765 C766 1.398 . S
C766 H754 0.950 . S
C766 C765 1.398 . S
C766 C767 1.391 . S
C767 H755 0.950 . S
C767 C763 1.393 . S
C767 C766 1.391 . S
H768 C776 0.950 . S
H769 C781 0.950 . S
H770 C778 0.950 . S
H771 C780 0.950 . S
H772 C782 0.950 . S
H773 C784 0.950 . S
H774 C786 0.950 . S
H775 C787 0.950 . S
C776 H768 0.950 . S
C776 C777 1.386 . S
C776 C778 1.391 . S
C777 C776 1.386 . S
C777 C781 1.393 . S
C778 H770 0.950 . S
C778 C776 1.391 . S
C778 C779 1.400 . S
C779 C778 1.400 . S
C779 C780 1.398 . S
C779 C785 1.491 . S
C780 H771 0.950 . S
C780 C779 1.398 . S
C780 C781 1.391 . S
C781 H769 0.950 . S
C781 C777 1.393 . S
C781 C780 1.391 . S
C782 H772 0.950 . S
C782 C783 1.386 . S
C782 C784 1.391 . S
C783 C782 1.386 . S
C783 C787 1.393 . S
C784 H773 0.950 . S
C784 C782 1.391 . S
C784 C785 1.400 . S
C785 C779 1.491 . S
C785 C784 1.400 . S
C785 C786 1.398 . S
C786 H774 0.950 . S
C786 C785 1.398 . S
C786 C787 1.391 . S
C787 H775 0.950 . S
C787 C783 1.393 . S
C787 C786 1.391 . S
H788 C796 0.950 . S
H789 C801 0.950 . S
H790 C798 0.950 . S
H791 C800 0.950 . S
H792 C802 0.950 . S
H793 C804 0.950 . S
H794 C806 0.950 . S
H795 C807 0.950 . S
C796 H788 0.950 . S
C796 C797 1.386 . S
C796 C798 1.391 . S
C797 C796 1.386 . S
C797 C801 1.393 . S
C798 H790 0.950 . S
C798 C796 1.391 . S
C798 C799 1.400 . S
C799 C798 1.400 . S
C799 C800 1.398 . S
C799 C805 1.491 . S
C800 H791 0.950 . S
C800 C799 1.398 . S
C800 C801 1.391 . S
C801 H789 0.950 . S
C801 C797 1.393 . S
C801 C800 1.391 . S
C802 H792 0.950 . S
C802 C803 1.386 . S
C802 C804 1.391 . S
C803 C802 1.386 . S
C803 C807 1.393 . S
C804 H793 0.950 . S
C804 C802 1.391 . S
C804 C805 1.400 . S
C805 C799 1.491 . S
C805 C804 1.400 . S
C805 C806 1.398 . S
C806 H794 0.950 . S
C806 C805 1.398 . S
C806 C807 1.391 . S
C807 H795 0.950 . S
C807 C803 1.393 . S
C807 C806 1.391 . S
H808 C816 0.950 . S
H809 C821 0.950 . S
H810 C818 0.950 . S
H811 C820 0.950 . S
H812 C822 0.950 . S
H813 C824 0.950 . S
H814 C826 0.950 . S
H815 C827 0.950 . S
C816 H808 0.950 . S
C816 C817 1.386 . S
C816 C818 1.391 . S
C817 C816 1.386 . S
C817 C821 1.393 . S
C818 H810 0.950 . S
C818 C816 1.391 . S
C818 C819 1.400 . S
C819 C818 1.400 . S
C819 C820 1.398 . S
C819 C825 1.491 . S
C820 H811 0.950 . S
C820 C819 1.398 . S
C820 C821 1.391 . S
C821 H809 0.950 . S
C821 C817 1.393 . S
C821 C820 1.391 . S
C822 H812 0.950 . S
C822 C823 1.386 . S
C822 C824 1.391 . S
C823 C822 1.386 . S
C823 C827 1.393 . S
C824 H813 0.950 . S
C824 C822 1.391 . S
C824 C825 1.400 . S
C825 C819 1.491 . S
C825 C824 1.400 . S
C825 C826 1.398 . S
C826 H814 0.950 . S
C826 C825 1.398 . S
C826 C827 1.391 . S
C827 H815 0.950 . S
C827 C823 1.393 . S
C827 C826 1.391 . S
H828 C836 0.950 . S
H829 C841 0.950 . S
H830 C838 0.950 . S
H831 C840 0.950 . S
H832 C842 0.950 . S
H833 C844 0.950 . S
H834 C846 0.950 . S
H835 C847 0.950 . S
C836 H828 0.950 . S
C836 C837 1.386 . S
C836 C838 1.391 . S
C837 C836 1.386 . S
C837 C841 1.393 . S
C838 H830 0.950 . S
C838 C836 1.391 . S
C838 C839 1.400 . S
C839 C838 1.400 . S
C839 C840 1.398 . S
C839 C845 1.491 . S
C840 H831 0.950 . S
C840 C839 1.398 . S
C840 C841 1.391 . S
C841 H829 0.950 . S
C841 C837 1.393 . S
C841 C840 1.391 . S
C842 H832 0.950 . S
C842 C843 1.386 . S
C842 C844 1.391 . S
C843 C842 1.386 . S
C843 C847 1.393 . S
C844 H833 0.950 . S
C844 C842 1.391 . S
C844 C845 1.400 . S
C845 C839 1.491 . S
C845 C844 1.400 . S
C845 C846 1.398 . S
C846 H834 0.950 . S
C846 C845 1.398 . S
C846 C847 1.391 . S
C847 H835 0.950 . S
C847 C843 1.393 . S
C847 C846 1.391 . S
C217 C199 1.447 . S
C223 C10 1.437 . S
C237 C160 0.910 . S
C243 C23 0.913 . S
C257 C36 1.139 . S
C263 C179 1.101 . S
C277 C186 1.098 . S
C283 C43 1.132 . S
C297 C127 0.907 . S
C303 C62 0.909 . S
C317 C69 1.097 . S
C323 C134 1.136 . S
C337 C82 1.120 . S
C343 C153 1.139 . S
C357 C101 1.455 . S
C363 C114 1.449 . S
C377 C70 1.756 . S
C383 C5 1.690 . S
C397 C81 1.463 . S
C403 C18 1.542 . S
C417 C94 1.727 . S
C423 C31 1.685 . S
C437 C44 1.355 . S
C443 C56 1.349 . S
C457 C4 1.440 . S
C463 C16 1.447 . S
C477 C29 1.355 . S
C483 C17 1.350 . S
C497 C30 1.823 . S
C503 C49 1.833 . S
C517 C3 1.728 . S
C523 C42 1.685 . S
C537 C95 1.437 . S
C543 C55 1.445 . S
C557 C57 1.533 . S
C563 C68 1.480 . S
C577 C75 1.554 . S
C583 C88 1.547 . S
C597 C96 1.665 . S
C603 C83 1.758 . S
C617 C172 1.758 . S
C623 C109 1.686 . S
C637 C122 1.542 . S
C643 C185 1.463 . S
C657 C200 1.734 . S
C663 C133 1.687 . S
C677 C166 1.332 . S
C683 C146 1.362 . S
C697 C108 1.439 . S
C703 C120 1.437 . S
C717 C121 1.336 . S
C723 C135 1.365 . S
C737 C147 1.814 . S
C743 C140 1.822 . S
C757 C107 1.731 . S
C763 C148 1.695 . S
C777 C205 1.448 . S
C783 C161 1.440 . S
C797 C159 1.537 . S
C803 C174 1.489 . S
C817 C173 1.556 . S
C823 C192 1.544 . S
C837 C198 1.690 . S
C843 C187 1.757 . S
