# Generated by pormake.
# Topology wkf, (6)-cn, num edge types: 1
# Building blocks:
#     Node 0, Type 0, BuildingBlock: OJICUG_clean_sbu_0, # of connection points: 6
#     Node 1, Type 0, BuildingBlock: OJICUG_clean_sbu_0, # of connection points: 6
#     Node 2, Type 0, BuildingBlock: OJICUG_clean_sbu_0, # of connection points: 6
#     Node 3, Type 0, BuildingBlock: OJICUG_clean_sbu_0, # of connection points: 6
#     Node 4, Type 0, BuildingBlock: OJICUG_clean_sbu_0, # of connection points: 6
#     Node 5, Type 0, BuildingBlock: OJICUG_clean_sbu_0, # of connection points: 6
#     Node 6, Type 0, BuildingBlock: OJICUG_clean_sbu_0, # of connection points: 6
#     Node 7, Type 0, BuildingBlock: OJICUG_clean_sbu_0, # of connection points: 6
#     Node 8, Type 0, BuildingBlock: OJICUG_clean_sbu_0, # of connection points: 6
#     Node 9, Type 0, BuildingBlock: OJICUG_clean_sbu_0, # of connection points: 6
#     Node 10, Type 0, BuildingBlock: OJICUG_clean_sbu_0, # of connection points: 6
#     Node 11, Type 0, BuildingBlock: OJICUG_clean_sbu_0, # of connection points: 6
#     Edge 12, Type (0, 0), BuildingBlock: TEMPAE_clean_linker_10, # of connection points: 2
#     Edge 13, Type (0, 0), BuildingBlock: TEMPAE_clean_linker_10, # of connection points: 2
#     Edge 14, Type (0, 0), BuildingBlock: TEMPAE_clean_linker_10, # of connection points: 2
#     Edge 15, Type (0, 0), BuildingBlock: TEMPAE_clean_linker_10, # of connection points: 2
#     Edge 16, Type (0, 0), BuildingBlock: TEMPAE_clean_linker_10, # of connection points: 2
#     Edge 17, Type (0, 0), BuildingBlock: TEMPAE_clean_linker_10, # of connection points: 2
#     Edge 18, Type (0, 0), BuildingBlock: TEMPAE_clean_linker_10, # of connection points: 2
#     Edge 19, Type (0, 0), BuildingBlock: TEMPAE_clean_linker_10, # of connection points: 2
#     Edge 20, Type (0, 0), BuildingBlock: TEMPAE_clean_linker_10, # of connection points: 2
#     Edge 21, Type (0, 0), BuildingBlock: TEMPAE_clean_linker_10, # of connection points: 2
#     Edge 22, Type (0, 0), BuildingBlock: TEMPAE_clean_linker_10, # of connection points: 2
#     Edge 23, Type (0, 0), BuildingBlock: TEMPAE_clean_linker_10, # of connection points: 2
#     Edge 24, Type (0, 0), BuildingBlock: TEMPAE_clean_linker_10, # of connection points: 2
#     Edge 25, Type (0, 0), BuildingBlock: TEMPAE_clean_linker_10, # of connection points: 2
#     Edge 26, Type (0, 0), BuildingBlock: TEMPAE_clean_linker_10, # of connection points: 2
#     Edge 27, Type (0, 0), BuildingBlock: TEMPAE_clean_linker_10, # of connection points: 2
#     Edge 28, Type (0, 0), BuildingBlock: TEMPAE_clean_linker_10, # of connection points: 2
#     Edge 29, Type (0, 0), BuildingBlock: TEMPAE_clean_linker_10, # of connection points: 2
#     Edge 30, Type (0, 0), BuildingBlock: TEMPAE_clean_linker_10, # of connection points: 2
#     Edge 31, Type (0, 0), BuildingBlock: TEMPAE_clean_linker_10, # of connection points: 2
#     Edge 32, Type (0, 0), BuildingBlock: TEMPAE_clean_linker_10, # of connection points: 2
#     Edge 33, Type (0, 0), BuildingBlock: TEMPAE_clean_linker_10, # of connection points: 2
#     Edge 34, Type (0, 0), BuildingBlock: TEMPAE_clean_linker_10, # of connection points: 2
#     Edge 35, Type (0, 0), BuildingBlock: TEMPAE_clean_linker_10, # of connection points: 2
#     Edge 36, Type (0, 0), BuildingBlock: TEMPAE_clean_linker_10, # of connection points: 2
#     Edge 37, Type (0, 0), BuildingBlock: TEMPAE_clean_linker_10, # of connection points: 2
#     Edge 38, Type (0, 0), BuildingBlock: TEMPAE_clean_linker_10, # of connection points: 2
#     Edge 39, Type (0, 0), BuildingBlock: TEMPAE_clean_linker_10, # of connection points: 2
#     Edge 40, Type (0, 0), BuildingBlock: TEMPAE_clean_linker_10, # of connection points: 2
#     Edge 41, Type (0, 0), BuildingBlock: TEMPAE_clean_linker_10, # of connection points: 2
#     Edge 42, Type (0, 0), BuildingBlock: TEMPAE_clean_linker_10, # of connection points: 2
#     Edge 43, Type (0, 0), BuildingBlock: TEMPAE_clean_linker_10, # of connection points: 2
#     Edge 44, Type (0, 0), BuildingBlock: TEMPAE_clean_linker_10, # of connection points: 2
#     Edge 45, Type (0, 0), BuildingBlock: TEMPAE_clean_linker_10, # of connection points: 2
#     Edge 46, Type (0, 0), BuildingBlock: TEMPAE_clean_linker_10, # of connection points: 2
#     Edge 47, Type (0, 0), BuildingBlock: TEMPAE_clean_linker_10, # of connection points: 2
# Relax obj value: 0.170
# Max RMSD: 0.210
# Mean RMSD: 0.210
data_MOF--net-wkf--node1-OJICUG_clean_sbu_0--edge1-TEMPAE_clean_linker_10
_symmetry_space_group_name_H-M    P1
_symmetry_Int_Tables_number       1
_symmetry_cell_setting            triclinic
loop_
_symmetry_equiv_pos_as_xyz
'x, y, z'
_cell_length_a     28.530896
_cell_length_b     28.498572
_cell_length_c     72.925231
_cell_angle_alpha  90.012774
_cell_angle_beta   89.949814
_cell_angle_gamma 119.95615
loop_
_atom_site_label
_atom_site_type_symbol
_atom_site_fract_x
_atom_site_fract_y
_atom_site_fract_z
_atom_type_partial_charge
Sc0 Sc 0.44012 0.11446 0.33919 0.0
Sc1 Sc 0.33801 0.1202 0.36466 0.0
Sc2 Sc 0.44955 0.12571 0.38738 0.0
O3 O 0.40927 0.12016 0.36374 0.0
C4 C 0.46911 0.04187 0.36462 0.0
C5 C 0.31407 0.03063 0.3342 0.0
C6 C 0.32786 0.04588 0.39906 0.0
C7 C 0.3937 0.19215 0.32918 0.0
C8 C 0.54497 0.20178 0.36032 0.0
C9 C 0.40659 0.20808 0.39518 0.0
O10 O 0.45902 0.05526 0.34916 0.0
O11 O 0.29862 0.05229 0.34623 0.0
O12 O 0.37834 0.06422 0.40081 0.0
O13 O 0.42486 0.17307 0.32639 0.0
O14 O 0.5243 0.18709 0.37616 0.0
O15 O 0.36918 0.18817 0.38323 0.0
O16 O 0.52046 0.17968 0.34551 0.0
O17 O 0.36041 0.17712 0.34246 0.0
O18 O 0.43745 0.18882 0.39831 0.0
O19 O 0.3636 0.04884 0.33025 0.0
O20 O 0.46784 0.06396 0.37958 0.0
O21 O 0.30799 0.06299 0.38693 0.0
Sc22 Sc 0.3677 0.39815 0.56732 0.0
Sc23 Sc 0.26313 0.33005 0.53557 0.0
Sc24 Sc 0.35524 0.46818 0.53073 0.0
O25 O 0.32762 0.39816 0.5446 0.0
C26 C 0.36178 0.50608 0.57068 0.0
C27 C 0.24416 0.33224 0.57888 0.0
C28 C 0.22978 0.41409 0.52232 0.0
C29 C 0.33101 0.27998 0.55213 0.0
C30 C 0.46049 0.47016 0.54096 0.0
C31 C 0.33766 0.38312 0.49991 0.0
O32 O 0.38304 0.47779 0.57538 0.0
O33 O 0.22797 0.31397 0.56271 0.0
O34 O 0.27825 0.45199 0.52098 0.0
O35 O 0.35669 0.31877 0.56322 0.0
O36 O 0.43702 0.49743 0.53892 0.0
O37 O 0.29725 0.34499 0.50835 0.0
O38 O 0.44096 0.42872 0.55126 0.0
O39 O 0.29845 0.28015 0.54037 0.0
O40 O 0.36635 0.43078 0.50652 0.0
O41 O 0.29364 0.36488 0.58291 0.0
O42 O 0.34337 0.50443 0.55466 0.0
O43 O 0.21673 0.3682 0.52903 0.0
Sc44 Sc 0.84186 0.29314 0.66782 0.0
Sc45 Sc 0.8477 0.1879 0.69141 0.0
Sc46 Sc 0.8316 0.28501 0.71589 0.0
O47 O 0.84044 0.25537 0.69167 0.0
C48 C 0.90795 0.3938 0.69386 0.0
C49 C 0.93295 0.26088 0.66092 0.0
C50 C 0.92114 0.25443 0.7257 0.0
C51 C 0.77108 0.16886 0.65696 0.0
C52 C 0.74866 0.29767 0.69059 0.0
C53 C 0.75978 0.15744 0.72264 0.0
O54 O 0.89883 0.37145 0.67821 0.0
O55 O 0.91569 0.22415 0.6731 0.0
O56 O 0.89978 0.28396 0.7278 0.0
O57 O 0.78468 0.21839 0.65512 0.0
O58 O 0.76293 0.28803 0.70595 0.0
O59 O 0.78044 0.14361 0.70979 0.0
O60 O 0.77475 0.30421 0.67576 0.0
O61 O 0.79143 0.15228 0.66909 0.0
O62 O 0.77629 0.20656 0.72664 0.0
O63 O 0.90948 0.28768 0.65719 0.0
O64 O 0.88498 0.36816 0.70842 0.0
O65 O 0.90493 0.21703 0.71372 0.0
Sc66 Sc 0.58283 0.97491 0.9012 0.0
Sc67 Sc 0.64507 0.92574 0.87111 0.0
Sc68 Sc 0.50874 0.88745 0.8649 0.0
O69 O 0.57892 0.92937 0.8791 0.0
C70 C 0.46649 0.87051 0.90612 0.0
C71 C 0.64382 0.91201 0.91434 0.0
C72 C 0.55124 0.80518 0.86169 0.0
C73 C 0.70102 0.04813 0.88521 0.0
C74 C 0.51482 0.00035 0.87256 0.0
C75 C 0.59891 0.93966 0.83334 0.0
O76 O 0.50671 0.91394 0.91183 0.0
O77 O 0.65518 0.9035 0.89823 0.0
O78 O 0.51266 0.8148 0.86317 0.0
O79 O 0.66026 0.04207 0.89414 0.0
O80 O 0.49674 0.95513 0.86455 0.0
O81 O 0.63806 0.94795 0.84375 0.0
O82 O 0.54676 0.01463 0.88623 0.0
O83 O 0.70127 0.00955 0.87664 0.0
O84 O 0.54981 0.91605 0.83874 0.0
O85 O 0.61924 0.93821 0.91766 0.0
O86 O 0.46157 0.85496 0.88953 0.0
O87 O 0.60044 0.84141 0.8637 0.0
Sc88 Sc 0.6827 0.55484 0.00476 0.0
Sc89 Sc 0.7842 0.66483 0.02957 0.0
Sc90 Sc 0.68756 0.54835 0.05293 0.0
O91 O 0.71813 0.58933 0.02908 0.0
C92 C 0.58 0.5162 0.0304 0.0
C93 C 0.71047 0.67736 -0.00057 0.0
C94 C 0.71531 0.66676 0.06402 0.0
C95 C 0.80755 0.61286 0.99447 0.0
C96 C 0.68051 0.45685 0.02638 0.0
C97 C 0.81491 0.60568 0.0602 0.0
O98 O 0.60336 0.52873 0.01492 0.0
O99 O 0.74771 0.69674 0.01141 0.0
O100 O 0.68738 0.61571 0.06581 0.0
O101 O 0.75838 0.57726 0.99199 0.0
O102 O 0.68543 0.47794 0.04209 0.0
O103 O 0.82809 0.64139 0.04781 0.0
O104 O 0.67665 0.47805 0.01154 0.0
O105 O 0.82294 0.64762 0.0073 0.0
O106 O 0.76603 0.57122 0.06388 0.0
O107 O 0.68439 0.62729 0.99538 0.0
O108 O 0.60466 0.51956 0.04526 0.0
O109 O 0.75233 0.6897 0.052 0.0
Sc110 Sc 0.03182 0.62707 0.22988 0.0
Sc111 Sc 0.06931 0.74022 0.20129 0.0
Sc112 Sc 0.12588 0.65702 0.19425 0.0
O113 O 0.07561 0.67479 0.20847 0.0
C114 C 0.14688 0.63584 0.23532 0.0
C115 C 0.07616 0.7478 0.24481 0.0
C116 C 0.19357 0.78501 0.19257 0.0
C117 C 0.94757 0.65677 0.21305 0.0
C118 C 0.02545 0.53947 0.2017 0.0
C119 C 0.06556 0.68526 0.1629 0.0
O120 O 0.09965 0.6232 0.24065 0.0
O121 O 0.08368 0.76942 0.22901 0.0
O122 O 0.18952 0.73879 0.19217 0.0
O123 O 0.95856 0.6256 0.22215 0.0
O124 O 0.0698 0.57266 0.19418 0.0
O125 O 0.0549 0.71459 0.1733 0.0
O126 O 0.0041 0.55298 0.21447 0.0
O127 O 0.98359 0.69937 0.20526 0.0
O128 O 0.09127 0.66184 0.16832 0.0
O129 O 0.05637 0.69706 0.24724 0.0
O130 O 0.16341 0.65074 0.21899 0.0
O131 O 0.1538 0.79204 0.19564 0.0
Sc132 Sc 0.86916 0.51741 0.46802 0.0
Sc133 Sc 0.91588 0.65546 0.46069 0.0
Sc134 Sc 0.96125 0.58612 0.43219 0.0
O135 O 0.91551 0.5864 0.45363 0.0
C136 C 0.9764 0.51178 0.46127 0.0
C137 C 0.92192 0.60774 0.49939 0.0
C138 C 0.03927 0.70245 0.44887 0.0
C139 C 0.79263 0.56771 0.46866 0.0
C140 C 0.85193 0.47388 0.42697 0.0
C141 C 0.90933 0.65574 0.4172 0.0
O142 O 0.93198 0.49823 0.46922 0.0
O143 O 0.93195 0.64698 0.48873 0.0
O144 O 0.03124 0.66077 0.44002 0.0
O145 O 0.80029 0.52767 0.46877 0.0
O146 O 0.89691 0.5121 0.42128 0.0
O147 O 0.89978 0.66808 0.433 0.0
O148 O 0.83603 0.47059 0.44346 0.0
O149 O 0.83048 0.61608 0.4663 0.0
O150 O 0.93246 0.62782 0.41475 0.0
O151 O 0.8983 0.55855 0.49408 0.0
O152 O -0.00628 0.54406 0.44766 0.0
O153 O 0.00136 0.70607 0.45659 0.0
Sc154 Sc 0.27895 0.83646 0.6147 0.0
Sc155 Sc 0.18451 0.85655 0.63931 0.0
Sc156 Sc 0.28702 0.84592 0.66281 0.0
O157 O 0.25017 0.84633 0.63896 0.0
C158 C 0.28747 0.75076 0.63996 0.0
C159 C 0.15129 0.76867 0.60785 0.0
C160 C 0.16246 0.77846 0.67359 0.0
C161 C 0.25256 0.92909 0.60503 0.0
C162 C 0.38825 0.91004 0.63673 0.0
C163 C 0.25978 0.94054 0.66977 0.0
O164 O 0.27966 0.76648 0.62458 0.0
O165 O 0.1387 0.79036 0.62072 0.0
O166 O 0.21158 0.79103 0.67556 0.0
O167 O 0.28018 0.90576 0.60278 0.0
O168 O 0.36594 0.90044 0.65239 0.0
O169 O 0.22261 0.92403 0.65779 0.0
O170 O 0.36238 0.8883 0.6221 0.0
O171 O 0.2157 0.91441 0.61716 0.0
O172 O 0.28528 0.91566 0.67338 0.0
O173 O 0.19997 0.78302 0.60395 0.0
O174 O 0.29422 0.77647 0.65488 0.0
O175 O 0.14693 0.79963 0.6614 0.0
Sc176 Sc 0.47291 0.38068 0.79716 0.0
Sc177 Sc 0.33704 0.28059 0.79315 0.0
Sc178 Sc 0.39811 0.38304 0.76023 0.0
O179 O 0.40212 0.34698 0.78348 0.0
C180 C 0.46399 0.47956 0.78601 0.0
C181 C 0.38697 0.35918 0.82801 0.0
C182 C 0.27854 0.33892 0.77539 0.0
C183 C 0.42748 0.25713 0.80733 0.0
C184 C 0.5109 0.3871 0.75722 0.0
C185 C 0.34009 0.2584 0.75009 0.0
O186 O 0.4952 0.46043 0.788 0.0
O187 O 0.35016 0.31704 0.81992 0.0
O188 O 0.31637 0.36539 0.76404 0.0
O189 O 0.46306 0.30675 0.80792 0.0
O190 O 0.47977 0.40484 0.75229 0.0
O191 O 0.3228 0.24318 0.76643 0.0
O192 O 0.51088 0.3704 0.77341 0.0
O193 O 0.38095 0.24032 0.80051 0.0
O194 O 0.37013 0.30799 0.74545 0.0
O195 O 0.43402 0.38973 0.82126 0.0
O196 O 0.42279 0.45664 0.77567 0.0
O197 O 0.28189 0.30947 0.78773 0.0
Sc198 Sc 0.13505 0.45229 0.94556 0.0
Sc199 Sc 0.12723 0.34041 0.96862 0.0
Sc200 Sc 0.12573 0.44573 0.99372 0.0
O201 O 0.12925 0.41277 0.96934 0.0
C202 C 0.21499 0.54785 0.97161 0.0
C203 C 0.21411 0.40554 0.93765 0.0
C204 C 0.20127 0.39681 0.00366 0.0
C205 C 0.05168 0.3311 0.93468 0.0
C206 C 0.0554 0.47762 0.96862 0.0
C207 C 0.03987 0.32004 -0.00054 0.0
O208 O 0.20052 0.52547 0.95602 0.0
O209 O 0.19534 0.3695 0.9501 0.0
O210 O 0.18486 0.43037 0.00609 0.0
O211 O 0.06982 0.38168 0.93307 0.0
O212 O 0.06648 0.46499 0.98405 0.0
O213 O 0.05926 0.30333 0.98703 0.0
O214 O 0.07786 0.47626 0.95377 0.0
O215 O 0.07006 0.31113 0.94633 0.0
O216 O 0.06028 0.36988 0.00352 0.0
O217 O 0.19421 0.4356 0.93419 0.0
O218 O 0.19078 0.52584 0.98651 0.0
O219 O 0.18362 0.36178 0.99089 0.0
Sc220 Sc 0.6561 0.12568 0.13629 0.0
Sc221 Sc 0.7372 0.06645 0.12992 0.0
Sc222 Sc 0.62691 0.03276 0.10046 0.0
O223 O 0.67348 0.07491 0.12223 0.0
C224 C 0.53859 0.02671 0.1281 0.0
C225 C 0.67784 0.06007 0.16758 0.0
C226 C 0.65383 0.94598 0.11678 0.0
C227 C 0.7837 0.19059 0.13952 0.0
C228 C 0.63935 0.14957 0.09518 0.0
C229 C 0.74862 0.07764 0.08653 0.0
O230 O 0.5716 0.07148 0.13539 0.0
O231 O 0.70793 0.04949 0.15753 0.0
O232 O 0.62372 0.95832 0.10768 0.0
O233 O 0.73807 0.18773 0.13933 0.0
O234 O 0.62493 0.10184 0.08988 0.0
O235 O 0.76896 0.08329 0.10249 0.0
O236 O 0.65382 0.16573 0.11155 0.0
O237 O 0.78985 0.15021 0.13659 0.0
O238 O 0.69815 0.05824 0.08368 0.0
O239 O 0.65673 0.0879 0.16207 0.0
O240 O 0.55229 0.00471 0.11561 0.0
O241 O 0.69597 0.981 0.12502 0.0
Sc242 Sc 0.54151 0.67458 0.27501 0.0
Sc243 Sc 0.65536 0.77663 0.29813 0.0
Sc244 Sc 0.55093 0.66995 0.32314 0.0
O245 O 0.58254 0.70706 0.29876 0.0
C246 C 0.44755 0.65749 0.30235 0.0
C247 C 0.58942 0.80123 0.26814 0.0
C248 C 0.60088 0.79399 0.33375 0.0
C249 C 0.66209 0.71223 0.26317 0.0
C250 C 0.51936 0.56911 0.29707 0.0
C251 C 0.67597 0.70732 0.32794 0.0
O252 O 0.46796 0.66361 0.28647 0.0
O253 O 0.62656 0.81635 0.28009 0.0
O254 O 0.56843 0.74391 0.3363 0.0
O255 O 0.61134 0.68202 0.26139 0.0
O256 O 0.53007 0.59206 0.31263 0.0
O257 O 0.69262 0.74497 0.3161 0.0
O258 O 0.52057 0.59314 0.28227 0.0
O259 O 0.68336 0.74847 0.27552 0.0
O260 O 0.62625 0.67755 0.33194 0.0
O261 O 0.55677 0.75168 0.26458 0.0
O262 O 0.47161 0.65796 0.31705 0.0
O263 O 0.63473 0.81188 0.32062 0.0
C264 C 0.10514 0.76549 0.27771 0.0
C265 C 0.09681 0.78425 0.26091 0.0
C266 C 0.13396 0.80174 0.29192 0.0
C267 C 0.15478 0.85788 0.28921 0.0
C268 C 0.14289 0.87652 0.27285 0.0
C269 C 0.114 0.83948 0.25891 0.0
C270 C 0.14538 0.78029 0.30926 0.0
C271 C 0.1641 0.93609 0.26948 0.0
C272 C 0.21728 0.96233 0.32715 0.0
C273 C 0.27272 0.98313 0.32387 0.0
C274 C 0.17805 0.91977 0.31651 0.0
C275 C 0.19475 0.89781 0.30222 0.0
C276 C 0.25049 0.91709 0.29933 0.0
C277 C 0.28873 0.95938 0.31019 0.0
C278 C 0.1189 0.89963 0.32012 0.0
C279 C 0.26992 0.89447 0.28426 0.0
H280 H 0.09184 0.72286 0.27944 0.0
H281 H 0.10709 0.85429 0.24608 0.0
H282 H 0.18805 0.78953 0.30915 0.0
H283 H 0.13994 0.80014 0.32152 0.0
H284 H 0.1188 0.73574 0.31059 0.0
H285 H 0.14646 0.94334 0.25697 0.0
H286 H 0.15518 0.95466 0.28137 0.0
H287 H 0.20873 0.95715 0.26785 0.0
H288 H 0.20441 0.97999 0.3378 0.0
H289 H 0.33137 0.97464 0.30763 0.0
H290 H 0.09608 0.85477 0.32098 0.0
H291 H 0.10161 0.9114 0.30858 0.0
H292 H 0.11247 0.91647 0.33301 0.0
H293 H 0.25041 0.84983 0.28556 0.0
H294 H 0.31451 0.91188 0.28447 0.0
H295 H 0.25831 0.90324 0.27071 0.0
C296 C 0.324 0.31593 0.47566 0.0
C297 C 0.35297 0.36943 0.4821 0.0
C298 C 0.33973 0.29999 0.4598 0.0
C299 C 0.38519 0.33866 0.44977 0.0
C300 C 0.41356 0.3933 0.45568 0.0
C301 C 0.39744 0.40799 0.47193 0.0
C302 C 0.30854 0.24108 0.45414 0.0
C303 C 0.46181 0.43593 0.44526 0.0
C304 C 0.44205 0.2652 0.42335 0.0
C305 C 0.41121 0.25216 0.40721 0.0
C306 C 0.43842 0.29853 0.43672 0.0
C307 C 0.40359 0.31978 0.43379 0.0
C308 C 0.37749 0.31209 0.41665 0.0
C309 C 0.38115 0.27786 0.4036 0.0
C310 C 0.4674 0.30618 0.45475 0.0
C311 C 0.34192 0.33613 0.41274 0.0
H312 H 0.28953 0.28566 0.48331 0.0
H313 H 0.42017 0.44944 0.47675 0.0
H314 H 0.29238 0.23741 0.44006 0.0
H315 H 0.33585 0.22382 0.45399 0.0
H316 H 0.27415 0.21622 0.46349 0.0
H317 H 0.45609 0.42942 0.43024 0.0
H318 H 0.46964 0.47732 0.44851 0.0
H319 H 0.49825 0.43374 0.44912 0.0
H320 H 0.46627 0.24643 0.42616 0.0
H321 H 0.35834 0.26926 0.39095 0.0
H322 H 0.43774 0.28049 0.46537 0.0
H323 H 0.48619 0.3488 0.45939 0.0
H324 H 0.49932 0.29477 0.45381 0.0
H325 H 0.30263 0.31212 0.41991 0.0
H326 H 0.3338 0.336 0.39783 0.0
H327 H 0.36087 0.37833 0.41792 0.0
C328 C 0.01129 0.24627 0.65504 0.0
C329 C 0.98248 0.2728 0.65061 0.0
C330 C 0.05723 0.2559 0.64502 0.0
C331 C 0.07462 0.29275 0.63018 0.0
C332 C 0.04675 0.32081 0.62595 0.0
C333 C 0.00105 0.31054 0.63622 0.0
C334 C 0.08644 0.22577 0.65004 0.0
C335 C 0.06433 0.36062 0.61023 0.0
C336 C 0.21431 0.34955 0.6092 0.0
C337 C 0.20257 0.31802 0.59325 0.0
C338 C 0.17338 0.34068 0.62175 0.0
C339 C 0.1196 0.29931 0.61823 0.0
C340 C 0.10798 0.26584 0.60261 0.0
C341 C 0.14959 0.27562 0.59031 0.0
C342 C 0.18734 0.37728 0.63825 0.0
C343 C 0.05114 0.2211 0.59847 0.0
H344 H -0.00229 0.21746 0.66625 0.0
H345 H 0.9794 0.33157 0.63275 0.0
H346 H 0.08292 0.19836 0.63866 0.0
H347 H 0.13016 0.25471 0.65207 0.0
H348 H 0.06998 0.20127 0.66271 0.0
H349 H 0.03983 0.38095 0.60928 0.0
H350 H 0.10748 0.39205 0.61183 0.0
H351 H 0.0606 0.33928 0.59712 0.0
H352 H 0.25507 0.38263 0.61154 0.0
H353 H 0.14024 0.25078 0.57811 0.0
H354 H 0.16768 0.35344 0.65078 0.0
H355 H 0.1721 0.40588 0.63614 0.0
H356 H 0.23169 0.40125 0.64059 0.0
H357 H 0.03404 0.19361 0.61043 0.0
H358 H 0.04947 0.19677 0.58632 0.0
H359 H 0.02483 0.23877 0.59584 0.0
C360 C 0.70566 0.06119 0.73348 0.0
C361 C 0.71787 0.1153 0.73457 0.0
C362 C 0.67434 0.02375 0.7471 0.0
C363 C 0.65554 0.04119 0.76214 0.0
C364 C 0.66265 0.09397 0.7622 0.0
C365 C 0.69358 0.13034 0.74836 0.0
C366 C 0.66561 0.96704 0.74626 0.0
C367 C 0.64259 0.11396 0.77787 0.0
C368 C 0.57157 0.95091 0.80155 0.0
C369 C 0.61219 0.96106 0.8144 0.0
C370 C 0.58481 0.97441 0.78399 0.0
C371 C 0.63978 0.00961 0.77943 0.0
C372 C 0.68086 0.01865 0.79217 0.0
C373 C 0.66658 0.99401 0.80938 0.0
C374 C 0.53989 0.96307 0.77069 0.0
C375 C 0.74007 0.05632 0.78795 0.0
H376 H 0.72316 0.04878 0.72264 0.0
H377 H 0.70139 0.17164 0.74905 0.0
H378 H 0.69436 0.96376 0.75569 0.0
H379 H 0.62404 0.93705 0.75075 0.0
H380 H 0.67234 0.95644 0.73221 0.0
H381 H 0.64462 0.15302 0.77461 0.0
H382 H 0.60026 0.08373 0.78143 0.0
H383 H 0.66781 0.11991 0.79019 0.0
H384 H 0.52942 0.92526 0.80525 0.0
H385 H 0.69841 0.00215 0.81913 0.0
H386 H 0.55179 0.96048 0.7564 0.0
H387 H 0.53071 -0.00345 0.7713 0.0
H388 H 0.50228 0.9248 0.77412 0.0
H389 H 0.75166 0.0432 0.77525 0.0
H390 H 0.76696 0.05786 0.79922 0.0
H391 H 0.74744 0.09794 0.78558 0.0
C392 C 0.62629 0.87193 0.94585 0.0
C393 C 0.65712 0.88701 0.92969 0.0
C394 C 0.63377 0.84103 0.9593 0.0
C395 C 0.67322 0.82543 0.95649 0.0
C396 C 0.70638 0.84315 0.94067 0.0
C397 C 0.69781 0.8736 0.92745 0.0
C398 C 0.59765 0.82278 0.976 0.0
C399 C 0.74919 0.82771 0.93724 0.0
C400 C 0.72504 0.77046 0.99369 0.0
C401 C 0.69745 0.71488 0.98957 0.0
C402 C 0.71542 0.80681 0.98368 0.0
C403 C 0.67751 0.78712 0.96918 0.0
C404 C 0.64774 0.73088 0.96549 0.0
C405 C 0.65804 0.69544 0.97573 0.0
C406 C 0.74752 0.8665 0.98809 0.0
C407 C 0.60677 0.70836 0.95014 0.0
H408 H 0.59457 0.88198 0.94758 0.0
H409 H 0.72215 0.88571 0.91507 0.0
H410 H 0.56901 0.77858 0.97512 0.0
H411 H 0.62194 0.83008 0.98864 0.0
H412 H 0.57385 0.8438 0.97726 0.0
H413 H 0.77392 0.84787 0.92489 0.0
H414 H 0.77656 0.83859 0.94924 0.0
H415 H 0.72968 0.78323 0.93535 0.0
H416 H 0.75508 0.78589 0.00451 0.0
H417 H 0.63604 0.65257 0.97255 0.0
H418 H 0.72034 0.88377 0.98918 0.0
H419 H 0.77655 0.88819 0.97682 0.0
H420 H 0.77059 0.87451 0.00108 0.0
H421 H 0.57772 0.72335 0.95131 0.0
H422 H 0.58373 0.66337 0.95009 0.0
H423 H 0.62776 0.72249 0.93676 0.0
C424 C 0.02102 0.7062 0.13744 0.0
C425 C 0.0427 0.67494 0.14416 0.0
C426 C 0.9902 0.69167 0.1214 0.0
C427 C 0.98143 0.6451 0.11161 0.0
C428 C 0.00696 0.61593 0.1174 0.0
C429 C 0.03717 0.63104 0.13373 0.0
C430 C 0.96376 0.72404 0.11573 0.0
C431 C -0.0003 0.56685 0.10708 0.0
C432 C 0.8448 0.5812 0.08899 0.0
C433 C 0.85798 0.60707 0.07187 0.0
C434 C 0.88524 0.58965 0.10161 0.0
C435 C 0.94019 0.62413 0.09686 0.0
C436 C 0.95391 0.64588 0.07894 0.0
C437 C 0.91256 0.63759 0.06669 0.0
C438 C 0.86886 0.56557 0.12058 0.0
C439 C 0.01211 0.68103 0.07316 0.0
H440 H 0.02593 0.74082 0.1452 0.0
H441 H 0.05408 0.60683 0.13874 0.0
H442 H 0.973 0.7366 0.10118 0.0
H443 H 0.91916 0.69851 0.117 0.0
H444 H 0.97721 0.76089 0.12425 0.0
H445 H 0.03254 0.55793 0.11027 0.0
H446 H 0.96067 0.53109 0.11109 0.0
H447 H -0.00127 0.57242 0.09205 0.0
H448 H 0.80276 0.557 0.09305 0.0
H449 H 0.92309 0.65667 0.0533 0.0
H450 H 0.87809 0.59835 0.13063 0.0
H451 H 0.89216 0.54569 0.12468 0.0
H452 H 0.82502 0.53537 0.12148 0.0
H453 H 0.02835 0.72208 0.07912 0.0
H454 H 0.01624 0.68507 0.05801 0.0
H455 H 0.03732 0.66424 0.07832 0.0
C456 C 0.05364 0.71247 0.59875 0.0
C457 C 0.1082 0.72832 0.59579 0.0
C458 C 0.01416 0.68166 0.5856 0.0
C459 C 0.02996 0.66733 0.56909 0.0
C460 C 0.08395 0.67893 0.56683 0.0
C461 C 0.12231 0.70895 0.58026 0.0
C462 C 0.95647 0.66809 0.58877 0.0
C463 C 0.10249 0.66417 0.54945 0.0
C464 C 0.93748 0.58088 0.5307 0.0
C465 C 0.94211 0.62107 0.51848 0.0
C466 C 0.96268 0.5948 0.54796 0.0
C467 C -0.00619 0.6501 0.55288 0.0
C468 C -0.00408 0.69045 0.54105 0.0
C469 C 0.96974 0.67541 0.5241 0.0
C470 C 0.95834 0.55053 0.56042 0.0
C471 C 0.02885 0.75002 0.54572 0.0
H472 H 0.04204 0.72615 0.6109 0.0
H473 H 0.16411 0.71992 0.57799 0.0
H474 H 0.94841 0.69664 0.58091 0.0
H475 H 0.92772 0.62655 0.58389 0.0
H476 H 0.94842 0.67127 0.6035 0.0
H477 H 0.14415 0.67072 0.55068 0.0
H478 H 0.07476 0.62119 0.54582 0.0
H479 H 0.10183 0.68936 0.53795 0.0
H480 H 0.91575 0.53871 0.52658 0.0
H481 H 0.97302 0.70683 0.51493 0.0
H482 H 0.95573 0.56002 0.57501 0.0
H483 H -0.00504 0.54672 0.55882 0.0
H484 H 0.92249 0.51078 0.55701 0.0
H485 H 0.017 0.7579 0.55936 0.0
H486 H 0.02386 0.77599 0.53545 0.0
H487 H 0.07237 0.76237 0.5464 0.0
C488 C 0.31327 0.00967 0.6938 0.0
C489 C 0.27412 0.99111 0.67988 0.0
C490 C 0.32597 0.05652 0.70383 0.0
C491 C 0.29891 0.08554 0.69983 0.0
C492 C 0.26074 0.06819 0.68542 0.0
C493 C 0.24872 0.02114 0.67563 0.0
C494 C 0.36713 0.07402 0.71908 0.0
C495 C 0.23155 0.09853 0.68066 0.0
C496 C 0.28478 0.16271 0.73962 0.0
C497 C 0.32669 0.21568 0.73622 0.0
C498 C 0.2746 0.12037 0.72761 0.0
C499 C 0.30716 0.13117 0.71179 0.0
C500 C 0.34843 0.18481 0.70791 0.0
C501 C 0.35772 0.22654 0.72019 0.0
C502 C 0.22996 0.06373 0.73216 0.0
C503 C 0.38414 0.19787 0.69121 0.0
H504 H 0.33352 0.98713 0.6971 0.0
H505 H 0.21888 0.00761 0.66476 0.0
H506 H 0.3988 0.11702 0.71723 0.0
H507 H 0.34712 0.07088 0.73244 0.0
H508 H 0.38695 0.04898 0.71971 0.0
H509 H 0.20611 0.08215 0.66819 0.0
H510 H 0.20522 0.096 0.69227 0.0
H511 H 0.2611 0.14204 0.67841 0.0
H512 H 0.26032 0.15404 0.75189 0.0
H513 H 0.39047 0.2673 0.71753 0.0
H514 H 0.24739 0.03703 0.73441 0.0
H515 H 0.20127 0.04664 0.72052 0.0
H516 H 0.207 0.06256 0.74463 0.0
H517 H 0.4125 0.18231 0.69322 0.0
H518 H 0.40829 0.24216 0.68865 0.0
H519 H 0.35964 0.17785 0.67884 0.0
C520 C 0.27437 0.37156 0.9258 0.0
C521 C 0.25822 0.41065 0.92559 0.0
C522 C 0.30803 0.37046 0.91196 0.0
C523 C 0.32528 0.40898 0.89759 0.0
C524 C 0.3142 0.45204 0.89849 0.0
C525 C 0.28092 0.45244 0.91252 0.0
C526 C 0.32057 0.32492 0.91174 0.0
C527 C 0.33232 0.49432 0.88355 0.0
C528 C 0.41267 0.40727 0.85839 0.0
C529 C 0.37279 0.37336 0.84584 0.0
C530 C 0.39825 0.4192 0.87549 0.0
C531 C 0.34282 0.39713 0.87989 0.0
C532 C 0.30262 0.36381 0.86709 0.0
C533 C 0.31811 0.35214 0.85032 0.0
C534 C 0.44211 0.45434 0.88891 0.0
C535 C 0.24298 0.34055 0.871 0.0
H536 H 0.25809 0.33981 0.93607 0.0
H537 H 0.27007 0.48388 0.91253 0.0
H538 H 0.29362 0.29366 0.90176 0.0
H539 H 0.36293 0.33982 0.90734 0.0
H540 H 0.31423 0.30546 0.92542 0.0
H541 H 0.32933 0.53009 0.88792 0.0
H542 H 0.37463 0.50816 0.87937 0.0
H543 H 0.30633 0.47637 0.8713 0.0
H544 H 0.45501 0.42368 0.85498 0.0
H545 H 0.28704 0.32661 0.84059 0.0
H546 H 0.44169 0.42909 0.90055 0.0
H547 H 0.43485 0.48621 0.89464 0.0
H548 H 0.48291 0.47401 0.88251 0.0
H549 H 0.23124 0.31412 0.88329 0.0
H550 H 0.21707 0.31636 0.85936 0.0
H551 H 0.23437 0.3737 0.87396 0.0
C552 C 0.84051 0.11409 0.07281 0.0
C553 C 0.78631 0.1006 0.07084 0.0
C554 C 0.87907 0.14474 0.05945 0.0
C555 C 0.86305 0.16246 0.04377 0.0
C556 C 0.80784 0.14609 0.04111 0.0
C557 C 0.77002 0.11516 0.05468 0.0
C558 C 0.93755 0.1611 0.06272 0.0
C559 C 0.78919 0.16417 0.02456 0.0
C560 C 0.97182 0.29635 0.02456 0.0
C561 C -0.00788 0.27966 0.00996 0.0
C562 C 0.92865 0.25858 0.03528 0.0
C563 C 0.905 0.20269 0.0313 0.0
C564 C 0.92388 0.18555 0.01622 0.0
C565 C 0.96732 0.22424 0.00574 0.0
C566 C 0.90945 0.27846 0.05124 0.0
C567 C 0.89914 0.12629 0.01147 0.0
H568 H 0.85331 0.10253 0.08517 0.0
H569 H 0.72825 0.1051 0.05305 0.0
H570 H 0.95491 0.15253 0.05041 0.0
H571 H 0.9614 0.20535 0.06529 0.0
H572 H 0.94251 0.13974 0.07465 0.0
H573 H 0.74443 0.14155 0.02316 0.0
H574 H 0.80269 0.20791 0.02585 0.0
H575 H 0.80737 0.15887 0.01184 0.0
H576 H 0.99033 0.33901 0.02789 0.0
H577 H 0.9823 0.21087 0.99438 0.0
H578 H 0.91663 0.26297 0.06428 0.0
H579 H 0.8653 0.26275 0.05018 0.0
H580 H 0.93044 0.32337 0.05196 0.0
H581 H 0.90732 0.10493 0.02264 0.0
H582 H 0.91546 0.11994 0.99845 0.0
H583 H 0.85457 0.1073 0.01023 0.0
C584 C 0.56398 0.82979 0.23921 0.0
C585 C 0.58784 0.8432 0.25664 0.0
C586 C 0.57194 0.8703 0.22664 0.0
C587 C 0.6038 0.92539 0.23175 0.0
C588 C 0.62262 0.93891 0.24999 0.0
C589 C 0.61496 0.89762 0.26219 0.0
C590 C 0.55074 0.85414 0.20734 0.0
C591 C 0.65467 -0.00288 0.25616 0.0
C592 C 0.69344 0.01203 0.19321 0.0
C593 C 0.66332 0.03417 0.18588 0.0
C594 C 0.67548 0.97858 0.20866 0.0
C595 C 0.62642 0.96746 0.21721 0.0
C596 C 0.59773 0.9928 0.21073 0.0
C597 C 0.61644 0.02579 0.19503 0.0
C598 C 0.70748 0.95247 0.2151 0.0
C599 C 0.54576 0.98279 0.21964 0.0
H600 H 0.54237 0.7878 0.23488 0.0
H601 H 0.63233 0.90822 0.27582 0.0
H602 H 0.53068 0.8768 0.2027 0.0
H603 H 0.58506 0.8644 0.19789 0.0
H604 H 0.52149 0.81007 0.20617 0.0
H605 H 0.65658 0.00054 0.27135 0.0
H606 H 0.69661 0.01546 0.25082 0.0
H607 H 0.63675 0.02097 0.25066 0.0
H608 H 0.73013 0.01893 0.18639 0.0
H609 H 0.59286 0.04272 0.18945 0.0
H610 H 0.68278 0.90785 0.2135 0.0
H611 H 0.71753 0.96103 0.22985 0.0
H612 H 0.74575 0.96692 0.20731 0.0
H613 H 0.5117 0.94439 0.21432 0.0
H614 H 0.53705 0.01582 0.21649 0.0
H615 H 0.54718 0.97892 0.23474 0.0
C616 C 0.87022 0.70825 0.40314 0.0
C617 C 0.8882 0.67085 0.40111 0.0
C618 C 0.84178 0.71654 0.3891 0.0
C619 C 0.83117 0.68679 0.37261 0.0
C620 C 0.85255 0.65193 0.36992 0.0
C621 C 0.88091 0.64433 0.38425 0.0
C622 C 0.81994 0.75441 0.39244 0.0
C623 C 0.84248 0.61997 0.35243 0.0
C624 C 0.69898 0.65732 0.35106 0.0
C625 C 0.71621 0.69873 0.33795 0.0
C626 C 0.73632 0.65135 0.36178 0.0
C627 C 0.79231 0.68758 0.35932 0.0
C628 C 0.8102 0.7276 0.34547 0.0
C629 C 0.77189 0.73281 0.33495 0.0
C630 C 0.71566 0.60785 0.37636 0.0
C631 C 0.86966 0.76643 0.34232 0.0
H632 H 0.87642 0.72956 0.41602 0.0
H633 H 0.89484 0.61549 0.38253 0.0
H634 H 0.83012 0.78293 0.38079 0.0
H635 H 0.77517 0.73061 0.39348 0.0
H636 H 0.83607 0.77824 0.40525 0.0
H637 H 0.86939 0.60235 0.35121 0.0
H638 H 0.79991 0.58636 0.35218 0.0
H639 H 0.84854 0.64581 0.34027 0.0
H640 H 0.65613 0.63028 0.35333 0.0
H641 H 0.78569 0.76456 0.32472 0.0
H642 H 0.72577 0.62694 0.39013 0.0
H643 H 0.73557 0.58309 0.37504 0.0
H644 H 0.67116 0.58051 0.37559 0.0
H645 H 0.88622 0.79516 0.35398 0.0
H646 H 0.87707 0.79011 0.32948 0.0
H647 H 0.89238 0.74425 0.34167 0.0
C648 C 0.55224 0.81381 0.35829 0.0
C649 C 0.59336 0.83288 0.345 0.0
C650 C 0.53483 0.84789 0.36563 0.0
C651 C 0.55943 0.90216 0.35958 0.0
C652 C 0.60511 0.92322 0.34789 0.0
C653 C 0.6216 0.88822 0.34071 0.0
C654 C 0.4865 0.82423 0.3783 0.0
C655 C 0.63305 0.98132 0.34144 0.0
C656 C 0.47206 0.96423 0.35047 0.0
C657 C 0.48668 0.00135 0.36489 0.0
C658 C 0.49379 0.92999 0.34912 0.0
C659 C 0.53153 0.9335 0.36243 0.0
C660 C 0.54454 0.96903 0.37752 0.0
C661 C 0.52167 0.00254 0.37862 0.0
C662 C 0.47804 0.89169 0.33299 0.0
C663 C 0.58463 0.97376 0.39192 0.0
H664 H 0.53087 0.77132 0.36203 0.0
H665 H 0.6541 0.9036 0.33072 0.0
H666 H 0.49176 0.85309 0.3894 0.0
H667 H 0.44993 0.81593 0.37039 0.0
H668 H 0.47925 0.78564 0.38457 0.0
H669 H 0.67285 0.9936 0.335 0.0
H670 H 0.60721 0.98631 0.33115 0.0
H671 H 0.63926 0.00911 0.35301 0.0
H672 H 0.44446 0.96279 0.33998 0.0
H673 H 0.53319 0.03142 0.38976 0.0
H674 H 0.46375 0.84978 0.33783 0.0
H675 H 0.51385 0.90352 0.32411 0.0
H676 H 0.44563 0.89163 0.32453 0.0
H677 H 0.57673 0.93315 0.39628 0.0
H678 H 0.58355 -0.00369 0.40419 0.0
H679 H 0.62606 -0.00445 0.38607 0.0
C680 C 0.51098 0.50822 0.51216 0.0
C681 C 0.50793 0.48467 0.52936 0.0
C682 C 0.55427 0.52154 0.50033 0.0
C683 C 0.59621 0.51232 0.50602 0.0
C684 C 0.59335 0.48819 0.52331 0.0
C685 C 0.5486 0.47388 0.53474 0.0
C686 C 0.5552 0.54566 0.48178 0.0
C687 C 0.63785 0.47818 0.52978 0.0
C688 C 0.69359 0.50651 0.47228 0.0
C689 C 0.73932 0.55778 0.47472 0.0
C690 C 0.64549 0.49196 0.4817 0.0
C691 C 0.64386 0.52929 0.49409 0.0
C692 C 0.68873 0.58227 0.49569 0.0
C693 C 0.73591 0.59612 0.48579 0.0
C694 C 0.59759 0.43574 0.47917 0.0
C695 C 0.68818 0.62311 0.50877 0.0
H696 H 0.47885 0.51549 0.50778 0.0
H697 H 0.5459 0.4553 0.54796 0.0
H698 H 0.58957 0.58779 0.48108 0.0
H699 H 0.56136 0.52235 0.47079 0.0
H700 H 0.51724 0.5462 0.47891 0.0
H701 H 0.62952 0.45927 0.5436 0.0
H702 H 0.64295 0.45131 0.51997 0.0
H703 H 0.67677 0.51701 0.53025 0.0
H704 H 0.69619 0.47697 0.4636 0.0
H705 H 0.77137 0.63564 0.4878 0.0
H706 H 0.5597 0.43726 0.47757 0.0
H707 H 0.59288 0.41102 0.49151 0.0
H708 H 0.60249 0.41497 0.46704 0.0
H709 H 0.65242 0.62777 0.50619 0.0
H710 H 0.72524 0.66349 0.5076 0.0
H711 H 0.685 0.60847 0.52307 0.0
C712 C 0.13687 0.7032 0.69594 0.0
C713 C 0.12102 0.7312 0.68391 0.0
C714 C 0.09997 0.65045 0.7016 0.0
C715 C 0.0461 0.62558 0.69518 0.0
C716 C 0.02828 0.6561 0.68507 0.0
C717 C 0.06607 0.70875 0.67953 0.0
C718 C 0.12029 0.61943 0.71265 0.0
C719 C 0.97076 0.63123 0.6783 0.0
C720 C 0.98201 0.47927 0.68068 0.0
C721 C 0.94545 0.45266 0.69499 0.0
C722 C 0.01564 0.53547 0.68085 0.0
C723 C 0.01225 0.56588 0.69564 0.0
C724 C 0.97626 0.53932 0.71034 0.0
C725 C 0.9433 0.48279 0.70987 0.0
C726 C 0.05418 0.56235 0.66501 0.0
C727 C 0.97145 0.57062 0.72623 0.0
H728 H 0.17902 0.72065 0.69978 0.0
H729 H 0.05313 0.73045 0.67056 0.0
H730 H 0.09022 0.59364 0.72313 0.0
H731 H 0.12686 0.59236 0.70337 0.0
H732 H 0.15919 0.64694 0.7196 0.0
H733 H 0.96087 0.66257 0.67385 0.0
H734 H 0.96511 0.60459 0.66641 0.0
H735 H 0.94169 0.60591 0.6891 0.0
H736 H 0.98419 0.45613 0.66924 0.0
H737 H 0.91481 0.46239 0.72092 0.0
H738 H 0.09623 0.58671 0.67016 0.0
H739 H 0.04399 0.59042 0.65783 0.0
H740 H 0.05288 0.53258 0.65489 0.0
H741 H 0.01198 0.59944 0.73182 0.0
H742 H 0.94592 0.54357 0.73746 0.0
H743 H 0.95319 0.59483 0.7214 0.0
C744 C 0.39812 0.16979 0.82355 0.0
C745 C 0.43986 0.21839 0.81636 0.0
C746 C 0.40979 0.13532 0.8338 0.0
C747 C 0.46438 0.14953 0.8366 0.0
C748 C 0.50664 0.19809 0.82913 0.0
C749 C 0.49385 0.23215 0.81918 0.0
C750 C 0.36379 0.08378 0.84165 0.0
C751 C 0.5653 0.21378 0.83147 0.0
C752 C 0.5 0.08 0.87401 0.0
C753 C 0.50187 0.03918 0.86393 0.0
C754 C 0.48713 0.11615 0.86534 0.0
C755 C 0.47724 0.11167 0.84619 0.0
C756 C 0.48014 0.07115 0.83596 0.0
C757 C 0.49203 0.03522 0.84498 0.0
C758 C 0.48387 0.15887 0.87659 0.0
C759 C 0.47111 0.06589 0.81545 0.0
H760 H 0.35636 0.15941 0.8216 0.0
H761 H 0.52621 0.26968 0.81359 0.0
H762 H 0.364 0.04819 0.83557 0.0
H763 H 0.36907 0.08231 0.85667 0.0
H764 H 0.32373 0.08006 0.839 0.0
H765 H 0.59331 0.25363 0.82516 0.0
H766 H 0.57519 0.21553 0.84625 0.0
H767 H 0.57263 0.18264 0.82512 0.0
H768 H 0.50772 0.08309 0.88864 0.0
H769 H 0.49453 0.00437 0.83703 0.0
H770 H 0.44315 0.15447 0.87515 0.0
H771 H 0.51365 0.19976 0.87147 0.0
H772 H 0.4918 0.15636 0.89137 0.0
H773 H 0.42987 0.05817 0.81222 0.0
H774 H 0.47585 0.03257 0.80952 0.0
H775 H 0.50025 0.10428 0.80857 0.0
C776 C 0.26867 0.36868 0.01184 0.0
C777 C 0.24743 0.4031 0.01474 0.0
C778 C 0.31954 0.38182 0.01875 0.0
C779 C 0.34962 0.4305 0.02871 0.0
C780 C 0.3256 0.46174 0.0336 0.0
C781 C 0.27459 0.4476 0.02656 0.0
C782 C 0.34346 0.34686 0.01358 0.0
C783 C 0.35613 0.51348 0.04448 0.0
C784 C 0.48934 0.46642 0.04576 0.0
C785 C 0.52144 0.4966 0.03087 0.0
C786 C 0.43309 0.44517 0.04554 0.0
C787 C 0.40896 0.4547 0.03012 0.0
C788 C 0.44147 0.48655 0.01534 0.0
C789 C 0.49721 0.50697 0.0159 0.0
C790 C 0.39951 0.41128 0.06149 0.0
C791 C 0.41734 0.49829 0.99871 0.0
H792 H 0.24739 0.33341 0.00311 0.0
H793 H 0.25801 0.47385 0.02925 0.0
H794 H 0.37256 0.36632 0.00214 0.0
H795 H 0.3659 0.34259 0.02526 0.0
H796 H 0.31188 0.30587 0.00905 0.0
H797 H 0.32854 0.52653 0.05037 0.0
H798 H 0.37947 0.50871 0.05576 0.0
H799 H 0.38537 0.54614 0.03532 0.0
H800 H 0.50794 0.45823 0.05735 0.0
H801 H 0.52188 0.53091 0.00446 0.0
H802 H 0.3763 0.36818 0.05726 0.0
H803 H 0.36978 0.42349 0.06574 0.0
H804 H 0.42491 0.41452 0.07349 0.0
H805 H 0.38906 0.45986 0.99168 0.0
H806 H 0.44864 0.52518 0.98869 0.0
H807 H 0.39383 0.51787 0.00295 0.0
C808 C 0.94572 0.44528 0.20061 0.0
C809 C -0.00351 0.48424 0.19393 0.0
C810 C 0.91585 0.39526 0.19171 0.0
C811 C 0.93721 0.38455 0.17572 0.0
C812 C 0.98941 0.42255 0.16945 0.0
C813 C 0.01855 0.47176 0.17869 0.0
C814 C 0.86042 0.35494 0.19889 0.0
C815 C 0.01324 0.41268 0.15236 0.0
C816 C 0.86705 0.24044 0.15815 0.0
C817 C 0.82979 0.24152 0.14592 0.0
C818 C 0.90351 0.28723 0.16772 0.0
C819 C 0.90296 0.33594 0.16461 0.0
C820 C 0.86805 0.338 0.15127 0.0
C821 C 0.8314 0.29047 0.14219 0.0
C822 C 0.94017 0.28376 0.18191 0.0
C823 C 0.86757 0.38977 0.14721 0.0
H824 H 0.9286 0.4544 0.21243 0.0
H825 H 0.05797 0.50133 0.17344 0.0
H826 H 0.82915 0.35134 0.18904 0.0
H827 H 0.85638 0.31429 0.20018 0.0
H828 H 0.85203 0.36702 0.21244 0.0
H829 H 0.05649 0.44372 0.15044 0.0
H830 H 0.00974 0.37215 0.15283 0.0
H831 H 0.99034 0.41343 0.14018 0.0
H832 H 0.86526 0.20232 0.16117 0.0
H833 H 0.80259 0.29112 0.13265 0.0
H834 H 0.9274 0.28892 0.19578 0.0
H835 H 0.9825 0.31678 0.17991 0.0
H836 H 0.93918 0.2443 0.18144 0.0
H837 H 0.85333 0.40218 0.15946 0.0
H838 H 0.84081 0.38526 0.13548 0.0
H839 H 0.90908 0.42298 0.14406 0.0
C840 C 0.05472 0.49514 0.45985 0.0
C841 C 0.01016 0.49128 0.46929 0.0
C842 C 0.08811 0.47814 0.46812 0.0
C843 C 0.0769 0.45778 0.48628 0.0
C844 C 0.0314 0.45274 0.4957 0.0
C845 C -0.00157 0.46924 0.48706 0.0
C846 C 0.13617 0.48334 0.45766 0.0
C847 C 0.01877 0.4321 0.5152 0.0
C848 C 0.14321 0.3818 0.50549 0.0
C849 C 0.18778 0.42352 0.51457 0.0
C850 C 0.10682 0.39239 0.496 0.0
C851 C 0.11493 0.4456 0.49601 0.0
C852 C 0.15881 0.48736 0.50574 0.0
C853 C 0.19509 0.47588 0.51476 0.0
C854 C 0.06056 0.34715 0.48561 0.0
C855 C 0.16774 0.54426 0.50647 0.0
H856 H 0.06374 0.51182 0.4461 0.0
H857 H 0.96426 0.46638 0.49455 0.0
H858 H 0.17413 0.51407 0.46434 0.0
H859 H 0.13603 0.44434 0.45789 0.0
H860 H 0.13659 0.49554 0.44317 0.0
H861 H 0.98006 0.42789 0.5202 0.0
H862 H 0.01646 0.39219 0.51631 0.0
H863 H 0.05175 0.46046 0.52442 0.0
H864 H 0.13807 0.34145 0.50519 0.0
H865 H 0.22953 0.50802 0.52189 0.0
H866 H 0.06374 0.35769 0.47084 0.0
H867 H 0.02143 0.34175 0.4906 0.0
H868 H 0.05994 0.30802 0.48702 0.0
H869 H 0.17415 0.56134 0.49243 0.0
H870 H 0.2032 0.57166 0.51503 0.0
H871 H 0.13136 0.5437 0.51214 0.0
C872 C 0.4768 0.9487 0.62013 0.0
C873 C 0.44709 0.94763 0.63564 0.0
C874 C 0.53312 0.98282 0.61947 0.0
C875 C 0.55988 0.0166 0.63463 0.0
C876 C 0.5299 0.01642 0.65014 0.0
C877 C 0.47395 0.98183 0.65047 0.0
C878 C 0.56402 0.98187 0.6028 0.0
C879 C 0.55695 0.05242 0.66654 0.0
C880 C 0.7038 0.07271 0.64947 0.0
C881 C 0.72401 0.12815 0.64641 0.0
C882 C 0.65166 0.03436 0.64373 0.0
C883 C 0.61933 0.05213 0.63478 0.0
C884 C 0.64199 0.10702 0.6296 0.0
C885 C 0.69431 0.14449 0.63543 0.0
C886 C 0.62919 0.97586 0.64915 0.0
C887 C 0.60897 0.12738 0.61982 0.0
H888 H 0.45624 0.92213 0.60865 0.0
H889 H 0.45119 0.98161 0.66242 0.0
H890 H 0.59108 0.02358 0.5977 0.0
H891 H 0.59003 0.96465 0.60655 0.0
H892 H 0.5367 0.95723 0.59149 0.0
H893 H 0.52749 0.04811 0.67731 0.0
H894 H 0.58644 0.04237 0.67268 0.0
H895 H 0.57969 0.09547 0.6622 0.0
H896 H 0.72693 0.05947 0.65756 0.0
H897 H 0.71 0.18711 0.63261 0.0
H898 H 0.60388 0.9483 0.63803 0.0
H899 H 0.60311 0.967 0.66144 0.0
H900 H 0.66187 0.96685 0.65251 0.0
H901 H 0.58339 0.09866 0.609 0.0
H902 H 0.63504 0.16776 0.61351 0.0
H903 H 0.58163 0.13104 0.62983 0.0
C904 C 0.48639 0.70732 0.85587 0.0
C905 C 0.53866 0.75215 0.8542 0.0
C906 C 0.47106 0.65982 0.84587 0.0
C907 C 0.50855 0.65796 0.83361 0.0
C908 C 0.56199 0.70222 0.83246 0.0
C909 C 0.57661 0.74859 0.84296 0.0
C910 C 0.41428 0.61256 0.8479 0.0
C911 C 0.60308 0.70157 0.81952 0.0
C912 C 0.49371 0.52737 0.81564 0.0
C913 C 0.47291 0.52476 0.798 0.0
C914 C 0.50262 0.56893 0.82774 0.0
C915 C 0.49233 0.61005 0.82181 0.0
C916 C 0.47041 0.60731 0.80413 0.0
C917 C 0.46004 0.56392 0.79246 0.0
C918 C 0.5239 0.56929 0.84675 0.0
C919 C 0.45956 0.65103 0.79736 0.0
H920 H 0.45703 0.70996 0.86461 0.0
H921 H 0.61689 0.7833 0.84148 0.0
H922 H 0.39082 0.60868 0.83531 0.0
H923 H 0.41483 0.57415 0.84958 0.0
H924 H 0.39285 0.61757 0.85981 0.0
H925 H 0.64304 0.73926 0.82036 0.0
H926 H 0.60873 0.66662 0.82264 0.0
H927 H 0.58817 0.69663 0.8052 0.0
H928 H 0.50273 0.49646 0.82011 0.0
H929 H 0.44355 0.56152 0.77889 0.0
H930 H 0.49732 0.5723 0.85724 0.0
H931 H 0.56478 0.60521 0.8484 0.0
H932 H 0.5265 0.53234 0.84957 0.0
H933 H 0.43237 0.65607 0.80702 0.0
H934 H 0.44085 0.64199 0.78351 0.0
H935 H 0.49807 0.69026 0.79679 0.0
C936 C 0.83245 0.56687 0.97048 0.0
C937 C 0.84877 0.60755 0.98385 0.0
C938 C 0.86802 0.55004 0.96419 0.0
C939 C 0.9211 0.57495 0.97133 0.0
C940 C 0.93982 0.62059 0.98295 0.0
C941 C 0.90329 0.63642 0.98911 0.0
C942 C 0.84683 0.50167 0.95157 0.0
C943 C -0.00332 0.64898 0.99049 0.0
C944 C 0.97989 0.4855 0.98234 0.0
C945 C 0.01758 0.49856 0.96819 0.0
C946 C 0.94721 0.50912 0.98315 0.0
C947 C 0.95301 0.54728 0.96959 0.0
C948 C 0.98993 0.5596 0.95498 0.0
C949 C 0.02168 0.53476 0.95439 0.0
C950 C 0.90742 0.4942 0.99879 0.0
C951 C -0.00258 0.60047 0.94043 0.0
H952 H 0.79068 0.54512 0.96598 0.0
H953 H 0.9166 0.66859 -0.00083 0.0
H954 H 0.87734 0.50741 0.94105 0.0
H955 H 0.83801 0.46524 0.95971 0.0
H956 H 0.80902 0.49378 0.94456 0.0
H957 H 0.00781 0.68914 0.99642 0.0
H958 H -0.00012 0.62374 0.00146 0.0
H959 H 0.02636 0.6546 0.97966 0.0
H960 H 0.97638 0.45721 0.99293 0.0
H961 H 0.0512 0.54531 0.94351 0.0
H962 H 0.86613 0.4799 0.99337 0.0
H963 H 0.91849 0.53042 0.00737 0.0
H964 H 0.90627 0.462 0.00769 0.0
H965 H 0.95776 0.59216 0.93494 0.0
H966 H 0.02291 0.60064 0.92888 0.0
H967 H 0.01712 0.64155 0.94658 0.0
C968 C 0.44445 0.94692 0.12967 0.0
C969 C 0.48393 -0.00246 0.13628 0.0
C970 C 0.3954 0.91663 0.13909 0.0
C971 C 0.38635 0.93733 0.15556 0.0
C972 C 0.42497 0.98923 0.16187 0.0
C973 C 0.47301 0.01889 0.15207 0.0
C974 C 0.35426 0.86156 0.13187 0.0
C975 C 0.41707 0.01222 0.17953 0.0
C976 C 0.24393 0.86928 0.17443 0.0
C977 C 0.24474 0.83085 0.1862 0.0
C978 C 0.29025 0.90522 0.16457 0.0
C979 C 0.33834 0.9031 0.16693 0.0
C980 C 0.34038 0.8671 0.17984 0.0
C981 C 0.2932 0.83087 0.1892 0.0
C982 C 0.28683 0.94312 0.15086 0.0
C983 C 0.39165 0.86513 0.18315 0.0
H984 H 0.45243 0.93032 0.11746 0.0
H985 H 0.50307 0.05807 0.15735 0.0
H986 H 0.35105 0.82973 0.1414 0.0
H987 H 0.31375 0.85798 0.13114 0.0
H988 H 0.36516 0.85356 0.11805 0.0
H989 H 0.4486 0.05526 0.18157 0.0
H990 H 0.3768 0.00923 0.17978 0.0
H991 H 0.41861 0.98834 0.1913 0.0
H992 H 0.2062 0.86873 0.17195 0.0
H993 H 0.29366 0.80113 0.19837 0.0
H994 H 0.29157 0.93125 0.13679 0.0
H995 H 0.32012 0.98522 0.15308 0.0
H996 H 0.24765 0.94252 0.15167 0.0
H997 H 0.4026 0.85082 0.17058 0.0
H998 H 0.38737 0.8377 0.19465 0.0
H999 H 0.42572 0.90623 0.18625 0.0
C1000 C 0.46757 0.47706 0.28295 0.0
C1001 C 0.50267 0.51123 0.29658 0.0
C1002 C 0.44594 0.42078 0.284 0.0
C1003 C 0.4602 0.39884 0.29896 0.0
C1004 C 0.49825 0.43359 0.31209 0.0
C1005 C 0.51886 0.48935 0.31075 0.0
C1006 C 0.40576 0.38489 0.26971 0.0
C1007 C 0.51529 0.41181 0.3281 0.0
C1008 C 0.37239 0.26501 0.32178 0.0
C1009 C 0.40112 0.23822 0.31775 0.0
C1010 C 0.38774 0.31563 0.31408 0.0
C1011 C 0.43276 0.33973 0.3021 0.0
C1012 C 0.45777 0.31017 0.29632 0.0
C1013 C 0.44162 0.2596 0.30424 0.0
C1014 C 0.35944 0.34566 0.32031 0.0
C1015 C 0.50522 0.33418 0.28328 0.0
H1016 H 0.45502 0.49397 0.27196 0.0
H1017 H 0.54676 0.51583 0.32113 0.0
H1018 H 0.41317 0.35162 0.26566 0.0
H1019 H 0.36432 0.36609 0.27551 0.0
H1020 H 0.40724 0.40805 0.25726 0.0
H1021 H 0.54774 0.44459 0.33642 0.0
H1022 H 0.48 0.38756 0.33716 0.0
H1023 H 0.53005 0.38467 0.32316 0.0
H1024 H 0.34026 0.24832 0.33191 0.0
H1025 H 0.46332 0.23865 0.30069 0.0
H1026 H 0.35207 0.36582 0.30856 0.0
H1027 H 0.38561 0.37764 0.33023 0.0
H1028 H 0.32019 0.31835 0.32711 0.0
H1029 H 0.499 0.35686 0.27209 0.0
H1030 H 0.51225 0.30252 0.27715 0.0
H1031 H 0.54226 0.36313 0.29084 0.0
C1032 C 0.10402 0.79824 0.45776 0.0
C1033 C 0.09326 0.75166 0.44786 0.0
C1034 C 0.14894 0.84865 0.4535 0.0
C1035 C 0.18334 0.85234 0.43893 0.0
C1036 C 0.17609 0.80468 0.43031 0.0
C1037 C 0.13122 0.75475 0.43497 0.0
C1038 C 0.15646 0.89847 0.4634 0.0
C1039 C 0.21228 0.80692 0.4148 0.0
C1040 C 0.23493 0.97165 0.40673 0.0
C1041 C 0.29033 3e-05 0.41079 0.0
C1042 C 0.19953 0.92451 0.41629 0.0
C1043 C 0.21988 0.90556 0.43041 0.0
C1044 C 0.27516 0.93544 0.43528 0.0
C1045 C 0.30991 0.98224 0.42531 0.0
C1046 C 0.14068 0.8937 0.41067 0.0
C1047 C 0.29803 0.91691 0.45048 0.0
H1048 H 0.07556 0.79605 0.46806 0.0
H1049 H 0.12378 0.71888 0.42744 0.0
H1050 H 0.1999 0.92696 0.46615 0.0
H1051 H 0.14126 0.91985 0.45465 0.0
H1052 H 0.13397 0.88803 0.4766 0.0
H1053 H 0.20615 0.76623 0.41139 0.0
H1054 H 0.20339 0.82364 0.40239 0.0
H1055 H 0.25545 0.83406 0.4183 0.0
H1056 H 0.21934 0.98507 0.39559 0.0
H1057 H 0.35261 0.00418 0.42867 0.0
H1058 H 0.11436 0.88744 0.4227 0.0
H1059 H 0.13042 0.85312 0.40542 0.0
H1060 H 0.13105 0.91501 0.39985 0.0
H1061 H 0.27094 0.90363 0.46262 0.0
H1062 H 0.3389 0.94932 0.45475 0.0
H1063 H 0.30126 0.88167 0.44571 0.0
C1064 C 0.36261 0.2254 0.56945 0.0
C1065 C 0.33292 0.22949 0.55482 0.0
C1066 C 0.3546 0.17495 0.57508 0.0
C1067 C 0.3163 0.12768 0.56576 0.0
C1068 C 0.29057 0.13206 0.54982 0.0
C1069 C 0.29918 0.18304 0.54452 0.0
C1070 C 0.38335 0.17193 0.59203 0.0
C1071 C 0.25028 0.08256 0.53932 0.0
C1072 C 0.30708 -0.00428 0.58045 0.0
C1073 C 0.26582 0.97724 0.59369 0.0
C1074 C 0.32293 0.0438 0.57071 0.0
C1075 C 0.29708 0.07409 0.5744 0.0
C1076 C 0.25424 0.05476 0.58728 0.0
C1077 C 0.23907 0.00654 0.59673 0.0
C1078 C 0.36848 0.06308 0.55697 0.0
C1079 C 0.22555 0.08598 0.59155 0.0
H1080 H 0.3895 0.26112 0.57732 0.0
H1081 H 0.27673 0.18583 0.53299 0.0
H1082 H 0.35417 0.15557 0.60359 0.0
H1083 H 0.39949 0.14413 0.58984 0.0
H1084 H 0.41722 0.21229 0.59608 0.0
H1085 H 0.24165 0.09323 0.52556 0.0
H1086 H 0.26517 0.05355 0.53762 0.0
H1087 H 0.21176 0.06163 0.54712 0.0
H1088 H 0.32789 0.97327 0.57792 0.0
H1089 H 0.20704 0.99259 0.60686 0.0
H1090 H 0.40459 0.09971 0.56234 0.0
H1091 H 0.35706 0.07462 0.5439 0.0
H1092 H 0.37986 0.03178 0.55408 0.0
H1093 H 0.25464 0.12597 0.59749 0.0
H1094 H 0.19166 0.06426 0.60139 0.0
H1095 H 0.20927 0.09356 0.57878 0.0
C1096 C 0.18112 0.30303 0.7835 0.0
C1097 C 0.22617 0.33697 0.77263 0.0
C1098 C 0.12914 0.29246 0.77872 0.0
C1099 C 0.12221 0.31628 0.76269 0.0
C1100 C 0.16793 0.35403 0.75256 0.0
C1101 C 0.21941 0.36409 0.7577 0.0
C1102 C 0.08134 0.25276 0.79004 0.0
C1103 C 0.1622 0.38059 0.73545 0.0
C1104 C -0.003 0.23812 0.73363 0.0
C1105 C 0.96927 0.26641 0.73683 0.0
C1106 C 0.04583 0.25277 0.74255 0.0
C1107 C 0.06738 0.29661 0.75505 0.0
C1108 C 0.03843 0.32369 0.75905 0.0
C1109 C 0.98971 0.30836 0.74985 0.0
C1110 C 0.07556 0.2228 0.73795 0.0
C1111 C 0.05999 0.37026 0.77245 0.0
H1112 H 0.18593 0.28242 0.79522 0.0
H1113 H 0.25396 0.39097 0.74935 0.0
H1114 H 0.05261 0.26777 0.79225 0.0
H1115 H 0.05931 0.2137 0.78258 0.0
H1116 H 0.09397 0.24504 0.80359 0.0
H1117 H 0.20184 0.41339 0.73036 0.0
H1118 H 0.14317 0.34976 0.72447 0.0
H1119 H 0.13548 0.39779 0.73803 0.0
H1120 H 0.98152 0.20549 0.7237 0.0
H1121 H 0.96846 0.33029 0.75252 0.0
H1122 H 0.08512 0.20789 0.75066 0.0
H1123 H 0.11451 0.25078 0.73113 0.0
H1124 H 0.05185 0.18776 0.72871 0.0
H1125 H 0.07314 0.35954 0.78533 0.0
H1126 H 0.02946 0.38227 0.77584 0.0
H1127 H 0.09596 0.4058 0.76647 0.0
C1128 C 0.79863 0.10868 0.87723 0.0
C1129 C 0.75247 0.10007 0.88693 0.0
C1130 C 0.84993 0.15192 0.8817 0.0
C1131 C 0.85501 0.18683 0.8963 0.0
C1132 C 0.80814 0.18133 0.90497 0.0
C1133 C 0.75735 0.13818 0.90009 0.0
C1134 C 0.89895 0.15747 0.87181 0.0
C1135 C 0.81188 0.21789 0.92059 0.0
C1136 C 0.97576 0.23828 0.9278 0.0
C1137 C 0.0047 0.29353 0.92339 0.0
C1138 C 0.9279 0.20291 0.91861 0.0
C1139 C 0.90878 0.22311 0.90449 0.0
C1140 C 0.93907 0.2782 0.89931 0.0
C1141 C 0.98658 0.31293 0.90892 0.0
C1142 C 0.89656 0.14434 0.9246 0.0
C1143 C 0.92031 0.30085 0.8841 0.0
H1144 H 0.79518 0.08002 0.8668 0.0
H1145 H 0.72192 0.13236 0.90753 0.0
H1146 H 0.92824 0.2006 0.86882 0.0
H1147 H 0.91968 0.14185 0.88069 0.0
H1148 H 0.88783 0.13432 0.85875 0.0
H1149 H 0.77176 0.21268 0.92429 0.0
H1150 H 0.8288 0.20855 0.93285 0.0
H1151 H 0.83951 0.26096 0.91702 0.0
H1152 H 0.98935 0.22284 0.93894 0.0
H1153 H 0.00895 0.3555 0.9053 0.0
H1154 H 0.88903 0.11723 0.91271 0.0
H1155 H 0.85658 0.13513 0.93012 0.0
H1156 H 0.91809 0.13471 0.93533 0.0
H1157 H 0.90814 0.27408 0.8719 0.0
H1158 H 0.95213 0.34221 0.87999 0.0
H1159 H 0.88427 0.3028 0.88873 0.0
C1160 C 0.67652 0.87516 0.12571 0.0
C1161 C 0.64494 0.89041 0.1153 0.0
C1162 C 0.68081 0.82996 0.12079 0.0
C1163 C 0.65306 0.79983 0.10509 0.0
C1164 C 0.61572 0.8108 0.09604 0.0
C1165 C 0.61188 0.85598 0.10133 0.0
C1166 C 0.71968 0.81833 0.13115 0.0
C1167 C 0.58466 0.7789 0.07941 0.0
C1168 C 0.72901 0.75711 0.07311 0.0
C1169 C 0.70219 0.70093 0.07578 0.0
C1170 C 0.71404 0.78966 0.08296 0.0
C1171 C 0.67138 0.76551 0.09589 0.0
C1172 C 0.64546 0.7092 0.09922 0.0
C1173 C 0.66102 0.67744 0.08904 0.0
C1174 C 0.74292 0.84982 0.07908 0.0
C1175 C 0.60014 0.6822 0.113 0.0
H1176 H 0.7011 0.90076 0.13687 0.0
H1177 H 0.58656 0.86685 0.09342 0.0
H1178 H 0.7032 0.7741 0.13266 0.0
H1179 H 0.75817 0.83495 0.12336 0.0
H1180 H 0.72886 0.83722 0.14497 0.0
H1181 H 0.55087 0.78616 0.07598 0.0
H1182 H 0.61244 0.7911 0.06746 0.0
H1183 H 0.56803 0.73489 0.0816 0.0
H1184 H 0.76095 0.77571 0.06298 0.0
H1185 H 0.64013 0.63404 0.09126 0.0
H1186 H 0.76024 0.87291 0.09192 0.0
H1187 H 0.71375 0.86142 0.0737 0.0
H1188 H 0.77613 0.86227 0.06893 0.0
H1189 H 0.61009 0.70617 0.12585 0.0
H1190 H 0.59123 0.64052 0.11639 0.0
H1191 H 0.56292 0.67966 0.1073 0.0
C1192 C 0.75396 0.73021 0.25421 0.0
C1193 C 0.69799 0.70213 0.25121 0.0
C1194 C 0.78797 0.71682 0.24454 0.0
C1195 C 0.76552 0.67458 0.23141 0.0
C1196 C 0.70954 0.64797 0.22756 0.0
C1197 C 0.6763 0.6619 0.23759 0.0
C1198 C 0.84773 0.74646 0.24896 0.0
C1199 C 0.68435 0.60327 0.21349 0.0
C1200 C 0.87817 0.68031 0.20315 0.0
C1201 C 0.89216 0.64832 0.21391 0.0
C1202 C 0.83265 0.68468 0.20743 0.0
C1203 C 0.80095 0.65665 0.22284 0.0
C1204 C 0.8109 0.61907 0.23225 0.0
C1205 C 0.85641 0.61511 0.22759 0.0
C1206 C 0.82211 0.72374 0.19669 0.0
C1207 C 0.77733 0.58772 0.24859 0.0
H1208 H 0.77119 0.76153 0.2646 0.0
H1209 H 0.6331 0.64018 0.23505 0.0
H1210 H 0.85937 0.71764 0.25467 0.0
H1211 H 0.87178 0.76403 0.23629 0.0
H1212 H 0.8589 0.77962 0.25904 0.0
H1213 H 0.64328 0.59472 0.20945 0.0
H1214 H 0.70996 0.61366 0.20102 0.0
H1215 H 0.6808 0.56566 0.2193 0.0
H1216 H 0.90485 0.70502 0.19221 0.0
H1217 H 0.86638 0.58954 0.23577 0.0
H1218 H 0.83805 0.76222 0.20445 0.0
H1219 H 0.7781 0.70733 0.19468 0.0
H1220 H 0.84226 0.73301 0.18306 0.0
H1221 H 0.78774 0.61549 0.26048 0.0
H1222 H 0.78467 0.55424 0.25248 0.0
H1223 H 0.73361 0.57055 0.24576 0.0
C1224 C 0.8287 0.43917 0.39475 0.0
C1225 C 0.81493 0.43375 0.41346 0.0
C1226 C 0.79189 0.40426 0.38162 0.0
C1227 C 0.74018 0.36328 0.38737 0.0
C1228 C 0.72656 0.35668 0.40625 0.0
C1229 C 0.76414 0.3919 0.41905 0.0
C1230 C 0.80772 0.41238 0.36162 0.0
C1231 C 0.67168 0.31319 0.41295 0.0
C1232 C 0.61028 0.29927 0.36099 0.0
C1233 C 0.60064 0.24627 0.35974 0.0
C1234 C 0.65946 0.34051 0.36795 0.0
C1235 C 0.6989 0.32757 0.3739 0.0
C1236 C 0.6917 0.27551 0.37042 0.0
C1237 C 0.64214 0.23511 0.36343 0.0
C1238 C 0.66599 0.39579 0.37116 0.0
C1239 C 0.73319 0.26044 0.37628 0.0
H1240 H 0.86784 0.47149 0.39026 0.0
H1241 H 0.75311 0.38728 0.43344 0.0
H1242 H 0.79689 0.37318 0.35502 0.0
H1243 H 0.78517 0.42919 0.35439 0.0
H1244 H 0.8517 0.44069 0.3597 0.0
H1245 H 0.66803 0.3129 0.42812 0.0
H1246 H 0.63957 0.31952 0.40691 0.0
H1247 H 0.66397 0.27274 0.40847 0.0
H1248 H 0.57757 0.30732 0.35827 0.0
H1249 H 0.63397 0.19368 0.36259 0.0
H1250 H 0.70797 0.42821 0.36819 0.0
H1251 H 0.65751 0.3995 0.38578 0.0
H1252 H 0.63765 0.40244 0.36258 0.0
H1253 H 0.77482 0.29383 0.37342 0.0
H1254 H 0.72702 0.22318 0.36925 0.0
H1255 H 0.72975 0.25289 0.39128 0.0
C1256 C 0.34655 0.71088 0.64132 0.0
C1257 C 0.29448 0.70338 0.6395 0.0
C1258 C 0.35918 0.67327 0.63378 0.0
C1259 C 0.31837 0.6273 0.62451 0.0
C1260 C 0.26416 0.6162 0.62495 0.0
C1261 C 0.25299 0.65502 0.63222 0.0
C1262 C 0.41737 0.68638 0.63368 0.0
C1263 C 0.21915 0.56675 0.61575 0.0
C1264 C 0.35416 0.58622 0.57968 0.0
C1265 C 0.35566 0.5397 0.58475 0.0
C1266 C 0.34393 0.61604 0.59272 0.0
C1267 C 0.33374 0.59806 0.61119 0.0
C1268 C 0.3359 0.55145 0.61645 0.0
C1269 C 0.34735 0.52301 0.60315 0.0
C1270 C 0.34263 0.66604 0.5866 0.0
C1271 C 0.32388 0.53031 0.63587 0.0
H1272 H 0.37861 0.74879 0.6468 0.0
H1273 H 0.21274 0.64966 0.63081 0.0
H1274 H 0.42028 0.64945 0.63596 0.0
H1275 H 0.43546 0.70312 0.62008 0.0
H1276 H 0.44163 0.71684 0.64432 0.0
H1277 H 0.17869 0.55848 0.62049 0.0
H1278 H 0.22156 0.57331 0.60069 0.0
H1279 H 0.22297 0.53049 0.61841 0.0
H1280 H 0.36063 0.59911 0.56546 0.0
H1281 H 0.3476 0.48641 0.60703 0.0
H1282 H 0.37009 0.70121 0.59523 0.0
H1283 H 0.30117 0.65961 0.58828 0.0
H1284 H 0.3548 0.67633 0.57202 0.0
H1285 H 0.34689 0.56347 0.64581 0.0
H1286 H 0.33372 0.49767 0.6382 0.0
H1287 H 0.28026 0.51383 0.6388 0.0
C1288 C 0.59294 0.38283 0.74841 0.0
C1289 C 0.54538 0.38205 0.74324 0.0
C1290 C 0.62256 0.3714 0.73566 0.0
C1291 C 0.6034 0.35774 0.7174 0.0
C1292 C 0.55636 0.35866 0.71193 0.0
C1293 C 0.52806 0.3713 0.72492 0.0
C1294 C 0.67307 0.37156 0.74198 0.0
C1295 C 0.53429 0.34345 0.6927 0.0
C1296 C 0.71203 0.35953 0.68761 0.0
C1297 C 0.70292 0.30732 0.69097 0.0
C1298 C 0.67634 0.37561 0.69456 0.0
C1299 C 0.63066 0.3381 0.70479 0.0
C1300 C 0.61782 0.28336 0.70599 0.0
C1301 C 0.65472 0.26879 0.69927 0.0
C1302 C 0.69122 0.43421 0.69289 0.0
C1303 C 0.56863 0.24169 0.71632 0.0
H1304 H 0.60642 0.39135 0.76253 0.0
H1305 H 0.49082 0.37 0.72095 0.0
H1306 H 0.66637 0.32972 0.74159 0.0
H1307 H 0.70736 0.39669 0.73266 0.0
H1308 H 0.68478 0.38737 0.75616 0.0
H1309 H 0.50131 0.35255 0.69005 0.0
H1310 H 0.56687 0.36514 0.68245 0.0
H1311 H 0.51806 0.29945 0.69059 0.0
H1312 H 0.74976 0.38933 0.68132 0.0
H1313 H 0.64802 0.22838 0.70183 0.0
H1314 H 0.71048 0.45559 0.70585 0.0
H1315 H 0.65481 0.43801 0.69066 0.0
H1316 H 0.72021 0.4548 0.68149 0.0
H1317 H 0.57625 0.24819 0.73128 0.0
H1318 H 0.5591 0.19976 0.71304 0.0
H1319 H 0.53276 0.24566 0.71313 0.0
C1320 C 0.4414 0.8401 0.93858 0.0
C1321 C 0.4274 0.8336 0.91989 0.0
C1322 C 0.40936 0.80044 0.95147 0.0
C1323 C 0.36216 0.75347 0.94551 0.0
C1324 C 0.34579 0.74853 0.92692 0.0
C1325 C 0.37877 0.78859 0.91432 0.0
C1326 C 0.42832 0.80718 0.97111 0.0
C1327 C 0.29519 0.69921 0.92008 0.0
C1328 C 0.30935 0.61334 0.96406 0.0
C1329 C 0.2602 0.6034 0.97161 0.0
C1330 C 0.34644 0.66466 0.95732 0.0
C1331 C 0.33305 0.70626 0.95786 0.0
C1332 C 0.2862 0.69791 0.96737 0.0
C1333 C 0.25005 0.64614 0.97422 0.0
C1334 C 0.39672 0.67234 0.94772 0.0
C1335 C 0.27117 0.74161 0.9685 0.0
H1336 H 0.47902 0.87474 0.94305 0.0
H1337 H 0.36745 0.78359 0.89996 0.0
H1338 H 0.39379 0.7917 0.98081 0.0
H1339 H 0.44917 0.7836 0.97334 0.0
H1340 H 0.45727 0.85024 0.97442 0.0
H1341 H 0.28555 0.70399 0.90568 0.0
H1342 H 0.30055 0.66327 0.9208 0.0
H1343 H 0.26011 0.69092 0.92886 0.0
H1344 H 0.31667 0.57982 0.96202 0.0
H1345 H 0.21152 0.63791 0.9799 0.0
H1346 H 0.43236 0.71162 0.95159 0.0
H1347 H 0.39129 0.67279 0.93266 0.0
H1348 H 0.40534 0.63931 0.951 0.0
H1349 H 0.30731 0.78163 0.97129 0.0
H1350 H 0.24044 0.73279 0.97933 0.0
H1351 H 0.25409 0.74445 0.95515 0.0
C1352 C 0.64804 0.17966 0.0626 0.0
C1353 C 0.64264 0.18861 0.08124 0.0
C1354 C 0.65452 0.21781 0.04924 0.0
C1355 C 0.65515 0.26568 0.05469 0.0
C1356 C 0.64875 0.27446 0.07345 0.0
C1357 C 0.64292 0.23593 0.08651 0.0
C1358 C 0.66241 0.20762 0.02946 0.0
C1359 C 0.64889 0.32504 0.07979 0.0
C1360 C 0.7224 0.40096 0.0315 0.0
C1361 C 0.67701 0.40406 0.02612 0.0
C1362 C 0.71654 0.35296 0.03885 0.0
C1363 C 0.66392 0.30796 0.04113 0.0
C1364 C 0.61877 0.30909 0.03358 0.0
C1365 C 0.62594 0.35755 0.02611 0.0
C1366 C 0.76588 0.35294 0.04629 0.0
C1367 C 0.56215 0.26164 0.03553 0.0
H1368 H 0.64872 0.14346 0.05846 0.0
H1369 H 0.63868 0.24292 0.10088 0.0
H1370 H 0.63638 0.21595 0.0203 0.0
H1371 H 0.70501 0.23545 0.0254 0.0
H1372 H 0.65335 0.16536 0.02716 0.0
H1373 H 0.64154 0.32466 0.09477 0.0
H1374 H 0.68847 0.36125 0.07657 0.0
H1375 H 0.61727 0.3294 0.07242 0.0
H1376 H 0.76181 0.43743 0.03158 0.0
H1377 H 0.59092 0.36057 0.02211 0.0
H1378 H 0.76372 0.31355 0.04372 0.0
H1379 H 0.76792 0.35928 0.06136 0.0
H1380 H 0.80376 0.38577 0.04013 0.0
H1381 H 0.56131 0.22289 0.03288 0.0
H1382 H 0.53349 0.26491 0.02603 0.0
H1383 H 0.54785 0.26029 0.04978 0.0
C1384 C 0.38583 0.69404 0.3029 0.0
C1385 C 0.39283 0.64891 0.30311 0.0
C1386 C 0.33822 0.68987 0.29587 0.0
C1387 C 0.29769 0.6395 0.28881 0.0
C1388 C 0.30203 0.59253 0.29127 0.0
C1389 C 0.35004 0.59794 0.29834 0.0
C1390 C 0.33475 0.74074 0.29377 0.0
C1391 C 0.25945 0.53799 0.28412 0.0
C1392 C 0.17018 0.62597 0.26766 0.0
C1393 C 0.18475 0.6353 0.24903 0.0
C1394 C 0.2065 0.62745 0.2809 0.0
C1395 C 0.25838 0.63832 0.27533 0.0
C1396 C 0.2733 0.6476 0.25658 0.0
C1397 C 0.2363 0.646 0.24367 0.0
C1398 C 0.18954 0.61767 0.30079 0.0
C1399 C 0.32849 0.65937 0.25009 0.0
H1400 H 0.41956 0.73352 0.30644 0.0
H1401 H 0.35621 0.56332 0.29837 0.0
H1402 H 0.34642 0.75631 0.27958 0.0
H1403 H 0.2929 0.7325 0.29613 0.0
H1404 H 0.36244 0.77291 0.3034 0.0
H1405 H 0.26325 0.5045 0.29039 0.0
H1406 H 0.2182 0.53102 0.28682 0.0
H1407 H 0.26413 0.53665 0.26905 0.0
H1408 H 0.13053 0.61804 0.27199 0.0
H1409 H 0.24796 0.65334 0.22935 0.0
H1410 H 0.21767 0.65317 0.30917 0.0
H1411 H 0.19177 0.58232 0.30605 0.0
H1412 H 0.14775 0.61013 0.30287 0.0
H1413 H 0.36047 0.69614 0.25701 0.0
H1414 H 0.33362 0.66579 0.23503 0.0
H1415 H 0.33496 0.62523 0.25374 0.0
loop_
_geom_bond_atom_site_label_1
_geom_bond_atom_site_label_2
_geom_bond_distance
_geom_bond_site_symmetry_2
_ccdc_geom_bond_type
Sc0 O3 2.025 . S
Sc0 O10 2.105 . S
Sc0 O13 2.105 . S
Sc0 O16 2.105 . S
Sc0 O19 2.105 . S
Sc1 O3 2.025 . S
Sc1 O11 2.105 . S
Sc1 O15 2.105 . S
Sc1 O17 2.105 . S
Sc1 O21 2.105 . S
Sc2 O3 2.025 . S
Sc2 O12 2.105 . S
Sc2 O14 2.105 . S
Sc2 O18 2.105 . S
Sc2 O20 2.105 . S
O3 Sc0 2.025 . S
O3 Sc1 2.025 . S
O3 Sc2 2.025 . S
C4 O10 1.268 . S
C4 O20 1.268 . S
C5 O11 1.268 . S
C5 O19 1.268 . S
C6 O12 1.268 . S
C6 O21 1.268 . S
C7 O13 1.268 . S
C7 O17 1.268 . S
C8 O14 1.268 . S
C8 O16 1.268 . S
C9 O15 1.268 . S
C9 O18 1.268 . S
O10 Sc0 2.105 . S
O10 C4 1.268 . S
O11 Sc1 2.105 . S
O11 C5 1.268 . S
O12 Sc2 2.105 . S
O12 C6 1.268 . S
O13 Sc0 2.105 . S
O13 C7 1.268 . S
O14 Sc2 2.105 . S
O14 C8 1.268 . S
O15 Sc1 2.105 . S
O15 C9 1.268 . S
O16 Sc0 2.105 . S
O16 C8 1.268 . S
O17 Sc1 2.105 . S
O17 C7 1.268 . S
O18 Sc2 2.105 . S
O18 C9 1.268 . S
O19 Sc0 2.105 . S
O19 C5 1.268 . S
O20 Sc2 2.105 . S
O20 C4 1.268 . S
O21 Sc1 2.105 . S
O21 C6 1.268 . S
Sc22 O25 2.025 . S
Sc22 O32 2.105 . S
Sc22 O35 2.105 . S
Sc22 O38 2.105 . S
Sc22 O41 2.105 . S
Sc23 O25 2.025 . S
Sc23 O33 2.105 . S
Sc23 O37 2.105 . S
Sc23 O39 2.105 . S
Sc23 O43 2.105 . S
Sc24 O25 2.025 . S
Sc24 O34 2.105 . S
Sc24 O36 2.105 . S
Sc24 O40 2.105 . S
Sc24 O42 2.105 . S
O25 Sc22 2.025 . S
O25 Sc23 2.025 . S
O25 Sc24 2.025 . S
C26 O32 1.268 . S
C26 O42 1.268 . S
C27 O33 1.268 . S
C27 O41 1.268 . S
C28 O34 1.268 . S
C28 O43 1.268 . S
C29 O35 1.268 . S
C29 O39 1.268 . S
C30 O36 1.268 . S
C30 O38 1.268 . S
C31 O37 1.268 . S
C31 O40 1.268 . S
O32 Sc22 2.105 . S
O32 C26 1.268 . S
O33 Sc23 2.105 . S
O33 C27 1.268 . S
O34 Sc24 2.105 . S
O34 C28 1.268 . S
O35 Sc22 2.105 . S
O35 C29 1.268 . S
O36 Sc24 2.105 . S
O36 C30 1.268 . S
O37 Sc23 2.105 . S
O37 C31 1.268 . S
O38 Sc22 2.105 . S
O38 C30 1.268 . S
O39 Sc23 2.105 . S
O39 C29 1.268 . S
O40 Sc24 2.105 . S
O40 C31 1.268 . S
O41 Sc22 2.105 . S
O41 C27 1.268 . S
O42 Sc24 2.105 . S
O42 C26 1.268 . S
O43 Sc23 2.105 . S
O43 C28 1.268 . S
Sc44 O47 2.025 . S
Sc44 O54 2.105 . S
Sc44 O57 2.105 . S
Sc44 O60 2.105 . S
Sc44 O63 2.105 . S
Sc45 O47 2.025 . S
Sc45 O55 2.105 . S
Sc45 O59 2.105 . S
Sc45 O61 2.105 . S
Sc45 O65 2.105 . S
Sc46 O47 2.025 . S
Sc46 O56 2.105 . S
Sc46 O58 2.105 . S
Sc46 O62 2.105 . S
Sc46 O64 2.105 . S
O47 Sc44 2.025 . S
O47 Sc45 2.025 . S
O47 Sc46 2.025 . S
C48 O54 1.268 . S
C48 O64 1.268 . S
C49 O55 1.268 . S
C49 O63 1.268 . S
C50 O56 1.268 . S
C50 O65 1.268 . S
C51 O57 1.268 . S
C51 O61 1.268 . S
C52 O58 1.268 . S
C52 O60 1.268 . S
C53 O59 1.268 . S
C53 O62 1.268 . S
O54 Sc44 2.105 . S
O54 C48 1.268 . S
O55 Sc45 2.105 . S
O55 C49 1.268 . S
O56 Sc46 2.105 . S
O56 C50 1.268 . S
O57 Sc44 2.105 . S
O57 C51 1.268 . S
O58 Sc46 2.105 . S
O58 C52 1.268 . S
O59 Sc45 2.105 . S
O59 C53 1.268 . S
O60 Sc44 2.105 . S
O60 C52 1.268 . S
O61 Sc45 2.105 . S
O61 C51 1.268 . S
O62 Sc46 2.105 . S
O62 C53 1.268 . S
O63 Sc44 2.105 . S
O63 C49 1.268 . S
O64 Sc46 2.105 . S
O64 C48 1.268 . S
O65 Sc45 2.105 . S
O65 C50 1.268 . S
Sc66 O69 2.025 . S
Sc66 O76 2.105 . S
Sc66 O79 2.105 . S
Sc66 O82 2.105 . S
Sc66 O85 2.105 . S
Sc67 O69 2.025 . S
Sc67 O77 2.105 . S
Sc67 O81 2.105 . S
Sc67 O83 2.105 . S
Sc67 O87 2.105 . S
Sc68 O69 2.025 . S
Sc68 O78 2.105 . S
Sc68 O80 2.105 . S
Sc68 O84 2.105 . S
Sc68 O86 2.105 . S
O69 Sc66 2.025 . S
O69 Sc67 2.025 . S
O69 Sc68 2.025 . S
C70 O76 1.268 . S
C70 O86 1.268 . S
C71 O77 1.268 . S
C71 O85 1.268 . S
C72 O78 1.268 . S
C72 O87 1.268 . S
C73 O79 1.268 . S
C73 O83 1.268 . S
C74 O80 1.268 . S
C74 O82 1.268 . S
C75 O81 1.268 . S
C75 O84 1.268 . S
O76 Sc66 2.105 . S
O76 C70 1.268 . S
O77 Sc67 2.105 . S
O77 C71 1.268 . S
O78 Sc68 2.105 . S
O78 C72 1.268 . S
O79 Sc66 2.105 . S
O79 C73 1.268 . S
O80 Sc68 2.105 . S
O80 C74 1.268 . S
O81 Sc67 2.105 . S
O81 C75 1.268 . S
O82 Sc66 2.105 . S
O82 C74 1.268 . S
O83 Sc67 2.105 . S
O83 C73 1.268 . S
O84 Sc68 2.105 . S
O84 C75 1.268 . S
O85 Sc66 2.105 . S
O85 C71 1.268 . S
O86 Sc68 2.105 . S
O86 C70 1.268 . S
O87 Sc67 2.105 . S
O87 C72 1.268 . S
Sc88 O91 2.025 . S
Sc88 O98 2.105 . S
Sc88 O101 2.105 . S
Sc88 O104 2.105 . S
Sc88 O107 2.105 1_554 S
Sc89 O91 2.025 . S
Sc89 O99 2.105 . S
Sc89 O103 2.105 . S
Sc89 O105 2.105 . S
Sc89 O109 2.105 . S
Sc90 O91 2.025 . S
Sc90 O100 2.105 . S
Sc90 O102 2.105 . S
Sc90 O106 2.105 . S
Sc90 O108 2.105 . S
O91 Sc88 2.025 . S
O91 Sc89 2.025 . S
O91 Sc90 2.025 . S
C92 O98 1.268 . S
C92 O108 1.268 . S
C93 O99 1.268 1_556 S
C93 O107 1.268 . S
C94 O100 1.268 . S
C94 O109 1.268 . S
C95 O101 1.268 . S
C95 O105 1.268 . S
C96 O102 1.268 . S
C96 O104 1.268 . S
C97 O103 1.268 . S
C97 O106 1.268 . S
O98 Sc88 2.105 . S
O98 C92 1.268 . S
O99 Sc89 2.105 . S
O99 C93 1.268 1_554 S
O100 Sc90 2.105 . S
O100 C94 1.268 . S
O101 Sc88 2.105 . S
O101 C95 1.268 . S
O102 Sc90 2.105 . S
O102 C96 1.268 . S
O103 Sc89 2.105 . S
O103 C97 1.268 . S
O104 Sc88 2.105 . S
O104 C96 1.268 . S
O105 Sc89 2.105 . S
O105 C95 1.268 . S
O106 Sc90 2.105 . S
O106 C97 1.268 . S
O107 Sc88 2.105 1_556 S
O107 C93 1.268 . S
O108 Sc90 2.105 . S
O108 C92 1.268 . S
O109 Sc89 2.105 . S
O109 C94 1.268 . S
Sc110 O113 2.025 . S
Sc110 O120 2.105 . S
Sc110 O123 2.105 . S
Sc110 O126 2.105 . S
Sc110 O129 2.105 . S
Sc111 O113 2.025 . S
Sc111 O121 2.105 . S
Sc111 O125 2.105 . S
Sc111 O127 2.105 . S
Sc111 O131 2.105 . S
Sc112 O113 2.025 . S
Sc112 O122 2.105 . S
Sc112 O124 2.105 . S
Sc112 O128 2.105 . S
Sc112 O130 2.105 . S
O113 Sc110 2.025 . S
O113 Sc111 2.025 . S
O113 Sc112 2.025 . S
C114 O120 1.268 . S
C114 O130 1.268 . S
C115 O121 1.268 . S
C115 O129 1.268 . S
C116 O122 1.268 . S
C116 O131 1.268 . S
C117 O123 1.268 . S
C117 O127 1.268 . S
C118 O124 1.268 . S
C118 O126 1.268 . S
C119 O125 1.268 . S
C119 O128 1.268 . S
O120 Sc110 2.105 . S
O120 C114 1.268 . S
O121 Sc111 2.105 . S
O121 C115 1.268 . S
O122 Sc112 2.105 . S
O122 C116 1.268 . S
O123 Sc110 2.105 . S
O123 C117 1.268 . S
O124 Sc112 2.105 . S
O124 C118 1.268 . S
O125 Sc111 2.105 . S
O125 C119 1.268 . S
O126 Sc110 2.105 . S
O126 C118 1.268 . S
O127 Sc111 2.105 . S
O127 C117 1.268 . S
O128 Sc112 2.105 . S
O128 C119 1.268 . S
O129 Sc110 2.105 . S
O129 C115 1.268 . S
O130 Sc112 2.105 . S
O130 C114 1.268 . S
O131 Sc111 2.105 . S
O131 C116 1.268 . S
Sc132 O135 2.025 . S
Sc132 O142 2.105 . S
Sc132 O145 2.105 . S
Sc132 O148 2.105 . S
Sc132 O151 2.105 . S
Sc133 O135 2.025 . S
Sc133 O143 2.105 . S
Sc133 O147 2.105 . S
Sc133 O149 2.105 . S
Sc133 O153 2.105 . S
Sc134 O135 2.025 . S
Sc134 O144 2.105 . S
Sc134 O146 2.105 . S
Sc134 O150 2.105 . S
Sc134 O152 2.105 . S
O135 Sc132 2.025 . S
O135 Sc133 2.025 . S
O135 Sc134 2.025 . S
C136 O142 1.268 . S
C136 O152 1.268 . S
C137 O143 1.268 . S
C137 O151 1.268 . S
C138 O144 1.268 . S
C138 O153 1.268 . S
C139 O145 1.268 . S
C139 O149 1.268 . S
C140 O146 1.268 . S
C140 O148 1.268 . S
C141 O147 1.268 . S
C141 O150 1.268 . S
O142 Sc132 2.105 . S
O142 C136 1.268 . S
O143 Sc133 2.105 . S
O143 C137 1.268 . S
O144 Sc134 2.105 . S
O144 C138 1.268 . S
O145 Sc132 2.105 . S
O145 C139 1.268 . S
O146 Sc134 2.105 . S
O146 C140 1.268 . S
O147 Sc133 2.105 . S
O147 C141 1.268 . S
O148 Sc132 2.105 . S
O148 C140 1.268 . S
O149 Sc133 2.105 . S
O149 C139 1.268 . S
O150 Sc134 2.105 . S
O150 C141 1.268 . S
O151 Sc132 2.105 . S
O151 C137 1.268 . S
O152 Sc134 2.105 . S
O152 C136 1.268 . S
O153 Sc133 2.105 . S
O153 C138 1.268 . S
Sc154 O157 2.025 . S
Sc154 O164 2.105 . S
Sc154 O167 2.105 . S
Sc154 O170 2.105 . S
Sc154 O173 2.105 . S
Sc155 O157 2.025 . S
Sc155 O165 2.105 . S
Sc155 O169 2.105 . S
Sc155 O171 2.105 . S
Sc155 O175 2.105 . S
Sc156 O157 2.025 . S
Sc156 O166 2.105 . S
Sc156 O168 2.105 . S
Sc156 O172 2.105 . S
Sc156 O174 2.105 . S
O157 Sc154 2.025 . S
O157 Sc155 2.025 . S
O157 Sc156 2.025 . S
C158 O164 1.268 . S
C158 O174 1.268 . S
C159 O165 1.268 . S
C159 O173 1.268 . S
C160 O166 1.268 . S
C160 O175 1.268 . S
C161 O167 1.268 . S
C161 O171 1.268 . S
C162 O168 1.268 . S
C162 O170 1.268 . S
C163 O169 1.268 . S
C163 O172 1.268 . S
O164 Sc154 2.105 . S
O164 C158 1.268 . S
O165 Sc155 2.105 . S
O165 C159 1.268 . S
O166 Sc156 2.105 . S
O166 C160 1.268 . S
O167 Sc154 2.105 . S
O167 C161 1.268 . S
O168 Sc156 2.105 . S
O168 C162 1.268 . S
O169 Sc155 2.105 . S
O169 C163 1.268 . S
O170 Sc154 2.105 . S
O170 C162 1.268 . S
O171 Sc155 2.105 . S
O171 C161 1.268 . S
O172 Sc156 2.105 . S
O172 C163 1.268 . S
O173 Sc154 2.105 . S
O173 C159 1.268 . S
O174 Sc156 2.105 . S
O174 C158 1.268 . S
O175 Sc155 2.105 . S
O175 C160 1.268 . S
Sc176 O179 2.025 . S
Sc176 O186 2.105 . S
Sc176 O189 2.105 . S
Sc176 O192 2.105 . S
Sc176 O195 2.105 . S
Sc177 O179 2.025 . S
Sc177 O187 2.105 . S
Sc177 O191 2.105 . S
Sc177 O193 2.105 . S
Sc177 O197 2.105 . S
Sc178 O179 2.025 . S
Sc178 O188 2.105 . S
Sc178 O190 2.105 . S
Sc178 O194 2.105 . S
Sc178 O196 2.105 . S
O179 Sc176 2.025 . S
O179 Sc177 2.025 . S
O179 Sc178 2.025 . S
C180 O186 1.268 . S
C180 O196 1.268 . S
C181 O187 1.268 . S
C181 O195 1.268 . S
C182 O188 1.268 . S
C182 O197 1.268 . S
C183 O189 1.268 . S
C183 O193 1.268 . S
C184 O190 1.268 . S
C184 O192 1.268 . S
C185 O191 1.268 . S
C185 O194 1.268 . S
O186 Sc176 2.105 . S
O186 C180 1.268 . S
O187 Sc177 2.105 . S
O187 C181 1.268 . S
O188 Sc178 2.105 . S
O188 C182 1.268 . S
O189 Sc176 2.105 . S
O189 C183 1.268 . S
O190 Sc178 2.105 . S
O190 C184 1.268 . S
O191 Sc177 2.105 . S
O191 C185 1.268 . S
O192 Sc176 2.105 . S
O192 C184 1.268 . S
O193 Sc177 2.105 . S
O193 C183 1.268 . S
O194 Sc178 2.105 . S
O194 C185 1.268 . S
O195 Sc176 2.105 . S
O195 C181 1.268 . S
O196 Sc178 2.105 . S
O196 C180 1.268 . S
O197 Sc177 2.105 . S
O197 C182 1.268 . S
Sc198 O201 2.025 . S
Sc198 O208 2.105 . S
Sc198 O211 2.105 . S
Sc198 O214 2.105 . S
Sc198 O217 2.105 . S
Sc199 O201 2.025 . S
Sc199 O209 2.105 . S
Sc199 O213 2.105 . S
Sc199 O215 2.105 . S
Sc199 O219 2.105 . S
Sc200 O201 2.025 . S
Sc200 O210 2.105 . S
Sc200 O212 2.105 . S
Sc200 O216 2.095 1_556 S
Sc200 O218 2.105 . S
O201 Sc198 2.025 . S
O201 Sc199 2.025 . S
O201 Sc200 2.025 . S
C202 O208 1.268 . S
C202 O218 1.268 . S
C203 O209 1.268 . S
C203 O217 1.268 . S
C204 O210 1.268 . S
C204 O219 1.268 . S
C205 O211 1.268 . S
C205 O215 1.268 . S
C206 O212 1.268 . S
C206 O214 1.268 . S
C207 O213 1.231 1_554 S
C207 O216 1.267 . S
O208 Sc198 2.105 . S
O208 C202 1.268 . S
O209 Sc199 2.105 . S
O209 C203 1.268 . S
O210 Sc200 2.105 . S
O210 C204 1.268 . S
O211 Sc198 2.105 . S
O211 C205 1.268 . S
O212 Sc200 2.105 . S
O212 C206 1.268 . S
O213 Sc199 2.105 . S
O213 C207 1.231 1_556 S
O214 Sc198 2.105 . S
O214 C206 1.268 . S
O215 Sc199 2.105 . S
O215 C205 1.268 . S
O216 Sc200 2.095 1_554 S
O216 C207 1.267 . S
O217 Sc198 2.105 . S
O217 C203 1.268 . S
O218 Sc200 2.105 . S
O218 C202 1.268 . S
O219 Sc199 2.105 . S
O219 C204 1.268 . S
Sc220 O223 2.025 . S
Sc220 O230 2.105 . S
Sc220 O233 2.105 . S
Sc220 O236 2.105 . S
Sc220 O239 2.105 . S
Sc221 O223 2.025 . S
Sc221 O231 2.105 . S
Sc221 O235 2.105 . S
Sc221 O237 2.105 . S
Sc221 O241 2.105 . S
Sc222 O223 2.025 . S
Sc222 O232 2.105 . S
Sc222 O234 2.105 . S
Sc222 O238 2.105 . S
Sc222 O240 2.105 . S
O223 Sc220 2.025 . S
O223 Sc221 2.025 . S
O223 Sc222 2.025 . S
C224 O230 1.268 . S
C224 O240 1.268 . S
C225 O231 1.268 . S
C225 O239 1.268 . S
C226 O232 1.268 . S
C226 O241 1.268 . S
C227 O233 1.268 . S
C227 O237 1.268 . S
C228 O234 1.268 . S
C228 O236 1.268 . S
C229 O235 1.268 . S
C229 O238 1.268 . S
O230 Sc220 2.105 . S
O230 C224 1.268 . S
O231 Sc221 2.105 . S
O231 C225 1.268 . S
O232 Sc222 2.105 . S
O232 C226 1.268 . S
O233 Sc220 2.105 . S
O233 C227 1.268 . S
O234 Sc222 2.105 . S
O234 C228 1.268 . S
O235 Sc221 2.105 . S
O235 C229 1.268 . S
O236 Sc220 2.105 . S
O236 C228 1.268 . S
O237 Sc221 2.105 . S
O237 C227 1.268 . S
O238 Sc222 2.105 . S
O238 C229 1.268 . S
O239 Sc220 2.105 . S
O239 C225 1.268 . S
O240 Sc222 2.105 . S
O240 C224 1.268 . S
O241 Sc221 2.105 . S
O241 C226 1.268 . S
Sc242 O245 2.025 . S
Sc242 O252 2.105 . S
Sc242 O255 2.105 . S
Sc242 O258 2.105 . S
Sc242 O261 2.105 . S
Sc243 O245 2.025 . S
Sc243 O253 2.105 . S
Sc243 O257 2.105 . S
Sc243 O259 2.105 . S
Sc243 O263 2.105 . S
Sc244 O245 2.025 . S
Sc244 O254 2.105 . S
Sc244 O256 2.105 . S
Sc244 O260 2.105 . S
Sc244 O262 2.105 . S
O245 Sc242 2.025 . S
O245 Sc243 2.025 . S
O245 Sc244 2.025 . S
C246 O252 1.268 . S
C246 O262 1.268 . S
C247 O253 1.268 . S
C247 O261 1.268 . S
C248 O254 1.268 . S
C248 O263 1.268 . S
C249 O255 1.268 . S
C249 O259 1.268 . S
C250 O256 1.268 . S
C250 O258 1.268 . S
C251 O257 1.268 . S
C251 O260 1.268 . S
O252 Sc242 2.105 . S
O252 C246 1.268 . S
O253 Sc243 2.105 . S
O253 C247 1.268 . S
O254 Sc244 2.105 . S
O254 C248 1.268 . S
O255 Sc242 2.105 . S
O255 C249 1.268 . S
O256 Sc244 2.105 . S
O256 C250 1.268 . S
O257 Sc243 2.105 . S
O257 C251 1.268 . S
O258 Sc242 2.105 . S
O258 C250 1.268 . S
O259 Sc243 2.105 . S
O259 C249 1.268 . S
O260 Sc244 2.105 . S
O260 C251 1.268 . S
O261 Sc242 2.105 . S
O261 C247 1.268 . S
O262 Sc244 2.105 . S
O262 C246 1.268 . S
O263 Sc243 2.105 . S
O263 C248 1.268 . S
C264 C265 1.391 . S
C264 C266 1.394 . S
C264 H280 0.931 . S
C265 C264 1.391 . S
C265 C269 1.376 . S
C266 C264 1.394 . S
C266 C267 1.369 . S
C266 C270 1.531 . S
C267 C266 1.369 . S
C267 C268 1.410 . S
C267 C275 1.503 . S
C268 C267 1.410 . S
C268 C269 1.392 . S
C268 C271 1.511 . S
C269 C265 1.376 . S
C269 C268 1.392 . S
C269 H281 0.929 . S
C270 C266 1.531 . S
C270 H282 0.960 . S
C270 H283 0.962 . S
C270 H284 0.960 . S
C271 C268 1.511 . S
C271 H285 0.961 . S
C271 H286 0.961 . S
C271 H287 0.961 . S
C272 C273 1.370 1_565 S
C272 C274 1.363 . S
C272 H288 0.931 . S
C273 C272 1.370 1_545 S
C273 C277 1.408 . S
C274 C272 1.363 . S
C274 C275 1.370 . S
C274 C278 1.524 . S
C275 C267 1.503 . S
C275 C274 1.370 . S
C275 C276 1.403 1_565 S
C276 C275 1.403 1_545 S
C276 C277 1.404 . S
C276 C279 1.539 . S
C277 C273 1.408 . S
C277 C276 1.404 . S
C277 H289 0.930 . S
C278 C274 1.524 . S
C278 H290 0.956 . S
C278 H291 0.961 . S
C278 H292 0.961 . S
C279 C276 1.539 . S
C279 H293 0.958 . S
C279 H294 0.961 . S
C279 H295 0.960 . S
H280 C264 0.931 . S
H281 C269 0.929 . S
H282 C270 0.960 . S
H283 C270 0.962 . S
H284 C270 0.960 . S
H285 C271 0.961 . S
H286 C271 0.961 . S
H287 C271 0.961 . S
H288 C272 0.931 . S
H289 C277 0.930 . S
H290 C278 0.956 . S
H291 C278 0.961 . S
H292 C278 0.961 . S
H293 C279 0.958 . S
H294 C279 0.961 . S
H295 C279 0.960 . S
C296 C297 1.391 . S
C296 C298 1.394 . S
C296 H312 0.931 . S
C297 C296 1.391 . S
C297 C301 1.376 . S
C298 C296 1.394 . S
C298 C299 1.369 . S
C298 C302 1.531 . S
C299 C298 1.369 . S
C299 C300 1.410 . S
C299 C307 1.503 . S
C300 C299 1.410 . S
C300 C301 1.392 . S
C300 C303 1.511 . S
C301 C297 1.376 . S
C301 C300 1.392 . S
C301 H313 0.929 . S
C302 C298 1.531 . S
C302 H314 0.960 . S
C302 H315 0.962 . S
C302 H316 0.960 . S
C303 C300 1.511 . S
C303 H317 0.961 . S
C303 H318 0.961 . S
C303 H319 0.961 . S
C304 C305 1.370 . S
C304 C306 1.363 . S
C304 H320 0.931 . S
C305 C304 1.370 . S
C305 C309 1.408 . S
C306 C304 1.363 . S
C306 C307 1.370 . S
C306 C310 1.524 . S
C307 C299 1.503 . S
C307 C306 1.370 . S
C307 C308 1.403 . S
C308 C307 1.403 . S
C308 C309 1.404 . S
C308 C311 1.539 . S
C309 C305 1.408 . S
C309 C308 1.404 . S
C309 H321 0.930 . S
C310 C306 1.524 . S
C310 H322 0.956 . S
C310 H323 0.961 . S
C310 H324 0.961 . S
C311 C308 1.539 . S
C311 H325 0.958 . S
C311 H326 0.961 . S
C311 H327 0.960 . S
H312 C296 0.931 . S
H313 C301 0.929 . S
H314 C302 0.960 . S
H315 C302 0.962 . S
H316 C302 0.960 . S
H317 C303 0.961 . S
H318 C303 0.961 . S
H319 C303 0.961 . S
H320 C304 0.931 . S
H321 C309 0.930 . S
H322 C310 0.956 . S
H323 C310 0.961 . S
H324 C310 0.961 . S
H325 C311 0.958 . S
H326 C311 0.961 . S
H327 C311 0.960 . S
C328 C329 1.391 1_455 S
C328 C330 1.394 . S
C328 H344 0.931 . S
C329 C328 1.391 1_655 S
C329 C333 1.376 . S
C330 C328 1.394 . S
C330 C331 1.369 . S
C330 C334 1.531 . S
C331 C330 1.369 . S
C331 C332 1.410 1_455 S
C331 C339 1.503 . S
C332 C331 1.410 1_655 S
C332 C333 1.392 . S
C332 C335 1.511 . S
C333 C329 1.376 . S
C333 C332 1.392 . S
C333 H345 0.929 . S
C334 C330 1.531 . S
C334 H346 0.960 . S
C334 H347 0.962 . S
C334 H348 0.960 . S
C335 C332 1.511 . S
C335 H349 0.961 . S
C335 H350 0.961 . S
C335 H351 0.961 . S
C336 C337 1.370 . S
C336 C338 1.363 . S
C336 H352 0.931 . S
C337 C336 1.370 . S
C337 C341 1.408 . S
C338 C336 1.363 . S
C338 C339 1.370 . S
C338 C342 1.524 . S
C339 C331 1.503 . S
C339 C338 1.370 . S
C339 C340 1.403 . S
C340 C339 1.403 . S
C340 C341 1.404 . S
C340 C343 1.539 . S
C341 C337 1.408 . S
C341 C340 1.404 . S
C341 H353 0.930 . S
C342 C338 1.524 . S
C342 H354 0.956 . S
C342 H355 0.961 . S
C342 H356 0.961 . S
C343 C340 1.539 . S
C343 H357 0.958 . S
C343 H358 0.961 . S
C343 H359 0.960 . S
H344 C328 0.931 . S
H345 C333 0.929 . S
H346 C334 0.960 . S
H347 C334 0.962 . S
H348 C334 0.960 . S
H349 C335 0.961 . S
H350 C335 0.961 . S
H351 C335 0.961 . S
H352 C336 0.931 . S
H353 C341 0.930 . S
H354 C342 0.956 . S
H355 C342 0.961 . S
H356 C342 0.961 . S
H357 C343 0.958 . S
H358 C343 0.961 . S
H359 C343 0.960 . S
C360 C361 1.391 . S
C360 C362 1.394 . S
C360 H376 0.931 . S
C361 C360 1.391 . S
C361 C365 1.376 . S
C362 C360 1.394 . S
C362 C363 1.369 . S
C362 C366 1.531 . S
C363 C362 1.369 . S
C363 C364 1.410 . S
C363 C371 1.503 . S
C364 C363 1.410 . S
C364 C365 1.392 . S
C364 C367 1.511 . S
C365 C361 1.376 . S
C365 C364 1.392 . S
C365 H377 0.929 . S
C366 C362 1.531 . S
C366 H378 0.960 1_545 S
C366 H379 0.962 . S
C366 H380 0.960 . S
C367 C364 1.511 . S
C367 H381 0.961 . S
C367 H382 0.961 . S
C367 H383 0.961 . S
C368 C369 1.370 1_545 S
C368 C370 1.363 . S
C368 H384 0.931 . S
C369 C368 1.370 1_565 S
C369 C373 1.408 . S
C370 C368 1.363 . S
C370 C371 1.370 . S
C370 C374 1.524 . S
C371 C363 1.503 . S
C371 C370 1.370 . S
C371 C372 1.403 1_545 S
C372 C371 1.403 1_565 S
C372 C373 1.404 . S
C372 C375 1.539 . S
C373 C369 1.408 . S
C373 C372 1.404 . S
C373 H385 0.930 . S
C374 C370 1.524 . S
C374 H386 0.956 . S
C374 H387 0.961 . S
C374 H388 0.961 . S
C375 C372 1.539 . S
C375 H389 0.958 . S
C375 H390 0.961 . S
C375 H391 0.960 1_565 S
H376 C360 0.931 . S
H377 C365 0.929 . S
H378 C366 0.960 1_565 S
H379 C366 0.962 . S
H380 C366 0.960 . S
H381 C367 0.961 . S
H382 C367 0.961 . S
H383 C367 0.961 . S
H384 C368 0.931 . S
H385 C373 0.930 . S
H386 C374 0.956 . S
H387 C374 0.961 . S
H388 C374 0.961 . S
H389 C375 0.958 . S
H390 C375 0.961 . S
H391 C375 0.960 1_545 S
C392 C393 1.391 . S
C392 C394 1.394 . S
C392 H408 0.931 . S
C393 C392 1.391 . S
C393 C397 1.376 . S
C394 C392 1.394 . S
C394 C395 1.369 . S
C394 C398 1.531 . S
C395 C394 1.369 . S
C395 C396 1.410 . S
C395 C403 1.503 . S
C396 C395 1.410 . S
C396 C397 1.392 . S
C396 C399 1.511 . S
C397 C393 1.376 . S
C397 C396 1.392 . S
C397 H409 0.929 . S
C398 C394 1.531 . S
C398 H410 0.960 . S
C398 H411 0.962 . S
C398 H412 0.960 . S
C399 C396 1.511 . S
C399 H413 0.961 . S
C399 H414 0.961 . S
C399 H415 0.961 . S
C400 C401 1.370 . S
C400 C402 1.363 . S
C400 H416 0.891 1_556 S
C401 C400 1.370 . S
C401 C405 1.408 . S
C402 C400 1.363 . S
C402 C403 1.370 . S
C402 C406 1.524 . S
C403 C395 1.503 . S
C403 C402 1.370 . S
C403 C404 1.403 . S
C404 C403 1.403 . S
C404 C405 1.404 . S
C404 C407 1.539 . S
C405 C401 1.408 . S
C405 C404 1.404 . S
C405 H417 0.930 . S
C406 C402 1.524 . S
C406 H418 0.956 . S
C406 H419 0.961 . S
C406 H420 0.961 . S
C407 C404 1.539 . S
C407 H421 0.958 . S
C407 H422 0.961 . S
C407 H423 0.960 . S
H408 C392 0.931 . S
H409 C397 0.929 . S
H410 C398 0.960 . S
H411 C398 0.962 . S
H412 C398 0.960 . S
H413 C399 0.961 . S
H414 C399 0.961 . S
H415 C399 0.961 . S
H416 C400 0.891 1_554 S
H417 C405 0.930 . S
H418 C406 0.956 . S
H419 C406 0.961 . S
H420 C406 0.961 . S
H421 C407 0.958 . S
H422 C407 0.961 . S
H423 C407 0.960 . S
C424 C425 1.391 . S
C424 C426 1.394 1_455 S
C424 H440 0.931 . S
C425 C424 1.391 . S
C425 C429 1.376 . S
C426 C424 1.394 1_655 S
C426 C427 1.369 . S
C426 C430 1.531 . S
C427 C426 1.369 . S
C427 C428 1.410 . S
C427 C435 1.503 . S
C428 C427 1.410 . S
C428 C429 1.392 1_655 S
C428 C431 1.511 . S
C429 C425 1.376 . S
C429 C428 1.392 1_455 S
C429 H441 0.929 . S
C430 C426 1.531 . S
C430 H442 0.960 . S
C430 H443 0.962 . S
C430 H444 0.960 . S
C431 C428 1.511 . S
C431 H445 0.961 . S
C431 H446 0.961 . S
C431 H447 0.961 1_655 S
C432 C433 1.370 . S
C432 C434 1.363 . S
C432 H448 0.931 . S
C433 C432 1.370 . S
C433 C437 1.408 . S
C434 C432 1.363 . S
C434 C435 1.370 . S
C434 C438 1.524 . S
C435 C427 1.503 . S
C435 C434 1.370 . S
C435 C436 1.403 . S
C436 C435 1.403 . S
C436 C437 1.404 . S
C436 C439 1.539 . S
C437 C433 1.408 . S
C437 C436 1.404 . S
C437 H449 0.930 . S
C438 C434 1.524 . S
C438 H450 0.956 . S
C438 H451 0.961 . S
C438 H452 0.961 . S
C439 C436 1.539 . S
C439 H453 0.958 1_655 S
C439 H454 0.961 . S
C439 H455 0.960 1_655 S
H440 C424 0.931 . S
H441 C429 0.929 . S
H442 C430 0.960 . S
H443 C430 0.962 . S
H444 C430 0.960 . S
H445 C431 0.961 . S
H446 C431 0.961 . S
H447 C431 0.961 1_455 S
H448 C432 0.931 . S
H449 C437 0.930 . S
H450 C438 0.956 . S
H451 C438 0.961 . S
H452 C438 0.961 . S
H453 C439 0.958 1_455 S
H454 C439 0.961 . S
H455 C439 0.960 1_455 S
C456 C457 1.391 . S
C456 C458 1.394 . S
C456 H472 0.931 . S
C457 C456 1.391 . S
C457 C461 1.376 . S
C458 C456 1.394 . S
C458 C459 1.369 . S
C458 C462 1.531 . S
C459 C458 1.369 . S
C459 C460 1.410 . S
C459 C467 1.503 . S
C460 C459 1.410 . S
C460 C461 1.392 . S
C460 C463 1.511 . S
C461 C457 1.376 . S
C461 C460 1.392 . S
C461 H473 0.929 . S
C462 C458 1.531 . S
C462 H474 0.960 . S
C462 H475 0.962 . S
C462 H476 0.960 . S
C463 C460 1.511 . S
C463 H477 0.961 . S
C463 H478 0.961 . S
C463 H479 0.961 . S
C464 C465 1.370 . S
C464 C466 1.363 . S
C464 H480 0.931 . S
C465 C464 1.370 . S
C465 C469 1.408 1_655 S
C466 C464 1.363 . S
C466 C467 1.370 1_655 S
C466 C470 1.524 . S
C467 C459 1.503 . S
C467 C466 1.370 1_455 S
C467 C468 1.403 . S
C468 C467 1.403 . S
C468 C469 1.404 . S
C468 C471 1.539 . S
C469 C465 1.408 1_455 S
C469 C468 1.404 . S
C469 H481 0.930 . S
C470 C466 1.524 . S
C470 H482 0.956 . S
C470 H483 0.961 1_655 S
C470 H484 0.961 . S
C471 C468 1.539 . S
C471 H485 0.958 . S
C471 H486 0.961 . S
C471 H487 0.960 . S
H472 C456 0.931 . S
H473 C461 0.929 . S
H474 C462 0.960 . S
H475 C462 0.962 . S
H476 C462 0.960 . S
H477 C463 0.961 . S
H478 C463 0.961 . S
H479 C463 0.961 . S
H480 C464 0.931 . S
H481 C469 0.930 . S
H482 C470 0.956 . S
H483 C470 0.961 1_455 S
H484 C470 0.961 . S
H485 C471 0.958 . S
H486 C471 0.961 . S
H487 C471 0.960 . S
C488 C489 1.391 . S
C488 C490 1.394 1_565 S
C488 H504 0.931 . S
C489 C488 1.391 . S
C489 C493 1.376 . S
C490 C488 1.394 1_545 S
C490 C491 1.369 . S
C490 C494 1.531 . S
C491 C490 1.369 . S
C491 C492 1.410 . S
C491 C499 1.503 . S
C492 C491 1.410 . S
C492 C493 1.392 1_545 S
C492 C495 1.511 . S
C493 C489 1.376 . S
C493 C492 1.392 1_565 S
C493 H505 0.929 . S
C494 C490 1.531 . S
C494 H506 0.960 . S
C494 H507 0.962 . S
C494 H508 0.960 . S
C495 C492 1.511 . S
C495 H509 0.961 . S
C495 H510 0.961 . S
C495 H511 0.961 . S
C496 C497 1.370 . S
C496 C498 1.363 . S
C496 H512 0.931 . S
C497 C496 1.370 . S
C497 C501 1.408 . S
C498 C496 1.363 . S
C498 C499 1.370 . S
C498 C502 1.524 . S
C499 C491 1.503 . S
C499 C498 1.370 . S
C499 C500 1.403 . S
C500 C499 1.403 . S
C500 C501 1.404 . S
C500 C503 1.539 . S
C501 C497 1.408 . S
C501 C500 1.404 . S
C501 H513 0.930 . S
C502 C498 1.524 . S
C502 H514 0.956 1_545 S
C502 H515 0.961 1_545 S
C502 H516 0.961 . S
C503 C500 1.539 . S
C503 H517 0.958 . S
C503 H518 0.961 . S
C503 H519 0.960 . S
H504 C488 0.931 . S
H505 C493 0.929 . S
H506 C494 0.960 . S
H507 C494 0.962 . S
H508 C494 0.960 . S
H509 C495 0.961 . S
H510 C495 0.961 . S
H511 C495 0.961 . S
H512 C496 0.931 . S
H513 C501 0.930 . S
H514 C502 0.956 1_565 S
H515 C502 0.961 1_565 S
H516 C502 0.961 . S
H517 C503 0.958 . S
H518 C503 0.961 . S
H519 C503 0.960 . S
C520 C521 1.391 . S
C520 C522 1.394 . S
C520 H536 0.931 . S
C521 C520 1.391 . S
C521 C525 1.376 . S
C522 C520 1.394 . S
C522 C523 1.369 . S
C522 C526 1.531 . S
C523 C522 1.369 . S
C523 C524 1.410 . S
C523 C531 1.503 . S
C524 C523 1.410 . S
C524 C525 1.392 . S
C524 C527 1.511 . S
C525 C521 1.376 . S
C525 C524 1.392 . S
C525 H537 0.929 . S
C526 C522 1.531 . S
C526 H538 0.960 . S
C526 H539 0.962 . S
C526 H540 0.960 . S
C527 C524 1.511 . S
C527 H541 0.961 . S
C527 H542 0.961 . S
C527 H543 0.961 . S
C528 C529 1.370 . S
C528 C530 1.363 . S
C528 H544 0.931 . S
C529 C528 1.370 . S
C529 C533 1.408 . S
C530 C528 1.363 . S
C530 C531 1.370 . S
C530 C534 1.524 . S
C531 C523 1.503 . S
C531 C530 1.370 . S
C531 C532 1.403 . S
C532 C531 1.403 . S
C532 C533 1.404 . S
C532 C535 1.539 . S
C533 C529 1.408 . S
C533 C532 1.404 . S
C533 H545 0.930 . S
C534 C530 1.524 . S
C534 H546 0.956 . S
C534 H547 0.961 . S
C534 H548 0.961 . S
C535 C532 1.539 . S
C535 H549 0.958 . S
C535 H550 0.961 . S
C535 H551 0.960 . S
H536 C520 0.931 . S
H537 C525 0.929 . S
H538 C526 0.960 . S
H539 C526 0.962 . S
H540 C526 0.960 . S
H541 C527 0.961 . S
H542 C527 0.961 . S
H543 C527 0.961 . S
H544 C528 0.931 . S
H545 C533 0.930 . S
H546 C534 0.956 . S
H547 C534 0.961 . S
H548 C534 0.961 . S
H549 C535 0.958 . S
H550 C535 0.961 . S
H551 C535 0.960 . S
C552 C553 1.391 . S
C552 C554 1.394 . S
C552 H568 0.931 . S
C553 C552 1.391 . S
C553 C557 1.376 . S
C554 C552 1.394 . S
C554 C555 1.369 . S
C554 C558 1.531 . S
C555 C554 1.369 . S
C555 C556 1.410 . S
C555 C563 1.503 . S
C556 C555 1.410 . S
C556 C557 1.392 . S
C556 C559 1.511 . S
C557 C553 1.376 . S
C557 C556 1.392 . S
C557 H569 0.929 . S
C558 C554 1.531 . S
C558 H570 0.960 . S
C558 H571 0.962 1_655 S
C558 H572 0.960 . S
C559 C556 1.511 . S
C559 H573 0.961 . S
C559 H574 0.961 . S
C559 H575 0.961 . S
C560 C561 1.370 . S
C560 C562 1.363 1_455 S
C560 H576 0.931 . S
C561 C560 1.370 . S
C561 C565 1.408 . S
C562 C560 1.363 1_655 S
C562 C563 1.370 . S
C562 C566 1.524 . S
C563 C555 1.503 . S
C563 C562 1.370 . S
C563 C564 1.403 . S
C564 C563 1.403 . S
C564 C565 1.404 1_655 S
C564 C567 1.539 . S
C565 C561 1.408 . S
C565 C564 1.404 1_455 S
C565 H577 0.928 . S
C566 C562 1.524 . S
C566 H578 0.956 . S
C566 H579 0.961 . S
C566 H580 0.961 1_655 S
C567 C564 1.539 . S
C567 H581 0.958 . S
C567 H582 0.961 . S
C567 H583 0.960 . S
H568 C552 0.931 . S
H569 C557 0.929 . S
H570 C558 0.960 . S
H571 C558 0.962 1_455 S
H572 C558 0.960 . S
H573 C559 0.961 . S
H574 C559 0.961 . S
H575 C559 0.961 . S
H576 C560 0.931 . S
H577 C565 0.928 . S
H578 C566 0.956 . S
H579 C566 0.961 . S
H580 C566 0.961 1_455 S
H581 C567 0.958 . S
H582 C567 0.961 . S
H583 C567 0.960 . S
C584 C585 1.391 . S
C584 C586 1.394 . S
C584 H600 0.931 . S
C585 C584 1.391 . S
C585 C589 1.376 . S
C586 C584 1.394 . S
C586 C587 1.369 . S
C586 C590 1.531 . S
C587 C586 1.369 . S
C587 C588 1.410 . S
C587 C595 1.503 . S
C588 C587 1.410 . S
C588 C589 1.392 . S
C588 C591 1.511 . S
C589 C585 1.376 . S
C589 C588 1.392 . S
C589 H601 0.929 . S
C590 C586 1.531 . S
C590 H602 0.960 . S
C590 H603 0.962 . S
C590 H604 0.960 . S
C591 C588 1.511 . S
C591 H605 0.961 . S
C591 H606 0.961 . S
C591 H607 0.961 . S
C592 C593 1.370 . S
C592 C594 1.363 . S
C592 H608 0.931 . S
C593 C592 1.370 . S
C593 C597 1.408 1_545 S
C594 C592 1.363 . S
C594 C595 1.370 1_545 S
C594 C598 1.524 . S
C595 C587 1.503 . S
C595 C594 1.370 1_565 S
C595 C596 1.403 . S
C596 C595 1.403 . S
C596 C597 1.404 . S
C596 C599 1.539 . S
C597 C593 1.408 1_565 S
C597 C596 1.404 . S
C597 H609 0.930 . S
C598 C594 1.524 . S
C598 H610 0.956 1_545 S
C598 H611 0.961 . S
C598 H612 0.961 . S
C599 C596 1.539 . S
C599 H613 0.958 . S
C599 H614 0.961 . S
C599 H615 0.960 . S
H600 C584 0.931 . S
H601 C589 0.929 . S
H602 C590 0.960 . S
H603 C590 0.962 . S
H604 C590 0.960 . S
H605 C591 0.961 . S
H606 C591 0.961 . S
H607 C591 0.961 . S
H608 C592 0.931 . S
H609 C597 0.930 . S
H610 C598 0.956 1_565 S
H611 C598 0.961 . S
H612 C598 0.961 . S
H613 C599 0.958 . S
H614 C599 0.961 . S
H615 C599 0.960 . S
C616 C617 1.391 . S
C616 C618 1.394 . S
C616 H632 0.931 . S
C617 C616 1.391 . S
C617 C621 1.376 . S
C618 C616 1.394 . S
C618 C619 1.369 . S
C618 C622 1.531 . S
C619 C618 1.369 . S
C619 C620 1.410 . S
C619 C627 1.503 . S
C620 C619 1.410 . S
C620 C621 1.392 . S
C620 C623 1.511 . S
C621 C617 1.376 . S
C621 C620 1.392 . S
C621 H633 0.929 . S
C622 C618 1.531 . S
C622 H634 0.960 . S
C622 H635 0.962 . S
C622 H636 0.960 . S
C623 C620 1.511 . S
C623 H637 0.961 . S
C623 H638 0.961 . S
C623 H639 0.961 . S
C624 C625 1.370 . S
C624 C626 1.363 . S
C624 H640 0.931 . S
C625 C624 1.370 . S
C625 C629 1.408 . S
C626 C624 1.363 . S
C626 C627 1.370 . S
C626 C630 1.524 . S
C627 C619 1.503 . S
C627 C626 1.370 . S
C627 C628 1.403 . S
C628 C627 1.403 . S
C628 C629 1.404 . S
C628 C631 1.539 . S
C629 C625 1.408 . S
C629 C628 1.404 . S
C629 H641 0.930 . S
C630 C626 1.524 . S
C630 H642 0.956 . S
C630 H643 0.961 . S
C630 H644 0.961 . S
C631 C628 1.539 . S
C631 H645 0.958 . S
C631 H646 0.961 . S
C631 H647 0.960 . S
H632 C616 0.931 . S
H633 C621 0.929 . S
H634 C622 0.960 . S
H635 C622 0.962 . S
H636 C622 0.960 . S
H637 C623 0.961 . S
H638 C623 0.961 . S
H639 C623 0.961 . S
H640 C624 0.931 . S
H641 C629 0.930 . S
H642 C630 0.956 . S
H643 C630 0.961 . S
H644 C630 0.961 . S
H645 C631 0.958 . S
H646 C631 0.961 . S
H647 C631 0.960 . S
C648 C649 1.391 . S
C648 C650 1.394 . S
C648 H664 0.931 . S
C649 C648 1.391 . S
C649 C653 1.376 . S
C650 C648 1.394 . S
C650 C651 1.369 . S
C650 C654 1.531 . S
C651 C650 1.369 . S
C651 C652 1.410 . S
C651 C659 1.503 . S
C652 C651 1.410 . S
C652 C653 1.392 . S
C652 C655 1.511 . S
C653 C649 1.376 . S
C653 C652 1.392 . S
C653 H665 0.929 . S
C654 C650 1.531 . S
C654 H666 0.960 . S
C654 H667 0.962 . S
C654 H668 0.960 . S
C655 C652 1.511 . S
C655 H669 0.961 1_565 S
C655 H670 0.961 1_565 S
C655 H671 0.961 . S
C656 C657 1.370 . S
C656 C658 1.363 1_545 S
C656 H672 0.931 . S
C657 C656 1.370 . S
C657 C661 1.408 1_545 S
C658 C656 1.363 1_565 S
C658 C659 1.370 . S
C658 C662 1.524 . S
C659 C651 1.503 . S
C659 C658 1.370 . S
C659 C660 1.403 . S
C660 C659 1.403 . S
C660 C661 1.404 . S
C660 C663 1.539 . S
C661 C657 1.408 1_565 S
C661 C660 1.404 . S
C661 H673 0.930 . S
C662 C658 1.524 . S
C662 H674 0.956 . S
C662 H675 0.961 . S
C662 H676 0.955 1_565 S
C663 C660 1.539 . S
C663 H677 0.958 . S
C663 H678 0.961 . S
C663 H679 0.960 . S
H664 C648 0.931 . S
H665 C653 0.929 . S
H666 C654 0.960 . S
H667 C654 0.962 . S
H668 C654 0.960 . S
H669 C655 0.961 1_545 S
H670 C655 0.961 1_545 S
H671 C655 0.961 . S
H672 C656 0.931 . S
H673 C661 0.930 . S
H674 C662 0.956 . S
H675 C662 0.961 . S
H676 C662 0.955 1_545 S
H677 C663 0.958 . S
H678 C663 0.961 . S
H679 C663 0.960 . S
C680 C681 1.391 . S
C680 C682 1.394 . S
C680 H696 0.931 . S
C681 C680 1.391 . S
C681 C685 1.376 . S
C682 C680 1.394 . S
C682 C683 1.369 . S
C682 C686 1.531 . S
C683 C682 1.369 . S
C683 C684 1.410 . S
C683 C691 1.503 . S
C684 C683 1.410 . S
C684 C685 1.392 . S
C684 C687 1.511 . S
C685 C681 1.376 . S
C685 C684 1.392 . S
C685 H697 0.929 . S
C686 C682 1.531 . S
C686 H698 0.960 . S
C686 H699 0.962 . S
C686 H700 0.960 . S
C687 C684 1.511 . S
C687 H701 0.961 . S
C687 H702 0.961 . S
C687 H703 0.961 . S
C688 C689 1.370 . S
C688 C690 1.363 . S
C688 H704 0.931 . S
C689 C688 1.370 . S
C689 C693 1.408 . S
C690 C688 1.363 . S
C690 C691 1.370 . S
C690 C694 1.524 . S
C691 C683 1.503 . S
C691 C690 1.370 . S
C691 C692 1.403 . S
C692 C691 1.403 . S
C692 C693 1.404 . S
C692 C695 1.539 . S
C693 C689 1.408 . S
C693 C692 1.404 . S
C693 H705 0.930 . S
C694 C690 1.524 . S
C694 H706 0.956 . S
C694 H707 0.961 . S
C694 H708 0.961 . S
C695 C692 1.539 . S
C695 H709 0.958 . S
C695 H710 0.961 . S
C695 H711 0.960 . S
H696 C680 0.931 . S
H697 C685 0.929 . S
H698 C686 0.960 . S
H699 C686 0.962 . S
H700 C686 0.960 . S
H701 C687 0.961 . S
H702 C687 0.961 . S
H703 C687 0.961 . S
H704 C688 0.931 . S
H705 C693 0.930 . S
H706 C694 0.956 . S
H707 C694 0.961 . S
H708 C694 0.961 . S
H709 C695 0.958 . S
H710 C695 0.961 . S
H711 C695 0.960 . S
C712 C713 1.391 . S
C712 C714 1.394 . S
C712 H728 0.931 . S
C713 C712 1.391 . S
C713 C717 1.376 . S
C714 C712 1.394 . S
C714 C715 1.369 . S
C714 C718 1.531 . S
C715 C714 1.369 . S
C715 C716 1.410 . S
C715 C723 1.503 . S
C716 C715 1.410 . S
C716 C717 1.392 . S
C716 C719 1.511 1_455 S
C717 C713 1.376 . S
C717 C716 1.392 . S
C717 H729 0.929 . S
C718 C714 1.531 . S
C718 H730 0.960 . S
C718 H731 0.962 . S
C718 H732 0.960 . S
C719 C716 1.511 1_655 S
C719 H733 0.961 . S
C719 H734 0.961 . S
C719 H735 0.961 . S
C720 C721 1.370 1_455 S
C720 C722 1.363 . S
C720 H736 0.931 . S
C721 C720 1.370 1_655 S
C721 C725 1.408 . S
C722 C720 1.363 . S
C722 C723 1.370 . S
C722 C726 1.524 . S
C723 C715 1.503 . S
C723 C722 1.370 . S
C723 C724 1.403 . S
C724 C723 1.403 . S
C724 C725 1.404 1_455 S
C724 C727 1.539 . S
C725 C721 1.408 . S
C725 C724 1.404 1_655 S
C725 H737 0.930 . S
C726 C722 1.524 . S
C726 H738 0.956 . S
C726 H739 0.961 . S
C726 H740 0.961 . S
C727 C724 1.539 . S
C727 H741 0.958 . S
C727 H742 0.961 1_455 S
C727 H743 0.960 . S
H728 C712 0.931 . S
H729 C717 0.929 . S
H730 C718 0.960 . S
H731 C718 0.962 . S
H732 C718 0.960 . S
H733 C719 0.961 . S
H734 C719 0.961 . S
H735 C719 0.961 . S
H736 C720 0.931 . S
H737 C725 0.930 . S
H738 C726 0.956 . S
H739 C726 0.961 . S
H740 C726 0.961 . S
H741 C727 0.958 . S
H742 C727 0.961 1_655 S
H743 C727 0.960 . S
C744 C745 1.391 . S
C744 C746 1.394 . S
C744 H760 0.931 . S
C745 C744 1.391 . S
C745 C749 1.376 . S
C746 C744 1.394 . S
C746 C747 1.369 . S
C746 C750 1.531 . S
C747 C746 1.369 . S
C747 C748 1.410 . S
C747 C755 1.503 . S
C748 C747 1.410 . S
C748 C749 1.392 . S
C748 C751 1.511 . S
C749 C745 1.376 . S
C749 C748 1.392 . S
C749 H761 0.929 . S
C750 C746 1.531 . S
C750 H762 0.960 1_545 S
C750 H763 0.962 1_545 S
C750 H764 0.960 1_545 S
C751 C748 1.511 . S
C751 H765 0.961 . S
C751 H766 0.961 . S
C751 H767 0.961 . S
C752 C753 1.370 1_545 S
C752 C754 1.363 . S
C752 H768 0.931 1_545 S
C753 C752 1.370 1_565 S
C753 C757 1.408 1_565 S
C754 C752 1.363 . S
C754 C755 1.370 . S
C754 C758 1.524 . S
C755 C747 1.503 . S
C755 C754 1.370 . S
C755 C756 1.403 . S
C756 C755 1.403 . S
C756 C757 1.404 . S
C756 C759 1.539 . S
C757 C753 1.408 1_545 S
C757 C756 1.404 . S
C757 H769 0.930 . S
C758 C754 1.524 . S
C758 H770 0.956 . S
C758 H771 0.961 . S
C758 H772 0.961 . S
C759 C756 1.539 . S
C759 H773 0.958 . S
C759 H774 0.961 . S
C759 H775 0.960 . S
H760 C744 0.931 . S
H761 C749 0.929 . S
H762 C750 0.960 1_565 S
H763 C750 0.962 1_565 S
H764 C750 0.960 1_565 S
H765 C751 0.961 . S
H766 C751 0.961 . S
H767 C751 0.961 . S
H768 C752 0.931 1_565 S
H769 C757 0.930 . S
H770 C758 0.956 . S
H771 C758 0.961 . S
H772 C758 0.961 . S
H773 C759 0.958 . S
H774 C759 0.961 . S
H775 C759 0.960 . S
C776 C777 1.391 . S
C776 C778 1.394 . S
C776 H792 0.931 . S
C777 C776 1.391 . S
C777 C781 1.376 1_556 S
C778 C776 1.394 . S
C778 C779 1.369 1_556 S
C778 C782 1.531 . S
C779 C778 1.369 1_554 S
C779 C780 1.410 . S
C779 C787 1.503 . S
C780 C779 1.410 . S
C780 C781 1.392 . S
C780 C783 1.511 . S
C781 C777 1.376 1_554 S
C781 C780 1.392 . S
C781 H793 0.929 . S
C782 C778 1.531 . S
C782 H794 0.960 . S
C782 H795 0.962 . S
C782 H796 0.960 . S
C783 C780 1.511 . S
C783 H797 0.961 . S
C783 H798 0.961 . S
C783 H799 0.961 . S
C784 C785 1.370 . S
C784 C786 1.363 . S
C784 H800 0.931 . S
C785 C784 1.370 . S
C785 C789 1.408 . S
C786 C784 1.363 . S
C786 C787 1.370 . S
C786 C790 1.524 . S
C787 C779 1.503 . S
C787 C786 1.370 . S
C787 C788 1.403 . S
C788 C787 1.403 . S
C788 C789 1.404 . S
C788 C791 1.539 1_554 S
C789 C785 1.408 . S
C789 C788 1.404 . S
C789 H801 0.930 . S
C790 C786 1.524 . S
C790 H802 0.956 . S
C790 H803 0.961 . S
C790 H804 0.961 . S
C791 C788 1.539 1_556 S
C791 H805 0.958 . S
C791 H806 0.961 1_556 S
C791 H807 0.960 . S
H792 C776 0.931 . S
H793 C781 0.929 . S
H794 C782 0.960 . S
H795 C782 0.962 . S
H796 C782 0.960 . S
H797 C783 0.961 . S
H798 C783 0.961 . S
H799 C783 0.961 . S
H800 C784 0.931 . S
H801 C789 0.930 . S
H802 C790 0.956 . S
H803 C790 0.961 . S
H804 C790 0.961 . S
H805 C791 0.958 . S
H806 C791 0.961 1_554 S
H807 C791 0.960 . S
C808 C809 1.391 1_655 S
C808 C810 1.394 . S
C808 H824 0.931 . S
C809 C808 1.391 1_455 S
C809 C813 1.376 . S
C810 C808 1.394 . S
C810 C811 1.369 . S
C810 C814 1.531 . S
C811 C810 1.369 . S
C811 C812 1.410 1_655 S
C811 C819 1.503 . S
C812 C811 1.410 1_455 S
C812 C813 1.392 . S
C812 C815 1.511 . S
C813 C809 1.376 . S
C813 C812 1.392 . S
C813 H825 0.929 . S
C814 C810 1.531 . S
C814 H826 0.960 . S
C814 H827 0.962 . S
C814 H828 0.960 . S
C815 C812 1.511 . S
C815 H829 0.961 . S
C815 H830 0.961 . S
C815 H831 0.961 . S
C816 C817 1.370 . S
C816 C818 1.363 . S
C816 H832 0.931 . S
C817 C816 1.370 . S
C817 C821 1.408 . S
C818 C816 1.363 . S
C818 C819 1.370 . S
C818 C822 1.524 . S
C819 C811 1.503 . S
C819 C818 1.370 . S
C819 C820 1.403 . S
C820 C819 1.403 . S
C820 C821 1.404 . S
C820 C823 1.539 . S
C821 C817 1.408 . S
C821 C820 1.404 . S
C821 H833 0.930 . S
C822 C818 1.524 . S
C822 H834 0.956 . S
C822 H835 0.961 . S
C822 H836 0.961 . S
C823 C820 1.539 . S
C823 H837 0.958 . S
C823 H838 0.961 . S
C823 H839 0.960 . S
H824 C808 0.931 . S
H825 C813 0.929 . S
H826 C814 0.960 . S
H827 C814 0.962 . S
H828 C814 0.960 . S
H829 C815 0.961 . S
H830 C815 0.961 . S
H831 C815 0.961 . S
H832 C816 0.931 . S
H833 C821 0.930 . S
H834 C822 0.956 . S
H835 C822 0.961 . S
H836 C822 0.961 . S
H837 C823 0.958 . S
H838 C823 0.961 . S
H839 C823 0.960 . S
C840 C841 1.391 1_455 S
C840 C842 1.394 . S
C840 H856 0.931 . S
C841 C840 1.391 1_655 S
C841 C845 1.376 . S
C842 C840 1.394 . S
C842 C843 1.369 . S
C842 C846 1.531 . S
C843 C842 1.369 . S
C843 C844 1.410 . S
C843 C851 1.503 . S
C844 C843 1.410 . S
C844 C845 1.392 1_455 S
C844 C847 1.513 . S
C845 C841 1.376 . S
C845 C844 1.392 1_655 S
C845 H857 0.929 . S
C846 C842 1.531 . S
C846 H858 0.960 . S
C846 H859 0.962 . S
C846 H860 0.960 . S
C847 C844 1.513 . S
C847 H861 0.941 1_455 S
C847 H862 0.976 . S
C847 H863 0.964 . S
C848 C849 1.370 . S
C848 C850 1.363 . S
C848 H864 0.931 . S
C849 C848 1.370 . S
C849 C853 1.408 . S
C850 C848 1.363 . S
C850 C851 1.370 . S
C850 C854 1.524 . S
C851 C843 1.503 . S
C851 C850 1.370 . S
C851 C852 1.403 . S
C852 C851 1.403 . S
C852 C853 1.404 . S
C852 C855 1.539 . S
C853 C849 1.408 . S
C853 C852 1.404 . S
C853 H865 0.930 . S
C854 C850 1.524 . S
C854 H866 0.956 . S
C854 H867 0.961 1_455 S
C854 H868 0.961 . S
C855 C852 1.539 . S
C855 H869 0.958 . S
C855 H870 0.961 . S
C855 H871 0.960 . S
H856 C840 0.931 . S
H857 C845 0.929 . S
H858 C846 0.960 . S
H859 C846 0.962 . S
H860 C846 0.960 . S
H861 C847 0.941 1_655 S
H862 C847 0.976 . S
H863 C847 0.964 . S
H864 C848 0.931 . S
H865 C853 0.930 . S
H866 C854 0.956 . S
H867 C854 0.961 1_655 S
H868 C854 0.961 . S
H869 C855 0.958 . S
H870 C855 0.961 . S
H871 C855 0.960 . S
C872 C873 1.391 1_545 S
C872 C874 1.394 . S
C872 H888 0.931 . S
C873 C872 1.391 1_565 S
C873 C877 1.376 . S
C874 C872 1.394 . S
C874 C875 1.369 . S
C874 C878 1.531 . S
C875 C874 1.369 . S
C875 C876 1.410 . S
C875 C883 1.503 . S
C876 C875 1.410 . S
C876 C877 1.392 1_545 S
C876 C879 1.511 1_545 S
C877 C873 1.376 . S
C877 C876 1.392 1_565 S
C877 H889 0.929 . S
C878 C874 1.531 . S
C878 H890 0.960 . S
C878 H891 0.962 . S
C878 H892 0.960 . S
C879 C876 1.511 1_565 S
C879 H893 0.961 . S
C879 H894 0.961 1_565 S
C879 H895 0.961 1_565 S
C880 C881 1.370 . S
C880 C882 1.363 . S
C880 H896 0.931 . S
C881 C880 1.370 . S
C881 C885 1.408 . S
C882 C880 1.363 . S
C882 C883 1.370 . S
C882 C886 1.524 . S
C883 C875 1.503 . S
C883 C882 1.370 . S
C883 C884 1.403 . S
C884 C883 1.403 . S
C884 C885 1.404 . S
C884 C887 1.539 . S
C885 C881 1.408 . S
C885 C884 1.404 . S
C885 H897 0.930 . S
C886 C882 1.524 . S
C886 H898 0.956 . S
C886 H899 0.961 . S
C886 H900 0.961 . S
C887 C884 1.539 . S
C887 H901 0.958 . S
C887 H902 0.961 . S
C887 H903 0.960 . S
H888 C872 0.931 . S
H889 C877 0.929 . S
H890 C878 0.960 . S
H891 C878 0.962 . S
H892 C878 0.960 . S
H893 C879 0.961 . S
H894 C879 0.961 1_545 S
H895 C879 0.961 1_545 S
H896 C880 0.931 . S
H897 C885 0.930 . S
H898 C886 0.956 . S
H899 C886 0.961 . S
H900 C886 0.961 . S
H901 C887 0.958 . S
H902 C887 0.961 . S
H903 C887 0.960 . S
C904 C905 1.391 . S
C904 C906 1.394 . S
C904 H920 0.931 . S
C905 C904 1.391 . S
C905 C909 1.376 . S
C906 C904 1.394 . S
C906 C907 1.369 . S
C906 C910 1.531 . S
C907 C906 1.369 . S
C907 C908 1.410 . S
C907 C915 1.503 . S
C908 C907 1.410 . S
C908 C909 1.392 . S
C908 C911 1.511 . S
C909 C905 1.376 . S
C909 C908 1.392 . S
C909 H921 0.929 . S
C910 C906 1.531 . S
C910 H922 0.960 . S
C910 H923 0.962 . S
C910 H924 0.960 . S
C911 C908 1.511 . S
C911 H925 0.961 . S
C911 H926 0.961 . S
C911 H927 0.961 . S
C912 C913 1.370 . S
C912 C914 1.363 . S
C912 H928 0.931 . S
C913 C912 1.370 . S
C913 C917 1.408 . S
C914 C912 1.363 . S
C914 C915 1.370 . S
C914 C918 1.524 . S
C915 C907 1.503 . S
C915 C914 1.370 . S
C915 C916 1.403 . S
C916 C915 1.403 . S
C916 C917 1.404 . S
C916 C919 1.539 . S
C917 C913 1.408 . S
C917 C916 1.404 . S
C917 H929 0.930 . S
C918 C914 1.524 . S
C918 H930 0.956 . S
C918 H931 0.961 . S
C918 H932 0.961 . S
C919 C916 1.539 . S
C919 H933 0.958 . S
C919 H934 0.961 . S
C919 H935 0.960 . S
H920 C904 0.931 . S
H921 C909 0.929 . S
H922 C910 0.960 . S
H923 C910 0.962 . S
H924 C910 0.960 . S
H925 C911 0.961 . S
H926 C911 0.961 . S
H927 C911 0.961 . S
H928 C912 0.931 . S
H929 C917 0.930 . S
H930 C918 0.956 . S
H931 C918 0.961 . S
H932 C918 0.961 . S
H933 C919 0.958 . S
H934 C919 0.961 . S
H935 C919 0.960 . S
C936 C937 1.391 1_556 S
C936 C938 1.394 . S
C936 H952 0.931 . S
C937 C936 1.391 1_554 S
C937 C941 1.376 . S
C938 C936 1.394 . S
C938 C939 1.369 . S
C938 C942 1.531 . S
C939 C938 1.369 . S
C939 C940 1.410 1_556 S
C939 C947 1.503 . S
C940 C939 1.410 1_554 S
C940 C941 1.392 . S
C940 C943 1.511 . S
C941 C937 1.376 . S
C941 C940 1.392 . S
C941 H953 0.929 . S
C942 C938 1.531 . S
C942 H954 0.960 . S
C942 H955 0.962 . S
C942 H956 0.960 . S
C943 C940 1.511 . S
C943 H957 0.961 . S
C943 H958 0.961 . S
C943 H959 0.961 . S
C944 C945 1.370 1_655 S
C944 C946 1.363 . S
C944 H960 0.931 . S
C945 C944 1.370 1_455 S
C945 C949 1.408 . S
C946 C944 1.363 . S
C946 C947 1.370 . S
C946 C950 1.524 . S
C947 C939 1.503 . S
C947 C946 1.370 . S
C947 C948 1.403 1_655 S
C948 C947 1.403 1_455 S
C948 C949 1.404 . S
C948 C951 1.557 . S
C949 C945 1.408 . S
C949 C948 1.404 . S
C949 H961 0.930 . S
C950 C946 1.524 . S
C950 H962 0.956 . S
C950 H963 0.961 . S
C950 H964 0.961 . S
C951 C948 1.557 . S
C951 H965 0.977 . S
C951 H966 0.949 1_556 S
C951 H967 0.936 1_556 S
H952 C936 0.931 . S
H953 C941 0.929 . S
H954 C942 0.960 . S
H955 C942 0.962 . S
H956 C942 0.960 . S
H957 C943 0.961 . S
H958 C943 0.961 . S
H959 C943 0.961 . S
H960 C944 0.931 . S
H961 C949 0.930 . S
H962 C950 0.956 . S
H963 C950 0.961 . S
H964 C950 0.961 . S
H965 C951 0.977 . S
H966 C951 0.949 1_554 S
H967 C951 0.936 1_554 S
C968 C969 1.391 1_565 S
C968 C970 1.394 . S
C968 H984 0.931 1_565 S
C969 C968 1.391 1_545 S
C969 C973 1.376 1_545 S
C970 C968 1.394 . S
C970 C971 1.369 . S
C970 C974 1.531 . S
C971 C970 1.369 . S
C971 C972 1.410 . S
C971 C979 1.503 . S
C972 C971 1.410 . S
C972 C973 1.392 . S
C972 C975 1.511 . S
C973 C969 1.376 1_565 S
C973 C972 1.392 . S
C973 H985 0.929 . S
C974 C970 1.531 . S
C974 H986 0.960 . S
C974 H987 0.962 . S
C974 H988 0.960 . S
C975 C972 1.511 . S
C975 H989 0.961 . S
C975 H990 0.961 . S
C975 H991 0.961 . S
C976 C977 1.370 . S
C976 C978 1.363 . S
C976 H992 0.931 . S
C977 C976 1.370 . S
C977 C981 1.408 . S
C978 C976 1.363 . S
C978 C979 1.370 . S
C978 C982 1.524 . S
C979 C971 1.503 . S
C979 C978 1.370 . S
C979 C980 1.403 . S
C980 C979 1.403 . S
C980 C981 1.404 . S
C980 C983 1.539 . S
C981 C977 1.408 . S
C981 C980 1.404 . S
C981 H993 0.930 . S
C982 C978 1.524 . S
C982 H994 0.956 1_565 S
C982 H995 0.953 . S
C982 H996 0.961 1_565 S
C983 C980 1.539 . S
C983 H997 0.958 . S
C983 H998 0.961 . S
C983 H999 0.960 . S
H984 C968 0.931 1_545 S
H985 C973 0.929 . S
H986 C974 0.960 . S
H987 C974 0.962 . S
H988 C974 0.960 . S
H989 C975 0.961 . S
H990 C975 0.961 . S
H991 C975 0.961 . S
H992 C976 0.931 . S
H993 C981 0.930 . S
H994 C982 0.956 1_545 S
H995 C982 0.953 . S
H996 C982 0.961 1_545 S
H997 C983 0.958 . S
H998 C983 0.961 . S
H999 C983 0.960 . S
C1000 C1001 1.391 . S
C1000 C1002 1.394 . S
C1000 H1016 0.931 . S
C1001 C1000 1.391 . S
C1001 C1005 1.376 . S
C1002 C1000 1.394 . S
C1002 C1003 1.369 . S
C1002 C1006 1.531 . S
C1003 C1002 1.369 . S
C1003 C1004 1.410 . S
C1003 C1011 1.503 . S
C1004 C1003 1.410 . S
C1004 C1005 1.392 . S
C1004 C1007 1.511 . S
C1005 C1001 1.376 . S
C1005 C1004 1.392 . S
C1005 H1017 0.929 . S
C1006 C1002 1.531 . S
C1006 H1018 0.960 . S
C1006 H1019 0.962 . S
C1006 H1020 0.960 . S
C1007 C1004 1.511 . S
C1007 H1021 0.961 . S
C1007 H1022 0.961 . S
C1007 H1023 0.961 . S
C1008 C1009 1.370 . S
C1008 C1010 1.363 . S
C1008 H1024 0.931 . S
C1009 C1008 1.370 . S
C1009 C1013 1.408 . S
C1010 C1008 1.363 . S
C1010 C1011 1.370 . S
C1010 C1014 1.524 . S
C1011 C1003 1.503 . S
C1011 C1010 1.370 . S
C1011 C1012 1.403 . S
C1012 C1011 1.403 . S
C1012 C1013 1.404 . S
C1012 C1015 1.539 . S
C1013 C1009 1.408 . S
C1013 C1012 1.404 . S
C1013 H1025 0.930 . S
C1014 C1010 1.524 . S
C1014 H1026 0.956 . S
C1014 H1027 0.961 . S
C1014 H1028 0.961 . S
C1015 C1012 1.539 . S
C1015 H1029 0.958 . S
C1015 H1030 0.961 . S
C1015 H1031 0.960 . S
H1016 C1000 0.931 . S
H1017 C1005 0.929 . S
H1018 C1006 0.960 . S
H1019 C1006 0.962 . S
H1020 C1006 0.960 . S
H1021 C1007 0.961 . S
H1022 C1007 0.961 . S
H1023 C1007 0.961 . S
H1024 C1008 0.931 . S
H1025 C1013 0.930 . S
H1026 C1014 0.956 . S
H1027 C1014 0.961 . S
H1028 C1014 0.961 . S
H1029 C1015 0.958 . S
H1030 C1015 0.961 . S
H1031 C1015 0.960 . S
C1032 C1033 1.391 . S
C1032 C1034 1.394 . S
C1032 H1048 0.931 . S
C1033 C1032 1.391 . S
C1033 C1037 1.376 . S
C1034 C1032 1.394 . S
C1034 C1035 1.369 . S
C1034 C1038 1.531 . S
C1035 C1034 1.369 . S
C1035 C1036 1.410 . S
C1035 C1043 1.503 . S
C1036 C1035 1.410 . S
C1036 C1037 1.392 . S
C1036 C1039 1.511 . S
C1037 C1033 1.376 . S
C1037 C1036 1.392 . S
C1037 H1049 0.929 . S
C1038 C1034 1.531 . S
C1038 H1050 0.960 . S
C1038 H1051 0.962 . S
C1038 H1052 0.960 . S
C1039 C1036 1.511 . S
C1039 H1053 0.961 . S
C1039 H1054 0.961 . S
C1039 H1055 0.961 . S
C1040 C1041 1.370 . S
C1040 C1042 1.363 . S
C1040 H1056 0.931 . S
C1041 C1040 1.370 . S
C1041 C1045 1.408 . S
C1042 C1040 1.363 . S
C1042 C1043 1.370 . S
C1042 C1046 1.524 . S
C1043 C1035 1.503 . S
C1043 C1042 1.370 . S
C1043 C1044 1.403 . S
C1044 C1043 1.403 . S
C1044 C1045 1.404 . S
C1044 C1047 1.539 . S
C1045 C1041 1.408 . S
C1045 C1044 1.404 . S
C1045 H1057 0.930 . S
C1046 C1042 1.524 . S
C1046 H1058 0.956 . S
C1046 H1059 0.961 . S
C1046 H1060 0.961 . S
C1047 C1044 1.539 . S
C1047 H1061 0.958 . S
C1047 H1062 0.961 . S
C1047 H1063 0.960 . S
H1048 C1032 0.931 . S
H1049 C1037 0.929 . S
H1050 C1038 0.960 . S
H1051 C1038 0.962 . S
H1052 C1038 0.960 . S
H1053 C1039 0.961 . S
H1054 C1039 0.961 . S
H1055 C1039 0.961 . S
H1056 C1040 0.931 . S
H1057 C1045 0.930 . S
H1058 C1046 0.956 . S
H1059 C1046 0.961 . S
H1060 C1046 0.961 . S
H1061 C1047 0.958 . S
H1062 C1047 0.961 . S
H1063 C1047 0.960 . S
C1064 C1065 1.391 . S
C1064 C1066 1.394 . S
C1064 H1080 0.931 . S
C1065 C1064 1.391 . S
C1065 C1069 1.376 . S
C1066 C1064 1.394 . S
C1066 C1067 1.369 . S
C1066 C1070 1.531 . S
C1067 C1066 1.369 . S
C1067 C1068 1.410 . S
C1067 C1075 1.503 . S
C1068 C1067 1.410 . S
C1068 C1069 1.392 . S
C1068 C1071 1.511 . S
C1069 C1065 1.376 . S
C1069 C1068 1.392 . S
C1069 H1081 0.929 . S
C1070 C1066 1.531 . S
C1070 H1082 0.960 . S
C1070 H1083 0.962 . S
C1070 H1084 0.960 . S
C1071 C1068 1.511 . S
C1071 H1085 0.961 . S
C1071 H1086 0.961 . S
C1071 H1087 0.961 . S
C1072 C1073 1.370 . S
C1072 C1074 1.363 . S
C1072 H1088 0.931 . S
C1073 C1072 1.370 . S
C1073 C1077 1.408 . S
C1074 C1072 1.363 . S
C1074 C1075 1.370 . S
C1074 C1078 1.524 . S
C1075 C1067 1.503 . S
C1075 C1074 1.370 . S
C1075 C1076 1.403 . S
C1076 C1075 1.403 . S
C1076 C1077 1.404 . S
C1076 C1079 1.539 . S
C1077 C1073 1.408 . S
C1077 C1076 1.404 . S
C1077 H1089 0.930 . S
C1078 C1074 1.524 . S
C1078 H1090 0.956 . S
C1078 H1091 0.961 . S
C1078 H1092 0.961 . S
C1079 C1076 1.539 . S
C1079 H1093 0.958 . S
C1079 H1094 0.961 . S
C1079 H1095 0.960 . S
H1080 C1064 0.931 . S
H1081 C1069 0.929 . S
H1082 C1070 0.960 . S
H1083 C1070 0.962 . S
H1084 C1070 0.960 . S
H1085 C1071 0.961 . S
H1086 C1071 0.961 . S
H1087 C1071 0.961 . S
H1088 C1072 0.931 . S
H1089 C1077 0.930 . S
H1090 C1078 0.956 . S
H1091 C1078 0.961 . S
H1092 C1078 0.961 . S
H1093 C1079 0.958 . S
H1094 C1079 0.961 . S
H1095 C1079 0.960 . S
C1096 C1097 1.391 . S
C1096 C1098 1.394 . S
C1096 H1112 0.931 . S
C1097 C1096 1.391 . S
C1097 C1101 1.376 . S
C1098 C1096 1.394 . S
C1098 C1099 1.369 . S
C1098 C1102 1.531 . S
C1099 C1098 1.369 . S
C1099 C1100 1.410 . S
C1099 C1107 1.503 . S
C1100 C1099 1.410 . S
C1100 C1101 1.392 . S
C1100 C1103 1.511 . S
C1101 C1097 1.376 . S
C1101 C1100 1.392 . S
C1101 H1113 0.929 . S
C1102 C1098 1.531 . S
C1102 H1114 0.960 . S
C1102 H1115 0.962 . S
C1102 H1116 0.960 . S
C1103 C1100 1.511 . S
C1103 H1117 0.961 . S
C1103 H1118 0.961 . S
C1103 H1119 0.961 . S
C1104 C1105 1.370 . S
C1104 C1106 1.363 . S
C1104 H1120 0.931 . S
C1105 C1104 1.370 . S
C1105 C1109 1.408 . S
C1106 C1104 1.363 . S
C1106 C1107 1.370 . S
C1106 C1110 1.524 . S
C1107 C1099 1.503 . S
C1107 C1106 1.370 . S
C1107 C1108 1.403 . S
C1108 C1107 1.403 . S
C1108 C1109 1.404 . S
C1108 C1111 1.539 . S
C1109 C1105 1.408 . S
C1109 C1108 1.404 . S
C1109 H1121 0.930 . S
C1110 C1106 1.524 . S
C1110 H1122 0.956 . S
C1110 H1123 0.961 . S
C1110 H1124 0.961 . S
C1111 C1108 1.539 . S
C1111 H1125 0.958 . S
C1111 H1126 0.961 . S
C1111 H1127 0.960 . S
H1112 C1096 0.931 . S
H1113 C1101 0.929 . S
H1114 C1102 0.960 . S
H1115 C1102 0.962 . S
H1116 C1102 0.960 . S
H1117 C1103 0.961 . S
H1118 C1103 0.961 . S
H1119 C1103 0.961 . S
H1120 C1104 0.931 . S
H1121 C1109 0.930 . S
H1122 C1110 0.956 . S
H1123 C1110 0.961 . S
H1124 C1110 0.961 . S
H1125 C1111 0.958 . S
H1126 C1111 0.961 . S
H1127 C1111 0.960 . S
C1128 C1129 1.391 . S
C1128 C1130 1.394 . S
C1128 H1144 0.931 . S
C1129 C1128 1.391 . S
C1129 C1133 1.376 . S
C1130 C1128 1.394 . S
C1130 C1131 1.369 . S
C1130 C1134 1.531 . S
C1131 C1130 1.369 . S
C1131 C1132 1.410 . S
C1131 C1139 1.503 . S
C1132 C1131 1.410 . S
C1132 C1133 1.392 . S
C1132 C1135 1.511 . S
C1133 C1129 1.376 . S
C1133 C1132 1.392 . S
C1133 H1145 0.929 . S
C1134 C1130 1.531 . S
C1134 H1146 0.960 . S
C1134 H1147 0.962 . S
C1134 H1148 0.960 . S
C1135 C1132 1.511 . S
C1135 H1149 0.961 . S
C1135 H1150 0.961 . S
C1135 H1151 0.961 . S
C1136 C1137 1.370 . S
C1136 C1138 1.363 . S
C1136 H1152 0.931 . S
C1137 C1136 1.370 . S
C1137 C1141 1.408 . S
C1138 C1136 1.363 . S
C1138 C1139 1.370 . S
C1138 C1142 1.524 . S
C1139 C1131 1.503 . S
C1139 C1138 1.370 . S
C1139 C1140 1.403 . S
C1140 C1139 1.403 . S
C1140 C1141 1.404 . S
C1140 C1143 1.539 . S
C1141 C1137 1.408 . S
C1141 C1140 1.404 . S
C1141 H1153 0.930 . S
C1142 C1138 1.524 . S
C1142 H1154 0.956 . S
C1142 H1155 0.961 . S
C1142 H1156 0.961 . S
C1143 C1140 1.539 . S
C1143 H1157 0.958 . S
C1143 H1158 0.961 . S
C1143 H1159 0.960 . S
H1144 C1128 0.931 . S
H1145 C1133 0.929 . S
H1146 C1134 0.960 . S
H1147 C1134 0.962 . S
H1148 C1134 0.960 . S
H1149 C1135 0.961 . S
H1150 C1135 0.961 . S
H1151 C1135 0.961 . S
H1152 C1136 0.931 . S
H1153 C1141 0.930 . S
H1154 C1142 0.956 . S
H1155 C1142 0.961 . S
H1156 C1142 0.961 . S
H1157 C1143 0.958 . S
H1158 C1143 0.961 . S
H1159 C1143 0.960 . S
C1160 C1161 1.391 . S
C1160 C1162 1.394 . S
C1160 H1176 0.931 . S
C1161 C1160 1.391 . S
C1161 C1165 1.376 . S
C1162 C1160 1.394 . S
C1162 C1163 1.369 . S
C1162 C1166 1.531 . S
C1163 C1162 1.369 . S
C1163 C1164 1.410 . S
C1163 C1171 1.503 . S
C1164 C1163 1.410 . S
C1164 C1165 1.392 . S
C1164 C1167 1.511 . S
C1165 C1161 1.376 . S
C1165 C1164 1.392 . S
C1165 H1177 0.929 . S
C1166 C1162 1.531 . S
C1166 H1178 0.960 . S
C1166 H1179 0.962 . S
C1166 H1180 0.960 . S
C1167 C1164 1.511 . S
C1167 H1181 0.961 . S
C1167 H1182 0.961 . S
C1167 H1183 0.961 . S
C1168 C1169 1.370 . S
C1168 C1170 1.363 . S
C1168 H1184 0.931 . S
C1169 C1168 1.370 . S
C1169 C1173 1.408 . S
C1170 C1168 1.363 . S
C1170 C1171 1.370 . S
C1170 C1174 1.524 . S
C1171 C1163 1.503 . S
C1171 C1170 1.370 . S
C1171 C1172 1.403 . S
C1172 C1171 1.403 . S
C1172 C1173 1.404 . S
C1172 C1175 1.539 . S
C1173 C1169 1.408 . S
C1173 C1172 1.404 . S
C1173 H1185 0.930 . S
C1174 C1170 1.524 . S
C1174 H1186 0.956 . S
C1174 H1187 0.961 . S
C1174 H1188 0.961 . S
C1175 C1172 1.539 . S
C1175 H1189 0.958 . S
C1175 H1190 0.961 . S
C1175 H1191 0.960 . S
H1176 C1160 0.931 . S
H1177 C1165 0.929 . S
H1178 C1166 0.960 . S
H1179 C1166 0.962 . S
H1180 C1166 0.960 . S
H1181 C1167 0.961 . S
H1182 C1167 0.961 . S
H1183 C1167 0.961 . S
H1184 C1168 0.931 . S
H1185 C1173 0.930 . S
H1186 C1174 0.956 . S
H1187 C1174 0.961 . S
H1188 C1174 0.961 . S
H1189 C1175 0.958 . S
H1190 C1175 0.961 . S
H1191 C1175 0.960 . S
C1192 C1193 1.391 . S
C1192 C1194 1.394 . S
C1192 H1208 0.931 . S
C1193 C1192 1.391 . S
C1193 C1197 1.376 . S
C1194 C1192 1.394 . S
C1194 C1195 1.369 . S
C1194 C1198 1.531 . S
C1195 C1194 1.369 . S
C1195 C1196 1.410 . S
C1195 C1203 1.503 . S
C1196 C1195 1.410 . S
C1196 C1197 1.392 . S
C1196 C1199 1.511 . S
C1197 C1193 1.376 . S
C1197 C1196 1.392 . S
C1197 H1209 0.929 . S
C1198 C1194 1.531 . S
C1198 H1210 0.960 . S
C1198 H1211 0.962 . S
C1198 H1212 0.960 . S
C1199 C1196 1.511 . S
C1199 H1213 0.961 . S
C1199 H1214 0.961 . S
C1199 H1215 0.961 . S
C1200 C1201 1.370 . S
C1200 C1202 1.363 . S
C1200 H1216 0.931 . S
C1201 C1200 1.370 . S
C1201 C1205 1.408 . S
C1202 C1200 1.363 . S
C1202 C1203 1.370 . S
C1202 C1206 1.524 . S
C1203 C1195 1.503 . S
C1203 C1202 1.370 . S
C1203 C1204 1.403 . S
C1204 C1203 1.403 . S
C1204 C1205 1.404 . S
C1204 C1207 1.539 . S
C1205 C1201 1.408 . S
C1205 C1204 1.404 . S
C1205 H1217 0.930 . S
C1206 C1202 1.524 . S
C1206 H1218 0.956 . S
C1206 H1219 0.961 . S
C1206 H1220 0.961 . S
C1207 C1204 1.539 . S
C1207 H1221 0.958 . S
C1207 H1222 0.961 . S
C1207 H1223 0.960 . S
H1208 C1192 0.931 . S
H1209 C1197 0.929 . S
H1210 C1198 0.960 . S
H1211 C1198 0.962 . S
H1212 C1198 0.960 . S
H1213 C1199 0.961 . S
H1214 C1199 0.961 . S
H1215 C1199 0.961 . S
H1216 C1200 0.931 . S
H1217 C1205 0.930 . S
H1218 C1206 0.956 . S
H1219 C1206 0.961 . S
H1220 C1206 0.961 . S
H1221 C1207 0.958 . S
H1222 C1207 0.961 . S
H1223 C1207 0.960 . S
C1224 C1225 1.391 . S
C1224 C1226 1.394 . S
C1224 H1240 0.931 . S
C1225 C1224 1.391 . S
C1225 C1229 1.376 . S
C1226 C1224 1.394 . S
C1226 C1227 1.369 . S
C1226 C1230 1.531 . S
C1227 C1226 1.369 . S
C1227 C1228 1.410 . S
C1227 C1235 1.503 . S
C1228 C1227 1.410 . S
C1228 C1229 1.392 . S
C1228 C1231 1.511 . S
C1229 C1225 1.376 . S
C1229 C1228 1.392 . S
C1229 H1241 0.929 . S
C1230 C1226 1.531 . S
C1230 H1242 0.960 . S
C1230 H1243 0.962 . S
C1230 H1244 0.960 . S
C1231 C1228 1.511 . S
C1231 H1245 0.961 . S
C1231 H1246 0.961 . S
C1231 H1247 0.961 . S
C1232 C1233 1.370 . S
C1232 C1234 1.363 . S
C1232 H1248 0.931 . S
C1233 C1232 1.370 . S
C1233 C1237 1.408 . S
C1234 C1232 1.363 . S
C1234 C1235 1.370 . S
C1234 C1238 1.524 . S
C1235 C1227 1.503 . S
C1235 C1234 1.370 . S
C1235 C1236 1.403 . S
C1236 C1235 1.403 . S
C1236 C1237 1.404 . S
C1236 C1239 1.539 . S
C1237 C1233 1.408 . S
C1237 C1236 1.404 . S
C1237 H1249 0.930 . S
C1238 C1234 1.524 . S
C1238 H1250 0.956 . S
C1238 H1251 0.961 . S
C1238 H1252 0.961 . S
C1239 C1236 1.539 . S
C1239 H1253 0.958 . S
C1239 H1254 0.961 . S
C1239 H1255 0.960 . S
H1240 C1224 0.931 . S
H1241 C1229 0.929 . S
H1242 C1230 0.960 . S
H1243 C1230 0.962 . S
H1244 C1230 0.960 . S
H1245 C1231 0.961 . S
H1246 C1231 0.961 . S
H1247 C1231 0.961 . S
H1248 C1232 0.931 . S
H1249 C1237 0.930 . S
H1250 C1238 0.956 . S
H1251 C1238 0.961 . S
H1252 C1238 0.961 . S
H1253 C1239 0.958 . S
H1254 C1239 0.961 . S
H1255 C1239 0.960 . S
C1256 C1257 1.391 . S
C1256 C1258 1.394 . S
C1256 H1272 0.931 . S
C1257 C1256 1.391 . S
C1257 C1261 1.376 . S
C1258 C1256 1.394 . S
C1258 C1259 1.369 . S
C1258 C1262 1.531 . S
C1259 C1258 1.369 . S
C1259 C1260 1.410 . S
C1259 C1267 1.503 . S
C1260 C1259 1.410 . S
C1260 C1261 1.392 . S
C1260 C1263 1.511 . S
C1261 C1257 1.376 . S
C1261 C1260 1.392 . S
C1261 H1273 0.929 . S
C1262 C1258 1.531 . S
C1262 H1274 0.960 . S
C1262 H1275 0.962 . S
C1262 H1276 0.960 . S
C1263 C1260 1.511 . S
C1263 H1277 0.961 . S
C1263 H1278 0.961 . S
C1263 H1279 0.961 . S
C1264 C1265 1.370 . S
C1264 C1266 1.363 . S
C1264 H1280 0.931 . S
C1265 C1264 1.370 . S
C1265 C1269 1.408 . S
C1266 C1264 1.363 . S
C1266 C1267 1.370 . S
C1266 C1270 1.524 . S
C1267 C1259 1.503 . S
C1267 C1266 1.370 . S
C1267 C1268 1.403 . S
C1268 C1267 1.403 . S
C1268 C1269 1.404 . S
C1268 C1271 1.539 . S
C1269 C1265 1.408 . S
C1269 C1268 1.404 . S
C1269 H1281 0.930 . S
C1270 C1266 1.524 . S
C1270 H1282 0.956 . S
C1270 H1283 0.961 . S
C1270 H1284 0.961 . S
C1271 C1268 1.539 . S
C1271 H1285 0.958 . S
C1271 H1286 0.961 . S
C1271 H1287 0.960 . S
H1272 C1256 0.931 . S
H1273 C1261 0.929 . S
H1274 C1262 0.960 . S
H1275 C1262 0.962 . S
H1276 C1262 0.960 . S
H1277 C1263 0.961 . S
H1278 C1263 0.961 . S
H1279 C1263 0.961 . S
H1280 C1264 0.931 . S
H1281 C1269 0.930 . S
H1282 C1270 0.956 . S
H1283 C1270 0.961 . S
H1284 C1270 0.961 . S
H1285 C1271 0.958 . S
H1286 C1271 0.961 . S
H1287 C1271 0.960 . S
C1288 C1289 1.391 . S
C1288 C1290 1.394 . S
C1288 H1304 0.931 . S
C1289 C1288 1.391 . S
C1289 C1293 1.376 . S
C1290 C1288 1.394 . S
C1290 C1291 1.369 . S
C1290 C1294 1.531 . S
C1291 C1290 1.369 . S
C1291 C1292 1.410 . S
C1291 C1299 1.503 . S
C1292 C1291 1.410 . S
C1292 C1293 1.392 . S
C1292 C1295 1.511 . S
C1293 C1289 1.376 . S
C1293 C1292 1.392 . S
C1293 H1305 0.929 . S
C1294 C1290 1.531 . S
C1294 H1306 0.960 . S
C1294 H1307 0.962 . S
C1294 H1308 0.960 . S
C1295 C1292 1.511 . S
C1295 H1309 0.961 . S
C1295 H1310 0.961 . S
C1295 H1311 0.961 . S
C1296 C1297 1.370 . S
C1296 C1298 1.363 . S
C1296 H1312 0.931 . S
C1297 C1296 1.370 . S
C1297 C1301 1.408 . S
C1298 C1296 1.363 . S
C1298 C1299 1.370 . S
C1298 C1302 1.524 . S
C1299 C1291 1.503 . S
C1299 C1298 1.370 . S
C1299 C1300 1.403 . S
C1300 C1299 1.403 . S
C1300 C1301 1.404 . S
C1300 C1303 1.539 . S
C1301 C1297 1.408 . S
C1301 C1300 1.404 . S
C1301 H1313 0.930 . S
C1302 C1298 1.524 . S
C1302 H1314 0.956 . S
C1302 H1315 0.961 . S
C1302 H1316 0.961 . S
C1303 C1300 1.539 . S
C1303 H1317 0.958 . S
C1303 H1318 0.961 . S
C1303 H1319 0.960 . S
H1304 C1288 0.931 . S
H1305 C1293 0.929 . S
H1306 C1294 0.960 . S
H1307 C1294 0.962 . S
H1308 C1294 0.960 . S
H1309 C1295 0.961 . S
H1310 C1295 0.961 . S
H1311 C1295 0.961 . S
H1312 C1296 0.931 . S
H1313 C1301 0.930 . S
H1314 C1302 0.956 . S
H1315 C1302 0.961 . S
H1316 C1302 0.961 . S
H1317 C1303 0.958 . S
H1318 C1303 0.961 . S
H1319 C1303 0.960 . S
C1320 C1321 1.391 . S
C1320 C1322 1.394 . S
C1320 H1336 0.931 . S
C1321 C1320 1.391 . S
C1321 C1325 1.376 . S
C1322 C1320 1.394 . S
C1322 C1323 1.369 . S
C1322 C1326 1.531 . S
C1323 C1322 1.369 . S
C1323 C1324 1.410 . S
C1323 C1331 1.503 . S
C1324 C1323 1.410 . S
C1324 C1325 1.392 . S
C1324 C1327 1.511 . S
C1325 C1321 1.376 . S
C1325 C1324 1.392 . S
C1325 H1337 0.929 . S
C1326 C1322 1.531 . S
C1326 H1338 0.960 . S
C1326 H1339 0.962 . S
C1326 H1340 0.960 . S
C1327 C1324 1.511 . S
C1327 H1341 0.961 . S
C1327 H1342 0.961 . S
C1327 H1343 0.961 . S
C1328 C1329 1.370 . S
C1328 C1330 1.363 . S
C1328 H1344 0.931 . S
C1329 C1328 1.370 . S
C1329 C1333 1.408 . S
C1330 C1328 1.363 . S
C1330 C1331 1.370 . S
C1330 C1334 1.524 . S
C1331 C1323 1.503 . S
C1331 C1330 1.370 . S
C1331 C1332 1.403 . S
C1332 C1331 1.403 . S
C1332 C1333 1.404 . S
C1332 C1335 1.539 . S
C1333 C1329 1.408 . S
C1333 C1332 1.404 . S
C1333 H1345 0.930 . S
C1334 C1330 1.524 . S
C1334 H1346 0.956 . S
C1334 H1347 0.961 . S
C1334 H1348 0.961 . S
C1335 C1332 1.539 . S
C1335 H1349 0.958 . S
C1335 H1350 0.961 . S
C1335 H1351 0.960 . S
H1336 C1320 0.931 . S
H1337 C1325 0.929 . S
H1338 C1326 0.960 . S
H1339 C1326 0.962 . S
H1340 C1326 0.960 . S
H1341 C1327 0.961 . S
H1342 C1327 0.961 . S
H1343 C1327 0.961 . S
H1344 C1328 0.931 . S
H1345 C1333 0.930 . S
H1346 C1334 0.956 . S
H1347 C1334 0.961 . S
H1348 C1334 0.961 . S
H1349 C1335 0.958 . S
H1350 C1335 0.961 . S
H1351 C1335 0.960 . S
C1352 C1353 1.391 . S
C1352 C1354 1.394 . S
C1352 H1368 0.931 . S
C1353 C1352 1.391 . S
C1353 C1357 1.376 . S
C1354 C1352 1.394 . S
C1354 C1355 1.369 . S
C1354 C1358 1.531 . S
C1355 C1354 1.369 . S
C1355 C1356 1.410 . S
C1355 C1363 1.503 . S
C1356 C1355 1.410 . S
C1356 C1357 1.392 . S
C1356 C1359 1.511 . S
C1357 C1353 1.376 . S
C1357 C1356 1.392 . S
C1357 H1369 0.929 . S
C1358 C1354 1.531 . S
C1358 H1370 0.960 . S
C1358 H1371 0.962 . S
C1358 H1372 0.960 . S
C1359 C1356 1.511 . S
C1359 H1373 0.961 . S
C1359 H1374 0.961 . S
C1359 H1375 0.961 . S
C1360 C1361 1.370 . S
C1360 C1362 1.363 . S
C1360 H1376 0.931 . S
C1361 C1360 1.370 . S
C1361 C1365 1.408 . S
C1362 C1360 1.363 . S
C1362 C1363 1.370 . S
C1362 C1366 1.524 . S
C1363 C1355 1.503 . S
C1363 C1362 1.370 . S
C1363 C1364 1.403 . S
C1364 C1363 1.403 . S
C1364 C1365 1.404 . S
C1364 C1367 1.539 . S
C1365 C1361 1.408 . S
C1365 C1364 1.404 . S
C1365 H1377 0.930 . S
C1366 C1362 1.524 . S
C1366 H1378 0.956 . S
C1366 H1379 0.961 . S
C1366 H1380 0.961 . S
C1367 C1364 1.539 . S
C1367 H1381 0.958 . S
C1367 H1382 0.961 . S
C1367 H1383 0.960 . S
H1368 C1352 0.931 . S
H1369 C1357 0.929 . S
H1370 C1358 0.960 . S
H1371 C1358 0.962 . S
H1372 C1358 0.960 . S
H1373 C1359 0.961 . S
H1374 C1359 0.961 . S
H1375 C1359 0.961 . S
H1376 C1360 0.931 . S
H1377 C1365 0.930 . S
H1378 C1366 0.956 . S
H1379 C1366 0.961 . S
H1380 C1366 0.961 . S
H1381 C1367 0.958 . S
H1382 C1367 0.961 . S
H1383 C1367 0.960 . S
C1384 C1385 1.391 . S
C1384 C1386 1.394 . S
C1384 H1400 0.931 . S
C1385 C1384 1.391 . S
C1385 C1389 1.376 . S
C1386 C1384 1.394 . S
C1386 C1387 1.369 . S
C1386 C1390 1.531 . S
C1387 C1386 1.369 . S
C1387 C1388 1.410 . S
C1387 C1395 1.503 . S
C1388 C1387 1.410 . S
C1388 C1389 1.392 . S
C1388 C1391 1.511 . S
C1389 C1385 1.376 . S
C1389 C1388 1.392 . S
C1389 H1401 0.929 . S
C1390 C1386 1.531 . S
C1390 H1402 0.960 . S
C1390 H1403 0.962 . S
C1390 H1404 0.960 . S
C1391 C1388 1.511 . S
C1391 H1405 0.961 . S
C1391 H1406 0.961 . S
C1391 H1407 0.961 . S
C1392 C1393 1.370 . S
C1392 C1394 1.363 . S
C1392 H1408 0.931 . S
C1393 C1392 1.370 . S
C1393 C1397 1.408 . S
C1394 C1392 1.363 . S
C1394 C1395 1.370 . S
C1394 C1398 1.524 . S
C1395 C1387 1.503 . S
C1395 C1394 1.370 . S
C1395 C1396 1.403 . S
C1396 C1395 1.403 . S
C1396 C1397 1.404 . S
C1396 C1399 1.539 . S
C1397 C1393 1.408 . S
C1397 C1396 1.404 . S
C1397 H1409 0.930 . S
C1398 C1394 1.524 . S
C1398 H1410 0.956 . S
C1398 H1411 0.961 . S
C1398 H1412 0.961 . S
C1399 C1396 1.539 . S
C1399 H1413 0.958 . S
C1399 H1414 0.961 . S
C1399 H1415 0.960 . S
H1400 C1384 0.931 . S
H1401 C1389 0.929 . S
H1402 C1390 0.960 . S
H1403 C1390 0.962 . S
H1404 C1390 0.960 . S
H1405 C1391 0.961 . S
H1406 C1391 0.961 . S
H1407 C1391 0.961 . S
H1408 C1392 0.931 . S
H1409 C1397 0.930 . S
H1410 C1398 0.956 . S
H1411 C1398 0.961 . S
H1412 C1398 0.961 . S
H1413 C1399 0.958 . S
H1414 C1399 0.961 . S
H1415 C1399 0.960 . S
C265 C115 1.127 . S
C273 C5 1.144 . S
C297 C31 1.140 . S
C305 C9 1.142 . S
C329 C49 1.141 . S
C337 C27 1.123 . S
C361 C53 1.113 . S
C369 C75 1.144 . S
C393 C71 1.142 . S
C401 C93 1.144 . S
C425 C119 1.141 . S
C433 C97 1.132 . S
C457 C159 1.120 . S
C465 C137 1.143 . S
C489 C163 1.140 . S
C497 C185 1.129 . S
C521 C203 1.124 . S
C529 C181 1.143 . S
C553 C229 1.110 . S
C561 C207 1.185 . S
C585 C247 1.142 . S
C593 C225 1.143 . S
C617 C141 1.117 . S
C625 C251 1.144 . S
C649 C248 1.339 . S
C657 C4 1.357 . S
C681 C30 1.363 . S
C689 C139 1.353 . S
C713 C160 1.349 . S
C721 C48 1.351 . S
C745 C183 1.368 . S
C753 C74 1.353 . S
C777 C204 1.358 . S
C785 C92 1.358 . S
C809 C118 1.334 . S
C817 C227 1.369 . S
C841 C136 1.360 . S
C849 C28 1.363 . S
C873 C162 1.357 . S
C881 C51 1.364 . S
C905 C72 1.347 . S
C913 C180 1.351 . S
C937 C95 1.374 . S
C945 C206 1.342 . S
C969 C224 1.374 . S
C977 C116 1.354 . S
C1001 C250 1.373 . S
C1009 C7 1.353 . S
C1033 C138 1.194 1_455 S
C1041 C6 1.158 1_565 S
C1065 C29 1.129 . S
C1073 C161 1.159 1_545 S
C1097 C182 1.196 . S
C1105 C50 1.161 1_455 S
C1129 C73 1.191 1_545 S
C1137 C205 1.156 1_655 S
C1161 C226 1.195 1_565 S
C1169 C94 1.165 . S
C1193 C249 1.187 . S
C1201 C117 1.173 1_655 S
C1225 C140 0.943 . S
C1233 C8 0.921 . S
C1257 C158 0.940 . S
C1265 C26 0.926 . S
C1289 C184 0.927 . S
C1297 C52 0.932 . S
C1321 C70 0.912 . S
C1329 C202 0.928 . S
C1353 C228 0.907 . S
C1361 C96 0.932 . S
C1385 C246 0.931 . S
C1393 C114 0.930 . S
