# Generated by pormake.
# Topology lcv-f, (3)-cn, num edge types: 1
# Building blocks:
#     Node 0, Type 0, BuildingBlock: OLANEW_clean_sbu_2, # of connection points: 3
#     Node 1, Type 0, BuildingBlock: OLANEW_clean_sbu_2, # of connection points: 3
#     Node 2, Type 0, BuildingBlock: OLANEW_clean_sbu_2, # of connection points: 3
#     Node 3, Type 0, BuildingBlock: OLANEW_clean_sbu_2, # of connection points: 3
#     Node 4, Type 0, BuildingBlock: OLANEW_clean_sbu_2, # of connection points: 3
#     Node 5, Type 0, BuildingBlock: OLANEW_clean_sbu_2, # of connection points: 3
#     Node 6, Type 0, BuildingBlock: OLANEW_clean_sbu_2, # of connection points: 3
#     Node 7, Type 0, BuildingBlock: OLANEW_clean_sbu_2, # of connection points: 3
#     Node 8, Type 0, BuildingBlock: OLANEW_clean_sbu_2, # of connection points: 3
#     Node 9, Type 0, BuildingBlock: OLANEW_clean_sbu_2, # of connection points: 3
#     Node 10, Type 0, BuildingBlock: OLANEW_clean_sbu_2, # of connection points: 3
#     Node 11, Type 0, BuildingBlock: OLANEW_clean_sbu_2, # of connection points: 3
#     Node 12, Type 0, BuildingBlock: OLANEW_clean_sbu_2, # of connection points: 3
#     Node 13, Type 0, BuildingBlock: OLANEW_clean_sbu_2, # of connection points: 3
#     Node 14, Type 0, BuildingBlock: OLANEW_clean_sbu_2, # of connection points: 3
#     Node 15, Type 0, BuildingBlock: OLANEW_clean_sbu_2, # of connection points: 3
#     Node 16, Type 0, BuildingBlock: OLANEW_clean_sbu_2, # of connection points: 3
#     Node 17, Type 0, BuildingBlock: OLANEW_clean_sbu_2, # of connection points: 3
#     Node 18, Type 0, BuildingBlock: OLANEW_clean_sbu_2, # of connection points: 3
#     Node 19, Type 0, BuildingBlock: OLANEW_clean_sbu_2, # of connection points: 3
#     Node 20, Type 0, BuildingBlock: OLANEW_clean_sbu_2, # of connection points: 3
#     Node 21, Type 0, BuildingBlock: OLANEW_clean_sbu_2, # of connection points: 3
#     Node 22, Type 0, BuildingBlock: OLANEW_clean_sbu_2, # of connection points: 3
#     Node 23, Type 0, BuildingBlock: OLANEW_clean_sbu_2, # of connection points: 3
#     Node 24, Type 0, BuildingBlock: OLANEW_clean_sbu_2, # of connection points: 3
#     Node 25, Type 0, BuildingBlock: OLANEW_clean_sbu_2, # of connection points: 3
#     Node 26, Type 0, BuildingBlock: OLANEW_clean_sbu_2, # of connection points: 3
#     Node 27, Type 0, BuildingBlock: OLANEW_clean_sbu_2, # of connection points: 3
#     Node 28, Type 0, BuildingBlock: OLANEW_clean_sbu_2, # of connection points: 3
#     Node 29, Type 0, BuildingBlock: OLANEW_clean_sbu_2, # of connection points: 3
#     Node 30, Type 0, BuildingBlock: OLANEW_clean_sbu_2, # of connection points: 3
#     Node 31, Type 0, BuildingBlock: OLANEW_clean_sbu_2, # of connection points: 3
#     Node 32, Type 0, BuildingBlock: OLANEW_clean_sbu_2, # of connection points: 3
#     Node 33, Type 0, BuildingBlock: OLANEW_clean_sbu_2, # of connection points: 3
#     Node 34, Type 0, BuildingBlock: OLANEW_clean_sbu_2, # of connection points: 3
#     Node 35, Type 0, BuildingBlock: OLANEW_clean_sbu_2, # of connection points: 3
#     Node 36, Type 0, BuildingBlock: OLANEW_clean_sbu_2, # of connection points: 3
#     Node 37, Type 0, BuildingBlock: OLANEW_clean_sbu_2, # of connection points: 3
#     Node 38, Type 0, BuildingBlock: OLANEW_clean_sbu_2, # of connection points: 3
#     Node 39, Type 0, BuildingBlock: OLANEW_clean_sbu_2, # of connection points: 3
#     Node 40, Type 0, BuildingBlock: OLANEW_clean_sbu_2, # of connection points: 3
#     Node 41, Type 0, BuildingBlock: OLANEW_clean_sbu_2, # of connection points: 3
#     Node 42, Type 0, BuildingBlock: OLANEW_clean_sbu_2, # of connection points: 3
#     Node 43, Type 0, BuildingBlock: OLANEW_clean_sbu_2, # of connection points: 3
#     Node 44, Type 0, BuildingBlock: OLANEW_clean_sbu_2, # of connection points: 3
#     Node 45, Type 0, BuildingBlock: OLANEW_clean_sbu_2, # of connection points: 3
#     Node 46, Type 0, BuildingBlock: OLANEW_clean_sbu_2, # of connection points: 3
#     Node 47, Type 0, BuildingBlock: OLANEW_clean_sbu_2, # of connection points: 3
#     Edge 48, Type (0, 0), BuildingBlock: AJUNOK_clean_linker_0, # of connection points: 2
#     Edge 49, Type (0, 0), BuildingBlock: AJUNOK_clean_linker_0, # of connection points: 2
#     Edge 50, Type (0, 0), BuildingBlock: AJUNOK_clean_linker_0, # of connection points: 2
#     Edge 51, Type (0, 0), BuildingBlock: AJUNOK_clean_linker_0, # of connection points: 2
#     Edge 52, Type (0, 0), BuildingBlock: AJUNOK_clean_linker_0, # of connection points: 2
#     Edge 53, Type (0, 0), BuildingBlock: AJUNOK_clean_linker_0, # of connection points: 2
#     Edge 54, Type (0, 0), BuildingBlock: AJUNOK_clean_linker_0, # of connection points: 2
#     Edge 55, Type (0, 0), BuildingBlock: AJUNOK_clean_linker_0, # of connection points: 2
#     Edge 56, Type (0, 0), BuildingBlock: AJUNOK_clean_linker_0, # of connection points: 2
#     Edge 57, Type (0, 0), BuildingBlock: AJUNOK_clean_linker_0, # of connection points: 2
#     Edge 58, Type (0, 0), BuildingBlock: AJUNOK_clean_linker_0, # of connection points: 2
#     Edge 59, Type (0, 0), BuildingBlock: AJUNOK_clean_linker_0, # of connection points: 2
#     Edge 60, Type (0, 0), BuildingBlock: AJUNOK_clean_linker_0, # of connection points: 2
#     Edge 61, Type (0, 0), BuildingBlock: AJUNOK_clean_linker_0, # of connection points: 2
#     Edge 62, Type (0, 0), BuildingBlock: AJUNOK_clean_linker_0, # of connection points: 2
#     Edge 63, Type (0, 0), BuildingBlock: AJUNOK_clean_linker_0, # of connection points: 2
#     Edge 64, Type (0, 0), BuildingBlock: AJUNOK_clean_linker_0, # of connection points: 2
#     Edge 65, Type (0, 0), BuildingBlock: AJUNOK_clean_linker_0, # of connection points: 2
#     Edge 66, Type (0, 0), BuildingBlock: AJUNOK_clean_linker_0, # of connection points: 2
#     Edge 67, Type (0, 0), BuildingBlock: AJUNOK_clean_linker_0, # of connection points: 2
#     Edge 68, Type (0, 0), BuildingBlock: AJUNOK_clean_linker_0, # of connection points: 2
#     Edge 69, Type (0, 0), BuildingBlock: AJUNOK_clean_linker_0, # of connection points: 2
#     Edge 70, Type (0, 0), BuildingBlock: AJUNOK_clean_linker_0, # of connection points: 2
#     Edge 71, Type (0, 0), BuildingBlock: AJUNOK_clean_linker_0, # of connection points: 2
#     Edge 72, Type (0, 0), BuildingBlock: AJUNOK_clean_linker_0, # of connection points: 2
#     Edge 73, Type (0, 0), BuildingBlock: AJUNOK_clean_linker_0, # of connection points: 2
#     Edge 74, Type (0, 0), BuildingBlock: AJUNOK_clean_linker_0, # of connection points: 2
#     Edge 75, Type (0, 0), BuildingBlock: AJUNOK_clean_linker_0, # of connection points: 2
#     Edge 76, Type (0, 0), BuildingBlock: AJUNOK_clean_linker_0, # of connection points: 2
#     Edge 77, Type (0, 0), BuildingBlock: AJUNOK_clean_linker_0, # of connection points: 2
#     Edge 78, Type (0, 0), BuildingBlock: AJUNOK_clean_linker_0, # of connection points: 2
#     Edge 79, Type (0, 0), BuildingBlock: AJUNOK_clean_linker_0, # of connection points: 2
#     Edge 80, Type (0, 0), BuildingBlock: AJUNOK_clean_linker_0, # of connection points: 2
#     Edge 81, Type (0, 0), BuildingBlock: AJUNOK_clean_linker_0, # of connection points: 2
#     Edge 82, Type (0, 0), BuildingBlock: AJUNOK_clean_linker_0, # of connection points: 2
#     Edge 83, Type (0, 0), BuildingBlock: AJUNOK_clean_linker_0, # of connection points: 2
#     Edge 84, Type (0, 0), BuildingBlock: AJUNOK_clean_linker_0, # of connection points: 2
#     Edge 85, Type (0, 0), BuildingBlock: AJUNOK_clean_linker_0, # of connection points: 2
#     Edge 86, Type (0, 0), BuildingBlock: AJUNOK_clean_linker_0, # of connection points: 2
#     Edge 87, Type (0, 0), BuildingBlock: AJUNOK_clean_linker_0, # of connection points: 2
#     Edge 88, Type (0, 0), BuildingBlock: AJUNOK_clean_linker_0, # of connection points: 2
#     Edge 89, Type (0, 0), BuildingBlock: AJUNOK_clean_linker_0, # of connection points: 2
#     Edge 90, Type (0, 0), BuildingBlock: AJUNOK_clean_linker_0, # of connection points: 2
#     Edge 91, Type (0, 0), BuildingBlock: AJUNOK_clean_linker_0, # of connection points: 2
#     Edge 92, Type (0, 0), BuildingBlock: AJUNOK_clean_linker_0, # of connection points: 2
#     Edge 93, Type (0, 0), BuildingBlock: AJUNOK_clean_linker_0, # of connection points: 2
#     Edge 94, Type (0, 0), BuildingBlock: AJUNOK_clean_linker_0, # of connection points: 2
#     Edge 95, Type (0, 0), BuildingBlock: AJUNOK_clean_linker_0, # of connection points: 2
#     Edge 96, Type (0, 0), BuildingBlock: AJUNOK_clean_linker_0, # of connection points: 2
#     Edge 97, Type (0, 0), BuildingBlock: AJUNOK_clean_linker_0, # of connection points: 2
#     Edge 98, Type (0, 0), BuildingBlock: AJUNOK_clean_linker_0, # of connection points: 2
#     Edge 99, Type (0, 0), BuildingBlock: AJUNOK_clean_linker_0, # of connection points: 2
#     Edge 100, Type (0, 0), BuildingBlock: AJUNOK_clean_linker_0, # of connection points: 2
#     Edge 101, Type (0, 0), BuildingBlock: AJUNOK_clean_linker_0, # of connection points: 2
#     Edge 102, Type (0, 0), BuildingBlock: AJUNOK_clean_linker_0, # of connection points: 2
#     Edge 103, Type (0, 0), BuildingBlock: AJUNOK_clean_linker_0, # of connection points: 2
#     Edge 104, Type (0, 0), BuildingBlock: AJUNOK_clean_linker_0, # of connection points: 2
#     Edge 105, Type (0, 0), BuildingBlock: AJUNOK_clean_linker_0, # of connection points: 2
#     Edge 106, Type (0, 0), BuildingBlock: AJUNOK_clean_linker_0, # of connection points: 2
#     Edge 107, Type (0, 0), BuildingBlock: AJUNOK_clean_linker_0, # of connection points: 2
#     Edge 108, Type (0, 0), BuildingBlock: AJUNOK_clean_linker_0, # of connection points: 2
#     Edge 109, Type (0, 0), BuildingBlock: AJUNOK_clean_linker_0, # of connection points: 2
#     Edge 110, Type (0, 0), BuildingBlock: AJUNOK_clean_linker_0, # of connection points: 2
#     Edge 111, Type (0, 0), BuildingBlock: AJUNOK_clean_linker_0, # of connection points: 2
#     Edge 112, Type (0, 0), BuildingBlock: AJUNOK_clean_linker_0, # of connection points: 2
#     Edge 113, Type (0, 0), BuildingBlock: AJUNOK_clean_linker_0, # of connection points: 2
#     Edge 114, Type (0, 0), BuildingBlock: AJUNOK_clean_linker_0, # of connection points: 2
#     Edge 115, Type (0, 0), BuildingBlock: AJUNOK_clean_linker_0, # of connection points: 2
#     Edge 116, Type (0, 0), BuildingBlock: AJUNOK_clean_linker_0, # of connection points: 2
#     Edge 117, Type (0, 0), BuildingBlock: AJUNOK_clean_linker_0, # of connection points: 2
#     Edge 118, Type (0, 0), BuildingBlock: AJUNOK_clean_linker_0, # of connection points: 2
#     Edge 119, Type (0, 0), BuildingBlock: AJUNOK_clean_linker_0, # of connection points: 2
# Relax obj value: 0.027
# Max RMSD: 0.046
# Mean RMSD: 0.023
data_MOF--net-lcv-f--node1-OLANEW_clean_sbu_2--edge1-AJUNOK_clean_linker_0
_symmetry_space_group_name_H-M    P1
_symmetry_Int_Tables_number       1
_symmetry_cell_setting            triclinic
loop_
_symmetry_equiv_pos_as_xyz
'x, y, z'
_cell_length_a     87.573205
_cell_length_b     85.768736
_cell_length_c     86.511934
_cell_angle_alpha  94.794264
_cell_angle_beta   91.544021
_cell_angle_gamma 89.712311
loop_
_atom_site_label
_atom_site_type_symbol
_atom_site_fract_x
_atom_site_fract_y
_atom_site_fract_z
_atom_type_partial_charge
O0 O 0.09069 0.02086 0.12165 0.0
Cd1 Cd 0.06562 0.01372 0.13052 0.0
O2 O 0.0938 0.99925 0.10654 0.0
Cd3 Cd 0.07543 0.98647 0.11643 0.0
O4 O 0.07276 0.96552 0.12891 0.0
C5 C 0.07971 0.95339 0.12324 0.0
O6 O 0.08676 0.95418 0.11011 0.0
C7 C 0.09839 0.01282 0.11159 0.0
C8 C 0.0451 0.03817 0.12634 0.0
O9 O 0.05323 0.03785 0.13885 0.0
O10 O 0.04651 0.02677 0.11591 0.0
O11 O 0.22994 0.86186 0.3925 0.0
Cd12 Cd 0.23768 0.83726 0.40293 0.0
O13 O 0.24583 0.85913 0.37321 0.0
Cd14 Cd 0.25887 0.84067 0.38332 0.0
O15 O 0.28029 0.83626 0.39566 0.0
C16 C 0.28483 0.84749 0.40515 0.0
O17 O 0.27602 0.8599 0.40726 0.0
C18 C 0.23508 0.86662 0.38011 0.0
C19 C 0.22589 0.81094 0.38542 0.0
O20 O 0.21838 0.81781 0.39656 0.0
O21 O 0.23892 0.81659 0.38256 0.0
O22 O 0.40813 0.98212 0.66311 0.0
Cd23 Cd 0.42959 0.98664 0.68154 0.0
O24 O 0.4124 0.00392 0.65233 0.0
Cd25 Cd 0.42897 0.01344 0.66983 0.0
O26 O 0.43285 0.03492 0.68477 0.0
C27 C 0.42092 0.04094 0.69087 0.0
O28 O 0.40796 0.03332 0.6886 0.0
C29 C 0.40492 0.9913 0.65267 0.0
C30 C 0.45641 0.97298 0.66991 0.0
O31 O 0.44729 0.96535 0.67781 0.0
O32 O 0.45283 0.98712 0.66756 0.0
O33 O 0.28622 0.24083 0.89276 0.0
Cd34 Cd 0.28696 0.26631 0.90773 0.0
O35 O 0.26185 0.2418 0.88609 0.0
Cd36 Cd 0.25666 0.26172 0.90256 0.0
O37 O 0.24303 0.26721 0.92316 0.0
C38 C 0.2286 0.26591 0.92153 0.0
O39 O 0.22274 0.26278 0.90748 0.0
C40 C 0.27472 0.23491 0.88517 0.0
C41 C 0.3166 0.27842 0.90823 0.0
O42 O 0.31234 0.2697 0.91864 0.0
O43 O 0.30676 0.28156 0.8977 0.0
O44 O 0.13749 0.87766 0.18855 0.0
Cd45 Cd 0.11305 0.86583 0.17986 0.0
O46 O 0.12682 0.89598 0.20397 0.0
Cd47 Cd 0.10415 0.89225 0.19326 0.0
O48 O 0.09034 0.90437 0.17654 0.0
C49 C 0.09525 0.90391 0.16282 0.0
O50 O 0.10725 0.89516 0.15939 0.0
C51 C 0.13879 0.88914 0.19879 0.0
C52 C 0.10787 0.83817 0.19387 0.0
O53 O 0.11498 0.83804 0.1811 0.0
O54 O 0.10321 0.85141 0.19998 0.0
O55 O 0.41975 0.89006 0.44673 0.0
Cd56 Cd 0.43552 0.86723 0.43913 0.0
O57 O 0.40005 0.87435 0.44467 0.0
Cd58 Cd 0.3756 0.8692 0.44291 0.0
O59 O 0.35151 0.86501 0.43699 0.0
C60 C 0.34722 0.852 0.43018 0.0
O61 O 0.35748 0.84102 0.42719 0.0
C62 C 0.40542 0.88808 0.44739 0.0
C63 C 0.46118 0.86388 0.45842 0.0
O64 O 0.46171 0.872 0.44667 0.0
O65 O 0.44843 0.8575 0.46112 0.0
O66 O 0.38137 0.18178 0.71336 0.0
Cd67 Cd 0.40434 0.19748 0.71154 0.0
O68 O 0.39672 0.1624 0.71809 0.0
Cd69 Cd 0.4017 0.13765 0.7203 0.0
O70 O 0.40481 0.11234 0.71681 0.0
C71 C 0.41798 0.10631 0.71483 0.0
O72 O 0.42992 0.11558 0.71552 0.0
C73 C 0.38323 0.16756 0.71609 0.0
C74 C 0.42184 0.19908 0.73899 0.0
O75 O 0.41239 0.21001 0.73617 0.0
O76 O 0.42306 0.18745 0.7288 0.0
O77 O 0.17454 0.20235 0.00451 0.0
Cd78 Cd 0.16215 0.22748 0.00107 0.0
O79 O 0.19716 0.21218 0.01104 0.0
Cd80 Cd 0.192 0.23566 0.00433 0.0
O81 O 0.20047 0.25109 0.98762 0.0
C82 C 0.1937 0.25159 0.97449 0.0
O83 O 0.1808 0.24393 0.9719 0.0
C84 C 0.18831 0.20045 0.00904 0.0
C85 C 0.13076 0.22505 0.00551 0.0
O86 O 0.13645 0.22181 0.99213 0.0
O87 O 0.13991 0.22969 0.01675 0.0
O88 O 0.20624 0.12644 0.99782 0.0
Cd89 Cd 0.21726 0.10067 0.99068 0.0
O90 O 0.22899 0.1371 0.00097 0.0
Cd91 Cd 0.24032 0.11749 0.98818 0.0
O92 O 0.24952 0.11087 0.96531 0.0
C93 C 0.24026 0.11114 0.95377 0.0
O94 O 0.22576 0.11395 0.95644 0.0
C95 C 0.21457 0.13821 0.00212 0.0
C96 C 0.21326 0.08073 0.01414 0.0
O97 O 0.2246 0.09015 0.0146 0.0
O98 O 0.2039 0.08062 0.00248 0.0
O99 O 0.19472 0.93671 0.21824 0.0
Cd100 Cd 0.21469 0.95663 0.22131 0.0
O101 O 0.20541 0.92254 0.19913 0.0
Cd102 Cd 0.22113 0.94127 0.1948 0.0
O103 O 0.22311 0.95917 0.17841 0.0
C104 C 0.21781 0.95496 0.16488 0.0
O105 O 0.21272 0.94058 0.16215 0.0
C106 C 0.19486 0.92442 0.20893 0.0
C107 C 0.22265 0.96209 0.25278 0.0
O108 O 0.21176 0.96971 0.24665 0.0
O109 O 0.22999 0.95213 0.24391 0.0
O110 O 0.35359 0.94001 0.46928 0.0
Cd111 Cd 0.33686 0.96229 0.47633 0.0
O112 O 0.3628 0.95132 0.44964 0.0
Cd113 Cd 0.34419 0.96839 0.44895 0.0
O114 O 0.32293 0.97644 0.43834 0.0
C115 C 0.31047 0.97722 0.44558 0.0
O116 O 0.31063 0.97405 0.46018 0.0
C117 C 0.3632 0.94023 0.45854 0.0
C118 C 0.32981 0.96414 0.5077 0.0
O119 O 0.34285 0.96849 0.50332 0.0
O120 O 0.32001 0.95889 0.49732 0.0
O121 O 0.3313 0.11586 0.72811 0.0
Cd122 Cd 0.31117 0.09699 0.73171 0.0
O123 O 0.32377 0.1213 0.7047 0.0
Cd124 Cd 0.30805 0.10149 0.7013 0.0
O125 O 0.30188 0.07868 0.68958 0.0
C126 C 0.29832 0.0778 0.67518 0.0
O127 O 0.29742 0.09079 0.66817 0.0
C128 C 0.33262 0.1239 0.71652 0.0
C129 C 0.29877 0.10409 0.76095 0.0
O130 O 0.31034 0.09498 0.75917 0.0
O131 O 0.29284 0.10957 0.74881 0.0
O132 O 0.23688 0.93589 0.3559 0.0
Cd133 Cd 0.2421 0.9629 0.35079 0.0
O134 O 0.22617 0.94109 0.37841 0.0
Cd135 Cd 0.23515 0.96488 0.38096 0.0
O136 O 0.25422 0.97592 0.39447 0.0
C137 C 0.25379 0.97573 0.40914 0.0
O138 O 0.24144 0.97035 0.41513 0.0
C139 C 0.22984 0.93125 0.36731 0.0
C140 C 0.23646 0.9658 0.31923 0.0
O141 O 0.24959 0.96151 0.32426 0.0
O142 O 0.22611 0.96906 0.32919 0.0
O143 O 0.33917 0.97201 0.61869 0.0
Cd144 Cd 0.31419 0.96885 0.60553 0.0
O145 O 0.34157 0.99637 0.61303 0.0
Cd146 Cd 0.31718 0.00065 0.60973 0.0
O147 O 0.30422 0.01916 0.6225 0.0
C148 C 0.30481 0.01921 0.63722 0.0
O149 O 0.31169 0.00749 0.6434 0.0
C150 C 0.34735 0.98415 0.61817 0.0
C151 C 0.31777 0.96721 0.57345 0.0
O152 O 0.32078 0.95543 0.58119 0.0
O153 O 0.31288 0.97978 0.58076 0.0
O154 O 0.2646 0.16278 0.85523 0.0
Cd155 Cd 0.26177 0.13444 0.84996 0.0
O156 O 0.28592 0.16101 0.86894 0.0
Cd157 Cd 0.28305 0.13609 0.87144 0.0
O158 O 0.27601 0.12183 0.88978 0.0
C159 C 0.26188 0.1215 0.89267 0.0
O160 O 0.25221 0.1283 0.88347 0.0
C161 C 0.27588 0.16937 0.86264 0.0
C162 C 0.27398 0.12371 0.82147 0.0
O163 O 0.26015 0.12859 0.82235 0.0
O164 O 0.28203 0.12395 0.83408 0.0
O165 O 0.16832 0.01843 0.08925 0.0
Cd166 Cd 0.19581 0.01884 0.08505 0.0
O167 O 0.16893 0.03586 0.10935 0.0
Cd168 Cd 0.1935 0.03269 0.11252 0.0
O169 O 0.20704 0.01605 0.12496 0.0
C170 C 0.20298 0.00188 0.12203 0.0
O171 O 0.1922 0.9987 0.11139 0.0
C172 C 0.16131 0.02716 0.09935 0.0
C173 C 0.20259 0.039 0.06248 0.0
O174 O 0.19859 0.02481 0.05871 0.0
O175 O 0.20344 0.04366 0.07694 0.0
O176 O 0.03336 0.1924 0.04302 0.0
Cd177 Cd 0.03566 0.21294 0.02523 0.0
O178 O 0.01422 0.18046 0.03015 0.0
Cd179 Cd 0.00981 0.19977 0.01572 0.0
O180 O 0.99384 0.2192 0.01363 0.0
C181 C 0.99468 0.23042 0.02418 0.0
O182 O 0.00573 0.23019 0.03474 0.0
C183 C 0.02404 0.18102 0.04128 0.0
C184 C 0.06615 0.21732 0.0178 0.0
O185 O 0.06038 0.22467 0.02979 0.0
O186 O 0.05746 0.20794 0.00932 0.0
O187 O 0.51474 0.38893 0.90902 0.0
Cd188 Cd 0.51896 0.37349 0.93131 0.0
O189 O 0.51265 0.41186 0.92236 0.0
Cd190 Cd 0.50853 0.39963 0.94298 0.0
O191 O 0.49597 0.38023 0.95139 0.0
C192 C 0.48218 0.3787 0.94657 0.0
O193 O 0.47625 0.3895 0.93828 0.0
C194 C 0.51355 0.40375 0.90942 0.0
C195 C 0.54829 0.37798 0.94452 0.0
O196 O 0.54576 0.36769 0.93314 0.0
O197 O 0.53692 0.3861 0.9497 0.0
O198 O 0.91197 0.25932 0.14611 0.0
Cd199 Cd 0.91763 0.25351 0.17284 0.0
O200 O 0.8971 0.23897 0.14055 0.0
Cd201 Cd 0.90716 0.2269 0.1596 0.0
O202 O 0.92634 0.21088 0.16234 0.0
C203 C 0.93913 0.21588 0.15822 0.0
O204 O 0.9398 0.23022 0.154 0.0
C205 C 0.90253 0.25184 0.13689 0.0
C206 C 0.92201 0.28188 0.19059 0.0
O207 O 0.90857 0.27664 0.18712 0.0
O208 O 0.93348 0.27351 0.18609 0.0
O209 O 0.9481 0.7255 0.32591 0.0
Cd210 Cd 0.941 0.74755 0.34398 0.0
O211 O 0.97147 0.72937 0.33508 0.0
Cd212 Cd 0.9962 0.72539 0.33456 0.0
O213 O 0.02078 0.72131 0.33291 0.0
C214 C 0.02978 0.73286 0.33265 0.0
O215 O 0.02399 0.74706 0.33347 0.0
C216 C 0.9621 0.72156 0.32604 0.0
C217 C 0.94293 0.73899 0.37433 0.0
O218 O 0.93019 0.73839 0.36667 0.0
O219 O 0.95473 0.74375 0.36766 0.0
O220 O 0.00113 0.13304 0.09025 0.0
Cd221 Cd 0.99064 0.11995 0.11166 0.0
O222 O 0.01551 0.14892 0.10557 0.0
Cd223 Cd 0.00292 0.14457 0.12621 0.0
O224 O 0.98602 0.15797 0.14001 0.0
C225 C 0.98836 0.17265 0.14107 0.0
O226 O 0.00068 0.17779 0.13482 0.0
C227 C 0.0114 0.14352 0.09197 0.0
C228 C 0.00719 0.09279 0.11661 0.0
O229 O 0.99585 0.09252 0.10691 0.0
O230 O 0.01059 0.1059 0.12408 0.0
O231 O 0.53811 0.86414 0.5417 0.0
Cd232 Cd 0.53919 0.84696 0.51778 0.0
O233 O 0.55512 0.88085 0.53491 0.0
Cd234 Cd 0.56202 0.86423 0.51591 0.0
O235 O 0.57276 0.84123 0.51255 0.0
C236 C 0.5739 0.8345 0.52508 0.0
O237 O 0.56865 0.84186 0.53778 0.0
C238 C 0.54537 0.87692 0.5445 0.0
C239 C 0.51444 0.85282 0.49807 0.0
O240 O 0.51355 0.84271 0.50811 0.0
O241 O 0.52713 0.86006 0.49729 0.0
O242 O 0.99704 0.66491 0.28512 0.0
Cd243 Cd 0.00993 0.64572 0.26738 0.0
O244 O 0.98281 0.67489 0.26709 0.0
Cd245 Cd 0.99647 0.66324 0.24885 0.0
O246 O 0.01798 0.66556 0.23716 0.0
C247 C 0.02038 0.67872 0.23193 0.0
O248 O 0.00941 0.68926 0.23281 0.0
C249 C 0.98651 0.67424 0.28135 0.0
C250 C 0.00434 0.61531 0.27519 0.0
O251 O 0.9957 0.62177 0.26536 0.0
O252 O 0.01572 0.62322 0.2812 0.0
O253 O 0.51218 0.44721 0.85078 0.0
Cd254 Cd 0.51207 0.45773 0.82539 0.0
O255 O 0.51252 0.42393 0.83826 0.0
Cd256 Cd 0.51367 0.39829 0.83645 0.0
O257 O 0.5103 0.37304 0.83641 0.0
C258 C 0.4974 0.36735 0.83191 0.0
O259 O 0.48678 0.37684 0.82715 0.0
C260 C 0.51207 0.43242 0.85103 0.0
C261 C 0.54088 0.45702 0.81238 0.0
O262 O 0.53603 0.46933 0.82017 0.0
O263 O 0.53215 0.44501 0.81087 0.0
O264 O 0.62576 0.69 0.74658 0.0
Cd265 Cd 0.59896 0.69687 0.74253 0.0
O266 O 0.61862 0.66552 0.74631 0.0
Cd267 Cd 0.62257 0.6406 0.74904 0.0
O268 O 0.62742 0.6157 0.75049 0.0
C269 C 0.62658 0.60949 0.76328 0.0
O270 O 0.62271 0.61832 0.77572 0.0
C271 C 0.62921 0.67569 0.74748 0.0
C272 C 0.59042 0.69477 0.71112 0.0
O273 O 0.59502 0.70773 0.71809 0.0
O274 O 0.58995 0.68279 0.71902 0.0
O275 O 0.64562 0.42032 0.98773 0.0
Cd276 Cd 0.63689 0.39344 0.98912 0.0
O277 O 0.66035 0.41418 0.96798 0.0
Cd278 Cd 0.65959 0.38913 0.97073 0.0
O279 O 0.67531 0.37215 0.98003 0.0
C280 C 0.68835 0.37101 0.97393 0.0
O281 O 0.69079 0.37882 0.9618 0.0
C282 C 0.65449 0.42452 0.97745 0.0
C283 C 0.60853 0.38815 0.97404 0.0
O284 O 0.6095 0.39356 0.9883 0.0
O285 O 0.621 0.38529 0.9669 0.0
O286 O 0.90981 0.38331 0.24475 0.0
Cd287 Cd 0.93515 0.37219 0.2399 0.0
O288 O 0.91334 0.40073 0.22799 0.0
Cd289 Cd 0.93819 0.39902 0.22974 0.0
O290 O 0.95566 0.41319 0.24271 0.0
C291 C 0.9569 0.41194 0.25722 0.0
O292 O 0.94894 0.40106 0.26317 0.0
C293 C 0.90451 0.394 0.23676 0.0
C294 C 0.93168 0.34281 0.22379 0.0
O295 O 0.93478 0.34403 0.23839 0.0
O296 O 0.9306 0.35537 0.21678 0.0
O297 O 0.93655 0.68198 0.46594 0.0
Cd298 Cd 0.95229 0.70524 0.46494 0.0
O299 O 0.91718 0.69808 0.46905 0.0
Cd300 Cd 0.89351 0.70381 0.47491 0.0
O301 O 0.87127 0.70861 0.48521 0.0
C302 C 0.8688 0.72185 0.49247 0.0
O303 O 0.87961 0.73246 0.49311 0.0
C304 C 0.92234 0.68415 0.46784 0.0
C305 C 0.94902 0.71707 0.43603 0.0
O306 O 0.96012 0.7079 0.43901 0.0
O307 O 0.9396 0.7208 0.44681 0.0
O308 O 0.64853 0.46375 0.78478 0.0
Cd309 Cd 0.6281 0.45107 0.76866 0.0
O310 O 0.63708 0.48595 0.78103 0.0
Cd311 Cd 0.63575 0.51155 0.78204 0.0
O312 O 0.63345 0.53683 0.78067 0.0
C313 C 0.63647 0.54263 0.76805 0.0
O314 O 0.64105 0.5332 0.75632 0.0
C315 C 0.64798 0.47856 0.78716 0.0
C316 C 0.60013 0.45366 0.78332 0.0
O317 O 0.60848 0.44142 0.78409 0.0
O318 O 0.60499 0.46462 0.77555 0.0
O319 O 0.78962 0.37193 0.03799 0.0
Cd320 Cd 0.78461 0.34878 0.02017 0.0
O321 O 0.77157 0.36721 0.05412 0.0
Cd322 Cd 0.76059 0.34961 0.03784 0.0
O323 O 0.74074 0.34664 0.02202 0.0
C324 C 0.74168 0.35116 0.00847 0.0
O325 O 0.75497 0.35599 0.00407 0.0
C326 C 0.78285 0.37539 0.05065 0.0
C327 C 0.80758 0.32641 0.02307 0.0
O328 O 0.8091 0.33752 0.01421 0.0
O329 O 0.79516 0.32584 0.03051 0.0
O330 O 0.95708 0.52838 0.31814 0.0
Cd331 Cd 0.97902 0.52426 0.3014 0.0
O332 O 0.96 0.50673 0.32981 0.0
Cd333 Cd 0.97672 0.49656 0.31356 0.0
O334 O 0.97924 0.47693 0.29596 0.0
C335 C 0.97762 0.46329 0.30042 0.0
O336 O 0.97595 0.46189 0.31529 0.0
C337 C 0.95302 0.51959 0.32841 0.0
C338 C 0.98884 0.55308 0.29245 0.0
O339 O 0.99453 0.54735 0.30456 0.0
O340 O 0.97865 0.54503 0.28446 0.0
O341 O 0.76669 0.6919 0.56242 0.0
Cd342 Cd 0.76269 0.7049 0.53849 0.0
O343 O 0.78591 0.70715 0.57044 0.0
Cd344 Cd 0.78896 0.71646 0.54801 0.0
O345 O 0.80458 0.71837 0.52899 0.0
C346 C 0.81498 0.72871 0.53053 0.0
O347 O 0.81519 0.73858 0.543 0.0
C348 C 0.77657 0.69637 0.57287 0.0
C349 C 0.73372 0.71876 0.5375 0.0
O350 O 0.73594 0.70475 0.5316 0.0
O351 O 0.74525 0.72624 0.54376 0.0
O352 O 0.78855 0.67152 0.64201 0.0
Cd353 Cd 0.79993 0.65766 0.66306 0.0
O354 O 0.79358 0.65052 0.6268 0.0
Cd355 Cd 0.79746 0.63837 0.604 0.0
O356 O 0.80661 0.62886 0.58194 0.0
C357 C 0.81933 0.6217 0.58226 0.0
O358 O 0.82605 0.62001 0.59579 0.0
C359 C 0.78841 0.66442 0.62852 0.0
C360 C 0.7798 0.65182 0.68631 0.0
O361 O 0.78768 0.66443 0.6871 0.0
O362 O 0.78131 0.6421 0.67436 0.0
O363 O 0.69522 0.52283 0.83186 0.0
Cd364 Cd 0.71515 0.53849 0.84608 0.0
O365 O 0.71034 0.51301 0.81362 0.0
Cd366 Cd 0.72774 0.53051 0.82043 0.0
O367 O 0.73365 0.55488 0.81809 0.0
C368 C 0.72259 0.56444 0.81992 0.0
O369 O 0.70932 0.55909 0.8238 0.0
C370 C 0.69733 0.51355 0.81985 0.0
C371 C 0.71644 0.5326 0.87735 0.0
O372 O 0.70772 0.54331 0.87251 0.0
O373 O 0.7246 0.52475 0.86737 0.0
O374 O 0.78787 0.44017 0.09709 0.0
Cd375 Cd 0.7918 0.46597 0.11088 0.0
O376 O 0.79957 0.44663 0.07642 0.0
Cd377 Cd 0.79621 0.47166 0.08221 0.0
O378 O 0.7803 0.48938 0.07459 0.0
C379 C 0.7805 0.49207 0.06037 0.0
O380 O 0.79114 0.48532 0.05169 0.0
C381 C 0.79356 0.43623 0.08397 0.0
C382 C 0.79635 0.46281 0.14251 0.0
O383 O 0.80707 0.45985 0.13292 0.0
O384 O 0.78344 0.46747 0.13726 0.0
O385 O 0.88988 0.51751 0.36654 0.0
Cd386 Cd 0.86387 0.51603 0.37591 0.0
O387 O 0.88365 0.5344 0.34967 0.0
Cd388 Cd 0.85928 0.52948 0.35073 0.0
O389 O 0.84235 0.51533 0.33691 0.0
C390 C 0.84066 0.51824 0.32279 0.0
O391 O 0.84805 0.53019 0.31807 0.0
C392 C 0.89383 0.5267 0.35656 0.0
C393 C 0.85906 0.53895 0.40023 0.0
O394 O 0.86434 0.52543 0.40282 0.0
O395 O 0.85594 0.54157 0.38612 0.0
O396 O 0.69306 0.48823 0.97154 0.0
Cd397 Cd 0.71063 0.51033 0.97235 0.0
O398 O 0.68517 0.49285 0.99538 0.0
Cd399 Cd 0.70348 0.50959 0.00176 0.0
O400 O 0.72563 0.51224 0.01398 0.0
C401 C 0.72606 0.51337 0.02874 0.0
O402 O 0.71309 0.51433 0.03605 0.0
C403 C 0.68427 0.48498 0.98227 0.0
C404 C 0.7144 0.5186 0.94212 0.0
O405 O 0.72319 0.50854 0.94799 0.0
O406 O 0.70401 0.52499 0.95071 0.0
O407 O 0.8396 0.43164 0.2366 0.0
Cd408 Cd 0.81473 0.44469 0.23724 0.0
O409 O 0.83627 0.41903 0.25732 0.0
Cd410 Cd 0.81829 0.43515 0.26551 0.0
O411 O 0.81575 0.45588 0.28173 0.0
C412 C 0.81955 0.46905 0.27732 0.0
O413 O 0.82343 0.46975 0.26283 0.0
C414 C 0.84403 0.42138 0.24553 0.0
C415 C 0.8068 0.45157 0.20711 0.0
O416 O 0.80512 0.43778 0.21145 0.0
O417 O 0.81195 0.46229 0.21706 0.0
O418 O 0.86671 0.63386 0.46875 0.0
Cd419 Cd 0.84688 0.61434 0.47137 0.0
O420 O 0.88247 0.62395 0.48553 0.0
Cd421 Cd 0.86461 0.6097 0.49429 0.0
O422 O 0.84833 0.60814 0.51275 0.0
C423 C 0.85389 0.60712 0.52634 0.0
O424 O 0.86878 0.6058 0.52813 0.0
C425 C 0.87976 0.63375 0.47556 0.0
C426 C 0.85027 0.58906 0.44915 0.0
O427 O 0.84223 0.60104 0.44621 0.0
O428 O 0.8566 0.58901 0.46267 0.0
O429 O 0.69475 0.64061 0.75423 0.0
Cd430 Cd 0.71944 0.6279 0.75774 0.0
O431 O 0.7006 0.66217 0.76867 0.0
Cd432 Cd 0.72134 0.65123 0.77721 0.0
O433 O 0.72982 0.6312 0.78886 0.0
C434 C 0.72116 0.62711 0.79935 0.0
O435 O 0.7091 0.63578 0.80275 0.0
C436 C 0.69119 0.65436 0.75966 0.0
C437 C 0.73937 0.63609 0.73517 0.0
O438 O 0.73092 0.6239 0.73293 0.0
O439 O 0.73849 0.64427 0.7482 0.0
O440 O 0.62652 0.7428 0.55401 0.0
Cd441 Cd 0.64193 0.75597 0.53584 0.0
O442 O 0.6138 0.72879 0.53557 0.0
Cd443 Cd 0.62039 0.74479 0.51865 0.0
O444 O 0.61198 0.76829 0.51525 0.0
C445 C 0.60325 0.77336 0.52607 0.0
O446 O 0.60068 0.76427 0.5372 0.0
C447 C 0.61702 0.73197 0.54991 0.0
C448 C 0.67206 0.74495 0.53613 0.0
O449 O 0.66806 0.75693 0.54497 0.0
O450 O 0.66179 0.73823 0.52709 0.0
O451 O 0.17508 0.73106 0.31269 0.0
Cd452 Cd 0.18879 0.72703 0.33701 0.0
O453 O 0.15385 0.73368 0.32552 0.0
Cd454 Cd 0.12898 0.73568 0.32724 0.0
O455 O 0.10414 0.7377 0.32873 0.0
C456 C 0.0959 0.72549 0.32803 0.0
O457 O 0.10259 0.71173 0.32636 0.0
C458 C 0.16074 0.73333 0.31273 0.0
C459 C 0.20091 0.75466 0.35159 0.0
O460 O 0.20855 0.74615 0.34164 0.0
O461 O 0.18746 0.75011 0.35457 0.0
O462 O 0.54065 0.92409 0.60862 0.0
Cd463 Cd 0.54182 0.93568 0.63542 0.0
O464 O 0.54279 0.90082 0.61726 0.0
Cd465 Cd 0.546 0.87539 0.61361 0.0
O466 O 0.54799 0.85018 0.60749 0.0
C467 C 0.55949 0.84254 0.61205 0.0
O468 O 0.57019 0.85002 0.62061 0.0
C469 C 0.54149 0.90933 0.60593 0.0
C470 C 0.51361 0.9468 0.64599 0.0
O471 O 0.52269 0.9556 0.63927 0.0
O472 O 0.51786 0.93269 0.64757 0.0
O473 O 0.42441 0.28743 0.889 0.0
Cd474 Cd 0.41128 0.3058 0.90738 0.0
O475 O 0.43703 0.27563 0.907 0.0
Cd476 Cd 0.43173 0.29436 0.92469 0.0
O477 O 0.43853 0.3175 0.93493 0.0
C478 C 0.45135 0.31874 0.94218 0.0
O479 O 0.45918 0.30594 0.94423 0.0
C480 C 0.43329 0.27652 0.89279 0.0
C481 C 0.38024 0.29841 0.90799 0.0
O482 O 0.3852 0.30781 0.89853 0.0
O483 O 0.38997 0.29264 0.91728 0.0
O484 O 0.57746 0.69199 0.59687 0.0
Cd485 Cd 0.55936 0.68374 0.61554 0.0
O486 O 0.57311 0.71618 0.60591 0.0
Cd487 Cd 0.57438 0.74172 0.60596 0.0
O488 O 0.57369 0.76733 0.60811 0.0
C489 C 0.56388 0.77463 0.60032 0.0
O490 O 0.55444 0.76651 0.59077 0.0
C491 C 0.57991 0.70653 0.59644 0.0
C492 C 0.57046 0.68816 0.64611 0.0
O493 O 0.57208 0.67501 0.63813 0.0
O494 O 0.56363 0.69922 0.63959 0.0
O495 O 0.88512 0.25944 0.06398 0.0
Cd496 Cd 0.88224 0.2626 0.03625 0.0
O497 O 0.90364 0.27663 0.06778 0.0
Cd498 Cd 0.90914 0.2759 0.04328 0.0
O499 O 0.92902 0.26653 0.03081 0.0
C500 C 0.94176 0.26977 0.03769 0.0
O501 O 0.94176 0.2791 0.05054 0.0
C502 C 0.89407 0.26757 0.0732 0.0
C503 C 0.85767 0.28259 0.0311 0.0
O504 O 0.85564 0.2679 0.03189 0.0
O505 O 0.87138 0.2878 0.03247 0.0
O506 O 0.4631 0.22218 0.8441 0.0
Cd507 Cd 0.47695 0.20819 0.82307 0.0
O508 O 0.46927 0.24356 0.83362 0.0
Cd509 Cd 0.47112 0.26896 0.83289 0.0
O510 O 0.47397 0.29413 0.83165 0.0
C511 C 0.48688 0.30047 0.83485 0.0
O512 O 0.49833 0.29162 0.83897 0.0
C513 C 0.46262 0.23699 0.84424 0.0
C514 C 0.45912 0.20449 0.79584 0.0
O515 O 0.46011 0.19357 0.80506 0.0
O516 O 0.46655 0.21716 0.79952 0.0
O517 O 0.1133 0.74798 0.2562 0.0
Cd518 Cd 0.09507 0.75078 0.23465 0.0
O519 O 0.12462 0.72718 0.24513 0.0
Cd520 Cd 0.1067 0.72404 0.22717 0.0
O521 O 0.08398 0.71466 0.2213 0.0
C522 C 0.08193 0.70019 0.22271 0.0
O523 O 0.09375 0.69165 0.22642 0.0
C524 C 0.12381 0.7377 0.25635 0.0
C525 C 0.09872 0.77937 0.22184 0.0
O526 O 0.08979 0.77808 0.23315 0.0
O527 O 0.10589 0.76708 0.21655 0.0
C528 C 0.07666 0.93992 0.14763 0.0
C529 C 0.08175 0.93949 0.1323 0.0
C530 C 0.08035 0.92792 0.15718 0.0
C531 C 0.08933 0.91503 0.1518 0.0
H532 H 0.07028 0.9499 0.15256 0.0
H533 H 0.07671 0.92917 0.16908 0.0
S534 S 0.10356 0.90707 0.11185 0.0
N535 N 0.09479 0.92412 0.11165 0.0
N536 N 0.10175 0.90169 0.12959 0.0
C537 C 0.09365 0.91394 0.13619 0.0
C538 C 0.08985 0.92613 0.12645 0.0
C539 C 0.3055 0.86094 0.42161 0.0
C540 C 0.30036 0.84752 0.41251 0.0
C541 C 0.3205 0.86206 0.42757 0.0
C542 C 0.33107 0.84981 0.42473 0.0
H543 H 0.29799 0.8709 0.42389 0.0
H544 H 0.32389 0.87282 0.4342 0.0
S545 S 0.32306 0.81153 0.40269 0.0
N546 N 0.3068 0.82126 0.40174 0.0
N547 N 0.33502 0.82334 0.41297 0.0
C548 C 0.32594 0.83604 0.41615 0.0
C549 C 0.31061 0.83491 0.41005 0.0
C550 C 0.40636 0.07983 0.70891 0.0
C551 C 0.41951 0.08927 0.71034 0.0
C552 C 0.4071 0.0641 0.70321 0.0
C553 C 0.421 0.05706 0.69864 0.0
H554 H 0.39527 0.08471 0.71182 0.0
H555 H 0.39652 0.05756 0.70195 0.0
S556 S 0.45908 0.0761 0.70164 0.0
N557 N 0.44713 0.09003 0.70789 0.0
N558 N 0.44848 0.06044 0.69714 0.0
C559 C 0.43438 0.06612 0.70071 0.0
C560 C 0.43364 0.0822 0.70656 0.0
C561 C 0.21741 0.26142 0.96301 0.0
C562 C 0.20168 0.25807 0.96151 0.0
C563 C 0.22586 0.26485 0.95019 0.0
C564 C 0.21895 0.26512 0.93533 0.0
H565 H 0.22346 0.26061 0.974 0.0
H566 H 0.23806 0.26657 0.95186 0.0
S567 S 0.17755 0.26005 0.92577 0.0
N568 N 0.17914 0.25731 0.9444 0.0
N569 N 0.19498 0.26382 0.92034 0.0
C570 C 0.203 0.26303 0.93393 0.0
C571 C 0.19439 0.25949 0.94699 0.0
C572 C 0.23571 0.11445 0.92557 0.0
C573 C 0.24591 0.111 0.93769 0.0
C574 C 0.24093 0.11694 0.91082 0.0
C575 C 0.25657 0.11606 0.9075 0.0
H576 H 0.22362 0.11593 0.92762 0.0
H577 H 0.23263 0.12022 0.90215 0.0
S578 S 0.28777 0.10497 0.93446 0.0
N579 N 0.27223 0.10506 0.94486 0.0
N580 N 0.28205 0.10969 0.91711 0.0
C581 C 0.26679 0.11149 0.91917 0.0
C582 C 0.26146 0.10899 0.93425 0.0
C583 C 0.21937 0.9823 0.15668 0.0
C584 C 0.21575 0.96642 0.153 0.0
C585 C 0.21589 0.99362 0.14629 0.0
C586 C 0.20858 0.98952 0.13184 0.0
H587 H 0.2245 0.98615 0.16788 0.0
H588 H 0.21841 0.00575 0.14992 0.0
S589 S 0.19836 0.94932 0.11575 0.0
N590 N 0.20571 0.94703 0.13318 0.0
N591 N 0.19914 0.96826 0.11379 0.0
C592 C 0.20563 0.97359 0.12767 0.0
C593 C 0.20922 0.96206 0.13821 0.0
C594 C 0.28205 0.97988 0.41194 0.0
C595 C 0.26782 0.97877 0.41895 0.0
C596 C 0.29573 0.98015 0.42075 0.0
C597 C 0.29578 0.97937 0.43695 0.0
H598 H 0.28273 0.97981 0.39945 0.0
H599 H 0.30637 0.98035 0.41466 0.0
S600 S 0.26147 0.97894 0.46125 0.0
N601 N 0.25454 0.97877 0.44331 0.0
N602 N 0.28022 0.97931 0.45985 0.0
C603 C 0.28159 0.97937 0.44424 0.0
C604 C 0.26764 0.97907 0.43525 0.0
C605 C 0.29635 0.0618 0.64963 0.0
C606 C 0.29747 0.06238 0.66594 0.0
C607 C 0.29783 0.04765 0.64043 0.0
C608 C 0.3005 0.03346 0.64715 0.0
H609 H 0.29498 0.07244 0.64382 0.0
H610 H 0.29759 0.048 0.62794 0.0
S611 S 0.30181 0.02816 0.68935 0.0
N612 N 0.29954 0.04718 0.68845 0.0
N613 N 0.30231 0.02061 0.67118 0.0
C614 C 0.30055 0.0337 0.66345 0.0
C615 C 0.29903 0.04813 0.67284 0.0
C616 C 0.9681 0.2394 0.01788 0.0
C617 C 0.9821 0.24206 0.02605 0.0
C618 C 0.9553 0.24889 0.02117 0.0
C619 C 0.95598 0.26144 0.03274 0.0
H620 H 0.96678 0.22949 0.00934 0.0
H621 H 0.94464 0.24592 0.01501 0.0
S622 S 0.99059 0.27484 0.0558 0.0
N623 N 0.99632 0.25925 0.04501 0.0
N624 N 0.97236 0.27708 0.05115 0.0
C625 C 0.97019 0.26486 0.04026 0.0
C626 C 0.98321 0.25518 0.03694 0.0
C627 C 0.4589 0.36215 0.94128 0.0
C628 C 0.47367 0.36396 0.94801 0.0
C629 C 0.45143 0.34769 0.94023 0.0
C630 C 0.45841 0.33439 0.94584 0.0
H631 H 0.45324 0.37182 0.93619 0.0
H632 H 0.44035 0.34683 0.93435 0.0
S633 S 0.49605 0.33336 0.9666 0.0
N634 N 0.49432 0.35157 0.96193 0.0
N635 N 0.48028 0.32439 0.95997 0.0
C636 C 0.47274 0.33626 0.95355 0.0
C637 C 0.48037 0.35103 0.95464 0.0
C638 C 0.95038 0.18884 0.15572 0.0
C639 C 0.9524 0.20514 0.156 0.0
C640 C 0.96225 0.1784 0.1515 0.0
C641 C 0.97663 0.18384 0.14745 0.0
H642 H 0.93937 0.18404 0.15815 0.0
H643 H 0.95993 0.16597 0.1509 0.0
S644 S 0.98844 0.22549 0.14841 0.0
N645 N 0.97037 0.22624 0.15335 0.0
N646 N 0.99262 0.20672 0.14551 0.0
C647 C 0.97906 0.20014 0.14858 0.0
C648 C 0.96697 0.21075 0.15283 0.0
C649 C 0.07213 0.74176 0.33061 0.0
C650 C 0.07901 0.72686 0.32914 0.0
C651 C 0.05627 0.74353 0.33172 0.0
C652 C 0.04656 0.73047 0.33143 0.0
H653 H 0.07902 0.75224 0.33091 0.0
H654 H 0.05163 0.75528 0.33284 0.0
S655 S 0.05872 0.68879 0.3277 0.0
N656 N 0.07479 0.69872 0.32741 0.0
N657 N 0.04502 0.70204 0.3295 0.0
C658 C 0.05325 0.71547 0.32995 0.0
C659 C 0.06944 0.71366 0.3288 0.0
C660 C 0.59617 0.79746 0.51286 0.0
C661 C 0.59583 0.78897 0.52609 0.0
C662 C 0.58895 0.81209 0.51257 0.0
C663 C 0.5812 0.81887 0.52553 0.0
H664 H 0.60196 0.79275 0.50259 0.0
H665 H 0.58954 0.81816 0.50211 0.0
S666 S 0.57708 0.80151 0.56314 0.0
N667 N 0.58714 0.78852 0.55255 0.0
N668 N 0.57364 0.81589 0.552 0.0
C669 C 0.58081 0.81051 0.53885 0.0
C670 C 0.5881 0.79561 0.53913 0.0
C671 C 0.03871 0.69863 0.22399 0.0
C672 C 0.03586 0.6831 0.2272 0.0
C673 C 0.05356 0.70383 0.22176 0.0
C674 C 0.06621 0.69373 0.22263 0.0
H675 H 0.02949 0.70708 0.22381 0.0
H676 H 0.05514 0.71607 0.21997 0.0
S677 S 0.06472 0.65132 0.22838 0.0
N678 N 0.04678 0.65721 0.22942 0.0
N679 N 0.07468 0.66696 0.22519 0.0
C680 C 0.06343 0.6779 0.22479 0.0
C681 C 0.04827 0.67259 0.22708 0.0
C682 C 0.50349 0.32428 0.83781 0.0
C683 C 0.48912 0.31755 0.83392 0.0
C684 C 0.50603 0.34032 0.83708 0.0
C685 C 0.49433 0.35036 0.8324 0.0
H686 H 0.51292 0.31714 0.84149 0.0
H687 H 0.51731 0.34486 0.84023 0.0
S688 S 0.45453 0.33866 0.82098 0.0
N689 N 0.46296 0.32224 0.82521 0.0
N690 N 0.46773 0.35233 0.82382 0.0
C691 C 0.47988 0.34379 0.82845 0.0
C692 C 0.47728 0.32743 0.82922 0.0
C693 C 0.62694 0.58556 0.77804 0.0
C694 C 0.62957 0.5925 0.76416 0.0
C695 C 0.62931 0.56952 0.77919 0.0
C696 C 0.63445 0.55968 0.76653 0.0
H697 H 0.62288 0.59254 0.78812 0.0
H698 H 0.62698 0.56481 0.79011 0.0
S699 S 0.64361 0.57206 0.72768 0.0
N700 N 0.638 0.58828 0.73755 0.0
N701 N 0.64247 0.55818 0.73971 0.0
C702 C 0.63733 0.56648 0.75262 0.0
C703 C 0.63489 0.58284 0.75144 0.0
C704 C 0.72904 0.35982 0.98437 0.0
C705 C 0.7277 0.35351 0.99877 0.0
C706 C 0.71617 0.3646 0.97604 0.0
C707 C 0.70136 0.36333 0.98174 0.0
H708 H 0.74018 0.3617 0.97972 0.0
H709 H 0.71797 0.36997 0.96534 0.0
S710 S 0.69134 0.34541 0.01774 0.0
N711 N 0.71017 0.34459 0.01754 0.0
N712 N 0.68597 0.35363 0.00188 0.0
C713 C 0.69973 0.35603 0.99559 0.0
C714 C 0.71289 0.35111 0.0041 0.0
C715 C 0.96509 0.42294 0.2838 0.0
C716 C 0.96487 0.42414 0.26767 0.0
C717 C 0.97008 0.43535 0.29423 0.0
C718 C 0.97502 0.44955 0.28901 0.0
H719 H 0.96077 0.41257 0.28852 0.0
H720 H 0.96937 0.43399 0.30652 0.0
S721 S 0.97898 0.45786 0.24786 0.0
N722 N 0.97177 0.44005 0.2469 0.0
N723 N 0.9811 0.46339 0.26653 0.0
C724 C 0.97592 0.45052 0.27288 0.0
C725 C 0.97087 0.43782 0.26222 0.0
C726 C 0.84311 0.71306 0.50034 0.0
C727 C 0.85445 0.7247 0.5011 0.0
C728 C 0.83007 0.71478 0.50938 0.0
C729 C 0.82786 0.72816 0.51966 0.0
H730 H 0.84443 0.70233 0.49297 0.0
H731 H 0.82195 0.70524 0.50868 0.0
S732 S 0.85329 0.76282 0.52487 0.0
N733 N 0.86196 0.75068 0.51211 0.0
N734 N 0.83752 0.75383 0.52914 0.0
C735 C 0.83875 0.7402 0.52004 0.0
C736 C 0.85202 0.7385 0.51076 0.0
C737 C 0.84247 0.6114 0.56847 0.0
C738 C 0.82722 0.61659 0.5677 0.0
C739 C 0.85076 0.60785 0.55501 0.0
C740 C 0.84416 0.60923 0.54017 0.0
H741 H 0.84827 0.61049 0.57957 0.0
H742 H 0.86259 0.60433 0.55633 0.0
S743 S 0.80408 0.62088 0.53167 0.0
N744 N 0.80547 0.62188 0.55079 0.0
N745 N 0.82104 0.61514 0.52549 0.0
C746 C 0.82869 0.61372 0.53918 0.0
C747 C 0.82024 0.61742 0.55293 0.0
C748 C 0.71183 0.60666 0.81563 0.0
C749 C 0.72318 0.61184 0.80607 0.0
C750 C 0.71215 0.59154 0.82055 0.0
C751 C 0.72389 0.58095 0.81622 0.0
H752 H 0.70224 0.61412 0.81894 0.0
H753 H 0.70284 0.58801 0.82747 0.0
S754 S 0.75732 0.5892 0.79272 0.0
N755 N 0.74723 0.60555 0.79347 0.0
N756 N 0.74787 0.57709 0.80282 0.0
C757 C 0.73582 0.58622 0.80741 0.0
C758 C 0.73545 0.60166 0.8023 0.0
C759 C 0.75373 0.50588 0.0291 0.0
C760 C 0.74066 0.51077 0.03733 0.0
C761 C 0.76687 0.50073 0.03677 0.0
C762 C 0.76754 0.50026 0.05301 0.0
H763 H 0.75361 0.50528 0.01654 0.0
H764 H 0.77631 0.49642 0.02977 0.0
S765 S 0.73743 0.51442 0.08022 0.0
N766 N 0.72996 0.51675 0.06284 0.0
N767 N 0.75465 0.50706 0.07724 0.0
C768 C 0.75501 0.50626 0.06149 0.0
C769 C 0.74158 0.51151 0.05367 0.0
C770 C 0.82815 0.49227 0.31585 0.0
C771 C 0.83275 0.5069 0.31136 0.0
C772 C 0.82301 0.48038 0.30485 0.0
C773 C 0.8223 0.48262 0.2889 0.0
H774 H 0.82917 0.48967 0.32787 0.0
H775 H 0.82032 0.46911 0.30886 0.0
S776 S 0.83049 0.51963 0.27135 0.0
N777 N 0.83436 0.52359 0.29004 0.0
N778 N 0.82478 0.50125 0.26941 0.0
C779 C 0.82578 0.49755 0.28438 0.0
C780 C 0.83098 0.50968 0.29559 0.0
C781 C 0.57288 0.8004 0.61307 0.0
C782 C 0.56278 0.792 0.60255 0.0
C783 C 0.57183 0.81669 0.61587 0.0
C784 C 0.56062 0.82534 0.60831 0.0
H785 H 0.58163 0.79435 0.61936 0.0
H786 H 0.57979 0.82251 0.62422 0.0
S787 S 0.53198 0.80918 0.57886 0.0
N788 N 0.54156 0.79373 0.58399 0.0
N789 N 0.53965 0.82433 0.58922 0.0
C790 C 0.55063 0.81716 0.5975 0.0
C791 C 0.55169 0.80052 0.59464 0.0
C792 C 0.13693 0.01282 0.09263 0.0
C793 C 0.14451 0.02558 0.1007 0.0
C794 C 0.12177 0.0093 0.09565 0.0
C795 C 0.11347 0.01843 0.10683 0.0
H796 H 0.14296 0.00496 0.08442 0.0
H797 H 0.11675 0.99893 0.08958 0.0
S798 S 0.12723 0.05466 0.12937 0.0
N799 N 0.14199 0.04849 0.11904 0.0
N800 N 0.11345 0.04194 0.12469 0.0
C801 C 0.12053 0.03193 0.11415 0.0
C802 C 0.13604 0.03548 0.11111 0.0
C803 C 0.22408 0.89334 0.38593 0.0
C804 C 0.23041 0.88212 0.37513 0.0
C805 C 0.22288 0.90909 0.38285 0.0
C806 C 0.22792 0.91423 0.3688 0.0
H807 H 0.22096 0.89019 0.3973 0.0
H808 H 0.21882 0.9174 0.39195 0.0
S809 S 0.24213 0.88881 0.33531 0.0
N810 N 0.23944 0.87674 0.34888 0.0
N811 N 0.2371 0.90629 0.34299 0.0
C812 C 0.23283 0.90284 0.3573 0.0
C813 C 0.23411 0.8868 0.36049 0.0
C814 C 0.36753 0.97413 0.63589 0.0
C815 C 0.36309 0.98466 0.62496 0.0
C816 C 0.38145 0.97587 0.64425 0.0
C817 C 0.39152 0.98818 0.64196 0.0
H818 H 0.35989 0.9649 0.63859 0.0
H819 H 0.384 0.96788 0.65303 0.0
S820 S 0.38635 0.01734 0.61277 0.0
N821 N 0.37066 0.00669 0.61096 0.0
N822 N 0.39682 0.00993 0.62653 0.0
C823 C 0.38768 0.99812 0.63026 0.0
C824 C 0.37348 0.99638 0.62181 0.0
C825 C 0.28885 0.19369 0.87433 0.0
C826 C 0.27648 0.18671 0.86564 0.0
C827 C 0.28858 0.20953 0.87977 0.0
C828 C 0.27589 0.21909 0.87682 0.0
H829 H 0.29859 0.18672 0.87758 0.0
H830 H 0.29809 0.21408 0.88701 0.0
S831 S 0.24164 0.20727 0.85247 0.0
N832 N 0.25198 0.19115 0.85271 0.0
N833 N 0.25146 0.2209 0.86299 0.0
C834 C 0.26394 0.21258 0.86718 0.0
C835 C 0.26424 0.19642 0.86157 0.0
C836 C 0.15504 0.909 0.21425 0.0
C837 C 0.15403 0.89592 0.2033 0.0
C838 C 0.1686 0.91754 0.2167 0.0
C839 C 0.18175 0.91342 0.20826 0.0
H840 H 0.14508 0.91318 0.22052 0.0
H841 H 0.16847 0.92793 0.22472 0.0
S842 S 0.18597 0.87857 0.18016 0.0
N843 N 0.168 0.87806 0.18539 0.0
N844 N 0.19348 0.89414 0.18997 0.0
C845 C 0.18128 0.89964 0.19817 0.0
C846 C 0.16744 0.89089 0.19571 0.0
C847 C 0.37209 0.91295 0.46233 0.0
C848 C 0.3745 0.92735 0.45606 0.0
C849 C 0.38218 0.90034 0.45955 0.0
C850 C 0.39514 0.90166 0.45052 0.0
H851 H 0.36219 0.9113 0.46925 0.0
H852 H 0.37988 0.88951 0.46466 0.0
S853 S 0.40719 0.93696 0.43208 0.0
N854 N 0.39122 0.94229 0.44081 0.0
N855 N 0.41018 0.91859 0.43573 0.0
C856 C 0.39794 0.91607 0.44452 0.0
C857 C 0.3876 0.92889 0.44721 0.0
C858 C 0.35732 0.1353 0.7273 0.0
C859 C 0.34496 0.13572 0.71657 0.0
C860 C 0.36958 0.14571 0.72713 0.0
C861 C 0.36994 0.15703 0.71631 0.0
H862 H 0.35769 0.12668 0.73577 0.0
H863 H 0.37881 0.14496 0.73563 0.0
S864 S 0.34017 0.16372 0.68627 0.0
N865 N 0.33366 0.1489 0.69515 0.0
N866 N 0.3567 0.16851 0.69497 0.0
C867 C 0.35751 0.15792 0.70581 0.0
C868 C 0.34506 0.14723 0.70586 0.0
C869 C 0.19199 0.15626 0.00294 0.0
C870 C 0.20748 0.15362 0.00668 0.0
C871 C 0.18564 0.17132 0.00461 0.0
C872 C 0.19451 0.18438 0.01013 0.0
H873 H 0.18486 0.14676 0.99792 0.0
H874 H 0.17387 0.17279 0.00083 0.0
S875 S 0.23493 0.18332 0.02424 0.0
N876 N 0.231 0.16501 0.0181 0.0
N877 N 0.21909 0.19329 0.0213 0.0
C878 C 0.2097 0.18171 0.01506 0.0
C879 C 0.21617 0.16636 0.01332 0.0
C880 C 0.00888 0.14873 0.064 0.0
C881 C 0.01699 0.15094 0.07828 0.0
C882 C 0.01191 0.15785 0.05174 0.0
C883 C 0.02323 0.16953 0.05321 0.0
H884 H 0.9995 0.1405 0.06251 0.0
H885 H 0.00478 0.1562 0.04131 0.0
S886 S 0.04967 0.17792 0.08717 0.0
N887 N 0.03825 0.16417 0.09243 0.0
N888 N 0.04402 0.18127 0.06939 0.0
C889 C 0.03231 0.17093 0.06695 0.0
C890 C 0.02917 0.16166 0.07947 0.0
C891 C 0.52104 0.42492 0.89294 0.0
C892 C 0.51263 0.41132 0.89475 0.0
C893 C 0.52069 0.43179 0.87875 0.0
C894 C 0.51181 0.42533 0.86601 0.0
H895 H 0.5282 0.43006 0.90241 0.0
H896 H 0.52763 0.44204 0.87766 0.0
S897 S 0.48541 0.39165 0.86601 0.0
N898 N 0.49395 0.39264 0.88331 0.0
N899 N 0.49263 0.40604 0.85698 0.0
C900 C 0.50269 0.41226 0.86802 0.0
C901 C 0.50328 0.40512 0.88231 0.0
C902 C 0.88972 0.24806 0.1106 0.0
C903 C 0.89882 0.25737 0.12137 0.0
C904 C 0.88759 0.25191 0.09526 0.0
C905 C 0.89453 0.2652 0.09002 0.0
H906 H 0.8846 0.23738 0.11383 0.0
H907 H 0.88099 0.244 0.08731 0.0
S908 S 0.91766 0.29471 0.11412 0.0
N909 N 0.91349 0.28144 0.12609 0.0
N910 N 0.90954 0.2886 0.09727 0.0
C911 C 0.9029 0.27513 0.10089 0.0
C912 C 0.90503 0.27124 0.11655 0.0
C913 C 0.96834 0.69609 0.28886 0.0
C914 C 0.97938 0.68519 0.29332 0.0
C915 C 0.96247 0.70755 0.29962 0.0
C916 C 0.96752 0.70864 0.31521 0.0
H917 H 0.96442 0.69604 0.27687 0.0
H918 H 0.95429 0.71593 0.29561 0.0
S919 S 0.9946 0.68188 0.33346 0.0
N920 N 0.99406 0.67551 0.31491 0.0
N921 N 0.98281 0.69697 0.33505 0.0
C922 C 0.97795 0.69744 0.32004 0.0
C923 C 0.98393 0.68573 0.30913 0.0
C924 C 0.53458 0.88033 0.57104 0.0
C925 C 0.54333 0.88638 0.55949 0.0
C926 C 0.53371 0.88807 0.58589 0.0
C927 C 0.54154 0.90214 0.58981 0.0
H928 H 0.52863 0.8693 0.56877 0.0
H929 H 0.5269 0.88291 0.59439 0.0
S930 S 0.56485 0.92379 0.56361 0.0
N931 N 0.55911 0.90802 0.5528 0.0
N932 N 0.55744 0.92247 0.5808 0.0
C933 C 0.54971 0.90876 0.57825 0.0
C934 C 0.55066 0.90088 0.56309 0.0
C935 C 0.66576 0.65186 0.74583 0.0
C936 C 0.67583 0.66074 0.75601 0.0
C937 C 0.65081 0.65693 0.74293 0.0
C938 C 0.64527 0.67101 0.75016 0.0
H939 H 0.66935 0.64078 0.74011 0.0
H940 H 0.64359 0.64977 0.73486 0.0
S941 S 0.66705 0.69914 0.77709 0.0
N942 N 0.67926 0.68481 0.77278 0.0
N943 N 0.65109 0.6942 0.76736 0.0
C944 C 0.65529 0.6803 0.75994 0.0
C945 C 0.67056 0.67517 0.7629 0.0
C946 C 0.67653 0.45999 0.96719 0.0
C947 C 0.67436 0.4709 0.98003 0.0
C948 C 0.66933 0.44538 0.96602 0.0
C949 C 0.65956 0.44106 0.97758 0.0
H950 H 0.68446 0.46238 0.95829 0.0
H951 H 0.672 0.43717 0.95625 0.0
S952 S 0.64803 0.4664 0.0123 0.0
N953 N 0.66027 0.47711 0.00363 0.0
N954 N 0.64666 0.44969 0.00141 0.0
C955 C 0.65634 0.45232 0.98989 0.0
C956 C 0.66376 0.46721 0.99112 0.0
C957 C 0.86832 0.41762 0.23111 0.0
C958 C 0.85872 0.41299 0.24268 0.0
C959 C 0.88284 0.41104 0.229 0.0
C960 C 0.88844 0.39946 0.23832 0.0
H961 H 0.8648 0.42675 0.22384 0.0
H962 H 0.88986 0.41536 0.22018 0.0
S963 S 0.86728 0.38208 0.26931 0.0
N964 N 0.85544 0.39527 0.2629 0.0
N965 N 0.88275 0.38286 0.25891 0.0
C966 C 0.87871 0.39419 0.24949 0.0
C967 C 0.86388 0.40096 0.25168 0.0
C968 C 0.88697 0.65867 0.46453 0.0
C969 C 0.89129 0.64576 0.47272 0.0
C970 C 0.89716 0.67091 0.46282 0.0
C971 C 0.91207 0.67073 0.46919 0.0
H972 H 0.87551 0.65955 0.45965 0.0
H973 H 0.89331 0.68057 0.4564 0.0
S974 S 0.92958 0.63922 0.49066 0.0
N975 N 0.91195 0.6332 0.48652 0.0
N976 N 0.93103 0.65626 0.48326 0.0
C977 C 0.91679 0.65767 0.47688 0.0
C978 C 0.9064 0.6452 0.4787 0.0
C979 C 0.67561 0.48314 0.7935 0.0
C980 C 0.66027 0.48705 0.79625 0.0
C981 C 0.68751 0.4916 0.80138 0.0
C982 C 0.68451 0.50409 0.81253 0.0
H983 H 0.67843 0.47374 0.78487 0.0
H984 H 0.69916 0.48839 0.7986 0.0
S985 S 0.64608 0.51785 0.82495 0.0
N986 N 0.64259 0.50337 0.81154 0.0
N987 N 0.66486 0.51933 0.82644 0.0
C988 C 0.66914 0.50769 0.81578 0.0
C989 C 0.65704 0.49917 0.80761 0.0
C990 C 0.79638 0.4011 0.05441 0.0
C991 C 0.78708 0.38986 0.06046 0.0
C992 C 0.79887 0.41579 0.06239 0.0
C993 C 0.79225 0.41988 0.07682 0.0
H994 H 0.80132 0.39881 0.04309 0.0
H995 H 0.8057 0.42416 0.05691 0.0
S996 S 0.76855 0.39393 0.09871 0.0
N997 N 0.77237 0.3833 0.08248 0.0
N998 N 0.7771 0.41088 0.09752 0.0
C999 C 0.78365 0.40843 0.08345 0.0
C1000 C 0.78105 0.39345 0.07527 0.0
C1001 C 0.93413 0.51287 0.34805 0.0
C1002 C 0.93913 0.52335 0.33756 0.0
C1003 C 0.91985 0.51462 0.35491 0.0
C1004 C 0.90991 0.52689 0.35153 0.0
H1005 H 0.941 0.50278 0.3505 0.0
H1006 H 0.9163 0.50578 0.36229 0.0
S1007 S 0.91849 0.55906 0.32694 0.0
N1008 N 0.9337 0.54763 0.3257 0.0
N1009 N 0.90684 0.55084 0.33854 0.0
C1010 C 0.91519 0.53812 0.34198 0.0
C1011 C 0.92979 0.53638 0.33503 0.0
C1012 C 0.78929 0.68803 0.61368 0.0
C1013 C 0.78391 0.6728 0.61488 0.0
C1014 C 0.78649 0.69571 0.6002 0.0
C1015 C 0.77799 0.68853 0.58751 0.0
H1016 H 0.79621 0.69385 0.62299 0.0
H1017 H 0.79128 0.70727 0.59965 0.0
S1018 S 0.75989 0.64932 0.58577 0.0
N1019 N 0.76864 0.65128 0.60297 0.0
N1020 N 0.76331 0.66562 0.57758 0.0
C1021 C 0.77191 0.67355 0.58893 0.0
C1022 C 0.77491 0.6657 0.60262 0.0
C1023 C 0.59942 0.7252 0.58839 0.0
C1024 C 0.59004 0.71211 0.58467 0.0
C1025 C 0.60855 0.73115 0.57722 0.0
C1026 C 0.6086 0.72428 0.56184 0.0
H1027 H 0.59974 0.7309 0.60005 0.0
H1028 H 0.6153 0.74148 0.5806 0.0
S1029 S 0.58683 0.689 0.54653 0.0
N1030 N 0.58195 0.69187 0.56486 0.0
N1031 N 0.59906 0.70304 0.54378 0.0
C1032 C 0.59965 0.71082 0.55813 0.0
C1033 C 0.59043 0.70471 0.56957 0.0
C1034 C 0.13103 0.74658 0.28388 0.0
C1035 C 0.13426 0.73728 0.27014 0.0
C1036 C 0.13979 0.74541 0.29753 0.0
C1037 C 0.15214 0.73494 0.29799 0.0
H1038 H 0.12144 0.75461 0.28424 0.0
H1039 H 0.13687 0.75282 0.30778 0.0
S1040 S 0.16622 0.7088 0.26506 0.0
N1041 N 0.15136 0.71785 0.25772 0.0
N1042 N 0.16776 0.71571 0.28343 0.0
C1043 C 0.15592 0.72602 0.28425 0.0
C1044 C 0.14697 0.72714 0.27033 0.0
C1045 C 0.44645 0.25985 0.8533 0.0
C1046 C 0.45471 0.24642 0.85671 0.0
C1047 C 0.43923 0.26924 0.86498 0.0
C1048 C 0.44004 0.2656 0.88057 0.0
H1049 H 0.44545 0.26309 0.84148 0.0
H1050 H 0.43321 0.27959 0.86176 0.0
S1051 S 0.45959 0.23108 0.89536 0.0
N1052 N 0.46276 0.22949 0.87657 0.0
N1053 N 0.44925 0.24712 0.8986 0.0
C1054 C 0.44795 0.25193 0.88405 0.0
C1055 C 0.45522 0.24232 0.8721 0.0
C1056 C 0.03603 0.0654 0.13384 0.0
C1057 C 0.0348 0.0516 0.12388 0.0
C1058 C 0.02701 0.07856 0.13144 0.0
C1059 C 0.01625 0.07846 0.11905 0.0
H1060 H 0.04423 0.06618 0.14348 0.0
H1061 H 0.02855 0.08893 0.13937 0.0
S1062 S 0.00811 0.04504 0.08988 0.0
N1063 N 0.02167 0.03851 0.1013 0.0
N1064 N 0.00464 0.06318 0.09685 0.0
C1065 C 0.01468 0.06464 0.10914 0.0
C1066 C 0.02397 0.05125 0.11153 0.0
C1067 C 0.19928 0.77749 0.37151 0.0
C1068 C 0.20746 0.76919 0.35967 0.0
C1069 C 0.20529 0.79099 0.37966 0.0
C1070 C 0.21972 0.7968 0.3763 0.0
H1071 H 0.18816 0.77349 0.37465 0.0
H1072 H 0.19855 0.79685 0.38873 0.0
S1073 S 0.24564 0.77968 0.34603 0.0
N1074 N 0.23069 0.76797 0.34477 0.0
N1075 N 0.24196 0.79332 0.36005 0.0
C1076 C 0.22797 0.78873 0.36435 0.0
C1077 C 0.22185 0.77494 0.35606 0.0
C1078 C 0.49459 0.96856 0.6501 0.0
C1079 C 0.49879 0.95294 0.65194 0.0
C1080 C 0.48088 0.97485 0.65586 0.0
C1081 C 0.47074 0.96581 0.66375 0.0
H1082 H 0.50199 0.97608 0.64421 0.0
H1083 H 0.47828 0.98696 0.65417 0.0
S1084 S 0.47612 0.92413 0.67141 0.0
N1085 N 0.49151 0.92846 0.66205 0.0
N1086 N 0.46576 0.94028 0.67288 0.0
C1087 C 0.47471 0.95012 0.66558 0.0
C1088 C 0.4887 0.9437 0.65968 0.0
C1089 C 0.35875 0.28397 0.91888 0.0
C1090 C 0.36382 0.29406 0.90807 0.0
C1091 C 0.34347 0.2792 0.91896 0.0
C1092 C 0.33256 0.28427 0.90821 0.0
H1093 H 0.36667 0.27957 0.92732 0.0
H1094 H 0.34025 0.2713 0.92745 0.0
S1095 S 0.33974 0.31122 0.87774 0.0
N1096 N 0.35654 0.30931 0.88652 0.0
N1097 N 0.32786 0.30033 0.88666 0.0
C1098 C 0.3374 0.29456 0.89746 0.0
C1099 C 0.35299 0.29945 0.89739 0.0
C1100 C 0.11171 0.80932 0.19497 0.0
C1101 C 0.10524 0.82342 0.20129 0.0
C1102 C 0.10955 0.79521 0.20171 0.0
C1103 C 0.10075 0.79456 0.21502 0.0
H1104 H 0.11859 0.80912 0.18474 0.0
H1105 H 0.11482 0.78473 0.19636 0.0
S1106 S 0.08121 0.82816 0.23613 0.0
N1107 N 0.0896 0.83583 0.22169 0.0
N1108 N 0.08549 0.80934 0.2343 0.0
C1109 C 0.09416 0.80856 0.22146 0.0
C1110 C 0.09642 0.82296 0.21462 0.0
C1111 C 0.47428 0.85132 0.48027 0.0
C1112 C 0.47492 0.86159 0.46844 0.0
C1113 C 0.48709 0.84859 0.48972 0.0
C1114 C 0.50112 0.85603 0.4878 0.0
H1115 H 0.4638 0.84522 0.48224 0.0
H1116 H 0.48594 0.84053 0.49862 0.0
S1117 S 0.50889 0.88423 0.45863 0.0
N1118 N 0.49079 0.8794 0.45541 0.0
N1119 N 0.51485 0.87429 0.47318 0.0
C1120 C 0.50193 0.86643 0.47607 0.0
C1121 C 0.48886 0.86919 0.4664 0.0
C1122 C 0.4347 0.21474 0.76123 0.0
C1123 C 0.43124 0.20005 0.75352 0.0
C1124 C 0.44384 0.21605 0.77482 0.0
C1125 C 0.44959 0.20269 0.78141 0.0
H1126 H 0.4305 0.22536 0.75661 0.0
H1127 H 0.44627 0.22763 0.78029 0.0
S1128 S 0.44357 0.16145 0.76592 0.0
N1129 N 0.43421 0.17183 0.7535 0.0
N1130 N 0.45109 0.17427 0.77924 0.0
C1131 C 0.44607 0.1879 0.77393 0.0
C1132 C 0.43698 0.18659 0.75992 0.0
C1133 C 0.09241 0.22725 0.02518 0.0
C1134 C 0.08244 0.21945 0.0141 0.0
C1135 C 0.10794 0.22906 0.02225 0.0
C1136 C 0.11416 0.22328 0.00806 0.0
H1137 H 0.08825 0.23184 0.03634 0.0
H1138 H 0.11512 0.23503 0.03124 0.0
S1139 S 0.09287 0.20233 0.97493 0.0
N1140 N 0.07988 0.20613 0.98821 0.0
N1141 N 0.10901 0.20963 0.98266 0.0
C1142 C 0.10428 0.21565 0.99677 0.0
C1143 C 0.08846 0.2137 0.9998 0.0
C1144 C 0.20206 0.05666 0.02366 0.0
C1145 C 0.21098 0.07023 0.02665 0.0
C1146 C 0.19963 0.04653 0.03526 0.0
C1147 C 0.20576 0.04974 0.05039 0.0
H1148 H 0.197 0.05374 0.01223 0.0
H1149 H 0.19267 0.03624 0.03238 0.0
S1150 S 0.2299 0.08379 0.06426 0.0
N1151 N 0.22607 0.0863 0.04584 0.0
N1152 N 0.22124 0.06743 0.06771 0.0
C1153 C 0.21467 0.06329 0.05356 0.0
C1154 C 0.21735 0.07348 0.04167 0.0
C1155 C 0.23971 0.95748 0.27564 0.0
C1156 C 0.22636 0.96426 0.26968 0.0
C1157 C 0.24308 0.95847 0.29162 0.0
C1158 C 0.23317 0.96614 0.30233 0.0
H1159 H 0.24757 0.95117 0.26792 0.0
H1160 H 0.25337 0.9528 0.29559 0.0
S1161 S 0.1971 0.98658 0.29275 0.0
N1162 N 0.20347 0.97954 0.27578 0.0
N1163 N 0.20976 0.98126 0.30579 0.0
C1164 C 0.21996 0.97331 0.29653 0.0
C1165 C 0.21658 0.97242 0.28022 0.0
C1166 C 0.33712 0.95947 0.53496 0.0
C1167 C 0.32634 0.96491 0.52433 0.0
C1168 C 0.33409 0.95996 0.55082 0.0
C1169 C 0.32041 0.96643 0.55665 0.0
H1170 H 0.34789 0.95459 0.53094 0.0
H1171 H 0.34263 0.95553 0.55864 0.0
S1172 S 0.28863 0.98256 0.53366 0.0
N1173 N 0.30141 0.97681 0.52065 0.0
N1174 N 0.29604 0.97848 0.55063 0.0
C1175 C 0.30963 0.97211 0.54618 0.0
C1176 C 0.3125 0.97114 0.52996 0.0
C1177 C 0.27849 0.1164 0.77788 0.0
C1178 C 0.29257 0.10846 0.77655 0.0
C1179 C 0.27253 0.12109 0.79242 0.0
C1180 C 0.28045 0.1182 0.80627 0.0
H1181 H 0.27198 0.11905 0.76759 0.0
H1182 H 0.26168 0.12722 0.79276 0.0
S1183 S 0.31771 0.09763 0.80926 0.0
N1184 N 0.3142 0.09772 0.79043 0.0
N1185 N 0.30306 0.10664 0.81771 0.0
C1186 C 0.29451 0.11019 0.80513 0.0
C1187 C 0.30053 0.10529 0.7903 0.0
C1188 C 0.58011 0.3915 0.9732 0.0
C1189 C 0.59339 0.38538 0.96613 0.0
C1190 C 0.56565 0.38913 0.96607 0.0
C1191 C 0.56382 0.38038 0.95164 0.0
H1192 H 0.58085 0.39829 0.98433 0.0
H1193 H 0.55581 0.39411 0.97203 0.0
S1194 S 0.59493 0.36178 0.92819 0.0
N1195 N 0.60377 0.3702 0.94377 0.0
N1196 N 0.5766 0.36563 0.93045 0.0
C1197 C 0.577 0.37415 0.94443 0.0
C1198 C 0.59176 0.37669 0.95163 0.0
C1199 C 0.93597 0.29976 0.21043 0.0
C1200 C 0.9242 0.29738 0.1991 0.0
C1201 C 0.93819 0.31446 0.21859 0.0
C1202 C 0.92906 0.32737 0.21528 0.0
H1203 H 0.94337 0.29014 0.21314 0.0
H1204 H 0.94728 0.3158 0.22734 0.0
S1205 S 0.89694 0.32731 0.18647 0.0
N1206 N 0.90328 0.3091 0.18507 0.0
N1207 N 0.90786 0.33684 0.19993 0.0
C1208 C 0.91739 0.32517 0.20386 0.0
C1209 C 0.91485 0.31014 0.19589 0.0
C1210 C 0.95837 0.72898 0.39611 0.0
C1211 C 0.94416 0.7339 0.39025 0.0
C1212 C 0.9598 0.72353 0.41091 0.0
C1213 C 0.94716 0.72309 0.42054 0.0
H1214 H 0.96843 0.72904 0.38911 0.0
H1215 H 0.97095 0.71972 0.41485 0.0
S1216 S 0.90749 0.7351 0.41086 0.0
N1217 N 0.91721 0.73817 0.39531 0.0
N1218 N 0.91997 0.72822 0.42324 0.0
C1219 C 0.93292 0.72822 0.41494 0.0
C1220 C 0.93141 0.73354 0.39976 0.0
C1221 C 0.98551 0.57555 0.27595 0.0
C1222 C 0.99351 0.5687 0.288 0.0
C1223 C 0.98918 0.59052 0.27185 0.0
C1224 C 0.00108 0.59928 0.27956 0.0
H1225 H 0.97615 0.5694 0.26971 0.0
H1226 H 0.98255 0.59527 0.26259 0.0
S1227 S 0.02595 0.58652 0.31166 0.0
N1228 N 0.01416 0.57174 0.30741 0.0
N1229 N 0.0211 0.59982 0.29968 0.0
C1230 C 0.00935 0.59249 0.29149 0.0
C1231 C 0.00556 0.57724 0.29571 0.0
C1232 C 0.56319 0.44212 0.80123 0.0
C1233 C 0.5561 0.4566 0.80526 0.0
C1234 C 0.57752 0.44131 0.79436 0.0
C1235 C 0.58519 0.45494 0.79098 0.0
H1236 H 0.55768 0.43129 0.80348 0.0
H1237 H 0.58249 0.42989 0.79146 0.0
S1238 S 0.57163 0.49578 0.79927 0.0
N1239 N 0.55795 0.48492 0.80552 0.0
N1240 N 0.58475 0.48338 0.79236 0.0
C1241 C 0.57825 0.4695 0.79494 0.0
C1242 C 0.56376 0.47034 0.80216 0.0
C1243 C 0.58395 0.67872 0.68635 0.0
C1244 C 0.58571 0.69355 0.69445 0.0
C1245 C 0.57927 0.67713 0.67069 0.0
C1246 C 0.57596 0.69031 0.66251 0.0
H1247 H 0.58621 0.66819 0.69214 0.0
H1248 H 0.578 0.66544 0.66502 0.0
S1249 S 0.57905 0.73183 0.67823 0.0
N1250 N 0.58406 0.72174 0.69299 0.0
N1251 N 0.57511 0.71874 0.6636 0.0
C1252 C 0.57778 0.70523 0.67042 0.0
C1253 C 0.5827 0.70686 0.68635 0.0
C1254 C 0.84712 0.30801 0.02325 0.0
C1255 C 0.84461 0.29331 0.02882 0.0
C1256 C 0.83505 0.3185 0.02119 0.0
C1257 C 0.82 0.31483 0.02489 0.0
H1258 H 0.85852 0.31145 0.02038 0.0
H1259 H 0.83759 0.32968 0.01691 0.0
S1260 S 0.80726 0.27783 0.03983 0.0
N1261 N 0.82586 0.27555 0.03785 0.0
N1262 N 0.80322 0.29536 0.03424 0.0
C1263 C 0.8173 0.30016 0.03046 0.0
C1264 C 0.82958 0.28938 0.03234 0.0
C1265 C 0.70618 0.71799 0.52885 0.0
C1266 C 0.71824 0.72596 0.53715 0.0
C1267 C 0.69139 0.7243 0.52848 0.0
C1268 C 0.68797 0.73882 0.53647 0.0
H1269 H 0.70813 0.70673 0.52258 0.0
H1270 H 0.68254 0.71762 0.52197 0.0
S1271 S 0.71547 0.76461 0.55976 0.0
N1272 N 0.72577 0.74935 0.55341 0.0
N1273 N 0.69799 0.76115 0.55276 0.0
C1274 C 0.69993 0.74699 0.54474 0.0
C1275 C 0.71503 0.74059 0.54506 0.0
C1276 C 0.7607 0.63456 0.69741 0.0
C1277 C 0.76945 0.64836 0.6989 0.0
C1278 C 0.75105 0.63075 0.70917 0.0
C1279 C 0.74974 0.64053 0.72296 0.0
H1280 H 0.76131 0.62656 0.68707 0.0
H1281 H 0.7446 0.61997 0.7074 0.0
S1282 S 0.77005 0.67816 0.73265 0.0
N1283 N 0.77607 0.67195 0.71528 0.0
N1284 N 0.75795 0.66477 0.73738 0.0
C1285 C 0.75837 0.65442 0.72461 0.0
C1286 C 0.7682 0.65833 0.7126 0.0
C1287 C 0.70642 0.53694 0.90421 0.0
C1288 C 0.71673 0.52923 0.89393 0.0
C1289 C 0.70594 0.53359 0.91977 0.0
C1290 C 0.71579 0.52242 0.92576 0.0
H1291 H 0.69845 0.54551 0.90018 0.0
H1292 H 0.69763 0.53973 0.92709 0.0
S1293 S 0.74544 0.49939 0.90391 0.0
N1294 N 0.7374 0.51022 0.89103 0.0
N1295 N 0.73654 0.50396 0.92025 0.0
C1296 C 0.72639 0.51483 0.91571 0.0
C1297 C 0.72684 0.51821 0.89982 0.0
C1298 C 0.80622 0.44669 0.16322 0.0
C1299 C 0.7987 0.4603 0.15906 0.0
C1300 C 0.80845 0.44382 0.17884 0.0
C1301 C 0.8037 0.45471 0.19081 0.0
H1302 H 0.8102 0.43808 0.15434 0.0
H1303 H 0.81422 0.43314 0.18156 0.0
S1304 S 0.78375 0.49228 0.18601 0.0
N1305 N 0.78637 0.48468 0.16808 0.0
N1306 N 0.79126 0.47965 0.1975 0.0
C1307 C 0.79635 0.46846 0.18681 0.0
C1308 C 0.79365 0.47115 0.1709 0.0
C1309 C 0.84721 0.57738 0.42174 0.0
C1310 C 0.85237 0.57588 0.4371 0.0
C1311 C 0.84938 0.56538 0.40999 0.0
C1312 C 0.85672 0.55129 0.41307 0.0
H1313 H 0.84157 0.588 0.41868 0.0
H1314 H 0.84527 0.56722 0.39836 0.0
S1315 S 0.8721 0.54124 0.45145 0.0
N1316 N 0.86498 0.55902 0.45482 0.0
N1317 N 0.86899 0.53644 0.43276 0.0
C1318 C 0.86179 0.54953 0.42843 0.0
C1319 C 0.85965 0.56181 0.44041 0.0
loop_
_geom_bond_atom_site_label_1
_geom_bond_atom_site_label_2
_geom_bond_distance
_geom_bond_site_symmetry_2
_ccdc_geom_bond_type
O0 Cd1 2.300 . S
O0 C7 1.275 . S
Cd1 O0 2.300 . S
Cd1 O9 2.381 . S
Cd1 O10 2.378 . S
O2 Cd3 2.385 . S
O2 C7 1.255 1_565 S
Cd3 O2 2.385 . S
Cd3 O4 2.317 . S
O4 Cd3 2.317 . S
O4 C5 1.232 . S
C5 O4 1.232 . S
C5 O6 1.218 . S
O6 C5 1.218 . S
C7 O0 1.275 . S
C7 O2 1.255 1_545 S
C8 O9 1.258 . S
C8 O10 1.256 . S
O9 Cd1 2.381 . S
O9 C8 1.258 . S
O10 Cd1 2.378 . S
O10 C8 1.256 . S
O11 Cd12 2.300 . S
O11 C18 1.275 . S
Cd12 O11 2.300 . S
Cd12 O20 2.381 . S
Cd12 O21 2.378 . S
O13 Cd14 2.385 . S
O13 C18 1.255 . S
Cd14 O13 2.385 . S
Cd14 O15 2.317 . S
O15 Cd14 2.317 . S
O15 C16 1.232 . S
C16 O15 1.232 . S
C16 O17 1.218 . S
O17 C16 1.218 . S
C18 O11 1.275 . S
C18 O13 1.255 . S
C19 O20 1.258 . S
C19 O21 1.256 . S
O20 Cd12 2.381 . S
O20 C19 1.258 . S
O21 Cd12 2.378 . S
O21 C19 1.256 . S
O22 Cd23 2.300 . S
O22 C29 1.275 . S
Cd23 O22 2.300 . S
Cd23 O31 2.381 . S
Cd23 O32 2.378 . S
O24 Cd25 2.385 . S
O24 C29 1.255 1_545 S
Cd25 O24 2.385 . S
Cd25 O26 2.317 . S
O26 Cd25 2.317 . S
O26 C27 1.232 . S
C27 O26 1.232 . S
C27 O28 1.218 . S
O28 C27 1.218 . S
C29 O22 1.275 . S
C29 O24 1.255 1_565 S
C30 O31 1.258 . S
C30 O32 1.256 . S
O31 Cd23 2.381 . S
O31 C30 1.258 . S
O32 Cd23 2.378 . S
O32 C30 1.256 . S
O33 Cd34 2.300 . S
O33 C40 1.275 . S
Cd34 O33 2.300 . S
Cd34 O42 2.381 . S
Cd34 O43 2.378 . S
O35 Cd36 2.385 . S
O35 C40 1.255 . S
Cd36 O35 2.385 . S
Cd36 O37 2.317 . S
O37 Cd36 2.317 . S
O37 C38 1.232 . S
C38 O37 1.232 . S
C38 O39 1.218 . S
O39 C38 1.218 . S
C40 O33 1.275 . S
C40 O35 1.255 . S
C41 O42 1.258 . S
C41 O43 1.256 . S
O42 Cd34 2.381 . S
O42 C41 1.258 . S
O43 Cd34 2.378 . S
O43 C41 1.256 . S
O44 Cd45 2.300 . S
O44 C51 1.275 . S
Cd45 O44 2.300 . S
Cd45 O53 2.381 . S
Cd45 O54 2.378 . S
O46 Cd47 2.385 . S
O46 C51 1.255 . S
Cd47 O46 2.385 . S
Cd47 O48 2.317 . S
O48 Cd47 2.317 . S
O48 C49 1.232 . S
C49 O48 1.232 . S
C49 O50 1.218 . S
O50 C49 1.218 . S
C51 O44 1.275 . S
C51 O46 1.255 . S
C52 O53 1.258 . S
C52 O54 1.256 . S
O53 Cd45 2.381 . S
O53 C52 1.258 . S
O54 Cd45 2.378 . S
O54 C52 1.256 . S
O55 Cd56 2.300 . S
O55 C62 1.275 . S
Cd56 O55 2.300 . S
Cd56 O64 2.381 . S
Cd56 O65 2.378 . S
O57 Cd58 2.385 . S
O57 C62 1.255 . S
Cd58 O57 2.385 . S
Cd58 O59 2.317 . S
O59 Cd58 2.317 . S
O59 C60 1.232 . S
C60 O59 1.232 . S
C60 O61 1.218 . S
O61 C60 1.218 . S
C62 O55 1.275 . S
C62 O57 1.255 . S
C63 O64 1.258 . S
C63 O65 1.256 . S
O64 Cd56 2.381 . S
O64 C63 1.258 . S
O65 Cd56 2.378 . S
O65 C63 1.256 . S
O66 Cd67 2.300 . S
O66 C73 1.275 . S
Cd67 O66 2.300 . S
Cd67 O75 2.381 . S
Cd67 O76 2.378 . S
O68 Cd69 2.385 . S
O68 C73 1.255 . S
Cd69 O68 2.385 . S
Cd69 O70 2.317 . S
O70 Cd69 2.317 . S
O70 C71 1.232 . S
C71 O70 1.232 . S
C71 O72 1.218 . S
O72 C71 1.218 . S
C73 O66 1.275 . S
C73 O68 1.255 . S
C74 O75 1.258 . S
C74 O76 1.256 . S
O75 Cd67 2.381 . S
O75 C74 1.258 . S
O76 Cd67 2.378 . S
O76 C74 1.256 . S
O77 Cd78 2.300 . S
O77 C84 1.275 . S
Cd78 O77 2.300 . S
Cd78 O86 2.381 . S
Cd78 O87 2.378 . S
O79 Cd80 2.385 . S
O79 C84 1.255 . S
Cd80 O79 2.385 . S
Cd80 O81 2.317 . S
O81 Cd80 2.317 . S
O81 C82 1.232 1_554 S
C82 O81 1.232 1_556 S
C82 O83 1.251 . S
O83 C82 1.251 . S
C84 O77 1.275 . S
C84 O79 1.255 . S
C85 O86 1.258 . S
C85 O87 1.256 . S
O86 Cd78 2.381 . S
O86 C85 1.258 . S
O87 Cd78 2.378 . S
O87 C85 1.256 . S
O88 Cd89 2.300 . S
O88 C95 1.275 . S
Cd89 O88 2.300 . S
Cd89 O97 2.381 . S
Cd89 O98 2.378 . S
O90 Cd91 2.385 . S
O90 C95 1.255 1_556 S
Cd91 O90 2.385 . S
Cd91 O92 2.317 . S
O92 Cd91 2.317 . S
O92 C93 1.232 . S
C93 O92 1.232 . S
C93 O94 1.218 . S
O94 C93 1.218 . S
C95 O88 1.275 . S
C95 O90 1.255 1_554 S
C96 O97 1.258 . S
C96 O98 1.256 . S
O97 Cd89 2.381 . S
O97 C96 1.258 . S
O98 Cd89 2.378 . S
O98 C96 1.256 . S
O99 Cd100 2.300 . S
O99 C106 1.275 . S
Cd100 O99 2.300 . S
Cd100 O108 2.381 . S
Cd100 O109 2.378 . S
O101 Cd102 2.385 . S
O101 C106 1.255 . S
Cd102 O101 2.385 . S
Cd102 O103 2.317 . S
O103 Cd102 2.317 . S
O103 C104 1.232 . S
C104 O103 1.232 . S
C104 O105 1.218 . S
O105 C104 1.218 . S
C106 O99 1.275 . S
C106 O101 1.255 . S
C107 O108 1.258 . S
C107 O109 1.256 . S
O108 Cd100 2.381 . S
O108 C107 1.258 . S
O109 Cd100 2.378 . S
O109 C107 1.256 . S
O110 Cd111 2.300 . S
O110 C117 1.275 . S
Cd111 O110 2.300 . S
Cd111 O119 2.381 . S
Cd111 O120 2.378 1_565 S
O112 Cd113 2.385 . S
O112 C117 1.255 . S
Cd113 O112 2.385 . S
Cd113 O114 2.317 . S
O114 Cd113 2.317 . S
O114 C115 1.232 . S
C115 O114 1.232 . S
C115 O116 1.218 . S
O116 C115 1.218 . S
C117 O110 1.275 . S
C117 O112 1.255 . S
C118 O119 1.258 . S
C118 O120 1.256 1_565 S
O119 Cd111 2.381 . S
O119 C118 1.258 . S
O120 Cd111 2.378 1_545 S
O120 C118 1.256 1_545 S
O121 Cd122 2.300 . S
O121 C128 1.275 . S
Cd122 O121 2.300 . S
Cd122 O130 2.381 . S
Cd122 O131 2.378 . S
O123 Cd124 2.385 . S
O123 C128 1.255 . S
Cd124 O123 2.385 . S
Cd124 O125 2.317 . S
O125 Cd124 2.317 . S
O125 C126 1.232 . S
C126 O125 1.232 . S
C126 O127 1.218 . S
O127 C126 1.218 . S
C128 O121 1.275 . S
C128 O123 1.255 . S
C129 O130 1.258 . S
C129 O131 1.256 . S
O130 Cd122 2.381 . S
O130 C129 1.258 . S
O131 Cd122 2.378 . S
O131 C129 1.256 . S
O132 Cd133 2.300 . S
O132 C139 1.275 . S
Cd133 O132 2.300 . S
Cd133 O141 2.381 . S
Cd133 O142 2.378 . S
O134 Cd135 2.385 . S
O134 C139 1.255 . S
Cd135 O134 2.385 . S
Cd135 O136 2.317 . S
O136 Cd135 2.317 . S
O136 C137 1.232 . S
C137 O136 1.232 . S
C137 O138 1.218 . S
O138 C137 1.218 . S
C139 O132 1.275 . S
C139 O134 1.255 . S
C140 O141 1.258 . S
C140 O142 1.256 . S
O141 Cd133 2.381 . S
O141 C140 1.258 . S
O142 Cd133 2.378 . S
O142 C140 1.256 . S
O143 Cd144 2.300 . S
O143 C150 1.275 . S
Cd144 O143 2.300 . S
Cd144 O152 2.381 . S
Cd144 O153 2.378 . S
O145 Cd146 2.385 . S
O145 C150 1.255 . S
Cd146 O145 2.385 . S
Cd146 O147 2.317 1_565 S
O147 Cd146 2.317 1_545 S
O147 C148 1.232 . S
C148 O147 1.232 . S
C148 O149 1.218 . S
O149 C148 1.218 . S
C150 O143 1.275 . S
C150 O145 1.255 . S
C151 O152 1.258 . S
C151 O153 1.256 . S
O152 Cd144 2.381 . S
O152 C151 1.258 . S
O153 Cd144 2.378 . S
O153 C151 1.256 . S
O154 Cd155 2.300 . S
O154 C161 1.275 . S
Cd155 O154 2.300 . S
Cd155 O163 2.381 . S
Cd155 O164 2.378 . S
O156 Cd157 2.385 . S
O156 C161 1.255 . S
Cd157 O156 2.385 . S
Cd157 O158 2.317 . S
O158 Cd157 2.317 . S
O158 C159 1.232 . S
C159 O158 1.232 . S
C159 O160 1.218 . S
O160 C159 1.218 . S
C161 O154 1.275 . S
C161 O156 1.255 . S
C162 O163 1.258 . S
C162 O164 1.256 . S
O163 Cd155 2.381 . S
O163 C162 1.258 . S
O164 Cd155 2.378 . S
O164 C162 1.256 . S
O165 Cd166 2.300 . S
O165 C172 1.275 . S
Cd166 O165 2.300 . S
Cd166 O174 2.381 . S
Cd166 O175 2.378 . S
O167 Cd168 2.385 . S
O167 C172 1.255 . S
Cd168 O167 2.385 . S
Cd168 O169 2.317 . S
O169 Cd168 2.317 . S
O169 C170 1.232 1_545 S
C170 O169 1.232 1_565 S
C170 O171 1.218 . S
O171 C170 1.218 . S
C172 O165 1.275 . S
C172 O167 1.255 . S
C173 O174 1.258 . S
C173 O175 1.256 . S
O174 Cd166 2.381 . S
O174 C173 1.258 . S
O175 Cd166 2.378 . S
O175 C173 1.256 . S
O176 Cd177 2.300 . S
O176 C183 1.275 . S
Cd177 O176 2.300 . S
Cd177 O185 2.381 . S
Cd177 O186 2.378 1_554 S
O178 Cd179 2.385 1_455 S
O178 C183 1.255 . S
Cd179 O178 2.385 1_655 S
Cd179 O180 2.317 . S
O180 Cd179 2.317 . S
O180 C181 1.232 . S
C181 O180 1.232 . S
C181 O182 1.218 . S
O182 C181 1.218 . S
C183 O176 1.275 . S
C183 O178 1.255 . S
C184 O185 1.258 . S
C184 O186 1.256 1_554 S
O185 Cd177 2.381 . S
O185 C184 1.258 . S
O186 Cd177 2.378 1_556 S
O186 C184 1.256 1_556 S
O187 Cd188 2.300 . S
O187 C194 1.275 . S
Cd188 O187 2.300 . S
Cd188 O196 2.381 . S
Cd188 O197 2.378 . S
O189 Cd190 2.385 . S
O189 C194 1.255 . S
Cd190 O189 2.385 . S
Cd190 O191 2.317 . S
O191 Cd190 2.317 . S
O191 C192 1.232 . S
C192 O191 1.232 . S
C192 O193 1.218 . S
O193 C192 1.218 . S
C194 O187 1.275 . S
C194 O189 1.255 . S
C195 O196 1.258 . S
C195 O197 1.256 . S
O196 Cd188 2.381 . S
O196 C195 1.258 . S
O197 Cd188 2.378 . S
O197 C195 1.256 . S
O198 Cd199 2.300 . S
O198 C205 1.275 . S
Cd199 O198 2.300 . S
Cd199 O207 2.381 . S
Cd199 O208 2.378 . S
O200 Cd201 2.385 . S
O200 C205 1.255 . S
Cd201 O200 2.385 . S
Cd201 O202 2.317 . S
O202 Cd201 2.317 . S
O202 C203 1.232 . S
C203 O202 1.232 . S
C203 O204 1.218 . S
O204 C203 1.218 . S
C205 O198 1.275 . S
C205 O200 1.255 . S
C206 O207 1.258 . S
C206 O208 1.256 . S
O207 Cd199 2.381 . S
O207 C206 1.258 . S
O208 Cd199 2.378 . S
O208 C206 1.256 . S
O209 Cd210 2.300 . S
O209 C216 1.275 . S
Cd210 O209 2.300 . S
Cd210 O218 2.381 . S
Cd210 O219 2.378 . S
O211 Cd212 2.385 . S
O211 C216 1.255 1_455 S
Cd212 O211 2.385 . S
Cd212 O213 2.317 . S
O213 Cd212 2.317 . S
O213 C214 1.232 . S
C214 O213 1.232 . S
C214 O215 1.218 . S
O215 C214 1.218 . S
C216 O209 1.275 . S
C216 O211 1.255 1_655 S
C217 O218 1.258 . S
C217 O219 1.256 . S
O218 Cd210 2.381 . S
O218 C217 1.258 . S
O219 Cd210 2.378 . S
O219 C217 1.256 . S
O220 Cd221 2.300 . S
O220 C227 1.275 . S
Cd221 O220 2.300 . S
Cd221 O229 2.381 . S
Cd221 O230 2.378 . S
O222 Cd223 2.385 . S
O222 C227 1.255 . S
Cd223 O222 2.385 . S
Cd223 O224 2.317 1_455 S
O224 Cd223 2.317 1_655 S
O224 C225 1.232 . S
C225 O224 1.232 . S
C225 O226 1.218 . S
O226 C225 1.218 . S
C227 O220 1.275 . S
C227 O222 1.255 . S
C228 O229 1.258 . S
C228 O230 1.256 . S
O229 Cd221 2.381 . S
O229 C228 1.258 . S
O230 Cd221 2.378 . S
O230 C228 1.256 . S
O231 Cd232 2.300 . S
O231 C238 1.275 . S
Cd232 O231 2.300 . S
Cd232 O240 2.381 . S
Cd232 O241 2.378 . S
O233 Cd234 2.385 . S
O233 C238 1.255 . S
Cd234 O233 2.385 . S
Cd234 O235 2.317 . S
O235 Cd234 2.317 . S
O235 C236 1.232 . S
C236 O235 1.232 . S
C236 O237 1.218 . S
O237 C236 1.218 . S
C238 O231 1.275 . S
C238 O233 1.255 . S
C239 O240 1.258 . S
C239 O241 1.256 . S
O240 Cd232 2.381 . S
O240 C239 1.258 . S
O241 Cd232 2.378 . S
O241 C239 1.256 . S
O242 Cd243 2.300 . S
O242 C249 1.275 . S
Cd243 O242 2.300 . S
Cd243 O251 2.381 . S
Cd243 O252 2.378 . S
O244 Cd245 2.385 . S
O244 C249 1.255 . S
Cd245 O244 2.385 . S
Cd245 O246 2.317 1_655 S
O246 Cd245 2.317 1_455 S
O246 C247 1.232 . S
C247 O246 1.232 . S
C247 O248 1.218 . S
O248 C247 1.218 . S
C249 O242 1.275 . S
C249 O244 1.255 . S
C250 O251 1.258 . S
C250 O252 1.256 . S
O251 Cd243 2.381 . S
O251 C250 1.258 . S
O252 Cd243 2.378 . S
O252 C250 1.256 . S
O253 Cd254 2.300 . S
O253 C260 1.275 . S
Cd254 O253 2.300 . S
Cd254 O262 2.381 . S
Cd254 O263 2.378 . S
O255 Cd256 2.385 . S
O255 C260 1.255 . S
Cd256 O255 2.385 . S
Cd256 O257 2.317 . S
O257 Cd256 2.317 . S
O257 C258 1.232 . S
C258 O257 1.232 . S
C258 O259 1.218 . S
O259 C258 1.218 . S
C260 O253 1.275 . S
C260 O255 1.255 . S
C261 O262 1.258 . S
C261 O263 1.256 . S
O262 Cd254 2.381 . S
O262 C261 1.258 . S
O263 Cd254 2.378 . S
O263 C261 1.256 . S
O264 Cd265 2.300 . S
O264 C271 1.275 . S
Cd265 O264 2.300 . S
Cd265 O273 2.381 . S
Cd265 O274 2.378 . S
O266 Cd267 2.385 . S
O266 C271 1.255 . S
Cd267 O266 2.385 . S
Cd267 O268 2.317 . S
O268 Cd267 2.317 . S
O268 C269 1.232 . S
C269 O268 1.232 . S
C269 O270 1.218 . S
O270 C269 1.218 . S
C271 O264 1.275 . S
C271 O266 1.255 . S
C272 O273 1.258 . S
C272 O274 1.256 . S
O273 Cd265 2.381 . S
O273 C272 1.258 . S
O274 Cd265 2.378 . S
O274 C272 1.256 . S
O275 Cd276 2.308 . S
O275 C282 1.278 . S
Cd276 O275 2.308 . S
Cd276 O284 2.381 . S
Cd276 O285 2.378 . S
O277 Cd278 2.385 . S
O277 C282 1.255 . S
Cd278 O277 2.385 . S
Cd278 O279 2.317 . S
O279 Cd278 2.317 . S
O279 C280 1.232 1_556 S
C280 O279 1.232 1_554 S
C280 O281 1.218 . S
O281 C280 1.218 . S
C282 O275 1.278 . S
C282 O277 1.255 . S
C283 O284 1.258 . S
C283 O285 1.256 . S
O284 Cd276 2.381 . S
O284 C283 1.258 . S
O285 Cd276 2.378 . S
O285 C283 1.256 . S
O286 Cd287 2.300 . S
O286 C293 1.275 . S
Cd287 O286 2.300 . S
Cd287 O295 2.381 . S
Cd287 O296 2.378 . S
O288 Cd289 2.385 . S
O288 C293 1.255 . S
Cd289 O288 2.385 . S
Cd289 O290 2.317 . S
O290 Cd289 2.317 . S
O290 C291 1.232 . S
C291 O290 1.232 . S
C291 O292 1.218 . S
O292 C291 1.218 . S
C293 O286 1.275 . S
C293 O288 1.255 . S
C294 O295 1.258 . S
C294 O296 1.256 . S
O295 Cd287 2.381 . S
O295 C294 1.258 . S
O296 Cd287 2.378 . S
O296 C294 1.256 . S
O297 Cd298 2.300 . S
O297 C304 1.275 . S
Cd298 O297 2.300 . S
Cd298 O306 2.381 . S
Cd298 O307 2.378 . S
O299 Cd300 2.385 . S
O299 C304 1.255 . S
Cd300 O299 2.385 . S
Cd300 O301 2.317 . S
O301 Cd300 2.317 . S
O301 C302 1.232 . S
C302 O301 1.232 . S
C302 O303 1.218 . S
O303 C302 1.218 . S
C304 O297 1.275 . S
C304 O299 1.255 . S
C305 O306 1.258 . S
C305 O307 1.256 . S
O306 Cd298 2.381 . S
O306 C305 1.258 . S
O307 Cd298 2.378 . S
O307 C305 1.256 . S
O308 Cd309 2.300 . S
O308 C315 1.275 . S
Cd309 O308 2.300 . S
Cd309 O317 2.381 . S
Cd309 O318 2.378 . S
O310 Cd311 2.385 . S
O310 C315 1.255 . S
Cd311 O310 2.385 . S
Cd311 O312 2.317 . S
O312 Cd311 2.317 . S
O312 C313 1.232 . S
C313 O312 1.232 . S
C313 O314 1.218 . S
O314 C313 1.218 . S
C315 O308 1.275 . S
C315 O310 1.255 . S
C316 O317 1.258 . S
C316 O318 1.256 . S
O317 Cd309 2.381 . S
O317 C316 1.258 . S
O318 Cd309 2.378 . S
O318 C316 1.256 . S
O319 Cd320 2.300 . S
O319 C326 1.275 . S
Cd320 O319 2.300 . S
Cd320 O328 2.381 . S
Cd320 O329 2.378 . S
O321 Cd322 2.385 . S
O321 C326 1.255 . S
Cd322 O321 2.385 . S
Cd322 O323 2.317 . S
O323 Cd322 2.317 . S
O323 C324 1.232 . S
C324 O323 1.232 . S
C324 O325 1.218 . S
O325 C324 1.218 . S
C326 O319 1.275 . S
C326 O321 1.255 . S
C327 O328 1.258 . S
C327 O329 1.256 . S
O328 Cd320 2.381 . S
O328 C327 1.258 . S
O329 Cd320 2.378 . S
O329 C327 1.256 . S
O330 Cd331 2.300 . S
O330 C337 1.275 . S
Cd331 O330 2.300 . S
Cd331 O339 2.381 . S
Cd331 O340 2.378 1_655 S
O332 Cd333 2.385 . S
O332 C337 1.255 . S
Cd333 O332 2.385 . S
Cd333 O334 2.317 . S
O334 Cd333 2.317 . S
O334 C335 1.232 . S
C335 O334 1.232 . S
C335 O336 1.218 . S
O336 C335 1.218 . S
C337 O330 1.275 . S
C337 O332 1.255 . S
C338 O339 1.258 . S
C338 O340 1.256 1_655 S
O339 Cd331 2.381 . S
O339 C338 1.258 . S
O340 Cd331 2.378 1_455 S
O340 C338 1.256 1_455 S
O341 Cd342 2.300 . S
O341 C348 1.275 . S
Cd342 O341 2.300 . S
Cd342 O350 2.381 . S
Cd342 O351 2.378 . S
O343 Cd344 2.385 . S
O343 C348 1.255 . S
Cd344 O343 2.385 . S
Cd344 O345 2.317 . S
O345 Cd344 2.317 . S
O345 C346 1.232 . S
C346 O345 1.232 . S
C346 O347 1.218 . S
O347 C346 1.218 . S
C348 O341 1.275 . S
C348 O343 1.255 . S
C349 O350 1.258 . S
C349 O351 1.256 . S
O350 Cd342 2.381 . S
O350 C349 1.258 . S
O351 Cd342 2.378 . S
O351 C349 1.256 . S
O352 Cd353 2.300 . S
O352 C359 1.275 . S
Cd353 O352 2.300 . S
Cd353 O361 2.381 . S
Cd353 O362 2.378 . S
O354 Cd355 2.385 . S
O354 C359 1.255 . S
Cd355 O354 2.385 . S
Cd355 O356 2.317 . S
O356 Cd355 2.317 . S
O356 C357 1.232 . S
C357 O356 1.232 . S
C357 O358 1.218 . S
O358 C357 1.218 . S
C359 O352 1.275 . S
C359 O354 1.255 . S
C360 O361 1.258 . S
C360 O362 1.256 . S
O361 Cd353 2.381 . S
O361 C360 1.258 . S
O362 Cd353 2.378 . S
O362 C360 1.256 . S
O363 Cd364 2.300 . S
O363 C370 1.275 . S
Cd364 O363 2.300 . S
Cd364 O372 2.381 . S
Cd364 O373 2.378 . S
O365 Cd366 2.385 . S
O365 C370 1.255 . S
Cd366 O365 2.385 . S
Cd366 O367 2.317 . S
O367 Cd366 2.317 . S
O367 C368 1.232 . S
C368 O367 1.232 . S
C368 O369 1.218 . S
O369 C368 1.218 . S
C370 O363 1.275 . S
C370 O365 1.255 . S
C371 O372 1.258 . S
C371 O373 1.256 . S
O372 Cd364 2.381 . S
O372 C371 1.258 . S
O373 Cd364 2.378 . S
O373 C371 1.256 . S
O374 Cd375 2.300 . S
O374 C381 1.275 . S
Cd375 O374 2.300 . S
Cd375 O383 2.381 . S
Cd375 O384 2.378 . S
O376 Cd377 2.385 . S
O376 C381 1.255 . S
Cd377 O376 2.385 . S
Cd377 O378 2.317 . S
O378 Cd377 2.317 . S
O378 C379 1.232 . S
C379 O378 1.232 . S
C379 O380 1.218 . S
O380 C379 1.218 . S
C381 O374 1.275 . S
C381 O376 1.255 . S
C382 O383 1.258 . S
C382 O384 1.256 . S
O383 Cd375 2.381 . S
O383 C382 1.258 . S
O384 Cd375 2.378 . S
O384 C382 1.256 . S
O385 Cd386 2.300 . S
O385 C392 1.275 . S
Cd386 O385 2.300 . S
Cd386 O394 2.381 . S
Cd386 O395 2.378 . S
O387 Cd388 2.385 . S
O387 C392 1.255 . S
Cd388 O387 2.385 . S
Cd388 O389 2.317 . S
O389 Cd388 2.317 . S
O389 C390 1.232 . S
C390 O389 1.232 . S
C390 O391 1.218 . S
O391 C390 1.218 . S
C392 O385 1.275 . S
C392 O387 1.255 . S
C393 O394 1.258 . S
C393 O395 1.256 . S
O394 Cd386 2.381 . S
O394 C393 1.258 . S
O395 Cd386 2.378 . S
O395 C393 1.256 . S
O396 Cd397 2.300 . S
O396 C403 1.275 . S
Cd397 O396 2.300 . S
Cd397 O405 2.381 . S
Cd397 O406 2.378 . S
O398 Cd399 2.385 . S
O398 C403 1.255 1_554 S
Cd399 O398 2.385 . S
Cd399 O400 2.317 . S
O400 Cd399 2.317 . S
O400 C401 1.232 . S
C401 O400 1.232 . S
C401 O402 1.218 . S
O402 C401 1.218 . S
C403 O396 1.275 . S
C403 O398 1.255 1_556 S
C404 O405 1.258 . S
C404 O406 1.256 . S
O405 Cd397 2.381 . S
O405 C404 1.258 . S
O406 Cd397 2.378 . S
O406 C404 1.256 . S
O407 Cd408 2.300 . S
O407 C414 1.275 . S
Cd408 O407 2.300 . S
Cd408 O416 2.381 . S
Cd408 O417 2.378 . S
O409 Cd410 2.385 . S
O409 C414 1.255 . S
Cd410 O409 2.385 . S
Cd410 O411 2.317 . S
O411 Cd410 2.317 . S
O411 C412 1.232 . S
C412 O411 1.232 . S
C412 O413 1.218 . S
O413 C412 1.218 . S
C414 O407 1.275 . S
C414 O409 1.255 . S
C415 O416 1.258 . S
C415 O417 1.256 . S
O416 Cd408 2.381 . S
O416 C415 1.258 . S
O417 Cd408 2.378 . S
O417 C415 1.256 . S
O418 Cd419 2.300 . S
O418 C425 1.275 . S
Cd419 O418 2.300 . S
Cd419 O427 2.381 . S
Cd419 O428 2.378 . S
O420 Cd421 2.385 . S
O420 C425 1.255 . S
Cd421 O420 2.385 . S
Cd421 O422 2.317 . S
O422 Cd421 2.317 . S
O422 C423 1.232 . S
C423 O422 1.232 . S
C423 O424 1.218 . S
O424 C423 1.218 . S
C425 O418 1.275 . S
C425 O420 1.255 . S
C426 O427 1.258 . S
C426 O428 1.256 . S
O427 Cd419 2.381 . S
O427 C426 1.258 . S
O428 Cd419 2.378 . S
O428 C426 1.256 . S
O429 Cd430 2.300 . S
O429 C436 1.275 . S
Cd430 O429 2.300 . S
Cd430 O438 2.381 . S
Cd430 O439 2.378 . S
O431 Cd432 2.385 . S
O431 C436 1.255 . S
Cd432 O431 2.385 . S
Cd432 O433 2.317 . S
O433 Cd432 2.317 . S
O433 C434 1.232 . S
C434 O433 1.232 . S
C434 O435 1.218 . S
O435 C434 1.218 . S
C436 O429 1.275 . S
C436 O431 1.255 . S
C437 O438 1.258 . S
C437 O439 1.256 . S
O438 Cd430 2.381 . S
O438 C437 1.258 . S
O439 Cd430 2.378 . S
O439 C437 1.256 . S
O440 Cd441 2.300 . S
O440 C447 1.275 . S
Cd441 O440 2.300 . S
Cd441 O449 2.381 . S
Cd441 O450 2.378 . S
O442 Cd443 2.385 . S
O442 C447 1.255 . S
Cd443 O442 2.385 . S
Cd443 O444 2.317 . S
O444 Cd443 2.317 . S
O444 C445 1.232 . S
C445 O444 1.232 . S
C445 O446 1.218 . S
O446 C445 1.218 . S
C447 O440 1.275 . S
C447 O442 1.255 . S
C448 O449 1.258 . S
C448 O450 1.256 . S
O449 Cd441 2.381 . S
O449 C448 1.258 . S
O450 Cd441 2.378 . S
O450 C448 1.256 . S
O451 Cd452 2.300 . S
O451 C458 1.275 . S
Cd452 O451 2.300 . S
Cd452 O460 2.381 . S
Cd452 O461 2.378 . S
O453 Cd454 2.385 . S
O453 C458 1.255 . S
Cd454 O453 2.385 . S
Cd454 O455 2.317 . S
O455 Cd454 2.317 . S
O455 C456 1.232 . S
C456 O455 1.232 . S
C456 O457 1.218 . S
O457 C456 1.218 . S
C458 O451 1.275 . S
C458 O453 1.255 . S
C459 O460 1.258 . S
C459 O461 1.256 . S
O460 Cd452 2.381 . S
O460 C459 1.258 . S
O461 Cd452 2.378 . S
O461 C459 1.256 . S
O462 Cd463 2.300 . S
O462 C469 1.275 . S
Cd463 O462 2.300 . S
Cd463 O471 2.381 . S
Cd463 O472 2.378 . S
O464 Cd465 2.385 . S
O464 C469 1.255 . S
Cd465 O464 2.385 . S
Cd465 O466 2.317 . S
O466 Cd465 2.317 . S
O466 C467 1.232 . S
C467 O466 1.232 . S
C467 O468 1.218 . S
O468 C467 1.218 . S
C469 O462 1.275 . S
C469 O464 1.255 . S
C470 O471 1.258 . S
C470 O472 1.256 . S
O471 Cd463 2.381 . S
O471 C470 1.258 . S
O472 Cd463 2.378 . S
O472 C470 1.256 . S
O473 Cd474 2.300 . S
O473 C480 1.275 . S
Cd474 O473 2.300 . S
Cd474 O482 2.381 . S
Cd474 O483 2.378 . S
O475 Cd476 2.385 . S
O475 C480 1.255 . S
Cd476 O475 2.385 . S
Cd476 O477 2.317 . S
O477 Cd476 2.317 . S
O477 C478 1.232 . S
C478 O477 1.232 . S
C478 O479 1.218 . S
O479 C478 1.218 . S
C480 O473 1.275 . S
C480 O475 1.255 . S
C481 O482 1.258 . S
C481 O483 1.256 . S
O482 Cd474 2.381 . S
O482 C481 1.258 . S
O483 Cd474 2.378 . S
O483 C481 1.256 . S
O484 Cd485 2.300 . S
O484 C491 1.275 . S
Cd485 O484 2.300 . S
Cd485 O493 2.381 . S
Cd485 O494 2.378 . S
O486 Cd487 2.385 . S
O486 C491 1.255 . S
Cd487 O486 2.385 . S
Cd487 O488 2.317 . S
O488 Cd487 2.317 . S
O488 C489 1.232 . S
C489 O488 1.232 . S
C489 O490 1.218 . S
O490 C489 1.218 . S
C491 O484 1.275 . S
C491 O486 1.255 . S
C492 O493 1.258 . S
C492 O494 1.256 . S
O493 Cd485 2.381 . S
O493 C492 1.258 . S
O494 Cd485 2.378 . S
O494 C492 1.256 . S
O495 Cd496 2.300 . S
O495 C502 1.275 . S
Cd496 O495 2.300 . S
Cd496 O504 2.381 . S
Cd496 O505 2.378 . S
O497 Cd498 2.385 . S
O497 C502 1.255 . S
Cd498 O497 2.385 . S
Cd498 O499 2.317 . S
O499 Cd498 2.317 . S
O499 C500 1.232 . S
C500 O499 1.232 . S
C500 O501 1.218 . S
O501 C500 1.218 . S
C502 O495 1.275 . S
C502 O497 1.255 . S
C503 O504 1.258 . S
C503 O505 1.256 . S
O504 Cd496 2.381 . S
O504 C503 1.258 . S
O505 Cd496 2.378 . S
O505 C503 1.256 . S
O506 Cd507 2.300 . S
O506 C513 1.275 . S
Cd507 O506 2.300 . S
Cd507 O515 2.381 . S
Cd507 O516 2.378 . S
O508 Cd509 2.385 . S
O508 C513 1.255 . S
Cd509 O508 2.385 . S
Cd509 O510 2.317 . S
O510 Cd509 2.317 . S
O510 C511 1.232 . S
C511 O510 1.232 . S
C511 O512 1.218 . S
O512 C511 1.218 . S
C513 O506 1.275 . S
C513 O508 1.255 . S
C514 O515 1.258 . S
C514 O516 1.256 . S
O515 Cd507 2.381 . S
O515 C514 1.258 . S
O516 Cd507 2.378 . S
O516 C514 1.256 . S
O517 Cd518 2.300 . S
O517 C524 1.275 . S
Cd518 O517 2.300 . S
Cd518 O526 2.381 . S
Cd518 O527 2.378 . S
O519 Cd520 2.385 . S
O519 C524 1.255 . S
Cd520 O519 2.385 . S
Cd520 O521 2.317 . S
O521 Cd520 2.317 . S
O521 C522 1.232 . S
C522 O521 1.232 . S
C522 O523 1.218 . S
O523 C522 1.218 . S
C524 O517 1.275 . S
C524 O519 1.255 . S
C525 O526 1.258 . S
C525 O527 1.256 . S
O526 Cd518 2.381 . S
O526 C525 1.258 . S
O527 Cd518 2.378 . S
O527 C525 1.256 . S
C528 C529 1.369 . S
C528 C530 1.419 . S
C528 H532 0.930 . S
C529 C528 1.369 . S
C529 C538 1.429 . S
C530 C528 1.419 . S
C530 C531 1.363 . S
C530 H533 0.929 . S
C531 C530 1.363 . S
C531 C537 1.428 . S
H532 C528 0.930 . S
H533 C530 0.929 . S
S534 N535 1.613 . S
S534 N536 1.610 . S
N535 S534 1.613 . S
N535 C538 1.350 . S
N536 S534 1.610 . S
N536 C537 1.351 . S
C537 C531 1.428 . S
C537 N536 1.351 . S
C537 C538 1.434 . S
C538 C529 1.429 . S
C538 N535 1.350 . S
C538 C537 1.434 . S
C539 C540 1.369 . S
C539 C541 1.419 . S
C539 H543 0.930 . S
C540 C539 1.369 . S
C540 C549 1.429 . S
C541 C539 1.419 . S
C541 C542 1.363 . S
C541 H544 0.929 . S
C542 C541 1.363 . S
C542 C548 1.428 . S
H543 C539 0.930 . S
H544 C541 0.929 . S
S545 N546 1.613 . S
S545 N547 1.610 . S
N546 S545 1.613 . S
N546 C549 1.350 . S
N547 S545 1.610 . S
N547 C548 1.351 . S
C548 C542 1.428 . S
C548 N547 1.351 . S
C548 C549 1.434 . S
C549 C540 1.429 . S
C549 N546 1.350 . S
C549 C548 1.434 . S
C550 C551 1.369 . S
C550 C552 1.419 . S
C550 H554 0.930 . S
C551 C550 1.369 . S
C551 C560 1.429 . S
C552 C550 1.419 . S
C552 C553 1.363 . S
C552 H555 0.929 . S
C553 C552 1.363 . S
C553 C559 1.428 . S
H554 C550 0.930 . S
H555 C552 0.929 . S
S556 N557 1.613 . S
S556 N558 1.610 . S
N557 S556 1.613 . S
N557 C560 1.350 . S
N558 S556 1.610 . S
N558 C559 1.351 . S
C559 C553 1.428 . S
C559 N558 1.351 . S
C559 C560 1.434 . S
C560 C551 1.429 . S
C560 N557 1.350 . S
C560 C559 1.434 . S
C561 C562 1.369 . S
C561 C563 1.419 . S
C561 H565 0.930 . S
C562 C561 1.369 . S
C562 C571 1.429 . S
C563 C561 1.419 . S
C563 C564 1.363 . S
C563 H566 0.929 . S
C564 C563 1.363 . S
C564 C570 1.428 . S
H565 C561 0.930 . S
H566 C563 0.929 . S
S567 N568 1.613 . S
S567 N569 1.610 . S
N568 S567 1.613 . S
N568 C571 1.350 . S
N569 S567 1.610 . S
N569 C570 1.351 . S
C570 C564 1.428 . S
C570 N569 1.351 . S
C570 C571 1.434 . S
C571 C562 1.429 . S
C571 N568 1.350 . S
C571 C570 1.434 . S
C572 C573 1.369 . S
C572 C574 1.419 . S
C572 H576 0.930 . S
C573 C572 1.369 . S
C573 C582 1.429 . S
C574 C572 1.419 . S
C574 C575 1.363 . S
C574 H577 0.929 . S
C575 C574 1.363 . S
C575 C581 1.428 . S
H576 C572 0.930 . S
H577 C574 0.929 . S
S578 N579 1.613 . S
S578 N580 1.610 . S
N579 S578 1.613 . S
N579 C582 1.350 . S
N580 S578 1.610 . S
N580 C581 1.351 . S
C581 C575 1.428 . S
C581 N580 1.351 . S
C581 C582 1.434 . S
C582 C573 1.429 . S
C582 N579 1.350 . S
C582 C581 1.434 . S
C583 C584 1.369 . S
C583 C585 1.419 . S
C583 H587 0.930 . S
C584 C583 1.369 . S
C584 C593 1.429 . S
C585 C583 1.419 . S
C585 C586 1.363 . S
C585 H588 0.929 . S
C586 C585 1.363 . S
C586 C592 1.428 . S
H587 C583 0.930 . S
H588 C585 0.929 . S
S589 N590 1.613 . S
S589 N591 1.610 . S
N590 S589 1.613 . S
N590 C593 1.350 . S
N591 S589 1.610 . S
N591 C592 1.351 . S
C592 C586 1.428 . S
C592 N591 1.351 . S
C592 C593 1.434 . S
C593 C584 1.429 . S
C593 N590 1.350 . S
C593 C592 1.434 . S
C594 C595 1.369 . S
C594 C596 1.419 . S
C594 H598 0.930 . S
C595 C594 1.369 . S
C595 C604 1.429 . S
C596 C594 1.419 . S
C596 C597 1.363 . S
C596 H599 0.929 . S
C597 C596 1.363 . S
C597 C603 1.428 . S
H598 C594 0.930 . S
H599 C596 0.929 . S
S600 N601 1.613 . S
S600 N602 1.610 . S
N601 S600 1.613 . S
N601 C604 1.350 . S
N602 S600 1.610 . S
N602 C603 1.351 . S
C603 C597 1.428 . S
C603 N602 1.351 . S
C603 C604 1.434 . S
C604 C595 1.429 . S
C604 N601 1.350 . S
C604 C603 1.434 . S
C605 C606 1.369 . S
C605 C607 1.419 . S
C605 H609 0.930 . S
C606 C605 1.369 . S
C606 C615 1.429 . S
C607 C605 1.419 . S
C607 C608 1.363 . S
C607 H610 0.929 . S
C608 C607 1.363 . S
C608 C614 1.428 . S
H609 C605 0.930 . S
H610 C607 0.929 . S
S611 N612 1.613 . S
S611 N613 1.610 . S
N612 S611 1.613 . S
N612 C615 1.350 . S
N613 S611 1.610 . S
N613 C614 1.351 . S
C614 C608 1.428 . S
C614 N613 1.351 . S
C614 C615 1.434 . S
C615 C606 1.429 . S
C615 N612 1.350 . S
C615 C614 1.434 . S
C616 C617 1.369 . S
C616 C618 1.419 . S
C616 H620 0.930 . S
C617 C616 1.369 . S
C617 C626 1.429 . S
C618 C616 1.419 . S
C618 C619 1.363 . S
C618 H621 0.929 . S
C619 C618 1.363 . S
C619 C625 1.428 . S
H620 C616 0.930 . S
H621 C618 0.929 . S
S622 N623 1.613 . S
S622 N624 1.610 . S
N623 S622 1.613 . S
N623 C626 1.350 . S
N624 S622 1.610 . S
N624 C625 1.351 . S
C625 C619 1.428 . S
C625 N624 1.351 . S
C625 C626 1.434 . S
C626 C617 1.429 . S
C626 N623 1.350 . S
C626 C625 1.434 . S
C627 C628 1.369 . S
C627 C629 1.419 . S
C627 H631 0.930 . S
C628 C627 1.369 . S
C628 C637 1.429 . S
C629 C627 1.419 . S
C629 C630 1.363 . S
C629 H632 0.929 . S
C630 C629 1.363 . S
C630 C636 1.428 . S
H631 C627 0.930 . S
H632 C629 0.929 . S
S633 N634 1.613 . S
S633 N635 1.610 . S
N634 S633 1.613 . S
N634 C637 1.350 . S
N635 S633 1.610 . S
N635 C636 1.351 . S
C636 C630 1.428 . S
C636 N635 1.351 . S
C636 C637 1.434 . S
C637 C628 1.429 . S
C637 N634 1.350 . S
C637 C636 1.434 . S
C638 C639 1.369 . S
C638 C640 1.419 . S
C638 H642 0.930 . S
C639 C638 1.369 . S
C639 C648 1.429 . S
C640 C638 1.419 . S
C640 C641 1.363 . S
C640 H643 0.929 . S
C641 C640 1.363 . S
C641 C647 1.428 . S
H642 C638 0.930 . S
H643 C640 0.929 . S
S644 N645 1.613 . S
S644 N646 1.610 . S
N645 S644 1.613 . S
N645 C648 1.350 . S
N646 S644 1.610 . S
N646 C647 1.351 . S
C647 C641 1.428 . S
C647 N646 1.351 . S
C647 C648 1.434 . S
C648 C639 1.429 . S
C648 N645 1.350 . S
C648 C647 1.434 . S
C649 C650 1.369 . S
C649 C651 1.419 . S
C649 H653 0.930 . S
C650 C649 1.369 . S
C650 C659 1.429 . S
C651 C649 1.419 . S
C651 C652 1.363 . S
C651 H654 0.929 . S
C652 C651 1.363 . S
C652 C658 1.428 . S
H653 C649 0.930 . S
H654 C651 0.929 . S
S655 N656 1.613 . S
S655 N657 1.610 . S
N656 S655 1.613 . S
N656 C659 1.350 . S
N657 S655 1.610 . S
N657 C658 1.351 . S
C658 C652 1.428 . S
C658 N657 1.351 . S
C658 C659 1.434 . S
C659 C650 1.429 . S
C659 N656 1.350 . S
C659 C658 1.434 . S
C660 C661 1.369 . S
C660 C662 1.419 . S
C660 H664 0.930 . S
C661 C660 1.369 . S
C661 C670 1.429 . S
C662 C660 1.419 . S
C662 C663 1.363 . S
C662 H665 0.929 . S
C663 C662 1.363 . S
C663 C669 1.428 . S
H664 C660 0.930 . S
H665 C662 0.929 . S
S666 N667 1.613 . S
S666 N668 1.610 . S
N667 S666 1.613 . S
N667 C670 1.350 . S
N668 S666 1.610 . S
N668 C669 1.351 . S
C669 C663 1.428 . S
C669 N668 1.351 . S
C669 C670 1.434 . S
C670 C661 1.429 . S
C670 N667 1.350 . S
C670 C669 1.434 . S
C671 C672 1.369 . S
C671 C673 1.419 . S
C671 H675 0.930 . S
C672 C671 1.369 . S
C672 C681 1.429 . S
C673 C671 1.419 . S
C673 C674 1.363 . S
C673 H676 0.929 . S
C674 C673 1.363 . S
C674 C680 1.428 . S
H675 C671 0.930 . S
H676 C673 0.929 . S
S677 N678 1.613 . S
S677 N679 1.610 . S
N678 S677 1.613 . S
N678 C681 1.350 . S
N679 S677 1.610 . S
N679 C680 1.351 . S
C680 C674 1.428 . S
C680 N679 1.351 . S
C680 C681 1.434 . S
C681 C672 1.429 . S
C681 N678 1.350 . S
C681 C680 1.434 . S
C682 C683 1.369 . S
C682 C684 1.419 . S
C682 H686 0.930 . S
C683 C682 1.369 . S
C683 C692 1.429 . S
C684 C682 1.419 . S
C684 C685 1.363 . S
C684 H687 0.929 . S
C685 C684 1.363 . S
C685 C691 1.428 . S
H686 C682 0.930 . S
H687 C684 0.929 . S
S688 N689 1.613 . S
S688 N690 1.610 . S
N689 S688 1.613 . S
N689 C692 1.350 . S
N690 S688 1.610 . S
N690 C691 1.351 . S
C691 C685 1.428 . S
C691 N690 1.351 . S
C691 C692 1.434 . S
C692 C683 1.429 . S
C692 N689 1.350 . S
C692 C691 1.434 . S
C693 C694 1.369 . S
C693 C695 1.419 . S
C693 H697 0.930 . S
C694 C693 1.369 . S
C694 C703 1.429 . S
C695 C693 1.419 . S
C695 C696 1.363 . S
C695 H698 0.929 . S
C696 C695 1.363 . S
C696 C702 1.428 . S
H697 C693 0.930 . S
H698 C695 0.929 . S
S699 N700 1.613 . S
S699 N701 1.610 . S
N700 S699 1.613 . S
N700 C703 1.350 . S
N701 S699 1.610 . S
N701 C702 1.351 . S
C702 C696 1.428 . S
C702 N701 1.351 . S
C702 C703 1.434 . S
C703 C694 1.429 . S
C703 N700 1.350 . S
C703 C702 1.434 . S
C704 C705 1.369 . S
C704 C706 1.419 . S
C704 H708 0.930 . S
C705 C704 1.369 . S
C705 C714 1.429 . S
C706 C704 1.419 . S
C706 C707 1.363 . S
C706 H709 0.929 . S
C707 C706 1.363 . S
C707 C713 1.428 . S
H708 C704 0.930 . S
H709 C706 0.929 . S
S710 N711 1.613 . S
S710 N712 1.610 . S
N711 S710 1.613 . S
N711 C714 1.350 . S
N712 S710 1.610 . S
N712 C713 1.351 . S
C713 C707 1.428 . S
C713 N712 1.351 . S
C713 C714 1.434 . S
C714 C705 1.429 . S
C714 N711 1.350 . S
C714 C713 1.434 . S
C715 C716 1.369 . S
C715 C717 1.419 . S
C715 H719 0.930 . S
C716 C715 1.369 . S
C716 C725 1.429 . S
C717 C715 1.419 . S
C717 C718 1.363 . S
C717 H720 0.929 . S
C718 C717 1.363 . S
C718 C724 1.428 . S
H719 C715 0.930 . S
H720 C717 0.929 . S
S721 N722 1.613 . S
S721 N723 1.610 . S
N722 S721 1.613 . S
N722 C725 1.350 . S
N723 S721 1.610 . S
N723 C724 1.351 . S
C724 C718 1.428 . S
C724 N723 1.351 . S
C724 C725 1.434 . S
C725 C716 1.429 . S
C725 N722 1.350 . S
C725 C724 1.434 . S
C726 C727 1.369 . S
C726 C728 1.419 . S
C726 H730 0.930 . S
C727 C726 1.369 . S
C727 C736 1.429 . S
C728 C726 1.419 . S
C728 C729 1.363 . S
C728 H731 0.929 . S
C729 C728 1.363 . S
C729 C735 1.428 . S
H730 C726 0.930 . S
H731 C728 0.929 . S
S732 N733 1.613 . S
S732 N734 1.610 . S
N733 S732 1.613 . S
N733 C736 1.350 . S
N734 S732 1.610 . S
N734 C735 1.351 . S
C735 C729 1.428 . S
C735 N734 1.351 . S
C735 C736 1.434 . S
C736 C727 1.429 . S
C736 N733 1.350 . S
C736 C735 1.434 . S
C737 C738 1.369 . S
C737 C739 1.419 . S
C737 H741 0.930 . S
C738 C737 1.369 . S
C738 C747 1.429 . S
C739 C737 1.419 . S
C739 C740 1.363 . S
C739 H742 0.929 . S
C740 C739 1.363 . S
C740 C746 1.428 . S
H741 C737 0.930 . S
H742 C739 0.929 . S
S743 N744 1.613 . S
S743 N745 1.610 . S
N744 S743 1.613 . S
N744 C747 1.350 . S
N745 S743 1.610 . S
N745 C746 1.351 . S
C746 C740 1.428 . S
C746 N745 1.351 . S
C746 C747 1.434 . S
C747 C738 1.429 . S
C747 N744 1.350 . S
C747 C746 1.434 . S
C748 C749 1.369 . S
C748 C750 1.419 . S
C748 H752 0.930 . S
C749 C748 1.369 . S
C749 C758 1.429 . S
C750 C748 1.419 . S
C750 C751 1.363 . S
C750 H753 0.929 . S
C751 C750 1.363 . S
C751 C757 1.428 . S
H752 C748 0.930 . S
H753 C750 0.929 . S
S754 N755 1.613 . S
S754 N756 1.610 . S
N755 S754 1.613 . S
N755 C758 1.350 . S
N756 S754 1.610 . S
N756 C757 1.351 . S
C757 C751 1.428 . S
C757 N756 1.351 . S
C757 C758 1.434 . S
C758 C749 1.429 . S
C758 N755 1.350 . S
C758 C757 1.434 . S
C759 C760 1.369 . S
C759 C761 1.419 . S
C759 H763 0.930 . S
C760 C759 1.369 . S
C760 C769 1.429 . S
C761 C759 1.419 . S
C761 C762 1.363 . S
C761 H764 0.929 . S
C762 C761 1.363 . S
C762 C768 1.428 . S
H763 C759 0.930 . S
H764 C761 0.929 . S
S765 N766 1.613 . S
S765 N767 1.610 . S
N766 S765 1.613 . S
N766 C769 1.350 . S
N767 S765 1.610 . S
N767 C768 1.351 . S
C768 C762 1.428 . S
C768 N767 1.351 . S
C768 C769 1.434 . S
C769 C760 1.429 . S
C769 N766 1.350 . S
C769 C768 1.434 . S
C770 C771 1.369 . S
C770 C772 1.419 . S
C770 H774 0.930 . S
C771 C770 1.369 . S
C771 C780 1.429 . S
C772 C770 1.419 . S
C772 C773 1.363 . S
C772 H775 0.929 . S
C773 C772 1.363 . S
C773 C779 1.428 . S
H774 C770 0.930 . S
H775 C772 0.929 . S
S776 N777 1.613 . S
S776 N778 1.610 . S
N777 S776 1.613 . S
N777 C780 1.350 . S
N778 S776 1.610 . S
N778 C779 1.351 . S
C779 C773 1.428 . S
C779 N778 1.351 . S
C779 C780 1.434 . S
C780 C771 1.429 . S
C780 N777 1.350 . S
C780 C779 1.434 . S
C781 C782 1.369 . S
C781 C783 1.419 . S
C781 H785 0.930 . S
C782 C781 1.369 . S
C782 C791 1.429 . S
C783 C781 1.419 . S
C783 C784 1.363 . S
C783 H786 0.929 . S
C784 C783 1.363 . S
C784 C790 1.428 . S
H785 C781 0.930 . S
H786 C783 0.929 . S
S787 N788 1.613 . S
S787 N789 1.610 . S
N788 S787 1.613 . S
N788 C791 1.350 . S
N789 S787 1.610 . S
N789 C790 1.351 . S
C790 C784 1.428 . S
C790 N789 1.351 . S
C790 C791 1.434 . S
C791 C782 1.429 . S
C791 N788 1.350 . S
C791 C790 1.434 . S
C792 C793 1.369 1_565 S
C792 C794 1.419 . S
C792 H796 0.930 . S
C793 C792 1.369 1_545 S
C793 C802 1.429 . S
C794 C792 1.419 . S
C794 C795 1.363 1_565 S
C794 H797 0.929 . S
C795 C794 1.363 1_545 S
C795 C801 1.428 . S
H796 C792 0.930 . S
H797 C794 0.929 . S
S798 N799 1.613 . S
S798 N800 1.610 . S
N799 S798 1.613 . S
N799 C802 1.350 . S
N800 S798 1.610 . S
N800 C801 1.351 . S
C801 C795 1.428 . S
C801 N800 1.351 . S
C801 C802 1.434 . S
C802 C793 1.429 . S
C802 N799 1.350 . S
C802 C801 1.434 . S
C803 C804 1.369 . S
C803 C805 1.419 . S
C803 H807 0.930 . S
C804 C803 1.369 . S
C804 C813 1.429 . S
C805 C803 1.419 . S
C805 C806 1.363 . S
C805 H808 0.929 . S
C806 C805 1.363 . S
C806 C812 1.428 . S
H807 C803 0.930 . S
H808 C805 0.929 . S
S809 N810 1.613 . S
S809 N811 1.610 . S
N810 S809 1.613 . S
N810 C813 1.350 . S
N811 S809 1.610 . S
N811 C812 1.351 . S
C812 C806 1.428 . S
C812 N811 1.351 . S
C812 C813 1.434 . S
C813 C804 1.429 . S
C813 N810 1.350 . S
C813 C812 1.434 . S
C814 C815 1.369 . S
C814 C816 1.419 . S
C814 H818 0.930 . S
C815 C814 1.369 . S
C815 C824 1.429 1_565 S
C816 C814 1.419 . S
C816 C817 1.363 . S
C816 H819 0.929 . S
C817 C816 1.363 . S
C817 C823 1.428 1_565 S
H818 C814 0.930 . S
H819 C816 0.929 . S
S820 N821 1.613 . S
S820 N822 1.610 . S
N821 S820 1.613 . S
N821 C824 1.350 . S
N822 S820 1.610 . S
N822 C823 1.351 . S
C823 C817 1.428 1_545 S
C823 N822 1.351 . S
C823 C824 1.434 . S
C824 C815 1.429 1_545 S
C824 N821 1.350 . S
C824 C823 1.434 . S
C825 C826 1.369 . S
C825 C827 1.419 . S
C825 H829 0.930 . S
C826 C825 1.369 . S
C826 C835 1.429 . S
C827 C825 1.419 . S
C827 C828 1.363 . S
C827 H830 0.929 . S
C828 C827 1.363 . S
C828 C834 1.428 . S
H829 C825 0.930 . S
H830 C827 0.929 . S
S831 N832 1.613 . S
S831 N833 1.610 . S
N832 S831 1.613 . S
N832 C835 1.350 . S
N833 S831 1.610 . S
N833 C834 1.351 . S
C834 C828 1.428 . S
C834 N833 1.351 . S
C834 C835 1.434 . S
C835 C826 1.429 . S
C835 N832 1.350 . S
C835 C834 1.434 . S
C836 C837 1.369 . S
C836 C838 1.419 . S
C836 H840 0.930 . S
C837 C836 1.369 . S
C837 C846 1.429 . S
C838 C836 1.419 . S
C838 C839 1.363 . S
C838 H841 0.929 . S
C839 C838 1.363 . S
C839 C845 1.428 . S
H840 C836 0.930 . S
H841 C838 0.929 . S
S842 N843 1.613 . S
S842 N844 1.610 . S
N843 S842 1.613 . S
N843 C846 1.350 . S
N844 S842 1.610 . S
N844 C845 1.351 . S
C845 C839 1.428 . S
C845 N844 1.351 . S
C845 C846 1.434 . S
C846 C837 1.429 . S
C846 N843 1.350 . S
C846 C845 1.434 . S
C847 C848 1.369 . S
C847 C849 1.419 . S
C847 H851 0.930 . S
C848 C847 1.369 . S
C848 C857 1.429 . S
C849 C847 1.419 . S
C849 C850 1.363 . S
C849 H852 0.929 . S
C850 C849 1.363 . S
C850 C856 1.428 . S
H851 C847 0.930 . S
H852 C849 0.929 . S
S853 N854 1.613 . S
S853 N855 1.610 . S
N854 S853 1.613 . S
N854 C857 1.350 . S
N855 S853 1.610 . S
N855 C856 1.351 . S
C856 C850 1.428 . S
C856 N855 1.351 . S
C856 C857 1.434 . S
C857 C848 1.429 . S
C857 N854 1.350 . S
C857 C856 1.434 . S
C858 C859 1.369 . S
C858 C860 1.419 . S
C858 H862 0.930 . S
C859 C858 1.369 . S
C859 C868 1.429 . S
C860 C858 1.419 . S
C860 C861 1.363 . S
C860 H863 0.929 . S
C861 C860 1.363 . S
C861 C867 1.428 . S
H862 C858 0.930 . S
H863 C860 0.929 . S
S864 N865 1.613 . S
S864 N866 1.610 . S
N865 S864 1.613 . S
N865 C868 1.350 . S
N866 S864 1.610 . S
N866 C867 1.351 . S
C867 C861 1.428 . S
C867 N866 1.351 . S
C867 C868 1.434 . S
C868 C859 1.429 . S
C868 N865 1.350 . S
C868 C867 1.434 . S
C869 C870 1.369 . S
C869 C871 1.419 . S
C869 H873 0.930 . S
C870 C869 1.369 . S
C870 C879 1.387 1_554 S
C871 C869 1.419 . S
C871 C872 1.363 . S
C871 H874 0.929 . S
C872 C871 1.363 . S
C872 C878 1.428 . S
H873 C869 0.930 . S
H874 C871 0.929 . S
S875 N876 1.613 . S
S875 N877 1.610 . S
N876 S875 1.613 . S
N876 C879 1.401 . S
N877 S875 1.610 . S
N877 C878 1.351 1_556 S
C878 C872 1.428 . S
C878 N877 1.351 1_554 S
C878 C879 1.429 1_554 S
C879 C870 1.387 1_556 S
C879 N876 1.401 . S
C879 C878 1.429 1_556 S
C880 C881 1.369 . S
C880 C882 1.419 . S
C880 H884 0.930 . S
C881 C880 1.369 . S
C881 C890 1.429 . S
C882 C880 1.419 . S
C882 C883 1.363 . S
C882 H885 0.929 . S
C883 C882 1.363 . S
C883 C889 1.428 . S
H884 C880 0.930 . S
H885 C882 0.929 . S
S886 N887 1.613 . S
S886 N888 1.610 . S
N887 S886 1.613 . S
N887 C890 1.350 . S
N888 S886 1.610 . S
N888 C889 1.351 . S
C889 C883 1.428 . S
C889 N888 1.351 . S
C889 C890 1.434 . S
C890 C881 1.429 . S
C890 N887 1.350 . S
C890 C889 1.434 . S
C891 C892 1.369 . S
C891 C893 1.419 . S
C891 H895 0.930 . S
C892 C891 1.369 . S
C892 C901 1.429 . S
C893 C891 1.419 . S
C893 C894 1.363 . S
C893 H896 0.929 . S
C894 C893 1.363 . S
C894 C900 1.428 . S
H895 C891 0.930 . S
H896 C893 0.929 . S
S897 N898 1.613 . S
S897 N899 1.610 . S
N898 S897 1.613 . S
N898 C901 1.350 . S
N899 S897 1.610 . S
N899 C900 1.351 . S
C900 C894 1.428 . S
C900 N899 1.351 . S
C900 C901 1.434 . S
C901 C892 1.429 . S
C901 N898 1.350 . S
C901 C900 1.434 . S
C902 C903 1.369 . S
C902 C904 1.419 . S
C902 H906 0.930 . S
C903 C902 1.369 . S
C903 C912 1.429 . S
C904 C902 1.419 . S
C904 C905 1.363 . S
C904 H907 0.929 . S
C905 C904 1.363 . S
C905 C911 1.428 . S
H906 C902 0.930 . S
H907 C904 0.929 . S
S908 N909 1.613 . S
S908 N910 1.610 . S
N909 S908 1.613 . S
N909 C912 1.350 . S
N910 S908 1.610 . S
N910 C911 1.351 . S
C911 C905 1.428 . S
C911 N910 1.351 . S
C911 C912 1.434 . S
C912 C903 1.429 . S
C912 N909 1.350 . S
C912 C911 1.434 . S
C913 C914 1.369 . S
C913 C915 1.419 . S
C913 H917 0.930 . S
C914 C913 1.369 . S
C914 C923 1.429 . S
C915 C913 1.419 . S
C915 C916 1.363 . S
C915 H918 0.929 . S
C916 C915 1.363 . S
C916 C922 1.427 . S
H917 C913 0.930 . S
H918 C915 0.929 . S
S919 N920 1.613 . S
S919 N921 1.610 . S
N920 S919 1.613 . S
N920 C923 1.350 1_455 S
N921 S919 1.610 . S
N921 C922 1.352 1_455 S
C922 C916 1.427 . S
C922 N921 1.352 1_655 S
C922 C923 1.434 . S
C923 C914 1.429 . S
C923 N920 1.350 1_655 S
C923 C922 1.434 . S
C924 C925 1.369 . S
C924 C926 1.419 . S
C924 H928 0.930 . S
C925 C924 1.369 . S
C925 C934 1.429 . S
C926 C924 1.419 . S
C926 C927 1.363 . S
C926 H929 0.929 . S
C927 C926 1.363 . S
C927 C933 1.428 . S
H928 C924 0.930 . S
H929 C926 0.929 . S
S930 N931 1.613 . S
S930 N932 1.610 . S
N931 S930 1.613 . S
N931 C934 1.350 . S
N932 S930 1.610 . S
N932 C933 1.351 . S
C933 C927 1.428 . S
C933 N932 1.351 . S
C933 C934 1.434 . S
C934 C925 1.429 . S
C934 N931 1.350 . S
C934 C933 1.434 . S
C935 C936 1.369 . S
C935 C937 1.419 . S
C935 H939 0.930 . S
C936 C935 1.369 . S
C936 C945 1.429 . S
C937 C935 1.419 . S
C937 C938 1.363 . S
C937 H940 0.929 . S
C938 C937 1.363 . S
C938 C944 1.428 . S
H939 C935 0.930 . S
H940 C937 0.929 . S
S941 N942 1.613 . S
S941 N943 1.610 . S
N942 S941 1.613 . S
N942 C945 1.350 . S
N943 S941 1.610 . S
N943 C944 1.351 . S
C944 C938 1.428 . S
C944 N943 1.351 . S
C944 C945 1.434 . S
C945 C936 1.429 . S
C945 N942 1.350 . S
C945 C944 1.434 . S
C946 C947 1.369 . S
C946 C948 1.419 . S
C946 H950 0.930 . S
C947 C946 1.369 . S
C947 C956 1.429 1_556 S
C948 C946 1.419 . S
C948 C949 1.363 1_556 S
C948 H951 0.929 . S
C949 C948 1.363 1_554 S
C949 C955 1.428 . S
H950 C946 0.930 . S
H951 C948 0.929 . S
S952 N953 1.613 . S
S952 N954 1.610 . S
N953 S952 1.613 . S
N953 C956 1.350 . S
N954 S952 1.610 . S
N954 C955 1.351 . S
C955 C949 1.428 . S
C955 N954 1.351 . S
C955 C956 1.434 . S
C956 C947 1.429 1_554 S
C956 N953 1.350 . S
C956 C955 1.434 . S
C957 C958 1.369 . S
C957 C959 1.419 . S
C957 H961 0.930 . S
C958 C957 1.369 . S
C958 C967 1.429 . S
C959 C957 1.419 . S
C959 C960 1.363 . S
C959 H962 0.929 . S
C960 C959 1.363 . S
C960 C966 1.428 . S
H961 C957 0.930 . S
H962 C959 0.929 . S
S963 N964 1.613 . S
S963 N965 1.610 . S
N964 S963 1.613 . S
N964 C967 1.350 . S
N965 S963 1.610 . S
N965 C966 1.351 . S
C966 C960 1.428 . S
C966 N965 1.351 . S
C966 C967 1.434 . S
C967 C958 1.429 . S
C967 N964 1.350 . S
C967 C966 1.434 . S
C968 C969 1.369 . S
C968 C970 1.419 . S
C968 H972 0.930 . S
C969 C968 1.369 . S
C969 C978 1.429 . S
C970 C968 1.419 . S
C970 C971 1.363 . S
C970 H973 0.929 . S
C971 C970 1.363 . S
C971 C977 1.428 . S
H972 C968 0.930 . S
H973 C970 0.929 . S
S974 N975 1.613 . S
S974 N976 1.610 . S
N975 S974 1.613 . S
N975 C978 1.350 . S
N976 S974 1.610 . S
N976 C977 1.351 . S
C977 C971 1.428 . S
C977 N976 1.351 . S
C977 C978 1.434 . S
C978 C969 1.429 . S
C978 N975 1.350 . S
C978 C977 1.434 . S
C979 C980 1.369 . S
C979 C981 1.419 . S
C979 H983 0.930 . S
C980 C979 1.369 . S
C980 C989 1.429 . S
C981 C979 1.419 . S
C981 C982 1.363 . S
C981 H984 0.929 . S
C982 C981 1.363 . S
C982 C988 1.428 . S
H983 C979 0.930 . S
H984 C981 0.929 . S
S985 N986 1.613 . S
S985 N987 1.610 . S
N986 S985 1.613 . S
N986 C989 1.350 . S
N987 S985 1.610 . S
N987 C988 1.351 . S
C988 C982 1.428 . S
C988 N987 1.351 . S
C988 C989 1.434 . S
C989 C980 1.429 . S
C989 N986 1.350 . S
C989 C988 1.434 . S
C990 C991 1.369 . S
C990 C992 1.419 . S
C990 H994 0.930 . S
C991 C990 1.369 . S
C991 C1000 1.429 . S
C992 C990 1.419 . S
C992 C993 1.363 . S
C992 H995 0.929 . S
C993 C992 1.363 . S
C993 C999 1.428 . S
H994 C990 0.930 . S
H995 C992 0.929 . S
S996 N997 1.613 . S
S996 N998 1.610 . S
N997 S996 1.613 . S
N997 C1000 1.350 . S
N998 S996 1.610 . S
N998 C999 1.351 . S
C999 C993 1.428 . S
C999 N998 1.351 . S
C999 C1000 1.434 . S
C1000 C991 1.429 . S
C1000 N997 1.350 . S
C1000 C999 1.434 . S
C1001 C1002 1.369 . S
C1001 C1003 1.419 . S
C1001 H1005 0.930 . S
C1002 C1001 1.369 . S
C1002 C1011 1.429 . S
C1003 C1001 1.419 . S
C1003 C1004 1.363 . S
C1003 H1006 0.929 . S
C1004 C1003 1.363 . S
C1004 C1010 1.428 . S
H1005 C1001 0.930 . S
H1006 C1003 0.929 . S
S1007 N1008 1.613 . S
S1007 N1009 1.610 . S
N1008 S1007 1.613 . S
N1008 C1011 1.350 . S
N1009 S1007 1.610 . S
N1009 C1010 1.351 . S
C1010 C1004 1.428 . S
C1010 N1009 1.351 . S
C1010 C1011 1.434 . S
C1011 C1002 1.429 . S
C1011 N1008 1.350 . S
C1011 C1010 1.434 . S
C1012 C1013 1.369 . S
C1012 C1014 1.419 . S
C1012 H1016 0.930 . S
C1013 C1012 1.369 . S
C1013 C1022 1.429 . S
C1014 C1012 1.419 . S
C1014 C1015 1.363 . S
C1014 H1017 0.929 . S
C1015 C1014 1.363 . S
C1015 C1021 1.428 . S
H1016 C1012 0.930 . S
H1017 C1014 0.929 . S
S1018 N1019 1.613 . S
S1018 N1020 1.610 . S
N1019 S1018 1.613 . S
N1019 C1022 1.350 . S
N1020 S1018 1.610 . S
N1020 C1021 1.351 . S
C1021 C1015 1.428 . S
C1021 N1020 1.351 . S
C1021 C1022 1.434 . S
C1022 C1013 1.429 . S
C1022 N1019 1.350 . S
C1022 C1021 1.434 . S
C1023 C1024 1.369 . S
C1023 C1025 1.419 . S
C1023 H1027 0.930 . S
C1024 C1023 1.369 . S
C1024 C1033 1.429 . S
C1025 C1023 1.419 . S
C1025 C1026 1.363 . S
C1025 H1028 0.929 . S
C1026 C1025 1.363 . S
C1026 C1032 1.428 . S
H1027 C1023 0.930 . S
H1028 C1025 0.929 . S
S1029 N1030 1.613 . S
S1029 N1031 1.610 . S
N1030 S1029 1.613 . S
N1030 C1033 1.350 . S
N1031 S1029 1.610 . S
N1031 C1032 1.351 . S
C1032 C1026 1.428 . S
C1032 N1031 1.351 . S
C1032 C1033 1.434 . S
C1033 C1024 1.429 . S
C1033 N1030 1.350 . S
C1033 C1032 1.434 . S
C1034 C1035 1.369 . S
C1034 C1036 1.419 . S
C1034 H1038 0.930 . S
C1035 C1034 1.369 . S
C1035 C1044 1.429 . S
C1036 C1034 1.419 . S
C1036 C1037 1.363 . S
C1036 H1039 0.929 . S
C1037 C1036 1.363 . S
C1037 C1043 1.428 . S
H1038 C1034 0.930 . S
H1039 C1036 0.929 . S
S1040 N1041 1.613 . S
S1040 N1042 1.610 . S
N1041 S1040 1.613 . S
N1041 C1044 1.350 . S
N1042 S1040 1.610 . S
N1042 C1043 1.351 . S
C1043 C1037 1.428 . S
C1043 N1042 1.351 . S
C1043 C1044 1.434 . S
C1044 C1035 1.429 . S
C1044 N1041 1.350 . S
C1044 C1043 1.434 . S
C1045 C1046 1.369 . S
C1045 C1047 1.419 . S
C1045 H1049 0.930 . S
C1046 C1045 1.369 . S
C1046 C1055 1.429 . S
C1047 C1045 1.419 . S
C1047 C1048 1.363 . S
C1047 H1050 0.929 . S
C1048 C1047 1.363 . S
C1048 C1054 1.428 . S
H1049 C1045 0.930 . S
H1050 C1047 0.929 . S
S1051 N1052 1.613 . S
S1051 N1053 1.610 . S
N1052 S1051 1.613 . S
N1052 C1055 1.350 . S
N1053 S1051 1.610 . S
N1053 C1054 1.351 . S
C1054 C1048 1.428 . S
C1054 N1053 1.351 . S
C1054 C1055 1.434 . S
C1055 C1046 1.429 . S
C1055 N1052 1.350 . S
C1055 C1054 1.434 . S
C1056 C1057 1.369 . S
C1056 C1058 1.419 . S
C1056 H1060 0.930 . S
C1057 C1056 1.369 . S
C1057 C1066 1.429 . S
C1058 C1056 1.419 . S
C1058 C1059 1.363 . S
C1058 H1061 0.929 . S
C1059 C1058 1.363 . S
C1059 C1065 1.428 . S
H1060 C1056 0.930 . S
H1061 C1058 0.929 . S
S1062 N1063 1.574 1_655 S
S1062 N1064 1.601 1_655 S
N1063 S1062 1.574 1_455 S
N1063 C1066 1.350 . S
N1064 S1062 1.601 1_455 S
N1064 C1065 1.351 . S
C1065 C1059 1.428 . S
C1065 N1064 1.351 . S
C1065 C1066 1.434 . S
C1066 C1057 1.429 . S
C1066 N1063 1.350 . S
C1066 C1065 1.434 . S
C1067 C1068 1.369 . S
C1067 C1069 1.419 . S
C1067 H1071 0.930 . S
C1068 C1067 1.369 . S
C1068 C1077 1.429 . S
C1069 C1067 1.419 . S
C1069 C1070 1.363 . S
C1069 H1072 0.929 . S
C1070 C1069 1.363 . S
C1070 C1076 1.428 . S
H1071 C1067 0.930 . S
H1072 C1069 0.929 . S
S1073 N1074 1.613 . S
S1073 N1075 1.610 . S
N1074 S1073 1.613 . S
N1074 C1077 1.350 . S
N1075 S1073 1.610 . S
N1075 C1076 1.351 . S
C1076 C1070 1.428 . S
C1076 N1075 1.351 . S
C1076 C1077 1.434 . S
C1077 C1068 1.429 . S
C1077 N1074 1.350 . S
C1077 C1076 1.434 . S
C1078 C1079 1.369 . S
C1078 C1080 1.419 . S
C1078 H1082 0.930 . S
C1079 C1078 1.369 . S
C1079 C1088 1.429 . S
C1080 C1078 1.419 . S
C1080 C1081 1.363 . S
C1080 H1083 0.929 . S
C1081 C1080 1.363 . S
C1081 C1087 1.428 . S
H1082 C1078 0.930 . S
H1083 C1080 0.929 . S
S1084 N1085 1.613 . S
S1084 N1086 1.610 . S
N1085 S1084 1.613 . S
N1085 C1088 1.350 . S
N1086 S1084 1.610 . S
N1086 C1087 1.351 . S
C1087 C1081 1.428 . S
C1087 N1086 1.351 . S
C1087 C1088 1.434 . S
C1088 C1079 1.429 . S
C1088 N1085 1.350 . S
C1088 C1087 1.434 . S
C1089 C1090 1.369 . S
C1089 C1091 1.419 . S
C1089 H1093 0.930 . S
C1090 C1089 1.369 . S
C1090 C1099 1.429 . S
C1091 C1089 1.419 . S
C1091 C1092 1.363 . S
C1091 H1094 0.929 . S
C1092 C1091 1.363 . S
C1092 C1098 1.428 . S
H1093 C1089 0.930 . S
H1094 C1091 0.929 . S
S1095 N1096 1.613 . S
S1095 N1097 1.610 . S
N1096 S1095 1.613 . S
N1096 C1099 1.350 . S
N1097 S1095 1.610 . S
N1097 C1098 1.351 . S
C1098 C1092 1.428 . S
C1098 N1097 1.351 . S
C1098 C1099 1.434 . S
C1099 C1090 1.429 . S
C1099 N1096 1.350 . S
C1099 C1098 1.434 . S
C1100 C1101 1.369 . S
C1100 C1102 1.419 . S
C1100 H1104 0.930 . S
C1101 C1100 1.369 . S
C1101 C1110 1.429 . S
C1102 C1100 1.419 . S
C1102 C1103 1.363 . S
C1102 H1105 0.929 . S
C1103 C1102 1.363 . S
C1103 C1109 1.428 . S
H1104 C1100 0.930 . S
H1105 C1102 0.929 . S
S1106 N1107 1.613 . S
S1106 N1108 1.610 . S
N1107 S1106 1.613 . S
N1107 C1110 1.350 . S
N1108 S1106 1.610 . S
N1108 C1109 1.351 . S
C1109 C1103 1.428 . S
C1109 N1108 1.351 . S
C1109 C1110 1.434 . S
C1110 C1101 1.429 . S
C1110 N1107 1.350 . S
C1110 C1109 1.434 . S
C1111 C1112 1.369 . S
C1111 C1113 1.419 . S
C1111 H1115 0.930 . S
C1112 C1111 1.369 . S
C1112 C1121 1.429 . S
C1113 C1111 1.419 . S
C1113 C1114 1.363 . S
C1113 H1116 0.929 . S
C1114 C1113 1.363 . S
C1114 C1120 1.428 . S
H1115 C1111 0.930 . S
H1116 C1113 0.929 . S
S1117 N1118 1.613 . S
S1117 N1119 1.610 . S
N1118 S1117 1.613 . S
N1118 C1121 1.350 . S
N1119 S1117 1.610 . S
N1119 C1120 1.351 . S
C1120 C1114 1.428 . S
C1120 N1119 1.351 . S
C1120 C1121 1.434 . S
C1121 C1112 1.429 . S
C1121 N1118 1.350 . S
C1121 C1120 1.434 . S
C1122 C1123 1.369 . S
C1122 C1124 1.419 . S
C1122 H1126 0.930 . S
C1123 C1122 1.369 . S
C1123 C1132 1.429 . S
C1124 C1122 1.419 . S
C1124 C1125 1.363 . S
C1124 H1127 0.929 . S
C1125 C1124 1.363 . S
C1125 C1131 1.428 . S
H1126 C1122 0.930 . S
H1127 C1124 0.929 . S
S1128 N1129 1.613 . S
S1128 N1130 1.610 . S
N1129 S1128 1.613 . S
N1129 C1132 1.350 . S
N1130 S1128 1.610 . S
N1130 C1131 1.351 . S
C1131 C1125 1.428 . S
C1131 N1130 1.351 . S
C1131 C1132 1.434 . S
C1132 C1123 1.429 . S
C1132 N1129 1.350 . S
C1132 C1131 1.434 . S
C1133 C1134 1.369 . S
C1133 C1135 1.419 . S
C1133 H1137 0.930 . S
C1134 C1133 1.369 . S
C1134 C1143 1.429 . S
C1135 C1133 1.419 . S
C1135 C1136 1.363 . S
C1135 H1138 0.929 . S
C1136 C1135 1.363 . S
C1136 C1142 1.428 . S
H1137 C1133 0.930 . S
H1138 C1135 0.929 . S
S1139 N1140 1.613 . S
S1139 N1141 1.610 . S
N1140 S1139 1.613 . S
N1140 C1143 1.350 . S
N1141 S1139 1.610 . S
N1141 C1142 1.351 . S
C1142 C1136 1.428 . S
C1142 N1141 1.351 . S
C1142 C1143 1.434 . S
C1143 C1134 1.429 . S
C1143 N1140 1.350 . S
C1143 C1142 1.434 . S
C1144 C1145 1.369 . S
C1144 C1146 1.419 . S
C1144 H1148 0.930 . S
C1145 C1144 1.369 . S
C1145 C1154 1.429 . S
C1146 C1144 1.419 . S
C1146 C1147 1.363 . S
C1146 H1149 0.929 . S
C1147 C1146 1.363 . S
C1147 C1153 1.428 . S
H1148 C1144 0.930 . S
H1149 C1146 0.929 . S
S1150 N1151 1.613 . S
S1150 N1152 1.610 . S
N1151 S1150 1.613 . S
N1151 C1154 1.350 . S
N1152 S1150 1.610 . S
N1152 C1153 1.351 . S
C1153 C1147 1.428 . S
C1153 N1152 1.351 . S
C1153 C1154 1.434 . S
C1154 C1145 1.429 . S
C1154 N1151 1.350 . S
C1154 C1153 1.434 . S
C1155 C1156 1.369 . S
C1155 C1157 1.419 . S
C1155 H1159 0.930 . S
C1156 C1155 1.369 . S
C1156 C1165 1.429 . S
C1157 C1155 1.419 . S
C1157 C1158 1.363 . S
C1157 H1160 0.929 . S
C1158 C1157 1.363 . S
C1158 C1164 1.428 . S
H1159 C1155 0.930 . S
H1160 C1157 0.929 . S
S1161 N1162 1.613 . S
S1161 N1163 1.610 . S
N1162 S1161 1.613 . S
N1162 C1165 1.350 . S
N1163 S1161 1.610 . S
N1163 C1164 1.351 . S
C1164 C1158 1.428 . S
C1164 N1163 1.351 . S
C1164 C1165 1.434 . S
C1165 C1156 1.429 . S
C1165 N1162 1.350 . S
C1165 C1164 1.434 . S
C1166 C1167 1.369 . S
C1166 C1168 1.419 . S
C1166 H1170 0.930 . S
C1167 C1166 1.369 . S
C1167 C1176 1.429 . S
C1168 C1166 1.419 . S
C1168 C1169 1.363 . S
C1168 H1171 0.929 . S
C1169 C1168 1.363 . S
C1169 C1175 1.428 . S
H1170 C1166 0.930 . S
H1171 C1168 0.929 . S
S1172 N1173 1.613 . S
S1172 N1174 1.610 . S
N1173 S1172 1.613 . S
N1173 C1176 1.350 1_545 S
N1174 S1172 1.610 . S
N1174 C1175 1.351 1_545 S
C1175 C1169 1.428 . S
C1175 N1174 1.351 1_565 S
C1175 C1176 1.434 . S
C1176 C1167 1.429 . S
C1176 N1173 1.350 1_565 S
C1176 C1175 1.434 . S
C1177 C1178 1.369 . S
C1177 C1179 1.419 . S
C1177 H1181 0.930 . S
C1178 C1177 1.369 . S
C1178 C1187 1.429 . S
C1179 C1177 1.419 . S
C1179 C1180 1.363 . S
C1179 H1182 0.929 . S
C1180 C1179 1.363 . S
C1180 C1186 1.428 . S
H1181 C1177 0.930 . S
H1182 C1179 0.929 . S
S1183 N1184 1.613 . S
S1183 N1185 1.610 . S
N1184 S1183 1.613 . S
N1184 C1187 1.350 . S
N1185 S1183 1.610 . S
N1185 C1186 1.351 . S
C1186 C1180 1.428 . S
C1186 N1185 1.351 . S
C1186 C1187 1.434 . S
C1187 C1178 1.429 . S
C1187 N1184 1.350 . S
C1187 C1186 1.434 . S
C1188 C1189 1.369 . S
C1188 C1190 1.419 . S
C1188 H1192 0.930 . S
C1189 C1188 1.369 . S
C1189 C1198 1.429 . S
C1190 C1188 1.419 . S
C1190 C1191 1.363 . S
C1190 H1193 0.929 . S
C1191 C1190 1.363 . S
C1191 C1197 1.428 . S
H1192 C1188 0.930 . S
H1193 C1190 0.929 . S
S1194 N1195 1.613 . S
S1194 N1196 1.610 . S
N1195 S1194 1.613 . S
N1195 C1198 1.350 . S
N1196 S1194 1.610 . S
N1196 C1197 1.351 . S
C1197 C1191 1.428 . S
C1197 N1196 1.351 . S
C1197 C1198 1.434 . S
C1198 C1189 1.429 . S
C1198 N1195 1.350 . S
C1198 C1197 1.434 . S
C1199 C1200 1.369 . S
C1199 C1201 1.419 . S
C1199 H1203 0.930 . S
C1200 C1199 1.369 . S
C1200 C1209 1.429 . S
C1201 C1199 1.419 . S
C1201 C1202 1.363 . S
C1201 H1204 0.929 . S
C1202 C1201 1.363 . S
C1202 C1208 1.428 . S
H1203 C1199 0.930 . S
H1204 C1201 0.929 . S
S1205 N1206 1.613 . S
S1205 N1207 1.610 . S
N1206 S1205 1.613 . S
N1206 C1209 1.350 . S
N1207 S1205 1.610 . S
N1207 C1208 1.351 . S
C1208 C1202 1.428 . S
C1208 N1207 1.351 . S
C1208 C1209 1.434 . S
C1209 C1200 1.429 . S
C1209 N1206 1.350 . S
C1209 C1208 1.434 . S
C1210 C1211 1.369 . S
C1210 C1212 1.419 . S
C1210 H1214 0.930 . S
C1211 C1210 1.369 . S
C1211 C1220 1.429 . S
C1212 C1210 1.419 . S
C1212 C1213 1.363 . S
C1212 H1215 0.929 . S
C1213 C1212 1.363 . S
C1213 C1219 1.428 . S
H1214 C1210 0.930 . S
H1215 C1212 0.929 . S
S1216 N1217 1.613 . S
S1216 N1218 1.610 . S
N1217 S1216 1.613 . S
N1217 C1220 1.350 . S
N1218 S1216 1.610 . S
N1218 C1219 1.351 . S
C1219 C1213 1.428 . S
C1219 N1218 1.351 . S
C1219 C1220 1.434 . S
C1220 C1211 1.429 . S
C1220 N1217 1.350 . S
C1220 C1219 1.434 . S
C1221 C1222 1.369 . S
C1221 C1223 1.419 . S
C1221 H1225 0.930 . S
C1222 C1221 1.369 . S
C1222 C1231 1.429 . S
C1223 C1221 1.419 . S
C1223 C1224 1.363 . S
C1223 H1226 0.929 . S
C1224 C1223 1.363 . S
C1224 C1230 1.428 . S
H1225 C1221 0.930 . S
H1226 C1223 0.929 . S
S1227 N1228 1.613 . S
S1227 N1229 1.610 . S
N1228 S1227 1.613 . S
N1228 C1231 1.350 . S
N1229 S1227 1.610 . S
N1229 C1230 1.351 . S
C1230 C1224 1.428 . S
C1230 N1229 1.351 . S
C1230 C1231 1.434 . S
C1231 C1222 1.429 . S
C1231 N1228 1.350 . S
C1231 C1230 1.434 . S
C1232 C1233 1.369 . S
C1232 C1234 1.419 . S
C1232 H1236 0.930 . S
C1233 C1232 1.369 . S
C1233 C1242 1.429 . S
C1234 C1232 1.419 . S
C1234 C1235 1.363 . S
C1234 H1237 0.929 . S
C1235 C1234 1.363 . S
C1235 C1241 1.428 . S
H1236 C1232 0.930 . S
H1237 C1234 0.929 . S
S1238 N1239 1.613 . S
S1238 N1240 1.610 . S
N1239 S1238 1.613 . S
N1239 C1242 1.350 . S
N1240 S1238 1.610 . S
N1240 C1241 1.351 . S
C1241 C1235 1.428 . S
C1241 N1240 1.351 . S
C1241 C1242 1.434 . S
C1242 C1233 1.429 . S
C1242 N1239 1.350 . S
C1242 C1241 1.434 . S
C1243 C1244 1.369 . S
C1243 C1245 1.419 . S
C1243 H1247 0.930 . S
C1244 C1243 1.369 . S
C1244 C1253 1.429 . S
C1245 C1243 1.419 . S
C1245 C1246 1.363 . S
C1245 H1248 0.929 . S
C1246 C1245 1.363 . S
C1246 C1252 1.428 . S
H1247 C1243 0.930 . S
H1248 C1245 0.929 . S
S1249 N1250 1.613 . S
S1249 N1251 1.610 . S
N1250 S1249 1.613 . S
N1250 C1253 1.350 . S
N1251 S1249 1.610 . S
N1251 C1252 1.351 . S
C1252 C1246 1.428 . S
C1252 N1251 1.351 . S
C1252 C1253 1.434 . S
C1253 C1244 1.429 . S
C1253 N1250 1.350 . S
C1253 C1252 1.434 . S
C1254 C1255 1.369 . S
C1254 C1256 1.419 . S
C1254 H1258 0.930 . S
C1255 C1254 1.369 . S
C1255 C1264 1.429 . S
C1256 C1254 1.419 . S
C1256 C1257 1.363 . S
C1256 H1259 0.929 . S
C1257 C1256 1.363 . S
C1257 C1263 1.428 . S
H1258 C1254 0.930 . S
H1259 C1256 0.929 . S
S1260 N1261 1.613 . S
S1260 N1262 1.610 . S
N1261 S1260 1.613 . S
N1261 C1264 1.350 . S
N1262 S1260 1.610 . S
N1262 C1263 1.351 . S
C1263 C1257 1.428 . S
C1263 N1262 1.351 . S
C1263 C1264 1.434 . S
C1264 C1255 1.429 . S
C1264 N1261 1.350 . S
C1264 C1263 1.434 . S
C1265 C1266 1.369 . S
C1265 C1267 1.419 . S
C1265 H1269 0.930 . S
C1266 C1265 1.369 . S
C1266 C1275 1.429 . S
C1267 C1265 1.419 . S
C1267 C1268 1.363 . S
C1267 H1270 0.929 . S
C1268 C1267 1.363 . S
C1268 C1274 1.428 . S
H1269 C1265 0.930 . S
H1270 C1267 0.929 . S
S1271 N1272 1.613 . S
S1271 N1273 1.610 . S
N1272 S1271 1.613 . S
N1272 C1275 1.350 . S
N1273 S1271 1.610 . S
N1273 C1274 1.351 . S
C1274 C1268 1.428 . S
C1274 N1273 1.351 . S
C1274 C1275 1.434 . S
C1275 C1266 1.429 . S
C1275 N1272 1.350 . S
C1275 C1274 1.434 . S
C1276 C1277 1.369 . S
C1276 C1278 1.419 . S
C1276 H1280 0.930 . S
C1277 C1276 1.369 . S
C1277 C1286 1.429 . S
C1278 C1276 1.419 . S
C1278 C1279 1.363 . S
C1278 H1281 0.929 . S
C1279 C1278 1.363 . S
C1279 C1285 1.428 . S
H1280 C1276 0.930 . S
H1281 C1278 0.929 . S
S1282 N1283 1.613 . S
S1282 N1284 1.610 . S
N1283 S1282 1.613 . S
N1283 C1286 1.350 . S
N1284 S1282 1.610 . S
N1284 C1285 1.351 . S
C1285 C1279 1.428 . S
C1285 N1284 1.351 . S
C1285 C1286 1.434 . S
C1286 C1277 1.429 . S
C1286 N1283 1.350 . S
C1286 C1285 1.434 . S
C1287 C1288 1.369 . S
C1287 C1289 1.419 . S
C1287 H1291 0.930 . S
C1288 C1287 1.369 . S
C1288 C1297 1.429 . S
C1289 C1287 1.419 . S
C1289 C1290 1.363 . S
C1289 H1292 0.929 . S
C1290 C1289 1.363 . S
C1290 C1296 1.428 . S
H1291 C1287 0.930 . S
H1292 C1289 0.929 . S
S1293 N1294 1.613 . S
S1293 N1295 1.610 . S
N1294 S1293 1.613 . S
N1294 C1297 1.350 . S
N1295 S1293 1.610 . S
N1295 C1296 1.351 . S
C1296 C1290 1.428 . S
C1296 N1295 1.351 . S
C1296 C1297 1.434 . S
C1297 C1288 1.429 . S
C1297 N1294 1.350 . S
C1297 C1296 1.434 . S
C1298 C1299 1.369 . S
C1298 C1300 1.419 . S
C1298 H1302 0.930 . S
C1299 C1298 1.369 . S
C1299 C1308 1.429 . S
C1300 C1298 1.419 . S
C1300 C1301 1.363 . S
C1300 H1303 0.929 . S
C1301 C1300 1.363 . S
C1301 C1307 1.428 . S
H1302 C1298 0.930 . S
H1303 C1300 0.929 . S
S1304 N1305 1.613 . S
S1304 N1306 1.610 . S
N1305 S1304 1.613 . S
N1305 C1308 1.350 . S
N1306 S1304 1.610 . S
N1306 C1307 1.351 . S
C1307 C1301 1.428 . S
C1307 N1306 1.351 . S
C1307 C1308 1.434 . S
C1308 C1299 1.429 . S
C1308 N1305 1.350 . S
C1308 C1307 1.434 . S
C1309 C1310 1.369 . S
C1309 C1311 1.419 . S
C1309 H1313 0.930 . S
C1310 C1309 1.369 . S
C1310 C1319 1.429 . S
C1311 C1309 1.419 . S
C1311 C1312 1.363 . S
C1311 H1314 0.929 . S
C1312 C1311 1.363 . S
C1312 C1318 1.428 . S
H1313 C1309 0.930 . S
H1314 C1311 0.929 . S
S1315 N1316 1.613 . S
S1315 N1317 1.610 . S
N1316 S1315 1.613 . S
N1316 C1319 1.350 . S
N1317 S1315 1.610 . S
N1317 C1318 1.351 . S
C1318 C1312 1.428 . S
C1318 N1317 1.351 . S
C1318 C1319 1.434 . S
C1319 C1310 1.429 . S
C1319 N1316 1.350 . S
C1319 C1318 1.434 . S
C529 C5 1.317 . S
C531 C49 1.265 . S
C540 C16 1.144 . S
C542 C60 1.119 . S
C551 C71 1.189 . S
C553 C27 1.189 . S
C562 C82 1.666 . S
C564 C38 1.673 . S
C573 C93 1.206 . S
C575 C159 1.191 . S
C584 C104 1.305 . S
C586 C170 1.216 . S
C595 C137 1.491 . S
C597 C115 1.522 . S
C606 C126 1.618 . S
C608 C148 1.638 . S
C617 C181 1.361 . S
C619 C500 1.238 . S
C628 C192 1.519 . S
C630 C478 1.498 . S
C639 C203 1.368 . S
C641 C225 1.294 . S
C650 C456 1.199 . S
C652 C214 1.224 . S
C661 C445 1.617 . S
C663 C236 1.610 . S
C672 C247 1.643 . S
C674 C522 1.647 . S
C683 C511 1.171 . S
C685 C258 1.160 . S
C694 C269 1.172 . S
C696 C313 1.190 . S
C705 C324 1.137 . S
C707 C280 1.129 . S
C716 C291 1.293 . S
C718 C335 1.436 . S
C727 C302 1.278 . S
C729 C346 1.383 . S
C738 C357 1.232 . S
C740 C423 1.319 . S
C749 C434 1.572 . S
C751 C368 1.555 . S
C760 C401 1.621 . S
C762 C379 1.600 . S
C771 C390 1.277 . S
C773 C412 1.445 . S
C782 C489 1.193 . S
C784 C467 1.169 . S
C793 C172 1.460 . S
C795 C7 1.500 . S
C804 C18 1.467 . S
C806 C139 1.505 . S
C815 C150 1.629 . S
C817 C29 1.554 . S
C826 C161 1.533 . S
C828 C40 1.606 . S
C837 C51 1.533 . S
C839 C106 1.563 . S
C848 C117 1.585 . S
C850 C62 1.525 . S
C859 C128 1.585 . S
C861 C73 1.514 . S
C870 C95 1.537 . S
C872 C84 1.617 . S
C881 C227 1.526 . S
C883 C183 1.547 . S
C892 C194 1.588 . S
C894 C260 1.521 . S
C903 C205 1.574 . S
C905 C502 1.507 . S
C914 C249 1.622 . S
C916 C216 1.542 . S
C925 C238 1.601 . S
C927 C469 1.529 . S
C936 C436 1.591 . S
C938 C271 1.525 . S
C947 C403 1.569 . S
C949 C282 1.509 1_554 S
C958 C414 1.558 . S
C960 C293 1.499 . S
C969 C425 1.495 . S
C971 C304 1.453 . S
C980 C315 1.548 . S
C982 C370 1.621 . S
C991 C326 1.492 . S
C993 C381 1.549 . S
C1002 C337 1.555 . S
C1004 C392 1.491 . S
C1013 C359 1.524 . S
C1015 C348 1.573 . S
C1024 C491 1.563 . S
C1026 C447 1.637 . S
C1035 C524 1.669 . S
C1037 C458 1.578 . S
C1046 C513 1.499 . S
C1048 C480 1.557 . S
C1057 C8 1.517 . S
C1059 C228 1.501 . S
C1068 C459 1.491 . S
C1070 C19 1.516 . S
C1079 C470 1.534 . S
C1081 C30 1.536 . S
C1090 C481 1.849 . S
C1092 C41 1.830 . S
C1101 C52 1.671 . S
C1103 C525 1.677 . S
C1112 C63 1.588 . S
C1114 C239 1.622 . S
C1123 C74 1.485 . S
C1125 C514 1.501 . S
C1134 C184 1.830 . S
C1136 C85 1.824 . S
C1145 C96 1.470 . S
C1147 C173 1.488 . S
C1156 C107 1.720 . S
C1158 C140 1.717 . S
C1167 C118 1.917 . S
C1169 C151 1.917 . S
C1178 C129 1.621 . S
C1180 C162 1.569 . S
C1189 C283 1.576 . S
C1191 C195 1.614 . S
C1200 C206 1.611 . S
C1202 C294 1.583 . S
C1211 C217 1.481 . S
C1213 C305 1.482 . S
C1222 C338 1.922 . S
C1224 C250 1.937 . S
C1233 C261 1.539 . S
C1235 C316 1.547 . S
C1244 C272 1.531 . S
C1246 C492 1.528 . S
C1255 C503 1.486 . S
C1257 C327 1.488 . S
C1266 C349 1.853 . S
C1268 C448 1.851 . S
C1277 C360 1.584 . S
C1279 C437 1.598 . S
C1288 C371 1.885 . S
C1290 C404 1.857 . S
C1299 C382 1.904 . S
C1301 C415 1.891 . S
C1310 C426 1.566 . S
C1312 C393 1.536 . S
