# Generated by pormake.
# Topology uov, (4)-cn, num edge types: 1
# Building blocks:
#     Node 0, Type 0, BuildingBlock: KUFVIS_clean_sbu_0, # of connection points: 4
#     Node 1, Type 0, BuildingBlock: KUFVIS_clean_sbu_0, # of connection points: 4
#     Node 2, Type 0, BuildingBlock: KUFVIS_clean_sbu_0, # of connection points: 4
#     Node 3, Type 0, BuildingBlock: KUFVIS_clean_sbu_0, # of connection points: 4
#     Node 4, Type 0, BuildingBlock: KUFVIS_clean_sbu_0, # of connection points: 4
#     Node 5, Type 0, BuildingBlock: KUFVIS_clean_sbu_0, # of connection points: 4
#     Node 6, Type 0, BuildingBlock: KUFVIS_clean_sbu_0, # of connection points: 4
#     Node 7, Type 0, BuildingBlock: KUFVIS_clean_sbu_0, # of connection points: 4
#     Edge 8, Type (0, 0), BuildingBlock: ZUJKAS_clean_linker_0, # of connection points: 2
#     Edge 9, Type (0, 0), BuildingBlock: ZUJKAS_clean_linker_0, # of connection points: 2
#     Edge 10, Type (0, 0), BuildingBlock: ZUJKAS_clean_linker_0, # of connection points: 2
#     Edge 11, Type (0, 0), BuildingBlock: ZUJKAS_clean_linker_0, # of connection points: 2
#     Edge 12, Type (0, 0), BuildingBlock: ZUJKAS_clean_linker_0, # of connection points: 2
#     Edge 13, Type (0, 0), BuildingBlock: ZUJKAS_clean_linker_0, # of connection points: 2
#     Edge 14, Type (0, 0), BuildingBlock: ZUJKAS_clean_linker_0, # of connection points: 2
#     Edge 15, Type (0, 0), BuildingBlock: ZUJKAS_clean_linker_0, # of connection points: 2
#     Edge 16, Type (0, 0), BuildingBlock: ZUJKAS_clean_linker_0, # of connection points: 2
#     Edge 17, Type (0, 0), BuildingBlock: ZUJKAS_clean_linker_0, # of connection points: 2
#     Edge 18, Type (0, 0), BuildingBlock: ZUJKAS_clean_linker_0, # of connection points: 2
#     Edge 19, Type (0, 0), BuildingBlock: ZUJKAS_clean_linker_0, # of connection points: 2
#     Edge 20, Type (0, 0), BuildingBlock: ZUJKAS_clean_linker_0, # of connection points: 2
#     Edge 21, Type (0, 0), BuildingBlock: ZUJKAS_clean_linker_0, # of connection points: 2
#     Edge 22, Type (0, 0), BuildingBlock: ZUJKAS_clean_linker_0, # of connection points: 2
#     Edge 23, Type (0, 0), BuildingBlock: ZUJKAS_clean_linker_0, # of connection points: 2
# Relax obj value: 0.168
# Max RMSD: 0.184
# Mean RMSD: 0.180
data_MOF--net-uov--node1-KUFVIS_clean_sbu_0--edge1-ZUJKAS_clean_linker_0
_symmetry_space_group_name_H-M    P1
_symmetry_Int_Tables_number       1
_symmetry_cell_setting            triclinic
loop_
_symmetry_equiv_pos_as_xyz
'x, y, z'
_cell_length_a     37.895192
_cell_length_b     38.904645
_cell_length_c     55.238152
_cell_angle_alpha  89.98755
_cell_angle_beta   89.981979
_cell_angle_gamma 91.499987
loop_
_atom_site_label
_atom_site_type_symbol
_atom_site_fract_x
_atom_site_fract_y
_atom_site_fract_z
_atom_type_partial_charge
Mn0 Mn 0.05513 0.25344 0.59691 0.0
Mn1 Mn 0.98904 0.24596 0.6377 0.0
C2 C 0.99728 0.25146 0.58404 0.0
C3 C 0.0966 0.22661 0.57263 0.0
C4 C 0.02706 0.31357 0.62638 0.0
O5 O 0.0807 0.23916 0.62746 0.0
O6 O 0.03445 0.23322 0.65274 0.0
C7 C 0.98984 0.1703 0.64337 0.0
N8 N 0.97207 0.19927 0.63787 0.0
C9 C 0.91815 0.1666 0.63138 0.0
C10 C 0.9358 0.13643 0.63711 0.0
C11 C 0.97185 0.13829 0.64302 0.0
C12 C 0.93752 0.19773 0.63183 0.0
H13 H 0.01752 0.17159 0.648 0.0
C14 C 0.06742 0.2315 0.64801 0.0
O15 O 0.10088 0.25868 0.57887 0.0
O16 O 0.06873 0.21043 0.58075 0.0
N17 N 0.94319 0.25686 0.62591 0.0
C18 C 0.93015 0.28827 0.62051 0.0
C19 C 0.89456 0.29079 0.61383 0.0
C20 C 0.87259 0.26115 0.61325 0.0
C21 C 0.88642 0.22923 0.6194 0.0
C22 C 0.92214 0.22826 0.62573 0.0
H23 H 0.94682 0.31119 0.62118 0.0
O24 O 0.02209 0.26344 0.56999 0.0
O25 O 0.0072 0.23962 0.60491 0.0
O26 O 0.0483 0.30197 0.61053 0.0
O27 O 0.00455 0.29471 0.63788 0.0
C28 C 0.86615 0.19834 0.61954 0.0
C29 C 0.88208 0.167 0.62527 0.0
H30 H 0.92198 0.11171 0.63695 0.0
H31 H 0.9857 0.11512 0.64739 0.0
H32 H 0.88404 0.31554 0.60922 0.0
H33 H 0.84515 0.2632 0.6081 0.0
H34 H 0.8383 0.19834 0.61516 0.0
H35 H 0.86631 0.14338 0.62497 0.0
Mn36 Mn 0.25632 0.93557 0.40151 0.0
Mn37 Mn 0.28798 0.85512 0.40052 0.0
C38 C 0.22888 0.8929 0.42397 0.0
C39 C 0.25641 0.99082 0.41792 0.0
C40 C 0.24349 0.88436 0.3602 0.0
O41 O 0.30508 0.94262 0.38716 0.0
O42 O 0.32507 0.88869 0.38934 0.0
C43 C 0.34185 0.863 0.43905 0.0
N44 N 0.31276 0.84633 0.42989 0.0
C45 C 0.31092 0.80678 0.4634 0.0
C46 C 0.34101 0.82337 0.4731 0.0
C47 C 0.35649 0.85164 0.4609 0.0
C48 C 0.29766 0.81909 0.44148 0.0
H49 H 0.35376 0.8848 0.42976 0.0
C50 C 0.32918 0.92073 0.38433 0.0
O51 O 0.24504 0.98482 0.3961 0.0
O52 O 0.26897 0.96503 0.4297 0.0
N53 N 0.25525 0.8199 0.41104 0.0
C54 C 0.22508 0.80814 0.40006 0.0
C55 C 0.20562 0.78071 0.41047 0.0
C56 C 0.21756 0.7654 0.43188 0.0
C57 C 0.24895 0.7776 0.44266 0.0
C58 C 0.26733 0.80492 0.43139 0.0
H59 H 0.21574 0.81981 0.38361 0.0
O60 O 0.21228 0.92046 0.41821 0.0
O61 O 0.26156 0.89126 0.41682 0.0
O62 O 0.2385 0.91364 0.36987 0.0
O63 O 0.2622 0.86128 0.36992 0.0
C64 C 0.26222 0.76435 0.46448 0.0
C65 C 0.29316 0.77895 0.47485 0.0
H66 H 0.35226 0.81483 0.49003 0.0
H67 H 0.37961 0.86469 0.46834 0.0
H68 H 0.18139 0.77146 0.40205 0.0
H69 H 0.20226 0.7445 0.44 0.0
H70 H 0.24852 0.74332 0.47364 0.0
H71 H 0.30281 0.76887 0.49182 0.0
Mn72 Mn 0.92804 0.73224 0.59548 0.0
Mn73 Mn -0.00232 0.73916 0.63329 0.0
C74 C 0.98462 0.7341 0.58014 0.0
C75 C 0.88543 0.76053 0.57306 0.0
C76 C 0.95681 0.67217 0.62433 0.0
O77 O 0.90569 0.74647 0.62727 0.0
O78 O 0.95447 0.7546 0.65004 0.0
C79 C 0.0012 0.81507 0.63707 0.0
N80 N 0.01687 0.78501 0.63138 0.0
C81 C 0.07021 0.81507 0.61905 0.0
C82 C 0.05473 0.84633 0.62495 0.0
C83 C 0.02006 0.84631 0.63397 0.0
C84 C 0.05016 0.78474 0.6226 0.0
H85 H 0.97446 0.81521 0.64383 0.0
C86 C 0.92102 0.7557 0.64686 0.0
O87 O 0.88076 0.7284 0.57909 0.0
O88 O 0.91414 0.77587 0.58045 0.0
N89 N 0.04141 0.72549 0.61935 0.0
C90 C 0.05236 0.69318 0.61429 0.0
C91 C 0.08649 0.68871 0.60509 0.0
C92 C 0.10905 0.71744 0.60133 0.0
C93 C 0.09741 0.75037 0.60706 0.0
C94 C 0.06329 0.75319 0.61648 0.0
H95 H 0.03516 0.67099 0.61713 0.0
O96 O 0.95864 0.72239 0.567 0.0
O97 O 0.97643 0.74523 0.60151 0.0
O98 O 0.93538 0.68352 0.6085 0.0
O99 O 0.97986 0.6911 0.63529 0.0
C100 C 0.1182 0.78051 0.6036 0.0
C101 C 0.10456 0.81285 0.60949 0.0
H102 H 0.06914 0.87049 0.62248 0.0
H103 H 0.00787 0.87035 0.63843 0.0
H104 H 0.09532 0.6632 0.60078 0.0
H105 H 0.13522 0.71392 0.59398 0.0
H106 H 0.14461 0.77915 0.5962 0.0
H107 H 0.12067 0.83588 0.60649 0.0
Mn108 Mn 0.74685 0.05915 0.3973 0.0
Mn109 Mn 0.70892 0.13646 0.39227 0.0
C110 C 0.76994 0.10546 0.41849 0.0
C111 C 0.74883 0.00523 0.41568 0.0
C112 C 0.75708 0.10711 0.35394 0.0
O113 O 0.69948 0.04756 0.38213 0.0
O114 O 0.67449 0.09941 0.38261 0.0
C115 C 0.65482 0.12871 0.4307 0.0
N116 N 0.68283 0.14642 0.42091 0.0
C117 C 0.68063 0.18954 0.45206 0.0
C118 C 0.65159 0.1719 0.46238 0.0
C119 C 0.6387 0.14131 0.45168 0.0
C120 C 0.69548 0.17585 0.43106 0.0
H121 H 0.64488 0.10515 0.42255 0.0
C122 C 0.67341 0.06695 0.37859 0.0
O123 O 0.76151 0.01046 0.3941 0.0
O124 O 0.73452 0.03112 0.4263 0.0
N125 N 0.73885 0.17473 0.40126 0.0
C126 C 0.7685 0.18732 0.39002 0.0
C127 C 0.78534 0.21731 0.39891 0.0
C128 C 0.77138 0.23419 0.4191 0.0
C129 C 0.74085 0.22078 0.43034 0.0
C130 C 0.72502 0.19098 0.42055 0.0
H131 H 0.77927 0.17453 0.37444 0.0
O132 O 0.78883 0.07872 0.4144 0.0
O133 O 0.73758 0.10403 0.41054 0.0
O134 O 0.76467 0.07965 0.36523 0.0
O135 O 0.73575 0.12916 0.36218 0.0
C136 C 0.7259 0.23543 0.45116 0.0
C137 C 0.69586 0.21978 0.46204 0.0
H138 H 0.63921 0.18143 0.47864 0.0
H139 H 0.61641 0.12746 0.45961 0.0
H140 H 0.80899 0.22744 0.3902 0.0
H141 H 0.78443 0.25733 0.4259 0.0
H142 H 0.73762 0.25843 0.45918 0.0
H143 H 0.68493 0.23098 0.47826 0.0
Mn144 Mn 0.96447 0.25122 0.09808 0.0
Mn145 Mn 0.03528 0.24952 0.13501 0.0
C146 C 0.02042 0.25524 0.08198 0.0
C147 C 0.92125 0.22249 0.07538 0.0
C148 C 0.99203 0.31299 0.12738 0.0
O149 O 0.9436 0.2334 0.12959 0.0
O150 O 0.99265 0.23132 0.15243 0.0
C151 C 0.04018 0.17395 0.13943 0.0
N152 N 0.05521 0.20496 0.13337 0.0
C153 C 0.10973 0.17862 0.12252 0.0
C154 C 0.09492 0.14643 0.12879 0.0
C155 C 0.05995 0.14409 0.13722 0.0
C156 C 0.08875 0.20748 0.12512 0.0
H157 H 0.0133 0.17201 0.14588 0.0
C158 C 0.95937 0.22645 0.1493 0.0
O159 O 0.91673 0.25359 0.08313 0.0
O160 O 0.95043 0.20797 0.08133 0.0
N161 N 0.07849 0.26586 0.1206 0.0
C162 C 0.08831 0.2986 0.11429 0.0
C163 C 0.12225 0.3052 0.10488 0.0
C164 C 0.14585 0.27819 0.10234 0.0
C165 C 0.13531 0.2448 0.10926 0.0
C166 C 0.10117 0.23977 0.11852 0.0
H167 H 0.07031 0.31948 0.11626 0.0
O168 O 0.99349 0.26556 0.06973 0.0
O169 O 0.01369 0.2418 0.10314 0.0
O170 O 0.9702 0.29944 0.11238 0.0
O171 O 0.017 0.29656 0.13728 0.0
C172 C 0.1572 0.21624 0.1071 0.0
C173 C 0.14435 0.18315 0.11357 0.0
H174 H 0.11006 0.12332 0.12707 0.0
H175 H 0.04828 0.11932 0.142 0.0
H176 H 0.13019 0.33105 0.09959 0.0
H177 H 0.17195 0.28336 0.09497 0.0
H178 H 0.18388 0.21938 0.10027 0.0
H179 H 0.16127 0.16133 0.11147 0.0
Mn180 Mn 0.24839 0.05479 0.89536 0.0
Mn181 Mn 0.23735 0.9808 0.86404 0.0
C182 C 0.24048 0.00375 0.91588 0.0
C183 C 0.22503 0.10351 0.91287 0.0
C184 C 0.3084 0.01674 0.87126 0.0
O185 O 0.23711 0.07116 0.86151 0.0
O186 O 0.22701 0.02056 0.84259 0.0
C187 C 0.16011 0.98259 0.85648 0.0
N188 N 0.18884 0.96623 0.86512 0.0
C189 C 0.15267 0.91865 0.87937 0.0
C190 C 0.12272 0.93487 0.87046 0.0
C191 C 0.12647 0.967 0.85899 0.0
C192 C 0.18555 0.93526 0.87613 0.0
H193 H 0.16285 0.00739 0.84779 0.0
C194 C 0.22841 0.05355 0.84289 0.0
O195 O 0.25804 0.10278 0.9066 0.0
O196 O 0.20558 0.07634 0.90832 0.0
N197 N 0.24614 0.94037 0.88261 0.0
C198 C 0.27732 0.9293 0.89163 0.0
C199 C 0.27794 0.89817 0.90448 0.0
C200 C 0.24659 0.87867 0.90779 0.0
C201 C 0.2149 0.8904 0.89811 0.0
C202 C 0.21593 0.92149 0.8853 0.0
H203 H 0.30146 0.94428 0.88926 0.0
O204 O 0.25485 0.03033 0.92652 0.0
O205 O 0.23043 0.00802 0.89354 0.0
O206 O 0.29747 0.04119 0.8844 0.0
O207 O 0.28815 0.99325 0.86232 0.0
C208 C 0.18217 0.87293 0.9012 0.0
C209 C 0.15108 0.88704 0.89184 0.0
H210 H 0.09668 0.92307 0.87254 0.0
H211 H 0.10345 0.97977 0.85219 0.0
H212 H 0.3025 0.88932 0.91194 0.0
H213 H 0.24711 0.85488 0.91796 0.0
H214 H 0.18053 0.84889 0.91109 0.0
H215 H 0.12601 0.87361 0.89465 0.0
Mn216 Mn 0.03696 0.7441 0.10417 0.0
Mn217 Mn 0.96432 0.74557 0.13932 0.0
C218 C 0.98226 0.74858 0.0865 0.0
C219 C 0.08366 0.77316 0.08542 0.0
C220 C 0.00427 0.68071 0.12845 0.0
O221 O 0.0566 0.75442 0.13762 0.0
O222 O 0.00627 0.76058 0.15881 0.0
C223 C 0.96044 0.82034 0.14845 0.0
N224 N 0.94538 0.79061 0.13986 0.0
C225 C 0.89266 0.81967 0.12836 0.0
C226 C 0.90751 0.85055 0.13725 0.0
C227 C 0.94156 0.85088 0.14732 0.0
C228 C 0.91254 0.78995 0.13028 0.0
H229 H 0.98671 0.82077 0.15605 0.0
C230 C 0.04005 0.76208 0.15693 0.0
O231 O 0.08509 0.74047 0.08994 0.0
O232 O 0.05566 0.78897 0.09224 0.0
N233 N 0.92215 0.73221 0.12228 0.0
C234 C 0.91287 0.70099 0.1127 0.0
C235 C 0.88023 0.6967 0.10092 0.0
C236 C 0.85746 0.7245 0.09914 0.0
C237 C 0.86753 0.75635 0.10919 0.0
C238 C 0.90024 0.75902 0.12094 0.0
H239 H 0.93036 0.67959 0.11385 0.0
O240 O 0.00883 0.73787 0.07404 0.0
O241 O 0.98871 0.75684 0.10893 0.0
O242 O 0.02643 0.69424 0.11368 0.0
O243 O 0.98105 0.69783 0.13966 0.0
C244 C 0.8468 0.78579 0.10746 0.0
C245 C 0.85933 0.81741 0.11707 0.0
H246 H 0.89319 0.87424 0.13618 0.0
H247 H 0.95328 0.87466 0.15408 0.0
H248 H 0.87271 0.67208 0.0931 0.0
H249 H 0.83246 0.72117 0.08981 0.0
H250 H 0.82144 0.78452 0.09843 0.0
H251 H 0.8434 0.83998 0.11529 0.0
Mn252 Mn 0.7453 0.95348 0.89038 0.0
Mn253 Mn 0.75327 0.02154 0.85271 0.0
C254 C 0.75224 0.00804 0.90609 0.0
C255 C 0.77031 0.90894 0.91175 0.0
C256 C 0.68329 0.98626 0.86459 0.0
O257 O 0.75574 0.93122 0.85808 0.0
O258 O 0.76294 0.97837 0.83477 0.0
C259 C 0.83014 0.0186 0.84372 0.0
N260 N 0.80173 0.0363 0.85145 0.0
C261 C 0.83811 0.0864 0.86009 0.0
C262 C 0.86774 0.06879 0.85207 0.0
C263 C 0.86374 0.03471 0.84392 0.0
C264 C 0.8053 0.06902 0.85947 0.0
H265 H 0.8272 0.99238 0.83747 0.0
C266 C 0.76275 0.94571 0.83788 0.0
O267 O 0.737 0.90797 0.9062 0.0
O268 O 0.78916 0.93518 0.90431 0.0
N269 N 0.74506 0.06505 0.86755 0.0
C270 C 0.71407 0.07793 0.87558 0.0
C271 C 0.71367 0.1115 0.88489 0.0
C272 C 0.74499 0.13161 0.88555 0.0
C273 C 0.77646 0.11795 0.87689 0.0
C274 C 0.77524 0.08434 0.86782 0.0
H275 H 0.6899 0.06262 0.87503 0.0
O276 O 0.73924 0.98314 0.91921 0.0
O277 O 0.76197 6e-05 0.88421 0.0
O278 O 0.6955 0.96413 0.87918 0.0
O279 O 0.70253 0.00856 0.8534 0.0
C280 C 0.80905 0.13623 0.87712 0.0
C281 C 0.83989 0.1204 0.86887 0.0
H282 H 0.89371 0.08111 0.85223 0.0
H283 H 0.8865 0.0209 0.8378 0.0
H284 H 0.68928 0.12187 0.89153 0.0
H285 H 0.74459 0.15745 0.89281 0.0
H286 H 0.81076 0.16239 0.88378 0.0
H287 H 0.86486 0.13457 0.86946 0.0
H288 H 0.92964 0.62012 0.59593 0.0
H289 H 0.94085 0.55876 0.59968 0.0
H290 H -0.00167 0.57795 0.6659 0.0
H291 H 0.98789 0.6393 0.66208 0.0
H292 H 0.03594 0.54098 0.6339 0.0
H293 H 0.90122 0.4836 0.64344 0.0
H294 H 0.90611 0.51093 0.61742 0.0
H295 H 0.91049 0.52902 0.64727 0.0
C296 C 0.94392 0.61121 0.6116 0.0
C297 C 0.95793 0.63466 0.62867 0.0
C298 C 0.95028 0.57608 0.61374 0.0
C299 C 0.97026 0.56376 0.63315 0.0
C300 C 0.9829 0.58692 0.65076 0.0
H301 H 0.99598 0.34727 0.66377 0.0
H302 H 0.98532 0.40866 0.66686 0.0
C303 C 0.9768 0.62199 0.64857 0.0
C304 C 0.98046 0.52728 0.63413 0.0
H305 H 0.94734 0.44493 0.63469 0.0
C306 C 0.01657 0.51995 0.63427 0.0
C307 C 0.95518 0.49994 0.63481 0.0
C308 C 0.91609 0.5062 0.63597 0.0
C309 C 0.02811 0.48598 0.63468 0.0
C310 C 0.00282 0.45863 0.63444 0.0
C311 C 0.96671 0.46596 0.63471 0.0
C312 C 0.01302 0.42213 0.63381 0.0
C313 C 0.06721 0.47975 0.63568 0.0
C314 C 0.03283 0.40939 0.61444 0.0
C315 C 0.0393 0.37425 0.61272 0.0
C316 C 0.0256 0.35118 0.63016 0.0
C317 C 0.00684 0.36427 0.64998 0.0
C318 C 0.00062 0.39937 0.65176 0.0
H319 H 0.08217 0.50251 0.64282 0.0
H320 H 0.07295 0.45718 0.64719 0.0
H321 H 0.07698 0.47463 0.61712 0.0
H322 H 0.04207 0.4264 0.60013 0.0
H323 H 0.0535 0.365 0.59711 0.0
H324 H 0.60908 0.09703 0.37477 0.0
H325 H 0.55192 0.0683 0.3678 0.0
H326 H 0.60317 0.97156 0.35848 0.0
H327 H 0.66052 -0.00017 0.36564 0.0
H328 H 0.52373 0.02449 0.32907 0.0
H329 H 0.53665 0.95766 0.41768 0.0
H330 H 0.56461 0.99395 0.40922 0.0
H331 H 0.57219 0.95227 0.39659 0.0
C332 C 0.60836 0.06974 0.37088 0.0
C333 C 0.6394 0.05066 0.37113 0.0
C334 C 0.57565 0.05341 0.36685 0.0
C335 C 0.57344 0.01782 0.363 0.0
C336 C 0.60443 -0.00098 0.36177 0.0
H337 H 0.38762 0.88278 0.37523 0.0
H338 H 0.44707 0.9042 0.36551 0.0
C339 C 0.63715 0.01526 0.36587 0.0
C340 C 0.53857 6e-05 0.3624 0.0
H341 H 0.48479 0.94656 0.39558 0.0
C342 C 0.5152 0.00722 0.34347 0.0
C343 C 0.5277 0.97762 0.38126 0.0
C344 C 0.5514 0.97001 0.40247 0.0
C345 C 0.48094 0.99261 0.34303 0.0
C346 C 0.46979 0.97089 0.36224 0.0
C347 C 0.49352 0.96311 0.38082 0.0
C348 C 0.433 0.95772 0.36456 0.0
C349 C 0.45704 0.00056 0.32204 0.0
C350 C 0.40536 0.98073 0.36702 0.0
C351 C 0.37131 0.96863 0.37256 0.0
C352 C 0.36437 0.93325 0.37601 0.0
C353 C 0.39198 0.91018 0.37278 0.0
C354 C 0.42598 0.92234 0.36716 0.0
H355 H 0.47244 0.00808 0.30567 0.0
H356 H 0.43952 0.97815 0.31752 0.0
H357 H 0.44025 0.02242 0.32697 0.0
H358 H 0.41037 0.0082 0.36567 0.0
H359 H 0.35076 0.98716 0.37496 0.0
H360 H 0.95631 0.36055 0.10135 0.0
H361 H 0.95831 0.42279 0.10641 0.0
H362 H 0.02416 0.41244 0.16955 0.0
H363 H 0.02338 0.35003 0.16412 0.0
H364 H 0.93867 0.4654 0.14137 0.0
H365 H 0.08389 0.47674 0.12878 0.0
H366 H 0.05932 0.4372 0.12335 0.0
H367 H 0.07061 0.4499 0.15376 0.0
C368 C 0.97102 0.37141 0.11645 0.0
C369 C 0.98999 0.35031 0.13219 0.0
C370 C 0.97214 0.40704 0.11931 0.0
C371 C 0.99202 0.42232 0.13804 0.0
C372 C 0.00949 0.40126 0.15455 0.0
H373 H 0.97457 0.64348 0.16562 0.0
H374 H 0.97251 0.58098 0.1704 0.0
C375 C 0.0088 0.36558 0.15152 0.0
C376 C 0.99505 0.46032 0.13965 0.0
H377 H 0.05433 0.52786 0.13766 0.0
C378 C 0.96395 0.4791 0.14065 0.0
C379 C 0.02808 0.4781 0.13837 0.0
C380 C 0.06236 0.45952 0.13577 0.0
C381 C 0.96488 0.51516 0.13999 0.0
C382 C -0.00206 0.53294 0.13911 0.0
C383 C 0.02905 0.51417 0.13854 0.0
C384 C 0.00083 0.57092 0.13721 0.0
C385 C 0.9304 0.5337 0.13919 0.0
C386 C 0.01881 0.5861 0.11755 0.0
C387 C 0.02069 0.6218 0.11503 0.0
C388 C 0.00436 0.64304 0.13205 0.0
C389 C 0.98706 0.62781 0.15204 0.0
C390 C 0.98564 0.59208 0.15473 0.0
H391 H 0.90816 0.5164 0.13344 0.0
H392 H 0.92422 0.54344 0.15755 0.0
H393 H 0.93198 0.55593 0.1266 0.0
H394 H 0.03084 0.57026 0.10386 0.0
H395 H 0.03415 0.63267 0.0994 0.0
H396 H 0.34164 0.98185 0.83522 0.0
H397 H 0.40521 0.97675 0.82913 0.0
H398 H 0.42513 0.04071 0.89171 0.0
H399 H 0.36178 0.047 0.89739 0.0
H400 H 0.46868 0.05776 0.85566 0.0
H401 H 0.46735 0.91618 0.86846 0.0
H402 H 0.43988 0.92999 0.84406 0.0
H403 H 0.42939 0.94172 0.87469 0.0
C404 C 0.35959 0.9949 0.84764 0.0
C405 C 0.34672 0.01467 0.86687 0.0
C406 C 0.39588 0.99179 0.84421 0.0
C407 C 0.41986 0.00774 0.86027 0.0
C408 C 0.40706 0.02809 0.87915 0.0
H409 H 0.63246 0.95884 0.89431 0.0
H410 H 0.56872 0.96411 0.89076 0.0
C411 C 0.37085 0.03166 0.88237 0.0
C412 C 0.45833 0.00316 0.85773 0.0
H413 H 0.52196 0.94271 0.85786 0.0
C414 C 0.48038 0.03261 0.85607 0.0
C415 C 0.47346 0.9703 0.85854 0.0
C416 C 0.45136 0.93776 0.86177 0.0
C417 C 0.51722 0.03021 0.85569 0.0
C418 C 0.53233 0.99734 0.85613 0.0
C419 C 0.51026 0.96785 0.8573 0.0
C420 C 0.57098 0.99299 0.85726 0.0
C421 C 0.53949 0.06297 0.8559 0.0
C422 C 0.5934 0.00689 0.83934 0.0
C423 C 0.62997 0.00438 0.84151 0.0
C424 C 0.64465 0.98724 0.86138 0.0
C425 C 0.62202 0.97214 0.87876 0.0
C426 C 0.58556 0.97512 0.87676 0.0
H427 H 0.52413 0.08537 0.86191 0.0
H428 H 0.56266 0.06059 0.86802 0.0
H429 H 0.54923 0.06842 0.83731 0.0
H430 H 0.58265 0.01996 0.8238 0.0
H431 H 0.64672 0.01594 0.82768 0.0
H432 H 0.26891 0.00665 0.46522 0.0
H433 H 0.25022 0.05745 0.48705 0.0
H434 H 0.21459 0.10205 0.42017 0.0
H435 H 0.23217 0.05049 0.3982 0.0
H436 H 0.26236 0.12703 0.48622 0.0
H437 H 0.12418 0.09425 0.45878 0.0
H438 H 0.16004 0.06583 0.45316 0.0
H439 H 0.1543 0.10298 0.43433 0.0
C440 C 0.25762 0.02745 0.45503 0.0
C441 C 0.25141 0.02427 0.43003 0.0
C442 C 0.24704 0.05659 0.46756 0.0
C443 C 0.23024 0.08322 0.45535 0.0
C444 C 0.22669 0.08141 0.43005 0.0
H445 H 0.14832 0.25517 0.5433 0.0
H446 H 0.184 0.22504 0.51316 0.0
C447 C 0.23692 0.05202 0.4175 0.0
C448 C 0.21334 0.11065 0.46962 0.0
H449 H 0.13252 0.13983 0.48585 0.0
C450 C 0.23402 0.13024 0.48594 0.0
C451 C 0.17628 0.11453 0.46937 0.0
C452 C 0.15228 0.09315 0.45315 0.0
C453 C 0.21849 0.15256 0.50266 0.0
C454 C 0.18141 0.15569 0.50275 0.0
C455 C 0.16097 0.13737 0.48568 0.0
C456 C 0.16255 0.17445 0.52199 0.0
C457 C 0.24157 0.17117 0.52092 0.0
C458 C 0.13886 0.15605 0.53694 0.0
C459 C 0.11838 0.17309 0.55383 0.0
C460 C 0.12117 0.209 0.55627 0.0
C461 C 0.14577 0.22745 0.54189 0.0
C462 C 0.16621 0.21028 0.52474 0.0
H463 H 0.26899 0.16173 0.5209 0.0
H464 H 0.24261 0.19903 0.5166 0.0
H465 H 0.23043 0.16811 0.53942 0.0
H466 H 0.13571 0.12839 0.5352 0.0
H467 H 0.09985 0.15808 0.56472 0.0
H468 H 0.16267 0.8664 0.4215 0.0
H469 H 0.13197 0.83088 0.45167 0.0
H470 H 0.22712 0.82889 0.49469 0.0
H471 H 0.25658 0.86751 0.46552 0.0
H472 H 0.13875 0.77025 0.46756 0.0
H473 H 0.16268 0.85863 0.54525 0.0
H474 H 0.17481 0.87031 0.5148 0.0
H475 H 0.20208 0.84217 0.5322 0.0
C476 C 0.17692 0.85824 0.43742 0.0
C477 C 0.21222 0.86846 0.44091 0.0
C478 C 0.15951 0.83782 0.4546 0.0
C479 C 0.17708 0.82728 0.47564 0.0
C480 C 0.21266 0.83724 0.47896 0.0
H481 H 0.03182 0.69114 0.55975 0.0
H482 H 0.08589 0.70797 0.53773 0.0
C483 C 0.22976 0.85857 0.46204 0.0
C484 C 0.15714 0.807 0.49413 0.0
H485 H 0.12859 0.80892 0.55267 0.0
C486 C 0.13653 0.77865 0.48622 0.0
C487 C 0.15458 0.81778 0.51855 0.0
C488 C 0.17446 0.84903 0.52819 0.0
C489 C 0.11114 0.7628 0.50127 0.0
C490 C 0.10797 0.7741 0.52555 0.0
C491 C 0.13088 0.80038 0.53405 0.0
C492 C 0.07817 0.76278 0.54137 0.0
C493 C 0.08634 0.73608 0.49025 0.0
C494 C 0.05709 0.78778 0.55213 0.0
C495 C 0.02747 0.77811 0.56565 0.0
C496 C 0.01814 0.74331 0.56845 0.0
C497 C 0.03898 0.71815 0.55788 0.0
C498 C 0.0695 0.7278 0.54506 0.0
H499 H 0.08681 0.7369 0.47015 0.0
H500 H 0.09451 0.7101 0.49587 0.0
H501 H 0.05876 0.73977 0.49629 0.0
H502 H 0.06297 0.81493 0.54953 0.0
H503 H 0.0112 0.79787 0.57331 0.0
H504 H 0.77399 0.945 0.39761 0.0
H505 H 0.78564 0.89226 0.42015 0.0
H506 H 0.74521 0.9385 0.48514 0.0
H507 H 0.73251 0.99058 0.46266 0.0
H508 H 0.83124 0.88773 0.45517 0.0
H509 H 0.70251 0.84419 0.492 0.0
H510 H 0.70624 0.87559 0.46799 0.0
H511 H 0.71058 0.88859 0.4992 0.0
C512 C 0.76688 0.9436 0.41659 0.0
C513 C 0.75243 0.97199 0.42837 0.0
C514 C 0.7735 0.91343 0.42944 0.0
C515 C 0.76581 0.9111 0.4543 0.0
C516 C 0.7504 0.93913 0.46586 0.0
H517 H 0.88208 0.82939 0.56732 0.0
H518 H 0.84911 0.8606 0.53697 0.0
C519 C 0.7435 0.96912 0.453 0.0
C520 C 0.77816 0.88161 0.46887 0.0
H521 H 0.75432 0.82749 0.51522 0.0
C522 C 0.81415 0.87402 0.46785 0.0
C523 C 0.75594 0.86325 0.48529 0.0
C524 C 0.7166 0.86809 0.48598 0.0
C525 C 0.82891 0.8505 0.48389 0.0
C526 C 0.80732 0.8346 0.50175 0.0
C527 C 0.77091 0.84018 0.50174 0.0
C528 C 0.82315 0.8153 0.52194 0.0
C529 C 0.86789 0.84382 0.48221 0.0
C530 C 0.81812 0.77955 0.52428 0.0
C531 C 0.83693 0.76146 0.54186 0.0
C532 C 0.86093 0.77904 0.55718 0.0
C533 C 0.86414 0.81504 0.55561 0.0
C534 C 0.84535 0.83295 0.53825 0.0
H535 H 0.87842 0.8499 0.46388 0.0
H536 H 0.8823 0.86042 0.49545 0.0
H537 H 0.87338 0.8166 0.48651 0.0
H538 H 0.80088 0.76555 0.5119 0.0
H539 H 0.83398 0.73372 0.54268 0.0
H540 H 0.73692 0.1319 0.45769 0.0
H541 H 0.76159 0.17264 0.48729 0.0
H542 H 0.86135 0.17203 0.44939 0.0
H543 H 0.83512 0.13497 0.41837 0.0
H544 H 0.80545 0.16499 0.51807 0.0
H545 H 0.86363 0.26926 0.46365 0.0
H546 H 0.83467 0.2372 0.45018 0.0
H547 H 0.88163 0.23059 0.45203 0.0
C548 C 0.76345 0.14221 0.45505 0.0
C549 C 0.78354 0.13208 0.4351 0.0
C550 C 0.77783 0.16496 0.47219 0.0
C551 C 0.81321 0.17653 0.47034 0.0
C552 C 0.83355 0.16527 0.45071 0.0
H553 H 0.9625 0.19042 0.57993 0.0
H554 H 0.91014 0.17797 0.55554 0.0
C555 C 0.81873 0.14362 0.43313 0.0
C556 C 0.83031 0.19649 0.49033 0.0
H557 H 0.89667 0.25532 0.50103 0.0
C558 C 0.82468 0.18541 0.51429 0.0
C559 C 0.85454 0.22417 0.48598 0.0
C560 C 0.85851 0.24116 0.46155 0.0
C561 C 0.84474 0.19907 0.53348 0.0
C562 C 0.87264 0.22285 0.52848 0.0
C563 C 0.87609 0.23624 0.50495 0.0
C564 C 0.90074 0.23125 0.54646 0.0
C565 C 0.83574 0.18794 0.55891 0.0
C566 C 0.91355 0.26524 0.54931 0.0
C567 C 0.94427 0.27214 0.56263 0.0
C568 C 0.96192 0.24532 0.57397 0.0
C569 C 0.94849 0.21158 0.572 0.0
C570 C 0.91833 0.20455 0.5582 0.0
H571 H 0.80715 0.18133 0.56066 0.0
H572 H 0.85052 0.16463 0.56363 0.0
H573 H 0.84256 0.20869 0.57197 0.0
H574 H 0.90069 0.28628 0.54034 0.0
H575 H 0.95474 0.29828 0.56361 0.0
H576 H 0.71002 0.04687 0.93375 0.0
H577 H 0.72866 0.09398 0.96076 0.0
H578 H 0.83528 0.08711 0.93412 0.0
H579 H 0.81663 0.04002 0.90725 0.0
H580 H 0.77739 0.08269 0.99649 0.0
H581 H 0.82366 0.19129 0.93867 0.0
H582 H 0.79245 0.15855 0.92842 0.0
H583 H 0.83892 0.15019 0.92894 0.0
C584 C 0.73716 0.05633 0.93315 0.0
C585 C 0.76175 0.04071 0.91799 0.0
C586 C 0.74777 0.08313 0.94855 0.0
C587 C 0.78322 0.09443 0.94918 0.0
C588 C 0.8076 0.07952 0.93344 0.0
H589 H 0.92134 0.15575 0.06078 0.0
H590 H 0.88206 0.12747 0.03156 0.0
C591 C 0.79697 0.05269 0.91806 0.0
C592 C 0.79587 0.11771 0.96873 0.0
H593 H 0.84573 0.19045 0.97935 0.0
C594 C 0.79176 0.1066 0.99277 0.0
C595 C 0.81421 0.14905 0.9639 0.0
C596 C 0.81736 0.16324 0.9386 0.0
C597 C 0.80734 0.12496 0.01199 0.0
C598 C 0.82794 0.15491 0.00696 0.0
C599 C 0.83023 0.16722 0.98311 0.0
C600 C 0.84991 0.17189 0.02582 0.0
C601 C 0.80236 0.11169 0.03746 0.0
C602 C 0.84495 0.20635 0.03215 0.0
C603 C 0.86742 0.22266 0.04894 0.0
C604 C 0.89543 0.2048 0.05935 0.0
C605 C 0.89996 0.17018 0.05314 0.0
C606 C 0.87743 0.15391 0.03653 0.0
H607 H 0.77802 0.09531 0.03908 0.0
H608 H 0.82515 0.09578 0.0424 0.0
H609 H 0.80092 0.13318 0.05062 0.0
H610 H 0.82396 0.22068 0.02392 0.0
H611 H 0.86342 0.24942 0.05328 0.0
H612 H 0.15647 0.11312 0.92483 0.0
H613 H 0.13334 0.15597 0.95223 0.0
H614 H 0.2374 0.20241 0.95969 0.0
H615 H 0.26103 0.15898 0.9323 0.0
H616 H 0.20716 0.18787 0.00323 0.0
H617 H 0.11203 0.25684 0.94705 0.0
H618 H 0.105 0.21136 0.94375 0.0
H619 H 0.14619 0.23108 0.93402 0.0
C620 C 0.17438 0.13283 0.93188 0.0
C621 C 0.21059 0.13261 0.92648 0.0
C622 C 0.16105 0.15754 0.9474 0.0
C623 C 0.18354 0.18272 0.95773 0.0
C624 C 0.21955 0.18337 0.95173 0.0
H625 H 0.05596 0.30418 0.05613 0.0
H626 H 0.10509 0.29513 0.02804 0.0
C627 C 0.23297 0.1586 0.93607 0.0
C628 C 0.16968 0.20534 0.97687 0.0
H629 H 0.09768 0.25245 0.99016 0.0
C630 C 0.18376 0.2028 0.00029 0.0
C631 C 0.13972 0.22552 0.973 0.0
C632 C 0.12516 0.23167 0.948 0.0
C633 C 0.1666 0.21714 0.02025 0.0
C634 C 0.13428 0.23372 0.01668 0.0
C635 C 0.12215 0.23916 0.993 0.0
C636 C 0.11024 0.24134 0.03702 0.0
C637 C 0.18258 0.21355 0.04506 0.0
C638 C 0.09727 0.21428 0.05163 0.0
C639 C 0.06935 0.21944 0.06759 0.0
C640 C 0.05425 0.25183 0.06939 0.0
C641 C 0.06787 0.27919 0.05538 0.0
C642 C 0.09584 0.27405 0.03939 0.0
H643 H 0.21164 0.21077 0.044 0.0
H644 H 0.1768 0.23621 0.05646 0.0
H645 H 0.17128 0.19018 0.05397 0.0
H646 H 0.10708 0.18855 0.04954 0.0
H647 H 0.05823 0.19766 0.07745 0.0
H648 H 0.11401 0.75169 0.0438 0.0
H649 H 0.14828 0.78725 0.01531 0.0
H650 H 0.14927 0.87103 0.06664 0.0
H651 H 0.11254 0.83628 0.09419 0.0
H652 H 0.12818 0.89343 0.02714 0.0
H653 H 0.24617 0.81927 0.00519 0.0
H654 H 0.20688 0.79407 -0.00062 0.0
H655 H 0.21719 0.80745 0.02989 0.0
C656 C 0.12245 0.7774 0.04917 0.0
C657 C 0.11083 0.79141 0.07107 0.0
C658 C 0.14226 0.79768 0.03295 0.0
C659 C 0.15181 0.83185 0.03882 0.0
C660 C 0.14217 0.84485 0.06158 0.0
H661 H 0.28009 0.96941 0.94823 0.0
H662 H 0.25924 0.92618 0.97763 0.0
C663 C 0.12136 0.82501 0.07738 0.0
C664 C 0.16745 0.85546 0.02028 0.0
H665 H 0.2311 0.86353 0.97666 0.0
C666 C 0.15104 0.88696 0.0164 0.0
C667 C 0.19738 0.84734 0.00622 0.0
C668 C 0.2181 0.81534 0.01059 0.0
C669 C 0.16345 0.9104 -0.00104 0.0
C670 C 0.19198 0.90139 0.9839 0.0
C671 C 0.20878 0.87012 0.98788 0.0
C672 C 0.20535 0.92472 0.96453 0.0
C673 C 0.14629 0.94496 0.99742 0.0
C674 C 0.18225 0.93762 0.94705 0.0
C675 C 0.19396 0.96282 0.93073 0.0
C676 C 0.22938 0.97411 0.93073 0.0
C677 C 0.25281 0.9604 0.9476 0.0
C678 C 0.24094 0.93571 0.9643 0.0
H679 H 0.13341 0.95179 0.01478 0.0
H680 H 0.16579 0.9657 0.99276 0.0
H681 H 0.12552 0.94397 0.98327 0.0
H682 H 0.15487 0.92899 0.94648 0.0
H683 H 0.17514 0.9741 0.91852 0.0
H684 H 0.73905 0.87734 0.9504 0.0
H685 H 0.7687 0.84504 0.98225 0.0
H686 H 0.86533 0.8496 0.94084 0.0
H687 H 0.83639 0.88393 0.90989 0.0
H688 H 0.80265 0.78801 0.98878 0.0
H689 H 0.89733 0.8971 0.00075 0.0
H690 H 0.85962 0.8996 0.98107 0.0
H691 H 0.89969 0.88042 0.9706 0.0
C692 C 0.76648 0.87092 0.948 0.0
C693 C 0.78571 0.88345 0.92799 0.0
C694 C 0.7834 0.85253 0.96619 0.0
C695 C 0.81958 0.84595 0.96434 0.0
C696 C 0.83778 0.85558 0.94313 0.0
H697 H 0.94552 0.71296 0.0522 0.0
H698 H 0.90114 0.73566 0.02474 0.0
C699 C 0.8212 0.87487 0.92535 0.0
C700 C 0.8389 0.83133 0.98515 0.0
H701 H 0.91219 0.84465 0.01995 0.0
C702 C 0.82644 0.80051 0.99578 0.0
C703 C 0.86924 0.84824 0.99491 0.0
C704 C 0.88197 0.88335 0.98642 0.0
C705 C 0.84427 0.78555 0.01529 0.0
C706 C 0.87618 0.80111 0.02369 0.0
C707 C 0.88794 0.83241 0.01347 0.0
C708 C 0.89875 0.7853 0.04242 0.0
C709 C 0.82833 0.75367 0.02692 0.0
C710 C 0.9128 0.80567 0.06129 0.0
C711 C 0.93913 0.79315 0.07626 0.0
C712 C 0.9507 0.75947 0.07348 0.0
C713 C 0.93603 0.73865 0.05516 0.0
C714 C 0.91039 0.75151 0.03966 0.0
H715 H 0.79915 0.75276 0.02492 0.0
H716 H 0.83866 0.7306 0.0178 0.0
H717 H 0.83486 0.75234 0.04649 0.0
H718 H 0.90464 0.83193 0.0637 0.0
H719 H 0.95148 0.81029 0.08938 0.0
H720 H 0.13474 0.20771 0.64326 0.0
H721 H 0.16897 0.17756 0.67396 0.0
H722 H 0.08662 0.1935 0.72633 0.0
H723 H 0.05214 0.22314 0.69594 0.0
H724 H 0.19394 0.19599 0.72107 0.0
H725 H 0.09534 0.08831 0.72376 0.0
H726 H 0.09623 0.12021 0.70001 0.0
H727 H 0.07631 0.12948 0.72877 0.0
C728 C 0.12413 0.20519 0.6614 0.0
C729 C 0.09047 0.21744 0.66705 0.0
C730 C 0.14369 0.18792 0.67888 0.0
C731 C 0.1299 0.18268 0.7022 0.0
C732 C 0.09732 0.1966 0.70825 0.0
H733 H 0.21811 0.12256 0.83766 0.0
H734 H 0.19858 0.15276 0.80161 0.0
C735 C 0.07772 0.21365 0.69084 0.0
C736 C 0.14858 0.16151 0.7201 0.0
H737 H 0.13727 0.09074 0.75597 0.0
C738 C 0.18181 0.17277 0.72856 0.0
C739 C 0.133 0.13084 0.72942 0.0
C740 C 0.09842 0.11625 0.71986 0.0
C741 C 0.19915 0.15493 0.747 0.0
C742 C 0.18241 0.12552 0.75744 0.0
C743 C 0.14993 0.11348 0.74815 0.0
C744 C 0.19712 0.10759 0.77871 0.0
C745 C 0.23516 0.16776 0.75508 0.0
C746 C 0.20211 0.07198 0.778 0.0
C747 C 0.21275 0.05446 0.79873 0.0
C748 C 0.21861 0.07225 0.8206 0.0
C749 C 0.2141 0.10804 0.82112 0.0
C750 C 0.20322 0.12546 0.80043 0.0
H751 H 0.24888 0.18256 0.7405 0.0
H752 H 0.23217 0.18519 0.7708 0.0
H753 H 0.25199 0.14619 0.76062 0.0
H754 H 0.19728 0.05765 0.76147 0.0
H755 H 0.21602 0.02694 0.79764 0.0
H756 H 0.01543 0.78482 0.20062 0.0
H757 H 0.04985 0.8087 0.23432 0.0
H758 H 0.14608 0.79241 0.19478 0.0
H759 H 0.11204 0.76884 0.16084 0.0
H760 H 0.10185 0.77804 0.26174 0.0
H761 H 0.15503 0.894 0.2143 0.0
H762 H 0.11853 0.86823 0.20264 0.0
H763 H 0.16307 0.85437 0.19882 0.0
C764 C 0.04392 0.78622 0.19904 0.0
C765 C 0.06091 0.77496 0.17792 0.0
C766 C 0.06352 0.79996 0.21833 0.0
C767 C 0.10043 0.80289 0.21684 0.0
C768 C 0.11755 0.79109 0.19605 0.0
H769 H 0.24989 0.82601 0.33316 0.0
H770 H 0.21502 0.80813 0.29812 0.0
C771 C 0.09801 0.77736 0.17674 0.0
C772 C 0.12108 0.81742 0.23734 0.0
H773 H 0.1802 0.88151 0.25275 0.0
C774 C 0.11884 0.80076 0.25982 0.0
C775 C 0.14283 0.84734 0.23484 0.0
C776 C 0.14484 0.86727 0.21142 0.0
C777 C 0.13851 0.8127 0.27975 0.0
C778 C 0.16137 0.84176 0.27698 0.0
C779 C 0.16291 0.85902 0.2547 0.0
C780 C 0.18427 0.85414 0.29701 0.0
C781 C 0.13454 0.7942 0.30366 0.0
C782 C 0.17948 0.88661 0.30737 0.0
C783 C 0.19955 0.89712 0.32743 0.0
C784 C 0.22483 0.87532 0.33738 0.0
C785 C 0.2305 0.84341 0.32619 0.0
C786 C 0.21048 0.833 0.30619 0.0
H787 H 0.10976 0.77831 0.30443 0.0
H788 H 0.15704 0.77685 0.30613 0.0
H789 H 0.13466 0.81271 0.31897 0.0
H790 H 0.15949 0.90337 0.30037 0.0
H791 H 0.19452 0.92186 0.33554 0.0
H792 H 0.8518 0.775 0.64527 0.0
H793 H 0.8192 0.80512 0.67678 0.0
H794 H 0.90888 0.79946 0.72448 0.0
H795 H 0.94181 0.76988 0.69321 0.0
H796 H 0.80154 0.78859 0.72567 0.0
H797 H 0.89137 0.90305 0.71896 0.0
H798 H 0.89041 0.86932 0.69653 0.0
H799 H 0.91389 0.86379 0.72449 0.0
C800 C 0.86448 0.77983 0.66255 0.0
C801 C 0.89962 0.77039 0.66658 0.0
C802 C 0.8458 0.79704 0.68051 0.0
C803 C 0.86194 0.80506 0.70273 0.0
C804 C 0.89626 0.79412 0.70725 0.0
H805 H 0.77825 0.87725 0.83815 0.0
H806 H 0.79848 0.84269 0.80421 0.0
C807 C 0.91499 0.77712 0.68934 0.0
C808 C 0.84369 0.82616 0.7209 0.0
H809 H 0.85199 0.90124 0.75246 0.0
C810 C 0.81234 0.81334 0.73145 0.0
C811 C 0.85755 0.85871 0.72803 0.0
C812 C 0.88996 0.87475 0.71626 0.0
C813 C 0.79507 0.8318 0.74962 0.0
C814 C 0.80998 0.86356 0.75761 0.0
C815 C 0.84074 0.87676 0.74648 0.0
C816 C 0.7947 0.88348 0.77775 0.0
C817 C 0.76095 0.81728 0.7599 0.0
C818 C 0.78631 0.91804 0.77425 0.0
C819 C 0.77526 0.93804 0.79367 0.0
C820 C 0.77233 0.92385 0.81704 0.0
C821 C 0.77998 0.88896 0.82039 0.0
C822 C 0.7913 0.86905 0.80095 0.0
H823 H 0.74781 0.79899 0.74712 0.0
H824 H 0.76663 0.80306 0.77682 0.0
H825 H 0.7424 0.83801 0.76427 0.0
H826 H 0.7889 0.92974 0.75651 0.0
H827 H 0.76947 0.96475 0.79039 0.0
H828 H 0.74611 0.16166 0.32391 0.0
H829 H 0.77924 0.17808 0.28774 0.0
H830 H 0.84302 0.08856 0.29534 0.0
H831 H 0.80972 0.07152 0.33157 0.0
H832 H 0.8515 0.19268 0.28677 0.0
H833 H 0.81489 0.08688 0.22327 0.0
H834 H 0.78994 0.09549 0.25037 0.0
H835 H 0.83082 0.07331 0.2523 0.0
C836 C 0.76686 0.1451 0.3178 0.0
C837 C 0.77523 0.11522 0.33075 0.0
C838 C 0.78579 0.15461 0.2971 0.0
C839 C 0.81338 0.13443 0.28877 0.0
C840 C 0.82141 0.10419 0.30125 0.0
H841 H 0.98276 0.20675 0.19403 0.0
H842 H 0.94773 0.18342 0.22762 0.0
C843 C 0.80242 0.09458 0.32202 0.0
C844 C 0.83509 0.14647 0.26799 0.0
H845 H 0.85997 0.12629 0.21041 0.0
C846 C 0.85336 0.17818 0.27006 0.0
C847 C 0.83716 0.12761 0.24618 0.0
C848 C 0.81695 0.09406 0.24269 0.0
C849 C 0.87383 0.19151 0.25094 0.0
C850 C 0.87653 0.17234 0.22931 0.0
C851 C 0.85805 0.14074 0.22712 0.0
C852 C 0.89792 0.18512 0.2086 0.0
C853 C 0.89187 0.22632 0.25386 0.0
C854 C 0.88158 0.193 0.18659 0.0
C855 C 0.9015 0.20632 0.16729 0.0
C856 C 0.93822 0.21184 0.16962 0.0
C857 C 0.95454 0.20318 0.19162 0.0
C858 C 0.93457 0.18989 0.21088 0.0
H859 H 0.88053 0.24106 0.2691 0.0
H860 H 0.9203 0.22284 0.25766 0.0
H861 H 0.88971 0.24174 0.23703 0.0
H862 H 0.85331 0.18937 0.18448 0.0
H863 H 0.88804 0.21248 0.15062 0.0
loop_
_geom_bond_atom_site_label_1
_geom_bond_atom_site_label_2
_geom_bond_distance
_geom_bond_site_symmetry_2
_ccdc_geom_bond_type
Mn0 O5 2.095 . S
Mn0 O15 2.162 . S
Mn0 O16 2.297 . S
Mn0 O24 2.385 . S
Mn0 O25 2.209 . S
Mn0 O26 2.094 . S
Mn1 O6 2.121 . S
Mn1 N8 2.257 1_455 S
Mn1 N17 2.282 1_455 S
Mn1 O25 2.215 . S
Mn1 O27 2.117 . S
C2 O24 1.234 . S
C2 O25 1.283 . S
C3 O15 1.281 . S
C3 O16 1.236 . S
C4 O26 1.240 . S
C4 O27 1.264 . S
O5 Mn0 2.095 . S
O5 C14 1.250 . S
O6 Mn1 2.121 . S
O6 C14 1.258 . S
C7 N8 1.326 . S
C7 C11 1.460 . S
C7 H13 0.929 1_655 S
N8 Mn1 2.257 1_655 S
N8 C7 1.326 . S
N8 C12 1.362 . S
C9 C10 1.258 . S
C9 C12 1.431 . S
C9 C29 1.449 . S
C10 C9 1.258 . S
C10 C11 1.477 . S
C10 H30 0.931 . S
C11 C7 1.460 . S
C11 C10 1.477 . S
C11 H31 0.930 . S
C12 N8 1.362 . S
C12 C9 1.431 . S
C12 C22 1.476 . S
H13 C7 0.929 1_455 S
C14 O5 1.250 . S
C14 O6 1.258 . S
O15 Mn0 2.162 . S
O15 C3 1.281 . S
O16 Mn0 2.297 . S
O16 C3 1.236 . S
N17 Mn1 2.282 1_655 S
N17 C18 1.328 . S
N17 C22 1.318 . S
C18 N17 1.328 . S
C18 C19 1.457 . S
C18 H23 0.929 . S
C19 C18 1.457 . S
C19 C20 1.291 . S
C19 H32 0.931 . S
C20 C19 1.291 . S
C20 C21 1.373 . S
C20 H33 0.929 . S
C21 C20 1.373 . S
C21 C22 1.396 . S
C21 C28 1.403 . S
C22 C12 1.476 . S
C22 N17 1.318 . S
C22 C21 1.396 . S
H23 C18 0.929 . S
O24 Mn0 2.385 . S
O24 C2 1.234 . S
O25 Mn0 2.209 . S
O25 Mn1 2.215 . S
O25 C2 1.283 . S
O26 Mn0 2.094 . S
O26 C4 1.240 . S
O27 Mn1 2.117 . S
O27 C4 1.264 . S
C28 C21 1.403 . S
C28 C29 1.399 . S
C28 H34 0.929 . S
C29 C9 1.449 . S
C29 C28 1.399 . S
C29 H35 0.930 . S
H30 C10 0.931 . S
H31 C11 0.930 . S
H32 C19 0.931 . S
H33 C20 0.929 . S
H34 C28 0.929 . S
H35 C29 0.930 . S
Mn36 O41 2.095 . S
Mn36 O51 2.162 . S
Mn36 O52 2.297 . S
Mn36 O60 2.385 . S
Mn36 O61 2.209 . S
Mn36 O62 2.094 . S
Mn37 O42 2.121 . S
Mn37 N44 2.257 . S
Mn37 N53 2.282 . S
Mn37 O61 2.215 . S
Mn37 O63 2.117 . S
C38 O60 1.234 . S
C38 O61 1.283 . S
C39 O51 1.281 . S
C39 O52 1.236 . S
C40 O62 1.240 . S
C40 O63 1.264 . S
O41 Mn36 2.095 . S
O41 C50 1.250 . S
O42 Mn37 2.121 . S
O42 C50 1.258 . S
C43 N44 1.326 . S
C43 C47 1.460 . S
C43 H49 0.929 . S
N44 Mn37 2.257 . S
N44 C43 1.326 . S
N44 C48 1.362 . S
C45 C46 1.258 . S
C45 C48 1.431 . S
C45 C65 1.449 . S
C46 C45 1.258 . S
C46 C47 1.477 . S
C46 H66 0.931 . S
C47 C43 1.460 . S
C47 C46 1.477 . S
C47 H67 0.930 . S
C48 N44 1.362 . S
C48 C45 1.431 . S
C48 C58 1.476 . S
H49 C43 0.929 . S
C50 O41 1.250 . S
C50 O42 1.258 . S
O51 Mn36 2.162 . S
O51 C39 1.281 . S
O52 Mn36 2.297 . S
O52 C39 1.236 . S
N53 Mn37 2.282 . S
N53 C54 1.328 . S
N53 C58 1.318 . S
C54 N53 1.328 . S
C54 C55 1.457 . S
C54 H59 0.929 . S
C55 C54 1.457 . S
C55 C56 1.291 . S
C55 H68 0.931 . S
C56 C55 1.291 . S
C56 C57 1.373 . S
C56 H69 0.929 . S
C57 C56 1.373 . S
C57 C58 1.396 . S
C57 C64 1.403 . S
C58 C48 1.476 . S
C58 N53 1.318 . S
C58 C57 1.396 . S
H59 C54 0.929 . S
O60 Mn36 2.385 . S
O60 C38 1.234 . S
O61 Mn36 2.209 . S
O61 Mn37 2.215 . S
O61 C38 1.283 . S
O62 Mn36 2.094 . S
O62 C40 1.240 . S
O63 Mn37 2.117 . S
O63 C40 1.264 . S
C64 C57 1.403 . S
C64 C65 1.399 . S
C64 H70 0.929 . S
C65 C45 1.449 . S
C65 C64 1.399 . S
C65 H71 0.930 . S
H66 C46 0.931 . S
H67 C47 0.930 . S
H68 C55 0.931 . S
H69 C56 0.929 . S
H70 C64 0.929 . S
H71 C65 0.930 . S
Mn72 O77 2.095 . S
Mn72 O87 2.162 . S
Mn72 O88 2.297 . S
Mn72 O96 2.385 . S
Mn72 O97 2.209 . S
Mn72 O98 2.094 . S
Mn73 O78 2.121 . S
Mn73 N80 2.257 1_655 S
Mn73 N89 2.282 1_655 S
Mn73 O97 2.215 . S
Mn73 O99 2.117 . S
C74 O96 1.234 . S
C74 O97 1.283 . S
C75 O87 1.281 . S
C75 O88 1.236 . S
C76 O98 1.240 . S
C76 O99 1.264 . S
O77 Mn72 2.095 . S
O77 C86 1.250 . S
O78 Mn73 2.121 . S
O78 C86 1.258 . S
C79 N80 1.326 . S
C79 C83 1.460 . S
C79 H85 0.929 1_455 S
N80 Mn73 2.257 1_455 S
N80 C79 1.326 . S
N80 C84 1.362 . S
C81 C82 1.258 . S
C81 C84 1.431 . S
C81 C101 1.449 . S
C82 C81 1.258 . S
C82 C83 1.477 . S
C82 H102 0.931 . S
C83 C79 1.460 . S
C83 C82 1.477 . S
C83 H103 0.930 . S
C84 N80 1.362 . S
C84 C81 1.431 . S
C84 C94 1.476 . S
H85 C79 0.929 1_655 S
C86 O77 1.250 . S
C86 O78 1.258 . S
O87 Mn72 2.162 . S
O87 C75 1.281 . S
O88 Mn72 2.297 . S
O88 C75 1.236 . S
N89 Mn73 2.282 1_455 S
N89 C90 1.328 . S
N89 C94 1.318 . S
C90 N89 1.328 . S
C90 C91 1.457 . S
C90 H95 0.929 . S
C91 C90 1.457 . S
C91 C92 1.291 . S
C91 H104 0.931 . S
C92 C91 1.291 . S
C92 C93 1.373 . S
C92 H105 0.929 . S
C93 C92 1.373 . S
C93 C94 1.396 . S
C93 C100 1.403 . S
C94 C84 1.476 . S
C94 N89 1.318 . S
C94 C93 1.396 . S
H95 C90 0.929 . S
O96 Mn72 2.385 . S
O96 C74 1.234 . S
O97 Mn72 2.209 . S
O97 Mn73 2.215 . S
O97 C74 1.283 . S
O98 Mn72 2.094 . S
O98 C76 1.240 . S
O99 Mn73 2.117 . S
O99 C76 1.264 . S
C100 C93 1.403 . S
C100 C101 1.399 . S
C100 H106 0.929 . S
C101 C81 1.449 . S
C101 C100 1.399 . S
C101 H107 0.930 . S
H102 C82 0.931 . S
H103 C83 0.930 . S
H104 C91 0.931 . S
H105 C92 0.929 . S
H106 C100 0.929 . S
H107 C101 0.930 . S
Mn108 O113 2.095 . S
Mn108 O123 2.162 . S
Mn108 O124 2.297 . S
Mn108 O132 2.385 . S
Mn108 O133 2.209 . S
Mn108 O134 2.094 . S
Mn109 O114 2.121 . S
Mn109 N116 2.257 . S
Mn109 N125 2.282 . S
Mn109 O133 2.215 . S
Mn109 O135 2.117 . S
C110 O132 1.234 . S
C110 O133 1.283 . S
C111 O123 1.281 . S
C111 O124 1.236 . S
C112 O134 1.240 . S
C112 O135 1.264 . S
O113 Mn108 2.095 . S
O113 C122 1.250 . S
O114 Mn109 2.121 . S
O114 C122 1.258 . S
C115 N116 1.326 . S
C115 C119 1.460 . S
C115 H121 0.929 . S
N116 Mn109 2.257 . S
N116 C115 1.326 . S
N116 C120 1.362 . S
C117 C118 1.258 . S
C117 C120 1.431 . S
C117 C137 1.449 . S
C118 C117 1.258 . S
C118 C119 1.477 . S
C118 H138 0.931 . S
C119 C115 1.460 . S
C119 C118 1.477 . S
C119 H139 0.930 . S
C120 N116 1.362 . S
C120 C117 1.431 . S
C120 C130 1.476 . S
H121 C115 0.929 . S
C122 O113 1.250 . S
C122 O114 1.258 . S
O123 Mn108 2.162 . S
O123 C111 1.281 . S
O124 Mn108 2.297 . S
O124 C111 1.236 . S
N125 Mn109 2.282 . S
N125 C126 1.328 . S
N125 C130 1.318 . S
C126 N125 1.328 . S
C126 C127 1.457 . S
C126 H131 0.929 . S
C127 C126 1.457 . S
C127 C128 1.291 . S
C127 H140 0.931 . S
C128 C127 1.291 . S
C128 C129 1.373 . S
C128 H141 0.929 . S
C129 C128 1.373 . S
C129 C130 1.396 . S
C129 C136 1.403 . S
C130 C120 1.476 . S
C130 N125 1.318 . S
C130 C129 1.396 . S
H131 C126 0.929 . S
O132 Mn108 2.385 . S
O132 C110 1.234 . S
O133 Mn108 2.209 . S
O133 Mn109 2.215 . S
O133 C110 1.283 . S
O134 Mn108 2.094 . S
O134 C112 1.240 . S
O135 Mn109 2.117 . S
O135 C112 1.264 . S
C136 C129 1.403 . S
C136 C137 1.399 . S
C136 H142 0.929 . S
C137 C117 1.449 . S
C137 C136 1.399 . S
C137 H143 0.930 . S
H138 C118 0.931 . S
H139 C119 0.930 . S
H140 C127 0.931 . S
H141 C128 0.929 . S
H142 C136 0.929 . S
H143 C137 0.930 . S
Mn144 O149 2.095 . S
Mn144 O159 2.162 . S
Mn144 O160 2.297 . S
Mn144 O168 2.385 . S
Mn144 O169 2.209 . S
Mn144 O170 2.094 . S
Mn145 O150 2.121 . S
Mn145 N152 2.257 1_655 S
Mn145 N161 2.282 1_655 S
Mn145 O169 2.215 . S
Mn145 O171 2.117 . S
C146 O168 1.234 . S
C146 O169 1.283 . S
C147 O159 1.281 . S
C147 O160 1.236 . S
C148 O170 1.240 . S
C148 O171 1.264 . S
O149 Mn144 2.095 . S
O149 C158 1.250 . S
O150 Mn145 2.121 . S
O150 C158 1.258 . S
C151 N152 1.326 . S
C151 C155 1.460 . S
C151 H157 0.929 1_455 S
N152 Mn145 2.257 1_455 S
N152 C151 1.326 . S
N152 C156 1.362 . S
C153 C154 1.258 . S
C153 C156 1.431 . S
C153 C173 1.449 . S
C154 C153 1.258 . S
C154 C155 1.477 . S
C154 H174 0.931 . S
C155 C151 1.460 . S
C155 C154 1.477 . S
C155 H175 0.930 . S
C156 N152 1.362 . S
C156 C153 1.431 . S
C156 C166 1.476 . S
H157 C151 0.929 1_655 S
C158 O149 1.250 . S
C158 O150 1.258 . S
O159 Mn144 2.162 . S
O159 C147 1.281 . S
O160 Mn144 2.297 . S
O160 C147 1.236 . S
N161 Mn145 2.282 1_455 S
N161 C162 1.328 . S
N161 C166 1.318 . S
C162 N161 1.328 . S
C162 C163 1.457 . S
C162 H167 0.927 1_455 S
C163 C162 1.457 . S
C163 C164 1.291 . S
C163 H176 0.931 . S
C164 C163 1.291 . S
C164 C165 1.373 . S
C164 H177 0.929 . S
C165 C164 1.373 . S
C165 C166 1.396 . S
C165 C172 1.403 . S
C166 C156 1.476 . S
C166 N161 1.318 . S
C166 C165 1.396 . S
H167 C162 0.927 1_655 S
O168 Mn144 2.385 . S
O168 C146 1.234 . S
O169 Mn144 2.209 . S
O169 Mn145 2.215 . S
O169 C146 1.283 . S
O170 Mn144 2.094 . S
O170 C148 1.240 . S
O171 Mn145 2.117 . S
O171 C148 1.264 . S
C172 C165 1.403 . S
C172 C173 1.399 . S
C172 H178 0.929 . S
C173 C153 1.449 . S
C173 C172 1.399 . S
C173 H179 0.930 . S
H174 C154 0.931 . S
H175 C155 0.930 . S
H176 C163 0.931 . S
H177 C164 0.929 . S
H178 C172 0.929 . S
H179 C173 0.930 . S
Mn180 O185 2.095 . S
Mn180 O195 2.162 . S
Mn180 O196 2.297 . S
Mn180 O204 2.385 . S
Mn180 O205 2.209 . S
Mn180 O206 2.094 . S
Mn181 O186 2.121 . S
Mn181 N188 2.253 1_545 S
Mn181 N197 2.282 1_545 S
Mn181 O205 2.215 . S
Mn181 O207 2.117 . S
C182 O204 1.234 . S
C182 O205 1.283 . S
C183 O195 1.281 . S
C183 O196 1.236 . S
C184 O206 1.240 . S
C184 O207 1.264 . S
O185 Mn180 2.095 . S
O185 C194 1.250 . S
O186 Mn181 2.121 . S
O186 C194 1.258 . S
C187 N188 1.325 1_545 S
C187 C191 1.460 1_545 S
C187 H193 0.929 . S
N188 Mn181 2.253 1_565 S
N188 C187 1.325 1_565 S
N188 C192 1.368 . S
C189 C190 1.258 . S
C189 C192 1.431 . S
C189 C209 1.449 . S
C190 C189 1.258 . S
C190 C191 1.477 . S
C190 H210 0.931 . S
C191 C187 1.460 1_565 S
C191 C190 1.477 . S
C191 H211 0.930 . S
C192 N188 1.368 . S
C192 C189 1.431 . S
C192 C202 1.476 . S
H193 C187 0.929 . S
C194 O185 1.250 . S
C194 O186 1.258 . S
O195 Mn180 2.162 . S
O195 C183 1.281 . S
O196 Mn180 2.297 . S
O196 C183 1.236 . S
N197 Mn181 2.282 1_565 S
N197 C198 1.328 . S
N197 C202 1.318 . S
C198 N197 1.328 . S
C198 C199 1.457 . S
C198 H203 0.929 1_565 S
C199 C198 1.457 . S
C199 C200 1.291 . S
C199 H212 0.931 . S
C200 C199 1.291 . S
C200 C201 1.373 . S
C200 H213 0.929 . S
C201 C200 1.373 . S
C201 C202 1.396 . S
C201 C208 1.403 . S
C202 C192 1.476 . S
C202 N197 1.318 . S
C202 C201 1.396 . S
H203 C198 0.929 1_545 S
O204 Mn180 2.385 . S
O204 C182 1.234 . S
O205 Mn180 2.209 . S
O205 Mn181 2.215 . S
O205 C182 1.283 . S
O206 Mn180 2.094 . S
O206 C184 1.240 . S
O207 Mn181 2.117 . S
O207 C184 1.264 . S
C208 C201 1.403 . S
C208 C209 1.399 . S
C208 H214 0.929 . S
C209 C189 1.449 . S
C209 C208 1.399 . S
C209 H215 0.930 . S
H210 C190 0.931 . S
H211 C191 0.930 . S
H212 C199 0.931 . S
H213 C200 0.929 . S
H214 C208 0.929 . S
H215 C209 0.930 . S
Mn216 O221 2.095 . S
Mn216 O231 2.162 . S
Mn216 O232 2.297 . S
Mn216 O240 2.385 . S
Mn216 O241 2.209 . S
Mn216 O242 2.094 . S
Mn217 O222 2.121 . S
Mn217 N224 2.257 1_455 S
Mn217 N233 2.282 1_455 S
Mn217 O241 2.215 . S
Mn217 O243 2.117 . S
C218 O240 1.234 . S
C218 O241 1.283 . S
C219 O231 1.281 . S
C219 O232 1.236 . S
C220 O242 1.240 . S
C220 O243 1.264 . S
O221 Mn216 2.095 . S
O221 C230 1.250 . S
O222 Mn217 2.121 . S
O222 C230 1.258 . S
C223 N224 1.326 . S
C223 C227 1.460 . S
C223 H229 0.929 1_655 S
N224 Mn217 2.257 1_655 S
N224 C223 1.326 . S
N224 C228 1.362 . S
C225 C226 1.258 . S
C225 C228 1.431 . S
C225 C245 1.449 . S
C226 C225 1.258 . S
C226 C227 1.477 . S
C226 H246 0.931 . S
C227 C223 1.460 . S
C227 C226 1.477 . S
C227 H247 0.930 . S
C228 N224 1.362 . S
C228 C225 1.431 . S
C228 C238 1.476 . S
H229 C223 0.929 1_455 S
C230 O221 1.250 . S
C230 O222 1.258 . S
O231 Mn216 2.162 . S
O231 C219 1.281 . S
O232 Mn216 2.297 . S
O232 C219 1.236 . S
N233 Mn217 2.282 1_655 S
N233 C234 1.328 . S
N233 C238 1.318 . S
C234 N233 1.328 . S
C234 C235 1.457 . S
C234 H239 0.927 1_655 S
C235 C234 1.457 . S
C235 C236 1.291 . S
C235 H248 0.931 . S
C236 C235 1.291 . S
C236 C237 1.373 . S
C236 H249 0.929 . S
C237 C236 1.373 . S
C237 C238 1.396 . S
C237 C244 1.403 . S
C238 C228 1.476 . S
C238 N233 1.318 . S
C238 C237 1.396 . S
H239 C234 0.927 1_455 S
O240 Mn216 2.385 . S
O240 C218 1.234 . S
O241 Mn216 2.209 . S
O241 Mn217 2.215 . S
O241 C218 1.283 . S
O242 Mn216 2.094 . S
O242 C220 1.240 . S
O243 Mn217 2.117 . S
O243 C220 1.264 . S
C244 C237 1.403 . S
C244 C245 1.399 . S
C244 H250 0.929 . S
C245 C225 1.449 . S
C245 C244 1.399 . S
C245 H251 0.930 . S
H246 C226 0.931 . S
H247 C227 0.930 . S
H248 C235 0.931 . S
H249 C236 0.929 . S
H250 C244 0.929 . S
H251 C245 0.930 . S
Mn252 O257 2.095 . S
Mn252 O267 2.162 . S
Mn252 O268 2.297 . S
Mn252 O276 2.385 . S
Mn252 O277 2.209 . S
Mn252 O278 2.094 . S
Mn253 O258 2.121 . S
Mn253 N260 2.253 1_565 S
Mn253 N269 2.282 1_565 S
Mn253 O277 2.215 . S
Mn253 O279 2.117 . S
C254 O276 1.234 . S
C254 O277 1.283 . S
C255 O267 1.281 . S
C255 O268 1.236 . S
C256 O278 1.240 . S
C256 O279 1.264 . S
O257 Mn252 2.095 . S
O257 C266 1.250 . S
O258 Mn253 2.121 . S
O258 C266 1.258 . S
C259 N260 1.325 1_565 S
C259 C263 1.460 1_565 S
C259 H265 0.929 . S
N260 Mn253 2.253 1_545 S
N260 C259 1.325 1_545 S
N260 C264 1.368 . S
C261 C262 1.258 . S
C261 C264 1.431 . S
C261 C281 1.449 . S
C262 C261 1.258 . S
C262 C263 1.477 . S
C262 H282 0.931 . S
C263 C259 1.460 1_545 S
C263 C262 1.477 . S
C263 H283 0.930 . S
C264 N260 1.368 . S
C264 C261 1.431 . S
C264 C274 1.476 . S
H265 C259 0.929 . S
C266 O257 1.250 . S
C266 O258 1.258 . S
O267 Mn252 2.162 . S
O267 C255 1.281 . S
O268 Mn252 2.297 . S
O268 C255 1.236 . S
N269 Mn253 2.282 1_545 S
N269 C270 1.328 . S
N269 C274 1.318 . S
C270 N269 1.328 . S
C270 C271 1.457 . S
C270 H275 0.929 1_545 S
C271 C270 1.457 . S
C271 C272 1.291 . S
C271 H284 0.931 . S
C272 C271 1.291 . S
C272 C273 1.373 . S
C272 H285 0.929 . S
C273 C272 1.373 . S
C273 C274 1.396 . S
C273 C280 1.403 . S
C274 C264 1.476 . S
C274 N269 1.318 . S
C274 C273 1.396 . S
H275 C270 0.929 1_565 S
O276 Mn252 2.385 . S
O276 C254 1.234 . S
O277 Mn252 2.209 . S
O277 Mn253 2.215 . S
O277 C254 1.283 . S
O278 Mn252 2.094 . S
O278 C256 1.240 . S
O279 Mn253 2.117 . S
O279 C256 1.264 . S
C280 C273 1.403 . S
C280 C281 1.399 . S
C280 H286 0.929 . S
C281 C261 1.449 . S
C281 C280 1.399 . S
C281 H287 0.930 . S
H282 C262 0.931 . S
H283 C263 0.930 . S
H284 C271 0.931 . S
H285 C272 0.929 . S
H286 C280 0.929 . S
H287 C281 0.930 . S
H288 C296 0.929 . S
H289 C298 0.930 1_455 S
H290 C300 0.930 . S
H291 C303 0.929 . S
H292 C306 0.930 . S
H293 C308 0.960 . S
H294 C308 0.960 . S
H295 C308 0.960 . S
C296 H288 0.929 . S
C296 C297 1.377 . S
C296 C298 1.384 . S
C297 C296 1.377 . S
C297 C303 1.390 . S
C298 H289 0.930 1_655 S
C298 C296 1.384 . S
C298 C299 1.372 . S
C299 C298 1.372 . S
C299 C300 1.400 . S
C299 C304 1.490 . S
C300 H290 0.930 . S
C300 C299 1.400 . S
C300 C303 1.386 . S
H301 C317 0.930 . S
H302 C318 0.931 1_655 S
C303 H291 0.929 . S
C303 C297 1.390 . S
C303 C300 1.386 . S
C304 C299 1.490 . S
C304 C306 1.395 1_655 S
C304 C307 1.403 . S
H305 C311 0.930 . S
C306 H292 0.930 . S
C306 C304 1.395 1_455 S
C306 C309 1.403 . S
C307 C304 1.403 . S
C307 C308 1.524 . S
C307 C311 1.400 . S
C308 H293 0.960 . S
C308 H294 0.960 . S
C308 H295 0.960 . S
C308 C307 1.524 . S
C309 C306 1.403 . S
C309 C310 1.392 . S
C309 C313 1.495 . S
C310 C309 1.392 . S
C310 C311 1.385 1_455 S
C310 C312 1.478 . S
C311 H305 0.930 . S
C311 C307 1.400 . S
C311 C310 1.385 1_655 S
C312 C310 1.478 . S
C312 C314 1.381 . S
C312 C318 1.383 . S
C313 C309 1.495 . S
C313 H319 0.959 . S
C313 H320 0.961 . S
C313 H321 0.960 . S
C314 C312 1.381 . S
C314 C315 1.394 . S
C314 H322 0.930 . S
C315 C314 1.394 . S
C315 C316 1.383 . S
C315 H323 0.929 . S
C316 C315 1.383 . S
C316 C317 1.377 . S
C317 H301 0.930 . S
C317 C316 1.377 . S
C317 C318 1.379 . S
C318 H302 0.931 1_455 S
C318 C312 1.383 . S
C318 C317 1.379 . S
H319 C313 0.959 . S
H320 C313 0.961 . S
H321 C313 0.960 . S
H322 C314 0.930 . S
H323 C315 0.929 . S
H324 C332 0.929 . S
H325 C334 0.930 . S
H326 C336 0.930 . S
H327 C339 0.929 . S
H328 C342 0.930 . S
H329 C344 0.960 . S
H330 C344 0.960 . S
H331 C344 0.960 . S
C332 H324 0.929 . S
C332 C333 1.377 . S
C332 C334 1.384 . S
C333 C332 1.377 . S
C333 C339 1.390 . S
C334 H325 0.930 . S
C334 C332 1.384 . S
C334 C335 1.372 . S
C335 C334 1.372 . S
C335 C336 1.400 . S
C335 C340 1.490 . S
C336 H326 0.930 . S
C336 C335 1.400 . S
C336 C339 1.386 . S
H337 C353 0.930 . S
H338 C354 0.931 . S
C339 H327 0.929 . S
C339 C333 1.390 . S
C339 C336 1.386 . S
C340 C335 1.490 . S
C340 C342 1.395 . S
C340 C343 1.403 . S
H341 C347 0.930 . S
C342 H328 0.930 . S
C342 C340 1.395 . S
C342 C345 1.403 1_545 S
C343 C340 1.403 . S
C343 C344 1.524 . S
C343 C347 1.400 1_545 S
C344 H329 0.960 . S
C344 H330 0.960 . S
C344 H331 0.960 . S
C344 C343 1.524 . S
C345 C342 1.403 1_565 S
C345 C346 1.392 . S
C345 C349 1.495 . S
C346 C345 1.392 . S
C346 C347 1.385 . S
C346 C348 1.478 . S
C347 H341 0.930 . S
C347 C343 1.400 1_565 S
C347 C346 1.385 . S
C348 C346 1.478 . S
C348 C350 1.381 . S
C348 C354 1.383 . S
C349 C345 1.495 . S
C349 H355 0.959 . S
C349 H356 0.961 . S
C349 H357 0.960 . S
C350 C348 1.381 . S
C350 C351 1.394 . S
C350 H358 0.930 . S
C351 C350 1.394 . S
C351 C352 1.383 . S
C351 H359 0.929 . S
C352 C351 1.383 . S
C352 C353 1.377 . S
C353 H337 0.930 . S
C353 C352 1.377 . S
C353 C354 1.379 . S
C354 H338 0.931 . S
C354 C348 1.383 . S
C354 C353 1.379 . S
H355 C349 0.959 . S
H356 C349 0.961 . S
H357 C349 0.960 . S
H358 C350 0.930 . S
H359 C351 0.929 . S
H360 C368 0.929 . S
H361 C370 0.930 . S
H362 C372 0.930 . S
H363 C375 0.929 . S
H364 C378 0.930 . S
H365 C380 0.960 . S
H366 C380 0.960 . S
H367 C380 0.961 . S
C368 H360 0.929 . S
C368 C369 1.377 . S
C368 C370 1.384 . S
C369 C368 1.377 . S
C369 C375 1.390 . S
C370 H361 0.930 . S
C370 C368 1.384 . S
C370 C371 1.372 . S
C371 C370 1.372 . S
C371 C372 1.400 . S
C371 C376 1.490 . S
C372 H362 0.930 . S
C372 C371 1.400 . S
C372 C375 1.386 . S
H373 C389 0.930 . S
H374 C390 0.931 . S
C375 H363 0.929 . S
C375 C369 1.390 . S
C375 C372 1.386 . S
C376 C371 1.490 . S
C376 C378 1.395 . S
C376 C379 1.403 1_655 S
H377 C383 0.930 . S
C378 H364 0.930 . S
C378 C376 1.395 . S
C378 C381 1.403 . S
C379 C376 1.403 1_455 S
C379 C380 1.524 . S
C379 C383 1.400 . S
C380 H365 0.960 . S
C380 H366 0.960 . S
C380 H367 0.961 . S
C380 C379 1.524 . S
C381 C378 1.403 . S
C381 C382 1.392 1_655 S
C381 C385 1.495 . S
C382 C381 1.392 1_455 S
C382 C383 1.385 . S
C382 C384 1.478 . S
C383 H377 0.930 . S
C383 C379 1.400 . S
C383 C382 1.385 . S
C384 C382 1.478 . S
C384 C386 1.381 . S
C384 C390 1.383 . S
C385 C381 1.495 . S
C385 H391 0.959 . S
C385 H392 0.961 . S
C385 H393 0.951 1_655 S
C386 C384 1.381 . S
C386 C387 1.394 . S
C386 H394 0.930 . S
C387 C386 1.394 . S
C387 C388 1.383 . S
C387 H395 0.929 . S
C388 C387 1.383 . S
C388 C389 1.377 . S
C389 H373 0.930 . S
C389 C388 1.377 . S
C389 C390 1.379 . S
C390 H374 0.931 . S
C390 C384 1.383 . S
C390 C389 1.379 . S
H391 C385 0.959 . S
H392 C385 0.961 . S
H393 C385 0.951 1_455 S
H394 C386 0.930 . S
H395 C387 0.929 . S
H396 C404 0.929 . S
H397 C406 0.930 . S
H398 C408 0.930 . S
H399 C411 0.929 . S
H400 C414 0.930 . S
H401 C416 0.960 . S
H402 C416 0.960 . S
H403 C416 0.960 . S
C404 H396 0.929 . S
C404 C405 1.377 . S
C404 C406 1.384 . S
C405 C404 1.377 . S
C405 C411 1.390 . S
C406 H397 0.930 . S
C406 C404 1.384 . S
C406 C407 1.372 . S
C407 C406 1.372 . S
C407 C408 1.400 . S
C407 C412 1.490 . S
C408 H398 0.930 . S
C408 C407 1.400 . S
C408 C411 1.386 . S
H409 C425 0.930 . S
H410 C426 0.931 . S
C411 H399 0.929 . S
C411 C405 1.390 . S
C411 C408 1.386 . S
C412 C407 1.490 . S
C412 C414 1.395 . S
C412 C415 1.403 1_545 S
H413 C419 0.930 . S
C414 H400 0.930 . S
C414 C412 1.395 . S
C414 C417 1.403 . S
C415 C412 1.403 1_565 S
C415 C416 1.524 . S
C415 C419 1.400 . S
C416 H401 0.960 . S
C416 H402 0.960 . S
C416 H403 0.960 . S
C416 C415 1.524 . S
C417 C414 1.403 . S
C417 C418 1.392 1_545 S
C417 C421 1.495 . S
C418 C417 1.392 1_565 S
C418 C419 1.385 . S
C418 C420 1.478 . S
C419 H413 0.930 . S
C419 C415 1.400 . S
C419 C418 1.385 . S
C420 C418 1.478 . S
C420 C422 1.381 . S
C420 C426 1.383 . S
C421 C417 1.495 . S
C421 H427 0.959 . S
C421 H428 0.961 . S
C421 H429 0.960 . S
C422 C420 1.381 . S
C422 C423 1.394 . S
C422 H430 0.930 . S
C423 C422 1.394 . S
C423 C424 1.383 . S
C423 H431 0.929 . S
C424 C423 1.383 . S
C424 C425 1.377 . S
C425 H409 0.930 . S
C425 C424 1.377 . S
C425 C426 1.379 . S
C426 H410 0.931 . S
C426 C420 1.383 . S
C426 C425 1.379 . S
H427 C421 0.959 . S
H428 C421 0.961 . S
H429 C421 0.960 . S
H430 C422 0.930 . S
H431 C423 0.929 . S
H432 C440 0.929 . S
H433 C442 0.930 . S
H434 C444 0.930 . S
H435 C447 0.929 . S
H436 C450 0.930 . S
H437 C452 0.960 . S
H438 C452 0.960 . S
H439 C452 0.960 . S
C440 H432 0.929 . S
C440 C441 1.377 . S
C440 C442 1.384 1_565 S
C441 C440 1.377 . S
C441 C447 1.390 1_565 S
C442 H433 0.930 . S
C442 C440 1.384 1_545 S
C442 C443 1.372 . S
C443 C442 1.372 . S
C443 C444 1.400 . S
C443 C448 1.490 . S
C444 H434 0.930 . S
C444 C443 1.400 . S
C444 C447 1.386 . S
H445 C461 0.930 . S
H446 C462 0.931 . S
C447 H435 0.929 . S
C447 C441 1.390 1_545 S
C447 C444 1.386 . S
C448 C443 1.490 . S
C448 C450 1.395 . S
C448 C451 1.403 . S
H449 C455 0.930 . S
C450 H436 0.930 . S
C450 C448 1.395 . S
C450 C453 1.403 . S
C451 C448 1.403 . S
C451 C452 1.524 . S
C451 C455 1.400 . S
C452 H437 0.960 . S
C452 H438 0.960 . S
C452 H439 0.960 . S
C452 C451 1.524 . S
C453 C450 1.403 . S
C453 C454 1.392 . S
C453 C457 1.495 . S
C454 C453 1.392 . S
C454 C455 1.385 . S
C454 C456 1.478 . S
C455 H449 0.930 . S
C455 C451 1.400 . S
C455 C454 1.385 . S
C456 C454 1.478 . S
C456 C458 1.381 . S
C456 C462 1.383 . S
C457 C453 1.495 . S
C457 H463 0.959 . S
C457 H464 0.961 . S
C457 H465 0.960 . S
C458 C456 1.381 . S
C458 C459 1.394 . S
C458 H466 0.930 . S
C459 C458 1.394 . S
C459 C460 1.383 . S
C459 H467 0.929 . S
C460 C459 1.383 . S
C460 C461 1.377 . S
C461 H445 0.930 . S
C461 C460 1.377 . S
C461 C462 1.379 . S
C462 H446 0.931 . S
C462 C456 1.383 . S
C462 C461 1.379 . S
H463 C457 0.959 . S
H464 C457 0.961 . S
H465 C457 0.960 . S
H466 C458 0.930 . S
H467 C459 0.929 . S
H468 C476 0.929 . S
H469 C478 0.930 . S
H470 C480 0.930 . S
H471 C483 0.929 . S
H472 C486 0.930 . S
H473 C488 0.960 . S
H474 C488 0.960 . S
H475 C488 0.960 . S
C476 H468 0.929 . S
C476 C477 1.377 . S
C476 C478 1.384 . S
C477 C476 1.377 . S
C477 C483 1.390 . S
C478 H469 0.930 . S
C478 C476 1.384 . S
C478 C479 1.372 . S
C479 C478 1.372 . S
C479 C480 1.400 . S
C479 C484 1.490 . S
C480 H470 0.930 . S
C480 C479 1.400 . S
C480 C483 1.386 . S
H481 C497 0.930 . S
H482 C498 0.931 . S
C483 H471 0.929 . S
C483 C477 1.390 . S
C483 C480 1.386 . S
C484 C479 1.490 . S
C484 C486 1.395 . S
C484 C487 1.403 . S
H485 C491 0.930 . S
C486 H472 0.930 . S
C486 C484 1.395 . S
C486 C489 1.403 . S
C487 C484 1.403 . S
C487 C488 1.524 . S
C487 C491 1.400 . S
C488 H473 0.960 . S
C488 H474 0.960 . S
C488 H475 0.960 . S
C488 C487 1.524 . S
C489 C486 1.403 . S
C489 C490 1.392 . S
C489 C493 1.495 . S
C490 C489 1.392 . S
C490 C491 1.385 . S
C490 C492 1.478 . S
C491 H485 0.930 . S
C491 C487 1.400 . S
C491 C490 1.385 . S
C492 C490 1.478 . S
C492 C494 1.381 . S
C492 C498 1.383 . S
C493 C489 1.495 . S
C493 H499 0.959 . S
C493 H500 0.961 . S
C493 H501 0.960 . S
C494 C492 1.381 . S
C494 C495 1.394 1_455 S
C494 H502 0.930 . S
C495 C494 1.394 1_655 S
C495 C496 1.383 . S
C495 H503 0.929 . S
C496 C495 1.383 . S
C496 C497 1.377 1_655 S
C497 H481 0.930 . S
C497 C496 1.377 1_455 S
C497 C498 1.379 . S
C498 H482 0.931 . S
C498 C492 1.383 . S
C498 C497 1.379 . S
H499 C493 0.959 . S
H500 C493 0.961 . S
H501 C493 0.960 . S
H502 C494 0.930 . S
H503 C495 0.929 . S
H504 C512 0.929 . S
H505 C514 0.930 . S
H506 C516 0.930 . S
H507 C519 0.929 . S
H508 C522 0.930 . S
H509 C524 0.960 . S
H510 C524 0.960 . S
H511 C524 0.960 . S
C512 H504 0.929 . S
C512 C513 1.377 1_565 S
C512 C514 1.384 . S
C513 C512 1.377 1_545 S
C513 C519 1.390 . S
C514 H505 0.930 . S
C514 C512 1.384 . S
C514 C515 1.372 . S
C515 C514 1.372 . S
C515 C516 1.400 . S
C515 C520 1.490 . S
C516 H506 0.930 . S
C516 C515 1.400 . S
C516 C519 1.386 1_565 S
H517 C533 0.930 . S
H518 C534 0.931 . S
C519 H507 0.929 . S
C519 C513 1.390 . S
C519 C516 1.386 1_545 S
C520 C515 1.490 . S
C520 C522 1.395 . S
C520 C523 1.403 . S
H521 C527 0.930 . S
C522 H508 0.930 . S
C522 C520 1.395 . S
C522 C525 1.403 . S
C523 C520 1.403 . S
C523 C524 1.524 . S
C523 C527 1.400 . S
C524 H509 0.960 . S
C524 H510 0.960 . S
C524 H511 0.960 . S
C524 C523 1.524 . S
C525 C522 1.403 . S
C525 C526 1.392 . S
C525 C529 1.495 . S
C526 C525 1.392 . S
C526 C527 1.385 . S
C526 C528 1.478 . S
C527 H521 0.930 . S
C527 C523 1.400 . S
C527 C526 1.385 . S
C528 C526 1.478 . S
C528 C530 1.381 . S
C528 C534 1.383 . S
C529 C525 1.495 . S
C529 H535 0.959 . S
C529 H536 0.961 . S
C529 H537 0.960 . S
C530 C528 1.381 . S
C530 C531 1.394 . S
C530 H538 0.930 . S
C531 C530 1.394 . S
C531 C532 1.383 . S
C531 H539 0.929 . S
C532 C531 1.383 . S
C532 C533 1.377 . S
C533 H517 0.930 . S
C533 C532 1.377 . S
C533 C534 1.379 . S
C534 H518 0.931 . S
C534 C528 1.383 . S
C534 C533 1.379 . S
H535 C529 0.959 . S
H536 C529 0.961 . S
H537 C529 0.960 . S
H538 C530 0.930 . S
H539 C531 0.929 . S
H540 C548 0.929 . S
H541 C550 0.930 . S
H542 C552 0.930 . S
H543 C555 0.929 . S
H544 C558 0.930 . S
H545 C560 0.960 . S
H546 C560 0.960 . S
H547 C560 0.960 . S
C548 H540 0.929 . S
C548 C549 1.377 . S
C548 C550 1.384 . S
C549 C548 1.377 . S
C549 C555 1.390 . S
C550 H541 0.930 . S
C550 C548 1.384 . S
C550 C551 1.372 . S
C551 C550 1.372 . S
C551 C552 1.400 . S
C551 C556 1.490 . S
C552 H542 0.930 . S
C552 C551 1.400 . S
C552 C555 1.386 . S
H553 C569 0.930 . S
H554 C570 0.931 . S
C555 H543 0.929 . S
C555 C549 1.390 . S
C555 C552 1.386 . S
C556 C551 1.490 . S
C556 C558 1.395 . S
C556 C559 1.403 . S
H557 C563 0.930 . S
C558 H544 0.930 . S
C558 C556 1.395 . S
C558 C561 1.403 . S
C559 C556 1.403 . S
C559 C560 1.524 . S
C559 C563 1.400 . S
C560 H545 0.960 . S
C560 H546 0.960 . S
C560 H547 0.960 . S
C560 C559 1.524 . S
C561 C558 1.403 . S
C561 C562 1.392 . S
C561 C565 1.495 . S
C562 C561 1.392 . S
C562 C563 1.385 . S
C562 C564 1.478 . S
C563 H557 0.930 . S
C563 C559 1.400 . S
C563 C562 1.385 . S
C564 C562 1.478 . S
C564 C566 1.381 . S
C564 C570 1.383 . S
C565 C561 1.495 . S
C565 H571 0.959 . S
C565 H572 0.961 . S
C565 H573 0.960 . S
C566 C564 1.381 . S
C566 C567 1.394 . S
C566 H574 0.930 . S
C567 C566 1.394 . S
C567 C568 1.383 1_655 S
C567 H575 0.929 . S
C568 C567 1.383 1_455 S
C568 C569 1.377 . S
C569 H553 0.930 . S
C569 C568 1.377 . S
C569 C570 1.379 1_455 S
C570 H554 0.931 . S
C570 C564 1.383 . S
C570 C569 1.379 1_655 S
H571 C565 0.959 . S
H572 C565 0.961 . S
H573 C565 0.960 . S
H574 C566 0.930 . S
H575 C567 0.929 . S
H576 C584 0.929 . S
H577 C586 0.930 . S
H578 C588 0.930 . S
H579 C591 0.929 . S
H580 C594 0.930 . S
H581 C596 0.960 . S
H582 C596 0.960 . S
H583 C596 0.960 . S
C584 H576 0.929 . S
C584 C585 1.377 . S
C584 C586 1.384 1_565 S
C585 C584 1.377 . S
C585 C591 1.390 . S
C586 H577 0.930 . S
C586 C584 1.384 1_545 S
C586 C587 1.372 . S
C587 C586 1.372 . S
C587 C588 1.400 . S
C587 C592 1.490 . S
C588 H578 0.930 . S
C588 C587 1.400 . S
C588 C591 1.386 1_545 S
H589 C605 0.930 . S
H590 C606 0.931 . S
C591 H579 0.929 . S
C591 C585 1.390 . S
C591 C588 1.386 1_565 S
C592 C587 1.490 . S
C592 C594 1.395 1_556 S
C592 C595 1.403 . S
H593 C599 0.930 . S
C594 H580 0.930 . S
C594 C592 1.395 1_554 S
C594 C597 1.403 . S
C595 C592 1.403 . S
C595 C596 1.524 . S
C595 C599 1.400 . S
C596 H581 0.960 . S
C596 H582 0.960 . S
C596 H583 0.960 . S
C596 C595 1.524 . S
C597 C594 1.403 . S
C597 C598 1.392 . S
C597 C601 1.495 . S
C598 C597 1.392 . S
C598 C599 1.385 1_554 S
C598 C600 1.478 . S
C599 H593 0.930 . S
C599 C595 1.400 . S
C599 C598 1.385 1_556 S
C600 C598 1.478 . S
C600 C602 1.381 . S
C600 C606 1.383 . S
C601 C597 1.495 . S
C601 H607 0.959 . S
C601 H608 0.961 . S
C601 H609 0.960 . S
C602 C600 1.381 . S
C602 C603 1.394 . S
C602 H610 0.930 . S
C603 C602 1.394 . S
C603 C604 1.383 . S
C603 H611 0.929 . S
C604 C603 1.383 . S
C604 C605 1.377 . S
C605 H589 0.930 . S
C605 C604 1.377 . S
C605 C606 1.379 . S
C606 H590 0.931 . S
C606 C600 1.383 . S
C606 C605 1.379 . S
H607 C601 0.959 . S
H608 C601 0.961 . S
H609 C601 0.960 . S
H610 C602 0.930 . S
H611 C603 0.929 . S
H612 C620 0.929 . S
H613 C622 0.930 . S
H614 C624 0.930 . S
H615 C627 0.929 . S
H616 C630 0.930 . S
H617 C632 0.960 . S
H618 C632 0.960 . S
H619 C632 0.960 . S
C620 H612 0.929 . S
C620 C621 1.377 . S
C620 C622 1.384 . S
C621 C620 1.377 . S
C621 C627 1.390 . S
C622 H613 0.930 . S
C622 C620 1.384 . S
C622 C623 1.372 . S
C623 C622 1.372 . S
C623 C624 1.400 . S
C623 C628 1.490 . S
C624 H614 0.930 . S
C624 C623 1.400 . S
C624 C627 1.386 . S
H625 C641 0.927 1_655 S
H626 C642 0.931 . S
C627 H615 0.929 . S
C627 C621 1.390 . S
C627 C624 1.386 . S
C628 C623 1.490 . S
C628 C630 1.395 1_556 S
C628 C631 1.403 . S
H629 C635 0.930 . S
C630 H616 0.930 . S
C630 C628 1.395 1_554 S
C630 C633 1.403 . S
C631 C628 1.403 . S
C631 C632 1.524 . S
C631 C635 1.400 . S
C632 H617 0.960 . S
C632 H618 0.960 . S
C632 H619 0.960 . S
C632 C631 1.524 . S
C633 C630 1.403 . S
C633 C634 1.392 . S
C633 C637 1.495 . S
C634 C633 1.392 . S
C634 C635 1.385 1_554 S
C634 C636 1.478 . S
C635 H629 0.930 . S
C635 C631 1.400 . S
C635 C634 1.385 1_556 S
C636 C634 1.478 . S
C636 C638 1.381 . S
C636 C642 1.383 . S
C637 C633 1.495 . S
C637 H643 0.959 . S
C637 H644 0.961 . S
C637 H645 0.960 . S
C638 C636 1.381 . S
C638 C639 1.394 1_455 S
C638 H646 0.930 . S
C639 C638 1.394 1_655 S
C639 C640 1.383 . S
C639 H647 0.929 . S
C640 C639 1.383 . S
C640 C641 1.373 1_655 S
C641 H625 0.927 1_455 S
C641 C640 1.373 1_455 S
C641 C642 1.386 . S
C642 H626 0.931 . S
C642 C636 1.383 . S
C642 C641 1.386 . S
H643 C637 0.959 . S
H644 C637 0.961 . S
H645 C637 0.960 . S
H646 C638 0.930 . S
H647 C639 0.929 . S
H648 C656 0.929 . S
H649 C658 0.930 1_556 S
H650 C660 0.930 . S
H651 C663 0.929 . S
H652 C666 0.929 . S
H653 C668 0.960 . S
H654 C668 0.960 . S
H655 C668 0.960 1_554 S
C656 H648 0.929 . S
C656 C657 1.377 . S
C656 C658 1.384 . S
C657 C656 1.377 . S
C657 C663 1.390 . S
C658 H649 0.930 1_554 S
C658 C656 1.384 . S
C658 C659 1.372 . S
C659 C658 1.372 . S
C659 C660 1.400 . S
C659 C664 1.490 . S
C660 H650 0.930 . S
C660 C659 1.400 . S
C660 C663 1.386 . S
H661 C677 0.930 . S
H662 C678 0.931 . S
C663 H651 0.929 . S
C663 C657 1.390 . S
C663 C660 1.386 . S
C664 C659 1.490 . S
C664 C666 1.394 . S
C664 C667 1.403 1_554 S
H665 C671 0.930 . S
C666 H652 0.929 . S
C666 C664 1.394 . S
C666 C669 1.405 1_554 S
C667 C664 1.403 1_556 S
C667 C668 1.524 . S
C667 C671 1.400 . S
C668 H653 0.960 . S
C668 H654 0.960 . S
C668 H655 0.960 1_556 S
C668 C667 1.524 . S
C669 C666 1.405 1_556 S
C669 C670 1.392 . S
C669 C673 1.495 . S
C670 C669 1.392 . S
C670 C671 1.385 . S
C670 C672 1.478 . S
C671 H665 0.930 . S
C671 C667 1.400 . S
C671 C670 1.385 . S
C672 C670 1.478 . S
C672 C674 1.381 . S
C672 C678 1.383 . S
C673 C669 1.495 . S
C673 H679 0.959 . S
C673 H680 0.961 . S
C673 H681 0.960 . S
C674 C672 1.381 . S
C674 C675 1.394 1_565 S
C674 H682 0.930 . S
C675 C674 1.394 1_545 S
C675 C676 1.383 . S
C675 H683 0.929 . S
C676 C675 1.383 . S
C676 C677 1.377 . S
C677 H661 0.930 . S
C677 C676 1.377 . S
C677 C678 1.379 1_545 S
C678 H662 0.931 . S
C678 C672 1.383 . S
C678 C677 1.379 1_565 S
H679 C673 0.959 . S
H680 C673 0.961 . S
H681 C673 0.960 . S
H682 C674 0.930 . S
H683 C675 0.929 . S
H684 C692 0.929 . S
H685 C694 0.907 1_554 S
H686 C696 0.930 . S
H687 C699 0.929 . S
H688 C702 0.930 . S
H689 C704 0.960 . S
H690 C704 0.960 . S
H691 C704 0.960 . S
C692 H684 0.929 . S
C692 C693 1.377 . S
C692 C694 1.384 . S
C693 C692 1.377 . S
C693 C699 1.390 . S
C694 H685 0.907 1_556 S
C694 C692 1.384 . S
C694 C695 1.372 . S
C695 C694 1.372 . S
C695 C696 1.400 . S
C695 C700 1.490 . S
C696 H686 0.930 . S
C696 C695 1.400 . S
C696 C699 1.386 . S
H697 C713 0.930 . S
H698 C714 0.931 . S
C699 H687 0.929 . S
C699 C693 1.390 . S
C699 C696 1.386 . S
C700 C695 1.490 . S
C700 C702 1.395 1_556 S
C700 C703 1.403 . S
H701 C707 0.930 1_556 S
C702 H688 0.930 . S
C702 C700 1.395 1_554 S
C702 C705 1.403 . S
C703 C700 1.403 . S
C703 C704 1.524 . S
C703 C707 1.400 1_556 S
C704 H689 0.960 . S
C704 H690 0.960 . S
C704 H691 0.960 . S
C704 C703 1.524 . S
C705 C702 1.403 . S
C705 C706 1.392 . S
C705 C709 1.495 . S
C706 C705 1.392 . S
C706 C707 1.385 . S
C706 C708 1.478 . S
C707 H701 0.930 1_554 S
C707 C703 1.400 1_554 S
C707 C706 1.385 . S
C708 C706 1.478 . S
C708 C710 1.381 . S
C708 C714 1.383 . S
C709 C705 1.495 . S
C709 H715 0.959 . S
C709 H716 0.961 . S
C709 H717 0.960 . S
C710 C708 1.381 . S
C710 C711 1.394 . S
C710 H718 0.930 . S
C711 C710 1.394 . S
C711 C712 1.383 1_655 S
C711 H719 0.929 1_655 S
C712 C711 1.383 1_455 S
C712 C713 1.377 . S
C713 H697 0.930 . S
C713 C712 1.377 . S
C713 C714 1.379 1_455 S
C714 H698 0.931 . S
C714 C708 1.383 . S
C714 C713 1.379 1_655 S
H715 C709 0.959 . S
H716 C709 0.961 . S
H717 C709 0.960 . S
H718 C710 0.930 . S
H719 C711 0.929 1_455 S
H720 C728 0.929 . S
H721 C730 0.930 . S
H722 C732 0.930 . S
H723 C735 0.929 . S
H724 C738 0.930 . S
H725 C740 0.960 . S
H726 C740 0.960 . S
H727 C740 0.960 . S
C728 H720 0.929 . S
C728 C729 1.377 . S
C728 C730 1.384 . S
C729 C728 1.377 . S
C729 C735 1.390 . S
C730 H721 0.930 . S
C730 C728 1.384 . S
C730 C731 1.372 . S
C731 C730 1.372 . S
C731 C732 1.400 . S
C731 C736 1.490 . S
C732 H722 0.930 . S
C732 C731 1.400 . S
C732 C735 1.386 . S
H733 C749 0.930 . S
H734 C750 0.931 . S
C735 H723 0.929 . S
C735 C729 1.390 . S
C735 C732 1.386 . S
C736 C731 1.490 . S
C736 C738 1.395 . S
C736 C739 1.403 . S
H737 C743 0.930 . S
C738 H724 0.930 . S
C738 C736 1.395 . S
C738 C741 1.403 . S
C739 C736 1.403 . S
C739 C740 1.524 . S
C739 C743 1.400 . S
C740 H725 0.960 . S
C740 H726 0.960 . S
C740 H727 0.960 . S
C740 C739 1.524 . S
C741 C738 1.403 . S
C741 C742 1.392 . S
C741 C745 1.495 . S
C742 C741 1.392 . S
C742 C743 1.385 . S
C742 C744 1.478 . S
C743 H737 0.930 . S
C743 C739 1.400 . S
C743 C742 1.385 . S
C744 C742 1.478 . S
C744 C746 1.381 . S
C744 C750 1.383 . S
C745 C741 1.495 . S
C745 H751 0.959 . S
C745 H752 0.961 . S
C745 H753 0.960 . S
C746 C744 1.381 . S
C746 C747 1.394 . S
C746 H754 0.930 . S
C747 C746 1.394 . S
C747 C748 1.383 . S
C747 H755 0.929 . S
C748 C747 1.383 . S
C748 C749 1.377 . S
C749 H733 0.930 . S
C749 C748 1.377 . S
C749 C750 1.379 . S
C750 H734 0.931 . S
C750 C744 1.383 . S
C750 C749 1.379 . S
H751 C745 0.959 . S
H752 C745 0.961 . S
H753 C745 0.960 . S
H754 C746 0.930 . S
H755 C747 0.929 . S
H756 C764 0.929 . S
H757 C766 0.930 . S
H758 C768 0.930 . S
H759 C771 0.929 . S
H760 C774 0.930 . S
H761 C776 0.960 . S
H762 C776 0.960 . S
H763 C776 0.960 . S
C764 H756 0.929 . S
C764 C765 1.377 . S
C764 C766 1.384 . S
C765 C764 1.377 . S
C765 C771 1.390 . S
C766 H757 0.930 . S
C766 C764 1.384 . S
C766 C767 1.372 . S
C767 C766 1.372 . S
C767 C768 1.400 . S
C767 C772 1.490 . S
C768 H758 0.930 . S
C768 C767 1.400 . S
C768 C771 1.386 . S
H769 C785 0.930 . S
H770 C786 0.931 . S
C771 H759 0.929 . S
C771 C765 1.390 . S
C771 C768 1.386 . S
C772 C767 1.490 . S
C772 C774 1.395 . S
C772 C775 1.403 . S
H773 C779 0.930 . S
C774 H760 0.930 . S
C774 C772 1.395 . S
C774 C777 1.403 . S
C775 C772 1.403 . S
C775 C776 1.524 . S
C775 C779 1.400 . S
C776 H761 0.960 . S
C776 H762 0.960 . S
C776 H763 0.960 . S
C776 C775 1.524 . S
C777 C774 1.403 . S
C777 C778 1.392 . S
C777 C781 1.495 . S
C778 C777 1.392 . S
C778 C779 1.385 . S
C778 C780 1.478 . S
C779 H773 0.930 . S
C779 C775 1.400 . S
C779 C778 1.385 . S
C780 C778 1.478 . S
C780 C782 1.381 . S
C780 C786 1.383 . S
C781 C777 1.495 . S
C781 H787 0.959 . S
C781 H788 0.961 . S
C781 H789 0.960 . S
C782 C780 1.381 . S
C782 C783 1.394 . S
C782 H790 0.930 . S
C783 C782 1.394 . S
C783 C784 1.383 . S
C783 H791 0.929 . S
C784 C783 1.383 . S
C784 C785 1.377 . S
C785 H769 0.930 . S
C785 C784 1.377 . S
C785 C786 1.379 . S
C786 H770 0.931 . S
C786 C780 1.383 . S
C786 C785 1.379 . S
H787 C781 0.959 . S
H788 C781 0.961 . S
H789 C781 0.960 . S
H790 C782 0.930 . S
H791 C783 0.929 . S
H792 C800 0.929 . S
H793 C802 0.930 . S
H794 C804 0.930 . S
H795 C807 0.929 . S
H796 C810 0.930 . S
H797 C812 0.960 . S
H798 C812 0.960 . S
H799 C812 0.960 . S
C800 H792 0.929 . S
C800 C801 1.377 . S
C800 C802 1.384 . S
C801 C800 1.377 . S
C801 C807 1.390 . S
C802 H793 0.930 . S
C802 C800 1.384 . S
C802 C803 1.372 . S
C803 C802 1.372 . S
C803 C804 1.400 . S
C803 C808 1.490 . S
C804 H794 0.930 . S
C804 C803 1.400 . S
C804 C807 1.386 . S
H805 C821 0.930 . S
H806 C822 0.931 . S
C807 H795 0.929 . S
C807 C801 1.390 . S
C807 C804 1.386 . S
C808 C803 1.490 . S
C808 C810 1.395 . S
C808 C811 1.403 . S
H809 C815 0.930 . S
C810 H796 0.930 . S
C810 C808 1.395 . S
C810 C813 1.403 . S
C811 C808 1.403 . S
C811 C812 1.524 . S
C811 C815 1.400 . S
C812 H797 0.960 . S
C812 H798 0.960 . S
C812 H799 0.960 . S
C812 C811 1.524 . S
C813 C810 1.403 . S
C813 C814 1.392 . S
C813 C817 1.495 . S
C814 C813 1.392 . S
C814 C815 1.385 . S
C814 C816 1.478 . S
C815 H809 0.930 . S
C815 C811 1.400 . S
C815 C814 1.385 . S
C816 C814 1.478 . S
C816 C818 1.381 . S
C816 C822 1.383 . S
C817 C813 1.495 . S
C817 H823 0.959 . S
C817 H824 0.961 . S
C817 H825 0.960 . S
C818 C816 1.381 . S
C818 C819 1.394 . S
C818 H826 0.930 . S
C819 C818 1.394 . S
C819 C820 1.383 . S
C819 H827 0.929 . S
C820 C819 1.383 . S
C820 C821 1.377 . S
C821 H805 0.930 . S
C821 C820 1.377 . S
C821 C822 1.379 . S
C822 H806 0.931 . S
C822 C816 1.383 . S
C822 C821 1.379 . S
H823 C817 0.959 . S
H824 C817 0.961 . S
H825 C817 0.960 . S
H826 C818 0.930 . S
H827 C819 0.929 . S
H828 C836 0.929 . S
H829 C838 0.930 . S
H830 C840 0.930 . S
H831 C843 0.929 . S
H832 C846 0.930 . S
H833 C848 0.960 . S
H834 C848 0.960 . S
H835 C848 0.960 . S
C836 H828 0.929 . S
C836 C837 1.377 . S
C836 C838 1.384 . S
C837 C836 1.377 . S
C837 C843 1.390 . S
C838 H829 0.930 . S
C838 C836 1.384 . S
C838 C839 1.372 . S
C839 C838 1.372 . S
C839 C840 1.400 . S
C839 C844 1.490 . S
C840 H830 0.930 . S
C840 C839 1.400 . S
C840 C843 1.386 . S
H841 C857 0.930 . S
H842 C858 0.931 . S
C843 H831 0.929 . S
C843 C837 1.390 . S
C843 C840 1.386 . S
C844 C839 1.490 . S
C844 C846 1.395 . S
C844 C847 1.403 . S
H845 C851 0.930 . S
C846 H832 0.930 . S
C846 C844 1.395 . S
C846 C849 1.403 . S
C847 C844 1.403 . S
C847 C848 1.524 . S
C847 C851 1.400 . S
C848 H833 0.960 . S
C848 H834 0.960 . S
C848 H835 0.960 . S
C848 C847 1.524 . S
C849 C846 1.403 . S
C849 C850 1.392 . S
C849 C853 1.495 . S
C850 C849 1.392 . S
C850 C851 1.385 . S
C850 C852 1.478 . S
C851 H845 0.930 . S
C851 C847 1.400 . S
C851 C850 1.385 . S
C852 C850 1.478 . S
C852 C854 1.381 . S
C852 C858 1.383 . S
C853 C849 1.495 . S
C853 H859 0.959 . S
C853 H860 0.961 . S
C853 H861 0.960 . S
C854 C852 1.381 . S
C854 C855 1.394 . S
C854 H862 0.930 . S
C855 C854 1.394 . S
C855 C856 1.383 . S
C855 H863 0.929 . S
C856 C855 1.383 . S
C856 C857 1.377 . S
C857 H841 0.930 . S
C857 C856 1.377 . S
C857 C858 1.379 . S
C858 H842 0.931 . S
C858 C852 1.383 . S
C858 C857 1.379 . S
H859 C853 0.959 . S
H860 C853 0.961 . S
H861 C853 0.960 . S
H862 C854 0.930 . S
H863 C855 0.929 . S
C297 C76 1.329 . S
C316 C4 1.344 . S
C333 C122 1.413 . S
C352 C50 1.400 . S
C369 C148 1.322 . S
C388 C220 1.307 . S
C405 C184 1.347 . S
C424 C256 1.321 . S
C441 C39 0.799 . S
C460 C3 0.801 . S
C477 C38 0.938 . S
C496 C74 0.932 . S
C513 C111 0.799 . S
C532 C75 0.770 . S
C549 C110 0.950 . S
C568 C2 0.995 . S
C585 C254 0.911 . S
C604 C147 0.912 . S
C621 C183 0.848 . S
C640 C146 0.886 . S
C657 C219 0.912 . S
C676 C182 0.911 . S
C693 C255 0.848 . S
C712 C218 0.874 . S
C729 C14 1.702 . S
C748 C194 1.688 . S
C765 C230 1.697 . S
C784 C40 1.689 . S
C801 C86 1.705 . S
C820 C266 1.705 . S
C837 C112 1.706 . S
C856 C158 1.701 . S
