# Generated by pormake.
# Topology crs, (6)-cn, num edge types: 1
# Building blocks:
#     Node 0, Type 0, BuildingBlock: JUFBIX_clean_sbu_0, # of connection points: 6
#     Node 1, Type 0, BuildingBlock: JUFBIX_clean_sbu_0, # of connection points: 6
#     Node 2, Type 0, BuildingBlock: JUFBIX_clean_sbu_0, # of connection points: 6
#     Node 3, Type 0, BuildingBlock: JUFBIX_clean_sbu_0, # of connection points: 6
#     Node 4, Type 0, BuildingBlock: JUFBIX_clean_sbu_0, # of connection points: 6
#     Node 5, Type 0, BuildingBlock: JUFBIX_clean_sbu_0, # of connection points: 6
#     Node 6, Type 0, BuildingBlock: JUFBIX_clean_sbu_0, # of connection points: 6
#     Node 7, Type 0, BuildingBlock: JUFBIX_clean_sbu_0, # of connection points: 6
#     Node 8, Type 0, BuildingBlock: JUFBIX_clean_sbu_0, # of connection points: 6
#     Node 9, Type 0, BuildingBlock: JUFBIX_clean_sbu_0, # of connection points: 6
#     Node 10, Type 0, BuildingBlock: JUFBIX_clean_sbu_0, # of connection points: 6
#     Node 11, Type 0, BuildingBlock: JUFBIX_clean_sbu_0, # of connection points: 6
#     Node 12, Type 0, BuildingBlock: JUFBIX_clean_sbu_0, # of connection points: 6
#     Node 13, Type 0, BuildingBlock: JUFBIX_clean_sbu_0, # of connection points: 6
#     Node 14, Type 0, BuildingBlock: JUFBIX_clean_sbu_0, # of connection points: 6
#     Node 15, Type 0, BuildingBlock: JUFBIX_clean_sbu_0, # of connection points: 6
#     Edge 16, Type (0, 0), BuildingBlock: XUDNAN_clean_linker_2, # of connection points: 2
#     Edge 17, Type (0, 0), BuildingBlock: XUDNAN_clean_linker_2, # of connection points: 2
#     Edge 18, Type (0, 0), BuildingBlock: XUDNAN_clean_linker_2, # of connection points: 2
#     Edge 19, Type (0, 0), BuildingBlock: XUDNAN_clean_linker_2, # of connection points: 2
#     Edge 20, Type (0, 0), BuildingBlock: XUDNAN_clean_linker_2, # of connection points: 2
#     Edge 21, Type (0, 0), BuildingBlock: XUDNAN_clean_linker_2, # of connection points: 2
#     Edge 22, Type (0, 0), BuildingBlock: XUDNAN_clean_linker_2, # of connection points: 2
#     Edge 23, Type (0, 0), BuildingBlock: XUDNAN_clean_linker_2, # of connection points: 2
#     Edge 24, Type (0, 0), BuildingBlock: XUDNAN_clean_linker_2, # of connection points: 2
#     Edge 25, Type (0, 0), BuildingBlock: XUDNAN_clean_linker_2, # of connection points: 2
#     Edge 26, Type (0, 0), BuildingBlock: XUDNAN_clean_linker_2, # of connection points: 2
#     Edge 27, Type (0, 0), BuildingBlock: XUDNAN_clean_linker_2, # of connection points: 2
#     Edge 28, Type (0, 0), BuildingBlock: XUDNAN_clean_linker_2, # of connection points: 2
#     Edge 29, Type (0, 0), BuildingBlock: XUDNAN_clean_linker_2, # of connection points: 2
#     Edge 30, Type (0, 0), BuildingBlock: XUDNAN_clean_linker_2, # of connection points: 2
#     Edge 31, Type (0, 0), BuildingBlock: XUDNAN_clean_linker_2, # of connection points: 2
#     Edge 32, Type (0, 0), BuildingBlock: XUDNAN_clean_linker_2, # of connection points: 2
#     Edge 33, Type (0, 0), BuildingBlock: XUDNAN_clean_linker_2, # of connection points: 2
#     Edge 34, Type (0, 0), BuildingBlock: XUDNAN_clean_linker_2, # of connection points: 2
#     Edge 35, Type (0, 0), BuildingBlock: XUDNAN_clean_linker_2, # of connection points: 2
#     Edge 36, Type (0, 0), BuildingBlock: XUDNAN_clean_linker_2, # of connection points: 2
#     Edge 37, Type (0, 0), BuildingBlock: XUDNAN_clean_linker_2, # of connection points: 2
#     Edge 38, Type (0, 0), BuildingBlock: XUDNAN_clean_linker_2, # of connection points: 2
#     Edge 39, Type (0, 0), BuildingBlock: XUDNAN_clean_linker_2, # of connection points: 2
#     Edge 40, Type (0, 0), BuildingBlock: XUDNAN_clean_linker_2, # of connection points: 2
#     Edge 41, Type (0, 0), BuildingBlock: XUDNAN_clean_linker_2, # of connection points: 2
#     Edge 42, Type (0, 0), BuildingBlock: XUDNAN_clean_linker_2, # of connection points: 2
#     Edge 43, Type (0, 0), BuildingBlock: XUDNAN_clean_linker_2, # of connection points: 2
#     Edge 44, Type (0, 0), BuildingBlock: XUDNAN_clean_linker_2, # of connection points: 2
#     Edge 45, Type (0, 0), BuildingBlock: XUDNAN_clean_linker_2, # of connection points: 2
#     Edge 46, Type (0, 0), BuildingBlock: XUDNAN_clean_linker_2, # of connection points: 2
#     Edge 47, Type (0, 0), BuildingBlock: XUDNAN_clean_linker_2, # of connection points: 2
#     Edge 48, Type (0, 0), BuildingBlock: XUDNAN_clean_linker_2, # of connection points: 2
#     Edge 49, Type (0, 0), BuildingBlock: XUDNAN_clean_linker_2, # of connection points: 2
#     Edge 50, Type (0, 0), BuildingBlock: XUDNAN_clean_linker_2, # of connection points: 2
#     Edge 51, Type (0, 0), BuildingBlock: XUDNAN_clean_linker_2, # of connection points: 2
#     Edge 52, Type (0, 0), BuildingBlock: XUDNAN_clean_linker_2, # of connection points: 2
#     Edge 53, Type (0, 0), BuildingBlock: XUDNAN_clean_linker_2, # of connection points: 2
#     Edge 54, Type (0, 0), BuildingBlock: XUDNAN_clean_linker_2, # of connection points: 2
#     Edge 55, Type (0, 0), BuildingBlock: XUDNAN_clean_linker_2, # of connection points: 2
#     Edge 56, Type (0, 0), BuildingBlock: XUDNAN_clean_linker_2, # of connection points: 2
#     Edge 57, Type (0, 0), BuildingBlock: XUDNAN_clean_linker_2, # of connection points: 2
#     Edge 58, Type (0, 0), BuildingBlock: XUDNAN_clean_linker_2, # of connection points: 2
#     Edge 59, Type (0, 0), BuildingBlock: XUDNAN_clean_linker_2, # of connection points: 2
#     Edge 60, Type (0, 0), BuildingBlock: XUDNAN_clean_linker_2, # of connection points: 2
#     Edge 61, Type (0, 0), BuildingBlock: XUDNAN_clean_linker_2, # of connection points: 2
#     Edge 62, Type (0, 0), BuildingBlock: XUDNAN_clean_linker_2, # of connection points: 2
#     Edge 63, Type (0, 0), BuildingBlock: XUDNAN_clean_linker_2, # of connection points: 2
# Relax obj value: 0.683
# Max RMSD: 0.345
# Mean RMSD: 0.292
data_MOF--net-crs--node1-JUFBIX_clean_sbu_0--edge1-XUDNAN_clean_linker_2
_symmetry_space_group_name_H-M    P1
_symmetry_Int_Tables_number       1
_symmetry_cell_setting            triclinic
loop_
_symmetry_equiv_pos_as_xyz
'x, y, z'
_cell_length_a     39.842361
_cell_length_b     40.791949
_cell_length_c     49.469131
_cell_angle_alpha  102.47924
_cell_angle_beta   90.138062
_cell_angle_gamma 89.87142
loop_
_atom_site_label
_atom_site_type_symbol
_atom_site_fract_x
_atom_site_fract_y
_atom_site_fract_z
_atom_type_partial_charge
Co0 Co 0.98916 0.98208 0.98687 0.0
C1 C 0.9857 -0.0014 0.04337 0.0
Co2 Co 0.01258 0.94386 0.00632 0.0
C3 C 0.94291 0.00839 0.95246 0.0
C4 C 0.9798 0.04508 0.96958 0.0
N5 N 0.96983 0.01338 0.9694 0.0
N6 N 0.93574 0.0355 0.94211 0.0
C7 C 0.95896 0.05868 0.95255 0.0
H8 H 0.92916 0.98501 0.9472 0.0
H9 H 0.00097 0.05748 0.98116 0.0
C10 C 0.01498 0.92701 0.94996 0.0
N11 N 0.03205 0.91311 0.02396 0.0
C12 C 0.05268 0.92091 0.04602 0.0
C13 C 0.02787 0.87958 0.0196 0.0
N14 N 0.06147 0.89377 0.05582 0.0
C15 C 0.04583 0.8676 0.03933 0.0
C16 C 0.94475 0.93382 -0.00443 0.0
O17 O -0.00183 0.95392 0.95205 0.0
O18 O 0.02481 0.91769 0.97154 0.0
O19 O 0.97052 0.92078 0.00432 0.0
O20 O 0.94764 0.96124 0.98774 0.0
O21 O -4e-05 0.9703 0.04112 0.0
H22 H 0.01217 0.86498 0.00357 0.0
H23 H 0.05996 0.94637 0.05547 0.0
O24 O 0.97986 0.00977 0.02176 0.0
O25 O 0.03096 0.00245 0.98597 0.0
O26 O 0.05441 0.96695 0.00773 0.0
C27 C 0.05688 0.99186 -0.00371 0.0
H28 H 0.96047 0.08361 0.94838 0.0
H29 H 0.04697 0.84181 0.04157 0.0
Co30 Co 0.96833 0.22835 0.22061 0.0
C31 C 0.90105 0.24798 0.22546 0.0
Co32 Co 0.94094 0.21373 0.25487 0.0
C33 C 0.00932 0.22675 0.17203 0.0
C34 C 0.9826 0.273 0.18582 0.0
N35 N 0.98833 0.24275 0.1919 0.0
N36 N 0.01631 0.2458 0.15366 0.0
C37 C -0.00037 0.27486 0.16222 0.0
H38 H 0.01851 0.20143 0.17061 0.0
H39 H 0.9666 0.29235 0.19762 0.0
C40 C 0.00861 0.19461 0.25004 0.0
N41 N 0.92016 0.20089 0.28455 0.0
C42 C 0.88707 0.20122 0.29044 0.0
C43 C 0.93544 0.19488 0.30736 0.0
N44 N 0.88113 0.19664 0.31624 0.0
C45 C 0.91166 0.19221 0.32673 0.0
C46 C 0.93828 0.16677 0.20555 0.0
O47 O 0.00942 0.20888 0.22961 0.0
O48 O 0.98124 0.19358 0.26287 0.0
O49 O 0.92809 0.17245 0.23052 0.0
O50 O 0.9565 0.18813 0.19734 0.0
O51 O 0.90071 0.23489 0.24646 0.0
H52 H 0.96222 0.19507 0.31074 0.0
H53 H 0.86777 0.20667 0.27666 0.0
O54 O 0.92781 0.2472 0.21162 0.0
O55 O 0.97999 0.26893 0.24396 0.0
O56 O 0.95443 0.25467 0.27887 0.0
C57 C 0.97158 0.27567 0.26915 0.0
H58 H -0.00011 0.2959 0.15212 0.0
H59 H 0.91688 0.19032 0.34782 0.0
Co60 Co 0.75174 0.30405 0.53135 0.0
C61 C 0.74873 0.29103 0.47418 0.0
Co62 Co 0.71526 0.33603 0.51504 0.0
C63 C 0.7825 0.26157 0.56559 0.0
C64 C 0.81503 0.27285 0.53443 0.0
N65 N 0.78358 0.27792 0.54453 0.0
N66 N 0.81227 0.24697 0.56911 0.0
C67 C 0.83267 0.25401 0.54947 0.0
H68 H 0.76068 0.26116 0.57852 0.0
H69 H 0.82471 0.28263 0.51734 0.0
C70 C 0.71686 0.34807 0.57207 0.0
N71 N 0.68475 0.36232 0.5007 0.0
C72 C 0.69289 0.38257 0.48351 0.0
C73 C 0.65097 0.36439 0.50278 0.0
N74 N 0.66587 0.39725 0.47488 0.0
C75 C 0.63921 0.38575 0.48663 0.0
C76 C 0.68865 0.27633 0.52304 0.0
O77 O 0.73952 0.32548 0.56802 0.0
O78 O 0.70339 0.3571 0.5515 0.0
O79 O 0.68236 0.30332 0.51514 0.0
O80 O 0.71802 0.27114 0.53143 0.0
O81 O 0.72713 0.31447 0.47845 0.0
H82 H 0.63582 0.35086 0.51483 0.0
H83 H 0.71818 0.38572 0.47656 0.0
O84 O 0.76286 0.28263 0.49468 0.0
O85 O 0.78547 0.33726 0.53054 0.0
O86 O 0.74854 0.36835 0.51499 0.0
C87 C 0.77845 0.36359 0.52185 0.0
H88 H 0.85853 0.24598 0.54615 0.0
H89 H 0.61331 0.39235 0.48379 0.0
Co90 Co 0.7469 -0.00104 0.74112 0.0
C91 C 0.73334 0.06683 0.74624 0.0
Co92 Co 0.78738 0.02723 0.72609 0.0
C93 C 0.71135 0.95858 0.77382 0.0
C94 C 0.67959 0.97795 0.74595 0.0
N95 N 0.71189 0.9766 0.75389 0.0
N96 N 0.67987 0.94902 0.77874 0.0
C97 C 0.65992 0.96108 0.76113 0.0
H98 H 0.73336 0.95375 0.78525 0.0
H99 H 0.67075 0.99121 0.73058 0.0
C100 C 0.80141 0.95959 0.72123 0.0
N101 N 0.82035 0.05113 0.71237 0.0
C102 C 0.81377 0.07467 0.69765 0.0
C103 C 0.85406 0.04973 0.71363 0.0
N104 N 0.84184 0.08824 0.68953 0.0
C105 C 0.86737 0.07254 0.69962 0.0
C106 C 0.79302 0.02616 0.78159 0.0
O107 O 0.7734 0.95923 0.73348 0.0
O108 O 0.81197 0.98676 0.71552 0.0
O109 O 0.80808 0.03562 0.76189 0.0
O110 O 0.76538 0.01048 0.77682 0.0
O111 O 0.76274 0.06714 0.73678 0.0
H112 H 0.868 0.03314 0.72389 0.0
H113 H 0.78855 0.08186 0.69324 0.0
O114 O 0.72078 0.03914 0.74895 0.0
O115 O 0.72897 0.98712 0.70498 0.0
O116 O 0.76653 0.01847 0.69056 0.0
C117 C 0.74151 -0.00106 0.68561 0.0
H118 H 0.63294 0.95818 0.75951 0.0
H119 H 0.89381 0.07677 0.69685 0.0
Co120 Co 0.5126 0.77262 0.23376 0.0
C121 C 0.44826 0.78488 0.25608 0.0
Co122 Co 0.50212 0.75083 0.26996 0.0
C123 C 0.54838 0.79453 0.19036 0.0
C124 C 0.49536 0.80047 0.18653 0.0
N125 N 0.51896 0.79037 0.20265 0.0
N126 N 0.54405 0.80656 0.16734 0.0
C127 C 0.51076 0.81058 0.16485 0.0
H128 H 0.57267 0.78843 0.19778 0.0
H129 H 0.46856 0.79959 0.1897 0.0
C130 C 0.56649 0.73837 0.24823 0.0
N131 N 0.49624 0.73303 0.30092 0.0
C132 C 0.46833 0.71933 0.30919 0.0
C133 C 0.51988 0.73003 0.31985 0.0
N134 N 0.47381 0.70764 0.33231 0.0
C135 C 0.50618 0.71427 0.33909 0.0
C136 C 0.48629 0.70837 0.22113 0.0
O137 O 0.55646 0.75372 0.23001 0.0
O138 O 0.54671 0.73527 0.2675 0.0
O139 O 0.48824 0.70991 0.247 0.0
O140 O 0.49538 0.73327 0.21136 0.0
O141 O 0.4575 0.76641 0.27231 0.0
H142 H 0.54542 0.73895 0.31981 0.0
H143 H 0.44448 0.71783 0.29846 0.0
O144 O 0.46873 0.79111 0.23822 0.0
O145 O 0.52942 0.8121 0.25615 0.0
O146 O 0.51554 0.79226 0.29255 0.0
C147 C 0.52679 0.81595 0.28216 0.0
H148 H 0.49842 0.81864 0.14787 0.0
H149 H 0.51869 0.7091 0.35717 0.0
Co150 Co 0.3208 0.72877 0.53841 0.0
C151 C 0.32523 0.71051 0.481 0.0
Co152 Co 0.28504 0.75501 0.51617 0.0
C153 C 0.34549 0.69812 0.58051 0.0
C154 C 0.38322 0.69625 0.54958 0.0
N155 N 0.35194 0.70769 0.55666 0.0
N156 N 0.37123 0.6813 0.58876 0.0
C157 C 0.39509 0.67961 0.56927 0.0
H158 H 0.32154 0.70194 0.59104 0.0
H159 H 0.39615 0.69899 0.53099 0.0
C160 C 0.28085 0.77398 0.57351 0.0
N161 N 0.25146 0.77516 0.49935 0.0
C162 C 0.25021 0.78709 0.4759 0.0
C163 C 0.21962 0.77765 0.50892 0.0
N164 N 0.21867 0.79632 0.47055 0.0
C165 C 0.19952 0.7905 0.49132 0.0
C166 C 0.26228 0.69409 0.52714 0.0
O167 O 0.30375 0.75234 0.57317 0.0
O168 O 0.26942 0.77894 0.55085 0.0
O169 O 0.25484 0.71914 0.51693 0.0
O170 O 0.29066 0.69324 0.53853 0.0
O171 O 0.30131 0.73136 0.48154 0.0
H172 H 0.21125 0.76968 0.52727 0.0
H173 H 0.27157 0.78781 0.46254 0.0
O174 O 0.33726 0.70555 0.50363 0.0
O175 O 0.35125 0.7641 0.53762 0.0
O176 O 0.31581 0.79002 0.51506 0.0
C177 C 0.34468 0.78818 0.52578 0.0
H178 H 0.41901 0.66694 0.5691 0.0
H179 H 0.17277 0.79505 0.49349 0.0
Co180 Co 0.20709 0.44576 0.7481 0.0
C181 C 0.19815 0.51256 0.74499 0.0
Co182 Co 0.25087 0.46824 0.73148 0.0
C183 C 0.16734 0.39569 0.7665 0.0
C184 C 0.15024 0.4456 0.78343 0.0
N185 N 0.17118 0.42789 0.76422 0.0
N186 N 0.14603 0.39286 0.78695 0.0
C187 C 0.13506 0.42417 0.7976 0.0
H188 H 0.18289 0.37515 0.7559 0.0
H189 H 0.14909 0.4727 0.78916 0.0
C190 C 0.2604 0.40192 0.73346 0.0
N191 N 0.28766 0.48654 0.71671 0.0
C192 C 0.2887 0.51512 0.70715 0.0
C193 C 0.31956 0.47486 0.71419 0.0
N194 N 0.31972 0.52163 0.69892 0.0
C195 C 0.33925 0.49627 0.70303 0.0
C196 C 0.25229 0.47671 0.7881 0.0
O197 O 0.23206 0.40474 0.74536 0.0
O198 O 0.27283 0.42684 0.72573 0.0
O199 O 0.26988 0.48146 0.76784 0.0
O200 O 0.22432 0.46192 0.7834 0.0
O201 O 0.22839 0.50937 0.73705 0.0
H202 H 0.32833 0.45258 0.72054 0.0
H203 H 0.26719 0.53106 0.70618 0.0
O204 O 0.18293 0.4873 0.75031 0.0
O205 O 0.18999 0.42947 0.71261 0.0
O206 O 0.23104 0.45488 0.69547 0.0
C207 C 0.20458 0.43689 0.69191 0.0
H208 H 0.12 0.43143 0.81613 0.0
H209 H 0.36597 0.49401 0.69912 0.0
Co210 Co 0.02681 0.51208 0.45377 0.0
C211 C 0.02481 0.52503 0.51073 0.0
Co212 Co 0.04764 0.4714 0.47171 0.0
C213 C 0.98603 0.54074 0.41753 0.0
C214 C 0.00747 0.57913 0.44923 0.0
N215 N 0.0076 0.54565 0.43905 0.0
N216 N 0.97202 0.56961 0.41412 0.0
C217 C 0.98521 0.59394 0.43407 0.0
H218 H 0.97884 0.51615 0.40581 0.0
H219 H 0.02124 0.59172 0.46739 0.0
C220 C 0.04821 0.45774 0.41466 0.0
N221 N 0.0661 0.43741 0.48607 0.0
C222 C 0.08623 0.44063 0.50838 0.0
C223 C 0.06161 0.40407 0.47713 0.0
N224 N 0.09438 0.41065 0.5139 0.0
C225 C 0.07892 0.38752 0.49427 0.0
C226 C 0.97992 0.4648 0.46251 0.0
O227 O 0.0352 0.4867 0.41776 0.0
O228 O 0.05662 0.44679 0.43582 0.0
O229 O 0.00531 0.45082 0.47068 0.0
O230 O 0.98387 0.49157 0.45371 0.0
O231 O 0.03787 0.49608 0.50774 0.0
H232 H 0.04627 0.39258 0.45958 0.0
H233 H 0.09375 0.46466 0.52089 0.0
O234 O 0.01842 0.537 0.48967 0.0
O235 O 0.06933 0.53265 0.45475 0.0
O236 O 0.08999 0.49263 0.47329 0.0
C237 C 0.09395 0.52002 0.4654 0.0
H238 H 0.97829 0.62022 0.43801 0.0
H239 H 0.07977 0.36063 0.49256 0.0
Co240 Co 0.26361 0.20194 0.00597 0.0
C241 C 0.29667 0.19513 0.95562 0.0
Co242 Co 0.23307 0.21398 0.97219 0.0
C243 C 0.28505 0.17437 0.05173 0.0
C244 C 0.32244 0.20615 0.03984 0.0
N245 N 0.29098 0.19456 0.03403 0.0
N246 N 0.31175 0.17248 0.06808 0.0
C247 C 0.33536 0.19246 0.06073 0.0
H248 H 0.26219 0.16007 0.05169 0.0
H249 H 0.33546 0.22267 0.029 0.0
C250 C 0.19878 0.21952 0.02141 0.0
N251 N 0.20489 0.22089 0.94405 0.0
C252 C 0.20858 0.24062 0.92557 0.0
C253 C 0.17515 0.2053 0.93758 0.0
N254 N 0.18252 0.23741 0.90767 0.0
C255 C 0.1615 0.21521 0.91515 0.0
C256 C 0.23184 0.1466 0.97772 0.0
O257 O 0.22615 0.21005 0.03064 0.0
O258 O 0.19748 0.2236 -0.00322 0.0
O259 O 0.22054 0.1675 0.96424 0.0
O260 O 0.25271 0.15648 -0.00297 0.0
O261 O 0.26858 0.2041 0.94748 0.0
H262 H 0.16398 0.18783 0.94854 0.0
H263 H 0.23011 0.25659 0.92496 0.0
O264 O 0.30041 0.1933 0.98079 0.0
O265 O 0.27438 0.24752 0.01529 0.0
O266 O 0.24599 0.26041 0.98094 0.0
C267 C 0.26454 0.26932 0.00225 0.0
H268 H 0.36033 0.19639 0.06948 0.0
H269 H 0.13769 0.20721 0.90536 0.0
Co270 Co 0.20191 0.97543 0.28399 0.0
C271 C 0.18254 0.03772 0.2747 0.0
Co272 Co 0.2365 -0.00287 0.25795 0.0
C273 C 0.18228 0.94103 0.32493 0.0
C274 C 0.13866 0.95559 0.30512 0.0
N275 N 0.17242 0.95768 0.30557 0.0
N276 N 0.15631 0.92815 0.33651 0.0
C277 C 0.12864 0.93727 0.32412 0.0
H278 H 0.20837 0.93712 0.32947 0.0
H279 H 0.12255 0.96586 0.29137 0.0
C280 C 0.25598 0.93487 0.26735 0.0
N281 N 0.26816 0.01403 0.23748 0.0
C282 C 0.26527 0.02739 0.21489 0.0
C283 C 0.30132 0.01462 0.2431 0.0
N284 N 0.29548 0.03617 0.20623 0.0
C285 C 0.31809 0.02823 0.22408 0.0
C286 C 0.25044 0.01473 0.3144 0.0
O287 O 0.22851 0.93654 0.28029 0.0
O288 O 0.26432 0.95891 0.25628 0.0
O289 O 0.25865 0.01972 0.29089 0.0
O290 O 0.22612 -0.00455 0.31627 0.0
O291 O 0.20856 0.03496 0.25955 0.0
H292 H 0.31266 0.0057 0.26007 0.0
H293 H 0.24157 0.03021 0.20489 0.0
O294 O 0.17538 0.01481 0.28759 0.0
O295 O 0.178 0.95504 0.25157 0.0
O296 O 0.21387 0.97475 0.22534 0.0
C297 C 0.1879 0.95746 0.22765 0.0
H298 H 0.10309 0.93075 0.32813 0.0
H299 H 0.34487 0.03249 0.22381 0.0
Co300 Co 0.51271 0.26486 0.74573 0.0
C301 C 0.44351 0.25552 0.73573 0.0
Co302 Co 0.48931 0.22318 0.76077 0.0
C303 C 0.55658 0.3047 0.71914 0.0
C304 C 0.51524 0.33289 0.73985 0.0
N305 N 0.52884 0.3019 0.73404 0.0
N306 N 0.56097 0.33634 0.71542 0.0
C307 C 0.53489 0.35406 0.72857 0.0
H308 H 0.57292 0.2837 0.71105 0.0
H309 H 0.49256 0.33973 0.75172 0.0
C310 C 0.55849 0.23174 0.7704 0.0
N311 N 0.47388 0.18635 0.77278 0.0
C312 C 0.44808 0.18575 0.79007 0.0
C313 C 0.48888 0.15609 0.77 0.0
N314 N 0.44673 0.1567 0.79878 0.0
C315 C 0.47235 0.13785 0.78624 0.0
C316 C 0.51431 0.20594 0.70741 0.0
O317 O 0.55572 0.25669 0.75904 0.0
O318 O 0.53256 0.21485 0.77329 0.0
O319 O 0.49873 0.19555 0.72619 0.0
O320 O 0.52347 0.23639 0.71122 0.0
O321 O 0.44622 0.23173 0.74839 0.0
H322 H 0.51162 0.14864 0.75835 0.0
H323 H 0.43227 0.20731 0.79794 0.0
O324 O 0.46922 0.2725 0.73212 0.0
O325 O 0.50206 0.29286 0.78045 0.0
O326 O 0.47934 0.25112 0.79529 0.0
C327 C 0.4869 0.2819 0.79918 0.0
H328 H 0.53021 0.38054 0.73025 0.0
H329 H 0.47956 0.11347 0.78965 0.0
Co330 Co 0.01823 0.74777 0.71275 0.0
C331 C 0.95184 0.77042 0.71317 0.0
Co332 Co 0.98273 0.72268 0.73587 0.0
C333 C 0.07875 0.77833 0.69756 0.0
C334 C 0.03697 0.78407 0.67165 0.0
N335 N 0.04595 0.77063 0.69326 0.0
N336 N 0.09028 0.79641 0.67974 0.0
C337 C 0.06411 0.80008 0.66341 0.0
H338 H 0.09393 0.77082 0.71337 0.0
H339 H 0.01236 0.782 0.66219 0.0
C340 C 0.04951 0.70026 0.73499 0.0
N341 N 0.95495 0.69936 0.75489 0.0
C342 C 0.92572 0.7094 0.76774 0.0
C343 C 0.95907 0.66735 0.75764 0.0
N344 N 0.91165 0.68499 0.77841 0.0
C345 C 0.9326 0.65856 0.77233 0.0
C346 C 0.98936 0.69128 0.68101 0.0
O347 O 0.05457 0.72151 0.72016 0.0
O348 O 0.02024 0.69723 0.74425 0.0
O349 O 0.975 0.68995 0.70357 0.0
O350 O 0.00902 0.71548 0.68004 0.0
O351 O 0.94557 0.74855 0.72724 0.0
H352 H 0.97961 0.65108 0.74901 0.0
H353 H 0.9149 0.7341 0.76926 0.0
O354 O 0.98167 0.77387 0.70543 0.0
O355 O 0.02755 0.77959 0.74566 0.0
O356 O 0.99073 0.75556 0.76827 0.0
C357 C 0.01221 0.77842 0.76789 0.0
H358 H 0.06497 0.81231 0.64606 0.0
H359 H 0.92852 0.63438 0.77746 0.0
Co360 Co 0.73824 0.50271 0.24591 0.0
C361 C 0.73533 0.56781 0.23906 0.0
Co362 Co 0.7782 0.51479 0.21886 0.0
C363 C 0.71177 0.48664 0.29532 0.0
C364 C 0.6722 0.49275 0.26756 0.0
N365 N 0.70597 0.49302 0.27008 0.0
N366 N 0.68318 0.48287 0.30879 0.0
C367 C 0.65809 0.48632 0.29135 0.0
H368 H 0.73657 0.4851 0.30392 0.0
H369 H 0.65864 0.49784 0.24994 0.0
C370 C 0.78029 0.44941 0.22501 0.0
N371 N 0.80959 0.52512 0.19472 0.0
C372 C 0.80296 0.54302 0.17542 0.0
C373 C 0.84258 0.51779 0.192 0.0
N374 N 0.83031 0.54733 0.16067 0.0
C375 C 0.85546 0.53155 0.17106 0.0
C376 C 0.79775 0.52792 0.27296 0.0
O377 O 0.75627 0.45882 0.24176 0.0
O378 O 0.79372 0.47013 0.21248 0.0
O379 O 0.80847 0.52717 0.24871 0.0
O380 O 0.76781 0.51896 0.27631 0.0
O381 O 0.76188 0.55948 0.22516 0.0
H382 H 0.85632 0.50355 0.20448 0.0
H383 H 0.77844 0.55334 0.17271 0.0
O384 O 0.72045 0.54632 0.24987 0.0
O385 O 0.70917 0.487 0.21484 0.0
O386 O 0.74828 0.50234 0.18917 0.0
C387 C 0.71941 0.49022 0.19121 0.0
H388 H 0.63158 0.48559 0.29592 0.0
H389 H 0.88121 0.52987 0.16399 0.0
Co390 Co 0.73003 0.71791 0.97184 0.0
C391 C 0.73581 0.70799 0.91419 0.0
Co392 Co 0.69442 0.74682 0.95175 0.0
C393 C 0.76326 0.68144 0.00961 0.0
C394 C 0.79454 0.69079 0.97698 0.0
N395 N 0.7629 0.69481 0.98687 0.0
N396 N 0.79402 0.66956 0.01424 0.0
C397 C 0.81357 0.67526 0.9936 0.0
H398 H 0.74181 0.68158 0.02303 0.0
H399 H 0.8036 0.6995 0.95918 0.0
C400 C 0.68861 0.75855 0.00892 0.0
N401 N 0.66353 0.77069 0.93576 0.0
C402 C 0.67082 0.79053 0.91804 0.0
C403 C 0.62996 0.77274 0.93886 0.0
N404 N 0.64327 0.80511 0.90988 0.0
C405 C 0.61741 0.79389 0.92297 0.0
C406 C 0.67129 0.68399 0.9571 0.0
O407 O 0.71233 0.73728 0.00771 0.0
O408 O 0.67719 0.76536 0.98679 0.0
O409 O 0.66444 0.71019 0.94808 0.0
O410 O 0.6995 0.68163 0.96866 0.0
O411 O 0.71178 0.72872 0.91669 0.0
H412 H 0.6156 0.75979 0.95186 0.0
H413 H 0.69615 0.79456 0.91168 0.0
O414 O 0.7471 0.69924 0.93561 0.0
O415 O 0.76026 0.75432 0.97521 0.0
O416 O 0.72472 0.78307 0.95578 0.0
C417 C 0.75302 0.78081 0.96696 0.0
H418 H 0.8399 0.6689 0.99078 0.0
H419 H 0.59125 0.80022 0.92115 0.0
Co420 Co 0.49831 0.02948 0.4846 0.0
C421 C 0.52297 0.03589 0.53775 0.0
Co422 Co 0.54821 0.00657 0.48664 0.0
C423 C 0.43226 0.0411 0.46496 0.0
C424 C 0.44825 0.08106 0.49801 0.0
N425 N 0.4575 0.05065 0.48316 0.0
N426 N 0.40796 0.06462 0.46749 0.0
C427 C 0.41787 0.08982 0.48829 0.0
H428 H 0.43275 0.01833 0.44895 0.0
H429 H 0.4634 0.09658 0.51395 0.0
C430 C 0.52495 0.00174 0.43357 0.0
N431 N 0.58904 0.98542 0.48801 0.0
C432 C 0.61267 0.99326 0.50788 0.0
C433 C 0.5991 0.95587 0.47216 0.0
N434 N 0.63651 0.96934 0.50567 0.0
C435 C 0.6282 0.94581 0.48309 0.0
C436 C 0.49382 0.96367 0.48794 0.0
O437 O 0.49893 0.01598 0.44542 0.0
O438 O 0.54945 -0.00471 0.44794 0.0
O439 O 0.52566 0.9657 0.48759 0.0
O440 O 0.47625 0.98933 0.48676 0.0
O441 O 0.54707 0.01862 0.52544 0.0
H442 H 0.58495 0.94142 0.45499 0.0
H443 H 0.61082 0.01461 0.52512 0.0
O444 O 0.49828 0.04291 0.52372 0.0
O445 O 0.52066 0.06975 0.48272 0.0
O446 O 0.57014 0.04729 0.48623 0.0
C447 C 0.55236 0.07268 0.48466 0.0
H448 H 0.40472 0.11338 0.49522 0.0
H449 H 0.64096 0.92205 0.47607 0.0
Co450 Co 0.43166 0.51419 0.00266 0.0
C451 C 0.45069 0.53581 0.05695 0.0
Co452 Co 0.46993 0.48195 0.01619 0.0
C453 C 0.3736 0.53166 0.97543 0.0
C454 C 0.40448 0.57471 0.99007 0.0
N455 N 0.40134 0.54184 0.9904 0.0
N456 N 0.35968 0.55655 0.96531 0.0
C457 C 0.37906 0.58371 0.97416 0.0
H458 H 0.36543 0.50575 0.97 0.0
H459 H 0.42517 0.59046 -0.00082 0.0
C460 C 0.45022 0.459 0.96247 0.0
N461 N 0.50068 0.45459 0.02869 0.0
C462 C 0.53057 0.46442 0.04043 0.0
C463 C 0.49739 0.42232 0.03093 0.0
N464 N 0.54585 0.43984 0.05006 0.0
C465 C 0.52513 0.41327 0.04442 0.0
C466 C 0.40341 0.46456 0.02387 0.0
O467 O 0.43063 0.48415 0.96757 0.0
O468 O 0.47049 0.45367 0.98087 0.0
O469 O 0.43387 0.45658 0.02665 0.0
O470 O 0.39641 0.49004 0.01416 0.0
O471 O 0.46908 0.50986 0.05147 0.0
H472 H 0.47581 0.40669 0.02399 0.0
H473 H 0.54032 0.48968 0.04311 0.0
O474 O 0.43268 0.54362 0.03805 0.0
O475 O 0.46686 0.5379 0.9905 0.0
O476 O 0.50562 0.50788 0.00527 0.0
C477 C 0.4976 0.53143 0.99338 0.0
H478 H 0.37607 0.60762 0.96828 0.0
H479 H 0.52959 0.38935 0.04993 0.0
H480 H 0.95957 0.06187 0.05598 0.0
H481 H 0.98586 0.97742 0.0923 0.0
H482 H 0.96548 0.00862 0.13775 0.0
H483 H 0.98821 0.12348 0.11063 0.0
H484 H 0.95576 0.15334 0.10761 0.0
H485 H 0.96815 0.12231 0.07773 0.0
H486 H 0.90623 0.10246 0.07062 0.0
H487 H 0.89385 0.13312 0.10096 0.0
H488 H 0.88438 0.08935 0.09835 0.0
H489 H 0.94731 0.05111 0.18001 0.0
H490 H 0.93996 0.1035 0.21577 0.0
H491 H 0.92559 0.15911 0.15131 0.0
C492 C 0.96062 0.04972 0.07339 0.0
C493 C 0.97412 0.01724 0.07063 0.0
C494 C 0.97556 0.00237 0.09399 0.0
C495 C 0.96372 0.01972 0.11981 0.0
C496 C 0.9504 0.05176 0.12181 0.0
C497 C 0.94907 0.06667 0.09922 0.0
C498 C 0.9372 0.10259 0.10727 0.0
C499 C 0.96392 0.12684 0.10042 0.0
C500 C 0.9034 0.10713 0.09348 0.0
C501 C 0.93327 0.10601 0.1381 0.0
C502 C 0.94015 0.07626 0.14612 0.0
C503 C 0.94121 0.07439 0.17397 0.0
C504 C 0.93674 0.1041 0.19414 0.0
C505 C 0.93192 0.13494 0.18606 0.0
C506 C 0.92869 0.13557 0.15784 0.0
H507 H 0.7904 0.2372 0.45858 0.0
H508 H 0.72855 0.30724 0.42568 0.0
H509 H 0.74855 0.28209 0.37855 0.0
H510 H 0.85921 0.24235 0.41982 0.0
H511 H 0.87138 0.19884 0.41449 0.0
H512 H 0.84735 0.21776 0.44448 0.0
H513 H 0.80183 0.17176 0.431 0.0
H514 H 0.82581 0.15261 0.40082 0.0
H515 H 0.78278 0.16468 0.39715 0.0
H516 H 0.78228 0.2564 0.33704 0.0
H517 H 0.82766 0.23373 0.305 0.0
H518 H 0.8657 0.17804 0.36417 0.0
C519 C 0.7804 0.24673 0.44139 0.0
C520 C 0.75794 0.27414 0.44574 0.0
C521 C 0.74571 0.28614 0.42277 0.0
C522 C 0.75676 0.27188 0.39592 0.0
C523 C 0.77957 0.24534 0.39241 0.0
C524 C 0.79102 0.23269 0.41452 0.0
C525 C 0.81825 0.20672 0.4058 0.0
C526 C 0.85096 0.21706 0.4221 0.0
C527 C 0.80645 0.17187 0.40887 0.0
C528 C 0.82178 0.20821 0.37568 0.0
C529 C 0.79879 0.23007 0.36818 0.0
C530 C 0.79984 0.23853 0.3424 0.0
C531 C 0.82582 0.22533 0.32422 0.0
C532 C 0.85059 0.20404 0.332 0.0
C533 C 0.84738 0.19429 0.35758 0.0
H534 H 0.79192 0.10815 0.65827 0.0
H535 H 0.89559 0.12775 0.6843 0.0
H536 H 0.89832 0.17194 0.65744 0.0
H537 H 0.80046 0.12018 0.59008 0.0
H538 H 0.76053 0.1409 0.58946 0.0
H539 H 0.76626 0.11109 0.6111 0.0
H540 H 0.74781 0.15547 0.65402 0.0
H541 H 0.74175 0.18562 0.63265 0.0
H542 H 0.76904 0.19538 0.66241 0.0
H543 H 0.89037 0.213 0.6269 0.0
H544 H 0.8724 0.24792 0.5945 0.0
H545 H 0.77324 0.20349 0.58985 0.0
C546 C 0.81516 0.12187 0.65881 0.0
C547 C 0.84358 0.11417 0.67367 0.0
C548 C 0.87356 0.13264 0.67299 0.0
C549 C 0.87529 0.15806 0.65792 0.0
C550 C 0.84678 0.16499 0.64375 0.0
C551 C 0.81724 0.14752 0.64413 0.0
C552 C 0.79026 0.15971 0.62691 0.0
C553 C 0.77873 0.13128 0.60295 0.0
C554 C 0.76046 0.17495 0.64509 0.0
C555 C 0.80945 0.18647 0.6164 0.0
C556 C 0.84198 0.18911 0.62646 0.0
C557 C 0.86494 0.21124 0.61901 0.0
C558 C 0.85454 0.23086 0.60052 0.0
C559 C 0.82146 0.22838 0.58968 0.0
C560 C 0.79851 0.20621 0.59811 0.0
H561 H 0.93947 0.05791 0.89457 0.0
H562 H 0.87174 0.01782 0.94758 0.0
H563 H 0.82572 0.01734 0.91386 0.0
H564 H 0.87701 0.10939 0.86567 0.0
H565 H 0.89511 0.09879 0.83152 0.0
H566 H 0.92135 0.10086 0.86159 0.0
H567 H 0.94165 0.04 0.84195 0.0
H568 H 0.91543 0.03769 0.81194 0.0
H569 H 0.91115 0.00683 0.83286 0.0
H570 H 0.78906 0.0165 0.8735 0.0
H571 H 0.76372 0.01268 0.82762 0.0
H572 H 0.85555 0.05126 0.79897 0.0
C573 C 0.91463 0.05 0.89925 0.0
C574 C 0.90869 0.03836 0.92366 0.0
C575 C 0.87639 0.027 0.92896 0.0
C576 C 0.85021 0.0268 0.91004 0.0
C577 C 0.85693 0.03781 0.88586 0.0
C578 C 0.88832 0.0491 0.88028 0.0
C579 C 0.88963 0.05611 0.85141 0.0
C580 C 0.89616 0.09352 0.85263 0.0
C581 C 0.91602 0.03382 0.83349 0.0
C582 C 0.85431 0.04627 0.84148 0.0
C583 C 0.83581 0.03633 0.8619 0.0
C584 C 0.80312 0.02455 0.85741 0.0
C585 C 0.789 0.0224 0.8312 0.0
C586 C 0.80764 0.03172 0.80968 0.0
C587 C 0.84057 0.04429 0.81507 0.0
H588 H 0.11276 0.93557 0.0757 0.0
H589 H 0.05325 0.85318 0.0921 0.0
H590 H 0.08217 0.85806 0.13708 0.0
H591 H 0.19063 0.91504 0.10889 0.0
H592 H 0.2007 0.95859 0.12227 0.0
H593 H 0.1775 0.94639 0.09037 0.0
H594 H 0.13021 0.9882 0.11059 0.0
H595 H 0.15312 0.00036 0.14257 0.0
H596 H 0.11071 0.98515 0.14281 0.0
H597 H 0.11271 0.87637 0.18229 0.0
H598 H 0.1459 0.90382 0.22314 0.0
H599 H 0.18679 0.97323 0.17659 0.0
C600 C 0.10611 0.91832 0.08864 0.0
C601 C 0.08076 0.894 0.08048 0.0
C602 C 0.07287 0.8717 0.09783 0.0
C603 C 0.08904 0.87442 0.12345 0.0
C604 C 0.11331 0.89927 0.13116 0.0
C605 C 0.12216 0.92054 0.1141 0.0
C606 C 0.14811 0.94594 0.12765 0.0
C607 C 0.1812 0.94119 0.11132 0.0
C608 C 0.13472 0.98204 0.13111 0.0
C609 C 0.15191 0.93617 0.15531 0.0
C610 C 0.13161 0.90921 0.15693 0.0
C611 C 0.12913 0.8971 0.1811 0.0
C612 C 0.14793 0.91295 0.20422 0.0
C613 C 0.1691 0.94041 0.20289 0.0
C614 C 0.17126 0.95191 0.17802 0.0
H615 H 0.04587 0.39007 0.40548 0.0
H616 H 0.04354 0.47314 0.36354 0.0
H617 H 0.02692 0.434 0.32009 0.0
H618 H 0.07205 0.32238 0.34581 0.0
H619 H 0.04428 0.29271 0.35644 0.0
H620 H 0.06311 0.3258 0.38203 0.0
H621 H 0.00387 0.34449 0.40087 0.0
H622 H 0.98473 0.31223 0.37491 0.0
H623 H 0.97277 0.35549 0.37781 0.0
H624 H 0.0051 0.38704 0.28298 0.0
H625 H 0.98019 0.33545 0.25452 0.0
H626 H 0.99134 0.28532 0.32293 0.0
C627 C 0.04332 0.39985 0.38689 0.0
C628 C 0.04656 0.43444 0.38761 0.0
C629 C 0.04167 0.44655 0.36316 0.0
C630 C 0.03215 0.42457 0.3385 0.0
C631 C 0.02739 0.39083 0.33891 0.0
C632 C 0.03298 0.37851 0.36246 0.0
C633 C 0.02203 0.34236 0.35865 0.0
C634 C 0.05217 0.31946 0.36085 0.0
C635 C 0.9942 0.33845 0.37928 0.0
C636 C 0.00873 0.33638 0.32944 0.0
C637 C 0.0126 0.36442 0.31823 0.0
C638 C 0.00209 0.3649 0.29148 0.0
C639 C 0.98784 0.33567 0.27559 0.0
C640 C 0.98363 0.30686 0.28684 0.0
C641 C 0.99385 0.30733 0.31414 0.0
H642 H 0.7145 0.31356 0.6133 0.0
H643 H 0.68269 0.4063 0.59163 0.0
H644 H 0.64517 0.41793 0.63218 0.0
H645 H 0.63807 0.28879 0.62679 0.0
H646 H 0.64853 0.2698 0.65542 0.0
H647 H 0.67981 0.27286 0.63003 0.0
H648 H 0.71942 0.30502 0.66819 0.0
H649 H 0.68853 0.30145 0.69398 0.0
H650 H 0.70448 0.34214 0.69185 0.0
H651 H 0.60331 0.41362 0.66795 0.0
H652 H 0.56145 0.39523 0.69758 0.0
H653 H 0.61976 0.30471 0.69649 0.0
C654 C 0.70095 0.33715 0.61796 0.0
C655 C 0.70181 0.35933 0.59967 0.0
C656 C 0.68264 0.38924 0.60565 0.0
C657 C 0.6613 0.39605 0.62864 0.0
C658 C 0.65951 0.3727 0.64541 0.0
C659 C 0.67914 0.34402 0.6406 0.0
C660 C 0.66879 0.32055 0.65902 0.0
C661 C 0.65817 0.28599 0.64178 0.0
C662 C 0.69698 0.3171 0.67948 0.0
C663 C 0.63914 0.33967 0.67379 0.0
C664 C 0.63467 0.36995 0.66606 0.0
C665 C 0.60708 0.39042 0.6748 0.0
C666 C 0.58329 0.37961 0.69173 0.0
C667 C 0.58701 0.3484 0.69973 0.0
C668 C 0.61581 0.32862 0.69093 0.0
H669 H 0.7142 0.90092 0.79784 0.0
H670 H 0.62108 0.95748 0.80667 0.0
H671 H 0.60142 0.92647 0.84122 0.0
H672 H 0.67798 0.82224 0.80312 0.0
H673 H 0.71248 0.81016 0.82254 0.0
H674 H 0.71971 0.83741 0.79895 0.0
H675 H 0.74631 0.88176 0.83864 0.0
H676 H 0.73924 0.85461 0.86233 0.0
H677 H 0.72285 0.89682 0.87 0.0
H678 H 0.59183 0.88951 0.87481 0.0
H679 H 0.59291 0.84893 0.90511 0.0
H680 H 0.69144 0.8149 0.87313 0.0
C681 C 0.68984 0.90694 0.80727 0.0
C682 C 0.66911 0.9315 0.79951 0.0
C683 C 0.63717 0.93843 0.81203 0.0
C684 C 0.62585 0.92109 0.83178 0.0
C685 C 0.64672 0.89678 0.83875 0.0
C686 C 0.67802 0.88964 0.82689 0.0
C687 C 0.69517 0.86187 0.8377 0.0
C688 C 0.7017 0.8311 0.81417 0.0
C689 C 0.72782 0.87453 0.85308 0.0
C690 C 0.66861 0.8546 0.85746 0.0
C691 C 0.64093 0.87508 0.85783 0.0
C692 C 0.61333 0.8732 0.87464 0.0
C693 C 0.61409 0.84983 0.89168 0.0
C694 C 0.64223 0.82848 0.89171 0.0
C695 C 0.66968 0.83097 0.87411 0.0
H696 H 0.18809 0.20633 0.0732 0.0
H697 H 0.13899 0.24196 0.00632 0.0
H698 H 0.08571 0.24644 0.0314 0.0
H699 H 0.11683 0.15774 0.08992 0.0
H700 H 0.12412 0.16906 0.12674 0.0
H701 H 0.15884 0.16656 0.10307 0.0
H702 H 0.17555 0.22775 0.12546 0.0
H703 H 0.1412 0.2303 0.14938 0.0
H704 H 0.14479 0.26075 0.12801 0.0
H705 H 0.03898 0.25029 0.06351 0.0
H706 H 0.00093 0.25649 0.10358 0.0
H707 H 0.07823 0.21791 0.15009 0.0
C708 C 0.1661 0.21507 0.06391 0.0
C709 C 0.16772 0.22376 0.03781 0.0
C710 C 0.13843 0.23511 0.02628 0.0
C711 C 0.10792 0.23755 0.04025 0.0
C712 C 0.10701 0.22848 0.0657 0.0
C713 C 0.13519 0.21766 0.07762 0.0
C714 C 0.12725 0.2112 0.10596 0.0
C715 C 0.13204 0.17392 0.10643 0.0
C716 C 0.14845 0.23386 0.12853 0.0
C717 C 0.09047 0.22102 0.10823 0.0
C718 C 0.07937 0.23046 0.08454 0.0
C719 C 0.04712 0.24263 0.0821 0.0
C720 C 0.02579 0.24614 0.10485 0.0
C721 C 0.03684 0.23748 0.12954 0.0
C722 C 0.06922 0.22397 0.13109 0.0
H723 H 0.639 0.44381 0.32928 0.0
H724 H 0.72207 0.51285 0.35158 0.0
H725 H 0.72107 0.50356 0.39919 0.0
H726 H 0.59523 0.46435 0.39767 0.0
H727 H 0.58377 0.42121 0.3959 0.0
H728 H 0.58773 0.43664 0.36454 0.0
H729 H 0.63053 0.38942 0.3455 0.0
H730 H 0.62664 0.37386 0.3767 0.0
H731 H 0.66736 0.38489 0.36563 0.0
H732 H 0.71589 0.48245 0.44197 0.0
H733 H 0.70754 0.44933 0.47771 0.0
H734 H 0.62743 0.39389 0.42903 0.0
C735 C 0.65634 0.4575 0.34447 0.0
C736 C 0.68059 0.47907 0.33691 0.0
C737 C 0.7035 0.49604 0.35701 0.0
C738 C 0.70291 0.49116 0.38412 0.0
C739 C 0.67918 0.46925 0.39084 0.0
C740 C 0.65626 0.45266 0.37169 0.0
C741 C 0.6356 0.42805 0.38372 0.0
C742 C 0.59837 0.43818 0.38557 0.0
C743 C 0.64034 0.39193 0.36689 0.0
C744 C 0.65127 0.43271 0.41228 0.0
C745 C 0.67604 0.45698 0.41599 0.0
C746 C 0.69614 0.46388 0.43959 0.0
C747 C 0.69131 0.44498 0.4597 0.0
C748 C 0.66659 0.41959 0.45614 0.0
C749 C 0.64579 0.41389 0.43246 0.0
H750 H 0.6714 0.01872 0.5394 0.0
H751 H 0.65087 0.91189 0.52219 0.0
H752 H 0.68003 0.90731 0.56519 0.0
H753 H 0.75557 0.0132 0.57255 0.0
H754 H 0.74905 0.05157 0.5979 0.0
H755 H 0.73064 0.04646 0.56392 0.0
H756 H 0.6718 0.05925 0.58543 0.0
H757 H 0.68957 0.06481 0.61957 0.0
H758 H 0.65622 0.03493 0.60911 0.0
H759 H 0.70132 0.91605 0.61333 0.0
H760 H 0.72188 0.93609 0.6612 0.0
H761 H 0.73252 0.03661 0.64659 0.0
C762 C 0.67401 -0.00574 0.54437 0.0
C763 C 0.65912 0.96562 0.52746 0.0
C764 C 0.66263 0.934 0.53459 0.0
C765 C 0.67893 0.93121 0.55908 0.0
C766 C 0.69212 0.96017 0.57588 0.0
C767 C 0.69065 0.99098 0.56856 0.0
C768 C 0.70533 0.01846 0.59104 0.0
C769 C 0.73703 0.03329 0.58072 0.0
C770 C 0.67916 0.04596 0.60192 0.0
C771 C 0.71388 -0.00151 0.61262 0.0
C772 C 0.70596 0.96493 0.60343 0.0
C773 C 0.70848 0.94205 0.62054 0.0
C774 C 0.71984 0.95368 0.6477 0.0
C775 C 0.72893 0.98771 0.65724 0.0
C776 C 0.72621 0.01033 0.63946 0.0
H777 H 0.9701 0.90523 0.90914 0.0
H778 H 0.07549 0.90198 0.9302 0.0
H779 H 0.08717 0.86683 0.88361 0.0
H780 H 0.96559 0.8196 0.87486 0.0
H781 H 0.93577 0.82643 0.84916 0.0
H782 H 0.93662 0.85436 0.88272 0.0
H783 H 0.94455 0.90511 0.85955 0.0
H784 H 0.94381 0.87726 0.82588 0.0
H785 H 0.97893 0.90504 0.83592 0.0
H786 H 0.08698 0.83288 0.83471 0.0
H787 H 0.07398 0.79526 0.78945 0.0
H788 H 0.96786 0.81561 0.80317 0.0
C789 C 0.99565 0.89739 0.90366 0.0
C790 C 0.0221 0.90639 0.92266 0.0
C791 C 0.05512 0.89521 0.91552 0.0
C792 C 0.06193 0.87553 0.88919 0.0
C793 C 0.03523 0.86692 0.87078 0.0
C794 C 0.00266 0.87697 0.87788 0.0
C795 C 0.97801 0.86162 0.85547 0.0
C796 C 0.95251 0.83917 0.8662 0.0
C797 C 0.96029 0.88889 0.8435 0.0
C798 C 0.00178 0.84115 0.83471 0.0
C799 C 0.03476 0.84523 0.84358 0.0
C800 C 0.06127 0.82932 0.82759 0.0
C801 C 0.05374 0.80819 0.80202 0.0
C802 C 0.02003 0.80269 0.79334 0.0
C803 C 0.9938 0.81943 0.80972 0.0
H804 H 0.07002 0.03782 0.96547 0.0
H805 H 0.11743 0.98096 0.01989 0.0
H806 H 0.17171 0.00825 0.01423 0.0
H807 H 0.14188 0.03756 0.91861 0.0
H808 H 0.13307 0.07975 0.91496 0.0
H809 H 0.09925 0.05281 0.92076 0.0
H810 H 0.08033 0.09734 0.96386 0.0
H811 H 0.11366 0.12446 0.95789 0.0
H812 H 0.11034 0.11285 0.99092 0.0
H813 H 0.21853 0.0467 0.00689 0.0
H814 H 0.25274 0.09501 0.00105 0.0
H815 H 0.17442 0.12448 0.94996 0.0
C816 C 0.09184 0.03074 0.97602 0.0
C817 C 0.08958 0.00736 0.99319 0.0
C818 C 0.1187 -0.00115 0.00662 0.0
C819 C 0.14961 0.01401 0.00335 0.0
C820 C 0.15087 0.03708 0.98625 0.0
C821 C 0.12268 0.04531 0.9728 0.0
C822 C 0.12969 0.07282 0.95751 0.0
C823 C 0.12574 0.05995 0.92609 0.0
C824 C 0.10719 0.10368 0.9682 0.0
C825 C 0.16598 0.07993 0.96538 0.0
C826 C 0.17798 0.05872 0.98158 0.0
C827 C 0.20967 0.06297 0.99376 0.0
C828 C 0.22893 0.09046 0.99028 0.0
C829 C 0.21625 0.11335 0.9749 0.0
C830 C 0.18507 0.10704 0.96132 0.0
H831 H 0.68889 0.59856 0.27612 0.0
H832 H 0.74678 0.61125 0.20496 0.0
H833 H 0.71435 0.66253 0.2033 0.0
H834 H 0.61307 0.61804 0.25309 0.0
H835 H 0.59703 0.64015 0.28607 0.0
H836 H 0.62869 0.60846 0.28475 0.0
H837 H 0.66715 0.65137 0.31681 0.0
H838 H 0.63538 0.68326 0.3184 0.0
H839 H 0.67731 0.69047 0.30738 0.0
H840 H 0.66889 0.70601 0.20446 0.0
H841 H 0.61649 0.73955 0.21007 0.0
H842 H 0.59063 0.69898 0.28153 0.0
C843 C 0.69538 0.61268 0.26069 0.0
C844 C 0.72024 0.6011 0.24071 0.0
C845 C 0.72794 0.61998 0.22064 0.0
C846 C 0.70968 0.6491 0.21953 0.0
C847 C 0.68441 0.65923 0.239 0.0
C848 C 0.67772 0.64186 0.25951 0.0
C849 C 0.64745 0.6559 0.27642 0.0
C850 C 0.61996 0.62905 0.27496 0.0
C851 C 0.65744 0.67117 0.30654 0.0
C852 C 0.63708 0.68277 0.26136 0.0
C853 C 0.65881 0.6847 0.24003 0.0
C854 C 0.65217 0.70537 0.22154 0.0
C855 C 0.62233 0.7242 0.22481 0.0
C856 C 0.59965 0.72201 0.24633 0.0
C857 C 0.60768 0.70162 0.26511 0.0
H858 H 0.33939 0.84593 0.50572 0.0
H859 H 0.41114 0.78319 0.53752 0.0
H860 H 0.45719 0.81951 0.52858 0.0
H861 H 0.39171 0.86403 0.45139 0.0
H862 H 0.37787 0.90697 0.45599 0.0
H863 H 0.35014 0.87575 0.4643 0.0
H864 H 0.34287 0.91145 0.51407 0.0
H865 H 0.37025 0.94293 0.5058 0.0
H866 H 0.37953 0.92459 0.53502 0.0
H867 H 0.49563 0.86146 0.51548 0.0
H868 H 0.52359 0.91039 0.50368 0.0
H869 H 0.42707 0.94726 0.48186 0.0
C870 C 0.36477 0.83994 0.51092 0.0
C871 C 0.37163 0.81173 0.52234 0.0
C872 C 0.40519 0.80476 0.52889 0.0
C873 C 0.4316 0.82509 0.52372 0.0
C874 C 0.42405 0.85241 0.51213 0.0
C875 C 0.39148 0.86017 0.50612 0.0
C876 C 0.39026 0.89172 0.49465 0.0
C877 C 0.37669 0.88415 0.46481 0.0
C878 C 0.3695 0.9193 0.51352 0.0
C879 C 0.4272 0.90059 0.49548 0.0
C880 C 0.44627 0.87726 0.50522 0.0
C881 C 0.48101 0.87999 0.50788 0.0
C882 C 0.49666 0.90779 0.50103 0.0
C883 C 0.47749 0.93267 0.49197 0.0
C884 C 0.44237 0.92868 0.4888 0.0
H885 H 0.04427 0.6391 0.749 0.0
H886 H 0.11666 0.71118 0.73161 0.0
H887 H 0.16277 0.67241 0.7366 0.0
H888 H 0.09593 0.60521 0.79883 0.0
H889 H 0.08155 0.56285 0.78585 0.0
H890 H 0.05441 0.5978 0.78425 0.0
H891 H 0.04742 0.57562 0.73137 0.0
H892 H 0.07459 0.54072 0.73277 0.0
H893 H 0.08421 0.56813 0.70974 0.0
H894 H 0.20027 0.62513 0.74009 0.0
H895 H 0.22755 0.57118 0.74031 0.0
H896 H 0.13103 0.52818 0.75405 0.0
C897 C 0.06988 0.647 0.74688 0.0
C898 C 0.07702 0.67824 0.74021 0.0
C899 C 0.11073 0.68739 0.73685 0.0
C900 C 0.13705 0.66562 0.73974 0.0
C901 C 0.12916 0.63478 0.74587 0.0
C902 C 0.09645 0.62537 0.74936 0.0
C903 C 0.09476 0.58966 0.75353 0.0
C904 C 0.08084 0.58885 0.78233 0.0
C905 C 0.07402 0.56722 0.73048 0.0
C906 C 0.13162 0.58027 0.75132 0.0
C907 C 0.15095 0.60689 0.74725 0.0
C908 C 0.18547 0.60417 0.74348 0.0
C909 C 0.20069 0.5733 0.74355 0.0
C910 C 0.1814 0.54537 0.74715 0.0
C911 C 0.14644 0.54911 0.75146 0.0
H912 H 0.84658 0.35333 0.52159 0.0
H913 H 0.77019 0.4234 0.50643 0.0
H914 H 0.81328 0.45568 0.48787 0.0
H915 H 0.91341 0.41549 0.54178 0.0
H916 H 0.94552 0.3871 0.52501 0.0
H917 H 0.90877 0.37087 0.53869 0.0
H918 H 0.89733 0.33268 0.49044 0.0
H919 H 0.93361 0.34936 0.47646 0.0
H920 H 0.89301 0.35133 0.46073 0.0
H921 H 0.86379 0.47832 0.46824 0.0
H922 H 0.91987 0.4938 0.454 0.0
H923 H 0.96325 0.409 0.48188 0.0
C924 C 0.83904 0.3759 0.515 0.0
C925 C 0.80505 0.3859 0.51557 0.0
C926 C 0.79611 0.41531 0.5063 0.0
C927 C 0.82036 0.43373 0.49556 0.0
C928 C 0.85343 0.42249 0.49432 0.0
C929 C 0.86292 0.3946 0.50417 0.0
C930 C 0.9001 0.38766 0.50006 0.0
C931 C 0.918 0.39046 0.52805 0.0
C932 C 0.90636 0.35321 0.48077 0.0
C933 C 0.90994 0.41598 0.48636 0.0
C934 C 0.88261 0.43563 0.48304 0.0
C935 C 0.88546 0.46325 0.47085 0.0
C936 C 0.91737 0.4717 0.46266 0.0
C937 C 0.94593 0.45265 0.46686 0.0
C938 C 0.94191 0.42403 0.47833 0.0
H939 H 0.31409 0.92179 0.23804 0.0
H940 H 0.2497 0.88385 0.29502 0.0
H941 H 0.29046 0.83841 0.29604 0.0
H942 H 0.3439 0.84022 0.19931 0.0
H943 H 0.38559 0.8558 0.1957 0.0
H944 H 0.35001 0.88359 0.19786 0.0
H945 H 0.37763 0.92433 0.2395 0.0
H946 H 0.4132 0.89668 0.23748 0.0
H947 H 0.39024 0.90876 0.26944 0.0
H948 H 0.34062 0.80025 0.29386 0.0
H949 H 0.39558 0.77133 0.28752 0.0
H950 H 0.42574 0.83414 0.23128 0.0
C951 C 0.30828 0.90365 0.25042 0.0
C952 C 0.27876 0.90622 0.26637 0.0
C953 C 0.27215 0.88216 0.28248 0.0
C954 C 0.29511 0.8563 0.2832 0.0
C955 C 0.32427 0.85479 0.26751 0.0
C956 C 0.33076 0.87769 0.25127 0.0
C957 C 0.36457 0.87161 0.23735 0.0
C958 C 0.36077 0.86224 0.20568 0.0
C959 C 0.38776 0.90216 0.24651 0.0
C960 C 0.37638 0.84204 0.24866 0.0
C961 C 0.35283 0.8326 0.26597 0.0
C962 C 0.35907 0.80708 0.28004 0.0
C963 C 0.39033 0.79089 0.27637 0.0
C964 C 0.41473 0.80036 0.25874 0.0
C965 C 0.4074 0.82601 0.24457 0.0
H966 H 0.2787 0.36071 0.76802 0.0
H967 H 0.28423 0.37303 0.68337 0.0
H968 H 0.32454 0.32627 0.6722 0.0
H969 H 0.36108 0.35177 0.77646 0.0
H970 H 0.35999 0.32065 0.79736 0.0
H971 H 0.32471 0.34807 0.79723 0.0
H972 H 0.28543 0.29677 0.78254 0.0
H973 H 0.3207 0.26905 0.78286 0.0
H974 H 0.29521 0.26499 0.75216 0.0
H975 H 0.37307 0.29031 0.67286 0.0
H976 H 0.42543 0.26421 0.68498 0.0
H977 H 0.38914 0.27205 0.76856 0.0
C978 C 0.28727 0.35226 0.7469 0.0
C979 C 0.27825 0.36981 0.72637 0.0
C980 C 0.29081 0.35942 0.69918 0.0
C981 C 0.31354 0.33283 0.69264 0.0
C982 C 0.32343 0.31689 0.71356 0.0
C983 C 0.31045 0.32582 0.74011 0.0
C984 C 0.32923 0.30823 0.75964 0.0
C985 C 0.34466 0.3337 0.78409 0.0
C986 C 0.30627 0.28327 0.7699 0.0
C987 C 0.35605 0.29004 0.74034 0.0
C988 C 0.3518 0.2949 0.71373 0.0
C989 C 0.37607 0.28512 0.69327 0.0
C990 C 0.40573 0.27053 0.7003 0.0
C991 C 0.41052 0.26553 0.72737 0.0
C992 C 0.38514 0.27452 0.74742 0.0
H993 H 0.26298 0.74494 0.61562 0.0
H994 H 0.2587 0.83822 0.58755 0.0
H995 H 0.21735 0.86056 0.62384 0.0
H996 H 0.18269 0.73565 0.61902 0.0
H997 H 0.18019 0.71771 0.64922 0.0
H998 H 0.21811 0.7136 0.62939 0.0
H999 H 0.25201 0.74129 0.67303 0.0
H1000 H 0.21403 0.74515 0.69327 0.0
H1001 H 0.23933 0.78169 0.69312 0.0
H1002 H 0.16678 0.86632 0.65169 0.0
H1003 H 0.11095 0.85501 0.66908 0.0
H1004 H 0.14523 0.75782 0.67941 0.0
C1005 C 0.25473 0.77077 0.61838 0.0
C1006 C 0.26428 0.79024 0.59938 0.0
C1007 C 0.25192 0.82328 0.60234 0.0
C1008 C 0.22856 0.83617 0.62297 0.0
C1009 C 0.21772 0.81559 0.64034 0.0
C1010 C 0.23068 0.78362 0.6385 0.0
C1011 C 0.20992 0.76405 0.65524 0.0
C1012 C 0.19696 0.73084 0.63712 0.0
C1013 C 0.23002 0.75768 0.68015 0.0
C1014 C 0.18165 0.78877 0.66456 0.0
C1015 C 0.18732 0.81881 0.65661 0.0
C1016 C 0.16255 0.84346 0.65891 0.0
C1017 C 0.13088 0.83681 0.66861 0.0
C1018 C 0.12426 0.80581 0.67583 0.0
C1019 C 0.15029 0.78213 0.67487 0.0
H1020 H 0.20755 0.92535 0.37239 0.0
H1021 H 0.11132 0.88083 0.34409 0.0
H1022 H 0.11844 0.84023 0.37413 0.0
H1023 H 0.24987 0.84793 0.37359 0.0
H1024 H 0.27413 0.86532 0.4041 0.0
H1025 H 0.26109 0.89176 0.38115 0.0
H1026 H 0.23223 0.93259 0.42185 0.0
H1027 H 0.24561 0.90663 0.44502 0.0
H1028 H 0.20176 0.9166 0.44258 0.0
H1029 H 0.13611 0.80452 0.40679 0.0
H1030 H 0.16165 0.7779 0.44224 0.0
H1031 H 0.24762 0.84384 0.44755 0.0
C1032 C 0.188 0.90697 0.37227 0.0
C1033 C 0.1589 0.90622 0.35567 0.0
C1034 C 0.13364 0.88219 0.35677 0.0
C1035 C 0.13763 0.8588 0.37356 0.0
C1036 C 0.16705 0.85975 0.38901 0.0
C1037 C 0.19172 0.88332 0.38865 0.0
C1038 C 0.22091 0.8791 0.4073 0.0
C1039 C 0.25342 0.87051 0.39052 0.0
C1040 C 0.22537 0.9106 0.43057 0.0
C1041 C 0.20866 0.84953 0.41844 0.0
C1042 C 0.17757 0.83874 0.40753 0.0
C1043 C 0.16046 0.81264 0.4154 0.0
C1044 C 0.17511 0.79772 0.43549 0.0
C1045 C 0.20654 0.80885 0.4474 0.0
C1046 C 0.22385 0.83458 0.43833 0.0
H1047 H 0.00328 0.69074 0.62692 0.0
H1048 H 0.9702 0.62758 0.68197 0.0
H1049 H 0.9738 0.57781 0.64361 0.0
H1050 H 0.9585 0.64364 0.5648 0.0
H1051 H 0.99191 0.6501 0.54201 0.0
H1052 H 0.98384 0.68104 0.57329 0.0
H1053 H 0.04581 0.67656 0.58826 0.0
H1054 H 0.05394 0.64527 0.55729 0.0
H1055 H 0.06254 0.6362 0.59071 0.0
H1056 H 0.98848 0.53449 0.6014 0.0
H1057 H 0.00545 0.50096 0.55555 0.0
H1058 H 0.02525 0.59276 0.52755 0.0
C1059 C 0.99612 0.66652 0.6307 0.0
C1060 C 0.98649 0.66287 0.65726 0.0
C1061 C 0.97738 0.63087 0.66161 0.0
C1062 C 0.97949 0.60246 0.64004 0.0
C1063 C 0.99011 0.60673 0.61426 0.0
C1064 C -0.00247 0.63802 0.60932 0.0
C1065 C 0.00904 0.63563 0.57989 0.0
C1066 C 0.98434 0.65366 0.56406 0.0
C1067 C 0.04496 0.64921 0.57901 0.0
C1068 C 0.00786 0.59805 0.56935 0.0
C1069 C -0.0029 0.58179 0.58953 0.0
C1070 C -0.00372 0.54689 0.58521 0.0
C1071 C 0.0062 0.52812 0.55932 0.0
C1072 C 0.01625 0.54449 0.53824 0.0
C1073 C 0.01709 0.57979 0.54333 0.0
H1074 H 0.32098 0.731 0.43217 0.0
H1075 H 0.36862 0.65741 0.47125 0.0
H1076 H 0.40556 0.64032 0.43077 0.0
H1077 H 0.33184 0.68282 0.35698 0.0
H1078 H 0.3406 0.72139 0.34617 0.0
H1079 H 0.31187 0.72133 0.37428 0.0
H1080 H 0.3471 0.76772 0.4058 0.0
H1081 H 0.37605 0.76769 0.37808 0.0
H1082 H 0.39115 0.76054 0.4107 0.0
H1083 H 0.44513 0.64058 0.39268 0.0
H1084 H 0.48336 0.65704 0.35867 0.0
H1085 H 0.4106 0.73001 0.34361 0.0
C1086 C 0.33813 0.71023 0.43161 0.0
C1087 C 0.34183 0.69534 0.45468 0.0
C1088 C 0.36529 0.66901 0.45368 0.0
C1089 C 0.38626 0.65902 0.43071 0.0
C1090 C 0.38326 0.67543 0.40886 0.0
C1091 C 0.35946 0.7002 0.40892 0.0
C1092 C 0.36481 0.71751 0.3851 0.0
C1093 C 0.33554 0.71032 0.3644 0.0
C1094 C 0.37011 0.75559 0.39556 0.0
C1095 C 0.3966 0.70016 0.37278 0.0
C1096 C 0.4064 0.67544 0.38641 0.0
C1097 C 0.43723 0.65909 0.38126 0.0
C1098 C 0.45886 0.66871 0.36212 0.0
C1099 C 0.44955 0.69439 0.34843 0.0
C1100 C 0.41768 0.70955 0.35323 0.0
H1101 H 0.25339 0.07442 0.18212 0.0
H1102 H 0.35416 0.0328 0.17815 0.0
H1103 H 0.36885 0.06329 0.14213 0.0
H1104 H 0.24571 0.07037 0.10732 0.0
H1105 H 0.22227 0.10906 0.11229 0.0
H1106 H 0.21913 0.08291 0.13724 0.0
H1107 H 0.23648 0.13336 0.17618 0.0
H1108 H 0.24003 0.15953 0.15132 0.0
H1109 H 0.27526 0.15496 0.17315 0.0
H1110 H 0.37419 0.10085 0.10921 0.0
H1111 H 0.36815 0.13997 0.07778 0.0
H1112 H 0.26351 0.15558 0.10113 0.0
C1113 C 0.27833 0.07123 0.17335 0.0
C1114 C 0.30274 0.05155 0.18332 0.0
C1115 C 0.33524 0.04833 0.17139 0.0
C1116 C 0.3438 0.06536 0.15075 0.0
C1117 C 0.31949 0.0852 0.14195 0.0
C1118 C 0.28727 0.08788 0.15249 0.0
C1119 C 0.26608 0.11122 0.13943 0.0
C1120 C 0.23655 0.09225 0.12309 0.0
C1121 C 0.25376 0.14156 0.16133 0.0
C1122 C 0.29169 0.12156 0.12029 0.0
C1123 C 0.32233 0.10631 0.12218 0.0
C1124 C 0.35027 0.11276 0.10731 0.0
C1125 C 0.3467 0.1352 0.08974 0.0
C1126 C 0.3154 0.15067 0.08709 0.0
C1127 C 0.2876 0.14373 0.10259 0.0
H1128 H 0.79373 0.67139 0.90301 0.0
H1129 H 0.71831 0.72451 0.86543 0.0
H1130 H 0.75347 0.71902 0.82387 0.0
H1131 H 0.8615 0.70998 0.88264 0.0
H1132 H 0.88896 0.67397 0.87563 0.0
H1133 H 0.85558 0.67615 0.90034 0.0
H1134 H 0.83193 0.61936 0.87325 0.0
H1135 H 0.86564 0.61663 0.84861 0.0
H1136 H 0.82267 0.61392 0.83686 0.0
H1137 H 0.80047 0.71738 0.79073 0.0
H1138 H 0.85443 0.71373 0.76554 0.0
H1139 H 0.89855 0.6602 0.82355 0.0
C1140 C 0.78405 0.68077 0.88564 0.0
C1141 C 0.75329 0.6983 0.88743 0.0
C1142 C 0.74177 0.71083 0.86448 0.0
C1143 C 0.76155 0.70786 0.84075 0.0
C1144 C 0.7925 0.69186 0.84017 0.0
C1145 C 0.80344 0.67791 0.86175 0.0
C1146 C 0.83894 0.66469 0.85698 0.0
C1147 C 0.86262 0.68226 0.88028 0.0
C1148 C 0.83983 0.62637 0.85372 0.0
C1149 C 0.84665 0.67462 0.82992 0.0
C1150 C 0.81949 0.69016 0.82052 0.0
C1151 C 0.82165 0.70448 0.79744 0.0
C1152 C 0.85234 0.70261 0.78346 0.0
C1153 C 0.88023 0.68639 0.79258 0.0
C1154 C 0.87722 0.672 0.81591 0.0
H1155 H 0.36096 0.5233 0.65589 0.0
H1156 H 0.30081 0.58539 0.71999 0.0
H1157 H 0.316 0.63563 0.70234 0.0
H1158 H 0.42747 0.58641 0.65166 0.0
H1159 H 0.42999 0.57369 0.61448 0.0
H1160 H 0.41903 0.54347 0.63473 0.0
H1161 H 0.36437 0.52913 0.60613 0.0
H1162 H 0.37528 0.55906 0.58576 0.0
H1163 H 0.3355 0.56238 0.60344 0.0
H1164 H 0.33256 0.67742 0.67557 0.0
H1165 H 0.3452 0.70777 0.63876 0.0
H1166 H 0.39346 0.61893 0.59063 0.0
C1167 C 0.3518 0.54769 0.6665 0.0
C1168 C 0.33005 0.55081 0.68938 0.0
C1169 C 0.31752 0.58275 0.70242 0.0
C1170 C 0.32627 0.61134 0.69271 0.0
C1171 C 0.34746 0.60746 0.66987 0.0
C1172 C 0.3599 0.57644 0.65676 0.0
C1173 C 0.37872 0.57862 0.6306 0.0
C1174 C 0.41602 0.57004 0.63303 0.0
C1175 C 0.36248 0.55597 0.60498 0.0
C1176 C 0.37396 0.61549 0.63061 0.0
C1177 C 0.3565 0.63174 0.65382 0.0
C1178 C 0.34667 0.66516 0.65753 0.0
C1179 C 0.35386 0.68215 0.63654 0.0
C1180 C 0.37044 0.66566 0.61208 0.0
C1181 C 0.38154 0.63225 0.60948 0.0
H1182 H 0.27458 0.98343 0.3536 0.0
H1183 H 0.27155 0.07941 0.32952 0.0
H1184 H 0.30708 0.10427 0.3699 0.0
H1185 H 0.27759 0.01396 0.42904 0.0
H1186 H 0.30761 0.98255 0.4338 0.0
H1187 H 0.27825 0.97356 0.4054 0.0
H1188 H 0.3275 0.95839 0.37087 0.0
H1189 H 0.357 0.96728 0.39909 0.0
H1190 H 0.36058 0.98846 0.3708 0.0
H1191 H 0.34428 0.11791 0.41153 0.0
H1192 H 0.38635 0.11816 0.44832 0.0
H1193 H 0.36919 0.01207 0.44297 0.0
C1194 C 0.28087 0.00985 0.3573 0.0
C1195 C 0.27001 0.02988 0.33903 0.0
C1196 C 0.27952 0.06398 0.34364 0.0
C1197 C 0.29948 0.07825 0.36652 0.0
C1198 C 0.31012 0.05779 0.38412 0.0
C1199 C 0.30158 0.0242 0.37955 0.0
C1200 C 0.31947 0.00682 0.39962 0.0
C1201 C 0.29422 0.99345 0.41806 0.0
C1202 C 0.3425 0.97859 0.38416 0.0
C1203 C 0.33958 0.03587 0.41607 0.0
C1204 C 0.33326 0.06517 0.40716 0.0
C1205 C 0.34933 0.0952 0.4188 0.0
C1206 C 0.37302 0.09516 0.43975 0.0
C1207 C 0.38081 0.06517 0.44845 0.0
C1208 C 0.36358 0.03529 0.43664 0.0
H1209 H 0.81787 0.78105 0.98521 0.0
H1210 H 0.74266 0.84345 0.95705 0.0
H1211 H 0.78305 0.89032 0.96381 0.0
H1212 H 0.85549 0.84619 0.03771 0.0
H1213 H 0.89756 0.83031 0.03074 0.0
H1214 H 0.86242 0.80192 0.02462 0.0
H1215 H 0.8813 0.78068 0.97371 0.0
H1216 H 0.91656 0.80886 0.9797 0.0
H1217 H 0.88747 0.81049 0.95207 0.0
H1218 H 0.8313 0.92966 0.97273 0.0
H1219 H 0.88548 0.95881 0.98122 0.0
H1220 H 0.9298 0.87065 0.00321 0.0
C1221 C 0.80981 0.80463 0.9806 0.0
C1222 C 0.77711 0.80873 0.97073 0.0
C1223 C 0.76761 0.83982 0.96467 0.0
C1224 C 0.7903 0.86659 0.96853 0.0
C1225 C 0.82229 0.86173 0.97838 0.0
C1226 C 0.83214 0.83152 0.98421 0.0
C1227 C 0.86838 0.83254 0.99361 0.0
C1228 C 0.87111 0.82744 0.02344 0.0
C1229 C 0.88968 0.80661 0.97357 0.0
C1230 C 0.87744 0.86804 0.992 0.0
C1231 C 0.85038 0.88445 0.98333 0.0
C1232 C 0.85265 0.91717 0.97962 0.0
C1233 C 0.88358 0.93348 0.98451 0.0
C1234 C 0.91187 0.91697 0.99292 0.0
C1235 C 0.90857 0.88396 -0.00298 0.0
H1236 H 0.69616 0.21006 0.52528 0.0
H1237 H 0.62211 0.2841 0.5135 0.0
H1238 H 0.57929 0.23981 0.50259 0.0
H1239 H 0.67005 0.14616 0.47003 0.0
H1240 H 0.67674 0.11209 0.48737 0.0
H1241 H 0.7013 0.14983 0.49694 0.0
H1242 H 0.6824 0.15723 0.548 0.0
H1243 H 0.65824 0.11916 0.53869 0.0
H1244 H 0.63823 0.15766 0.55594 0.0
H1245 H 0.54564 0.18778 0.48986 0.0
H1246 H 0.52165 0.1308 0.47931 0.0
H1247 H 0.61747 0.09017 0.49875 0.0
C1248 C 0.67077 0.21702 0.52098 0.0
C1249 C 0.66243 0.25046 0.52021 0.0
C1250 C 0.62906 0.25859 0.51414 0.0
C1251 C 0.60454 0.23364 0.5079 0.0
C1252 C 0.61382 0.20077 0.50791 0.0
C1253 C 0.64596 0.19238 0.5146 0.0
C1254 C 0.64948 0.15488 0.51209 0.0
C1255 C 0.67596 0.13987 0.49031 0.0
C1256 C 0.65755 0.14676 0.54036 0.0
C1257 C 0.61446 0.14358 0.50247 0.0
C1258 C 0.59431 0.17049 0.50031 0.0
C1259 C 0.56105 0.16646 0.49162 0.0
C1260 C 0.54773 0.134 0.48553 0.0
C1261 C 0.56774 0.10609 0.48809 0.0
C1262 C 0.60164 0.11099 0.49637 0.0
H1263 H 0.78661 0.40756 0.26107 0.0
H1264 H 0.79959 0.41289 0.17515 0.0
H1265 H 0.82064 0.35463 0.1644 0.0
H1266 H 0.8618 0.36833 0.26626 0.0
H1267 H 0.84765 0.3424 0.28921 0.0
H1268 H 0.82664 0.38133 0.28896 0.0
H1269 H 0.77015 0.34952 0.27894 0.0
H1270 H 0.79124 0.31032 0.27886 0.0
H1271 H 0.76658 0.31506 0.24934 0.0
H1272 H 0.84719 0.30057 0.16388 0.0
H1273 H 0.88403 0.25651 0.17449 0.0
H1274 H 0.85623 0.28537 0.26108 0.0
C1275 C 0.79306 0.39595 0.2399 0.0
C1276 C 0.79129 0.41428 0.21882 0.0
C1277 C 0.80084 0.39902 0.1915 0.0
C1278 C 0.81239 0.36588 0.18517 0.0
C1279 C 0.81442 0.34849 0.20645 0.0
C1280 C 0.80536 0.36303 0.23335 0.0
C1281 C 0.81515 0.34086 0.25306 0.0
C1282 C 0.83925 0.35933 0.27568 0.0
C1283 C 0.78391 0.32819 0.2658 0.0
C1284 C 0.83261 0.31247 0.23322 0.0
C1285 C 0.83089 0.31695 0.20631 0.0
C1286 C 0.84816 0.29631 0.18471 0.0
C1287 C 0.86903 0.27139 0.19093 0.0
C1288 C 0.87256 0.2675 0.21851 0.0
C1289 C 0.85309 0.2873 0.23972 0.0
H1290 H 0.10567 0.58487 0.46158 0.0
H1291 H 0.15149 0.49998 0.48761 0.0
H1292 H 0.19909 0.53586 0.5076 0.0
H1293 H 0.18317 0.62312 0.44421 0.0
H1294 H 0.16779 0.66515 0.45724 0.0
H1295 H 0.13886 0.63189 0.44333 0.0
H1296 H 0.10533 0.6457 0.48927 0.0
H1297 H 0.13459 0.67849 0.50356 0.0
H1298 H 0.12648 0.64522 0.52144 0.0
H1299 H 0.23995 0.58189 0.52718 0.0
H1300 H 0.27396 0.63341 0.54077 0.0
H1301 H 0.2005 0.68791 0.50245 0.0
C1302 C 0.12608 0.57355 0.47087 0.0
C1303 C 0.12499 0.53956 0.47285 0.0
C1304 C 0.15193 0.52592 0.48566 0.0
C1305 C 0.17896 0.54613 0.49723 0.0
C1306 C 0.17862 0.57985 0.4958 0.0
C1307 C 0.1531 0.59336 0.48264 0.0
C1308 C 0.1582 0.63051 0.48457 0.0
C1309 C 0.16226 0.6381 0.45561 0.0
C1310 C 0.12944 0.65118 0.50067 0.0
C1311 C 0.19068 0.63578 0.50077 0.0
C1312 C 0.20196 0.60634 0.50722 0.0
C1313 C 0.23147 0.60507 0.52213 0.0
C1314 C 0.25049 0.6345 0.5299 0.0
C1315 C 0.2399 0.66465 0.52263 0.0
C1316 C 0.20926 0.66529 0.50836 0.0
H1317 H 0.67202 0.07632 0.77144 0.0
H1318 H 0.75157 0.12861 0.73829 0.0
H1319 H 0.71862 0.181 0.74936 0.0
H1320 H 0.60635 0.11293 0.74391 0.0
H1321 H 0.5786 0.11538 0.77301 0.0
H1322 H 0.6107 0.0837 0.76634 0.0
H1323 H 0.63376 0.1049 0.81617 0.0
H1324 H 0.60182 0.137 0.82281 0.0
H1325 H 0.64546 0.14836 0.82763 0.0
H1326 H 0.67403 0.22508 0.75759 0.0
H1327 H 0.6204 0.25609 0.76035 0.0
H1328 H 0.57127 0.17586 0.79015 0.0
C1329 C 0.68278 0.09894 0.76699 0.0
C1330 C 0.71431 0.09844 0.75408 0.0
C1331 C 0.72744 0.12846 0.7483 0.0
C1332 C 0.70904 0.15841 0.75469 0.0
C1333 C 0.67783 0.158 0.76719 0.0
C1334 C 0.66486 0.12906 0.77338 0.0
C1335 C 0.62942 0.13438 0.78422 0.0
C1336 C 0.60484 0.11019 0.76576 0.0
C1337 C 0.62752 0.13096 0.81451 0.0
C1338 C 0.6239 0.17031 0.78185 0.0
C1339 C 0.65226 0.18378 0.77247 0.0
C1340 C 0.65187 0.21518 0.76559 0.0
C1341 C 0.62132 0.23266 0.76727 0.0
C1342 C 0.59173 0.21845 0.77558 0.0
C1343 C 0.59355 0.18765 0.78414 0.0
H1344 H 0.7792 0.55855 0.12721 0.0
H1345 H 0.88476 0.57888 0.14528 0.0
H1346 H 0.88645 0.61334 0.10995 0.0
H1347 H 0.78363 0.55287 0.054 0.0
H1348 H 0.74373 0.57323 0.05222 0.0
H1349 H 0.75109 0.54972 0.07857 0.0
H1350 H 0.73556 0.60202 0.1164 0.0
H1351 H 0.72832 0.62579 0.09019 0.0
H1352 H 0.75763 0.64089 0.11787 0.0
H1353 H 0.87636 0.64638 0.07366 0.0
H1354 H 0.85609 0.67395 0.03709 0.0
H1355 H 0.75676 0.6326 0.04285 0.0
C1356 C 0.80266 0.5704 0.12395 0.0
C1357 C 0.83187 0.5661 0.13916 0.0
C1358 C 0.86219 0.58151 0.13373 0.0
C1359 C 0.86331 0.60134 0.11386 0.0
C1360 C 0.83391 0.60544 0.09961 0.0
C1361 C 0.80419 0.5903 0.1043 0.0
C1362 C 0.77617 0.59863 0.08611 0.0
C1363 C 0.76289 0.56671 0.06657 0.0
C1364 C 0.74775 0.61799 0.1037 0.0
C1365 C 0.79484 0.62083 0.07036 0.0
C1366 C 0.82808 0.62446 0.07857 0.0
C1367 C 0.85045 0.64358 0.06695 0.0
C1368 C 0.83871 0.65899 0.04608 0.0
C1369 C 0.8049 0.65517 0.03692 0.0
C1370 C 0.78263 0.63616 0.04955 0.0
H1371 H 0.9673 0.54045 0.35995 0.0
H1372 H 0.91409 0.6033 0.4282 0.0
H1373 H 0.86326 0.60095 0.39883 0.0
H1374 H 0.9288 0.57745 0.30525 0.0
H1375 H 0.92795 0.53772 0.28075 0.0
H1376 H 0.96032 0.54613 0.30682 0.0
H1377 H 0.94376 0.4922 0.32326 0.0
H1378 H 0.91112 0.48382 0.29749 0.0
H1379 H 0.90103 0.48697 0.33346 0.0
H1380 H 0.81668 0.58538 0.36385 0.0
H1381 H 0.77966 0.56486 0.32347 0.0
H1382 H 0.86484 0.5165 0.27671 0.0
C1383 C 0.94505 0.5542 0.36839 0.0
C1384 C 0.94435 0.57217 0.39613 0.0
C1385 C 0.915 0.58982 0.40681 0.0
C1386 C 0.88608 0.5884 0.39037 0.0
C1387 C 0.88734 0.56981 0.36319 0.0
C1388 C 0.91631 0.55367 0.35207 0.0
C1389 C 0.91105 0.53528 0.32235 0.0
C1390 C 0.93335 0.55004 0.30263 0.0
C1391 C 0.9171 0.49733 0.31896 0.0
C1392 C 0.87437 0.54293 0.31867 0.0
C1393 C 0.86102 0.56255 0.34256 0.0
C1394 C 0.82699 0.57066 0.34483 0.0
C1395 C 0.80616 0.55877 0.32193 0.0
C1396 C 0.81965 0.53961 0.29704 0.0
C1397 C 0.85415 0.53172 0.29539 0.0
H1398 H 0.20864 0.46577 0.64692 0.0
H1399 H 0.1682 0.38005 0.6747 0.0
H1400 H 0.14084 0.3604 0.62934 0.0
H1401 H 0.13606 0.4825 0.61301 0.0
H1402 H 0.15699 0.49531 0.58472 0.0
H1403 H 0.17771 0.50006 0.61768 0.0
H1404 H 0.2281 0.46501 0.59404 0.0
H1405 H 0.20752 0.46023 0.56093 0.0
H1406 H 0.22091 0.42366 0.57303 0.0
H1407 H 0.11391 0.35268 0.58317 0.0
H1408 H 0.08657 0.35901 0.53985 0.0
H1409 H 0.14331 0.45024 0.54201 0.0
C1410 C 0.19469 0.44246 0.64312 0.0
C1411 C 0.19065 0.42424 0.66409 0.0
C1412 C 0.17153 0.39432 0.6588 0.0
C1413 C 0.1561 0.38285 0.63308 0.0
C1414 C 0.15995 0.40169 0.61297 0.0
C1415 C 0.17867 0.4309 0.61766 0.0
C1416 C 0.1759 0.44819 0.59357 0.0
C1417 C 0.16075 0.4836 0.60281 0.0
C1418 C 0.21015 0.44932 0.57956 0.0
C1419 C 0.152 0.4246 0.57504 0.0
C1420 C 0.14362 0.39764 0.58639 0.0
C1421 C 0.12062 0.37341 0.57382 0.0
C1422 C 0.10531 0.37715 0.54916 0.0
C1423 C 0.11283 0.40509 0.53753 0.0
C1424 C 0.13694 0.42872 0.55047 0.0
H1425 H 0.5954 0.76379 0.15049 0.0
H1426 H 0.54817 0.85527 0.13836 0.0
H1427 H 0.58797 0.85744 0.10049 0.0
H1428 H 0.68338 0.78328 0.13133 0.0
H1429 H 0.69068 0.74039 0.11363 0.0
H1430 H 0.66304 0.74951 0.14313 0.0
H1431 H 0.61551 0.7161 0.11363 0.0
H1432 H 0.64286 0.70698 0.08411 0.0
H1433 H 0.60307 0.7273 0.08173 0.0
H1434 H 0.62649 0.8458 0.06086 0.0
H1435 H 0.65977 0.81999 0.01996 0.0
H1436 H 0.68224 0.73498 0.05669 0.0
C1437 C 0.59434 0.78487 0.14045 0.0
C1438 C 0.56922 0.80971 0.14742 0.0
C1439 C 0.56746 0.83622 0.13325 0.0
C1440 C 0.59008 0.83774 0.11195 0.0
C1441 C 0.61415 0.81246 0.10514 0.0
C1442 C 0.61646 0.78645 0.11891 0.0
C1443 C 0.64157 0.76015 0.10515 0.0
C1444 C 0.67145 0.75824 0.12446 0.0
C1445 C 0.62473 0.72561 0.09558 0.0
C1446 C 0.652 0.77475 0.08079 0.0
C1447 C 0.63635 0.80528 0.0816 0.0
C1448 C 0.63939 0.82227 0.06022 0.0
C1449 C 0.65819 0.8073 0.03704 0.0
C1450 C 0.6736 0.77561 0.03535 0.0
C1451 C 0.67127 0.75956 0.05782 0.0
H1452 H 0.6573 0.4593 0.18535 0.0
H1453 H 0.73418 0.50049 0.1401 0.0
H1454 H 0.6997 0.48719 0.09804 0.0
H1455 H 0.63199 0.39063 0.12748 0.0
H1456 H 0.58814 0.39442 0.13652 0.0
H1457 H 0.6197 0.4051 0.16312 0.0
H1458 H 0.59347 0.46433 0.17895 0.0
H1459 H 0.5618 0.45378 0.15251 0.0
H1460 H 0.58773 0.49029 0.15406 0.0
H1461 H 0.65572 0.47487 0.06226 0.0
H1462 H 0.60396 0.46251 0.03416 0.0
H1463 H 0.55611 0.42656 0.10065 0.0
C1464 C 0.66696 0.46515 0.16651 0.0
C1465 C 0.69847 0.48086 0.16606 0.0
C1466 C 0.71019 0.48833 0.14102 0.0
C1467 C 0.69084 0.48082 0.11692 0.0
C1468 C 0.65992 0.46551 0.11803 0.0
C1469 C 0.648 0.45756 0.14204 0.0
C1470 C 0.61318 0.44239 0.13764 0.0
C1471 C 0.61328 0.40597 0.14141 0.0
C1472 C 0.58754 0.464 0.15693 0.0
C1473 C 0.60723 0.44388 0.10764 0.0
C1474 C 0.63463 0.45725 0.09678 0.0
C1475 C 0.63433 0.46372 0.07026 0.0
C1476 C 0.605 0.45671 0.0545 0.0
C1477 C 0.57671 0.44307 0.0652 0.0
C1478 C 0.57797 0.43606 0.09189 0.0
H1479 H 0.35711 0.43525 0.98655 0.0
H1480 H 0.39158 0.44173 0.07062 0.0
H1481 H 0.34994 0.39877 0.07632 0.0
H1482 H 0.26661 0.41345 -0.00402 0.0
H1483 H 0.2658 0.38372 0.96321 0.0
H1484 H 0.29225 0.42034 0.96775 0.0
H1485 H 0.34393 0.38228 0.95245 0.0
H1486 H 0.31777 0.34566 0.94792 0.0
H1487 H 0.35385 0.34946 0.97043 0.0
H1488 H 0.3109 0.35153 0.07126 0.0
H1489 H 0.28151 0.2981 0.05483 0.0
H1490 H 0.27458 0.31832 0.97238 0.0
C1491 C 0.35485 0.42836 0.00643 0.0
C1492 C 0.37658 0.44209 0.02849 0.0
C1493 C 0.3745 0.43168 0.05381 0.0
C1494 C 0.35086 0.40755 0.05721 0.0
C1495 C 0.33007 0.39388 0.03488 0.0
C1496 C 0.33204 0.40361 0.00984 0.0
C1497 C 0.31106 0.38104 0.98778 0.0
C1498 C 0.28221 0.40082 0.97812 0.0
C1499 C 0.33297 0.36358 0.96322 0.0
C1500 C 0.29798 0.35629 0.00407 0.0
C1501 C 0.30852 0.36491 0.03138 0.0
C1502 C 0.30209 0.34475 0.05008 0.0
C1503 C 0.2855 0.31437 0.04048 0.0
C1504 C 0.27583 0.30417 0.01233 0.0
C1505 C 0.28115 0.32588 -0.00591 0.0
H1506 H 0.06215 0.16417 0.21917 0.0
H1507 H 0.02213 0.19015 0.30259 0.0
H1508 H 0.06711 0.15791 0.31886 0.0
H1509 H 0.08081 0.08193 0.21942 0.0
H1510 H 0.11951 0.07922 0.20025 0.0
H1511 H 0.08777 0.10891 0.19552 0.0
H1512 H 0.13068 0.15745 0.20804 0.0
H1513 H 0.16273 0.12782 0.2126 0.0
H1514 H 0.15352 0.16337 0.24023 0.0
H1515 H 0.10896 0.11611 0.32479 0.0
H1516 H 0.14927 0.06928 0.32066 0.0
H1517 H 0.16533 0.07111 0.23432 0.0
C1518 C 0.06364 0.16386 0.24098 0.0
C1519 C 0.03868 0.17946 0.25965 0.0
C1520 C 0.04083 0.17803 0.28793 0.0
C1521 C 0.06643 0.16 0.29743 0.0
C1522 C 0.08992 0.14375 0.27843 0.0
C1523 C 0.08919 0.14578 0.25086 0.0
C1524 C 0.11585 0.12332 0.23448 0.0
C1525 C 0.10003 0.09678 0.21105 0.0
C1526 C 0.14227 0.14425 0.22318 0.0
C1527 C 0.13051 0.10745 0.25696 0.0
C1528 C 0.11526 0.11987 0.28216 0.0
C1529 C 0.1218 0.10675 0.3054 0.0
C1530 C 0.14449 0.08008 0.30284 0.0
C1531 C 0.16054 0.06712 0.27733 0.0
C1532 C 0.15391 0.08129 0.25422 0.0
H1533 H 0.19354 0.30318 0.90894 0.0
H1534 H 0.15828 0.21027 0.8569 0.0
H1535 H 0.14459 0.24021 0.81976 0.0
H1536 H 0.12946 0.35481 0.89027 0.0
H1537 H 0.15622 0.39056 0.89097 0.0
H1538 H 0.16575 0.36148 0.91262 0.0
H1539 H 0.22519 0.35184 0.89116 0.0
H1540 H 0.216 0.38123 0.8697 0.0
H1541 H 0.22956 0.33924 0.85409 0.0
H1542 H 0.13516 0.28036 0.78829 0.0
H1543 H 0.12911 0.32862 0.76536 0.0
H1544 H 0.16648 0.3956 0.83926 0.0
C1545 C 0.1835 0.28918 0.88951 0.0
C1546 C 0.17715 0.25448 0.88552 0.0
C1547 C 0.16325 0.23692 0.86017 0.0
C1548 C 0.15548 0.25367 0.83903 0.0
C1549 C 0.16141 0.28807 0.84376 0.0
C1550 C 0.17503 0.30567 0.86839 0.0
C1551 C 0.17745 0.34277 0.86871 0.0
C1552 C 0.15593 0.36362 0.89203 0.0
C1553 C 0.21424 0.35445 0.87105 0.0
C1554 C 0.16294 0.34327 0.8405 0.0
C1555 C 0.1542 0.31143 0.82627 0.0
C1556 C 0.14154 0.30547 0.79932 0.0
C1557 C 0.13803 0.33283 0.78652 0.0
C1558 C 0.14646 0.36557 0.80093 0.0
C1559 C 0.15889 0.37082 0.82825 0.0
H1560 H 0.29822 0.20448 0.90301 0.0
H1561 H 0.35569 0.16267 0.96226 0.0
H1562 H 0.39855 0.14241 0.92628 0.0
H1563 H 0.31467 0.13897 0.84318 0.0
H1564 H 0.31768 0.16763 0.8202 0.0
H1565 H 0.29123 0.17774 0.85036 0.0
H1566 H 0.32269 0.23416 0.86707 0.0
H1567 H 0.34875 0.22449 0.83675 0.0
H1568 H 0.36773 0.23392 0.87065 0.0
H1569 H 0.43548 0.12801 0.88367 0.0
H1570 H 0.46615 0.12624 0.83991 0.0
H1571 H 0.38308 0.1768 0.80947 0.0
C1572 C 0.31976 0.19101 0.9085 0.0
C1573 C 0.32365 0.18497 0.93533 0.0
C1574 C 0.35235 0.16757 0.94176 0.0
C1575 C 0.37661 0.15576 0.92144 0.0
C1576 C 0.3716 0.16163 0.89498 0.0
C1577 C 0.34403 0.17918 0.88864 0.0
C1578 C 0.34505 0.18379 0.85922 0.0
C1579 C 0.3154 0.16596 0.84225 0.0
C1580 C 0.34614 0.2213 0.85839 0.0
C1581 C 0.37782 0.16646 0.84999 0.0
C1582 C 0.39265 0.15344 0.8707 0.0
C1583 C 0.42396 0.13781 0.86722 0.0
C1584 C 0.44105 0.13664 0.84226 0.0
C1585 C 0.42676 0.15131 0.82144 0.0
C1586 C 0.39437 0.16535 0.82511 0.0
H1587 H 0.36783 0.56761 0.91408 0.0
H1588 H 0.29825 0.53104 0.96768 0.0
H1589 H 0.26046 0.5107 0.92783 0.0
H1590 H 0.30432 0.59048 0.86456 0.0
H1591 H 0.33123 0.57551 0.83523 0.0
H1592 H 0.34928 0.593 0.86868 0.0
H1593 H 0.38385 0.53848 0.86569 0.0
H1594 H 0.36544 0.52051 0.83258 0.0
H1595 H 0.3624 0.49874 0.86054 0.0
H1596 H 0.23478 0.48814 0.8825 0.0
H1597 H 0.22009 0.46623 0.83381 0.0
H1598 H 0.30745 0.51545 0.80817 0.0
C1599 C 0.34385 0.55671 0.91742 0.0
C1600 C 0.33512 0.55156 0.94378 0.0
C1601 C 0.30459 0.5357 0.94756 0.0
C1602 C 0.2832 0.52408 0.92512 0.0
C1603 C 0.29305 0.52836 0.89911 0.0
C1604 C 0.3225 0.5445 0.89508 0.0
C1605 C 0.32895 0.54234 0.86455 0.0
C1606 C 0.3284 0.57742 0.85786 0.0
C1607 C 0.36212 0.52392 0.85532 0.0
C1608 C 0.29898 0.52173 0.85206 0.0
C1609 C 0.27852 0.5143 0.87246 0.0
C1610 C 0.25024 0.49423 0.86631 0.0
C1611 C 0.24227 0.48176 0.83852 0.0
C1612 C 0.2626 0.48924 0.81713 0.0
C1613 C 0.2914 0.50943 0.82405 0.0
H1614 H 0.66542 0.63682 0.98904 0.0
H1615 H 0.61887 0.67229 0.9212 0.0
H1616 H 0.57247 0.63241 0.92049 0.0
H1617 H 0.63856 0.54731 0.96712 0.0
H1618 H 0.63075 0.54364 0.00222 0.0
H1619 H 0.66291 0.57164 -0.00486 0.0
H1620 H 0.63487 0.62094 0.02949 0.0
H1621 H 0.60256 0.59323 0.03657 0.0
H1622 H 0.59136 0.63065 0.02478 0.0
H1623 H 0.52861 0.59468 0.93015 0.0
H1624 H 0.48903 0.55949 0.94921 0.0
H1625 H 0.56275 0.54681 0.01094 0.0
C1626 C 0.64589 0.63547 0.97357 0.0
C1627 C 0.6458 0.65743 0.95501 0.0
C1628 C 0.61943 0.65564 0.93554 0.0
C1629 C 0.59304 0.63299 0.93491 0.0
C1630 C 0.59338 0.61228 0.95387 0.0
C1631 C 0.61909 0.61308 0.97279 0.0
C1632 C 0.61163 0.59004 0.99239 0.0
C1633 C 0.63751 0.56145 0.989 0.0
C1634 C 0.61 0.60991 0.02259 0.0
C1635 C 0.57732 0.57694 0.98191 0.0
C1636 C 0.56757 0.59 0.95953 0.0
C1637 C 0.53609 0.58382 0.94736 0.0
C1638 C 0.51374 0.56397 0.95846 0.0
C1639 C 0.52294 0.55038 0.98145 0.0
C1640 C 0.55536 0.55648 0.99307 0.0
H1641 H 0.89574 0.79493 0.74338 0.0
H1642 H 0.95031 0.79789 0.66816 0.0
H1643 H 0.91313 0.84282 0.6597 0.0
H1644 H 0.81064 0.81623 0.71802 0.0
H1645 H 0.79994 0.84203 0.75128 0.0
H1646 H 0.82714 0.80619 0.74923 0.0
H1647 H 0.87224 0.84461 0.77764 0.0
H1648 H 0.84542 0.88056 0.77951 0.0
H1649 H 0.88715 0.88057 0.76552 0.0
H1650 H 0.87736 0.89245 0.66293 0.0
H1651 H 0.84122 0.94249 0.67608 0.0
H1652 H 0.80751 0.90791 0.74844 0.0
C1653 C 0.89897 0.80429 0.72467 0.0
C1654 C 0.92571 0.79291 0.70632 0.0
C1655 C 0.92995 0.80633 0.68245 0.0
C1656 C 0.90889 0.83176 0.67741 0.0
C1657 C 0.88359 0.84344 0.69637 0.0
C1658 C 0.87814 0.83 0.71937 0.0
C1659 C 0.85107 0.84944 0.73769 0.0
C1660 C 0.82037 0.82714 0.73913 0.0
C1661 C 0.86481 0.86469 0.7668 0.0
C1662 C 0.84311 0.87646 0.72182 0.0
C1663 C 0.86211 0.8723 0.69798 0.0
C1664 C 0.86172 0.89562 0.68116 0.0
C1665 C 0.84134 0.92404 0.68888 0.0
C1666 C 0.82145 0.92873 0.71305 0.0
C1667 C 0.82199 0.90443 0.72953 0.0
H1668 H 0.47048 0.17225 0.67004 0.0
H1669 H 0.57641 0.18474 0.68935 0.0
H1670 H 0.58962 0.13674 0.65059 0.0
H1671 H 0.46908 0.08268 0.64991 0.0
H1672 H 0.44005 0.08138 0.6217 0.0
H1673 H 0.43881 0.11593 0.65134 0.0
H1674 H 0.44638 0.15843 0.61964 0.0
H1675 H 0.44666 0.12406 0.5899 0.0
H1676 H 0.48111 0.15334 0.59578 0.0
H1677 H 0.59052 0.08644 0.61121 0.0
H1678 H 0.58105 0.04501 0.56771 0.0
H1679 H 0.47446 0.068 0.5726 0.0
C1680 C 0.49644 0.16502 0.66572 0.0
C1681 C 0.5226 0.18187 0.6821 0.0
C1682 C 0.5563 0.17209 0.67641 0.0
C1683 C 0.56388 0.14472 0.65482 0.0
C1684 C 0.53738 0.12799 0.63927 0.0
C1685 C 0.50443 0.13831 0.64399 0.0
C1686 C 0.48084 0.11758 0.62318 0.0
C1687 C 0.45571 0.09825 0.63739 0.0
C1688 C 0.4627 0.13967 0.60611 0.0
C1689 C 0.50568 0.09408 0.60584 0.0
C1690 C 0.53804 0.09993 0.61588 0.0
C1691 C 0.56533 0.08168 0.60307 0.0
C1692 C 0.55962 0.058 0.57848 0.0
C1693 C 0.52699 0.05346 0.56679 0.0
C1694 C 0.4996 0.07089 0.58117 0.0
H1695 H 0.52279 0.33182 0.83155 0.0
H1696 H 0.42467 0.28503 0.82157 0.0
H1697 H 0.40306 0.32851 0.86064 0.0
H1698 H 0.52111 0.35074 0.90621 0.0
H1699 H 0.54383 0.38954 0.90932 0.0
H1700 H 0.55056 0.3557 0.87979 0.0
H1701 H 0.53597 0.39572 0.8472 0.0
H1702 H 0.52869 0.42955 0.87667 0.0
H1703 H 0.49627 0.41751 0.85098 0.0
H1704 H 0.39192 0.37876 0.89919 0.0
H1705 H 0.39433 0.42639 0.93991 0.0
H1706 H 0.5011 0.4362 0.9273 0.0
C1707 C 0.49684 0.33078 0.8378 0.0
C1708 C 0.47523 0.30547 0.82388 0.0
C1709 C 0.44149 0.30433 0.83241 0.0
C1710 C 0.429 0.329 0.85429 0.0
C1711 C 0.45088 0.354 0.86752 0.0
C1712 C 0.48427 0.35457 0.86003 0.0
C1713 C 0.50311 0.38271 0.87876 0.0
C1714 C 0.53131 0.36883 0.89445 0.0
C1715 C 0.51681 0.40786 0.86242 0.0
C1716 C 0.4751 0.39795 0.89793 0.0
C1717 C 0.44498 0.38156 0.89073 0.0
C1718 C 0.41538 0.39167 0.90513 0.0
C1719 C 0.41689 0.41875 0.928 0.0
C1720 C 0.44788 0.43454 0.93633 0.0
C1721 C 0.47719 0.42429 0.92107 0.0
H1722 H 0.4825 0.84737 0.31973 0.0
H1723 H 0.57864 0.85971 0.28249 0.0
H1724 H 0.58356 0.91691 0.31227 0.0
H1725 H 0.45524 0.9371 0.32723 0.0
H1726 H 0.43397 0.93684 0.35931 0.0
H1727 H 0.43653 0.8989 0.33275 0.0
H1728 H 0.46377 0.8676 0.36774 0.0
H1729 H 0.46065 0.90514 0.3943 0.0
H1730 H 0.50082 0.88492 0.38648 0.0
H1731 H 0.58256 0.96629 0.35179 0.0
H1732 H 0.57545 0.0046 0.39749 0.0
H1733 H 0.47657 0.9638 0.40482 0.0
C1734 C 0.50448 0.86232 0.31785 0.0
C1735 C 0.53062 0.84941 0.29957 0.0
C1736 C 0.55869 0.86947 0.29685 0.0
C1737 C 0.56143 0.90192 0.31337 0.0
C1738 C 0.53519 0.91401 0.33146 0.0
C1739 C 0.50701 0.89497 0.33344 0.0
C1740 C 0.48334 0.91267 0.35566 0.0
C1741 C 0.45032 0.92193 0.34297 0.0
C1742 C 0.47681 0.89133 0.37732 0.0
C1743 C 0.50381 0.94359 0.36744 0.0
C1744 C 0.53343 0.9442 0.3529 0.0
C1745 C 0.55898 0.96698 0.36271 0.0
C1746 C 0.55477 0.98862 0.38859 0.0
C1747 C 0.5251 0.98749 0.40391 0.0
C1748 C 0.49875 0.96597 0.39268 0.0
H1749 H 0.43857 0.60293 0.0732 0.0
H1750 H 0.46278 0.514 0.10415 0.0
H1751 H 0.46622 0.54833 0.1517 0.0
H1752 H 0.49688 0.65366 0.11309 0.0
H1753 H 0.47198 0.69148 0.11911 0.0
H1754 H 0.46506 0.65933 0.08852 0.0
H1755 H 0.40228 0.65634 0.10153 0.0
H1756 H 0.40904 0.6886 0.13226 0.0
H1757 H 0.39119 0.64888 0.135 0.0
H1758 H 0.47263 0.59254 0.19475 0.0
H1759 H 0.48607 0.64423 0.22952 0.0
H1760 H 0.46044 0.70414 0.16981 0.0
C1761 C 0.44366 0.59068 0.09014 0.0
C1762 C 0.45013 0.55599 0.08527 0.0
C1763 C 0.45772 0.54069 0.10766 0.0
C1764 C 0.45943 0.55987 0.1347 0.0
C1765 C 0.45362 0.59424 0.13885 0.0
C1766 C 0.44605 0.60955 0.11718 0.0
C1767 C 0.44529 0.6473 0.1266 0.0
C1768 C 0.47136 0.66389 0.11091 0.0
C1769 C 0.40984 0.66108 0.12368 0.0
C1770 C 0.45483 0.65079 0.15665 0.0
C1771 C 0.45866 0.61994 0.16354 0.0
C1772 C 0.46928 0.6169 0.18977 0.0
C1773 C 0.47686 0.64628 0.20933 0.0
C1774 C 0.47438 0.67792 0.20216 0.0
C1775 C 0.46255 0.68016 0.17575 0.0
loop_
_geom_bond_atom_site_label_1
_geom_bond_atom_site_label_2
_geom_bond_distance
_geom_bond_site_symmetry_2
_ccdc_geom_bond_type
Co0 N5 2.057 . S
Co0 O17 2.021 1_545 S
Co0 O20 2.062 1_545 S
Co0 O24 2.117 1_556 S
Co0 O25 2.020 1_655 S
C1 O21 1.259 1_655 S
C1 O24 1.258 . S
Co2 N11 2.057 . S
Co2 O18 2.117 1_554 S
Co2 O19 2.020 1_455 S
Co2 O21 2.021 1_565 S
Co2 O26 2.062 1_565 S
C3 N5 1.316 . S
C3 N6 1.347 . S
C3 H8 0.931 . S
C4 N5 1.375 . S
C4 C7 1.350 . S
C4 H9 0.930 . S
N5 Co0 2.057 . S
N5 C3 1.316 . S
N5 C4 1.375 . S
N6 C3 1.347 . S
N6 C7 1.373 . S
C7 C4 1.350 . S
C7 N6 1.373 . S
C7 H28 0.931 . S
H8 C3 0.931 . S
H9 C4 0.930 . S
C10 O17 1.259 1_455 S
C10 O18 1.258 . S
N11 Co2 2.057 . S
N11 C12 1.316 . S
N11 C13 1.375 . S
C12 N11 1.316 . S
C12 N14 1.347 . S
C12 H23 0.931 . S
C13 N11 1.375 . S
C13 C15 1.350 . S
C13 H22 0.930 . S
N14 C12 1.347 . S
N14 C15 1.373 . S
C15 C13 1.350 . S
C15 N14 1.373 . S
C15 H29 0.931 . S
C16 O19 1.256 . S
C16 O20 1.255 1_554 S
O17 Co0 2.021 1_565 S
O17 C10 1.259 1_655 S
O18 Co2 2.117 1_556 S
O18 C10 1.258 . S
O19 Co2 2.020 1_655 S
O19 C16 1.256 . S
O20 Co0 2.062 1_565 S
O20 C16 1.255 1_556 S
O21 C1 1.259 1_455 S
O21 Co2 2.021 1_545 S
H22 C13 0.930 . S
H23 C12 0.931 . S
O24 Co0 2.117 1_554 S
O24 C1 1.258 . S
O25 Co0 2.020 1_455 S
O25 C27 1.256 . S
O26 Co2 2.062 1_545 S
O26 C27 1.255 1_554 S
C27 O25 1.256 . S
C27 O26 1.255 1_556 S
H28 C7 0.931 . S
H29 C15 0.931 . S
Co30 N35 2.057 . S
Co30 O47 2.021 . S
Co30 O50 2.062 . S
Co30 O54 2.117 1_455 S
Co30 O55 2.020 . S
C31 O51 1.259 . S
C31 O54 1.258 . S
Co32 N41 2.057 . S
Co32 O48 2.117 1_655 S
Co32 O49 2.020 . S
Co32 O51 2.021 . S
Co32 O56 2.062 . S
C33 N35 1.316 . S
C33 N36 1.347 . S
C33 H38 0.931 . S
C34 N35 1.375 . S
C34 C37 1.350 . S
C34 H39 0.930 . S
N35 Co30 2.057 . S
N35 C33 1.316 . S
N35 C34 1.375 . S
N36 C33 1.347 . S
N36 C37 1.373 . S
C37 C34 1.350 . S
C37 N36 1.373 . S
C37 H58 0.931 . S
H38 C33 0.931 . S
H39 C34 0.930 . S
C40 O47 1.259 . S
C40 O48 1.258 . S
N41 Co32 2.057 . S
N41 C42 1.316 . S
N41 C43 1.375 . S
C42 N41 1.316 . S
C42 N44 1.347 . S
C42 H53 0.931 . S
C43 N41 1.375 . S
C43 C45 1.350 . S
C43 H52 0.930 . S
N44 C42 1.347 . S
N44 C45 1.373 . S
C45 C43 1.350 . S
C45 N44 1.373 . S
C45 H59 0.931 . S
C46 O49 1.256 . S
C46 O50 1.255 1_655 S
O47 Co30 2.021 . S
O47 C40 1.259 . S
O48 Co32 2.117 1_455 S
O48 C40 1.258 . S
O49 Co32 2.020 . S
O49 C46 1.256 . S
O50 Co30 2.062 . S
O50 C46 1.255 1_455 S
O51 C31 1.259 . S
O51 Co32 2.021 . S
H52 C43 0.930 . S
H53 C42 0.931 . S
O54 Co30 2.117 1_655 S
O54 C31 1.258 . S
O55 Co30 2.020 . S
O55 C57 1.256 . S
O56 Co32 2.062 . S
O56 C57 1.255 1_655 S
C57 O55 1.256 . S
C57 O56 1.255 1_455 S
H58 C37 0.931 . S
H59 C45 0.931 . S
Co60 N65 2.057 . S
Co60 O77 2.021 . S
Co60 O80 2.062 . S
Co60 O84 2.117 . S
Co60 O85 2.020 . S
C61 O81 1.259 . S
C61 O84 1.258 . S
Co62 N71 2.057 . S
Co62 O78 2.117 . S
Co62 O79 2.020 . S
Co62 O81 2.021 . S
Co62 O86 2.062 . S
C63 N65 1.316 . S
C63 N66 1.347 . S
C63 H68 0.931 . S
C64 N65 1.375 . S
C64 C67 1.350 . S
C64 H69 0.930 . S
N65 Co60 2.057 . S
N65 C63 1.316 . S
N65 C64 1.375 . S
N66 C63 1.347 . S
N66 C67 1.373 . S
C67 C64 1.350 . S
C67 N66 1.373 . S
C67 H88 0.931 . S
H68 C63 0.931 . S
H69 C64 0.930 . S
C70 O77 1.259 . S
C70 O78 1.258 . S
N71 Co62 2.057 . S
N71 C72 1.316 . S
N71 C73 1.375 . S
C72 N71 1.316 . S
C72 N74 1.347 . S
C72 H83 0.931 . S
C73 N71 1.375 . S
C73 C75 1.350 . S
C73 H82 0.930 . S
N74 C72 1.347 . S
N74 C75 1.373 . S
C75 C73 1.350 . S
C75 N74 1.373 . S
C75 H89 0.931 . S
C76 O79 1.256 . S
C76 O80 1.255 . S
O77 Co60 2.021 . S
O77 C70 1.259 . S
O78 Co62 2.117 . S
O78 C70 1.258 . S
O79 Co62 2.020 . S
O79 C76 1.256 . S
O80 Co60 2.062 . S
O80 C76 1.255 . S
O81 C61 1.259 . S
O81 Co62 2.021 . S
H82 C73 0.930 . S
H83 C72 0.931 . S
O84 Co60 2.117 . S
O84 C61 1.258 . S
O85 Co60 2.020 . S
O85 C87 1.256 . S
O86 Co62 2.062 . S
O86 C87 1.255 . S
C87 O85 1.256 . S
C87 O86 1.255 . S
H88 C67 0.931 . S
H89 C75 0.931 . S
Co90 N95 2.057 . S
Co90 O107 2.021 . S
Co90 O110 2.062 . S
Co90 O114 2.117 1_565 S
Co90 O115 2.020 . S
C91 O111 1.259 . S
C91 O114 1.258 . S
Co92 N101 2.057 . S
Co92 O108 2.117 1_545 S
Co92 O109 2.020 . S
Co92 O111 2.021 . S
Co92 O116 2.062 . S
C93 N95 1.316 . S
C93 N96 1.347 . S
C93 H98 0.931 . S
C94 N95 1.375 . S
C94 C97 1.350 . S
C94 H99 0.930 . S
N95 Co90 2.057 . S
N95 C93 1.316 . S
N95 C94 1.375 . S
N96 C93 1.347 . S
N96 C97 1.373 . S
C97 C94 1.350 . S
C97 N96 1.373 . S
C97 H118 0.931 . S
H98 C93 0.931 . S
H99 C94 0.930 . S
C100 O107 1.259 . S
C100 O108 1.258 . S
N101 Co92 2.057 . S
N101 C102 1.316 . S
N101 C103 1.375 . S
C102 N101 1.316 . S
C102 N104 1.347 . S
C102 H113 0.931 . S
C103 N101 1.375 . S
C103 C105 1.350 . S
C103 H112 0.930 . S
N104 C102 1.347 . S
N104 C105 1.373 . S
C105 C103 1.350 . S
C105 N104 1.373 . S
C105 H119 0.931 . S
C106 O109 1.256 . S
C106 O110 1.255 1_545 S
O107 Co90 2.021 . S
O107 C100 1.259 . S
O108 Co92 2.117 1_565 S
O108 C100 1.258 . S
O109 Co92 2.020 . S
O109 C106 1.256 . S
O110 Co90 2.062 . S
O110 C106 1.255 1_565 S
O111 C91 1.259 . S
O111 Co92 2.021 . S
H112 C103 0.930 . S
H113 C102 0.931 . S
O114 Co90 2.117 1_545 S
O114 C91 1.258 . S
O115 Co90 2.020 . S
O115 C117 1.256 . S
O116 Co92 2.062 . S
O116 C117 1.255 1_545 S
C117 O115 1.256 . S
C117 O116 1.255 1_565 S
H118 C97 0.931 . S
H119 C105 0.931 . S
Co120 N125 2.057 . S
Co120 O137 2.021 . S
Co120 O140 2.062 . S
Co120 O144 2.117 . S
Co120 O145 2.020 . S
C121 O141 1.259 . S
C121 O144 1.258 . S
Co122 N131 2.057 . S
Co122 O138 2.117 . S
Co122 O139 2.020 . S
Co122 O141 2.021 . S
Co122 O146 2.062 . S
C123 N125 1.316 . S
C123 N126 1.347 . S
C123 H128 0.931 . S
C124 N125 1.375 . S
C124 C127 1.350 . S
C124 H129 0.930 . S
N125 Co120 2.057 . S
N125 C123 1.316 . S
N125 C124 1.375 . S
N126 C123 1.347 . S
N126 C127 1.373 . S
C127 C124 1.350 . S
C127 N126 1.373 . S
C127 H148 0.931 . S
H128 C123 0.931 . S
H129 C124 0.930 . S
C130 O137 1.259 . S
C130 O138 1.258 . S
N131 Co122 2.057 . S
N131 C132 1.316 . S
N131 C133 1.375 . S
C132 N131 1.316 . S
C132 N134 1.347 . S
C132 H143 0.931 . S
C133 N131 1.375 . S
C133 C135 1.350 . S
C133 H142 0.930 . S
N134 C132 1.347 . S
N134 C135 1.373 . S
C135 C133 1.350 . S
C135 N134 1.373 . S
C135 H149 0.931 . S
C136 O139 1.256 . S
C136 O140 1.255 . S
O137 Co120 2.021 . S
O137 C130 1.259 . S
O138 Co122 2.117 . S
O138 C130 1.258 . S
O139 Co122 2.020 . S
O139 C136 1.256 . S
O140 Co120 2.062 . S
O140 C136 1.255 . S
O141 C121 1.259 . S
O141 Co122 2.021 . S
H142 C133 0.930 . S
H143 C132 0.931 . S
O144 Co120 2.117 . S
O144 C121 1.258 . S
O145 Co120 2.020 . S
O145 C147 1.256 . S
O146 Co122 2.062 . S
O146 C147 1.255 . S
C147 O145 1.256 . S
C147 O146 1.255 . S
H148 C127 0.931 . S
H149 C135 0.931 . S
Co150 N155 2.057 . S
Co150 O167 2.021 . S
Co150 O170 2.062 . S
Co150 O174 2.117 . S
Co150 O175 2.020 . S
C151 O171 1.259 . S
C151 O174 1.258 . S
Co152 N161 2.057 . S
Co152 O168 2.117 . S
Co152 O169 2.020 . S
Co152 O171 2.021 . S
Co152 O176 2.062 . S
C153 N155 1.316 . S
C153 N156 1.347 . S
C153 H158 0.931 . S
C154 N155 1.375 . S
C154 C157 1.350 . S
C154 H159 0.930 . S
N155 Co150 2.057 . S
N155 C153 1.316 . S
N155 C154 1.375 . S
N156 C153 1.347 . S
N156 C157 1.373 . S
C157 C154 1.350 . S
C157 N156 1.373 . S
C157 H178 0.931 . S
H158 C153 0.931 . S
H159 C154 0.930 . S
C160 O167 1.259 . S
C160 O168 1.258 . S
N161 Co152 2.057 . S
N161 C162 1.316 . S
N161 C163 1.375 . S
C162 N161 1.316 . S
C162 N164 1.347 . S
C162 H173 0.931 . S
C163 N161 1.375 . S
C163 C165 1.350 . S
C163 H172 0.930 . S
N164 C162 1.347 . S
N164 C165 1.373 . S
C165 C163 1.350 . S
C165 N164 1.373 . S
C165 H179 0.931 . S
C166 O169 1.256 . S
C166 O170 1.255 . S
O167 Co150 2.021 . S
O167 C160 1.259 . S
O168 Co152 2.117 . S
O168 C160 1.258 . S
O169 Co152 2.020 . S
O169 C166 1.256 . S
O170 Co150 2.062 . S
O170 C166 1.255 . S
O171 C151 1.259 . S
O171 Co152 2.021 . S
H172 C163 0.930 . S
H173 C162 0.931 . S
O174 Co150 2.117 . S
O174 C151 1.258 . S
O175 Co150 2.020 . S
O175 C177 1.256 . S
O176 Co152 2.062 . S
O176 C177 1.255 . S
C177 O175 1.256 . S
C177 O176 1.255 . S
H178 C157 0.931 . S
H179 C165 0.931 . S
Co180 N185 2.057 . S
Co180 O197 2.021 . S
Co180 O200 2.062 . S
Co180 O204 2.117 . S
Co180 O205 2.020 . S
C181 O201 1.259 . S
C181 O204 1.258 . S
Co182 N191 2.057 . S
Co182 O198 2.117 . S
Co182 O199 2.020 . S
Co182 O201 2.021 . S
Co182 O206 2.062 . S
C183 N185 1.316 . S
C183 N186 1.347 . S
C183 H188 0.931 . S
C184 N185 1.375 . S
C184 C187 1.350 . S
C184 H189 0.930 . S
N185 Co180 2.057 . S
N185 C183 1.316 . S
N185 C184 1.375 . S
N186 C183 1.347 . S
N186 C187 1.373 . S
C187 C184 1.350 . S
C187 N186 1.373 . S
C187 H208 0.931 . S
H188 C183 0.931 . S
H189 C184 0.930 . S
C190 O197 1.259 . S
C190 O198 1.258 . S
N191 Co182 2.057 . S
N191 C192 1.316 . S
N191 C193 1.375 . S
C192 N191 1.316 . S
C192 N194 1.347 . S
C192 H203 0.931 . S
C193 N191 1.375 . S
C193 C195 1.350 . S
C193 H202 0.930 . S
N194 C192 1.347 . S
N194 C195 1.373 . S
C195 C193 1.350 . S
C195 N194 1.373 . S
C195 H209 0.931 . S
C196 O199 1.256 . S
C196 O200 1.255 . S
O197 Co180 2.021 . S
O197 C190 1.259 . S
O198 Co182 2.117 . S
O198 C190 1.258 . S
O199 Co182 2.020 . S
O199 C196 1.256 . S
O200 Co180 2.062 . S
O200 C196 1.255 . S
O201 C181 1.259 . S
O201 Co182 2.021 . S
H202 C193 0.930 . S
H203 C192 0.931 . S
O204 Co180 2.117 . S
O204 C181 1.258 . S
O205 Co180 2.020 . S
O205 C207 1.256 . S
O206 Co182 2.062 . S
O206 C207 1.255 . S
C207 O205 1.256 . S
C207 O206 1.255 . S
H208 C187 0.931 . S
H209 C195 0.931 . S
Co210 N215 2.057 . S
Co210 O227 2.021 . S
Co210 O230 2.062 . S
Co210 O234 2.117 . S
Co210 O235 2.020 1_655 S
C211 O231 1.259 1_655 S
C211 O234 1.258 . S
Co212 N221 2.057 . S
Co212 O228 2.117 . S
Co212 O229 2.020 1_455 S
Co212 O231 2.021 . S
Co212 O236 2.062 . S
C213 N215 1.316 . S
C213 N216 1.347 . S
C213 H218 0.931 . S
C214 N215 1.375 . S
C214 C217 1.350 . S
C214 H219 0.930 . S
N215 Co210 2.057 . S
N215 C213 1.316 . S
N215 C214 1.375 . S
N216 C213 1.347 . S
N216 C217 1.373 . S
C217 C214 1.350 . S
C217 N216 1.373 . S
C217 H238 0.931 . S
H218 C213 0.931 . S
H219 C214 0.930 . S
C220 O227 1.259 1_455 S
C220 O228 1.258 . S
N221 Co212 2.057 . S
N221 C222 1.316 . S
N221 C223 1.375 . S
C222 N221 1.316 . S
C222 N224 1.347 . S
C222 H233 0.931 . S
C223 N221 1.375 . S
C223 C225 1.350 . S
C223 H232 0.930 . S
N224 C222 1.347 . S
N224 C225 1.373 . S
C225 C223 1.350 . S
C225 N224 1.373 . S
C225 H239 0.931 . S
C226 O229 1.256 . S
C226 O230 1.255 . S
O227 Co210 2.021 . S
O227 C220 1.259 1_655 S
O228 Co212 2.117 . S
O228 C220 1.258 . S
O229 Co212 2.020 1_655 S
O229 C226 1.256 . S
O230 Co210 2.062 . S
O230 C226 1.255 . S
O231 C211 1.259 1_455 S
O231 Co212 2.021 . S
H232 C223 0.930 . S
H233 C222 0.931 . S
O234 Co210 2.117 . S
O234 C211 1.258 . S
O235 Co210 2.020 1_455 S
O235 C237 1.256 . S
O236 Co212 2.062 . S
O236 C237 1.255 . S
C237 O235 1.256 . S
C237 O236 1.255 . S
H238 C217 0.931 . S
H239 C225 0.931 . S
Co240 N245 2.057 . S
Co240 O257 2.021 . S
Co240 O260 2.062 . S
Co240 O264 2.117 1_554 S
Co240 O265 2.020 . S
C241 O261 1.259 . S
C241 O264 1.258 . S
Co242 N251 2.057 . S
Co242 O258 2.117 1_556 S
Co242 O259 2.020 . S
Co242 O261 2.021 . S
Co242 O266 2.062 . S
C243 N245 1.316 . S
C243 N246 1.347 . S
C243 H248 0.931 . S
C244 N245 1.375 . S
C244 C247 1.350 . S
C244 H249 0.930 . S
N245 Co240 2.057 . S
N245 C243 1.316 . S
N245 C244 1.375 . S
N246 C243 1.347 . S
N246 C247 1.373 . S
C247 C244 1.350 . S
C247 N246 1.373 . S
C247 H268 0.931 . S
H248 C243 0.931 . S
H249 C244 0.930 . S
C250 O257 1.259 . S
C250 O258 1.258 . S
N251 Co242 2.057 . S
N251 C252 1.316 . S
N251 C253 1.375 . S
C252 N251 1.316 . S
C252 N254 1.347 . S
C252 H263 0.931 . S
C253 N251 1.375 . S
C253 C255 1.350 . S
C253 H262 0.930 . S
N254 C252 1.347 . S
N254 C255 1.373 . S
C255 C253 1.350 . S
C255 N254 1.373 . S
C255 H269 0.931 . S
C256 O259 1.256 . S
C256 O260 1.255 1_556 S
O257 Co240 2.021 . S
O257 C250 1.259 . S
O258 Co242 2.117 1_554 S
O258 C250 1.258 . S
O259 Co242 2.020 . S
O259 C256 1.256 . S
O260 Co240 2.062 . S
O260 C256 1.255 1_554 S
O261 C241 1.259 . S
O261 Co242 2.021 . S
H262 C253 0.930 . S
H263 C252 0.931 . S
O264 Co240 2.117 1_556 S
O264 C241 1.258 . S
O265 Co240 2.020 . S
O265 C267 1.256 . S
O266 Co242 2.062 . S
O266 C267 1.255 1_556 S
C267 O265 1.256 . S
C267 O266 1.255 1_554 S
H268 C247 0.931 . S
H269 C255 0.931 . S
Co270 N275 2.057 . S
Co270 O287 2.021 . S
Co270 O290 2.062 . S
Co270 O294 2.117 1_565 S
Co270 O295 2.020 . S
C271 O291 1.259 . S
C271 O294 1.258 . S
Co272 N281 2.057 . S
Co272 O288 2.117 1_545 S
Co272 O289 2.020 . S
Co272 O291 2.021 . S
Co272 O296 2.062 . S
C273 N275 1.316 . S
C273 N276 1.347 . S
C273 H278 0.931 . S
C274 N275 1.375 . S
C274 C277 1.350 . S
C274 H279 0.930 . S
N275 Co270 2.057 . S
N275 C273 1.316 . S
N275 C274 1.375 . S
N276 C273 1.347 . S
N276 C277 1.373 . S
C277 C274 1.350 . S
C277 N276 1.373 . S
C277 H298 0.931 . S
H278 C273 0.931 . S
H279 C274 0.930 . S
C280 O287 1.259 . S
C280 O288 1.258 . S
N281 Co272 2.057 . S
N281 C282 1.316 . S
N281 C283 1.375 . S
C282 N281 1.316 . S
C282 N284 1.347 . S
C282 H293 0.931 . S
C283 N281 1.375 . S
C283 C285 1.350 . S
C283 H292 0.930 . S
N284 C282 1.347 . S
N284 C285 1.373 . S
C285 C283 1.350 . S
C285 N284 1.373 . S
C285 H299 0.931 . S
C286 O289 1.256 . S
C286 O290 1.255 1_545 S
O287 Co270 2.021 . S
O287 C280 1.259 . S
O288 Co272 2.117 1_565 S
O288 C280 1.258 . S
O289 Co272 2.020 . S
O289 C286 1.256 . S
O290 Co270 2.062 . S
O290 C286 1.255 1_565 S
O291 C271 1.259 . S
O291 Co272 2.021 . S
H292 C283 0.930 . S
H293 C282 0.931 . S
O294 Co270 2.117 1_545 S
O294 C271 1.258 . S
O295 Co270 2.020 . S
O295 C297 1.256 . S
O296 Co272 2.062 . S
O296 C297 1.255 1_545 S
C297 O295 1.256 . S
C297 O296 1.255 1_565 S
H298 C277 0.931 . S
H299 C285 0.931 . S
Co300 N305 2.057 . S
Co300 O317 2.021 . S
Co300 O320 2.062 . S
Co300 O324 2.117 . S
Co300 O325 2.020 . S
C301 O321 1.259 . S
C301 O324 1.258 . S
Co302 N311 2.057 . S
Co302 O318 2.117 . S
Co302 O319 2.020 . S
Co302 O321 2.021 . S
Co302 O326 2.062 . S
C303 N305 1.316 . S
C303 N306 1.347 . S
C303 H308 0.931 . S
C304 N305 1.375 . S
C304 C307 1.350 . S
C304 H309 0.930 . S
N305 Co300 2.057 . S
N305 C303 1.316 . S
N305 C304 1.375 . S
N306 C303 1.347 . S
N306 C307 1.373 . S
C307 C304 1.350 . S
C307 N306 1.373 . S
C307 H328 0.931 . S
H308 C303 0.931 . S
H309 C304 0.930 . S
C310 O317 1.259 . S
C310 O318 1.258 . S
N311 Co302 2.057 . S
N311 C312 1.316 . S
N311 C313 1.375 . S
C312 N311 1.316 . S
C312 N314 1.347 . S
C312 H323 0.931 . S
C313 N311 1.375 . S
C313 C315 1.350 . S
C313 H322 0.930 . S
N314 C312 1.347 . S
N314 C315 1.373 . S
C315 C313 1.350 . S
C315 N314 1.373 . S
C315 H329 0.931 . S
C316 O319 1.256 . S
C316 O320 1.255 . S
O317 Co300 2.021 . S
O317 C310 1.259 . S
O318 Co302 2.117 . S
O318 C310 1.258 . S
O319 Co302 2.020 . S
O319 C316 1.256 . S
O320 Co300 2.062 . S
O320 C316 1.255 . S
O321 C301 1.259 . S
O321 Co302 2.021 . S
H322 C313 0.930 . S
H323 C312 0.931 . S
O324 Co300 2.117 . S
O324 C301 1.258 . S
O325 Co300 2.020 . S
O325 C327 1.256 . S
O326 Co302 2.062 . S
O326 C327 1.255 . S
C327 O325 1.256 . S
C327 O326 1.255 . S
H328 C307 0.931 . S
H329 C315 0.931 . S
Co330 N335 2.057 . S
Co330 O347 2.021 . S
Co330 O350 2.062 . S
Co330 O354 2.117 1_455 S
Co330 O355 2.020 . S
C331 O351 1.259 . S
C331 O354 1.258 . S
Co332 N341 2.057 . S
Co332 O348 2.117 1_655 S
Co332 O349 2.020 . S
Co332 O351 2.021 . S
Co332 O356 2.062 . S
C333 N335 1.316 . S
C333 N336 1.347 . S
C333 H338 0.931 . S
C334 N335 1.375 . S
C334 C337 1.350 . S
C334 H339 0.930 . S
N335 Co330 2.057 . S
N335 C333 1.316 . S
N335 C334 1.375 . S
N336 C333 1.347 . S
N336 C337 1.373 . S
C337 C334 1.350 . S
C337 N336 1.373 . S
C337 H358 0.931 . S
H338 C333 0.931 . S
H339 C334 0.930 . S
C340 O347 1.259 . S
C340 O348 1.258 . S
N341 Co332 2.057 . S
N341 C342 1.316 . S
N341 C343 1.375 . S
C342 N341 1.316 . S
C342 N344 1.347 . S
C342 H353 0.931 . S
C343 N341 1.375 . S
C343 C345 1.350 . S
C343 H352 0.930 . S
N344 C342 1.347 . S
N344 C345 1.373 . S
C345 C343 1.350 . S
C345 N344 1.373 . S
C345 H359 0.931 . S
C346 O349 1.256 . S
C346 O350 1.255 1_655 S
O347 Co330 2.021 . S
O347 C340 1.259 . S
O348 Co332 2.117 1_455 S
O348 C340 1.258 . S
O349 Co332 2.020 . S
O349 C346 1.256 . S
O350 Co330 2.062 . S
O350 C346 1.255 1_455 S
O351 C331 1.259 . S
O351 Co332 2.021 . S
H352 C343 0.930 . S
H353 C342 0.931 . S
O354 Co330 2.117 1_655 S
O354 C331 1.258 . S
O355 Co330 2.020 . S
O355 C357 1.256 . S
O356 Co332 2.062 . S
O356 C357 1.255 1_655 S
C357 O355 1.256 . S
C357 O356 1.255 1_455 S
H358 C337 0.931 . S
H359 C345 0.931 . S
Co360 N365 2.057 . S
Co360 O377 2.021 . S
Co360 O380 2.062 . S
Co360 O384 2.117 . S
Co360 O385 2.020 . S
C361 O381 1.259 . S
C361 O384 1.258 . S
Co362 N371 2.057 . S
Co362 O378 2.117 . S
Co362 O379 2.020 . S
Co362 O381 2.021 . S
Co362 O386 2.062 . S
C363 N365 1.316 . S
C363 N366 1.347 . S
C363 H368 0.931 . S
C364 N365 1.375 . S
C364 C367 1.350 . S
C364 H369 0.930 . S
N365 Co360 2.057 . S
N365 C363 1.316 . S
N365 C364 1.375 . S
N366 C363 1.347 . S
N366 C367 1.373 . S
C367 C364 1.350 . S
C367 N366 1.373 . S
C367 H388 0.931 . S
H368 C363 0.931 . S
H369 C364 0.930 . S
C370 O377 1.259 . S
C370 O378 1.258 . S
N371 Co362 2.057 . S
N371 C372 1.316 . S
N371 C373 1.375 . S
C372 N371 1.316 . S
C372 N374 1.347 . S
C372 H383 0.931 . S
C373 N371 1.375 . S
C373 C375 1.350 . S
C373 H382 0.930 . S
N374 C372 1.347 . S
N374 C375 1.373 . S
C375 C373 1.350 . S
C375 N374 1.373 . S
C375 H389 0.931 . S
C376 O379 1.256 . S
C376 O380 1.255 . S
O377 Co360 2.021 . S
O377 C370 1.259 . S
O378 Co362 2.117 . S
O378 C370 1.258 . S
O379 Co362 2.020 . S
O379 C376 1.256 . S
O380 Co360 2.062 . S
O380 C376 1.255 . S
O381 C361 1.259 . S
O381 Co362 2.021 . S
H382 C373 0.930 . S
H383 C372 0.931 . S
O384 Co360 2.117 . S
O384 C361 1.258 . S
O385 Co360 2.020 . S
O385 C387 1.256 . S
O386 Co362 2.062 . S
O386 C387 1.255 . S
C387 O385 1.256 . S
C387 O386 1.255 . S
H388 C367 0.931 . S
H389 C375 0.931 . S
Co390 N395 2.057 . S
Co390 O407 2.021 . S
Co390 O410 2.062 . S
Co390 O414 2.117 1_554 S
Co390 O415 2.020 . S
C391 O411 1.259 . S
C391 O414 1.258 . S
Co392 N401 2.057 . S
Co392 O408 2.117 1_556 S
Co392 O409 2.020 . S
Co392 O411 2.021 . S
Co392 O416 2.062 . S
C393 N395 1.316 . S
C393 N396 1.347 . S
C393 H398 0.931 . S
C394 N395 1.375 . S
C394 C397 1.350 . S
C394 H399 0.930 . S
N395 Co390 2.057 . S
N395 C393 1.316 . S
N395 C394 1.375 . S
N396 C393 1.347 . S
N396 C397 1.373 . S
C397 C394 1.350 . S
C397 N396 1.373 . S
C397 H418 0.931 . S
H398 C393 0.931 . S
H399 C394 0.930 . S
C400 O407 1.259 . S
C400 O408 1.258 . S
N401 Co392 2.057 . S
N401 C402 1.316 . S
N401 C403 1.375 . S
C402 N401 1.316 . S
C402 N404 1.347 . S
C402 H413 0.931 . S
C403 N401 1.375 . S
C403 C405 1.350 . S
C403 H412 0.930 . S
N404 C402 1.347 . S
N404 C405 1.373 . S
C405 C403 1.350 . S
C405 N404 1.373 . S
C405 H419 0.931 . S
C406 O409 1.256 . S
C406 O410 1.255 1_556 S
O407 Co390 2.021 . S
O407 C400 1.259 . S
O408 Co392 2.117 1_554 S
O408 C400 1.258 . S
O409 Co392 2.020 . S
O409 C406 1.256 . S
O410 Co390 2.062 . S
O410 C406 1.255 1_554 S
O411 C391 1.259 . S
O411 Co392 2.021 . S
H412 C403 0.930 . S
H413 C402 0.931 . S
O414 Co390 2.117 1_556 S
O414 C391 1.258 . S
O415 Co390 2.020 . S
O415 C417 1.256 . S
O416 Co392 2.062 . S
O416 C417 1.255 1_556 S
C417 O415 1.256 . S
C417 O416 1.255 1_554 S
H418 C397 0.931 . S
H419 C405 0.931 . S
Co420 N425 2.057 . S
Co420 O437 2.021 1_545 S
Co420 O440 2.062 1_545 S
Co420 O444 2.117 . S
Co420 O445 2.020 . S
C421 O441 1.259 . S
C421 O444 1.258 . S
Co422 N431 2.057 . S
Co422 O438 2.117 . S
Co422 O439 2.020 . S
Co422 O441 2.021 1_565 S
Co422 O446 2.062 1_565 S
C423 N425 1.316 . S
C423 N426 1.347 . S
C423 H428 0.931 . S
C424 N425 1.375 . S
C424 C427 1.350 . S
C424 H429 0.930 . S
N425 Co420 2.057 . S
N425 C423 1.316 . S
N425 C424 1.375 . S
N426 C423 1.347 . S
N426 C427 1.373 . S
C427 C424 1.350 . S
C427 N426 1.373 . S
C427 H448 0.931 . S
H428 C423 0.931 . S
H429 C424 0.930 . S
C430 O437 1.259 . S
C430 O438 1.258 . S
N431 Co422 2.057 . S
N431 C432 1.316 . S
N431 C433 1.375 . S
C432 N431 1.316 . S
C432 N434 1.347 . S
C432 H443 0.931 . S
C433 N431 1.375 . S
C433 C435 1.350 . S
C433 H442 0.930 . S
N434 C432 1.347 . S
N434 C435 1.373 . S
C435 C433 1.350 . S
C435 N434 1.373 . S
C435 H449 0.931 . S
C436 O439 1.256 . S
C436 O440 1.255 . S
O437 Co420 2.021 1_565 S
O437 C430 1.259 . S
O438 Co422 2.117 . S
O438 C430 1.258 . S
O439 Co422 2.020 . S
O439 C436 1.256 . S
O440 Co420 2.062 1_565 S
O440 C436 1.255 . S
O441 C421 1.259 . S
O441 Co422 2.021 1_545 S
H442 C433 0.930 . S
H443 C432 0.931 . S
O444 Co420 2.117 . S
O444 C421 1.258 . S
O445 Co420 2.020 . S
O445 C447 1.256 . S
O446 Co422 2.062 1_545 S
O446 C447 1.255 . S
C447 O445 1.256 . S
C447 O446 1.255 . S
H448 C427 0.931 . S
H449 C435 0.931 . S
Co450 N455 2.057 . S
Co450 O467 2.021 . S
Co450 O470 2.062 . S
Co450 O474 2.117 1_556 S
Co450 O475 2.020 . S
C451 O471 1.259 . S
C451 O474 1.258 . S
Co452 N461 2.057 . S
Co452 O468 2.117 1_554 S
Co452 O469 2.020 . S
Co452 O471 2.021 . S
Co452 O476 2.062 . S
C453 N455 1.316 . S
C453 N456 1.347 . S
C453 H458 0.931 . S
C454 N455 1.375 . S
C454 C457 1.350 . S
C454 H459 0.930 . S
N455 Co450 2.057 . S
N455 C453 1.316 . S
N455 C454 1.375 . S
N456 C453 1.347 . S
N456 C457 1.373 . S
C457 C454 1.350 . S
C457 N456 1.373 . S
C457 H478 0.931 . S
H458 C453 0.931 . S
H459 C454 0.930 . S
C460 O467 1.259 . S
C460 O468 1.258 . S
N461 Co452 2.057 . S
N461 C462 1.316 . S
N461 C463 1.375 . S
C462 N461 1.316 . S
C462 N464 1.347 . S
C462 H473 0.931 . S
C463 N461 1.375 . S
C463 C465 1.350 . S
C463 H472 0.930 . S
N464 C462 1.347 . S
N464 C465 1.373 . S
C465 C463 1.350 . S
C465 N464 1.373 . S
C465 H479 0.931 . S
C466 O469 1.256 . S
C466 O470 1.255 1_554 S
O467 Co450 2.021 . S
O467 C460 1.259 . S
O468 Co452 2.117 1_556 S
O468 C460 1.258 . S
O469 Co452 2.020 . S
O469 C466 1.256 . S
O470 Co450 2.062 . S
O470 C466 1.255 1_556 S
O471 C451 1.259 . S
O471 Co452 2.021 . S
H472 C463 0.930 . S
H473 C462 0.931 . S
O474 Co450 2.117 1_554 S
O474 C451 1.258 . S
O475 Co450 2.020 . S
O475 C477 1.256 . S
O476 Co452 2.062 . S
O476 C477 1.255 1_554 S
C477 O475 1.256 . S
C477 O476 1.255 1_556 S
H478 C457 0.931 . S
H479 C465 0.931 . S
H480 C492 0.930 . S
H481 C494 0.930 . S
H482 C495 0.930 . S
H483 C499 0.959 . S
H484 C499 0.959 . S
H485 C499 0.961 . S
H486 C500 0.960 . S
H487 C500 0.961 . S
H488 C500 0.959 . S
H489 C503 0.929 . S
H490 C504 0.931 . S
H491 C506 0.930 . S
C492 H480 0.930 . S
C492 C493 1.399 . S
C492 C497 1.399 . S
C493 C492 1.399 . S
C493 C494 1.376 . S
C494 H481 0.930 . S
C494 C493 1.376 . S
C494 C495 1.388 . S
C495 H482 0.930 . S
C495 C494 1.388 . S
C495 C496 1.390 . S
C496 C495 1.390 . S
C496 C497 1.394 . S
C496 C502 1.465 . S
C497 C492 1.399 . S
C497 C496 1.394 . S
C497 C498 1.516 . S
C498 C497 1.516 . S
C498 C499 1.502 1_655 S
C498 C500 1.561 . S
C498 C501 1.526 . S
C499 H483 0.959 . S
C499 H484 0.959 . S
C499 H485 0.961 . S
C499 C498 1.502 1_455 S
C500 H486 0.960 . S
C500 H487 0.961 . S
C500 H488 0.959 . S
C500 C498 1.561 . S
C501 C498 1.526 . S
C501 C502 1.396 . S
C501 C506 1.390 . S
C502 C496 1.465 . S
C502 C501 1.396 . S
C502 C503 1.399 . S
C503 H489 0.929 . S
C503 C502 1.399 . S
C503 C504 1.385 . S
C504 H490 0.931 . S
C504 C503 1.385 . S
C504 C505 1.389 . S
C505 C504 1.389 . S
C505 C506 1.387 . S
C506 H491 0.930 . S
C506 C501 1.390 . S
C506 C505 1.387 . S
H507 C519 0.930 . S
H508 C521 0.930 . S
H509 C522 0.930 . S
H510 C526 0.959 . S
H511 C526 0.959 . S
H512 C526 0.961 . S
H513 C527 0.960 . S
H514 C527 0.961 . S
H515 C527 0.959 . S
H516 C530 0.929 . S
H517 C531 0.931 . S
H518 C533 0.930 . S
C519 H507 0.930 . S
C519 C520 1.399 . S
C519 C524 1.399 . S
C520 C519 1.399 . S
C520 C521 1.376 . S
C521 H508 0.930 . S
C521 C520 1.376 . S
C521 C522 1.388 . S
C522 H509 0.930 . S
C522 C521 1.388 . S
C522 C523 1.390 . S
C523 C522 1.390 . S
C523 C524 1.394 . S
C523 C529 1.465 . S
C524 C519 1.399 . S
C524 C523 1.394 . S
C524 C525 1.516 . S
C525 C524 1.516 . S
C525 C526 1.502 . S
C525 C527 1.561 . S
C525 C528 1.526 . S
C526 H510 0.959 . S
C526 H511 0.959 . S
C526 H512 0.961 . S
C526 C525 1.502 . S
C527 H513 0.960 . S
C527 H514 0.961 . S
C527 H515 0.959 . S
C527 C525 1.561 . S
C528 C525 1.526 . S
C528 C529 1.396 . S
C528 C533 1.390 . S
C529 C523 1.465 . S
C529 C528 1.396 . S
C529 C530 1.399 . S
C530 H516 0.929 . S
C530 C529 1.399 . S
C530 C531 1.385 . S
C531 H517 0.931 . S
C531 C530 1.385 . S
C531 C532 1.389 . S
C532 C531 1.389 . S
C532 C533 1.387 . S
C533 H518 0.930 . S
C533 C528 1.390 . S
C533 C532 1.387 . S
H534 C546 0.930 . S
H535 C548 0.930 . S
H536 C549 0.930 . S
H537 C553 0.959 . S
H538 C553 0.959 . S
H539 C553 0.961 . S
H540 C554 0.960 . S
H541 C554 0.961 . S
H542 C554 0.959 . S
H543 C557 0.929 . S
H544 C558 0.931 . S
H545 C560 0.930 . S
C546 H534 0.930 . S
C546 C547 1.399 . S
C546 C551 1.399 . S
C547 C546 1.399 . S
C547 C548 1.376 . S
C548 H535 0.930 . S
C548 C547 1.376 . S
C548 C549 1.388 . S
C549 H536 0.930 . S
C549 C548 1.388 . S
C549 C550 1.390 . S
C550 C549 1.390 . S
C550 C551 1.394 . S
C550 C556 1.465 . S
C551 C546 1.399 . S
C551 C550 1.394 . S
C551 C552 1.516 . S
C552 C551 1.516 . S
C552 C553 1.502 . S
C552 C554 1.561 . S
C552 C555 1.526 . S
C553 H537 0.959 . S
C553 H538 0.959 . S
C553 H539 0.961 . S
C553 C552 1.502 . S
C554 H540 0.960 . S
C554 H541 0.961 . S
C554 H542 0.959 . S
C554 C552 1.561 . S
C555 C552 1.526 . S
C555 C556 1.396 . S
C555 C560 1.390 . S
C556 C550 1.465 . S
C556 C555 1.396 . S
C556 C557 1.399 . S
C557 H543 0.929 . S
C557 C556 1.399 . S
C557 C558 1.385 . S
C558 H544 0.931 . S
C558 C557 1.385 . S
C558 C559 1.389 . S
C559 C558 1.389 . S
C559 C560 1.387 . S
C560 H545 0.930 . S
C560 C555 1.390 . S
C560 C559 1.387 . S
H561 C573 0.930 . S
H562 C575 0.914 1_565 S
H563 C576 0.930 . S
H564 C580 0.959 . S
H565 C580 0.959 . S
H566 C580 0.961 . S
H567 C581 0.960 . S
H568 C581 0.961 . S
H569 C581 0.959 . S
H570 C584 0.929 . S
H571 C585 0.931 . S
H572 C587 0.930 . S
C573 H561 0.930 . S
C573 C574 1.399 . S
C573 C578 1.399 . S
C574 C573 1.399 . S
C574 C575 1.394 . S
C575 H562 0.914 1_545 S
C575 C574 1.394 . S
C575 C576 1.387 1_545 S
C576 H563 0.930 . S
C576 C575 1.387 1_565 S
C576 C577 1.390 1_565 S
C577 C576 1.390 1_545 S
C577 C578 1.394 . S
C577 C583 1.465 . S
C578 C573 1.399 . S
C578 C577 1.394 . S
C578 C579 1.516 . S
C579 C578 1.516 . S
C579 C580 1.502 . S
C579 C581 1.561 . S
C579 C582 1.526 . S
C580 H564 0.959 . S
C580 H565 0.959 . S
C580 H566 0.961 . S
C580 C579 1.502 . S
C581 H567 0.960 . S
C581 H568 0.961 . S
C581 H569 0.959 . S
C581 C579 1.561 . S
C582 C579 1.526 . S
C582 C583 1.396 . S
C582 C587 1.390 . S
C583 C577 1.465 . S
C583 C582 1.396 . S
C583 C584 1.399 1_545 S
C584 H570 0.929 . S
C584 C583 1.399 1_565 S
C584 C585 1.385 . S
C585 H571 0.931 . S
C585 C584 1.385 . S
C585 C586 1.389 1_565 S
C586 C585 1.389 1_545 S
C586 C587 1.387 . S
C587 H572 0.930 . S
C587 C582 1.390 . S
C587 C586 1.387 . S
H588 C600 0.930 1_545 S
H589 C602 0.930 . S
H590 C603 0.930 . S
H591 C607 0.959 . S
H592 C607 0.959 . S
H593 C607 0.961 . S
H594 C608 0.960 . S
H595 C608 0.961 . S
H596 C608 0.959 . S
H597 C611 0.929 . S
H598 C612 0.931 . S
H599 C614 0.930 1_545 S
C600 H588 0.930 1_565 S
C600 C601 1.399 . S
C600 C605 1.399 . S
C601 C600 1.399 . S
C601 C602 1.376 . S
C602 H589 0.930 . S
C602 C601 1.376 . S
C602 C603 1.388 . S
C603 H590 0.930 . S
C603 C602 1.388 . S
C603 C604 1.390 . S
C604 C603 1.390 . S
C604 C605 1.394 . S
C604 C610 1.465 . S
C605 C600 1.399 . S
C605 C604 1.394 . S
C605 C606 1.516 1_565 S
C606 C605 1.516 1_545 S
C606 C607 1.502 . S
C606 C608 1.561 . S
C606 C609 1.526 1_545 S
C607 H591 0.959 . S
C607 H592 0.959 . S
C607 H593 0.961 . S
C607 C606 1.502 . S
C608 H594 0.960 . S
C608 H595 0.961 . S
C608 H596 0.959 . S
C608 C606 1.561 . S
C609 C606 1.526 1_565 S
C609 C610 1.396 . S
C609 C614 1.390 . S
C610 C604 1.465 . S
C610 C609 1.396 . S
C610 C611 1.399 . S
C611 H597 0.929 . S
C611 C610 1.399 . S
C611 C612 1.385 . S
C612 H598 0.931 . S
C612 C611 1.385 . S
C612 C613 1.389 . S
C613 C612 1.389 . S
C613 C614 1.387 . S
C614 H599 0.930 1_565 S
C614 C609 1.390 . S
C614 C613 1.387 . S
H615 C627 0.930 . S
H616 C629 0.930 . S
H617 C630 0.934 . S
H618 C634 0.959 . S
H619 C634 0.959 . S
H620 C634 0.961 . S
H621 C635 0.960 . S
H622 C635 0.961 . S
H623 C635 0.959 1_655 S
H624 C638 0.929 1_655 S
H625 C639 0.931 . S
H626 C641 0.930 . S
C627 H615 0.930 . S
C627 C628 1.399 . S
C627 C632 1.399 . S
C628 C627 1.399 . S
C628 C629 1.376 . S
C629 H616 0.930 . S
C629 C628 1.376 . S
C629 C630 1.388 . S
C630 H617 0.934 . S
C630 C629 1.388 . S
C630 C631 1.390 . S
C631 C630 1.390 . S
C631 C632 1.394 . S
C631 C637 1.465 . S
C632 C627 1.399 . S
C632 C631 1.394 . S
C632 C633 1.516 . S
C633 C632 1.516 . S
C633 C634 1.502 . S
C633 C635 1.561 . S
C633 C636 1.526 . S
C634 H618 0.959 . S
C634 H619 0.959 . S
C634 H620 0.961 . S
C634 C633 1.502 . S
C635 H621 0.960 . S
C635 H622 0.961 . S
C635 H623 0.959 1_455 S
C635 C633 1.561 . S
C636 C633 1.526 . S
C636 C637 1.396 . S
C636 C641 1.390 . S
C637 C631 1.465 . S
C637 C636 1.396 . S
C637 C638 1.399 . S
C638 H624 0.929 1_455 S
C638 C637 1.399 . S
C638 C639 1.385 . S
C639 H625 0.931 . S
C639 C638 1.385 . S
C639 C640 1.389 . S
C640 C639 1.389 . S
C640 C641 1.387 . S
C641 H626 0.930 . S
C641 C636 1.390 . S
C641 C640 1.387 . S
H642 C654 0.930 . S
H643 C656 0.930 . S
H644 C657 0.930 . S
H645 C661 0.959 . S
H646 C661 0.959 . S
H647 C661 0.961 . S
H648 C662 0.960 . S
H649 C662 0.961 . S
H650 C662 0.959 . S
H651 C665 0.929 . S
H652 C666 0.931 . S
H653 C668 0.930 . S
C654 H642 0.930 . S
C654 C655 1.399 . S
C654 C659 1.399 . S
C655 C654 1.399 . S
C655 C656 1.376 . S
C656 H643 0.930 . S
C656 C655 1.376 . S
C656 C657 1.388 . S
C657 H644 0.930 . S
C657 C656 1.388 . S
C657 C658 1.390 . S
C658 C657 1.390 . S
C658 C659 1.394 . S
C658 C664 1.465 . S
C659 C654 1.399 . S
C659 C658 1.394 . S
C659 C660 1.516 . S
C660 C659 1.516 . S
C660 C661 1.502 . S
C660 C662 1.561 . S
C660 C663 1.526 . S
C661 H645 0.959 . S
C661 H646 0.959 . S
C661 H647 0.961 . S
C661 C660 1.502 . S
C662 H648 0.960 . S
C662 H649 0.961 . S
C662 H650 0.959 . S
C662 C660 1.561 . S
C663 C660 1.526 . S
C663 C664 1.396 . S
C663 C668 1.390 . S
C664 C658 1.465 . S
C664 C663 1.396 . S
C664 C665 1.399 . S
C665 H651 0.929 . S
C665 C664 1.399 . S
C665 C666 1.385 . S
C666 H652 0.931 . S
C666 C665 1.385 . S
C666 C667 1.389 . S
C667 C666 1.389 . S
C667 C668 1.387 . S
C668 H653 0.930 . S
C668 C663 1.390 . S
C668 C667 1.387 . S
H669 C681 0.930 . S
H670 C683 0.930 . S
H671 C684 0.930 . S
H672 C688 0.959 . S
H673 C688 0.959 . S
H674 C688 0.961 . S
H675 C689 0.960 . S
H676 C689 0.961 . S
H677 C689 0.959 . S
H678 C692 0.929 . S
H679 C693 0.931 . S
H680 C695 0.930 . S
C681 H669 0.930 . S
C681 C682 1.399 . S
C681 C686 1.399 . S
C682 C681 1.399 . S
C682 C683 1.376 . S
C683 H670 0.930 . S
C683 C682 1.376 . S
C683 C684 1.388 . S
C684 H671 0.930 . S
C684 C683 1.388 . S
C684 C685 1.390 . S
C685 C684 1.390 . S
C685 C686 1.394 . S
C685 C691 1.465 . S
C686 C681 1.399 . S
C686 C685 1.394 . S
C686 C687 1.516 . S
C687 C686 1.516 . S
C687 C688 1.502 . S
C687 C689 1.561 . S
C687 C690 1.526 . S
C688 H672 0.959 . S
C688 H673 0.959 . S
C688 H674 0.961 . S
C688 C687 1.502 . S
C689 H675 0.960 . S
C689 H676 0.961 . S
C689 H677 0.959 . S
C689 C687 1.561 . S
C690 C687 1.526 . S
C690 C691 1.396 . S
C690 C695 1.390 . S
C691 C685 1.465 . S
C691 C690 1.396 . S
C691 C692 1.399 . S
C692 H678 0.929 . S
C692 C691 1.399 . S
C692 C693 1.385 . S
C693 H679 0.931 . S
C693 C692 1.385 . S
C693 C694 1.389 . S
C694 C693 1.389 . S
C694 C695 1.387 . S
C695 H680 0.930 . S
C695 C690 1.390 . S
C695 C694 1.387 . S
H696 C708 0.930 . S
H697 C710 0.930 . S
H698 C711 0.930 . S
H699 C715 0.959 . S
H700 C715 0.959 . S
H701 C715 0.961 . S
H702 C716 0.960 . S
H703 C716 0.961 . S
H704 C716 0.959 . S
H705 C719 0.929 . S
H706 C720 0.931 . S
H707 C722 0.930 . S
C708 H696 0.930 . S
C708 C709 1.399 . S
C708 C713 1.399 . S
C709 C708 1.399 . S
C709 C710 1.376 . S
C710 H697 0.930 . S
C710 C709 1.376 . S
C710 C711 1.388 . S
C711 H698 0.930 . S
C711 C710 1.388 . S
C711 C712 1.390 . S
C712 C711 1.390 . S
C712 C713 1.394 . S
C712 C718 1.465 . S
C713 C708 1.399 . S
C713 C712 1.394 . S
C713 C714 1.516 . S
C714 C713 1.516 . S
C714 C715 1.502 . S
C714 C716 1.561 . S
C714 C717 1.526 . S
C715 H699 0.959 . S
C715 H700 0.959 . S
C715 H701 0.961 . S
C715 C714 1.502 . S
C716 H702 0.960 . S
C716 H703 0.961 . S
C716 H704 0.959 . S
C716 C714 1.561 . S
C717 C714 1.526 . S
C717 C718 1.396 . S
C717 C722 1.390 . S
C718 C712 1.465 . S
C718 C717 1.396 . S
C718 C719 1.399 . S
C719 H705 0.929 . S
C719 C718 1.399 . S
C719 C720 1.385 . S
C720 H706 0.931 . S
C720 C719 1.385 . S
C720 C721 1.389 . S
C721 C720 1.389 . S
C721 C722 1.387 . S
C722 H707 0.930 . S
C722 C717 1.390 . S
C722 C721 1.387 . S
H723 C735 0.930 . S
H724 C737 0.930 . S
H725 C738 0.930 . S
H726 C742 0.959 . S
H727 C742 0.959 . S
H728 C742 0.961 . S
H729 C743 0.960 . S
H730 C743 0.961 . S
H731 C743 0.959 . S
H732 C746 0.929 . S
H733 C747 0.931 . S
H734 C749 0.930 . S
C735 H723 0.930 . S
C735 C736 1.399 . S
C735 C740 1.399 . S
C736 C735 1.399 . S
C736 C737 1.376 . S
C737 H724 0.930 . S
C737 C736 1.376 . S
C737 C738 1.388 . S
C738 H725 0.930 . S
C738 C737 1.388 . S
C738 C739 1.390 . S
C739 C738 1.390 . S
C739 C740 1.394 . S
C739 C745 1.465 . S
C740 C735 1.399 . S
C740 C739 1.394 . S
C740 C741 1.516 . S
C741 C740 1.516 . S
C741 C742 1.502 . S
C741 C743 1.561 . S
C741 C744 1.526 . S
C742 H726 0.959 . S
C742 H727 0.959 . S
C742 H728 0.961 . S
C742 C741 1.502 . S
C743 H729 0.960 . S
C743 H730 0.961 . S
C743 H731 0.959 . S
C743 C741 1.561 . S
C744 C741 1.526 . S
C744 C745 1.396 . S
C744 C749 1.390 . S
C745 C739 1.465 . S
C745 C744 1.396 . S
C745 C746 1.399 . S
C746 H732 0.929 . S
C746 C745 1.399 . S
C746 C747 1.385 . S
C747 H733 0.931 . S
C747 C746 1.385 . S
C747 C748 1.389 . S
C748 C747 1.389 . S
C748 C749 1.387 . S
C749 H734 0.930 . S
C749 C744 1.390 . S
C749 C748 1.387 . S
H750 C762 0.930 1_545 S
H751 C764 0.930 . S
H752 C765 0.930 . S
H753 C769 0.959 . S
H754 C769 0.959 . S
H755 C769 0.961 . S
H756 C770 0.960 . S
H757 C770 0.961 . S
H758 C770 0.959 . S
H759 C773 0.929 . S
H760 C774 0.931 . S
H761 C776 0.930 1_545 S
C762 H750 0.930 1_565 S
C762 C763 1.399 . S
C762 C767 1.399 . S
C763 C762 1.399 . S
C763 C764 1.376 . S
C764 H751 0.930 . S
C764 C763 1.376 . S
C764 C765 1.388 . S
C765 H752 0.930 . S
C765 C764 1.388 . S
C765 C766 1.390 . S
C766 C765 1.390 . S
C766 C767 1.394 . S
C766 C772 1.465 . S
C767 C762 1.399 . S
C767 C766 1.394 . S
C767 C768 1.516 1_565 S
C768 C767 1.516 1_545 S
C768 C769 1.502 . S
C768 C770 1.561 . S
C768 C771 1.526 1_545 S
C769 H753 0.959 . S
C769 H754 0.959 . S
C769 H755 0.961 . S
C769 C768 1.502 . S
C770 H756 0.960 . S
C770 H757 0.961 . S
C770 H758 0.959 . S
C770 C768 1.561 . S
C771 C768 1.526 1_565 S
C771 C772 1.396 . S
C771 C776 1.390 . S
C772 C766 1.465 . S
C772 C771 1.396 . S
C772 C773 1.399 . S
C773 H759 0.929 . S
C773 C772 1.399 . S
C773 C774 1.385 . S
C774 H760 0.931 . S
C774 C773 1.385 . S
C774 C775 1.389 . S
C775 C774 1.389 . S
C775 C776 1.387 . S
C776 H761 0.930 1_565 S
C776 C771 1.390 . S
C776 C775 1.387 . S
H777 C789 0.930 . S
H778 C791 0.930 . S
H779 C792 0.930 . S
H780 C796 0.959 . S
H781 C796 0.959 . S
H782 C796 0.961 . S
H783 C797 0.960 . S
H784 C797 0.961 . S
H785 C797 0.959 . S
H786 C800 0.929 . S
H787 C801 0.931 . S
H788 C803 0.930 . S
C789 H777 0.930 . S
C789 C790 1.399 . S
C789 C794 1.399 . S
C790 C789 1.399 . S
C790 C791 1.376 . S
C791 H778 0.930 . S
C791 C790 1.376 . S
C791 C792 1.388 . S
C792 H779 0.930 . S
C792 C791 1.388 . S
C792 C793 1.390 . S
C793 C792 1.390 . S
C793 C794 1.394 . S
C793 C799 1.465 . S
C794 C789 1.399 . S
C794 C793 1.394 . S
C794 C795 1.516 . S
C795 C794 1.516 . S
C795 C796 1.502 1_455 S
C795 C797 1.561 . S
C795 C798 1.526 . S
C796 H780 0.959 . S
C796 H781 0.959 . S
C796 H782 0.961 . S
C796 C795 1.502 1_655 S
C797 H783 0.960 . S
C797 H784 0.961 . S
C797 H785 0.959 . S
C797 C795 1.561 . S
C798 C795 1.526 . S
C798 C799 1.396 . S
C798 C803 1.390 . S
C799 C793 1.465 . S
C799 C798 1.396 . S
C799 C800 1.399 . S
C800 H786 0.929 . S
C800 C799 1.399 . S
C800 C801 1.385 . S
C801 H787 0.931 . S
C801 C800 1.385 . S
C801 C802 1.389 . S
C802 C801 1.389 . S
C802 C803 1.387 . S
C803 H788 0.930 . S
C803 C798 1.390 . S
C803 C802 1.387 . S
H804 C816 0.930 . S
H805 C818 0.930 . S
H806 C819 0.930 . S
H807 C823 0.932 1_556 S
H808 C823 0.959 . S
H809 C823 0.961 . S
H810 C824 0.960 . S
H811 C824 0.961 . S
H812 C824 0.959 . S
H813 C827 0.929 . S
H814 C828 0.931 . S
H815 C830 0.930 1_554 S
C816 H804 0.930 . S
C816 C817 1.399 1_554 S
C816 C821 1.399 1_554 S
C817 C816 1.399 1_556 S
C817 C818 1.376 . S
C818 H805 0.930 . S
C818 C817 1.376 . S
C818 C819 1.388 . S
C819 H806 0.930 . S
C819 C818 1.388 . S
C819 C820 1.390 . S
C820 C819 1.390 . S
C820 C821 1.394 . S
C820 C826 1.465 . S
C821 C816 1.399 1_556 S
C821 C820 1.394 . S
C821 C822 1.516 1_556 S
C822 C821 1.516 1_554 S
C822 C823 1.502 . S
C822 C824 1.561 . S
C822 C825 1.526 1_554 S
C823 H807 0.932 1_554 S
C823 H808 0.959 . S
C823 H809 0.961 . S
C823 C822 1.502 . S
C824 H810 0.960 . S
C824 H811 0.961 . S
C824 H812 0.959 . S
C824 C822 1.561 . S
C825 C822 1.526 1_556 S
C825 C826 1.396 . S
C825 C830 1.390 . S
C826 C820 1.465 . S
C826 C825 1.396 . S
C826 C827 1.399 . S
C827 H813 0.929 . S
C827 C826 1.399 . S
C827 C828 1.385 . S
C828 H814 0.931 . S
C828 C827 1.385 . S
C828 C829 1.389 . S
C829 C828 1.389 . S
C829 C830 1.387 . S
C830 H815 0.930 1_556 S
C830 C825 1.390 . S
C830 C829 1.387 . S
H831 C843 0.930 . S
H832 C845 0.930 . S
H833 C846 0.930 . S
H834 C850 0.959 . S
H835 C850 0.959 . S
H836 C850 0.961 . S
H837 C851 0.960 . S
H838 C851 0.961 . S
H839 C851 0.959 . S
H840 C854 0.929 . S
H841 C855 0.931 . S
H842 C857 0.930 . S
C843 H831 0.930 . S
C843 C844 1.399 . S
C843 C848 1.399 . S
C844 C843 1.399 . S
C844 C845 1.376 . S
C845 H832 0.930 . S
C845 C844 1.376 . S
C845 C846 1.388 . S
C846 H833 0.930 . S
C846 C845 1.388 . S
C846 C847 1.390 . S
C847 C846 1.390 . S
C847 C848 1.394 . S
C847 C853 1.465 . S
C848 C843 1.399 . S
C848 C847 1.394 . S
C848 C849 1.516 . S
C849 C848 1.516 . S
C849 C850 1.502 . S
C849 C851 1.561 . S
C849 C852 1.526 . S
C850 H834 0.959 . S
C850 H835 0.959 . S
C850 H836 0.961 . S
C850 C849 1.502 . S
C851 H837 0.960 . S
C851 H838 0.961 . S
C851 H839 0.959 . S
C851 C849 1.561 . S
C852 C849 1.526 . S
C852 C853 1.396 . S
C852 C857 1.390 . S
C853 C847 1.465 . S
C853 C852 1.396 . S
C853 C854 1.399 . S
C854 H840 0.929 . S
C854 C853 1.399 . S
C854 C855 1.385 . S
C855 H841 0.931 . S
C855 C854 1.385 . S
C855 C856 1.389 . S
C856 C855 1.389 . S
C856 C857 1.387 . S
C857 H842 0.930 . S
C857 C852 1.390 . S
C857 C856 1.387 . S
H858 C870 0.930 . S
H859 C872 0.930 . S
H860 C873 0.930 . S
H861 C877 0.959 . S
H862 C877 0.959 . S
H863 C877 0.961 . S
H864 C878 0.960 . S
H865 C878 0.961 . S
H866 C878 0.959 . S
H867 C881 0.929 . S
H868 C882 0.931 . S
H869 C884 0.930 . S
C870 H858 0.930 . S
C870 C871 1.399 . S
C870 C875 1.399 . S
C871 C870 1.399 . S
C871 C872 1.376 . S
C872 H859 0.930 . S
C872 C871 1.376 . S
C872 C873 1.388 . S
C873 H860 0.930 . S
C873 C872 1.388 . S
C873 C874 1.390 . S
C874 C873 1.390 . S
C874 C875 1.394 . S
C874 C880 1.465 . S
C875 C870 1.399 . S
C875 C874 1.394 . S
C875 C876 1.516 . S
C876 C875 1.516 . S
C876 C877 1.502 . S
C876 C878 1.561 . S
C876 C879 1.526 . S
C877 H861 0.959 . S
C877 H862 0.959 . S
C877 H863 0.961 . S
C877 C876 1.502 . S
C878 H864 0.960 . S
C878 H865 0.961 . S
C878 H866 0.959 . S
C878 C876 1.561 . S
C879 C876 1.526 . S
C879 C880 1.396 . S
C879 C884 1.390 . S
C880 C874 1.465 . S
C880 C879 1.396 . S
C880 C881 1.399 . S
C881 H867 0.929 . S
C881 C880 1.399 . S
C881 C882 1.385 . S
C882 H868 0.931 . S
C882 C881 1.385 . S
C882 C883 1.389 . S
C883 C882 1.389 . S
C883 C884 1.387 . S
C884 H869 0.930 . S
C884 C879 1.390 . S
C884 C883 1.387 . S
H885 C897 0.930 . S
H886 C899 0.930 . S
H887 C900 0.930 . S
H888 C904 0.959 . S
H889 C904 0.959 . S
H890 C904 0.961 . S
H891 C905 0.960 . S
H892 C905 0.961 . S
H893 C905 0.959 . S
H894 C908 0.929 . S
H895 C909 0.931 . S
H896 C911 0.930 . S
C897 H885 0.930 . S
C897 C898 1.399 . S
C897 C902 1.399 . S
C898 C897 1.399 . S
C898 C899 1.376 . S
C899 H886 0.930 . S
C899 C898 1.376 . S
C899 C900 1.388 . S
C900 H887 0.930 . S
C900 C899 1.388 . S
C900 C901 1.390 . S
C901 C900 1.390 . S
C901 C902 1.394 . S
C901 C907 1.465 . S
C902 C897 1.399 . S
C902 C901 1.394 . S
C902 C903 1.516 . S
C903 C902 1.516 . S
C903 C904 1.502 . S
C903 C905 1.561 . S
C903 C906 1.526 . S
C904 H888 0.959 . S
C904 H889 0.959 . S
C904 H890 0.961 . S
C904 C903 1.502 . S
C905 H891 0.960 . S
C905 H892 0.961 . S
C905 H893 0.959 . S
C905 C903 1.561 . S
C906 C903 1.526 . S
C906 C907 1.396 . S
C906 C911 1.390 . S
C907 C901 1.465 . S
C907 C906 1.396 . S
C907 C908 1.399 . S
C908 H894 0.929 . S
C908 C907 1.399 . S
C908 C909 1.385 . S
C909 H895 0.931 . S
C909 C908 1.385 . S
C909 C910 1.389 . S
C910 C909 1.389 . S
C910 C911 1.387 . S
C911 H896 0.930 . S
C911 C906 1.390 . S
C911 C910 1.387 . S
H912 C924 0.930 . S
H913 C926 0.930 . S
H914 C927 0.930 . S
H915 C931 0.959 . S
H916 C931 0.959 . S
H917 C931 0.961 . S
H918 C932 0.960 . S
H919 C932 0.961 . S
H920 C932 0.959 . S
H921 C935 0.929 . S
H922 C936 0.931 . S
H923 C938 0.930 . S
C924 H912 0.930 . S
C924 C925 1.399 . S
C924 C929 1.399 . S
C925 C924 1.399 . S
C925 C926 1.376 . S
C926 H913 0.930 . S
C926 C925 1.376 . S
C926 C927 1.388 . S
C927 H914 0.930 . S
C927 C926 1.388 . S
C927 C928 1.390 . S
C928 C927 1.390 . S
C928 C929 1.394 . S
C928 C934 1.465 . S
C929 C924 1.399 . S
C929 C928 1.394 . S
C929 C930 1.516 . S
C930 C929 1.516 . S
C930 C931 1.502 . S
C930 C932 1.561 . S
C930 C933 1.526 . S
C931 H915 0.959 . S
C931 H916 0.959 . S
C931 H917 0.961 . S
C931 C930 1.502 . S
C932 H918 0.960 . S
C932 H919 0.961 . S
C932 H920 0.959 . S
C932 C930 1.561 . S
C933 C930 1.526 . S
C933 C934 1.396 . S
C933 C938 1.390 . S
C934 C928 1.465 . S
C934 C933 1.396 . S
C934 C935 1.399 . S
C935 H921 0.929 . S
C935 C934 1.399 . S
C935 C936 1.385 . S
C936 H922 0.931 . S
C936 C935 1.385 . S
C936 C937 1.389 . S
C937 C936 1.389 . S
C937 C938 1.387 . S
C938 H923 0.930 . S
C938 C933 1.390 . S
C938 C937 1.387 . S
H939 C951 0.930 . S
H940 C953 0.930 . S
H941 C954 0.930 . S
H942 C958 0.959 . S
H943 C958 0.959 . S
H944 C958 0.961 . S
H945 C959 0.960 . S
H946 C959 0.961 . S
H947 C959 0.959 . S
H948 C962 0.929 . S
H949 C963 0.931 . S
H950 C965 0.930 . S
C951 H939 0.930 . S
C951 C952 1.399 . S
C951 C956 1.399 . S
C952 C951 1.399 . S
C952 C953 1.376 . S
C953 H940 0.930 . S
C953 C952 1.376 . S
C953 C954 1.388 . S
C954 H941 0.930 . S
C954 C953 1.388 . S
C954 C955 1.390 . S
C955 C954 1.390 . S
C955 C956 1.394 . S
C955 C961 1.465 . S
C956 C951 1.399 . S
C956 C955 1.394 . S
C956 C957 1.516 . S
C957 C956 1.516 . S
C957 C958 1.502 . S
C957 C959 1.561 . S
C957 C960 1.526 . S
C958 H942 0.959 . S
C958 H943 0.959 . S
C958 H944 0.961 . S
C958 C957 1.502 . S
C959 H945 0.960 . S
C959 H946 0.961 . S
C959 H947 0.959 . S
C959 C957 1.561 . S
C960 C957 1.526 . S
C960 C961 1.396 . S
C960 C965 1.390 . S
C961 C955 1.465 . S
C961 C960 1.396 . S
C961 C962 1.399 . S
C962 H948 0.929 . S
C962 C961 1.399 . S
C962 C963 1.385 . S
C963 H949 0.931 . S
C963 C962 1.385 . S
C963 C964 1.389 . S
C964 C963 1.389 . S
C964 C965 1.387 . S
C965 H950 0.930 . S
C965 C960 1.390 . S
C965 C964 1.387 . S
H966 C978 0.930 . S
H967 C980 0.930 . S
H968 C981 0.930 . S
H969 C985 0.959 . S
H970 C985 0.959 . S
H971 C985 0.961 . S
H972 C986 0.960 . S
H973 C986 0.961 . S
H974 C986 0.959 . S
H975 C989 0.929 . S
H976 C990 0.931 . S
H977 C992 0.930 . S
C978 H966 0.930 . S
C978 C979 1.399 . S
C978 C983 1.399 . S
C979 C978 1.399 . S
C979 C980 1.376 . S
C980 H967 0.930 . S
C980 C979 1.376 . S
C980 C981 1.388 . S
C981 H968 0.930 . S
C981 C980 1.388 . S
C981 C982 1.390 . S
C982 C981 1.390 . S
C982 C983 1.394 . S
C982 C988 1.465 . S
C983 C978 1.399 . S
C983 C982 1.394 . S
C983 C984 1.516 . S
C984 C983 1.516 . S
C984 C985 1.502 . S
C984 C986 1.561 . S
C984 C987 1.526 . S
C985 H969 0.959 . S
C985 H970 0.959 . S
C985 H971 0.961 . S
C985 C984 1.502 . S
C986 H972 0.960 . S
C986 H973 0.961 . S
C986 H974 0.959 . S
C986 C984 1.561 . S
C987 C984 1.526 . S
C987 C988 1.396 . S
C987 C992 1.390 . S
C988 C982 1.465 . S
C988 C987 1.396 . S
C988 C989 1.399 . S
C989 H975 0.929 . S
C989 C988 1.399 . S
C989 C990 1.385 . S
C990 H976 0.931 . S
C990 C989 1.385 . S
C990 C991 1.389 . S
C991 C990 1.389 . S
C991 C992 1.387 . S
C992 H977 0.930 . S
C992 C987 1.390 . S
C992 C991 1.387 . S
H993 C1005 0.930 . S
H994 C1007 0.930 . S
H995 C1008 0.930 . S
H996 C1012 0.959 . S
H997 C1012 0.959 . S
H998 C1012 0.961 . S
H999 C1013 0.960 . S
H1000 C1013 0.961 . S
H1001 C1013 0.959 . S
H1002 C1016 0.929 . S
H1003 C1017 0.931 . S
H1004 C1019 0.930 . S
C1005 H993 0.930 . S
C1005 C1006 1.399 . S
C1005 C1010 1.399 . S
C1006 C1005 1.399 . S
C1006 C1007 1.376 . S
C1007 H994 0.930 . S
C1007 C1006 1.376 . S
C1007 C1008 1.388 . S
C1008 H995 0.930 . S
C1008 C1007 1.388 . S
C1008 C1009 1.390 . S
C1009 C1008 1.390 . S
C1009 C1010 1.394 . S
C1009 C1015 1.465 . S
C1010 C1005 1.399 . S
C1010 C1009 1.394 . S
C1010 C1011 1.516 . S
C1011 C1010 1.516 . S
C1011 C1012 1.502 . S
C1011 C1013 1.561 . S
C1011 C1014 1.526 . S
C1012 H996 0.959 . S
C1012 H997 0.959 . S
C1012 H998 0.961 . S
C1012 C1011 1.502 . S
C1013 H999 0.960 . S
C1013 H1000 0.961 . S
C1013 H1001 0.959 . S
C1013 C1011 1.561 . S
C1014 C1011 1.526 . S
C1014 C1015 1.396 . S
C1014 C1019 1.390 . S
C1015 C1009 1.465 . S
C1015 C1014 1.396 . S
C1015 C1016 1.399 . S
C1016 H1002 0.929 . S
C1016 C1015 1.399 . S
C1016 C1017 1.385 . S
C1017 H1003 0.931 . S
C1017 C1016 1.385 . S
C1017 C1018 1.389 . S
C1018 C1017 1.389 . S
C1018 C1019 1.387 . S
C1019 H1004 0.930 . S
C1019 C1014 1.390 . S
C1019 C1018 1.387 . S
H1020 C1032 0.930 . S
H1021 C1034 0.930 . S
H1022 C1035 0.930 . S
H1023 C1039 0.959 . S
H1024 C1039 0.959 . S
H1025 C1039 0.961 . S
H1026 C1040 0.960 . S
H1027 C1040 0.961 . S
H1028 C1040 0.959 . S
H1029 C1043 0.929 . S
H1030 C1044 0.931 . S
H1031 C1046 0.930 . S
C1032 H1020 0.930 . S
C1032 C1033 1.399 . S
C1032 C1037 1.399 . S
C1033 C1032 1.399 . S
C1033 C1034 1.376 . S
C1034 H1021 0.930 . S
C1034 C1033 1.376 . S
C1034 C1035 1.388 . S
C1035 H1022 0.930 . S
C1035 C1034 1.388 . S
C1035 C1036 1.390 . S
C1036 C1035 1.390 . S
C1036 C1037 1.394 . S
C1036 C1042 1.465 . S
C1037 C1032 1.399 . S
C1037 C1036 1.394 . S
C1037 C1038 1.516 . S
C1038 C1037 1.516 . S
C1038 C1039 1.502 . S
C1038 C1040 1.561 . S
C1038 C1041 1.526 . S
C1039 H1023 0.959 . S
C1039 H1024 0.959 . S
C1039 H1025 0.961 . S
C1039 C1038 1.502 . S
C1040 H1026 0.960 . S
C1040 H1027 0.961 . S
C1040 H1028 0.959 . S
C1040 C1038 1.561 . S
C1041 C1038 1.526 . S
C1041 C1042 1.396 . S
C1041 C1046 1.390 . S
C1042 C1036 1.465 . S
C1042 C1041 1.396 . S
C1042 C1043 1.399 . S
C1043 H1029 0.929 . S
C1043 C1042 1.399 . S
C1043 C1044 1.385 . S
C1044 H1030 0.931 . S
C1044 C1043 1.385 . S
C1044 C1045 1.389 . S
C1045 C1044 1.389 . S
C1045 C1046 1.387 . S
C1046 H1031 0.930 . S
C1046 C1041 1.390 . S
C1046 C1045 1.387 . S
H1047 C1059 0.930 . S
H1048 C1061 0.937 . S
H1049 C1062 0.930 1_455 S
H1050 C1066 0.959 . S
H1051 C1066 0.959 . S
H1052 C1066 0.961 . S
H1053 C1067 0.960 . S
H1054 C1067 0.961 . S
H1055 C1067 0.959 1_455 S
H1056 C1070 0.923 1_455 S
H1057 C1071 0.931 . S
H1058 C1073 0.930 . S
C1059 H1047 0.930 . S
C1059 C1060 1.399 . S
C1059 C1064 1.399 . S
C1060 C1059 1.399 . S
C1060 C1061 1.376 . S
C1061 H1048 0.937 . S
C1061 C1060 1.376 . S
C1061 C1062 1.388 . S
C1062 H1049 0.930 1_655 S
C1062 C1061 1.388 . S
C1062 C1063 1.390 . S
C1063 C1062 1.390 . S
C1063 C1064 1.394 . S
C1063 C1069 1.465 . S
C1064 C1059 1.399 . S
C1064 C1063 1.394 . S
C1064 C1065 1.516 . S
C1065 C1064 1.516 . S
C1065 C1066 1.502 . S
C1065 C1067 1.561 . S
C1065 C1068 1.526 . S
C1066 H1050 0.959 . S
C1066 H1051 0.959 . S
C1066 H1052 0.961 . S
C1066 C1065 1.502 . S
C1067 H1053 0.960 . S
C1067 H1054 0.961 . S
C1067 H1055 0.959 1_655 S
C1067 C1065 1.561 . S
C1068 C1065 1.526 . S
C1068 C1069 1.396 . S
C1068 C1073 1.390 . S
C1069 C1063 1.465 . S
C1069 C1068 1.396 . S
C1069 C1070 1.399 . S
C1070 H1056 0.923 1_655 S
C1070 C1069 1.399 . S
C1070 C1071 1.385 . S
C1071 H1057 0.931 . S
C1071 C1070 1.385 . S
C1071 C1072 1.389 . S
C1072 C1071 1.389 . S
C1072 C1073 1.387 . S
C1073 H1058 0.930 . S
C1073 C1068 1.390 . S
C1073 C1072 1.387 . S
H1074 C1086 0.930 . S
H1075 C1088 0.930 . S
H1076 C1089 0.930 . S
H1077 C1093 0.959 . S
H1078 C1093 0.959 . S
H1079 C1093 0.961 . S
H1080 C1094 0.960 . S
H1081 C1094 0.961 . S
H1082 C1094 0.959 . S
H1083 C1097 0.929 . S
H1084 C1098 0.931 . S
H1085 C1100 0.930 . S
C1086 H1074 0.930 . S
C1086 C1087 1.399 . S
C1086 C1091 1.399 . S
C1087 C1086 1.399 . S
C1087 C1088 1.376 . S
C1088 H1075 0.930 . S
C1088 C1087 1.376 . S
C1088 C1089 1.388 . S
C1089 H1076 0.930 . S
C1089 C1088 1.388 . S
C1089 C1090 1.390 . S
C1090 C1089 1.390 . S
C1090 C1091 1.394 . S
C1090 C1096 1.465 . S
C1091 C1086 1.399 . S
C1091 C1090 1.394 . S
C1091 C1092 1.516 . S
C1092 C1091 1.516 . S
C1092 C1093 1.502 . S
C1092 C1094 1.561 . S
C1092 C1095 1.526 . S
C1093 H1077 0.959 . S
C1093 H1078 0.959 . S
C1093 H1079 0.961 . S
C1093 C1092 1.502 . S
C1094 H1080 0.960 . S
C1094 H1081 0.961 . S
C1094 H1082 0.959 . S
C1094 C1092 1.561 . S
C1095 C1092 1.526 . S
C1095 C1096 1.396 . S
C1095 C1100 1.390 . S
C1096 C1090 1.465 . S
C1096 C1095 1.396 . S
C1096 C1097 1.399 . S
C1097 H1083 0.929 . S
C1097 C1096 1.399 . S
C1097 C1098 1.385 . S
C1098 H1084 0.931 . S
C1098 C1097 1.385 . S
C1098 C1099 1.389 . S
C1099 C1098 1.389 . S
C1099 C1100 1.387 . S
C1100 H1085 0.930 . S
C1100 C1095 1.390 . S
C1100 C1099 1.387 . S
H1101 C1113 0.930 . S
H1102 C1115 0.930 . S
H1103 C1116 0.930 . S
H1104 C1120 0.959 . S
H1105 C1120 0.959 . S
H1106 C1120 0.961 . S
H1107 C1121 0.960 . S
H1108 C1121 0.961 . S
H1109 C1121 0.959 . S
H1110 C1124 0.929 . S
H1111 C1125 0.931 . S
H1112 C1127 0.930 . S
C1113 H1101 0.930 . S
C1113 C1114 1.399 . S
C1113 C1118 1.399 . S
C1114 C1113 1.399 . S
C1114 C1115 1.376 . S
C1115 H1102 0.930 . S
C1115 C1114 1.376 . S
C1115 C1116 1.388 . S
C1116 H1103 0.930 . S
C1116 C1115 1.388 . S
C1116 C1117 1.390 . S
C1117 C1116 1.390 . S
C1117 C1118 1.394 . S
C1117 C1123 1.465 . S
C1118 C1113 1.399 . S
C1118 C1117 1.394 . S
C1118 C1119 1.516 . S
C1119 C1118 1.516 . S
C1119 C1120 1.502 . S
C1119 C1121 1.561 . S
C1119 C1122 1.526 . S
C1120 H1104 0.959 . S
C1120 H1105 0.959 . S
C1120 H1106 0.961 . S
C1120 C1119 1.502 . S
C1121 H1107 0.960 . S
C1121 H1108 0.961 . S
C1121 H1109 0.959 . S
C1121 C1119 1.561 . S
C1122 C1119 1.526 . S
C1122 C1123 1.396 . S
C1122 C1127 1.390 . S
C1123 C1117 1.465 . S
C1123 C1122 1.396 . S
C1123 C1124 1.399 . S
C1124 H1110 0.929 . S
C1124 C1123 1.399 . S
C1124 C1125 1.385 . S
C1125 H1111 0.931 . S
C1125 C1124 1.385 . S
C1125 C1126 1.389 . S
C1126 C1125 1.389 . S
C1126 C1127 1.387 . S
C1127 H1112 0.930 . S
C1127 C1122 1.390 . S
C1127 C1126 1.387 . S
H1128 C1140 0.930 . S
H1129 C1142 0.930 . S
H1130 C1143 0.930 . S
H1131 C1147 0.959 . S
H1132 C1147 0.959 . S
H1133 C1147 0.961 . S
H1134 C1148 0.960 . S
H1135 C1148 0.961 . S
H1136 C1148 0.959 . S
H1137 C1151 0.929 . S
H1138 C1152 0.931 . S
H1139 C1154 0.930 . S
C1140 H1128 0.930 . S
C1140 C1141 1.399 . S
C1140 C1145 1.399 . S
C1141 C1140 1.399 . S
C1141 C1142 1.376 . S
C1142 H1129 0.930 . S
C1142 C1141 1.376 . S
C1142 C1143 1.388 . S
C1143 H1130 0.930 . S
C1143 C1142 1.388 . S
C1143 C1144 1.390 . S
C1144 C1143 1.390 . S
C1144 C1145 1.394 . S
C1144 C1150 1.465 . S
C1145 C1140 1.399 . S
C1145 C1144 1.394 . S
C1145 C1146 1.516 . S
C1146 C1145 1.516 . S
C1146 C1147 1.502 . S
C1146 C1148 1.561 . S
C1146 C1149 1.526 . S
C1147 H1131 0.959 . S
C1147 H1132 0.959 . S
C1147 H1133 0.961 . S
C1147 C1146 1.502 . S
C1148 H1134 0.960 . S
C1148 H1135 0.961 . S
C1148 H1136 0.959 . S
C1148 C1146 1.561 . S
C1149 C1146 1.526 . S
C1149 C1150 1.396 . S
C1149 C1154 1.390 . S
C1150 C1144 1.465 . S
C1150 C1149 1.396 . S
C1150 C1151 1.399 . S
C1151 H1137 0.929 . S
C1151 C1150 1.399 . S
C1151 C1152 1.385 . S
C1152 H1138 0.931 . S
C1152 C1151 1.385 . S
C1152 C1153 1.389 . S
C1153 C1152 1.389 . S
C1153 C1154 1.387 . S
C1154 H1139 0.930 . S
C1154 C1149 1.390 . S
C1154 C1153 1.387 . S
H1155 C1167 0.930 . S
H1156 C1169 0.930 . S
H1157 C1170 0.930 . S
H1158 C1174 0.959 . S
H1159 C1174 0.959 . S
H1160 C1174 0.961 . S
H1161 C1175 0.960 . S
H1162 C1175 0.961 . S
H1163 C1175 0.959 . S
H1164 C1178 0.929 . S
H1165 C1179 0.931 . S
H1166 C1181 0.930 . S
C1167 H1155 0.930 . S
C1167 C1168 1.399 . S
C1167 C1172 1.399 . S
C1168 C1167 1.399 . S
C1168 C1169 1.376 . S
C1169 H1156 0.930 . S
C1169 C1168 1.376 . S
C1169 C1170 1.388 . S
C1170 H1157 0.930 . S
C1170 C1169 1.388 . S
C1170 C1171 1.390 . S
C1171 C1170 1.390 . S
C1171 C1172 1.394 . S
C1171 C1177 1.465 . S
C1172 C1167 1.399 . S
C1172 C1171 1.394 . S
C1172 C1173 1.516 . S
C1173 C1172 1.516 . S
C1173 C1174 1.502 . S
C1173 C1175 1.561 . S
C1173 C1176 1.526 . S
C1174 H1158 0.959 . S
C1174 H1159 0.959 . S
C1174 H1160 0.961 . S
C1174 C1173 1.502 . S
C1175 H1161 0.960 . S
C1175 H1162 0.961 . S
C1175 H1163 0.959 . S
C1175 C1173 1.561 . S
C1176 C1173 1.526 . S
C1176 C1177 1.396 . S
C1176 C1181 1.390 . S
C1177 C1171 1.465 . S
C1177 C1176 1.396 . S
C1177 C1178 1.399 . S
C1178 H1164 0.929 . S
C1178 C1177 1.399 . S
C1178 C1179 1.385 . S
C1179 H1165 0.931 . S
C1179 C1178 1.385 . S
C1179 C1180 1.389 . S
C1180 C1179 1.389 . S
C1180 C1181 1.387 . S
C1181 H1166 0.930 . S
C1181 C1176 1.390 . S
C1181 C1180 1.387 . S
H1182 C1194 0.930 1_565 S
H1183 C1196 0.930 . S
H1184 C1197 0.930 . S
H1185 C1201 0.959 1_545 S
H1186 C1201 0.959 . S
H1187 C1201 0.961 . S
H1188 C1202 0.960 . S
H1189 C1202 0.961 . S
H1190 C1202 0.959 . S
H1191 C1205 0.929 . S
H1192 C1206 0.931 . S
H1193 C1208 0.931 . S
C1194 H1182 0.930 1_545 S
C1194 C1195 1.399 . S
C1194 C1199 1.399 . S
C1195 C1194 1.399 . S
C1195 C1196 1.376 . S
C1196 H1183 0.930 . S
C1196 C1195 1.376 . S
C1196 C1197 1.388 . S
C1197 H1184 0.930 . S
C1197 C1196 1.388 . S
C1197 C1198 1.390 . S
C1198 C1197 1.390 . S
C1198 C1199 1.394 . S
C1198 C1204 1.465 . S
C1199 C1194 1.399 . S
C1199 C1198 1.394 . S
C1199 C1200 1.516 1_545 S
C1200 C1199 1.516 1_565 S
C1200 C1201 1.502 . S
C1200 C1202 1.561 . S
C1200 C1203 1.526 1_565 S
C1201 H1185 0.959 1_565 S
C1201 H1186 0.959 . S
C1201 H1187 0.961 . S
C1201 C1200 1.502 . S
C1202 H1188 0.960 . S
C1202 H1189 0.961 . S
C1202 H1190 0.959 . S
C1202 C1200 1.561 . S
C1203 C1200 1.526 1_545 S
C1203 C1204 1.396 . S
C1203 C1208 1.390 . S
C1204 C1198 1.465 . S
C1204 C1203 1.396 . S
C1204 C1205 1.399 . S
C1205 H1191 0.929 . S
C1205 C1204 1.399 . S
C1205 C1206 1.385 . S
C1206 H1192 0.931 . S
C1206 C1205 1.385 . S
C1206 C1207 1.389 . S
C1207 C1206 1.389 . S
C1207 C1208 1.387 . S
C1208 H1193 0.931 . S
C1208 C1203 1.390 . S
C1208 C1207 1.387 . S
H1209 C1221 0.930 . S
H1210 C1223 0.936 . S
H1211 C1224 0.930 1_556 S
H1212 C1228 0.959 . S
H1213 C1228 0.959 . S
H1214 C1228 0.961 . S
H1215 C1229 0.960 . S
H1216 C1229 0.961 . S
H1217 C1229 0.959 1_556 S
H1218 C1232 0.929 . S
H1219 C1233 0.936 . S
H1220 C1235 0.930 . S
C1221 H1209 0.930 . S
C1221 C1222 1.399 . S
C1221 C1226 1.399 . S
C1222 C1221 1.399 . S
C1222 C1223 1.376 . S
C1223 H1210 0.936 . S
C1223 C1222 1.376 . S
C1223 C1224 1.388 . S
C1224 H1211 0.930 1_554 S
C1224 C1223 1.388 . S
C1224 C1225 1.390 . S
C1225 C1224 1.390 . S
C1225 C1226 1.394 . S
C1225 C1231 1.465 . S
C1226 C1221 1.399 . S
C1226 C1225 1.394 . S
C1226 C1227 1.516 . S
C1227 C1226 1.516 . S
C1227 C1228 1.502 . S
C1227 C1229 1.561 . S
C1227 C1230 1.526 . S
C1228 H1212 0.959 . S
C1228 H1213 0.959 . S
C1228 H1214 0.961 . S
C1228 C1227 1.502 . S
C1229 H1215 0.960 . S
C1229 H1216 0.961 . S
C1229 H1217 0.959 1_554 S
C1229 C1227 1.561 . S
C1230 C1227 1.526 . S
C1230 C1231 1.396 . S
C1230 C1235 1.390 . S
C1231 C1225 1.465 . S
C1231 C1230 1.396 . S
C1231 C1232 1.399 1_554 S
C1232 H1218 0.929 . S
C1232 C1231 1.399 1_556 S
C1232 C1233 1.384 . S
C1233 H1219 0.936 . S
C1233 C1232 1.384 . S
C1233 C1234 1.385 1_556 S
C1234 C1233 1.385 1_554 S
C1234 C1235 1.387 . S
C1235 H1220 0.930 . S
C1235 C1230 1.390 . S
C1235 C1234 1.387 . S
H1236 C1248 0.930 . S
H1237 C1250 0.930 . S
H1238 C1251 0.930 . S
H1239 C1255 0.959 . S
H1240 C1255 0.959 . S
H1241 C1255 0.961 . S
H1242 C1256 0.960 . S
H1243 C1256 0.961 . S
H1244 C1256 0.959 . S
H1245 C1259 0.929 . S
H1246 C1260 0.931 . S
H1247 C1262 0.930 . S
C1248 H1236 0.930 . S
C1248 C1249 1.399 . S
C1248 C1253 1.399 . S
C1249 C1248 1.399 . S
C1249 C1250 1.376 . S
C1250 H1237 0.930 . S
C1250 C1249 1.376 . S
C1250 C1251 1.388 . S
C1251 H1238 0.930 . S
C1251 C1250 1.388 . S
C1251 C1252 1.390 . S
C1252 C1251 1.390 . S
C1252 C1253 1.394 . S
C1252 C1258 1.465 . S
C1253 C1248 1.399 . S
C1253 C1252 1.394 . S
C1253 C1254 1.516 . S
C1254 C1253 1.516 . S
C1254 C1255 1.502 . S
C1254 C1256 1.561 . S
C1254 C1257 1.526 . S
C1255 H1239 0.959 . S
C1255 H1240 0.959 . S
C1255 H1241 0.961 . S
C1255 C1254 1.502 . S
C1256 H1242 0.960 . S
C1256 H1243 0.961 . S
C1256 H1244 0.959 . S
C1256 C1254 1.561 . S
C1257 C1254 1.526 . S
C1257 C1258 1.396 . S
C1257 C1262 1.390 . S
C1258 C1252 1.465 . S
C1258 C1257 1.396 . S
C1258 C1259 1.399 . S
C1259 H1245 0.929 . S
C1259 C1258 1.399 . S
C1259 C1260 1.385 . S
C1260 H1246 0.931 . S
C1260 C1259 1.385 . S
C1260 C1261 1.389 . S
C1261 C1260 1.389 . S
C1261 C1262 1.387 . S
C1262 H1247 0.930 . S
C1262 C1257 1.390 . S
C1262 C1261 1.387 . S
H1263 C1275 0.930 . S
H1264 C1277 0.930 . S
H1265 C1278 0.930 . S
H1266 C1282 0.959 . S
H1267 C1282 0.959 . S
H1268 C1282 0.961 . S
H1269 C1283 0.960 . S
H1270 C1283 0.961 . S
H1271 C1283 0.959 . S
H1272 C1286 0.929 . S
H1273 C1287 0.931 . S
H1274 C1289 0.930 . S
C1275 H1263 0.930 . S
C1275 C1276 1.399 . S
C1275 C1280 1.399 . S
C1276 C1275 1.399 . S
C1276 C1277 1.376 . S
C1277 H1264 0.930 . S
C1277 C1276 1.376 . S
C1277 C1278 1.388 . S
C1278 H1265 0.930 . S
C1278 C1277 1.388 . S
C1278 C1279 1.390 . S
C1279 C1278 1.390 . S
C1279 C1280 1.394 . S
C1279 C1285 1.465 . S
C1280 C1275 1.399 . S
C1280 C1279 1.394 . S
C1280 C1281 1.516 . S
C1281 C1280 1.516 . S
C1281 C1282 1.502 . S
C1281 C1283 1.561 . S
C1281 C1284 1.526 . S
C1282 H1266 0.959 . S
C1282 H1267 0.959 . S
C1282 H1268 0.961 . S
C1282 C1281 1.502 . S
C1283 H1269 0.960 . S
C1283 H1270 0.961 . S
C1283 H1271 0.959 . S
C1283 C1281 1.561 . S
C1284 C1281 1.526 . S
C1284 C1285 1.396 . S
C1284 C1289 1.390 . S
C1285 C1279 1.465 . S
C1285 C1284 1.396 . S
C1285 C1286 1.399 . S
C1286 H1272 0.929 . S
C1286 C1285 1.399 . S
C1286 C1287 1.385 . S
C1287 H1273 0.931 . S
C1287 C1286 1.385 . S
C1287 C1288 1.389 . S
C1288 C1287 1.389 . S
C1288 C1289 1.387 . S
C1289 H1274 0.930 . S
C1289 C1284 1.390 . S
C1289 C1288 1.387 . S
H1290 C1302 0.930 . S
H1291 C1304 0.930 . S
H1292 C1305 0.930 . S
H1293 C1309 0.959 . S
H1294 C1309 0.959 . S
H1295 C1309 0.961 . S
H1296 C1310 0.960 . S
H1297 C1310 0.961 . S
H1298 C1310 0.959 . S
H1299 C1313 0.929 . S
H1300 C1314 0.931 . S
H1301 C1316 0.930 . S
C1302 H1290 0.930 . S
C1302 C1303 1.399 . S
C1302 C1307 1.399 . S
C1303 C1302 1.399 . S
C1303 C1304 1.376 . S
C1304 H1291 0.930 . S
C1304 C1303 1.376 . S
C1304 C1305 1.388 . S
C1305 H1292 0.930 . S
C1305 C1304 1.388 . S
C1305 C1306 1.390 . S
C1306 C1305 1.390 . S
C1306 C1307 1.394 . S
C1306 C1312 1.465 . S
C1307 C1302 1.399 . S
C1307 C1306 1.394 . S
C1307 C1308 1.516 . S
C1308 C1307 1.516 . S
C1308 C1309 1.502 . S
C1308 C1310 1.561 . S
C1308 C1311 1.526 . S
C1309 H1293 0.959 . S
C1309 H1294 0.959 . S
C1309 H1295 0.961 . S
C1309 C1308 1.502 . S
C1310 H1296 0.960 . S
C1310 H1297 0.961 . S
C1310 H1298 0.959 . S
C1310 C1308 1.561 . S
C1311 C1308 1.526 . S
C1311 C1312 1.396 . S
C1311 C1316 1.390 . S
C1312 C1306 1.465 . S
C1312 C1311 1.396 . S
C1312 C1313 1.399 . S
C1313 H1299 0.929 . S
C1313 C1312 1.399 . S
C1313 C1314 1.385 . S
C1314 H1300 0.931 . S
C1314 C1313 1.385 . S
C1314 C1315 1.389 . S
C1315 C1314 1.389 . S
C1315 C1316 1.387 . S
C1316 H1301 0.930 . S
C1316 C1311 1.390 . S
C1316 C1315 1.387 . S
H1317 C1329 0.930 . S
H1318 C1331 0.930 . S
H1319 C1332 0.930 . S
H1320 C1336 0.959 . S
H1321 C1336 0.959 . S
H1322 C1336 0.961 . S
H1323 C1337 0.960 . S
H1324 C1337 0.961 . S
H1325 C1337 0.959 . S
H1326 C1340 0.929 . S
H1327 C1341 0.931 . S
H1328 C1343 0.930 . S
C1329 H1317 0.930 . S
C1329 C1330 1.399 . S
C1329 C1334 1.399 . S
C1330 C1329 1.399 . S
C1330 C1331 1.376 . S
C1331 H1318 0.930 . S
C1331 C1330 1.376 . S
C1331 C1332 1.388 . S
C1332 H1319 0.930 . S
C1332 C1331 1.388 . S
C1332 C1333 1.390 . S
C1333 C1332 1.390 . S
C1333 C1334 1.394 . S
C1333 C1339 1.465 . S
C1334 C1329 1.399 . S
C1334 C1333 1.394 . S
C1334 C1335 1.516 . S
C1335 C1334 1.516 . S
C1335 C1336 1.502 . S
C1335 C1337 1.561 . S
C1335 C1338 1.526 . S
C1336 H1320 0.959 . S
C1336 H1321 0.959 . S
C1336 H1322 0.961 . S
C1336 C1335 1.502 . S
C1337 H1323 0.960 . S
C1337 H1324 0.961 . S
C1337 H1325 0.959 . S
C1337 C1335 1.561 . S
C1338 C1335 1.526 . S
C1338 C1339 1.396 . S
C1338 C1343 1.390 . S
C1339 C1333 1.465 . S
C1339 C1338 1.396 . S
C1339 C1340 1.399 . S
C1340 H1326 0.929 . S
C1340 C1339 1.399 . S
C1340 C1341 1.385 . S
C1341 H1327 0.931 . S
C1341 C1340 1.385 . S
C1341 C1342 1.389 . S
C1342 C1341 1.389 . S
C1342 C1343 1.387 . S
C1343 H1328 0.930 . S
C1343 C1338 1.390 . S
C1343 C1342 1.387 . S
H1344 C1356 0.930 . S
H1345 C1358 0.930 . S
H1346 C1359 0.930 . S
H1347 C1363 0.959 . S
H1348 C1363 0.959 . S
H1349 C1363 0.961 . S
H1350 C1364 0.960 . S
H1351 C1364 0.961 . S
H1352 C1364 0.959 . S
H1353 C1367 0.929 . S
H1354 C1368 0.931 . S
H1355 C1370 0.930 . S
C1356 H1344 0.930 . S
C1356 C1357 1.399 . S
C1356 C1361 1.399 . S
C1357 C1356 1.399 . S
C1357 C1358 1.376 . S
C1358 H1345 0.930 . S
C1358 C1357 1.376 . S
C1358 C1359 1.388 . S
C1359 H1346 0.930 . S
C1359 C1358 1.388 . S
C1359 C1360 1.390 . S
C1360 C1359 1.390 . S
C1360 C1361 1.394 . S
C1360 C1366 1.465 . S
C1361 C1356 1.399 . S
C1361 C1360 1.394 . S
C1361 C1362 1.516 . S
C1362 C1361 1.516 . S
C1362 C1363 1.502 . S
C1362 C1364 1.561 . S
C1362 C1365 1.526 . S
C1363 H1347 0.959 . S
C1363 H1348 0.959 . S
C1363 H1349 0.961 . S
C1363 C1362 1.502 . S
C1364 H1350 0.960 . S
C1364 H1351 0.961 . S
C1364 H1352 0.959 . S
C1364 C1362 1.561 . S
C1365 C1362 1.526 . S
C1365 C1366 1.396 . S
C1365 C1370 1.390 . S
C1366 C1360 1.465 . S
C1366 C1365 1.396 . S
C1366 C1367 1.399 . S
C1367 H1353 0.929 . S
C1367 C1366 1.399 . S
C1367 C1368 1.385 . S
C1368 H1354 0.931 . S
C1368 C1367 1.385 . S
C1368 C1369 1.389 . S
C1369 C1368 1.389 . S
C1369 C1370 1.387 . S
C1370 H1355 0.930 . S
C1370 C1365 1.390 . S
C1370 C1369 1.387 . S
H1371 C1383 0.930 . S
H1372 C1385 0.930 . S
H1373 C1386 0.930 . S
H1374 C1390 0.959 . S
H1375 C1390 0.959 . S
H1376 C1390 0.961 . S
H1377 C1391 0.960 . S
H1378 C1391 0.961 . S
H1379 C1391 0.959 . S
H1380 C1394 0.929 . S
H1381 C1395 0.931 . S
H1382 C1397 0.930 . S
C1383 H1371 0.930 . S
C1383 C1384 1.399 . S
C1383 C1388 1.399 . S
C1384 C1383 1.399 . S
C1384 C1385 1.376 . S
C1385 H1372 0.930 . S
C1385 C1384 1.376 . S
C1385 C1386 1.388 . S
C1386 H1373 0.930 . S
C1386 C1385 1.388 . S
C1386 C1387 1.390 . S
C1387 C1386 1.390 . S
C1387 C1388 1.394 . S
C1387 C1393 1.465 . S
C1388 C1383 1.399 . S
C1388 C1387 1.394 . S
C1388 C1389 1.516 . S
C1389 C1388 1.516 . S
C1389 C1390 1.502 . S
C1389 C1391 1.561 . S
C1389 C1392 1.526 . S
C1390 H1374 0.959 . S
C1390 H1375 0.959 . S
C1390 H1376 0.961 . S
C1390 C1389 1.502 . S
C1391 H1377 0.960 . S
C1391 H1378 0.961 . S
C1391 H1379 0.959 . S
C1391 C1389 1.561 . S
C1392 C1389 1.526 . S
C1392 C1393 1.396 . S
C1392 C1397 1.390 . S
C1393 C1387 1.465 . S
C1393 C1392 1.396 . S
C1393 C1394 1.399 . S
C1394 H1380 0.929 . S
C1394 C1393 1.399 . S
C1394 C1395 1.385 . S
C1395 H1381 0.931 . S
C1395 C1394 1.385 . S
C1395 C1396 1.389 . S
C1396 C1395 1.389 . S
C1396 C1397 1.387 . S
C1397 H1382 0.930 . S
C1397 C1392 1.390 . S
C1397 C1396 1.387 . S
H1398 C1410 0.930 . S
H1399 C1412 0.930 . S
H1400 C1413 0.930 . S
H1401 C1417 0.959 . S
H1402 C1417 0.959 . S
H1403 C1417 0.961 . S
H1404 C1418 0.960 . S
H1405 C1418 0.961 . S
H1406 C1418 0.959 . S
H1407 C1421 0.929 . S
H1408 C1422 0.931 . S
H1409 C1424 0.930 . S
C1410 H1398 0.930 . S
C1410 C1411 1.399 . S
C1410 C1415 1.399 . S
C1411 C1410 1.399 . S
C1411 C1412 1.376 . S
C1412 H1399 0.930 . S
C1412 C1411 1.376 . S
C1412 C1413 1.388 . S
C1413 H1400 0.930 . S
C1413 C1412 1.388 . S
C1413 C1414 1.390 . S
C1414 C1413 1.390 . S
C1414 C1415 1.394 . S
C1414 C1420 1.465 . S
C1415 C1410 1.399 . S
C1415 C1414 1.394 . S
C1415 C1416 1.516 . S
C1416 C1415 1.516 . S
C1416 C1417 1.502 . S
C1416 C1418 1.561 . S
C1416 C1419 1.526 . S
C1417 H1401 0.959 . S
C1417 H1402 0.959 . S
C1417 H1403 0.961 . S
C1417 C1416 1.502 . S
C1418 H1404 0.960 . S
C1418 H1405 0.961 . S
C1418 H1406 0.959 . S
C1418 C1416 1.561 . S
C1419 C1416 1.526 . S
C1419 C1420 1.396 . S
C1419 C1424 1.390 . S
C1420 C1414 1.465 . S
C1420 C1419 1.396 . S
C1420 C1421 1.399 . S
C1421 H1407 0.929 . S
C1421 C1420 1.399 . S
C1421 C1422 1.385 . S
C1422 H1408 0.931 . S
C1422 C1421 1.385 . S
C1422 C1423 1.389 . S
C1423 C1422 1.389 . S
C1423 C1424 1.387 . S
C1424 H1409 0.930 . S
C1424 C1419 1.390 . S
C1424 C1423 1.387 . S
H1425 C1437 0.930 . S
H1426 C1439 0.930 . S
H1427 C1440 0.930 . S
H1428 C1444 0.959 . S
H1429 C1444 0.959 . S
H1430 C1444 0.961 . S
H1431 C1445 0.960 . S
H1432 C1445 0.961 . S
H1433 C1445 0.959 . S
H1434 C1448 0.929 . S
H1435 C1449 0.931 . S
H1436 C1451 0.930 . S
C1437 H1425 0.930 . S
C1437 C1438 1.399 . S
C1437 C1442 1.399 . S
C1438 C1437 1.399 . S
C1438 C1439 1.376 . S
C1439 H1426 0.930 . S
C1439 C1438 1.376 . S
C1439 C1440 1.388 . S
C1440 H1427 0.930 . S
C1440 C1439 1.388 . S
C1440 C1441 1.390 . S
C1441 C1440 1.390 . S
C1441 C1442 1.394 . S
C1441 C1447 1.465 . S
C1442 C1437 1.399 . S
C1442 C1441 1.394 . S
C1442 C1443 1.516 . S
C1443 C1442 1.516 . S
C1443 C1444 1.502 . S
C1443 C1445 1.561 . S
C1443 C1446 1.526 . S
C1444 H1428 0.959 . S
C1444 H1429 0.959 . S
C1444 H1430 0.961 . S
C1444 C1443 1.502 . S
C1445 H1431 0.960 . S
C1445 H1432 0.961 . S
C1445 H1433 0.959 . S
C1445 C1443 1.561 . S
C1446 C1443 1.526 . S
C1446 C1447 1.396 . S
C1446 C1451 1.390 . S
C1447 C1441 1.465 . S
C1447 C1446 1.396 . S
C1447 C1448 1.399 . S
C1448 H1434 0.929 . S
C1448 C1447 1.399 . S
C1448 C1449 1.385 . S
C1449 H1435 0.931 . S
C1449 C1448 1.385 . S
C1449 C1450 1.389 . S
C1450 C1449 1.389 . S
C1450 C1451 1.387 . S
C1451 H1436 0.930 . S
C1451 C1446 1.390 . S
C1451 C1450 1.387 . S
H1452 C1464 0.930 . S
H1453 C1466 0.930 . S
H1454 C1467 0.930 . S
H1455 C1471 0.959 . S
H1456 C1471 0.959 . S
H1457 C1471 0.961 . S
H1458 C1472 0.960 . S
H1459 C1472 0.961 . S
H1460 C1472 0.959 . S
H1461 C1475 0.929 . S
H1462 C1476 0.931 . S
H1463 C1478 0.930 . S
C1464 H1452 0.930 . S
C1464 C1465 1.399 . S
C1464 C1469 1.399 . S
C1465 C1464 1.399 . S
C1465 C1466 1.376 . S
C1466 H1453 0.930 . S
C1466 C1465 1.376 . S
C1466 C1467 1.388 . S
C1467 H1454 0.930 . S
C1467 C1466 1.388 . S
C1467 C1468 1.390 . S
C1468 C1467 1.390 . S
C1468 C1469 1.394 . S
C1468 C1474 1.465 . S
C1469 C1464 1.399 . S
C1469 C1468 1.394 . S
C1469 C1470 1.516 . S
C1470 C1469 1.516 . S
C1470 C1471 1.502 . S
C1470 C1472 1.561 . S
C1470 C1473 1.526 . S
C1471 H1455 0.959 . S
C1471 H1456 0.959 . S
C1471 H1457 0.961 . S
C1471 C1470 1.502 . S
C1472 H1458 0.960 . S
C1472 H1459 0.961 . S
C1472 H1460 0.959 . S
C1472 C1470 1.561 . S
C1473 C1470 1.526 . S
C1473 C1474 1.396 . S
C1473 C1478 1.390 . S
C1474 C1468 1.465 . S
C1474 C1473 1.396 . S
C1474 C1475 1.399 . S
C1475 H1461 0.929 . S
C1475 C1474 1.399 . S
C1475 C1476 1.385 . S
C1476 H1462 0.931 . S
C1476 C1475 1.385 . S
C1476 C1477 1.389 . S
C1477 C1476 1.389 . S
C1477 C1478 1.387 . S
C1478 H1463 0.930 . S
C1478 C1473 1.390 . S
C1478 C1477 1.387 . S
H1479 C1491 0.930 . S
H1480 C1493 0.930 . S
H1481 C1494 0.930 . S
H1482 C1498 0.959 . S
H1483 C1498 0.959 . S
H1484 C1498 0.961 . S
H1485 C1499 0.960 . S
H1486 C1499 0.961 . S
H1487 C1499 0.959 . S
H1488 C1502 0.929 . S
H1489 C1503 0.931 . S
H1490 C1505 0.899 1_556 S
C1491 H1479 0.930 . S
C1491 C1492 1.399 1_556 S
C1491 C1496 1.387 1_556 S
C1492 C1491 1.399 1_554 S
C1492 C1493 1.376 . S
C1493 H1480 0.930 . S
C1493 C1492 1.376 . S
C1493 C1494 1.388 . S
C1494 H1481 0.930 . S
C1494 C1493 1.388 . S
C1494 C1495 1.390 . S
C1495 C1494 1.390 . S
C1495 C1496 1.424 . S
C1495 C1501 1.465 . S
C1496 C1491 1.387 1_554 S
C1496 C1495 1.424 . S
C1496 C1497 1.503 1_554 S
C1497 C1496 1.503 1_556 S
C1497 C1498 1.502 . S
C1497 C1499 1.561 . S
C1497 C1500 1.526 1_556 S
C1498 H1482 0.959 . S
C1498 H1483 0.959 . S
C1498 H1484 0.961 . S
C1498 C1497 1.502 . S
C1499 H1485 0.960 . S
C1499 H1486 0.961 . S
C1499 H1487 0.959 . S
C1499 C1497 1.561 . S
C1500 C1497 1.526 1_554 S
C1500 C1501 1.396 . S
C1500 C1505 1.388 . S
C1501 C1495 1.465 . S
C1501 C1500 1.396 . S
C1501 C1502 1.399 . S
C1502 H1488 0.929 . S
C1502 C1501 1.399 . S
C1502 C1503 1.385 . S
C1503 H1489 0.931 . S
C1503 C1502 1.385 . S
C1503 C1504 1.389 . S
C1504 C1503 1.389 . S
C1504 C1505 1.420 . S
C1505 H1490 0.899 1_554 S
C1505 C1500 1.388 . S
C1505 C1504 1.420 . S
H1506 C1518 0.930 . S
H1507 C1520 0.930 . S
H1508 C1521 0.930 . S
H1509 C1525 0.959 . S
H1510 C1525 0.959 . S
H1511 C1525 0.961 . S
H1512 C1526 0.960 . S
H1513 C1526 0.961 . S
H1514 C1526 0.959 . S
H1515 C1529 0.929 . S
H1516 C1530 0.931 . S
H1517 C1532 0.930 . S
C1518 H1506 0.930 . S
C1518 C1519 1.399 . S
C1518 C1523 1.399 . S
C1519 C1518 1.399 . S
C1519 C1520 1.376 . S
C1520 H1507 0.930 . S
C1520 C1519 1.376 . S
C1520 C1521 1.388 . S
C1521 H1508 0.930 . S
C1521 C1520 1.388 . S
C1521 C1522 1.390 . S
C1522 C1521 1.390 . S
C1522 C1523 1.394 . S
C1522 C1528 1.465 . S
C1523 C1518 1.399 . S
C1523 C1522 1.394 . S
C1523 C1524 1.516 . S
C1524 C1523 1.516 . S
C1524 C1525 1.502 . S
C1524 C1526 1.561 . S
C1524 C1527 1.526 . S
C1525 H1509 0.959 . S
C1525 H1510 0.959 . S
C1525 H1511 0.961 . S
C1525 C1524 1.502 . S
C1526 H1512 0.960 . S
C1526 H1513 0.961 . S
C1526 H1514 0.959 . S
C1526 C1524 1.561 . S
C1527 C1524 1.526 . S
C1527 C1528 1.396 . S
C1527 C1532 1.390 . S
C1528 C1522 1.465 . S
C1528 C1527 1.396 . S
C1528 C1529 1.399 . S
C1529 H1515 0.929 . S
C1529 C1528 1.399 . S
C1529 C1530 1.385 . S
C1530 H1516 0.931 . S
C1530 C1529 1.385 . S
C1530 C1531 1.389 . S
C1531 C1530 1.389 . S
C1531 C1532 1.387 . S
C1532 H1517 0.930 . S
C1532 C1527 1.390 . S
C1532 C1531 1.387 . S
H1533 C1545 0.930 . S
H1534 C1547 0.930 . S
H1535 C1548 0.930 . S
H1536 C1552 0.959 . S
H1537 C1552 0.959 . S
H1538 C1552 0.961 . S
H1539 C1553 0.960 . S
H1540 C1553 0.961 . S
H1541 C1553 0.959 . S
H1542 C1556 0.929 . S
H1543 C1557 0.931 . S
H1544 C1559 0.930 . S
C1545 H1533 0.930 . S
C1545 C1546 1.399 . S
C1545 C1550 1.399 . S
C1546 C1545 1.399 . S
C1546 C1547 1.376 . S
C1547 H1534 0.930 . S
C1547 C1546 1.376 . S
C1547 C1548 1.388 . S
C1548 H1535 0.930 . S
C1548 C1547 1.388 . S
C1548 C1549 1.390 . S
C1549 C1548 1.390 . S
C1549 C1550 1.394 . S
C1549 C1555 1.465 . S
C1550 C1545 1.399 . S
C1550 C1549 1.394 . S
C1550 C1551 1.516 . S
C1551 C1550 1.516 . S
C1551 C1552 1.502 . S
C1551 C1553 1.561 . S
C1551 C1554 1.526 . S
C1552 H1536 0.959 . S
C1552 H1537 0.959 . S
C1552 H1538 0.961 . S
C1552 C1551 1.502 . S
C1553 H1539 0.960 . S
C1553 H1540 0.961 . S
C1553 H1541 0.959 . S
C1553 C1551 1.561 . S
C1554 C1551 1.526 . S
C1554 C1555 1.396 . S
C1554 C1559 1.390 . S
C1555 C1549 1.465 . S
C1555 C1554 1.396 . S
C1555 C1556 1.399 . S
C1556 H1542 0.929 . S
C1556 C1555 1.399 . S
C1556 C1557 1.385 . S
C1557 H1543 0.931 . S
C1557 C1556 1.385 . S
C1557 C1558 1.389 . S
C1558 C1557 1.389 . S
C1558 C1559 1.387 . S
C1559 H1544 0.930 . S
C1559 C1554 1.390 . S
C1559 C1558 1.387 . S
H1560 C1572 0.930 . S
H1561 C1574 0.930 . S
H1562 C1575 0.930 . S
H1563 C1579 0.959 . S
H1564 C1579 0.959 . S
H1565 C1579 0.961 . S
H1566 C1580 0.960 . S
H1567 C1580 0.961 . S
H1568 C1580 0.959 . S
H1569 C1583 0.929 . S
H1570 C1584 0.931 . S
H1571 C1586 0.930 . S
C1572 H1560 0.930 . S
C1572 C1573 1.399 . S
C1572 C1577 1.399 . S
C1573 C1572 1.399 . S
C1573 C1574 1.376 . S
C1574 H1561 0.930 . S
C1574 C1573 1.376 . S
C1574 C1575 1.388 . S
C1575 H1562 0.930 . S
C1575 C1574 1.388 . S
C1575 C1576 1.390 . S
C1576 C1575 1.390 . S
C1576 C1577 1.394 . S
C1576 C1582 1.465 . S
C1577 C1572 1.399 . S
C1577 C1576 1.394 . S
C1577 C1578 1.516 . S
C1578 C1577 1.516 . S
C1578 C1579 1.502 . S
C1578 C1580 1.561 . S
C1578 C1581 1.526 . S
C1579 H1563 0.959 . S
C1579 H1564 0.959 . S
C1579 H1565 0.961 . S
C1579 C1578 1.502 . S
C1580 H1566 0.960 . S
C1580 H1567 0.961 . S
C1580 H1568 0.959 . S
C1580 C1578 1.561 . S
C1581 C1578 1.526 . S
C1581 C1582 1.396 . S
C1581 C1586 1.390 . S
C1582 C1576 1.465 . S
C1582 C1581 1.396 . S
C1582 C1583 1.399 . S
C1583 H1569 0.929 . S
C1583 C1582 1.399 . S
C1583 C1584 1.385 . S
C1584 H1570 0.931 . S
C1584 C1583 1.385 . S
C1584 C1585 1.389 . S
C1585 C1584 1.389 . S
C1585 C1586 1.387 . S
C1586 H1571 0.930 . S
C1586 C1581 1.390 . S
C1586 C1585 1.387 . S
H1587 C1599 0.930 . S
H1588 C1601 0.930 . S
H1589 C1602 0.930 . S
H1590 C1606 0.959 . S
H1591 C1606 0.959 . S
H1592 C1606 0.961 . S
H1593 C1607 0.960 . S
H1594 C1607 0.961 . S
H1595 C1607 0.959 . S
H1596 C1610 0.929 . S
H1597 C1611 0.931 . S
H1598 C1613 0.930 . S
C1599 H1587 0.930 . S
C1599 C1600 1.399 . S
C1599 C1604 1.399 . S
C1600 C1599 1.399 . S
C1600 C1601 1.376 . S
C1601 H1588 0.930 . S
C1601 C1600 1.376 . S
C1601 C1602 1.388 . S
C1602 H1589 0.930 . S
C1602 C1601 1.388 . S
C1602 C1603 1.390 . S
C1603 C1602 1.390 . S
C1603 C1604 1.394 . S
C1603 C1609 1.465 . S
C1604 C1599 1.399 . S
C1604 C1603 1.394 . S
C1604 C1605 1.516 . S
C1605 C1604 1.516 . S
C1605 C1606 1.502 . S
C1605 C1607 1.561 . S
C1605 C1608 1.526 . S
C1606 H1590 0.959 . S
C1606 H1591 0.959 . S
C1606 H1592 0.961 . S
C1606 C1605 1.502 . S
C1607 H1593 0.960 . S
C1607 H1594 0.961 . S
C1607 H1595 0.959 . S
C1607 C1605 1.561 . S
C1608 C1605 1.526 . S
C1608 C1609 1.396 . S
C1608 C1613 1.390 . S
C1609 C1603 1.465 . S
C1609 C1608 1.396 . S
C1609 C1610 1.399 . S
C1610 H1596 0.929 . S
C1610 C1609 1.399 . S
C1610 C1611 1.385 . S
C1611 H1597 0.931 . S
C1611 C1610 1.385 . S
C1611 C1612 1.389 . S
C1612 C1611 1.389 . S
C1612 C1613 1.387 . S
C1613 H1598 0.930 . S
C1613 C1608 1.390 . S
C1613 C1612 1.387 . S
H1614 C1626 0.930 . S
H1615 C1628 0.930 . S
H1616 C1629 0.930 . S
H1617 C1633 0.959 . S
H1618 C1633 0.959 . S
H1619 C1633 0.961 . S
H1620 C1634 0.960 . S
H1621 C1634 0.961 . S
H1622 C1634 0.959 . S
H1623 C1637 0.929 . S
H1624 C1638 0.931 . S
H1625 C1640 0.930 . S
C1626 H1614 0.930 . S
C1626 C1627 1.399 . S
C1626 C1631 1.399 . S
C1627 C1626 1.399 . S
C1627 C1628 1.376 1_556 S
C1628 H1615 0.930 . S
C1628 C1627 1.376 1_554 S
C1628 C1629 1.388 . S
C1629 H1616 0.930 . S
C1629 C1628 1.388 . S
C1629 C1630 1.390 1_554 S
C1630 C1629 1.390 1_556 S
C1630 C1631 1.394 . S
C1630 C1636 1.465 . S
C1631 C1626 1.399 . S
C1631 C1630 1.394 . S
C1631 C1632 1.516 . S
C1632 C1631 1.516 . S
C1632 C1633 1.502 . S
C1632 C1634 1.561 . S
C1632 C1635 1.526 . S
C1633 H1617 0.959 . S
C1633 H1618 0.959 . S
C1633 H1619 0.961 . S
C1633 C1632 1.502 . S
C1634 H1620 0.960 . S
C1634 H1621 0.961 . S
C1634 H1622 0.959 . S
C1634 C1632 1.561 . S
C1635 C1632 1.526 . S
C1635 C1636 1.396 . S
C1635 C1640 1.390 . S
C1636 C1630 1.465 . S
C1636 C1635 1.396 . S
C1636 C1637 1.399 1_556 S
C1637 H1623 0.929 . S
C1637 C1636 1.399 1_554 S
C1637 C1638 1.385 . S
C1638 H1624 0.931 . S
C1638 C1637 1.385 . S
C1638 C1639 1.389 1_554 S
C1639 C1638 1.389 1_556 S
C1639 C1640 1.387 . S
C1640 H1625 0.930 . S
C1640 C1635 1.390 . S
C1640 C1639 1.387 . S
H1641 C1653 0.930 . S
H1642 C1655 0.930 . S
H1643 C1656 0.930 . S
H1644 C1660 0.959 . S
H1645 C1660 0.959 . S
H1646 C1660 0.961 . S
H1647 C1661 0.960 . S
H1648 C1661 0.961 . S
H1649 C1661 0.959 . S
H1650 C1664 0.929 . S
H1651 C1665 0.931 . S
H1652 C1667 0.930 . S
C1653 H1641 0.930 . S
C1653 C1654 1.399 . S
C1653 C1658 1.399 . S
C1654 C1653 1.399 . S
C1654 C1655 1.376 . S
C1655 H1642 0.930 . S
C1655 C1654 1.376 . S
C1655 C1656 1.388 . S
C1656 H1643 0.930 . S
C1656 C1655 1.388 . S
C1656 C1657 1.390 . S
C1657 C1656 1.390 . S
C1657 C1658 1.394 . S
C1657 C1663 1.465 . S
C1658 C1653 1.399 . S
C1658 C1657 1.394 . S
C1658 C1659 1.516 . S
C1659 C1658 1.516 . S
C1659 C1660 1.502 . S
C1659 C1661 1.561 . S
C1659 C1662 1.526 . S
C1660 H1644 0.959 . S
C1660 H1645 0.959 . S
C1660 H1646 0.961 . S
C1660 C1659 1.502 . S
C1661 H1647 0.960 . S
C1661 H1648 0.961 . S
C1661 H1649 0.959 . S
C1661 C1659 1.561 . S
C1662 C1659 1.526 . S
C1662 C1663 1.396 . S
C1662 C1667 1.390 . S
C1663 C1657 1.465 . S
C1663 C1662 1.396 . S
C1663 C1664 1.399 . S
C1664 H1650 0.929 . S
C1664 C1663 1.399 . S
C1664 C1665 1.385 . S
C1665 H1651 0.931 . S
C1665 C1664 1.385 . S
C1665 C1666 1.389 . S
C1666 C1665 1.389 . S
C1666 C1667 1.387 . S
C1667 H1652 0.930 . S
C1667 C1662 1.390 . S
C1667 C1666 1.387 . S
H1668 C1680 0.930 . S
H1669 C1682 0.930 . S
H1670 C1683 0.930 . S
H1671 C1687 0.959 . S
H1672 C1687 0.959 . S
H1673 C1687 0.961 . S
H1674 C1688 0.960 . S
H1675 C1688 0.961 . S
H1676 C1688 0.959 . S
H1677 C1691 0.929 . S
H1678 C1692 0.931 . S
H1679 C1694 0.930 . S
C1680 H1668 0.930 . S
C1680 C1681 1.399 . S
C1680 C1685 1.399 . S
C1681 C1680 1.399 . S
C1681 C1682 1.376 . S
C1682 H1669 0.930 . S
C1682 C1681 1.376 . S
C1682 C1683 1.388 . S
C1683 H1670 0.930 . S
C1683 C1682 1.388 . S
C1683 C1684 1.390 . S
C1684 C1683 1.390 . S
C1684 C1685 1.394 . S
C1684 C1690 1.465 . S
C1685 C1680 1.399 . S
C1685 C1684 1.394 . S
C1685 C1686 1.516 . S
C1686 C1685 1.516 . S
C1686 C1687 1.502 . S
C1686 C1688 1.561 . S
C1686 C1689 1.526 . S
C1687 H1671 0.959 . S
C1687 H1672 0.959 . S
C1687 H1673 0.961 . S
C1687 C1686 1.502 . S
C1688 H1674 0.960 . S
C1688 H1675 0.961 . S
C1688 H1676 0.959 . S
C1688 C1686 1.561 . S
C1689 C1686 1.526 . S
C1689 C1690 1.396 . S
C1689 C1694 1.390 . S
C1690 C1684 1.465 . S
C1690 C1689 1.396 . S
C1690 C1691 1.399 . S
C1691 H1677 0.929 . S
C1691 C1690 1.399 . S
C1691 C1692 1.385 . S
C1692 H1678 0.931 . S
C1692 C1691 1.385 . S
C1692 C1693 1.389 . S
C1693 C1692 1.389 . S
C1693 C1694 1.387 . S
C1694 H1679 0.930 . S
C1694 C1689 1.390 . S
C1694 C1693 1.387 . S
H1695 C1707 0.930 . S
H1696 C1709 0.930 . S
H1697 C1710 0.930 . S
H1698 C1714 0.959 . S
H1699 C1714 0.959 . S
H1700 C1714 0.961 . S
H1701 C1715 0.960 . S
H1702 C1715 0.961 . S
H1703 C1715 0.959 . S
H1704 C1718 0.929 . S
H1705 C1719 0.931 . S
H1706 C1721 0.930 . S
C1707 H1695 0.930 . S
C1707 C1708 1.399 . S
C1707 C1712 1.399 . S
C1708 C1707 1.399 . S
C1708 C1709 1.376 . S
C1709 H1696 0.930 . S
C1709 C1708 1.376 . S
C1709 C1710 1.388 . S
C1710 H1697 0.930 . S
C1710 C1709 1.388 . S
C1710 C1711 1.390 . S
C1711 C1710 1.390 . S
C1711 C1712 1.394 . S
C1711 C1717 1.465 . S
C1712 C1707 1.399 . S
C1712 C1711 1.394 . S
C1712 C1713 1.516 . S
C1713 C1712 1.516 . S
C1713 C1714 1.502 . S
C1713 C1715 1.561 . S
C1713 C1716 1.526 . S
C1714 H1698 0.959 . S
C1714 H1699 0.959 . S
C1714 H1700 0.961 . S
C1714 C1713 1.502 . S
C1715 H1701 0.960 . S
C1715 H1702 0.961 . S
C1715 H1703 0.959 . S
C1715 C1713 1.561 . S
C1716 C1713 1.526 . S
C1716 C1717 1.396 . S
C1716 C1721 1.390 . S
C1717 C1711 1.465 . S
C1717 C1716 1.396 . S
C1717 C1718 1.399 . S
C1718 H1704 0.929 . S
C1718 C1717 1.399 . S
C1718 C1719 1.385 . S
C1719 H1705 0.931 . S
C1719 C1718 1.385 . S
C1719 C1720 1.389 . S
C1720 C1719 1.389 . S
C1720 C1721 1.387 . S
C1721 H1706 0.930 . S
C1721 C1716 1.390 . S
C1721 C1720 1.387 . S
H1722 C1734 0.930 . S
H1723 C1736 0.930 . S
H1724 C1737 0.930 . S
H1725 C1741 0.959 . S
H1726 C1741 0.959 . S
H1727 C1741 0.961 . S
H1728 C1742 0.960 . S
H1729 C1742 0.961 . S
H1730 C1742 0.959 . S
H1731 C1745 0.929 . S
H1732 C1746 0.931 . S
H1733 C1748 0.930 . S
C1734 H1722 0.930 . S
C1734 C1735 1.399 . S
C1734 C1739 1.399 . S
C1735 C1734 1.399 . S
C1735 C1736 1.376 . S
C1736 H1723 0.930 . S
C1736 C1735 1.376 . S
C1736 C1737 1.388 . S
C1737 H1724 0.930 . S
C1737 C1736 1.388 . S
C1737 C1738 1.390 . S
C1738 C1737 1.390 . S
C1738 C1739 1.394 . S
C1738 C1744 1.465 . S
C1739 C1734 1.399 . S
C1739 C1738 1.394 . S
C1739 C1740 1.516 . S
C1740 C1739 1.516 . S
C1740 C1741 1.502 . S
C1740 C1742 1.561 . S
C1740 C1743 1.526 . S
C1741 H1725 0.959 . S
C1741 H1726 0.959 . S
C1741 H1727 0.961 . S
C1741 C1740 1.502 . S
C1742 H1728 0.960 . S
C1742 H1729 0.961 . S
C1742 H1730 0.959 . S
C1742 C1740 1.561 . S
C1743 C1740 1.526 . S
C1743 C1744 1.396 . S
C1743 C1748 1.390 . S
C1744 C1738 1.465 . S
C1744 C1743 1.396 . S
C1744 C1745 1.399 . S
C1745 H1731 0.929 . S
C1745 C1744 1.399 . S
C1745 C1746 1.385 . S
C1746 H1732 0.931 . S
C1746 C1745 1.385 . S
C1746 C1747 1.389 . S
C1747 C1746 1.389 . S
C1747 C1748 1.387 . S
C1748 H1733 0.930 . S
C1748 C1743 1.390 . S
C1748 C1747 1.387 . S
H1749 C1761 0.930 . S
H1750 C1763 0.930 . S
H1751 C1764 0.930 . S
H1752 C1768 0.959 . S
H1753 C1768 0.959 . S
H1754 C1768 0.961 . S
H1755 C1769 0.960 . S
H1756 C1769 0.961 . S
H1757 C1769 0.959 . S
H1758 C1772 0.929 . S
H1759 C1773 0.931 . S
H1760 C1775 0.930 . S
C1761 H1749 0.930 . S
C1761 C1762 1.399 . S
C1761 C1766 1.399 . S
C1762 C1761 1.399 . S
C1762 C1763 1.376 . S
C1763 H1750 0.930 . S
C1763 C1762 1.376 . S
C1763 C1764 1.388 . S
C1764 H1751 0.930 . S
C1764 C1763 1.388 . S
C1764 C1765 1.390 . S
C1765 C1764 1.390 . S
C1765 C1766 1.394 . S
C1765 C1771 1.465 . S
C1766 C1761 1.399 . S
C1766 C1765 1.394 . S
C1766 C1767 1.516 . S
C1767 C1766 1.516 . S
C1767 C1768 1.502 . S
C1767 C1769 1.561 . S
C1767 C1770 1.526 . S
C1768 H1752 0.959 . S
C1768 H1753 0.959 . S
C1768 H1754 0.961 . S
C1768 C1767 1.502 . S
C1769 H1755 0.960 . S
C1769 H1756 0.961 . S
C1769 H1757 0.959 . S
C1769 C1767 1.561 . S
C1770 C1767 1.526 . S
C1770 C1771 1.396 . S
C1770 C1775 1.390 . S
C1771 C1765 1.465 . S
C1771 C1770 1.396 . S
C1771 C1772 1.399 . S
C1772 H1758 0.929 . S
C1772 C1771 1.399 . S
C1772 C1773 1.385 . S
C1773 H1759 0.931 . S
C1773 C1772 1.385 . S
C1773 C1774 1.389 . S
C1774 C1773 1.389 . S
C1774 C1775 1.387 . S
C1775 H1760 0.930 . S
C1775 C1770 1.390 . S
C1775 C1774 1.387 . S
C493 C1 1.100 . S
C505 C46 1.118 . S
C520 C61 0.534 . S
C532 N44 0.656 . S
C547 N104 0.299 . S
C559 N66 0.186 . S
C574 N6 0.639 . S
C586 C106 0.592 . S
C601 N14 0.591 . S
C613 C297 0.685 . S
C628 C220 1.044 . S
C640 C57 1.101 . S
C655 C70 0.646 . S
C667 N306 0.602 . S
C682 N96 0.236 . S
C694 N404 0.305 . S
C709 C250 0.677 . S
C721 N36 0.566 . S
C736 N366 0.344 . S
C748 N74 0.283 . S
C763 N434 0.594 . S
C775 C117 0.689 . S
C790 C10 1.132 . S
C802 C357 1.118 . S
C817 C27 1.134 . S
C829 C256 1.131 . S
C844 C361 1.145 . S
C856 C130 1.158 . S
C871 C177 1.084 . S
C883 C436 1.114 . S
C898 C340 1.167 . S
C910 C181 1.117 . S
C925 C87 1.083 . S
C937 C226 1.127 . S
C952 C280 1.141 . S
C964 C121 1.170 . S
C979 C190 1.163 . S
C991 C301 1.177 . S
C1006 C160 0.632 . S
C1018 N336 0.607 . S
C1033 N276 0.345 . S
C1045 N164 0.172 . S
C1060 C346 1.093 . S
C1072 C211 1.050 . S
C1087 C151 0.705 . S
C1099 N134 0.561 . S
C1114 N284 0.169 . S
C1126 N246 0.264 . S
C1141 C391 0.552 . S
C1153 N344 0.666 . S
C1168 N194 0.376 . S
C1180 N156 0.206 . S
C1195 C286 0.680 . S
C1207 N426 0.592 . S
C1222 C417 1.086 . S
C1234 C16 1.130 . S
C1249 C76 1.103 . S
C1261 C447 1.116 . S
C1276 C370 1.173 . S
C1288 C31 1.184 . S
C1303 C237 1.111 . S
C1315 C166 1.075 . S
C1330 C91 1.180 . S
C1342 C310 1.173 . S
C1357 N374 0.380 . S
C1369 N396 0.186 . S
C1384 N216 0.637 . S
C1396 C376 0.668 . S
C1411 C207 0.626 . S
C1423 N224 0.629 . S
C1438 N126 0.554 . S
C1450 C400 0.702 . S
C1465 C387 0.615 . S
C1477 N464 0.635 . S
C1492 C466 1.124 . S
C1504 C267 1.136 . S
C1519 C40 1.174 . S
C1531 C271 1.172 . S
C1546 N254 0.182 . S
C1558 N186 0.359 . S
C1573 C241 0.648 . S
C1585 N314 0.567 . S
C1600 N456 0.633 . S
C1612 C196 0.596 . S
C1627 C406 1.074 . S
C1639 C477 1.111 . S
C1654 C331 1.189 . S
C1666 C100 1.193 . S
C1681 C316 1.088 . S
C1693 C421 1.043 . S
C1708 C327 1.082 . S
C1720 C460 1.091 . S
C1735 C147 1.130 . S
C1747 C430 1.107 . S
C1762 C451 1.093 . S
C1774 C136 1.118 . S
