# Generated by pormake.
# Topology sma, (6)-cn, num edge types: 1
# Building blocks:
#     Node 0, Type 0, BuildingBlock: VOLQOD_clean_sbu_1, # of connection points: 6
#     Node 1, Type 0, BuildingBlock: VOLQOD_clean_sbu_1, # of connection points: 6
#     Node 2, Type 0, BuildingBlock: VOLQOD_clean_sbu_1, # of connection points: 6
#     Edge 3, Type (0, 0), BuildingBlock: ZUJKAS_clean_linker_0, # of connection points: 2
#     Edge 4, Type (0, 0), BuildingBlock: ZUJKAS_clean_linker_0, # of connection points: 2
#     Edge 5, Type (0, 0), BuildingBlock: ZUJKAS_clean_linker_0, # of connection points: 2
#     Edge 6, Type (0, 0), BuildingBlock: ZUJKAS_clean_linker_0, # of connection points: 2
#     Edge 7, Type (0, 0), BuildingBlock: ZUJKAS_clean_linker_0, # of connection points: 2
#     Edge 8, Type (0, 0), BuildingBlock: ZUJKAS_clean_linker_0, # of connection points: 2
#     Edge 9, Type (0, 0), BuildingBlock: ZUJKAS_clean_linker_0, # of connection points: 2
#     Edge 10, Type (0, 0), BuildingBlock: ZUJKAS_clean_linker_0, # of connection points: 2
#     Edge 11, Type (0, 0), BuildingBlock: ZUJKAS_clean_linker_0, # of connection points: 2
# Relax obj value: 0.285
# Max RMSD: 0.234
# Mean RMSD: 0.234
data_MOF--net-sma--node1-VOLQOD_clean_sbu_1--edge1-ZUJKAS_clean_linker_0
_symmetry_space_group_name_H-M    P1
_symmetry_Int_Tables_number       1
_symmetry_cell_setting            triclinic
loop_
_symmetry_equiv_pos_as_xyz
'x, y, z'
_cell_length_a     38.795115
_cell_length_b     38.792407
_cell_length_c     20.689975
_cell_angle_alpha  90.436851
_cell_angle_beta   89.691546
_cell_angle_gamma 120.04508
loop_
_atom_site_label
_atom_site_type_symbol
_atom_site_fract_x
_atom_site_fract_y
_atom_site_fract_z
_atom_type_partial_charge
O0 O 0.04659 0.56982 0.02023 0.0
Zn1 Zn 0.02837 0.57414 0.10897 0.0
O2 O 0.00516 0.52322 0.15181 0.0
Zn3 Zn 0.03717 0.52624 0.22403 0.0
Zn4 Zn 0.00171 0.48269 0.09434 0.0
Zn5 Zn 0.95289 0.50904 0.18254 0.0
O6 O 0.0024 0.50253 0.30146 0.0
O7 O 0.95439 0.51606 0.27845 0.0
O8 O 0.0712 0.61794 0.16336 0.0
O9 O 0.07387 0.58338 0.24636 0.0
O10 O 0.07118 0.50148 0.20468 0.0
O11 O 0.04483 0.47043 0.11208 0.0
O12 O 0.94931 0.43185 0.10336 0.0
O13 O 0.98651 0.58856 0.09088 0.0
O14 O 0.91505 0.45118 0.16519 0.0
O15 O 0.93239 0.54139 0.13934 0.0
C16 C 0.03212 0.53928 0.98337 0.0
C17 C 0.97317 0.50685 0.31864 0.0
C18 C 0.07019 0.47994 0.15717 0.0
C19 C 0.08491 0.61644 0.21848 0.0
C20 C 0.91767 0.42421 0.13382 0.0
C21 C 0.94966 0.57245 0.10445 0.0
O22 O 0.01081 0.50406 0.00503 0.0
O23 O 0.48203 0.0487 0.35424 0.0
Zn24 Zn 0.47359 0.03824 0.44906 0.0
O25 O 0.5105 0.02268 0.47989 0.0
Zn26 Zn 0.55368 0.06706 0.52376 0.0
Zn27 Zn 0.53064 0.00704 0.40751 0.0
Zn28 Zn 0.48326 0.97854 0.537 0.0
O29 O 0.56208 0.05062 0.6108 0.0
O30 O 0.50247 0.99695 0.62657 0.0
O31 O 0.47932 0.08579 0.49811 0.0
O32 O 0.53794 0.10766 0.5453 0.0
O33 O 0.60362 0.0925 0.46945 0.0
O34 O 0.58614 0.04999 0.38717 0.0
O35 O 0.53194 0.95654 0.42443 0.0
O36 O 0.41765 0.99315 0.4595 0.0
O37 O 0.49647 0.93636 0.51513 0.0
O38 O 0.42389 0.95345 0.5292 0.0
C39 C 0.48672 0.02678 0.3131 0.0
C40 C 0.53597 0.02428 0.64781 0.0
C41 C 0.61146 0.08196 0.41537 0.0
C42 C 0.50733 0.1107 0.53434 0.0
C43 C 0.516 0.93151 0.46995 0.0
C44 C 0.40233 0.9619 0.49401 0.0
O45 O 0.49855 0.00279 0.32951 0.0
O46 O 0.46242 0.49064 0.70492 0.0
Zn47 Zn 0.46324 0.48322 0.80036 0.0
O48 O 0.51317 0.52436 0.83373 0.0
Zn49 Zn 0.5058 0.56533 0.87283 0.0
Zn50 Zn 0.5496 0.54514 0.76245 0.0
Zn51 Zn 0.53318 0.50235 0.89516 0.0
O52 O 0.5279 0.57686 0.96224 0.0
O53 O 0.52935 0.52128 0.98333 0.0
O54 O 0.41742 0.48428 0.8436 0.0
O55 O 0.44748 0.54483 0.88722 0.0
O56 O 0.52911 0.6145 0.81732 0.0
O57 O 0.55594 0.59755 0.73661 0.0
O58 O 0.60393 0.55346 0.78434 0.0
O59 O 0.4587 0.43015 0.81431 0.0
O60 O 0.59087 0.52304 0.87914 0.0
O61 O 0.50565 0.44261 0.8867 0.0
C62 C 0.49041 0.49695 0.66579 0.0
C63 C 0.53116 0.55361 0.0017 0.0
C64 C 0.54718 0.62186 0.76314 0.0
C65 C 0.41608 0.51171 0.87574 0.0
C66 C 0.61516 0.5426 0.83409 0.0
C67 C 0.4772 0.41836 0.85042 0.0
O68 O 0.52592 0.5099 0.68535 0.0
H69 H 0.06715 0.4189 0.08698 0.0
H70 H 0.12381 0.41273 0.05066 0.0
H71 H 0.20244 0.51471 0.16722 0.0
H72 H 0.14572 0.5202 0.20535 0.0
H73 H 0.17968 0.47027 0.97952 0.0
H74 H 0.2519 0.44618 0.19052 0.0
H75 H 0.20188 0.43816 0.19395 0.0
H76 H 0.2441 0.48757 0.20276 0.0
C77 C 0.09635 0.43915 0.10657 0.0
C78 C 0.10213 0.47024 0.14855 0.0
C79 C 0.12868 0.4356 0.08576 0.0
C80 C 0.16736 0.46322 0.10621 0.0
C81 C 0.17281 0.49254 0.1518 0.0
H82 H 0.40378 0.55962 0.95882 0.0
H83 H 0.34197 0.54447 0.01386 0.0
C84 C 0.14035 0.49576 0.17339 0.0
C85 C 0.20205 0.4654 0.07219 0.0
H86 H 0.29274 0.4732 0.09524 0.0
C87 C 0.20406 0.47015 0.00475 0.0
C88 C 0.23396 0.46559 0.1052 0.0
C89 C 0.23271 0.4587 0.17703 0.0
C90 C 0.23768 0.47646 0.9697 0.0
C91 C 0.26999 0.47782 0.00296 0.0
C92 C 0.2678 0.47225 0.07012 0.0
C93 C 0.30698 0.48661 0.96897 0.0
C94 C 0.2391 0.48312 0.89772 0.0
C95 C 0.30745 0.45908 0.92524 0.0
C96 C 0.34269 0.46762 0.89347 0.0
C97 C 0.378 0.50387 0.90504 0.0
C98 C 0.37713 0.53153 0.94844 0.0
C99 C 0.34194 0.52287 0.98031 0.0
H100 H 0.21443 0.48759 0.88112 0.0
H101 H 0.26789 0.50948 0.88375 0.0
H102 H 0.23672 0.45681 0.87201 0.0
H103 H 0.28067 0.43083 0.91628 0.0
H104 H 0.34236 0.44559 0.86061 0.0
H105 H 0.63554 0.07126 0.29615 0.0
H106 H 0.69219 0.12014 0.23315 0.0
H107 H 0.72813 0.20321 0.39257 0.0
H108 H 0.67174 0.15453 0.45629 0.0
H109 H 0.70098 0.1933 0.2004 0.0
H110 H 0.83353 0.21309 0.33227 0.0
H111 H 0.78458 0.17014 0.3433 0.0
H112 H 0.79806 0.21622 0.38442 0.0
C113 C 0.65593 0.09961 0.31847 0.0
C114 C 0.64895 0.10908 0.38124 0.0
C115 C 0.68828 0.12747 0.28228 0.0
C116 C 0.71445 0.16508 0.3084 0.0
C117 C 0.70865 0.17402 0.37198 0.0
H118 H 0.84199 0.3981 0.17635 0.0
H119 H 0.79204 0.33007 0.20412 0.0
C120 C 0.67625 0.14623 0.40821 0.0
C121 C 0.74502 0.19659 0.26717 0.0
H122 H 0.84347 0.26707 0.26295 0.0
C123 C 0.73229 0.20896 0.21323 0.0
C124 C 0.78584 0.21654 0.28347 0.0
C125 C 0.80141 0.20307 0.33866 0.0
C126 C 0.75899 0.24254 0.17777 0.0
C127 C 0.79921 0.26435 0.19728 0.0
C128 C 0.81247 0.25039 0.24842 0.0
C129 C 0.82695 0.30403 0.17062 0.0
C130 C 0.74371 0.25512 0.12099 0.0
C131 C 0.86293 0.31181 0.14186 0.0
C132 C 0.89163 0.35078 0.12576 0.0
C133 C 0.88495 0.38257 0.13933 0.0
C134 C 0.84808 0.37431 0.16541 0.0
C135 C 0.81937 0.3354 0.18095 0.0
H136 H 0.71656 0.22949 0.10009 0.0
H137 H 0.73578 0.27757 0.13741 0.0
H138 H 0.76671 0.26871 0.08257 0.0
H139 H 0.86934 0.28793 0.13398 0.0
H140 H 0.9198 0.35618 0.10598 0.0
H141 H 0.46103 0.85391 0.48631 0.0
H142 H 0.47377 0.80139 0.52253 0.0
H143 H 0.60033 0.88301 0.50975 0.0
H144 H 0.58745 0.93479 0.46928 0.0
H145 H 0.58443 0.80912 0.48464 0.0
H146 H 0.50551 0.80945 0.70784 0.0
H147 H 0.47348 0.79577 0.63888 0.0
H148 H 0.5167 0.84488 0.64405 0.0
C149 C 0.49148 0.86005 0.48918 0.0
C150 C 0.52332 0.89812 0.47552 0.0
C151 C 0.49877 0.8303 0.5105 0.0
C152 C 0.53799 0.83885 0.52127 0.0
C153 C 0.56984 0.87595 0.50246 0.0
H154 H 0.56811 0.69532 0.81165 0.0
H155 H 0.57474 0.7525 0.75159 0.0
C156 C 0.56251 0.90541 0.47919 0.0
C157 C 0.54551 0.81063 0.55784 0.0
H158 H 0.52 0.75695 0.69698 0.0
C159 C 0.57064 0.79788 0.53132 0.0
C160 C 0.52871 0.79715 0.61987 0.0
C161 C 0.50501 0.81289 0.65463 0.0
C162 C 0.57819 0.77078 0.56416 0.0
C163 C 0.55878 0.75491 0.62386 0.0
C164 C 0.53468 0.76873 0.65105 0.0
C165 C 0.56131 0.72281 0.65824 0.0
C166 C 0.60736 0.76013 0.53484 0.0
C167 C 0.55244 0.6874 0.62578 0.0
C168 C 0.54993 0.65531 0.65976 0.0
C169 C 0.55479 0.65752 0.72715 0.0
C170 C 0.56416 0.69298 0.75969 0.0
C171 C 0.56793 0.72555 0.72537 0.0
H172 H 0.63018 0.78506 0.50544 0.0
H173 H 0.62277 0.75256 0.57244 0.0
H174 H 0.59119 0.73412 0.50207 0.0
H175 H 0.54571 0.68382 0.57464 0.0
H176 H 0.54206 0.628 0.63375 0.0
H177 H 0.64548 0.51179 0.91892 0.0
H178 H 0.71521 0.53599 0.94333 0.0
H179 H 0.7509 0.62479 0.79472 0.0
H180 H 0.68045 0.60064 0.76941 0.0
H181 H 0.78832 0.56046 0.82488 0.0
H182 H 0.79136 0.66732 0.00883 0.0
H183 H 0.74543 0.62078 -0.0005 0.0
H184 H 0.76303 0.65611 0.93479 0.0
C185 C 0.668 0.53622 0.89081 0.0
C186 C 0.65745 0.55453 0.84257 0.0
C187 C 0.7078 0.54993 0.90481 0.0
C188 C 0.73784 0.58222 0.87108 0.0
C189 C 0.72784 0.59981 0.82114 0.0
H190 H 0.9715 0.62501 0.00414 0.0
H191 H 0.92776 0.63985 0.93981 0.0
C192 C 0.68772 0.58592 0.80675 0.0
C193 C 0.77927 0.59788 0.89175 0.0
H194 H 0.83825 0.64519 0.02165 0.0
C195 C 0.80029 0.58023 0.86632 0.0
C196 C 0.79426 0.62344 0.94597 0.0
C197 C 0.77259 0.64332 0.97394 0.0
C198 C 0.83436 0.58478 0.89745 0.0
C199 C 0.84733 0.60753 0.95512 0.0
C200 C 0.82815 0.62784 0.97735 0.0
C201 C 0.87563 0.60444 -0.00146 0.0
C202 C 0.85413 0.56237 0.87197 0.0
C203 C 0.86091 0.58086 0.05401 0.0
C204 C 0.8856 0.57219 0.09072 0.0
C205 C 0.92554 0.58718 0.07268 0.0
C206 C 0.94085 0.61297 0.01935 0.0
C207 C 0.91596 0.62142 0.98236 0.0
H208 H 0.83904 0.54437 0.82827 0.0
H209 H 0.88559 0.58376 0.85944 0.0
H210 H 0.85416 0.54223 0.9098 0.0
H211 H 0.82975 0.56755 0.06711 0.0
H212 H 0.87297 0.55246 0.13167 0.0
H213 H 0.35762 0.89372 0.56326 0.0
H214 H 0.29452 0.83637 0.5295 0.0
H215 H 0.28882 0.90325 0.36852 0.0
H216 H 0.35134 0.96101 0.40247 0.0
H217 H 0.2127 0.8475 0.42205 0.0
H218 H 0.30797 0.78124 0.36762 0.0
H219 H 0.30901 0.79615 0.45029 0.0
H220 H 0.32847 0.83316 0.38788 0.0
C221 C 0.3424 0.89665 0.52176 0.0
C222 C 0.35998 0.9316 0.48464 0.0
C223 C 0.30641 0.86383 0.50249 0.0
C224 C 0.28777 0.86539 0.44558 0.0
C225 C 0.30302 0.90145 0.41231 0.0
H226 H 0.11489 0.69352 0.17782 0.0
H227 H 0.16151 0.75455 0.23575 0.0
C228 C 0.33883 0.93443 0.43182 0.0
C229 C 0.25606 0.82844 0.41572 0.0
H230 H 0.23956 0.74151 0.34605 0.0
C231 C 0.21839 0.82418 0.40562 0.0
C232 C 0.26397 0.79847 0.39355 0.0
C233 C 0.30461 0.80246 0.39973 0.0
C234 C 0.18804 0.79019 0.37474 0.0
C235 C 0.19601 0.76025 0.35294 0.0
C236 C 0.23364 0.76456 0.36316 0.0
C237 C 0.1659 0.72389 0.31947 0.0
C238 C 0.14764 0.78628 0.36634 0.0
C239 C 0.15367 0.68663 0.34698 0.0
C240 C 0.1275 0.65185 0.31396 0.0
C241 C 0.11315 0.65364 0.25247 0.0
C242 C 0.1254 0.69111 0.22503 0.0
C243 C 0.15168 0.72599 0.25828 0.0
H244 H 0.14374 0.80729 0.39814 0.0
H245 H 0.14426 0.79292 0.31546 0.0
H246 H 0.1236 0.75544 0.37691 0.0
H247 H 0.16464 0.68448 0.39397 0.0
H248 H 0.11864 0.62355 0.33672 0.0
H249 H 0.51912 0.38566 0.90218 0.0
H250 H 0.51892 0.32595 0.86311 0.0
H251 H 0.42026 0.2994 0.73755 0.0
H252 H 0.41983 0.3587 0.77648 0.0
H253 H 0.42162 0.22992 0.79519 0.0
H254 H 0.56156 0.3402 0.67195 0.0
H255 H 0.55983 0.34541 0.75814 0.0
H256 H 0.52737 0.35377 0.70735 0.0
C257 C 0.49654 0.36651 0.86778 0.0
C258 C 0.47009 0.37746 0.84129 0.0
C259 C 0.49656 0.33246 0.84544 0.0
C260 C 0.47015 0.30898 0.79656 0.0
C261 C 0.44103 0.31743 0.77504 0.0
H262 H 0.44645 0.12711 0.52538 0.0
H263 H 0.43668 0.17418 0.59135 0.0
C264 C 0.44094 0.35143 0.79728 0.0
C265 C 0.47648 0.27948 0.76114 0.0
H266 H 0.53955 0.27258 0.65324 0.0
C267 C 0.44745 0.23906 0.7644 0.0
C268 C 0.51011 0.2918 0.72069 0.0
C269 C 0.54144 0.33515 0.71365 0.0
C270 C 0.45145 0.21037 0.72853 0.0
C271 C 0.48487 0.22281 0.68747 0.0
C272 C 0.51397 0.26323 0.68473 0.0
C273 C 0.49061 0.19451 0.64702 0.0
C274 C 0.42024 0.16705 0.7356 0.0
C275 C 0.52495 0.19164 0.65474 0.0
C276 C 0.53095 0.16535 0.61657 0.0
C277 C 0.50268 0.14137 0.56981 0.0
C278 C 0.46874 0.14505 0.56106 0.0
C279 C 0.46286 0.17157 0.59919 0.0
H280 H 0.40279 0.16162 0.7809 0.0
H281 H 0.39924 0.15795 0.69435 0.0
H282 H 0.43399 0.1479 0.73537 0.0
H283 H 0.5469 0.20941 0.691 0.0
H284 H 0.55739 0.16326 0.62481 0.0
H285 H 0.02921 0.4878 0.89132 0.0
H286 H 0.01556 0.48928 0.77661 0.0
H287 H 0.02218 0.60288 0.80364 0.0
H288 H 0.0371 0.60218 0.91809 0.0
H289 H 0.94717 0.48969 0.74031 0.0
H290 H 0.08258 0.61818 0.63459 0.0
H291 H 0.08342 0.59655 0.7111 0.0
H292 H 0.06258 0.62862 0.70579 0.0
C293 C 0.02904 0.51366 0.87227 0.0
C294 C 0.03407 0.5448 0.91323 0.0
C295 C 0.02107 0.51439 0.80704 0.0
C296 C 0.01769 0.54608 0.78212 0.0
C297 C 0.02523 0.57846 0.82198 0.0
H298 H 0.94653 0.55067 0.38218 0.0
H299 H 0.94738 0.56057 0.49956 0.0
C300 C 0.03382 0.57803 0.88721 0.0
C301 C 0.00227 0.54282 0.7163 0.0
H302 H 0.02797 0.58192 0.56525 0.0
C303 C 0.96464 0.51008 0.70209 0.0
C304 C 0.02496 0.56991 0.66718 0.0
C305 C 0.06575 0.60517 0.68001 0.0
C306 C 0.95006 0.5024 0.6389 0.0
C307 C 0.97365 0.52825 0.58941 0.0
C308 C 0.01004 0.56242 0.60406 0.0
C309 C 0.96475 0.51697 0.52131 0.0
C310 C 0.91046 0.46586 0.62472 0.0
C311 C 0.97331 0.48852 0.49589 0.0
C312 C 0.97351 0.4833 0.4294 0.0
C313 C 0.96473 0.50621 0.38777 0.0
C314 C 0.95315 0.5325 0.41355 0.0
C315 C 0.95368 0.53826 0.48024 0.0
H316 H 0.89215 0.45382 0.66914 0.0
H317 H 0.89354 0.47269 0.58887 0.0
H318 H 0.91561 0.44241 0.60362 0.0
H319 H 0.98226 0.47219 0.52734 0.0
H320 H 0.98237 0.46277 0.41046 0.0
H321 H 0.50481 0.0957 0.25212 0.0
H322 H 0.51294 0.1072 0.13507 0.0
H323 H 0.46956 0.98213 0.10282 0.0
H324 H 0.46228 0.97058 0.21927 0.0
H325 H 0.56543 0.07693 0.06708 0.0
H326 H 0.41489 0.02317 0.96382 0.0
H327 H 0.42851 0.04373 0.04459 0.0
H328 H 0.41785 0.99383 0.02827 0.0
C329 C 0.4959 0.07055 0.21978 0.0
C330 C 0.4832 0.03231 0.24414 0.0
C331 C 0.50065 0.0772 0.15331 0.0
C332 C 0.49168 0.04544 0.11111 0.0
C333 C 0.47624 0.00681 0.13514 0.0
H334 H 0.50089 0.96729 0.73957 0.0
H335 H 0.49646 0.97865 0.85477 0.0
C336 C 0.47224 0.00029 0.20137 0.0
C337 C 0.50356 0.05259 0.0431 0.0
H338 H 0.46472 0.02626 0.89208 0.0
C339 C 0.54376 0.06684 0.02829 0.0
C340 C 0.4749 0.03907 -0.00636 0.0
C341 C 0.43158 0.02432 0.00802 0.0
C342 C 0.5557 0.06512 0.96495 0.0
C343 C 0.52659 0.04945 0.91587 0.0
C344 C 0.48681 0.03775 0.93029 0.0
C345 C 0.53582 0.04247 0.84978 0.0
C346 C 0.59869 0.07765 0.95176 0.0
C347 C 0.56096 0.07444 0.81004 0.0
C348 C 0.56409 0.06792 0.74445 0.0
C349 C 0.54142 0.02948 0.71797 0.0
C350 C 0.51848 -0.0028 0.75885 0.0
C351 C 0.5158 0.00367 0.8244 0.0
H352 H 0.61557 0.08152 -0.00297 0.0
H353 H 0.60086 0.05539 0.92059 0.0
H354 H 0.61312 0.10649 0.92587 0.0
H355 H 0.57621 0.10462 0.82877 0.0
H356 H 0.5817 0.09338 0.7138 0.0
H357 H 0.43621 0.51029 0.60487 0.0
H358 H 0.43776 0.52736 0.49088 0.0
H359 H 0.5322 0.50133 0.45618 0.0
H360 H 0.53158 0.48532 0.57018 0.0
H361 H 0.55075 0.57886 0.42297 0.0
H362 H 0.40497 0.46386 0.32044 0.0
H363 H 0.40368 0.48846 0.39369 0.0
H364 H 0.42439 0.4562 0.39472 0.0
C365 C 0.45637 0.50696 0.57242 0.0
C366 C 0.484 0.49679 0.59605 0.0
C367 C 0.45725 0.5168 0.50748 0.0
C368 C 0.48522 0.51574 0.46564 0.0
C369 C 0.51062 0.50255 0.48819 0.0
H370 H 0.56392 0.53065 0.09537 0.0
H371 H 0.5548 0.5331 0.21194 0.0
C372 C 0.51013 0.49326 0.55305 0.0
C373 C 0.49123 0.53204 0.40006 0.0
H374 H 0.45053 0.51274 0.24955 0.0
C375 C 0.52866 0.56478 0.38513 0.0
C376 C 0.46203 0.5139 0.3515 0.0
C377 C 0.42154 0.47851 0.36541 0.0
C378 C 0.53861 0.57825 0.32164 0.0
C379 C 0.51033 0.5585 0.27257 0.0
C380 C 0.47194 0.52771 0.288 0.0
C381 C 0.52194 0.56442 0.20436 0.0
C382 C 0.57981 0.61209 0.30668 0.0
C383 C 0.50729 0.58223 0.16254 0.0
C384 C 0.51293 0.58137 0.09605 0.0
C385 C 0.5324 0.56178 0.07112 0.0
C386 C 0.54871 0.54576 0.11356 0.0
C387 C 0.54366 0.54727 0.17989 0.0
H388 H 0.59491 0.62979 0.35063 0.0
H389 H 0.59805 0.59982 0.28653 0.0
H390 H 0.5785 0.63211 0.26989 0.0
H391 H 0.49016 0.59525 0.18111 0.0
H392 H 0.49983 0.59366 0.06412 0.0
loop_
_geom_bond_atom_site_label_1
_geom_bond_atom_site_label_2
_geom_bond_distance
_geom_bond_site_symmetry_2
_ccdc_geom_bond_type
O0 Zn1 1.953 . S
O0 C16 1.225 1_554 S
Zn1 O0 1.953 . S
Zn1 O2 1.949 . S
Zn1 O8 1.919 . S
Zn1 O13 1.924 1_455 S
O2 Zn1 1.949 . S
O2 Zn3 1.923 . S
O2 Zn4 1.950 . S
O2 Zn5 1.945 1_455 S
Zn3 O2 1.923 . S
Zn3 O6 1.933 . S
Zn3 O9 1.941 . S
Zn3 O10 1.965 . S
Zn4 O2 1.950 . S
Zn4 O11 1.938 . S
Zn4 O12 1.906 1_455 S
Zn4 O22 1.953 . S
Zn5 O2 1.945 1_655 S
Zn5 O7 1.932 . S
Zn5 O14 1.977 . S
Zn5 O15 1.910 . S
O6 Zn3 1.933 . S
O6 C17 1.226 . S
O7 Zn5 1.932 . S
O7 C17 1.307 1_655 S
O8 Zn1 1.919 . S
O8 C19 1.253 . S
O9 Zn3 1.941 . S
O9 C19 1.283 . S
O10 Zn3 1.965 . S
O10 C18 1.303 . S
O11 Zn4 1.938 . S
O11 C18 1.247 . S
O12 Zn4 1.906 1_655 S
O12 C20 1.304 . S
O13 Zn1 1.924 1_655 S
O13 C21 1.311 . S
O14 Zn5 1.977 . S
O14 C20 1.272 . S
O15 Zn5 1.910 . S
O15 C21 1.231 . S
C16 O0 1.225 1_556 S
C16 O22 1.298 1_556 S
C17 O6 1.226 . S
C17 O7 1.307 1_455 S
C18 O10 1.303 . S
C18 O11 1.247 . S
C19 O8 1.253 . S
C19 O9 1.283 . S
C20 O12 1.304 . S
C20 O14 1.272 . S
C21 O13 1.311 . S
C21 O15 1.231 . S
O22 Zn4 1.953 . S
O22 C16 1.298 1_554 S
O23 Zn24 1.953 . S
O23 C39 1.225 . S
Zn24 O23 1.953 . S
Zn24 O25 1.949 . S
Zn24 O31 1.919 . S
Zn24 O36 1.924 1_545 S
O25 Zn24 1.949 . S
O25 Zn26 1.923 . S
O25 Zn27 1.950 . S
O25 Zn28 1.945 1_545 S
Zn26 O25 1.923 . S
Zn26 O29 1.933 . S
Zn26 O32 1.941 . S
Zn26 O33 1.965 . S
Zn27 O25 1.950 . S
Zn27 O34 1.938 . S
Zn27 O35 1.906 1_545 S
Zn27 O45 1.953 . S
Zn28 O25 1.945 1_565 S
Zn28 O30 1.932 . S
Zn28 O37 1.977 . S
Zn28 O38 1.910 . S
O29 Zn26 1.933 . S
O29 C40 1.226 . S
O30 Zn28 1.932 . S
O30 C40 1.307 1_565 S
O31 Zn24 1.919 . S
O31 C42 1.253 . S
O32 Zn26 1.941 . S
O32 C42 1.283 . S
O33 Zn26 1.965 . S
O33 C41 1.303 . S
O34 Zn27 1.938 . S
O34 C41 1.247 . S
O35 Zn27 1.906 1_565 S
O35 C43 1.304 . S
O36 Zn24 1.924 1_565 S
O36 C44 1.311 . S
O37 Zn28 1.977 . S
O37 C43 1.272 . S
O38 Zn28 1.910 . S
O38 C44 1.231 . S
C39 O23 1.225 . S
C39 O45 1.298 . S
C40 O29 1.226 . S
C40 O30 1.307 1_545 S
C41 O33 1.303 . S
C41 O34 1.247 . S
C42 O31 1.253 . S
C42 O32 1.283 . S
C43 O35 1.304 . S
C43 O37 1.272 . S
C44 O36 1.311 . S
C44 O38 1.231 . S
O45 Zn27 1.953 . S
O45 C39 1.298 . S
O46 Zn47 1.953 . S
O46 C62 1.225 . S
Zn47 O46 1.953 . S
Zn47 O48 1.949 . S
Zn47 O54 1.919 . S
Zn47 O59 1.924 . S
O48 Zn47 1.949 . S
O48 Zn49 1.923 . S
O48 Zn50 1.950 . S
O48 Zn51 1.945 . S
Zn49 O48 1.923 . S
Zn49 O52 1.933 . S
Zn49 O55 1.941 . S
Zn49 O56 1.965 . S
Zn50 O48 1.950 . S
Zn50 O57 1.938 . S
Zn50 O58 1.906 . S
Zn50 O68 1.953 . S
Zn51 O48 1.945 . S
Zn51 O53 1.932 . S
Zn51 O60 1.977 . S
Zn51 O61 1.910 . S
O52 Zn49 1.933 . S
O52 C63 1.226 1_556 S
O53 Zn51 1.932 . S
O53 C63 1.307 1_556 S
O54 Zn47 1.919 . S
O54 C65 1.253 . S
O55 Zn49 1.941 . S
O55 C65 1.283 . S
O56 Zn49 1.965 . S
O56 C64 1.303 . S
O57 Zn50 1.938 . S
O57 C64 1.247 . S
O58 Zn50 1.906 . S
O58 C66 1.304 . S
O59 Zn47 1.924 . S
O59 C67 1.311 . S
O60 Zn51 1.977 . S
O60 C66 1.272 . S
O61 Zn51 1.910 . S
O61 C67 1.231 . S
C62 O46 1.225 . S
C62 O68 1.298 . S
C63 O52 1.226 1_554 S
C63 O53 1.307 1_554 S
C64 O56 1.303 . S
C64 O57 1.247 . S
C65 O54 1.253 . S
C65 O55 1.283 . S
C66 O58 1.304 . S
C66 O60 1.272 . S
C67 O59 1.311 . S
C67 O61 1.231 . S
O68 Zn50 1.953 . S
O68 C62 1.298 . S
H69 C77 0.929 . S
H70 C79 0.930 . S
H71 C81 0.930 . S
H72 C84 0.929 . S
H73 C87 0.930 . S
H74 C89 0.960 . S
H75 C89 0.960 . S
H76 C89 0.960 . S
C77 H69 0.929 . S
C77 C78 1.377 . S
C77 C79 1.384 . S
C78 C77 1.377 . S
C78 C84 1.390 . S
C79 H70 0.930 . S
C79 C77 1.384 . S
C79 C80 1.372 . S
C80 C79 1.372 . S
C80 C81 1.400 . S
C80 C85 1.490 . S
C81 H71 0.930 . S
C81 C80 1.400 . S
C81 C84 1.386 . S
H82 C98 0.930 . S
H83 C99 0.931 . S
C84 H72 0.929 . S
C84 C78 1.390 . S
C84 C81 1.386 . S
C85 C80 1.490 . S
C85 C87 1.395 1_554 S
C85 C88 1.403 . S
H86 C92 0.930 . S
C87 H73 0.930 . S
C87 C85 1.395 1_556 S
C87 C90 1.403 . S
C88 C85 1.403 . S
C88 C89 1.524 . S
C88 C92 1.400 . S
C89 H74 0.960 . S
C89 H75 0.960 . S
C89 H76 0.960 . S
C89 C88 1.524 . S
C90 C87 1.403 . S
C90 C91 1.392 . S
C90 C94 1.495 . S
C91 C90 1.392 . S
C91 C92 1.385 1_556 S
C91 C93 1.478 . S
C92 H86 0.930 . S
C92 C88 1.400 . S
C92 C91 1.385 1_554 S
C93 C91 1.478 . S
C93 C95 1.381 . S
C93 C99 1.383 . S
C94 C90 1.495 . S
C94 H100 0.959 . S
C94 H101 0.961 . S
C94 H102 0.960 . S
C95 C93 1.381 . S
C95 C96 1.394 . S
C95 H103 0.930 . S
C96 C95 1.394 . S
C96 C97 1.383 . S
C96 H104 0.929 . S
C97 C96 1.383 . S
C97 C98 1.377 . S
C98 H82 0.930 . S
C98 C97 1.377 . S
C98 C99 1.379 . S
C99 H83 0.931 . S
C99 C93 1.383 . S
C99 C98 1.379 . S
H100 C94 0.959 . S
H101 C94 0.961 . S
H102 C94 0.960 . S
H103 C95 0.930 . S
H104 C96 0.929 . S
H105 C113 0.929 . S
H106 C115 0.930 . S
H107 C117 0.930 . S
H108 C120 0.929 . S
H109 C123 0.930 . S
H110 C125 0.960 . S
H111 C125 0.960 . S
H112 C125 0.960 . S
C113 H105 0.929 . S
C113 C114 1.377 . S
C113 C115 1.384 . S
C114 C113 1.377 . S
C114 C120 1.390 . S
C115 H106 0.930 . S
C115 C113 1.384 . S
C115 C116 1.372 . S
C116 C115 1.372 . S
C116 C117 1.400 . S
C116 C121 1.490 . S
C117 H107 0.930 . S
C117 C116 1.400 . S
C117 C120 1.386 . S
H118 C134 0.930 . S
H119 C135 0.931 . S
C120 H108 0.929 . S
C120 C114 1.390 . S
C120 C117 1.386 . S
C121 C116 1.490 . S
C121 C123 1.395 . S
C121 C124 1.403 . S
H122 C128 0.930 . S
C123 H109 0.930 . S
C123 C121 1.395 . S
C123 C126 1.403 . S
C124 C121 1.403 . S
C124 C125 1.524 . S
C124 C128 1.400 . S
C125 H110 0.960 . S
C125 H111 0.960 . S
C125 H112 0.960 . S
C125 C124 1.524 . S
C126 C123 1.403 . S
C126 C127 1.392 . S
C126 C130 1.495 . S
C127 C126 1.392 . S
C127 C128 1.385 . S
C127 C129 1.478 . S
C128 H122 0.930 . S
C128 C124 1.400 . S
C128 C127 1.385 . S
C129 C127 1.478 . S
C129 C131 1.381 . S
C129 C135 1.383 . S
C130 C126 1.495 . S
C130 H136 0.959 . S
C130 H137 0.961 . S
C130 H138 0.960 . S
C131 C129 1.381 . S
C131 C132 1.394 . S
C131 H139 0.930 . S
C132 C131 1.394 . S
C132 C133 1.383 . S
C132 H140 0.929 . S
C133 C132 1.383 . S
C133 C134 1.377 . S
C134 H118 0.930 . S
C134 C133 1.377 . S
C134 C135 1.379 . S
C135 H119 0.931 . S
C135 C129 1.383 . S
C135 C134 1.379 . S
H136 C130 0.959 . S
H137 C130 0.961 . S
H138 C130 0.960 . S
H139 C131 0.930 . S
H140 C132 0.929 . S
H141 C149 0.929 . S
H142 C151 0.930 . S
H143 C153 0.930 . S
H144 C156 0.929 . S
H145 C159 0.930 . S
H146 C161 0.960 . S
H147 C161 0.960 . S
H148 C161 0.960 . S
C149 H141 0.929 . S
C149 C150 1.377 . S
C149 C151 1.384 . S
C150 C149 1.377 . S
C150 C156 1.390 . S
C151 H142 0.930 . S
C151 C149 1.384 . S
C151 C152 1.372 . S
C152 C151 1.372 . S
C152 C153 1.400 . S
C152 C157 1.490 . S
C153 H143 0.930 . S
C153 C152 1.400 . S
C153 C156 1.386 . S
H154 C170 0.930 . S
H155 C171 0.931 . S
C156 H144 0.929 . S
C156 C150 1.390 . S
C156 C153 1.386 . S
C157 C152 1.490 . S
C157 C159 1.395 . S
C157 C160 1.403 . S
H158 C164 0.930 . S
C159 H145 0.930 . S
C159 C157 1.395 . S
C159 C162 1.403 . S
C160 C157 1.403 . S
C160 C161 1.524 . S
C160 C164 1.400 . S
C161 H146 0.960 . S
C161 H147 0.960 . S
C161 H148 0.960 . S
C161 C160 1.524 . S
C162 C159 1.403 . S
C162 C163 1.392 . S
C162 C166 1.495 . S
C163 C162 1.392 . S
C163 C164 1.385 . S
C163 C165 1.478 . S
C164 H158 0.930 . S
C164 C160 1.400 . S
C164 C163 1.385 . S
C165 C163 1.478 . S
C165 C167 1.381 . S
C165 C171 1.383 . S
C166 C162 1.495 . S
C166 H172 0.959 . S
C166 H173 0.961 . S
C166 H174 0.960 . S
C167 C165 1.381 . S
C167 C168 1.394 . S
C167 H175 0.930 . S
C168 C167 1.394 . S
C168 C169 1.383 . S
C168 H176 0.929 . S
C169 C168 1.383 . S
C169 C170 1.377 . S
C170 H154 0.930 . S
C170 C169 1.377 . S
C170 C171 1.379 . S
C171 H155 0.931 . S
C171 C165 1.383 . S
C171 C170 1.379 . S
H172 C166 0.959 . S
H173 C166 0.961 . S
H174 C166 0.960 . S
H175 C167 0.930 . S
H176 C168 0.929 . S
H177 C185 0.929 . S
H178 C187 0.930 1_554 S
H179 C189 0.930 . S
H180 C192 0.929 . S
H181 C195 0.930 . S
H182 C197 0.960 . S
H183 C197 0.960 . S
H184 C197 0.960 . S
C185 H177 0.929 . S
C185 C186 1.377 . S
C185 C187 1.384 . S
C186 C185 1.377 . S
C186 C192 1.390 . S
C187 H178 0.930 1_556 S
C187 C185 1.384 . S
C187 C188 1.372 . S
C188 C187 1.372 . S
C188 C189 1.400 . S
C188 C193 1.490 . S
C189 H179 0.930 . S
C189 C188 1.400 . S
C189 C192 1.386 . S
H190 C206 0.930 . S
H191 C207 0.931 1_556 S
C192 H180 0.929 . S
C192 C186 1.390 . S
C192 C189 1.386 . S
C193 C188 1.490 . S
C193 C195 1.395 1_556 S
C193 C196 1.403 . S
H194 C200 0.930 . S
C195 H181 0.930 . S
C195 C193 1.395 1_554 S
C195 C198 1.403 . S
C196 C193 1.403 . S
C196 C197 1.524 . S
C196 C200 1.400 . S
C197 H182 0.960 . S
C197 H183 0.960 . S
C197 H184 0.960 . S
C197 C196 1.524 . S
C198 C195 1.403 . S
C198 C199 1.392 . S
C198 C202 1.495 . S
C199 C198 1.392 . S
C199 C200 1.385 1_554 S
C199 C201 1.478 . S
C200 H194 0.930 . S
C200 C196 1.400 . S
C200 C199 1.385 1_556 S
C201 C199 1.478 . S
C201 C203 1.381 . S
C201 C207 1.383 . S
C202 C198 1.495 . S
C202 H208 0.959 . S
C202 H209 0.961 . S
C202 H210 0.960 . S
C203 C201 1.381 . S
C203 C204 1.394 . S
C203 H211 0.930 . S
C204 C203 1.394 . S
C204 C205 1.383 . S
C204 H212 0.929 . S
C205 C204 1.383 . S
C205 C206 1.377 . S
C206 H190 0.930 . S
C206 C205 1.377 . S
C206 C207 1.379 . S
C207 H191 0.931 1_554 S
C207 C201 1.383 . S
C207 C206 1.379 . S
H208 C202 0.959 . S
H209 C202 0.961 . S
H210 C202 0.960 . S
H211 C203 0.930 . S
H212 C204 0.929 . S
H213 C221 0.929 . S
H214 C223 0.930 . S
H215 C225 0.930 . S
H216 C228 0.929 . S
H217 C231 0.930 . S
H218 C233 0.960 . S
H219 C233 0.960 . S
H220 C233 0.960 . S
C221 H213 0.929 . S
C221 C222 1.377 . S
C221 C223 1.384 . S
C222 C221 1.377 . S
C222 C228 1.390 . S
C223 H214 0.930 . S
C223 C221 1.384 . S
C223 C224 1.372 . S
C224 C223 1.372 . S
C224 C225 1.400 . S
C224 C229 1.490 . S
C225 H215 0.930 . S
C225 C224 1.400 . S
C225 C228 1.386 . S
H226 C242 0.930 . S
H227 C243 0.931 . S
C228 H216 0.929 . S
C228 C222 1.390 . S
C228 C225 1.386 . S
C229 C224 1.490 . S
C229 C231 1.395 . S
C229 C232 1.403 . S
H230 C236 0.930 . S
C231 H217 0.930 . S
C231 C229 1.395 . S
C231 C234 1.403 . S
C232 C229 1.403 . S
C232 C233 1.524 . S
C232 C236 1.400 . S
C233 H218 0.960 . S
C233 H219 0.960 . S
C233 H220 0.960 . S
C233 C232 1.524 . S
C234 C231 1.403 . S
C234 C235 1.392 . S
C234 C238 1.495 . S
C235 C234 1.392 . S
C235 C236 1.385 . S
C235 C237 1.478 . S
C236 H230 0.930 . S
C236 C232 1.400 . S
C236 C235 1.385 . S
C237 C235 1.478 . S
C237 C239 1.381 . S
C237 C243 1.383 . S
C238 C234 1.495 . S
C238 H244 0.959 . S
C238 H245 0.961 . S
C238 H246 0.960 . S
C239 C237 1.381 . S
C239 C240 1.394 . S
C239 H247 0.930 . S
C240 C239 1.394 . S
C240 C241 1.383 . S
C240 H248 0.929 . S
C241 C240 1.383 . S
C241 C242 1.377 . S
C242 H226 0.930 . S
C242 C241 1.377 . S
C242 C243 1.379 . S
C243 H227 0.931 . S
C243 C237 1.383 . S
C243 C242 1.379 . S
H244 C238 0.959 . S
H245 C238 0.961 . S
H246 C238 0.960 . S
H247 C239 0.930 . S
H248 C240 0.929 . S
H249 C257 0.929 . S
H250 C259 0.930 . S
H251 C261 0.930 . S
H252 C264 0.929 . S
H253 C267 0.930 . S
H254 C269 0.960 . S
H255 C269 0.960 . S
H256 C269 0.960 . S
C257 H249 0.929 . S
C257 C258 1.377 . S
C257 C259 1.384 . S
C258 C257 1.377 . S
C258 C264 1.390 . S
C259 H250 0.930 . S
C259 C257 1.384 . S
C259 C260 1.372 . S
C260 C259 1.372 . S
C260 C261 1.400 . S
C260 C265 1.490 . S
C261 H251 0.930 . S
C261 C260 1.400 . S
C261 C264 1.386 . S
H262 C278 0.930 . S
H263 C279 0.931 . S
C264 H252 0.929 . S
C264 C258 1.390 . S
C264 C261 1.386 . S
C265 C260 1.490 . S
C265 C267 1.395 . S
C265 C268 1.403 . S
H266 C272 0.930 . S
C267 H253 0.930 . S
C267 C265 1.395 . S
C267 C270 1.403 . S
C268 C265 1.403 . S
C268 C269 1.524 . S
C268 C272 1.400 . S
C269 H254 0.960 . S
C269 H255 0.960 . S
C269 H256 0.960 . S
C269 C268 1.524 . S
C270 C267 1.403 . S
C270 C271 1.392 . S
C270 C274 1.495 . S
C271 C270 1.392 . S
C271 C272 1.385 . S
C271 C273 1.478 . S
C272 H266 0.930 . S
C272 C268 1.400 . S
C272 C271 1.385 . S
C273 C271 1.478 . S
C273 C275 1.381 . S
C273 C279 1.383 . S
C274 C270 1.495 . S
C274 H280 0.959 . S
C274 H281 0.961 . S
C274 H282 0.960 . S
C275 C273 1.381 . S
C275 C276 1.394 . S
C275 H283 0.930 . S
C276 C275 1.394 . S
C276 C277 1.383 . S
C276 H284 0.929 . S
C277 C276 1.383 . S
C277 C278 1.377 . S
C278 H262 0.930 . S
C278 C277 1.377 . S
C278 C279 1.379 . S
C279 H263 0.931 . S
C279 C273 1.383 . S
C279 C278 1.379 . S
H280 C274 0.959 . S
H281 C274 0.961 . S
H282 C274 0.960 . S
H283 C275 0.930 . S
H284 C276 0.929 . S
H285 C293 0.929 . S
H286 C295 0.930 . S
H287 C297 0.930 . S
H288 C300 0.929 . S
H289 C303 0.930 . S
H290 C305 0.960 . S
H291 C305 0.960 . S
H292 C305 0.960 . S
C293 H285 0.929 . S
C293 C294 1.377 . S
C293 C295 1.384 . S
C294 C293 1.377 . S
C294 C300 1.390 . S
C295 H286 0.930 . S
C295 C293 1.384 . S
C295 C296 1.372 . S
C296 C295 1.372 . S
C296 C297 1.400 . S
C296 C301 1.490 . S
C297 H287 0.930 . S
C297 C296 1.400 . S
C297 C300 1.386 . S
H298 C314 0.930 1_655 S
H299 C315 0.924 1_655 S
C300 H288 0.929 . S
C300 C294 1.390 . S
C300 C297 1.386 . S
C301 C296 1.490 . S
C301 C303 1.395 1_455 S
C301 C304 1.403 . S
H302 C308 0.930 . S
C303 H289 0.930 . S
C303 C301 1.395 1_655 S
C303 C306 1.403 . S
C304 C301 1.403 . S
C304 C305 1.524 . S
C304 C308 1.400 . S
C305 H290 0.960 . S
C305 H291 0.960 . S
C305 H292 0.960 . S
C305 C304 1.524 . S
C306 C303 1.403 . S
C306 C307 1.392 1_655 S
C306 C310 1.495 . S
C307 C306 1.392 1_455 S
C307 C308 1.385 . S
C307 C309 1.478 . S
C308 H302 0.930 . S
C308 C304 1.400 . S
C308 C307 1.385 . S
C309 C307 1.478 . S
C309 C311 1.381 . S
C309 C315 1.389 . S
C310 C306 1.495 . S
C310 H316 0.959 . S
C310 H317 0.961 . S
C310 H318 0.960 . S
C311 C309 1.381 . S
C311 C312 1.394 . S
C311 H319 0.930 . S
C312 C311 1.394 . S
C312 C313 1.383 . S
C312 H320 0.929 . S
C313 C312 1.383 . S
C313 C314 1.377 . S
C314 H298 0.930 1_455 S
C314 C313 1.377 . S
C314 C315 1.380 . S
C315 H299 0.924 1_455 S
C315 C309 1.389 . S
C315 C314 1.380 . S
H316 C310 0.959 . S
H317 C310 0.961 . S
H318 C310 0.960 . S
H319 C311 0.930 . S
H320 C312 0.929 . S
H321 C329 0.929 . S
H322 C331 0.930 . S
H323 C333 0.930 . S
H324 C336 0.929 . S
H325 C339 0.930 . S
H326 C341 0.960 . S
H327 C341 0.960 1_545 S
H328 C341 0.960 . S
C329 H321 0.929 . S
C329 C330 1.377 . S
C329 C331 1.384 . S
C330 C329 1.377 . S
C330 C336 1.390 1_545 S
C331 H322 0.930 . S
C331 C329 1.384 . S
C331 C332 1.372 . S
C332 C331 1.372 . S
C332 C333 1.400 1_545 S
C332 C337 1.490 . S
C333 H323 0.930 . S
C333 C332 1.400 1_565 S
C333 C336 1.386 . S
H334 C350 0.930 . S
H335 C351 0.931 . S
C336 H324 0.929 . S
C336 C330 1.390 1_565 S
C336 C333 1.386 . S
C337 C332 1.490 . S
C337 C339 1.395 . S
C337 C340 1.403 . S
H338 C344 0.930 . S
C339 H325 0.930 . S
C339 C337 1.395 . S
C339 C342 1.403 1_554 S
C340 C337 1.403 . S
C340 C341 1.524 1_545 S
C340 C344 1.400 1_554 S
C341 H326 0.960 . S
C341 H327 0.960 1_565 S
C341 H328 0.960 . S
C341 C340 1.524 1_565 S
C342 C339 1.403 1_556 S
C342 C343 1.392 . S
C342 C346 1.495 . S
C343 C342 1.392 . S
C343 C344 1.385 . S
C343 C345 1.478 . S
C344 H338 0.930 . S
C344 C340 1.400 1_556 S
C344 C343 1.385 . S
C345 C343 1.478 . S
C345 C347 1.381 . S
C345 C351 1.383 1_545 S
C346 C342 1.495 . S
C346 H352 0.959 . S
C346 H353 0.961 . S
C346 H354 0.960 . S
C347 C345 1.381 . S
C347 C348 1.394 . S
C347 H355 0.930 . S
C348 C347 1.394 . S
C348 C349 1.383 . S
C348 H356 0.929 . S
C349 C348 1.383 . S
C349 C350 1.377 1_545 S
C350 H334 0.930 . S
C350 C349 1.377 1_565 S
C350 C351 1.379 . S
C351 H335 0.931 . S
C351 C345 1.383 1_565 S
C351 C350 1.379 . S
H352 C346 0.959 . S
H353 C346 0.961 . S
H354 C346 0.960 . S
H355 C347 0.930 . S
H356 C348 0.929 . S
H357 C365 0.929 . S
H358 C367 0.930 . S
H359 C369 0.930 . S
H360 C372 0.929 . S
H361 C375 0.930 . S
H362 C377 0.960 . S
H363 C377 0.960 . S
H364 C377 0.960 . S
C365 H357 0.929 . S
C365 C366 1.377 . S
C365 C367 1.384 . S
C366 C365 1.377 . S
C366 C372 1.390 . S
C367 H358 0.930 . S
C367 C365 1.384 . S
C367 C368 1.372 . S
C368 C367 1.372 . S
C368 C369 1.400 . S
C368 C373 1.490 . S
C369 H359 0.930 . S
C369 C368 1.400 . S
C369 C372 1.386 . S
H370 C386 0.930 . S
H371 C387 0.931 . S
C372 H360 0.929 . S
C372 C366 1.390 . S
C372 C369 1.386 . S
C373 C368 1.490 . S
C373 C375 1.395 . S
C373 C376 1.403 . S
H374 C380 0.930 . S
C375 H361 0.930 . S
C375 C373 1.395 . S
C375 C378 1.403 . S
C376 C373 1.403 . S
C376 C377 1.524 . S
C376 C380 1.400 . S
C377 H362 0.960 . S
C377 H363 0.960 . S
C377 H364 0.960 . S
C377 C376 1.524 . S
C378 C375 1.403 . S
C378 C379 1.392 . S
C378 C382 1.495 . S
C379 C378 1.392 . S
C379 C380 1.385 . S
C379 C381 1.478 . S
C380 H374 0.930 . S
C380 C376 1.400 . S
C380 C379 1.385 . S
C381 C379 1.478 . S
C381 C383 1.381 . S
C381 C387 1.383 . S
C382 C378 1.495 . S
C382 H388 0.959 . S
C382 H389 0.961 . S
C382 H390 0.960 . S
C383 C381 1.381 . S
C383 C384 1.394 . S
C383 H391 0.930 . S
C384 C383 1.394 . S
C384 C385 1.383 . S
C384 H392 0.929 . S
C385 C384 1.383 . S
C385 C386 1.377 . S
C386 H370 0.930 . S
C386 C385 1.377 . S
C386 C387 1.379 . S
C387 H371 0.931 . S
C387 C381 1.383 . S
C387 C386 1.379 . S
H388 C382 0.959 . S
H389 C382 0.961 . S
H390 C382 0.960 . S
H391 C383 0.930 . S
H392 C384 0.929 . S
C78 C18 1.320 . S
C97 C65 1.299 . S
C114 C41 1.296 . S
C133 C20 1.280 . S
C150 C43 1.226 . S
C169 C64 1.250 . S
C186 C66 1.196 . S
C205 C21 1.210 . S
C222 C44 1.240 . S
C241 C19 1.239 . S
C258 C67 1.277 . S
C277 C42 1.278 . S
C294 C16 0.825 . S
C313 C17 0.821 . S
C330 C39 0.823 . S
C349 C40 0.816 . S
C366 C62 0.823 . S
C385 C63 0.816 . S
