# Generated by pormake.
# Topology ana, (4)-cn, num edge types: 1
# Building blocks:
#     Node 0, Type 0, BuildingBlock: CEKHIL_clean_sbu_0, # of connection points: 4
#     Node 1, Type 0, BuildingBlock: CEKHIL_clean_sbu_0, # of connection points: 4
#     Node 2, Type 0, BuildingBlock: CEKHIL_clean_sbu_0, # of connection points: 4
#     Node 3, Type 0, BuildingBlock: CEKHIL_clean_sbu_0, # of connection points: 4
#     Node 4, Type 0, BuildingBlock: CEKHIL_clean_sbu_0, # of connection points: 4
#     Node 5, Type 0, BuildingBlock: CEKHIL_clean_sbu_0, # of connection points: 4
#     Node 6, Type 0, BuildingBlock: CEKHIL_clean_sbu_0, # of connection points: 4
#     Node 7, Type 0, BuildingBlock: CEKHIL_clean_sbu_0, # of connection points: 4
#     Node 8, Type 0, BuildingBlock: CEKHIL_clean_sbu_0, # of connection points: 4
#     Node 9, Type 0, BuildingBlock: CEKHIL_clean_sbu_0, # of connection points: 4
#     Node 10, Type 0, BuildingBlock: CEKHIL_clean_sbu_0, # of connection points: 4
#     Node 11, Type 0, BuildingBlock: CEKHIL_clean_sbu_0, # of connection points: 4
#     Node 12, Type 0, BuildingBlock: CEKHIL_clean_sbu_0, # of connection points: 4
#     Node 13, Type 0, BuildingBlock: CEKHIL_clean_sbu_0, # of connection points: 4
#     Node 14, Type 0, BuildingBlock: CEKHIL_clean_sbu_0, # of connection points: 4
#     Node 15, Type 0, BuildingBlock: CEKHIL_clean_sbu_0, # of connection points: 4
#     Node 16, Type 0, BuildingBlock: CEKHIL_clean_sbu_0, # of connection points: 4
#     Node 17, Type 0, BuildingBlock: CEKHIL_clean_sbu_0, # of connection points: 4
#     Node 18, Type 0, BuildingBlock: CEKHIL_clean_sbu_0, # of connection points: 4
#     Node 19, Type 0, BuildingBlock: CEKHIL_clean_sbu_0, # of connection points: 4
#     Node 20, Type 0, BuildingBlock: CEKHIL_clean_sbu_0, # of connection points: 4
#     Node 21, Type 0, BuildingBlock: CEKHIL_clean_sbu_0, # of connection points: 4
#     Node 22, Type 0, BuildingBlock: CEKHIL_clean_sbu_0, # of connection points: 4
#     Node 23, Type 0, BuildingBlock: CEKHIL_clean_sbu_0, # of connection points: 4
#     Node 24, Type 0, BuildingBlock: CEKHIL_clean_sbu_0, # of connection points: 4
#     Node 25, Type 0, BuildingBlock: CEKHIL_clean_sbu_0, # of connection points: 4
#     Node 26, Type 0, BuildingBlock: CEKHIL_clean_sbu_0, # of connection points: 4
#     Node 27, Type 0, BuildingBlock: CEKHIL_clean_sbu_0, # of connection points: 4
#     Node 28, Type 0, BuildingBlock: CEKHIL_clean_sbu_0, # of connection points: 4
#     Node 29, Type 0, BuildingBlock: CEKHIL_clean_sbu_0, # of connection points: 4
#     Node 30, Type 0, BuildingBlock: CEKHIL_clean_sbu_0, # of connection points: 4
#     Node 31, Type 0, BuildingBlock: CEKHIL_clean_sbu_0, # of connection points: 4
#     Node 32, Type 0, BuildingBlock: CEKHIL_clean_sbu_0, # of connection points: 4
#     Node 33, Type 0, BuildingBlock: CEKHIL_clean_sbu_0, # of connection points: 4
#     Node 34, Type 0, BuildingBlock: CEKHIL_clean_sbu_0, # of connection points: 4
#     Node 35, Type 0, BuildingBlock: CEKHIL_clean_sbu_0, # of connection points: 4
#     Node 36, Type 0, BuildingBlock: CEKHIL_clean_sbu_0, # of connection points: 4
#     Node 37, Type 0, BuildingBlock: CEKHIL_clean_sbu_0, # of connection points: 4
#     Node 38, Type 0, BuildingBlock: CEKHIL_clean_sbu_0, # of connection points: 4
#     Node 39, Type 0, BuildingBlock: CEKHIL_clean_sbu_0, # of connection points: 4
#     Node 40, Type 0, BuildingBlock: CEKHIL_clean_sbu_0, # of connection points: 4
#     Node 41, Type 0, BuildingBlock: CEKHIL_clean_sbu_0, # of connection points: 4
#     Node 42, Type 0, BuildingBlock: CEKHIL_clean_sbu_0, # of connection points: 4
#     Node 43, Type 0, BuildingBlock: CEKHIL_clean_sbu_0, # of connection points: 4
#     Node 44, Type 0, BuildingBlock: CEKHIL_clean_sbu_0, # of connection points: 4
#     Node 45, Type 0, BuildingBlock: CEKHIL_clean_sbu_0, # of connection points: 4
#     Node 46, Type 0, BuildingBlock: CEKHIL_clean_sbu_0, # of connection points: 4
#     Node 47, Type 0, BuildingBlock: CEKHIL_clean_sbu_0, # of connection points: 4
#     Edge 48, Type (0, 0), BuildingBlock: EZIPEK_clean_linker_0, # of connection points: 2
#     Edge 49, Type (0, 0), BuildingBlock: EZIPEK_clean_linker_0, # of connection points: 2
#     Edge 50, Type (0, 0), BuildingBlock: EZIPEK_clean_linker_0, # of connection points: 2
#     Edge 51, Type (0, 0), BuildingBlock: EZIPEK_clean_linker_0, # of connection points: 2
#     Edge 52, Type (0, 0), BuildingBlock: EZIPEK_clean_linker_0, # of connection points: 2
#     Edge 53, Type (0, 0), BuildingBlock: EZIPEK_clean_linker_0, # of connection points: 2
#     Edge 54, Type (0, 0), BuildingBlock: EZIPEK_clean_linker_0, # of connection points: 2
#     Edge 55, Type (0, 0), BuildingBlock: EZIPEK_clean_linker_0, # of connection points: 2
#     Edge 56, Type (0, 0), BuildingBlock: EZIPEK_clean_linker_0, # of connection points: 2
#     Edge 57, Type (0, 0), BuildingBlock: EZIPEK_clean_linker_0, # of connection points: 2
#     Edge 58, Type (0, 0), BuildingBlock: EZIPEK_clean_linker_0, # of connection points: 2
#     Edge 59, Type (0, 0), BuildingBlock: EZIPEK_clean_linker_0, # of connection points: 2
#     Edge 60, Type (0, 0), BuildingBlock: EZIPEK_clean_linker_0, # of connection points: 2
#     Edge 61, Type (0, 0), BuildingBlock: EZIPEK_clean_linker_0, # of connection points: 2
#     Edge 62, Type (0, 0), BuildingBlock: EZIPEK_clean_linker_0, # of connection points: 2
#     Edge 63, Type (0, 0), BuildingBlock: EZIPEK_clean_linker_0, # of connection points: 2
#     Edge 64, Type (0, 0), BuildingBlock: EZIPEK_clean_linker_0, # of connection points: 2
#     Edge 65, Type (0, 0), BuildingBlock: EZIPEK_clean_linker_0, # of connection points: 2
#     Edge 66, Type (0, 0), BuildingBlock: EZIPEK_clean_linker_0, # of connection points: 2
#     Edge 67, Type (0, 0), BuildingBlock: EZIPEK_clean_linker_0, # of connection points: 2
#     Edge 68, Type (0, 0), BuildingBlock: EZIPEK_clean_linker_0, # of connection points: 2
#     Edge 69, Type (0, 0), BuildingBlock: EZIPEK_clean_linker_0, # of connection points: 2
#     Edge 70, Type (0, 0), BuildingBlock: EZIPEK_clean_linker_0, # of connection points: 2
#     Edge 71, Type (0, 0), BuildingBlock: EZIPEK_clean_linker_0, # of connection points: 2
#     Edge 72, Type (0, 0), BuildingBlock: EZIPEK_clean_linker_0, # of connection points: 2
#     Edge 73, Type (0, 0), BuildingBlock: EZIPEK_clean_linker_0, # of connection points: 2
#     Edge 74, Type (0, 0), BuildingBlock: EZIPEK_clean_linker_0, # of connection points: 2
#     Edge 75, Type (0, 0), BuildingBlock: EZIPEK_clean_linker_0, # of connection points: 2
#     Edge 76, Type (0, 0), BuildingBlock: EZIPEK_clean_linker_0, # of connection points: 2
#     Edge 77, Type (0, 0), BuildingBlock: EZIPEK_clean_linker_0, # of connection points: 2
#     Edge 78, Type (0, 0), BuildingBlock: EZIPEK_clean_linker_0, # of connection points: 2
#     Edge 79, Type (0, 0), BuildingBlock: EZIPEK_clean_linker_0, # of connection points: 2
#     Edge 80, Type (0, 0), BuildingBlock: EZIPEK_clean_linker_0, # of connection points: 2
#     Edge 81, Type (0, 0), BuildingBlock: EZIPEK_clean_linker_0, # of connection points: 2
#     Edge 82, Type (0, 0), BuildingBlock: EZIPEK_clean_linker_0, # of connection points: 2
#     Edge 83, Type (0, 0), BuildingBlock: EZIPEK_clean_linker_0, # of connection points: 2
#     Edge 84, Type (0, 0), BuildingBlock: EZIPEK_clean_linker_0, # of connection points: 2
#     Edge 85, Type (0, 0), BuildingBlock: EZIPEK_clean_linker_0, # of connection points: 2
#     Edge 86, Type (0, 0), BuildingBlock: EZIPEK_clean_linker_0, # of connection points: 2
#     Edge 87, Type (0, 0), BuildingBlock: EZIPEK_clean_linker_0, # of connection points: 2
#     Edge 88, Type (0, 0), BuildingBlock: EZIPEK_clean_linker_0, # of connection points: 2
#     Edge 89, Type (0, 0), BuildingBlock: EZIPEK_clean_linker_0, # of connection points: 2
#     Edge 90, Type (0, 0), BuildingBlock: EZIPEK_clean_linker_0, # of connection points: 2
#     Edge 91, Type (0, 0), BuildingBlock: EZIPEK_clean_linker_0, # of connection points: 2
#     Edge 92, Type (0, 0), BuildingBlock: EZIPEK_clean_linker_0, # of connection points: 2
#     Edge 93, Type (0, 0), BuildingBlock: EZIPEK_clean_linker_0, # of connection points: 2
#     Edge 94, Type (0, 0), BuildingBlock: EZIPEK_clean_linker_0, # of connection points: 2
#     Edge 95, Type (0, 0), BuildingBlock: EZIPEK_clean_linker_0, # of connection points: 2
#     Edge 96, Type (0, 0), BuildingBlock: EZIPEK_clean_linker_0, # of connection points: 2
#     Edge 97, Type (0, 0), BuildingBlock: EZIPEK_clean_linker_0, # of connection points: 2
#     Edge 98, Type (0, 0), BuildingBlock: EZIPEK_clean_linker_0, # of connection points: 2
#     Edge 99, Type (0, 0), BuildingBlock: EZIPEK_clean_linker_0, # of connection points: 2
#     Edge 100, Type (0, 0), BuildingBlock: EZIPEK_clean_linker_0, # of connection points: 2
#     Edge 101, Type (0, 0), BuildingBlock: EZIPEK_clean_linker_0, # of connection points: 2
#     Edge 102, Type (0, 0), BuildingBlock: EZIPEK_clean_linker_0, # of connection points: 2
#     Edge 103, Type (0, 0), BuildingBlock: EZIPEK_clean_linker_0, # of connection points: 2
#     Edge 104, Type (0, 0), BuildingBlock: EZIPEK_clean_linker_0, # of connection points: 2
#     Edge 105, Type (0, 0), BuildingBlock: EZIPEK_clean_linker_0, # of connection points: 2
#     Edge 106, Type (0, 0), BuildingBlock: EZIPEK_clean_linker_0, # of connection points: 2
#     Edge 107, Type (0, 0), BuildingBlock: EZIPEK_clean_linker_0, # of connection points: 2
#     Edge 108, Type (0, 0), BuildingBlock: EZIPEK_clean_linker_0, # of connection points: 2
#     Edge 109, Type (0, 0), BuildingBlock: EZIPEK_clean_linker_0, # of connection points: 2
#     Edge 110, Type (0, 0), BuildingBlock: EZIPEK_clean_linker_0, # of connection points: 2
#     Edge 111, Type (0, 0), BuildingBlock: EZIPEK_clean_linker_0, # of connection points: 2
#     Edge 112, Type (0, 0), BuildingBlock: EZIPEK_clean_linker_0, # of connection points: 2
#     Edge 113, Type (0, 0), BuildingBlock: EZIPEK_clean_linker_0, # of connection points: 2
#     Edge 114, Type (0, 0), BuildingBlock: EZIPEK_clean_linker_0, # of connection points: 2
#     Edge 115, Type (0, 0), BuildingBlock: EZIPEK_clean_linker_0, # of connection points: 2
#     Edge 116, Type (0, 0), BuildingBlock: EZIPEK_clean_linker_0, # of connection points: 2
#     Edge 117, Type (0, 0), BuildingBlock: EZIPEK_clean_linker_0, # of connection points: 2
#     Edge 118, Type (0, 0), BuildingBlock: EZIPEK_clean_linker_0, # of connection points: 2
#     Edge 119, Type (0, 0), BuildingBlock: EZIPEK_clean_linker_0, # of connection points: 2
#     Edge 120, Type (0, 0), BuildingBlock: EZIPEK_clean_linker_0, # of connection points: 2
#     Edge 121, Type (0, 0), BuildingBlock: EZIPEK_clean_linker_0, # of connection points: 2
#     Edge 122, Type (0, 0), BuildingBlock: EZIPEK_clean_linker_0, # of connection points: 2
#     Edge 123, Type (0, 0), BuildingBlock: EZIPEK_clean_linker_0, # of connection points: 2
#     Edge 124, Type (0, 0), BuildingBlock: EZIPEK_clean_linker_0, # of connection points: 2
#     Edge 125, Type (0, 0), BuildingBlock: EZIPEK_clean_linker_0, # of connection points: 2
#     Edge 126, Type (0, 0), BuildingBlock: EZIPEK_clean_linker_0, # of connection points: 2
#     Edge 127, Type (0, 0), BuildingBlock: EZIPEK_clean_linker_0, # of connection points: 2
#     Edge 128, Type (0, 0), BuildingBlock: EZIPEK_clean_linker_0, # of connection points: 2
#     Edge 129, Type (0, 0), BuildingBlock: EZIPEK_clean_linker_0, # of connection points: 2
#     Edge 130, Type (0, 0), BuildingBlock: EZIPEK_clean_linker_0, # of connection points: 2
#     Edge 131, Type (0, 0), BuildingBlock: EZIPEK_clean_linker_0, # of connection points: 2
#     Edge 132, Type (0, 0), BuildingBlock: EZIPEK_clean_linker_0, # of connection points: 2
#     Edge 133, Type (0, 0), BuildingBlock: EZIPEK_clean_linker_0, # of connection points: 2
#     Edge 134, Type (0, 0), BuildingBlock: EZIPEK_clean_linker_0, # of connection points: 2
#     Edge 135, Type (0, 0), BuildingBlock: EZIPEK_clean_linker_0, # of connection points: 2
#     Edge 136, Type (0, 0), BuildingBlock: EZIPEK_clean_linker_0, # of connection points: 2
#     Edge 137, Type (0, 0), BuildingBlock: EZIPEK_clean_linker_0, # of connection points: 2
#     Edge 138, Type (0, 0), BuildingBlock: EZIPEK_clean_linker_0, # of connection points: 2
#     Edge 139, Type (0, 0), BuildingBlock: EZIPEK_clean_linker_0, # of connection points: 2
#     Edge 140, Type (0, 0), BuildingBlock: EZIPEK_clean_linker_0, # of connection points: 2
#     Edge 141, Type (0, 0), BuildingBlock: EZIPEK_clean_linker_0, # of connection points: 2
#     Edge 142, Type (0, 0), BuildingBlock: EZIPEK_clean_linker_0, # of connection points: 2
#     Edge 143, Type (0, 0), BuildingBlock: EZIPEK_clean_linker_0, # of connection points: 2
# Relax obj value: 0.099
# Max RMSD: 0.123
# Mean RMSD: 0.112
data_MOF--net-ana--node1-CEKHIL_clean_sbu_0--edge1-EZIPEK_clean_linker_0
_symmetry_space_group_name_H-M    P1
_symmetry_Int_Tables_number       1
_symmetry_cell_setting            triclinic
loop_
_symmetry_equiv_pos_as_xyz
'x, y, z'
_cell_length_a     47.886797
_cell_length_b     46.731561
_cell_length_c     46.813378
_cell_angle_alpha  90.121422
_cell_angle_beta   90.020392
_cell_angle_gamma 90.372961
loop_
_atom_site_label
_atom_site_type_symbol
_atom_site_fract_x
_atom_site_fract_y
_atom_site_fract_z
_atom_type_partial_charge
Co0 Co 0.13309 0.16849 0.41218 0.0
O1 O 0.17242 0.16945 0.41949 0.0
O2 O 0.15073 0.13539 0.39515 0.0
C3 C 0.12944 0.21432 0.39761 0.0
O4 O 0.09251 0.16137 0.40014 0.0
Co5 Co 0.09469 0.20821 0.44905 0.0
O6 O 0.06524 0.19309 0.42343 0.0
C7 C 0.12211 0.15832 0.47449 0.0
C8 C 0.17415 0.14609 0.40465 0.0
C9 C 0.06857 0.17275 0.40556 0.0
O10 O 0.12742 0.14809 0.44958 0.0
O11 O 0.112 0.18321 0.47883 0.0
O12 O 0.13802 0.19468 0.38011 0.0
O13 O 0.12635 0.20597 0.42367 0.0
Co14 Co 0.08797 0.86884 0.67297 0.0
O15 O 0.12025 0.87019 0.69746 0.0
O16 O 0.07708 0.88083 0.71081 0.0
C17 C 0.097 0.82585 0.65384 0.0
O18 O 0.04922 0.86828 0.65474 0.0
Co19 Co 0.09304 0.86822 0.60749 0.0
O20 O 0.05196 0.86449 0.60703 0.0
C21 C 0.10243 0.92225 0.63818 0.0
C22 C 0.10321 0.87779 0.71763 0.0
C23 C 0.03776 0.86578 0.62996 0.0
O24 O 0.09522 0.90981 0.66155 0.0
O25 O 0.10407 0.90908 0.61427 0.0
O26 O 0.08481 0.82786 0.67851 0.0
O27 O 0.10543 0.84964 0.64246 0.0
Co28 Co 0.3652 0.82762 0.90514 0.0
O29 O 0.32603 0.81881 0.9086 0.0
O30 O 0.34343 0.85954 0.89174 0.0
C31 C 0.37787 0.7855 0.88542 0.0
O32 O 0.40391 0.84435 0.89744 0.0
Co33 Co 0.40865 0.79304 0.93943 0.0
O34 O 0.43631 0.81822 0.92031 0.0
C35 C 0.37333 0.83422 0.96923 0.0
C36 C 0.32165 0.84415 0.89831 0.0
C37 C 0.42936 0.83881 0.90406 0.0
O38 O 0.36505 0.84394 0.94503 0.0
O39 O 0.38875 0.81214 0.97185 0.0
O40 O 0.36748 0.80564 0.86965 0.0
O41 O 0.3778 0.79025 0.91262 0.0
Co42 Co 0.4101 0.12769 0.16268 0.0
O43 O 0.37684 0.12671 0.1856 0.0
O44 O 0.41877 0.11269 0.20007 0.0
C45 C 0.40342 0.17237 0.14605 0.0
O46 O 0.44942 0.127 0.1458 0.0
Co47 Co 0.40629 0.13224 0.09715 0.0
O48 O 0.44766 0.13292 0.09821 0.0
C49 C 0.39051 0.07855 0.12501 0.0
C50 C 0.39247 0.11652 0.20572 0.0
C51 C 0.46136 0.12963 0.12129 0.0
O52 O 0.40149 0.08788 0.14832 0.0
O53 O 0.38781 0.09394 0.10262 0.0
O54 O 0.41479 0.16826 0.17088 0.0
O55 O 0.39466 0.14957 0.13299 0.0
Co56 Co 0.11155 0.84093 0.08554 0.0
O57 O 0.07167 0.83615 0.08178 0.0
O58 O 0.09302 0.85271 0.12038 0.0
C59 C 0.11781 0.86204 0.04248 0.0
O60 O 0.15177 0.84985 0.09696 0.0
Co61 Co 0.15084 0.80964 0.04298 0.0
O62 O 0.18081 0.82888 0.06542 0.0
C63 C 0.12308 0.7771 0.08826 0.0
C64 C 0.0697 0.84637 0.10747 0.0
C65 C 0.17636 0.84401 0.08764 0.0
O66 O 0.11629 0.80063 0.10074 0.0
O67 O 0.13205 0.77651 0.06251 0.0
O68 O 0.1096 0.87711 0.06421 0.0
O69 O 0.11945 0.83491 0.04678 0.0
Co70 Co 0.42266 0.88246 0.33973 0.0
O71 O 0.44792 0.87982 0.37152 0.0
O72 O 0.45759 0.86627 0.3271 0.0
C73 C 0.40863 0.92743 0.348 0.0
O74 O 0.40236 0.88328 0.3015 0.0
Co75 Co 0.35899 0.88962 0.35047 0.0
O76 O 0.35644 0.8908 0.30829 0.0
C77 C 0.38427 0.83313 0.35719 0.0
C78 C 0.46569 0.86941 0.35344 0.0
C79 C 0.37738 0.88692 0.29199 0.0
O80 O 0.40761 0.84308 0.34794 0.0
O81 O 0.36272 0.84847 0.36182 0.0
O82 O 0.43214 0.92258 0.33513 0.0
O83 O 0.39595 0.90516 0.35826 0.0
Co84 Co 0.38609 0.15472 0.57492 0.0
O85 O 0.42591 0.16059 0.57461 0.0
O86 O 0.40232 0.13728 0.60828 0.0
C87 C 0.38208 0.14141 0.52886 0.0
O88 O 0.3455 0.14337 0.58198 0.0
Co89 Co 0.34691 0.19173 0.53694 0.0
O90 O 0.31683 0.16646 0.55173 0.0
C91 C 0.376 0.21708 0.58627 0.0
C92 C 0.42614 0.14639 0.59842 0.0
C93 C 0.32111 0.14841 0.57161 0.0
O94 O 0.38154 0.19203 0.59593 0.0
O95 O 0.36505 0.22159 0.56178 0.0
O96 O 0.38981 0.12296 0.54801 0.0
O97 O 0.37948 0.16739 0.5378 0.0
Co98 Co 0.08848 0.12288 0.84316 0.0
O99 O 0.0627 0.12389 0.87469 0.0
O100 O 0.05161 0.13128 0.82918 0.0
C101 C 0.11014 0.08189 0.85538 0.0
O102 O 0.10789 0.12202 0.8046 0.0
Co103 Co 0.15147 0.12926 0.85182 0.0
O104 O 0.15442 0.12562 0.80972 0.0
C105 C 0.11673 0.17965 0.85846 0.0
C106 C 0.04377 0.12947 0.85566 0.0
C107 C 0.13272 0.12272 0.79435 0.0
O108 O 0.09612 0.16518 0.84825 0.0
O109 O 0.14052 0.16873 0.86391 0.0
O110 O 0.08641 0.08145 0.84197 0.0
O111 O 0.11889 0.10687 0.86375 0.0
Co112 Co 0.16964 0.4025 0.14443 0.0
O113 O 0.19552 0.37124 0.14318 0.0
O114 O 0.20517 0.4159 0.13009 0.0
C115 C 0.15268 0.39431 0.18847 0.0
O116 O 0.14842 0.44027 0.14425 0.0
Co117 Co 0.10597 0.3893 0.14745 0.0
O118 O 0.10244 0.43145 0.1506 0.0
C119 C 0.13583 0.38054 0.09357 0.0
C120 C 0.21346 0.38966 0.13338 0.0
C121 C 0.12304 0.44864 0.14783 0.0
O122 O 0.15721 0.39352 0.10414 0.0
O123 O 0.11412 0.37412 0.1082 0.0
O124 O 0.1765 0.40734 0.18521 0.0
O125 O 0.14197 0.3835 0.16544 0.0
Co126 Co 0.67472 0.09473 0.86982 0.0
O127 O 0.70249 0.12475 0.86965 0.0
O128 O 0.71018 0.08018 0.88307 0.0
C129 C 0.65762 0.1038 0.82596 0.0
O130 O 0.65211 0.05787 0.871 0.0
Co131 Co 0.61186 0.10968 0.86799 0.0
O132 O 0.60619 0.06751 0.86844 0.0
C133 C 0.64176 0.11521 0.92213 0.0
C134 C 0.72021 0.10563 0.87805 0.0
C135 C 0.62634 0.04991 0.87024 0.0
O136 O 0.66317 0.1034 0.91047 0.0
O137 O 0.62058 0.12341 0.90772 0.0
O138 O 0.68039 0.08924 0.82906 0.0
O139 O 0.64757 0.11496 0.84908 0.0
Co140 Co 0.83975 0.92018 0.39297 0.0
O141 O 0.8729 0.94388 0.39364 0.0
O142 O 0.8314 0.95748 0.378 0.0
C143 C 0.84436 0.90375 0.43784 0.0
O144 O 0.80055 0.90322 0.38933 0.0
Co145 Co 0.84138 0.85472 0.39867 0.0
O146 O 0.80036 0.85734 0.40331 0.0
C147 C 0.85484 0.881 0.34317 0.0
C148 C 0.85731 0.96403 0.38331 0.0
C149 C 0.78763 0.87988 0.39562 0.0
O150 O 0.84991 0.90579 0.35393 0.0
O151 O 0.85355 0.8578 0.35762 0.0
O152 O 0.83292 0.92836 0.43294 0.0
O153 O 0.85425 0.89041 0.41579 0.0
Co154 Co 0.84184 0.07783 0.1143 0.0
O155 O 0.87353 0.05295 0.11682 0.0
O156 O 0.82993 0.04065 0.12726 0.0
C157 C 0.85151 0.09544 0.07097 0.0
O158 O 0.80374 0.09742 0.11322 0.0
Co159 Co 0.85058 0.14333 0.11258 0.0
O160 O 0.80943 0.14521 0.11069 0.0
C161 C 0.86154 0.11226 0.16553 0.0
C162 C 0.85608 0.03344 0.12544 0.0
C163 C 0.79393 0.12299 0.11146 0.0
O164 O 0.84931 0.0902 0.15478 0.0
O165 O 0.86614 0.1352 0.1514 0.0
O166 O 0.83895 0.07089 0.07358 0.0
O167 O 0.86023 0.10721 0.09444 0.0
Co168 Co 0.3467 0.58089 0.61214 0.0
O169 O 0.37655 0.55354 0.60978 0.0
O170 O 0.33356 0.54398 0.62487 0.0
C171 C 0.35393 0.60007 0.5681 0.0
O172 O 0.30977 0.60196 0.61618 0.0
Co173 Co 0.35743 0.64464 0.61344 0.0
O174 O 0.31648 0.64913 0.61048 0.0
C175 C 0.36952 0.61225 0.66479 0.0
C176 C 0.35878 0.5351 0.61995 0.0
C177 C 0.30055 0.62756 0.6136 0.0
O178 O 0.35853 0.59028 0.65257 0.0
O179 O 0.37284 0.63619 0.65212 0.0
O180 O 0.33897 0.57708 0.5717 0.0
O181 O 0.36559 0.61016 0.59113 0.0
Co182 Co 0.16884 0.59534 0.37003 0.0
O183 O 0.19581 0.62618 0.36753 0.0
O184 O 0.20521 0.58238 0.38229 0.0
C185 C 0.14981 0.60218 0.32634 0.0
O186 O 0.14807 0.55748 0.37394 0.0
Co187 Co 0.10563 0.60625 0.3701 0.0
O188 O 0.10162 0.564 0.37263 0.0
C189 C 0.13682 0.61666 0.42263 0.0
C190 C 0.21432 0.60786 0.37598 0.0
C191 C 0.12288 0.54786 0.37432 0.0
O192 O 0.15865 0.60591 0.41068 0.0
O193 O 0.11445 0.62219 0.40889 0.0
O194 O 0.17298 0.58827 0.32928 0.0
O195 O 0.14009 0.61395 0.34933 0.0
Co196 Co 0.32975 0.40721 0.86941 0.0
O197 O 0.30412 0.3752 0.86968 0.0
O198 O 0.29382 0.41942 0.88318 0.0
C199 C 0.34707 0.39928 0.82521 0.0
O200 O 0.34915 0.44596 0.87146 0.0
Co201 Co 0.39348 0.39926 0.86625 0.0
O202 O 0.39563 0.44172 0.8668 0.0
C203 C 0.3643 0.3869 0.9197 0.0
C204 C 0.28563 0.3932 0.87898 0.0
C205 C 0.37378 0.45686 0.86979 0.0
O206 O 0.34197 0.39798 0.90944 0.0
O207 O 0.38627 0.38234 0.90489 0.0
O208 O 0.3236 0.4126 0.8286 0.0
O209 O 0.35823 0.389 0.84815 0.0
Co210 Co 0.86502 0.82622 0.60138 0.0
O211 O 0.86857 0.79761 0.63067 0.0
O212 O 0.87791 0.79105 0.58472 0.0
C213 C 0.82246 0.84243 0.61317 0.0
O214 O 0.86281 0.84972 0.56475 0.0
Co215 Co 0.86246 0.89082 0.61608 0.0
O216 O 0.85529 0.89618 0.57489 0.0
C217 C 0.91679 0.86186 0.61736 0.0
C218 C 0.87659 0.78052 0.61034 0.0
C219 C 0.85775 0.87567 0.55717 0.0
O220 O 0.90471 0.83876 0.60877 0.0
O221 O 0.90347 0.88495 0.62252 0.0
O222 O 0.82521 0.81879 0.59888 0.0
O223 O 0.84546 0.85348 0.62302 0.0
Co224 Co 0.91037 0.1293 0.32748 0.0
O225 O 0.87985 0.12353 0.30129 0.0
O226 O 0.92404 0.11305 0.29227 0.0
C227 C 0.89786 0.17425 0.33991 0.0
O228 O 0.94789 0.13419 0.34789 0.0
Co229 Co 0.90064 0.13942 0.39222 0.0
O230 O 0.94093 0.14915 0.39311 0.0
C231 C 0.89313 0.08168 0.36808 0.0
C232 C 0.89851 0.11506 0.28308 0.0
C233 C 0.95692 0.14338 0.37219 0.0
O234 O 0.90403 0.09004 0.34435 0.0
O235 O 0.88798 0.0985 0.38902 0.0
O236 O 0.91145 0.16944 0.31644 0.0
O237 O 0.8906 0.15153 0.35391 0.0
Co238 Co 0.63272 0.16736 0.09494 0.0
O239 O 0.62961 0.19355 0.1267 0.0
O240 O 0.61717 0.20272 0.0819 0.0
C241 C 0.67665 0.15275 0.10323 0.0
O242 O 0.63369 0.1469 0.05622 0.0
Co243 Co 0.63797 0.10249 0.10314 0.0
O244 O 0.64496 0.10055 0.06154 0.0
C245 C 0.58254 0.12849 0.10875 0.0
C246 C 0.61941 0.21136 0.10818 0.0
C247 C 0.64 0.12216 0.04594 0.0
O248 O 0.59404 0.15266 0.10305 0.0
O249 O 0.59651 0.1053 0.11058 0.0
O250 O 0.67172 0.17711 0.09102 0.0
O251 O 0.65483 0.13943 0.11328 0.0
Co252 Co 0.59019 0.8755 0.83641 0.0
O253 O 0.62289 0.87547 0.81258 0.0
O254 O 0.58053 0.88902 0.79888 0.0
C255 C 0.59746 0.83157 0.85445 0.0
O256 O 0.55118 0.87743 0.85362 0.0
Co257 Co 0.59308 0.87272 0.90172 0.0
O258 O 0.55276 0.86349 0.89935 0.0
C259 C 0.60354 0.9278 0.87317 0.0
C260 C 0.6066 0.88485 0.79256 0.0
C261 C 0.53914 0.86973 0.8769 0.0
O262 O 0.59875 0.91572 0.84898 0.0
O263 O 0.60312 0.91429 0.89693 0.0
O264 O 0.58521 0.83477 0.82994 0.0
O265 O 0.60639 0.85476 0.86676 0.0
Co266 Co 0.88863 0.15257 0.91447 0.0
O267 O 0.88711 0.12003 0.93944 0.0
O268 O 0.87487 0.16442 0.95114 0.0
C269 C 0.93146 0.14477 0.89697 0.0
O270 O 0.88868 0.19163 0.89572 0.0
Co271 Co 0.89105 0.14575 0.84915 0.0
O272 O 0.89184 0.18822 0.84804 0.0
C273 C 0.83881 0.13296 0.87876 0.0
C274 C 0.87778 0.13782 0.95849 0.0
C275 C 0.89021 0.20305 0.87083 0.0
O276 O 0.8493 0.14412 0.90149 0.0
O277 O 0.85281 0.12916 0.85582 0.0
O278 O 0.92828 0.15712 0.92162 0.0
O279 O 0.90895 0.13493 0.88495 0.0
Co280 Co 0.579 0.118 0.66041 0.0
O281 O 0.55352 0.11791 0.62862 0.0
O282 O 0.54221 0.12865 0.67337 0.0
C283 C 0.59913 0.07552 0.65005 0.0
O284 O 0.59844 0.11886 0.6991 0.0
Co285 Co 0.64209 0.12133 0.65155 0.0
O286 O 0.64501 0.11717 0.69351 0.0
C287 C 0.60892 0.17213 0.64112 0.0
C288 C 0.53462 0.12561 0.64687 0.0
C289 C 0.62336 0.11752 0.70916 0.0
O290 O 0.588 0.15957 0.65293 0.0
O291 O 0.63214 0.15978 0.6363 0.0
O292 O 0.57564 0.07676 0.66385 0.0
O293 O 0.6087 0.09975 0.64065 0.0
Co294 Co 0.6172 0.84066 0.42005 0.0
O295 O 0.61696 0.8711 0.4479 0.0
O296 O 0.62942 0.82631 0.45652 0.0
C297 C 0.57502 0.84948 0.40097 0.0
O298 O 0.61864 0.80321 0.39799 0.0
Co299 Co 0.61689 0.85274 0.35505 0.0
O300 O 0.61573 0.81054 0.35068 0.0
C301 C 0.66849 0.86184 0.38751 0.0
C302 C 0.62538 0.85206 0.46612 0.0
C303 C 0.61734 0.79392 0.37213 0.0
O304 O 0.65701 0.85039 0.40956 0.0
O305 O 0.65553 0.86677 0.36418 0.0
O306 O 0.57713 0.83528 0.4247 0.0
O307 O 0.59803 0.86025 0.39108 0.0
Co308 Co 0.91674 0.87976 0.1701 0.0
O309 O 0.94182 0.8794 0.13781 0.0
O310 O 0.95372 0.86849 0.18223 0.0
C311 C 0.89674 0.92224 0.15986 0.0
O312 O 0.89814 0.87884 0.20943 0.0
Co313 Co 0.85301 0.87782 0.16363 0.0
O314 O 0.85141 0.87761 0.2059 0.0
C315 C 0.88576 0.82786 0.14822 0.0
C316 C 0.96095 0.87128 0.15564 0.0
C317 C 0.87365 0.87811 0.22075 0.0
O318 O 0.90668 0.83859 0.16181 0.0
O319 O 0.86299 0.84127 0.14407 0.0
O320 O 0.9205 0.9212 0.17329 0.0
O321 O 0.88673 0.89795 0.15127 0.0
Co322 Co 0.82825 0.59449 0.85976 0.0
O323 O 0.80331 0.62675 0.85796 0.0
O324 O 0.79259 0.58426 0.87615 0.0
C325 C 0.84455 0.59831 0.81462 0.0
O326 O 0.84701 0.55591 0.86493 0.0
Co327 Co 0.89236 0.60046 0.85274 0.0
O328 O 0.8918 0.55807 0.85089 0.0
C329 C 0.86604 0.61604 0.90755 0.0
C330 C 0.78504 0.61024 0.87028 0.0
C331 C 0.87047 0.54399 0.85928 0.0
O332 O 0.84213 0.60739 0.89832 0.0
O333 O 0.88817 0.6167 0.89222 0.0
O334 O 0.82089 0.58545 0.81954 0.0
O335 O 0.85644 0.61015 0.83642 0.0
Co336 Co 0.33816 0.9148 0.11615 0.0
O337 O 0.36998 0.94007 0.1138 0.0
O338 O 0.32728 0.95316 0.12628 0.0
C339 C 0.34558 0.8933 0.07386 0.0
O340 O 0.29989 0.8957 0.12022 0.0
Co341 Co 0.34326 0.84918 0.11773 0.0
O342 O 0.30342 0.84992 0.10653 0.0
C343 C 0.35367 0.88262 0.17036 0.0
C344 C 0.35305 0.9604 0.12111 0.0
C345 C 0.28878 0.87169 0.11276 0.0
O346 O 0.34781 0.90581 0.15696 0.0
O347 O 0.35362 0.85793 0.15844 0.0
O348 O 0.33272 0.91764 0.07506 0.0
O349 O 0.35508 0.88355 0.0978 0.0
Co350 Co 0.17623 0.08937 0.63305 0.0
O351 O 0.20325 0.1196 0.6287 0.0
O352 O 0.20973 0.07437 0.61568 0.0
C353 C 0.1639 0.10004 0.67798 0.0
O354 O 0.1537 0.05234 0.63539 0.0
Co355 Co 0.11367 0.10351 0.64176 0.0
O356 O 0.10816 0.06148 0.64233 0.0
C357 C 0.13912 0.11149 0.58553 0.0
C358 C 0.21928 0.10046 0.61729 0.0
C359 C 0.12823 0.04405 0.63896 0.0
O360 O 0.16083 0.09799 0.59405 0.0
O361 O 0.11885 0.11823 0.60193 0.0
O362 O 0.18624 0.08517 0.67309 0.0
O363 O 0.15137 0.11024 0.65579 0.0
Co364 Co 0.15808 0.92095 0.88661 0.0
O365 O 0.1276 0.94762 0.88521 0.0
O366 O 0.1716 0.95788 0.87455 0.0
C367 C 0.14684 0.90341 0.92998 0.0
O368 O 0.19551 0.90036 0.88616 0.0
Co369 Co 0.14899 0.85571 0.88972 0.0
O370 O 0.18985 0.85385 0.89665 0.0
C371 C 0.13833 0.88641 0.83576 0.0
C372 C 0.14605 0.9666 0.87758 0.0
C373 C 0.20542 0.87553 0.89191 0.0
O374 O 0.15016 0.909 0.84599 0.0
O375 O 0.13356 0.86389 0.8506 0.0
O376 O 0.16147 0.92677 0.92763 0.0
O377 O 0.13828 0.89205 0.90632 0.0
Co378 Co 0.65743 0.41737 0.37464 0.0
O379 O 0.62364 0.43938 0.37277 0.0
O380 O 0.66647 0.45626 0.36483 0.0
C381 C 0.64729 0.39551 0.41639 0.0
O382 O 0.69749 0.40305 0.37637 0.0
Co383 Co 0.65796 0.35228 0.37156 0.0
O384 O 0.69867 0.35512 0.37822 0.0
C385 C 0.64383 0.38453 0.32047 0.0
C386 C 0.63982 0.46088 0.36654 0.0
C387 C 0.71073 0.37938 0.37871 0.0
O388 O 0.65289 0.40735 0.33285 0.0
O389 O 0.64184 0.36044 0.33315 0.0
O390 O 0.65803 0.42109 0.4159 0.0
O391 O 0.64101 0.38447 0.39176 0.0
Co392 Co 0.83069 0.40071 0.63611 0.0
O393 O 0.80276 0.37084 0.63611 0.0
O394 O 0.79701 0.41447 0.61845 0.0
C395 C 0.84444 0.3955 0.68164 0.0
O396 O 0.85357 0.43761 0.63354 0.0
Co397 Co 0.89333 0.38772 0.64442 0.0
O398 O 0.89906 0.42953 0.64164 0.0
C399 C 0.86703 0.37443 0.58926 0.0
C400 C 0.78674 0.38914 0.62333 0.0
C401 C 0.87896 0.44643 0.63644 0.0
O402 O 0.84453 0.38663 0.59784 0.0
O403 O 0.88851 0.37135 0.60518 0.0
O404 O 0.82214 0.40999 0.67562 0.0
O405 O 0.85617 0.3824 0.66046 0.0
Co406 Co 0.68032 0.59038 0.13024 0.0
O407 O 0.70612 0.62219 0.13008 0.0
O408 O 0.71489 0.57879 0.11289 0.0
C409 C 0.66556 0.5964 0.17569 0.0
O410 O 0.66024 0.55207 0.12682 0.0
Co411 Co 0.61673 0.59805 0.13822 0.0
O412 O 0.61617 0.5558 0.14255 0.0
C413 C 0.643 0.61345 0.08341 0.0
C414 C 0.72318 0.60498 0.11712 0.0
C415 C 0.63668 0.5409 0.13387 0.0
O416 O 0.66603 0.60247 0.09186 0.0
O417 O 0.62124 0.61547 0.09914 0.0
O418 O 0.68859 0.58275 0.17035 0.0
O419 O 0.65325 0.60744 0.15381 0.0
Co420 Co 0.6341 0.67335 0.90969 0.0
O421 O 0.67401 0.67925 0.91069 0.0
O422 O 0.65275 0.64039 0.89385 0.0
C423 C 0.62343 0.71691 0.89209 0.0
O424 O 0.59395 0.6595 0.90405 0.0
Co425 Co 0.59417 0.71027 0.94641 0.0
O426 O 0.5641 0.68943 0.92588 0.0
C427 C 0.6279 0.6657 0.97375 0.0
C428 C 0.6759 0.65413 0.89901 0.0
C429 C 0.56909 0.6678 0.91013 0.0
O430 O 0.63539 0.65613 0.94915 0.0
O431 O 0.6137 0.68851 0.97729 0.0
O432 O 0.63124 0.69652 0.87504 0.0
O433 O 0.62451 0.71126 0.91904 0.0
Co434 Co 0.58664 0.37125 0.16 0.0
O435 O 0.61913 0.36871 0.18428 0.0
O436 O 0.57798 0.38593 0.19732 0.0
C437 C 0.58867 0.32621 0.14131 0.0
O438 O 0.54784 0.37585 0.14276 0.0
Co439 Co 0.58982 0.3693 0.09514 0.0
O440 O 0.5486 0.36581 0.09585 0.0
C441 C 0.60785 0.4213 0.12399 0.0
C442 C 0.60345 0.37948 0.20419 0.0
C443 C 0.53547 0.37141 0.11877 0.0
O444 O 0.59852 0.41076 0.14745 0.0
O445 O 0.60832 0.40745 0.10046 0.0
O446 O 0.57843 0.33114 0.16647 0.0
O447 O 0.60043 0.3484 0.1296 0.0
Co448 Co 0.86278 0.32611 0.41007 0.0
O449 O 0.82299 0.3255 0.41424 0.0
O450 O 0.84759 0.363 0.39943 0.0
C451 C 0.86622 0.28421 0.38661 0.0
O452 O 0.90414 0.33312 0.40254 0.0
Co453 Co 0.89547 0.27856 0.44192 0.0
O454 O 0.92828 0.29804 0.42448 0.0
C455 C 0.87237 0.32619 0.47445 0.0
C456 C 0.82327 0.35146 0.40465 0.0
C457 C 0.92718 0.32074 0.4094 0.0
O458 O 0.86817 0.33945 0.45087 0.0
O459 O 0.87784 0.29941 0.47484 0.0
O460 O 0.85932 0.30721 0.37292 0.0
O461 O 0.86699 0.28666 0.41407 0.0
Co462 Co 0.91613 0.62285 0.66137 0.0
O463 O 0.88167 0.62157 0.68252 0.0
O464 O 0.92343 0.61203 0.70054 0.0
C465 C 0.9076 0.66533 0.64024 0.0
O466 O 0.9567 0.62328 0.64725 0.0
Co467 Co 0.91707 0.62054 0.59652 0.0
O468 O 0.95806 0.62463 0.5994 0.0
C469 C 0.905 0.56787 0.62763 0.0
C470 C 0.89666 0.61439 0.70437 0.0
C471 C 0.97026 0.62444 0.62351 0.0
O472 O 0.91063 0.5814 0.65085 0.0
O473 O 0.90496 0.57997 0.60318 0.0
O474 O 0.9181 0.66403 0.66577 0.0
O475 O 0.90063 0.64105 0.62873 0.0
Co476 Co 0.61634 0.34449 0.57767 0.0
O477 O 0.57646 0.34083 0.57328 0.0
O478 O 0.59768 0.36274 0.60944 0.0
C479 C 0.62514 0.35805 0.53196 0.0
O480 O 0.65656 0.35377 0.58913 0.0
Co481 Co 0.65574 0.30464 0.54529 0.0
O482 O 0.68626 0.32475 0.56598 0.0
C483 C 0.62161 0.28145 0.59087 0.0
C484 C 0.57453 0.35462 0.59726 0.0
C485 C 0.68135 0.34507 0.58331 0.0
O486 O 0.61663 0.3071 0.59923 0.0
O487 O 0.63429 0.27561 0.56765 0.0
O488 O 0.61753 0.37657 0.55115 0.0
O489 O 0.62522 0.33165 0.54037 0.0
Co490 Co 0.91917 0.38341 0.84937 0.0
O491 O 0.94393 0.38365 0.88169 0.0
O492 O 0.95646 0.37315 0.83733 0.0
C493 C 0.89859 0.42576 0.85907 0.0
O494 O 0.90038 0.38252 0.81022 0.0
Co495 Co 0.85614 0.37938 0.85675 0.0
O496 O 0.85404 0.38766 0.8155 0.0
C497 C 0.8884 0.32695 0.86152 0.0
C498 C 0.96351 0.37642 0.86398 0.0
C499 C 0.87571 0.38612 0.8 0.0
O500 O 0.91051 0.34168 0.85626 0.0
O501 O 0.86423 0.33812 0.86376 0.0
O502 O 0.92243 0.42451 0.84595 0.0
O503 O 0.88889 0.40156 0.86854 0.0
Co504 Co 0.88903 0.66075 0.07187 0.0
O505 O 0.92879 0.66653 0.07024 0.0
O506 O 0.90626 0.64271 0.10432 0.0
C507 C 0.88353 0.64786 0.02583 0.0
O508 O 0.8487 0.64934 0.08008 0.0
Co509 Co 0.8492 0.69877 0.03598 0.0
O510 O 0.81928 0.67417 0.05209 0.0
C511 C 0.87799 0.72279 0.08605 0.0
C512 C 0.92977 0.65181 0.09369 0.0
C513 C 0.824 0.65538 0.07116 0.0
O514 O 0.8851 0.69756 0.09396 0.0
O515 O 0.86617 0.72816 0.06216 0.0
O516 O 0.8918 0.62931 0.0446 0.0
O517 O 0.8814 0.67387 0.03495 0.0
Co518 Co 0.58126 0.61845 0.3372 0.0
O519 O 0.55381 0.62126 0.36696 0.0
O520 O 0.54684 0.63317 0.3216 0.0
C521 C 0.59578 0.57419 0.34785 0.0
O522 O 0.60444 0.6166 0.30037 0.0
Co523 Co 0.64389 0.61436 0.35259 0.0
O524 O 0.64932 0.60735 0.31143 0.0
C525 C 0.61696 0.67056 0.35454 0.0
C526 C 0.53705 0.63061 0.34739 0.0
C527 C 0.62983 0.61066 0.29328 0.0
O528 O 0.59424 0.65865 0.34583 0.0
O529 O 0.63928 0.65649 0.35937 0.0
O530 O 0.57307 0.57801 0.33326 0.0
O531 O 0.60715 0.59719 0.35837 0.0
Co532 Co 0.66915 0.90736 0.63522 0.0
O533 O 0.69363 0.87507 0.63858 0.0
O534 O 0.7058 0.9176 0.62125 0.0
C535 C 0.65091 0.90345 0.67941 0.0
O536 O 0.65057 0.946 0.62943 0.0
Co537 Co 0.60513 0.90083 0.63807 0.0
O538 O 0.60574 0.94292 0.64312 0.0
C539 C 0.63447 0.88556 0.58493 0.0
C540 C 0.71278 0.89162 0.6279 0.0
C541 C 0.62709 0.95754 0.63582 0.0
O542 O 0.65762 0.89438 0.59584 0.0
O543 O 0.6114 0.88488 0.59873 0.0
O544 O 0.67463 0.91646 0.67549 0.0
O545 O 0.63992 0.89146 0.6571 0.0
Co546 Co 0.36663 0.33173 0.09421 0.0
O547 O 0.36964 0.30696 0.12716 0.0
O548 O 0.38095 0.29508 0.08273 0.0
C549 C 0.32336 0.34842 0.10375 0.0
O550 O 0.36594 0.34874 0.05453 0.0
Co551 Co 0.36086 0.39739 0.09767 0.0
O552 O 0.35809 0.39599 0.05529 0.0
C553 C 0.41526 0.37141 0.10909 0.0
C554 C 0.37876 0.28778 0.10933 0.0
C555 C 0.36191 0.3726 0.04187 0.0
O556 O 0.40571 0.34693 0.10076 0.0
O557 O 0.39995 0.39348 0.11255 0.0
O558 O 0.32657 0.3237 0.09146 0.0
O559 O 0.34599 0.36128 0.11181 0.0
Co560 Co 0.41382 0.62746 0.8289 0.0
O561 O 0.38443 0.62615 0.80084 0.0
O562 O 0.4279 0.61183 0.79356 0.0
C563 C 0.40464 0.67236 0.84352 0.0
O564 O 0.45026 0.62659 0.85145 0.0
Co565 Co 0.40246 0.63525 0.89342 0.0
O566 O 0.44287 0.64476 0.89513 0.0
C567 C 0.39359 0.5788 0.86656 0.0
C568 C 0.40303 0.61619 0.78335 0.0
C569 C 0.45927 0.63652 0.87538 0.0
O570 O 0.40345 0.58819 0.84281 0.0
O571 O 0.38997 0.59438 0.88876 0.0
O572 O 0.4197 0.66796 0.82087 0.0
O573 O 0.39427 0.64983 0.8556 0.0
Co574 Co 0.1391 0.67078 0.59606 0.0
O575 O 0.13646 0.69594 0.62854 0.0
O576 O 0.12209 0.70611 0.58454 0.0
C577 C 0.18369 0.65738 0.60311 0.0
O578 O 0.13925 0.6514 0.55685 0.0
Co579 Co 0.14697 0.6058 0.60235 0.0
O580 O 0.1515 0.60513 0.56032 0.0
C581 C 0.091 0.62981 0.61097 0.0
C582 C 0.12527 0.71402 0.61094 0.0
C583 C 0.14533 0.62704 0.54562 0.0
O584 O 0.10125 0.65452 0.60505 0.0
O585 O 0.1059 0.60718 0.61201 0.0
O586 O 0.1778 0.68174 0.59138 0.0
O587 O 0.16241 0.64314 0.61302 0.0
Co588 Co 0.087 0.37236 0.34409 0.0
O589 O 0.11908 0.37529 0.31962 0.0
O590 O 0.07544 0.38396 0.30627 0.0
C591 C 0.09881 0.32917 0.36214 0.0
O592 O 0.04839 0.36948 0.36215 0.0
Co593 Co 0.09271 0.37257 0.40835 0.0
O594 O 0.05278 0.3614 0.40917 0.0
C595 C 0.10135 0.42601 0.37838 0.0
C596 C 0.10173 0.38226 0.29961 0.0
C597 C 0.03808 0.3631 0.38668 0.0
O598 O 0.09208 0.4137 0.35569 0.0
O599 O 0.10554 0.41274 0.40176 0.0
O600 O 0.08524 0.33161 0.33829 0.0
O601 O 0.10641 0.35318 0.374 0.0
Co602 Co 0.38312 0.65781 0.40804 0.0
O603 O 0.38653 0.62481 0.43248 0.0
O604 O 0.37062 0.6671 0.44593 0.0
C605 C 0.42546 0.65371 0.38727 0.0
O606 O 0.37784 0.69729 0.39107 0.0
Co607 Co 0.38271 0.65455 0.34252 0.0
O608 O 0.38721 0.69679 0.34416 0.0
C609 C 0.33221 0.63787 0.37412 0.0
C610 C 0.37658 0.64091 0.45269 0.0
C611 C 0.38217 0.71015 0.36731 0.0
O612 O 0.34389 0.64622 0.39744 0.0
O613 O 0.34468 0.63764 0.34995 0.0
O614 O 0.42293 0.66576 0.41217 0.0
O615 O 0.4029 0.64268 0.37657 0.0
Co616 Co 0.08091 0.61501 0.1565 0.0
O617 O 0.05626 0.61278 0.12403 0.0
O618 O 0.04582 0.63257 0.16587 0.0
C619 C 0.09524 0.56913 0.15391 0.0
O620 O 0.09932 0.62065 0.1954 0.0
Co621 Co 0.14432 0.60701 0.15261 0.0
O622 O 0.14255 0.60264 0.19456 0.0
C623 C 0.12007 0.66253 0.13631 0.0
C624 C 0.03825 0.62591 0.14005 0.0
C625 C 0.1217 0.61255 0.20807 0.0
O626 O 0.09572 0.6528 0.14262 0.0
O627 O 0.14229 0.64759 0.13849 0.0
O628 O 0.07189 0.57567 0.1664 0.0
O629 O 0.10852 0.59015 0.1419 0.0
Co630 Co 0.11821 0.34667 0.92605 0.0
O631 O 0.1209 0.37636 0.95452 0.0
O632 O 0.13072 0.33073 0.96198 0.0
C633 C 0.0751 0.36048 0.91045 0.0
O634 O 0.11682 0.30989 0.90271 0.0
Co635 Co 0.11341 0.36046 0.86182 0.0
O636 O 0.10423 0.31918 0.8574 0.0
C637 C 0.16799 0.36626 0.89107 0.0
C638 C 0.12824 0.35648 0.97225 0.0
C639 C 0.10978 0.30171 0.87743 0.0
O640 O 0.15783 0.35437 0.91359 0.0
O641 O 0.15319 0.37269 0.86921 0.0
O642 O 0.07813 0.34366 0.93226 0.0
O643 O 0.09844 0.36884 0.89937 0.0
Co644 Co 0.41975 0.38004 0.65767 0.0
O645 O 0.44442 0.38143 0.62512 0.0
O646 O 0.45689 0.3688 0.66896 0.0
C647 C 0.39935 0.4228 0.64977 0.0
O648 O 0.40151 0.37732 0.69686 0.0
Co649 Co 0.35574 0.37844 0.65115 0.0
O650 O 0.35482 0.38084 0.69335 0.0
C651 C 0.38817 0.32729 0.63743 0.0
C652 C 0.46385 0.37311 0.64249 0.0
C653 C 0.37709 0.37912 0.70809 0.0
O654 O 0.40997 0.33896 0.64859 0.0
O655 O 0.36499 0.34031 0.63422 0.0
O656 O 0.42332 0.42135 0.66266 0.0
O657 O 0.38951 0.3989 0.63995 0.0
Co658 Co 0.32751 0.09092 0.36108 0.0
O659 O 0.30081 0.12115 0.36338 0.0
O660 O 0.2934 0.07695 0.37851 0.0
C661 C 0.34127 0.09918 0.31595 0.0
O662 O 0.34952 0.05374 0.3602 0.0
Co663 Co 0.39054 0.10527 0.35322 0.0
O664 O 0.395 0.06327 0.35196 0.0
C665 C 0.36504 0.11289 0.40954 0.0
C666 C 0.28398 0.10279 0.37521 0.0
C667 C 0.37486 0.04576 0.35574 0.0
O668 O 0.34233 0.10132 0.40023 0.0
O669 O 0.38611 0.1183 0.39363 0.0
O670 O 0.31824 0.08514 0.32085 0.0
O671 O 0.35316 0.11048 0.33808 0.0
C672 C 0.11345 0.27875 0.35087 0.0
C673 C 0.10902 0.30052 0.37162 0.0
C674 C 0.1257 0.26715 0.40793 0.0
C675 C 0.12317 0.24403 0.38832 0.0
N676 N 0.1066 0.22867 0.34154 0.0
N677 N 0.10517 0.31162 0.42213 0.0
C678 C 0.11471 0.24993 0.35985 0.0
C679 C 0.11358 0.29378 0.40085 0.0
N680 N 0.11791 0.28532 0.32282 0.0
N681 N 0.14049 0.26443 0.4327 0.0
H682 H 0.09351 0.32972 0.41821 0.0
H683 H 0.10642 0.30614 0.44368 0.0
H684 H 0.15234 0.24644 0.43749 0.0
H685 H 0.14414 0.28166 0.44644 0.0
H686 H 0.12276 0.26977 0.30761 0.0
H687 H 0.12101 0.30622 0.3157 0.0
H688 H 0.09865 0.23301 0.32126 0.0
H689 H 0.10394 0.20744 0.3477 0.0
C690 C 0.99415 0.84466 0.60788 0.0
C691 C 0.00672 0.86387 0.62776 0.0
C692 C 0.96004 0.87663 0.64473 0.0
C693 C 0.94772 0.86178 0.62134 0.0
N694 N 0.95515 0.83706 0.5763 0.0
N695 N 1.00027 0.90366 0.66038 0.0
C696 C 0.96531 0.84724 0.60166 0.0
C697 C 0.98933 0.88144 0.64494 0.0
N698 N 0.00925 0.82323 0.59555 0.0
N699 N 0.94419 0.88516 0.66742 0.0
H700 H 0.02125 0.90954 0.65959 0.0
H701 H 0.98782 0.91835 0.6712 0.0
H702 H 0.92304 0.88008 0.66938 0.0
H703 H 0.95288 0.89401 0.68589 0.0
H704 H 1.00006 0.80721 0.58309 0.0
H705 H 0.0301 0.81933 0.60037 0.0
H706 H 0.96803 0.82875 0.5604 0.0
H707 H 0.93467 0.83989 0.56958 0.0
C708 C 0.36297 0.73689 0.86838 0.0
C709 C 0.38472 0.75698 0.87356 0.0
C710 C 0.41961 0.72106 0.8607 0.0
C711 C 0.39786 0.70158 0.8536 0.0
N712 N 0.34883 0.69306 0.84458 0.0
N713 N 0.43312 0.77026 0.86879 0.0
C714 C 0.36949 0.71002 0.85581 0.0
C715 C 0.41287 0.74965 0.86804 0.0
N716 N 0.33613 0.74326 0.87593 0.0
N717 N 0.44668 0.71207 0.86152 0.0
H718 H 0.42857 0.79142 0.87337 0.0
H719 H 0.45359 0.76706 0.86203 0.0
H720 H 0.45253 0.6914 0.8561 0.0
H721 H 0.463 0.72431 0.86988 0.0
H722 H 0.31994 0.72827 0.87576 0.0
H723 H 0.33037 0.76301 0.88443 0.0
H724 H 0.32812 0.69948 0.84282 0.0
H725 H 0.35273 0.67366 0.83435 0.0
C726 C 0.50865 0.10883 0.13422 0.0
C727 C 0.49249 0.12955 0.11949 0.0
C728 C 0.53463 0.14558 0.09456 0.0
C729 C 0.55147 0.12795 0.11227 0.0
N730 N 0.5538 0.0983 0.1546 0.0
N731 N 0.49258 0.17348 0.09219 0.0
C732 C 0.53833 0.11109 0.13377 0.0
C733 C 0.50621 0.14972 0.10167 0.0
N734 N 0.49599 0.08627 0.14759 0.0
N735 N 0.54512 0.15736 0.07009 0.0
H736 H 0.47219 0.1784 0.09815 0.0
H737 H 0.50272 0.18996 0.08127 0.0
H738 H 0.56509 0.15319 0.06243 0.0
H739 H 0.53269 0.16835 0.05553 0.0
H740 H 0.5072 0.06934 0.15632 0.0
H741 H 0.47449 0.08274 0.14718 0.0
H742 H 0.54476 0.08794 0.17203 0.0
H743 H 0.57535 0.10092 0.15642 0.0
C744 C 0.10625 0.7145 0.1394 0.0
C745 C 0.12233 0.69266 0.12622 0.0
C746 C 0.14479 0.72922 0.09698 0.0
C747 C 0.12394 0.74944 0.10454 0.0
N748 N 0.08292 0.75957 0.13343 0.0
N749 N 0.15302 0.67949 0.08721 0.0
C750 C 0.10413 0.74173 0.126 0.0
C751 C 0.1406 0.70003 0.10355 0.0
N752 N 0.09411 0.70988 0.16542 0.0
N753 N 0.16929 0.7379 0.0847 0.0
H754 H 0.14882 0.6577 0.0894 0.0
H755 H 0.16483 0.6845 0.06915 0.0
H756 H 0.17469 0.75943 0.08236 0.0
H757 H 0.18567 0.72383 0.08069 0.0
H758 H 0.08429 0.72599 0.17703 0.0
H759 H 0.09686 0.69109 0.17704 0.0
H760 H 0.06615 0.75298 0.14606 0.0
H761 H 0.0809 0.78022 0.12582 0.0
C762 C 0.50183 0.83551 0.37171 0.0
C763 C 0.49455 0.86331 0.36247 0.0
C764 C 0.53936 0.88222 0.37941 0.0
C765 C 0.54764 0.85406 0.38688 0.0
N766 N 0.53878 0.80308 0.38524 0.0
N767 N 0.50807 0.91187 0.35181 0.0
C768 C 0.52944 0.83042 0.38166 0.0
C769 C 0.51393 0.88623 0.36442 0.0
N770 N 0.48215 0.81417 0.37169 0.0
N771 N 0.55468 0.90537 0.38837 0.0
H772 H 0.48949 0.91563 0.34084 0.0
H773 H 0.52264 0.9284 0.3499 0.0
H774 H 0.57266 0.90372 0.40078 0.0
H775 H 0.54798 0.9264 0.38613 0.0
H776 H 0.48511 0.79438 0.38138 0.0
H777 H 0.46205 0.81692 0.36357 0.0
H778 H 0.52748 0.78503 0.37896 0.0
H779 H 0.55897 0.79834 0.39195 0.0
C780 C 0.40576 0.25989 0.59557 0.0
C781 C 0.38295 0.24234 0.60384 0.0
C782 C 0.36991 0.27726 0.64033 0.0
C783 C 0.38927 0.29698 0.62836 0.0
N784 N 0.42496 0.30787 0.59344 0.0
N785 N 0.34269 0.23385 0.63357 0.0
C786 C 0.40745 0.2884 0.60601 0.0
C787 C 0.36506 0.25067 0.6264 0.0
N788 N 0.42578 0.24916 0.57779 0.0
N789 N 0.35653 0.28386 0.66525 0.0
H790 H 0.33892 0.21394 0.62421 0.0
H791 H 0.32698 0.24035 0.64747 0.0
H792 H 0.36006 0.30303 0.67617 0.0
H793 H 0.34413 0.26938 0.67649 0.0
H794 H 0.44437 0.25987 0.57318 0.0
H795 H 0.425 0.22827 0.56987 0.0
H796 H 0.43635 0.3036 0.57499 0.0
H797 H 0.42666 0.32908 0.60012 0.0
C798 C 0.99598 0.11003 0.86479 0.0
C799 C 0.01443 0.1338 0.86396 0.0
C800 C 0.97725 0.16536 0.8808 0.0
C801 C 0.95955 0.14108 0.88435 0.0
N802 N 0.9536 0.08966 0.88452 0.0
N803 N 0.02406 0.18372 0.87256 0.0
C804 C 0.96918 0.11322 0.87736 0.0
C805 C 0.00545 0.1614 0.87232 0.0
N806 N 0.00405 0.0844 0.85341 0.0
N807 N 0.96684 0.19228 0.88462 0.0
H808 H 0.04433 0.18201 0.86467 0.0
H809 H 0.02005 0.20349 0.88193 0.0
H810 H 0.94633 0.1962 0.89078 0.0
H811 H 0.97768 0.21092 0.8794 0.0
H812 H 0.99047 0.06715 0.85044 0.0
H813 H 0.02382 0.0811 0.84469 0.0
H814 H 0.96092 0.06879 0.88287 0.0
H815 H 0.9343 0.09083 0.8947 0.0
C816 C 0.37078 0.08347 0.2416 0.0
C817 C 0.38072 0.11116 0.23434 0.0
C818 C 0.36084 0.13102 0.27812 0.0
C819 C 0.35297 0.10304 0.28686 0.0
N820 N 0.35036 0.05215 0.27744 0.0
N821 N 0.38949 0.16036 0.24708 0.0
C822 C 0.35763 0.07908 0.2686 0.0
C823 C 0.37701 0.13464 0.25303 0.0
N824 N 0.37412 0.06147 0.2226 0.0
N825 N 0.35132 0.15433 0.29283 0.0
H826 H 0.40139 0.1639 0.22875 0.0
H827 H 0.39021 0.17737 0.26148 0.0
H828 H 0.338 0.15274 0.31038 0.0
H829 H 0.35394 0.17531 0.28581 0.0
H830 H 0.36499 0.04135 0.2247 0.0
H831 H 0.38557 0.06364 0.20378 0.0
H832 H 0.35465 0.03352 0.26615 0.0
H833 H 0.34166 0.04775 0.29732 0.0
C834 C 0.15413 0.14817 0.51478 0.0
C835 C 0.12924 0.14137 0.49987 0.0
C836 C 0.11497 0.10903 0.53824 0.0
C837 C 0.13733 0.11972 0.55517 0.0
N838 N 0.17738 0.15106 0.56059 0.0
N839 N 0.08555 0.11579 0.49659 0.0
C840 C 0.15703 0.13936 0.5436 0.0
C841 C 0.10964 0.12164 0.51121 0.0
N842 N 0.17492 0.1631 0.50131 0.0
N843 N 0.09931 0.08644 0.54781 0.0
H844 H 0.08163 0.12381 0.47619 0.0
H845 H 0.06889 0.10427 0.50518 0.0
H846 H 0.10306 0.07643 0.56733 0.0
H847 H 0.08436 0.07595 0.53541 0.0
H848 H 0.19472 0.16625 0.51001 0.0
H849 H 0.17322 0.17001 0.4802 0.0
H850 H 0.19036 0.1678 0.55417 0.0
H851 H 0.17996 0.14571 0.58201 0.0
C852 C 0.13981 0.86241 0.78788 0.0
C853 C 0.13068 0.88563 0.80501 0.0
C854 C 0.10712 0.90612 0.76327 0.0
C855 C 0.11295 0.88087 0.74753 0.0
N856 N 0.1299 0.83221 0.7472 0.0
N857 N 0.10158 0.92744 0.81009 0.0
C858 C 0.12801 0.85825 0.76042 0.0
C859 C 0.1133 0.90704 0.793 0.0
N860 N 0.16046 0.84478 0.79741 0.0
N861 N 0.09653 0.92954 0.74971 0.0
H862 H 0.10478 0.92841 0.83209 0.0
H863 H 0.08652 0.94171 0.80289 0.0
H864 H 0.09232 0.9299 0.72785 0.0
H865 H 0.09456 0.94945 0.75955 0.0
H866 H 0.16984 0.82935 0.78454 0.0
H867 H 0.17035 0.84762 0.81704 0.0
H868 H 0.13818 0.81422 0.75714 0.0
H869 H 0.12055 0.8276 0.72761 0.0
C870 C 0.33758 0.85225 0.00391 0.0
C871 C 0.36594 0.85024 0.99538 0.0
C872 C 0.38078 0.87678 0.03807 0.0
C873 C 0.35235 0.87943 0.04629 0.0
N874 N 0.30336 0.87413 0.03509 0.0
N875 N 0.41408 0.86463 0.00104 0.0
C876 C 0.33063 0.86866 0.02851 0.0
C877 C 0.38745 0.86352 0.01163 0.0
N878 N 0.31748 0.83729 0.98927 0.0
N879 N 0.40148 0.88715 0.05549 0.0
H880 H 0.41989 0.855 0.98187 0.0
H881 H 0.43008 0.8769 0.00995 0.0
H882 H 0.39768 0.89986 0.07337 0.0
H883 H 0.42251 0.8823 0.05293 0.0
H884 H 0.2969 0.83521 0.9961 0.0
H885 H 0.32178 0.82495 0.97123 0.0
H886 H 0.28674 0.86985 0.02137 0.0
H887 H 0.29732 0.88487 0.05356 0.0
C888 C 0.3853 0.86577 0.24296 0.0
C889 C 0.37244 0.88664 0.26062 0.0
C890 C 0.34469 0.90238 0.2197 0.0
C891 C 0.3605 0.88448 0.20132 0.0
N892 N 0.40174 0.85533 0.19539 0.0
N893 N 0.34552 0.93035 0.263 0.0
C894 C 0.38262 0.868 0.21288 0.0
C895 C 0.35386 0.90669 0.24817 0.0
N896 N 0.3988 0.84291 0.25463 0.0
N897 N 0.32012 0.91407 0.21075 0.0
H898 H 0.35271 0.93532 0.28343 0.0
H899 H 0.33401 0.94671 0.25362 0.0
H900 H 0.31118 0.90966 0.19091 0.0
H901 H 0.30692 0.92527 0.22444 0.0
H902 H 0.40632 0.82603 0.2423 0.0
H903 H 0.39948 0.83897 0.27651 0.0
H904 H 0.41946 0.8451 0.20321 0.0
H905 H 0.40183 0.85803 0.17329 0.0
C906 C 0.36312 0.10786 0.49098 0.0
C907 C 0.37722 0.13367 0.49846 0.0
C908 C 0.37743 0.1478 0.44816 0.0
C909 C 0.36734 0.12033 0.44029 0.0
N910 N 0.35605 0.07188 0.45454 0.0
N911 N 0.40473 0.17432 0.4825 0.0
C912 C 0.3616 0.09967 0.46177 0.0
C913 C 0.38628 0.15265 0.47662 0.0
N914 N 0.35027 0.09159 0.51139 0.0
N915 N 0.37798 0.16955 0.4287 0.0
H916 H 0.41393 0.17726 0.50248 0.0
H917 H 0.41363 0.18706 0.46664 0.0
H918 H 0.37048 0.16723 0.4079 0.0
H919 H 0.38287 0.19062 0.43426 0.0
H920 H 0.33742 0.07418 0.50645 0.0
H921 H 0.34964 0.09723 0.53291 0.0
H922 H 0.35469 0.05548 0.46953 0.0
H923 H 0.35572 0.06466 0.43352 0.0
C924 C 0.13891 0.08824 0.75418 0.0
C925 C 0.13668 0.11698 0.76365 0.0
C926 C 0.15204 0.13457 0.71706 0.0
C927 C 0.154 0.10582 0.7073 0.0
N928 N 0.14648 0.05528 0.7149 0.0
N929 N 0.13475 0.16725 0.75325 0.0
C930 C 0.1467 0.08261 0.72543 0.0
C931 C 0.14125 0.14009 0.74476 0.0
N932 N 0.13394 0.06639 0.77294 0.0
N933 N 0.16209 0.15645 0.70055 0.0
H934 H 0.12651 0.17175 0.77338 0.0
H935 H 0.13495 0.18483 0.73963 0.0
H936 H 0.1709 0.15334 0.68043 0.0
H937 H 0.16404 0.17747 0.70772 0.0
H938 H 0.13882 0.04508 0.76904 0.0
H939 H 0.12545 0.06972 0.79315 0.0
H940 H 0.13877 0.03762 0.72592 0.0
H941 H 0.15244 0.05019 0.69413 0.0
C942 C 0.15228 0.88197 0.00758 0.0
C943 C 0.12434 0.87471 0.01425 0.0
C944 C 0.11021 0.88835 0.96582 0.0
C945 C 0.13882 0.89191 0.95833 0.0
N946 N 0.18719 0.88519 0.97067 0.0
N947 N 0.07668 0.86785 0.999 0.0
C948 C 0.1599 0.88678 0.97884 0.0
C949 C 0.10325 0.87689 0.99311 0.0
N950 N 0.1714 0.88528 0.02886 0.0
N951 N 0.08972 0.89725 0.94762 0.0
H952 H 0.07063 0.86052 0.01912 0.0
H953 H 0.06119 0.86589 0.98348 0.0
H954 H 0.09385 0.90648 0.92781 0.0
H955 H 0.06869 0.89791 0.95323 0.0
H956 H 0.19166 0.89287 0.02556 0.0
H957 H 0.16555 0.88393 0.05012 0.0
H958 H 0.20319 0.87898 0.98437 0.0
H959 H 0.19318 0.88664 0.94939 0.0
C960 C 0.27819 0.37208 0.09 0.0
C961 C 0.29541 0.35974 0.11131 0.0
C962 C 0.26029 0.37105 0.14772 0.0
C963 C 0.24207 0.38068 0.12591 0.0
N964 N 0.23179 0.38676 0.07585 0.0
N965 N 0.30173 0.34414 0.15996 0.0
C966 C 0.25051 0.3803 0.09691 0.0
C967 C 0.28618 0.35837 0.14009 0.0
N968 N 0.28865 0.37703 0.06338 0.0
N969 N 0.2532 0.37489 0.17576 0.0
H970 H 0.32092 0.33479 0.15528 0.0
H971 H 0.29469 0.33962 0.18051 0.0
H972 H 0.23445 0.38421 0.1821 0.0
H973 H 0.26681 0.37119 0.19268 0.0
H974 H 0.27834 0.38878 0.04777 0.0
H975 H 0.3089 0.37163 0.05789 0.0
H976 H 0.23564 0.38335 0.05422 0.0
H977 H 0.21146 0.39345 0.08001 0.0
C978 C 0.76045 0.13921 0.88933 0.0
C979 C 0.75078 0.11215 0.87918 0.0
C980 C 0.79949 0.09758 0.87191 0.0
C981 C 0.80863 0.12567 0.87873 0.0
N982 N 0.79685 0.17513 0.88673 0.0
N983 N 0.76182 0.06891 0.85279 0.0
C984 C 0.78885 0.14704 0.88546 0.0
C985 C 0.77047 0.09211 0.86835 0.0
N986 N 0.74291 0.15731 0.90339 0.0
N987 N 0.81836 0.07593 0.86937 0.0
H988 H 0.74108 0.06521 0.84711 0.0
H989 H 0.77565 0.05529 0.84237 0.0
H990 H 0.83978 0.07898 0.87221 0.0
H991 H 0.81243 0.05453 0.86726 0.0
H992 H 0.74984 0.1757 0.91393 0.0
H993 H 0.72202 0.15266 0.90702 0.0
H994 H 0.78272 0.19189 0.88874 0.0
H995 H 0.81717 0.18191 0.88239 0.0
C996 C 0.12089 0.49724 0.12478 0.0
C997 C 0.11724 0.47976 0.14931 0.0
C998 C 0.10462 0.522 0.17738 0.0
C999 C 0.10487 0.53893 0.15228 0.0
N1000 N 0.108 0.54106 0.10075 0.0
N1001 N 0.09971 0.47483 0.19759 0.0
C1002 C 0.11188 0.52625 0.12559 0.0
C1003 C 0.10726 0.4919 0.17517 0.0
N1004 N 0.13223 0.486 0.10046 0.0
N1005 N 0.10306 0.53476 0.20358 0.0
H1006 H 0.10139 0.45265 0.19731 0.0
H1007 H 0.08945 0.48254 0.21563 0.0
H1008 H 0.10246 0.55684 0.20606 0.0
H1009 H 0.1057 0.52376 0.22273 0.0
H1010 H 0.13848 0.4985 0.08318 0.0
H1011 H 0.13705 0.4644 0.09815 0.0
H1012 H 0.10984 0.53183 0.08058 0.0
H1013 H 0.10017 0.56178 0.10004 0.0
C1014 C 0.70899 0.89251 0.4028 0.0
C1015 C 0.69879 0.86784 0.38843 0.0
C1016 C 0.74623 0.85569 0.37358 0.0
C1017 C 0.75692 0.87791 0.3913 0.0
N1018 N 0.74863 0.91756 0.42343 0.0
N1019 N 0.70745 0.824 0.36273 0.0
C1020 C 0.73835 0.89658 0.4059 0.0
C1021 C 0.71733 0.84893 0.37446 0.0
N1022 N 0.69057 0.91242 0.41277 0.0
N1023 N 0.76355 0.84193 0.3549 0.0
H1024 H 0.68633 0.81839 0.36258 0.0
H1025 H 0.72041 0.80782 0.35523 0.0
H1026 H 0.78463 0.84722 0.35264 0.0
H1027 H 0.75645 0.82754 0.33946 0.0
H1028 H 0.69654 0.93236 0.42069 0.0
H1029 H 0.66896 0.90988 0.41113 0.0
H1030 H 0.73633 0.92911 0.43765 0.0
H1031 H 0.76975 0.92268 0.42492 0.0
C1032 C 0.86088 0.96121 0.16205 0.0
C1033 C 0.88521 0.94972 0.14947 0.0
C1034 C 0.88679 0.99061 0.11684 0.0
C1035 C 0.86583 0.00442 0.13332 0.0
N1036 N 0.83825 0.00464 0.17674 0.0
N1037 N 0.92304 0.95472 0.11569 0.0
C1038 C 0.85425 0.99025 0.15735 0.0
C1039 C 0.89887 0.96492 0.12724 0.0
N1040 N 0.84353 0.94436 0.1778 0.0
N1041 N 0.89396 0.00086 0.0905 0.0
H1042 H 0.93164 0.93511 0.12139 0.0
H1043 H 0.93544 0.96665 0.10176 0.0
H1044 H 0.88405 0.01818 0.08097 0.0
H1045 H 0.90732 0.9901 0.07665 0.0
H1046 H 0.82427 0.95134 0.18543 0.0
H1047 H 0.84698 0.9226 0.18012 0.0
H1048 H 0.83142 0.99535 0.19575 0.0
H1049 H 0.8348 0.02661 0.17578 0.0
C1050 C 0.22364 0.63736 0.63248 0.0
C1051 C 0.21324 0.64764 0.60579 0.0
C1052 C 0.25932 0.63975 0.58403 0.0
C1053 C 0.27013 0.63206 0.611 0.0
N1054 N 0.26412 0.62529 0.66148 0.0
N1055 N 0.22335 0.6632 0.55727 0.0
C1056 C 0.25263 0.63092 0.63534 0.0
C1057 C 0.23168 0.65018 0.58194 0.0
N1058 N 0.2062 0.63475 0.65546 0.0
N1059 N 0.27523 0.63603 0.56003 0.0
H1060 H 0.20281 0.66836 0.55246 0.0
H1061 H 0.2373 0.66989 0.54152 0.0
H1062 H 0.29561 0.62828 0.56058 0.0
H1063 H 0.26736 0.63786 0.53937 0.0
H1064 H 0.21127 0.6234 0.67383 0.0
H1065 H 0.18626 0.64341 0.65627 0.0
H1066 H 0.25354 0.62739 0.68076 0.0
H1067 H 0.2851 0.62006 0.66414 0.0
C1068 C 0.127 0.46811 0.35781 0.0
C1069 C 0.10717 0.45711 0.37749 0.0
C1070 C 0.10119 0.50498 0.39781 0.0
C1071 C 0.11828 0.51651 0.37585 0.0
N1072 N 0.14347 0.50941 0.33162 0.0
N1073 N 0.07134 0.4658 0.4127 0.0
C1074 C 0.13017 0.49819 0.35492 0.0
C1075 C 0.09312 0.47573 0.39656 0.0
N1076 N 0.14363 0.44988 0.34267 0.0
N1077 N 0.09359 0.52164 0.42049 0.0
H1078 H 0.0643 0.44465 0.41193 0.0
H1079 H 0.05854 0.47916 0.42472 0.0
H1080 H 0.10004 0.54286 0.4227 0.0
H1081 H 0.08347 0.51359 0.43849 0.0
H1082 H 0.1604 0.4568 0.33025 0.0
H1083 H 0.14235 0.42768 0.34455 0.0
H1084 H 0.14959 0.49707 0.31418 0.0
H1085 H 0.14616 0.5313 0.32838 0.0
C1086 C 0.36528 0.53605 0.85202 0.0
C1087 C 0.38715 0.54797 0.86867 0.0
C1088 C 0.39612 0.50117 0.88985 0.0
C1089 C 0.37699 0.48846 0.87036 0.0
N1090 N 0.34596 0.49362 0.82979 0.0
N1091 N 0.42646 0.54143 0.90022 0.0
C1092 C 0.36208 0.50583 0.85068 0.0
C1093 C 0.4034 0.53044 0.88678 0.0
N1094 N 0.3471 0.55363 0.8381 0.0
N1095 N 0.4065 0.48558 0.91204 0.0
H1096 H 0.43266 0.56278 0.8984 0.0
H1097 H 0.44083 0.52882 0.91107 0.0
H1098 H 0.40065 0.46442 0.91566 0.0
H1099 H 0.41836 0.49446 0.92852 0.0
H1100 H 0.32896 0.54629 0.82813 0.0
H1101 H 0.34877 0.5759 0.83873 0.0
H1102 H 0.33745 0.5052 0.81294 0.0
H1103 H 0.34292 0.47166 0.82766 0.0
C1104 C 0.9114 0.70747 0.60739 0.0
C1105 C 0.89686 0.6929 0.6293 0.0
C1106 C 0.86511 0.73356 0.6337 0.0
C1107 C 0.88315 0.75008 0.61607 0.0
N1108 N 0.92674 0.75354 0.59002 0.0
N1109 N 0.86009 0.69247 0.66459 0.0
C1110 C 0.90712 0.73724 0.60373 0.0
C1111 C 0.87379 0.70609 0.6429 0.0
N1112 N 0.9289 0.69284 0.58979 0.0
N1113 N 0.83905 0.74333 0.64037 0.0
H1114 H 0.8643 0.67147 0.67049 0.0
H1115 H 0.84555 0.70259 0.67767 0.0
H1116 H 0.83108 0.76247 0.63252 0.0
H1117 H 0.82413 0.73094 0.65092 0.0
H1118 H 0.93834 0.70202 0.57193 0.0
H1119 H 0.93124 0.67076 0.59126 0.0
H1120 H 0.94576 0.74534 0.58306 0.0
H1121 H 0.92558 0.77574 0.58845 0.0
C1122 C 0.00591 0.12713 0.38239 0.0
C1123 C 0.98712 0.1495 0.37576 0.0
C1124 C 0.02549 0.18416 0.37848 0.0
C1125 C 0.04297 0.16291 0.39037 0.0
N1126 N 0.04907 0.11403 0.40593 0.0
N1127 N 0.97815 0.2001 0.3717 0.0
C1128 C 0.03324 0.13415 0.39247 0.0
C1129 C 0.9967 0.17824 0.37472 0.0
N1130 N 0.99743 0.09928 0.37971 0.0
N1131 N 0.03648 0.21012 0.3709 0.0
H1132 H 0.95672 0.19671 0.36987 0.0
H1133 H 0.98371 0.2216 0.37383 0.0
H1134 H 0.05767 0.21497 0.3731 0.0
H1135 H 0.02524 0.22554 0.35979 0.0
H1136 H 0.01096 0.08202 0.38153 0.0
H1137 H 0.97727 0.09352 0.37336 0.0
H1138 H 0.04165 0.0937 0.4111 0.0
H1139 H 0.06901 0.11817 0.41387 0.0
C1140 C 0.62168 0.26427 0.10226 0.0
C1141 C 0.61021 0.24031 0.11647 0.0
C1142 C 0.5796 0.27196 0.14403 0.0
C1143 C 0.5912 0.29622 0.12944 0.0
N1144 N 0.61147 0.31113 0.08453 0.0
N1145 N 0.5734 0.22033 0.14543 0.0
C1146 C 0.60886 0.29122 0.10557 0.0
C1147 C 0.58786 0.24382 0.13595 0.0
N1148 N 0.64505 0.26151 0.08575 0.0
N1149 N 0.56023 0.27536 0.16512 0.0
H1150 H 0.5786 0.19943 0.13983 0.0
H1151 H 0.55479 0.22151 0.15685 0.0
H1152 H 0.54826 0.29365 0.16747 0.0
H1153 H 0.55549 0.2595 0.17998 0.0
H1154 H 0.6556 0.27909 0.07716 0.0
H1155 H 0.65544 0.24213 0.08313 0.0
H1156 H 0.62308 0.30776 0.066 0.0
H1157 H 0.5978 0.32819 0.08304 0.0
C1158 C 0.46297 0.84853 0.86474 0.0
C1159 C 0.45235 0.85609 0.89183 0.0
C1160 C 0.49507 0.88313 0.9019 0.0
C1161 C 0.50818 0.86915 0.87856 0.0
N1162 N 0.50414 0.83868 0.83671 0.0
N1163 N 0.456 0.88372 0.93494 0.0
C1164 C 0.4919 0.85246 0.85918 0.0
C1165 C 0.46761 0.87476 0.90987 0.0
N1166 N 0.44538 0.83754 0.84451 0.0
N1167 N 0.50881 0.90465 0.91599 0.0
H1168 H 0.4351 0.87963 0.9399 0.0
H1169 H 0.46708 0.89444 0.95088 0.0
H1170 H 0.52857 0.91186 0.90979 0.0
H1171 H 0.49966 0.91717 0.93181 0.0
H1172 H 0.45138 0.83368 0.82347 0.0
H1173 H 0.42398 0.83529 0.84811 0.0
H1174 H 0.49381 0.82335 0.82438 0.0
H1175 H 0.52511 0.84096 0.83134 0.0
C1176 C 0.90916 0.24899 0.8497 0.0
C1177 C 0.89055 0.23487 0.8688 0.0
C1178 C 0.87615 0.28159 0.8873 0.0
C1179 C 0.89076 0.29543 0.86486 0.0
N1180 N 0.91702 0.29089 0.82079 0.0
N1181 N 0.85134 0.23895 0.90137 0.0
C1182 C 0.9062 0.2788 0.84496 0.0
C1183 C 0.87265 0.25148 0.88645 0.0
N1184 N 0.93045 0.23444 0.8369 0.0
N1185 N 0.86636 0.29697 0.91 0.0
H1186 H 0.84663 0.21722 0.9002 0.0
H1187 H 0.83631 0.25074 0.91228 0.0
H1188 H 0.8699 0.3189 0.91231 0.0
H1189 H 0.85776 0.28735 0.92807 0.0
H1190 H 0.94609 0.24464 0.82516 0.0
H1191 H 0.93448 0.21291 0.84057 0.0
H1192 H 0.92575 0.27882 0.80434 0.0
H1193 H 0.9148 0.31238 0.81561 0.0
C1194 C 0.46829 0.16403 0.62478 0.0
C1195 C 0.45266 0.14074 0.61345 0.0
C1196 C 0.4887 0.10726 0.62918 0.0
C1197 C 0.50566 0.13081 0.6375 0.0
N1198 N 0.51325 0.18176 0.64116 0.0
N1199 N 0.44874 0.09052 0.60192 0.0
C1200 C 0.49584 0.15927 0.63495 0.0
C1201 C 0.46292 0.11237 0.61508 0.0
N1202 N 0.45646 0.19055 0.62649 0.0
N1203 N 0.49707 0.08001 0.63528 0.0
H1204 H 0.42973 0.09334 0.59146 0.0
H1205 H 0.45672 0.07 0.59946 0.0
H1206 H 0.5159 0.07554 0.64551 0.0
H1207 H 0.48443 0.06202 0.63248 0.0
H1208 H 0.46562 0.2078 0.63712 0.0
H1209 H 0.43625 0.19475 0.61938 0.0
H1210 H 0.50863 0.20295 0.63636 0.0
H1211 H 0.53328 0.17913 0.64944 0.0
C1212 C 0.63571 0.74473 0.38325 0.0
C1213 C 0.61755 0.76244 0.36719 0.0
C1214 C 0.60271 0.72043 0.33968 0.0
C1215 C 0.61722 0.70222 0.35889 0.0
N1216 N 0.64105 0.69813 0.40441 0.0
N1217 N 0.57794 0.76488 0.33498 0.0
C1218 C 0.63191 0.71463 0.38229 0.0
C1219 C 0.5993 0.74969 0.34681 0.0
N1220 N 0.65731 0.75632 0.39854 0.0
N1221 N 0.59324 0.71043 0.31398 0.0
H1222 H 0.57347 0.78595 0.34051 0.0
H1223 H 0.56267 0.75537 0.32215 0.0
H1224 H 0.59702 0.6898 0.30661 0.0
H1225 H 0.58469 0.72378 0.29849 0.0
H1226 H 0.6723 0.7438 0.40863 0.0
H1227 H 0.66227 0.77808 0.39821 0.0
H1228 H 0.64986 0.70688 0.42286 0.0
H1229 H 0.63664 0.67633 0.40605 0.0
C1230 C 0.0362 0.88014 0.13141 0.0
C1231 C 0.04194 0.8523 0.12057 0.0
C1232 C 0.99437 0.83672 0.13348 0.0
C1233 C 0.98938 0.86406 0.14557 0.0
N1234 N 0.00642 0.91023 0.1606 0.0
N1235 N 0.02707 0.80333 0.1127 0.0
C1236 C 0.01064 0.88524 0.14603 0.0
C1237 C 0.02112 0.83041 0.12187 0.0
N1238 N 0.05423 0.90228 0.1259 0.0
N1239 N 0.97325 0.8169 0.13275 0.0
H1240 H 0.0453 0.79805 0.10195 0.0
H1241 H 0.01455 0.78553 0.11677 0.0
H1242 H 0.95437 0.81977 0.14338 0.0
H1243 H 0.97378 0.79812 0.12079 0.0
H1244 H 0.04981 0.92357 0.13051 0.0
H1245 H 0.07246 0.89998 0.11399 0.0
H1246 H 0.02215 0.92521 0.16454 0.0
H1247 H 0.98767 0.91495 0.17089 0.0
C1248 C 0.63041 0.92264 0.72505 0.0
C1249 C 0.63931 0.89893 0.70839 0.0
C1250 C 0.62423 0.86601 0.74611 0.0
C1251 C 0.6173 0.88979 0.76349 0.0
N1252 N 0.61722 0.94071 0.77175 0.0
N1253 N 0.64994 0.84857 0.7052 0.0
C1254 C 0.62129 0.91814 0.75358 0.0
C1255 C 0.63758 0.87071 0.71946 0.0
N1256 N 0.62979 0.94933 0.71329 0.0
N1257 N 0.61735 0.83893 0.75476 0.0
H1258 H 0.66048 0.85111 0.68588 0.0
H1259 H 0.65207 0.82815 0.71377 0.0
H1260 H 0.60776 0.83459 0.7743 0.0
H1261 H 0.61895 0.821 0.74163 0.0
H1262 H 0.62058 0.96695 0.72304 0.0
H1263 H 0.63664 0.95339 0.69266 0.0
H1264 H 0.62285 0.9617 0.76692 0.0
H1265 H 0.6101 0.93823 0.79266 0.0
C1266 C 0.87778 0.87934 0.50766 0.0
C1267 C 0.85462 0.88211 0.52639 0.0
C1268 C 0.82441 0.89277 0.4858 0.0
C1269 C 0.84795 0.89336 0.4675 0.0
N1270 N 0.89814 0.8922 0.46206 0.0
N1271 N 0.80718 0.89817 0.53384 0.0
C1272 C 0.87497 0.88767 0.47857 0.0
C1273 C 0.82834 0.89093 0.51568 0.0
N1274 N 0.90271 0.86956 0.51779 0.0
N1275 N 0.79814 0.89269 0.47452 0.0
H1276 H 0.80881 0.89711 0.55598 0.0
H1277 H 0.78874 0.90764 0.52694 0.0
H1278 H 0.79467 0.89214 0.45262 0.0
H1279 H 0.78015 0.88956 0.48668 0.0
H1280 H 0.9192 0.8636 0.50459 0.0
H1281 H 0.90642 0.86602 0.5394 0.0
H1282 H 0.91844 0.89156 0.47 0.0
H1283 H 0.89726 0.89918 0.44097 0.0
C1284 C 0.89937 0.12026 0.2018 0.0
C1285 C 0.87186 0.11073 0.19537 0.0
C1286 C 0.86609 0.09641 0.24522 0.0
C1287 C 0.8911 0.1111 0.25251 0.0
N1288 N 0.92858 0.1428 0.23726 0.0
N1289 N 0.82695 0.0942 0.21277 0.0
C1290 C 0.90712 0.12452 0.23071 0.0
C1291 C 0.85459 0.09987 0.21754 0.0
N1292 N 0.91846 0.12442 0.1805 0.0
N1293 N 0.85377 0.07846 0.26445 0.0
H1294 H 0.81712 0.09804 0.1933 0.0
H1295 H 0.81315 0.08866 0.22909 0.0
H1296 H 0.86298 0.07403 0.28407 0.0
H1297 H 0.8367 0.06544 0.25945 0.0
H1298 H 0.93944 0.12898 0.18458 0.0
H1299 H 0.91424 0.11992 0.1591 0.0
H1300 H 0.93885 0.15501 0.22184 0.0
H1301 H 0.93411 0.1484 0.25805 0.0
C1302 C 0.61555 0.11102 0.96923 0.0
C1303 C 0.6407 0.11725 0.95402 0.0
C1304 C 0.66573 0.11818 -0.00045 0.0
C1305 C 0.64015 0.11831 0.01454 0.0
N1306 N 0.58983 0.11638 0.01348 0.0
N1307 N 0.68847 0.13407 0.95664 0.0
C1308 C 0.61472 0.11558 -0.00071 0.0
C1309 C 0.66551 0.12284 0.96974 0.0
N1310 N 0.59328 0.09849 0.95575 0.0
N1311 N 0.69014 0.11267 0.01339 0.0
H1312 H 0.68784 0.1409 0.93553 0.0
H1313 H 0.70643 0.14016 0.96778 0.0
H1314 H 0.69076 0.10715 0.03495 0.0
H1315 H 0.70908 0.11037 0.00265 0.0
H1316 H 0.57551 0.0915 0.96659 0.0
H1317 H 0.59384 0.0915 0.93463 0.0
H1318 H 0.57067 0.11773 0.00301 0.0
H1319 H 0.58852 0.11728 0.0357 0.0
C1320 C 0.63943 0.13516 0.78637 0.0
C1321 C 0.64465 0.10734 0.79739 0.0
C1322 C 0.63292 0.08605 0.75089 0.0
C1323 C 0.6273 0.11375 0.74018 0.0
N1324 N 0.61914 0.16381 0.74851 0.0
N1325 N 0.64098 0.05601 0.79208 0.0
C1326 C 0.62841 0.13801 0.75829 0.0
C1327 C 0.63977 0.08268 0.7802 0.0
N1328 N 0.64697 0.1589 0.80175 0.0
N1329 N 0.63232 0.06301 0.73279 0.0
H1330 H 0.64581 0.05255 0.81346 0.0
H1331 H 0.63474 0.03738 0.78158 0.0
H1332 H 0.62541 0.06432 0.71171 0.0
H1333 H 0.63992 0.04289 0.73812 0.0
H1334 H 0.64663 0.17956 0.79351 0.0
H1335 H 0.65595 0.15799 0.82199 0.0
H1336 H 0.61664 0.1817 0.76154 0.0
H1337 H 0.6116 0.16666 0.7278 0.0
C1338 C 0.61689 0.84252 0.51836 0.0
C1339 C 0.62955 0.85942 0.49669 0.0
C1340 C 0.64461 0.89427 0.53281 0.0
C1341 C 0.63422 0.87603 0.55466 0.0
N1342 N 0.61718 0.82927 0.56828 0.0
N1343 N 0.66177 0.89736 0.48431 0.0
C1344 C 0.62242 0.84904 0.54745 0.0
C1345 C 0.64534 0.88411 0.50421 0.0
N1346 N 0.59835 0.82126 0.5114 0.0
N1347 N 0.6524 0.9218 0.53894 0.0
H1348 H 0.66376 0.88983 0.46343 0.0
H1349 H 0.67573 0.91381 0.48937 0.0
H1350 H 0.65113 0.93067 0.55934 0.0
H1351 H 0.6574 0.93673 0.52322 0.0
H1352 H 0.58648 0.81037 0.5266 0.0
H1353 H 0.59252 0.81651 0.49047 0.0
H1354 H 0.61111 0.80828 0.56381 0.0
H1355 H 0.62184 0.83286 0.58976 0.0
C1356 C 0.84308 0.89529 0.29319 0.0
C1357 C 0.86022 0.87937 0.31196 0.0
C1358 C 0.88537 0.86016 0.27049 0.0
C1359 C 0.87072 0.8793 0.2524 0.0
N1360 N 0.84229 0.92167 0.24923 0.0
N1361 N 0.90194 0.85119 0.31851 0.0
C1362 C 0.85151 0.89881 0.26454 0.0
C1363 C 0.88263 0.86302 0.30067 0.0
N1364 N 0.81814 0.90614 0.30221 0.0
N1365 N 0.90092 0.83856 0.25908 0.0
H1366 H 0.90141 0.85378 0.34062 0.0
H1367 H 0.92004 0.84139 0.31111 0.0
H1368 H 0.90272 0.83507 0.23717 0.0
H1369 H 0.90972 0.82245 0.27146 0.0
H1370 H 0.80411 0.91594 0.28833 0.0
H1371 H 0.80993 0.90226 0.32247 0.0
H1372 H 0.82988 0.93768 0.25805 0.0
H1373 H 0.85035 0.9266 0.22923 0.0
C1374 C 0.89309 0.12135 0.00661 0.0
C1375 C 0.87107 0.12813 0.98759 0.0
C1376 C 0.83633 0.11249 0.02267 0.0
C1377 C 0.85823 0.10726 0.04248 0.0
N1378 N 0.90747 0.1068 0.05403 0.0
N1379 N 0.82199 0.13381 0.97785 0.0
C1380 C 0.88663 0.11191 0.03472 0.0
C1381 C 0.84276 0.12481 0.99574 0.0
N1382 N 0.92019 0.12327 0.99743 0.0
N1383 N 0.80942 0.10505 0.02928 0.0
H1384 H 0.82577 0.1417 0.95738 0.0
H1385 H 0.80113 0.13535 0.98385 0.0
H1386 H 0.80324 0.09787 0.04937 0.0
H1387 H 0.7932 0.10466 0.01447 0.0
H1388 H 0.93723 0.11549 0.00871 0.0
H1389 H 0.9258 0.13155 0.97756 0.0
H1390 H 0.92806 0.11348 0.05136 0.0
H1391 H 0.90428 0.09641 0.07342 0.0
C1392 C 0.73786 0.62784 0.8555 0.0
C1393 C 0.75682 0.62075 0.87765 0.0
C1394 C 0.72145 0.63256 0.91369 0.0
C1395 C 0.70341 0.64191 0.8916 0.0
N1396 N 0.69535 0.65227 0.84186 0.0
N1397 N 0.76854 0.61989 0.92777 0.0
C1398 C 0.71181 0.64052 0.86258 0.0
C1399 C 0.7491 0.62394 0.90677 0.0
N1400 N 0.74437 0.62155 0.82775 0.0
N1401 N 0.71188 0.63119 0.94118 0.0
H1402 H 0.78897 0.61354 0.92358 0.0
H1403 H 0.7652 0.62497 0.94915 0.0
H1404 H 0.69184 0.63756 0.94706 0.0
H1405 H 0.72286 0.62166 0.95779 0.0
H1406 H 0.73026 0.62325 0.81093 0.0
H1407 H 0.76326 0.61233 0.82174 0.0
H1408 H 0.70173 0.65497 0.82078 0.0
H1409 H 0.67598 0.66141 0.84615 0.0
C1410 C 0.23987 0.88855 0.10021 0.0
C1411 C 0.25787 0.86811 0.11305 0.0
C1412 C 0.21873 0.83432 0.117 0.0
C1413 C 0.20128 0.85439 0.10334 0.0
N1414 N 0.19199 0.90409 0.0947 0.0
N1415 N 0.26128 0.82681 0.14381 0.0
C1416 C 0.21075 0.88276 0.09925 0.0
C1417 C 0.24627 0.8426 0.12474 0.0
N1418 N 0.25035 0.91241 0.08712 0.0
N1419 N 0.20913 0.8072 0.12204 0.0
H1420 H 0.28087 0.83329 0.15126 0.0
H1421 H 0.25303 0.80924 0.15465 0.0
H1422 H 0.18841 0.80116 0.11834 0.0
H1423 H 0.22197 0.7906 0.12874 0.0
H1424 H 0.23801 0.92603 0.07493 0.0
H1425 H 0.27152 0.91734 0.08601 0.0
H1426 H 0.19771 0.92562 0.09358 0.0
H1427 H 0.1705 0.90043 0.09569 0.0
C1428 C 0.89637 0.50359 0.88182 0.0
C1429 C 0.87376 0.51288 0.86462 0.0
C1430 C 0.86069 0.46282 0.85603 0.0
C1431 C 0.88686 0.45413 0.86696 0.0
N1432 N 0.92868 0.46562 0.89335 0.0
N1433 N 0.83384 0.50092 0.83498 0.0
C1434 C 0.90434 0.47437 0.88099 0.0
C1435 C 0.85546 0.49241 0.85195 0.0
N1436 N 0.90947 0.52254 0.89974 0.0
N1437 N 0.8405 0.44295 0.85035 0.0
H1438 H 0.82819 0.52217 0.83219 0.0
H1439 H 0.8225 0.48683 0.8221 0.0
H1440 H 0.84292 0.42165 0.85584 0.0
H1441 H 0.82022 0.44811 0.8443 0.0
H1442 H 0.92446 0.51661 0.91467 0.0
H1443 H 0.90324 0.5438 0.90183 0.0
H1444 H 0.94417 0.47966 0.90046 0.0
H1445 H 0.93372 0.44406 0.89573 0.0
C1446 C 0.26732 0.11996 0.62477 0.0
C1447 C 0.24692 0.10875 0.60585 0.0
C1448 C 0.27775 0.11845 0.56521 0.0
C1449 C 0.29649 0.13321 0.58374 0.0
N1450 N 0.30676 0.15192 0.63087 0.0
N1451 N 0.23082 0.10033 0.55769 0.0
C1452 C 0.29084 0.13479 0.61353 0.0
C1453 C 0.25168 0.10854 0.57596 0.0
N1454 N 0.26435 0.11609 0.65356 0.0
N1455 N 0.28508 0.11333 0.53746 0.0
H1456 H 0.21152 0.09259 0.56461 0.0
H1457 H 0.23181 0.10327 0.53566 0.0
H1458 H 0.30387 0.12036 0.52864 0.0
H1459 H 0.2737 0.09995 0.52389 0.0
H1460 H 0.27993 0.12116 0.66829 0.0
H1461 H 0.24737 0.10522 0.66248 0.0
H1462 H 0.30161 0.15641 0.65201 0.0
H1463 H 0.3237 0.16393 0.62359 0.0
C1464 C 0.12003 0.01071 0.89323 0.0
C1465 C 0.13843 0.9971 0.87362 0.0
C1466 C 0.14543 0.04296 0.84966 0.0
C1467 C 0.12289 0.05474 0.86509 0.0
N1468 N 0.0873 0.04924 0.90113 0.0
N1469 N 0.16413 -0.00016 0.82913 0.0
C1470 C 0.10968 0.0384 0.88674 0.0
C1471 C 0.15007 0.01311 0.85076 0.0
N1472 N 0.11364 0.99805 0.91872 0.0
N1473 N 0.16286 0.0603 0.83453 0.0
H1474 H 0.16621 0.9777 0.82771 0.0
H1475 H 0.17077 0.01064 0.81085 0.0
H1476 H 0.16109 0.08239 0.83555 0.0
H1477 H 0.18085 0.05297 0.82441 0.0
H1478 H 0.10228 0.00826 0.9347 0.0
H1479 H 0.12242 0.97885 0.92541 0.0
H1480 H 0.07484 0.03694 0.91468 0.0
H1481 H 0.08031 0.07015 0.8983 0.0
C1482 C 0.78893 0.3734 0.37044 0.0
C1483 C 0.79641 0.36601 0.39892 0.0
C1484 C 0.74837 0.37463 0.41493 0.0
C1485 C 0.74068 0.38007 0.38624 0.0
N1486 N 0.7536 0.39213 0.33819 0.0
N1487 N 0.7849 0.36372 0.44902 0.0
C1488 C 0.76107 0.38212 0.36451 0.0
C1489 C 0.7766 0.36813 0.42144 0.0
N1490 N 0.80769 0.36984 0.34871 0.0
N1491 N 0.72827 0.37485 0.43572 0.0
H1492 H 0.80498 0.35734 0.45437 0.0
H1493 H 0.77256 0.36754 0.46688 0.0
H1494 H 0.70804 0.38207 0.43193 0.0
H1495 H 0.73115 0.36766 0.4565 0.0
H1496 H 0.80255 0.37144 0.32718 0.0
H1497 H 0.82824 0.36345 0.35191 0.0
H1498 H 0.76782 0.39684 0.32204 0.0
H1499 H 0.73319 0.39812 0.33332 0.0
C1500 C 0.90489 0.49066 0.6531 0.0
C1501 C 0.88522 0.47766 0.63423 0.0
C1502 C 0.87553 0.52492 0.614 0.0
C1503 C 0.89836 0.53678 0.62948 0.0
N1504 N 0.93952 0.52799 0.6581 0.0
N1505 N 0.85726 0.48241 0.59132 0.0
C1506 C 0.91446 0.51882 0.64741 0.0
C1507 C 0.87203 0.49475 0.6131 0.0
N1508 N 0.9137 0.47688 0.67715 0.0
N1509 N 0.8564 0.54224 0.60117 0.0
H1510 H 0.85569 0.46037 0.58847 0.0
H1511 H 0.84946 0.49411 0.57417 0.0
H1512 H 0.85698 0.56448 0.6028 0.0
H1513 H 0.83813 0.53433 0.59184 0.0
H1514 H 0.926 0.48688 0.69266 0.0
H1515 H 0.90617 0.45692 0.68343 0.0
H1516 H 0.95297 0.51458 0.66926 0.0
H1517 H 0.94839 0.54769 0.65284 0.0
C1518 C 0.60875 0.50153 0.11144 0.0
C1519 C 0.63185 0.50989 0.12865 0.0
C1520 C 0.64254 0.4593 0.13744 0.0
C1521 C 0.61708 0.45152 0.12399 0.0
N1522 N 0.57471 0.46491 0.09979 0.0
N1523 N 0.67138 0.4968 0.15796 0.0
C1524 C 0.59995 0.47252 0.11123 0.0
C1525 C 0.64916 0.48879 0.14139 0.0
N1526 N 0.59594 0.52115 0.09429 0.0
N1527 N 0.66074 0.43841 0.1456 0.0
H1528 H 0.67854 0.51779 0.15961 0.0
H1529 H 0.68216 0.48276 0.17115 0.0
H1530 H 0.65644 0.41664 0.143 0.0
H1531 H 0.68095 0.44248 0.1528 0.0
H1532 H 0.58105 0.51573 0.07896 0.0
H1533 H 0.60221 0.54251 0.0932 0.0
H1534 H 0.55972 0.47965 0.09345 0.0
H1535 H 0.56787 0.44377 0.09851 0.0
C1536 C 0.63857 0.76698 0.88047 0.0
C1537 C 0.61703 0.74606 0.88169 0.0
C1538 C 0.58248 0.78231 0.86911 0.0
C1539 C 0.60423 0.80266 0.86531 0.0
N1540 N 0.6537 0.81263 0.86139 0.0
N1541 N 0.56963 0.73229 0.87102 0.0
C1542 C 0.63253 0.79463 0.8695 0.0
C1543 C 0.5893 0.75328 0.87421 0.0
N1544 N 0.66482 0.7605 0.88985 0.0
N1545 N 0.55526 0.79084 0.8688 0.0
H1546 H 0.57443 0.71082 0.87348 0.0
H1547 H 0.54967 0.73584 0.86298 0.0
H1548 H 0.54952 0.81204 0.86574 0.0
H1549 H 0.53862 0.77753 0.87442 0.0
H1550 H 0.68052 0.7758 0.89259 0.0
H1551 H 0.6704 0.74013 0.89681 0.0
H1552 H 0.6746 0.80661 0.86099 0.0
H1553 H 0.65035 0.83269 0.85238 0.0
C1554 C 0.48824 0.35316 0.13353 0.0
C1555 C 0.50458 0.37298 0.11772 0.0
C1556 C 0.46203 0.39366 0.09746 0.0
C1557 C 0.44573 0.37432 0.11408 0.0
N1558 N 0.4431 0.34219 0.15412 0.0
N1559 N 0.50719 0.41585 0.08929 0.0
C1560 C 0.45879 0.35602 0.134 0.0
C1561 C 0.49151 0.39436 0.10104 0.0
N1562 N 0.50071 0.33068 0.1469 0.0
N1563 N 0.44959 0.41065 0.07749 0.0
H1564 H 0.52884 0.41672 0.09102 0.0
H1565 H 0.49868 0.43399 0.07989 0.0
H1566 H 0.42808 0.41231 0.07518 0.0
H1567 H 0.46065 0.42204 0.06205 0.0
H1568 H 0.48958 0.31381 0.15606 0.0
H1569 H 0.52219 0.32752 0.14635 0.0
H1570 H 0.45177 0.33078 0.171 0.0
H1571 H 0.42146 0.34439 0.15546 0.0
C1572 C 0.90473 0.22847 0.34279 0.0
C1573 C 0.88847 0.20344 0.34862 0.0
C1574 C 0.85668 0.2321 0.37801 0.0
C1575 C 0.87261 0.25698 0.37182 0.0
N1576 N 0.90625 0.28015 0.34083 0.0
N1577 N 0.8426 0.18538 0.36115 0.0
C1578 C 0.89465 0.25564 0.3516 0.0
C1579 C 0.8626 0.2063 0.36327 0.0
N1580 N 0.93052 0.22664 0.33039 0.0
N1581 N 0.8353 0.23312 0.39732 0.0
H1582 H 0.8445 0.16778 0.34759 0.0
H1583 H 0.82255 0.18749 0.36949 0.0
H1584 H 0.82827 0.25206 0.40657 0.0
H1585 H 0.82548 0.21479 0.40518 0.0
H1586 H 0.94427 0.24396 0.32907 0.0
H1587 H 0.93985 0.20767 0.32408 0.0
H1588 H 0.91957 0.28024 0.32322 0.0
H1589 H 0.90149 0.30058 0.34814 0.0
C1590 C 0.01398 0.6473 0.60511 0.0
C1591 C 0.00136 0.62699 0.62352 0.0
C1592 C 0.04823 0.61123 0.63768 0.0
C1593 C 0.06015 0.62784 0.61526 0.0
N1594 N 0.05181 0.65578 0.57246 0.0
N1595 N 0.00708 0.58598 0.6544 0.0
C1596 C 0.04231 0.6442 0.59746 0.0
C1597 C 0.01862 0.60791 0.63913 0.0
N1598 N 0.99922 0.6703 0.59567 0.0
N1599 N 0.06482 0.59968 0.65834 0.0
H1600 H 0.98565 0.58239 0.65569 0.0
H1601 H 0.01897 0.56984 0.66363 0.0
H1602 H 0.08636 0.60288 0.6591 0.0
H1603 H 0.05679 0.58966 0.67646 0.0
H1604 H 0.00828 0.68686 0.58391 0.0
H1605 H 0.97917 0.67461 0.60302 0.0
H1606 H 0.03862 0.66586 0.55794 0.0
H1607 H 0.0718 0.65226 0.56448 0.0
C1608 C 0.63019 0.24925 0.63252 0.0
C1609 C 0.61324 0.25716 0.60906 0.0
C1610 C 0.58887 0.21105 0.61054 0.0
C1611 C 0.6067 0.2026 0.6332 0.0
N1612 N 0.63796 0.21588 0.67134 0.0
N1613 N 0.57151 0.24998 0.58133 0.0
C1614 C 0.62526 0.22255 0.64608 0.0
C1615 C 0.5908 0.23948 0.60003 0.0
N1616 N 0.65189 0.2665 0.64078 0.0
N1617 N 0.5715 0.19149 0.59782 0.0
H1618 H 0.57263 0.27081 0.57336 0.0
H1619 H 0.55316 0.2392 0.57589 0.0
H1620 H 0.56942 0.17046 0.60489 0.0
H1621 H 0.56039 0.19552 0.57916 0.0
H1622 H 0.66707 0.26039 0.65544 0.0
H1623 H 0.6556 0.28654 0.63176 0.0
H1624 H 0.64983 0.23039 0.68317 0.0
H1625 H 0.63435 0.19652 0.68185 0.0
C1626 C 0.02251 0.35884 0.91404 0.0
C1627 C 0.04666 0.3686 0.89914 0.0
C1628 C 0.01522 0.38741 0.86176 0.0
C1629 C 0.99254 0.37228 0.87426 0.0
N1630 N 0.97662 0.33797 0.9092 0.0
N1631 N 0.06485 0.3954 0.85845 0.0
C1632 C 0.99687 0.35616 0.89934 0.0
C1633 C 0.04278 0.38366 0.87278 0.0
N1634 N 0.0231 0.35458 0.94288 0.0
N1635 N 0.0103 0.40711 0.8408 0.0
H1636 H 0.08351 0.40136 0.86811 0.0
H1637 H 0.0639 0.40064 0.83684 0.0
H1638 H 0.99049 0.41137 0.83273 0.0
H1639 H 0.02546 0.42125 0.83319 0.0
H1640 H 0.00535 0.34908 0.95461 0.0
H1641 H 0.03967 0.36143 0.95561 0.0
H1642 H 0.97998 0.32407 0.92624 0.0
H1643 H 0.95782 0.33448 0.89841 0.0
C1644 C 0.86819 0.75104 0.13062 0.0
C1645 C 0.88388 0.74723 0.1052 0.0
C1646 C 0.90342 0.79545 0.10979 0.0
C1647 C 0.88818 0.7991 0.13551 0.0
N1648 N 0.86139 0.77872 0.17399 0.0
N1649 N 0.922 0.76215 0.07504 0.0
C1650 C 0.87236 0.77624 0.14715 0.0
C1651 C 0.90338 0.76828 0.09627 0.0
N1652 N 0.8482 0.73145 0.13804 0.0
N1653 N 0.91648 0.81831 0.09732 0.0
H1654 H 0.92258 0.74226 0.06487 0.0
H1655 H 0.93852 0.77567 0.06955 0.0
H1656 H 0.91696 0.83865 0.10649 0.0
H1657 H 0.92518 0.8176 0.07694 0.0
H1658 H 0.83394 0.73459 0.15452 0.0
H1659 H 0.8445 0.71286 0.12631 0.0
H1660 H 0.85183 0.76183 0.18478 0.0
H1661 H 0.86416 0.79703 0.18651 0.0
C1662 C 0.4701 0.67063 0.36415 0.0
C1663 C 0.4533 0.64784 0.37476 0.0
C1664 C 0.4897 0.61357 0.36174 0.0
C1665 C 0.50762 0.63665 0.35438 0.0
N1666 N 0.51646 0.68736 0.35112 0.0
N1667 N 0.44858 0.59797 0.38753 0.0
C1668 C 0.49823 0.66527 0.3561 0.0
C1669 C 0.4634 0.61934 0.37443 0.0
N1670 N 0.45889 0.69719 0.36091 0.0
N1671 N 0.49763 0.58608 0.35603 0.0
H1672 H 0.42931 0.60117 0.39734 0.0
H1673 H 0.45643 0.57752 0.3909 0.0
H1674 H 0.51673 0.58106 0.34664 0.0
H1675 H 0.4843 0.5685 0.35806 0.0
H1676 H 0.46904 0.71405 0.35067 0.0
H1677 H 0.4383 0.70158 0.36617 0.0
H1678 H 0.51185 0.7087 0.35534 0.0
H1679 H 0.53704 0.68423 0.34458 0.0
C1680 C 0.85876 0.62968 0.77388 0.0
C1681 C 0.85632 0.60173 0.78548 0.0
C1682 C 0.87873 0.58173 0.7427 0.0
C1683 C 0.88354 0.60991 0.73258 0.0
N1684 N 0.88145 0.66096 0.73961 0.0
N1685 N 0.86595 0.55125 0.78245 0.0
C1686 C 0.87442 0.63397 0.74845 0.0
C1687 C 0.86669 0.57773 0.77022 0.0
N1688 N 0.84511 0.65196 0.78659 0.0
N1689 N 0.88496 0.55884 0.72564 0.0
H1690 H 0.8565 0.54746 0.80206 0.0
H1691 H 0.87613 0.53345 0.77417 0.0
H1692 H 0.89439 0.56097 0.70566 0.0
H1693 H 0.87907 0.53787 0.73027 0.0
H1694 H 0.84357 0.67223 0.77757 0.0
H1695 H 0.83299 0.64956 0.80495 0.0
H1696 H 0.87816 0.67925 0.75184 0.0
H1697 H 0.89272 0.66496 0.72096 0.0
C1698 C 0.65589 0.65099 0.04761 0.0
C1699 C 0.6419 0.62494 0.05407 0.0
C1700 C 0.62163 0.6234 0.00604 0.0
C1701 C 0.6355 0.64953 -0.00035 0.0
N1702 N 0.67101 0.68441 0.01102 0.0
N1703 N 0.61755 0.58268 0.03788 0.0
C1704 C 0.65431 0.66213 0.01945 0.0
C1705 C 0.62662 0.60999 0.03276 0.0
N1706 N 0.66969 0.66567 0.06869 0.0
N1707 N 0.60281 0.61205 0.98712 0.0
H1708 H 0.62128 0.57222 0.05714 0.0
H1709 H 0.60871 0.56951 0.02231 0.0
H1710 H 0.59935 0.62065 0.96691 0.0
H1711 H 0.58946 0.59509 0.99199 0.0
H1712 H 0.67761 0.68631 0.06616 0.0
H1713 H 0.67165 0.65802 0.08951 0.0
H1714 H 0.68711 0.69283 0.02346 0.0
H1715 H 0.67045 0.69277 0.99037 0.0
C1716 C 0.63906 0.39696 0.23994 0.0
C1717 C 0.6135 0.38254 0.23399 0.0
C1718 C 0.60566 0.37616 0.28518 0.0
C1719 C 0.63311 0.38622 0.29083 0.0
N1720 N 0.6776 0.40305 0.27302 0.0
N1721 N 0.57529 0.35302 0.25103 0.0
C1722 C 0.6503 0.39596 0.26808 0.0
C1723 C 0.59746 0.37076 0.25662 0.0
N1724 N 0.65211 0.4124 0.21904 0.0
N1725 N 0.58708 0.3725 0.30705 0.0
H1726 H 0.56931 0.34702 0.23045 0.0
H1727 H 0.56477 0.3417 0.26693 0.0
H1728 H 0.59192 0.37732 0.32827 0.0
H1729 H 0.56601 0.36781 0.30372 0.0
H1730 H 0.66932 0.4256 0.22288 0.0
H1731 H 0.64401 0.41433 0.19846 0.0
H1732 H 0.69179 0.40738 0.2567 0.0
H1733 H 0.68674 0.4022 0.29321 0.0
C1734 C 0.88117 0.33678 0.55389 0.0
C1735 C 0.86846 0.36347 0.5594 0.0
C1736 C 0.85862 0.36833 0.50801 0.0
C1737 C 0.87321 0.34217 0.50253 0.0
N1738 N 0.91045 0.31216 0.5205 0.0
N1739 N 0.85317 0.40863 0.54009 0.0
C1740 C 0.88816 0.32955 0.52553 0.0
C1741 C 0.85933 0.38039 0.53605 0.0
N1742 N 0.88606 0.31778 0.57541 0.0
N1743 N 0.84417 0.38221 0.48714 0.0
H1744 H 0.8551 0.41887 0.55976 0.0
H1745 H 0.84936 0.42274 0.52335 0.0
H1746 H 0.84611 0.3784 0.46546 0.0
H1747 H 0.82946 0.39793 0.49174 0.0
H1748 H 0.89363 0.29724 0.57153 0.0
H1749 H 0.87945 0.32113 0.59637 0.0
H1750 H 0.9228 0.30408 0.53695 0.0
H1751 H 0.91909 0.30958 0.50021 0.0
C1752 C 0.86992 0.36386 0.75184 0.0
C1753 C 0.87185 0.38887 0.76887 0.0
C1754 C 0.85995 0.41853 0.72756 0.0
C1755 C 0.855 0.39325 0.71131 0.0
N1756 N 0.85058 0.3417 0.70942 0.0
N1757 N 0.86723 0.43991 0.77429 0.0
C1758 C 0.85908 0.36583 0.72367 0.0
C1759 C 0.86653 0.41621 0.75707 0.0
N1760 N 0.87807 0.33814 0.76278 0.0
N1761 N 0.85921 0.44471 0.7146 0.0
H1762 H 0.8738 0.43928 0.79554 0.0
H1763 H 0.85998 0.45991 0.7681 0.0
H1764 H 0.85465 0.4474 0.69302 0.0
H1765 H 0.8655 0.46366 0.72447 0.0
H1766 H 0.88023 0.31969 0.75049 0.0
H1767 H 0.88483 0.33576 0.78379 0.0
H1768 H 0.85017 0.32143 0.7186 0.0
H1769 H 0.84126 0.34205 0.68932 0.0
C1770 C 0.86151 0.60525 0.95992 0.0
C1771 C 0.86861 0.62476 0.93785 0.0
C1772 C 0.88822 0.65778 0.97324 0.0
C1773 C 0.87809 0.63995 0.99558 0.0
N1774 N 0.84976 0.59927 0.00974 0.0
N1775 N 0.8828 0.67238 0.92404 0.0
C1776 C 0.86316 0.6144 0.98883 0.0
C1777 C 0.8801 0.65192 0.94468 0.0
N1778 N 0.85451 0.57756 0.9535 0.0
N1779 N 0.90709 0.67915 0.97883 0.0
H1780 H 0.87648 0.66909 0.90294 0.0
H1781 H 0.88853 0.69347 0.92854 0.0
H1782 H 0.91552 0.68292 0.99902 0.0
H1783 H 0.91697 0.69089 0.96281 0.0
H1784 H 0.85216 0.56174 0.96898 0.0
H1785 H 0.85381 0.56959 0.93269 0.0
H1786 H 0.83626 0.58223 0.0054 0.0
H1787 H 0.8495 0.60554 0.0311 0.0
C1788 C 0.64676 0.57991 0.25283 0.0
C1789 C 0.63721 0.60692 0.26269 0.0
C1790 C 0.64808 0.62776 0.21584 0.0
C1791 C 0.65468 0.60007 0.20525 0.0
N1792 N 0.65293 0.54899 0.21206 0.0
N1793 N 0.62571 0.6561 0.25261 0.0
C1794 C 0.65197 0.57592 0.22331 0.0
C1795 C 0.63657 0.63062 0.24376 0.0
N1796 N 0.65144 0.55805 0.27154 0.0
N1797 N 0.6546 0.65153 0.20014 0.0
H1798 H 0.61909 0.65976 0.27347 0.0
H1799 H 0.6216 0.673 0.23879 0.0
H1800 H 0.66431 0.65063 0.18025 0.0
H1801 H 0.65304 0.67231 0.20802 0.0
H1802 H 0.66142 0.53917 0.2657 0.0
H1803 H 0.64758 0.55945 0.29337 0.0
H1804 H 0.64822 0.53061 0.22372 0.0
H1805 H 0.65506 0.54536 0.19029 0.0
C1806 C 0.6508 0.35382 0.48482 0.0
C1807 C 0.62909 0.36617 0.50133 0.0
C1808 C 0.61718 0.39664 0.46042 0.0
C1809 C 0.63785 0.38274 0.44378 0.0
N1810 N 0.66635 0.34091 0.4377 0.0
N1811 N 0.58587 0.39281 0.50082 0.0
C1812 C 0.65194 0.35889 0.45512 0.0
C1813 C 0.61057 0.38581 0.48804 0.0
N1814 N 0.6717 0.33897 0.49757 0.0
N1815 N 0.6036 0.41993 0.44981 0.0
H1816 H 0.579 0.38356 0.51981 0.0
H1817 H 0.57063 0.40508 0.49085 0.0
H1818 H 0.60611 0.42701 0.42885 0.0
H1819 H 0.59091 0.43296 0.46231 0.0
H1820 H 0.68934 0.33182 0.4867 0.0
H1821 H 0.67326 0.3376 0.5195 0.0
H1822 H 0.6753 0.32194 0.44483 0.0
H1823 H 0.66602 0.34312 0.4157 0.0
C1824 C 0.7616 0.8843 0.64503 0.0
C1825 C 0.74132 0.88092 0.62327 0.0
C1826 C 0.77523 0.85587 0.5934 0.0
C1827 C 0.79472 0.85632 0.61649 0.0
N1828 N 0.80321 0.86513 0.66677 0.0
N1829 N 0.72694 0.86006 0.57849 0.0
C1830 C 0.78717 0.86917 0.64296 0.0
C1831 C 0.74755 0.86558 0.59801 0.0
N1832 N 0.75639 0.90182 0.6678 0.0
N1833 N 0.78335 0.84753 0.56665 0.0
H1834 H 0.70673 0.868 0.58043 0.0
H1835 H 0.72926 0.84585 0.56149 0.0
H1836 H 0.80383 0.84251 0.56133 0.0
H1837 H 0.77066 0.8492 0.54868 0.0
H1838 H 0.77158 0.90753 0.68273 0.0
H1839 H 0.73757 0.91265 0.67038 0.0
H1840 H 0.79716 0.87167 0.68712 0.0
H1841 H 0.82092 0.85233 0.66705 0.0
C1842 C 0.26436 0.59627 0.36352 0.0
C1843 C 0.24472 0.61517 0.37623 0.0
C1844 C 0.28237 0.65022 0.3843 0.0
C1845 C 0.30224 0.62986 0.37502 0.0
N1846 N 0.31267 0.58144 0.36093 0.0
N1847 N 0.23642 0.65817 0.40363 0.0
C1848 C 0.2934 0.60224 0.36618 0.0
C1849 C 0.25412 0.64162 0.38799 0.0
N1850 N 0.25544 0.57363 0.3473 0.0
N1851 N 0.29015 0.67814 0.38842 0.0
H1852 H 0.21577 0.65244 0.40726 0.0
H1853 H 0.24295 0.67599 0.41533 0.0
H1854 H 0.31049 0.6856 0.38527 0.0
H1855 H 0.27588 0.69447 0.39213 0.0
H1856 H 0.26896 0.56096 0.33536 0.0
H1857 H 0.23448 0.56942 0.34297 0.0
H1858 H 0.30724 0.5601 0.35735 0.0
H1859 H 0.33412 0.58493 0.3629 0.0
C1860 C 0.59266 0.02907 0.62383 0.0
C1861 C 0.61012 0.04742 0.6403 0.0
C1862 C 0.64215 0.00777 0.64947 0.0
C1863 C 0.62403 0.98909 0.63406 0.0
N1864 N 0.58777 0.98383 0.59873 0.0
N1865 N 0.65601 0.05654 0.6595 0.0
C1866 C 0.601 0.00036 0.61879 0.0
C1867 C 0.63637 0.03753 0.65006 0.0
N1868 N 0.56802 0.03904 0.61312 0.0
N1869 N 0.664 0.99718 0.6649 0.0
H1870 H 0.65273 0.0784 0.65917 0.0
H1871 H 0.6765 0.05098 0.66431 0.0
H1872 H 0.67009 0.97587 0.66448 0.0
H1873 H 0.67512 0.00928 0.67982 0.0
H1874 H 0.5526 0.02585 0.60442 0.0
H1875 H 0.56256 0.0606 0.61379 0.0
H1876 H 0.57243 0.99148 0.58502 0.0
H1877 H 0.59422 0.96313 0.59371 0.0
C1878 C 0.21362 0.36122 0.86534 0.0
C1879 C 0.19861 0.37146 0.8894 0.0
C1880 C 0.24226 0.39089 0.90919 0.0
C1881 C 0.25605 0.38463 0.88309 0.0
N1882 N 0.25296 0.36867 0.83398 0.0
N1883 N 0.19809 0.39995 0.93258 0.0
C1884 C 0.24128 0.37101 0.86053 0.0
C1885 C 0.21278 0.38725 0.91103 0.0
N1886 N 0.20185 0.3413 0.84757 0.0
N1887 N 0.25738 0.39942 0.9325 0.0
H1888 H 0.17642 0.39862 0.9343 0.0
H1889 H 0.20713 0.41407 0.9472 0.0
H1890 H 0.27909 0.40151 0.93219 0.0
H1891 H 0.24875 0.4015 0.95282 0.0
H1892 H 0.21292 0.33106 0.83138 0.0
H1893 H 0.18206 0.33265 0.85105 0.0
H1894 H 0.24182 0.36157 0.81617 0.0
H1895 H 0.27273 0.3766 0.82892 0.0
C1896 C 0.37161 0.46673 0.66169 0.0
C1897 C 0.3872 0.4507 0.64159 0.0
C1898 C 0.37992 0.48817 0.60585 0.0
C1899 C 0.3675 0.50565 0.6271 0.0
N1900 N 0.35621 0.51352 0.67683 0.0
N1901 N 0.40954 0.44764 0.59547 0.0
C1902 C 0.36449 0.49546 0.65546 0.0
C1903 C 0.39229 0.46182 0.61388 0.0
N1904 N 0.36281 0.45427 0.68642 0.0
N1905 N 0.37889 0.49619 0.57783 0.0
H1906 H 0.41858 0.428 0.6003 0.0
H1907 H 0.41661 0.45639 0.57633 0.0
H1908 H 0.36905 0.51483 0.57113 0.0
H1909 H 0.38516 0.48307 0.56105 0.0
H1910 H 0.34897 0.46389 0.7006 0.0
H1911 H 0.36706 0.43308 0.69112 0.0
H1912 H 0.3567 0.50798 0.69836 0.0
H1913 H 0.35142 0.53497 0.67349 0.0
C1914 C 0.75307 0.14197 0.08398 0.0
C1915 C 0.76331 0.12729 0.10835 0.0
C1916 C 0.71647 0.12874 0.12989 0.0
C1917 C 0.7058 0.14154 0.10458 0.0
N1918 N 0.71336 0.15471 0.05512 0.0
N1919 N 0.75399 0.10272 0.15272 0.0
C1920 C 0.72395 0.14651 0.08097 0.0
C1921 C 0.74467 0.11903 0.13052 0.0
N1922 N 0.77116 0.15194 0.06361 0.0
N1923 N 0.70071 0.12813 0.15424 0.0
H1924 H 0.77484 0.09715 0.15547 0.0
H1925 H 0.74066 0.09303 0.16744 0.0
H1926 H 0.68071 0.13658 0.15566 0.0
H1927 H 0.70851 0.12205 0.17407 0.0
H1928 H 0.76555 0.16665 0.04797 0.0
H1929 H 0.79234 0.14718 0.06316 0.0
H1930 H 0.72518 0.15605 0.03651 0.0
H1931 H 0.69211 0.15672 0.051 0.0
C1932 C 0.63393 0.00118 0.89164 0.0
C1933 C 0.61984 0.01878 0.87161 0.0
C1934 C 0.59154 0.97746 0.85702 0.0
C1935 C 0.60886 0.95916 0.87338 0.0
N1936 N 0.65095 0.95368 0.90143 0.0
N1937 N 0.58918 0.0215 0.83047 0.0
C1938 C 0.63133 0.97099 0.88939 0.0
C1939 C 0.59973 0.00635 0.85291 0.0
N1940 N 0.6488 0.01311 0.91361 0.0
N1941 N 0.56662 0.96775 0.8464 0.0
H1942 H 0.59521 0.04238 0.82569 0.0
H1943 H 0.57667 0.01214 0.81474 0.0
H1944 H 0.55879 0.94728 0.85048 0.0
H1945 H 0.55224 0.98114 0.83652 0.0
H1946 H 0.65734 0.001 0.93008 0.0
H1947 H 0.64974 0.03511 0.91733 0.0
H1948 H 0.66906 0.96166 0.91103 0.0
H1949 H 0.65083 0.9315 0.89905 0.0
C1950 C 0.86528 0.03872 0.3526 0.0
C1951 C 0.88529 0.05113 0.37123 0.0
C1952 C 0.88531 0.00718 0.39959 0.0
C1953 C 0.86818 0.99354 0.37867 0.0
N1954 N 0.84831 0.99496 0.33116 0.0
N1955 N 0.91877 0.04508 0.40923 0.0
C1956 C 0.86007 0.00888 0.35391 0.0
C1957 C 0.89676 0.03468 0.39371 0.0
N1958 N 0.84998 0.05557 0.33478 0.0
N1959 N 0.88921 0.99502 0.42581 0.0
H1960 H 0.9279 0.06503 0.4053 0.0
H1961 H 0.92962 0.03275 0.42401 0.0
H1962 H 0.87958 0.97602 0.43213 0.0
H1963 H 0.89937 0.00553 0.44253 0.0
H1964 H 0.83316 0.04774 0.3229 0.0
H1965 H 0.85221 0.07778 0.33416 0.0
H1966 H 0.84423 0.0051 0.31179 0.0
H1967 H 0.84574 0.97279 0.3304 0.0
C1968 C 0.41188 0.2519 0.12992 0.0
C1969 C 0.38525 0.25828 0.11847 0.0
C1970 C 0.36994 0.20885 0.12645 0.0
C1971 C 0.39737 0.2017 0.13558 0.0
N1972 N 0.44579 0.21537 0.14129 0.0
N1973 N 0.34068 0.24197 0.10054 0.0
C1974 C 0.41872 0.22298 0.13614 0.0
C1975 C 0.36489 0.23644 0.11496 0.0
N1976 N 0.43063 0.2735 0.13485 0.0
N1977 N 0.34821 0.19019 0.13059 0.0
H1978 H 0.33566 0.26218 0.09274 0.0
H1979 H 0.32669 0.22599 0.09426 0.0
H1980 H 0.35028 0.17052 0.14076 0.0
H1981 H 0.32743 0.19551 0.12688 0.0
H1982 H 0.44898 0.2709 0.14648 0.0
H1983 H 0.42689 0.29457 0.12881 0.0
H1984 H 0.46266 0.22939 0.1392 0.0
H1985 H 0.45187 0.19433 0.14501 0.0
C1986 C 0.5372 0.65472 0.86961 0.0
C1987 C 0.54465 0.65185 0.89873 0.0
C1988 C 0.4998 0.62826 0.90801 0.0
C1989 C 0.48987 0.63782 0.8811 0.0
N1990 N 0.49966 0.66131 0.83591 0.0
N1991 N 0.53382 0.63446 0.94587 0.0
C1992 C 0.50881 0.65082 0.86147 0.0
C1993 C 0.52625 0.63792 0.91796 0.0
N1994 N 0.55713 0.66123 0.84976 0.0
N1995 N 0.48422 0.60938 0.92368 0.0
H1996 H 0.55368 0.63978 0.95344 0.0
H1997 H 0.52004 0.62762 0.9617 0.0
H1998 H 0.46531 0.60094 0.91632 0.0
H1999 H 0.49141 0.59972 0.94228 0.0
H2000 H 0.55331 0.66101 0.82785 0.0
H2001 H 0.57816 0.66374 0.85495 0.0
H2002 H 0.51193 0.6743 0.82283 0.0
H2003 H 0.4793 0.65913 0.82849 0.0
C2004 C 0.08962 0.74874 0.62843 0.0
C2005 C 0.11754 0.74295 0.62041 0.0
C2006 C 0.13217 0.79089 0.63542 0.0
C2007 C 0.10389 0.79761 0.64147 0.0
N2008 N 0.05504 0.78447 0.64044 0.0
N2009 N 0.16439 0.75954 0.61096 0.0
C2010 C 0.08239 0.77693 0.63709 0.0
C2011 C 0.13849 0.76438 0.62221 0.0
N2012 N 0.07023 0.72712 0.62841 0.0
N2013 N 0.15321 0.8089 0.64402 0.0
H2014 H 0.16996 0.74017 0.60151 0.0
H2015 H 0.17952 0.77549 0.60873 0.0
H2016 H 0.14977 0.82797 0.65501 0.0
H2017 H 0.17426 0.80357 0.64295 0.0
H2018 H 0.05032 0.72903 0.63709 0.0
H2019 H 0.07463 0.70644 0.62134 0.0
H2020 H 0.0383 0.77139 0.63462 0.0
H2021 H 0.04889 0.80483 0.64688 0.0
C2022 C 0.00175 0.32484 0.38245 0.0
C2023 C 0.00861 0.35381 0.38841 0.0
C2024 C 0.96152 0.36193 0.40699 0.0
C2025 C 0.95418 0.33321 0.39983 0.0
N2026 N 0.96565 0.28917 0.37545 0.0
N2027 N 0.99416 0.40144 0.40071 0.0
C2028 C 0.97379 0.31528 0.38584 0.0
C2029 C 0.98812 0.37288 0.39874 0.0
N2030 N 0.02225 0.30602 0.37491 0.0
N2031 N 0.94405 0.37808 0.42348 0.0
H2032 H 0.01364 0.40992 0.39519 0.0
H2033 H 0.97926 0.41691 0.40532 0.0
H2034 H 0.92484 0.37072 0.43101 0.0
H2035 H 0.94966 0.39791 0.43195 0.0
H2036 H 0.01926 0.28395 0.37398 0.0
H2037 H 0.04293 0.31218 0.37163 0.0
H2038 H 0.97799 0.27677 0.362 0.0
H2039 H 0.94566 0.28081 0.37827 0.0
C2040 C 0.39734 0.78885 0.38362 0.0
C2041 C 0.382 0.80196 0.36141 0.0
C2042 C 0.36286 0.75542 0.34703 0.0
C2043 C 0.38099 0.74185 0.36672 0.0
N2044 N 0.41749 0.74554 0.40246 0.0
N2045 N 0.35317 0.79786 0.31928 0.0
C2046 C 0.39863 0.75851 0.38488 0.0
C2047 C 0.36546 0.78532 0.34243 0.0
N2048 N 0.41012 0.80547 0.40394 0.0
N2049 N 0.34239 0.73993 0.33358 0.0
H2050 H 0.35453 0.81974 0.31509 0.0
H2051 H 0.34362 0.78624 0.30292 0.0
H2052 H 0.33917 0.71813 0.33717 0.0
H2053 H 0.32681 0.7492 0.32121 0.0
H2054 H 0.41901 0.79727 0.42247 0.0
H2055 H 0.40975 0.82779 0.40354 0.0
H2056 H 0.43338 0.75655 0.41307 0.0
H2057 H 0.41871 0.7235 0.4051 0.0
C2058 C 0.0019 0.66155 0.12602 0.0
C2059 C 0.01004 0.63261 0.12939 0.0
C2060 C 0.96571 0.61624 0.10879 0.0
C2061 C 0.9568 0.64509 0.10718 0.0
N2062 N 0.96395 0.69491 0.1188 0.0
N2063 N 0.99807 0.58239 0.12937 0.0
C2064 C 0.9742 0.66771 0.11711 0.0
C2065 C 0.99147 0.60993 0.12233 0.0
N2066 N 0.02095 0.6831 0.13018 0.0
N2067 N 0.95022 0.59499 0.0962 0.0
H2068 H 0.01673 0.5769 0.13939 0.0
H2069 H 0.98406 0.56534 0.12764 0.0
H2070 H 0.93127 0.59866 0.08591 0.0
H2071 H 0.95725 0.57408 0.0938 0.0
H2072 H 0.0172 0.70439 0.12499 0.0
H2073 H 0.04145 0.67946 0.13669 0.0
H2074 H 0.97459 0.71178 0.12859 0.0
H2075 H 0.94368 0.70016 0.11267 0.0
C2076 C 0.09247 0.25179 0.88694 0.0
C2077 C 0.10985 0.2706 0.871 0.0
C2078 C 0.1283 0.22979 0.84403 0.0
C2079 C 0.1135 0.21088 0.86229 0.0
N2080 N 0.08418 0.20332 0.90348 0.0
N2081 N 0.14718 0.27731 0.83684 0.0
C2082 C 0.09618 0.22171 0.88433 0.0
C2083 C 0.1284 0.25958 0.85004 0.0
N2084 N 0.07181 0.26268 0.90385 0.0
N2085 N 0.14177 0.21931 0.82051 0.0
H2086 H 0.14797 0.29929 0.84034 0.0
H2087 H 0.16349 0.26997 0.82414 0.0
H2088 H 0.14256 0.19755 0.81562 0.0
H2089 H 0.1501 0.23229 0.80453 0.0
H2090 H 0.05663 0.25006 0.91368 0.0
H2091 H 0.0682 0.28459 0.90586 0.0
H2092 H 0.07385 0.21006 0.92184 0.0
H2093 H 0.08631 0.18115 0.90213 0.0
C2094 C 0.53583 0.3878 0.61122 0.0
C2095 C 0.54697 0.35975 0.61054 0.0
C2096 C 0.50327 0.34034 0.63013 0.0
C2097 C 0.49274 0.36855 0.63233 0.0
N2098 N 0.50007 0.41955 0.62947 0.0
N2099 N 0.54367 0.31 0.62379 0.0
C2100 C 0.50934 0.39243 0.62415 0.0
C2101 C 0.53135 0.33619 0.62127 0.0
N2102 N 0.55008 0.40978 0.59848 0.0
N2103 N 0.48609 0.31746 0.63542 0.0
H2104 H 0.56424 0.30619 0.61768 0.0
H2105 H 0.53445 0.29268 0.63419 0.0
H2106 H 0.46553 0.31961 0.64239 0.0
H2107 H 0.49143 0.29638 0.63084 0.0
H2108 H 0.54171 0.43003 0.5953 0.0
H2109 H 0.56967 0.40726 0.58911 0.0
H2110 H 0.51236 0.43781 0.62687 0.0
H2111 H 0.48071 0.42374 0.63874 0.0
C2112 C 0.12193 0.41353 0.26154 0.0
C2113 C 0.11182 0.38637 0.27013 0.0
C2114 C 0.12891 0.36456 0.22593 0.0
C2115 C 0.13873 0.39183 0.21675 0.0
N2116 N 0.14715 0.44205 0.22675 0.0
N2117 N 0.10023 0.33742 0.25902 0.0
C2118 C 0.13597 0.4163 0.23483 0.0
C2119 C 0.11362 0.36233 0.25182 0.0
N2120 N 0.11673 0.43686 0.2784 0.0
N2121 N 0.13629 0.34041 0.21125 0.0
H2122 H 0.08908 0.33494 0.278 0.0
H2123 H 0.09795 0.32011 0.24516 0.0
H2124 H 0.14907 0.34065 0.19325 0.0
H2125 H 0.13242 0.31974 0.21857 0.0
H2126 H 0.12105 0.45791 0.27266 0.0
H2127 H 0.10601 0.43541 0.29775 0.0
H2128 H 0.14965 0.45948 0.24036 0.0
H2129 H 0.15428 0.44634 0.2062 0.0
C2130 C 0.34567 0.36135 0.96275 0.0
C2131 C 0.3652 0.38081 0.95065 0.0
C2132 C 0.38595 0.38912 0.99773 0.0
C2133 C 0.36393 0.37328 0.01034 0.0
N2134 N 0.32321 0.34293 0.0054 0.0
N2135 N 0.40243 0.41554 0.95683 0.0
C2136 C 0.34397 0.35878 0.993 0.0
C2137 C 0.38508 0.39518 0.96815 0.0
N2138 N 0.32959 0.34453 0.94524 0.0
N2139 N 0.40847 0.39716 0.01386 0.0
H2140 H 0.40313 0.42035 0.93517 0.0
H2141 H 0.41469 0.42924 0.96924 0.0
H2142 H 0.41036 0.39157 0.03529 0.0
H2143 H 0.42656 0.40626 0.00537 0.0
H2144 H 0.31688 0.32792 0.95246 0.0
H2145 H 0.33069 0.34554 0.923 0.0
H2146 H 0.30578 0.3353 0.99442 0.0
H2147 H 0.32286 0.33806 0.02707 0.0
C2148 C 0.3612 0.5993 0.71656 0.0
C2149 C 0.37923 0.60987 0.69483 0.0
C2150 C 0.41336 0.62428 0.73117 0.0
C2151 C 0.3963 0.61183 0.75269 0.0
N2152 N 0.35783 0.5805 0.7646 0.0
N2153 N 0.42593 0.62408 0.68118 0.0
C2154 C 0.3714 0.59711 0.74498 0.0
C2155 C 0.40643 0.61971 0.70205 0.0
N2156 N 0.33392 0.5929 0.71061 0.0
N2157 N 0.43512 0.642 0.73825 0.0
H2158 H 0.42202 0.61984 0.65965 0.0
H2159 H 0.4468 0.62872 0.68562 0.0
H2160 H 0.44031 0.64736 0.7592 0.0
H2161 H 0.4462 0.65385 0.72314 0.0
H2162 H 0.31932 0.58798 0.72638 0.0
H2163 H 0.32509 0.59522 0.69042 0.0
H2164 H 0.34102 0.5672 0.75941 0.0
H2165 H 0.36534 0.57758 0.7853 0.0
C2166 C 0.16581 0.62989 0.49657 0.0
C2167 C 0.14277 0.62366 0.5143 0.0
C2168 C 0.11529 0.61076 0.47198 0.0
C2169 C 0.13729 0.62121 0.45417 0.0
N2170 N 0.17958 0.64918 0.45103 0.0
N2171 N 0.09408 0.61113 0.51904 0.0
C2172 C 0.16144 0.63329 0.46694 0.0
C2173 C 0.11693 0.61523 0.50203 0.0
N2174 N 0.19208 0.63107 0.50768 0.0
N2175 N 0.09378 0.595 0.46075 0.0
H2176 H 0.09497 0.61244 0.54127 0.0
H2177 H 0.07397 0.6083 0.51095 0.0
H2178 H 0.09197 0.58999 0.43918 0.0
H2179 H 0.07904 0.58441 0.4733 0.0
H2180 H 0.20985 0.63384 0.49508 0.0
H2181 H 0.19604 0.6252 0.52876 0.0
H2182 H 0.19665 0.65995 0.4599 0.0
H2183 H 0.17511 0.65457 0.42992 0.0
C2184 C 0.14687 0.63176 0.25103 0.0
C2185 C 0.12424 0.61566 0.23952 0.0
C2186 C 0.11594 0.59351 0.286 0.0
C2187 C 0.1389 0.609 0.29751 0.0
N2188 N 0.17205 0.64775 0.2933 0.0
N2189 N 0.08157 0.58918 0.24842 0.0
C2190 C 0.15303 0.62977 0.28072 0.0
C2191 C 0.1068 0.5993 0.25779 0.0
N2192 N 0.1626 0.64872 0.23342 0.0
N2193 N 0.10392 0.57193 0.30129 0.0
H2194 H 0.07389 0.59277 0.22796 0.0
H2195 H 0.06691 0.57964 0.26187 0.0
H2196 H 0.11029 0.56697 0.32181 0.0
H2197 H 0.08954 0.55743 0.29276 0.0
H2198 H 0.18149 0.65811 0.23939 0.0
H2199 H 0.15703 0.65278 0.21226 0.0
H2200 H 0.18132 0.66507 0.28298 0.0
H2201 H 0.17693 0.6468 0.31499 0.0
C2202 C 0.11286 0.38652 0.04605 0.0
C2203 C 0.13505 0.37503 0.06236 0.0
C2204 C 0.15514 0.35452 0.01866 0.0
C2205 C 0.1309 0.36266 0.00329 0.0
N2206 N 0.08371 0.38087 0.00444 0.0
N2207 N 0.17546 0.34452 0.06502 0.0
C2208 C 0.10894 0.37718 0.01753 0.0
C2209 C 0.15579 0.35808 0.0489 0.0
N2210 N 0.09608 0.40719 0.05741 0.0
N2211 N 0.17793 0.34446 0.00434 0.0
H2212 H 0.17639 0.34629 0.08721 0.0
H2213 H 0.18934 0.32963 0.05665 0.0
H2214 H 0.17845 0.34219 0.98218 0.0
H2215 H 0.19716 0.34101 0.01412 0.0
H2216 H 0.08141 0.4183 0.04536 0.0
H2217 H 0.09886 0.41552 0.07791 0.0
H2218 H 0.0662 0.3887 0.01505 0.0
H2219 H 0.07928 0.37321 0.98404 0.0
C2220 C 0.34916 0.36676 0.78263 0.0
C2221 C 0.35792 0.39242 0.79634 0.0
C2222 C 0.38394 0.40686 0.75347 0.0
C2223 C 0.37447 0.3816 0.73951 0.0
N2224 N 0.35422 0.33451 0.74216 0.0
N2225 N 0.38662 0.43487 0.79687 0.0
C2226 C 0.35892 0.36061 0.75457 0.0
C2227 C 0.37632 0.41177 0.78238 0.0
N2228 N 0.33075 0.34879 0.79607 0.0
N2229 N 0.39903 0.42691 0.73871 0.0
H2230 H 0.37969 0.44021 0.81708 0.0
H2231 H 0.40288 0.44786 0.78971 0.0
H2232 H 0.40704 0.42342 0.71836 0.0
H2233 H 0.4028 0.44763 0.74594 0.0
H2234 H 0.32099 0.33148 0.78614 0.0
H2235 H 0.32387 0.3521 0.81695 0.0
H2236 H 0.34529 0.31714 0.75271 0.0
H2237 H 0.36171 0.32938 0.72187 0.0
C2238 C 0.3627 0.60163 0.4871 0.0
C2239 C 0.3721 0.63006 0.48222 0.0
C2240 C 0.36642 0.64007 0.53314 0.0
C2241 C 0.36108 0.61062 0.53869 0.0
N2242 N 0.36531 0.56232 0.51999 0.0
N2243 N 0.39166 0.67319 0.50317 0.0
C2244 C 0.36247 0.59099 0.51542 0.0
C2245 C 0.37673 0.64836 0.506 0.0
N2246 N 0.35287 0.58497 0.46526 0.0
N2247 N 0.36015 0.66053 0.55279 0.0
H2248 H 0.40163 0.67904 0.48425 0.0
H2249 H 0.39713 0.68594 0.52064 0.0
H2250 H 0.34942 0.6558 0.57135 0.0
H2251 H 0.36188 0.68237 0.54857 0.0
H2252 H 0.34395 0.56485 0.46874 0.0
H2253 H 0.35028 0.59246 0.44449 0.0
H2254 H 0.36815 0.54775 0.50335 0.0
H2255 H 0.36915 0.5538 0.54011 0.0
C2256 C 0.20592 0.1038 0.3942 0.0
C2257 C 0.20196 0.13377 0.39756 0.0
C2258 C 0.25241 0.14054 0.39449 0.0
C2259 C 0.25582 0.11192 0.38511 0.0
N2260 N 0.23316 0.06769 0.37023 0.0
N2261 N 0.22226 0.18108 0.39066 0.0
C2262 C 0.23187 0.09376 0.38336 0.0
C2263 C 0.22541 0.15236 0.3948 0.0
N2264 N 0.18566 0.08478 0.40224 0.0
N2265 N 0.27466 0.15639 0.4039 0.0
H2266 H 0.20298 0.19055 0.38678 0.0
H2267 H 0.23921 0.1947 0.38687 0.0
H2268 H 0.2945 0.14775 0.40672 0.0
H2269 H 0.27234 0.17685 0.41252 0.0
H2270 H 0.18881 0.06272 0.40216 0.0
H2271 H 0.16724 0.09093 0.41228 0.0
H2272 H 0.21546 0.05511 0.3665 0.0
H2273 H 0.25099 0.06007 0.36013 0.0
C2274 C 0.73874 0.37014 0.63409 0.0
C2275 C 0.75826 0.38097 0.6139 0.0
C2276 C 0.72344 0.37563 0.57596 0.0
C2277 C 0.70578 0.36062 0.59512 0.0
N2278 N 0.69662 0.34218 0.64222 0.0
N2279 N 0.77063 0.39034 0.56469 0.0
C2280 C 0.71327 0.3577 0.62425 0.0
C2281 C 0.75095 0.38303 0.58459 0.0
N2282 N 0.74421 0.37252 0.66266 0.0
N2283 N 0.71367 0.38326 0.54964 0.0
H2284 H 0.79132 0.39516 0.56982 0.0
H2285 H 0.76715 0.389 0.54276 0.0
H2286 H 0.69323 0.37898 0.5431 0.0
H2287 H 0.72468 0.39649 0.53567 0.0
H2288 H 0.72969 0.36756 0.67848 0.0
H2289 H 0.76241 0.38199 0.67062 0.0
H2290 H 0.70258 0.33626 0.66276 0.0
H2291 H 0.67735 0.33375 0.63597 0.0
C2292 C 0.39788 0.97427 0.32499 0.0
C2293 C 0.39709 0.95672 0.34966 0.0
C2294 C 0.37643 0.99618 0.37688 0.0
C2295 C 0.38107 0.01478 0.35333 0.0
N2296 N 0.40045 0.02202 0.30596 0.0
N2297 N 0.39044 0.95268 0.4007 0.0
C2298 C 0.39309 0.004 0.32771 0.0
C2299 C 0.38736 0.96796 0.37602 0.0
N2300 N 0.40215 0.96244 0.29862 0.0
N2301 N 0.36219 0.00547 0.40038 0.0
H2302 H 0.39952 0.9325 0.40148 0.0
H2303 H 0.38665 0.96118 0.4209 0.0
H2304 H 0.35523 0.02635 0.4028 0.0
H2305 H 0.3554 0.99182 0.41655 0.0
H2306 H 0.39967 0.97375 0.27963 0.0
H2307 H 0.40496 0.94062 0.29533 0.0
H2308 H 0.41263 0.01561 0.28867 0.0
H2309 H 0.39623 0.04381 0.3058 0.0
C2310 C 0.77992 0.62686 0.06465 0.0
C2311 C 0.7996 0.63991 0.0834 0.0
C2312 C 0.77115 0.62515 0.12455 0.0
C2313 C 0.75005 0.6155 0.1056 0.0
N2314 N 0.73237 0.61072 0.05748 0.0
N2315 N 0.8122 0.65478 0.1313 0.0
C2316 C 0.75394 0.61712 0.07561 0.0
C2317 C 0.79492 0.63973 0.11344 0.0
N2318 N 0.78631 0.62304 0.03644 0.0
N2319 N 0.76874 0.61983 0.15316 0.0
H2320 H 0.82983 0.66581 0.12432 0.0
H2321 H 0.80783 0.65832 0.1528 0.0
H2322 H 0.75154 0.60928 0.16202 0.0
H2323 H 0.78481 0.6235 0.16774 0.0
H2324 H 0.77419 0.61071 0.02255 0.0
H2325 H 0.80504 0.62991 0.02738 0.0
H2326 H 0.73284 0.61511 0.03568 0.0
H2327 H 0.71302 0.60321 0.06443 0.0
C2328 C 0.61734 0.53732 0.38004 0.0
C2329 C 0.60715 0.54507 0.35261 0.0
C2330 C 0.6149 0.49593 0.3357 0.0
C2331 C 0.62839 0.48964 0.36181 0.0
N2332 N 0.64591 0.50502 0.4077 0.0
N2333 N 0.60008 0.53251 0.30276 0.0
C2334 C 0.63087 0.51063 0.38354 0.0
C2335 C 0.60677 0.52453 0.33001 0.0
N2336 N 0.61224 0.55429 0.40327 0.0
N2337 N 0.60994 0.47459 0.31626 0.0
H2338 H 0.59589 0.55349 0.29683 0.0
H2339 H 0.60207 0.51907 0.28512 0.0
H2340 H 0.61683 0.45365 0.319 0.0
H2341 H 0.59714 0.47705 0.29845 0.0
H2342 H 0.61686 0.54822 0.42413 0.0
H2343 H 0.60034 0.57284 0.40235 0.0
H2344 H 0.65114 0.52071 0.42266 0.0
H2345 H 0.65495 0.4852 0.4118 0.0
C2346 C 0.24679 0.85 0.87187 0.0
C2347 C 0.23617 0.87105 0.8908 0.0
C2348 C 0.28324 0.87838 0.91079 0.0
C2349 C 0.29284 0.85481 0.89436 0.0
N2350 N 0.28423 0.81756 0.85963 0.0
N2351 N 0.24409 0.90661 0.92748 0.0
C2352 C 0.27474 0.84048 0.87497 0.0
C2353 C 0.25445 0.88599 0.90971 0.0
N2354 N 0.23044 0.84018 0.84993 0.0
N2355 N 0.30163 0.89329 0.92767 0.0
H2356 H 0.22396 0.91465 0.92575 0.0
H2357 H 0.25501 0.91539 0.94462 0.0
H2358 H 0.32226 0.8871 0.93085 0.0
H2359 H 0.29707 0.91264 0.93758 0.0
H2360 H 0.23761 0.82702 0.83358 0.0
H2361 H 0.21025 0.84757 0.84639 0.0
H2362 H 0.27123 0.80374 0.84821 0.0
H2363 H 0.30512 0.81138 0.85933 0.0
C2364 C 0.35479 0.00858 0.14538 0.0
C2365 C 0.36251 0.99071 0.12215 0.0
C2366 C 0.39123 0.02964 0.10266 0.0
C2367 C 0.38079 0.04839 0.12392 0.0
N2368 N 0.34691 0.05718 0.16105 0.0
N2369 N 0.3822 0.98716 0.07463 0.0
C2370 C 0.3609 0.03831 0.14404 0.0
C2371 C 0.37913 0.00201 0.09961 0.0
N2372 N 0.34278 0.99714 0.16928 0.0
N2373 N 0.41327 0.03776 0.08592 0.0
H2374 H 0.37222 0.9677 0.07054 0.0
H2375 H 0.39198 0.99579 0.05669 0.0
H2376 H 0.42328 0.05755 0.08796 0.0
H2377 H 0.42337 0.02372 0.07209 0.0
H2378 H 0.33912 0.00904 0.18774 0.0
H2379 H 0.33932 0.97526 0.17189 0.0
H2380 H 0.33025 0.0511 0.17406 0.0
H2381 H 0.35014 0.07925 0.1601 0.0
C2382 C 0.09277 0.97261 0.65515 0.0
C2383 C 0.10928 0.95338 0.6389 0.0
C2384 C 0.1353 0.99419 0.61952 0.0
C2385 C 0.12185 0.01281 0.63914 0.0
N2386 N 0.09269 0.01703 0.68133 0.0
N2387 N 0.152 0.94621 0.61215 0.0
C2388 C 0.10204 0.00127 0.6587 0.0
C2389 C 0.13229 0.96421 0.623 0.0
N2390 N 0.06758 0.9642 0.66605 0.0
N2391 N 0.14976 0.00481 0.59669 0.0
H2392 H 0.15196 0.92425 0.61602 0.0
H2393 H 0.17022 0.95365 0.6024 0.0
H2394 H 0.15057 0.02652 0.59169 0.0
H2395 H 0.1579 0.99168 0.58073 0.0
H2396 H 0.0539 0.97842 0.67591 0.0
H2397 H 0.05879 0.94413 0.66218 0.0
H2398 H 0.08026 0.00829 0.69743 0.0
H2399 H 0.09984 0.03761 0.68595 0.0
loop_
_geom_bond_atom_site_label_1
_geom_bond_atom_site_label_2
_geom_bond_distance
_geom_bond_site_symmetry_2
_ccdc_geom_bond_type
Co0 O1 2.216 . S
Co0 O2 2.091 . S
Co0 O4 2.004 . S
Co0 O10 2.021 . S
Co0 O12 2.137 . S
Co0 O13 2.244 . S
O1 Co0 2.216 . S
O1 C8 1.247 . S
O2 Co0 2.091 . S
O2 C8 1.261 . S
C3 O12 1.247 . S
C3 O13 1.272 . S
O4 Co0 2.004 . S
O4 C9 1.259 . S
Co5 O6 2.061 . S
Co5 O11 2.052 . S
Co5 O13 2.135 . S
O6 Co5 2.061 . S
O6 C9 1.235 . S
C7 O10 1.238 . S
C7 O11 1.241 . S
C8 O1 1.247 . S
C8 O2 1.261 . S
C9 O4 1.259 . S
C9 O6 1.235 . S
O10 Co0 2.021 . S
O10 C7 1.238 . S
O11 Co5 2.052 . S
O11 C7 1.241 . S
O12 Co0 2.137 . S
O12 C3 1.247 . S
O13 Co0 2.244 . S
O13 C3 1.272 . S
O13 Co5 2.135 . S
Co14 O15 2.216 . S
Co14 O16 2.091 . S
Co14 O18 2.004 . S
Co14 O24 2.021 . S
Co14 O26 2.137 . S
Co14 O27 2.244 . S
O15 Co14 2.216 . S
O15 C22 1.247 . S
O16 Co14 2.091 . S
O16 C22 1.261 . S
C17 O26 1.247 . S
C17 O27 1.272 . S
O18 Co14 2.004 . S
O18 C23 1.259 . S
Co19 O20 2.061 . S
Co19 O25 2.052 . S
Co19 O27 2.135 . S
O20 Co19 2.061 . S
O20 C23 1.235 . S
C21 O24 1.238 . S
C21 O25 1.241 . S
C22 O15 1.247 . S
C22 O16 1.261 . S
C23 O18 1.259 . S
C23 O20 1.235 . S
O24 Co14 2.021 . S
O24 C21 1.238 . S
O25 Co19 2.052 . S
O25 C21 1.241 . S
O26 Co14 2.137 . S
O26 C17 1.247 . S
O27 Co14 2.244 . S
O27 C17 1.272 . S
O27 Co19 2.135 . S
Co28 O29 2.216 . S
Co28 O30 2.091 . S
Co28 O32 2.004 . S
Co28 O38 2.021 . S
Co28 O40 2.137 . S
Co28 O41 2.244 . S
O29 Co28 2.216 . S
O29 C36 1.247 . S
O30 Co28 2.091 . S
O30 C36 1.261 . S
C31 O40 1.247 . S
C31 O41 1.272 . S
O32 Co28 2.004 . S
O32 C37 1.259 . S
Co33 O34 2.061 . S
Co33 O39 2.052 . S
Co33 O41 2.135 . S
O34 Co33 2.061 . S
O34 C37 1.235 . S
C35 O38 1.238 . S
C35 O39 1.241 . S
C36 O29 1.247 . S
C36 O30 1.261 . S
C37 O32 1.259 . S
C37 O34 1.235 . S
O38 Co28 2.021 . S
O38 C35 1.238 . S
O39 Co33 2.052 . S
O39 C35 1.241 . S
O40 Co28 2.137 . S
O40 C31 1.247 . S
O41 Co28 2.244 . S
O41 C31 1.272 . S
O41 Co33 2.135 . S
Co42 O43 2.216 . S
Co42 O44 2.091 . S
Co42 O46 2.004 . S
Co42 O52 2.021 . S
Co42 O54 2.137 . S
Co42 O55 2.244 . S
O43 Co42 2.216 . S
O43 C50 1.247 . S
O44 Co42 2.091 . S
O44 C50 1.261 . S
C45 O54 1.247 . S
C45 O55 1.272 . S
O46 Co42 2.004 . S
O46 C51 1.259 . S
Co47 O48 2.061 . S
Co47 O53 2.052 . S
Co47 O55 2.135 . S
O48 Co47 2.061 . S
O48 C51 1.235 . S
C49 O52 1.238 . S
C49 O53 1.241 . S
C50 O43 1.247 . S
C50 O44 1.261 . S
C51 O46 1.259 . S
C51 O48 1.235 . S
O52 Co42 2.021 . S
O52 C49 1.238 . S
O53 Co47 2.052 . S
O53 C49 1.241 . S
O54 Co42 2.137 . S
O54 C45 1.247 . S
O55 Co42 2.244 . S
O55 C45 1.272 . S
O55 Co47 2.135 . S
Co56 O57 2.216 . S
Co56 O58 2.091 . S
Co56 O60 2.004 . S
Co56 O66 2.021 . S
Co56 O68 2.137 . S
Co56 O69 2.244 . S
O57 Co56 2.216 . S
O57 C64 1.247 . S
O58 Co56 2.091 . S
O58 C64 1.261 . S
C59 O68 1.247 . S
C59 O69 1.272 . S
O60 Co56 2.004 . S
O60 C65 1.259 . S
Co61 O62 2.061 . S
Co61 O67 2.052 . S
Co61 O69 2.135 . S
O62 Co61 2.061 . S
O62 C65 1.235 . S
C63 O66 1.238 . S
C63 O67 1.241 . S
C64 O57 1.247 . S
C64 O58 1.261 . S
C65 O60 1.259 . S
C65 O62 1.235 . S
O66 Co56 2.021 . S
O66 C63 1.238 . S
O67 Co61 2.052 . S
O67 C63 1.241 . S
O68 Co56 2.137 . S
O68 C59 1.247 . S
O69 Co56 2.244 . S
O69 C59 1.272 . S
O69 Co61 2.135 . S
Co70 O71 2.216 . S
Co70 O72 2.091 . S
Co70 O74 2.004 . S
Co70 O80 2.021 . S
Co70 O82 2.137 . S
Co70 O83 2.244 . S
O71 Co70 2.216 . S
O71 C78 1.247 . S
O72 Co70 2.091 . S
O72 C78 1.261 . S
C73 O82 1.247 . S
C73 O83 1.272 . S
O74 Co70 2.004 . S
O74 C79 1.259 . S
Co75 O76 2.061 . S
Co75 O81 2.052 . S
Co75 O83 2.135 . S
O76 Co75 2.061 . S
O76 C79 1.235 . S
C77 O80 1.238 . S
C77 O81 1.241 . S
C78 O71 1.247 . S
C78 O72 1.261 . S
C79 O74 1.259 . S
C79 O76 1.235 . S
O80 Co70 2.021 . S
O80 C77 1.238 . S
O81 Co75 2.052 . S
O81 C77 1.241 . S
O82 Co70 2.137 . S
O82 C73 1.247 . S
O83 Co70 2.244 . S
O83 C73 1.272 . S
O83 Co75 2.135 . S
Co84 O85 2.216 . S
Co84 O86 2.091 . S
Co84 O88 2.004 . S
Co84 O94 2.021 . S
Co84 O96 2.137 . S
Co84 O97 2.244 . S
O85 Co84 2.216 . S
O85 C92 1.247 . S
O86 Co84 2.091 . S
O86 C92 1.261 . S
C87 O96 1.247 . S
C87 O97 1.272 . S
O88 Co84 2.004 . S
O88 C93 1.259 . S
Co89 O90 2.061 . S
Co89 O95 2.052 . S
Co89 O97 2.135 . S
O90 Co89 2.061 . S
O90 C93 1.235 . S
C91 O94 1.238 . S
C91 O95 1.241 . S
C92 O85 1.247 . S
C92 O86 1.261 . S
C93 O88 1.259 . S
C93 O90 1.235 . S
O94 Co84 2.021 . S
O94 C91 1.238 . S
O95 Co89 2.052 . S
O95 C91 1.241 . S
O96 Co84 2.137 . S
O96 C87 1.247 . S
O97 Co84 2.244 . S
O97 C87 1.272 . S
O97 Co89 2.135 . S
Co98 O99 2.216 . S
Co98 O100 2.091 . S
Co98 O102 2.004 . S
Co98 O108 2.021 . S
Co98 O110 2.137 . S
Co98 O111 2.244 . S
O99 Co98 2.216 . S
O99 C106 1.247 . S
O100 Co98 2.091 . S
O100 C106 1.261 . S
C101 O110 1.247 . S
C101 O111 1.272 . S
O102 Co98 2.004 . S
O102 C107 1.259 . S
Co103 O104 2.061 . S
Co103 O109 2.052 . S
Co103 O111 2.135 . S
O104 Co103 2.061 . S
O104 C107 1.235 . S
C105 O108 1.238 . S
C105 O109 1.241 . S
C106 O99 1.247 . S
C106 O100 1.261 . S
C107 O102 1.259 . S
C107 O104 1.235 . S
O108 Co98 2.021 . S
O108 C105 1.238 . S
O109 Co103 2.052 . S
O109 C105 1.241 . S
O110 Co98 2.137 . S
O110 C101 1.247 . S
O111 Co98 2.244 . S
O111 C101 1.272 . S
O111 Co103 2.135 . S
Co112 O113 2.216 . S
Co112 O114 2.091 . S
Co112 O116 2.004 . S
Co112 O122 2.021 . S
Co112 O124 2.137 . S
Co112 O125 2.244 . S
O113 Co112 2.216 . S
O113 C120 1.247 . S
O114 Co112 2.091 . S
O114 C120 1.261 . S
C115 O124 1.247 . S
C115 O125 1.272 . S
O116 Co112 2.004 . S
O116 C121 1.259 . S
Co117 O118 2.061 . S
Co117 O123 2.052 . S
Co117 O125 2.135 . S
O118 Co117 2.061 . S
O118 C121 1.235 . S
C119 O122 1.238 . S
C119 O123 1.241 . S
C120 O113 1.247 . S
C120 O114 1.261 . S
C121 O116 1.259 . S
C121 O118 1.235 . S
O122 Co112 2.021 . S
O122 C119 1.238 . S
O123 Co117 2.052 . S
O123 C119 1.241 . S
O124 Co112 2.137 . S
O124 C115 1.247 . S
O125 Co112 2.244 . S
O125 C115 1.272 . S
O125 Co117 2.135 . S
Co126 O127 2.216 . S
Co126 O128 2.091 . S
Co126 O130 2.004 . S
Co126 O136 2.021 . S
Co126 O138 2.137 . S
Co126 O139 2.244 . S
O127 Co126 2.216 . S
O127 C134 1.247 . S
O128 Co126 2.091 . S
O128 C134 1.261 . S
C129 O138 1.247 . S
C129 O139 1.272 . S
O130 Co126 2.004 . S
O130 C135 1.259 . S
Co131 O132 2.061 . S
Co131 O137 2.052 . S
Co131 O139 2.135 . S
O132 Co131 2.061 . S
O132 C135 1.235 . S
C133 O136 1.238 . S
C133 O137 1.241 . S
C134 O127 1.247 . S
C134 O128 1.261 . S
C135 O130 1.259 . S
C135 O132 1.235 . S
O136 Co126 2.021 . S
O136 C133 1.238 . S
O137 Co131 2.052 . S
O137 C133 1.241 . S
O138 Co126 2.137 . S
O138 C129 1.247 . S
O139 Co126 2.244 . S
O139 C129 1.272 . S
O139 Co131 2.135 . S
Co140 O141 2.216 . S
Co140 O142 2.091 . S
Co140 O144 2.004 . S
Co140 O150 2.021 . S
Co140 O152 2.137 . S
Co140 O153 2.244 . S
O141 Co140 2.216 . S
O141 C148 1.247 . S
O142 Co140 2.091 . S
O142 C148 1.261 . S
C143 O152 1.247 . S
C143 O153 1.272 . S
O144 Co140 2.004 . S
O144 C149 1.259 . S
Co145 O146 2.061 . S
Co145 O151 2.052 . S
Co145 O153 2.135 . S
O146 Co145 2.061 . S
O146 C149 1.235 . S
C147 O150 1.238 . S
C147 O151 1.241 . S
C148 O141 1.247 . S
C148 O142 1.261 . S
C149 O144 1.259 . S
C149 O146 1.235 . S
O150 Co140 2.021 . S
O150 C147 1.238 . S
O151 Co145 2.052 . S
O151 C147 1.241 . S
O152 Co140 2.137 . S
O152 C143 1.247 . S
O153 Co140 2.244 . S
O153 C143 1.272 . S
O153 Co145 2.135 . S
Co154 O155 2.216 . S
Co154 O156 2.091 . S
Co154 O158 2.004 . S
Co154 O164 2.021 . S
Co154 O166 2.137 . S
Co154 O167 2.244 . S
O155 Co154 2.216 . S
O155 C162 1.247 . S
O156 Co154 2.091 . S
O156 C162 1.261 . S
C157 O166 1.247 . S
C157 O167 1.272 . S
O158 Co154 2.004 . S
O158 C163 1.259 . S
Co159 O160 2.061 . S
Co159 O165 2.052 . S
Co159 O167 2.135 . S
O160 Co159 2.061 . S
O160 C163 1.235 . S
C161 O164 1.238 . S
C161 O165 1.241 . S
C162 O155 1.247 . S
C162 O156 1.261 . S
C163 O158 1.259 . S
C163 O160 1.235 . S
O164 Co154 2.021 . S
O164 C161 1.238 . S
O165 Co159 2.052 . S
O165 C161 1.241 . S
O166 Co154 2.137 . S
O166 C157 1.247 . S
O167 Co154 2.244 . S
O167 C157 1.272 . S
O167 Co159 2.135 . S
Co168 O169 2.216 . S
Co168 O170 2.091 . S
Co168 O172 2.004 . S
Co168 O178 2.021 . S
Co168 O180 2.137 . S
Co168 O181 2.244 . S
O169 Co168 2.216 . S
O169 C176 1.247 . S
O170 Co168 2.091 . S
O170 C176 1.261 . S
C171 O180 1.247 . S
C171 O181 1.272 . S
O172 Co168 2.004 . S
O172 C177 1.259 . S
Co173 O174 2.061 . S
Co173 O179 2.052 . S
Co173 O181 2.135 . S
O174 Co173 2.061 . S
O174 C177 1.235 . S
C175 O178 1.238 . S
C175 O179 1.241 . S
C176 O169 1.247 . S
C176 O170 1.261 . S
C177 O172 1.259 . S
C177 O174 1.235 . S
O178 Co168 2.021 . S
O178 C175 1.238 . S
O179 Co173 2.052 . S
O179 C175 1.241 . S
O180 Co168 2.137 . S
O180 C171 1.247 . S
O181 Co168 2.244 . S
O181 C171 1.272 . S
O181 Co173 2.135 . S
Co182 O183 2.216 . S
Co182 O184 2.091 . S
Co182 O186 2.004 . S
Co182 O192 2.021 . S
Co182 O194 2.137 . S
Co182 O195 2.244 . S
O183 Co182 2.216 . S
O183 C190 1.247 . S
O184 Co182 2.091 . S
O184 C190 1.261 . S
C185 O194 1.247 . S
C185 O195 1.272 . S
O186 Co182 2.004 . S
O186 C191 1.259 . S
Co187 O188 2.061 . S
Co187 O193 2.052 . S
Co187 O195 2.135 . S
O188 Co187 2.061 . S
O188 C191 1.235 . S
C189 O192 1.238 . S
C189 O193 1.241 . S
C190 O183 1.247 . S
C190 O184 1.261 . S
C191 O186 1.259 . S
C191 O188 1.235 . S
O192 Co182 2.021 . S
O192 C189 1.238 . S
O193 Co187 2.052 . S
O193 C189 1.241 . S
O194 Co182 2.137 . S
O194 C185 1.247 . S
O195 Co182 2.244 . S
O195 C185 1.272 . S
O195 Co187 2.135 . S
Co196 O197 2.216 . S
Co196 O198 2.091 . S
Co196 O200 2.004 . S
Co196 O206 2.021 . S
Co196 O208 2.137 . S
Co196 O209 2.244 . S
O197 Co196 2.216 . S
O197 C204 1.247 . S
O198 Co196 2.091 . S
O198 C204 1.261 . S
C199 O208 1.247 . S
C199 O209 1.272 . S
O200 Co196 2.004 . S
O200 C205 1.259 . S
Co201 O202 2.061 . S
Co201 O207 2.052 . S
Co201 O209 2.135 . S
O202 Co201 2.061 . S
O202 C205 1.235 . S
C203 O206 1.238 . S
C203 O207 1.241 . S
C204 O197 1.247 . S
C204 O198 1.261 . S
C205 O200 1.259 . S
C205 O202 1.235 . S
O206 Co196 2.021 . S
O206 C203 1.238 . S
O207 Co201 2.052 . S
O207 C203 1.241 . S
O208 Co196 2.137 . S
O208 C199 1.247 . S
O209 Co196 2.244 . S
O209 C199 1.272 . S
O209 Co201 2.135 . S
Co210 O211 2.216 . S
Co210 O212 2.091 . S
Co210 O214 2.004 . S
Co210 O220 2.021 . S
Co210 O222 2.137 . S
Co210 O223 2.244 . S
O211 Co210 2.216 . S
O211 C218 1.247 . S
O212 Co210 2.091 . S
O212 C218 1.261 . S
C213 O222 1.247 . S
C213 O223 1.272 . S
O214 Co210 2.004 . S
O214 C219 1.259 . S
Co215 O216 2.061 . S
Co215 O221 2.052 . S
Co215 O223 2.135 . S
O216 Co215 2.061 . S
O216 C219 1.235 . S
C217 O220 1.238 . S
C217 O221 1.241 . S
C218 O211 1.247 . S
C218 O212 1.261 . S
C219 O214 1.259 . S
C219 O216 1.235 . S
O220 Co210 2.021 . S
O220 C217 1.238 . S
O221 Co215 2.052 . S
O221 C217 1.241 . S
O222 Co210 2.137 . S
O222 C213 1.247 . S
O223 Co210 2.244 . S
O223 C213 1.272 . S
O223 Co215 2.135 . S
Co224 O225 2.216 . S
Co224 O226 2.091 . S
Co224 O228 2.004 . S
Co224 O234 2.021 . S
Co224 O236 2.137 . S
Co224 O237 2.244 . S
O225 Co224 2.216 . S
O225 C232 1.247 . S
O226 Co224 2.091 . S
O226 C232 1.261 . S
C227 O236 1.247 . S
C227 O237 1.272 . S
O228 Co224 2.004 . S
O228 C233 1.259 . S
Co229 O230 2.061 . S
Co229 O235 2.052 . S
Co229 O237 2.135 . S
O230 Co229 2.061 . S
O230 C233 1.235 . S
C231 O234 1.238 . S
C231 O235 1.241 . S
C232 O225 1.247 . S
C232 O226 1.261 . S
C233 O228 1.259 . S
C233 O230 1.235 . S
O234 Co224 2.021 . S
O234 C231 1.238 . S
O235 Co229 2.052 . S
O235 C231 1.241 . S
O236 Co224 2.137 . S
O236 C227 1.247 . S
O237 Co224 2.244 . S
O237 C227 1.272 . S
O237 Co229 2.135 . S
Co238 O239 2.216 . S
Co238 O240 2.091 . S
Co238 O242 2.004 . S
Co238 O248 2.021 . S
Co238 O250 2.137 . S
Co238 O251 2.244 . S
O239 Co238 2.216 . S
O239 C246 1.247 . S
O240 Co238 2.091 . S
O240 C246 1.261 . S
C241 O250 1.247 . S
C241 O251 1.272 . S
O242 Co238 2.004 . S
O242 C247 1.259 . S
Co243 O244 2.061 . S
Co243 O249 2.052 . S
Co243 O251 2.135 . S
O244 Co243 2.061 . S
O244 C247 1.235 . S
C245 O248 1.238 . S
C245 O249 1.241 . S
C246 O239 1.247 . S
C246 O240 1.261 . S
C247 O242 1.259 . S
C247 O244 1.235 . S
O248 Co238 2.021 . S
O248 C245 1.238 . S
O249 Co243 2.052 . S
O249 C245 1.241 . S
O250 Co238 2.137 . S
O250 C241 1.247 . S
O251 Co238 2.244 . S
O251 C241 1.272 . S
O251 Co243 2.135 . S
Co252 O253 2.216 . S
Co252 O254 2.091 . S
Co252 O256 2.004 . S
Co252 O262 2.021 . S
Co252 O264 2.137 . S
Co252 O265 2.244 . S
O253 Co252 2.216 . S
O253 C260 1.247 . S
O254 Co252 2.091 . S
O254 C260 1.261 . S
C255 O264 1.247 . S
C255 O265 1.272 . S
O256 Co252 2.004 . S
O256 C261 1.259 . S
Co257 O258 2.061 . S
Co257 O263 2.052 . S
Co257 O265 2.135 . S
O258 Co257 2.061 . S
O258 C261 1.235 . S
C259 O262 1.238 . S
C259 O263 1.241 . S
C260 O253 1.247 . S
C260 O254 1.261 . S
C261 O256 1.259 . S
C261 O258 1.235 . S
O262 Co252 2.021 . S
O262 C259 1.238 . S
O263 Co257 2.052 . S
O263 C259 1.241 . S
O264 Co252 2.137 . S
O264 C255 1.247 . S
O265 Co252 2.244 . S
O265 C255 1.272 . S
O265 Co257 2.135 . S
Co266 O267 2.216 . S
Co266 O268 2.091 . S
Co266 O270 2.004 . S
Co266 O276 2.021 . S
Co266 O278 2.137 . S
Co266 O279 2.244 . S
O267 Co266 2.216 . S
O267 C274 1.247 . S
O268 Co266 2.091 . S
O268 C274 1.261 . S
C269 O278 1.247 . S
C269 O279 1.272 . S
O270 Co266 2.004 . S
O270 C275 1.259 . S
Co271 O272 2.061 . S
Co271 O277 2.052 . S
Co271 O279 2.135 . S
O272 Co271 2.061 . S
O272 C275 1.235 . S
C273 O276 1.238 . S
C273 O277 1.241 . S
C274 O267 1.247 . S
C274 O268 1.261 . S
C275 O270 1.259 . S
C275 O272 1.235 . S
O276 Co266 2.021 . S
O276 C273 1.238 . S
O277 Co271 2.052 . S
O277 C273 1.241 . S
O278 Co266 2.137 . S
O278 C269 1.247 . S
O279 Co266 2.244 . S
O279 C269 1.272 . S
O279 Co271 2.135 . S
Co280 O281 2.216 . S
Co280 O282 2.091 . S
Co280 O284 2.004 . S
Co280 O290 2.021 . S
Co280 O292 2.137 . S
Co280 O293 2.244 . S
O281 Co280 2.216 . S
O281 C288 1.247 . S
O282 Co280 2.091 . S
O282 C288 1.261 . S
C283 O292 1.247 . S
C283 O293 1.272 . S
O284 Co280 2.004 . S
O284 C289 1.259 . S
Co285 O286 2.061 . S
Co285 O291 2.052 . S
Co285 O293 2.135 . S
O286 Co285 2.061 . S
O286 C289 1.235 . S
C287 O290 1.238 . S
C287 O291 1.241 . S
C288 O281 1.247 . S
C288 O282 1.261 . S
C289 O284 1.259 . S
C289 O286 1.235 . S
O290 Co280 2.021 . S
O290 C287 1.238 . S
O291 Co285 2.052 . S
O291 C287 1.241 . S
O292 Co280 2.137 . S
O292 C283 1.247 . S
O293 Co280 2.244 . S
O293 C283 1.272 . S
O293 Co285 2.135 . S
Co294 O295 2.216 . S
Co294 O296 2.091 . S
Co294 O298 2.004 . S
Co294 O304 2.021 . S
Co294 O306 2.137 . S
Co294 O307 2.244 . S
O295 Co294 2.216 . S
O295 C302 1.247 . S
O296 Co294 2.091 . S
O296 C302 1.261 . S
C297 O306 1.247 . S
C297 O307 1.272 . S
O298 Co294 2.004 . S
O298 C303 1.259 . S
Co299 O300 2.061 . S
Co299 O305 2.052 . S
Co299 O307 2.135 . S
O300 Co299 2.061 . S
O300 C303 1.235 . S
C301 O304 1.238 . S
C301 O305 1.241 . S
C302 O295 1.247 . S
C302 O296 1.261 . S
C303 O298 1.259 . S
C303 O300 1.235 . S
O304 Co294 2.021 . S
O304 C301 1.238 . S
O305 Co299 2.052 . S
O305 C301 1.241 . S
O306 Co294 2.137 . S
O306 C297 1.247 . S
O307 Co294 2.244 . S
O307 C297 1.272 . S
O307 Co299 2.135 . S
Co308 O309 2.216 . S
Co308 O310 2.091 . S
Co308 O312 2.004 . S
Co308 O318 2.021 . S
Co308 O320 2.137 . S
Co308 O321 2.244 . S
O309 Co308 2.216 . S
O309 C316 1.247 . S
O310 Co308 2.091 . S
O310 C316 1.261 . S
C311 O320 1.247 . S
C311 O321 1.272 . S
O312 Co308 2.004 . S
O312 C317 1.259 . S
Co313 O314 2.061 . S
Co313 O319 2.052 . S
Co313 O321 2.135 . S
O314 Co313 2.061 . S
O314 C317 1.235 . S
C315 O318 1.238 . S
C315 O319 1.241 . S
C316 O309 1.247 . S
C316 O310 1.261 . S
C317 O312 1.259 . S
C317 O314 1.235 . S
O318 Co308 2.021 . S
O318 C315 1.238 . S
O319 Co313 2.052 . S
O319 C315 1.241 . S
O320 Co308 2.137 . S
O320 C311 1.247 . S
O321 Co308 2.244 . S
O321 C311 1.272 . S
O321 Co313 2.135 . S
Co322 O323 2.216 . S
Co322 O324 2.091 . S
Co322 O326 2.004 . S
Co322 O332 2.021 . S
Co322 O334 2.137 . S
Co322 O335 2.244 . S
O323 Co322 2.216 . S
O323 C330 1.247 . S
O324 Co322 2.091 . S
O324 C330 1.261 . S
C325 O334 1.247 . S
C325 O335 1.272 . S
O326 Co322 2.004 . S
O326 C331 1.259 . S
Co327 O328 2.061 . S
Co327 O333 2.052 . S
Co327 O335 2.135 . S
O328 Co327 2.061 . S
O328 C331 1.235 . S
C329 O332 1.238 . S
C329 O333 1.241 . S
C330 O323 1.247 . S
C330 O324 1.261 . S
C331 O326 1.259 . S
C331 O328 1.235 . S
O332 Co322 2.021 . S
O332 C329 1.238 . S
O333 Co327 2.052 . S
O333 C329 1.241 . S
O334 Co322 2.137 . S
O334 C325 1.247 . S
O335 Co322 2.244 . S
O335 C325 1.272 . S
O335 Co327 2.135 . S
Co336 O337 2.216 . S
Co336 O338 2.091 . S
Co336 O340 2.004 . S
Co336 O346 2.021 . S
Co336 O348 2.137 . S
Co336 O349 2.244 . S
O337 Co336 2.216 . S
O337 C344 1.247 . S
O338 Co336 2.091 . S
O338 C344 1.261 . S
C339 O348 1.247 . S
C339 O349 1.272 . S
O340 Co336 2.004 . S
O340 C345 1.259 . S
Co341 O342 2.061 . S
Co341 O347 2.052 . S
Co341 O349 2.135 . S
O342 Co341 2.061 . S
O342 C345 1.235 . S
C343 O346 1.238 . S
C343 O347 1.241 . S
C344 O337 1.247 . S
C344 O338 1.261 . S
C345 O340 1.259 . S
C345 O342 1.235 . S
O346 Co336 2.021 . S
O346 C343 1.238 . S
O347 Co341 2.052 . S
O347 C343 1.241 . S
O348 Co336 2.137 . S
O348 C339 1.247 . S
O349 Co336 2.244 . S
O349 C339 1.272 . S
O349 Co341 2.135 . S
Co350 O351 2.216 . S
Co350 O352 2.091 . S
Co350 O354 2.004 . S
Co350 O360 2.021 . S
Co350 O362 2.137 . S
Co350 O363 2.244 . S
O351 Co350 2.216 . S
O351 C358 1.247 . S
O352 Co350 2.091 . S
O352 C358 1.261 . S
C353 O362 1.247 . S
C353 O363 1.272 . S
O354 Co350 2.004 . S
O354 C359 1.259 . S
Co355 O356 2.061 . S
Co355 O361 2.052 . S
Co355 O363 2.135 . S
O356 Co355 2.061 . S
O356 C359 1.235 . S
C357 O360 1.238 . S
C357 O361 1.241 . S
C358 O351 1.247 . S
C358 O352 1.261 . S
C359 O354 1.259 . S
C359 O356 1.235 . S
O360 Co350 2.021 . S
O360 C357 1.238 . S
O361 Co355 2.052 . S
O361 C357 1.241 . S
O362 Co350 2.137 . S
O362 C353 1.247 . S
O363 Co350 2.244 . S
O363 C353 1.272 . S
O363 Co355 2.135 . S
Co364 O365 2.216 . S
Co364 O366 2.091 . S
Co364 O368 2.004 . S
Co364 O374 2.021 . S
Co364 O376 2.137 . S
Co364 O377 2.244 . S
O365 Co364 2.216 . S
O365 C372 1.247 . S
O366 Co364 2.091 . S
O366 C372 1.261 . S
C367 O376 1.247 . S
C367 O377 1.272 . S
O368 Co364 2.004 . S
O368 C373 1.259 . S
Co369 O370 2.061 . S
Co369 O375 2.052 . S
Co369 O377 2.135 . S
O370 Co369 2.061 . S
O370 C373 1.235 . S
C371 O374 1.238 . S
C371 O375 1.241 . S
C372 O365 1.247 . S
C372 O366 1.261 . S
C373 O368 1.259 . S
C373 O370 1.235 . S
O374 Co364 2.021 . S
O374 C371 1.238 . S
O375 Co369 2.052 . S
O375 C371 1.241 . S
O376 Co364 2.137 . S
O376 C367 1.247 . S
O377 Co364 2.244 . S
O377 C367 1.272 . S
O377 Co369 2.135 . S
Co378 O379 2.216 . S
Co378 O380 2.091 . S
Co378 O382 2.004 . S
Co378 O388 2.021 . S
Co378 O390 2.137 . S
Co378 O391 2.244 . S
O379 Co378 2.216 . S
O379 C386 1.247 . S
O380 Co378 2.091 . S
O380 C386 1.261 . S
C381 O390 1.247 . S
C381 O391 1.272 . S
O382 Co378 2.004 . S
O382 C387 1.259 . S
Co383 O384 2.061 . S
Co383 O389 2.052 . S
Co383 O391 2.135 . S
O384 Co383 2.061 . S
O384 C387 1.235 . S
C385 O388 1.238 . S
C385 O389 1.241 . S
C386 O379 1.247 . S
C386 O380 1.261 . S
C387 O382 1.259 . S
C387 O384 1.235 . S
O388 Co378 2.021 . S
O388 C385 1.238 . S
O389 Co383 2.052 . S
O389 C385 1.241 . S
O390 Co378 2.137 . S
O390 C381 1.247 . S
O391 Co378 2.244 . S
O391 C381 1.272 . S
O391 Co383 2.135 . S
Co392 O393 2.216 . S
Co392 O394 2.091 . S
Co392 O396 2.004 . S
Co392 O402 2.021 . S
Co392 O404 2.137 . S
Co392 O405 2.244 . S
O393 Co392 2.216 . S
O393 C400 1.247 . S
O394 Co392 2.091 . S
O394 C400 1.261 . S
C395 O404 1.247 . S
C395 O405 1.272 . S
O396 Co392 2.004 . S
O396 C401 1.259 . S
Co397 O398 2.061 . S
Co397 O403 2.052 . S
Co397 O405 2.135 . S
O398 Co397 2.061 . S
O398 C401 1.235 . S
C399 O402 1.238 . S
C399 O403 1.241 . S
C400 O393 1.247 . S
C400 O394 1.261 . S
C401 O396 1.259 . S
C401 O398 1.235 . S
O402 Co392 2.021 . S
O402 C399 1.238 . S
O403 Co397 2.052 . S
O403 C399 1.241 . S
O404 Co392 2.137 . S
O404 C395 1.247 . S
O405 Co392 2.244 . S
O405 C395 1.272 . S
O405 Co397 2.135 . S
Co406 O407 2.216 . S
Co406 O408 2.091 . S
Co406 O410 2.004 . S
Co406 O416 2.021 . S
Co406 O418 2.137 . S
Co406 O419 2.244 . S
O407 Co406 2.216 . S
O407 C414 1.247 . S
O408 Co406 2.091 . S
O408 C414 1.261 . S
C409 O418 1.247 . S
C409 O419 1.272 . S
O410 Co406 2.004 . S
O410 C415 1.259 . S
Co411 O412 2.061 . S
Co411 O417 2.052 . S
Co411 O419 2.135 . S
O412 Co411 2.061 . S
O412 C415 1.235 . S
C413 O416 1.238 . S
C413 O417 1.241 . S
C414 O407 1.247 . S
C414 O408 1.261 . S
C415 O410 1.259 . S
C415 O412 1.235 . S
O416 Co406 2.021 . S
O416 C413 1.238 . S
O417 Co411 2.052 . S
O417 C413 1.241 . S
O418 Co406 2.137 . S
O418 C409 1.247 . S
O419 Co406 2.244 . S
O419 C409 1.272 . S
O419 Co411 2.135 . S
Co420 O421 2.216 . S
Co420 O422 2.091 . S
Co420 O424 2.004 . S
Co420 O430 2.021 . S
Co420 O432 2.137 . S
Co420 O433 2.244 . S
O421 Co420 2.216 . S
O421 C428 1.247 . S
O422 Co420 2.091 . S
O422 C428 1.261 . S
C423 O432 1.247 . S
C423 O433 1.272 . S
O424 Co420 2.004 . S
O424 C429 1.259 . S
Co425 O426 2.061 . S
Co425 O431 2.052 . S
Co425 O433 2.135 . S
O426 Co425 2.061 . S
O426 C429 1.235 . S
C427 O430 1.238 . S
C427 O431 1.241 . S
C428 O421 1.247 . S
C428 O422 1.261 . S
C429 O424 1.259 . S
C429 O426 1.235 . S
O430 Co420 2.021 . S
O430 C427 1.238 . S
O431 Co425 2.052 . S
O431 C427 1.241 . S
O432 Co420 2.137 . S
O432 C423 1.247 . S
O433 Co420 2.244 . S
O433 C423 1.272 . S
O433 Co425 2.135 . S
Co434 O435 2.216 . S
Co434 O436 2.091 . S
Co434 O438 2.004 . S
Co434 O444 2.021 . S
Co434 O446 2.137 . S
Co434 O447 2.244 . S
O435 Co434 2.216 . S
O435 C442 1.247 . S
O436 Co434 2.091 . S
O436 C442 1.261 . S
C437 O446 1.247 . S
C437 O447 1.272 . S
O438 Co434 2.004 . S
O438 C443 1.259 . S
Co439 O440 2.061 . S
Co439 O445 2.052 . S
Co439 O447 2.135 . S
O440 Co439 2.061 . S
O440 C443 1.235 . S
C441 O444 1.238 . S
C441 O445 1.241 . S
C442 O435 1.247 . S
C442 O436 1.261 . S
C443 O438 1.259 . S
C443 O440 1.235 . S
O444 Co434 2.021 . S
O444 C441 1.238 . S
O445 Co439 2.052 . S
O445 C441 1.241 . S
O446 Co434 2.137 . S
O446 C437 1.247 . S
O447 Co434 2.244 . S
O447 C437 1.272 . S
O447 Co439 2.135 . S
Co448 O449 2.216 . S
Co448 O450 2.091 . S
Co448 O452 2.004 . S
Co448 O458 2.021 . S
Co448 O460 2.137 . S
Co448 O461 2.244 . S
O449 Co448 2.216 . S
O449 C456 1.247 . S
O450 Co448 2.091 . S
O450 C456 1.261 . S
C451 O460 1.247 . S
C451 O461 1.272 . S
O452 Co448 2.004 . S
O452 C457 1.259 . S
Co453 O454 2.061 . S
Co453 O459 2.052 . S
Co453 O461 2.135 . S
O454 Co453 2.061 . S
O454 C457 1.235 . S
C455 O458 1.238 . S
C455 O459 1.241 . S
C456 O449 1.247 . S
C456 O450 1.261 . S
C457 O452 1.259 . S
C457 O454 1.235 . S
O458 Co448 2.021 . S
O458 C455 1.238 . S
O459 Co453 2.052 . S
O459 C455 1.241 . S
O460 Co448 2.137 . S
O460 C451 1.247 . S
O461 Co448 2.244 . S
O461 C451 1.272 . S
O461 Co453 2.135 . S
Co462 O463 2.216 . S
Co462 O464 2.091 . S
Co462 O466 2.004 . S
Co462 O472 2.021 . S
Co462 O474 2.137 . S
Co462 O475 2.244 . S
O463 Co462 2.216 . S
O463 C470 1.247 . S
O464 Co462 2.091 . S
O464 C470 1.261 . S
C465 O474 1.247 . S
C465 O475 1.272 . S
O466 Co462 2.004 . S
O466 C471 1.259 . S
Co467 O468 2.061 . S
Co467 O473 2.052 . S
Co467 O475 2.135 . S
O468 Co467 2.061 . S
O468 C471 1.235 . S
C469 O472 1.238 . S
C469 O473 1.241 . S
C470 O463 1.247 . S
C470 O464 1.261 . S
C471 O466 1.259 . S
C471 O468 1.235 . S
O472 Co462 2.021 . S
O472 C469 1.238 . S
O473 Co467 2.052 . S
O473 C469 1.241 . S
O474 Co462 2.137 . S
O474 C465 1.247 . S
O475 Co462 2.244 . S
O475 C465 1.272 . S
O475 Co467 2.135 . S
Co476 O477 2.216 . S
Co476 O478 2.091 . S
Co476 O480 2.004 . S
Co476 O486 2.021 . S
Co476 O488 2.137 . S
Co476 O489 2.244 . S
O477 Co476 2.216 . S
O477 C484 1.247 . S
O478 Co476 2.091 . S
O478 C484 1.261 . S
C479 O488 1.247 . S
C479 O489 1.272 . S
O480 Co476 2.004 . S
O480 C485 1.259 . S
Co481 O482 2.061 . S
Co481 O487 2.052 . S
Co481 O489 2.135 . S
O482 Co481 2.061 . S
O482 C485 1.235 . S
C483 O486 1.238 . S
C483 O487 1.241 . S
C484 O477 1.247 . S
C484 O478 1.261 . S
C485 O480 1.259 . S
C485 O482 1.235 . S
O486 Co476 2.021 . S
O486 C483 1.238 . S
O487 Co481 2.052 . S
O487 C483 1.241 . S
O488 Co476 2.137 . S
O488 C479 1.247 . S
O489 Co476 2.244 . S
O489 C479 1.272 . S
O489 Co481 2.135 . S
Co490 O491 2.216 . S
Co490 O492 2.091 . S
Co490 O494 2.004 . S
Co490 O500 2.021 . S
Co490 O502 2.137 . S
Co490 O503 2.244 . S
O491 Co490 2.216 . S
O491 C498 1.247 . S
O492 Co490 2.091 . S
O492 C498 1.261 . S
C493 O502 1.247 . S
C493 O503 1.272 . S
O494 Co490 2.004 . S
O494 C499 1.259 . S
Co495 O496 2.061 . S
Co495 O501 2.052 . S
Co495 O503 2.135 . S
O496 Co495 2.061 . S
O496 C499 1.235 . S
C497 O500 1.238 . S
C497 O501 1.241 . S
C498 O491 1.247 . S
C498 O492 1.261 . S
C499 O494 1.259 . S
C499 O496 1.235 . S
O500 Co490 2.021 . S
O500 C497 1.238 . S
O501 Co495 2.052 . S
O501 C497 1.241 . S
O502 Co490 2.137 . S
O502 C493 1.247 . S
O503 Co490 2.244 . S
O503 C493 1.272 . S
O503 Co495 2.135 . S
Co504 O505 2.216 . S
Co504 O506 2.091 . S
Co504 O508 2.004 . S
Co504 O514 2.021 . S
Co504 O516 2.137 . S
Co504 O517 2.244 . S
O505 Co504 2.216 . S
O505 C512 1.247 . S
O506 Co504 2.091 . S
O506 C512 1.261 . S
C507 O516 1.247 . S
C507 O517 1.272 . S
O508 Co504 2.004 . S
O508 C513 1.259 . S
Co509 O510 2.061 . S
Co509 O515 2.052 . S
Co509 O517 2.135 . S
O510 Co509 2.061 . S
O510 C513 1.235 . S
C511 O514 1.238 . S
C511 O515 1.241 . S
C512 O505 1.247 . S
C512 O506 1.261 . S
C513 O508 1.259 . S
C513 O510 1.235 . S
O514 Co504 2.021 . S
O514 C511 1.238 . S
O515 Co509 2.052 . S
O515 C511 1.241 . S
O516 Co504 2.137 . S
O516 C507 1.247 . S
O517 Co504 2.244 . S
O517 C507 1.272 . S
O517 Co509 2.135 . S
Co518 O519 2.216 . S
Co518 O520 2.091 . S
Co518 O522 2.004 . S
Co518 O528 2.021 . S
Co518 O530 2.137 . S
Co518 O531 2.244 . S
O519 Co518 2.216 . S
O519 C526 1.247 . S
O520 Co518 2.091 . S
O520 C526 1.261 . S
C521 O530 1.247 . S
C521 O531 1.272 . S
O522 Co518 2.004 . S
O522 C527 1.259 . S
Co523 O524 2.061 . S
Co523 O529 2.052 . S
Co523 O531 2.135 . S
O524 Co523 2.061 . S
O524 C527 1.235 . S
C525 O528 1.238 . S
C525 O529 1.241 . S
C526 O519 1.247 . S
C526 O520 1.261 . S
C527 O522 1.259 . S
C527 O524 1.235 . S
O528 Co518 2.021 . S
O528 C525 1.238 . S
O529 Co523 2.052 . S
O529 C525 1.241 . S
O530 Co518 2.137 . S
O530 C521 1.247 . S
O531 Co518 2.244 . S
O531 C521 1.272 . S
O531 Co523 2.135 . S
Co532 O533 2.216 . S
Co532 O534 2.091 . S
Co532 O536 2.004 . S
Co532 O542 2.021 . S
Co532 O544 2.137 . S
Co532 O545 2.244 . S
O533 Co532 2.216 . S
O533 C540 1.247 . S
O534 Co532 2.091 . S
O534 C540 1.261 . S
C535 O544 1.247 . S
C535 O545 1.272 . S
O536 Co532 2.004 . S
O536 C541 1.259 . S
Co537 O538 2.061 . S
Co537 O543 2.052 . S
Co537 O545 2.135 . S
O538 Co537 2.061 . S
O538 C541 1.235 . S
C539 O542 1.238 . S
C539 O543 1.241 . S
C540 O533 1.247 . S
C540 O534 1.261 . S
C541 O536 1.259 . S
C541 O538 1.235 . S
O542 Co532 2.021 . S
O542 C539 1.238 . S
O543 Co537 2.052 . S
O543 C539 1.241 . S
O544 Co532 2.137 . S
O544 C535 1.247 . S
O545 Co532 2.244 . S
O545 C535 1.272 . S
O545 Co537 2.135 . S
Co546 O547 2.216 . S
Co546 O548 2.091 . S
Co546 O550 2.004 . S
Co546 O556 2.021 . S
Co546 O558 2.137 . S
Co546 O559 2.244 . S
O547 Co546 2.216 . S
O547 C554 1.247 . S
O548 Co546 2.091 . S
O548 C554 1.261 . S
C549 O558 1.247 . S
C549 O559 1.272 . S
O550 Co546 2.004 . S
O550 C555 1.259 . S
Co551 O552 2.061 . S
Co551 O557 2.052 . S
Co551 O559 2.135 . S
O552 Co551 2.061 . S
O552 C555 1.235 . S
C553 O556 1.238 . S
C553 O557 1.241 . S
C554 O547 1.247 . S
C554 O548 1.261 . S
C555 O550 1.259 . S
C555 O552 1.235 . S
O556 Co546 2.021 . S
O556 C553 1.238 . S
O557 Co551 2.052 . S
O557 C553 1.241 . S
O558 Co546 2.137 . S
O558 C549 1.247 . S
O559 Co546 2.244 . S
O559 C549 1.272 . S
O559 Co551 2.135 . S
Co560 O561 2.216 . S
Co560 O562 2.091 . S
Co560 O564 2.004 . S
Co560 O570 2.021 . S
Co560 O572 2.137 . S
Co560 O573 2.244 . S
O561 Co560 2.216 . S
O561 C568 1.247 . S
O562 Co560 2.091 . S
O562 C568 1.261 . S
C563 O572 1.247 . S
C563 O573 1.272 . S
O564 Co560 2.004 . S
O564 C569 1.259 . S
Co565 O566 2.061 . S
Co565 O571 2.052 . S
Co565 O573 2.135 . S
O566 Co565 2.061 . S
O566 C569 1.235 . S
C567 O570 1.238 . S
C567 O571 1.241 . S
C568 O561 1.247 . S
C568 O562 1.261 . S
C569 O564 1.259 . S
C569 O566 1.235 . S
O570 Co560 2.021 . S
O570 C567 1.238 . S
O571 Co565 2.052 . S
O571 C567 1.241 . S
O572 Co560 2.137 . S
O572 C563 1.247 . S
O573 Co560 2.244 . S
O573 C563 1.272 . S
O573 Co565 2.135 . S
Co574 O575 2.216 . S
Co574 O576 2.091 . S
Co574 O578 2.004 . S
Co574 O584 2.021 . S
Co574 O586 2.137 . S
Co574 O587 2.244 . S
O575 Co574 2.216 . S
O575 C582 1.247 . S
O576 Co574 2.091 . S
O576 C582 1.261 . S
C577 O586 1.247 . S
C577 O587 1.272 . S
O578 Co574 2.004 . S
O578 C583 1.259 . S
Co579 O580 2.061 . S
Co579 O585 2.052 . S
Co579 O587 2.135 . S
O580 Co579 2.061 . S
O580 C583 1.235 . S
C581 O584 1.238 . S
C581 O585 1.241 . S
C582 O575 1.247 . S
C582 O576 1.261 . S
C583 O578 1.259 . S
C583 O580 1.235 . S
O584 Co574 2.021 . S
O584 C581 1.238 . S
O585 Co579 2.052 . S
O585 C581 1.241 . S
O586 Co574 2.137 . S
O586 C577 1.247 . S
O587 Co574 2.244 . S
O587 C577 1.272 . S
O587 Co579 2.135 . S
Co588 O589 2.216 . S
Co588 O590 2.091 . S
Co588 O592 2.004 . S
Co588 O598 2.021 . S
Co588 O600 2.137 . S
Co588 O601 2.244 . S
O589 Co588 2.216 . S
O589 C596 1.247 . S
O590 Co588 2.091 . S
O590 C596 1.261 . S
C591 O600 1.247 . S
C591 O601 1.272 . S
O592 Co588 2.004 . S
O592 C597 1.259 . S
Co593 O594 2.061 . S
Co593 O599 2.052 . S
Co593 O601 2.135 . S
O594 Co593 2.061 . S
O594 C597 1.235 . S
C595 O598 1.238 . S
C595 O599 1.241 . S
C596 O589 1.247 . S
C596 O590 1.261 . S
C597 O592 1.259 . S
C597 O594 1.235 . S
O598 Co588 2.021 . S
O598 C595 1.238 . S
O599 Co593 2.052 . S
O599 C595 1.241 . S
O600 Co588 2.137 . S
O600 C591 1.247 . S
O601 Co588 2.244 . S
O601 C591 1.272 . S
O601 Co593 2.135 . S
Co602 O603 2.216 . S
Co602 O604 2.091 . S
Co602 O606 2.004 . S
Co602 O612 2.021 . S
Co602 O614 2.137 . S
Co602 O615 2.244 . S
O603 Co602 2.216 . S
O603 C610 1.247 . S
O604 Co602 2.091 . S
O604 C610 1.261 . S
C605 O614 1.247 . S
C605 O615 1.272 . S
O606 Co602 2.004 . S
O606 C611 1.259 . S
Co607 O608 2.061 . S
Co607 O613 2.052 . S
Co607 O615 2.135 . S
O608 Co607 2.061 . S
O608 C611 1.235 . S
C609 O612 1.238 . S
C609 O613 1.241 . S
C610 O603 1.247 . S
C610 O604 1.261 . S
C611 O606 1.259 . S
C611 O608 1.235 . S
O612 Co602 2.021 . S
O612 C609 1.238 . S
O613 Co607 2.052 . S
O613 C609 1.241 . S
O614 Co602 2.137 . S
O614 C605 1.247 . S
O615 Co602 2.244 . S
O615 C605 1.272 . S
O615 Co607 2.135 . S
Co616 O617 2.216 . S
Co616 O618 2.091 . S
Co616 O620 2.004 . S
Co616 O626 2.021 . S
Co616 O628 2.137 . S
Co616 O629 2.244 . S
O617 Co616 2.216 . S
O617 C624 1.247 . S
O618 Co616 2.091 . S
O618 C624 1.261 . S
C619 O628 1.247 . S
C619 O629 1.272 . S
O620 Co616 2.004 . S
O620 C625 1.259 . S
Co621 O622 2.061 . S
Co621 O627 2.052 . S
Co621 O629 2.135 . S
O622 Co621 2.061 . S
O622 C625 1.235 . S
C623 O626 1.238 . S
C623 O627 1.241 . S
C624 O617 1.247 . S
C624 O618 1.261 . S
C625 O620 1.259 . S
C625 O622 1.235 . S
O626 Co616 2.021 . S
O626 C623 1.238 . S
O627 Co621 2.052 . S
O627 C623 1.241 . S
O628 Co616 2.137 . S
O628 C619 1.247 . S
O629 Co616 2.244 . S
O629 C619 1.272 . S
O629 Co621 2.135 . S
Co630 O631 2.216 . S
Co630 O632 2.091 . S
Co630 O634 2.004 . S
Co630 O640 2.021 . S
Co630 O642 2.137 . S
Co630 O643 2.244 . S
O631 Co630 2.216 . S
O631 C638 1.247 . S
O632 Co630 2.091 . S
O632 C638 1.261 . S
C633 O642 1.247 . S
C633 O643 1.272 . S
O634 Co630 2.004 . S
O634 C639 1.259 . S
Co635 O636 2.061 . S
Co635 O641 2.052 . S
Co635 O643 2.135 . S
O636 Co635 2.061 . S
O636 C639 1.235 . S
C637 O640 1.238 . S
C637 O641 1.241 . S
C638 O631 1.247 . S
C638 O632 1.261 . S
C639 O634 1.259 . S
C639 O636 1.235 . S
O640 Co630 2.021 . S
O640 C637 1.238 . S
O641 Co635 2.052 . S
O641 C637 1.241 . S
O642 Co630 2.137 . S
O642 C633 1.247 . S
O643 Co630 2.244 . S
O643 C633 1.272 . S
O643 Co635 2.135 . S
Co644 O645 2.216 . S
Co644 O646 2.091 . S
Co644 O648 2.004 . S
Co644 O654 2.021 . S
Co644 O656 2.137 . S
Co644 O657 2.244 . S
O645 Co644 2.216 . S
O645 C652 1.247 . S
O646 Co644 2.091 . S
O646 C652 1.261 . S
C647 O656 1.247 . S
C647 O657 1.272 . S
O648 Co644 2.004 . S
O648 C653 1.259 . S
Co649 O650 2.061 . S
Co649 O655 2.052 . S
Co649 O657 2.135 . S
O650 Co649 2.061 . S
O650 C653 1.235 . S
C651 O654 1.238 . S
C651 O655 1.241 . S
C652 O645 1.247 . S
C652 O646 1.261 . S
C653 O648 1.259 . S
C653 O650 1.235 . S
O654 Co644 2.021 . S
O654 C651 1.238 . S
O655 Co649 2.052 . S
O655 C651 1.241 . S
O656 Co644 2.137 . S
O656 C647 1.247 . S
O657 Co644 2.244 . S
O657 C647 1.272 . S
O657 Co649 2.135 . S
Co658 O659 2.216 . S
Co658 O660 2.091 . S
Co658 O662 2.004 . S
Co658 O668 2.021 . S
Co658 O670 2.137 . S
Co658 O671 2.244 . S
O659 Co658 2.216 . S
O659 C666 1.247 . S
O660 Co658 2.091 . S
O660 C666 1.261 . S
C661 O670 1.247 . S
C661 O671 1.272 . S
O662 Co658 2.004 . S
O662 C667 1.259 . S
Co663 O664 2.061 . S
Co663 O669 2.052 . S
Co663 O671 2.135 . S
O664 Co663 2.061 . S
O664 C667 1.235 . S
C665 O668 1.238 . S
C665 O669 1.241 . S
C666 O659 1.247 . S
C666 O660 1.261 . S
C667 O662 1.259 . S
C667 O664 1.235 . S
O668 Co658 2.021 . S
O668 C665 1.238 . S
O669 Co663 2.052 . S
O669 C665 1.241 . S
O670 Co658 2.137 . S
O670 C661 1.247 . S
O671 Co658 2.244 . S
O671 C661 1.272 . S
O671 Co663 2.135 . S
C672 C673 1.363 . S
C672 C678 1.379 . S
C672 N680 1.356 . S
C673 C672 1.363 . S
C673 C679 1.363 . S
C674 C675 1.363 . S
C674 C679 1.379 . S
C674 N681 1.356 . S
C675 C674 1.363 . S
C675 C678 1.363 . S
N676 C678 1.356 . S
N676 H688 0.984 . S
N676 H689 0.985 . S
N677 C679 1.356 . S
N677 H682 0.984 . S
N677 H683 0.985 . S
C678 C672 1.379 . S
C678 C675 1.363 . S
C678 N676 1.356 . S
C679 C673 1.363 . S
C679 C674 1.379 . S
C679 N677 1.356 . S
N680 C672 1.356 . S
N680 H686 0.984 . S
N680 H687 0.984 . S
N681 C674 1.356 . S
N681 H684 0.984 . S
N681 H685 0.985 . S
H682 N677 0.984 . S
H683 N677 0.985 . S
H684 N681 0.984 . S
H685 N681 0.985 . S
H686 N680 0.984 . S
H687 N680 0.984 . S
H688 N676 0.984 . S
H689 N676 0.985 . S
C690 C691 1.355 1_655 S
C690 C696 1.403 . S
C690 N698 1.335 1_655 S
C691 C690 1.355 1_455 S
C691 C697 1.363 1_455 S
C692 C693 1.363 . S
C692 C697 1.379 . S
C692 N699 1.356 . S
C693 C692 1.363 . S
C693 C696 1.363 . S
N694 C696 1.356 . S
N694 H706 0.984 . S
N694 H707 0.985 . S
N695 C697 1.356 1_455 S
N695 H700 0.984 . S
N695 H701 0.985 1_455 S
C696 C690 1.403 . S
C696 C693 1.363 . S
C696 N694 1.356 . S
C697 C691 1.363 1_655 S
C697 C692 1.379 . S
C697 N695 1.356 1_655 S
N698 C690 1.335 1_455 S
N698 H704 0.984 . S
N698 H705 0.984 . S
N699 C692 1.356 . S
N699 H702 0.984 . S
N699 H703 0.985 . S
H700 N695 0.984 . S
H701 N695 0.985 1_655 S
H702 N699 0.984 . S
H703 N699 0.985 . S
H704 N698 0.984 . S
H705 N698 0.984 . S
H706 N694 0.984 . S
H707 N694 0.985 . S
C708 C709 1.363 . S
C708 C714 1.379 . S
C708 N716 1.356 . S
C709 C708 1.363 . S
C709 C715 1.363 . S
C710 C711 1.363 . S
C710 C715 1.379 . S
C710 N717 1.356 . S
C711 C710 1.363 . S
C711 C714 1.363 . S
N712 C714 1.356 . S
N712 H724 0.984 . S
N712 H725 0.985 . S
N713 C715 1.356 . S
N713 H718 0.984 . S
N713 H719 0.985 . S
C714 C708 1.379 . S
C714 C711 1.363 . S
C714 N712 1.356 . S
C715 C709 1.363 . S
C715 C710 1.379 . S
C715 N713 1.356 . S
N716 C708 1.356 . S
N716 H722 0.984 . S
N716 H723 0.984 . S
N717 C710 1.356 . S
N717 H720 0.984 . S
N717 H721 0.985 . S
H718 N713 0.984 . S
H719 N713 0.985 . S
H720 N717 0.984 . S
H721 N717 0.985 . S
H722 N716 0.984 . S
H723 N716 0.984 . S
H724 N712 0.984 . S
H725 N712 0.985 . S
C726 C727 1.363 . S
C726 C732 1.379 . S
C726 N734 1.356 . S
C727 C726 1.363 . S
C727 C733 1.363 . S
C728 C729 1.363 . S
C728 C733 1.379 . S
C728 N735 1.356 . S
C729 C728 1.363 . S
C729 C732 1.363 . S
N730 C732 1.356 . S
N730 H742 0.984 . S
N730 H743 0.985 . S
N731 C733 1.356 . S
N731 H736 0.984 . S
N731 H737 0.985 . S
C732 C726 1.379 . S
C732 C729 1.363 . S
C732 N730 1.356 . S
C733 C727 1.363 . S
C733 C728 1.379 . S
C733 N731 1.356 . S
N734 C726 1.356 . S
N734 H740 0.984 . S
N734 H741 0.984 . S
N735 C728 1.356 . S
N735 H738 0.984 . S
N735 H739 0.985 . S
H736 N731 0.984 . S
H737 N731 0.985 . S
H738 N735 0.984 . S
H739 N735 0.985 . S
H740 N734 0.984 . S
H741 N734 0.984 . S
H742 N730 0.984 . S
H743 N730 0.985 . S
C744 C745 1.363 . S
C744 C750 1.379 . S
C744 N752 1.356 . S
C745 C744 1.363 . S
C745 C751 1.363 . S
C746 C747 1.363 . S
C746 C751 1.379 . S
C746 N753 1.356 . S
C747 C746 1.363 . S
C747 C750 1.363 . S
N748 C750 1.356 . S
N748 H760 0.984 . S
N748 H761 0.985 . S
N749 C751 1.356 . S
N749 H754 0.984 . S
N749 H755 0.985 . S
C750 C744 1.379 . S
C750 C747 1.363 . S
C750 N748 1.356 . S
C751 C745 1.363 . S
C751 C746 1.379 . S
C751 N749 1.356 . S
N752 C744 1.356 . S
N752 H758 0.984 . S
N752 H759 0.984 . S
N753 C746 1.356 . S
N753 H756 0.984 . S
N753 H757 0.985 . S
H754 N749 0.984 . S
H755 N749 0.985 . S
H756 N753 0.984 . S
H757 N753 0.985 . S
H758 N752 0.984 . S
H759 N752 0.984 . S
H760 N748 0.984 . S
H761 N748 0.985 . S
C762 C763 1.363 . S
C762 C768 1.379 . S
C762 N770 1.356 . S
C763 C762 1.363 . S
C763 C769 1.363 . S
C764 C765 1.363 . S
C764 C769 1.379 . S
C764 N771 1.356 . S
C765 C764 1.363 . S
C765 C768 1.363 . S
N766 C768 1.356 . S
N766 H778 0.984 . S
N766 H779 0.985 . S
N767 C769 1.356 . S
N767 H772 0.984 . S
N767 H773 0.985 . S
C768 C762 1.379 . S
C768 C765 1.363 . S
C768 N766 1.356 . S
C769 C763 1.363 . S
C769 C764 1.379 . S
C769 N767 1.356 . S
N770 C762 1.356 . S
N770 H776 0.984 . S
N770 H777 0.984 . S
N771 C764 1.356 . S
N771 H774 0.984 . S
N771 H775 0.985 . S
H772 N767 0.984 . S
H773 N767 0.985 . S
H774 N771 0.984 . S
H775 N771 0.985 . S
H776 N770 0.984 . S
H777 N770 0.984 . S
H778 N766 0.984 . S
H779 N766 0.985 . S
C780 C781 1.363 . S
C780 C786 1.379 . S
C780 N788 1.356 . S
C781 C780 1.363 . S
C781 C787 1.363 . S
C782 C783 1.363 . S
C782 C787 1.379 . S
C782 N789 1.356 . S
C783 C782 1.363 . S
C783 C786 1.363 . S
N784 C786 1.356 . S
N784 H796 0.984 . S
N784 H797 0.985 . S
N785 C787 1.356 . S
N785 H790 0.984 . S
N785 H791 0.985 . S
C786 C780 1.379 . S
C786 C783 1.363 . S
C786 N784 1.356 . S
C787 C781 1.363 . S
C787 C782 1.379 . S
C787 N785 1.356 . S
N788 C780 1.356 . S
N788 H794 0.984 . S
N788 H795 0.984 . S
N789 C782 1.356 . S
N789 H792 0.984 . S
N789 H793 0.985 . S
H790 N785 0.984 . S
H791 N785 0.985 . S
H792 N789 0.984 . S
H793 N789 0.985 . S
H794 N788 0.984 . S
H795 N788 0.984 . S
H796 N784 0.984 . S
H797 N784 0.985 . S
C798 C799 1.363 1_655 S
C798 C804 1.379 . S
C798 N806 1.356 1_655 S
C799 C798 1.363 1_455 S
C799 C805 1.363 1_455 S
C800 C801 1.363 . S
C800 C805 1.379 . S
C800 N807 1.356 . S
C801 C800 1.363 . S
C801 C804 1.363 . S
N802 C804 1.356 . S
N802 H814 0.984 . S
N802 H815 0.985 . S
N803 C805 1.356 1_455 S
N803 H808 0.984 . S
N803 H809 0.985 . S
C804 C798 1.379 . S
C804 C801 1.363 . S
C804 N802 1.356 . S
C805 C799 1.363 1_655 S
C805 C800 1.379 . S
C805 N803 1.356 1_655 S
N806 C798 1.356 1_455 S
N806 H812 0.983 1_455 S
N806 H813 0.984 . S
N807 C800 1.356 . S
N807 H810 0.984 . S
N807 H811 0.985 . S
H808 N803 0.984 . S
H809 N803 0.985 . S
H810 N807 0.984 . S
H811 N807 0.985 . S
H812 N806 0.983 1_655 S
H813 N806 0.984 . S
H814 N802 0.984 . S
H815 N802 0.985 . S
C816 C817 1.363 . S
C816 C822 1.379 . S
C816 N824 1.356 . S
C817 C816 1.363 . S
C817 C823 1.363 . S
C818 C819 1.363 . S
C818 C823 1.379 . S
C818 N825 1.356 . S
C819 C818 1.363 . S
C819 C822 1.363 . S
N820 C822 1.356 . S
N820 H832 0.984 . S
N820 H833 0.985 . S
N821 C823 1.356 . S
N821 H826 0.984 . S
N821 H827 0.985 . S
C822 C816 1.379 . S
C822 C819 1.363 . S
C822 N820 1.356 . S
C823 C817 1.363 . S
C823 C818 1.379 . S
C823 N821 1.356 . S
N824 C816 1.356 . S
N824 H830 0.984 . S
N824 H831 0.984 . S
N825 C818 1.356 . S
N825 H828 0.984 . S
N825 H829 0.985 . S
H826 N821 0.984 . S
H827 N821 0.985 . S
H828 N825 0.984 . S
H829 N825 0.985 . S
H830 N824 0.984 . S
H831 N824 0.984 . S
H832 N820 0.984 . S
H833 N820 0.985 . S
C834 C835 1.363 . S
C834 C840 1.379 . S
C834 N842 1.356 . S
C835 C834 1.363 . S
C835 C841 1.363 . S
C836 C837 1.363 . S
C836 C841 1.379 . S
C836 N843 1.356 . S
C837 C836 1.363 . S
C837 C840 1.363 . S
N838 C840 1.356 . S
N838 H850 0.984 . S
N838 H851 0.985 . S
N839 C841 1.356 . S
N839 H844 0.984 . S
N839 H845 0.985 . S
C840 C834 1.379 . S
C840 C837 1.363 . S
C840 N838 1.356 . S
C841 C835 1.363 . S
C841 C836 1.379 . S
C841 N839 1.356 . S
N842 C834 1.356 . S
N842 H848 0.984 . S
N842 H849 0.984 . S
N843 C836 1.356 . S
N843 H846 0.984 . S
N843 H847 0.985 . S
H844 N839 0.984 . S
H845 N839 0.985 . S
H846 N843 0.984 . S
H847 N843 0.985 . S
H848 N842 0.984 . S
H849 N842 0.984 . S
H850 N838 0.984 . S
H851 N838 0.985 . S
C852 C853 1.363 . S
C852 C858 1.379 . S
C852 N860 1.356 . S
C853 C852 1.363 . S
C853 C859 1.363 . S
C854 C855 1.363 . S
C854 C859 1.379 . S
C854 N861 1.356 . S
C855 C854 1.363 . S
C855 C858 1.363 . S
N856 C858 1.356 . S
N856 H868 0.984 . S
N856 H869 0.985 . S
N857 C859 1.356 . S
N857 H862 0.984 . S
N857 H863 0.985 . S
C858 C852 1.379 . S
C858 C855 1.363 . S
C858 N856 1.356 . S
C859 C853 1.363 . S
C859 C854 1.379 . S
C859 N857 1.356 . S
N860 C852 1.356 . S
N860 H866 0.984 . S
N860 H867 0.984 . S
N861 C854 1.356 . S
N861 H864 0.984 . S
N861 H865 0.985 . S
H862 N857 0.984 . S
H863 N857 0.985 . S
H864 N861 0.984 . S
H865 N861 0.985 . S
H866 N860 0.984 . S
H867 N860 0.984 . S
H868 N856 0.984 . S
H869 N856 0.985 . S
C870 C871 1.363 1_554 S
C870 C876 1.379 . S
C870 N878 1.356 1_554 S
C871 C870 1.363 1_556 S
C871 C877 1.363 . S
C872 C873 1.363 . S
C872 C877 1.379 1_554 S
C872 N879 1.356 . S
C873 C872 1.363 . S
C873 C876 1.363 . S
N874 C876 1.356 . S
N874 H886 0.984 . S
N874 H887 0.985 . S
N875 C877 1.356 . S
N875 H880 0.984 . S
N875 H881 0.985 . S
C876 C870 1.379 . S
C876 C873 1.363 . S
C876 N874 1.356 . S
C877 C871 1.363 . S
C877 C872 1.379 1_556 S
C877 N875 1.356 . S
N878 C870 1.356 1_556 S
N878 H884 0.984 . S
N878 H885 0.984 . S
N879 C872 1.356 . S
N879 H882 0.984 . S
N879 H883 0.985 . S
H880 N875 0.984 . S
H881 N875 0.985 . S
H882 N879 0.984 . S
H883 N879 0.985 . S
H884 N878 0.984 . S
H885 N878 0.984 . S
H886 N874 0.984 . S
H887 N874 0.985 . S
C888 C889 1.363 . S
C888 C894 1.379 . S
C888 N896 1.356 . S
C889 C888 1.363 . S
C889 C895 1.363 . S
C890 C891 1.363 . S
C890 C895 1.379 . S
C890 N897 1.356 . S
C891 C890 1.363 . S
C891 C894 1.363 . S
N892 C894 1.356 . S
N892 H904 0.984 . S
N892 H905 0.985 . S
N893 C895 1.356 . S
N893 H898 0.984 . S
N893 H899 0.985 . S
C894 C888 1.379 . S
C894 C891 1.363 . S
C894 N892 1.356 . S
C895 C889 1.363 . S
C895 C890 1.379 . S
C895 N893 1.356 . S
N896 C888 1.356 . S
N896 H902 0.984 . S
N896 H903 0.984 . S
N897 C890 1.356 . S
N897 H900 0.984 . S
N897 H901 0.985 . S
H898 N893 0.984 . S
H899 N893 0.985 . S
H900 N897 0.984 . S
H901 N897 0.985 . S
H902 N896 0.984 . S
H903 N896 0.984 . S
H904 N892 0.984 . S
H905 N892 0.985 . S
C906 C907 1.363 . S
C906 C912 1.379 . S
C906 N914 1.356 . S
C907 C906 1.363 . S
C907 C913 1.363 . S
C908 C909 1.363 . S
C908 C913 1.379 . S
C908 N915 1.356 . S
C909 C908 1.363 . S
C909 C912 1.363 . S
N910 C912 1.356 . S
N910 H922 0.984 . S
N910 H923 0.985 . S
N911 C913 1.356 . S
N911 H916 0.984 . S
N911 H917 0.985 . S
C912 C906 1.379 . S
C912 C909 1.363 . S
C912 N910 1.356 . S
C913 C907 1.363 . S
C913 C908 1.379 . S
C913 N911 1.356 . S
N914 C906 1.356 . S
N914 H920 0.984 . S
N914 H921 0.984 . S
N915 C908 1.356 . S
N915 H918 0.984 . S
N915 H919 0.985 . S
H916 N911 0.984 . S
H917 N911 0.985 . S
H918 N915 0.984 . S
H919 N915 0.985 . S
H920 N914 0.984 . S
H921 N914 0.984 . S
H922 N910 0.984 . S
H923 N910 0.985 . S
C924 C925 1.363 . S
C924 C930 1.379 . S
C924 N932 1.356 . S
C925 C924 1.363 . S
C925 C931 1.363 . S
C926 C927 1.363 . S
C926 C931 1.379 . S
C926 N933 1.356 . S
C927 C926 1.363 . S
C927 C930 1.363 . S
N928 C930 1.356 . S
N928 H940 0.984 . S
N928 H941 0.985 . S
N929 C931 1.356 . S
N929 H934 0.984 . S
N929 H935 0.985 . S
C930 C924 1.379 . S
C930 C927 1.363 . S
C930 N928 1.356 . S
C931 C925 1.363 . S
C931 C926 1.379 . S
C931 N929 1.356 . S
N932 C924 1.356 . S
N932 H938 0.984 . S
N932 H939 0.984 . S
N933 C926 1.356 . S
N933 H936 0.984 . S
N933 H937 0.985 . S
H934 N929 0.984 . S
H935 N929 0.985 . S
H936 N933 0.984 . S
H937 N933 0.985 . S
H938 N932 0.984 . S
H939 N932 0.984 . S
H940 N928 0.984 . S
H941 N928 0.985 . S
C942 C943 1.363 1_556 S
C942 C948 1.379 . S
C942 N950 1.356 1_556 S
C943 C942 1.363 1_554 S
C943 C949 1.363 . S
C944 C945 1.363 . S
C944 C949 1.379 1_556 S
C944 N951 1.356 . S
C945 C944 1.363 . S
C945 C948 1.363 . S
N946 C948 1.356 . S
N946 H958 0.984 . S
N946 H959 0.985 . S
N947 C949 1.356 . S
N947 H952 0.984 . S
N947 H953 0.985 . S
C948 C942 1.379 . S
C948 C945 1.363 . S
C948 N946 1.356 . S
C949 C943 1.363 . S
C949 C944 1.379 1_554 S
C949 N947 1.356 . S
N950 C942 1.356 1_554 S
N950 H956 0.984 . S
N950 H957 0.984 . S
N951 C944 1.356 . S
N951 H954 0.984 . S
N951 H955 0.985 . S
H952 N947 0.984 . S
H953 N947 0.985 . S
H954 N951 0.984 . S
H955 N951 0.985 . S
H956 N950 0.984 . S
H957 N950 0.984 . S
H958 N946 0.984 . S
H959 N946 0.985 . S
C960 C961 1.363 . S
C960 C966 1.379 . S
C960 N968 1.356 . S
C961 C960 1.363 . S
C961 C967 1.363 . S
C962 C963 1.363 . S
C962 C967 1.379 . S
C962 N969 1.356 . S
C963 C962 1.363 . S
C963 C966 1.363 . S
N964 C966 1.356 . S
N964 H976 0.984 . S
N964 H977 0.985 . S
N965 C967 1.356 . S
N965 H970 0.984 . S
N965 H971 0.985 . S
C966 C960 1.379 . S
C966 C963 1.363 . S
C966 N964 1.356 . S
C967 C961 1.363 . S
C967 C962 1.379 . S
C967 N965 1.356 . S
N968 C960 1.356 . S
N968 H974 0.984 . S
N968 H975 0.984 . S
N969 C962 1.356 . S
N969 H972 0.984 . S
N969 H973 0.985 . S
H970 N965 0.984 . S
H971 N965 0.985 . S
H972 N969 0.984 . S
H973 N969 0.985 . S
H974 N968 0.984 . S
H975 N968 0.984 . S
H976 N964 0.984 . S
H977 N964 0.985 . S
C978 C979 1.363 . S
C978 C984 1.379 . S
C978 N986 1.356 . S
C979 C978 1.363 . S
C979 C985 1.363 . S
C980 C981 1.363 . S
C980 C985 1.379 . S
C980 N987 1.356 . S
C981 C980 1.363 . S
C981 C984 1.363 . S
N982 C984 1.356 . S
N982 H994 0.984 . S
N982 H995 0.985 . S
N983 C985 1.356 . S
N983 H988 0.984 . S
N983 H989 0.985 . S
C984 C978 1.379 . S
C984 C981 1.363 . S
C984 N982 1.356 . S
C985 C979 1.363 . S
C985 C980 1.379 . S
C985 N983 1.356 . S
N986 C978 1.356 . S
N986 H992 0.984 . S
N986 H993 0.984 . S
N987 C980 1.356 . S
N987 H990 0.984 . S
N987 H991 0.985 . S
H988 N983 0.984 . S
H989 N983 0.985 . S
H990 N987 0.984 . S
H991 N987 0.985 . S
H992 N986 0.984 . S
H993 N986 0.984 . S
H994 N982 0.984 . S
H995 N982 0.985 . S
C996 C997 1.363 . S
C996 C1002 1.379 . S
C996 N1004 1.356 . S
C997 C996 1.363 . S
C997 C1003 1.363 . S
C998 C999 1.363 . S
C998 C1003 1.379 . S
C998 N1005 1.356 . S
C999 C998 1.363 . S
C999 C1002 1.363 . S
N1000 C1002 1.356 . S
N1000 H1012 0.984 . S
N1000 H1013 0.985 . S
N1001 C1003 1.356 . S
N1001 H1006 0.984 . S
N1001 H1007 0.985 . S
C1002 C996 1.379 . S
C1002 C999 1.363 . S
C1002 N1000 1.356 . S
C1003 C997 1.363 . S
C1003 C998 1.379 . S
C1003 N1001 1.356 . S
N1004 C996 1.356 . S
N1004 H1010 0.984 . S
N1004 H1011 0.984 . S
N1005 C998 1.356 . S
N1005 H1008 0.984 . S
N1005 H1009 0.985 . S
H1006 N1001 0.984 . S
H1007 N1001 0.985 . S
H1008 N1005 0.984 . S
H1009 N1005 0.985 . S
H1010 N1004 0.984 . S
H1011 N1004 0.984 . S
H1012 N1000 0.984 . S
H1013 N1000 0.985 . S
C1014 C1015 1.363 . S
C1014 C1020 1.379 . S
C1014 N1022 1.356 . S
C1015 C1014 1.363 . S
C1015 C1021 1.363 . S
C1016 C1017 1.363 . S
C1016 C1021 1.379 . S
C1016 N1023 1.356 . S
C1017 C1016 1.363 . S
C1017 C1020 1.363 . S
N1018 C1020 1.356 . S
N1018 H1030 0.984 . S
N1018 H1031 0.985 . S
N1019 C1021 1.356 . S
N1019 H1024 0.984 . S
N1019 H1025 0.985 . S
C1020 C1014 1.379 . S
C1020 C1017 1.363 . S
C1020 N1018 1.356 . S
C1021 C1015 1.363 . S
C1021 C1016 1.379 . S
C1021 N1019 1.356 . S
N1022 C1014 1.356 . S
N1022 H1028 0.984 . S
N1022 H1029 0.984 . S
N1023 C1016 1.356 . S
N1023 H1026 0.984 . S
N1023 H1027 0.985 . S
H1024 N1019 0.984 . S
H1025 N1019 0.985 . S
H1026 N1023 0.984 . S
H1027 N1023 0.985 . S
H1028 N1022 0.984 . S
H1029 N1022 0.984 . S
H1030 N1018 0.984 . S
H1031 N1018 0.985 . S
C1032 C1033 1.363 . S
C1032 C1038 1.379 . S
C1032 N1040 1.356 . S
C1033 C1032 1.363 . S
C1033 C1039 1.363 . S
C1034 C1035 1.363 1_565 S
C1034 C1039 1.379 . S
C1034 N1041 1.356 1_565 S
C1035 C1034 1.363 1_545 S
C1035 C1038 1.363 1_545 S
N1036 C1038 1.356 1_545 S
N1036 H1048 0.984 . S
N1036 H1049 0.985 . S
N1037 C1039 1.356 . S
N1037 H1042 0.984 . S
N1037 H1043 0.985 . S
C1038 C1032 1.379 . S
C1038 C1035 1.363 1_565 S
C1038 N1036 1.356 1_565 S
C1039 C1033 1.363 . S
C1039 C1034 1.379 . S
C1039 N1037 1.356 . S
N1040 C1032 1.356 . S
N1040 H1046 0.984 . S
N1040 H1047 0.984 . S
N1041 C1034 1.356 1_545 S
N1041 H1044 0.984 . S
N1041 H1045 0.985 . S
H1042 N1037 0.984 . S
H1043 N1037 0.985 . S
H1044 N1041 0.984 . S
H1045 N1041 0.985 . S
H1046 N1040 0.984 . S
H1047 N1040 0.984 . S
H1048 N1036 0.984 . S
H1049 N1036 0.985 . S
C1050 C1051 1.363 . S
C1050 C1056 1.379 . S
C1050 N1058 1.356 . S
C1051 C1050 1.363 . S
C1051 C1057 1.363 . S
C1052 C1053 1.363 . S
C1052 C1057 1.379 . S
C1052 N1059 1.356 . S
C1053 C1052 1.363 . S
C1053 C1056 1.363 . S
N1054 C1056 1.356 . S
N1054 H1066 0.984 . S
N1054 H1067 0.985 . S
N1055 C1057 1.356 . S
N1055 H1060 0.984 . S
N1055 H1061 0.985 . S
C1056 C1050 1.379 . S
C1056 C1053 1.363 . S
C1056 N1054 1.356 . S
C1057 C1051 1.363 . S
C1057 C1052 1.379 . S
C1057 N1055 1.356 . S
N1058 C1050 1.356 . S
N1058 H1064 0.984 . S
N1058 H1065 0.984 . S
N1059 C1052 1.356 . S
N1059 H1062 0.984 . S
N1059 H1063 0.985 . S
H1060 N1055 0.984 . S
H1061 N1055 0.985 . S
H1062 N1059 0.984 . S
H1063 N1059 0.985 . S
H1064 N1058 0.984 . S
H1065 N1058 0.984 . S
H1066 N1054 0.984 . S
H1067 N1054 0.985 . S
C1068 C1069 1.363 . S
C1068 C1074 1.379 . S
C1068 N1076 1.356 . S
C1069 C1068 1.363 . S
C1069 C1075 1.363 . S
C1070 C1071 1.363 . S
C1070 C1075 1.379 . S
C1070 N1077 1.356 . S
C1071 C1070 1.363 . S
C1071 C1074 1.363 . S
N1072 C1074 1.356 . S
N1072 H1084 0.984 . S
N1072 H1085 0.985 . S
N1073 C1075 1.356 . S
N1073 H1078 0.984 . S
N1073 H1079 0.985 . S
C1074 C1068 1.379 . S
C1074 C1071 1.363 . S
C1074 N1072 1.356 . S
C1075 C1069 1.363 . S
C1075 C1070 1.379 . S
C1075 N1073 1.356 . S
N1076 C1068 1.356 . S
N1076 H1082 0.984 . S
N1076 H1083 0.984 . S
N1077 C1070 1.356 . S
N1077 H1080 0.984 . S
N1077 H1081 0.985 . S
H1078 N1073 0.984 . S
H1079 N1073 0.985 . S
H1080 N1077 0.984 . S
H1081 N1077 0.985 . S
H1082 N1076 0.984 . S
H1083 N1076 0.984 . S
H1084 N1072 0.984 . S
H1085 N1072 0.985 . S
C1086 C1087 1.363 . S
C1086 C1092 1.379 . S
C1086 N1094 1.356 . S
C1087 C1086 1.363 . S
C1087 C1093 1.363 . S
C1088 C1089 1.363 . S
C1088 C1093 1.379 . S
C1088 N1095 1.356 . S
C1089 C1088 1.363 . S
C1089 C1092 1.363 . S
N1090 C1092 1.356 . S
N1090 H1102 0.984 . S
N1090 H1103 0.985 . S
N1091 C1093 1.356 . S
N1091 H1096 0.984 . S
N1091 H1097 0.985 . S
C1092 C1086 1.379 . S
C1092 C1089 1.363 . S
C1092 N1090 1.356 . S
C1093 C1087 1.363 . S
C1093 C1088 1.379 . S
C1093 N1091 1.356 . S
N1094 C1086 1.356 . S
N1094 H1100 0.984 . S
N1094 H1101 0.984 . S
N1095 C1088 1.356 . S
N1095 H1098 0.984 . S
N1095 H1099 0.985 . S
H1096 N1091 0.984 . S
H1097 N1091 0.985 . S
H1098 N1095 0.984 . S
H1099 N1095 0.985 . S
H1100 N1094 0.984 . S
H1101 N1094 0.984 . S
H1102 N1090 0.984 . S
H1103 N1090 0.985 . S
C1104 C1105 1.363 . S
C1104 C1110 1.379 . S
C1104 N1112 1.356 . S
C1105 C1104 1.363 . S
C1105 C1111 1.363 . S
C1106 C1107 1.363 . S
C1106 C1111 1.379 . S
C1106 N1113 1.356 . S
C1107 C1106 1.363 . S
C1107 C1110 1.363 . S
N1108 C1110 1.356 . S
N1108 H1120 0.984 . S
N1108 H1121 0.985 . S
N1109 C1111 1.356 . S
N1109 H1114 0.984 . S
N1109 H1115 0.985 . S
C1110 C1104 1.379 . S
C1110 C1107 1.363 . S
C1110 N1108 1.356 . S
C1111 C1105 1.363 . S
C1111 C1106 1.379 . S
C1111 N1109 1.356 . S
N1112 C1104 1.356 . S
N1112 H1118 0.984 . S
N1112 H1119 0.984 . S
N1113 C1106 1.356 . S
N1113 H1116 0.984 . S
N1113 H1117 0.985 . S
H1114 N1109 0.984 . S
H1115 N1109 0.985 . S
H1116 N1113 0.984 . S
H1117 N1113 0.985 . S
H1118 N1112 0.984 . S
H1119 N1112 0.984 . S
H1120 N1108 0.984 . S
H1121 N1108 0.985 . S
C1122 C1123 1.363 1_455 S
C1122 C1128 1.379 . S
C1122 N1130 1.356 1_455 S
C1123 C1122 1.363 1_655 S
C1123 C1129 1.363 . S
C1124 C1125 1.363 . S
C1124 C1129 1.379 1_455 S
C1124 N1131 1.356 . S
C1125 C1124 1.363 . S
C1125 C1128 1.363 . S
N1126 C1128 1.356 . S
N1126 H1138 0.984 . S
N1126 H1139 0.985 . S
N1127 C1129 1.356 . S
N1127 H1132 0.984 . S
N1127 H1133 0.985 . S
C1128 C1122 1.379 . S
C1128 C1125 1.363 . S
C1128 N1126 1.356 . S
C1129 C1123 1.363 . S
C1129 C1124 1.379 1_655 S
C1129 N1127 1.356 . S
N1130 C1122 1.356 1_655 S
N1130 H1136 0.984 . S
N1130 H1137 0.984 . S
N1131 C1124 1.356 . S
N1131 H1134 0.984 . S
N1131 H1135 0.985 . S
H1132 N1127 0.984 . S
H1133 N1127 0.985 . S
H1134 N1131 0.984 . S
H1135 N1131 0.985 . S
H1136 N1130 0.984 . S
H1137 N1130 0.984 . S
H1138 N1126 0.984 . S
H1139 N1126 0.985 . S
C1140 C1141 1.363 . S
C1140 C1146 1.379 . S
C1140 N1148 1.356 . S
C1141 C1140 1.363 . S
C1141 C1147 1.363 . S
C1142 C1143 1.363 . S
C1142 C1147 1.379 . S
C1142 N1149 1.356 . S
C1143 C1142 1.363 . S
C1143 C1146 1.363 . S
N1144 C1146 1.356 . S
N1144 H1156 0.984 . S
N1144 H1157 0.985 . S
N1145 C1147 1.356 . S
N1145 H1150 0.984 . S
N1145 H1151 0.985 . S
C1146 C1140 1.379 . S
C1146 C1143 1.363 . S
C1146 N1144 1.356 . S
C1147 C1141 1.363 . S
C1147 C1142 1.379 . S
C1147 N1145 1.356 . S
N1148 C1140 1.356 . S
N1148 H1154 0.984 . S
N1148 H1155 0.984 . S
N1149 C1142 1.356 . S
N1149 H1152 0.984 . S
N1149 H1153 0.985 . S
H1150 N1145 0.984 . S
H1151 N1145 0.985 . S
H1152 N1149 0.984 . S
H1153 N1149 0.985 . S
H1154 N1148 0.984 . S
H1155 N1148 0.984 . S
H1156 N1144 0.984 . S
H1157 N1144 0.985 . S
C1158 C1159 1.363 . S
C1158 C1164 1.379 . S
C1158 N1166 1.356 . S
C1159 C1158 1.363 . S
C1159 C1165 1.363 . S
C1160 C1161 1.363 . S
C1160 C1165 1.379 . S
C1160 N1167 1.356 . S
C1161 C1160 1.363 . S
C1161 C1164 1.363 . S
N1162 C1164 1.356 . S
N1162 H1174 0.984 . S
N1162 H1175 0.985 . S
N1163 C1165 1.356 . S
N1163 H1168 0.984 . S
N1163 H1169 0.985 . S
C1164 C1158 1.379 . S
C1164 C1161 1.363 . S
C1164 N1162 1.356 . S
C1165 C1159 1.363 . S
C1165 C1160 1.379 . S
C1165 N1163 1.356 . S
N1166 C1158 1.356 . S
N1166 H1172 0.984 . S
N1166 H1173 0.984 . S
N1167 C1160 1.356 . S
N1167 H1170 0.984 . S
N1167 H1171 0.985 . S
H1168 N1163 0.984 . S
H1169 N1163 0.985 . S
H1170 N1167 0.984 . S
H1171 N1167 0.985 . S
H1172 N1166 0.984 . S
H1173 N1166 0.984 . S
H1174 N1162 0.984 . S
H1175 N1162 0.985 . S
C1176 C1177 1.363 . S
C1176 C1182 1.379 . S
C1176 N1184 1.356 . S
C1177 C1176 1.363 . S
C1177 C1183 1.363 . S
C1178 C1179 1.363 . S
C1178 C1183 1.379 . S
C1178 N1185 1.356 . S
C1179 C1178 1.363 . S
C1179 C1182 1.363 . S
N1180 C1182 1.356 . S
N1180 H1192 0.984 . S
N1180 H1193 0.985 . S
N1181 C1183 1.356 . S
N1181 H1186 0.984 . S
N1181 H1187 0.985 . S
C1182 C1176 1.379 . S
C1182 C1179 1.363 . S
C1182 N1180 1.356 . S
C1183 C1177 1.363 . S
C1183 C1178 1.379 . S
C1183 N1181 1.356 . S
N1184 C1176 1.356 . S
N1184 H1190 0.984 . S
N1184 H1191 0.984 . S
N1185 C1178 1.356 . S
N1185 H1188 0.984 . S
N1185 H1189 0.985 . S
H1186 N1181 0.984 . S
H1187 N1181 0.985 . S
H1188 N1185 0.984 . S
H1189 N1185 0.985 . S
H1190 N1184 0.984 . S
H1191 N1184 0.984 . S
H1192 N1180 0.984 . S
H1193 N1180 0.985 . S
C1194 C1195 1.363 . S
C1194 C1200 1.379 . S
C1194 N1202 1.356 . S
C1195 C1194 1.363 . S
C1195 C1201 1.363 . S
C1196 C1197 1.363 . S
C1196 C1201 1.379 . S
C1196 N1203 1.356 . S
C1197 C1196 1.363 . S
C1197 C1200 1.363 . S
N1198 C1200 1.356 . S
N1198 H1210 0.984 . S
N1198 H1211 0.985 . S
N1199 C1201 1.356 . S
N1199 H1204 0.984 . S
N1199 H1205 0.985 . S
C1200 C1194 1.379 . S
C1200 C1197 1.363 . S
C1200 N1198 1.356 . S
C1201 C1195 1.363 . S
C1201 C1196 1.379 . S
C1201 N1199 1.356 . S
N1202 C1194 1.356 . S
N1202 H1208 0.984 . S
N1202 H1209 0.984 . S
N1203 C1196 1.356 . S
N1203 H1206 0.984 . S
N1203 H1207 0.985 . S
H1204 N1199 0.984 . S
H1205 N1199 0.985 . S
H1206 N1203 0.984 . S
H1207 N1203 0.985 . S
H1208 N1202 0.984 . S
H1209 N1202 0.984 . S
H1210 N1198 0.984 . S
H1211 N1198 0.985 . S
C1212 C1213 1.363 . S
C1212 C1218 1.379 . S
C1212 N1220 1.356 . S
C1213 C1212 1.363 . S
C1213 C1219 1.363 . S
C1214 C1215 1.363 . S
C1214 C1219 1.379 . S
C1214 N1221 1.356 . S
C1215 C1214 1.363 . S
C1215 C1218 1.363 . S
N1216 C1218 1.356 . S
N1216 H1228 0.984 . S
N1216 H1229 0.985 . S
N1217 C1219 1.356 . S
N1217 H1222 0.984 . S
N1217 H1223 0.985 . S
C1218 C1212 1.379 . S
C1218 C1215 1.363 . S
C1218 N1216 1.356 . S
C1219 C1213 1.363 . S
C1219 C1214 1.379 . S
C1219 N1217 1.356 . S
N1220 C1212 1.356 . S
N1220 H1226 0.984 . S
N1220 H1227 0.984 . S
N1221 C1214 1.356 . S
N1221 H1224 0.984 . S
N1221 H1225 0.985 . S
H1222 N1217 0.984 . S
H1223 N1217 0.985 . S
H1224 N1221 0.984 . S
H1225 N1221 0.985 . S
H1226 N1220 0.984 . S
H1227 N1220 0.984 . S
H1228 N1216 0.984 . S
H1229 N1216 0.985 . S
C1230 C1231 1.363 . S
C1230 C1236 1.379 . S
C1230 N1238 1.356 . S
C1231 C1230 1.363 . S
C1231 C1237 1.363 . S
C1232 C1233 1.345 1_455 S
C1232 C1237 1.413 . S
C1232 N1239 1.331 1_455 S
C1233 C1232 1.345 1_655 S
C1233 C1236 1.363 1_655 S
N1234 C1236 1.356 1_655 S
N1234 H1246 0.984 . S
N1234 H1247 0.985 . S
N1235 C1237 1.356 . S
N1235 H1240 0.984 . S
N1235 H1241 0.985 . S
C1236 C1230 1.379 . S
C1236 C1233 1.363 1_455 S
C1236 N1234 1.356 1_455 S
C1237 C1231 1.363 . S
C1237 C1232 1.413 . S
C1237 N1235 1.356 . S
N1238 C1230 1.356 . S
N1238 H1244 0.984 . S
N1238 H1245 0.984 . S
N1239 C1232 1.331 1_655 S
N1239 H1242 0.984 . S
N1239 H1243 0.985 . S
H1240 N1235 0.984 . S
H1241 N1235 0.985 . S
H1242 N1239 0.984 . S
H1243 N1239 0.985 . S
H1244 N1238 0.984 . S
H1245 N1238 0.984 . S
H1246 N1234 0.984 . S
H1247 N1234 0.985 . S
C1248 C1249 1.363 . S
C1248 C1254 1.379 . S
C1248 N1256 1.356 . S
C1249 C1248 1.363 . S
C1249 C1255 1.363 . S
C1250 C1251 1.363 . S
C1250 C1255 1.379 . S
C1250 N1257 1.356 . S
C1251 C1250 1.363 . S
C1251 C1254 1.363 . S
N1252 C1254 1.356 . S
N1252 H1264 0.984 . S
N1252 H1265 0.985 . S
N1253 C1255 1.356 . S
N1253 H1258 0.984 . S
N1253 H1259 0.985 . S
C1254 C1248 1.379 . S
C1254 C1251 1.363 . S
C1254 N1252 1.356 . S
C1255 C1249 1.363 . S
C1255 C1250 1.379 . S
C1255 N1253 1.356 . S
N1256 C1248 1.356 . S
N1256 H1262 0.984 . S
N1256 H1263 0.984 . S
N1257 C1250 1.356 . S
N1257 H1260 0.984 . S
N1257 H1261 0.985 . S
H1258 N1253 0.984 . S
H1259 N1253 0.985 . S
H1260 N1257 0.984 . S
H1261 N1257 0.985 . S
H1262 N1256 0.984 . S
H1263 N1256 0.984 . S
H1264 N1252 0.984 . S
H1265 N1252 0.985 . S
C1266 C1267 1.363 . S
C1266 C1272 1.379 . S
C1266 N1274 1.356 . S
C1267 C1266 1.363 . S
C1267 C1273 1.363 . S
C1268 C1269 1.363 . S
C1268 C1273 1.379 . S
C1268 N1275 1.356 . S
C1269 C1268 1.363 . S
C1269 C1272 1.363 . S
N1270 C1272 1.356 . S
N1270 H1282 0.984 . S
N1270 H1283 0.985 . S
N1271 C1273 1.356 . S
N1271 H1276 0.984 . S
N1271 H1277 0.985 . S
C1272 C1266 1.379 . S
C1272 C1269 1.363 . S
C1272 N1270 1.356 . S
C1273 C1267 1.363 . S
C1273 C1268 1.379 . S
C1273 N1271 1.356 . S
N1274 C1266 1.356 . S
N1274 H1280 0.984 . S
N1274 H1281 0.984 . S
N1275 C1268 1.356 . S
N1275 H1278 0.984 . S
N1275 H1279 0.985 . S
H1276 N1271 0.984 . S
H1277 N1271 0.985 . S
H1278 N1275 0.984 . S
H1279 N1275 0.985 . S
H1280 N1274 0.984 . S
H1281 N1274 0.984 . S
H1282 N1270 0.984 . S
H1283 N1270 0.985 . S
C1284 C1285 1.363 . S
C1284 C1290 1.379 . S
C1284 N1292 1.356 . S
C1285 C1284 1.363 . S
C1285 C1291 1.363 . S
C1286 C1287 1.363 . S
C1286 C1291 1.379 . S
C1286 N1293 1.356 . S
C1287 C1286 1.363 . S
C1287 C1290 1.363 . S
N1288 C1290 1.356 . S
N1288 H1300 0.984 . S
N1288 H1301 0.985 . S
N1289 C1291 1.356 . S
N1289 H1294 0.984 . S
N1289 H1295 0.985 . S
C1290 C1284 1.379 . S
C1290 C1287 1.363 . S
C1290 N1288 1.356 . S
C1291 C1285 1.363 . S
C1291 C1286 1.379 . S
C1291 N1289 1.356 . S
N1292 C1284 1.356 . S
N1292 H1298 0.984 . S
N1292 H1299 0.984 . S
N1293 C1286 1.356 . S
N1293 H1296 0.984 . S
N1293 H1297 0.985 . S
H1294 N1289 0.984 . S
H1295 N1289 0.985 . S
H1296 N1293 0.984 . S
H1297 N1293 0.985 . S
H1298 N1292 0.984 . S
H1299 N1292 0.984 . S
H1300 N1288 0.984 . S
H1301 N1288 0.985 . S
C1302 C1303 1.363 . S
C1302 C1308 1.379 . S
C1302 N1310 1.356 . S
C1303 C1302 1.363 . S
C1303 C1309 1.363 . S
C1304 C1305 1.363 1_556 S
C1304 C1309 1.379 . S
C1304 N1311 1.356 1_556 S
C1305 C1304 1.363 1_554 S
C1305 C1308 1.363 1_554 S
N1306 C1308 1.356 1_554 S
N1306 H1318 0.984 . S
N1306 H1319 0.985 . S
N1307 C1309 1.356 . S
N1307 H1312 0.984 . S
N1307 H1313 0.985 . S
C1308 C1302 1.379 . S
C1308 C1305 1.363 1_556 S
C1308 N1306 1.356 1_556 S
C1309 C1303 1.363 . S
C1309 C1304 1.379 . S
C1309 N1307 1.356 . S
N1310 C1302 1.356 . S
N1310 H1316 0.984 . S
N1310 H1317 0.984 . S
N1311 C1304 1.356 1_554 S
N1311 H1314 0.984 . S
N1311 H1315 0.985 . S
H1312 N1307 0.984 . S
H1313 N1307 0.985 . S
H1314 N1311 0.984 . S
H1315 N1311 0.985 . S
H1316 N1310 0.984 . S
H1317 N1310 0.984 . S
H1318 N1306 0.984 . S
H1319 N1306 0.985 . S
C1320 C1321 1.363 . S
C1320 C1326 1.379 . S
C1320 N1328 1.356 . S
C1321 C1320 1.363 . S
C1321 C1327 1.363 . S
C1322 C1323 1.363 . S
C1322 C1327 1.379 . S
C1322 N1329 1.356 . S
C1323 C1322 1.363 . S
C1323 C1326 1.363 . S
N1324 C1326 1.356 . S
N1324 H1336 0.984 . S
N1324 H1337 0.985 . S
N1325 C1327 1.356 . S
N1325 H1330 0.984 . S
N1325 H1331 0.985 . S
C1326 C1320 1.379 . S
C1326 C1323 1.363 . S
C1326 N1324 1.356 . S
C1327 C1321 1.363 . S
C1327 C1322 1.379 . S
C1327 N1325 1.356 . S
N1328 C1320 1.356 . S
N1328 H1334 0.984 . S
N1328 H1335 0.984 . S
N1329 C1322 1.356 . S
N1329 H1332 0.984 . S
N1329 H1333 0.985 . S
H1330 N1325 0.984 . S
H1331 N1325 0.985 . S
H1332 N1329 0.984 . S
H1333 N1329 0.985 . S
H1334 N1328 0.984 . S
H1335 N1328 0.984 . S
H1336 N1324 0.984 . S
H1337 N1324 0.985 . S
C1338 C1339 1.363 . S
C1338 C1344 1.379 . S
C1338 N1346 1.356 . S
C1339 C1338 1.363 . S
C1339 C1345 1.363 . S
C1340 C1341 1.363 . S
C1340 C1345 1.379 . S
C1340 N1347 1.356 . S
C1341 C1340 1.363 . S
C1341 C1344 1.363 . S
N1342 C1344 1.356 . S
N1342 H1354 0.984 . S
N1342 H1355 0.985 . S
N1343 C1345 1.356 . S
N1343 H1348 0.984 . S
N1343 H1349 0.985 . S
C1344 C1338 1.379 . S
C1344 C1341 1.363 . S
C1344 N1342 1.356 . S
C1345 C1339 1.363 . S
C1345 C1340 1.379 . S
C1345 N1343 1.356 . S
N1346 C1338 1.356 . S
N1346 H1352 0.984 . S
N1346 H1353 0.984 . S
N1347 C1340 1.356 . S
N1347 H1350 0.984 . S
N1347 H1351 0.985 . S
H1348 N1343 0.984 . S
H1349 N1343 0.985 . S
H1350 N1347 0.984 . S
H1351 N1347 0.985 . S
H1352 N1346 0.984 . S
H1353 N1346 0.984 . S
H1354 N1342 0.984 . S
H1355 N1342 0.985 . S
C1356 C1357 1.363 . S
C1356 C1362 1.379 . S
C1356 N1364 1.356 . S
C1357 C1356 1.363 . S
C1357 C1363 1.363 . S
C1358 C1359 1.363 . S
C1358 C1363 1.379 . S
C1358 N1365 1.356 . S
C1359 C1358 1.363 . S
C1359 C1362 1.363 . S
N1360 C1362 1.356 . S
N1360 H1372 0.984 . S
N1360 H1373 0.985 . S
N1361 C1363 1.356 . S
N1361 H1366 0.984 . S
N1361 H1367 0.985 . S
C1362 C1356 1.379 . S
C1362 C1359 1.363 . S
C1362 N1360 1.356 . S
C1363 C1357 1.363 . S
C1363 C1358 1.379 . S
C1363 N1361 1.356 . S
N1364 C1356 1.356 . S
N1364 H1370 0.984 . S
N1364 H1371 0.984 . S
N1365 C1358 1.356 . S
N1365 H1368 0.984 . S
N1365 H1369 0.985 . S
H1366 N1361 0.984 . S
H1367 N1361 0.985 . S
H1368 N1365 0.984 . S
H1369 N1365 0.985 . S
H1370 N1364 0.984 . S
H1371 N1364 0.984 . S
H1372 N1360 0.984 . S
H1373 N1360 0.985 . S
C1374 C1375 1.363 1_554 S
C1374 C1380 1.379 . S
C1374 N1382 1.356 1_554 S
C1375 C1374 1.363 1_556 S
C1375 C1381 1.363 1_556 S
C1376 C1377 1.363 . S
C1376 C1381 1.379 . S
C1376 N1383 1.356 . S
C1377 C1376 1.363 . S
C1377 C1380 1.363 . S
N1378 C1380 1.356 . S
N1378 H1390 0.984 . S
N1378 H1391 0.985 . S
N1379 C1381 1.356 1_556 S
N1379 H1384 0.984 . S
N1379 H1385 0.985 . S
C1380 C1374 1.379 . S
C1380 C1377 1.363 . S
C1380 N1378 1.356 . S
C1381 C1375 1.363 1_554 S
C1381 C1376 1.379 . S
C1381 N1379 1.356 1_554 S
N1382 C1374 1.356 1_556 S
N1382 H1388 0.984 . S
N1382 H1389 0.984 . S
N1383 C1376 1.356 . S
N1383 H1386 0.984 . S
N1383 H1387 0.985 . S
H1384 N1379 0.984 . S
H1385 N1379 0.985 . S
H1386 N1383 0.984 . S
H1387 N1383 0.985 . S
H1388 N1382 0.984 . S
H1389 N1382 0.984 . S
H1390 N1378 0.984 . S
H1391 N1378 0.985 . S
C1392 C1393 1.363 . S
C1392 C1398 1.379 . S
C1392 N1400 1.356 . S
C1393 C1392 1.363 . S
C1393 C1399 1.363 . S
C1394 C1395 1.363 . S
C1394 C1399 1.379 . S
C1394 N1401 1.356 . S
C1395 C1394 1.363 . S
C1395 C1398 1.363 . S
N1396 C1398 1.356 . S
N1396 H1408 0.984 . S
N1396 H1409 0.985 . S
N1397 C1399 1.356 . S
N1397 H1402 0.984 . S
N1397 H1403 0.985 . S
C1398 C1392 1.379 . S
C1398 C1395 1.363 . S
C1398 N1396 1.356 . S
C1399 C1393 1.363 . S
C1399 C1394 1.379 . S
C1399 N1397 1.356 . S
N1400 C1392 1.356 . S
N1400 H1406 0.984 . S
N1400 H1407 0.984 . S
N1401 C1394 1.356 . S
N1401 H1404 0.984 . S
N1401 H1405 0.985 . S
H1402 N1397 0.984 . S
H1403 N1397 0.985 . S
H1404 N1401 0.984 . S
H1405 N1401 0.985 . S
H1406 N1400 0.984 . S
H1407 N1400 0.984 . S
H1408 N1396 0.984 . S
H1409 N1396 0.985 . S
C1410 C1411 1.363 . S
C1410 C1416 1.379 . S
C1410 N1418 1.356 . S
C1411 C1410 1.363 . S
C1411 C1417 1.363 . S
C1412 C1413 1.363 . S
C1412 C1417 1.379 . S
C1412 N1419 1.356 . S
C1413 C1412 1.363 . S
C1413 C1416 1.363 . S
N1414 C1416 1.356 . S
N1414 H1426 0.984 . S
N1414 H1427 0.985 . S
N1415 C1417 1.356 . S
N1415 H1420 0.984 . S
N1415 H1421 0.985 . S
C1416 C1410 1.379 . S
C1416 C1413 1.363 . S
C1416 N1414 1.356 . S
C1417 C1411 1.363 . S
C1417 C1412 1.379 . S
C1417 N1415 1.356 . S
N1418 C1410 1.356 . S
N1418 H1424 0.984 . S
N1418 H1425 0.984 . S
N1419 C1412 1.356 . S
N1419 H1422 0.984 . S
N1419 H1423 0.985 . S
H1420 N1415 0.984 . S
H1421 N1415 0.985 . S
H1422 N1419 0.984 . S
H1423 N1419 0.985 . S
H1424 N1418 0.984 . S
H1425 N1418 0.984 . S
H1426 N1414 0.984 . S
H1427 N1414 0.985 . S
C1428 C1429 1.363 . S
C1428 C1434 1.379 . S
C1428 N1436 1.356 . S
C1429 C1428 1.363 . S
C1429 C1435 1.363 . S
C1430 C1431 1.363 . S
C1430 C1435 1.379 . S
C1430 N1437 1.356 . S
C1431 C1430 1.363 . S
C1431 C1434 1.363 . S
N1432 C1434 1.356 . S
N1432 H1444 0.984 . S
N1432 H1445 0.985 . S
N1433 C1435 1.356 . S
N1433 H1438 0.984 . S
N1433 H1439 0.985 . S
C1434 C1428 1.379 . S
C1434 C1431 1.363 . S
C1434 N1432 1.356 . S
C1435 C1429 1.363 . S
C1435 C1430 1.379 . S
C1435 N1433 1.356 . S
N1436 C1428 1.356 . S
N1436 H1442 0.984 . S
N1436 H1443 0.984 . S
N1437 C1430 1.356 . S
N1437 H1440 0.984 . S
N1437 H1441 0.985 . S
H1438 N1433 0.984 . S
H1439 N1433 0.985 . S
H1440 N1437 0.984 . S
H1441 N1437 0.985 . S
H1442 N1436 0.984 . S
H1443 N1436 0.984 . S
H1444 N1432 0.984 . S
H1445 N1432 0.985 . S
C1446 C1447 1.363 . S
C1446 C1452 1.379 . S
C1446 N1454 1.356 . S
C1447 C1446 1.363 . S
C1447 C1453 1.363 . S
C1448 C1449 1.363 . S
C1448 C1453 1.379 . S
C1448 N1455 1.356 . S
C1449 C1448 1.363 . S
C1449 C1452 1.363 . S
N1450 C1452 1.356 . S
N1450 H1462 0.984 . S
N1450 H1463 0.985 . S
N1451 C1453 1.356 . S
N1451 H1456 0.984 . S
N1451 H1457 0.985 . S
C1452 C1446 1.379 . S
C1452 C1449 1.363 . S
C1452 N1450 1.356 . S
C1453 C1447 1.363 . S
C1453 C1448 1.379 . S
C1453 N1451 1.356 . S
N1454 C1446 1.356 . S
N1454 H1460 0.984 . S
N1454 H1461 0.984 . S
N1455 C1448 1.356 . S
N1455 H1458 0.984 . S
N1455 H1459 0.985 . S
H1456 N1451 0.984 . S
H1457 N1451 0.985 . S
H1458 N1455 0.984 . S
H1459 N1455 0.985 . S
H1460 N1454 0.984 . S
H1461 N1454 0.984 . S
H1462 N1450 0.984 . S
H1463 N1450 0.985 . S
C1464 C1465 1.363 1_545 S
C1464 C1470 1.379 . S
C1464 N1472 1.356 1_545 S
C1465 C1464 1.363 1_565 S
C1465 C1471 1.363 1_565 S
C1466 C1467 1.363 . S
C1466 C1471 1.379 . S
C1466 N1473 1.356 . S
C1467 C1466 1.363 . S
C1467 C1470 1.363 . S
N1468 C1470 1.356 . S
N1468 H1480 0.984 . S
N1468 H1481 0.985 . S
N1469 C1471 1.356 1_565 S
N1469 H1474 0.984 . S
N1469 H1475 0.985 . S
C1470 C1464 1.379 . S
C1470 C1467 1.363 . S
C1470 N1468 1.356 . S
C1471 C1465 1.363 1_545 S
C1471 C1466 1.379 . S
C1471 N1469 1.356 1_545 S
N1472 C1464 1.356 1_565 S
N1472 H1478 0.984 . S
N1472 H1479 0.984 . S
N1473 C1466 1.356 . S
N1473 H1476 0.984 . S
N1473 H1477 0.985 . S
H1474 N1469 0.984 . S
H1475 N1469 0.985 . S
H1476 N1473 0.984 . S
H1477 N1473 0.985 . S
H1478 N1472 0.984 . S
H1479 N1472 0.984 . S
H1480 N1468 0.984 . S
H1481 N1468 0.985 . S
C1482 C1483 1.363 . S
C1482 C1488 1.379 . S
C1482 N1490 1.356 . S
C1483 C1482 1.363 . S
C1483 C1489 1.363 . S
C1484 C1485 1.363 . S
C1484 C1489 1.379 . S
C1484 N1491 1.356 . S
C1485 C1484 1.363 . S
C1485 C1488 1.363 . S
N1486 C1488 1.356 . S
N1486 H1498 0.984 . S
N1486 H1499 0.985 . S
N1487 C1489 1.356 . S
N1487 H1492 0.984 . S
N1487 H1493 0.985 . S
C1488 C1482 1.379 . S
C1488 C1485 1.363 . S
C1488 N1486 1.356 . S
C1489 C1483 1.363 . S
C1489 C1484 1.379 . S
C1489 N1487 1.356 . S
N1490 C1482 1.356 . S
N1490 H1496 0.984 . S
N1490 H1497 0.984 . S
N1491 C1484 1.356 . S
N1491 H1494 0.984 . S
N1491 H1495 0.985 . S
H1492 N1487 0.984 . S
H1493 N1487 0.985 . S
H1494 N1491 0.984 . S
H1495 N1491 0.985 . S
H1496 N1490 0.984 . S
H1497 N1490 0.984 . S
H1498 N1486 0.984 . S
H1499 N1486 0.985 . S
C1500 C1501 1.363 . S
C1500 C1506 1.379 . S
C1500 N1508 1.356 . S
C1501 C1500 1.363 . S
C1501 C1507 1.363 . S
C1502 C1503 1.363 . S
C1502 C1507 1.379 . S
C1502 N1509 1.356 . S
C1503 C1502 1.363 . S
C1503 C1506 1.363 . S
N1504 C1506 1.356 . S
N1504 H1516 0.984 . S
N1504 H1517 0.985 . S
N1505 C1507 1.356 . S
N1505 H1510 0.984 . S
N1505 H1511 0.985 . S
C1506 C1500 1.379 . S
C1506 C1503 1.363 . S
C1506 N1504 1.356 . S
C1507 C1501 1.363 . S
C1507 C1502 1.379 . S
C1507 N1505 1.356 . S
N1508 C1500 1.356 . S
N1508 H1514 0.984 . S
N1508 H1515 0.984 . S
N1509 C1502 1.356 . S
N1509 H1512 0.984 . S
N1509 H1513 0.985 . S
H1510 N1505 0.984 . S
H1511 N1505 0.985 . S
H1512 N1509 0.984 . S
H1513 N1509 0.985 . S
H1514 N1508 0.984 . S
H1515 N1508 0.984 . S
H1516 N1504 0.984 . S
H1517 N1504 0.985 . S
C1518 C1519 1.363 . S
C1518 C1524 1.379 . S
C1518 N1526 1.356 . S
C1519 C1518 1.363 . S
C1519 C1525 1.363 . S
C1520 C1521 1.363 . S
C1520 C1525 1.379 . S
C1520 N1527 1.356 . S
C1521 C1520 1.363 . S
C1521 C1524 1.363 . S
N1522 C1524 1.356 . S
N1522 H1534 0.984 . S
N1522 H1535 0.985 . S
N1523 C1525 1.356 . S
N1523 H1528 0.984 . S
N1523 H1529 0.985 . S
C1524 C1518 1.379 . S
C1524 C1521 1.363 . S
C1524 N1522 1.356 . S
C1525 C1519 1.363 . S
C1525 C1520 1.379 . S
C1525 N1523 1.356 . S
N1526 C1518 1.356 . S
N1526 H1532 0.984 . S
N1526 H1533 0.984 . S
N1527 C1520 1.356 . S
N1527 H1530 0.984 . S
N1527 H1531 0.985 . S
H1528 N1523 0.984 . S
H1529 N1523 0.985 . S
H1530 N1527 0.984 . S
H1531 N1527 0.985 . S
H1532 N1526 0.984 . S
H1533 N1526 0.984 . S
H1534 N1522 0.984 . S
H1535 N1522 0.985 . S
C1536 C1537 1.363 . S
C1536 C1542 1.379 . S
C1536 N1544 1.356 . S
C1537 C1536 1.363 . S
C1537 C1543 1.363 . S
C1538 C1539 1.363 . S
C1538 C1543 1.379 . S
C1538 N1545 1.356 . S
C1539 C1538 1.363 . S
C1539 C1542 1.363 . S
N1540 C1542 1.356 . S
N1540 H1552 0.984 . S
N1540 H1553 0.985 . S
N1541 C1543 1.356 . S
N1541 H1546 0.984 . S
N1541 H1547 0.985 . S
C1542 C1536 1.379 . S
C1542 C1539 1.363 . S
C1542 N1540 1.356 . S
C1543 C1537 1.363 . S
C1543 C1538 1.379 . S
C1543 N1541 1.356 . S
N1544 C1536 1.356 . S
N1544 H1550 0.984 . S
N1544 H1551 0.984 . S
N1545 C1538 1.356 . S
N1545 H1548 0.984 . S
N1545 H1549 0.985 . S
H1546 N1541 0.984 . S
H1547 N1541 0.985 . S
H1548 N1545 0.984 . S
H1549 N1545 0.985 . S
H1550 N1544 0.984 . S
H1551 N1544 0.984 . S
H1552 N1540 0.984 . S
H1553 N1540 0.985 . S
C1554 C1555 1.363 . S
C1554 C1560 1.379 . S
C1554 N1562 1.356 . S
C1555 C1554 1.363 . S
C1555 C1561 1.363 . S
C1556 C1557 1.363 . S
C1556 C1561 1.379 . S
C1556 N1563 1.356 . S
C1557 C1556 1.363 . S
C1557 C1560 1.363 . S
N1558 C1560 1.356 . S
N1558 H1570 0.984 . S
N1558 H1571 0.985 . S
N1559 C1561 1.356 . S
N1559 H1564 0.984 . S
N1559 H1565 0.985 . S
C1560 C1554 1.379 . S
C1560 C1557 1.363 . S
C1560 N1558 1.356 . S
C1561 C1555 1.363 . S
C1561 C1556 1.379 . S
C1561 N1559 1.356 . S
N1562 C1554 1.356 . S
N1562 H1568 0.984 . S
N1562 H1569 0.984 . S
N1563 C1556 1.356 . S
N1563 H1566 0.984 . S
N1563 H1567 0.985 . S
H1564 N1559 0.984 . S
H1565 N1559 0.985 . S
H1566 N1563 0.984 . S
H1567 N1563 0.985 . S
H1568 N1562 0.984 . S
H1569 N1562 0.984 . S
H1570 N1558 0.984 . S
H1571 N1558 0.985 . S
C1572 C1573 1.363 . S
C1572 C1578 1.379 . S
C1572 N1580 1.356 . S
C1573 C1572 1.363 . S
C1573 C1579 1.363 . S
C1574 C1575 1.363 . S
C1574 C1579 1.379 . S
C1574 N1581 1.356 . S
C1575 C1574 1.363 . S
C1575 C1578 1.363 . S
N1576 C1578 1.356 . S
N1576 H1588 0.984 . S
N1576 H1589 0.985 . S
N1577 C1579 1.356 . S
N1577 H1582 0.984 . S
N1577 H1583 0.985 . S
C1578 C1572 1.379 . S
C1578 C1575 1.363 . S
C1578 N1576 1.356 . S
C1579 C1573 1.363 . S
C1579 C1574 1.379 . S
C1579 N1577 1.356 . S
N1580 C1572 1.356 . S
N1580 H1586 0.984 . S
N1580 H1587 0.984 . S
N1581 C1574 1.356 . S
N1581 H1584 0.984 . S
N1581 H1585 0.985 . S
H1582 N1577 0.984 . S
H1583 N1577 0.985 . S
H1584 N1581 0.984 . S
H1585 N1581 0.985 . S
H1586 N1580 0.984 . S
H1587 N1580 0.984 . S
H1588 N1576 0.984 . S
H1589 N1576 0.985 . S
C1590 C1591 1.363 1_455 S
C1590 C1596 1.379 . S
C1590 N1598 1.356 1_455 S
C1591 C1590 1.363 1_655 S
C1591 C1597 1.363 1_655 S
C1592 C1593 1.363 . S
C1592 C1597 1.379 . S
C1592 N1599 1.356 . S
C1593 C1592 1.363 . S
C1593 C1596 1.363 . S
N1594 C1596 1.356 . S
N1594 H1606 0.984 . S
N1594 H1607 0.985 . S
N1595 C1597 1.356 1_655 S
N1595 H1600 0.984 . S
N1595 H1601 0.985 1_655 S
C1596 C1590 1.379 . S
C1596 C1593 1.363 . S
C1596 N1594 1.356 . S
C1597 C1591 1.363 1_455 S
C1597 C1592 1.379 . S
C1597 N1595 1.356 1_455 S
N1598 C1590 1.356 1_655 S
N1598 H1604 0.984 . S
N1598 H1605 0.984 . S
N1599 C1592 1.356 . S
N1599 H1602 0.984 . S
N1599 H1603 0.985 . S
H1600 N1595 0.984 . S
H1601 N1595 0.985 1_455 S
H1602 N1599 0.984 . S
H1603 N1599 0.985 . S
H1604 N1598 0.984 . S
H1605 N1598 0.984 . S
H1606 N1594 0.984 . S
H1607 N1594 0.985 . S
C1608 C1609 1.363 . S
C1608 C1614 1.379 . S
C1608 N1616 1.356 . S
C1609 C1608 1.363 . S
C1609 C1615 1.363 . S
C1610 C1611 1.363 . S
C1610 C1615 1.379 . S
C1610 N1617 1.356 . S
C1611 C1610 1.363 . S
C1611 C1614 1.363 . S
N1612 C1614 1.356 . S
N1612 H1624 0.984 . S
N1612 H1625 0.985 . S
N1613 C1615 1.356 . S
N1613 H1618 0.984 . S
N1613 H1619 0.985 . S
C1614 C1608 1.379 . S
C1614 C1611 1.363 . S
C1614 N1612 1.356 . S
C1615 C1609 1.363 . S
C1615 C1610 1.379 . S
C1615 N1613 1.356 . S
N1616 C1608 1.356 . S
N1616 H1622 0.984 . S
N1616 H1623 0.984 . S
N1617 C1610 1.356 . S
N1617 H1620 0.984 . S
N1617 H1621 0.985 . S
H1618 N1613 0.984 . S
H1619 N1613 0.985 . S
H1620 N1617 0.984 . S
H1621 N1617 0.985 . S
H1622 N1616 0.984 . S
H1623 N1616 0.984 . S
H1624 N1612 0.984 . S
H1625 N1612 0.985 . S
C1626 C1627 1.363 . S
C1626 C1632 1.379 . S
C1626 N1634 1.356 . S
C1627 C1626 1.363 . S
C1627 C1633 1.363 . S
C1628 C1629 1.363 1_455 S
C1628 C1633 1.379 . S
C1628 N1635 1.356 1_455 S
C1629 C1628 1.363 1_655 S
C1629 C1632 1.363 1_655 S
N1630 C1632 1.356 1_655 S
N1630 H1642 0.984 . S
N1630 H1643 0.985 . S
N1631 C1633 1.356 . S
N1631 H1636 0.984 . S
N1631 H1637 0.985 . S
C1632 C1626 1.379 . S
C1632 C1629 1.363 1_455 S
C1632 N1630 1.356 1_455 S
C1633 C1627 1.363 . S
C1633 C1628 1.379 . S
C1633 N1631 1.356 . S
N1634 C1626 1.356 . S
N1634 H1640 0.984 . S
N1634 H1641 0.984 . S
N1635 C1628 1.356 1_655 S
N1635 H1638 0.984 . S
N1635 H1639 0.985 1_655 S
H1636 N1631 0.984 . S
H1637 N1631 0.985 . S
H1638 N1635 0.984 . S
H1639 N1635 0.985 1_455 S
H1640 N1634 0.984 . S
H1641 N1634 0.984 . S
H1642 N1630 0.984 . S
H1643 N1630 0.985 . S
C1644 C1645 1.363 . S
C1644 C1650 1.379 . S
C1644 N1652 1.356 . S
C1645 C1644 1.363 . S
C1645 C1651 1.363 . S
C1646 C1647 1.363 . S
C1646 C1651 1.379 . S
C1646 N1653 1.356 . S
C1647 C1646 1.363 . S
C1647 C1650 1.363 . S
N1648 C1650 1.356 . S
N1648 H1660 0.984 . S
N1648 H1661 0.985 . S
N1649 C1651 1.356 . S
N1649 H1654 0.984 . S
N1649 H1655 0.985 . S
C1650 C1644 1.379 . S
C1650 C1647 1.363 . S
C1650 N1648 1.356 . S
C1651 C1645 1.363 . S
C1651 C1646 1.379 . S
C1651 N1649 1.356 . S
N1652 C1644 1.356 . S
N1652 H1658 0.984 . S
N1652 H1659 0.984 . S
N1653 C1646 1.356 . S
N1653 H1656 0.984 . S
N1653 H1657 0.985 . S
H1654 N1649 0.984 . S
H1655 N1649 0.985 . S
H1656 N1653 0.984 . S
H1657 N1653 0.985 . S
H1658 N1652 0.984 . S
H1659 N1652 0.984 . S
H1660 N1648 0.984 . S
H1661 N1648 0.985 . S
C1662 C1663 1.363 . S
C1662 C1668 1.379 . S
C1662 N1670 1.356 . S
C1663 C1662 1.363 . S
C1663 C1669 1.363 . S
C1664 C1665 1.363 . S
C1664 C1669 1.379 . S
C1664 N1671 1.356 . S
C1665 C1664 1.363 . S
C1665 C1668 1.363 . S
N1666 C1668 1.356 . S
N1666 H1678 0.984 . S
N1666 H1679 0.985 . S
N1667 C1669 1.356 . S
N1667 H1672 0.984 . S
N1667 H1673 0.985 . S
C1668 C1662 1.379 . S
C1668 C1665 1.363 . S
C1668 N1666 1.356 . S
C1669 C1663 1.363 . S
C1669 C1664 1.379 . S
C1669 N1667 1.356 . S
N1670 C1662 1.356 . S
N1670 H1676 0.984 . S
N1670 H1677 0.984 . S
N1671 C1664 1.356 . S
N1671 H1674 0.984 . S
N1671 H1675 0.985 . S
H1672 N1667 0.984 . S
H1673 N1667 0.985 . S
H1674 N1671 0.984 . S
H1675 N1671 0.985 . S
H1676 N1670 0.984 . S
H1677 N1670 0.984 . S
H1678 N1666 0.984 . S
H1679 N1666 0.985 . S
C1680 C1681 1.363 . S
C1680 C1686 1.379 . S
C1680 N1688 1.356 . S
C1681 C1680 1.363 . S
C1681 C1687 1.363 . S
C1682 C1683 1.363 . S
C1682 C1687 1.379 . S
C1682 N1689 1.356 . S
C1683 C1682 1.363 . S
C1683 C1686 1.363 . S
N1684 C1686 1.356 . S
N1684 H1696 0.984 . S
N1684 H1697 0.985 . S
N1685 C1687 1.356 . S
N1685 H1690 0.984 . S
N1685 H1691 0.985 . S
C1686 C1680 1.379 . S
C1686 C1683 1.363 . S
C1686 N1684 1.356 . S
C1687 C1681 1.363 . S
C1687 C1682 1.379 . S
C1687 N1685 1.356 . S
N1688 C1680 1.356 . S
N1688 H1694 0.984 . S
N1688 H1695 0.984 . S
N1689 C1682 1.356 . S
N1689 H1692 0.984 . S
N1689 H1693 0.985 . S
H1690 N1685 0.984 . S
H1691 N1685 0.985 . S
H1692 N1689 0.984 . S
H1693 N1689 0.985 . S
H1694 N1688 0.984 . S
H1695 N1688 0.984 . S
H1696 N1684 0.984 . S
H1697 N1684 0.985 . S
C1698 C1699 1.363 . S
C1698 C1704 1.379 . S
C1698 N1706 1.356 . S
C1699 C1698 1.363 . S
C1699 C1705 1.363 . S
C1700 C1701 1.363 . S
C1700 C1705 1.379 1_556 S
C1700 N1707 1.356 . S
C1701 C1700 1.363 . S
C1701 C1704 1.363 1_556 S
N1702 C1704 1.356 1_556 S
N1702 H1714 0.984 . S
N1702 H1715 0.985 . S
N1703 C1705 1.356 . S
N1703 H1708 0.984 . S
N1703 H1709 0.985 . S
C1704 C1698 1.379 . S
C1704 C1701 1.363 1_554 S
C1704 N1702 1.356 1_554 S
C1705 C1699 1.363 . S
C1705 C1700 1.379 1_554 S
C1705 N1703 1.356 . S
N1706 C1698 1.356 . S
N1706 H1712 0.984 . S
N1706 H1713 0.984 . S
N1707 C1700 1.356 . S
N1707 H1710 0.984 . S
N1707 H1711 0.985 . S
H1708 N1703 0.984 . S
H1709 N1703 0.985 . S
H1710 N1707 0.984 . S
H1711 N1707 0.985 . S
H1712 N1706 0.984 . S
H1713 N1706 0.984 . S
H1714 N1702 0.984 . S
H1715 N1702 0.985 . S
C1716 C1717 1.363 . S
C1716 C1722 1.379 . S
C1716 N1724 1.356 . S
C1717 C1716 1.363 . S
C1717 C1723 1.363 . S
C1718 C1719 1.363 . S
C1718 C1723 1.379 . S
C1718 N1725 1.356 . S
C1719 C1718 1.363 . S
C1719 C1722 1.363 . S
N1720 C1722 1.356 . S
N1720 H1732 0.984 . S
N1720 H1733 0.985 . S
N1721 C1723 1.356 . S
N1721 H1726 0.984 . S
N1721 H1727 0.985 . S
C1722 C1716 1.379 . S
C1722 C1719 1.363 . S
C1722 N1720 1.356 . S
C1723 C1717 1.363 . S
C1723 C1718 1.379 . S
C1723 N1721 1.356 . S
N1724 C1716 1.356 . S
N1724 H1730 0.984 . S
N1724 H1731 0.984 . S
N1725 C1718 1.356 . S
N1725 H1728 0.984 . S
N1725 H1729 0.985 . S
H1726 N1721 0.984 . S
H1727 N1721 0.985 . S
H1728 N1725 0.984 . S
H1729 N1725 0.985 . S
H1730 N1724 0.984 . S
H1731 N1724 0.984 . S
H1732 N1720 0.984 . S
H1733 N1720 0.985 . S
C1734 C1735 1.363 . S
C1734 C1740 1.379 . S
C1734 N1742 1.356 . S
C1735 C1734 1.363 . S
C1735 C1741 1.363 . S
C1736 C1737 1.363 . S
C1736 C1741 1.379 . S
C1736 N1743 1.356 . S
C1737 C1736 1.363 . S
C1737 C1740 1.363 . S
N1738 C1740 1.356 . S
N1738 H1750 0.984 . S
N1738 H1751 0.985 . S
N1739 C1741 1.356 . S
N1739 H1744 0.984 . S
N1739 H1745 0.985 . S
C1740 C1734 1.379 . S
C1740 C1737 1.363 . S
C1740 N1738 1.356 . S
C1741 C1735 1.363 . S
C1741 C1736 1.379 . S
C1741 N1739 1.356 . S
N1742 C1734 1.356 . S
N1742 H1748 0.984 . S
N1742 H1749 0.984 . S
N1743 C1736 1.356 . S
N1743 H1746 0.984 . S
N1743 H1747 0.985 . S
H1744 N1739 0.984 . S
H1745 N1739 0.985 . S
H1746 N1743 0.984 . S
H1747 N1743 0.985 . S
H1748 N1742 0.984 . S
H1749 N1742 0.984 . S
H1750 N1738 0.984 . S
H1751 N1738 0.985 . S
C1752 C1753 1.363 . S
C1752 C1758 1.379 . S
C1752 N1760 1.356 . S
C1753 C1752 1.363 . S
C1753 C1759 1.363 . S
C1754 C1755 1.363 . S
C1754 C1759 1.379 . S
C1754 N1761 1.356 . S
C1755 C1754 1.363 . S
C1755 C1758 1.363 . S
N1756 C1758 1.356 . S
N1756 H1768 0.984 . S
N1756 H1769 0.985 . S
N1757 C1759 1.356 . S
N1757 H1762 0.984 . S
N1757 H1763 0.985 . S
C1758 C1752 1.379 . S
C1758 C1755 1.363 . S
C1758 N1756 1.356 . S
C1759 C1753 1.363 . S
C1759 C1754 1.379 . S
C1759 N1757 1.356 . S
N1760 C1752 1.356 . S
N1760 H1766 0.984 . S
N1760 H1767 0.984 . S
N1761 C1754 1.356 . S
N1761 H1764 0.984 . S
N1761 H1765 0.985 . S
H1762 N1757 0.984 . S
H1763 N1757 0.985 . S
H1764 N1761 0.984 . S
H1765 N1761 0.985 . S
H1766 N1760 0.984 . S
H1767 N1760 0.984 . S
H1768 N1756 0.984 . S
H1769 N1756 0.985 . S
C1770 C1771 1.363 . S
C1770 C1776 1.379 1_556 S
C1770 N1778 1.356 . S
C1771 C1770 1.363 . S
C1771 C1777 1.363 . S
C1772 C1773 1.363 1_556 S
C1772 C1777 1.379 . S
C1772 N1779 1.356 1_556 S
C1773 C1772 1.363 1_554 S
C1773 C1776 1.363 . S
N1774 C1776 1.356 . S
N1774 H1786 0.984 . S
N1774 H1787 0.985 . S
N1775 C1777 1.356 . S
N1775 H1780 0.984 . S
N1775 H1781 0.985 . S
C1776 C1770 1.379 1_554 S
C1776 C1773 1.363 . S
C1776 N1774 1.356 . S
C1777 C1771 1.363 . S
C1777 C1772 1.379 . S
C1777 N1775 1.356 . S
N1778 C1770 1.356 . S
N1778 H1784 0.984 . S
N1778 H1785 0.984 . S
N1779 C1772 1.356 1_554 S
N1779 H1782 0.984 . S
N1779 H1783 0.985 . S
H1780 N1775 0.984 . S
H1781 N1775 0.985 . S
H1782 N1779 0.984 . S
H1783 N1779 0.985 . S
H1784 N1778 0.984 . S
H1785 N1778 0.984 . S
H1786 N1774 0.984 . S
H1787 N1774 0.985 . S
C1788 C1789 1.363 . S
C1788 C1794 1.379 . S
C1788 N1796 1.356 . S
C1789 C1788 1.363 . S
C1789 C1795 1.363 . S
C1790 C1791 1.363 . S
C1790 C1795 1.379 . S
C1790 N1797 1.356 . S
C1791 C1790 1.363 . S
C1791 C1794 1.363 . S
N1792 C1794 1.356 . S
N1792 H1804 0.984 . S
N1792 H1805 0.985 . S
N1793 C1795 1.356 . S
N1793 H1798 0.984 . S
N1793 H1799 0.985 . S
C1794 C1788 1.379 . S
C1794 C1791 1.363 . S
C1794 N1792 1.356 . S
C1795 C1789 1.363 . S
C1795 C1790 1.379 . S
C1795 N1793 1.356 . S
N1796 C1788 1.356 . S
N1796 H1802 0.984 . S
N1796 H1803 0.984 . S
N1797 C1790 1.356 . S
N1797 H1800 0.984 . S
N1797 H1801 0.985 . S
H1798 N1793 0.984 . S
H1799 N1793 0.985 . S
H1800 N1797 0.984 . S
H1801 N1797 0.985 . S
H1802 N1796 0.984 . S
H1803 N1796 0.984 . S
H1804 N1792 0.984 . S
H1805 N1792 0.985 . S
C1806 C1807 1.363 . S
C1806 C1812 1.379 . S
C1806 N1814 1.356 . S
C1807 C1806 1.363 . S
C1807 C1813 1.363 . S
C1808 C1809 1.363 . S
C1808 C1813 1.379 . S
C1808 N1815 1.356 . S
C1809 C1808 1.363 . S
C1809 C1812 1.363 . S
N1810 C1812 1.356 . S
N1810 H1822 0.984 . S
N1810 H1823 0.985 . S
N1811 C1813 1.356 . S
N1811 H1816 0.984 . S
N1811 H1817 0.985 . S
C1812 C1806 1.379 . S
C1812 C1809 1.363 . S
C1812 N1810 1.356 . S
C1813 C1807 1.363 . S
C1813 C1808 1.379 . S
C1813 N1811 1.356 . S
N1814 C1806 1.356 . S
N1814 H1820 0.984 . S
N1814 H1821 0.984 . S
N1815 C1808 1.356 . S
N1815 H1818 0.984 . S
N1815 H1819 0.985 . S
H1816 N1811 0.984 . S
H1817 N1811 0.985 . S
H1818 N1815 0.984 . S
H1819 N1815 0.985 . S
H1820 N1814 0.984 . S
H1821 N1814 0.984 . S
H1822 N1810 0.984 . S
H1823 N1810 0.985 . S
C1824 C1825 1.363 . S
C1824 C1830 1.379 . S
C1824 N1832 1.356 . S
C1825 C1824 1.363 . S
C1825 C1831 1.363 . S
C1826 C1827 1.363 . S
C1826 C1831 1.379 . S
C1826 N1833 1.356 . S
C1827 C1826 1.363 . S
C1827 C1830 1.363 . S
N1828 C1830 1.356 . S
N1828 H1840 0.984 . S
N1828 H1841 0.985 . S
N1829 C1831 1.356 . S
N1829 H1834 0.984 . S
N1829 H1835 0.985 . S
C1830 C1824 1.379 . S
C1830 C1827 1.363 . S
C1830 N1828 1.356 . S
C1831 C1825 1.363 . S
C1831 C1826 1.379 . S
C1831 N1829 1.356 . S
N1832 C1824 1.356 . S
N1832 H1838 0.984 . S
N1832 H1839 0.984 . S
N1833 C1826 1.356 . S
N1833 H1836 0.984 . S
N1833 H1837 0.985 . S
H1834 N1829 0.984 . S
H1835 N1829 0.985 . S
H1836 N1833 0.984 . S
H1837 N1833 0.985 . S
H1838 N1832 0.984 . S
H1839 N1832 0.984 . S
H1840 N1828 0.984 . S
H1841 N1828 0.985 . S
C1842 C1843 1.363 . S
C1842 C1848 1.379 . S
C1842 N1850 1.356 . S
C1843 C1842 1.363 . S
C1843 C1849 1.363 . S
C1844 C1845 1.363 . S
C1844 C1849 1.379 . S
C1844 N1851 1.356 . S
C1845 C1844 1.363 . S
C1845 C1848 1.363 . S
N1846 C1848 1.356 . S
N1846 H1858 0.984 . S
N1846 H1859 0.985 . S
N1847 C1849 1.356 . S
N1847 H1852 0.984 . S
N1847 H1853 0.985 . S
C1848 C1842 1.379 . S
C1848 C1845 1.363 . S
C1848 N1846 1.356 . S
C1849 C1843 1.363 . S
C1849 C1844 1.379 . S
C1849 N1847 1.356 . S
N1850 C1842 1.356 . S
N1850 H1856 0.984 . S
N1850 H1857 0.984 . S
N1851 C1844 1.356 . S
N1851 H1854 0.984 . S
N1851 H1855 0.985 . S
H1852 N1847 0.984 . S
H1853 N1847 0.985 . S
H1854 N1851 0.984 . S
H1855 N1851 0.985 . S
H1856 N1850 0.984 . S
H1857 N1850 0.984 . S
H1858 N1846 0.984 . S
H1859 N1846 0.985 . S
C1860 C1861 1.363 . S
C1860 C1866 1.379 . S
C1860 N1868 1.356 . S
C1861 C1860 1.363 . S
C1861 C1867 1.363 . S
C1862 C1863 1.363 1_545 S
C1862 C1867 1.379 . S
C1862 N1869 1.356 1_545 S
C1863 C1862 1.363 1_565 S
C1863 C1866 1.363 1_565 S
N1864 C1866 1.356 1_565 S
N1864 H1876 0.984 . S
N1864 H1877 0.985 . S
N1865 C1867 1.356 . S
N1865 H1870 0.984 . S
N1865 H1871 0.985 . S
C1866 C1860 1.379 . S
C1866 C1863 1.363 1_545 S
C1866 N1864 1.356 1_545 S
C1867 C1861 1.363 . S
C1867 C1862 1.379 . S
C1867 N1865 1.356 . S
N1868 C1860 1.356 . S
N1868 H1874 0.984 . S
N1868 H1875 0.984 . S
N1869 C1862 1.356 1_565 S
N1869 H1872 0.984 . S
N1869 H1873 0.985 . S
H1870 N1865 0.984 . S
H1871 N1865 0.985 . S
H1872 N1869 0.984 . S
H1873 N1869 0.985 . S
H1874 N1868 0.984 . S
H1875 N1868 0.984 . S
H1876 N1864 0.984 . S
H1877 N1864 0.985 . S
C1878 C1879 1.363 . S
C1878 C1884 1.379 . S
C1878 N1886 1.356 . S
C1879 C1878 1.363 . S
C1879 C1885 1.363 . S
C1880 C1881 1.363 . S
C1880 C1885 1.379 . S
C1880 N1887 1.356 . S
C1881 C1880 1.363 . S
C1881 C1884 1.363 . S
N1882 C1884 1.356 . S
N1882 H1894 0.984 . S
N1882 H1895 0.985 . S
N1883 C1885 1.356 . S
N1883 H1888 0.984 . S
N1883 H1889 0.985 . S
C1884 C1878 1.379 . S
C1884 C1881 1.363 . S
C1884 N1882 1.356 . S
C1885 C1879 1.363 . S
C1885 C1880 1.379 . S
C1885 N1883 1.356 . S
N1886 C1878 1.356 . S
N1886 H1892 0.984 . S
N1886 H1893 0.984 . S
N1887 C1880 1.356 . S
N1887 H1890 0.984 . S
N1887 H1891 0.985 . S
H1888 N1883 0.984 . S
H1889 N1883 0.985 . S
H1890 N1887 0.984 . S
H1891 N1887 0.985 . S
H1892 N1886 0.984 . S
H1893 N1886 0.984 . S
H1894 N1882 0.984 . S
H1895 N1882 0.985 . S
C1896 C1897 1.363 . S
C1896 C1902 1.379 . S
C1896 N1904 1.356 . S
C1897 C1896 1.363 . S
C1897 C1903 1.363 . S
C1898 C1899 1.363 . S
C1898 C1903 1.379 . S
C1898 N1905 1.356 . S
C1899 C1898 1.363 . S
C1899 C1902 1.363 . S
N1900 C1902 1.356 . S
N1900 H1912 0.984 . S
N1900 H1913 0.985 . S
N1901 C1903 1.356 . S
N1901 H1906 0.984 . S
N1901 H1907 0.985 . S
C1902 C1896 1.379 . S
C1902 C1899 1.363 . S
C1902 N1900 1.356 . S
C1903 C1897 1.363 . S
C1903 C1898 1.379 . S
C1903 N1901 1.356 . S
N1904 C1896 1.356 . S
N1904 H1910 0.984 . S
N1904 H1911 0.984 . S
N1905 C1898 1.356 . S
N1905 H1908 0.984 . S
N1905 H1909 0.985 . S
H1906 N1901 0.984 . S
H1907 N1901 0.985 . S
H1908 N1905 0.984 . S
H1909 N1905 0.985 . S
H1910 N1904 0.984 . S
H1911 N1904 0.984 . S
H1912 N1900 0.984 . S
H1913 N1900 0.985 . S
C1914 C1915 1.363 . S
C1914 C1920 1.379 . S
C1914 N1922 1.356 . S
C1915 C1914 1.363 . S
C1915 C1921 1.363 . S
C1916 C1917 1.363 . S
C1916 C1921 1.379 . S
C1916 N1923 1.356 . S
C1917 C1916 1.363 . S
C1917 C1920 1.363 . S
N1918 C1920 1.356 . S
N1918 H1930 0.984 . S
N1918 H1931 0.985 . S
N1919 C1921 1.356 . S
N1919 H1924 0.984 . S
N1919 H1925 0.985 . S
C1920 C1914 1.379 . S
C1920 C1917 1.363 . S
C1920 N1918 1.356 . S
C1921 C1915 1.363 . S
C1921 C1916 1.379 . S
C1921 N1919 1.356 . S
N1922 C1914 1.356 . S
N1922 H1928 0.984 . S
N1922 H1929 0.984 . S
N1923 C1916 1.356 . S
N1923 H1926 0.984 . S
N1923 H1927 0.985 . S
H1924 N1919 0.984 . S
H1925 N1919 0.985 . S
H1926 N1923 0.984 . S
H1927 N1923 0.985 . S
H1928 N1922 0.984 . S
H1929 N1922 0.984 . S
H1930 N1918 0.984 . S
H1931 N1918 0.985 . S
C1932 C1933 1.363 1_565 S
C1932 C1938 1.379 . S
C1932 N1940 1.356 1_565 S
C1933 C1932 1.363 1_545 S
C1933 C1939 1.363 1_545 S
C1934 C1935 1.363 . S
C1934 C1939 1.379 . S
C1934 N1941 1.356 . S
C1935 C1934 1.363 . S
C1935 C1938 1.363 . S
N1936 C1938 1.356 . S
N1936 H1948 0.984 . S
N1936 H1949 0.985 . S
N1937 C1939 1.356 1_545 S
N1937 H1942 0.984 . S
N1937 H1943 0.985 . S
C1938 C1932 1.379 . S
C1938 C1935 1.363 . S
C1938 N1936 1.356 . S
C1939 C1933 1.363 1_565 S
C1939 C1934 1.379 . S
C1939 N1937 1.356 1_565 S
N1940 C1932 1.356 1_545 S
N1940 H1946 0.984 . S
N1940 H1947 0.984 . S
N1941 C1934 1.356 . S
N1941 H1944 0.984 . S
N1941 H1945 0.985 . S
H1942 N1937 0.984 . S
H1943 N1937 0.985 . S
H1944 N1941 0.984 . S
H1945 N1941 0.985 . S
H1946 N1940 0.984 . S
H1947 N1940 0.984 . S
H1948 N1936 0.984 . S
H1949 N1936 0.985 . S
C1950 C1951 1.363 . S
C1950 C1956 1.379 . S
C1950 N1958 1.356 . S
C1951 C1950 1.363 . S
C1951 C1957 1.363 . S
C1952 C1953 1.363 1_545 S
C1952 C1957 1.379 . S
C1952 N1959 1.356 1_545 S
C1953 C1952 1.363 1_565 S
C1953 C1956 1.363 1_565 S
N1954 C1956 1.356 1_565 S
N1954 H1966 0.984 . S
N1954 H1967 0.985 . S
N1955 C1957 1.356 . S
N1955 H1960 0.984 . S
N1955 H1961 0.985 . S
C1956 C1950 1.379 . S
C1956 C1953 1.363 1_545 S
C1956 N1954 1.356 1_545 S
C1957 C1951 1.363 . S
C1957 C1952 1.379 . S
C1957 N1955 1.356 . S
N1958 C1950 1.356 . S
N1958 H1964 0.984 . S
N1958 H1965 0.984 . S
N1959 C1952 1.356 1_565 S
N1959 H1962 0.984 . S
N1959 H1963 0.985 . S
H1960 N1955 0.984 . S
H1961 N1955 0.985 . S
H1962 N1959 0.984 . S
H1963 N1959 0.985 . S
H1964 N1958 0.984 . S
H1965 N1958 0.984 . S
H1966 N1954 0.984 . S
H1967 N1954 0.985 . S
C1968 C1969 1.363 . S
C1968 C1974 1.379 . S
C1968 N1976 1.356 . S
C1969 C1968 1.363 . S
C1969 C1975 1.363 . S
C1970 C1971 1.363 . S
C1970 C1975 1.379 . S
C1970 N1977 1.356 . S
C1971 C1970 1.363 . S
C1971 C1974 1.363 . S
N1972 C1974 1.356 . S
N1972 H1984 0.984 . S
N1972 H1985 0.985 . S
N1973 C1975 1.356 . S
N1973 H1978 0.984 . S
N1973 H1979 0.985 . S
C1974 C1968 1.379 . S
C1974 C1971 1.363 . S
C1974 N1972 1.356 . S
C1975 C1969 1.363 . S
C1975 C1970 1.379 . S
C1975 N1973 1.356 . S
N1976 C1968 1.356 . S
N1976 H1982 0.984 . S
N1976 H1983 0.984 . S
N1977 C1970 1.356 . S
N1977 H1980 0.984 . S
N1977 H1981 0.985 . S
H1978 N1973 0.984 . S
H1979 N1973 0.985 . S
H1980 N1977 0.984 . S
H1981 N1977 0.985 . S
H1982 N1976 0.984 . S
H1983 N1976 0.984 . S
H1984 N1972 0.984 . S
H1985 N1972 0.985 . S
C1986 C1987 1.363 . S
C1986 C1992 1.379 . S
C1986 N1994 1.356 . S
C1987 C1986 1.363 . S
C1987 C1993 1.363 . S
C1988 C1989 1.363 . S
C1988 C1993 1.379 . S
C1988 N1995 1.356 . S
C1989 C1988 1.363 . S
C1989 C1992 1.363 . S
N1990 C1992 1.356 . S
N1990 H2002 0.984 . S
N1990 H2003 0.985 . S
N1991 C1993 1.356 . S
N1991 H1996 0.984 . S
N1991 H1997 0.985 . S
C1992 C1986 1.379 . S
C1992 C1989 1.363 . S
C1992 N1990 1.356 . S
C1993 C1987 1.363 . S
C1993 C1988 1.379 . S
C1993 N1991 1.356 . S
N1994 C1986 1.356 . S
N1994 H2000 0.984 . S
N1994 H2001 0.984 . S
N1995 C1988 1.356 . S
N1995 H1998 0.984 . S
N1995 H1999 0.985 . S
H1996 N1991 0.984 . S
H1997 N1991 0.985 . S
H1998 N1995 0.984 . S
H1999 N1995 0.985 . S
H2000 N1994 0.984 . S
H2001 N1994 0.984 . S
H2002 N1990 0.984 . S
H2003 N1990 0.985 . S
C2004 C2005 1.363 . S
C2004 C2010 1.379 . S
C2004 N2012 1.356 . S
C2005 C2004 1.363 . S
C2005 C2011 1.363 . S
C2006 C2007 1.363 . S
C2006 C2011 1.379 . S
C2006 N2013 1.356 . S
C2007 C2006 1.363 . S
C2007 C2010 1.363 . S
N2008 C2010 1.356 . S
N2008 H2020 0.984 . S
N2008 H2021 0.985 . S
N2009 C2011 1.356 . S
N2009 H2014 0.984 . S
N2009 H2015 0.985 . S
C2010 C2004 1.379 . S
C2010 C2007 1.363 . S
C2010 N2008 1.356 . S
C2011 C2005 1.363 . S
C2011 C2006 1.379 . S
C2011 N2009 1.356 . S
N2012 C2004 1.356 . S
N2012 H2018 0.984 . S
N2012 H2019 0.984 . S
N2013 C2006 1.356 . S
N2013 H2016 0.984 . S
N2013 H2017 0.985 . S
H2014 N2009 0.984 . S
H2015 N2009 0.985 . S
H2016 N2013 0.984 . S
H2017 N2013 0.985 . S
H2018 N2012 0.984 . S
H2019 N2012 0.984 . S
H2020 N2008 0.984 . S
H2021 N2008 0.985 . S
C2022 C2023 1.363 1_655 S
C2022 C2028 1.379 . S
C2022 N2030 1.356 1_655 S
C2023 C2022 1.363 1_455 S
C2023 C2029 1.363 . S
C2024 C2025 1.363 . S
C2024 C2029 1.379 1_655 S
C2024 N2031 1.356 . S
C2025 C2024 1.363 . S
C2025 C2028 1.363 . S
N2026 C2028 1.356 . S
N2026 H2038 0.984 . S
N2026 H2039 0.985 . S
N2027 C2029 1.356 . S
N2027 H2032 0.984 . S
N2027 H2033 0.985 . S
C2028 C2022 1.379 . S
C2028 C2025 1.363 . S
C2028 N2026 1.356 . S
C2029 C2023 1.363 . S
C2029 C2024 1.379 1_455 S
C2029 N2027 1.356 . S
N2030 C2022 1.356 1_455 S
N2030 H2036 0.984 . S
N2030 H2037 0.984 . S
N2031 C2024 1.356 . S
N2031 H2034 0.984 . S
N2031 H2035 0.985 . S
H2032 N2027 0.984 . S
H2033 N2027 0.985 . S
H2034 N2031 0.984 . S
H2035 N2031 0.985 . S
H2036 N2030 0.984 . S
H2037 N2030 0.984 . S
H2038 N2026 0.984 . S
H2039 N2026 0.985 . S
C2040 C2041 1.363 . S
C2040 C2046 1.379 . S
C2040 N2048 1.356 . S
C2041 C2040 1.363 . S
C2041 C2047 1.363 . S
C2042 C2043 1.363 . S
C2042 C2047 1.379 . S
C2042 N2049 1.356 . S
C2043 C2042 1.363 . S
C2043 C2046 1.363 . S
N2044 C2046 1.356 . S
N2044 H2056 0.984 . S
N2044 H2057 0.985 . S
N2045 C2047 1.356 . S
N2045 H2050 0.984 . S
N2045 H2051 0.985 . S
C2046 C2040 1.379 . S
C2046 C2043 1.363 . S
C2046 N2044 1.356 . S
C2047 C2041 1.363 . S
C2047 C2042 1.379 . S
C2047 N2045 1.356 . S
N2048 C2040 1.356 . S
N2048 H2054 0.984 . S
N2048 H2055 0.984 . S
N2049 C2042 1.356 . S
N2049 H2052 0.984 . S
N2049 H2053 0.985 . S
H2050 N2045 0.984 . S
H2051 N2045 0.985 . S
H2052 N2049 0.984 . S
H2053 N2049 0.985 . S
H2054 N2048 0.984 . S
H2055 N2048 0.984 . S
H2056 N2044 0.984 . S
H2057 N2044 0.985 . S
C2058 C2059 1.363 . S
C2058 C2064 1.379 1_455 S
C2058 N2066 1.356 . S
C2059 C2058 1.363 . S
C2059 C2065 1.362 1_455 S
C2060 C2061 1.363 . S
C2060 C2065 1.381 . S
C2060 N2067 1.356 . S
C2061 C2060 1.363 . S
C2061 C2064 1.363 . S
N2062 C2064 1.356 . S
N2062 H2074 0.984 . S
N2062 H2075 0.985 . S
N2063 C2065 1.355 1_455 S
N2063 H2068 0.984 . S
N2063 H2069 0.985 . S
C2064 C2058 1.379 1_655 S
C2064 C2061 1.363 . S
C2064 N2062 1.356 . S
C2065 C2059 1.362 1_655 S
C2065 C2060 1.381 . S
C2065 N2063 1.355 1_655 S
N2066 C2058 1.356 . S
N2066 H2072 0.984 . S
N2066 H2073 0.984 . S
N2067 C2060 1.356 . S
N2067 H2070 0.984 . S
N2067 H2071 0.985 . S
H2068 N2063 0.984 . S
H2069 N2063 0.985 . S
H2070 N2067 0.984 . S
H2071 N2067 0.985 . S
H2072 N2066 0.984 . S
H2073 N2066 0.984 . S
H2074 N2062 0.984 . S
H2075 N2062 0.985 . S
C2076 C2077 1.363 . S
C2076 C2082 1.379 . S
C2076 N2084 1.356 . S
C2077 C2076 1.363 . S
C2077 C2083 1.363 . S
C2078 C2079 1.363 . S
C2078 C2083 1.379 . S
C2078 N2085 1.356 . S
C2079 C2078 1.363 . S
C2079 C2082 1.363 . S
N2080 C2082 1.356 . S
N2080 H2092 0.984 . S
N2080 H2093 0.985 . S
N2081 C2083 1.356 . S
N2081 H2086 0.984 . S
N2081 H2087 0.985 . S
C2082 C2076 1.379 . S
C2082 C2079 1.363 . S
C2082 N2080 1.356 . S
C2083 C2077 1.363 . S
C2083 C2078 1.379 . S
C2083 N2081 1.356 . S
N2084 C2076 1.356 . S
N2084 H2090 0.984 . S
N2084 H2091 0.984 . S
N2085 C2078 1.356 . S
N2085 H2088 0.984 . S
N2085 H2089 0.985 . S
H2086 N2081 0.984 . S
H2087 N2081 0.985 . S
H2088 N2085 0.984 . S
H2089 N2085 0.985 . S
H2090 N2084 0.984 . S
H2091 N2084 0.984 . S
H2092 N2080 0.984 . S
H2093 N2080 0.985 . S
C2094 C2095 1.363 . S
C2094 C2100 1.379 . S
C2094 N2102 1.356 . S
C2095 C2094 1.363 . S
C2095 C2101 1.363 . S
C2096 C2097 1.363 . S
C2096 C2101 1.379 . S
C2096 N2103 1.356 . S
C2097 C2096 1.363 . S
C2097 C2100 1.363 . S
N2098 C2100 1.356 . S
N2098 H2110 0.984 . S
N2098 H2111 0.985 . S
N2099 C2101 1.356 . S
N2099 H2104 0.984 . S
N2099 H2105 0.985 . S
C2100 C2094 1.379 . S
C2100 C2097 1.363 . S
C2100 N2098 1.356 . S
C2101 C2095 1.363 . S
C2101 C2096 1.379 . S
C2101 N2099 1.356 . S
N2102 C2094 1.356 . S
N2102 H2108 0.984 . S
N2102 H2109 0.984 . S
N2103 C2096 1.356 . S
N2103 H2106 0.984 . S
N2103 H2107 0.985 . S
H2104 N2099 0.984 . S
H2105 N2099 0.985 . S
H2106 N2103 0.984 . S
H2107 N2103 0.985 . S
H2108 N2102 0.984 . S
H2109 N2102 0.984 . S
H2110 N2098 0.984 . S
H2111 N2098 0.985 . S
C2112 C2113 1.363 . S
C2112 C2118 1.379 . S
C2112 N2120 1.356 . S
C2113 C2112 1.363 . S
C2113 C2119 1.363 . S
C2114 C2115 1.363 . S
C2114 C2119 1.379 . S
C2114 N2121 1.356 . S
C2115 C2114 1.363 . S
C2115 C2118 1.363 . S
N2116 C2118 1.356 . S
N2116 H2128 0.984 . S
N2116 H2129 0.985 . S
N2117 C2119 1.356 . S
N2117 H2122 0.984 . S
N2117 H2123 0.985 . S
C2118 C2112 1.379 . S
C2118 C2115 1.363 . S
C2118 N2116 1.356 . S
C2119 C2113 1.363 . S
C2119 C2114 1.379 . S
C2119 N2117 1.356 . S
N2120 C2112 1.356 . S
N2120 H2126 0.984 . S
N2120 H2127 0.984 . S
N2121 C2114 1.356 . S
N2121 H2124 0.984 . S
N2121 H2125 0.985 . S
H2122 N2117 0.984 . S
H2123 N2117 0.985 . S
H2124 N2121 0.984 . S
H2125 N2121 0.985 . S
H2126 N2120 0.984 . S
H2127 N2120 0.984 . S
H2128 N2116 0.984 . S
H2129 N2116 0.985 . S
C2130 C2131 1.363 . S
C2130 C2136 1.379 . S
C2130 N2138 1.356 . S
C2131 C2130 1.363 . S
C2131 C2137 1.363 . S
C2132 C2133 1.363 1_556 S
C2132 C2137 1.379 . S
C2132 N2139 1.356 1_556 S
C2133 C2132 1.363 1_554 S
C2133 C2136 1.363 1_554 S
N2134 C2136 1.356 1_554 S
N2134 H2146 0.984 . S
N2134 H2147 0.985 . S
N2135 C2137 1.356 . S
N2135 H2140 0.984 . S
N2135 H2141 0.985 . S
C2136 C2130 1.379 . S
C2136 C2133 1.363 1_556 S
C2136 N2134 1.356 1_556 S
C2137 C2131 1.363 . S
C2137 C2132 1.379 . S
C2137 N2135 1.356 . S
N2138 C2130 1.356 . S
N2138 H2144 0.984 . S
N2138 H2145 0.984 . S
N2139 C2132 1.356 1_554 S
N2139 H2142 0.984 . S
N2139 H2143 0.985 . S
H2140 N2135 0.984 . S
H2141 N2135 0.985 . S
H2142 N2139 0.984 . S
H2143 N2139 0.985 . S
H2144 N2138 0.984 . S
H2145 N2138 0.984 . S
H2146 N2134 0.984 . S
H2147 N2134 0.985 . S
C2148 C2149 1.363 . S
C2148 C2154 1.379 . S
C2148 N2156 1.356 . S
C2149 C2148 1.363 . S
C2149 C2155 1.363 . S
C2150 C2151 1.363 . S
C2150 C2155 1.379 . S
C2150 N2157 1.356 . S
C2151 C2150 1.363 . S
C2151 C2154 1.363 . S
N2152 C2154 1.356 . S
N2152 H2164 0.984 . S
N2152 H2165 0.985 . S
N2153 C2155 1.356 . S
N2153 H2158 0.984 . S
N2153 H2159 0.985 . S
C2154 C2148 1.379 . S
C2154 C2151 1.363 . S
C2154 N2152 1.356 . S
C2155 C2149 1.363 . S
C2155 C2150 1.379 . S
C2155 N2153 1.356 . S
N2156 C2148 1.356 . S
N2156 H2162 0.984 . S
N2156 H2163 0.984 . S
N2157 C2150 1.356 . S
N2157 H2160 0.984 . S
N2157 H2161 0.985 . S
H2158 N2153 0.984 . S
H2159 N2153 0.985 . S
H2160 N2157 0.984 . S
H2161 N2157 0.985 . S
H2162 N2156 0.984 . S
H2163 N2156 0.984 . S
H2164 N2152 0.984 . S
H2165 N2152 0.985 . S
C2166 C2167 1.363 . S
C2166 C2172 1.379 . S
C2166 N2174 1.356 . S
C2167 C2166 1.363 . S
C2167 C2173 1.363 . S
C2168 C2169 1.363 . S
C2168 C2173 1.379 . S
C2168 N2175 1.356 . S
C2169 C2168 1.363 . S
C2169 C2172 1.363 . S
N2170 C2172 1.356 . S
N2170 H2182 0.984 . S
N2170 H2183 0.985 . S
N2171 C2173 1.356 . S
N2171 H2176 0.984 . S
N2171 H2177 0.985 . S
C2172 C2166 1.379 . S
C2172 C2169 1.363 . S
C2172 N2170 1.356 . S
C2173 C2167 1.363 . S
C2173 C2168 1.379 . S
C2173 N2171 1.356 . S
N2174 C2166 1.356 . S
N2174 H2180 0.984 . S
N2174 H2181 0.984 . S
N2175 C2168 1.356 . S
N2175 H2178 0.984 . S
N2175 H2179 0.985 . S
H2176 N2171 0.984 . S
H2177 N2171 0.985 . S
H2178 N2175 0.984 . S
H2179 N2175 0.985 . S
H2180 N2174 0.984 . S
H2181 N2174 0.984 . S
H2182 N2170 0.984 . S
H2183 N2170 0.985 . S
C2184 C2185 1.363 . S
C2184 C2190 1.379 . S
C2184 N2192 1.356 . S
C2185 C2184 1.363 . S
C2185 C2191 1.363 . S
C2186 C2187 1.363 . S
C2186 C2191 1.379 . S
C2186 N2193 1.356 . S
C2187 C2186 1.363 . S
C2187 C2190 1.363 . S
N2188 C2190 1.356 . S
N2188 H2200 0.984 . S
N2188 H2201 0.985 . S
N2189 C2191 1.356 . S
N2189 H2194 0.984 . S
N2189 H2195 0.985 . S
C2190 C2184 1.379 . S
C2190 C2187 1.363 . S
C2190 N2188 1.356 . S
C2191 C2185 1.363 . S
C2191 C2186 1.379 . S
C2191 N2189 1.356 . S
N2192 C2184 1.356 . S
N2192 H2198 0.984 . S
N2192 H2199 0.984 . S
N2193 C2186 1.356 . S
N2193 H2196 0.984 . S
N2193 H2197 0.985 . S
H2194 N2189 0.984 . S
H2195 N2189 0.985 . S
H2196 N2193 0.984 . S
H2197 N2193 0.985 . S
H2198 N2192 0.984 . S
H2199 N2192 0.984 . S
H2200 N2188 0.984 . S
H2201 N2188 0.985 . S
C2202 C2203 1.363 . S
C2202 C2208 1.379 . S
C2202 N2210 1.356 . S
C2203 C2202 1.363 . S
C2203 C2209 1.363 . S
C2204 C2205 1.363 1_554 S
C2204 C2209 1.379 . S
C2204 N2211 1.356 1_554 S
C2205 C2204 1.363 1_556 S
C2205 C2208 1.363 1_556 S
N2206 C2208 1.356 1_556 S
N2206 H2218 0.984 . S
N2206 H2219 0.985 . S
N2207 C2209 1.356 . S
N2207 H2212 0.984 . S
N2207 H2213 0.985 . S
C2208 C2202 1.379 . S
C2208 C2205 1.363 1_554 S
C2208 N2206 1.356 1_554 S
C2209 C2203 1.363 . S
C2209 C2204 1.379 . S
C2209 N2207 1.356 . S
N2210 C2202 1.356 . S
N2210 H2216 0.984 . S
N2210 H2217 0.984 . S
N2211 C2204 1.356 1_556 S
N2211 H2214 0.984 . S
N2211 H2215 0.985 . S
H2212 N2207 0.984 . S
H2213 N2207 0.985 . S
H2214 N2211 0.984 . S
H2215 N2211 0.985 . S
H2216 N2210 0.984 . S
H2217 N2210 0.984 . S
H2218 N2206 0.984 . S
H2219 N2206 0.985 . S
C2220 C2221 1.363 . S
C2220 C2226 1.379 . S
C2220 N2228 1.356 . S
C2221 C2220 1.363 . S
C2221 C2227 1.363 . S
C2222 C2223 1.363 . S
C2222 C2227 1.379 . S
C2222 N2229 1.356 . S
C2223 C2222 1.363 . S
C2223 C2226 1.363 . S
N2224 C2226 1.356 . S
N2224 H2236 0.984 . S
N2224 H2237 0.985 . S
N2225 C2227 1.356 . S
N2225 H2230 0.984 . S
N2225 H2231 0.985 . S
C2226 C2220 1.379 . S
C2226 C2223 1.363 . S
C2226 N2224 1.356 . S
C2227 C2221 1.363 . S
C2227 C2222 1.379 . S
C2227 N2225 1.356 . S
N2228 C2220 1.356 . S
N2228 H2234 0.984 . S
N2228 H2235 0.984 . S
N2229 C2222 1.356 . S
N2229 H2232 0.984 . S
N2229 H2233 0.985 . S
H2230 N2225 0.984 . S
H2231 N2225 0.985 . S
H2232 N2229 0.984 . S
H2233 N2229 0.985 . S
H2234 N2228 0.984 . S
H2235 N2228 0.984 . S
H2236 N2224 0.984 . S
H2237 N2224 0.985 . S
C2238 C2239 1.363 . S
C2238 C2244 1.379 . S
C2238 N2246 1.356 . S
C2239 C2238 1.363 . S
C2239 C2245 1.363 . S
C2240 C2241 1.363 . S
C2240 C2245 1.379 . S
C2240 N2247 1.356 . S
C2241 C2240 1.363 . S
C2241 C2244 1.363 . S
N2242 C2244 1.356 . S
N2242 H2254 0.984 . S
N2242 H2255 0.985 . S
N2243 C2245 1.356 . S
N2243 H2248 0.984 . S
N2243 H2249 0.985 . S
C2244 C2238 1.379 . S
C2244 C2241 1.363 . S
C2244 N2242 1.356 . S
C2245 C2239 1.363 . S
C2245 C2240 1.379 . S
C2245 N2243 1.356 . S
N2246 C2238 1.356 . S
N2246 H2252 0.984 . S
N2246 H2253 0.984 . S
N2247 C2240 1.356 . S
N2247 H2250 0.984 . S
N2247 H2251 0.985 . S
H2248 N2243 0.984 . S
H2249 N2243 0.985 . S
H2250 N2247 0.984 . S
H2251 N2247 0.985 . S
H2252 N2246 0.984 . S
H2253 N2246 0.984 . S
H2254 N2242 0.984 . S
H2255 N2242 0.985 . S
C2256 C2257 1.363 . S
C2256 C2262 1.379 . S
C2256 N2264 1.356 . S
C2257 C2256 1.363 . S
C2257 C2263 1.363 . S
C2258 C2259 1.363 . S
C2258 C2263 1.379 . S
C2258 N2265 1.356 . S
C2259 C2258 1.363 . S
C2259 C2262 1.363 . S
N2260 C2262 1.356 . S
N2260 H2272 0.984 . S
N2260 H2273 0.985 . S
N2261 C2263 1.356 . S
N2261 H2266 0.984 . S
N2261 H2267 0.985 . S
C2262 C2256 1.379 . S
C2262 C2259 1.363 . S
C2262 N2260 1.356 . S
C2263 C2257 1.363 . S
C2263 C2258 1.379 . S
C2263 N2261 1.356 . S
N2264 C2256 1.356 . S
N2264 H2270 0.984 . S
N2264 H2271 0.984 . S
N2265 C2258 1.356 . S
N2265 H2268 0.984 . S
N2265 H2269 0.985 . S
H2266 N2261 0.984 . S
H2267 N2261 0.985 . S
H2268 N2265 0.984 . S
H2269 N2265 0.985 . S
H2270 N2264 0.984 . S
H2271 N2264 0.984 . S
H2272 N2260 0.984 . S
H2273 N2260 0.985 . S
C2274 C2275 1.363 . S
C2274 C2280 1.379 . S
C2274 N2282 1.356 . S
C2275 C2274 1.363 . S
C2275 C2281 1.363 . S
C2276 C2277 1.363 . S
C2276 C2281 1.379 . S
C2276 N2283 1.356 . S
C2277 C2276 1.363 . S
C2277 C2280 1.363 . S
N2278 C2280 1.356 . S
N2278 H2290 0.984 . S
N2278 H2291 0.985 . S
N2279 C2281 1.356 . S
N2279 H2284 0.984 . S
N2279 H2285 0.985 . S
C2280 C2274 1.379 . S
C2280 C2277 1.363 . S
C2280 N2278 1.356 . S
C2281 C2275 1.363 . S
C2281 C2276 1.379 . S
C2281 N2279 1.356 . S
N2282 C2274 1.356 . S
N2282 H2288 0.984 . S
N2282 H2289 0.984 . S
N2283 C2276 1.356 . S
N2283 H2286 0.984 . S
N2283 H2287 0.985 . S
H2284 N2279 0.984 . S
H2285 N2279 0.985 . S
H2286 N2283 0.984 . S
H2287 N2283 0.985 . S
H2288 N2282 0.984 . S
H2289 N2282 0.984 . S
H2290 N2278 0.984 . S
H2291 N2278 0.985 . S
C2292 C2293 1.363 . S
C2292 C2298 1.379 1_565 S
C2292 N2300 1.356 . S
C2293 C2292 1.363 . S
C2293 C2299 1.363 . S
C2294 C2295 1.363 1_565 S
C2294 C2299 1.379 . S
C2294 N2301 1.356 1_565 S
C2295 C2294 1.363 1_545 S
C2295 C2298 1.363 . S
N2296 C2298 1.356 . S
N2296 H2308 0.984 . S
N2296 H2309 0.985 . S
N2297 C2299 1.356 . S
N2297 H2302 0.984 . S
N2297 H2303 0.985 . S
C2298 C2292 1.379 1_545 S
C2298 C2295 1.363 . S
C2298 N2296 1.356 . S
C2299 C2293 1.363 . S
C2299 C2294 1.379 . S
C2299 N2297 1.356 . S
N2300 C2292 1.356 . S
N2300 H2306 0.984 . S
N2300 H2307 0.984 . S
N2301 C2294 1.356 1_545 S
N2301 H2304 0.984 . S
N2301 H2305 0.999 . S
H2302 N2297 0.984 . S
H2303 N2297 0.985 . S
H2304 N2301 0.984 . S
H2305 N2301 0.999 . S
H2306 N2300 0.984 . S
H2307 N2300 0.984 . S
H2308 N2296 0.984 . S
H2309 N2296 0.985 . S
C2310 C2311 1.363 . S
C2310 C2316 1.379 . S
C2310 N2318 1.356 . S
C2311 C2310 1.363 . S
C2311 C2317 1.363 . S
C2312 C2313 1.363 . S
C2312 C2317 1.379 . S
C2312 N2319 1.356 . S
C2313 C2312 1.363 . S
C2313 C2316 1.363 . S
N2314 C2316 1.356 . S
N2314 H2326 0.984 . S
N2314 H2327 0.985 . S
N2315 C2317 1.356 . S
N2315 H2320 0.984 . S
N2315 H2321 0.985 . S
C2316 C2310 1.379 . S
C2316 C2313 1.363 . S
C2316 N2314 1.356 . S
C2317 C2311 1.363 . S
C2317 C2312 1.379 . S
C2317 N2315 1.356 . S
N2318 C2310 1.356 . S
N2318 H2324 0.984 . S
N2318 H2325 0.984 . S
N2319 C2312 1.356 . S
N2319 H2322 0.984 . S
N2319 H2323 0.985 . S
H2320 N2315 0.984 . S
H2321 N2315 0.985 . S
H2322 N2319 0.984 . S
H2323 N2319 0.985 . S
H2324 N2318 0.984 . S
H2325 N2318 0.984 . S
H2326 N2314 0.984 . S
H2327 N2314 0.985 . S
C2328 C2329 1.363 . S
C2328 C2334 1.379 . S
C2328 N2336 1.356 . S
C2329 C2328 1.363 . S
C2329 C2335 1.363 . S
C2330 C2331 1.363 . S
C2330 C2335 1.379 . S
C2330 N2337 1.356 . S
C2331 C2330 1.363 . S
C2331 C2334 1.363 . S
N2332 C2334 1.356 . S
N2332 H2344 0.984 . S
N2332 H2345 0.985 . S
N2333 C2335 1.356 . S
N2333 H2338 0.984 . S
N2333 H2339 0.985 . S
C2334 C2328 1.379 . S
C2334 C2331 1.363 . S
C2334 N2332 1.356 . S
C2335 C2329 1.363 . S
C2335 C2330 1.379 . S
C2335 N2333 1.356 . S
N2336 C2328 1.356 . S
N2336 H2342 0.984 . S
N2336 H2343 0.984 . S
N2337 C2330 1.356 . S
N2337 H2340 0.984 . S
N2337 H2341 0.985 . S
H2338 N2333 0.984 . S
H2339 N2333 0.985 . S
H2340 N2337 0.984 . S
H2341 N2337 0.985 . S
H2342 N2336 0.984 . S
H2343 N2336 0.984 . S
H2344 N2332 0.984 . S
H2345 N2332 0.985 . S
C2346 C2347 1.363 . S
C2346 C2352 1.379 . S
C2346 N2354 1.356 . S
C2347 C2346 1.363 . S
C2347 C2353 1.363 . S
C2348 C2349 1.363 . S
C2348 C2353 1.379 . S
C2348 N2355 1.356 . S
C2349 C2348 1.363 . S
C2349 C2352 1.363 . S
N2350 C2352 1.356 . S
N2350 H2362 0.984 . S
N2350 H2363 0.985 . S
N2351 C2353 1.356 . S
N2351 H2356 0.984 . S
N2351 H2357 0.985 . S
C2352 C2346 1.379 . S
C2352 C2349 1.363 . S
C2352 N2350 1.356 . S
C2353 C2347 1.363 . S
C2353 C2348 1.379 . S
C2353 N2351 1.356 . S
N2354 C2346 1.356 . S
N2354 H2360 0.984 . S
N2354 H2361 0.984 . S
N2355 C2348 1.356 . S
N2355 H2358 0.984 . S
N2355 H2359 0.985 . S
H2356 N2351 0.984 . S
H2357 N2351 0.985 . S
H2358 N2355 0.984 . S
H2359 N2355 0.985 . S
H2360 N2354 0.984 . S
H2361 N2354 0.984 . S
H2362 N2350 0.984 . S
H2363 N2350 0.985 . S
C2364 C2365 1.363 1_545 S
C2364 C2370 1.379 . S
C2364 N2372 1.356 1_545 S
C2365 C2364 1.363 1_565 S
C2365 C2371 1.363 1_565 S
C2366 C2367 1.363 . S
C2366 C2371 1.379 . S
C2366 N2373 1.356 . S
C2367 C2366 1.363 . S
C2367 C2370 1.363 . S
N2368 C2370 1.356 . S
N2368 H2380 0.984 . S
N2368 H2381 0.985 . S
N2369 C2371 1.356 1_565 S
N2369 H2374 0.984 . S
N2369 H2375 0.985 . S
C2370 C2364 1.379 . S
C2370 C2367 1.363 . S
C2370 N2368 1.356 . S
C2371 C2365 1.363 1_545 S
C2371 C2366 1.379 . S
C2371 N2369 1.356 1_545 S
N2372 C2364 1.356 1_565 S
N2372 H2378 0.984 . S
N2372 H2379 0.984 . S
N2373 C2366 1.356 . S
N2373 H2376 0.984 . S
N2373 H2377 0.985 . S
H2374 N2369 0.984 . S
H2375 N2369 0.985 . S
H2376 N2373 0.984 . S
H2377 N2373 0.985 . S
H2378 N2372 0.984 . S
H2379 N2372 0.984 . S
H2380 N2368 0.984 . S
H2381 N2368 0.985 . S
C2382 C2383 1.363 . S
C2382 C2388 1.379 1_565 S
C2382 N2390 1.356 . S
C2383 C2382 1.363 . S
C2383 C2389 1.363 . S
C2384 C2385 1.363 1_565 S
C2384 C2389 1.379 . S
C2384 N2391 1.356 1_565 S
C2385 C2384 1.363 1_545 S
C2385 C2388 1.363 . S
N2386 C2388 1.356 . S
N2386 H2398 0.984 . S
N2386 H2399 0.985 . S
N2387 C2389 1.356 . S
N2387 H2392 0.984 . S
N2387 H2393 0.985 . S
C2388 C2382 1.379 1_545 S
C2388 C2385 1.363 . S
C2388 N2386 1.356 . S
C2389 C2383 1.363 . S
C2389 C2384 1.379 . S
C2389 N2387 1.356 . S
N2390 C2382 1.356 . S
N2390 H2396 0.984 . S
N2390 H2397 0.984 . S
N2391 C2384 1.356 1_545 S
N2391 H2394 0.984 . S
N2391 H2395 0.985 . S
H2392 N2387 0.984 . S
H2393 N2387 0.985 . S
H2394 N2391 0.984 . S
H2395 N2391 0.985 . S
H2396 N2390 0.984 . S
H2397 N2390 0.984 . S
H2398 N2386 0.984 . S
H2399 N2386 0.985 . S
C673 C591 1.418 . S
C675 C3 1.446 . S
C691 C23 1.453 . S
C693 C217 1.448 . S
C709 C31 1.439 . S
C711 C563 1.411 . S
C727 C51 1.446 . S
C729 C245 1.442 . S
C745 C623 1.439 . S
C747 C63 1.408 . S
C763 C78 1.439 . S
C765 C297 1.423 . S
C781 C91 1.405 . S
C783 C651 1.437 . S
C799 C106 1.416 . S
C801 C269 1.401 . S
C817 C50 1.421 . S
C819 C661 1.403 . S
C835 C7 1.404 . S
C837 C357 1.435 . S
C853 C371 1.435 . S
C855 C22 1.430 . S
C871 C35 1.396 . S
C873 C339 1.408 . S
C889 C79 1.474 . S
C891 C343 1.467 . S
C907 C87 1.442 . S
C909 C665 1.437 . S
C925 C107 1.467 . S
C927 C353 1.437 . S
C943 C59 1.448 . S
C945 C367 1.421 . S
C961 C549 1.417 . S
C963 C120 1.430 . S
C979 C134 1.415 . S
C981 C273 1.421 . S
C997 C121 1.444 . S
C999 C619 1.415 . S
C1015 C301 1.461 . S
C1017 C149 1.468 . S
C1033 C311 1.411 . S
C1035 C162 1.428 . S
C1051 C577 1.438 . S
C1053 C177 1.462 . S
C1069 C595 1.456 . S
C1071 C191 1.462 . S
C1087 C567 1.467 . S
C1089 C205 1.474 . S
C1105 C465 1.381 . S
C1107 C218 1.393 . S
C1123 C233 1.449 . S
C1125 C9 1.397 . S
C1141 C246 1.400 . S
C1143 C437 1.387 . S
C1159 C37 1.408 . S
C1161 C261 1.459 . S
C1177 C275 1.413 . S
C1179 C497 1.407 . S
C1195 C92 1.425 . S
C1197 C288 1.419 . S
C1213 C303 1.411 . S
C1215 C525 1.404 . S
C1231 C64 1.444 . S
C1233 C316 1.439 . S
C1249 C535 1.398 . S
C1251 C260 1.409 . S
C1267 C219 1.425 . S
C1269 C143 1.405 . S
C1285 C161 1.410 . S
C1287 C232 1.407 . S
C1303 C133 1.424 . S
C1305 C247 1.432 . S
C1321 C129 1.427 . S
C1323 C289 1.451 . S
C1339 C302 1.384 . S
C1341 C539 1.386 . S
C1357 C147 1.447 . S
C1359 C317 1.453 . S
C1375 C274 1.373 . S
C1377 C157 1.362 . S
C1393 C330 1.420 . S
C1395 C428 1.425 . S
C1411 C345 1.475 . S
C1413 C65 1.419 . S
C1429 C331 1.434 . S
C1431 C493 1.416 . S
C1447 C358 1.443 . S
C1449 C93 1.402 . S
C1465 C372 1.409 . S
C1467 C101 1.399 . S
C1483 C456 1.440 . S
C1485 C387 1.447 . S
C1501 C401 1.435 . S
C1503 C469 1.428 . S
C1519 C415 1.448 . S
C1521 C441 1.440 . S
C1537 C423 1.448 . S
C1539 C255 1.421 . S
C1555 C443 1.446 . S
C1557 C553 1.442 . S
C1573 C227 1.409 . S
C1575 C451 1.436 . S
C1591 C471 1.451 . S
C1593 C581 1.447 . S
C1609 C483 1.408 . S
C1611 C287 1.439 . S
C1627 C633 1.403 . S
C1629 C498 1.417 . S
C1645 C511 1.400 . S
C1647 C315 1.432 . S
C1663 C605 1.405 . S
C1665 C526 1.419 . S
C1681 C325 1.405 . S
C1683 C470 1.423 . S
C1699 C413 1.431 . S
C1701 C427 1.400 . S
C1717 C442 1.429 . S
C1719 C385 1.435 . S
C1735 C399 1.432 . S
C1737 C455 1.398 . S
C1753 C499 1.468 . S
C1755 C395 1.434 . S
C1771 C329 1.438 . S
C1773 C507 1.444 . S
C1789 C527 1.464 . S
C1791 C409 1.434 . S
C1807 C479 1.442 . S
C1809 C381 1.416 . S
C1825 C540 1.423 . S
C1827 C213 1.410 . S
C1843 C190 1.411 . S
C1845 C609 1.417 . S
C1861 C283 1.418 . S
C1863 C541 1.447 . S
C1879 C637 1.430 . S
C1881 C204 1.424 . S
C1897 C647 1.398 . S
C1899 C176 1.416 . S
C1915 C163 1.462 . S
C1917 C241 1.438 . S
C1933 C135 1.470 . S
C1935 C259 1.465 . S
C1951 C231 1.445 . S
C1953 C148 1.439 . S
C1969 C554 1.391 . S
C1971 C45 1.378 . S
C1987 C429 1.402 . S
C1989 C569 1.453 . S
C2005 C582 1.402 . S
C2007 C17 1.390 . S
C2023 C597 1.453 . S
C2025 C457 1.401 . S
C2041 C77 1.400 . S
C2043 C611 1.406 . S
C2059 C624 1.422 . S
C2061 C512 1.428 . S
C2077 C639 1.410 . S
C2079 C105 1.404 . S
C2095 C484 1.425 . S
C2097 C652 1.419 . S
C2113 C596 1.409 . S
C2115 C115 1.399 . S
C2131 C203 1.421 . S
C2133 C555 1.428 . S
C2149 C175 1.411 . S
C2151 C568 1.408 . S
C2167 C583 1.429 . S
C2169 C189 1.421 . S
C2185 C625 1.448 . S
C2187 C185 1.424 . S
C2203 C119 1.381 . S
C2205 C638 1.379 . S
C2221 C199 1.428 . S
C2223 C653 1.448 . S
C2239 C610 1.375 . S
C2241 C171 1.364 . S
C2257 C8 1.425 . S
C2259 C666 1.420 . S
C2275 C400 1.431 . S
C2277 C485 1.390 . S
C2293 C73 1.429 . S
C2295 C667 1.447 . S
C2311 C513 1.399 . S
C2313 C414 1.439 . S
C2329 C521 1.396 . S
C2331 C386 1.405 . S
C2347 C373 1.440 . S
C2349 C36 1.434 . S
C2365 C344 1.403 . S
C2367 C49 1.407 . S
C2383 C21 1.449 . S
C2385 C359 1.456 . S
