# Generated by pormake.
# Topology uke, (4)-cn, num edge types: 1
# Building blocks:
#     Node 0, Type 0, BuildingBlock: GALJAG_clean_sbu_0, # of connection points: 4
#     Node 1, Type 0, BuildingBlock: GALJAG_clean_sbu_0, # of connection points: 4
#     Node 2, Type 0, BuildingBlock: GALJAG_clean_sbu_0, # of connection points: 4
#     Node 3, Type 0, BuildingBlock: GALJAG_clean_sbu_0, # of connection points: 4
#     Node 4, Type 0, BuildingBlock: GALJAG_clean_sbu_0, # of connection points: 4
#     Node 5, Type 0, BuildingBlock: GALJAG_clean_sbu_0, # of connection points: 4
#     Node 6, Type 0, BuildingBlock: GALJAG_clean_sbu_0, # of connection points: 4
#     Node 7, Type 0, BuildingBlock: GALJAG_clean_sbu_0, # of connection points: 4
#     Node 8, Type 0, BuildingBlock: GALJAG_clean_sbu_0, # of connection points: 4
#     Node 9, Type 0, BuildingBlock: GALJAG_clean_sbu_0, # of connection points: 4
#     Node 10, Type 0, BuildingBlock: GALJAG_clean_sbu_0, # of connection points: 4
#     Node 11, Type 0, BuildingBlock: GALJAG_clean_sbu_0, # of connection points: 4
#     Node 12, Type 0, BuildingBlock: GALJAG_clean_sbu_0, # of connection points: 4
#     Node 13, Type 0, BuildingBlock: GALJAG_clean_sbu_0, # of connection points: 4
#     Node 14, Type 0, BuildingBlock: GALJAG_clean_sbu_0, # of connection points: 4
#     Node 15, Type 0, BuildingBlock: GALJAG_clean_sbu_0, # of connection points: 4
#     Node 16, Type 0, BuildingBlock: GALJAG_clean_sbu_0, # of connection points: 4
#     Node 17, Type 0, BuildingBlock: GALJAG_clean_sbu_0, # of connection points: 4
#     Node 18, Type 0, BuildingBlock: GALJAG_clean_sbu_0, # of connection points: 4
#     Node 19, Type 0, BuildingBlock: GALJAG_clean_sbu_0, # of connection points: 4
#     Node 20, Type 0, BuildingBlock: GALJAG_clean_sbu_0, # of connection points: 4
#     Node 21, Type 0, BuildingBlock: GALJAG_clean_sbu_0, # of connection points: 4
#     Node 22, Type 0, BuildingBlock: GALJAG_clean_sbu_0, # of connection points: 4
#     Node 23, Type 0, BuildingBlock: GALJAG_clean_sbu_0, # of connection points: 4
#     Node 24, Type 0, BuildingBlock: GALJAG_clean_sbu_0, # of connection points: 4
#     Node 25, Type 0, BuildingBlock: GALJAG_clean_sbu_0, # of connection points: 4
#     Node 26, Type 0, BuildingBlock: GALJAG_clean_sbu_0, # of connection points: 4
#     Node 27, Type 0, BuildingBlock: GALJAG_clean_sbu_0, # of connection points: 4
#     Node 28, Type 0, BuildingBlock: GALJAG_clean_sbu_0, # of connection points: 4
#     Node 29, Type 0, BuildingBlock: GALJAG_clean_sbu_0, # of connection points: 4
#     Node 30, Type 0, BuildingBlock: GALJAG_clean_sbu_0, # of connection points: 4
#     Node 31, Type 0, BuildingBlock: GALJAG_clean_sbu_0, # of connection points: 4
#     Edge 32, Type (0, 0), BuildingBlock: XIVTED_clean_linker_0, # of connection points: 2
#     Edge 33, Type (0, 0), BuildingBlock: XIVTED_clean_linker_0, # of connection points: 2
#     Edge 34, Type (0, 0), BuildingBlock: XIVTED_clean_linker_0, # of connection points: 2
#     Edge 35, Type (0, 0), BuildingBlock: XIVTED_clean_linker_0, # of connection points: 2
#     Edge 36, Type (0, 0), BuildingBlock: XIVTED_clean_linker_0, # of connection points: 2
#     Edge 37, Type (0, 0), BuildingBlock: XIVTED_clean_linker_0, # of connection points: 2
#     Edge 38, Type (0, 0), BuildingBlock: XIVTED_clean_linker_0, # of connection points: 2
#     Edge 39, Type (0, 0), BuildingBlock: XIVTED_clean_linker_0, # of connection points: 2
#     Edge 40, Type (0, 0), BuildingBlock: XIVTED_clean_linker_0, # of connection points: 2
#     Edge 41, Type (0, 0), BuildingBlock: XIVTED_clean_linker_0, # of connection points: 2
#     Edge 42, Type (0, 0), BuildingBlock: XIVTED_clean_linker_0, # of connection points: 2
#     Edge 43, Type (0, 0), BuildingBlock: XIVTED_clean_linker_0, # of connection points: 2
#     Edge 44, Type (0, 0), BuildingBlock: XIVTED_clean_linker_0, # of connection points: 2
#     Edge 45, Type (0, 0), BuildingBlock: XIVTED_clean_linker_0, # of connection points: 2
#     Edge 46, Type (0, 0), BuildingBlock: XIVTED_clean_linker_0, # of connection points: 2
#     Edge 47, Type (0, 0), BuildingBlock: XIVTED_clean_linker_0, # of connection points: 2
#     Edge 48, Type (0, 0), BuildingBlock: XIVTED_clean_linker_0, # of connection points: 2
#     Edge 49, Type (0, 0), BuildingBlock: XIVTED_clean_linker_0, # of connection points: 2
#     Edge 50, Type (0, 0), BuildingBlock: XIVTED_clean_linker_0, # of connection points: 2
#     Edge 51, Type (0, 0), BuildingBlock: XIVTED_clean_linker_0, # of connection points: 2
#     Edge 52, Type (0, 0), BuildingBlock: XIVTED_clean_linker_0, # of connection points: 2
#     Edge 53, Type (0, 0), BuildingBlock: XIVTED_clean_linker_0, # of connection points: 2
#     Edge 54, Type (0, 0), BuildingBlock: XIVTED_clean_linker_0, # of connection points: 2
#     Edge 55, Type (0, 0), BuildingBlock: XIVTED_clean_linker_0, # of connection points: 2
#     Edge 56, Type (0, 0), BuildingBlock: XIVTED_clean_linker_0, # of connection points: 2
#     Edge 57, Type (0, 0), BuildingBlock: XIVTED_clean_linker_0, # of connection points: 2
#     Edge 58, Type (0, 0), BuildingBlock: XIVTED_clean_linker_0, # of connection points: 2
#     Edge 59, Type (0, 0), BuildingBlock: XIVTED_clean_linker_0, # of connection points: 2
#     Edge 60, Type (0, 0), BuildingBlock: XIVTED_clean_linker_0, # of connection points: 2
#     Edge 61, Type (0, 0), BuildingBlock: XIVTED_clean_linker_0, # of connection points: 2
#     Edge 62, Type (0, 0), BuildingBlock: XIVTED_clean_linker_0, # of connection points: 2
#     Edge 63, Type (0, 0), BuildingBlock: XIVTED_clean_linker_0, # of connection points: 2
#     Edge 64, Type (0, 0), BuildingBlock: XIVTED_clean_linker_0, # of connection points: 2
#     Edge 65, Type (0, 0), BuildingBlock: XIVTED_clean_linker_0, # of connection points: 2
#     Edge 66, Type (0, 0), BuildingBlock: XIVTED_clean_linker_0, # of connection points: 2
#     Edge 67, Type (0, 0), BuildingBlock: XIVTED_clean_linker_0, # of connection points: 2
#     Edge 68, Type (0, 0), BuildingBlock: XIVTED_clean_linker_0, # of connection points: 2
#     Edge 69, Type (0, 0), BuildingBlock: XIVTED_clean_linker_0, # of connection points: 2
#     Edge 70, Type (0, 0), BuildingBlock: XIVTED_clean_linker_0, # of connection points: 2
#     Edge 71, Type (0, 0), BuildingBlock: XIVTED_clean_linker_0, # of connection points: 2
#     Edge 72, Type (0, 0), BuildingBlock: XIVTED_clean_linker_0, # of connection points: 2
#     Edge 73, Type (0, 0), BuildingBlock: XIVTED_clean_linker_0, # of connection points: 2
#     Edge 74, Type (0, 0), BuildingBlock: XIVTED_clean_linker_0, # of connection points: 2
#     Edge 75, Type (0, 0), BuildingBlock: XIVTED_clean_linker_0, # of connection points: 2
#     Edge 76, Type (0, 0), BuildingBlock: XIVTED_clean_linker_0, # of connection points: 2
#     Edge 77, Type (0, 0), BuildingBlock: XIVTED_clean_linker_0, # of connection points: 2
#     Edge 78, Type (0, 0), BuildingBlock: XIVTED_clean_linker_0, # of connection points: 2
#     Edge 79, Type (0, 0), BuildingBlock: XIVTED_clean_linker_0, # of connection points: 2
#     Edge 80, Type (0, 0), BuildingBlock: XIVTED_clean_linker_0, # of connection points: 2
#     Edge 81, Type (0, 0), BuildingBlock: XIVTED_clean_linker_0, # of connection points: 2
#     Edge 82, Type (0, 0), BuildingBlock: XIVTED_clean_linker_0, # of connection points: 2
#     Edge 83, Type (0, 0), BuildingBlock: XIVTED_clean_linker_0, # of connection points: 2
#     Edge 84, Type (0, 0), BuildingBlock: XIVTED_clean_linker_0, # of connection points: 2
#     Edge 85, Type (0, 0), BuildingBlock: XIVTED_clean_linker_0, # of connection points: 2
#     Edge 86, Type (0, 0), BuildingBlock: XIVTED_clean_linker_0, # of connection points: 2
#     Edge 87, Type (0, 0), BuildingBlock: XIVTED_clean_linker_0, # of connection points: 2
#     Edge 88, Type (0, 0), BuildingBlock: XIVTED_clean_linker_0, # of connection points: 2
#     Edge 89, Type (0, 0), BuildingBlock: XIVTED_clean_linker_0, # of connection points: 2
#     Edge 90, Type (0, 0), BuildingBlock: XIVTED_clean_linker_0, # of connection points: 2
#     Edge 91, Type (0, 0), BuildingBlock: XIVTED_clean_linker_0, # of connection points: 2
#     Edge 92, Type (0, 0), BuildingBlock: XIVTED_clean_linker_0, # of connection points: 2
#     Edge 93, Type (0, 0), BuildingBlock: XIVTED_clean_linker_0, # of connection points: 2
#     Edge 94, Type (0, 0), BuildingBlock: XIVTED_clean_linker_0, # of connection points: 2
#     Edge 95, Type (0, 0), BuildingBlock: XIVTED_clean_linker_0, # of connection points: 2
# Relax obj value: 0.063
# Max RMSD: 0.130
# Mean RMSD: 0.130
data_MOF--net-uke--node1-GALJAG_clean_sbu_0--edge1-XIVTED_clean_linker_0
_symmetry_space_group_name_H-M    P1
_symmetry_Int_Tables_number       1
_symmetry_cell_setting            triclinic
loop_
_symmetry_equiv_pos_as_xyz
'x, y, z'
_cell_length_a     21.576773
_cell_length_b     113.60635
_cell_length_c     53.006991
_cell_angle_alpha  90.038438
_cell_angle_beta   89.984255
_cell_angle_gamma 90.009852
loop_
_atom_site_label
_atom_site_type_symbol
_atom_site_fract_x
_atom_site_fract_y
_atom_site_fract_z
_atom_type_partial_charge
In0 In 0.09346 0.05482 0.25603 0.0
O1 O -0.00162 0.05094 0.27162 0.0
O2 O 0.0771 0.05043 0.29659 0.0
C3 C 0.10108 0.0592 0.20689 0.0
C4 C 0.10791 0.07686 0.27202 0.0
C5 C 0.13463 0.0329 0.25213 0.0
O6 O 0.04923 0.05736 0.21755 0.0
O7 O 0.14793 0.05898 0.22121 0.0
O8 O 0.17096 0.04118 0.25875 0.0
O9 O 0.07923 0.03582 0.24764 0.0
C10 C 0.0191 0.04922 0.29377 0.0
O11 O 0.15194 0.06944 0.27376 0.0
O12 O 0.05851 0.07305 0.26209 0.0
In13 In 0.14141 0.18576 0.26575 0.0
O14 O 0.23814 0.19055 0.27893 0.0
O15 O 0.16346 0.19056 0.30572 0.0
C16 C 0.13307 0.18104 0.21667 0.0
C17 C 0.1304 0.1635 0.28109 0.0
C18 C 0.08765 0.2068 0.26262 0.0
O19 O 0.18464 0.18354 0.22691 0.0
O20 O 0.08686 0.18086 0.23134 0.0
O21 O 0.06001 0.19817 0.27299 0.0
O22 O 0.14124 0.20464 0.25419 0.0
C23 C 0.2206 0.19216 0.30155 0.0
O24 O 0.08512 0.17063 0.28268 0.0
O25 O 0.17978 0.16774 0.27205 0.0
In26 In 0.08016 0.18294 0.9811 0.0
O27 O 0.13694 0.16806 0.96362 0.0
O28 O 0.04169 0.16499 0.97295 0.0
C29 C 0.14016 0.20325 0.98701 0.0
C30 C 0.00739 0.19055 0.9441 0.0
C31 C 0.08034 0.17789 0.03018 0.0
O32 O 0.16638 0.19442 0.97684 0.0
O33 O 0.08463 0.20168 0.99378 0.0
O34 O 0.03118 0.18116 0.01902 0.0
O35 O 0.12778 0.17697 0.01634 0.0
C36 C 0.09161 0.16092 0.96404 0.0
O37 O 0.98594 0.18837 0.96592 0.0
O38 O 0.06492 0.18887 0.94135 0.0
In39 In 0.14588 0.0523 0.97073 0.0
O40 O 0.23963 0.04862 0.95375 0.0
O41 O 0.15893 0.04808 0.92985 0.0
C42 C 0.14233 0.05704 0.01984 0.0
C43 C 0.12729 0.07438 0.95585 0.0
C44 C 0.10386 0.03047 0.9759 0.0
O45 O 0.19337 0.05499 0.00869 0.0
O46 O 0.09456 0.05673 0.00605 0.0
O47 O 0.06781 0.03878 0.9693 0.0
O48 O 0.15982 0.03328 0.9795 0.0
C49 C 0.21719 0.04697 0.93184 0.0
O50 O 0.08393 0.0668 0.9547 0.0
O51 O 0.17853 0.07066 0.96427 0.0
In52 In 0.91343 0.9378 0.74339 0.0
O53 O 0.85914 0.9222 0.72807 0.0
O54 O 0.95306 0.9196 0.74014 0.0
C55 C 0.85291 0.95819 0.74264 0.0
C56 C 0.98782 0.94316 0.70497 0.0
C57 C 0.90552 0.93569 0.79346 0.0
O58 O 0.82746 0.94878 0.73482 0.0
O59 O 0.90786 0.95712 0.75055 0.0
O60 O 0.95477 0.93938 0.78296 0.0
O61 O 0.86236 0.93276 0.77862 0.0
C62 C 0.90444 0.91516 0.73075 0.0
O63 O 0.00921 0.94184 0.72714 0.0
O64 O 0.92992 0.94183 0.70274 0.0
In65 In 0.84868 0.80611 0.72568 0.0
O66 O 0.75247 0.80206 0.71084 0.0
O67 O 0.82892 0.80223 0.68496 0.0
C68 C 0.84948 0.80974 0.77538 0.0
C69 C 0.86677 0.82858 0.71296 0.0
C70 C 0.9029 0.78506 0.72782 0.0
O71 O 0.79957 0.80745 0.76369 0.0
O72 O 0.89758 0.81027 0.76185 0.0
O73 O 0.93109 0.79391 0.71866 0.0
O74 O 0.84831 0.78699 0.73537 0.0
C75 C 0.77133 0.80083 0.68831 0.0
O76 O 0.91081 0.82117 0.71212 0.0
O77 O 0.81492 0.82451 0.71977 0.0
In78 In 0.89073 0.80498 0.01223 0.0
O79 O 0.98647 0.80002 0.02644 0.0
O80 O 0.90941 0.79932 0.05198 0.0
C81 C 0.88824 0.80935 0.96288 0.0
C82 C 0.88199 0.82722 0.02816 0.0
C83 C 0.83157 0.78449 0.00859 0.0
O84 O 0.93789 0.80637 0.974 0.0
O85 O 0.841 0.81028 0.97685 0.0
O86 O 0.80552 0.79341 0.01849 0.0
O87 O 0.88631 0.7861 0.00084 0.0
C88 C 0.96693 0.79789 0.04856 0.0
O89 O 0.83583 0.82029 0.02933 0.0
O90 O 0.93089 0.82283 0.01904 0.0
In91 In 0.85383 0.93706 0.02798 0.0
O92 O 0.76009 0.94439 0.04088 0.0
O93 O 0.82862 0.94021 0.06849 0.0
C94 C 0.82306 0.93844 0.97858 0.0
C95 C 0.86865 0.91427 0.03998 0.0
C96 C 0.94781 0.95257 0.03029 0.0
O97 O 0.83058 0.94745 0.99211 0.0
O98 O 0.82633 0.92886 0.99036 0.0
O99 O 0.95124 0.94343 0.01671 0.0
O100 O 0.90027 0.95311 0.04396 0.0
C101 C 0.77504 0.9441 0.064 0.0
O102 O 0.91482 0.92105 0.03731 0.0
O103 O 0.8166 0.91906 0.03681 0.0
In104 In 0.09234 0.55514 0.76708 0.0
O105 O 0.1509 0.56978 0.78468 0.0
O106 O 0.05593 0.57315 0.77535 0.0
C107 C 0.14786 0.53434 0.76204 0.0
C108 C 0.0149 0.54821 0.80313 0.0
C109 C 0.09615 0.56033 0.71805 0.0
O110 O 0.17546 0.54296 0.77246 0.0
O111 O 0.09328 0.53637 0.7546 0.0
O112 O 0.04575 0.55752 0.72885 0.0
O113 O 0.14328 0.56067 0.73218 0.0
C114 C 0.10618 0.57705 0.78428 0.0
O115 O -0.00394 0.55035 0.7809 0.0
O116 O 0.07242 0.54953 0.80677 0.0
In117 In 0.14854 0.6852 0.76347 0.0
O118 O 0.24363 0.69021 0.77835 0.0
O119 O 0.16523 0.69115 0.80318 0.0
C120 C 0.14716 0.67966 0.7146 0.0
C121 C 0.13563 0.66338 0.78124 0.0
C122 C 0.09144 0.70577 0.75715 0.0
O123 O 0.19674 0.68287 0.72553 0.0
O124 O 0.09975 0.67908 0.72855 0.0
O125 O 0.06398 0.69713 0.7675 0.0
O126 O 0.14678 0.70389 0.75045 0.0
C127 C 0.22299 0.69247 0.80027 0.0
O128 O 0.09054 0.67058 0.78132 0.0
O129 O 0.18579 0.6673 0.77226 0.0
In130 In 0.10403 0.68628 0.4786 0.0
O131 O 0.16149 0.67147 0.46103 0.0
O132 O 0.06644 0.66833 0.47058 0.0
C133 C 0.16107 0.707 0.48261 0.0
C134 C 0.0248 0.69314 0.44309 0.0
C135 C 0.10933 0.68107 0.52762 0.0
O136 O 0.18724 0.69831 0.4719 0.0
O137 O 0.10717 0.70508 0.49097 0.0
O138 O 0.05874 0.684 0.51713 0.0
O139 O 0.15601 0.6807 0.51324 0.0
C140 C 0.11633 0.66429 0.4616 0.0
O141 O 0.00707 0.69113 0.46553 0.0
O142 O 0.08209 0.69176 0.43901 0.0
In143 In 0.14796 0.55576 0.48195 0.0
O144 O 0.24405 0.55053 0.46834 0.0
O145 O 0.16791 0.55002 0.44238 0.0
C146 C 0.14471 0.56062 0.53118 0.0
C147 C 0.13766 0.57779 0.46492 0.0
C148 C 0.08726 0.53541 0.48554 0.0
O149 O 0.19455 0.5575 0.52035 0.0
O150 O 0.09785 0.56143 0.517 0.0
O151 O 0.06242 0.54436 0.47531 0.0
O152 O 0.14168 0.53691 0.49372 0.0
C153 C 0.22518 0.54845 0.44609 0.0
O154 O 0.09197 0.57074 0.46437 0.0
O155 O 0.18712 0.57363 0.47401 0.0
In156 In 0.8982 0.43693 0.22153 0.0
O157 O 0.84076 0.42213 0.20385 0.0
O158 O 0.93524 0.41887 0.2141 0.0
C159 C 0.84168 0.45767 0.22575 0.0
C160 C 0.97755 0.44357 0.18593 0.0
C161 C 0.89184 0.43186 0.27057 0.0
O162 O 0.81498 0.44898 0.21526 0.0
O163 O 0.89602 0.45576 0.23361 0.0
O164 O 0.94271 0.43476 0.26025 0.0
O165 O 0.84557 0.43141 0.256 0.0
C166 C 0.8855 0.41488 0.2049 0.0
O167 O -0.00473 0.44155 0.20835 0.0
O168 O 0.92013 0.44234 0.1819 0.0
In169 In 0.84138 0.30716 0.23336 0.0
O170 O 0.90037 0.32144 0.21466 0.0
O171 O 0.80509 0.32497 0.22308 0.0
C172 C 0.89824 0.28656 0.24013 0.0
C173 C 0.76434 0.2994 0.19788 0.0
C174 C 0.84245 0.31329 0.28193 0.0
O175 O 0.92516 0.29503 0.22892 0.0
O176 O 0.84373 0.28864 0.24759 0.0
O177 O 0.79284 0.31016 0.27096 0.0
O178 O 0.89029 0.31349 0.26818 0.0
C179 C 0.85556 0.32869 0.21401 0.0
O180 O 0.74525 0.30198 0.21985 0.0
O181 O 0.82184 0.3007 0.19421 0.0
In182 In 0.88219 0.30633 0.51727 0.0
O183 O 0.97825 0.30147 0.53117 0.0
O184 O 0.90157 0.30044 0.55684 0.0
C185 C 0.88112 0.31223 0.46859 0.0
C186 C 0.86598 0.32807 0.53511 0.0
C187 C 0.82735 0.28552 0.51106 0.0
O188 O 0.93092 0.30929 0.47966 0.0
O189 O 0.83313 0.31228 0.48225 0.0
O190 O 0.79978 0.29392 0.52223 0.0
O191 O 0.88147 0.28777 0.50335 0.0
C192 C 0.95914 0.29916 0.55327 0.0
O193 O 0.82142 0.32076 0.5344 0.0
O194 O 0.91735 0.32425 0.52714 0.0
In195 In 0.827 0.43593 0.50593 0.0
O196 O 0.72985 0.44093 0.51879 0.0
O197 O 0.80526 0.44211 0.545 0.0
C198 C 0.83275 0.43078 0.45688 0.0
C199 C 0.8375 0.41413 0.52425 0.0
C200 C 0.88734 0.45631 0.50217 0.0
O201 O 0.78239 0.43397 0.4672 0.0
O202 O 0.87883 0.43001 0.47149 0.0
O203 O 0.91209 0.44742 0.51265 0.0
O204 O 0.83311 0.45475 0.49383 0.0
C205 C 0.7479 0.44336 0.54099 0.0
O206 O 0.88266 0.42129 0.52495 0.0
O207 O 0.78856 0.41803 0.51422 0.0
In208 In 0.58547 0.05712 0.7551 0.0
O209 O 0.48693 0.0519 0.76558 0.0
O210 O 0.55982 0.04946 0.7925 0.0
C211 C 0.59051 0.06353 0.70671 0.0
C212 C 0.59729 0.07828 0.77667 0.0
C213 C 0.64919 0.03714 0.7504 0.0
O214 O 0.54063 0.05989 0.71666 0.0
O215 O 0.63654 0.06408 0.72135 0.0
O216 O 0.67112 0.0459 0.76229 0.0
O217 O 0.59608 0.03864 0.74092 0.0
C218 C 0.50284 0.04851 0.78744 0.0
O219 O 0.64244 0.07115 0.77554 0.0
O220 O 0.54741 0.07464 0.76698 0.0
In221 In 0.65487 0.18502 0.76114 0.0
O222 O 0.75107 0.19014 0.77484 0.0
O223 O 0.67376 0.19192 0.79995 0.0
C224 C 0.65491 0.17863 0.71265 0.0
C225 C 0.64007 0.16364 0.78111 0.0
C226 C 0.59389 0.20517 0.75459 0.0
O227 O 0.70379 0.18231 0.72338 0.0
O228 O 0.60753 0.17805 0.72658 0.0
O229 O 0.56915 0.19652 0.7659 0.0
O230 O 0.64856 0.20351 0.74683 0.0
C231 C 0.73147 0.19299 0.79659 0.0
O232 O 0.59522 0.17083 0.77965 0.0
O233 O 0.69114 0.16734 0.77259 0.0
In234 In 0.59672 0.18413 0.4781 0.0
O235 O 0.65553 0.17009 0.45837 0.0
O236 O 0.56091 0.16633 0.46755 0.0
C237 C 0.65104 0.20502 0.48371 0.0
C238 C 0.51464 0.19153 0.44426 0.0
C239 C 0.60396 0.17792 0.52655 0.0
O240 O 0.67804 0.19669 0.47207 0.0
O241 O 0.59779 0.20265 0.4922 0.0
O242 O 0.55277 0.18076 0.51647 0.0
O243 O 0.65033 0.17804 0.51199 0.0
C244 C 0.61098 0.16279 0.45784 0.0
O245 O 0.49843 0.18878 0.46651 0.0
O246 O 0.57189 0.19062 0.43953 0.0
In247 In 0.655 0.05556 0.47301 0.0
O248 O 0.75269 0.05024 0.46183 0.0
O249 O 0.67934 0.04869 0.43474 0.0
C250 C 0.64931 0.06193 0.52137 0.0
C251 C 0.64513 0.07708 0.45308 0.0
C252 C 0.59266 0.03544 0.47816 0.0
O253 O 0.69944 0.05833 0.51153 0.0
O254 O 0.60334 0.06239 0.50666 0.0
O255 O 0.56941 0.04416 0.46656 0.0
O256 O 0.64652 0.03701 0.48686 0.0
C257 C 0.73633 0.04748 0.4396 0.0
O258 O 0.59944 0.07004 0.4533 0.0
O259 O 0.69448 0.07315 0.46268 0.0
In260 In 0.36997 0.93605 0.22301 0.0
O261 O 0.4711 0.94216 0.21926 0.0
O262 O 0.40799 0.94544 0.18921 0.0
C263 C 0.38069 0.9352 0.2735 0.0
C264 C 0.3666 0.91407 0.20382 0.0
C265 C 0.27537 0.95139 0.2179 0.0
O266 O 0.39618 0.9442 0.26097 0.0
O267 O 0.36277 0.92655 0.26046 0.0
O268 O 0.28059 0.94479 0.23687 0.0
O269 O 0.3138 0.94932 0.2006 0.0
C270 C 0.46254 0.94632 0.19739 0.0
O271 O 0.31799 0.92018 0.20624 0.0
O272 O 0.41558 0.91908 0.21089 0.0
In273 In 0.34507 0.80643 0.22329 0.0
O274 O 0.40219 0.82086 0.20383 0.0
O275 O 0.30668 0.82397 0.21245 0.0
C276 C 0.40277 0.78585 0.2289 0.0
C277 C 0.26125 0.79864 0.19051 0.0
C278 C 0.35088 0.81273 0.27175 0.0
O279 O 0.42804 0.79424 0.21685 0.0
O280 O 0.34953 0.78799 0.23765 0.0
O281 O 0.30037 0.80957 0.26158 0.0
O282 O 0.3974 0.81288 0.25728 0.0
C283 C 0.35639 0.82788 0.20313 0.0
O284 O 0.24664 0.80145 0.2129 0.0
O285 O 0.31806 0.79967 0.18502 0.0
In286 In 0.40269 0.80809 0.50716 0.0
O287 O 0.50094 0.80406 0.52001 0.0
O288 O 0.42647 0.80259 0.54658 0.0
C289 C 0.40003 0.81336 0.45809 0.0
C290 C 0.38273 0.82987 0.52445 0.0
C291 C 0.34714 0.78717 0.50325 0.0
O292 O 0.45013 0.81054 0.46904 0.0
O293 O 0.3526 0.8136 0.47204 0.0
O294 O 0.32068 0.79579 0.51404 0.0
O295 O 0.40069 0.78924 0.49472 0.0
C296 C 0.48398 0.80175 0.5424 0.0
O297 O 0.33968 0.82225 0.52408 0.0
O298 O 0.43458 0.82636 0.51636 0.0
In299 In 0.31304 0.93846 0.50912 0.0
O300 O 0.21867 0.94251 0.52644 0.0
O301 O 0.29963 0.94333 0.54975 0.0
C302 C 0.30852 0.93472 0.45936 0.0
C303 C 0.32687 0.91612 0.52345 0.0
C304 C 0.37686 0.95849 0.50528 0.0
O305 O 0.26389 0.9396 0.47093 0.0
O306 O 0.35343 0.93154 0.473 0.0
O307 O 0.40194 0.9492 0.51381 0.0
O308 O 0.3205 0.95754 0.49925 0.0
C309 C 0.24142 0.9443 0.54821 0.0
O310 O 0.37177 0.92335 0.5241 0.0
O311 O 0.27602 0.92025 0.51556 0.0
In312 In 0.58669 0.55646 0.26502 0.0
O313 O 0.49099 0.55133 0.27907 0.0
O314 O 0.56827 0.55017 0.30437 0.0
C315 C 0.58766 0.5622 0.21624 0.0
C316 C 0.60012 0.57818 0.28349 0.0
C317 C 0.64538 0.53604 0.25845 0.0
O318 O 0.53825 0.55892 0.22717 0.0
O319 O 0.63512 0.56276 0.23014 0.0
O320 O 0.67184 0.54468 0.26922 0.0
O321 O 0.59021 0.53784 0.25147 0.0
C322 C 0.51066 0.54887 0.30101 0.0
O323 O 0.64499 0.57094 0.28331 0.0
O324 O 0.54983 0.57435 0.27447 0.0
In325 In 0.64713 0.68599 0.26649 0.0
O326 O 0.74474 0.69061 0.27913 0.0
O327 O 0.66991 0.69207 0.3056 0.0
C328 C 0.63924 0.68005 0.21792 0.0
C329 C 0.63309 0.66432 0.28504 0.0
C330 C 0.59195 0.70679 0.26079 0.0
O331 O 0.69051 0.68305 0.22778 0.0
O332 O 0.59336 0.67992 0.23273 0.0
O333 O 0.56509 0.69837 0.27221 0.0
O334 O 0.64582 0.70458 0.25273 0.0
C335 C 0.72737 0.69309 0.3014 0.0
O336 O 0.58883 0.6717 0.28549 0.0
O337 O 0.68302 0.66801 0.27541 0.0
In338 In 0.58013 0.68442 0.98287 0.0
O339 O 0.48397 0.68954 0.96917 0.0
O340 O 0.56086 0.69054 0.94358 0.0
C341 C 0.58603 0.67889 0.03168 0.0
C342 C 0.59072 0.66261 0.96474 0.0
C343 C 0.63847 0.70495 0.98783 0.0
O344 O 0.53551 0.68214 0.02155 0.0
O345 O 0.63208 0.67829 0.017 0.0
O346 O 0.66432 0.69624 0.97702 0.0
O347 O 0.58416 0.70313 -0.00413 0.0
C348 C 0.50334 0.6919 0.94711 0.0
O349 O 0.63628 0.66969 0.96445 0.0
O350 O 0.54118 0.66663 0.97409 0.0
In351 In 0.64149 0.55478 0.98096 0.0
O352 O 0.73903 0.55015 0.96823 0.0
O353 O 0.66413 0.5488 0.94179 0.0
C354 C 0.6361 0.56046 0.02975 0.0
C355 C 0.62692 0.57648 0.96261 0.0
C356 C 0.58613 0.53393 0.98545 0.0
O357 O 0.68684 0.5576 0.0193 0.0
O358 O 0.58929 0.56055 0.01544 0.0
O359 O 0.55961 0.54245 0.9743 0.0
O360 O 0.63944 0.5361 0.99413 0.0
C361 C 0.72154 0.54771 0.94596 0.0
O362 O 0.5822 0.56921 0.96296 0.0
O363 O 0.67752 0.57269 0.97138 0.0
In364 In 0.39083 0.43444 0.72372 0.0
O365 O 0.4855 0.43954 0.70862 0.0
O366 O 0.40686 0.4403 0.68391 0.0
C367 C 0.39168 0.4287 0.77248 0.0
C368 C 0.37577 0.41263 0.70619 0.0
C369 C 0.33442 0.45505 0.73041 0.0
O370 O 0.44092 0.4318 0.76118 0.0
O371 O 0.34343 0.42839 0.75899 0.0
O372 O 0.30676 0.44649 0.71983 0.0
O373 O 0.38954 0.45307 0.73721 0.0
C374 C 0.46456 0.44175 0.68674 0.0
O375 O 0.33089 0.41986 0.7068 0.0
O376 O 0.42694 0.41654 0.71418 0.0
In377 In 0.33489 0.30444 0.73018 0.0
O378 O 0.39098 0.31912 0.71153 0.0
O379 O 0.29742 0.32249 0.72291 0.0
C380 C 0.39356 0.28387 0.73272 0.0
C381 C 0.25364 0.29751 0.69549 0.0
C382 C 0.34305 0.30905 0.77944 0.0
O383 O 0.41881 0.29277 0.72247 0.0
O384 O 0.33969 0.28552 0.74137 0.0
O385 O 0.29199 0.30615 0.7693 0.0
O386 O 0.38861 0.30983 0.76456 0.0
C387 C 0.34633 0.32638 0.71282 0.0
O388 O 0.2369 0.29976 0.71796 0.0
O389 O 0.31082 0.29872 0.69101 0.0
In390 In 0.40485 0.30194 0.01516 0.0
O391 O 0.50139 0.29716 0.02879 0.0
O392 O 0.42561 0.29687 0.05503 0.0
C393 C 0.39725 0.30675 0.96606 0.0
C394 C 0.39457 0.32412 0.03117 0.0
C395 C 0.3477 0.28122 0.01188 0.0
O396 O 0.44829 0.30378 0.97615 0.0
O397 O 0.35148 0.30737 0.98088 0.0
O398 O 0.3213 0.29005 0.022 0.0
O399 O 0.40202 0.283 0.00381 0.0
C400 C 0.483 0.29543 0.05126 0.0
O401 O 0.34908 0.31703 0.03247 0.0
O402 O 0.44381 0.3199 0.02195 0.0
In403 In 0.35048 0.43237 0.00846 0.0
O404 O 0.40864 0.41768 0.02613 0.0
O405 O 0.31298 0.41453 0.01776 0.0
C406 C 0.40758 0.45305 0.00381 0.0
C407 C 0.27218 0.43982 0.04379 0.0
C408 C 0.35322 0.42706 0.95945 0.0
O409 O 0.43387 0.44444 0.01472 0.0
O410 O 0.35376 0.45105 0.99549 0.0
O411 O 0.30318 0.42991 0.97045 0.0
O412 O 0.40071 0.42671 0.97337 0.0
C413 C 0.36328 0.41055 0.02644 0.0
O414 O 0.25394 0.43748 0.02158 0.0
O415 O 0.32945 0.43839 0.0478 0.0
H416 H 0.03747 0.06149 0.04657 0.0
H417 H 0.20807 0.06188 0.18022 0.0
H418 H 0.23523 0.0574 0.05524 0.0
H419 H 0.00947 0.06005 0.17118 0.0
H420 H 0.21947 0.06292 0.13447 0.0
H421 H 0.02743 0.06366 0.09208 0.0
C422 C 0.07892 0.06112 0.05807 0.0
C423 C 0.13729 0.05917 0.04717 0.0
C424 C 0.1734 0.06236 0.14249 0.0
C425 C 0.12598 0.06162 0.09934 0.0
C426 C 0.16678 0.06179 0.1686 0.0
C427 C 0.10768 0.0608 0.17945 0.0
C428 C 0.12052 0.06196 0.12714 0.0
C429 C 0.05586 0.06075 0.16355 0.0
C430 C 0.07308 0.06234 0.08407 0.0
C431 C 0.18937 0.05883 0.06294 0.0
N432 N 0.06351 0.06127 0.13814 0.0
N433 N 0.18245 0.05999 0.08832 0.0
H434 H 0.98772 0.17985 0.06544 0.0
H435 H 0.2242 0.17912 0.18094 0.0
H436 H 0.18296 0.17242 0.05747 0.0
H437 H 0.02557 0.17825 0.19048 0.0
H438 H 0.20994 0.17668 0.13543 0.0
H439 H -0.00019 0.17916 0.11139 0.0
C440 C 0.0329 0.17795 0.07336 0.0
C441 C 0.08446 0.17626 0.05769 0.0
C442 C 0.16949 0.17694 0.14752 0.0
C443 C 0.09883 0.1756 0.10999 0.0
C444 C 0.17767 0.17836 0.17345 0.0
C445 C 0.12602 0.17894 0.18941 0.0
C446 C 0.10923 0.17623 0.13753 0.0
C447 C 0.06668 0.17787 0.17879 0.0
C448 C 0.03983 0.17756 0.09954 0.0
C449 C 0.142 0.17383 0.06887 0.0
N450 N 0.05987 0.17666 0.15348 0.0
N451 N 0.14775 0.17368 0.09434 0.0
H452 H 0.78479 0.9214 0.94586 0.0
H453 H 0.96716 0.94852 0.82937 0.0
H454 H 0.86624 0.95606 0.94837 0.0
H455 H 0.82014 0.92316 0.81989 0.0
H456 H 0.94118 0.94987 0.87442 0.0
H457 H 0.80456 0.92068 0.90038 0.0
C458 C 0.80577 0.92894 0.93672 0.0
C459 C 0.82359 0.93883 0.95079 0.0
C460 C 0.91481 0.944 0.86243 0.0
C461 C 0.84826 0.9379 0.89911 0.0
C462 C 0.93006 0.94313 0.83685 0.0
C463 C 0.89581 0.93569 0.82099 0.0
C464 C 0.86575 0.93724 0.87215 0.0
C465 C 0.84765 0.929 0.83152 0.0
C466 C 0.81734 0.9285 0.91084 0.0
C467 C 0.85121 0.94833 0.93812 0.0
N468 N 0.8342 0.92989 0.85647 0.0
N469 N 0.86356 0.94756 0.91302 0.0
H470 H 0.98245 0.80904 0.92829 0.0
H471 H 0.75432 0.80957 0.80974 0.0
H472 H 0.78424 0.81315 0.93496 0.0
H473 H 0.95303 0.813 0.80369 0.0
H474 H 0.7637 0.81075 0.85576 0.0
H475 H 0.97255 0.81036 0.8824 0.0
C476 C 0.93696 0.8103 0.92009 0.0
C477 C 0.88411 0.81095 0.93537 0.0
C478 C 0.80516 0.81133 0.84431 0.0
C479 C 0.87225 0.81236 0.88304 0.0
C480 C 0.79978 0.81064 0.8181 0.0
C481 C 0.85296 0.81113 0.80296 0.0
C482 C 0.86416 0.8124 0.85534 0.0
C483 C 0.9108 0.81254 0.81468 0.0
C484 C 0.93128 0.81107 0.89393 0.0
C485 C 0.82621 0.8126 0.92383 0.0
N486 N 0.9149 0.81305 0.84018 0.0
N487 N 0.82175 0.81316 0.89832 0.0
H488 H 0.00321 0.56077 0.6828 0.0
H489 H 0.23753 0.56027 0.56647 0.0
H490 H 0.20141 0.56423 0.69105 0.0
H491 H 0.04009 0.56503 0.55825 0.0
H492 H 0.22555 0.5618 0.6123 0.0
H493 H 0.01541 0.56244 0.63699 0.0
C494 C 0.04916 0.56198 0.67497 0.0
C495 C 0.10137 0.5623 0.69067 0.0
C496 C 0.18494 0.56261 0.60043 0.0
C497 C 0.11581 0.56409 0.63847 0.0
C498 C 0.19181 0.56173 0.57431 0.0
C499 C 0.13973 0.56246 0.55862 0.0
C500 C 0.12551 0.56411 0.61084 0.0
C501 C 0.08149 0.56437 0.5697 0.0
C502 C 0.05615 0.56293 0.64887 0.0
C503 C 0.15989 0.56389 0.67961 0.0
N504 N 0.07587 0.56503 0.59515 0.0
N505 N 0.1656 0.56462 0.65417 0.0
H506 H 0.04374 0.67435 0.68754 0.0
H507 H 0.21511 0.67693 0.55415 0.0
H508 H 0.24021 0.68043 0.67934 0.0
H509 H 0.01704 0.68027 0.56314 0.0
H510 H 0.2256 0.67475 0.59976 0.0
H511 H 0.03433 0.67295 0.64179 0.0
C512 C 0.08507 0.67528 0.67611 0.0
C513 C 0.14283 0.67761 0.68721 0.0
C514 C 0.17984 0.67589 0.59174 0.0
C515 C 0.13221 0.67605 0.63485 0.0
C516 C 0.17372 0.67712 0.56572 0.0
C517 C 0.11508 0.67888 0.55491 0.0
C518 C 0.1269 0.67637 0.60705 0.0
C519 C 0.0631 0.679 0.57075 0.0
C520 C 0.07956 0.67452 0.65 0.0
C521 C 0.19479 0.67869 0.67151 0.0
N522 N 0.07025 0.67781 0.59609 0.0
N523 N 0.1882 0.67796 0.64605 0.0
H524 H 0.74194 0.43112 0.42074 0.0
H525 H 0.98278 0.43147 0.30671 0.0
H526 H 0.93889 0.42639 0.43078 0.0
H527 H 0.78527 0.42774 0.2965 0.0
H528 H 0.96805 0.42954 0.35235 0.0
H529 H 0.75659 0.42978 0.37502 0.0
C530 C 0.78811 0.4297 0.41332 0.0
C531 C 0.83928 0.42893 0.4295 0.0
C532 C 0.92803 0.42904 0.34007 0.0
C533 C 0.85656 0.42751 0.37739 0.0
C534 C 0.93645 0.43016 0.31407 0.0
C535 C 0.88517 0.42983 0.29788 0.0
C536 C 0.86785 0.42771 0.34987 0.0
C537 C 0.8261 0.42808 0.30834 0.0
C538 C 0.79651 0.42892 0.38726 0.0
C539 C 0.89816 0.42707 0.41894 0.0
N540 N 0.81899 0.4272 0.33369 0.0
N541 N 0.90528 0.42653 0.39354 0.0
H542 H 0.74767 0.31387 0.31631 0.0
H543 H 0.97606 0.31311 0.43424 0.0
H544 H 0.94598 0.31781 0.30963 0.0
H545 H 0.77768 0.31687 0.44102 0.0
H546 H 0.96647 0.31547 0.38849 0.0
H547 H 0.7574 0.31565 0.36216 0.0
C548 C 0.79312 0.31523 0.32449 0.0
C549 C 0.84611 0.3156 0.30924 0.0
C550 C 0.92512 0.3159 0.40004 0.0
C551 C 0.85777 0.31751 0.36151 0.0
C552 C 0.93063 0.31454 0.42611 0.0
C553 C 0.87757 0.3147 0.44135 0.0
C554 C 0.86609 0.3173 0.38921 0.0
C555 C 0.81978 0.31662 0.42992 0.0
C556 C 0.79871 0.31625 0.35063 0.0
C557 C 0.90392 0.31741 0.32074 0.0
N558 N 0.81551 0.31772 0.40451 0.0
N559 N 0.9083 0.31817 0.34622 0.0
H560 H 0.49954 0.06367 0.67069 0.0
H561 H 0.74018 0.06261 0.55744 0.0
H562 H 0.69618 0.06874 0.68105 0.0
H563 H 0.54341 0.0673 0.54669 0.0
H564 H 0.72548 0.06529 0.60288 0.0
H565 H 0.5142 0.06549 0.62507 0.0
C566 C 0.54563 0.0653 0.66337 0.0
C567 C 0.59678 0.06595 0.67957 0.0
C568 C 0.68565 0.06587 0.59052 0.0
C569 C 0.61406 0.0679 0.62761 0.0
C570 C 0.69405 0.06432 0.56463 0.0
C571 C 0.64289 0.06463 0.54839 0.0
C572 C 0.62559 0.06759 0.60014 0.0
C573 C 0.5841 0.06692 0.55861 0.0
C574 C 0.55402 0.06634 0.63737 0.0
C575 C 0.65551 0.06811 0.66917 0.0
N576 N 0.57694 0.06818 0.58388 0.0
N577 N 0.66268 0.06886 0.64381 0.0
H578 H 0.74791 0.1794 0.67735 0.0
H579 H 0.51249 0.17597 0.56212 0.0
H580 H 0.55269 0.17214 0.68609 0.0
H581 H 0.7111 0.17467 0.55278 0.0
H582 H 0.52642 0.17402 0.60773 0.0
H583 H 0.73638 0.17712 0.63161 0.0
C584 C 0.70285 0.1772 0.66966 0.0
C585 C 0.6511 0.17606 0.68545 0.0
C586 C 0.56693 0.17403 0.59567 0.0
C587 C 0.63738 0.17357 0.63335 0.0
C588 C 0.55894 0.17516 0.56966 0.0
C589 C 0.6107 0.17557 0.55373 0.0
C590 C 0.62712 0.17346 0.60576 0.0
C591 C 0.66991 0.17444 0.56444 0.0
C592 C 0.69625 0.1759 0.6436 0.0
C593 C 0.59376 0.17318 0.67457 0.0
N594 N 0.67656 0.17357 0.58982 0.0
N595 N 0.5883 0.17216 0.64918 0.0
H596 H 0.36847 0.91798 0.43222 0.0
H597 H 0.36719 0.95412 0.30479 0.0
H598 H 0.2595 0.94956 0.42403 0.0
H599 H 0.37941 0.91622 0.30488 0.0
H600 H 0.34466 0.95365 0.3502 0.0
H601 H 0.38726 0.91795 0.38664 0.0
C602 C 0.34786 0.92482 0.42071 0.0
C603 C 0.31207 0.93375 0.43173 0.0
C604 C 0.35258 0.94546 0.34022 0.0
C605 C 0.33508 0.93398 0.37997 0.0
C606 C 0.36617 0.94573 0.31447 0.0
C607 C 0.37539 0.93519 0.3012 0.0
C608 C 0.34952 0.9346 0.35277 0.0
C609 C 0.37266 0.92453 0.3145 0.0
C610 C 0.35872 0.92481 0.3948 0.0
C611 C 0.28673 0.94246 0.41612 0.0
N612 N 0.3603 0.92451 0.33962 0.0
N613 N 0.29948 0.94246 0.39098 0.0
H614 H 0.49338 0.8134 0.42294 0.0
H615 H 0.25858 0.81398 0.30706 0.0
H616 H 0.29586 0.81809 0.43111 0.0
H617 H 0.45687 0.81687 0.29822 0.0
H618 H 0.27133 0.81609 0.35268 0.0
H619 H 0.48173 0.81524 0.37714 0.0
C620 C 0.44773 0.81492 0.4151 0.0
C621 C 0.39548 0.81549 0.43076 0.0
C622 C 0.31201 0.81638 0.34074 0.0
C623 C 0.38166 0.81751 0.37859 0.0
C624 C 0.3047 0.81517 0.31472 0.0
C625 C 0.35676 0.81516 0.29893 0.0
C626 C 0.37185 0.81745 0.35098 0.0
C627 C 0.4155 0.81677 0.30977 0.0
C628 C 0.44105 0.81598 0.389 0.0
C629 C 0.33736 0.81751 0.41969 0.0
N630 N 0.42154 0.81773 0.33517 0.0
N631 N 0.33194 0.81834 0.39428 0.0
H632 H 0.72859 0.5619 0.06503 0.0
H633 H 0.49431 0.56156 0.18115 0.0
H634 H 0.53009 0.5643 0.05635 0.0
H635 H 0.69104 0.5674 0.18907 0.0
H636 H 0.5058 0.56298 0.13527 0.0
H637 H 0.71589 0.56427 0.11065 0.0
C638 C 0.68244 0.56302 0.07272 0.0
C639 C 0.63032 0.56282 0.05698 0.0
C640 C 0.54631 0.56407 0.14709 0.0
C641 C 0.6153 0.56544 0.10898 0.0
C642 C 0.53973 0.56326 0.17324 0.0
C643 C 0.59183 0.56427 0.18886 0.0
C644 C 0.60551 0.56578 0.1366 0.0
C645 C 0.64965 0.5665 0.17769 0.0
C646 C 0.67516 0.56439 0.09872 0.0
C647 C 0.57154 0.56435 0.06785 0.0
N648 N 0.65504 0.56705 0.15223 0.0
N649 N 0.56556 0.56548 0.09322 0.0
H650 H 0.53186 0.67547 0.19285 0.0
H651 H 0.69197 0.67364 0.05712 0.0
H652 H 0.72889 0.67927 0.18125 0.0
H653 H 0.49614 0.67943 0.06829 0.0
H654 H 0.70539 0.67203 0.10268 0.0
H655 H 0.51782 0.67328 0.14742 0.0
C656 C 0.5723 0.67574 0.18074 0.0
C657 C 0.63165 0.67766 0.19077 0.0
C658 C 0.65944 0.67358 0.09516 0.0
C659 C 0.61575 0.67515 0.1388 0.0
C660 C 0.65163 0.67446 0.06916 0.0
C661 C 0.59286 0.67677 0.05896 0.0
C662 C 0.60807 0.67495 0.11109 0.0
C663 C 0.54227 0.67771 0.07542 0.0
C664 C 0.56415 0.67452 0.15482 0.0
C665 C 0.68233 0.67788 0.17425 0.0
N666 N 0.55109 0.67685 0.10074 0.0
N667 N 0.67319 0.6767 0.149 0.0
H668 H 0.48694 0.42865 0.80678 0.0
H669 H 0.2589 0.42634 0.92493 0.0
H670 H 0.28935 0.42351 0.80027 0.0
H671 H 0.45772 0.42355 0.93163 0.0
H672 H 0.26909 0.42492 0.87905 0.0
H673 H 0.47791 0.42641 0.85261 0.0
C674 C 0.44183 0.42695 0.81498 0.0
C675 C 0.3888 0.42635 0.79979 0.0
C676 C 0.31045 0.42451 0.89059 0.0
C677 C 0.37796 0.42389 0.852 0.0
C678 C 0.30459 0.42532 0.91674 0.0
C679 C 0.35753 0.42513 0.93202 0.0
C680 C 0.36971 0.42363 0.8797 0.0
C681 C 0.41568 0.42377 0.9205 0.0
C682 C 0.43665 0.42566 0.8411 0.0
C683 C 0.33143 0.4241 0.81132 0.0
N684 N 0.42029 0.42319 0.895 0.0
N685 N 0.32745 0.42306 0.83675 0.0
H686 H 0.45046 0.31298 0.80503 0.0
H687 H 0.29032 0.31136 0.94078 0.0
H688 H 0.25367 0.30852 0.81618 0.0
H689 H 0.48688 0.30671 0.9293 0.0
H690 H 0.27659 0.31345 0.89535 0.0
H691 H 0.46457 0.31385 0.85068 0.0
C692 C 0.41009 0.31229 0.8171 0.0
C693 C 0.35077 0.3106 0.80685 0.0
C694 C 0.32275 0.31202 0.90276 0.0
C695 C 0.36674 0.31157 0.85906 0.0
C696 C 0.33072 0.31086 0.92869 0.0
C697 C 0.38985 0.30878 0.93878 0.0
C698 C 0.37431 0.31117 0.88677 0.0
C699 C 0.44049 0.30824 0.92226 0.0
C700 C 0.41828 0.31274 0.84314 0.0
C701 C 0.30019 0.30978 0.82334 0.0
N702 N 0.43153 0.3094 0.89699 0.0
N703 N 0.30936 0.31023 0.84868 0.0
H704 H 0.29022 0.97046 0.18755 0.0
H705 H 0.06696 0.01339 0.26187 0.0
H706 H 0.1857 0.958 0.25167 0.0
H707 H 0.24507 0.02466 0.23396 0.0
H708 H 0.09418 0.99296 0.25172 0.0
H709 H 0.2546 0.99047 0.19639 0.0
C710 C 0.25834 0.97187 0.20306 0.0
C711 C 0.24101 0.96257 0.219 0.0
C712 C 0.12732 -9e-05 0.24799 0.0
C713 C 0.20086 0.98539 0.22921 0.0
C714 C 0.11204 0.01151 0.25379 0.0
C715 C 0.15419 0.02062 0.24885 0.0
C716 C 0.18431 -0.00249 0.23647 0.0
C717 C 0.21178 0.01782 0.23829 0.0
C718 C 0.23888 0.9833 0.20826 0.0
C719 C 0.20011 0.96494 0.23895 0.0
N720 N 0.22496 0.00647 0.23211 0.0
N721 N 0.18145 0.97616 0.24357 0.0
H722 H 0.84797 0.26775 0.26434 0.0
H723 H 0.1403 0.22603 0.24096 0.0
H724 H 0.01349 0.27893 0.22537 0.0
H725 H 0.97326 0.21453 0.2784 0.0
H726 H 0.09553 0.24556 0.23606 0.0
H727 H 0.89407 0.24841 0.27062 0.0
C728 C 0.89416 0.26614 0.25711 0.0
C729 C 0.927 0.27495 0.24424 0.0
C730 C 0.06859 0.23879 0.24538 0.0
C731 C 0.98001 0.25278 0.25139 0.0
C732 C 0.0941 0.22762 0.2482 0.0
C733 C 0.06031 0.21863 0.26008 0.0
C734 C 0.00875 0.24103 0.2545 0.0
C735 C 0.00079 0.22121 0.2691 0.0
C736 C 0.92041 0.25507 0.26072 0.0
C737 C 0.98662 0.27238 0.23536 0.0
N738 N 0.97682 0.23219 0.26609 0.0
N739 N 0.01123 0.2615 0.23907 0.0
H740 H 0.09147 0.22281 0.00893 0.0
H741 H 0.39773 0.26145 0.99135 0.0
H742 H 0.25897 0.20966 0.97442 0.0
H743 H 0.23017 0.27459 0.02582 0.0
H744 H 0.34825 0.24237 0.98563 0.0
H745 H 0.14196 0.24172 0.01574 0.0
C746 C 0.13899 0.22391 0.00276 0.0
C747 C 0.17114 0.21466 0.99104 0.0
C748 C 0.32224 0.2494 0.99448 0.0
C749 C 0.22925 0.23633 -0.00117 0.0
C750 C 0.35045 0.26031 -0.00222 0.0
C751 C 0.31788 0.26963 0.00906 0.0
C752 C 0.26091 0.24777 0.00249 0.0
C753 C 0.25686 0.26764 0.01703 0.0
C754 C 0.16778 0.23472 0.00669 0.0
C755 C 0.23255 0.21657 0.9835 0.0
N756 N 0.23025 0.25692 0.01355 0.0
N757 N 0.25966 0.22722 0.98751 0.0
H758 H 0.16925 0.01021 0.97037 0.0
H759 H 0.93997 0.97338 0.05517 0.0
H760 H 0.9919 0.02357 0.99464 0.0
H761 H 0.03938 0.9561 0.9949 0.0
H762 H 0.98007 0.99227 0.04074 0.0
H763 H 0.13908 0.99051 0.98504 0.0
C764 C 0.12368 0.00894 0.97853 0.0
C765 C 0.08267 0.01844 0.98125 0.0
C766 C -0.00632 0.98431 0.03091 0.0
C767 C 0.04933 -0.00378 -0.00126 0.0
C768 C 0.97151 0.97351 0.03927 0.0
C769 C 0.98583 0.96316 0.02601 0.0
C770 C 0.03131 0.98476 0.00942 0.0
C771 C 0.02713 0.96388 0.0056 0.0
C772 C 0.10676 -0.00225 0.9869 0.0
C773 C 0.02443 0.01642 0.992 0.0
N774 N 0.04828 0.97456 -0.00224 0.0
N775 N 0.00976 0.00553 0.00073 0.0
H776 H 0.76356 0.03119 0.76876 0.0
H777 H 0.73679 0.96381 0.72517 0.0
H778 H 0.60766 0.01722 0.7274 0.0
H779 H 0.89879 0.9788 0.76058 0.0
H780 H 0.68756 0.98326 0.72617 0.0
H781 H 0.81365 0.01191 0.76621 0.0
C782 C 0.74006 0.02407 0.75907 0.0
C783 C 0.68148 0.02577 0.74831 0.0
C784 C 0.73394 0.98227 0.73367 0.0
C785 C 0.73804 0.00373 0.7454 0.0
C786 C 0.7619 0.97118 0.73313 0.0
C787 C 0.8218 0.96971 0.74281 0.0
C788 C 0.76619 0.99188 0.74407 0.0
C789 C 0.85248 0.97954 0.7529 0.0
C790 C 0.76855 0.01307 0.75762 0.0
C791 C 0.65291 0.01628 0.73598 0.0
N792 N 0.82429 0.9902 0.7533 0.0
N793 N 0.68139 0.00564 0.73492 0.0
H794 H 0.97263 0.71262 0.76846 0.0
H795 H 0.02088 0.7781 0.71529 0.0
H796 H 0.14348 0.72508 0.73555 0.0
H797 H 0.84897 0.76535 0.74675 0.0
H798 H 0.06654 0.75859 0.72193 0.0
H799 H 0.92592 0.7319 0.76031 0.0
C800 C 0.00023 0.71941 0.75955 0.0
C801 C 0.06192 0.71727 0.75271 0.0
C802 C 0.01876 0.76007 0.72731 0.0
C803 C 0.00912 0.73928 0.74329 0.0
C804 C -0.00724 0.77119 0.72348 0.0
C805 C 0.93121 0.77333 0.73052 0.0
C806 C 0.98285 0.75108 0.73828 0.0
C807 C 0.89671 0.76408 0.74108 0.0
C808 C 0.97364 0.7304 0.75487 0.0
C809 C 0.09571 0.72636 0.74117 0.0
N810 N 0.92304 0.75338 0.7447 0.0
N811 N 0.0689 0.73696 0.73684 0.0
H812 H 0.75441 0.71179 0.97245 0.0
H813 H 0.71503 0.77781 0.0239 0.0
H814 H 0.59011 0.72443 0.01023 0.0
H815 H 0.8802 0.76479 0.98734 0.0
H816 H 0.66785 0.7583 0.01905 0.0
H817 H 0.80143 0.73125 0.97773 0.0
C818 C 0.72833 0.71865 0.98186 0.0
C819 C 0.66838 0.71652 0.99089 0.0
C820 C 0.71444 0.75974 0.0121 0.0
C821 C 0.72152 0.73875 -0.00301 0.0
C822 C 0.74126 0.77086 0.01487 0.0
C823 C 0.80148 0.77291 0.00601 0.0
C824 C 0.7482 0.75065 0.00039 0.0
C825 C 0.83358 0.7636 0.99446 0.0
C826 C 0.75508 0.72976 0.98488 0.0
C827 C 0.63651 0.72571 0.00296 0.0
N828 N 0.80655 0.75289 0.99198 0.0
N829 N 0.66345 0.73643 0.00564 0.0
H830 H 0.26504 0.52709 0.77496 0.0
H831 H 0.2167 0.46223 0.71824 0.0
H832 H 0.09526 0.51512 0.74033 0.0
H833 H 0.38659 0.47414 0.75288 0.0
H834 H 0.17089 0.48159 0.72639 0.0
H835 H 0.31049 0.50763 0.7674 0.0
C836 C 0.23739 0.52037 0.76583 0.0
C837 C 0.17644 0.5227 0.75825 0.0
C838 C 0.21821 0.47995 0.73221 0.0
C839 C 0.22779 0.50051 0.74949 0.0
C840 C 0.24428 0.46892 0.72754 0.0
C841 C 0.30541 0.4666 0.73488 0.0
C842 C 0.25366 0.48869 0.74429 0.0
C843 C 0.33922 0.47556 0.74688 0.0
C844 C 0.26325 0.50928 0.76149 0.0
C845 C 0.14251 0.5137 0.74647 0.0
N846 N 0.3129 0.48621 0.75121 0.0
N847 N 0.16866 0.50301 0.74244 0.0
H848 H 0.23307 0.77981 0.51981 0.0
H849 H 0.27572 0.71423 0.46624 0.0
H850 H 0.39665 0.76788 0.4805 0.0
H851 H 0.11221 0.72631 0.50541 0.0
H852 H 0.32139 0.73384 0.47135 0.0
H853 H 0.18791 0.76017 0.51482 0.0
C854 C 0.2594 0.77306 0.51014 0.0
C855 C 0.31857 0.77545 0.50056 0.0
C856 C 0.27551 0.73219 0.47883 0.0
C857 C 0.26752 0.75302 0.49476 0.0
C858 C 0.24954 0.721 0.47591 0.0
C859 C 0.1902 0.71866 0.48539 0.0
C860 C 0.24179 0.74105 0.49132 0.0
C861 C 0.15814 0.72774 0.49777 0.0
C862 C 0.23371 0.76186 0.50729 0.0
C863 C 0.35082 0.7664 0.48819 0.0
N864 N 0.18433 0.73852 0.50037 0.0
N865 N 0.32488 0.75559 0.48564 0.0
H866 H 0.00293 0.46269 0.51884 0.0
H867 H 0.97139 0.52909 0.46901 0.0
H868 H 0.84168 0.4761 0.48017 0.0
H869 H 0.13294 0.51558 0.50732 0.0
H870 H 0.92258 0.5097 0.473 0.0
H871 H 0.05165 0.48207 0.51481 0.0
C872 C 0.97789 0.46971 0.5095 0.0
C873 C 0.9183 0.46781 0.49984 0.0
C874 C 0.96872 0.511 0.48053 0.0
C875 C 0.97335 0.48994 0.49518 0.0
C876 C -0.00352 0.52205 0.47826 0.0
C877 C 0.05618 0.52392 0.48783 0.0
C878 C 0.00103 0.50179 0.49245 0.0
C879 C 0.08678 0.51452 0.49965 0.0
C880 C 0.0056 0.48076 0.5072 0.0
C881 C 0.88776 0.47719 0.48791 0.0
N882 N 0.05887 0.50387 0.50162 0.0
N883 N 0.91561 0.48785 0.48592 0.0
H884 H 0.76389 0.52934 0.27063 0.0
H885 H 0.72416 0.46455 0.21242 0.0
H886 H 0.59585 0.51682 0.23551 0.0
H887 H 0.8922 0.4771 0.24752 0.0
H888 H 0.67648 0.4838 0.22015 0.0
H889 H 0.81235 0.51026 0.26199 0.0
C890 C 0.73727 0.52258 0.26114 0.0
C891 C 0.67587 0.52464 0.2538 0.0
C892 C 0.72384 0.48233 0.22611 0.0
C893 C 0.73068 0.50286 0.24381 0.0
C894 C 0.751 0.47136 0.22167 0.0
C895 C 0.81207 0.46924 0.22937 0.0
C896 C 0.75812 0.49119 0.23834 0.0
C897 C 0.84489 0.47835 0.24129 0.0
C898 C 0.76485 0.5117 0.25618 0.0
C899 C 0.64335 0.51559 0.24152 0.0
N900 N 0.81748 0.48892 0.24545 0.0
N901 N 0.67114 0.50511 0.23692 0.0
H902 H 0.71316 0.27754 0.52626 0.0
H903 H 0.76423 0.21313 0.46759 0.0
H904 H 0.87894 0.26686 0.4868 0.0
H905 H 0.59968 0.22367 0.50807 0.0
H906 H 0.80704 0.23288 0.47409 0.0
H907 H 0.67001 0.25785 0.51941 0.0
C908 C 0.74036 0.27106 0.51615 0.0
C909 C 0.79961 0.27381 0.50711 0.0
C910 C 0.76155 0.23086 0.48155 0.0
C911 C 0.75092 0.25134 0.4992 0.0
C912 C 0.73721 0.2196 0.47783 0.0
C913 C 0.67845 0.21678 0.4873 0.0
C914 C 0.72675 0.23932 0.49481 0.0
C915 C 0.64525 0.22547 0.50044 0.0
C916 C 0.71584 0.25983 0.51225 0.0
C917 C 0.83303 0.2651 0.49413 0.0
N918 N 0.66985 0.23634 0.5038 0.0
N919 N 0.80823 0.25426 0.49057 0.0
H920 H 0.50917 0.27735 0.7162 0.0
H921 H 0.47722 0.2116 0.76966 0.0
H922 H 0.34644 0.26409 0.75414 0.0
H923 H 0.63937 0.22455 0.73084 0.0
H924 H 0.42772 0.23078 0.76356 0.0
H925 H 0.55758 0.25795 0.72079 0.0
C926 C 0.48369 0.27036 0.72545 0.0
C927 C 0.42388 0.27231 0.73483 0.0
C928 C 0.47412 0.22941 0.75634 0.0
C929 C 0.4786 0.25019 0.74018 0.0
C930 C 0.50228 0.21847 0.75982 0.0
C931 C 0.56239 0.21652 0.75079 0.0
C932 C 0.50645 0.23842 0.74377 0.0
C933 C 0.59292 0.2257 0.73815 0.0
C934 C 0.51123 0.2593 0.72807 0.0
C935 C 0.39275 0.26297 0.74665 0.0
N936 N 0.56465 0.23626 0.73505 0.0
N937 N 0.4205 0.25232 0.74902 0.0
H938 H 0.47497 0.02954 0.46331 0.0
H939 H 0.49766 0.96372 0.51724 0.0
H940 H 0.63663 0.01569 0.50095 0.0
H941 H 0.33153 0.97873 0.48529 0.0
H942 H 0.55089 0.98252 0.51038 0.0
H943 H 0.42257 0.01068 0.46996 0.0
C944 C 0.49938 0.02253 0.47294 0.0
C945 C 0.56007 0.02416 0.48162 0.0
C946 C 0.50274 0.98169 0.50492 0.0
C947 C 0.50076 0.00262 0.48931 0.0
C948 C 0.47246 0.97097 0.50884 0.0
C949 C 0.4102 0.9697 0.50186 0.0
C950 C 0.47045 0.99113 0.49387 0.0
C951 C 0.37959 0.97935 0.49101 0.0
C952 C 0.46953 0.01177 0.47677 0.0
C953 C 0.58971 0.0148 0.49398 0.0
N954 N 0.41002 0.98964 0.48732 0.0
N955 N 0.55977 0.00443 0.49746 0.0
H956 H 0.4768 0.71438 0.27555 0.0
H957 H 0.51771 0.7783 0.21336 0.0
H958 H 0.64195 0.72556 0.23633 0.0
H959 H 0.35436 0.76712 0.25383 0.0
H960 H 0.56424 0.75895 0.22121 0.0
H961 H 0.43079 0.73372 0.26755 0.0
C962 C 0.50333 0.7209 0.2653 0.0
C963 C 0.56316 0.71838 0.25661 0.0
C964 C 0.51819 0.76075 0.22835 0.0
C965 C 0.51111 0.74046 0.24732 0.0
C966 C 0.49171 0.77178 0.22385 0.0
C967 C 0.43222 0.7743 0.23296 0.0
C968 C 0.48479 0.75224 0.24203 0.0
C969 C 0.40042 0.76555 0.24646 0.0
C970 C 0.47714 0.73193 0.26072 0.0
C971 C 0.59562 0.72714 0.24339 0.0
N972 N 0.42709 0.75493 0.25059 0.0
N973 N 0.56917 0.73779 0.23914 0.0
H974 H 0.52066 0.46068 0.02119 0.0
H975 H 0.4738 0.52616 0.96778 0.0
H976 H 0.3587 0.47211 0.98017 0.0
H977 H 0.63572 0.51489 0.00903 0.0
H978 H 0.43069 0.50631 0.97208 0.0
H979 H 0.56437 0.48049 0.01674 0.0
C980 C 0.49446 0.46734 0.01122 0.0
C981 C 0.43607 0.46477 0.00106 0.0
C982 C 0.47566 0.50819 0.9802 0.0
C983 C 0.48535 0.48738 -0.00407 0.0
C984 C 0.50015 0.51951 0.97776 0.0
C985 C 0.5583 0.52215 0.98805 0.0
C986 C 0.50967 0.49949 0.99302 0.0
C987 C 0.59065 0.51322 0.00079 0.0
C988 C 0.51928 0.47864 0.0087 0.0
C989 C 0.40391 0.47372 0.98833 0.0
N990 N 0.56592 0.5023 0.0029 0.0
N991 N 0.42894 0.48461 0.98615 0.0
H992 H 0.02609 0.15038 0.2906 0.0
H993 H 0.21257 0.08945 0.28434 0.0
H994 H 0.22526 0.1479 0.28541 0.0
H995 H 0.01381 0.09244 0.27801 0.0
H996 H 0.21817 0.11065 0.29306 0.0
H997 H 0.02082 0.1289 0.29459 0.0
C998 C 0.06868 0.14533 0.29071 0.0
C999 C 0.12605 0.15088 0.28731 0.0
C1000 C 0.1733 0.10662 0.29002 0.0
C1001 C 0.12056 0.1264 0.29167 0.0
C1002 C 0.17017 0.09454 0.2851 0.0
C1003 C 0.11281 0.08925 0.28008 0.0
C1004 C 0.11864 0.11338 0.29001 0.0
C1005 C 0.05914 0.09621 0.2814 0.0
C1006 C 0.06572 0.13309 0.29287 0.0
C1007 C 0.17993 0.14395 0.28764 0.0
N1008 N 0.06341 0.10792 0.28604 0.0
N1009 N 0.17585 0.13206 0.28951 0.0
H1010 H 0.19564 0.1487 0.94992 0.0
H1011 H 0.01881 0.08671 0.94947 0.0
H1012 H -0.00172 0.14488 0.96034 0.0
H1013 H 0.21772 0.09061 0.94847 0.0
H1014 H 0.00861 0.10815 0.94549 0.0
H1015 H 0.20285 0.12755 0.94152 0.0
C1016 C 0.15379 0.14344 0.95016 0.0
C1017 C 0.09647 0.1485 0.95616 0.0
C1018 C 0.05446 0.10428 0.94583 0.0
C1019 C 0.10421 0.12435 0.94669 0.0
C1020 C 0.06022 0.09206 0.94799 0.0
C1021 C 0.11913 0.08693 0.94965 0.0
C1022 C 0.10804 0.11134 0.94525 0.0
C1023 C 0.17137 0.09424 0.94762 0.0
C1024 C 0.15787 0.13137 0.9454 0.0
C1025 C 0.04357 0.1413 0.95609 0.0
N1026 N 0.16461 0.10607 0.94576 0.0
N1027 N 0.04879 0.12957 0.95167 0.0
H1028 H -0.00139 0.89918 0.73114 0.0
H1029 H 0.77677 0.84471 0.70398 0.0
H1030 H 0.80387 0.90263 0.71413 0.0
H1031 H 0.97473 0.84137 0.71284 0.0
H1032 H 0.78755 0.86606 0.70381 0.0
H1033 H 0.99252 0.87822 0.72138 0.0
C1034 C 0.95455 0.89553 0.72524 0.0
C1035 C 0.90144 0.90262 0.72369 0.0
C1036 C 0.82882 0.86069 0.70548 0.0
C1037 C 0.8942 0.87863 0.71248 0.0
C1038 C 0.8227 0.84849 0.70556 0.0
C1039 C 0.87493 0.84129 0.70869 0.0
C1040 C 0.88754 0.86575 0.7089 0.0
C1041 C 0.93332 0.84663 0.71045 0.0
C1042 C 0.9512 0.88356 0.71958 0.0
C1043 C 0.8458 0.89746 0.71574 0.0
N1044 N 0.938 0.85857 0.71089 0.0
N1045 N 0.84351 0.88574 0.71064 0.0
H1046 H 0.97367 0.90063 0.04108 0.0
H1047 H 0.78062 0.84041 0.04192 0.0
H1048 H 0.77475 0.89884 0.04873 0.0
H1049 H 0.97868 0.84245 0.03137 0.0
H1050 H 0.77879 0.86165 0.05015 0.0
H1051 H 0.97804 0.87911 0.04333 0.0
C1052 C 0.93108 0.89572 0.04355 0.0
C1053 C 0.87378 0.90149 0.04442 0.0
C1054 C 0.82271 0.85742 0.04626 0.0
C1055 C 0.87816 0.87694 0.04681 0.0
C1056 C 0.8237 0.8453 0.04161 0.0
C1057 C 0.8797 0.83971 0.03567 0.0
C1058 C 0.87814 0.86393 0.04494 0.0
C1059 C 0.9343 0.84644 0.03558 0.0
C1060 C 0.93349 0.88344 0.04477 0.0
C1061 C 0.81992 0.89472 0.04771 0.0
N1062 N 0.93209 0.85819 0.03994 0.0
N1063 N 0.82336 0.8828 0.04855 0.0
H1064 H 0.21212 0.58959 0.79441 0.0
H1065 H 0.03044 0.65095 0.79309 0.0
H1066 H 0.01302 0.59281 0.79105 0.0
H1067 H 0.22928 0.64769 0.78778 0.0
H1068 H 0.02351 0.62974 0.80094 0.0
H1069 H 0.21959 0.61093 0.80064 0.0
C1070 C 0.17003 0.59476 0.79538 0.0
C1071 C 0.112 0.58949 0.79181 0.0
C1072 C 0.06871 0.6337 0.79836 0.0
C1073 C 0.11999 0.61381 0.79876 0.0
C1074 C 0.07261 0.6458 0.79394 0.0
C1075 C 0.13036 0.65102 0.78938 0.0
C1076 C 0.12297 0.62683 0.79821 0.0
C1077 C 0.18368 0.64397 0.79081 0.0
C1078 C 0.17424 0.60693 0.79886 0.0
C1079 C 0.0588 0.59657 0.79333 0.0
N1080 N 0.17866 0.63222 0.79484 0.0
N1081 N 0.0641 0.60838 0.79643 0.0
H1082 H 0.2214 0.6514 0.45204 0.0
H1083 H 0.03413 0.59059 0.45258 0.0
H1084 H 0.02198 0.6488 0.4547 0.0
H1085 H 0.23294 0.59323 0.45948 0.0
H1086 H 0.02945 0.61184 0.44484 0.0
H1087 H 0.22712 0.63002 0.44615 0.0
C1088 C 0.17888 0.64635 0.45098 0.0
C1089 C 0.12124 0.65182 0.45425 0.0
C1090 C 0.07416 0.60773 0.44777 0.0
C1091 C 0.12724 0.62746 0.44769 0.0
C1092 C 0.07678 0.59561 0.45213 0.0
C1093 C 0.13385 0.59021 0.45706 0.0
C1094 C 0.12901 0.61443 0.44834 0.0
C1095 C 0.18783 0.5971 0.45613 0.0
C1096 C 0.18209 0.63416 0.4477 0.0
C1097 C 0.06747 0.6449 0.45264 0.0
N1098 N 0.18404 0.60886 0.45212 0.0
N1099 N 0.07179 0.63307 0.44973 0.0
H1100 H 0.9614 0.34089 0.20197 0.0
H1101 H 0.78005 0.4022 0.19472 0.0
H1102 H 0.76239 0.34428 0.20555 0.0
H1103 H 0.97898 0.39905 0.19963 0.0
H1104 H 0.77284 0.38078 0.18992 0.0
H1105 H 0.96884 0.36196 0.19249 0.0
C1106 C 0.91932 0.34603 0.2004 0.0
C1107 C 0.86133 0.34091 0.20494 0.0
C1108 C 0.81812 0.38481 0.19172 0.0
C1109 C 0.86929 0.36493 0.19425 0.0
C1110 C 0.82218 0.39702 0.19436 0.0
C1111 C 0.88005 0.40235 0.19799 0.0
C1112 C 0.87234 0.37794 0.19271 0.0
C1113 C 0.9333 0.39526 0.19729 0.0
C1114 C 0.9235 0.35805 0.19506 0.0
C1115 C 0.80815 0.34794 0.20256 0.0
N1116 N 0.92813 0.38341 0.19501 0.0
N1117 N 0.81343 0.35961 0.19764 0.0
H1118 H 0.75841 0.34063 0.54136 0.0
H1119 H 0.94018 0.40196 0.54016 0.0
H1120 H 0.9575 0.34386 0.54465 0.0
H1121 H 0.74296 0.39846 0.52882 0.0
H1122 H 0.94542 0.38094 0.55035 0.0
H1123 H 0.74983 0.36205 0.54564 0.0
C1124 C 0.80018 0.34583 0.54347 0.0
C1125 C 0.85871 0.34053 0.54223 0.0
C1126 C 0.9009 0.38481 0.5459 0.0
C1127 C 0.84949 0.36494 0.54686 0.0
C1128 C 0.89795 0.3968 0.54011 0.0
C1129 C 0.84128 0.40188 0.53325 0.0
C1130 C 0.84676 0.37793 0.54479 0.0
C1131 C 0.78782 0.39484 0.53364 0.0
C1132 C 0.79536 0.35804 0.54579 0.0
C1133 C 0.91145 0.34764 0.54511 0.0
N1134 N 0.79196 0.3832 0.53905 0.0
N1135 N 0.90563 0.35949 0.54699 0.0
H1136 H 0.50354 0.09359 0.78652 0.0
H1137 H 0.73216 0.14815 0.79206 0.0
H1138 H 0.70275 0.09046 0.78895 0.0
H1139 H 0.53296 0.1513 0.78978 0.0
H1140 H 0.72162 0.12707 0.79934 0.0
H1141 H 0.51275 0.11451 0.79605 0.0
C1142 C 0.54927 0.09729 0.7894 0.0
C1143 C 0.6026 0.09036 0.78649 0.0
C1144 C 0.68012 0.13237 0.79763 0.0
C1145 C 0.61348 0.11431 0.79716 0.0
C1146 C 0.6861 0.14441 0.79345 0.0
C1147 C 0.63329 0.15141 0.78985 0.0
C1148 C 0.62091 0.12727 0.79791 0.0
C1149 C 0.57482 0.14617 0.79221 0.0
C1150 C 0.55448 0.10924 0.79487 0.0
C1151 C 0.66055 0.09554 0.79078 0.0
N1152 N 0.57018 0.13435 0.79568 0.0
N1153 N 0.66453 0.10728 0.79551 0.0
H1154 H 0.51737 0.14773 0.44652 0.0
H1155 H 0.74032 0.09227 0.44482 0.0
H1156 H 0.71687 0.15023 0.44765 0.0
H1157 H 0.54083 0.08993 0.44234 0.0
H1158 H 0.73323 0.11345 0.43804 0.0
H1159 H 0.52564 0.12679 0.43722 0.0
C1160 C 0.56304 0.14388 0.4445 0.0
C1161 C 0.6166 0.15066 0.44829 0.0
C1162 C 0.69098 0.10831 0.4386 0.0
C1163 C 0.62639 0.12664 0.4379 0.0
C1164 C 0.69496 0.09621 0.44248 0.0
C1165 C 0.64096 0.08939 0.44458 0.0
C1166 C 0.63251 0.11365 0.43708 0.0
C1167 C 0.58354 0.0949 0.44107 0.0
C1168 C 0.5677 0.13192 0.43915 0.0
C1169 C 0.67448 0.14528 0.44508 0.0
N1170 N 0.58077 0.10676 0.43789 0.0
N1171 N 0.67787 0.13352 0.44046 0.0
H1172 H 0.46681 0.89996 0.19596 0.0
H1173 H 0.26073 0.84203 0.18989 0.0
H1174 H 0.26694 0.89995 0.19306 0.0
H1175 H 0.45998 0.84162 0.19647 0.0
H1176 H 0.26405 0.86318 0.18262 0.0
H1177 H 0.4667 0.8788 0.18813 0.0
C1178 C 0.42285 0.89552 0.19335 0.0
C1179 C 0.36667 0.90167 0.19555 0.0
C1180 C 0.30721 0.85848 0.18531 0.0
C1181 C 0.3663 0.87743 0.18671 0.0
C1182 C 0.30537 0.84639 0.18944 0.0
C1183 C 0.36015 0.84013 0.19419 0.0
C1184 C 0.36421 0.86439 0.18623 0.0
C1185 C 0.4167 0.84616 0.19305 0.0
C1186 C 0.42288 0.88343 0.18888 0.0
C1187 C 0.31123 0.89551 0.19175 0.0
N1188 N 0.41722 0.85803 0.1896 0.0
N1189 N 0.31241 0.88369 0.18782 0.0
H1190 H 0.23506 0.89974 0.52696 0.0
H1191 H 0.47145 0.84617 0.53438 0.0
H1192 H 0.43292 0.90393 0.53475 0.0
H1193 H 0.27305 0.84177 0.53063 0.0
H1194 H 0.45708 0.86728 0.54004 0.0
H1195 H 0.24677 0.87861 0.53346 0.0
C1196 C 0.28099 0.89622 0.53026 0.0
C1197 C 0.33327 0.90357 0.53 0.0
C1198 C 0.41656 0.86171 0.53829 0.0
C1199 C 0.34699 0.87937 0.53734 0.0
C1200 C 0.42472 0.84965 0.53506 0.0
C1201 C 0.37331 0.84226 0.53171 0.0
C1202 C 0.35653 0.86645 0.53789 0.0
C1203 C 0.31389 0.84719 0.53301 0.0
C1204 C 0.2876 0.88415 0.53402 0.0
C1205 C 0.39149 0.89856 0.53462 0.0
N1206 N 0.30711 0.85903 0.53565 0.0
N1207 N 0.39688 0.88674 0.53783 0.0
H1208 H 0.52686 0.65206 0.29616 0.0
H1209 H 0.70585 0.59044 0.2953 0.0
H1210 H 0.72571 0.64849 0.29213 0.0
H1211 H 0.5071 0.59399 0.29039 0.0
H1212 H 0.71375 0.61165 0.3031 0.0
H1213 H 0.51856 0.63078 0.30307 0.0
C1214 C 0.56874 0.64683 0.29715 0.0
C1215 C 0.62692 0.65198 0.29316 0.0
C1216 C 0.66835 0.60775 0.30063 0.0
C1217 C 0.61797 0.62772 0.30087 0.0
C1218 C 0.66389 0.59565 0.29625 0.0
C1219 C 0.60589 0.59052 0.29179 0.0
C1220 C 0.61439 0.6147 0.30054 0.0
C1221 C 0.55288 0.59764 0.29335 0.0
C1222 C 0.56406 0.63469 0.30101 0.0
C1223 C 0.67982 0.64482 0.29473 0.0
N1224 N 0.55843 0.60939 0.29732 0.0
N1225 N 0.67406 0.63305 0.29818 0.0
H1226 H 0.49571 0.64723 0.95777 0.0
H1227 H 0.71989 0.59189 0.95251 0.0
H1228 H 0.69489 0.64985 0.95312 0.0
H1229 H 0.5205 0.5892 0.9547 0.0
H1230 H 0.71085 0.61303 0.94586 0.0
H1231 H 0.50304 0.62613 0.94994 0.0
C1232 C 0.54104 0.64337 0.95481 0.0
C1233 C 0.59492 0.65024 0.95648 0.0
C1234 C 0.66898 0.60783 0.94745 0.0
C1235 C 0.60365 0.62607 0.94771 0.0
C1236 C 0.67408 0.59575 0.95126 0.0
C1237 C 0.6208 0.58884 0.95455 0.0
C1238 C 0.61014 0.61308 0.94721 0.0
C1239 C 0.5627 0.59425 0.95245 0.0
C1240 C 0.54516 0.63132 0.95031 0.0
C1241 C 0.65229 0.64483 0.95219 0.0
N1242 N 0.55891 0.60611 0.94929 0.0
N1243 N 0.65522 0.63301 0.94834 0.0
H1244 H 0.26874 0.40008 0.69851 0.0
H1245 H 0.44984 0.33865 0.69816 0.0
H1246 H 0.468 0.39684 0.69766 0.0
H1247 H 0.25229 0.34214 0.70849 0.0
H1248 H 0.45591 0.3598 0.6893 0.0
H1249 H 0.26041 0.3787 0.69328 0.0
C1250 C 0.31064 0.39489 0.69679 0.0
C1251 C 0.36907 0.40017 0.69892 0.0
C1252 C 0.41114 0.3559 0.69323 0.0
C1253 C 0.36011 0.37581 0.69315 0.0
C1254 C 0.40773 0.34384 0.69824 0.0
C1255 C 0.35069 0.33871 0.70445 0.0
C1256 C 0.3571 0.36281 0.69443 0.0
C1257 C 0.2974 0.3458 0.70416 0.0
C1258 C 0.30595 0.3827 0.6939 0.0
C1259 C 0.42198 0.39307 0.69648 0.0
N1260 N 0.30198 0.3575 0.69949 0.0
N1261 N 0.41625 0.38124 0.69401 0.0
H1262 H 0.26884 0.39535 0.03577 0.0
H1263 H 0.49002 0.33949 0.03684 0.0
H1264 H 0.46845 0.39763 0.0356 0.0
H1265 H 0.29065 0.33729 0.04101 0.0
H1266 H 0.48348 0.36075 0.04234 0.0
H1267 H 0.27626 0.37428 0.04364 0.0
C1268 C 0.31434 0.39142 0.03767 0.0
C1269 C 0.36821 0.3982 0.03467 0.0
C1270 C 0.44114 0.35564 0.04238 0.0
C1271 C 0.37701 0.37403 0.04347 0.0
C1272 C 0.4448 0.34349 0.03921 0.0
C1273 C 0.39066 0.33666 0.03811 0.0
C1274 C 0.38284 0.36103 0.0442 0.0
C1275 C 0.33345 0.34226 0.04158 0.0
C1276 C 0.31851 0.37938 0.0422 0.0
C1277 C 0.42583 0.3927 0.03762 0.0
N1278 N 0.33097 0.35416 0.04412 0.0
N1279 N 0.42875 0.38088 0.04151 0.0
H1280 H 0.8949 0.04459 0.29288 0.0
H1281 H 0.86313 0.04719 0.44223 0.0
H1282 H 0.05157 0.04715 0.34323 0.0
H1283 H 0.71013 0.0406 0.3917 0.0
H1284 H 0.93473 0.04496 0.40674 0.0
H1285 H 0.82765 0.04113 0.32918 0.0
C1286 C 0.91513 0.04435 0.31158 0.0
C1287 C 0.97858 0.0463 0.31515 0.0
C1288 C 0.88553 0.04384 0.4035 0.0
C1289 C 0.90223 0.04239 0.35671 0.0
C1290 C 0.84476 0.04508 0.42376 0.0
C1291 C 0.78073 0.04426 0.41974 0.0
C1292 C 0.8618 0.04185 0.37917 0.0
C1293 C 0.75921 0.04147 0.39551 0.0
C1294 C 0.87684 0.04233 0.33229 0.0
C1295 C 0.00267 0.04578 0.33971 0.0
N1296 N 0.79963 0.04051 0.37606 0.0
N1297 N 0.96431 0.044 0.35962 0.0
H1298 H 0.34592 0.19565 0.29869 0.0
H1299 H 0.38822 0.19291 0.44782 0.0
H1300 H 0.19324 0.19497 0.35132 0.0
H1301 H 0.53982 0.19717 0.39546 0.0
H1302 H 0.31528 0.19571 0.41303 0.0
H1303 H 0.4174 0.19823 0.33406 0.0
C1304 C 0.32746 0.19617 0.31767 0.0
C1305 C 0.26381 0.19495 0.32216 0.0
C1306 C 0.36452 0.19617 0.40921 0.0
C1307 C 0.34496 0.19781 0.36263 0.0
C1308 C 0.40608 0.19458 0.42906 0.0
C1309 C 0.46998 0.19466 0.4244 0.0
C1310 C 0.38723 0.19776 0.38457 0.0
C1311 C 0.49081 0.19692 0.39981 0.0
C1312 C 0.36818 0.19764 0.33785 0.0
C1313 C 0.24214 0.19575 0.34706 0.0
N1314 N 0.44952 0.19825 0.38075 0.0
N1315 N 0.28273 0.197 0.3664 0.0
H1316 H 0.69836 0.19941 0.84416 0.0
H1317 H 0.0443 0.19523 0.89606 0.0
H1318 H 0.85837 0.19379 0.79676 0.0
H1319 H 0.88168 0.19394 0.94344 0.0
H1320 H 0.97828 0.19896 0.8596 0.0
H1321 H 0.76664 0.20179 0.88045 0.0
C1322 C 0.74799 0.19883 0.84133 0.0
C1323 C 0.77285 0.19622 0.81752 0.0
C1324 C 0.95706 0.19798 0.878 0.0
C1325 C 0.85104 0.19887 0.85897 0.0
C1326 C -0.00534 0.19585 0.89883 0.0
C1327 C 0.9682 0.1941 0.92272 0.0
C1328 C 0.89256 0.19835 0.88109 0.0
C1329 C 0.90381 0.19511 0.92528 0.0
C1330 C 0.78688 0.20017 0.86207 0.0
C1331 C 0.83738 0.19569 0.81487 0.0
N1332 N 0.86803 0.19707 0.90463 0.0
N1333 N 0.87434 0.19687 0.83545 0.0
H1334 H 0.18137 0.04553 0.88261 0.0
H1335 H 0.5288 0.03916 0.83333 0.0
H1336 H 0.34144 0.04249 0.93102 0.0
H1337 H 0.37597 0.0494 0.78561 0.0
H1338 H 0.4565 0.03593 0.86791 0.0
H1339 H 0.24833 0.04284 0.84586 0.0
C1340 C 0.23056 0.04418 0.8855 0.0
C1341 C 0.25622 0.04438 0.90982 0.0
C1342 C 0.43862 0.03876 0.84982 0.0
C1343 C 0.33268 0.04127 0.868 0.0
C1344 C 0.47981 0.04058 0.83005 0.0
C1345 C 0.45827 0.04475 0.80676 0.0
C1346 C 0.37549 0.04117 0.8463 0.0
C1347 C 0.39439 0.0463 0.8034 0.0
C1348 C 0.26865 0.04265 0.86454 0.0
C1349 C 0.32 0.04253 0.91256 0.0
N1350 N 0.35514 0.04465 0.82313 0.0
N1351 N 0.35618 0.04113 0.89184 0.0
H1352 H 0.11493 0.94601 0.55143 0.0
H1353 H 0.11477 0.94484 0.70229 0.0
H1354 H 0.2814 0.94737 0.59648 0.0
H1355 H 0.94913 0.94671 0.65682 0.0
H1356 H 0.17718 0.94707 0.66391 0.0
H1357 H 0.05324 0.94762 0.59002 0.0
C1358 C 0.13844 0.94677 0.56942 0.0
C1359 C 0.20324 0.94647 0.5708 0.0
C1360 C 0.12714 0.94709 0.6624 0.0
C1361 C 0.13328 0.9482 0.61499 0.0
C1362 C 0.09162 0.94582 0.68429 0.0
C1363 C 0.02683 0.94549 0.68268 0.0
C1364 C 0.09748 0.94798 0.63883 0.0
C1365 C -0.00096 0.94683 0.65891 0.0
C1366 C 0.1033 0.94767 0.59145 0.0
C1367 C 0.23145 0.9475 0.59458 0.0
N1368 N 0.03449 0.94792 0.63792 0.0
N1369 N 0.1963 0.94822 0.61575 0.0
H1370 H 0.64584 0.79748 0.68975 0.0
H1371 H 0.61074 0.80083 0.54003 0.0
H1372 H 0.80115 0.79907 0.63851 0.0
H1373 H 0.45679 0.79666 0.59129 0.0
H1374 H 0.68211 0.79842 0.57554 0.0
H1375 H 0.57621 0.79543 0.65364 0.0
C1376 C 0.66527 0.7973 0.6709 0.0
C1377 C 0.72914 0.79856 0.66705 0.0
C1378 C 0.6327 0.79791 0.57896 0.0
C1379 C 0.65006 0.7963 0.62572 0.0
C1380 C 0.59204 0.79928 0.55871 0.0
C1381 C 0.52791 0.79907 0.56282 0.0
C1382 C 0.60885 0.79639 0.60343 0.0
C1383 C 0.50599 0.79699 0.58734 0.0
C1384 C 0.62559 0.79612 0.6503 0.0
C1385 C 0.75205 0.79821 0.64228 0.0
N1386 N 0.5464 0.79584 0.60676 0.0
N1387 N 0.71245 0.79722 0.62252 0.0
H1388 H 0.13534 0.79782 0.19567 0.0
H1389 H 0.93382 0.79048 0.09548 0.0
H1390 H 0.28225 0.79227 0.1417 0.0
H1391 H 0.0937 0.79816 0.04942 0.0
H1392 H 0.00154 0.78753 0.13161 0.0
H1393 H 0.05967 0.79509 0.16219 0.0
C1394 C 0.15153 0.79576 0.17683 0.0
C1395 C 0.215 0.79536 0.17137 0.0
C1396 C 0.02203 0.78999 0.11376 0.0
C1397 C 0.12876 0.79197 0.13285 0.0
C1398 C 0.98334 0.79155 0.09302 0.0
C1399 C 0.00824 0.79479 0.06958 0.0
C1400 C 0.08602 0.79188 0.11109 0.0
C1401 C 0.07265 0.79581 0.06726 0.0
C1402 C 0.10822 0.79409 0.15765 0.0
C1403 C 0.23364 0.79273 0.14666 0.0
N1404 N 0.10934 0.79448 0.08786 0.0
N1405 N 0.19068 0.79128 0.12824 0.0
H1406 H 0.80073 0.94441 0.1142 0.0
H1407 H 0.451 0.95768 0.15259 0.0
H1408 H 0.65505 0.95196 0.06082 0.0
H1409 H 0.58799 0.94395 0.20406 0.0
H1410 H 0.53152 0.96032 0.12084 0.0
H1411 H 0.7293 0.94858 0.14871 0.0
C1412 C 0.75374 0.94704 0.10973 0.0
C1413 C 0.73334 0.94766 0.08462 0.0
C1414 C 0.54421 0.9569 0.13919 0.0
C1415 C 0.65152 0.95246 0.12406 0.0
C1416 C 0.49836 0.95543 0.15737 0.0
C1417 C 0.51285 0.95038 0.18079 0.0
C1418 C 0.6049 0.95325 0.14444 0.0
C1419 C 0.5749 0.94777 0.18613 0.0
C1420 C 0.71308 0.94944 0.12946 0.0
C1421 C 0.67234 0.95125 0.07992 0.0
N1422 N 0.61865 0.94906 0.16789 0.0
N1423 N 0.6333 0.95341 0.09951 0.0
H1424 H 0.04546 0.54397 0.85212 0.0
H1425 H 0.69312 0.54208 0.89743 0.0
H1426 H 0.88885 0.54558 0.80157 0.0
H1427 H 0.84827 0.54653 0.94795 0.0
H1428 H 0.76512 0.53948 0.86243 0.0
H1429 H 0.97462 0.54109 0.88745 0.0
C1430 C -0.00388 0.54359 0.84842 0.0
C1431 C 0.97279 0.54517 0.82395 0.0
C1432 C 0.78347 0.54091 0.88119 0.0
C1433 C 0.89165 0.5419 0.86428 0.0
C1434 C 0.74244 0.54238 0.9012 0.0
C1435 C 0.7649 0.54469 0.92554 0.0
C1436 C 0.84741 0.54177 0.88556 0.0
C1437 C 0.82912 0.54488 0.92941 0.0
C1438 C 0.95576 0.54196 0.86861 0.0
C1439 C 0.90863 0.54451 0.8202 0.0
N1440 N 0.86825 0.54356 0.90953 0.0
N1441 N 0.87016 0.54303 0.84022 0.0
H1442 H 0.18831 0.69695 0.84873 0.0
H1443 H 0.53638 0.6977 0.8992 0.0
H1444 H 0.34927 0.69489 0.80054 0.0
H1445 H 0.37654 0.69346 0.94734 0.0
H1446 H 0.46777 0.70067 0.86325 0.0
H1447 H 0.25611 0.69964 0.8851 0.0
C1448 C 0.23797 0.6972 0.84576 0.0
C1449 C 0.26338 0.69554 0.82165 0.0
C1450 C 0.44765 0.69921 0.88171 0.0
C1451 C 0.34104 0.69857 0.86318 0.0
C1452 C 0.48674 0.69752 0.90226 0.0
C1453 C 0.46196 0.69517 0.9262 0.0
C1454 C 0.38331 0.69851 0.88511 0.0
C1455 C 0.39744 0.69515 0.92914 0.0
C1456 C 0.27659 0.69871 0.86655 0.0
C1457 C 0.32788 0.69603 0.81886 0.0
N1458 N 0.36021 0.69667 0.90873 0.0
N1459 N 0.36461 0.69739 0.83945 0.0
H1460 H 0.05336 0.69747 0.39395 0.0
H1461 H 0.69962 0.69833 0.35023 0.0
H1462 H 0.89851 0.69539 0.44533 0.0
H1463 H 0.85396 0.69456 0.29902 0.0
H1464 H 0.77224 0.70096 0.38503 0.0
H1465 H 0.98122 0.70009 0.359 0.0
C1466 C 0.00412 0.69768 0.39791 0.0
C1467 C 0.98171 0.69606 0.42251 0.0
C1468 C 0.79026 0.69966 0.36616 0.0
C1469 C 0.89902 0.69902 0.3826 0.0
C1470 C 0.74888 0.69818 0.34627 0.0
C1471 C 0.77095 0.69608 0.32178 0.0
C1472 C 0.85417 0.69903 0.36152 0.0
C1473 C 0.83509 0.69606 0.31767 0.0
C1474 C 0.963 0.69916 0.37793 0.0
C1475 C 0.91761 0.69651 0.4266 0.0
N1476 N 0.87456 0.69741 0.33743 0.0
N1477 N 0.87838 0.69784 0.40677 0.0
H1478 H 0.54328 0.54375 0.34938 0.0
H1479 H 0.19333 0.54331 0.39768 0.0
H1480 H 0.38434 0.54661 0.30033 0.0
H1481 H 0.35173 0.54642 0.44697 0.0
H1482 H 0.26301 0.5405 0.36198 0.0
H1483 H 0.47395 0.54074 0.38516 0.0
C1484 C 0.49373 0.54361 0.3461 0.0
C1485 C 0.46934 0.54559 0.32194 0.0
C1486 C 0.28257 0.54168 0.38063 0.0
C1487 C 0.38993 0.5422 0.36278 0.0
C1488 C 0.24286 0.54328 0.40103 0.0
C1489 C 0.26696 0.54527 0.42524 0.0
C1490 C 0.34683 0.54212 0.38445 0.0
C1491 C 0.33135 0.54502 0.42855 0.0
C1492 C 0.45424 0.5419 0.36654 0.0
C1493 C 0.40495 0.54522 0.3187 0.0
N1494 N 0.3692 0.5436 0.40829 0.0
N1495 N 0.36735 0.54368 0.33898 0.0
H1496 H 0.94917 0.44798 0.13679 0.0
H1497 H 0.302 0.44511 0.09238 0.0
H1498 H 0.1041 0.44508 0.18792 0.0
H1499 H 0.14613 0.44245 0.04166 0.0
H1500 H 0.23073 0.44885 0.12718 0.0
H1501 H 0.02139 0.44978 0.10161 0.0
C1502 C -0.00153 0.44786 0.14065 0.0
C1503 C 0.02083 0.44622 0.16524 0.0
C1504 C 0.21211 0.44755 0.10841 0.0
C1505 C 0.10357 0.44821 0.12507 0.0
C1506 C 0.25272 0.44542 0.08853 0.0
C1507 C 0.22973 0.44331 0.06419 0.0
C1508 C 0.14806 0.44756 0.10392 0.0
C1509 C 0.16564 0.44392 0.0602 0.0
C1510 C 0.03963 0.44887 0.12054 0.0
C1511 C 0.08502 0.44623 0.1692 0.0
N1512 N 0.12689 0.44589 0.07996 0.0
N1513 N 0.12425 0.44708 0.14925 0.0
H1514 H 0.63839 0.29656 0.1995 0.0
H1515 H 0.60946 0.29331 0.04987 0.0
H1516 H 0.79559 0.29432 0.14934 0.0
H1517 H 0.45289 0.29186 0.10049 0.0
H1518 H 0.67893 0.29161 0.08616 0.0
H1519 H 0.56969 0.29282 0.16369 0.0
C1520 C 0.65841 0.29515 0.181 0.0
C1521 C 0.72256 0.29589 0.17727 0.0
C1522 C 0.62934 0.29152 0.08929 0.0
C1523 C 0.64461 0.29171 0.13628 0.0
C1524 C 0.58976 0.29248 0.06858 0.0
C1525 C 0.5255 0.29288 0.07226 0.0
C1526 C 0.60429 0.29104 0.11377 0.0
C1527 C 0.50226 0.29172 0.09686 0.0
C1528 C 0.61927 0.29302 0.16057 0.0
C1529 C 0.74625 0.29394 0.15297 0.0
N1530 N 0.54166 0.29099 0.11671 0.0
N1531 N 0.70721 0.29207 0.13333 0.0
H1532 H 0.92842 0.29484 0.60224 0.0
H1533 H 0.28094 0.29185 0.64691 0.0
H1534 H 0.08493 0.29622 0.55158 0.0
H1535 H 0.12682 0.29658 0.69786 0.0
H1536 H 0.20835 0.28951 0.61207 0.0
H1537 H -0.00076 0.29163 0.63746 0.0
C1538 C 0.97771 0.29435 0.5985 0.0
C1539 C 0.00106 0.29595 0.57403 0.0
C1540 C 0.19032 0.29095 0.63089 0.0
C1541 C 0.08213 0.29231 0.61421 0.0
C1542 C 0.2317 0.29227 0.65081 0.0
C1543 C 0.20973 0.29459 0.67522 0.0
C1544 C 0.12652 0.29197 0.63541 0.0
C1545 C 0.14558 0.29492 0.67926 0.0
C1546 C 0.01805 0.29253 0.61862 0.0
C1547 C 0.06514 0.29514 0.5702 0.0
N1548 N 0.1061 0.29375 0.65945 0.0
N1549 N 0.10357 0.29347 0.59015 0.0
H1550 H 0.42972 0.4458 0.63813 0.0
H1551 H 0.77828 0.44967 0.58888 0.0
H1552 H 0.59016 0.4451 0.68674 0.0
H1553 H 0.62089 0.44401 0.54009 0.0
H1554 H 0.70812 0.45209 0.62452 0.0
H1555 H 0.49747 0.4491 0.60195 0.0
C1556 C 0.47922 0.44646 0.64122 0.0
C1557 C 0.50459 0.44502 0.6654 0.0
C1558 C 0.68883 0.45044 0.60599 0.0
C1559 C 0.58215 0.44878 0.62412 0.0
C1560 C 0.72882 0.44907 0.58562 0.0
C1561 C 0.70525 0.44646 0.56159 0.0
C1562 C 0.62484 0.44916 0.60233 0.0
C1563 C 0.64088 0.44592 0.55837 0.0
C1564 C 0.5178 0.44834 0.62056 0.0
C1565 C 0.56885 0.44605 0.66837 0.0
N1566 N 0.60279 0.44712 0.57863 0.0
N1567 N 0.60556 0.44778 0.64789 0.0
loop_
_geom_bond_atom_site_label_1
_geom_bond_atom_site_label_2
_geom_bond_distance
_geom_bond_site_symmetry_2
_ccdc_geom_bond_type
In0 O1 2.294 . S
In0 O2 2.326 . S
In0 O6 2.266 . S
In0 O7 2.326 . S
In0 O8 2.266 . S
In0 O9 2.326 . S
In0 O11 2.294 . S
In0 O12 2.326 . S
O1 In0 2.294 . S
O1 C10 1.240 . S
O2 In0 2.326 . S
O2 C10 1.252 . S
C3 O6 1.252 . S
C3 O7 1.260 . S
C4 O11 1.240 . S
C4 O12 1.252 . S
C5 O8 1.252 . S
C5 O9 1.260 . S
O6 In0 2.266 . S
O6 C3 1.252 . S
O7 In0 2.326 . S
O7 C3 1.260 . S
O8 In0 2.266 . S
O8 C5 1.252 . S
O9 In0 2.326 . S
O9 C5 1.260 . S
C10 O1 1.240 . S
C10 O2 1.252 . S
O11 In0 2.294 . S
O11 C4 1.240 . S
O12 In0 2.326 . S
O12 C4 1.252 . S
In13 O14 2.294 . S
In13 O15 2.326 . S
In13 O19 2.266 . S
In13 O20 2.326 . S
In13 O21 2.266 . S
In13 O22 2.326 . S
In13 O24 2.294 . S
In13 O25 2.326 . S
O14 In13 2.294 . S
O14 C23 1.240 . S
O15 In13 2.326 . S
O15 C23 1.252 . S
C16 O19 1.252 . S
C16 O20 1.260 . S
C17 O24 1.240 . S
C17 O25 1.252 . S
C18 O21 1.252 . S
C18 O22 1.260 . S
O19 In13 2.266 . S
O19 C16 1.252 . S
O20 In13 2.326 . S
O20 C16 1.260 . S
O21 In13 2.266 . S
O21 C18 1.252 . S
O22 In13 2.326 . S
O22 C18 1.260 . S
C23 O14 1.240 . S
C23 O15 1.252 . S
O24 In13 2.294 . S
O24 C17 1.240 . S
O25 In13 2.326 . S
O25 C17 1.252 . S
In26 O27 2.294 . S
In26 O28 2.326 . S
In26 O32 2.266 . S
In26 O33 2.326 . S
In26 O34 2.266 1_556 S
In26 O35 2.326 1_556 S
In26 O37 2.294 . S
In26 O38 2.326 . S
O27 In26 2.294 . S
O27 C36 1.240 . S
O28 In26 2.326 . S
O28 C36 1.252 . S
C29 O32 1.252 . S
C29 O33 1.260 . S
C30 O37 1.240 . S
C30 O38 1.252 . S
C31 O34 1.252 . S
C31 O35 1.260 . S
O32 In26 2.266 . S
O32 C29 1.252 . S
O33 In26 2.326 . S
O33 C29 1.260 . S
O34 In26 2.266 1_554 S
O34 C31 1.252 . S
O35 In26 2.326 1_554 S
O35 C31 1.260 . S
C36 O27 1.240 . S
C36 O28 1.252 . S
O37 In26 2.294 . S
O37 C30 1.240 . S
O38 In26 2.326 . S
O38 C30 1.252 . S
In39 O40 2.294 . S
In39 O41 2.326 . S
In39 O45 2.266 1_556 S
In39 O46 2.326 1_556 S
In39 O47 2.266 . S
In39 O48 2.326 . S
In39 O50 2.294 . S
In39 O51 2.326 . S
O40 In39 2.294 . S
O40 C49 1.240 . S
O41 In39 2.326 . S
O41 C49 1.252 . S
C42 O45 1.252 . S
C42 O46 1.260 . S
C43 O50 1.240 . S
C43 O51 1.252 . S
C44 O47 1.252 . S
C44 O48 1.260 . S
O45 In39 2.266 1_554 S
O45 C42 1.252 . S
O46 In39 2.326 1_554 S
O46 C42 1.260 . S
O47 In39 2.266 . S
O47 C44 1.252 . S
O48 In39 2.326 . S
O48 C44 1.260 . S
C49 O40 1.240 . S
C49 O41 1.252 . S
O50 In39 2.294 . S
O50 C43 1.240 . S
O51 In39 2.326 . S
O51 C43 1.252 . S
In52 O53 2.294 . S
In52 O54 2.326 . S
In52 O58 2.266 . S
In52 O59 2.326 . S
In52 O60 2.266 . S
In52 O61 2.326 . S
In52 O63 2.294 . S
In52 O64 2.326 . S
O53 In52 2.294 . S
O53 C62 1.240 . S
O54 In52 2.326 . S
O54 C62 1.252 . S
C55 O58 1.252 . S
C55 O59 1.260 . S
C56 O63 1.240 . S
C56 O64 1.252 . S
C57 O60 1.252 . S
C57 O61 1.260 . S
O58 In52 2.266 . S
O58 C55 1.252 . S
O59 In52 2.326 . S
O59 C55 1.260 . S
O60 In52 2.266 . S
O60 C57 1.252 . S
O61 In52 2.326 . S
O61 C57 1.260 . S
C62 O53 1.240 . S
C62 O54 1.252 . S
O63 In52 2.294 . S
O63 C56 1.240 . S
O64 In52 2.326 . S
O64 C56 1.252 . S
In65 O66 2.294 . S
In65 O67 2.326 . S
In65 O71 2.266 . S
In65 O72 2.326 . S
In65 O73 2.266 . S
In65 O74 2.326 . S
In65 O76 2.294 . S
In65 O77 2.326 . S
O66 In65 2.294 . S
O66 C75 1.240 . S
O67 In65 2.326 . S
O67 C75 1.252 . S
C68 O71 1.252 . S
C68 O72 1.260 . S
C69 O76 1.240 . S
C69 O77 1.252 . S
C70 O73 1.252 . S
C70 O74 1.260 . S
O71 In65 2.266 . S
O71 C68 1.252 . S
O72 In65 2.326 . S
O72 C68 1.260 . S
O73 In65 2.266 . S
O73 C70 1.252 . S
O74 In65 2.326 . S
O74 C70 1.260 . S
C75 O66 1.240 . S
C75 O67 1.252 . S
O76 In65 2.294 . S
O76 C69 1.240 . S
O77 In65 2.326 . S
O77 C69 1.252 . S
In78 O79 2.294 . S
In78 O80 2.326 . S
In78 O84 2.266 1_554 S
In78 O85 2.326 1_554 S
In78 O86 2.266 . S
In78 O87 2.326 . S
In78 O89 2.294 . S
In78 O90 2.326 . S
O79 In78 2.294 . S
O79 C88 1.240 . S
O80 In78 2.326 . S
O80 C88 1.252 . S
C81 O84 1.252 . S
C81 O85 1.260 . S
C82 O89 1.240 . S
C82 O90 1.252 . S
C83 O86 1.252 . S
C83 O87 1.260 . S
O84 In78 2.266 1_556 S
O84 C81 1.252 . S
O85 In78 2.326 1_556 S
O85 C81 1.260 . S
O86 In78 2.266 . S
O86 C83 1.252 . S
O87 In78 2.326 . S
O87 C83 1.260 . S
C88 O79 1.240 . S
C88 O80 1.252 . S
O89 In78 2.294 . S
O89 C82 1.240 . S
O90 In78 2.326 . S
O90 C82 1.252 . S
In91 O92 2.294 . S
In91 O93 2.326 . S
In91 O97 2.266 1_554 S
In91 O98 2.326 1_554 S
In91 O99 2.266 . S
In91 O100 2.326 . S
In91 O102 2.294 . S
In91 O103 2.326 . S
O92 In91 2.294 . S
O92 C101 1.240 . S
O93 In91 2.326 . S
O93 C101 1.252 . S
C94 O97 1.252 . S
C94 O98 1.260 . S
C95 O102 1.240 . S
C95 O103 1.252 . S
C96 O99 1.252 . S
C96 O100 1.260 . S
O97 In91 2.266 1_556 S
O97 C94 1.252 . S
O98 In91 2.326 1_556 S
O98 C94 1.260 . S
O99 In91 2.266 . S
O99 C96 1.252 . S
O100 In91 2.326 . S
O100 C96 1.260 . S
C101 O92 1.240 . S
C101 O93 1.252 . S
O102 In91 2.294 . S
O102 C95 1.240 . S
O103 In91 2.326 . S
O103 C95 1.252 . S
In104 O105 2.294 . S
In104 O106 2.326 . S
In104 O110 2.266 . S
In104 O111 2.326 . S
In104 O112 2.266 . S
In104 O113 2.326 . S
In104 O115 2.294 . S
In104 O116 2.326 . S
O105 In104 2.294 . S
O105 C114 1.240 . S
O106 In104 2.326 . S
O106 C114 1.252 . S
C107 O110 1.252 . S
C107 O111 1.260 . S
C108 O115 1.240 . S
C108 O116 1.252 . S
C109 O112 1.252 . S
C109 O113 1.260 . S
O110 In104 2.266 . S
O110 C107 1.252 . S
O111 In104 2.326 . S
O111 C107 1.260 . S
O112 In104 2.266 . S
O112 C109 1.252 . S
O113 In104 2.326 . S
O113 C109 1.260 . S
C114 O105 1.240 . S
C114 O106 1.252 . S
O115 In104 2.294 . S
O115 C108 1.240 . S
O116 In104 2.326 . S
O116 C108 1.252 . S
In117 O118 2.294 . S
In117 O119 2.326 . S
In117 O123 2.266 . S
In117 O124 2.326 . S
In117 O125 2.266 . S
In117 O126 2.326 . S
In117 O128 2.294 . S
In117 O129 2.326 . S
O118 In117 2.294 . S
O118 C127 1.240 . S
O119 In117 2.326 . S
O119 C127 1.252 . S
C120 O123 1.252 . S
C120 O124 1.260 . S
C121 O128 1.240 . S
C121 O129 1.252 . S
C122 O125 1.252 . S
C122 O126 1.260 . S
O123 In117 2.266 . S
O123 C120 1.252 . S
O124 In117 2.326 . S
O124 C120 1.260 . S
O125 In117 2.266 . S
O125 C122 1.252 . S
O126 In117 2.326 . S
O126 C122 1.260 . S
C127 O118 1.240 . S
C127 O119 1.252 . S
O128 In117 2.294 . S
O128 C121 1.240 . S
O129 In117 2.326 . S
O129 C121 1.252 . S
In130 O131 2.294 . S
In130 O132 2.326 . S
In130 O136 2.266 . S
In130 O137 2.326 . S
In130 O138 2.266 . S
In130 O139 2.326 . S
In130 O141 2.294 . S
In130 O142 2.326 . S
O131 In130 2.294 . S
O131 C140 1.240 . S
O132 In130 2.326 . S
O132 C140 1.252 . S
C133 O136 1.252 . S
C133 O137 1.260 . S
C134 O141 1.240 . S
C134 O142 1.252 . S
C135 O138 1.252 . S
C135 O139 1.260 . S
O136 In130 2.266 . S
O136 C133 1.252 . S
O137 In130 2.326 . S
O137 C133 1.260 . S
O138 In130 2.266 . S
O138 C135 1.252 . S
O139 In130 2.326 . S
O139 C135 1.260 . S
C140 O131 1.240 . S
C140 O132 1.252 . S
O141 In130 2.294 . S
O141 C134 1.240 . S
O142 In130 2.326 . S
O142 C134 1.252 . S
In143 O144 2.294 . S
In143 O145 2.326 . S
In143 O149 2.266 . S
In143 O150 2.326 . S
In143 O151 2.266 . S
In143 O152 2.326 . S
In143 O154 2.294 . S
In143 O155 2.326 . S
O144 In143 2.294 . S
O144 C153 1.240 . S
O145 In143 2.326 . S
O145 C153 1.252 . S
C146 O149 1.252 . S
C146 O150 1.260 . S
C147 O154 1.240 . S
C147 O155 1.252 . S
C148 O151 1.252 . S
C148 O152 1.260 . S
O149 In143 2.266 . S
O149 C146 1.252 . S
O150 In143 2.326 . S
O150 C146 1.260 . S
O151 In143 2.266 . S
O151 C148 1.252 . S
O152 In143 2.326 . S
O152 C148 1.260 . S
C153 O144 1.240 . S
C153 O145 1.252 . S
O154 In143 2.294 . S
O154 C147 1.240 . S
O155 In143 2.326 . S
O155 C147 1.252 . S
In156 O157 2.294 . S
In156 O158 2.326 . S
In156 O162 2.266 . S
In156 O163 2.326 . S
In156 O164 2.266 . S
In156 O165 2.326 . S
In156 O167 2.294 . S
In156 O168 2.326 . S
O157 In156 2.294 . S
O157 C166 1.240 . S
O158 In156 2.326 . S
O158 C166 1.252 . S
C159 O162 1.252 . S
C159 O163 1.260 . S
C160 O167 1.240 . S
C160 O168 1.252 . S
C161 O164 1.252 . S
C161 O165 1.260 . S
O162 In156 2.266 . S
O162 C159 1.252 . S
O163 In156 2.326 . S
O163 C159 1.260 . S
O164 In156 2.266 . S
O164 C161 1.252 . S
O165 In156 2.326 . S
O165 C161 1.260 . S
C166 O157 1.240 . S
C166 O158 1.252 . S
O167 In156 2.294 . S
O167 C160 1.240 . S
O168 In156 2.326 . S
O168 C160 1.252 . S
In169 O170 2.294 . S
In169 O171 2.326 . S
In169 O175 2.266 . S
In169 O176 2.326 . S
In169 O177 2.266 . S
In169 O178 2.326 . S
In169 O180 2.294 . S
In169 O181 2.326 . S
O170 In169 2.294 . S
O170 C179 1.240 . S
O171 In169 2.326 . S
O171 C179 1.252 . S
C172 O175 1.252 . S
C172 O176 1.260 . S
C173 O180 1.240 . S
C173 O181 1.252 . S
C174 O177 1.252 . S
C174 O178 1.260 . S
O175 In169 2.266 . S
O175 C172 1.252 . S
O176 In169 2.326 . S
O176 C172 1.260 . S
O177 In169 2.266 . S
O177 C174 1.252 . S
O178 In169 2.326 . S
O178 C174 1.260 . S
C179 O170 1.240 . S
C179 O171 1.252 . S
O180 In169 2.294 . S
O180 C173 1.240 . S
O181 In169 2.326 . S
O181 C173 1.252 . S
In182 O183 2.294 . S
In182 O184 2.326 . S
In182 O188 2.266 . S
In182 O189 2.326 . S
In182 O190 2.266 . S
In182 O191 2.326 . S
In182 O193 2.294 . S
In182 O194 2.326 . S
O183 In182 2.294 . S
O183 C192 1.240 . S
O184 In182 2.326 . S
O184 C192 1.252 . S
C185 O188 1.252 . S
C185 O189 1.260 . S
C186 O193 1.240 . S
C186 O194 1.252 . S
C187 O190 1.252 . S
C187 O191 1.260 . S
O188 In182 2.266 . S
O188 C185 1.252 . S
O189 In182 2.326 . S
O189 C185 1.260 . S
O190 In182 2.266 . S
O190 C187 1.252 . S
O191 In182 2.326 . S
O191 C187 1.260 . S
C192 O183 1.240 . S
C192 O184 1.252 . S
O193 In182 2.294 . S
O193 C186 1.240 . S
O194 In182 2.326 . S
O194 C186 1.252 . S
In195 O196 2.294 . S
In195 O197 2.326 . S
In195 O201 2.266 . S
In195 O202 2.326 . S
In195 O203 2.266 . S
In195 O204 2.326 . S
In195 O206 2.294 . S
In195 O207 2.326 . S
O196 In195 2.294 . S
O196 C205 1.240 . S
O197 In195 2.326 . S
O197 C205 1.252 . S
C198 O201 1.252 . S
C198 O202 1.260 . S
C199 O206 1.240 . S
C199 O207 1.252 . S
C200 O203 1.252 . S
C200 O204 1.260 . S
O201 In195 2.266 . S
O201 C198 1.252 . S
O202 In195 2.326 . S
O202 C198 1.260 . S
O203 In195 2.266 . S
O203 C200 1.252 . S
O204 In195 2.326 . S
O204 C200 1.260 . S
C205 O196 1.240 . S
C205 O197 1.252 . S
O206 In195 2.294 . S
O206 C199 1.240 . S
O207 In195 2.326 . S
O207 C199 1.252 . S
In208 O209 2.294 . S
In208 O210 2.326 . S
In208 O214 2.266 . S
In208 O215 2.326 . S
In208 O216 2.266 . S
In208 O217 2.326 . S
In208 O219 2.294 . S
In208 O220 2.326 . S
O209 In208 2.294 . S
O209 C218 1.240 . S
O210 In208 2.326 . S
O210 C218 1.252 . S
C211 O214 1.252 . S
C211 O215 1.260 . S
C212 O219 1.240 . S
C212 O220 1.252 . S
C213 O216 1.252 . S
C213 O217 1.260 . S
O214 In208 2.266 . S
O214 C211 1.252 . S
O215 In208 2.326 . S
O215 C211 1.260 . S
O216 In208 2.266 . S
O216 C213 1.252 . S
O217 In208 2.326 . S
O217 C213 1.260 . S
C218 O209 1.240 . S
C218 O210 1.252 . S
O219 In208 2.294 . S
O219 C212 1.240 . S
O220 In208 2.326 . S
O220 C212 1.252 . S
In221 O222 2.294 . S
In221 O223 2.326 . S
In221 O227 2.266 . S
In221 O228 2.326 . S
In221 O229 2.266 . S
In221 O230 2.326 . S
In221 O232 2.294 . S
In221 O233 2.326 . S
O222 In221 2.294 . S
O222 C231 1.240 . S
O223 In221 2.326 . S
O223 C231 1.252 . S
C224 O227 1.252 . S
C224 O228 1.260 . S
C225 O232 1.240 . S
C225 O233 1.252 . S
C226 O229 1.252 . S
C226 O230 1.260 . S
O227 In221 2.266 . S
O227 C224 1.252 . S
O228 In221 2.326 . S
O228 C224 1.260 . S
O229 In221 2.266 . S
O229 C226 1.252 . S
O230 In221 2.326 . S
O230 C226 1.260 . S
C231 O222 1.240 . S
C231 O223 1.252 . S
O232 In221 2.294 . S
O232 C225 1.240 . S
O233 In221 2.326 . S
O233 C225 1.252 . S
In234 O235 2.294 . S
In234 O236 2.326 . S
In234 O240 2.266 . S
In234 O241 2.326 . S
In234 O242 2.266 . S
In234 O243 2.326 . S
In234 O245 2.294 . S
In234 O246 2.326 . S
O235 In234 2.294 . S
O235 C244 1.240 . S
O236 In234 2.326 . S
O236 C244 1.252 . S
C237 O240 1.252 . S
C237 O241 1.260 . S
C238 O245 1.240 . S
C238 O246 1.252 . S
C239 O242 1.252 . S
C239 O243 1.260 . S
O240 In234 2.266 . S
O240 C237 1.252 . S
O241 In234 2.326 . S
O241 C237 1.260 . S
O242 In234 2.266 . S
O242 C239 1.252 . S
O243 In234 2.326 . S
O243 C239 1.260 . S
C244 O235 1.240 . S
C244 O236 1.252 . S
O245 In234 2.294 . S
O245 C238 1.240 . S
O246 In234 2.326 . S
O246 C238 1.252 . S
In247 O248 2.294 . S
In247 O249 2.326 . S
In247 O253 2.266 . S
In247 O254 2.326 . S
In247 O255 2.266 . S
In247 O256 2.326 . S
In247 O258 2.294 . S
In247 O259 2.326 . S
O248 In247 2.294 . S
O248 C257 1.240 . S
O249 In247 2.326 . S
O249 C257 1.252 . S
C250 O253 1.252 . S
C250 O254 1.260 . S
C251 O258 1.240 . S
C251 O259 1.252 . S
C252 O255 1.252 . S
C252 O256 1.260 . S
O253 In247 2.266 . S
O253 C250 1.252 . S
O254 In247 2.326 . S
O254 C250 1.260 . S
O255 In247 2.266 . S
O255 C252 1.252 . S
O256 In247 2.326 . S
O256 C252 1.260 . S
C257 O248 1.240 . S
C257 O249 1.252 . S
O258 In247 2.294 . S
O258 C251 1.240 . S
O259 In247 2.326 . S
O259 C251 1.252 . S
In260 O261 2.294 . S
In260 O262 2.326 . S
In260 O266 2.266 . S
In260 O267 2.326 . S
In260 O268 2.266 . S
In260 O269 2.326 . S
In260 O271 2.294 . S
In260 O272 2.326 . S
O261 In260 2.294 . S
O261 C270 1.240 . S
O262 In260 2.326 . S
O262 C270 1.252 . S
C263 O266 1.252 . S
C263 O267 1.260 . S
C264 O271 1.240 . S
C264 O272 1.252 . S
C265 O268 1.252 . S
C265 O269 1.260 . S
O266 In260 2.266 . S
O266 C263 1.252 . S
O267 In260 2.326 . S
O267 C263 1.260 . S
O268 In260 2.266 . S
O268 C265 1.252 . S
O269 In260 2.326 . S
O269 C265 1.260 . S
C270 O261 1.240 . S
C270 O262 1.252 . S
O271 In260 2.294 . S
O271 C264 1.240 . S
O272 In260 2.326 . S
O272 C264 1.252 . S
In273 O274 2.294 . S
In273 O275 2.326 . S
In273 O279 2.266 . S
In273 O280 2.326 . S
In273 O281 2.266 . S
In273 O282 2.326 . S
In273 O284 2.294 . S
In273 O285 2.326 . S
O274 In273 2.294 . S
O274 C283 1.240 . S
O275 In273 2.326 . S
O275 C283 1.252 . S
C276 O279 1.252 . S
C276 O280 1.260 . S
C277 O284 1.240 . S
C277 O285 1.252 . S
C278 O281 1.252 . S
C278 O282 1.260 . S
O279 In273 2.266 . S
O279 C276 1.252 . S
O280 In273 2.326 . S
O280 C276 1.260 . S
O281 In273 2.266 . S
O281 C278 1.252 . S
O282 In273 2.326 . S
O282 C278 1.260 . S
C283 O274 1.240 . S
C283 O275 1.252 . S
O284 In273 2.294 . S
O284 C277 1.240 . S
O285 In273 2.326 . S
O285 C277 1.252 . S
In286 O287 2.294 . S
In286 O288 2.326 . S
In286 O292 2.266 . S
In286 O293 2.326 . S
In286 O294 2.266 . S
In286 O295 2.326 . S
In286 O297 2.294 . S
In286 O298 2.326 . S
O287 In286 2.294 . S
O287 C296 1.240 . S
O288 In286 2.326 . S
O288 C296 1.252 . S
C289 O292 1.252 . S
C289 O293 1.260 . S
C290 O297 1.240 . S
C290 O298 1.252 . S
C291 O294 1.252 . S
C291 O295 1.260 . S
O292 In286 2.266 . S
O292 C289 1.252 . S
O293 In286 2.326 . S
O293 C289 1.260 . S
O294 In286 2.266 . S
O294 C291 1.252 . S
O295 In286 2.326 . S
O295 C291 1.260 . S
C296 O287 1.240 . S
C296 O288 1.252 . S
O297 In286 2.294 . S
O297 C290 1.240 . S
O298 In286 2.326 . S
O298 C290 1.252 . S
In299 O300 2.294 . S
In299 O301 2.326 . S
In299 O305 2.266 . S
In299 O306 2.326 . S
In299 O307 2.266 . S
In299 O308 2.326 . S
In299 O310 2.294 . S
In299 O311 2.326 . S
O300 In299 2.294 . S
O300 C309 1.240 . S
O301 In299 2.326 . S
O301 C309 1.252 . S
C302 O305 1.252 . S
C302 O306 1.260 . S
C303 O310 1.240 . S
C303 O311 1.252 . S
C304 O307 1.252 . S
C304 O308 1.260 . S
O305 In299 2.266 . S
O305 C302 1.252 . S
O306 In299 2.326 . S
O306 C302 1.260 . S
O307 In299 2.266 . S
O307 C304 1.252 . S
O308 In299 2.326 . S
O308 C304 1.260 . S
C309 O300 1.240 . S
C309 O301 1.252 . S
O310 In299 2.294 . S
O310 C303 1.240 . S
O311 In299 2.326 . S
O311 C303 1.252 . S
In312 O313 2.294 . S
In312 O314 2.326 . S
In312 O318 2.266 . S
In312 O319 2.326 . S
In312 O320 2.266 . S
In312 O321 2.326 . S
In312 O323 2.294 . S
In312 O324 2.326 . S
O313 In312 2.294 . S
O313 C322 1.240 . S
O314 In312 2.326 . S
O314 C322 1.252 . S
C315 O318 1.252 . S
C315 O319 1.260 . S
C316 O323 1.240 . S
C316 O324 1.252 . S
C317 O320 1.252 . S
C317 O321 1.260 . S
O318 In312 2.266 . S
O318 C315 1.252 . S
O319 In312 2.326 . S
O319 C315 1.260 . S
O320 In312 2.266 . S
O320 C317 1.252 . S
O321 In312 2.326 . S
O321 C317 1.260 . S
C322 O313 1.240 . S
C322 O314 1.252 . S
O323 In312 2.294 . S
O323 C316 1.240 . S
O324 In312 2.326 . S
O324 C316 1.252 . S
In325 O326 2.294 . S
In325 O327 2.326 . S
In325 O331 2.266 . S
In325 O332 2.326 . S
In325 O333 2.266 . S
In325 O334 2.326 . S
In325 O336 2.294 . S
In325 O337 2.326 . S
O326 In325 2.294 . S
O326 C335 1.240 . S
O327 In325 2.326 . S
O327 C335 1.252 . S
C328 O331 1.252 . S
C328 O332 1.260 . S
C329 O336 1.240 . S
C329 O337 1.252 . S
C330 O333 1.252 . S
C330 O334 1.260 . S
O331 In325 2.266 . S
O331 C328 1.252 . S
O332 In325 2.326 . S
O332 C328 1.260 . S
O333 In325 2.266 . S
O333 C330 1.252 . S
O334 In325 2.326 . S
O334 C330 1.260 . S
C335 O326 1.240 . S
C335 O327 1.252 . S
O336 In325 2.294 . S
O336 C329 1.240 . S
O337 In325 2.326 . S
O337 C329 1.252 . S
In338 O339 2.294 . S
In338 O340 2.326 . S
In338 O344 2.266 1_556 S
In338 O345 2.326 1_556 S
In338 O346 2.266 . S
In338 O347 2.326 . S
In338 O349 2.294 . S
In338 O350 2.326 . S
O339 In338 2.294 . S
O339 C348 1.240 . S
O340 In338 2.326 . S
O340 C348 1.252 . S
C341 O344 1.252 . S
C341 O345 1.260 . S
C342 O349 1.240 . S
C342 O350 1.252 . S
C343 O346 1.252 . S
C343 O347 1.260 . S
O344 In338 2.266 1_554 S
O344 C341 1.252 . S
O345 In338 2.326 1_554 S
O345 C341 1.260 . S
O346 In338 2.266 . S
O346 C343 1.252 . S
O347 In338 2.326 . S
O347 C343 1.260 . S
C348 O339 1.240 . S
C348 O340 1.252 . S
O349 In338 2.294 . S
O349 C342 1.240 . S
O350 In338 2.326 . S
O350 C342 1.252 . S
In351 O352 2.294 . S
In351 O353 2.326 . S
In351 O357 2.266 1_556 S
In351 O358 2.326 1_556 S
In351 O359 2.266 . S
In351 O360 2.326 . S
In351 O362 2.294 . S
In351 O363 2.326 . S
O352 In351 2.294 . S
O352 C361 1.240 . S
O353 In351 2.326 . S
O353 C361 1.252 . S
C354 O357 1.252 . S
C354 O358 1.260 . S
C355 O362 1.240 . S
C355 O363 1.252 . S
C356 O359 1.252 . S
C356 O360 1.260 . S
O357 In351 2.266 1_554 S
O357 C354 1.252 . S
O358 In351 2.326 1_554 S
O358 C354 1.260 . S
O359 In351 2.266 . S
O359 C356 1.252 . S
O360 In351 2.326 . S
O360 C356 1.260 . S
C361 O352 1.240 . S
C361 O353 1.252 . S
O362 In351 2.294 . S
O362 C355 1.240 . S
O363 In351 2.326 . S
O363 C355 1.252 . S
In364 O365 2.294 . S
In364 O366 2.326 . S
In364 O370 2.266 . S
In364 O371 2.326 . S
In364 O372 2.266 . S
In364 O373 2.326 . S
In364 O375 2.294 . S
In364 O376 2.326 . S
O365 In364 2.294 . S
O365 C374 1.240 . S
O366 In364 2.326 . S
O366 C374 1.252 . S
C367 O370 1.252 . S
C367 O371 1.260 . S
C368 O375 1.240 . S
C368 O376 1.252 . S
C369 O372 1.252 . S
C369 O373 1.260 . S
O370 In364 2.266 . S
O370 C367 1.252 . S
O371 In364 2.326 . S
O371 C367 1.260 . S
O372 In364 2.266 . S
O372 C369 1.252 . S
O373 In364 2.326 . S
O373 C369 1.260 . S
C374 O365 1.240 . S
C374 O366 1.252 . S
O375 In364 2.294 . S
O375 C368 1.240 . S
O376 In364 2.326 . S
O376 C368 1.252 . S
In377 O378 2.294 . S
In377 O379 2.326 . S
In377 O383 2.266 . S
In377 O384 2.326 . S
In377 O385 2.266 . S
In377 O386 2.326 . S
In377 O388 2.294 . S
In377 O389 2.326 . S
O378 In377 2.294 . S
O378 C387 1.240 . S
O379 In377 2.326 . S
O379 C387 1.252 . S
C380 O383 1.252 . S
C380 O384 1.260 . S
C381 O388 1.240 . S
C381 O389 1.252 . S
C382 O385 1.252 . S
C382 O386 1.260 . S
O383 In377 2.266 . S
O383 C380 1.252 . S
O384 In377 2.326 . S
O384 C380 1.260 . S
O385 In377 2.266 . S
O385 C382 1.252 . S
O386 In377 2.326 . S
O386 C382 1.260 . S
C387 O378 1.240 . S
C387 O379 1.252 . S
O388 In377 2.294 . S
O388 C381 1.240 . S
O389 In377 2.326 . S
O389 C381 1.252 . S
In390 O391 2.294 . S
In390 O392 2.326 . S
In390 O396 2.266 1_554 S
In390 O397 2.326 1_554 S
In390 O398 2.266 . S
In390 O399 2.326 . S
In390 O401 2.294 . S
In390 O402 2.326 . S
O391 In390 2.294 . S
O391 C400 1.240 . S
O392 In390 2.326 . S
O392 C400 1.252 . S
C393 O396 1.252 . S
C393 O397 1.260 . S
C394 O401 1.240 . S
C394 O402 1.252 . S
C395 O398 1.252 . S
C395 O399 1.260 . S
O396 In390 2.266 1_556 S
O396 C393 1.252 . S
O397 In390 2.326 1_556 S
O397 C393 1.260 . S
O398 In390 2.266 . S
O398 C395 1.252 . S
O399 In390 2.326 . S
O399 C395 1.260 . S
C400 O391 1.240 . S
C400 O392 1.252 . S
O401 In390 2.294 . S
O401 C394 1.240 . S
O402 In390 2.326 . S
O402 C394 1.252 . S
In403 O404 2.294 . S
In403 O405 2.326 . S
In403 O409 2.266 . S
In403 O410 2.326 . S
In403 O411 2.266 1_554 S
In403 O412 2.326 1_554 S
In403 O414 2.294 . S
In403 O415 2.326 . S
O404 In403 2.294 . S
O404 C413 1.240 . S
O405 In403 2.326 . S
O405 C413 1.252 . S
C406 O409 1.252 . S
C406 O410 1.260 . S
C407 O414 1.240 . S
C407 O415 1.252 . S
C408 O411 1.252 . S
C408 O412 1.260 . S
O409 In403 2.266 . S
O409 C406 1.252 . S
O410 In403 2.326 . S
O410 C406 1.260 . S
O411 In403 2.266 1_556 S
O411 C408 1.252 . S
O412 In403 2.326 1_556 S
O412 C408 1.260 . S
C413 O404 1.240 . S
C413 O405 1.252 . S
O414 In403 2.294 . S
O414 C407 1.240 . S
O415 In403 2.326 . S
O415 C407 1.252 . S
H416 C422 0.930 . S
H417 C426 0.930 . S
H418 C431 0.929 . S
H419 C429 0.929 . S
H420 C424 0.929 . S
H421 C430 0.929 . S
C422 H416 0.930 . S
C422 C423 1.367 . S
C422 C430 1.378 . S
C423 C422 1.367 . S
C423 C431 1.433 . S
C424 H420 0.929 . S
C424 C426 1.378 . S
C424 C428 1.350 . S
C425 C428 1.463 . S
C425 C430 1.350 . S
C425 N433 1.427 . S
C426 H417 0.930 . S
C426 C424 1.378 . S
C426 C427 1.367 . S
C427 C426 1.367 . S
C427 C429 1.433 . S
C428 C424 1.350 . S
C428 C425 1.463 . S
C428 N432 1.427 . S
C429 H419 0.929 . S
C429 C427 1.433 . S
C429 N432 1.384 . S
C430 H421 0.929 . S
C430 C422 1.378 . S
C430 C425 1.350 . S
C431 H418 0.929 . S
C431 C423 1.433 . S
C431 N433 1.384 . S
N432 C428 1.427 . S
N432 C429 1.384 . S
N433 C425 1.427 . S
N433 C431 1.384 . S
H434 C440 0.930 . S
H435 C444 0.930 . S
H436 C449 0.929 . S
H437 C447 0.929 . S
H438 C442 0.929 . S
H439 C448 0.929 . S
C440 H434 0.930 . S
C440 C441 1.367 . S
C440 C448 1.378 . S
C441 C440 1.367 . S
C441 C449 1.433 . S
C442 H438 0.929 . S
C442 C444 1.378 . S
C442 C446 1.350 . S
C443 C446 1.463 . S
C443 C448 1.350 . S
C443 N451 1.427 . S
C444 H435 0.930 . S
C444 C442 1.378 . S
C444 C445 1.367 . S
C445 C444 1.367 . S
C445 C447 1.433 . S
C446 C442 1.350 . S
C446 C443 1.463 . S
C446 N450 1.427 . S
C447 H437 0.929 . S
C447 C445 1.433 . S
C447 N450 1.384 . S
C448 H439 0.929 . S
C448 C440 1.378 . S
C448 C443 1.350 . S
C449 H436 0.929 . S
C449 C441 1.433 . S
C449 N451 1.384 . S
N450 C446 1.427 . S
N450 C447 1.384 . S
N451 C443 1.427 . S
N451 C449 1.384 . S
H452 C458 0.930 . S
H453 C462 0.930 . S
H454 C467 0.929 . S
H455 C465 0.929 . S
H456 C460 0.929 . S
H457 C466 0.929 . S
C458 H452 0.930 . S
C458 C459 1.367 . S
C458 C466 1.378 . S
C459 C458 1.367 . S
C459 C467 1.433 . S
C460 H456 0.929 . S
C460 C462 1.378 . S
C460 C464 1.350 . S
C461 C464 1.463 . S
C461 C466 1.350 . S
C461 N469 1.427 . S
C462 H453 0.930 . S
C462 C460 1.378 . S
C462 C463 1.367 . S
C463 C462 1.367 . S
C463 C465 1.433 . S
C464 C460 1.350 . S
C464 C461 1.463 . S
C464 N468 1.427 . S
C465 H455 0.929 . S
C465 C463 1.433 . S
C465 N468 1.384 . S
C466 H457 0.929 . S
C466 C458 1.378 . S
C466 C461 1.350 . S
C467 H454 0.929 . S
C467 C459 1.433 . S
C467 N469 1.384 . S
N468 C464 1.427 . S
N468 C465 1.384 . S
N469 C461 1.427 . S
N469 C467 1.384 . S
H470 C476 0.930 . S
H471 C480 0.930 . S
H472 C485 0.929 . S
H473 C483 0.929 . S
H474 C478 0.929 . S
H475 C484 0.929 . S
C476 H470 0.930 . S
C476 C477 1.367 . S
C476 C484 1.378 . S
C477 C476 1.367 . S
C477 C485 1.433 . S
C478 H474 0.929 . S
C478 C480 1.378 . S
C478 C482 1.350 . S
C479 C482 1.463 . S
C479 C484 1.350 . S
C479 N487 1.427 . S
C480 H471 0.930 . S
C480 C478 1.378 . S
C480 C481 1.367 . S
C481 C480 1.367 . S
C481 C483 1.433 . S
C482 C478 1.350 . S
C482 C479 1.463 . S
C482 N486 1.427 . S
C483 H473 0.929 . S
C483 C481 1.433 . S
C483 N486 1.384 . S
C484 H475 0.929 . S
C484 C476 1.378 . S
C484 C479 1.350 . S
C485 H472 0.929 . S
C485 C477 1.433 . S
C485 N487 1.384 . S
N486 C482 1.427 . S
N486 C483 1.384 . S
N487 C479 1.427 . S
N487 C485 1.384 . S
H488 C494 0.930 . S
H489 C498 0.930 . S
H490 C503 0.929 . S
H491 C501 0.929 . S
H492 C496 0.929 . S
H493 C502 0.929 . S
C494 H488 0.930 . S
C494 C495 1.367 . S
C494 C502 1.378 . S
C495 C494 1.367 . S
C495 C503 1.433 . S
C496 H492 0.929 . S
C496 C498 1.378 . S
C496 C500 1.350 . S
C497 C500 1.463 . S
C497 C502 1.350 . S
C497 N505 1.427 . S
C498 H489 0.930 . S
C498 C496 1.378 . S
C498 C499 1.367 . S
C499 C498 1.367 . S
C499 C501 1.433 . S
C500 C496 1.350 . S
C500 C497 1.463 . S
C500 N504 1.427 . S
C501 H491 0.929 . S
C501 C499 1.433 . S
C501 N504 1.384 . S
C502 H493 0.929 . S
C502 C494 1.378 . S
C502 C497 1.350 . S
C503 H490 0.929 . S
C503 C495 1.433 . S
C503 N505 1.384 . S
N504 C500 1.427 . S
N504 C501 1.384 . S
N505 C497 1.427 . S
N505 C503 1.384 . S
H506 C512 0.930 . S
H507 C516 0.930 . S
H508 C521 0.929 . S
H509 C519 0.929 . S
H510 C514 0.929 . S
H511 C520 0.929 . S
C512 H506 0.930 . S
C512 C513 1.367 . S
C512 C520 1.378 . S
C513 C512 1.367 . S
C513 C521 1.433 . S
C514 H510 0.929 . S
C514 C516 1.378 . S
C514 C518 1.350 . S
C515 C518 1.463 . S
C515 C520 1.350 . S
C515 N523 1.427 . S
C516 H507 0.930 . S
C516 C514 1.378 . S
C516 C517 1.367 . S
C517 C516 1.367 . S
C517 C519 1.433 . S
C518 C514 1.350 . S
C518 C515 1.463 . S
C518 N522 1.427 . S
C519 H509 0.929 . S
C519 C517 1.433 . S
C519 N522 1.384 . S
C520 H511 0.929 . S
C520 C512 1.378 . S
C520 C515 1.350 . S
C521 H508 0.929 . S
C521 C513 1.433 . S
C521 N523 1.384 . S
N522 C518 1.427 . S
N522 C519 1.384 . S
N523 C515 1.427 . S
N523 C521 1.384 . S
H524 C530 0.930 . S
H525 C534 0.930 . S
H526 C539 0.929 . S
H527 C537 0.929 . S
H528 C532 0.929 . S
H529 C538 0.929 . S
C530 H524 0.930 . S
C530 C531 1.367 . S
C530 C538 1.378 . S
C531 C530 1.367 . S
C531 C539 1.433 . S
C532 H528 0.929 . S
C532 C534 1.378 . S
C532 C536 1.350 . S
C533 C536 1.463 . S
C533 C538 1.350 . S
C533 N541 1.427 . S
C534 H525 0.930 . S
C534 C532 1.378 . S
C534 C535 1.367 . S
C535 C534 1.367 . S
C535 C537 1.433 . S
C536 C532 1.350 . S
C536 C533 1.463 . S
C536 N540 1.427 . S
C537 H527 0.929 . S
C537 C535 1.433 . S
C537 N540 1.384 . S
C538 H529 0.929 . S
C538 C530 1.378 . S
C538 C533 1.350 . S
C539 H526 0.929 . S
C539 C531 1.433 . S
C539 N541 1.384 . S
N540 C536 1.427 . S
N540 C537 1.384 . S
N541 C533 1.427 . S
N541 C539 1.384 . S
H542 C548 0.930 . S
H543 C552 0.930 . S
H544 C557 0.929 . S
H545 C555 0.929 . S
H546 C550 0.929 . S
H547 C556 0.929 . S
C548 H542 0.930 . S
C548 C549 1.367 . S
C548 C556 1.378 . S
C549 C548 1.367 . S
C549 C557 1.433 . S
C550 H546 0.929 . S
C550 C552 1.378 . S
C550 C554 1.350 . S
C551 C554 1.463 . S
C551 C556 1.350 . S
C551 N559 1.427 . S
C552 H543 0.930 . S
C552 C550 1.378 . S
C552 C553 1.367 . S
C553 C552 1.367 . S
C553 C555 1.433 . S
C554 C550 1.350 . S
C554 C551 1.463 . S
C554 N558 1.427 . S
C555 H545 0.929 . S
C555 C553 1.433 . S
C555 N558 1.384 . S
C556 H547 0.929 . S
C556 C548 1.378 . S
C556 C551 1.350 . S
C557 H544 0.929 . S
C557 C549 1.433 . S
C557 N559 1.384 . S
N558 C554 1.427 . S
N558 C555 1.384 . S
N559 C551 1.427 . S
N559 C557 1.384 . S
H560 C566 0.930 . S
H561 C570 0.930 . S
H562 C575 0.929 . S
H563 C573 0.929 . S
H564 C568 0.929 . S
H565 C574 0.929 . S
C566 H560 0.930 . S
C566 C567 1.367 . S
C566 C574 1.378 . S
C567 C566 1.367 . S
C567 C575 1.433 . S
C568 H564 0.929 . S
C568 C570 1.378 . S
C568 C572 1.350 . S
C569 C572 1.463 . S
C569 C574 1.350 . S
C569 N577 1.427 . S
C570 H561 0.930 . S
C570 C568 1.378 . S
C570 C571 1.367 . S
C571 C570 1.367 . S
C571 C573 1.433 . S
C572 C568 1.350 . S
C572 C569 1.463 . S
C572 N576 1.427 . S
C573 H563 0.929 . S
C573 C571 1.433 . S
C573 N576 1.384 . S
C574 H565 0.929 . S
C574 C566 1.378 . S
C574 C569 1.350 . S
C575 H562 0.929 . S
C575 C567 1.433 . S
C575 N577 1.384 . S
N576 C572 1.427 . S
N576 C573 1.384 . S
N577 C569 1.427 . S
N577 C575 1.384 . S
H578 C584 0.930 . S
H579 C588 0.930 . S
H580 C593 0.929 . S
H581 C591 0.929 . S
H582 C586 0.929 . S
H583 C592 0.929 . S
C584 H578 0.930 . S
C584 C585 1.367 . S
C584 C592 1.378 . S
C585 C584 1.367 . S
C585 C593 1.433 . S
C586 H582 0.929 . S
C586 C588 1.378 . S
C586 C590 1.350 . S
C587 C590 1.463 . S
C587 C592 1.350 . S
C587 N595 1.427 . S
C588 H579 0.930 . S
C588 C586 1.378 . S
C588 C589 1.367 . S
C589 C588 1.367 . S
C589 C591 1.433 . S
C590 C586 1.350 . S
C590 C587 1.463 . S
C590 N594 1.427 . S
C591 H581 0.929 . S
C591 C589 1.433 . S
C591 N594 1.384 . S
C592 H583 0.929 . S
C592 C584 1.378 . S
C592 C587 1.350 . S
C593 H580 0.929 . S
C593 C585 1.433 . S
C593 N595 1.384 . S
N594 C590 1.427 . S
N594 C591 1.384 . S
N595 C587 1.427 . S
N595 C593 1.384 . S
H596 C602 0.930 . S
H597 C606 0.930 . S
H598 C611 0.929 . S
H599 C609 0.929 . S
H600 C604 0.929 . S
H601 C610 0.929 . S
C602 H596 0.930 . S
C602 C603 1.367 . S
C602 C610 1.378 . S
C603 C602 1.367 . S
C603 C611 1.433 . S
C604 H600 0.929 . S
C604 C606 1.378 . S
C604 C608 1.350 . S
C605 C608 1.463 . S
C605 C610 1.350 . S
C605 N613 1.427 . S
C606 H597 0.930 . S
C606 C604 1.378 . S
C606 C607 1.367 . S
C607 C606 1.367 . S
C607 C609 1.433 . S
C608 C604 1.350 . S
C608 C605 1.463 . S
C608 N612 1.427 . S
C609 H599 0.929 . S
C609 C607 1.433 . S
C609 N612 1.384 . S
C610 H601 0.929 . S
C610 C602 1.378 . S
C610 C605 1.350 . S
C611 H598 0.929 . S
C611 C603 1.433 . S
C611 N613 1.384 . S
N612 C608 1.427 . S
N612 C609 1.384 . S
N613 C605 1.427 . S
N613 C611 1.384 . S
H614 C620 0.930 . S
H615 C624 0.930 . S
H616 C629 0.929 . S
H617 C627 0.929 . S
H618 C622 0.929 . S
H619 C628 0.929 . S
C620 H614 0.930 . S
C620 C621 1.367 . S
C620 C628 1.378 . S
C621 C620 1.367 . S
C621 C629 1.433 . S
C622 H618 0.929 . S
C622 C624 1.378 . S
C622 C626 1.350 . S
C623 C626 1.463 . S
C623 C628 1.350 . S
C623 N631 1.427 . S
C624 H615 0.930 . S
C624 C622 1.378 . S
C624 C625 1.367 . S
C625 C624 1.367 . S
C625 C627 1.433 . S
C626 C622 1.350 . S
C626 C623 1.463 . S
C626 N630 1.427 . S
C627 H617 0.929 . S
C627 C625 1.433 . S
C627 N630 1.384 . S
C628 H619 0.929 . S
C628 C620 1.378 . S
C628 C623 1.350 . S
C629 H616 0.929 . S
C629 C621 1.433 . S
C629 N631 1.384 . S
N630 C626 1.427 . S
N630 C627 1.384 . S
N631 C623 1.427 . S
N631 C629 1.384 . S
H632 C638 0.930 . S
H633 C642 0.930 . S
H634 C647 0.929 . S
H635 C645 0.929 . S
H636 C640 0.929 . S
H637 C646 0.929 . S
C638 H632 0.930 . S
C638 C639 1.367 . S
C638 C646 1.378 . S
C639 C638 1.367 . S
C639 C647 1.433 . S
C640 H636 0.929 . S
C640 C642 1.378 . S
C640 C644 1.350 . S
C641 C644 1.463 . S
C641 C646 1.350 . S
C641 N649 1.427 . S
C642 H633 0.930 . S
C642 C640 1.378 . S
C642 C643 1.367 . S
C643 C642 1.367 . S
C643 C645 1.433 . S
C644 C640 1.350 . S
C644 C641 1.463 . S
C644 N648 1.427 . S
C645 H635 0.929 . S
C645 C643 1.433 . S
C645 N648 1.384 . S
C646 H637 0.929 . S
C646 C638 1.378 . S
C646 C641 1.350 . S
C647 H634 0.929 . S
C647 C639 1.433 . S
C647 N649 1.384 . S
N648 C644 1.427 . S
N648 C645 1.384 . S
N649 C641 1.427 . S
N649 C647 1.384 . S
H650 C656 0.930 . S
H651 C660 0.930 . S
H652 C665 0.929 . S
H653 C663 0.929 . S
H654 C658 0.929 . S
H655 C664 0.929 . S
C656 H650 0.930 . S
C656 C657 1.367 . S
C656 C664 1.378 . S
C657 C656 1.367 . S
C657 C665 1.433 . S
C658 H654 0.929 . S
C658 C660 1.378 . S
C658 C662 1.350 . S
C659 C662 1.463 . S
C659 C664 1.350 . S
C659 N667 1.427 . S
C660 H651 0.930 . S
C660 C658 1.378 . S
C660 C661 1.367 . S
C661 C660 1.367 . S
C661 C663 1.433 . S
C662 C658 1.350 . S
C662 C659 1.463 . S
C662 N666 1.427 . S
C663 H653 0.929 . S
C663 C661 1.433 . S
C663 N666 1.384 . S
C664 H655 0.929 . S
C664 C656 1.378 . S
C664 C659 1.350 . S
C665 H652 0.929 . S
C665 C657 1.433 . S
C665 N667 1.384 . S
N666 C662 1.427 . S
N666 C663 1.384 . S
N667 C659 1.427 . S
N667 C665 1.384 . S
H668 C674 0.930 . S
H669 C678 0.930 . S
H670 C683 0.929 . S
H671 C681 0.929 . S
H672 C676 0.929 . S
H673 C682 0.929 . S
C674 H668 0.930 . S
C674 C675 1.367 . S
C674 C682 1.378 . S
C675 C674 1.367 . S
C675 C683 1.433 . S
C676 H672 0.929 . S
C676 C678 1.378 . S
C676 C680 1.350 . S
C677 C680 1.463 . S
C677 C682 1.350 . S
C677 N685 1.427 . S
C678 H669 0.930 . S
C678 C676 1.378 . S
C678 C679 1.367 . S
C679 C678 1.367 . S
C679 C681 1.433 . S
C680 C676 1.350 . S
C680 C677 1.463 . S
C680 N684 1.427 . S
C681 H671 0.929 . S
C681 C679 1.433 . S
C681 N684 1.384 . S
C682 H673 0.929 . S
C682 C674 1.378 . S
C682 C677 1.350 . S
C683 H670 0.929 . S
C683 C675 1.433 . S
C683 N685 1.384 . S
N684 C680 1.427 . S
N684 C681 1.384 . S
N685 C677 1.427 . S
N685 C683 1.384 . S
H686 C692 0.930 . S
H687 C696 0.930 . S
H688 C701 0.929 . S
H689 C699 0.929 . S
H690 C694 0.929 . S
H691 C700 0.929 . S
C692 H686 0.930 . S
C692 C693 1.367 . S
C692 C700 1.378 . S
C693 C692 1.367 . S
C693 C701 1.433 . S
C694 H690 0.929 . S
C694 C696 1.378 . S
C694 C698 1.350 . S
C695 C698 1.463 . S
C695 C700 1.350 . S
C695 N703 1.427 . S
C696 H687 0.930 . S
C696 C694 1.378 . S
C696 C697 1.367 . S
C697 C696 1.367 . S
C697 C699 1.433 . S
C698 C694 1.350 . S
C698 C695 1.463 . S
C698 N702 1.427 . S
C699 H689 0.929 . S
C699 C697 1.433 . S
C699 N702 1.384 . S
C700 H691 0.929 . S
C700 C692 1.378 . S
C700 C695 1.350 . S
C701 H688 0.929 . S
C701 C693 1.433 . S
C701 N703 1.384 . S
N702 C698 1.427 . S
N702 C699 1.384 . S
N703 C695 1.427 . S
N703 C701 1.384 . S
H704 C710 0.930 . S
H705 C714 0.930 . S
H706 C719 0.929 . S
H707 C717 0.929 . S
H708 C712 0.929 . S
H709 C718 0.929 . S
C710 H704 0.930 . S
C710 C711 1.367 . S
C710 C718 1.378 . S
C711 C710 1.367 . S
C711 C719 1.433 . S
C712 H708 0.929 . S
C712 C714 1.378 . S
C712 C716 1.350 . S
C713 C716 1.463 1_565 S
C713 C718 1.350 . S
C713 N721 1.427 . S
C714 H705 0.930 . S
C714 C712 1.378 . S
C714 C715 1.367 . S
C715 C714 1.367 . S
C715 C717 1.433 . S
C716 C712 1.350 . S
C716 C713 1.463 1_545 S
C716 N720 1.427 . S
C717 H707 0.929 . S
C717 C715 1.433 . S
C717 N720 1.384 . S
C718 H709 0.929 . S
C718 C710 1.378 . S
C718 C713 1.350 . S
C719 H706 0.929 . S
C719 C711 1.433 . S
C719 N721 1.384 . S
N720 C716 1.427 . S
N720 C717 1.384 . S
N721 C713 1.427 . S
N721 C719 1.384 . S
H722 C728 0.930 . S
H723 C732 0.930 . S
H724 C737 0.929 1_455 S
H725 C735 0.929 1_655 S
H726 C730 0.929 . S
H727 C736 0.929 . S
C728 H722 0.930 . S
C728 C729 1.367 . S
C728 C736 1.378 . S
C729 C728 1.367 . S
C729 C737 1.433 . S
C730 H726 0.929 . S
C730 C732 1.378 . S
C730 C734 1.350 . S
C731 C734 1.463 1_655 S
C731 C736 1.350 . S
C731 N739 1.427 1_655 S
C732 H723 0.930 . S
C732 C730 1.378 . S
C732 C733 1.367 . S
C733 C732 1.367 . S
C733 C735 1.433 . S
C734 C730 1.350 . S
C734 C731 1.463 1_455 S
C734 N738 1.427 1_455 S
C735 H725 0.929 1_455 S
C735 C733 1.433 . S
C735 N738 1.384 1_455 S
C736 H727 0.929 . S
C736 C728 1.378 . S
C736 C731 1.350 . S
C737 H724 0.929 1_655 S
C737 C729 1.433 . S
C737 N739 1.384 1_655 S
N738 C734 1.427 1_655 S
N738 C735 1.384 1_655 S
N739 C731 1.427 1_455 S
N739 C737 1.384 1_455 S
H740 C746 0.930 . S
H741 C750 0.930 . S
H742 C755 0.929 . S
H743 C753 0.929 . S
H744 C748 0.929 . S
H745 C754 0.929 . S
C746 H740 0.930 . S
C746 C747 1.367 . S
C746 C754 1.378 . S
C747 C746 1.367 . S
C747 C755 1.433 1_556 S
C748 H744 0.929 . S
C748 C750 1.378 . S
C748 C752 1.350 . S
C749 C752 1.463 1_556 S
C749 C754 1.350 . S
C749 N757 1.427 1_556 S
C750 H741 0.930 . S
C750 C748 1.378 . S
C750 C751 1.367 . S
C751 C750 1.367 . S
C751 C753 1.433 1_554 S
C752 C748 1.350 . S
C752 C749 1.463 1_554 S
C752 N756 1.427 1_554 S
C753 H743 0.929 . S
C753 C751 1.433 1_556 S
C753 N756 1.384 . S
C754 H745 0.929 . S
C754 C746 1.378 . S
C754 C749 1.350 . S
C755 H742 0.929 . S
C755 C747 1.433 1_554 S
C755 N757 1.384 . S
N756 C752 1.427 1_556 S
N756 C753 1.384 . S
N757 C749 1.427 1_554 S
N757 C755 1.384 . S
H758 C764 0.930 . S
H759 C768 0.930 . S
H760 C773 0.929 . S
H761 C771 0.929 . S
H762 C766 0.929 . S
H763 C772 0.929 . S
C764 H758 0.930 . S
C764 C765 1.367 . S
C764 C772 1.378 . S
C765 C764 1.367 . S
C765 C773 1.433 1_556 S
C766 H762 0.929 . S
C766 C768 1.378 . S
C766 C770 1.350 . S
C767 C770 1.463 1_446 S
C767 C772 1.350 . S
C767 N775 1.427 1_456 S
C768 H759 0.930 . S
C768 C766 1.378 . S
C768 C769 1.367 . S
C769 C768 1.367 . S
C769 C771 1.433 1_554 S
C770 C766 1.350 . S
C770 C767 1.463 1_664 S
C770 N774 1.427 1_654 S
C771 H761 0.929 . S
C771 C769 1.433 1_556 S
C771 N774 1.384 1_655 S
C772 H763 0.929 . S
C772 C764 1.378 . S
C772 C767 1.350 . S
C773 H760 0.929 . S
C773 C765 1.433 1_554 S
C773 N775 1.384 1_455 S
N774 C770 1.427 1_456 S
N774 C771 1.384 1_455 S
N775 C767 1.427 1_654 S
N775 C773 1.384 1_655 S
H776 C782 0.930 . S
H777 C786 0.930 . S
H778 C791 0.929 . S
H779 C789 0.929 . S
H780 C784 0.929 . S
H781 C790 0.929 . S
C782 H776 0.930 . S
C782 C783 1.367 . S
C782 C790 1.378 . S
C783 C782 1.367 . S
C783 C791 1.433 . S
C784 H780 0.929 . S
C784 C786 1.378 . S
C784 C788 1.350 . S
C785 C788 1.463 1_545 S
C785 C790 1.350 . S
C785 N793 1.427 . S
C786 H777 0.930 . S
C786 C784 1.378 . S
C786 C787 1.367 . S
C787 C786 1.367 . S
C787 C789 1.433 . S
C788 C784 1.350 . S
C788 C785 1.463 1_565 S
C788 N792 1.427 . S
C789 H779 0.929 . S
C789 C787 1.433 . S
C789 N792 1.384 . S
C790 H781 0.929 . S
C790 C782 1.378 . S
C790 C785 1.350 . S
C791 H778 0.929 . S
C791 C783 1.433 . S
C791 N793 1.384 . S
N792 C788 1.427 . S
N792 C789 1.384 . S
N793 C785 1.427 . S
N793 C791 1.384 . S
H794 C800 0.930 . S
H795 C804 0.930 . S
H796 C809 0.929 . S
H797 C807 0.929 . S
H798 C802 0.932 . S
H799 C808 0.932 . S
C800 H794 0.930 . S
C800 C801 1.367 . S
C800 C808 1.375 1_455 S
C801 C800 1.367 . S
C801 C809 1.433 . S
C802 H798 0.932 . S
C802 C804 1.375 1_455 S
C802 C806 1.349 1_455 S
C803 C806 1.463 1_455 S
C803 C808 1.349 1_455 S
C803 N811 1.427 . S
C804 H795 0.930 . S
C804 C802 1.375 1_655 S
C804 C805 1.367 . S
C805 C804 1.367 . S
C805 C807 1.433 . S
C806 C802 1.349 1_655 S
C806 C803 1.463 1_655 S
C806 N810 1.427 . S
C807 H797 0.929 . S
C807 C805 1.433 . S
C807 N810 1.384 . S
C808 H799 0.932 . S
C808 C800 1.375 1_655 S
C808 C803 1.349 1_655 S
C809 H796 0.929 . S
C809 C801 1.433 . S
C809 N811 1.384 . S
N810 C806 1.427 . S
N810 C807 1.384 . S
N811 C803 1.427 . S
N811 C809 1.384 . S
H812 C818 0.930 . S
H813 C822 0.930 . S
H814 C827 0.929 . S
H815 C825 0.929 . S
H816 C820 0.929 1_556 S
H817 C826 0.929 1_554 S
C818 H812 0.930 . S
C818 C819 1.367 . S
C818 C826 1.378 . S
C819 C818 1.367 . S
C819 C827 1.433 . S
C820 H816 0.929 1_554 S
C820 C822 1.378 . S
C820 C824 1.350 . S
C821 C824 1.463 1_556 S
C821 C826 1.350 . S
C821 N829 1.427 . S
C822 H813 0.930 . S
C822 C820 1.378 . S
C822 C823 1.367 . S
C823 C822 1.367 . S
C823 C825 1.433 . S
C824 C820 1.350 . S
C824 C821 1.463 1_554 S
C824 N828 1.427 . S
C825 H815 0.929 . S
C825 C823 1.433 . S
C825 N828 1.384 . S
C826 H817 0.929 1_556 S
C826 C818 1.378 . S
C826 C821 1.350 . S
C827 H814 0.929 . S
C827 C819 1.433 . S
C827 N829 1.384 . S
N828 C824 1.427 . S
N828 C825 1.384 . S
N829 C821 1.427 . S
N829 C827 1.384 . S
H830 C836 0.930 . S
H831 C840 0.930 . S
H832 C845 0.929 . S
H833 C843 0.929 . S
H834 C838 0.929 . S
H835 C844 0.929 . S
C836 H830 0.930 . S
C836 C837 1.367 . S
C836 C844 1.378 . S
C837 C836 1.367 . S
C837 C845 1.433 . S
C838 H834 0.929 . S
C838 C840 1.378 . S
C838 C842 1.350 . S
C839 C842 1.463 . S
C839 C844 1.350 . S
C839 N847 1.427 . S
C840 H831 0.930 . S
C840 C838 1.378 . S
C840 C841 1.367 . S
C841 C840 1.367 . S
C841 C843 1.433 . S
C842 C838 1.350 . S
C842 C839 1.463 . S
C842 N846 1.427 . S
C843 H833 0.929 . S
C843 C841 1.433 . S
C843 N846 1.384 . S
C844 H835 0.929 . S
C844 C836 1.378 . S
C844 C839 1.350 . S
C845 H832 0.929 . S
C845 C837 1.433 . S
C845 N847 1.384 . S
N846 C842 1.427 . S
N846 C843 1.384 . S
N847 C839 1.427 . S
N847 C845 1.384 . S
H848 C854 0.930 . S
H849 C858 0.930 . S
H850 C863 0.929 . S
H851 C861 0.929 . S
H852 C856 0.929 . S
H853 C862 0.929 . S
C854 H848 0.930 . S
C854 C855 1.367 . S
C854 C862 1.378 . S
C855 C854 1.367 . S
C855 C863 1.433 . S
C856 H852 0.929 . S
C856 C858 1.378 . S
C856 C860 1.350 . S
C857 C860 1.463 . S
C857 C862 1.350 . S
C857 N865 1.427 . S
C858 H849 0.930 . S
C858 C856 1.378 . S
C858 C859 1.367 . S
C859 C858 1.367 . S
C859 C861 1.433 . S
C860 C856 1.350 . S
C860 C857 1.463 . S
C860 N864 1.427 . S
C861 H851 0.929 . S
C861 C859 1.433 . S
C861 N864 1.384 . S
C862 H853 0.929 . S
C862 C854 1.378 . S
C862 C857 1.350 . S
C863 H850 0.929 . S
C863 C855 1.433 . S
C863 N865 1.384 . S
N864 C860 1.427 . S
N864 C861 1.384 . S
N865 C857 1.427 . S
N865 C863 1.384 . S
H866 C872 0.929 1_455 S
H867 C876 0.929 1_655 S
H868 C881 0.929 . S
H869 C879 0.929 . S
H870 C874 0.929 . S
H871 C880 0.929 . S
C872 H866 0.929 1_655 S
C872 C873 1.367 . S
C872 C880 1.378 1_655 S
C873 C872 1.367 . S
C873 C881 1.433 . S
C874 H870 0.929 . S
C874 C876 1.378 1_655 S
C874 C878 1.350 1_655 S
C875 C878 1.463 1_655 S
C875 C880 1.350 1_655 S
C875 N883 1.427 . S
C876 H867 0.929 1_455 S
C876 C874 1.378 1_455 S
C876 C877 1.367 . S
C877 C876 1.367 . S
C877 C879 1.433 . S
C878 C874 1.350 1_455 S
C878 C875 1.463 1_455 S
C878 N882 1.427 . S
C879 H869 0.929 . S
C879 C877 1.433 . S
C879 N882 1.384 . S
C880 H871 0.929 . S
C880 C872 1.378 1_455 S
C880 C875 1.350 1_455 S
C881 H868 0.929 . S
C881 C873 1.433 . S
C881 N883 1.384 . S
N882 C878 1.427 . S
N882 C879 1.384 . S
N883 C875 1.427 . S
N883 C881 1.384 . S
H884 C890 0.930 . S
H885 C894 0.930 . S
H886 C899 0.929 . S
H887 C897 0.929 . S
H888 C892 0.929 . S
H889 C898 0.929 . S
C890 H884 0.930 . S
C890 C891 1.367 . S
C890 C898 1.378 . S
C891 C890 1.367 . S
C891 C899 1.433 . S
C892 H888 0.929 . S
C892 C894 1.378 . S
C892 C896 1.350 . S
C893 C896 1.463 . S
C893 C898 1.350 . S
C893 N901 1.427 . S
C894 H885 0.930 . S
C894 C892 1.378 . S
C894 C895 1.367 . S
C895 C894 1.367 . S
C895 C897 1.433 . S
C896 C892 1.350 . S
C896 C893 1.463 . S
C896 N900 1.427 . S
C897 H887 0.929 . S
C897 C895 1.433 . S
C897 N900 1.384 . S
C898 H889 0.929 . S
C898 C890 1.378 . S
C898 C893 1.350 . S
C899 H886 0.929 . S
C899 C891 1.433 . S
C899 N901 1.384 . S
N900 C896 1.427 . S
N900 C897 1.384 . S
N901 C893 1.427 . S
N901 C899 1.384 . S
H902 C908 0.930 . S
H903 C912 0.930 . S
H904 C917 0.929 . S
H905 C915 0.929 . S
H906 C910 0.929 . S
H907 C916 0.929 . S
C908 H902 0.930 . S
C908 C909 1.367 . S
C908 C916 1.378 . S
C909 C908 1.367 . S
C909 C917 1.433 . S
C910 H906 0.929 . S
C910 C912 1.378 . S
C910 C914 1.350 . S
C911 C914 1.463 . S
C911 C916 1.350 . S
C911 N919 1.427 . S
C912 H903 0.930 . S
C912 C910 1.378 . S
C912 C913 1.367 . S
C913 C912 1.367 . S
C913 C915 1.433 . S
C914 C910 1.350 . S
C914 C911 1.463 . S
C914 N918 1.427 . S
C915 H905 0.929 . S
C915 C913 1.433 . S
C915 N918 1.384 . S
C916 H907 0.929 . S
C916 C908 1.378 . S
C916 C911 1.350 . S
C917 H904 0.929 . S
C917 C909 1.433 . S
C917 N919 1.384 . S
N918 C914 1.427 . S
N918 C915 1.384 . S
N919 C911 1.427 . S
N919 C917 1.384 . S
H920 C926 0.930 . S
H921 C930 0.930 . S
H922 C935 0.929 . S
H923 C933 0.929 . S
H924 C928 0.929 . S
H925 C934 0.929 . S
C926 H920 0.930 . S
C926 C927 1.367 . S
C926 C934 1.378 . S
C927 C926 1.367 . S
C927 C935 1.433 . S
C928 H924 0.929 . S
C928 C930 1.378 . S
C928 C932 1.350 . S
C929 C932 1.463 . S
C929 C934 1.350 . S
C929 N937 1.427 . S
C930 H921 0.930 . S
C930 C928 1.378 . S
C930 C931 1.367 . S
C931 C930 1.367 . S
C931 C933 1.433 . S
C932 C928 1.350 . S
C932 C929 1.463 . S
C932 N936 1.427 . S
C933 H923 0.929 . S
C933 C931 1.433 . S
C933 N936 1.384 . S
C934 H925 0.929 . S
C934 C926 1.378 . S
C934 C929 1.350 . S
C935 H922 0.929 . S
C935 C927 1.433 . S
C935 N937 1.384 . S
N936 C932 1.427 . S
N936 C933 1.384 . S
N937 C929 1.427 . S
N937 C935 1.384 . S
H938 C944 0.930 . S
H939 C948 0.930 . S
H940 C953 0.929 . S
H941 C951 0.929 . S
H942 C946 0.929 . S
H943 C952 0.929 . S
C944 H938 0.930 . S
C944 C945 1.367 . S
C944 C952 1.378 . S
C945 C944 1.367 . S
C945 C953 1.433 . S
C946 H942 0.929 . S
C946 C948 1.378 . S
C946 C950 1.350 . S
C947 C950 1.463 1_545 S
C947 C952 1.350 . S
C947 N955 1.427 . S
C948 H939 0.930 . S
C948 C946 1.378 . S
C948 C949 1.367 . S
C949 C948 1.367 . S
C949 C951 1.433 . S
C950 C946 1.350 . S
C950 C947 1.463 1_565 S
C950 N954 1.427 . S
C951 H941 0.929 . S
C951 C949 1.433 . S
C951 N954 1.384 . S
C952 H943 0.929 . S
C952 C944 1.378 . S
C952 C947 1.350 . S
C953 H940 0.929 . S
C953 C945 1.433 . S
C953 N955 1.384 . S
N954 C950 1.427 . S
N954 C951 1.384 . S
N955 C947 1.427 . S
N955 C953 1.384 . S
H956 C962 0.930 . S
H957 C966 0.930 . S
H958 C971 0.929 . S
H959 C969 0.929 . S
H960 C964 0.929 . S
H961 C970 0.929 . S
C962 H956 0.930 . S
C962 C963 1.367 . S
C962 C970 1.378 . S
C963 C962 1.367 . S
C963 C971 1.433 . S
C964 H960 0.929 . S
C964 C966 1.378 . S
C964 C968 1.350 . S
C965 C968 1.463 . S
C965 C970 1.350 . S
C965 N973 1.427 . S
C966 H957 0.930 . S
C966 C964 1.378 . S
C966 C967 1.367 . S
C967 C966 1.367 . S
C967 C969 1.433 . S
C968 C964 1.350 . S
C968 C965 1.463 . S
C968 N972 1.427 . S
C969 H959 0.929 . S
C969 C967 1.433 . S
C969 N972 1.384 . S
C970 H961 0.929 . S
C970 C962 1.378 . S
C970 C965 1.350 . S
C971 H958 0.929 . S
C971 C963 1.433 . S
C971 N973 1.384 . S
N972 C968 1.427 . S
N972 C969 1.384 . S
N973 C965 1.427 . S
N973 C971 1.384 . S
H974 C980 0.930 . S
H975 C984 0.930 . S
H976 C989 0.929 . S
H977 C987 0.929 . S
H978 C982 0.929 . S
H979 C988 0.929 . S
C980 H974 0.930 . S
C980 C981 1.367 . S
C980 C988 1.378 . S
C981 C980 1.367 . S
C981 C989 1.433 1_554 S
C982 H978 0.929 . S
C982 C984 1.378 . S
C982 C986 1.350 . S
C983 C986 1.463 1_554 S
C983 C988 1.350 . S
C983 N991 1.427 1_554 S
C984 H975 0.930 . S
C984 C982 1.378 . S
C984 C985 1.367 . S
C985 C984 1.367 . S
C985 C987 1.433 1_556 S
C986 C982 1.350 . S
C986 C983 1.463 1_556 S
C986 N990 1.427 1_556 S
C987 H977 0.929 . S
C987 C985 1.433 1_554 S
C987 N990 1.384 . S
C988 H979 0.929 . S
C988 C980 1.378 . S
C988 C983 1.350 . S
C989 H976 0.929 . S
C989 C981 1.433 1_556 S
C989 N991 1.384 . S
N990 C986 1.427 1_554 S
N990 C987 1.384 . S
N991 C983 1.427 1_556 S
N991 C989 1.384 . S
H992 C998 0.930 . S
H993 C1002 0.930 . S
H994 C1007 0.929 . S
H995 C1005 0.929 . S
H996 C1000 0.929 . S
H997 C1006 0.929 . S
C998 H992 0.930 . S
C998 C999 1.367 . S
C998 C1006 1.378 . S
C999 C998 1.367 . S
C999 C1007 1.433 . S
C1000 H996 0.929 . S
C1000 C1002 1.378 . S
C1000 C1004 1.350 . S
C1001 C1004 1.463 . S
C1001 C1006 1.350 . S
C1001 N1009 1.427 . S
C1002 H993 0.930 . S
C1002 C1000 1.378 . S
C1002 C1003 1.367 . S
C1003 C1002 1.367 . S
C1003 C1005 1.433 . S
C1004 C1000 1.350 . S
C1004 C1001 1.463 . S
C1004 N1008 1.427 . S
C1005 H995 0.929 . S
C1005 C1003 1.433 . S
C1005 N1008 1.384 . S
C1006 H997 0.929 . S
C1006 C998 1.378 . S
C1006 C1001 1.350 . S
C1007 H994 0.929 . S
C1007 C999 1.433 . S
C1007 N1009 1.384 . S
N1008 C1004 1.427 . S
N1008 C1005 1.384 . S
N1009 C1001 1.427 . S
N1009 C1007 1.384 . S
H1010 C1016 0.930 . S
H1011 C1020 0.930 1_554 S
H1012 C1025 0.929 1_554 S
H1013 C1023 0.929 . S
H1014 C1018 0.929 1_554 S
H1015 C1024 0.929 . S
C1016 H1010 0.930 . S
C1016 C1017 1.367 . S
C1016 C1024 1.378 . S
C1017 C1016 1.367 . S
C1017 C1025 1.433 . S
C1018 H1014 0.929 1_556 S
C1018 C1020 1.378 . S
C1018 C1022 1.350 . S
C1019 C1022 1.463 . S
C1019 C1024 1.350 . S
C1019 N1027 1.427 . S
C1020 H1011 0.930 1_556 S
C1020 C1018 1.378 . S
C1020 C1021 1.367 . S
C1021 C1020 1.367 . S
C1021 C1023 1.433 . S
C1022 C1018 1.350 . S
C1022 C1019 1.463 . S
C1022 N1026 1.427 . S
C1023 H1013 0.929 . S
C1023 C1021 1.433 . S
C1023 N1026 1.384 . S
C1024 H1015 0.929 . S
C1024 C1016 1.378 . S
C1024 C1019 1.350 . S
C1025 H1012 0.929 1_556 S
C1025 C1017 1.433 . S
C1025 N1027 1.384 . S
N1026 C1022 1.427 . S
N1026 C1023 1.384 . S
N1027 C1019 1.427 . S
N1027 C1025 1.384 . S
H1028 C1034 0.930 . S
H1029 C1038 0.930 . S
H1030 C1043 0.929 . S
H1031 C1041 0.929 . S
H1032 C1036 0.929 . S
H1033 C1042 0.929 . S
C1034 H1028 0.930 . S
C1034 C1035 1.367 . S
C1034 C1042 1.378 . S
C1035 C1034 1.367 . S
C1035 C1043 1.433 . S
C1036 H1032 0.929 . S
C1036 C1038 1.378 . S
C1036 C1040 1.350 . S
C1037 C1040 1.463 . S
C1037 C1042 1.350 . S
C1037 N1045 1.427 . S
C1038 H1029 0.930 . S
C1038 C1036 1.378 . S
C1038 C1039 1.367 . S
C1039 C1038 1.367 . S
C1039 C1041 1.433 . S
C1040 C1036 1.350 . S
C1040 C1037 1.463 . S
C1040 N1044 1.427 . S
C1041 H1031 0.929 . S
C1041 C1039 1.433 . S
C1041 N1044 1.384 . S
C1042 H1033 0.929 . S
C1042 C1034 1.378 . S
C1042 C1037 1.350 . S
C1043 H1030 0.929 . S
C1043 C1035 1.433 . S
C1043 N1045 1.384 . S
N1044 C1040 1.427 . S
N1044 C1041 1.384 . S
N1045 C1037 1.427 . S
N1045 C1043 1.384 . S
H1046 C1052 0.930 . S
H1047 C1056 0.930 . S
H1048 C1061 0.929 . S
H1049 C1059 0.952 . S
H1050 C1054 0.929 . S
H1051 C1060 0.929 . S
C1052 H1046 0.930 . S
C1052 C1053 1.367 . S
C1052 C1060 1.378 . S
C1053 C1052 1.367 . S
C1053 C1061 1.433 . S
C1054 H1050 0.929 . S
C1054 C1056 1.378 . S
C1054 C1058 1.350 . S
C1055 C1058 1.463 . S
C1055 C1060 1.350 . S
C1055 N1063 1.427 . S
C1056 H1047 0.930 . S
C1056 C1054 1.378 . S
C1056 C1057 1.367 . S
C1057 C1056 1.367 . S
C1057 C1059 1.433 . S
C1058 C1054 1.350 . S
C1058 C1055 1.463 . S
C1058 N1062 1.427 . S
C1059 H1049 0.952 . S
C1059 C1057 1.433 . S
C1059 N1062 1.384 . S
C1060 H1051 0.929 . S
C1060 C1052 1.378 . S
C1060 C1055 1.350 . S
C1061 H1048 0.929 . S
C1061 C1053 1.433 . S
C1061 N1063 1.384 . S
N1062 C1058 1.427 . S
N1062 C1059 1.384 . S
N1063 C1055 1.427 . S
N1063 C1061 1.384 . S
H1064 C1070 0.930 . S
H1065 C1074 0.930 . S
H1066 C1079 0.929 . S
H1067 C1077 0.929 . S
H1068 C1072 0.929 . S
H1069 C1078 0.929 . S
C1070 H1064 0.930 . S
C1070 C1071 1.367 . S
C1070 C1078 1.378 . S
C1071 C1070 1.367 . S
C1071 C1079 1.433 . S
C1072 H1068 0.929 . S
C1072 C1074 1.378 . S
C1072 C1076 1.350 . S
C1073 C1076 1.463 . S
C1073 C1078 1.350 . S
C1073 N1081 1.427 . S
C1074 H1065 0.930 . S
C1074 C1072 1.378 . S
C1074 C1075 1.367 . S
C1075 C1074 1.367 . S
C1075 C1077 1.433 . S
C1076 C1072 1.350 . S
C1076 C1073 1.463 . S
C1076 N1080 1.427 . S
C1077 H1067 0.929 . S
C1077 C1075 1.433 . S
C1077 N1080 1.384 . S
C1078 H1069 0.929 . S
C1078 C1070 1.378 . S
C1078 C1073 1.350 . S
C1079 H1066 0.929 . S
C1079 C1071 1.433 . S
C1079 N1081 1.384 . S
N1080 C1076 1.427 . S
N1080 C1077 1.384 . S
N1081 C1073 1.427 . S
N1081 C1079 1.384 . S
H1082 C1088 0.930 . S
H1083 C1092 0.930 . S
H1084 C1097 0.929 . S
H1085 C1095 0.929 . S
H1086 C1090 0.929 . S
H1087 C1096 0.929 . S
C1088 H1082 0.930 . S
C1088 C1089 1.367 . S
C1088 C1096 1.378 . S
C1089 C1088 1.367 . S
C1089 C1097 1.433 . S
C1090 H1086 0.929 . S
C1090 C1092 1.378 . S
C1090 C1094 1.350 . S
C1091 C1094 1.463 . S
C1091 C1096 1.350 . S
C1091 N1099 1.427 . S
C1092 H1083 0.930 . S
C1092 C1090 1.378 . S
C1092 C1093 1.367 . S
C1093 C1092 1.367 . S
C1093 C1095 1.433 . S
C1094 C1090 1.350 . S
C1094 C1091 1.463 . S
C1094 N1098 1.427 . S
C1095 H1085 0.929 . S
C1095 C1093 1.433 . S
C1095 N1098 1.384 . S
C1096 H1087 0.929 . S
C1096 C1088 1.378 . S
C1096 C1091 1.350 . S
C1097 H1084 0.929 . S
C1097 C1089 1.433 . S
C1097 N1099 1.384 . S
N1098 C1094 1.427 . S
N1098 C1095 1.384 . S
N1099 C1091 1.427 . S
N1099 C1097 1.384 . S
H1100 C1106 0.930 . S
H1101 C1110 0.930 . S
H1102 C1115 0.929 . S
H1103 C1113 0.929 . S
H1104 C1108 0.929 . S
H1105 C1114 0.929 . S
C1106 H1100 0.930 . S
C1106 C1107 1.367 . S
C1106 C1114 1.378 . S
C1107 C1106 1.367 . S
C1107 C1115 1.433 . S
C1108 H1104 0.929 . S
C1108 C1110 1.378 . S
C1108 C1112 1.350 . S
C1109 C1112 1.463 . S
C1109 C1114 1.350 . S
C1109 N1117 1.427 . S
C1110 H1101 0.930 . S
C1110 C1108 1.378 . S
C1110 C1111 1.367 . S
C1111 C1110 1.367 . S
C1111 C1113 1.433 . S
C1112 C1108 1.350 . S
C1112 C1109 1.463 . S
C1112 N1116 1.427 . S
C1113 H1103 0.929 . S
C1113 C1111 1.433 . S
C1113 N1116 1.384 . S
C1114 H1105 0.929 . S
C1114 C1106 1.378 . S
C1114 C1109 1.350 . S
C1115 H1102 0.929 . S
C1115 C1107 1.433 . S
C1115 N1117 1.384 . S
N1116 C1112 1.427 . S
N1116 C1113 1.384 . S
N1117 C1109 1.427 . S
N1117 C1115 1.384 . S
H1118 C1124 0.930 . S
H1119 C1128 0.930 . S
H1120 C1133 0.929 . S
H1121 C1131 0.929 . S
H1122 C1126 0.929 . S
H1123 C1132 0.929 . S
C1124 H1118 0.930 . S
C1124 C1125 1.367 . S
C1124 C1132 1.378 . S
C1125 C1124 1.367 . S
C1125 C1133 1.433 . S
C1126 H1122 0.929 . S
C1126 C1128 1.378 . S
C1126 C1130 1.350 . S
C1127 C1130 1.463 . S
C1127 C1132 1.350 . S
C1127 N1135 1.427 . S
C1128 H1119 0.930 . S
C1128 C1126 1.378 . S
C1128 C1129 1.367 . S
C1129 C1128 1.367 . S
C1129 C1131 1.433 . S
C1130 C1126 1.350 . S
C1130 C1127 1.463 . S
C1130 N1134 1.427 . S
C1131 H1121 0.929 . S
C1131 C1129 1.433 . S
C1131 N1134 1.384 . S
C1132 H1123 0.929 . S
C1132 C1124 1.378 . S
C1132 C1127 1.350 . S
C1133 H1120 0.929 . S
C1133 C1125 1.433 . S
C1133 N1135 1.384 . S
N1134 C1130 1.427 . S
N1134 C1131 1.384 . S
N1135 C1127 1.427 . S
N1135 C1133 1.384 . S
H1136 C1142 0.930 . S
H1137 C1146 0.930 . S
H1138 C1151 0.929 . S
H1139 C1149 0.929 . S
H1140 C1144 0.929 . S
H1141 C1150 0.929 . S
C1142 H1136 0.930 . S
C1142 C1143 1.367 . S
C1142 C1150 1.378 . S
C1143 C1142 1.367 . S
C1143 C1151 1.433 . S
C1144 H1140 0.929 . S
C1144 C1146 1.378 . S
C1144 C1148 1.350 . S
C1145 C1148 1.463 . S
C1145 C1150 1.350 . S
C1145 N1153 1.427 . S
C1146 H1137 0.930 . S
C1146 C1144 1.378 . S
C1146 C1147 1.367 . S
C1147 C1146 1.367 . S
C1147 C1149 1.433 . S
C1148 C1144 1.350 . S
C1148 C1145 1.463 . S
C1148 N1152 1.427 . S
C1149 H1139 0.929 . S
C1149 C1147 1.433 . S
C1149 N1152 1.384 . S
C1150 H1141 0.929 . S
C1150 C1142 1.378 . S
C1150 C1145 1.350 . S
C1151 H1138 0.929 . S
C1151 C1143 1.433 . S
C1151 N1153 1.384 . S
N1152 C1148 1.427 . S
N1152 C1149 1.384 . S
N1153 C1145 1.427 . S
N1153 C1151 1.384 . S
H1154 C1160 0.930 . S
H1155 C1164 0.930 . S
H1156 C1169 0.929 . S
H1157 C1167 0.929 . S
H1158 C1162 0.929 . S
H1159 C1168 0.929 . S
C1160 H1154 0.930 . S
C1160 C1161 1.367 . S
C1160 C1168 1.378 . S
C1161 C1160 1.367 . S
C1161 C1169 1.433 . S
C1162 H1158 0.929 . S
C1162 C1164 1.378 . S
C1162 C1166 1.350 . S
C1163 C1166 1.463 . S
C1163 C1168 1.350 . S
C1163 N1171 1.427 . S
C1164 H1155 0.930 . S
C1164 C1162 1.378 . S
C1164 C1165 1.367 . S
C1165 C1164 1.367 . S
C1165 C1167 1.433 . S
C1166 C1162 1.350 . S
C1166 C1163 1.463 . S
C1166 N1170 1.427 . S
C1167 H1157 0.929 . S
C1167 C1165 1.433 . S
C1167 N1170 1.384 . S
C1168 H1159 0.929 . S
C1168 C1160 1.378 . S
C1168 C1163 1.350 . S
C1169 H1156 0.929 . S
C1169 C1161 1.433 . S
C1169 N1171 1.384 . S
N1170 C1166 1.427 . S
N1170 C1167 1.384 . S
N1171 C1163 1.427 . S
N1171 C1169 1.384 . S
H1172 C1178 0.930 . S
H1173 C1182 0.930 . S
H1174 C1187 0.929 . S
H1175 C1185 0.929 . S
H1176 C1180 0.929 . S
H1177 C1186 0.929 . S
C1178 H1172 0.930 . S
C1178 C1179 1.367 . S
C1178 C1186 1.378 . S
C1179 C1178 1.367 . S
C1179 C1187 1.433 . S
C1180 H1176 0.929 . S
C1180 C1182 1.378 . S
C1180 C1184 1.350 . S
C1181 C1184 1.463 . S
C1181 C1186 1.350 . S
C1181 N1189 1.427 . S
C1182 H1173 0.930 . S
C1182 C1180 1.378 . S
C1182 C1183 1.367 . S
C1183 C1182 1.367 . S
C1183 C1185 1.433 . S
C1184 C1180 1.350 . S
C1184 C1181 1.463 . S
C1184 N1188 1.427 . S
C1185 H1175 0.929 . S
C1185 C1183 1.433 . S
C1185 N1188 1.384 . S
C1186 H1177 0.929 . S
C1186 C1178 1.378 . S
C1186 C1181 1.350 . S
C1187 H1174 0.929 . S
C1187 C1179 1.433 . S
C1187 N1189 1.384 . S
N1188 C1184 1.427 . S
N1188 C1185 1.384 . S
N1189 C1181 1.427 . S
N1189 C1187 1.384 . S
H1190 C1196 0.930 . S
H1191 C1200 0.930 . S
H1192 C1205 0.929 . S
H1193 C1203 0.929 . S
H1194 C1198 0.929 . S
H1195 C1204 0.929 . S
C1196 H1190 0.930 . S
C1196 C1197 1.367 . S
C1196 C1204 1.378 . S
C1197 C1196 1.367 . S
C1197 C1205 1.433 . S
C1198 H1194 0.929 . S
C1198 C1200 1.378 . S
C1198 C1202 1.350 . S
C1199 C1202 1.463 . S
C1199 C1204 1.350 . S
C1199 N1207 1.427 . S
C1200 H1191 0.930 . S
C1200 C1198 1.378 . S
C1200 C1201 1.367 . S
C1201 C1200 1.367 . S
C1201 C1203 1.433 . S
C1202 C1198 1.350 . S
C1202 C1199 1.463 . S
C1202 N1206 1.427 . S
C1203 H1193 0.929 . S
C1203 C1201 1.433 . S
C1203 N1206 1.384 . S
C1204 H1195 0.929 . S
C1204 C1196 1.378 . S
C1204 C1199 1.350 . S
C1205 H1192 0.929 . S
C1205 C1197 1.433 . S
C1205 N1207 1.384 . S
N1206 C1202 1.427 . S
N1206 C1203 1.384 . S
N1207 C1199 1.427 . S
N1207 C1205 1.384 . S
H1208 C1214 0.930 . S
H1209 C1218 0.930 . S
H1210 C1223 0.929 . S
H1211 C1221 0.929 . S
H1212 C1216 0.929 . S
H1213 C1222 0.929 . S
C1214 H1208 0.930 . S
C1214 C1215 1.367 . S
C1214 C1222 1.378 . S
C1215 C1214 1.367 . S
C1215 C1223 1.433 . S
C1216 H1212 0.929 . S
C1216 C1218 1.378 . S
C1216 C1220 1.350 . S
C1217 C1220 1.463 . S
C1217 C1222 1.350 . S
C1217 N1225 1.427 . S
C1218 H1209 0.930 . S
C1218 C1216 1.378 . S
C1218 C1219 1.367 . S
C1219 C1218 1.367 . S
C1219 C1221 1.433 . S
C1220 C1216 1.350 . S
C1220 C1217 1.463 . S
C1220 N1224 1.427 . S
C1221 H1211 0.929 . S
C1221 C1219 1.433 . S
C1221 N1224 1.384 . S
C1222 H1213 0.929 . S
C1222 C1214 1.378 . S
C1222 C1217 1.350 . S
C1223 H1210 0.929 . S
C1223 C1215 1.433 . S
C1223 N1225 1.384 . S
N1224 C1220 1.427 . S
N1224 C1221 1.384 . S
N1225 C1217 1.427 . S
N1225 C1223 1.384 . S
H1226 C1232 0.930 1_554 S
H1227 C1236 0.930 . S
H1228 C1241 0.929 . S
H1229 C1239 0.929 1_554 S
H1230 C1234 0.929 . S
H1231 C1240 0.929 1_554 S
C1232 H1226 0.930 1_556 S
C1232 C1233 1.367 . S
C1232 C1240 1.378 . S
C1233 C1232 1.367 . S
C1233 C1241 1.433 . S
C1234 H1230 0.929 . S
C1234 C1236 1.378 . S
C1234 C1238 1.350 . S
C1235 C1238 1.463 . S
C1235 C1240 1.350 . S
C1235 N1243 1.427 . S
C1236 H1227 0.930 . S
C1236 C1234 1.378 . S
C1236 C1237 1.367 . S
C1237 C1236 1.367 . S
C1237 C1239 1.433 . S
C1238 C1234 1.350 . S
C1238 C1235 1.463 . S
C1238 N1242 1.427 . S
C1239 H1229 0.929 1_556 S
C1239 C1237 1.433 . S
C1239 N1242 1.384 . S
C1240 H1231 0.929 1_556 S
C1240 C1232 1.378 . S
C1240 C1235 1.350 . S
C1241 H1228 0.929 . S
C1241 C1233 1.433 . S
C1241 N1243 1.384 . S
N1242 C1238 1.427 . S
N1242 C1239 1.384 . S
N1243 C1235 1.427 . S
N1243 C1241 1.384 . S
H1244 C1250 0.930 . S
H1245 C1254 0.930 . S
H1246 C1259 0.929 . S
H1247 C1257 0.929 . S
H1248 C1252 0.929 . S
H1249 C1258 0.929 . S
C1250 H1244 0.930 . S
C1250 C1251 1.367 . S
C1250 C1258 1.378 . S
C1251 C1250 1.367 . S
C1251 C1259 1.433 . S
C1252 H1248 0.929 . S
C1252 C1254 1.378 . S
C1252 C1256 1.350 . S
C1253 C1256 1.463 . S
C1253 C1258 1.350 . S
C1253 N1261 1.427 . S
C1254 H1245 0.930 . S
C1254 C1252 1.378 . S
C1254 C1255 1.367 . S
C1255 C1254 1.367 . S
C1255 C1257 1.433 . S
C1256 C1252 1.350 . S
C1256 C1253 1.463 . S
C1256 N1260 1.427 . S
C1257 H1247 0.929 . S
C1257 C1255 1.433 . S
C1257 N1260 1.384 . S
C1258 H1249 0.929 . S
C1258 C1250 1.378 . S
C1258 C1253 1.350 . S
C1259 H1246 0.929 . S
C1259 C1251 1.433 . S
C1259 N1261 1.384 . S
N1260 C1256 1.427 . S
N1260 C1257 1.384 . S
N1261 C1253 1.427 . S
N1261 C1259 1.384 . S
H1262 C1268 0.930 . S
H1263 C1272 0.930 1_556 S
H1264 C1277 0.929 1_556 S
H1265 C1275 0.929 . S
H1266 C1270 0.929 1_556 S
H1267 C1276 0.929 . S
C1268 H1262 0.930 . S
C1268 C1269 1.367 . S
C1268 C1276 1.378 . S
C1269 C1268 1.367 . S
C1269 C1277 1.433 . S
C1270 H1266 0.929 1_554 S
C1270 C1272 1.378 . S
C1270 C1274 1.350 . S
C1271 C1274 1.463 . S
C1271 C1276 1.350 . S
C1271 N1279 1.427 . S
C1272 H1263 0.930 1_554 S
C1272 C1270 1.378 . S
C1272 C1273 1.367 . S
C1273 C1272 1.367 . S
C1273 C1275 1.433 . S
C1274 C1270 1.350 . S
C1274 C1271 1.463 . S
C1274 N1278 1.427 . S
C1275 H1265 0.929 . S
C1275 C1273 1.433 . S
C1275 N1278 1.384 . S
C1276 H1267 0.929 . S
C1276 C1268 1.378 . S
C1276 C1271 1.350 . S
C1277 H1264 0.929 1_554 S
C1277 C1269 1.433 . S
C1277 N1279 1.384 . S
N1278 C1274 1.427 . S
N1278 C1275 1.384 . S
N1279 C1271 1.427 . S
N1279 C1277 1.384 . S
H1280 C1286 0.930 . S
H1281 C1290 0.930 . S
H1282 C1295 0.932 . S
H1283 C1293 0.929 . S
H1284 C1288 0.929 . S
H1285 C1294 0.929 . S
C1286 H1280 0.930 . S
C1286 C1287 1.367 . S
C1286 C1294 1.378 . S
C1287 C1286 1.367 . S
C1287 C1295 1.432 1_655 S
C1288 H1284 0.929 . S
C1288 C1290 1.378 . S
C1288 C1292 1.350 . S
C1289 C1292 1.463 . S
C1289 C1294 1.350 . S
C1289 N1297 1.427 . S
C1290 H1281 0.930 . S
C1290 C1288 1.378 . S
C1290 C1291 1.367 . S
C1291 C1290 1.367 . S
C1291 C1293 1.433 . S
C1292 C1288 1.350 . S
C1292 C1289 1.463 . S
C1292 N1296 1.427 . S
C1293 H1283 0.929 . S
C1293 C1291 1.433 . S
C1293 N1296 1.384 . S
C1294 H1285 0.929 . S
C1294 C1286 1.378 . S
C1294 C1289 1.350 . S
C1295 H1282 0.932 . S
C1295 C1287 1.432 1_455 S
C1295 N1297 1.381 1_455 S
N1296 C1292 1.427 . S
N1296 C1293 1.384 . S
N1297 C1289 1.427 . S
N1297 C1295 1.381 1_655 S
H1298 C1304 0.930 . S
H1299 C1308 0.930 . S
H1300 C1313 0.929 . S
H1301 C1311 0.929 . S
H1302 C1306 0.929 . S
H1303 C1312 0.929 . S
C1304 H1298 0.930 . S
C1304 C1305 1.367 . S
C1304 C1312 1.378 . S
C1305 C1304 1.367 . S
C1305 C1313 1.433 . S
C1306 H1302 0.929 . S
C1306 C1308 1.378 . S
C1306 C1310 1.350 . S
C1307 C1310 1.463 . S
C1307 C1312 1.350 . S
C1307 N1315 1.427 . S
C1308 H1299 0.930 . S
C1308 C1306 1.378 . S
C1308 C1309 1.367 . S
C1309 C1308 1.367 . S
C1309 C1311 1.433 . S
C1310 C1306 1.350 . S
C1310 C1307 1.463 . S
C1310 N1314 1.427 . S
C1311 H1301 0.929 . S
C1311 C1309 1.433 . S
C1311 N1314 1.384 . S
C1312 H1303 0.929 . S
C1312 C1304 1.378 . S
C1312 C1307 1.350 . S
C1313 H1300 0.929 . S
C1313 C1305 1.433 . S
C1313 N1315 1.384 . S
N1314 C1310 1.427 . S
N1314 C1311 1.384 . S
N1315 C1307 1.427 . S
N1315 C1313 1.384 . S
H1316 C1322 0.930 . S
H1317 C1326 0.930 1_455 S
H1318 C1331 0.929 . S
H1319 C1329 0.929 . S
H1320 C1324 0.929 . S
H1321 C1330 0.929 . S
C1322 H1316 0.930 . S
C1322 C1323 1.367 . S
C1322 C1330 1.378 . S
C1323 C1322 1.367 . S
C1323 C1331 1.433 . S
C1324 H1320 0.929 . S
C1324 C1326 1.378 . S
C1324 C1328 1.350 . S
C1325 C1328 1.463 . S
C1325 C1330 1.350 . S
C1325 N1333 1.427 . S
C1326 H1317 0.930 1_655 S
C1326 C1324 1.378 . S
C1326 C1327 1.367 . S
C1327 C1326 1.367 . S
C1327 C1329 1.433 . S
C1328 C1324 1.350 . S
C1328 C1325 1.463 . S
C1328 N1332 1.427 . S
C1329 H1319 0.929 . S
C1329 C1327 1.433 . S
C1329 N1332 1.384 . S
C1330 H1321 0.929 . S
C1330 C1322 1.378 . S
C1330 C1325 1.350 . S
C1331 H1318 0.929 . S
C1331 C1323 1.433 . S
C1331 N1333 1.384 . S
N1332 C1328 1.427 . S
N1332 C1329 1.384 . S
N1333 C1325 1.427 . S
N1333 C1331 1.384 . S
H1334 C1340 0.930 . S
H1335 C1344 0.930 . S
H1336 C1349 0.929 . S
H1337 C1347 0.929 . S
H1338 C1342 0.929 . S
H1339 C1348 0.929 . S
C1340 H1334 0.930 . S
C1340 C1341 1.367 . S
C1340 C1348 1.378 . S
C1341 C1340 1.367 . S
C1341 C1349 1.433 . S
C1342 H1338 0.929 . S
C1342 C1344 1.378 . S
C1342 C1346 1.350 . S
C1343 C1346 1.463 . S
C1343 C1348 1.350 . S
C1343 N1351 1.427 . S
C1344 H1335 0.930 . S
C1344 C1342 1.378 . S
C1344 C1345 1.367 . S
C1345 C1344 1.367 . S
C1345 C1347 1.433 . S
C1346 C1342 1.350 . S
C1346 C1343 1.463 . S
C1346 N1350 1.427 . S
C1347 H1337 0.929 . S
C1347 C1345 1.433 . S
C1347 N1350 1.384 . S
C1348 H1339 0.929 . S
C1348 C1340 1.378 . S
C1348 C1343 1.350 . S
C1349 H1336 0.929 . S
C1349 C1341 1.433 . S
C1349 N1351 1.384 . S
N1350 C1346 1.427 . S
N1350 C1347 1.384 . S
N1351 C1343 1.427 . S
N1351 C1349 1.384 . S
H1352 C1358 0.930 . S
H1353 C1362 0.930 . S
H1354 C1367 0.929 . S
H1355 C1365 0.929 1_655 S
H1356 C1360 0.929 . S
H1357 C1366 0.929 . S
C1358 H1352 0.930 . S
C1358 C1359 1.367 . S
C1358 C1366 1.378 . S
C1359 C1358 1.367 . S
C1359 C1367 1.433 . S
C1360 H1356 0.929 . S
C1360 C1362 1.378 . S
C1360 C1364 1.350 . S
C1361 C1364 1.463 . S
C1361 C1366 1.350 . S
C1361 N1369 1.427 . S
C1362 H1353 0.930 . S
C1362 C1360 1.378 . S
C1362 C1363 1.367 . S
C1363 C1362 1.367 . S
C1363 C1365 1.433 . S
C1364 C1360 1.350 . S
C1364 C1361 1.463 . S
C1364 N1368 1.427 . S
C1365 H1355 0.929 1_455 S
C1365 C1363 1.433 . S
C1365 N1368 1.384 . S
C1366 H1357 0.929 . S
C1366 C1358 1.378 . S
C1366 C1361 1.350 . S
C1367 H1354 0.929 . S
C1367 C1359 1.433 . S
C1367 N1369 1.384 . S
N1368 C1364 1.427 . S
N1368 C1365 1.384 . S
N1369 C1361 1.427 . S
N1369 C1367 1.384 . S
H1370 C1376 0.930 . S
H1371 C1380 0.930 . S
H1372 C1385 0.929 . S
H1373 C1383 0.929 . S
H1374 C1378 0.929 . S
H1375 C1384 0.929 . S
C1376 H1370 0.930 . S
C1376 C1377 1.367 . S
C1376 C1384 1.378 . S
C1377 C1376 1.367 . S
C1377 C1385 1.433 . S
C1378 H1374 0.929 . S
C1378 C1380 1.378 . S
C1378 C1382 1.350 . S
C1379 C1382 1.463 . S
C1379 C1384 1.350 . S
C1379 N1387 1.427 . S
C1380 H1371 0.930 . S
C1380 C1378 1.378 . S
C1380 C1381 1.367 . S
C1381 C1380 1.367 . S
C1381 C1383 1.433 . S
C1382 C1378 1.350 . S
C1382 C1379 1.463 . S
C1382 N1386 1.427 . S
C1383 H1373 0.929 . S
C1383 C1381 1.433 . S
C1383 N1386 1.384 . S
C1384 H1375 0.929 . S
C1384 C1376 1.378 . S
C1384 C1379 1.350 . S
C1385 H1372 0.929 . S
C1385 C1377 1.433 . S
C1385 N1387 1.384 . S
N1386 C1382 1.427 . S
N1386 C1383 1.384 . S
N1387 C1379 1.427 . S
N1387 C1385 1.384 . S
H1388 C1394 0.930 . S
H1389 C1398 0.930 . S
H1390 C1403 0.929 . S
H1391 C1401 0.929 . S
H1392 C1396 0.929 . S
H1393 C1402 0.929 . S
C1394 H1388 0.930 . S
C1394 C1395 1.367 . S
C1394 C1402 1.378 . S
C1395 C1394 1.367 . S
C1395 C1403 1.433 . S
C1396 H1392 0.929 . S
C1396 C1398 1.378 . S
C1396 C1400 1.350 . S
C1397 C1400 1.463 . S
C1397 C1402 1.350 . S
C1397 N1405 1.427 . S
C1398 H1389 0.930 . S
C1398 C1396 1.378 . S
C1398 C1399 1.367 . S
C1399 C1398 1.367 . S
C1399 C1401 1.433 . S
C1400 C1396 1.350 . S
C1400 C1397 1.463 . S
C1400 N1404 1.427 . S
C1401 H1391 0.929 . S
C1401 C1399 1.433 . S
C1401 N1404 1.384 . S
C1402 H1393 0.929 . S
C1402 C1394 1.378 . S
C1402 C1397 1.350 . S
C1403 H1390 0.929 . S
C1403 C1395 1.433 . S
C1403 N1405 1.384 . S
N1404 C1400 1.427 . S
N1404 C1401 1.384 . S
N1405 C1397 1.427 . S
N1405 C1403 1.384 . S
H1406 C1412 0.930 . S
H1407 C1416 0.930 . S
H1408 C1421 0.929 . S
H1409 C1419 0.929 . S
H1410 C1414 0.929 . S
H1411 C1420 0.929 . S
C1412 H1406 0.930 . S
C1412 C1413 1.367 . S
C1412 C1420 1.378 . S
C1413 C1412 1.367 . S
C1413 C1421 1.433 . S
C1414 H1410 0.929 . S
C1414 C1416 1.378 . S
C1414 C1418 1.350 . S
C1415 C1418 1.463 . S
C1415 C1420 1.350 . S
C1415 N1423 1.427 . S
C1416 H1407 0.930 . S
C1416 C1414 1.378 . S
C1416 C1417 1.367 . S
C1417 C1416 1.367 . S
C1417 C1419 1.433 . S
C1418 C1414 1.350 . S
C1418 C1415 1.463 . S
C1418 N1422 1.427 . S
C1419 H1409 0.929 . S
C1419 C1417 1.433 . S
C1419 N1422 1.384 . S
C1420 H1411 0.929 . S
C1420 C1412 1.378 . S
C1420 C1415 1.350 . S
C1421 H1408 0.929 . S
C1421 C1413 1.433 . S
C1421 N1423 1.384 . S
N1422 C1418 1.427 . S
N1422 C1419 1.384 . S
N1423 C1415 1.427 . S
N1423 C1421 1.384 . S
H1424 C1430 0.930 1_455 S
H1425 C1434 0.930 . S
H1426 C1439 0.929 . S
H1427 C1437 0.929 . S
H1428 C1432 0.929 . S
H1429 C1438 0.929 . S
C1430 H1424 0.930 1_655 S
C1430 C1431 1.367 . S
C1430 C1438 1.378 . S
C1431 C1430 1.367 . S
C1431 C1439 1.433 . S
C1432 H1428 0.929 . S
C1432 C1434 1.378 . S
C1432 C1436 1.350 . S
C1433 C1436 1.463 . S
C1433 C1438 1.350 . S
C1433 N1441 1.427 . S
C1434 H1425 0.930 . S
C1434 C1432 1.378 . S
C1434 C1435 1.367 . S
C1435 C1434 1.367 . S
C1435 C1437 1.433 . S
C1436 C1432 1.350 . S
C1436 C1433 1.463 . S
C1436 N1440 1.427 . S
C1437 H1427 0.929 . S
C1437 C1435 1.433 . S
C1437 N1440 1.384 . S
C1438 H1429 0.929 . S
C1438 C1430 1.378 . S
C1438 C1433 1.350 . S
C1439 H1426 0.929 . S
C1439 C1431 1.433 . S
C1439 N1441 1.384 . S
N1440 C1436 1.427 . S
N1440 C1437 1.384 . S
N1441 C1433 1.427 . S
N1441 C1439 1.384 . S
H1442 C1448 0.930 . S
H1443 C1452 0.930 . S
H1444 C1457 0.929 . S
H1445 C1455 0.929 . S
H1446 C1450 0.929 . S
H1447 C1456 0.929 . S
C1448 H1442 0.930 . S
C1448 C1449 1.367 . S
C1448 C1456 1.378 . S
C1449 C1448 1.367 . S
C1449 C1457 1.433 . S
C1450 H1446 0.929 . S
C1450 C1452 1.378 . S
C1450 C1454 1.350 . S
C1451 C1454 1.463 . S
C1451 C1456 1.350 . S
C1451 N1459 1.427 . S
C1452 H1443 0.930 . S
C1452 C1450 1.378 . S
C1452 C1453 1.367 . S
C1453 C1452 1.367 . S
C1453 C1455 1.433 . S
C1454 C1450 1.350 . S
C1454 C1451 1.463 . S
C1454 N1458 1.427 . S
C1455 H1445 0.929 . S
C1455 C1453 1.433 . S
C1455 N1458 1.384 . S
C1456 H1447 0.929 . S
C1456 C1448 1.378 . S
C1456 C1451 1.350 . S
C1457 H1444 0.929 . S
C1457 C1449 1.433 . S
C1457 N1459 1.384 . S
N1458 C1454 1.427 . S
N1458 C1455 1.384 . S
N1459 C1451 1.427 . S
N1459 C1457 1.384 . S
H1460 C1466 0.930 1_455 S
H1461 C1470 0.930 . S
H1462 C1475 0.929 . S
H1463 C1473 0.929 . S
H1464 C1468 0.929 . S
H1465 C1474 0.929 . S
C1466 H1460 0.930 1_655 S
C1466 C1467 1.367 . S
C1466 C1474 1.378 . S
C1467 C1466 1.367 . S
C1467 C1475 1.433 . S
C1468 H1464 0.929 . S
C1468 C1470 1.378 . S
C1468 C1472 1.350 . S
C1469 C1472 1.463 . S
C1469 C1474 1.350 . S
C1469 N1477 1.427 . S
C1470 H1461 0.930 . S
C1470 C1468 1.378 . S
C1470 C1471 1.367 . S
C1471 C1470 1.367 . S
C1471 C1473 1.433 . S
C1472 C1468 1.350 . S
C1472 C1469 1.463 . S
C1472 N1476 1.427 . S
C1473 H1463 0.929 . S
C1473 C1471 1.433 . S
C1473 N1476 1.384 . S
C1474 H1465 0.929 . S
C1474 C1466 1.378 . S
C1474 C1469 1.350 . S
C1475 H1462 0.929 . S
C1475 C1467 1.433 . S
C1475 N1477 1.384 . S
N1476 C1472 1.427 . S
N1476 C1473 1.384 . S
N1477 C1469 1.427 . S
N1477 C1475 1.384 . S
H1478 C1484 0.930 . S
H1479 C1488 0.930 . S
H1480 C1493 0.929 . S
H1481 C1491 0.929 . S
H1482 C1486 0.929 . S
H1483 C1492 0.929 . S
C1484 H1478 0.930 . S
C1484 C1485 1.367 . S
C1484 C1492 1.378 . S
C1485 C1484 1.367 . S
C1485 C1493 1.433 . S
C1486 H1482 0.929 . S
C1486 C1488 1.378 . S
C1486 C1490 1.350 . S
C1487 C1490 1.463 . S
C1487 C1492 1.350 . S
C1487 N1495 1.427 . S
C1488 H1479 0.930 . S
C1488 C1486 1.378 . S
C1488 C1489 1.367 . S
C1489 C1488 1.367 . S
C1489 C1491 1.433 . S
C1490 C1486 1.350 . S
C1490 C1487 1.463 . S
C1490 N1494 1.427 . S
C1491 H1481 0.929 . S
C1491 C1489 1.433 . S
C1491 N1494 1.384 . S
C1492 H1483 0.929 . S
C1492 C1484 1.378 . S
C1492 C1487 1.350 . S
C1493 H1480 0.929 . S
C1493 C1485 1.433 . S
C1493 N1495 1.384 . S
N1494 C1490 1.427 . S
N1494 C1491 1.384 . S
N1495 C1487 1.427 . S
N1495 C1493 1.384 . S
H1496 C1502 0.930 . S
H1497 C1506 0.930 . S
H1498 C1511 0.929 . S
H1499 C1509 0.929 . S
H1500 C1504 0.929 . S
H1501 C1510 0.929 . S
C1502 H1496 0.930 . S
C1502 C1503 1.367 1_655 S
C1502 C1510 1.378 1_655 S
C1503 C1502 1.367 1_455 S
C1503 C1511 1.433 . S
C1504 H1500 0.929 . S
C1504 C1506 1.378 . S
C1504 C1508 1.350 . S
C1505 C1508 1.463 . S
C1505 C1510 1.350 . S
C1505 N1513 1.427 . S
C1506 H1497 0.930 . S
C1506 C1504 1.378 . S
C1506 C1507 1.367 . S
C1507 C1506 1.367 . S
C1507 C1509 1.433 . S
C1508 C1504 1.350 . S
C1508 C1505 1.463 . S
C1508 N1512 1.427 . S
C1509 H1499 0.929 . S
C1509 C1507 1.433 . S
C1509 N1512 1.384 . S
C1510 H1501 0.929 . S
C1510 C1502 1.378 1_455 S
C1510 C1505 1.350 . S
C1511 H1498 0.929 . S
C1511 C1503 1.433 . S
C1511 N1513 1.384 . S
N1512 C1508 1.427 . S
N1512 C1509 1.384 . S
N1513 C1505 1.427 . S
N1513 C1511 1.384 . S
H1514 C1520 0.930 . S
H1515 C1524 0.930 . S
H1516 C1529 0.929 . S
H1517 C1527 0.929 . S
H1518 C1522 0.929 . S
H1519 C1528 0.929 . S
C1520 H1514 0.930 . S
C1520 C1521 1.367 . S
C1520 C1528 1.378 . S
C1521 C1520 1.367 . S
C1521 C1529 1.433 . S
C1522 H1518 0.929 . S
C1522 C1524 1.378 . S
C1522 C1526 1.350 . S
C1523 C1526 1.463 . S
C1523 C1528 1.350 . S
C1523 N1531 1.427 . S
C1524 H1515 0.930 . S
C1524 C1522 1.378 . S
C1524 C1525 1.367 . S
C1525 C1524 1.367 . S
C1525 C1527 1.433 . S
C1526 C1522 1.350 . S
C1526 C1523 1.463 . S
C1526 N1530 1.427 . S
C1527 H1517 0.929 . S
C1527 C1525 1.433 . S
C1527 N1530 1.384 . S
C1528 H1519 0.929 . S
C1528 C1520 1.378 . S
C1528 C1523 1.350 . S
C1529 H1516 0.929 . S
C1529 C1521 1.433 . S
C1529 N1531 1.384 . S
N1530 C1526 1.427 . S
N1530 C1527 1.384 . S
N1531 C1523 1.427 . S
N1531 C1529 1.384 . S
H1532 C1538 0.930 . S
H1533 C1542 0.930 . S
H1534 C1547 0.929 . S
H1535 C1545 0.929 . S
H1536 C1540 0.929 . S
H1537 C1546 0.929 . S
C1538 H1532 0.930 . S
C1538 C1539 1.367 1_655 S
C1538 C1546 1.378 1_655 S
C1539 C1538 1.367 1_455 S
C1539 C1547 1.433 . S
C1540 H1536 0.929 . S
C1540 C1542 1.378 . S
C1540 C1544 1.350 . S
C1541 C1544 1.463 . S
C1541 C1546 1.350 . S
C1541 N1549 1.427 . S
C1542 H1533 0.930 . S
C1542 C1540 1.378 . S
C1542 C1543 1.367 . S
C1543 C1542 1.367 . S
C1543 C1545 1.433 . S
C1544 C1540 1.350 . S
C1544 C1541 1.463 . S
C1544 N1548 1.427 . S
C1545 H1535 0.929 . S
C1545 C1543 1.433 . S
C1545 N1548 1.384 . S
C1546 H1537 0.929 . S
C1546 C1538 1.378 1_455 S
C1546 C1541 1.350 . S
C1547 H1534 0.929 . S
C1547 C1539 1.433 . S
C1547 N1549 1.384 . S
N1548 C1544 1.427 . S
N1548 C1545 1.384 . S
N1549 C1541 1.427 . S
N1549 C1547 1.384 . S
H1550 C1556 0.930 . S
H1551 C1560 0.930 . S
H1552 C1565 0.929 . S
H1553 C1563 0.929 . S
H1554 C1558 0.929 . S
H1555 C1564 0.929 . S
C1556 H1550 0.930 . S
C1556 C1557 1.367 . S
C1556 C1564 1.378 . S
C1557 C1556 1.367 . S
C1557 C1565 1.433 . S
C1558 H1554 0.929 . S
C1558 C1560 1.378 . S
C1558 C1562 1.350 . S
C1559 C1562 1.463 . S
C1559 C1564 1.350 . S
C1559 N1567 1.427 . S
C1560 H1551 0.930 . S
C1560 C1558 1.378 . S
C1560 C1561 1.367 . S
C1561 C1560 1.367 . S
C1561 C1563 1.433 . S
C1562 C1558 1.350 . S
C1562 C1559 1.463 . S
C1562 N1566 1.427 . S
C1563 H1553 0.929 . S
C1563 C1561 1.433 . S
C1563 N1566 1.384 . S
C1564 H1555 0.929 . S
C1564 C1556 1.378 . S
C1564 C1559 1.350 . S
C1565 H1552 0.929 . S
C1565 C1557 1.433 . S
C1565 N1567 1.384 . S
N1566 C1562 1.427 . S
N1566 C1563 1.384 . S
N1567 C1559 1.427 . S
N1567 C1565 1.384 . S
C423 C42 1.372 . S
C427 C3 1.373 . S
C441 C31 1.377 . S
C445 C16 1.374 . S
C459 C94 1.374 . S
C463 C57 1.377 . S
C477 C81 1.376 . S
C481 C68 1.378 . S
C495 C109 1.376 . S
C499 C146 1.378 . S
C513 C120 1.373 . S
C517 C135 1.375 . S
C531 C198 1.376 . S
C535 C161 1.378 . S
C549 C174 1.374 . S
C553 C185 1.377 . S
C567 C211 1.377 . S
C571 C250 1.375 . S
C585 C224 1.377 . S
C589 C239 1.374 . S
C603 C302 1.373 . S
C607 C263 1.376 . S
C621 C289 1.375 . S
C625 C278 1.377 . S
C639 C354 1.377 . S
C643 C315 1.375 . S
C657 C328 1.372 . S
C661 C341 1.375 . S
C675 C367 1.375 . S
C679 C408 1.377 . S
C693 C382 1.374 . S
C697 C393 1.372 . S
C711 C265 1.343 . S
C715 C5 1.343 . S
C729 C172 1.332 . S
C733 C18 1.332 . S
C747 C29 1.340 . S
C751 C395 1.340 . S
C765 C44 1.340 . S
C769 C96 1.340 . S
C783 C213 1.340 . S
C787 C55 1.340 . S
C801 C122 1.336 . S
C805 C70 1.336 . S
C819 C343 1.342 . S
C823 C83 1.342 . S
C837 C107 1.339 . S
C841 C369 1.339 . S
C855 C291 1.345 . S
C859 C133 1.345 . S
C873 C200 1.345 . S
C877 C148 1.345 . S
C891 C317 1.335 . S
C895 C159 1.335 . S
C909 C187 1.343 . S
C913 C237 1.343 . S
C927 C380 1.345 . S
C931 C226 1.345 . S
C945 C252 1.345 . S
C949 C304 1.345 . S
C963 C330 1.343 . S
C967 C276 1.343 . S
C981 C406 1.345 . S
C985 C356 1.345 . S
C999 C17 1.409 . S
C1003 C4 1.414 . S
C1017 C36 1.416 . S
C1021 C43 1.411 . S
C1035 C62 1.406 . S
C1039 C69 1.408 . S
C1053 C95 1.412 . S
C1057 C82 1.416 . S
C1071 C114 1.415 . S
C1075 C121 1.416 . S
C1089 C140 1.410 . S
C1093 C147 1.415 . S
C1107 C179 1.414 . S
C1111 C166 1.416 . S
C1125 C186 1.411 . S
C1129 C199 1.415 . S
C1143 C212 1.407 . S
C1147 C225 1.411 . S
C1161 C244 1.407 . S
C1165 C251 1.410 . S
C1179 C264 1.413 . S
C1183 C283 1.408 . S
C1197 C303 1.408 . S
C1201 C290 1.406 . S
C1215 C329 1.415 . S
C1219 C316 1.416 . S
C1233 C342 1.407 . S
C1237 C355 1.412 . S
C1251 C368 1.411 . S
C1255 C387 1.416 . S
C1269 C413 1.413 . S
C1273 C394 1.408 . S
C1287 C10 1.516 1_655 S
C1291 C257 1.517 . S
C1305 C23 1.516 . S
C1309 C238 1.517 . S
C1323 C231 1.515 . S
C1327 C30 1.517 1_655 S
C1341 C49 1.516 . S
C1345 C218 1.517 . S
C1359 C309 1.517 . S
C1363 C56 1.516 1_455 S
C1377 C75 1.517 . S
C1381 C296 1.515 . S
C1395 C277 1.517 . S
C1399 C88 1.515 1_455 S
C1413 C101 1.515 . S
C1417 C270 1.517 . S
C1431 C108 1.517 1_655 S
C1435 C361 1.515 . S
C1449 C127 1.515 . S
C1453 C348 1.517 . S
C1467 C134 1.517 1_655 S
C1471 C335 1.515 . S
C1485 C322 1.517 . S
C1489 C153 1.515 . S
C1503 C160 1.516 1_455 S
C1507 C407 1.516 . S
C1521 C173 1.517 . S
C1525 C400 1.516 . S
C1539 C192 1.516 1_455 S
C1543 C381 1.517 . S
C1557 C374 1.516 . S
C1561 C205 1.517 . S
