# Generated by pormake.
# Topology ukf, (4)-cn, num edge types: 1
# Building blocks:
#     Node 0, Type 0, BuildingBlock: QUQFOY_clean_sbu_3, # of connection points: 4
#     Node 1, Type 0, BuildingBlock: QUQFOY_clean_sbu_3, # of connection points: 4
#     Node 2, Type 0, BuildingBlock: QUQFOY_clean_sbu_3, # of connection points: 4
#     Node 3, Type 0, BuildingBlock: QUQFOY_clean_sbu_3, # of connection points: 4
#     Node 4, Type 0, BuildingBlock: QUQFOY_clean_sbu_3, # of connection points: 4
#     Node 5, Type 0, BuildingBlock: QUQFOY_clean_sbu_3, # of connection points: 4
#     Node 6, Type 0, BuildingBlock: QUQFOY_clean_sbu_3, # of connection points: 4
#     Node 7, Type 0, BuildingBlock: QUQFOY_clean_sbu_3, # of connection points: 4
#     Node 8, Type 0, BuildingBlock: QUQFOY_clean_sbu_3, # of connection points: 4
#     Node 9, Type 0, BuildingBlock: QUQFOY_clean_sbu_3, # of connection points: 4
#     Node 10, Type 0, BuildingBlock: QUQFOY_clean_sbu_3, # of connection points: 4
#     Node 11, Type 0, BuildingBlock: QUQFOY_clean_sbu_3, # of connection points: 4
#     Edge 12, Type (0, 0), BuildingBlock: KIFKEQ_clean_linker_1, # of connection points: 2
#     Edge 13, Type (0, 0), BuildingBlock: KIFKEQ_clean_linker_1, # of connection points: 2
#     Edge 14, Type (0, 0), BuildingBlock: KIFKEQ_clean_linker_1, # of connection points: 2
#     Edge 15, Type (0, 0), BuildingBlock: KIFKEQ_clean_linker_1, # of connection points: 2
#     Edge 16, Type (0, 0), BuildingBlock: KIFKEQ_clean_linker_1, # of connection points: 2
#     Edge 17, Type (0, 0), BuildingBlock: KIFKEQ_clean_linker_1, # of connection points: 2
#     Edge 18, Type (0, 0), BuildingBlock: KIFKEQ_clean_linker_1, # of connection points: 2
#     Edge 19, Type (0, 0), BuildingBlock: KIFKEQ_clean_linker_1, # of connection points: 2
#     Edge 20, Type (0, 0), BuildingBlock: KIFKEQ_clean_linker_1, # of connection points: 2
#     Edge 21, Type (0, 0), BuildingBlock: KIFKEQ_clean_linker_1, # of connection points: 2
#     Edge 22, Type (0, 0), BuildingBlock: KIFKEQ_clean_linker_1, # of connection points: 2
#     Edge 23, Type (0, 0), BuildingBlock: KIFKEQ_clean_linker_1, # of connection points: 2
#     Edge 24, Type (0, 0), BuildingBlock: KIFKEQ_clean_linker_1, # of connection points: 2
#     Edge 25, Type (0, 0), BuildingBlock: KIFKEQ_clean_linker_1, # of connection points: 2
#     Edge 26, Type (0, 0), BuildingBlock: KIFKEQ_clean_linker_1, # of connection points: 2
#     Edge 27, Type (0, 0), BuildingBlock: KIFKEQ_clean_linker_1, # of connection points: 2
#     Edge 28, Type (0, 0), BuildingBlock: KIFKEQ_clean_linker_1, # of connection points: 2
#     Edge 29, Type (0, 0), BuildingBlock: KIFKEQ_clean_linker_1, # of connection points: 2
#     Edge 30, Type (0, 0), BuildingBlock: KIFKEQ_clean_linker_1, # of connection points: 2
#     Edge 31, Type (0, 0), BuildingBlock: KIFKEQ_clean_linker_1, # of connection points: 2
#     Edge 32, Type (0, 0), BuildingBlock: KIFKEQ_clean_linker_1, # of connection points: 2
#     Edge 33, Type (0, 0), BuildingBlock: KIFKEQ_clean_linker_1, # of connection points: 2
#     Edge 34, Type (0, 0), BuildingBlock: KIFKEQ_clean_linker_1, # of connection points: 2
#     Edge 35, Type (0, 0), BuildingBlock: KIFKEQ_clean_linker_1, # of connection points: 2
# Relax obj value: 0.130
# Max RMSD: 0.097
# Mean RMSD: 0.097
data_MOF--net-ukf--node1-QUQFOY_clean_sbu_3--edge1-KIFKEQ_clean_linker_1
_symmetry_space_group_name_H-M    P1
_symmetry_Int_Tables_number       1
_symmetry_cell_setting            triclinic
loop_
_symmetry_equiv_pos_as_xyz
'x, y, z'
_cell_length_a     32.469904
_cell_length_b     32.487091
_cell_length_c     69.816427
_cell_angle_alpha  89.991057
_cell_angle_beta   89.996813
_cell_angle_gamma 119.9713
loop_
_atom_site_label
_atom_site_type_symbol
_atom_site_fract_x
_atom_site_fract_y
_atom_site_fract_z
_atom_type_partial_charge
C0 C 0.28662 0.14909 0.01843 0.0
O1 O 0.30082 0.18231 0.00621 0.0
Cd2 Cd 0.37519 0.25419 0.00973 0.0
O3 O 0.31127 0.15407 0.03334 0.0
Cd4 Cd 0.38539 0.21669 0.04802 0.0
C5 C 0.45344 0.21233 0.01347 0.0
O6 O 0.37872 0.28688 0.04083 0.0
O7 O 0.4491 0.29891 0.04683 0.0
O8 O 0.34369 0.19285 0.07881 0.0
C9 C 0.42185 0.31597 0.04469 0.0
O10 O 0.44044 0.23782 0.00429 0.0
C11 C 0.37959 0.1983 0.08814 0.0
O12 O 0.4349 0.1944 0.0296 0.0
O13 O 0.41724 0.20999 0.0787 0.0
C14 C 0.12702 0.29161 0.35283 0.0
O15 O 0.10899 0.30919 0.34166 0.0
Cd16 Cd 0.10918 0.38186 0.34814 0.0
O17 O 0.14574 0.31195 0.36864 0.0
Cd18 Cd 0.15885 0.38227 0.38694 0.0
C19 C 0.22912 0.45859 0.35296 0.0
O20 O 0.08361 0.37943 0.38039 0.0
O21 O 0.13993 0.44473 0.39229 0.0
O22 O 0.13817 0.33753 0.41691 0.0
C23 C 0.09674 0.42019 0.38736 0.0
O24 O 0.19074 0.44734 0.34399 0.0
C25 C 0.17525 0.36761 0.42577 0.0
O26 O 0.22859 0.43715 0.36831 0.0
O27 O 0.20564 0.40319 0.41624 0.0
C28 C 0.82507 0.12749 0.68557 0.0
O29 O 0.78987 0.11061 0.6742 0.0
Cd30 Cd 0.7181 0.11208 0.68086 0.0
O31 O 0.82333 0.1457 0.70149 0.0
Cd32 Cd 0.76697 0.15943 0.72008 0.0
C33 C 0.76248 0.23212 0.68673 0.0
O34 O 0.69495 0.08465 0.71293 0.0
O35 O 0.68535 0.13975 0.72571 0.0
O36 O 0.79152 0.13621 0.7493 0.0
C37 C 0.66705 0.09697 0.72028 0.0
O38 O 0.73547 0.19426 0.67745 0.0
C39 C 0.79795 0.17209 0.75893 0.0
O40 O 0.78279 0.23062 0.70211 0.0
O41 O 0.79222 0.20312 0.75016 0.0
C42 C 0.69282 0.83593 0.02241 0.0
O43 O 0.67875 0.80304 0.01005 0.0
Cd44 Cd 0.60295 0.73281 0.01262 0.0
O45 O 0.66758 0.83098 0.03714 0.0
Cd46 Cd 0.59273 0.76879 0.05172 0.0
C47 C 0.5281 0.77892 0.01681 0.0
O48 O 0.59782 0.69839 0.04356 0.0
O49 O 0.52806 0.68691 0.05049 0.0
O50 O 0.6346 0.79142 0.08249 0.0
C51 C 0.55473 0.66948 0.04756 0.0
O52 O 0.54166 0.7549 0.0069 0.0
C53 C 0.59911 0.78692 0.09186 0.0
O54 O 0.5443 0.79265 0.03363 0.0
O55 O 0.56156 0.77596 0.08248 0.0
C56 C 0.85325 0.69315 0.35323 0.0
O57 O 0.87147 0.6765 0.34169 0.0
Cd58 Cd 0.87047 0.60305 0.34725 0.0
O59 O 0.83445 0.67158 0.36883 0.0
Cd60 Cd 0.82172 0.60019 0.38618 0.0
C61 C 0.75047 0.52644 0.35189 0.0
O62 O 0.89672 0.60259 0.37919 0.0
O63 O 0.83937 0.5366 0.3902 0.0
O64 O 0.84427 0.64401 0.41633 0.0
C65 C 0.88283 0.56119 0.38565 0.0
O66 O 0.78877 0.53825 0.34276 0.0
C67 C 0.80776 0.6138 0.42545 0.0
O68 O 0.7512 0.54678 0.36758 0.0
O69 O 0.77666 0.57849 0.41601 0.0
C70 C 0.15346 0.85996 0.68466 0.0
O71 O 0.18746 0.87526 0.67273 0.0
Cd72 Cd 0.25657 0.86825 0.67823 0.0
O73 O 0.15604 0.84199 0.70051 0.0
Cd74 Cd 0.21223 0.82696 0.71865 0.0
C75 C 0.20709 0.7479 0.68596 0.0
O76 O 0.28596 0.89766 0.70968 0.0
O77 O 0.29238 0.84113 0.72311 0.0
O78 O 0.20139 0.86009 0.74818 0.0
C79 C 0.3125 0.88348 0.71694 0.0
O80 O 0.23153 0.78383 0.67527 0.0
C81 C 0.18509 0.82197 0.75779 0.0
O82 O 0.19285 0.75285 0.70235 0.0
O83 O 0.17984 0.78541 0.749 0.0
C84 C 0.83083 0.69671 0.63999 0.0
O85 O 0.79651 0.68186 0.65173 0.0
Cd86 Cd 0.72474 0.60746 0.64726 0.0
O87 O 0.82728 0.67286 0.625 0.0
Cd88 Cd 0.7674 0.5998 0.60895 0.0
C89 C 0.76765 0.52984 0.64401 0.0
O90 O 0.69572 0.60389 0.61545 0.0
O91 O 0.68561 0.53499 0.60783 0.0
O92 O 0.78727 0.64241 0.57859 0.0
C93 C 0.66756 0.56115 0.6107 0.0
O94 O 0.74176 0.54285 0.65289 0.0
C95 C 0.79201 0.61147 0.56931 0.0
O96 O 0.78659 0.54855 0.628 0.0
O97 O 0.7872 0.5758 0.57868 0.0
C98 C 0.11986 0.82606 0.97426 0.0
O99 O 0.10425 0.79144 0.98588 0.0
Cd100 Cd 0.11066 0.72227 0.97975 0.0
O101 O 0.13798 0.82424 0.95832 0.0
Cd102 Cd 0.15332 0.76919 0.9395 0.0
C103 C 0.23134 0.7724 0.97231 0.0
O104 O 0.08246 0.69524 0.94798 0.0
O105 O 0.13907 0.68927 0.93435 0.0
O106 O 0.12137 0.78202 0.91003 0.0
C107 C 0.09671 0.66894 0.94053 0.0
O108 O 0.1951 0.74735 0.98278 0.0
C109 C 0.15976 0.79835 0.90059 0.0
O110 O 0.22685 0.78752 0.95604 0.0
O111 O 0.19592 0.80281 0.90947 0.0
C112 C 0.28916 0.13312 0.30332 0.0
O113 O 0.30449 0.11361 0.31484 0.0
Cd114 Cd 0.37783 0.11397 0.31027 0.0
O115 O 0.31223 0.15321 0.28813 0.0
Cd116 Cd 0.38512 0.16647 0.27171 0.0
C117 C 0.45549 0.23418 0.30745 0.0
O118 O 0.37965 0.08977 0.27814 0.0
O119 O 0.44728 0.14647 0.26823 0.0
O120 O 0.34281 0.15185 0.24116 0.0
C121 C 0.42138 0.1029 0.27229 0.0
O122 O 0.44282 0.19506 0.31607 0.0
C123 C 0.37772 0.18553 0.23246 0.0
O124 O 0.43653 0.23495 0.29159 0.0
O125 O 0.41466 0.21158 0.24226 0.0
C126 C 0.14757 0.28677 0.64015 0.0
O127 O 0.18079 0.30179 0.65241 0.0
Cd128 Cd 0.25092 0.37764 0.64887 0.0
O129 O 0.15222 0.31079 0.62508 0.0
Cd130 Cd 0.21352 0.38413 0.60949 0.0
C131 C 0.2043 0.45166 0.64355 0.0
O132 O 0.28507 0.38166 0.61792 0.0
O133 O 0.29493 0.45004 0.60949 0.0
O134 O 0.19747 0.34144 0.57919 0.0
C135 C 0.31317 0.42433 0.61306 0.0
O136 O 0.22833 0.43872 0.65379 0.0
C137 C 0.19296 0.372 0.5695 0.0
O138 O 0.19066 0.43451 0.62685 0.0
O139 O 0.19636 0.40745 0.57857 0.0
C140 C 0.85931 0.15718 0.97642 0.0
O141 O 0.87549 0.19269 0.9876 0.0
Cd142 Cd 0.87352 0.26387 0.98026 0.0
O143 O 0.84146 0.1582 0.9603 0.0
Cd144 Cd 0.82732 0.21379 0.94136 0.0
C145 C 0.75353 0.21816 0.97415 0.0
O146 O 0.90145 0.28696 0.94821 0.0
O147 O 0.84491 0.29458 0.93563 0.0
O148 O 0.85086 0.19061 0.9118 0.0
C149 C 0.88801 0.31387 0.94075 0.0
O150 O 0.79111 0.24607 0.9834 0.0
C151 C 0.8141 0.18294 0.90249 0.0
O152 O 0.75565 0.19736 0.95903 0.0
O153 O 0.78257 0.18714 0.91162 0.0
C154 C 0.69114 0.85481 0.30685 0.0
O155 O 0.67576 0.87393 0.31853 0.0
Cd156 Cd 0.60233 0.87348 0.31378 0.0
O157 O 0.66814 0.8353 0.29159 0.0
Cd158 Cd 0.59527 0.82265 0.27546 0.0
C159 C 0.5246 0.75368 0.31075 0.0
O160 O 0.6003 0.89935 0.28187 0.0
O161 O 0.53261 0.84181 0.27241 0.0
O162 O 0.63739 0.83769 0.24482 0.0
C163 C 0.5584 0.88563 0.27605 0.0
O164 O 0.53686 0.79257 0.31947 0.0
C165 C 0.60237 0.80419 0.2361 0.0
O166 O 0.54409 0.75341 0.29496 0.0
O167 O 0.56547 0.77809 0.24592 0.0
H168 H 0.09343 0.84685 0.0086 0.0
H169 H 0.15353 0.90757 0.95341 0.0
H170 H 0.11591 0.92578 0.02065 0.0
H171 H 0.17713 0.98603 0.96555 0.0
H172 H 0.22382 0.12599 0.9887 0.0
H173 H 0.16382 0.04634 0.97869 0.0
H174 H 0.19446 0.98784 0.02872 0.0
H175 H 0.25297 0.06709 0.03899 0.0
C176 C 0.11047 0.87683 -0.00109 0.0
C177 C 0.12289 0.87115 0.9802 0.0
C178 C 0.12348 0.92206 0.00584 0.0
C179 C 0.14922 0.96234 0.99421 0.0
C180 C 0.1572 0.9559 0.97493 0.0
C181 C 0.14406 0.91078 0.96799 0.0
C182 C 0.21687 0.09617 -0.00221 0.0
C183 C 0.24401 0.10269 0.01438 0.0
C184 C 0.18252 0.05055 0.99204 0.0
C185 C 0.17497 0.01064 0.00269 0.0
C186 C 0.19904 0.01769 0.02019 0.0
C187 C 0.23308 0.06325 0.02601 0.0
H188 H 0.1677 0.24816 0.37226 0.0
H189 H 0.09652 0.24213 0.31912 0.0
H190 H 0.19076 0.19347 0.35934 0.0
H191 H 0.11859 0.18597 0.30632 0.0
H192 H 0.25179 0.17966 0.2838 0.0
H193 H 0.19578 0.20204 0.29587 0.0
H194 H 0.17471 0.11806 0.3468 0.0
H195 H 0.23213 0.09666 0.33492 0.0
C196 C 0.15581 0.23414 0.35799 0.0
C197 C 0.13138 0.25051 0.34654 0.0
C198 C 0.16866 0.20227 0.35062 0.0
C199 C 0.15716 0.18588 0.33166 0.0
C200 C 0.12879 0.19873 0.32084 0.0
C201 C 0.11606 0.23081 0.32821 0.0
C202 C 0.23449 0.16506 0.29738 0.0
C203 C 0.24742 0.13746 0.30864 0.0
C204 C 0.2019 0.17755 0.30425 0.0
C205 C 0.18133 0.16248 0.32247 0.0
C206 C 0.19075 0.13105 0.33289 0.0
C207 C 0.22358 0.11872 0.32605 0.0
H208 H 0.8447 0.09826 0.65165 0.0
H209 H 0.90772 0.16406 0.70582 0.0
H210 H 0.92302 0.11833 0.63954 0.0
H211 H 0.98557 0.18525 0.69361 0.0
H212 H 0.06576 0.25136 0.61934 0.0
H213 H 0.98629 0.19495 0.63013 0.0
H214 H 0.04428 0.16834 0.68132 0.0
H215 H 0.1242 0.22633 0.67076 0.0
C216 C 0.87507 0.11619 0.66109 0.0
C217 C 0.87019 0.13067 0.67952 0.0
C218 C 0.91994 0.12776 0.65414 0.0
C219 C 0.96068 0.15413 0.66547 0.0
C220 C 0.95505 0.16465 0.68449 0.0
C221 C 0.9103 0.15294 0.69145 0.0
C222 C 0.06177 0.23272 0.63269 0.0
C223 C 0.10118 0.24439 0.64447 0.0
C224 C 0.01605 0.19989 0.63881 0.0
C225 C 0.00883 0.17778 0.65679 0.0
C226 C 0.04865 0.18565 0.6676 0.0
C227 C 0.09444 0.21881 0.66153 0.0
H228 H 0.75729 0.85844 0.99338 0.0
H229 H 0.72562 0.9182 0.04272 0.0
H230 H 0.81721 0.93795 0.98321 0.0
H231 H 0.78412 -0.00265 0.03228 0.0
H232 H 0.88479 0.13813 0.01133 0.0
H233 H 0.86265 0.05992 0.02416 0.0
H234 H 0.80255 -0.00321 0.9693 0.0
H235 H 0.82572 0.07451 0.95641 0.0
C236 C 0.76372 0.88842 0.00225 0.0
C237 C 0.73582 0.88218 0.01857 0.0
C238 C 0.79802 0.93397 0.99641 0.0
C239 C 0.80475 0.97406 0.00669 0.0
C240 C 0.78011 0.96734 0.02403 0.0
C241 C 0.74611 0.92183 0.02994 0.0
C242 C 0.86801 0.10766 0.00188 0.0
C243 C 0.85586 0.11233 0.983 0.0
C244 C 0.85523 0.06286 0.00926 0.0
C245 C 0.83003 0.02201 -0.00211 0.0
C246 C 0.82213 0.02741 0.97848 0.0
C247 C 0.835 0.07209 0.97111 0.0
H248 H 0.74705 0.88841 0.3389 0.0
H249 H 0.72942 0.81036 0.28649 0.0
H250 H 0.80433 0.86621 0.35023 0.0
H251 H 0.78521 0.78714 0.29801 0.0
H252 H 0.88418 0.74544 0.32016 0.0
H253 H 0.86203 0.8024 0.30838 0.0
H254 H 0.78866 0.79007 0.3616 0.0
H255 H 0.81185 0.73461 0.37353 0.0
C256 C 0.75603 0.86729 0.32964 0.0
C257 C 0.73279 0.85015 0.312 0.0
C258 C 0.78876 0.85448 0.33616 0.0
C259 C 0.79869 0.82416 0.3252 0.0
C260 C 0.7787 0.81074 0.30681 0.0
C261 C 0.74622 0.82371 0.30026 0.0
C262 C 0.86435 0.75585 0.32952 0.0
C263 C 0.84877 0.73462 0.3476 0.0
C264 C 0.85156 0.78839 0.32274 0.0
C265 C 0.82284 0.80014 0.33389 0.0
C266 C 0.81103 0.78214 0.35264 0.0
C267 C 0.82396 0.74984 0.35943 0.0
H268 H 0.85296 0.75545 0.67113 0.0
H269 H 0.91312 0.734 0.61943 0.0
H270 H 0.93233 0.81471 0.68181 0.0
H271 H -0.008 0.79164 0.63032 0.0
H272 H 0.13248 0.89016 0.65129 0.0
H273 H 0.05348 0.86892 0.63969 0.0
H274 H -0.00674 0.80099 0.69388 0.0
H275 H 0.07181 0.82347 0.70561 0.0
C276 C 0.88297 0.76397 0.66189 0.0
C277 C 0.8769 0.73913 0.64467 0.0
C278 C 0.92844 0.79787 0.66802 0.0
C279 C 0.96863 0.80729 0.65711 0.0
C280 C 0.96196 0.78561 0.63907 0.0
C281 C 0.91659 0.75202 0.6329 0.0
C282 C 0.10249 0.87186 0.6609 0.0
C283 C 0.10822 0.85731 0.67918 0.0
C284 C 0.05721 0.85958 0.65422 0.0
C285 C 0.01691 0.83232 0.66568 0.0
C286 C 0.02338 0.82213 0.68464 0.0
C287 C 0.06857 0.83463 0.69134 0.0
H288 H 0.66396 0.14543 0.96568 0.0
H289 H 0.73891 0.27824 0.99652 0.0
H290 H 0.58787 0.13915 0.97473 0.0
H291 H 0.66313 0.27229 0.005 0.0
H292 H 0.52044 0.26847 0.98737 0.0
H293 H 0.59149 0.2658 0.9779 0.0
H294 H 0.54809 0.14195 0.01322 0.0
H295 H 0.47717 0.14503 0.02323 0.0
C296 C 0.66419 0.17309 0.97442 0.0
C297 C 0.70739 0.21234 0.98039 0.0
C298 C 0.62079 0.16939 0.97959 0.0
C299 C 0.62009 0.20537 0.99044 0.0
C300 C 0.66306 0.24424 -0.00343 0.0
C301 C 0.70629 0.24747 0.99178 0.0
C302 C 0.52558 0.24025 0.99295 0.0
C303 C 0.49329 0.20706 0.00612 0.0
C304 C 0.56628 0.23889 0.98756 0.0
C305 C 0.57494 0.20376 0.9949 0.0
C306 C 0.54184 0.16925 0.00738 0.0
C307 C 0.50149 0.17115 0.01311 0.0
H308 H 0.31987 0.47795 0.36065 0.0
H309 H 0.24034 0.53122 0.33005 0.0
H310 H 0.39442 0.5483 0.35073 0.0
H311 H 0.31461 0.60163 0.32069 0.0
H312 H 0.45496 0.74364 0.33524 0.0
H313 H 0.38475 0.66993 0.34527 0.0
H314 H 0.43382 0.58869 0.31359 0.0
H315 H 0.50388 0.66262 0.30303 0.0
C316 C 0.31832 0.5045 0.35177 0.0
C317 C 0.2743 0.49912 0.34612 0.0
C318 C 0.36085 0.54451 0.3461 0.0
C319 C 0.35985 0.58013 0.33509 0.0
C320 C 0.31603 0.57455 0.32926 0.0
C321 C 0.27365 0.5342 0.33455 0.0
C322 C 0.45115 0.71012 0.33056 0.0
C323 C 0.48483 0.70889 0.31828 0.0
C324 C 0.41093 0.66807 0.33625 0.0
C325 C 0.40415 0.62401 0.33011 0.0
C326 C 0.43858 0.62244 0.31849 0.0
C327 C 0.47842 0.66462 0.31244 0.0
H328 H 0.83434 0.32232 0.69496 0.0
H329 H 0.70244 0.2451 0.66364 0.0
H330 H 0.84023 0.39764 0.68497 0.0
H331 H 0.70798 0.32011 0.65422 0.0
H332 H 0.70985 0.46276 0.66973 0.0
H333 H 0.71253 0.3923 0.68004 0.0
H334 H 0.83881 0.43591 0.64622 0.0
H335 H 0.83575 0.50627 0.63537 0.0
C336 C 0.80678 0.32143 0.68593 0.0
C337 C 0.76793 0.27782 0.68008 0.0
C338 C 0.81028 0.3644 0.68021 0.0
C339 C 0.77445 0.36426 0.66893 0.0
C340 C 0.73592 0.32085 0.66296 0.0
C341 C 0.73292 0.27805 0.6683 0.0
C342 C 0.73857 0.45777 0.66464 0.0
C343 C 0.77251 0.49001 0.65167 0.0
C344 C 0.73993 0.4174 0.6705 0.0
C345 C 0.77581 0.40899 0.66386 0.0
C346 C 0.81094 0.44197 0.65154 0.0
C347 C 0.80904 0.48199 0.64532 0.0
H348 H 0.25576 0.75615 0.00776 0.0
H349 H 0.31414 0.80997 0.95163 0.0
H350 H 0.33165 0.76545 0.01786 0.0
H351 H 0.39044 0.8196 0.96188 0.0
H352 H 0.4833 0.81965 0.03548 0.0
H353 H 0.41542 0.82586 0.02439 0.0
H354 H 0.41926 0.7637 0.97023 0.0
H355 H 0.48741 0.75781 0.98118 0.0
C356 C 0.28492 0.77045 -0.00238 0.0
C357 C 0.27875 0.78203 0.97884 0.0
C358 C 0.32856 0.7761 0.00347 0.0
C359 C 0.36701 0.79322 0.99066 0.0
C360 C 0.3613 0.80595 0.97202 0.0
C361 C 0.31767 0.80064 0.96619 0.0
C362 C 0.47014 0.80789 0.02111 0.0
C363 C 0.49056 0.7878 0.00929 0.0
C364 C 0.4311 0.81126 0.0148 0.0
C365 C 0.41178 0.79491 0.99651 0.0
C366 C 0.43356 0.77692 0.98435 0.0
C367 C 0.47246 0.7733 0.99069 0.0
H368 H 0.47711 0.32563 0.29987 0.0
H369 H 0.52381 0.24325 0.33246 0.0
H370 H 0.54687 0.3991 0.31103 0.0
H371 H 0.5937 0.3165 0.34306 0.0
H372 H 0.739 0.45614 0.32753 0.0
H373 H 0.66467 0.3866 0.31761 0.0
H374 H 0.58509 0.43664 0.34988 0.0
H375 H 0.65972 0.50611 0.36037 0.0
C376 C 0.502 0.32322 0.30949 0.0
C377 C 0.49507 0.2787 0.31527 0.0
C378 C 0.54165 0.36514 0.31588 0.0
C379 C 0.57534 0.36303 0.32778 0.0
C380 C 0.56804 0.31874 0.33385 0.0
C381 C 0.52801 0.27696 0.32782 0.0
C382 C 0.70573 0.45266 0.33241 0.0
C383 C 0.70519 0.48653 0.34477 0.0
C384 C 0.66333 0.41281 0.32678 0.0
C385 C 0.61958 0.40657 0.33307 0.0
C386 C 0.61863 0.441 0.34488 0.0
C387 C 0.66121 0.4805 0.35088 0.0
H388 H 0.16322 0.49518 0.62414 0.0
H389 H 0.22471 0.49374 0.67889 0.0
H390 H 0.15571 0.56274 0.63462 0.0
H391 H 0.2176 0.56156 0.68922 0.0
H392 H 0.16997 0.66563 0.70695 0.0
H393 H 0.16107 0.58944 0.69708 0.0
H394 H 0.21438 0.64689 0.64087 0.0
H395 H 0.22288 0.72266 0.65058 0.0
C396 C 0.17467 0.50889 0.63848 0.0
C397 C 0.19499 0.48928 0.65061 0.0
C398 C 0.17055 0.54775 0.64443 0.0
C399 C 0.18638 0.56769 0.66269 0.0
C400 C 0.20471 0.54677 0.67513 0.0
C401 C 0.20906 0.50806 0.66915 0.0
C402 C 0.17923 0.66182 0.69241 0.0
C403 C 0.19746 0.70038 0.6796 0.0
C404 C 0.17435 0.61825 0.68681 0.0
C405 C 0.18717 0.61221 0.66823 0.0
C406 C 0.20371 0.65022 0.65522 0.0
C407 C 0.2089 0.6938 0.66085 0.0
H408 H 0.45149 0.25288 0.11223 0.0
H409 H 0.30592 0.13867 0.11126 0.0
H410 H 0.44993 0.2538 0.14692 0.0
H411 H 0.30512 0.13601 0.14618 0.0
H412 H 0.30192 0.16461 0.20924 0.0
H413 H 0.3019 0.16953 0.17437 0.0
H414 H 0.45277 0.21795 0.17395 0.0
H415 H 0.45292 0.217 0.20859 0.0
C416 C 0.41946 0.22712 0.11956 0.0
C417 C 0.37897 0.19547 0.10917 0.0
C418 C 0.41851 0.22734 0.13953 0.0
C419 C 0.3775 0.19468 0.14965 0.0
C420 C 0.33711 0.16243 0.13908 0.0
C421 C 0.33762 0.16341 0.11904 0.0
C422 C 0.33505 0.17706 0.20156 0.0
C423 C 0.37749 0.19094 0.21153 0.0
C424 C 0.33508 0.17932 0.18154 0.0
C425 C 0.37734 0.19403 0.17106 0.0
C426 C 0.41967 0.20772 0.18128 0.0
C427 C 0.41983 0.20693 0.20123 0.0
H428 H 0.11816 0.29407 0.44959 0.0
H429 H 0.24387 0.43336 0.44909 0.0
H430 H 0.1215 0.29286 0.48457 0.0
H431 H 0.24704 0.43201 0.48396 0.0
H432 H 0.197 0.43867 0.54467 0.0
H433 H 0.19398 0.43483 0.50978 0.0
H434 H 0.17366 0.29301 0.51183 0.0
H435 H 0.1767 0.29674 0.54683 0.0
C436 C 0.14684 0.3241 0.45692 0.0
C437 C 0.18061 0.36392 0.44661 0.0
C438 C 0.14875 0.32335 0.47692 0.0
C439 C 0.18416 0.3626 0.48694 0.0
C440 C 0.21891 0.40161 0.47658 0.0
C441 C 0.21728 0.40219 0.45662 0.0
C442 C 0.19152 0.40652 0.5377 0.0
C443 C 0.18719 0.36805 0.54848 0.0
C444 C 0.19019 0.40449 0.51773 0.0
C445 C 0.18409 0.36381 0.50813 0.0
C446 C 0.17833 0.32476 0.51889 0.0
C447 C 0.18014 0.32696 0.53889 0.0
H448 H 0.87396 0.16877 0.8793 0.0
H449 H 0.74648 0.17941 0.87842 0.0
H450 H 0.87325 0.16587 0.84425 0.0
H451 H 0.74607 0.17673 0.84355 0.0
H452 H 0.79807 0.23659 0.78387 0.0
H453 H 0.80228 0.23578 0.81871 0.0
H454 H 0.8214 0.11359 0.81615 0.0
H455 H 0.81698 0.11412 0.78115 0.0
C456 C 0.84548 0.16983 0.87166 0.0
C457 C 0.81041 0.17458 0.88161 0.0
C458 C 0.84512 0.16817 0.85163 0.0
C459 C 0.81003 0.17181 0.84125 0.0
C460 C 0.774 0.17469 0.85122 0.0
C461 C 0.77404 0.17582 0.87119 0.0
C462 C 0.80378 0.20989 0.79068 0.0
C463 C 0.80692 0.17525 0.77977 0.0
C464 C 0.8058 0.20922 0.81063 0.0
C465 C 0.81147 0.1742 0.82008 0.0
C466 C 0.81695 0.14092 0.80918 0.0
C467 C 0.81439 0.14125 0.78919 0.0
H468 H 0.52702 0.73449 0.11623 0.0
H469 H 0.67372 0.84609 0.11466 0.0
H470 H 0.52889 0.73513 0.15093 0.0
H471 H 0.67494 0.85039 0.14954 0.0
H472 H 0.67771 0.82337 0.21289 0.0
H473 H 0.67744 0.81759 0.17804 0.0
H474 H 0.52739 0.77286 0.17761 0.0
H475 H 0.52742 0.77458 0.21226 0.0
C476 C 0.55942 0.76 0.12342 0.0
C477 C 0.60012 0.79044 0.11287 0.0
C478 C 0.56054 0.76071 0.14339 0.0
C479 C 0.60197 0.79315 0.15334 0.0
C480 C 0.6426 0.82417 0.14259 0.0
C481 C 0.64187 0.82224 0.12257 0.0
C482 C 0.64469 0.81159 0.20521 0.0
C483 C 0.6025 0.79884 0.21518 0.0
C484 C 0.6445 0.80882 0.1852 0.0
C485 C 0.60236 0.79475 0.17473 0.0
C486 C 0.56034 0.78247 0.18494 0.0
C487 C 0.56029 0.78372 0.20489 0.0
H488 H 0.78866 0.54414 0.54499 0.0
H489 H 0.81031 0.68664 0.54623 0.0
H490 H 0.79226 0.5471 0.51008 0.0
H491 H 0.81382 0.68945 0.51126 0.0
H492 H 0.86624 0.68721 0.44901 0.0
H493 H 0.86469 0.68867 0.484 0.0
H494 H 0.73944 0.54927 0.48417 0.0
H495 H 0.74091 0.54765 0.44926 0.0
C496 C 0.79466 0.57625 0.53782 0.0
C497 C 0.79905 0.61509 0.54834 0.0
C498 C 0.79631 0.57778 0.51784 0.0
C499 C 0.80279 0.61831 0.50798 0.0
C500 C 0.80889 0.65781 0.5185 0.0
C501 C 0.8068 0.65613 0.5385 0.0
C502 C 0.83806 0.65713 0.45652 0.0
C503 C 0.80378 0.61725 0.44639 0.0
C504 C 0.83718 0.65801 0.47653 0.0
C505 C 0.80229 0.61885 0.48677 0.0
C506 C 0.76722 0.57961 0.47662 0.0
C507 C 0.76783 0.57889 0.45664 0.0
H508 H 0.23811 0.85009 0.87824 0.0
H509 H 0.08471 0.76763 0.87616 0.0
H510 H 0.24045 0.85907 0.84339 0.0
H511 H 0.08731 0.77593 0.8413 0.0
H512 H 0.1323 0.74449 0.7804 0.0
H513 H 0.12327 0.7431 0.81523 0.0
H514 H 0.20968 0.89596 0.81684 0.0
H515 H 0.21803 0.89763 0.78199 0.0
C516 C 0.20495 0.83436 0.87037 0.0
C517 C 0.16126 0.80808 0.87988 0.0
C518 C 0.20629 0.83963 0.85047 0.0
C519 C 0.16404 0.81799 0.83976 0.0
C520 C 0.12032 0.79271 0.84929 0.0
C521 C 0.1189 0.7882 0.86921 0.0
C522 C 0.14881 0.7778 0.78817 0.0
C523 C 0.17592 0.82113 0.77852 0.0
C524 C 0.1435 0.77701 0.80804 0.0
C525 C 0.16593 0.81944 0.81862 0.0
C526 C 0.19224 0.86282 0.80896 0.0
C527 C 0.19679 0.8637 0.78905 0.0
H528 H 0.60143 0.62136 0.0548 0.0
H529 H 0.46446 0.60187 0.03874 0.0
H530 H 0.56873 0.53566 0.0546 0.0
H531 H 0.43226 0.51644 0.03709 0.0
H532 H 0.37485 0.36287 0.05382 0.0
H533 H 0.4072 0.44852 0.05505 0.0
H534 H 0.54296 0.47006 0.03521 0.0
H535 H 0.51122 0.38466 0.03542 0.0
C536 C 0.56445 0.59858 0.05096 0.0
C537 C 0.53536 0.61792 0.04684 0.0
C538 C 0.54568 0.54947 0.05069 0.0
C539 C 0.49773 0.51882 0.04577 0.0
C540 C 0.46898 0.53862 0.04137 0.0
C541 C 0.48747 0.58762 0.04215 0.0
C542 C 0.41159 0.38616 0.04977 0.0
C543 C 0.44067 0.36747 0.04462 0.0
C544 C 0.43015 0.43525 0.05032 0.0
C545 C 0.47785 0.46652 0.04524 0.0
C546 C 0.50649 0.44736 0.03969 0.0
C547 C 0.48824 0.39838 0.03964 0.0
H548 H 0.86053 0.47256 0.39745 0.0
H549 H 0.97644 0.60395 0.37544 0.0
H550 H 0.9123 0.43836 0.39836 0.0
H551 H 0.02806 0.56935 0.37608 0.0
H552 H 0.11767 0.50804 0.39974 0.0
H553 H 0.06584 0.54226 0.39971 0.0
H554 H 0.95256 0.41244 0.37552 0.0
H555 H 0.00417 0.37786 0.3758 0.0
C556 C 0.89705 0.4941 0.39277 0.0
C557 C 0.91448 0.54091 0.38635 0.0
C558 C 0.92658 0.47441 0.3932 0.0
C559 C 0.97412 0.50116 0.38725 0.0
C560 C -0.00834 0.5481 0.38094 0.0
C561 C 0.96208 0.5678 0.38049 0.0
C562 C 0.08166 0.48676 0.39446 0.0
C563 C 0.06493 0.4403 0.38775 0.0
C564 C 0.05212 0.50647 0.39434 0.0
C565 C 0.00527 0.48006 0.38756 0.0
C566 C 0.98839 0.43343 0.38101 0.0
C567 C 0.01797 0.41373 0.3811 0.0
H568 H 0.61798 0.00429 0.70887 0.0
H569 H 0.59922 0.11704 0.73229 0.0
H570 H 0.53186 0.95207 0.70821 0.0
H571 H 0.51328 0.06467 0.73181 0.0
H572 H 0.36449 0.97603 0.70578 0.0
H573 H 0.45062 0.0271 0.70697 0.0
H574 H 0.464 0.91167 0.73089 0.0
H575 H 0.37787 0.86034 0.72953 0.0
C576 C 0.59548 0.01781 0.71397 0.0
C577 C 0.61524 0.06476 0.72056 0.0
C578 C 0.54627 0.98788 0.71367 0.0
C579 C 0.51601 0.00446 0.71989 0.0
C580 C 0.53582 0.05122 0.72669 0.0
C581 C 0.58498 0.08107 0.72706 0.0
C582 C 0.38582 0.96155 0.71127 0.0
C583 C 0.36452 0.91424 0.71756 0.0
C584 C 0.43505 0.99085 0.71205 0.0
C585 C 0.46387 0.97331 0.71907 0.0
C586 C 0.4426 0.92592 0.72526 0.0
C587 C 0.39334 0.89667 0.72455 0.0
H588 H 0.60041 0.47111 0.61991 0.0
H589 H 0.61881 0.60652 0.60216 0.0
H590 H 0.51486 0.43832 0.62131 0.0
H591 H 0.53293 0.5731 0.602 0.0
H592 H 0.3811 0.51522 0.62072 0.0
H593 H 0.4668 0.54815 0.62083 0.0
H594 H 0.44686 0.41128 0.6036 0.0
H595 H 0.36113 0.37795 0.60505 0.0
C596 C 0.58587 0.49359 0.61602 0.0
C597 C 0.61588 0.54124 0.61096 0.0
C598 C 0.53678 0.47476 0.61666 0.0
C599 C 0.51658 0.50287 0.6117 0.0
C600 C 0.54698 0.55055 0.60635 0.0
C601 C 0.59619 0.56971 0.60626 0.0
C602 C 0.3953 0.49231 0.61706 0.0
C603 C 0.36484 0.44414 0.61294 0.0
C604 C 0.44444 0.5112 0.61694 0.0
C605 C 0.46415 0.48256 0.61214 0.0
C606 C 0.43325 0.43431 0.6078 0.0
C607 C 0.38409 0.41516 0.60847 0.0
H608 H 0.12049 0.60405 0.92798 0.0
H609 H 0.00458 0.61638 0.9522 0.0
H610 H 0.07023 0.51776 0.9274 0.0
H611 H 0.95461 0.53012 0.95181 0.0
H612 H 0.86553 0.37962 0.92829 0.0
H613 H 0.9166 0.46567 0.92771 0.0
H614 H 0.03222 0.45145 0.95093 0.0
H615 H 0.98127 0.36517 0.95133 0.0
C616 C 0.08433 0.58833 0.9332 0.0
C617 C 0.06641 0.61688 0.94014 0.0
C618 C 0.0557 0.53898 0.93295 0.0
C619 C 0.0086 0.51737 0.93955 0.0
C620 C -0.00935 0.54594 0.94643 0.0
C621 C 0.01932 0.59526 0.94675 0.0
C622 C 0.90188 0.39483 0.93322 0.0
C623 C 0.91942 0.36575 0.93992 0.0
C624 C 0.93099 0.44406 0.93298 0.0
C625 C 0.97823 0.46513 0.93936 0.0
C626 C -0.00398 0.43604 0.94578 0.0
C627 C 0.96682 0.38675 0.9461 0.0
H628 H 0.60234 0.97959 0.28584 0.0
H629 H 0.47031 0.86436 0.26398 0.0
H630 H 0.5687 0.03204 0.28479 0.0
H631 H 0.43715 0.91691 0.26259 0.0
H632 H 0.37741 0.01016 0.28373 0.0
H633 H 0.41116 0.95785 0.28461 0.0
H634 H 0.54284 0.07034 0.26127 0.0
H635 H 0.50951 0.12286 0.26073 0.0
C636 C 0.56628 0.96558 0.28073 0.0
C637 C 0.5389 0.91791 0.27505 0.0
C638 C 0.5471 -0.00439 0.28004 0.0
C639 C 0.50026 0.97849 0.27364 0.0
C640 C 0.47308 0.9309 0.26785 0.0
C641 C 0.49221 0.90091 0.26855 0.0
C642 C 0.41351 0.02362 0.27875 0.0
C643 C 0.44087 0.07057 0.27221 0.0
C644 C 0.43276 -0.00634 0.27918 0.0
C645 C 0.47968 0.0101 0.27305 0.0
C646 C 0.50684 0.05693 0.26635 0.0
C647 C 0.48763 0.08688 0.26594 0.0
loop_
_geom_bond_atom_site_label_1
_geom_bond_atom_site_label_2
_geom_bond_distance
_geom_bond_site_symmetry_2
_ccdc_geom_bond_type
C0 O1 1.306 . S
C0 O3 1.160 . S
O1 C0 1.306 . S
O1 Cd2 2.228 . S
Cd2 O1 2.228 . S
Cd2 O6 2.273 . S
Cd2 O10 2.277 . S
O3 C0 1.160 . S
O3 Cd4 2.203 . S
Cd4 O3 2.203 . S
Cd4 O6 2.411 . S
Cd4 O7 2.333 . S
Cd4 O8 2.352 . S
Cd4 O12 2.277 . S
Cd4 O13 2.356 . S
C5 O10 1.209 . S
C5 O12 1.226 . S
O6 Cd2 2.273 . S
O6 Cd4 2.411 . S
O6 C9 1.320 . S
O7 Cd4 2.333 . S
O7 C9 1.214 . S
O8 Cd4 2.352 . S
O8 C11 1.258 . S
C9 O6 1.320 . S
C9 O7 1.214 . S
O10 Cd2 2.277 . S
O10 C5 1.209 . S
C11 O8 1.258 . S
C11 O13 1.282 . S
O12 Cd4 2.277 . S
O12 C5 1.226 . S
O13 Cd4 2.356 . S
O13 C11 1.282 . S
C14 O15 1.306 . S
C14 O17 1.160 . S
O15 C14 1.306 . S
O15 Cd16 2.228 . S
Cd16 O15 2.228 . S
Cd16 O20 2.273 . S
Cd16 O24 2.277 . S
O17 C14 1.160 . S
O17 Cd18 2.203 . S
Cd18 O17 2.203 . S
Cd18 O20 2.411 . S
Cd18 O21 2.333 . S
Cd18 O22 2.352 . S
Cd18 O26 2.277 . S
Cd18 O27 2.356 . S
C19 O24 1.209 . S
C19 O26 1.226 . S
O20 Cd16 2.273 . S
O20 Cd18 2.411 . S
O20 C23 1.320 . S
O21 Cd18 2.333 . S
O21 C23 1.214 . S
O22 Cd18 2.352 . S
O22 C25 1.258 . S
C23 O20 1.320 . S
C23 O21 1.214 . S
O24 Cd16 2.277 . S
O24 C19 1.209 . S
C25 O22 1.258 . S
C25 O27 1.282 . S
O26 Cd18 2.277 . S
O26 C19 1.226 . S
O27 Cd18 2.356 . S
O27 C25 1.282 . S
C28 O29 1.306 . S
C28 O31 1.160 . S
O29 C28 1.306 . S
O29 Cd30 2.228 . S
Cd30 O29 2.228 . S
Cd30 O34 2.273 . S
Cd30 O38 2.277 . S
O31 C28 1.160 . S
O31 Cd32 2.203 . S
Cd32 O31 2.203 . S
Cd32 O34 2.411 . S
Cd32 O35 2.333 . S
Cd32 O36 2.352 . S
Cd32 O40 2.277 . S
Cd32 O41 2.356 . S
C33 O38 1.209 . S
C33 O40 1.226 . S
O34 Cd30 2.273 . S
O34 Cd32 2.411 . S
O34 C37 1.320 . S
O35 Cd32 2.333 . S
O35 C37 1.214 . S
O36 Cd32 2.352 . S
O36 C39 1.258 . S
C37 O34 1.320 . S
C37 O35 1.214 . S
O38 Cd30 2.277 . S
O38 C33 1.209 . S
C39 O36 1.258 . S
C39 O41 1.282 . S
O40 Cd32 2.277 . S
O40 C33 1.226 . S
O41 Cd32 2.356 . S
O41 C39 1.282 . S
C42 O43 1.306 . S
C42 O45 1.160 . S
O43 C42 1.306 . S
O43 Cd44 2.228 . S
Cd44 O43 2.228 . S
Cd44 O48 2.273 . S
Cd44 O52 2.277 . S
O45 C42 1.160 . S
O45 Cd46 2.203 . S
Cd46 O45 2.203 . S
Cd46 O48 2.411 . S
Cd46 O49 2.333 . S
Cd46 O50 2.352 . S
Cd46 O54 2.277 . S
Cd46 O55 2.356 . S
C47 O52 1.209 . S
C47 O54 1.226 . S
O48 Cd44 2.273 . S
O48 Cd46 2.411 . S
O48 C51 1.320 . S
O49 Cd46 2.333 . S
O49 C51 1.214 . S
O50 Cd46 2.352 . S
O50 C53 1.258 . S
C51 O48 1.320 . S
C51 O49 1.214 . S
O52 Cd44 2.277 . S
O52 C47 1.209 . S
C53 O50 1.258 . S
C53 O55 1.282 . S
O54 Cd46 2.277 . S
O54 C47 1.226 . S
O55 Cd46 2.356 . S
O55 C53 1.282 . S
C56 O57 1.306 . S
C56 O59 1.160 . S
O57 C56 1.306 . S
O57 Cd58 2.228 . S
Cd58 O57 2.228 . S
Cd58 O62 2.273 . S
Cd58 O66 2.277 . S
O59 C56 1.160 . S
O59 Cd60 2.203 . S
Cd60 O59 2.203 . S
Cd60 O62 2.411 . S
Cd60 O63 2.333 . S
Cd60 O64 2.352 . S
Cd60 O68 2.277 . S
Cd60 O69 2.356 . S
C61 O66 1.209 . S
C61 O68 1.226 . S
O62 Cd58 2.273 . S
O62 Cd60 2.411 . S
O62 C65 1.320 . S
O63 Cd60 2.333 . S
O63 C65 1.214 . S
O64 Cd60 2.352 . S
O64 C67 1.258 . S
C65 O62 1.320 . S
C65 O63 1.214 . S
O66 Cd58 2.277 . S
O66 C61 1.209 . S
C67 O64 1.258 . S
C67 O69 1.282 . S
O68 Cd60 2.277 . S
O68 C61 1.226 . S
O69 Cd60 2.356 . S
O69 C67 1.282 . S
C70 O71 1.306 . S
C70 O73 1.160 . S
O71 C70 1.306 . S
O71 Cd72 2.228 . S
Cd72 O71 2.228 . S
Cd72 O76 2.273 . S
Cd72 O80 2.277 . S
O73 C70 1.160 . S
O73 Cd74 2.203 . S
Cd74 O73 2.203 . S
Cd74 O76 2.411 . S
Cd74 O77 2.333 . S
Cd74 O78 2.352 . S
Cd74 O82 2.277 . S
Cd74 O83 2.356 . S
C75 O80 1.209 . S
C75 O82 1.226 . S
O76 Cd72 2.273 . S
O76 Cd74 2.411 . S
O76 C79 1.320 . S
O77 Cd74 2.333 . S
O77 C79 1.214 . S
O78 Cd74 2.352 . S
O78 C81 1.258 . S
C79 O76 1.320 . S
C79 O77 1.214 . S
O80 Cd72 2.277 . S
O80 C75 1.209 . S
C81 O78 1.258 . S
C81 O83 1.282 . S
O82 Cd74 2.277 . S
O82 C75 1.226 . S
O83 Cd74 2.356 . S
O83 C81 1.282 . S
C84 O85 1.306 . S
C84 O87 1.160 . S
O85 C84 1.306 . S
O85 Cd86 2.228 . S
Cd86 O85 2.228 . S
Cd86 O90 2.273 . S
Cd86 O94 2.277 . S
O87 C84 1.160 . S
O87 Cd88 2.203 . S
Cd88 O87 2.203 . S
Cd88 O90 2.411 . S
Cd88 O91 2.333 . S
Cd88 O92 2.352 . S
Cd88 O96 2.277 . S
Cd88 O97 2.356 . S
C89 O94 1.209 . S
C89 O96 1.226 . S
O90 Cd86 2.273 . S
O90 Cd88 2.411 . S
O90 C93 1.320 . S
O91 Cd88 2.333 . S
O91 C93 1.214 . S
O92 Cd88 2.352 . S
O92 C95 1.258 . S
C93 O90 1.320 . S
C93 O91 1.214 . S
O94 Cd86 2.277 . S
O94 C89 1.209 . S
C95 O92 1.258 . S
C95 O97 1.282 . S
O96 Cd88 2.277 . S
O96 C89 1.226 . S
O97 Cd88 2.356 . S
O97 C95 1.282 . S
C98 O99 1.306 . S
C98 O101 1.160 . S
O99 C98 1.306 . S
O99 Cd100 2.228 . S
Cd100 O99 2.228 . S
Cd100 O104 2.273 . S
Cd100 O108 2.277 . S
O101 C98 1.160 . S
O101 Cd102 2.203 . S
Cd102 O101 2.203 . S
Cd102 O104 2.411 . S
Cd102 O105 2.333 . S
Cd102 O106 2.352 . S
Cd102 O110 2.277 . S
Cd102 O111 2.356 . S
C103 O108 1.209 . S
C103 O110 1.226 . S
O104 Cd100 2.273 . S
O104 Cd102 2.411 . S
O104 C107 1.320 . S
O105 Cd102 2.333 . S
O105 C107 1.214 . S
O106 Cd102 2.352 . S
O106 C109 1.258 . S
C107 O104 1.320 . S
C107 O105 1.214 . S
O108 Cd100 2.277 . S
O108 C103 1.209 . S
C109 O106 1.258 . S
C109 O111 1.282 . S
O110 Cd102 2.277 . S
O110 C103 1.226 . S
O111 Cd102 2.356 . S
O111 C109 1.282 . S
C112 O113 1.306 . S
C112 O115 1.160 . S
O113 C112 1.306 . S
O113 Cd114 2.228 . S
Cd114 O113 2.228 . S
Cd114 O118 2.273 . S
Cd114 O122 2.277 . S
O115 C112 1.160 . S
O115 Cd116 2.203 . S
Cd116 O115 2.203 . S
Cd116 O118 2.411 . S
Cd116 O119 2.333 . S
Cd116 O120 2.352 . S
Cd116 O124 2.277 . S
Cd116 O125 2.356 . S
C117 O122 1.209 . S
C117 O124 1.226 . S
O118 Cd114 2.273 . S
O118 Cd116 2.411 . S
O118 C121 1.320 . S
O119 Cd116 2.333 . S
O119 C121 1.214 . S
O120 Cd116 2.352 . S
O120 C123 1.258 . S
C121 O118 1.320 . S
C121 O119 1.214 . S
O122 Cd114 2.277 . S
O122 C117 1.209 . S
C123 O120 1.258 . S
C123 O125 1.282 . S
O124 Cd116 2.277 . S
O124 C117 1.226 . S
O125 Cd116 2.356 . S
O125 C123 1.282 . S
C126 O127 1.306 . S
C126 O129 1.160 . S
O127 C126 1.306 . S
O127 Cd128 2.228 . S
Cd128 O127 2.228 . S
Cd128 O132 2.273 . S
Cd128 O136 2.277 . S
O129 C126 1.160 . S
O129 Cd130 2.203 . S
Cd130 O129 2.203 . S
Cd130 O132 2.411 . S
Cd130 O133 2.333 . S
Cd130 O134 2.352 . S
Cd130 O138 2.277 . S
Cd130 O139 2.356 . S
C131 O136 1.209 . S
C131 O138 1.226 . S
O132 Cd128 2.273 . S
O132 Cd130 2.411 . S
O132 C135 1.320 . S
O133 Cd130 2.333 . S
O133 C135 1.214 . S
O134 Cd130 2.352 . S
O134 C137 1.258 . S
C135 O132 1.320 . S
C135 O133 1.214 . S
O136 Cd128 2.277 . S
O136 C131 1.209 . S
C137 O134 1.258 . S
C137 O139 1.282 . S
O138 Cd130 2.277 . S
O138 C131 1.226 . S
O139 Cd130 2.356 . S
O139 C137 1.282 . S
C140 O141 1.306 . S
C140 O143 1.160 . S
O141 C140 1.306 . S
O141 Cd142 2.228 . S
Cd142 O141 2.228 . S
Cd142 O146 2.273 . S
Cd142 O150 2.277 . S
O143 C140 1.160 . S
O143 Cd144 2.203 . S
Cd144 O143 2.203 . S
Cd144 O146 2.411 . S
Cd144 O147 2.333 . S
Cd144 O148 2.352 . S
Cd144 O152 2.277 . S
Cd144 O153 2.356 . S
C145 O150 1.209 . S
C145 O152 1.226 . S
O146 Cd142 2.273 . S
O146 Cd144 2.411 . S
O146 C149 1.320 . S
O147 Cd144 2.333 . S
O147 C149 1.214 . S
O148 Cd144 2.352 . S
O148 C151 1.258 . S
C149 O146 1.320 . S
C149 O147 1.214 . S
O150 Cd142 2.277 . S
O150 C145 1.209 . S
C151 O148 1.258 . S
C151 O153 1.282 . S
O152 Cd144 2.277 . S
O152 C145 1.226 . S
O153 Cd144 2.356 . S
O153 C151 1.282 . S
C154 O155 1.306 . S
C154 O157 1.160 . S
O155 C154 1.306 . S
O155 Cd156 2.228 . S
Cd156 O155 2.228 . S
Cd156 O160 2.273 . S
Cd156 O164 2.277 . S
O157 C154 1.160 . S
O157 Cd158 2.203 . S
Cd158 O157 2.203 . S
Cd158 O160 2.411 . S
Cd158 O161 2.333 . S
Cd158 O162 2.352 . S
Cd158 O166 2.277 . S
Cd158 O167 2.356 . S
C159 O164 1.209 . S
C159 O166 1.226 . S
O160 Cd156 2.273 . S
O160 Cd158 2.411 . S
O160 C163 1.320 . S
O161 Cd158 2.333 . S
O161 C163 1.214 . S
O162 Cd158 2.352 . S
O162 C165 1.258 . S
C163 O160 1.320 . S
C163 O161 1.214 . S
O164 Cd156 2.277 . S
O164 C159 1.209 . S
C165 O162 1.258 . S
C165 O167 1.282 . S
O166 Cd158 2.277 . S
O166 C159 1.226 . S
O167 Cd158 2.356 . S
O167 C165 1.282 . S
H168 C176 0.949 . S
H169 C181 0.950 . S
H170 C178 0.950 . S
H171 C180 0.943 1_545 S
H172 C182 0.949 . S
H173 C184 0.950 . S
H174 C186 0.943 1_565 S
H175 C187 0.950 . S
C176 H168 0.949 . S
C176 C177 1.386 . S
C176 C178 1.391 1_556 S
C177 C176 1.386 . S
C177 C181 1.393 . S
C178 H170 0.950 . S
C178 C176 1.391 1_554 S
C178 C179 1.400 1_554 S
C179 C178 1.400 1_556 S
C179 C180 1.398 . S
C179 C185 1.491 1_566 S
C180 H171 0.943 1_565 S
C180 C179 1.398 . S
C180 C181 1.391 . S
C181 H169 0.950 . S
C181 C177 1.393 . S
C181 C180 1.391 . S
C182 H172 0.949 . S
C182 C183 1.386 . S
C182 C184 1.391 1_554 S
C183 C182 1.386 . S
C183 C187 1.393 . S
C184 H173 0.950 . S
C184 C182 1.391 1_556 S
C184 C185 1.400 1_556 S
C185 C179 1.491 1_544 S
C185 C184 1.400 1_554 S
C185 C186 1.398 . S
C186 H174 0.943 1_545 S
C186 C185 1.398 . S
C186 C187 1.391 . S
C187 H175 0.950 . S
C187 C183 1.393 . S
C187 C186 1.391 . S
H188 C196 0.950 . S
H189 C201 0.950 . S
H190 C198 0.950 . S
H191 C200 0.950 . S
H192 C202 0.950 . S
H193 C204 0.950 . S
H194 C206 0.950 . S
H195 C207 0.950 . S
C196 H188 0.950 . S
C196 C197 1.386 . S
C196 C198 1.391 . S
C197 C196 1.386 . S
C197 C201 1.393 . S
C198 H190 0.950 . S
C198 C196 1.391 . S
C198 C199 1.400 . S
C199 C198 1.400 . S
C199 C200 1.398 . S
C199 C205 1.491 . S
C200 H191 0.950 . S
C200 C199 1.398 . S
C200 C201 1.391 . S
C201 H189 0.950 . S
C201 C197 1.393 . S
C201 C200 1.391 . S
C202 H192 0.950 . S
C202 C203 1.386 . S
C202 C204 1.391 . S
C203 C202 1.386 . S
C203 C207 1.393 . S
C204 H193 0.950 . S
C204 C202 1.391 . S
C204 C205 1.400 . S
C205 C199 1.491 . S
C205 C204 1.400 . S
C205 C206 1.398 . S
C206 H194 0.950 . S
C206 C205 1.398 . S
C206 C207 1.391 . S
C207 H195 0.950 . S
C207 C203 1.393 . S
C207 C206 1.391 . S
H208 C216 0.950 . S
H209 C221 0.950 . S
H210 C218 0.950 . S
H211 C220 0.950 . S
H212 C222 0.950 . S
H213 C224 0.950 . S
H214 C226 0.950 . S
H215 C227 0.950 . S
C216 H208 0.950 . S
C216 C217 1.386 . S
C216 C218 1.391 . S
C217 C216 1.386 . S
C217 C221 1.393 . S
C218 H210 0.950 . S
C218 C216 1.391 . S
C218 C219 1.400 . S
C219 C218 1.400 . S
C219 C220 1.398 . S
C219 C225 1.491 1_655 S
C220 H211 0.950 . S
C220 C219 1.398 . S
C220 C221 1.391 . S
C221 H209 0.950 . S
C221 C217 1.393 . S
C221 C220 1.391 . S
C222 H212 0.950 . S
C222 C223 1.386 . S
C222 C224 1.391 . S
C223 C222 1.386 . S
C223 C227 1.393 . S
C224 H213 0.950 . S
C224 C222 1.391 . S
C224 C225 1.400 . S
C225 C219 1.491 1_455 S
C225 C224 1.400 . S
C225 C226 1.398 . S
C226 H214 0.950 . S
C226 C225 1.398 . S
C226 C227 1.391 . S
C227 H215 0.950 . S
C227 C223 1.393 . S
C227 C226 1.391 . S
H228 C236 0.970 . S
H229 C241 0.950 . S
H230 C238 0.950 . S
H231 C240 0.950 . S
H232 C242 0.970 . S
H233 C244 0.950 . S
H234 C246 0.950 . S
H235 C247 0.950 . S
C236 H228 0.970 . S
C236 C237 1.386 . S
C236 C238 1.391 1_554 S
C237 C236 1.386 . S
C237 C241 1.393 . S
C238 H230 0.950 . S
C238 C236 1.391 1_556 S
C238 C239 1.400 1_556 S
C239 C238 1.400 1_554 S
C239 C240 1.398 . S
C239 C245 1.491 1_564 S
C240 H231 0.950 . S
C240 C239 1.398 . S
C240 C241 1.391 . S
C241 H229 0.950 . S
C241 C237 1.393 . S
C241 C240 1.391 . S
C242 H232 0.970 . S
C242 C243 1.386 . S
C242 C244 1.391 1_556 S
C243 C242 1.386 . S
C243 C247 1.393 . S
C244 H233 0.950 . S
C244 C242 1.391 1_554 S
C244 C245 1.400 1_554 S
C245 C239 1.491 1_546 S
C245 C244 1.400 1_556 S
C245 C246 1.398 . S
C246 H234 0.950 . S
C246 C245 1.398 . S
C246 C247 1.391 . S
C247 H235 0.950 . S
C247 C243 1.393 . S
C247 C246 1.391 . S
H248 C256 0.950 . S
H249 C261 0.950 . S
H250 C258 0.950 . S
H251 C260 0.950 . S
H252 C262 0.950 . S
H253 C264 0.950 . S
H254 C266 0.950 . S
H255 C267 0.950 . S
C256 H248 0.950 . S
C256 C257 1.386 . S
C256 C258 1.391 . S
C257 C256 1.386 . S
C257 C261 1.393 . S
C258 H250 0.950 . S
C258 C256 1.391 . S
C258 C259 1.400 . S
C259 C258 1.400 . S
C259 C260 1.398 . S
C259 C265 1.491 . S
C260 H251 0.950 . S
C260 C259 1.398 . S
C260 C261 1.391 . S
C261 H249 0.950 . S
C261 C257 1.393 . S
C261 C260 1.391 . S
C262 H252 0.950 . S
C262 C263 1.386 . S
C262 C264 1.391 . S
C263 C262 1.386 . S
C263 C267 1.393 . S
C264 H253 0.950 . S
C264 C262 1.391 . S
C264 C265 1.400 . S
C265 C259 1.491 . S
C265 C264 1.400 . S
C265 C266 1.398 . S
C266 H254 0.950 . S
C266 C265 1.398 . S
C266 C267 1.391 . S
C267 H255 0.950 . S
C267 C263 1.393 . S
C267 C266 1.391 . S
H268 C276 0.950 . S
H269 C281 0.950 . S
H270 C278 0.950 . S
H271 C280 0.951 . S
H272 C282 0.950 . S
H273 C284 0.950 . S
H274 C286 0.951 . S
H275 C287 0.950 . S
C276 H268 0.950 . S
C276 C277 1.386 . S
C276 C278 1.391 . S
C277 C276 1.386 . S
C277 C281 1.393 . S
C278 H270 0.950 . S
C278 C276 1.391 . S
C278 C279 1.400 . S
C279 C278 1.400 . S
C279 C280 1.398 . S
C279 C285 1.491 1_655 S
C280 H271 0.951 . S
C280 C279 1.398 . S
C280 C281 1.391 . S
C281 H269 0.950 . S
C281 C277 1.393 . S
C281 C280 1.391 . S
C282 H272 0.950 . S
C282 C283 1.386 . S
C282 C284 1.391 . S
C283 C282 1.386 . S
C283 C287 1.393 . S
C284 H273 0.950 . S
C284 C282 1.391 . S
C284 C285 1.400 . S
C285 C279 1.491 1_455 S
C285 C284 1.400 . S
C285 C286 1.398 . S
C286 H274 0.951 . S
C286 C285 1.398 . S
C286 C287 1.391 . S
C287 H275 0.950 . S
C287 C283 1.393 . S
C287 C286 1.391 . S
H288 C296 0.950 . S
H289 C301 0.950 . S
H290 C298 0.950 . S
H291 C300 0.950 . S
H292 C302 0.950 . S
H293 C304 0.950 . S
H294 C306 0.950 . S
H295 C307 0.950 . S
C296 H288 0.950 . S
C296 C297 1.386 . S
C296 C298 1.391 . S
C297 C296 1.386 . S
C297 C301 1.393 . S
C298 H290 0.950 . S
C298 C296 1.391 . S
C298 C299 1.400 . S
C299 C298 1.400 . S
C299 C300 1.398 1_556 S
C299 C305 1.491 1_556 S
C300 H291 0.950 . S
C300 C299 1.398 1_554 S
C300 C301 1.391 1_554 S
C301 H289 0.950 . S
C301 C297 1.393 . S
C301 C300 1.391 1_556 S
C302 H292 0.950 . S
C302 C303 1.386 . S
C302 C304 1.391 . S
C303 C302 1.386 . S
C303 C307 1.393 . S
C304 H293 0.950 . S
C304 C302 1.391 . S
C304 C305 1.400 . S
C305 C299 1.491 1_554 S
C305 C304 1.400 . S
C305 C306 1.398 1_554 S
C306 H294 0.950 . S
C306 C305 1.398 1_556 S
C306 C307 1.391 1_556 S
C307 H295 0.950 . S
C307 C303 1.393 . S
C307 C306 1.391 1_554 S
H308 C316 0.950 . S
H309 C321 0.950 . S
H310 C318 0.950 . S
H311 C320 0.950 . S
H312 C322 0.950 . S
H313 C324 0.950 . S
H314 C326 0.950 . S
H315 C327 0.950 . S
C316 H308 0.950 . S
C316 C317 1.386 . S
C316 C318 1.391 . S
C317 C316 1.386 . S
C317 C321 1.393 . S
C318 H310 0.950 . S
C318 C316 1.391 . S
C318 C319 1.400 . S
C319 C318 1.400 . S
C319 C320 1.398 . S
C319 C325 1.491 . S
C320 H311 0.950 . S
C320 C319 1.398 . S
C320 C321 1.391 . S
C321 H309 0.950 . S
C321 C317 1.393 . S
C321 C320 1.391 . S
C322 H312 0.950 . S
C322 C323 1.386 . S
C322 C324 1.391 . S
C323 C322 1.386 . S
C323 C327 1.393 . S
C324 H313 0.950 . S
C324 C322 1.391 . S
C324 C325 1.400 . S
C325 C319 1.491 . S
C325 C324 1.400 . S
C325 C326 1.398 . S
C326 H314 0.950 . S
C326 C325 1.398 . S
C326 C327 1.391 . S
C327 H315 0.950 . S
C327 C323 1.393 . S
C327 C326 1.391 . S
H328 C336 0.950 . S
H329 C341 0.950 . S
H330 C338 0.950 . S
H331 C340 0.950 . S
H332 C342 0.950 . S
H333 C344 0.950 . S
H334 C346 0.950 . S
H335 C347 0.950 . S
C336 H328 0.950 . S
C336 C337 1.386 . S
C336 C338 1.391 . S
C337 C336 1.386 . S
C337 C341 1.393 . S
C338 H330 0.950 . S
C338 C336 1.391 . S
C338 C339 1.400 . S
C339 C338 1.400 . S
C339 C340 1.398 . S
C339 C345 1.491 . S
C340 H331 0.950 . S
C340 C339 1.398 . S
C340 C341 1.391 . S
C341 H329 0.950 . S
C341 C337 1.393 . S
C341 C340 1.391 . S
C342 H332 0.950 . S
C342 C343 1.386 . S
C342 C344 1.391 . S
C343 C342 1.386 . S
C343 C347 1.393 . S
C344 H333 0.950 . S
C344 C342 1.391 . S
C344 C345 1.400 . S
C345 C339 1.491 . S
C345 C344 1.400 . S
C345 C346 1.398 . S
C346 H334 0.950 . S
C346 C345 1.398 . S
C346 C347 1.391 . S
C347 H335 0.950 . S
C347 C343 1.393 . S
C347 C346 1.391 . S
H348 C356 0.950 . S
H349 C361 0.950 . S
H350 C358 0.950 1_554 S
H351 C360 0.950 . S
H352 C362 0.950 . S
H353 C364 0.950 1_556 S
H354 C366 0.950 . S
H355 C367 0.950 . S
C356 H348 0.950 . S
C356 C357 1.386 . S
C356 C358 1.391 . S
C357 C356 1.386 . S
C357 C361 1.393 . S
C358 H350 0.950 1_556 S
C358 C356 1.391 . S
C358 C359 1.400 . S
C359 C358 1.400 . S
C359 C360 1.398 . S
C359 C365 1.491 1_556 S
C360 H351 0.950 . S
C360 C359 1.398 . S
C360 C361 1.391 . S
C361 H349 0.950 . S
C361 C357 1.393 . S
C361 C360 1.391 . S
C362 H352 0.950 . S
C362 C363 1.386 . S
C362 C364 1.391 . S
C363 C362 1.386 . S
C363 C367 1.393 . S
C364 H353 0.950 1_554 S
C364 C362 1.391 . S
C364 C365 1.400 . S
C365 C359 1.491 1_554 S
C365 C364 1.400 . S
C365 C366 1.398 . S
C366 H354 0.950 . S
C366 C365 1.398 . S
C366 C367 1.391 . S
C367 H355 0.950 . S
C367 C363 1.393 . S
C367 C366 1.391 . S
H368 C376 0.950 . S
H369 C381 0.950 . S
H370 C378 0.950 . S
H371 C380 0.950 . S
H372 C382 0.950 . S
H373 C384 0.950 . S
H374 C386 0.950 . S
H375 C387 0.950 . S
C376 H368 0.950 . S
C376 C377 1.386 . S
C376 C378 1.391 . S
C377 C376 1.386 . S
C377 C381 1.393 . S
C378 H370 0.950 . S
C378 C376 1.391 . S
C378 C379 1.400 . S
C379 C378 1.400 . S
C379 C380 1.398 . S
C379 C385 1.491 . S
C380 H371 0.950 . S
C380 C379 1.398 . S
C380 C381 1.391 . S
C381 H369 0.950 . S
C381 C377 1.393 . S
C381 C380 1.391 . S
C382 H372 0.950 . S
C382 C383 1.386 . S
C382 C384 1.391 . S
C383 C382 1.386 . S
C383 C387 1.393 . S
C384 H373 0.950 . S
C384 C382 1.391 . S
C384 C385 1.400 . S
C385 C379 1.491 . S
C385 C384 1.400 . S
C385 C386 1.398 . S
C386 H374 0.950 . S
C386 C385 1.398 . S
C386 C387 1.391 . S
C387 H375 0.950 . S
C387 C383 1.393 . S
C387 C386 1.391 . S
H388 C396 0.950 . S
H389 C401 0.950 . S
H390 C398 0.950 . S
H391 C400 0.950 . S
H392 C402 0.950 . S
H393 C404 0.950 . S
H394 C406 0.950 . S
H395 C407 0.950 . S
C396 H388 0.950 . S
C396 C397 1.386 . S
C396 C398 1.391 . S
C397 C396 1.386 . S
C397 C401 1.393 . S
C398 H390 0.950 . S
C398 C396 1.391 . S
C398 C399 1.400 . S
C399 C398 1.400 . S
C399 C400 1.398 . S
C399 C405 1.491 . S
C400 H391 0.950 . S
C400 C399 1.398 . S
C400 C401 1.391 . S
C401 H389 0.950 . S
C401 C397 1.393 . S
C401 C400 1.391 . S
C402 H392 0.950 . S
C402 C403 1.386 . S
C402 C404 1.391 . S
C403 C402 1.386 . S
C403 C407 1.393 . S
C404 H393 0.950 . S
C404 C402 1.391 . S
C404 C405 1.400 . S
C405 C399 1.491 . S
C405 C404 1.400 . S
C405 C406 1.398 . S
C406 H394 0.950 . S
C406 C405 1.398 . S
C406 C407 1.391 . S
C407 H395 0.950 . S
C407 C403 1.393 . S
C407 C406 1.391 . S
H408 C416 0.950 . S
H409 C421 0.950 . S
H410 C418 0.950 . S
H411 C420 0.950 . S
H412 C422 0.950 . S
H413 C424 0.950 . S
H414 C426 0.950 . S
H415 C427 0.950 . S
C416 H408 0.950 . S
C416 C417 1.386 . S
C416 C418 1.391 . S
C417 C416 1.386 . S
C417 C421 1.393 . S
C418 H410 0.950 . S
C418 C416 1.391 . S
C418 C419 1.400 . S
C419 C418 1.400 . S
C419 C420 1.398 . S
C419 C425 1.491 . S
C420 H411 0.950 . S
C420 C419 1.398 . S
C420 C421 1.391 . S
C421 H409 0.950 . S
C421 C417 1.393 . S
C421 C420 1.391 . S
C422 H412 0.950 . S
C422 C423 1.386 . S
C422 C424 1.391 . S
C423 C422 1.386 . S
C423 C427 1.393 . S
C424 H413 0.950 . S
C424 C422 1.391 . S
C424 C425 1.400 . S
C425 C419 1.491 . S
C425 C424 1.400 . S
C425 C426 1.398 . S
C426 H414 0.950 . S
C426 C425 1.398 . S
C426 C427 1.391 . S
C427 H415 0.950 . S
C427 C423 1.393 . S
C427 C426 1.391 . S
H428 C436 0.950 . S
H429 C441 0.950 . S
H430 C438 0.950 . S
H431 C440 0.950 . S
H432 C442 0.950 . S
H433 C444 0.950 . S
H434 C446 0.950 . S
H435 C447 0.950 . S
C436 H428 0.950 . S
C436 C437 1.386 . S
C436 C438 1.391 . S
C437 C436 1.386 . S
C437 C441 1.393 . S
C438 H430 0.950 . S
C438 C436 1.391 . S
C438 C439 1.400 . S
C439 C438 1.400 . S
C439 C440 1.398 . S
C439 C445 1.491 . S
C440 H431 0.950 . S
C440 C439 1.398 . S
C440 C441 1.391 . S
C441 H429 0.950 . S
C441 C437 1.393 . S
C441 C440 1.391 . S
C442 H432 0.950 . S
C442 C443 1.386 . S
C442 C444 1.391 . S
C443 C442 1.386 . S
C443 C447 1.393 . S
C444 H433 0.950 . S
C444 C442 1.391 . S
C444 C445 1.400 . S
C445 C439 1.491 . S
C445 C444 1.400 . S
C445 C446 1.398 . S
C446 H434 0.950 . S
C446 C445 1.398 . S
C446 C447 1.391 . S
C447 H435 0.950 . S
C447 C443 1.393 . S
C447 C446 1.391 . S
H448 C456 0.950 . S
H449 C461 0.950 . S
H450 C458 0.950 . S
H451 C460 0.950 . S
H452 C462 0.950 . S
H453 C464 0.950 . S
H454 C466 0.950 . S
H455 C467 0.950 . S
C456 H448 0.950 . S
C456 C457 1.386 . S
C456 C458 1.391 . S
C457 C456 1.386 . S
C457 C461 1.393 . S
C458 H450 0.950 . S
C458 C456 1.391 . S
C458 C459 1.400 . S
C459 C458 1.400 . S
C459 C460 1.398 . S
C459 C465 1.491 . S
C460 H451 0.950 . S
C460 C459 1.398 . S
C460 C461 1.391 . S
C461 H449 0.950 . S
C461 C457 1.393 . S
C461 C460 1.391 . S
C462 H452 0.950 . S
C462 C463 1.386 . S
C462 C464 1.391 . S
C463 C462 1.386 . S
C463 C467 1.393 . S
C464 H453 0.950 . S
C464 C462 1.391 . S
C464 C465 1.400 . S
C465 C459 1.491 . S
C465 C464 1.400 . S
C465 C466 1.398 . S
C466 H454 0.950 . S
C466 C465 1.398 . S
C466 C467 1.391 . S
C467 H455 0.950 . S
C467 C463 1.393 . S
C467 C466 1.391 . S
H468 C476 0.950 . S
H469 C481 0.950 . S
H470 C478 0.950 . S
H471 C480 0.950 . S
H472 C482 0.950 . S
H473 C484 0.950 . S
H474 C486 0.950 . S
H475 C487 0.950 . S
C476 H468 0.950 . S
C476 C477 1.386 . S
C476 C478 1.391 . S
C477 C476 1.386 . S
C477 C481 1.393 . S
C478 H470 0.950 . S
C478 C476 1.391 . S
C478 C479 1.400 . S
C479 C478 1.400 . S
C479 C480 1.398 . S
C479 C485 1.491 . S
C480 H471 0.950 . S
C480 C479 1.398 . S
C480 C481 1.391 . S
C481 H469 0.950 . S
C481 C477 1.393 . S
C481 C480 1.391 . S
C482 H472 0.950 . S
C482 C483 1.386 . S
C482 C484 1.391 . S
C483 C482 1.386 . S
C483 C487 1.393 . S
C484 H473 0.950 . S
C484 C482 1.391 . S
C484 C485 1.400 . S
C485 C479 1.491 . S
C485 C484 1.400 . S
C485 C486 1.398 . S
C486 H474 0.950 . S
C486 C485 1.398 . S
C486 C487 1.391 . S
C487 H475 0.950 . S
C487 C483 1.393 . S
C487 C486 1.391 . S
H488 C496 0.950 . S
H489 C501 0.950 . S
H490 C498 0.950 . S
H491 C500 0.950 . S
H492 C502 0.950 . S
H493 C504 0.950 . S
H494 C506 0.950 . S
H495 C507 0.950 . S
C496 H488 0.950 . S
C496 C497 1.386 . S
C496 C498 1.391 . S
C497 C496 1.386 . S
C497 C501 1.393 . S
C498 H490 0.950 . S
C498 C496 1.391 . S
C498 C499 1.400 . S
C499 C498 1.400 . S
C499 C500 1.398 . S
C499 C505 1.491 . S
C500 H491 0.950 . S
C500 C499 1.398 . S
C500 C501 1.391 . S
C501 H489 0.950 . S
C501 C497 1.393 . S
C501 C500 1.391 . S
C502 H492 0.950 . S
C502 C503 1.386 . S
C502 C504 1.391 . S
C503 C502 1.386 . S
C503 C507 1.393 . S
C504 H493 0.950 . S
C504 C502 1.391 . S
C504 C505 1.400 . S
C505 C499 1.491 . S
C505 C504 1.400 . S
C505 C506 1.398 . S
C506 H494 0.950 . S
C506 C505 1.398 . S
C506 C507 1.391 . S
C507 H495 0.950 . S
C507 C503 1.393 . S
C507 C506 1.391 . S
H508 C516 0.950 . S
H509 C521 0.950 . S
H510 C518 0.950 . S
H511 C520 0.950 . S
H512 C522 0.950 . S
H513 C524 0.950 . S
H514 C526 0.950 . S
H515 C527 0.950 . S
C516 H508 0.950 . S
C516 C517 1.386 . S
C516 C518 1.391 . S
C517 C516 1.386 . S
C517 C521 1.393 . S
C518 H510 0.950 . S
C518 C516 1.391 . S
C518 C519 1.400 . S
C519 C518 1.400 . S
C519 C520 1.398 . S
C519 C525 1.491 . S
C520 H511 0.950 . S
C520 C519 1.398 . S
C520 C521 1.391 . S
C521 H509 0.950 . S
C521 C517 1.393 . S
C521 C520 1.391 . S
C522 H512 0.950 . S
C522 C523 1.386 . S
C522 C524 1.391 . S
C523 C522 1.386 . S
C523 C527 1.393 . S
C524 H513 0.950 . S
C524 C522 1.391 . S
C524 C525 1.400 . S
C525 C519 1.491 . S
C525 C524 1.400 . S
C525 C526 1.398 . S
C526 H514 0.950 . S
C526 C525 1.398 . S
C526 C527 1.391 . S
C527 H515 0.950 . S
C527 C523 1.393 . S
C527 C526 1.391 . S
H528 C536 0.950 . S
H529 C541 0.950 . S
H530 C538 0.950 . S
H531 C540 0.950 . S
H532 C542 0.950 . S
H533 C544 0.950 . S
H534 C546 0.950 . S
H535 C547 0.950 . S
C536 H528 0.950 . S
C536 C537 1.386 . S
C536 C538 1.391 . S
C537 C536 1.386 . S
C537 C541 1.393 . S
C538 H530 0.950 . S
C538 C536 1.391 . S
C538 C539 1.400 . S
C539 C538 1.400 . S
C539 C540 1.398 . S
C539 C545 1.491 . S
C540 H531 0.950 . S
C540 C539 1.398 . S
C540 C541 1.391 . S
C541 H529 0.950 . S
C541 C537 1.393 . S
C541 C540 1.391 . S
C542 H532 0.950 . S
C542 C543 1.386 . S
C542 C544 1.391 . S
C543 C542 1.386 . S
C543 C547 1.393 . S
C544 H533 0.950 . S
C544 C542 1.391 . S
C544 C545 1.400 . S
C545 C539 1.491 . S
C545 C544 1.400 . S
C545 C546 1.398 . S
C546 H534 0.950 . S
C546 C545 1.398 . S
C546 C547 1.391 . S
C547 H535 0.950 . S
C547 C543 1.393 . S
C547 C546 1.391 . S
H548 C556 0.950 . S
H549 C561 0.950 . S
H550 C558 0.950 . S
H551 C560 0.936 1_455 S
H552 C562 0.950 . S
H553 C564 0.950 . S
H554 C566 0.936 1_655 S
H555 C567 0.950 . S
C556 H548 0.950 . S
C556 C557 1.386 . S
C556 C558 1.391 . S
C557 C556 1.386 . S
C557 C561 1.393 . S
C558 H550 0.950 . S
C558 C556 1.391 . S
C558 C559 1.400 . S
C559 C558 1.400 . S
C559 C560 1.395 . S
C559 C565 1.491 1_655 S
C560 H551 0.936 1_655 S
C560 C559 1.395 . S
C560 C561 1.407 . S
C561 H549 0.950 . S
C561 C557 1.393 . S
C561 C560 1.407 . S
C562 H552 0.950 . S
C562 C563 1.386 . S
C562 C564 1.391 . S
C563 C562 1.386 . S
C563 C567 1.393 . S
C564 H553 0.950 . S
C564 C562 1.391 . S
C564 C565 1.400 . S
C565 C559 1.491 1_455 S
C565 C564 1.400 . S
C565 C566 1.395 . S
C566 H554 0.936 1_455 S
C566 C565 1.395 . S
C566 C567 1.407 . S
C567 H555 0.950 . S
C567 C563 1.393 . S
C567 C566 1.407 . S
H568 C576 0.950 . S
H569 C581 0.950 . S
H570 C578 0.950 . S
H571 C580 0.950 . S
H572 C582 0.950 . S
H573 C584 0.950 . S
H574 C586 0.950 . S
H575 C587 0.950 . S
C576 H568 0.950 . S
C576 C577 1.386 . S
C576 C578 1.391 1_545 S
C577 C576 1.386 . S
C577 C581 1.393 . S
C578 H570 0.950 . S
C578 C576 1.391 1_565 S
C578 C579 1.400 1_565 S
C579 C578 1.400 1_545 S
C579 C580 1.398 . S
C579 C585 1.491 1_545 S
C580 H571 0.950 . S
C580 C579 1.398 . S
C580 C581 1.391 . S
C581 H569 0.950 . S
C581 C577 1.393 . S
C581 C580 1.391 . S
C582 H572 0.950 . S
C582 C583 1.386 . S
C582 C584 1.391 1_565 S
C583 C582 1.386 . S
C583 C587 1.393 . S
C584 H573 0.950 . S
C584 C582 1.391 1_545 S
C584 C585 1.400 1_545 S
C585 C579 1.491 1_565 S
C585 C584 1.400 1_565 S
C585 C586 1.398 . S
C586 H574 0.950 . S
C586 C585 1.398 . S
C586 C587 1.391 . S
C587 H575 0.950 . S
C587 C583 1.393 . S
C587 C586 1.391 . S
H588 C596 0.950 . S
H589 C601 0.950 . S
H590 C598 0.950 . S
H591 C600 0.950 . S
H592 C602 0.950 . S
H593 C604 0.950 . S
H594 C606 0.950 . S
H595 C607 0.950 . S
C596 H588 0.950 . S
C596 C597 1.386 . S
C596 C598 1.391 . S
C597 C596 1.386 . S
C597 C601 1.393 . S
C598 H590 0.950 . S
C598 C596 1.391 . S
C598 C599 1.400 . S
C599 C598 1.400 . S
C599 C600 1.398 . S
C599 C605 1.491 . S
C600 H591 0.950 . S
C600 C599 1.398 . S
C600 C601 1.391 . S
C601 H589 0.950 . S
C601 C597 1.393 . S
C601 C600 1.391 . S
C602 H592 0.950 . S
C602 C603 1.386 . S
C602 C604 1.391 . S
C603 C602 1.386 . S
C603 C607 1.393 . S
C604 H593 0.950 . S
C604 C602 1.391 . S
C604 C605 1.400 . S
C605 C599 1.491 . S
C605 C604 1.400 . S
C605 C606 1.398 . S
C606 H594 0.950 . S
C606 C605 1.398 . S
C606 C607 1.391 . S
C607 H595 0.950 . S
C607 C603 1.393 . S
C607 C606 1.391 . S
H608 C616 0.950 . S
H609 C621 0.950 . S
H610 C618 0.950 . S
H611 C620 0.950 . S
H612 C622 0.950 . S
H613 C624 0.950 . S
H614 C626 0.950 . S
H615 C627 0.950 . S
C616 H608 0.950 . S
C616 C617 1.386 . S
C616 C618 1.391 . S
C617 C616 1.386 . S
C617 C621 1.393 . S
C618 H610 0.950 . S
C618 C616 1.391 . S
C618 C619 1.400 . S
C619 C618 1.400 . S
C619 C620 1.398 1_455 S
C619 C625 1.491 1_455 S
C620 H611 0.950 . S
C620 C619 1.398 1_655 S
C620 C621 1.391 1_655 S
C621 H609 0.950 . S
C621 C617 1.393 . S
C621 C620 1.391 1_455 S
C622 H612 0.950 . S
C622 C623 1.386 . S
C622 C624 1.391 . S
C623 C622 1.386 . S
C623 C627 1.393 . S
C624 H613 0.950 . S
C624 C622 1.391 . S
C624 C625 1.400 . S
C625 C619 1.491 1_655 S
C625 C624 1.400 . S
C625 C626 1.398 1_655 S
C626 H614 0.950 . S
C626 C625 1.398 1_455 S
C626 C627 1.391 1_455 S
C627 H615 0.950 . S
C627 C623 1.393 . S
C627 C626 1.391 1_655 S
H628 C636 0.950 . S
H629 C641 0.950 . S
H630 C638 0.950 1_545 S
H631 C640 0.950 . S
H632 C642 0.950 . S
H633 C644 0.950 1_565 S
H634 C646 0.950 . S
H635 C647 0.950 . S
C636 H628 0.950 . S
C636 C637 1.386 . S
C636 C638 1.391 . S
C637 C636 1.386 . S
C637 C641 1.393 . S
C638 H630 0.950 1_565 S
C638 C636 1.391 . S
C638 C639 1.400 . S
C639 C638 1.400 . S
C639 C640 1.398 . S
C639 C645 1.491 1_565 S
C640 H631 0.950 . S
C640 C639 1.398 . S
C640 C641 1.391 . S
C641 H629 0.950 . S
C641 C637 1.393 . S
C641 C640 1.391 . S
C642 H632 0.950 . S
C642 C643 1.386 . S
C642 C644 1.391 . S
C643 C642 1.386 . S
C643 C647 1.393 . S
C644 H633 0.950 1_545 S
C644 C642 1.391 . S
C644 C645 1.400 . S
C645 C639 1.491 1_545 S
C645 C644 1.400 . S
C645 C646 1.398 . S
C646 H634 0.950 . S
C646 C645 1.398 . S
C646 C647 1.391 . S
C647 H635 0.950 . S
C647 C643 1.393 . S
C647 C646 1.391 . S
C177 C98 1.335 . S
C183 C0 1.351 . S
C197 C14 1.351 . S
C203 C112 1.333 . S
C217 C28 1.330 . S
C223 C126 1.339 . S
C237 C42 1.329 . S
C243 C140 1.346 . S
C257 C154 1.341 . S
C263 C56 1.349 . S
C277 C84 1.329 . S
C283 C70 1.348 . S
C297 C145 1.419 . S
C303 C5 1.421 . S
C317 C19 1.419 . S
C323 C159 1.421 . S
C337 C33 1.421 . S
C343 C89 1.417 . S
C357 C103 1.412 . S
C363 C47 1.411 . S
C377 C117 1.420 . S
C383 C61 1.420 . S
C397 C131 1.413 . S
C403 C75 1.418 . S
C417 C11 1.720 . S
C423 C123 1.710 . S
C437 C25 1.714 . S
C443 C137 1.709 . S
C457 C151 1.717 . S
C463 C39 1.707 . S
C477 C53 1.720 . S
C483 C165 1.710 . S
C497 C95 1.721 . S
C503 C67 1.709 . S
C517 C109 1.707 . S
C523 C81 1.720 . S
C537 C51 1.344 . S
C543 C9 1.357 . S
C557 C65 1.364 . S
C563 C23 1.357 . S
C577 C37 1.350 . S
C583 C79 1.361 . S
C597 C93 1.358 . S
C603 C135 1.346 . S
C617 C107 1.363 . S
C623 C149 1.352 . S
C637 C163 1.337 . S
C643 C121 1.345 . S
