# Generated by pormake.
# Topology mon, (4)-cn, num edge types: 1
# Building blocks:
#     Node 0, Type 0, BuildingBlock: CEKHIL_clean_sbu_0, # of connection points: 4
#     Node 1, Type 0, BuildingBlock: CEKHIL_clean_sbu_0, # of connection points: 4
#     Node 2, Type 0, BuildingBlock: CEKHIL_clean_sbu_0, # of connection points: 4
#     Node 3, Type 0, BuildingBlock: CEKHIL_clean_sbu_0, # of connection points: 4
#     Node 4, Type 0, BuildingBlock: CEKHIL_clean_sbu_0, # of connection points: 4
#     Node 5, Type 0, BuildingBlock: CEKHIL_clean_sbu_0, # of connection points: 4
#     Node 6, Type 0, BuildingBlock: CEKHIL_clean_sbu_0, # of connection points: 4
#     Node 7, Type 0, BuildingBlock: CEKHIL_clean_sbu_0, # of connection points: 4
#     Node 8, Type 0, BuildingBlock: CEKHIL_clean_sbu_0, # of connection points: 4
#     Node 9, Type 0, BuildingBlock: CEKHIL_clean_sbu_0, # of connection points: 4
#     Node 10, Type 0, BuildingBlock: CEKHIL_clean_sbu_0, # of connection points: 4
#     Node 11, Type 0, BuildingBlock: CEKHIL_clean_sbu_0, # of connection points: 4
#     Node 12, Type 0, BuildingBlock: CEKHIL_clean_sbu_0, # of connection points: 4
#     Node 13, Type 0, BuildingBlock: CEKHIL_clean_sbu_0, # of connection points: 4
#     Node 14, Type 0, BuildingBlock: CEKHIL_clean_sbu_0, # of connection points: 4
#     Node 15, Type 0, BuildingBlock: CEKHIL_clean_sbu_0, # of connection points: 4
#     Edge 16, Type (0, 0), BuildingBlock: OJICUG_clean_linker_0, # of connection points: 2
#     Edge 17, Type (0, 0), BuildingBlock: OJICUG_clean_linker_0, # of connection points: 2
#     Edge 18, Type (0, 0), BuildingBlock: OJICUG_clean_linker_0, # of connection points: 2
#     Edge 19, Type (0, 0), BuildingBlock: OJICUG_clean_linker_0, # of connection points: 2
#     Edge 20, Type (0, 0), BuildingBlock: OJICUG_clean_linker_0, # of connection points: 2
#     Edge 21, Type (0, 0), BuildingBlock: OJICUG_clean_linker_0, # of connection points: 2
#     Edge 22, Type (0, 0), BuildingBlock: OJICUG_clean_linker_0, # of connection points: 2
#     Edge 23, Type (0, 0), BuildingBlock: OJICUG_clean_linker_0, # of connection points: 2
#     Edge 24, Type (0, 0), BuildingBlock: OJICUG_clean_linker_0, # of connection points: 2
#     Edge 25, Type (0, 0), BuildingBlock: OJICUG_clean_linker_0, # of connection points: 2
#     Edge 26, Type (0, 0), BuildingBlock: OJICUG_clean_linker_0, # of connection points: 2
#     Edge 27, Type (0, 0), BuildingBlock: OJICUG_clean_linker_0, # of connection points: 2
#     Edge 28, Type (0, 0), BuildingBlock: OJICUG_clean_linker_0, # of connection points: 2
#     Edge 29, Type (0, 0), BuildingBlock: OJICUG_clean_linker_0, # of connection points: 2
#     Edge 30, Type (0, 0), BuildingBlock: OJICUG_clean_linker_0, # of connection points: 2
#     Edge 31, Type (0, 0), BuildingBlock: OJICUG_clean_linker_0, # of connection points: 2
#     Edge 32, Type (0, 0), BuildingBlock: OJICUG_clean_linker_0, # of connection points: 2
#     Edge 33, Type (0, 0), BuildingBlock: OJICUG_clean_linker_0, # of connection points: 2
#     Edge 34, Type (0, 0), BuildingBlock: OJICUG_clean_linker_0, # of connection points: 2
#     Edge 35, Type (0, 0), BuildingBlock: OJICUG_clean_linker_0, # of connection points: 2
#     Edge 36, Type (0, 0), BuildingBlock: OJICUG_clean_linker_0, # of connection points: 2
#     Edge 37, Type (0, 0), BuildingBlock: OJICUG_clean_linker_0, # of connection points: 2
#     Edge 38, Type (0, 0), BuildingBlock: OJICUG_clean_linker_0, # of connection points: 2
#     Edge 39, Type (0, 0), BuildingBlock: OJICUG_clean_linker_0, # of connection points: 2
#     Edge 40, Type (0, 0), BuildingBlock: OJICUG_clean_linker_0, # of connection points: 2
#     Edge 41, Type (0, 0), BuildingBlock: OJICUG_clean_linker_0, # of connection points: 2
#     Edge 42, Type (0, 0), BuildingBlock: OJICUG_clean_linker_0, # of connection points: 2
#     Edge 43, Type (0, 0), BuildingBlock: OJICUG_clean_linker_0, # of connection points: 2
#     Edge 44, Type (0, 0), BuildingBlock: OJICUG_clean_linker_0, # of connection points: 2
#     Edge 45, Type (0, 0), BuildingBlock: OJICUG_clean_linker_0, # of connection points: 2
#     Edge 46, Type (0, 0), BuildingBlock: OJICUG_clean_linker_0, # of connection points: 2
#     Edge 47, Type (0, 0), BuildingBlock: OJICUG_clean_linker_0, # of connection points: 2
# Relax obj value: 0.188
# Max RMSD: 0.179
# Mean RMSD: 0.179
data_MOF--net-mon--node1-CEKHIL_clean_sbu_0--edge1-OJICUG_clean_linker_0
_symmetry_space_group_name_H-M    P1
_symmetry_Int_Tables_number       1
_symmetry_cell_setting            triclinic
loop_
_symmetry_equiv_pos_as_xyz
'x, y, z'
_cell_length_a     23.958312
_cell_length_b     24.020719
_cell_length_c     62.171683
_cell_angle_alpha  89.991135
_cell_angle_beta   90.035598
_cell_angle_gamma 90.031667
loop_
_atom_site_label
_atom_site_type_symbol
_atom_site_fract_x
_atom_site_fract_y
_atom_site_fract_z
_atom_type_partial_charge
Co0 Co 0.05258 0.04615 0.57892 0.0
O1 O 0.0852 0.11741 0.5717 0.0
O2 O 1.00081 0.10651 0.58528 0.0
C3 C 0.12942 0.01279 0.59579 0.0
O4 O 1.0059 0.97934 0.58941 0.0
Co5 Co 0.10571 0.9351 0.56216 0.0
O6 O 0.05598 0.90149 0.58376 0.0
C7 C 0.02971 1.00015 0.53407 0.0
C8 C 0.03967 0.1403 0.57861 0.0
C9 C 0.01344 0.9263 0.59143 0.0
O10 O 0.02144 0.0374 0.54873 0.0
O11 O 0.06299 0.95893 0.53631 0.0
O12 O 0.09493 0.04504 0.60606 0.0
O13 O 0.11861 1.0057 0.57574 0.0
Co14 Co 0.24356 0.78145 0.8277 0.0
O15 O 0.17364 0.81426 0.8187 0.0
O16 O 0.18139 0.7321 0.83435 0.0
C17 C 0.27696 0.85993 0.84319 0.0
O18 O 0.30818 0.73525 0.84037 0.0
Co19 Co 0.35829 0.82808 0.81179 0.0
O20 O 0.38666 0.78585 0.83665 0.0
C21 C 0.29271 0.75174 0.78402 0.0
C22 C 0.14907 0.77047 0.82637 0.0
C23 C 0.36019 0.74462 0.84451 0.0
O24 O 0.25429 0.74589 0.79842 0.0
O25 O 0.33498 0.7838 0.78625 0.0
O26 O 0.24285 0.8278 0.85372 0.0
O27 O 0.28624 0.84573 0.82358 0.0
Co28 Co 0.50359 0.97655 0.07944 0.0
O29 O 0.47063 0.90536 0.07228 0.0
O30 O 0.5557 0.91601 0.08526 0.0
C31 C 0.4275 1.00962 0.09687 0.0
O32 O 0.55085 0.04324 0.08968 0.0
Co33 Co 0.44931 0.08788 0.06336 0.0
O34 O 0.50069 0.12128 0.08444 0.0
C35 C 0.52407 0.02348 0.03458 0.0
C36 C 0.51654 0.88233 0.07876 0.0
C37 C 0.54367 0.09633 0.09171 0.0
O38 O 0.53313 0.98587 0.04904 0.0
O39 O 0.49084 0.06458 0.03718 0.0
O40 O 0.46251 0.97733 0.10689 0.0
O41 O 0.43744 0.01695 0.07679 0.0
Co42 Co 0.31688 0.24176 0.32932 0.0
O43 O 0.3867 0.20848 0.32042 0.0
O44 O 0.37919 0.29101 0.33579 0.0
C45 C 0.28317 0.16374 0.3451 0.0
O46 O 0.25274 0.28865 0.34188 0.0
Co47 Co 0.20165 0.19562 0.31379 0.0
O48 O 0.1739 0.2384 0.33861 0.0
C49 C 0.26735 0.27079 0.28559 0.0
C50 C 0.41139 0.25242 0.32793 0.0
C51 C 0.20081 0.27967 0.34623 0.0
O52 O 0.30604 0.2767 0.29991 0.0
O53 O 0.22487 0.23911 0.28803 0.0
O54 O 0.31746 0.19595 0.35553 0.0
O55 O 0.27381 0.17763 0.32546 0.0
Co56 Co 0.05396 0.97679 0.40167 0.0
O57 O 0.08658 0.9064 0.41014 0.0
O58 O 1.00328 0.91544 0.39537 0.0
C59 C 0.13188 1.00967 0.38544 0.0
O60 O 1.00754 0.04201 0.38964 0.0
Co61 Co 0.10365 0.09023 0.41747 0.0
O62 O 0.059 0.11979 0.39345 0.0
C63 C 0.02783 0.02572 0.44577 0.0
C64 C 0.04183 0.88255 0.40288 0.0
C65 C 0.01695 0.09405 0.3858 0.0
O66 O 0.02055 0.98754 0.43139 0.0
O67 O 0.06046 0.0674 0.44332 0.0
O68 O 0.09859 0.97621 0.37511 0.0
O69 O 0.11918 0.01843 0.40522 0.0
Co70 Co 0.31359 0.78074 0.65226 0.0
O71 O 0.38353 0.81384 0.66108 0.0
O72 O 0.3757 0.7312 0.64581 0.0
C73 C 0.28012 0.85875 0.63646 0.0
O74 O 0.24887 0.73421 0.63985 0.0
Co75 Co 0.19907 0.82786 0.66812 0.0
O76 O 0.17053 0.78502 0.64344 0.0
C77 C 0.26453 0.75189 0.69606 0.0
C78 C 0.40803 0.76981 0.65363 0.0
C79 C 0.19686 0.74355 0.63573 0.0
O80 O 0.30295 0.7459 0.68167 0.0
O81 O 0.22227 0.78389 0.69376 0.0
O82 O 0.31417 0.82638 0.62602 0.0
O83 O 0.27102 0.84509 0.65613 0.0
Co84 Co 0.50302 0.04784 0.90119 0.0
O85 O 0.47029 0.11899 0.90845 0.0
O86 O 0.55512 0.10834 0.89528 0.0
C87 C 0.42659 0.01493 0.88389 0.0
O88 O 0.54998 0.98118 0.89079 0.0
Co89 Co 0.44888 0.93643 0.91727 0.0
O90 O 0.49966 0.90319 0.89597 0.0
C91 C 0.52403 1.00075 0.94599 0.0
C92 C 0.5161 0.14202 0.90186 0.0
C93 C 0.54257 0.92814 0.88866 0.0
O94 O 0.53301 0.03838 0.93153 0.0
O95 O 0.49072 0.95966 0.94341 0.0
O96 O 0.46151 0.04722 0.87383 0.0
O97 O 0.43686 1.00747 0.90395 0.0
Co98 Co 0.24535 0.24293 0.15356 0.0
O99 O 0.17518 0.21018 0.16237 0.0
O100 O 0.1834 0.29258 0.14696 0.0
C101 C 0.27852 0.16461 0.13788 0.0
O102 O 0.31018 0.28918 0.14103 0.0
Co103 Co 0.3599 0.19574 0.1694 0.0
O104 O 0.38848 0.23836 0.14467 0.0
C105 C 0.29449 0.27148 0.19741 0.0
C106 C 0.15084 0.25416 0.15476 0.0
C107 C 0.36216 0.27975 0.13688 0.0
O108 O 0.25615 0.27786 0.18298 0.0
O109 O 0.33663 0.23935 0.19509 0.0
O110 O 0.24456 0.19703 0.1274 0.0
O111 O 0.28779 0.17844 0.15753 0.0
Co112 Co 0.81436 0.28171 0.1518 0.0
O113 O 0.8841 0.31488 0.16091 0.0
O114 O 0.8768 0.2325 0.14542 0.0
C115 C 0.78092 0.35996 0.13614 0.0
O116 O 0.75007 0.23506 0.13909 0.0
Co117 Co 0.69915 0.32798 0.16731 0.0
O118 O 0.6714 0.28549 0.1424 0.0
C119 C 0.76475 0.25263 0.19546 0.0
C120 C 0.9089 0.27101 0.15345 0.0
C121 C 0.69813 0.24422 0.13475 0.0
O122 O 0.8033 0.24655 0.18113 0.0
O123 O 0.7224 0.28446 0.19305 0.0
O124 O 0.81523 0.32788 0.12569 0.0
O125 O 0.77143 0.34579 0.15573 0.0
Co126 Co 0.74432 0.74249 0.65292 0.0
O127 O 0.67441 0.70979 0.662 0.0
O128 O 0.68217 0.79157 0.64605 0.0
C129 C 0.77775 0.66374 0.63771 0.0
O130 O 0.80888 0.78853 0.64011 0.0
Co131 Co 0.85911 0.69661 0.66902 0.0
O132 O 0.88745 0.73823 0.644 0.0
C133 C 0.79328 0.77317 0.69655 0.0
C134 C 0.64985 0.75336 0.65415 0.0
C135 C 0.86089 0.77919 0.636 0.0
O136 O 0.75498 0.77872 0.68208 0.0
O137 O 0.8356 0.74117 0.69446 0.0
O138 O 0.74361 0.69557 0.62706 0.0
O139 O 0.78708 0.6784 0.65727 0.0
Co140 Co 0.74759 0.28281 0.32788 0.0
O141 O 0.67668 0.31528 0.32006 0.0
O142 O 0.6865 0.23201 0.33461 0.0
C143 C 0.78108 0.36047 0.34399 0.0
O144 O 0.81425 0.23681 0.33907 0.0
Co145 Co 0.8592 0.33416 0.31061 0.0
O146 O 0.892 0.28718 0.33325 0.0
C147 C 0.79369 0.25668 0.28334 0.0
C148 C 0.65318 0.27057 0.32738 0.0
C149 C 0.86727 0.24513 0.34133 0.0
O150 O 0.7565 0.24951 0.29811 0.0
O151 O 0.83515 0.28992 0.28518 0.0
O152 O 0.74833 0.32694 0.35451 0.0
O153 O 0.78855 0.34827 0.32408 0.0
Co154 Co 0.81264 0.74367 0.82813 0.0
O155 O 0.88238 0.71054 0.81912 0.0
O156 O 0.87506 0.79275 0.83475 0.0
C157 C 0.77886 0.66537 0.84363 0.0
O158 O 0.7483 0.79018 0.84079 0.0
Co159 Co 0.69766 0.69774 0.81219 0.0
O160 O 0.66961 0.73986 0.83712 0.0
C161 C 0.76366 0.77361 0.78441 0.0
C162 C 0.90717 0.75427 0.82674 0.0
C163 C 0.6963 0.78096 0.84497 0.0
O164 O 0.80204 0.77929 0.79885 0.0
O165 O 0.72121 0.74177 0.78661 0.0
O166 O 0.81319 0.69731 0.85416 0.0
O167 O 0.76961 0.67962 0.82402 0.0
Co168 Co 0.55274 0.54705 0.07905 0.0
O169 O 0.58506 0.61828 0.07154 0.0
O170 O 0.5009 0.60749 0.08531 0.0
C171 C 0.63 0.51429 0.09582 0.0
O172 O 0.50635 0.48028 0.08985 0.0
Co173 Co 0.60603 0.4357 0.06262 0.0
O174 O 0.55695 0.40261 0.08455 0.0
C175 C 0.5298 0.50004 0.03437 0.0
C176 C 0.53957 0.64124 0.07845 0.0
C177 C 0.51428 0.42736 0.09214 0.0
O178 O 0.52137 0.53755 0.04892 0.0
O179 O 0.5632 0.45897 0.03673 0.0
O180 O 0.59554 0.54658 0.1061 0.0
O181 O 0.61882 0.50675 0.07584 0.0
Co182 Co 1.00351 0.47532 0.58023 0.0
O183 O 0.97095 0.40419 0.57284 0.0
O184 O 0.05565 0.41492 0.58619 0.0
C185 C 0.92689 0.50795 0.5974 0.0
O186 O 0.05018 0.54213 0.59071 0.0
Co187 Co 0.9491 0.58642 0.56398 0.0
O188 O 0.99955 0.61983 0.5854 0.0
C189 C 0.02535 0.52274 0.53555 0.0
C190 C 0.01673 0.38123 0.57948 0.0
C191 C 0.04253 0.59513 0.59279 0.0
O192 O 0.03393 0.48498 0.54999 0.0
O193 O 0.99186 0.56369 0.53802 0.0
O194 O 0.96176 0.47573 0.60752 0.0
O195 O 0.93728 0.51543 0.57736 0.0
Co196 Co 0.55225 0.47726 0.90123 0.0
O197 O 0.58484 0.40609 0.90858 0.0
O198 O 0.50026 0.41677 0.89513 0.0
C199 C 0.62895 0.51029 0.88417 0.0
O200 O 0.50556 0.544 0.8907 0.0
Co201 Co 0.6061 0.58848 0.91763 0.0
O202 O 0.55612 0.62177 0.89603 0.0
C203 C 0.53024 0.5241 0.946 0.0
C204 C 0.53915 0.38308 0.90184 0.0
C205 C 0.51328 0.59699 0.88855 0.0
O206 O 0.52164 0.48657 0.93147 0.0
O207 O 0.56361 0.56521 0.94359 0.0
O208 O 0.59423 0.47798 0.874 0.0
O209 O 0.6184 0.51763 0.90421 0.0
Co210 Co 1.00795 0.54716 0.40231 0.0
O211 O 0.97499 0.61814 0.4096 0.0
O212 O 0.0599 0.60786 0.39646 0.0
C213 C 0.9316 0.51418 0.38499 0.0
O214 O 0.05504 0.48058 0.39189 0.0
Co215 Co 0.95393 0.43561 0.41835 0.0
O216 O 1.00472 0.40255 0.39702 0.0
C217 C 0.02882 0.5001 0.4471 0.0
C218 C 0.02073 0.64136 0.40305 0.0
C219 C 0.04765 0.42754 0.38974 0.0
O220 O 0.03786 0.53771 0.43264 0.0
O221 O 0.99558 0.45897 0.44451 0.0
O222 O 0.96645 0.54656 0.37494 0.0
O223 O 0.94189 0.50665 0.40504 0.0
C224 C 0.08115 0.23643 0.57914 0.0
C225 C 0.03357 0.20191 0.57919 0.0
H226 H 0.1133 0.32 0.57963 0.0
C227 C 0.98064 0.22692 0.57969 0.0
H228 H 0.1226 0.21844 0.57888 0.0
C229 C 0.9754 0.28509 0.57966 0.0
C230 C 0.02297 0.31961 0.57967 0.0
H231 H 0.94325 0.20154 0.57974 0.0
H232 H 0.93394 0.30307 0.57979 0.0
C233 C 0.07592 0.2946 0.57964 0.0
C234 C 1.00221 0.71027 0.82663 0.0
C235 C 0.96904 0.75866 0.82677 0.0
H236 H 0.08507 0.67596 0.82688 0.0
C237 C 0.99559 0.81077 0.82692 0.0
H238 H 0.98296 0.66945 0.82663 0.0
C239 C 0.05402 0.81441 0.8265 0.0
C240 C 0.08721 0.76602 0.82657 0.0
H241 H 0.97118 0.84873 0.827 0.0
H242 H 0.07327 0.85524 0.82642 0.0
C243 C 0.06066 0.71391 0.82685 0.0
C244 C 0.48045 0.72792 0.07938 0.0
C245 C 0.53339 0.7029 0.07885 0.0
H246 H 0.43371 0.80408 0.07938 0.0
C247 C 0.58094 0.73746 0.07859 0.0
H248 H 0.44308 0.70252 0.07958 0.0
C249 C 0.57568 0.79565 0.07894 0.0
C250 C 0.52273 0.82067 0.07902 0.0
H251 H 0.6224 0.7195 0.07829 0.0
H252 H 0.61306 0.82104 0.07878 0.0
C253 C 0.47518 0.78611 0.0792 0.0
C254 C 0.56526 0.21303 0.32777 0.0
C255 C 0.59138 0.26537 0.32786 0.0
H256 H 0.48786 0.16799 0.32724 0.0
C257 C 0.55779 0.31347 0.32817 0.0
H258 H 0.58999 0.17529 0.3275 0.0
C259 C 0.49942 0.30936 0.32853 0.0
C260 C 0.47325 0.25708 0.32798 0.0
H261 H 0.57667 0.35446 0.32835 0.0
H262 H 0.47475 0.34714 0.32888 0.0
C263 C 0.50681 0.20895 0.32754 0.0
C264 C 0.08412 0.78675 0.40336 0.0
C265 C 0.0363 0.82084 0.40274 0.0
H266 H 0.11689 0.70342 0.40348 0.0
C267 C 0.98359 0.79534 0.40198 0.0
H268 H 0.12541 0.80512 0.40384 0.0
C269 C 0.97877 0.73713 0.40226 0.0
C270 C 0.02658 0.70302 0.40274 0.0
H271 H 0.94602 0.82039 0.4015 0.0
H272 H 0.93746 0.7188 0.40188 0.0
C273 C 0.07934 0.7285 0.40308 0.0
C274 C 0.49625 0.71316 0.65436 0.0
C275 C 0.46985 0.76527 0.65359 0.0
H276 H 0.57382 0.6687 0.65566 0.0
C277 C 0.50312 0.81358 0.65286 0.0
H278 H 0.47173 0.67528 0.65498 0.0
C279 C 0.56154 0.80985 0.65271 0.0
C280 C 0.58798 0.75779 0.65392 0.0
H281 H 0.48394 0.85437 0.65212 0.0
H282 H 0.58602 0.84774 0.65197 0.0
C283 C 0.55468 0.7095 0.65484 0.0
C284 C 0.48 0.29636 0.90119 0.0
C285 C 0.53295 0.32143 0.9015 0.0
H286 H 0.43326 0.22016 0.90146 0.0
C287 C 0.5805 0.28693 0.90164 0.0
H288 H 0.44262 0.32172 0.9011 0.0
C289 C 0.57524 0.22874 0.90138 0.0
C290 C 0.52229 0.20367 0.90152 0.0
H291 H 0.62197 0.30494 0.90176 0.0
H292 H 0.61262 0.20338 0.90143 0.0
C293 C 0.47473 0.23817 0.90147 0.0
C294 C 0.05557 0.21045 0.15435 0.0
C295 C 0.08896 0.25875 0.15439 0.0
H296 H 0.9726 0.17636 0.15352 0.0
C297 C 0.0626 0.31092 0.15396 0.0
H298 H 0.07465 0.16958 0.15453 0.0
C299 C 1.00415 0.31473 0.15393 0.0
C300 C 0.97078 0.26644 0.15368 0.0
H301 H 0.08715 0.34881 0.15399 0.0
H302 H 0.98506 0.3556 0.15381 0.0
C303 C 0.99715 0.21426 0.15368 0.0
C304 C 0.99972 0.96588 0.47664 0.0
C305 C 1.00431 0.01901 0.46755 0.0
H306 H 1.00282 0.91831 0.50565 0.0
C307 C 0.99977 0.06605 0.48101 0.0
H308 H 1.00222 0.92895 0.46668 0.0
C309 C 1.00042 0.06008 0.50335 0.0
C310 C 1.00565 1.00696 0.51239 0.0
H311 H 1.00172 0.10766 0.47431 0.0
H312 H 1.0034 0.097 0.5133 0.0
C313 C 1.00044 0.95991 0.49897 0.0
C314 C 0.23176 0.72246 0.7536 0.0
C315 C 0.28533 0.72736 0.76243 0.0
H316 H 0.18312 0.7249 0.7248 0.0
C317 C 0.33205 0.72224 0.7488 0.0
H318 H 0.19504 0.72526 0.76371 0.0
C319 C 0.32534 0.72233 0.72649 0.0
C320 C 0.27179 0.72758 0.71767 0.0
H321 H 0.37398 0.7243 0.7553 0.0
H322 H 0.36208 0.725 0.71639 0.0
C323 C 0.22504 0.72259 0.73129 0.0
C324 C 0.55188 0.0649 -0.00048 0.0
C325 C 0.54717 0.01738 0.01273 0.0
H326 H 0.54926 0.09694 0.96738 0.0
C327 C 0.55198 0.96457 0.00341 0.0
H328 H 0.54974 0.10627 0.00642 0.0
C329 C 0.55196 0.95937 0.98104 0.0
C330 C 0.54723 1.00688 0.96784 0.0
H331 H 0.5493 0.92733 0.01319 0.0
H332 H 0.54985 0.91799 0.97415 0.0
C333 C 0.55197 0.05969 0.97715 0.0
C334 C 0.23386 0.30006 0.22802 0.0
C335 C 0.28732 0.29541 0.2191 0.0
H336 H 0.18561 0.2974 0.25688 0.0
C337 C 0.3342 0.30041 0.23268 0.0
H338 H 0.19702 0.29729 0.21796 0.0
C339 C 0.32779 0.30015 0.255 0.0
C340 C 0.27437 0.29485 0.26391 0.0
H341 H 0.37605 0.29849 0.22612 0.0
H342 H 0.36467 0.2975 0.26504 0.0
C343 C 0.22745 0.29977 0.25034 0.0
C344 C 0.82586 0.22467 0.22598 0.0
C345 C 0.77221 0.22912 0.21719 0.0
H346 H 0.87473 0.22862 0.25469 0.0
C347 C 0.72559 0.22469 0.23091 0.0
H348 H 0.8625 0.22698 0.21581 0.0
C349 C 0.7325 0.2259 0.2532 0.0
C350 C 0.78613 0.23158 0.2619 0.0
H351 H 0.68361 0.22646 0.22445 0.0
H352 H 0.69588 0.22909 0.26335 0.0
C353 C 0.83276 0.22597 0.24826 0.0
C354 C 0.83211 0.80295 0.73185 0.0
C355 C 0.78561 0.79777 0.71809 0.0
H356 H 0.8616 0.8004 0.76434 0.0
C357 C 0.7319 0.80284 0.72676 0.0
H358 H 0.87414 0.80078 0.72548 0.0
C359 C 0.72481 0.80288 0.74904 0.0
C360 C 0.77132 0.79791 0.76281 0.0
H361 H 0.69534 0.80002 0.71655 0.0
H362 H 0.68278 0.80067 0.75541 0.0
C363 C 0.82502 0.80305 0.75414 0.0
C364 C 0.50181 0.56506 0.98106 0.0
C365 C 0.50655 0.51775 0.96775 0.0
H366 H 0.50439 0.59659 0.01327 0.0
C367 C 0.50136 0.46481 0.97694 0.0
H368 H 0.50419 0.60654 0.97425 0.0
C369 C 0.50118 0.45925 -0.0007 0.0
C370 C 0.50611 0.50653 0.01261 0.0
H371 H 0.504 0.42771 0.96709 0.0
H372 H 0.50313 0.41776 0.00611 0.0
C373 C 0.50154 0.5595 0.00341 0.0
C374 C 0.05542 0.46422 0.50458 0.0
C375 C 0.04945 0.51696 0.51385 0.0
H376 H 0.05513 0.41762 0.47531 0.0
C377 C 0.05419 0.56454 0.50069 0.0
H378 H 0.05281 0.42694 0.51434 0.0
C379 C 0.05534 0.55934 0.47833 0.0
C380 C 0.05162 0.50646 0.46899 0.0
H381 H 0.05123 0.60588 0.50757 0.0
H382 H 0.05251 0.59655 0.46853 0.0
C383 C 0.05647 0.45902 0.48222 0.0
C384 C 0.24583 0.90866 0.60364 0.0
C385 C 0.24641 0.90258 0.62605 0.0
H386 H 0.20844 0.94886 0.57657 0.0
C387 C 0.21139 0.93657 0.63863 0.0
H388 H 0.27235 0.88317 0.59355 0.0
C389 C 0.17474 0.97426 0.62895 0.0
C390 C 0.17235 0.97848 0.60649 0.0
H391 H 0.21122 0.93305 0.656 0.0
H392 H 0.14704 0.99857 0.639 0.0
C393 C 0.20908 0.94621 0.59396 0.0
C394 C 0.34639 0.9373 0.8409 0.0
C395 C 0.31044 0.90416 0.85346 0.0
H396 H 0.41126 0.9989 0.8406 0.0
C397 C 0.30973 0.9115 0.87581 0.0
H398 H 0.34756 0.93279 0.82357 0.0
C399 C 0.34613 0.94938 0.88549 0.0
C400 C 0.38385 0.98073 0.87303 0.0
H401 H 0.28245 0.88674 0.88588 0.0
H402 H 0.34576 0.95296 0.90286 0.0
C403 C 0.38274 0.97534 0.85059 0.0
C404 C 0.3473 0.07549 0.09541 0.0
C405 C 0.38499 0.04393 0.10781 0.0
H406 H 0.2838 0.13825 0.09513 0.0
C407 C 0.38404 0.04913 0.13025 0.0
H408 H 0.3468 0.07206 0.07803 0.0
C409 C 0.34784 0.08714 0.14001 0.0
C410 C 0.3119 0.12047 0.12751 0.0
H411 H 0.41252 0.02541 0.1402 0.0
H412 H 0.34911 0.09147 0.15734 0.0
C413 C 0.31107 0.11335 0.10516 0.0
C414 C 0.21128 0.07661 0.38749 0.0
C415 C 0.17521 0.04377 0.37487 0.0
H416 H 0.27414 0.14014 0.38804 0.0
C417 C 0.1784 0.04748 0.35241 0.0
H418 H 0.20996 0.0744 0.40489 0.0
C419 C 0.21512 0.08526 0.34281 0.0
C420 C 0.24949 0.1198 0.35547 0.0
H421 H 0.15116 0.02279 0.34229 0.0
H422 H 0.2155 0.08844 0.32543 0.0
C423 C 0.24818 0.11419 0.37789 0.0
C424 C 0.99729 0.17725 0.36355 0.0
C425 C 0.97734 0.12801 0.37293 0.0
H426 H 0.97919 0.25211 0.34702 0.0
C427 C 0.91991 0.11589 0.37144 0.0
H428 H 0.04125 0.18771 0.36408 0.0
C429 C 0.88318 0.15362 0.36131 0.0
C430 C 0.90353 0.2038 0.35251 0.0
H431 H 0.90325 0.07832 0.37863 0.0
H432 H 0.8391 0.14379 0.36053 0.0
C433 C 0.96122 0.21448 0.35368 0.0
C434 C 0.63452 0.11065 0.11239 0.0
C435 C 0.58738 0.13221 0.10167 0.0
H436 H 0.70795 0.12946 0.13118 0.0
C437 C 0.58152 0.1904 0.10019 0.0
H438 H 0.64065 0.06611 0.11366 0.0
C439 C 0.61971 0.22596 0.10986 0.0
C440 C 0.66525 0.20488 0.12145 0.0
H441 H 0.54666 0.20908 0.09176 0.0
H442 H 0.61257 0.27043 0.10876 0.0
C443 C 0.67331 0.14683 0.12221 0.0
C444 C 0.6174 0.79875 0.86965 0.0
C445 C 0.66334 0.81998 0.85836 0.0
H446 H 0.54427 0.81539 0.88769 0.0
C447 C 0.67198 0.87798 0.85803 0.0
H448 H 0.6098 0.75429 0.87043 0.0
C449 C 0.6334 0.91401 0.868 0.0
C450 C 0.58592 0.89236 0.87847 0.0
H451 H 0.70695 0.89548 0.8493 0.0
H452 H 0.64001 0.95855 0.86708 0.0
C453 C 0.57943 0.83417 0.87949 0.0
C454 C 0.88441 0.87584 0.62226 0.0
C455 C 0.89397 0.81799 0.62253 0.0
H456 H 0.9152 0.95634 0.61249 0.0
C457 C 0.94066 0.79687 0.61167 0.0
H458 H 0.84885 0.89328 0.63063 0.0
C459 C 0.9783 0.8323 0.60163 0.0
C460 C 0.97072 0.89041 0.60199 0.0
H461 H 0.94903 0.75252 0.61136 0.0
H462 H 0.014 0.81363 0.59377 0.0
C463 C 0.92265 0.91188 0.61208 0.0
C464 C 0.74683 0.41055 0.10346 0.0
C465 C 0.74734 0.40404 0.12584 0.0
H466 H 0.70939 0.45115 0.07648 0.0
C467 C 0.71226 0.43779 0.1385 0.0
H468 H 0.77338 0.38526 0.09331 0.0
C469 C 0.67556 0.47561 0.12891 0.0
C470 C 0.67318 0.48018 0.10647 0.0
H471 H 0.71203 0.43394 0.15586 0.0
H472 H 0.64776 0.49965 0.13902 0.0
C473 C 0.71003 0.44822 0.09386 0.0
C474 C 0.8152 0.41026 0.37681 0.0
C475 C 0.81494 0.40419 0.35441 0.0
H476 H 0.85208 0.4505 0.40396 0.0
C477 C 0.85014 0.43823 0.34189 0.0
H478 H 0.78848 0.38482 0.38685 0.0
C479 C 0.88674 0.47591 0.35166 0.0
C480 C 0.88877 0.48009 0.37412 0.0
H481 H 0.85052 0.43476 0.32452 0.0
H482 H 0.91464 0.50022 0.34168 0.0
C483 C 0.85178 0.44784 0.38656 0.0
C484 C 0.84621 0.57308 0.59569 0.0
C485 C 0.88418 0.5422 0.60821 0.0
H486 H 0.78248 0.63557 0.59515 0.0
C487 C 0.88349 0.54828 0.63062 0.0
H488 H 0.84553 0.56896 0.57834 0.0
C489 C 0.8473 0.58657 0.64022 0.0
C490 C 0.81111 0.61926 0.62758 0.0
H491 H 0.91224 0.52511 0.64065 0.0
H492 H 0.8488 0.59164 0.65752 0.0
C493 C 0.80997 0.61119 0.60528 0.0
C494 C 0.74566 0.61406 0.87626 0.0
C495 C 0.74525 0.62123 0.8539 0.0
H496 H 0.70932 0.57272 0.90327 0.0
C497 C 0.70949 0.58795 0.8413 0.0
H498 H 0.77277 0.63894 0.88636 0.0
C499 C 0.6731 0.54991 0.85095 0.0
C500 C 0.67171 0.54464 0.87338 0.0
H501 H 0.70854 0.59233 0.82396 0.0
H502 H 0.64477 0.52621 0.84091 0.0
C503 C 0.70918 0.57618 0.8859 0.0
C504 C 0.42216 0.61158 0.86807 0.0
C505 C 0.47042 0.63295 0.87811 0.0
H506 H 0.3481 0.63041 0.84968 0.0
C507 C 0.47805 0.69105 0.87856 0.0
H508 H 0.41467 0.56714 0.8676 0.0
C509 C 0.44029 0.7266 0.86866 0.0
C510 C 0.39341 0.70561 0.85784 0.0
H511 H 0.51388 0.70965 0.88639 0.0
H512 H 0.44872 0.77094 0.86906 0.0
C513 C 0.3838 0.64776 0.85802 0.0
C514 C 0.07876 0.68936 0.60198 0.0
C515 C 0.08576 0.63123 0.60292 0.0
H516 H 0.10892 0.76946 0.61085 0.0
C517 C 0.13379 0.60995 0.61313 0.0
H518 H 0.04316 0.70786 0.59396 0.0
C519 C 0.17249 0.64628 0.6229 0.0
C520 C 0.16345 0.70421 0.62262 0.0
H521 H 0.14081 0.56546 0.61397 0.0
H522 H 0.20797 0.62906 0.63141 0.0
C523 C 0.11687 0.72507 0.6116 0.0
C524 C 0.08541 0.33351 0.38125 0.0
C525 C 0.09109 0.39171 0.37964 0.0
H526 H 0.11661 0.25351 0.37277 0.0
C527 C 0.13778 0.41331 0.36865 0.0
H528 H 0.05091 0.31477 0.38988 0.0
C529 C 0.17623 0.37713 0.35867 0.0
C530 C 0.1683 0.31908 0.35958 0.0
H531 H 0.14376 0.45786 0.36727 0.0
H532 H 0.21048 0.3945 0.34949 0.0
C533 C 0.12337 0.29798 0.37147 0.0
C534 C 0.48015 0.3334 0.10287 0.0
C535 C 0.47186 0.39141 0.10287 0.0
H536 H 0.45161 0.25361 0.11282 0.0
C537 C 0.42334 0.41265 0.11273 0.0
H538 H 0.51623 0.31486 0.09522 0.0
C539 C 0.38528 0.37648 0.12296 0.0
C540 C 0.39546 0.31874 0.12353 0.0
H541 H 0.41533 0.45702 0.11287 0.0
H542 H 0.34928 0.39377 0.1311 0.0
C543 C 0.4427 0.29786 0.11295 0.0
loop_
_geom_bond_atom_site_label_1
_geom_bond_atom_site_label_2
_geom_bond_distance
_geom_bond_site_symmetry_2
_ccdc_geom_bond_type
Co0 O1 2.216 . S
Co0 O2 2.091 1_455 S
Co0 O4 1.994 1_445 S
Co0 O10 2.021 1_455 S
Co0 O12 2.137 . S
Co0 O13 2.244 1_545 S
O1 Co0 2.216 . S
O1 C8 1.247 . S
O2 Co0 2.091 1_655 S
O2 C8 1.261 1_655 S
C3 O12 1.247 1_565 S
C3 O13 1.272 . S
O4 Co0 1.994 1_665 S
O4 C9 1.279 . S
Co5 O6 2.061 1_455 S
Co5 O11 2.052 . S
Co5 O13 2.135 . S
O6 Co5 2.061 1_655 S
O6 C9 1.235 . S
C7 O10 1.238 1_455 S
C7 O11 1.241 1_545 S
C8 O1 1.247 . S
C8 O2 1.261 1_455 S
C9 O4 1.279 . S
C9 O6 1.235 . S
O10 Co0 2.021 1_655 S
O10 C7 1.238 1_655 S
O11 Co5 2.052 . S
O11 C7 1.241 1_565 S
O12 Co0 2.137 . S
O12 C3 1.247 1_545 S
O13 Co0 2.244 1_565 S
O13 C3 1.272 . S
O13 Co5 2.135 . S
Co14 O15 2.216 . S
Co14 O16 2.091 . S
Co14 O18 2.004 . S
Co14 O24 2.021 . S
Co14 O26 2.137 . S
Co14 O27 2.244 . S
O15 Co14 2.216 . S
O15 C22 1.247 . S
O16 Co14 2.091 . S
O16 C22 1.261 . S
C17 O26 1.247 . S
C17 O27 1.272 . S
O18 Co14 2.004 . S
O18 C23 1.259 . S
Co19 O20 2.061 . S
Co19 O25 2.052 . S
Co19 O27 2.135 . S
O20 Co19 2.061 . S
O20 C23 1.235 . S
C21 O24 1.238 . S
C21 O25 1.241 . S
C22 O15 1.247 . S
C22 O16 1.261 . S
C23 O18 1.259 . S
C23 O20 1.235 . S
O24 Co14 2.021 . S
O24 C21 1.238 . S
O25 Co19 2.052 . S
O25 C21 1.241 . S
O26 Co14 2.137 . S
O26 C17 1.247 . S
O27 Co14 2.244 . S
O27 C17 1.272 . S
O27 Co19 2.135 . S
Co28 O29 2.216 . S
Co28 O30 2.091 . S
Co28 O32 1.994 1_565 S
Co28 O38 2.021 . S
Co28 O40 2.137 . S
Co28 O41 2.244 1_565 S
O29 Co28 2.216 . S
O29 C36 1.247 . S
O30 Co28 2.091 . S
O30 C36 1.261 . S
C31 O40 1.247 1_545 S
C31 O41 1.272 . S
O32 Co28 1.994 1_545 S
O32 C37 1.279 . S
Co33 O34 2.061 . S
Co33 O39 2.052 . S
Co33 O41 2.135 . S
O34 Co33 2.061 . S
O34 C37 1.235 . S
C35 O38 1.238 . S
C35 O39 1.241 1_565 S
C36 O29 1.247 . S
C36 O30 1.261 . S
C37 O32 1.279 . S
C37 O34 1.235 . S
O38 Co28 2.021 . S
O38 C35 1.238 . S
O39 Co33 2.052 . S
O39 C35 1.241 1_545 S
O40 Co28 2.137 . S
O40 C31 1.247 1_565 S
O41 Co28 2.244 1_545 S
O41 C31 1.272 . S
O41 Co33 2.135 . S
Co42 O43 2.216 . S
Co42 O44 2.091 . S
Co42 O46 2.004 . S
Co42 O52 2.021 . S
Co42 O54 2.137 . S
Co42 O55 2.244 . S
O43 Co42 2.216 . S
O43 C50 1.247 . S
O44 Co42 2.091 . S
O44 C50 1.261 . S
C45 O54 1.247 . S
C45 O55 1.272 . S
O46 Co42 2.004 . S
O46 C51 1.259 . S
Co47 O48 2.061 . S
Co47 O53 2.052 . S
Co47 O55 2.135 . S
O48 Co47 2.061 . S
O48 C51 1.235 . S
C49 O52 1.238 . S
C49 O53 1.241 . S
C50 O43 1.247 . S
C50 O44 1.261 . S
C51 O46 1.259 . S
C51 O48 1.235 . S
O52 Co42 2.021 . S
O52 C49 1.238 . S
O53 Co47 2.052 . S
O53 C49 1.241 . S
O54 Co42 2.137 . S
O54 C45 1.247 . S
O55 Co42 2.244 . S
O55 C45 1.272 . S
O55 Co47 2.135 . S
Co56 O57 2.216 . S
Co56 O58 2.091 1_455 S
Co56 O60 1.994 1_465 S
Co56 O66 2.021 1_455 S
Co56 O68 2.137 . S
Co56 O69 2.244 1_565 S
O57 Co56 2.216 . S
O57 C64 1.247 . S
O58 Co56 2.091 1_655 S
O58 C64 1.261 1_655 S
C59 O68 1.247 1_545 S
C59 O69 1.272 . S
O60 Co56 1.994 1_645 S
O60 C65 1.279 . S
Co61 O62 2.061 1_455 S
Co61 O67 2.052 . S
Co61 O69 2.135 . S
O62 Co61 2.061 1_655 S
O62 C65 1.235 . S
C63 O66 1.238 1_455 S
C63 O67 1.241 1_565 S
C64 O57 1.247 . S
C64 O58 1.261 1_455 S
C65 O60 1.279 . S
C65 O62 1.235 . S
O66 Co56 2.021 1_655 S
O66 C63 1.238 1_655 S
O67 Co61 2.052 . S
O67 C63 1.241 1_545 S
O68 Co56 2.137 . S
O68 C59 1.247 1_565 S
O69 Co56 2.244 1_545 S
O69 C59 1.272 . S
O69 Co61 2.135 . S
Co70 O71 2.216 . S
Co70 O72 2.091 . S
Co70 O74 2.004 . S
Co70 O80 2.021 . S
Co70 O82 2.137 . S
Co70 O83 2.244 . S
O71 Co70 2.216 . S
O71 C78 1.247 . S
O72 Co70 2.091 . S
O72 C78 1.261 . S
C73 O82 1.247 . S
C73 O83 1.272 . S
O74 Co70 2.004 . S
O74 C79 1.259 . S
Co75 O76 2.061 . S
Co75 O81 2.052 . S
Co75 O83 2.135 . S
O76 Co75 2.061 . S
O76 C79 1.235 . S
C77 O80 1.238 . S
C77 O81 1.241 . S
C78 O71 1.247 . S
C78 O72 1.261 . S
C79 O74 1.259 . S
C79 O76 1.235 . S
O80 Co70 2.021 . S
O80 C77 1.238 . S
O81 Co75 2.052 . S
O81 C77 1.241 . S
O82 Co70 2.137 . S
O82 C73 1.247 . S
O83 Co70 2.244 . S
O83 C73 1.272 . S
O83 Co75 2.135 . S
Co84 O85 2.216 . S
Co84 O86 2.091 . S
Co84 O88 1.994 1_545 S
Co84 O94 2.021 . S
Co84 O96 2.137 . S
Co84 O97 2.244 1_545 S
O85 Co84 2.216 . S
O85 C92 1.247 . S
O86 Co84 2.091 . S
O86 C92 1.261 . S
C87 O96 1.247 1_565 S
C87 O97 1.272 . S
O88 Co84 1.994 1_565 S
O88 C93 1.279 . S
Co89 O90 2.061 . S
Co89 O95 2.052 . S
Co89 O97 2.135 . S
O90 Co89 2.061 . S
O90 C93 1.235 . S
C91 O94 1.238 . S
C91 O95 1.241 1_545 S
C92 O85 1.247 . S
C92 O86 1.261 . S
C93 O88 1.279 . S
C93 O90 1.235 . S
O94 Co84 2.021 . S
O94 C91 1.238 . S
O95 Co89 2.052 . S
O95 C91 1.241 1_565 S
O96 Co84 2.137 . S
O96 C87 1.247 1_545 S
O97 Co84 2.244 1_565 S
O97 C87 1.272 . S
O97 Co89 2.135 . S
Co98 O99 2.216 . S
Co98 O100 2.091 . S
Co98 O102 2.004 . S
Co98 O108 2.021 . S
Co98 O110 2.137 . S
Co98 O111 2.244 . S
O99 Co98 2.216 . S
O99 C106 1.247 . S
O100 Co98 2.091 . S
O100 C106 1.261 . S
C101 O110 1.247 . S
C101 O111 1.272 . S
O102 Co98 2.004 . S
O102 C107 1.259 . S
Co103 O104 2.061 . S
Co103 O109 2.052 . S
Co103 O111 2.135 . S
O104 Co103 2.061 . S
O104 C107 1.235 . S
C105 O108 1.238 . S
C105 O109 1.241 . S
C106 O99 1.247 . S
C106 O100 1.261 . S
C107 O102 1.259 . S
C107 O104 1.235 . S
O108 Co98 2.021 . S
O108 C105 1.238 . S
O109 Co103 2.052 . S
O109 C105 1.241 . S
O110 Co98 2.137 . S
O110 C101 1.247 . S
O111 Co98 2.244 . S
O111 C101 1.272 . S
O111 Co103 2.135 . S
Co112 O113 2.216 . S
Co112 O114 2.091 . S
Co112 O116 2.004 . S
Co112 O122 2.021 . S
Co112 O124 2.137 . S
Co112 O125 2.244 . S
O113 Co112 2.216 . S
O113 C120 1.247 . S
O114 Co112 2.091 . S
O114 C120 1.261 . S
C115 O124 1.247 . S
C115 O125 1.272 . S
O116 Co112 2.004 . S
O116 C121 1.259 . S
Co117 O118 2.061 . S
Co117 O123 2.052 . S
Co117 O125 2.135 . S
O118 Co117 2.061 . S
O118 C121 1.235 . S
C119 O122 1.238 . S
C119 O123 1.241 . S
C120 O113 1.247 . S
C120 O114 1.261 . S
C121 O116 1.259 . S
C121 O118 1.235 . S
O122 Co112 2.021 . S
O122 C119 1.238 . S
O123 Co117 2.052 . S
O123 C119 1.241 . S
O124 Co112 2.137 . S
O124 C115 1.247 . S
O125 Co112 2.244 . S
O125 C115 1.272 . S
O125 Co117 2.135 . S
Co126 O127 2.216 . S
Co126 O128 2.091 . S
Co126 O130 2.004 . S
Co126 O136 2.021 . S
Co126 O138 2.137 . S
Co126 O139 2.244 . S
O127 Co126 2.216 . S
O127 C134 1.247 . S
O128 Co126 2.091 . S
O128 C134 1.261 . S
C129 O138 1.247 . S
C129 O139 1.272 . S
O130 Co126 2.004 . S
O130 C135 1.259 . S
Co131 O132 2.061 . S
Co131 O137 2.052 . S
Co131 O139 2.135 . S
O132 Co131 2.061 . S
O132 C135 1.235 . S
C133 O136 1.238 . S
C133 O137 1.241 . S
C134 O127 1.247 . S
C134 O128 1.261 . S
C135 O130 1.259 . S
C135 O132 1.235 . S
O136 Co126 2.021 . S
O136 C133 1.238 . S
O137 Co131 2.052 . S
O137 C133 1.241 . S
O138 Co126 2.137 . S
O138 C129 1.247 . S
O139 Co126 2.244 . S
O139 C129 1.272 . S
O139 Co131 2.135 . S
Co140 O141 2.216 . S
Co140 O142 2.091 . S
Co140 O144 2.004 . S
Co140 O150 2.021 . S
Co140 O152 2.137 . S
Co140 O153 2.244 . S
O141 Co140 2.216 . S
O141 C148 1.247 . S
O142 Co140 2.091 . S
O142 C148 1.261 . S
C143 O152 1.247 . S
C143 O153 1.272 . S
O144 Co140 2.004 . S
O144 C149 1.259 . S
Co145 O146 2.061 . S
Co145 O151 2.052 . S
Co145 O153 2.135 . S
O146 Co145 2.061 . S
O146 C149 1.235 . S
C147 O150 1.238 . S
C147 O151 1.241 . S
C148 O141 1.247 . S
C148 O142 1.261 . S
C149 O144 1.259 . S
C149 O146 1.235 . S
O150 Co140 2.021 . S
O150 C147 1.238 . S
O151 Co145 2.052 . S
O151 C147 1.241 . S
O152 Co140 2.137 . S
O152 C143 1.247 . S
O153 Co140 2.244 . S
O153 C143 1.272 . S
O153 Co145 2.135 . S
Co154 O155 2.216 . S
Co154 O156 2.091 . S
Co154 O158 2.004 . S
Co154 O164 2.021 . S
Co154 O166 2.137 . S
Co154 O167 2.244 . S
O155 Co154 2.216 . S
O155 C162 1.247 . S
O156 Co154 2.091 . S
O156 C162 1.261 . S
C157 O166 1.247 . S
C157 O167 1.272 . S
O158 Co154 2.004 . S
O158 C163 1.259 . S
Co159 O160 2.061 . S
Co159 O165 2.052 . S
Co159 O167 2.135 . S
O160 Co159 2.061 . S
O160 C163 1.235 . S
C161 O164 1.238 . S
C161 O165 1.241 . S
C162 O155 1.247 . S
C162 O156 1.261 . S
C163 O158 1.259 . S
C163 O160 1.235 . S
O164 Co154 2.021 . S
O164 C161 1.238 . S
O165 Co159 2.052 . S
O165 C161 1.241 . S
O166 Co154 2.137 . S
O166 C157 1.247 . S
O167 Co154 2.244 . S
O167 C157 1.272 . S
O167 Co159 2.135 . S
Co168 O169 2.216 . S
Co168 O170 2.091 . S
Co168 O172 2.004 . S
Co168 O178 2.021 . S
Co168 O180 2.137 . S
Co168 O181 2.244 . S
O169 Co168 2.216 . S
O169 C176 1.247 . S
O170 Co168 2.091 . S
O170 C176 1.261 . S
C171 O180 1.247 . S
C171 O181 1.272 . S
O172 Co168 2.004 . S
O172 C177 1.259 . S
Co173 O174 2.061 . S
Co173 O179 2.052 . S
Co173 O181 2.135 . S
O174 Co173 2.061 . S
O174 C177 1.235 . S
C175 O178 1.238 . S
C175 O179 1.241 . S
C176 O169 1.247 . S
C176 O170 1.261 . S
C177 O172 1.259 . S
C177 O174 1.235 . S
O178 Co168 2.021 . S
O178 C175 1.238 . S
O179 Co173 2.052 . S
O179 C175 1.241 . S
O180 Co168 2.137 . S
O180 C171 1.247 . S
O181 Co168 2.244 . S
O181 C171 1.272 . S
O181 Co173 2.135 . S
Co182 O183 2.216 1_455 S
Co182 O184 2.091 . S
Co182 O186 2.004 . S
Co182 O192 2.021 . S
Co182 O194 2.137 1_455 S
Co182 O195 2.244 1_455 S
O183 Co182 2.216 1_655 S
O183 C190 1.247 . S
O184 Co182 2.091 . S
O184 C190 1.261 1_455 S
C185 O194 1.247 . S
C185 O195 1.272 . S
O186 Co182 2.004 . S
O186 C191 1.259 . S
Co187 O188 2.061 1_655 S
Co187 O193 2.052 . S
Co187 O195 2.135 . S
O188 Co187 2.061 1_455 S
O188 C191 1.235 . S
C189 O192 1.238 . S
C189 O193 1.241 1_455 S
C190 O183 1.247 . S
C190 O184 1.261 1_655 S
C191 O186 1.259 . S
C191 O188 1.235 . S
O192 Co182 2.021 . S
O192 C189 1.238 . S
O193 Co187 2.052 . S
O193 C189 1.241 1_655 S
O194 Co182 2.137 1_655 S
O194 C185 1.247 . S
O195 Co182 2.244 1_655 S
O195 C185 1.272 . S
O195 Co187 2.135 . S
Co196 O197 2.216 . S
Co196 O198 2.091 . S
Co196 O200 2.004 . S
Co196 O206 2.021 . S
Co196 O208 2.137 . S
Co196 O209 2.244 . S
O197 Co196 2.216 . S
O197 C204 1.247 . S
O198 Co196 2.091 . S
O198 C204 1.261 . S
C199 O208 1.247 . S
C199 O209 1.272 . S
O200 Co196 2.004 . S
O200 C205 1.259 . S
Co201 O202 2.061 . S
Co201 O207 2.052 . S
Co201 O209 2.135 . S
O202 Co201 2.061 . S
O202 C205 1.235 . S
C203 O206 1.238 . S
C203 O207 1.241 . S
C204 O197 1.247 . S
C204 O198 1.261 . S
C205 O200 1.259 . S
C205 O202 1.235 . S
O206 Co196 2.021 . S
O206 C203 1.238 . S
O207 Co201 2.052 . S
O207 C203 1.241 . S
O208 Co196 2.137 . S
O208 C199 1.247 . S
O209 Co196 2.244 . S
O209 C199 1.272 . S
O209 Co201 2.135 . S
Co210 O211 2.216 1_455 S
Co210 O212 2.091 . S
Co210 O214 2.004 . S
Co210 O220 2.021 . S
Co210 O222 2.137 1_455 S
Co210 O223 2.244 1_455 S
O211 Co210 2.216 1_655 S
O211 C218 1.247 . S
O212 Co210 2.091 . S
O212 C218 1.261 1_455 S
C213 O222 1.247 . S
C213 O223 1.272 . S
O214 Co210 2.004 . S
O214 C219 1.259 . S
Co215 O216 2.061 1_655 S
Co215 O221 2.052 . S
Co215 O223 2.135 . S
O216 Co215 2.061 1_455 S
O216 C219 1.235 . S
C217 O220 1.238 . S
C217 O221 1.241 1_455 S
C218 O211 1.247 . S
C218 O212 1.261 1_655 S
C219 O214 1.259 . S
C219 O216 1.235 . S
O220 Co210 2.021 . S
O220 C217 1.238 . S
O221 Co215 2.052 . S
O221 C217 1.241 1_655 S
O222 Co210 2.137 1_655 S
O222 C213 1.247 . S
O223 Co210 2.244 1_655 S
O223 C213 1.272 . S
O223 Co215 2.135 . S
C224 C225 1.387 . S
C224 H228 0.950 . S
C224 C233 1.390 . S
C225 C224 1.387 . S
C225 C227 1.387 . S
H226 C233 0.952 . S
C227 C225 1.387 . S
C227 C229 1.390 . S
C227 H231 0.950 . S
H228 C224 0.950 . S
C229 C227 1.390 . S
C229 C230 1.387 1_455 S
C229 H232 0.952 . S
C230 C229 1.387 1_655 S
C230 C233 1.387 1_655 S
H231 C227 0.950 . S
H232 C229 0.952 . S
C233 C224 1.390 . S
C233 H226 0.952 . S
C233 C230 1.387 1_455 S
C234 C235 1.387 . S
C234 H238 0.950 . S
C234 C243 1.390 1_655 S
C235 C234 1.387 . S
C235 C237 1.387 . S
H236 C243 0.950 . S
C237 C235 1.387 . S
C237 C239 1.390 1_655 S
C237 H241 0.950 . S
H238 C234 0.950 . S
C239 C237 1.390 1_455 S
C239 C240 1.387 . S
C239 H242 0.950 . S
C240 C239 1.387 . S
C240 C243 1.387 . S
H241 C237 0.950 . S
H242 C239 0.950 . S
C243 C234 1.390 1_455 S
C243 H236 0.950 . S
C243 C240 1.387 . S
C244 C245 1.387 . S
C244 H248 0.950 . S
C244 C253 1.390 . S
C245 C244 1.387 . S
C245 C247 1.387 . S
H246 C253 0.950 . S
C247 C245 1.387 . S
C247 C249 1.390 . S
C247 H251 0.950 . S
H248 C244 0.950 . S
C249 C247 1.390 . S
C249 C250 1.387 . S
C249 H252 0.950 . S
C250 C249 1.387 . S
C250 C253 1.387 . S
H251 C247 0.950 . S
H252 C249 0.950 . S
C253 C244 1.390 . S
C253 H246 0.950 . S
C253 C250 1.387 . S
C254 C255 1.387 . S
C254 H258 0.950 . S
C254 C263 1.390 . S
C255 C254 1.387 . S
C255 C257 1.387 . S
H256 C263 0.950 . S
C257 C255 1.387 . S
C257 C259 1.390 . S
C257 H261 0.950 . S
H258 C254 0.950 . S
C259 C257 1.390 . S
C259 C260 1.387 . S
C259 H262 0.950 . S
C260 C259 1.387 . S
C260 C263 1.387 . S
H261 C257 0.950 . S
H262 C259 0.950 . S
C263 C254 1.390 . S
C263 H256 0.950 . S
C263 C260 1.387 . S
C264 C265 1.387 . S
C264 H268 0.950 . S
C264 C273 1.390 . S
C265 C264 1.387 . S
C265 C267 1.387 . S
H266 C273 0.952 . S
C267 C265 1.387 . S
C267 C269 1.390 . S
C267 H271 0.950 . S
H268 C264 0.950 . S
C269 C267 1.390 . S
C269 C270 1.387 1_455 S
C269 H272 0.952 . S
C270 C269 1.387 1_655 S
C270 C273 1.387 1_655 S
H271 C267 0.950 . S
H272 C269 0.952 . S
C273 C264 1.390 . S
C273 H266 0.952 . S
C273 C270 1.387 1_455 S
C274 C275 1.387 . S
C274 H278 0.950 . S
C274 C283 1.390 . S
C275 C274 1.387 . S
C275 C277 1.387 . S
H276 C283 0.950 . S
C277 C275 1.387 . S
C277 C279 1.390 . S
C277 H281 0.950 . S
H278 C274 0.950 . S
C279 C277 1.390 . S
C279 C280 1.387 . S
C279 H282 0.950 . S
C280 C279 1.387 . S
C280 C283 1.387 . S
H281 C277 0.950 . S
H282 C279 0.950 . S
C283 C274 1.390 . S
C283 H276 0.950 . S
C283 C280 1.387 . S
C284 C285 1.387 . S
C284 H288 0.950 . S
C284 C293 1.390 . S
C285 C284 1.387 . S
C285 C287 1.387 . S
H286 C293 0.950 . S
C287 C285 1.387 . S
C287 C289 1.390 . S
C287 H291 0.950 . S
H288 C284 0.950 . S
C289 C287 1.390 . S
C289 C290 1.387 . S
C289 H292 0.950 . S
C290 C289 1.387 . S
C290 C293 1.387 . S
H291 C287 0.950 . S
H292 C289 0.950 . S
C293 C284 1.390 . S
C293 H286 0.950 . S
C293 C290 1.387 . S
C294 C295 1.387 . S
C294 H298 0.950 . S
C294 C303 1.390 1_455 S
C295 C294 1.387 . S
C295 C297 1.387 . S
H296 C303 0.950 . S
C297 C295 1.387 . S
C297 C299 1.390 1_455 S
C297 H301 0.950 . S
H298 C294 0.950 . S
C299 C297 1.390 1_655 S
C299 C300 1.387 . S
C299 H302 0.950 . S
C300 C299 1.387 . S
C300 C303 1.387 . S
H301 C297 0.950 . S
H302 C299 0.950 . S
C303 C294 1.390 1_655 S
C303 H296 0.950 . S
C303 C300 1.387 . S
C304 C305 1.387 . S
C304 H308 0.950 . S
C304 C313 1.390 1_565 S
C305 C304 1.387 . S
C305 C307 1.387 1_455 S
H306 C313 0.950 . S
C307 C305 1.387 1_655 S
C307 C309 1.390 1_565 S
C307 H311 0.950 . S
H308 C304 0.950 . S
C309 C307 1.390 1_545 S
C309 C310 1.387 1_655 S
C309 H312 0.950 . S
C310 C309 1.387 1_455 S
C310 C313 1.387 . S
H311 C307 0.950 . S
H312 C309 0.950 . S
C313 C304 1.390 1_545 S
C313 H306 0.950 . S
C313 C310 1.387 . S
C314 C315 1.387 . S
C314 H318 0.950 . S
C314 C323 1.390 . S
C315 C314 1.387 . S
C315 C317 1.387 . S
H316 C323 0.950 . S
C317 C315 1.387 . S
C317 C319 1.390 . S
C317 H321 0.950 . S
H318 C314 0.950 . S
C319 C317 1.390 . S
C319 C320 1.387 . S
C319 H322 0.950 . S
C320 C319 1.387 . S
C320 C323 1.387 . S
H321 C317 0.950 . S
H322 C319 0.950 . S
C323 C314 1.390 . S
C323 H316 0.950 . S
C323 C320 1.387 . S
C324 C325 1.387 . S
C324 H328 0.950 . S
C324 C333 1.390 1_564 S
C325 C324 1.387 . S
C325 C327 1.387 . S
H326 C333 0.950 . S
C327 C325 1.387 . S
C327 C329 1.390 1_564 S
C327 H331 0.950 . S
H328 C324 0.950 . S
C329 C327 1.390 1_546 S
C329 C330 1.387 . S
C329 H332 0.950 . S
C330 C329 1.387 . S
C330 C333 1.387 . S
H331 C327 0.950 . S
H332 C329 0.950 . S
C333 C324 1.390 1_546 S
C333 H326 0.950 . S
C333 C330 1.387 . S
C334 C335 1.387 . S
C334 H338 0.950 . S
C334 C343 1.390 . S
C335 C334 1.387 . S
C335 C337 1.387 . S
H336 C343 0.950 . S
C337 C335 1.387 . S
C337 C339 1.390 . S
C337 H341 0.950 . S
H338 C334 0.950 . S
C339 C337 1.390 . S
C339 C340 1.387 . S
C339 H342 0.950 . S
C340 C339 1.387 . S
C340 C343 1.387 . S
H341 C337 0.950 . S
H342 C339 0.950 . S
C343 C334 1.390 . S
C343 H336 0.950 . S
C343 C340 1.387 . S
C344 C345 1.387 . S
C344 H348 0.950 . S
C344 C353 1.390 . S
C345 C344 1.387 . S
C345 C347 1.387 . S
H346 C353 0.950 . S
C347 C345 1.387 . S
C347 C349 1.390 . S
C347 H351 0.950 . S
H348 C344 0.950 . S
C349 C347 1.390 . S
C349 C350 1.387 . S
C349 H352 0.950 . S
C350 C349 1.387 . S
C350 C353 1.387 . S
H351 C347 0.950 . S
H352 C349 0.950 . S
C353 C344 1.390 . S
C353 H346 0.950 . S
C353 C350 1.387 . S
C354 C355 1.387 . S
C354 H358 0.950 . S
C354 C363 1.390 . S
C355 C354 1.387 . S
C355 C357 1.387 . S
H356 C363 0.950 . S
C357 C355 1.387 . S
C357 C359 1.390 . S
C357 H361 0.950 . S
H358 C354 0.950 . S
C359 C357 1.390 . S
C359 C360 1.387 . S
C359 H362 0.950 . S
C360 C359 1.387 . S
C360 C363 1.387 . S
H361 C357 0.950 . S
H362 C359 0.950 . S
C363 C354 1.390 . S
C363 H356 0.950 . S
C363 C360 1.387 . S
C364 C365 1.387 . S
C364 H368 0.950 . S
C364 C373 1.390 1_556 S
C365 C364 1.387 . S
C365 C367 1.387 . S
H366 C373 0.950 . S
C367 C365 1.387 . S
C367 C369 1.390 1_556 S
C367 H371 0.950 . S
H368 C364 0.950 . S
C369 C367 1.390 1_554 S
C369 C370 1.387 . S
C369 H372 0.950 . S
C370 C369 1.387 . S
C370 C373 1.387 . S
H371 C367 0.950 . S
H372 C369 0.950 . S
C373 C364 1.390 1_554 S
C373 H366 0.950 . S
C373 C370 1.387 . S
C374 C375 1.387 . S
C374 H378 0.950 . S
C374 C383 1.390 . S
C375 C374 1.387 . S
C375 C377 1.387 1_455 S
H376 C383 0.950 . S
C377 C375 1.387 1_655 S
C377 C379 1.390 . S
C377 H381 0.950 . S
H378 C374 0.950 . S
C379 C377 1.390 . S
C379 C380 1.387 1_655 S
C379 H382 0.950 . S
C380 C379 1.387 1_455 S
C380 C383 1.387 . S
H381 C377 0.950 . S
H382 C379 0.950 . S
C383 C374 1.390 . S
C383 H376 0.950 . S
C383 C380 1.387 . S
C384 C385 1.387 . S
C384 H388 0.950 . S
C384 C393 1.390 . S
C385 C384 1.387 . S
C385 C387 1.387 . S
H386 C393 0.950 . S
C387 C385 1.387 . S
C387 C389 1.390 . S
C387 H391 0.950 . S
H388 C384 0.950 . S
C389 C387 1.390 . S
C389 C390 1.387 . S
C389 H392 0.950 . S
C390 C389 1.387 . S
C390 C393 1.387 . S
H391 C387 0.950 . S
H392 C389 0.950 . S
C393 C384 1.390 . S
C393 H386 0.950 . S
C393 C390 1.387 . S
C394 C395 1.387 . S
C394 H398 0.950 . S
C394 C403 1.390 . S
C395 C394 1.387 . S
C395 C397 1.387 . S
H396 C403 0.950 . S
C397 C395 1.387 . S
C397 C399 1.390 . S
C397 H401 0.950 . S
H398 C394 0.950 . S
C399 C397 1.390 . S
C399 C400 1.387 . S
C399 H402 0.950 . S
C400 C399 1.387 . S
C400 C403 1.387 . S
H401 C397 0.950 . S
H402 C399 0.950 . S
C403 C394 1.390 . S
C403 H396 0.950 . S
C403 C400 1.387 . S
C404 C405 1.387 . S
C404 H408 0.950 . S
C404 C413 1.390 . S
C405 C404 1.387 . S
C405 C407 1.387 . S
H406 C413 0.950 . S
C407 C405 1.387 . S
C407 C409 1.390 . S
C407 H411 0.950 . S
H408 C404 0.950 . S
C409 C407 1.390 . S
C409 C410 1.387 . S
C409 H412 0.950 . S
C410 C409 1.387 . S
C410 C413 1.387 . S
H411 C407 0.950 . S
H412 C409 0.950 . S
C413 C404 1.390 . S
C413 H406 0.950 . S
C413 C410 1.387 . S
C414 C415 1.387 . S
C414 H418 0.950 . S
C414 C423 1.390 . S
C415 C414 1.387 . S
C415 C417 1.387 . S
H416 C423 0.950 . S
C417 C415 1.387 . S
C417 C419 1.390 . S
C417 H421 0.950 . S
H418 C414 0.950 . S
C419 C417 1.390 . S
C419 C420 1.387 . S
C419 H422 0.950 . S
C420 C419 1.387 . S
C420 C423 1.387 . S
H421 C417 0.950 . S
H422 C419 0.950 . S
C423 C414 1.390 . S
C423 H416 0.950 . S
C423 C420 1.387 . S
C424 C425 1.387 . S
C424 H428 0.950 . S
C424 C433 1.390 . S
C425 C424 1.387 . S
C425 C427 1.387 . S
H426 C433 0.950 . S
C427 C425 1.387 . S
C427 C429 1.390 . S
C427 H431 0.950 . S
H428 C424 0.950 . S
C429 C427 1.390 . S
C429 C430 1.387 . S
C429 H432 0.950 . S
C430 C429 1.387 . S
C430 C433 1.387 . S
H431 C427 0.950 . S
H432 C429 0.950 . S
C433 C424 1.390 . S
C433 H426 0.950 . S
C433 C430 1.387 . S
C434 C435 1.387 . S
C434 H438 0.950 . S
C434 C443 1.390 . S
C435 C434 1.387 . S
C435 C437 1.387 . S
H436 C443 0.950 . S
C437 C435 1.387 . S
C437 C439 1.390 . S
C437 H441 0.950 . S
H438 C434 0.950 . S
C439 C437 1.390 . S
C439 C440 1.387 . S
C439 H442 0.950 . S
C440 C439 1.387 . S
C440 C443 1.387 . S
H441 C437 0.950 . S
H442 C439 0.950 . S
C443 C434 1.390 . S
C443 H436 0.950 . S
C443 C440 1.387 . S
C444 C445 1.387 . S
C444 H448 0.950 . S
C444 C453 1.390 . S
C445 C444 1.387 . S
C445 C447 1.387 . S
H446 C453 0.950 . S
C447 C445 1.387 . S
C447 C449 1.390 . S
C447 H451 0.950 . S
H448 C444 0.950 . S
C449 C447 1.390 . S
C449 C450 1.387 . S
C449 H452 0.950 . S
C450 C449 1.387 . S
C450 C453 1.387 . S
H451 C447 0.950 . S
H452 C449 0.950 . S
C453 C444 1.390 . S
C453 H446 0.950 . S
C453 C450 1.387 . S
C454 C455 1.387 . S
C454 H458 0.950 . S
C454 C463 1.390 . S
C455 C454 1.387 . S
C455 C457 1.387 . S
H456 C463 0.950 . S
C457 C455 1.387 . S
C457 C459 1.390 . S
C457 H461 0.950 . S
H458 C454 0.950 . S
C459 C457 1.390 . S
C459 C460 1.387 . S
C459 H462 0.950 . S
C460 C459 1.387 . S
C460 C463 1.387 . S
H461 C457 0.950 . S
H462 C459 0.950 . S
C463 C454 1.390 . S
C463 H456 0.950 . S
C463 C460 1.387 . S
C464 C465 1.387 . S
C464 H468 0.950 . S
C464 C473 1.390 . S
C465 C464 1.387 . S
C465 C467 1.387 . S
H466 C473 0.950 . S
C467 C465 1.387 . S
C467 C469 1.390 . S
C467 H471 0.950 . S
H468 C464 0.950 . S
C469 C467 1.390 . S
C469 C470 1.387 . S
C469 H472 0.950 . S
C470 C469 1.387 . S
C470 C473 1.387 . S
H471 C467 0.950 . S
H472 C469 0.950 . S
C473 C464 1.390 . S
C473 H466 0.950 . S
C473 C470 1.387 . S
C474 C475 1.387 . S
C474 H478 0.950 . S
C474 C483 1.390 . S
C475 C474 1.387 . S
C475 C477 1.387 . S
H476 C483 0.950 . S
C477 C475 1.387 . S
C477 C479 1.390 . S
C477 H481 0.950 . S
H478 C474 0.950 . S
C479 C477 1.390 . S
C479 C480 1.387 . S
C479 H482 0.950 . S
C480 C479 1.387 . S
C480 C483 1.387 . S
H481 C477 0.950 . S
H482 C479 0.950 . S
C483 C474 1.390 . S
C483 H476 0.950 . S
C483 C480 1.387 . S
C484 C485 1.387 . S
C484 H488 0.950 . S
C484 C493 1.390 . S
C485 C484 1.387 . S
C485 C487 1.387 . S
H486 C493 0.950 . S
C487 C485 1.387 . S
C487 C489 1.390 . S
C487 H491 0.950 . S
H488 C484 0.950 . S
C489 C487 1.390 . S
C489 C490 1.387 . S
C489 H492 0.950 . S
C490 C489 1.387 . S
C490 C493 1.387 . S
H491 C487 0.950 . S
H492 C489 0.950 . S
C493 C484 1.390 . S
C493 H486 0.950 . S
C493 C490 1.387 . S
C494 C495 1.387 . S
C494 H498 0.950 . S
C494 C503 1.390 . S
C495 C494 1.387 . S
C495 C497 1.387 . S
H496 C503 0.950 . S
C497 C495 1.387 . S
C497 C499 1.390 . S
C497 H501 0.950 . S
H498 C494 0.950 . S
C499 C497 1.390 . S
C499 C500 1.387 . S
C499 H502 0.950 . S
C500 C499 1.387 . S
C500 C503 1.387 . S
H501 C497 0.950 . S
H502 C499 0.950 . S
C503 C494 1.390 . S
C503 H496 0.950 . S
C503 C500 1.387 . S
C504 C505 1.387 . S
C504 H508 0.950 . S
C504 C513 1.390 . S
C505 C504 1.387 . S
C505 C507 1.387 . S
H506 C513 0.950 . S
C507 C505 1.387 . S
C507 C509 1.390 . S
C507 H511 0.950 . S
H508 C504 0.950 . S
C509 C507 1.390 . S
C509 C510 1.387 . S
C509 H512 0.950 . S
C510 C509 1.387 . S
C510 C513 1.387 . S
H511 C507 0.950 . S
H512 C509 0.950 . S
C513 C504 1.390 . S
C513 H506 0.950 . S
C513 C510 1.387 . S
C514 C515 1.387 . S
C514 H518 0.950 . S
C514 C523 1.390 . S
C515 C514 1.387 . S
C515 C517 1.387 . S
H516 C523 0.950 . S
C517 C515 1.387 . S
C517 C519 1.390 . S
C517 H521 0.950 . S
H518 C514 0.950 . S
C519 C517 1.390 . S
C519 C520 1.387 . S
C519 H522 0.950 . S
C520 C519 1.387 . S
C520 C523 1.387 . S
H521 C517 0.950 . S
H522 C519 0.950 . S
C523 C514 1.390 . S
C523 H516 0.950 . S
C523 C520 1.387 . S
C524 C525 1.387 . S
C524 H528 0.950 . S
C524 C533 1.390 . S
C525 C524 1.387 . S
C525 C527 1.387 . S
H526 C533 0.950 . S
C527 C525 1.387 . S
C527 C529 1.390 . S
C527 H531 0.950 . S
H528 C524 0.950 . S
C529 C527 1.390 . S
C529 C530 1.387 . S
C529 H532 0.950 . S
C530 C529 1.387 . S
C530 C533 1.387 . S
H531 C527 0.950 . S
H532 C529 0.950 . S
C533 C524 1.390 . S
C533 H526 0.950 . S
C533 C530 1.387 . S
C534 C535 1.387 . S
C534 H538 0.950 . S
C534 C543 1.390 . S
C535 C534 1.387 . S
C535 C537 1.387 . S
H536 C543 0.950 . S
C537 C535 1.387 . S
C537 C539 1.390 . S
C537 H541 0.950 . S
H538 C534 0.950 . S
C539 C537 1.390 . S
C539 C540 1.387 . S
C539 H542 0.950 . S
C540 C539 1.387 . S
C540 C543 1.387 . S
H541 C537 0.950 . S
H542 C539 0.950 . S
C543 C534 1.390 . S
C543 H536 0.950 . S
C543 C540 1.387 . S
C225 C8 1.406 . S
C230 C190 1.406 . S
C235 C162 1.403 . S
C240 C22 1.403 . S
C245 C176 1.403 . S
C250 C36 1.403 . S
C255 C148 1.403 . S
C260 C50 1.403 . S
C265 C64 1.406 . S
C270 C218 1.406 . S
C275 C78 1.406 . S
C280 C134 1.406 . S
C285 C204 1.406 . S
C290 C92 1.406 . S
C295 C106 1.406 . S
C300 C120 1.406 . S
C305 C63 1.555 . S
C310 C7 1.555 . S
C315 C21 1.555 . S
C320 C77 1.555 . S
C325 C35 1.555 . S
C330 C91 1.555 . S
C335 C105 1.555 . S
C340 C49 1.555 . S
C345 C119 1.555 . S
C350 C147 1.555 . S
C355 C133 1.555 . S
C360 C161 1.555 . S
C365 C203 1.553 . S
C370 C175 1.553 . S
C375 C189 1.552 . S
C380 C217 1.552 . S
C385 C73 1.521 . S
C390 C3 1.519 . S
C395 C17 1.519 . S
C400 C87 1.520 . S
C405 C31 1.520 . S
C410 C101 1.521 . S
C415 C59 1.520 . S
C420 C45 1.521 . S
C425 C65 1.316 . S
C430 C149 1.317 . S
C435 C37 1.314 . S
C440 C121 1.316 . S
C445 C163 1.315 . S
C450 C93 1.317 . S
C455 C135 1.317 . S
C460 C9 1.315 . S
C465 C115 1.521 . S
C470 C171 1.519 . S
C475 C143 1.521 . S
C480 C213 1.519 . S
C485 C185 1.519 . S
C490 C129 1.521 . S
C495 C157 1.521 . S
C500 C199 1.519 . S
C505 C205 1.315 . S
C510 C23 1.315 . S
C515 C191 1.317 . S
C520 C79 1.315 . S
C525 C219 1.317 . S
C530 C51 1.315 . S
C535 C177 1.317 . S
C540 C107 1.316 . S
