# Generated by pormake.
# Topology vbw, (6)-cn, num edge types: 1
# Building blocks:
#     Node 0, Type 0, BuildingBlock: OJICUG_clean_sbu_0, # of connection points: 6
#     Node 1, Type 0, BuildingBlock: OJICUG_clean_sbu_0, # of connection points: 6
#     Node 2, Type 0, BuildingBlock: OJICUG_clean_sbu_0, # of connection points: 6
#     Node 3, Type 0, BuildingBlock: OJICUG_clean_sbu_0, # of connection points: 6
#     Node 4, Type 0, BuildingBlock: OJICUG_clean_sbu_0, # of connection points: 6
#     Node 5, Type 0, BuildingBlock: OJICUG_clean_sbu_0, # of connection points: 6
#     Node 6, Type 0, BuildingBlock: OJICUG_clean_sbu_0, # of connection points: 6
#     Node 7, Type 0, BuildingBlock: OJICUG_clean_sbu_0, # of connection points: 6
#     Node 8, Type 0, BuildingBlock: OJICUG_clean_sbu_0, # of connection points: 6
#     Node 9, Type 0, BuildingBlock: OJICUG_clean_sbu_0, # of connection points: 6
#     Node 10, Type 0, BuildingBlock: OJICUG_clean_sbu_0, # of connection points: 6
#     Node 11, Type 0, BuildingBlock: OJICUG_clean_sbu_0, # of connection points: 6
#     Node 12, Type 0, BuildingBlock: OJICUG_clean_sbu_0, # of connection points: 6
#     Node 13, Type 0, BuildingBlock: OJICUG_clean_sbu_0, # of connection points: 6
#     Node 14, Type 0, BuildingBlock: OJICUG_clean_sbu_0, # of connection points: 6
#     Node 15, Type 0, BuildingBlock: OJICUG_clean_sbu_0, # of connection points: 6
#     Edge 16, Type (0, 0), BuildingBlock: OJICUG_clean_linker_0, # of connection points: 2
#     Edge 17, Type (0, 0), BuildingBlock: OJICUG_clean_linker_0, # of connection points: 2
#     Edge 18, Type (0, 0), BuildingBlock: OJICUG_clean_linker_0, # of connection points: 2
#     Edge 19, Type (0, 0), BuildingBlock: OJICUG_clean_linker_0, # of connection points: 2
#     Edge 20, Type (0, 0), BuildingBlock: OJICUG_clean_linker_0, # of connection points: 2
#     Edge 21, Type (0, 0), BuildingBlock: OJICUG_clean_linker_0, # of connection points: 2
#     Edge 22, Type (0, 0), BuildingBlock: OJICUG_clean_linker_0, # of connection points: 2
#     Edge 23, Type (0, 0), BuildingBlock: OJICUG_clean_linker_0, # of connection points: 2
#     Edge 24, Type (0, 0), BuildingBlock: OJICUG_clean_linker_0, # of connection points: 2
#     Edge 25, Type (0, 0), BuildingBlock: OJICUG_clean_linker_0, # of connection points: 2
#     Edge 26, Type (0, 0), BuildingBlock: OJICUG_clean_linker_0, # of connection points: 2
#     Edge 27, Type (0, 0), BuildingBlock: OJICUG_clean_linker_0, # of connection points: 2
#     Edge 28, Type (0, 0), BuildingBlock: OJICUG_clean_linker_0, # of connection points: 2
#     Edge 29, Type (0, 0), BuildingBlock: OJICUG_clean_linker_0, # of connection points: 2
#     Edge 30, Type (0, 0), BuildingBlock: OJICUG_clean_linker_0, # of connection points: 2
#     Edge 31, Type (0, 0), BuildingBlock: OJICUG_clean_linker_0, # of connection points: 2
#     Edge 32, Type (0, 0), BuildingBlock: OJICUG_clean_linker_0, # of connection points: 2
#     Edge 33, Type (0, 0), BuildingBlock: OJICUG_clean_linker_0, # of connection points: 2
#     Edge 34, Type (0, 0), BuildingBlock: OJICUG_clean_linker_0, # of connection points: 2
#     Edge 35, Type (0, 0), BuildingBlock: OJICUG_clean_linker_0, # of connection points: 2
#     Edge 36, Type (0, 0), BuildingBlock: OJICUG_clean_linker_0, # of connection points: 2
#     Edge 37, Type (0, 0), BuildingBlock: OJICUG_clean_linker_0, # of connection points: 2
#     Edge 38, Type (0, 0), BuildingBlock: OJICUG_clean_linker_0, # of connection points: 2
#     Edge 39, Type (0, 0), BuildingBlock: OJICUG_clean_linker_0, # of connection points: 2
#     Edge 40, Type (0, 0), BuildingBlock: OJICUG_clean_linker_0, # of connection points: 2
#     Edge 41, Type (0, 0), BuildingBlock: OJICUG_clean_linker_0, # of connection points: 2
#     Edge 42, Type (0, 0), BuildingBlock: OJICUG_clean_linker_0, # of connection points: 2
#     Edge 43, Type (0, 0), BuildingBlock: OJICUG_clean_linker_0, # of connection points: 2
#     Edge 44, Type (0, 0), BuildingBlock: OJICUG_clean_linker_0, # of connection points: 2
#     Edge 45, Type (0, 0), BuildingBlock: OJICUG_clean_linker_0, # of connection points: 2
#     Edge 46, Type (0, 0), BuildingBlock: OJICUG_clean_linker_0, # of connection points: 2
#     Edge 47, Type (0, 0), BuildingBlock: OJICUG_clean_linker_0, # of connection points: 2
#     Edge 48, Type (0, 0), BuildingBlock: OJICUG_clean_linker_0, # of connection points: 2
#     Edge 49, Type (0, 0), BuildingBlock: OJICUG_clean_linker_0, # of connection points: 2
#     Edge 50, Type (0, 0), BuildingBlock: OJICUG_clean_linker_0, # of connection points: 2
#     Edge 51, Type (0, 0), BuildingBlock: OJICUG_clean_linker_0, # of connection points: 2
#     Edge 52, Type (0, 0), BuildingBlock: OJICUG_clean_linker_0, # of connection points: 2
#     Edge 53, Type (0, 0), BuildingBlock: OJICUG_clean_linker_0, # of connection points: 2
#     Edge 54, Type (0, 0), BuildingBlock: OJICUG_clean_linker_0, # of connection points: 2
#     Edge 55, Type (0, 0), BuildingBlock: OJICUG_clean_linker_0, # of connection points: 2
#     Edge 56, Type (0, 0), BuildingBlock: OJICUG_clean_linker_0, # of connection points: 2
#     Edge 57, Type (0, 0), BuildingBlock: OJICUG_clean_linker_0, # of connection points: 2
#     Edge 58, Type (0, 0), BuildingBlock: OJICUG_clean_linker_0, # of connection points: 2
#     Edge 59, Type (0, 0), BuildingBlock: OJICUG_clean_linker_0, # of connection points: 2
#     Edge 60, Type (0, 0), BuildingBlock: OJICUG_clean_linker_0, # of connection points: 2
#     Edge 61, Type (0, 0), BuildingBlock: OJICUG_clean_linker_0, # of connection points: 2
#     Edge 62, Type (0, 0), BuildingBlock: OJICUG_clean_linker_0, # of connection points: 2
#     Edge 63, Type (0, 0), BuildingBlock: OJICUG_clean_linker_0, # of connection points: 2
# Relax obj value: 0.200
# Max RMSD: 0.231
# Mean RMSD: 0.231
data_MOF--net-vbw--node1-OJICUG_clean_sbu_0--edge1-OJICUG_clean_linker_0
_symmetry_space_group_name_H-M    P1
_symmetry_Int_Tables_number       1
_symmetry_cell_setting            triclinic
loop_
_symmetry_equiv_pos_as_xyz
'x, y, z'
_cell_length_a     43.92442
_cell_length_b     36.274493
_cell_length_c     21.143176
_cell_angle_alpha  90.001681
_cell_angle_beta   89.979091
_cell_angle_gamma 89.940059
loop_
_atom_site_label
_atom_site_type_symbol
_atom_site_fract_x
_atom_site_fract_y
_atom_site_fract_z
_atom_type_partial_charge
Sc0 Sc 0.15846 0.12161 0.0583 0.0
Sc1 Sc 0.11286 0.19405 0.10298 0.0
Sc2 Sc 0.11124 0.11212 0.18776 0.0
O3 O 0.12713 0.14242 0.11649 0.0
C4 C 0.11531 0.05525 0.06915 0.0
C5 C 0.11923 0.17489 0.96638 0.0
C6 C 0.05184 0.15211 0.14527 0.0
C7 C 0.18434 0.1976 0.07216 0.0
C8 C 0.18001 0.09035 0.19175 0.0
C9 C 0.11875 0.19366 0.24842 0.0
O10 O 0.12836 0.07815 0.03263 0.0
O11 O 0.09974 0.18121 1.00905 0.0
O12 O 0.06524 0.122 0.15874 0.0
O13 O 0.18857 0.16398 0.08493 0.0
O14 O 0.15668 0.10193 0.22126 0.0
O15 O 0.12556 0.20892 0.19638 0.0
O16 O 0.18056 0.08821 0.13145 0.0
O17 O 0.15774 0.21188 0.0695 0.0
O18 O 0.10962 0.16012 0.25214 0.0
O19 O 0.14287 0.15529 0.97754 0.0
O20 O 0.11135 0.06162 0.12845 0.0
O21 O 0.06636 0.18167 0.13244 0.0
Sc22 Sc 0.31334 0.84377 0.55802 0.0
Sc23 Sc 0.35894 0.77132 0.60258 0.0
Sc24 Sc 0.36054 0.85323 0.68744 0.0
O25 O 0.34466 0.82294 0.61617 0.0
C26 C 0.35649 0.91012 0.56888 0.0
C27 C 0.35257 0.79053 0.46601 0.0
C28 C 0.41995 0.81326 0.64488 0.0
C29 C 0.28745 0.76777 0.57183 0.0
C30 C 0.29179 0.87501 0.69152 0.0
C31 C 0.35304 0.77167 0.74804 0.0
O32 O 0.34344 0.88723 0.53235 0.0
O33 O 0.37207 0.78419 0.50865 0.0
O34 O 0.40655 0.84336 0.65837 0.0
O35 O 0.28322 0.8014 0.58465 0.0
O36 O 0.31511 0.86342 0.72099 0.0
O37 O 0.34624 0.75642 0.69599 0.0
O38 O 0.29123 0.87716 0.63123 0.0
O39 O 0.31406 0.7535 0.56913 0.0
O40 O 0.36216 0.80522 0.75177 0.0
O41 O 0.32893 0.81012 0.47722 0.0
O42 O 0.36045 0.90374 0.62817 0.0
O43 O 0.40544 0.7837 0.63202 0.0
Sc44 Sc 0.15871 0.84374 0.97054 0.0
Sc45 Sc 0.1132 0.77133 0.92599 0.0
Sc46 Sc 0.11145 0.85326 0.8412 0.0
O47 O 0.12739 0.82295 0.91243 0.0
C48 C 0.11546 0.91011 0.95984 0.0
C49 C 0.1196 0.79047 0.06257 0.0
C50 C 0.05211 0.8133 0.88379 0.0
C51 C 0.18469 0.76775 0.95658 0.0
C52 C 0.18018 0.87503 0.83707 0.0
C53 C 0.11907 0.77171 0.78053 0.0
O54 O 0.12856 0.8872 0.99632 0.0
O55 O 0.10009 0.78418 0.01996 0.0
O56 O 0.06546 0.8434 0.87029 0.0
O57 O 0.18887 0.80137 0.94375 0.0
O58 O 0.15687 0.86344 0.80761 0.0
O59 O 0.12589 0.75645 0.83256 0.0
O60 O 0.18074 0.87716 0.89736 0.0
O61 O 0.15811 0.75349 0.95935 0.0
O62 O 0.1099 0.80527 0.77682 0.0
O63 O 0.14321 0.81005 0.05133 0.0
O64 O 0.11149 0.90375 0.90055 0.0
O65 O 0.06667 0.78373 0.89664 0.0
Sc66 Sc 0.36035 0.11218 0.34118 0.0
Sc67 Sc 0.35857 0.19407 0.42607 0.0
Sc68 Sc 0.31309 0.12161 0.47061 0.0
O69 O 0.34439 0.14245 0.41246 0.0
C70 C 0.29163 0.09038 0.33711 0.0
C71 C 0.35272 0.19375 0.28062 0.0
C72 C 0.28708 0.1976 0.45681 0.0
C73 C 0.41968 0.15215 0.38377 0.0
C74 C 0.35637 0.05528 0.45973 0.0
C75 C 0.3522 0.17484 0.56263 0.0
O76 O 0.31493 0.10199 0.30763 0.0
O77 O 0.34588 0.20899 0.33268 0.0
O78 O 0.28291 0.16398 0.44396 0.0
O79 O 0.40633 0.12205 0.37024 0.0
O80 O 0.34326 0.07816 0.49626 0.0
O81 O 0.37169 0.18117 0.51998 0.0
O82 O 0.36033 0.06166 0.40043 0.0
O83 O 0.4051 0.18171 0.39664 0.0
O84 O 0.32858 0.15527 0.55142 0.0
O85 O 0.3619 0.1602 0.27687 0.0
O86 O 0.29107 0.08822 0.3974 0.0
O87 O 0.31365 0.21187 0.45954 0.0
Sc88 Sc 0.86055 0.85329 0.84119 0.0
Sc89 Sc 0.85893 0.77136 0.92596 0.0
Sc90 Sc 0.81332 0.84379 0.97064 0.0
O91 O 0.84466 0.82299 0.91245 0.0
C92 C 0.85646 0.91016 0.95981 0.0
C93 C 0.91995 0.81331 0.88369 0.0
C94 C 0.85255 0.79052 0.06256 0.0
C95 C 0.85305 0.77176 0.78052 0.0
C96 C 0.79178 0.87506 0.83719 0.0
C97 C 0.78745 0.7678 0.95677 0.0
O98 O 0.86044 0.90379 0.90051 0.0
O99 O 0.90543 0.78375 0.89651 0.0
O100 O 0.82891 0.81011 0.05139 0.0
O101 O 0.86218 0.8053 0.7768 0.0
O102 O 0.79122 0.87719 0.89748 0.0
O103 O 0.81405 0.75352 0.95943 0.0
O104 O 0.81511 0.86348 0.80769 0.0
O105 O 0.84624 0.7565 0.83256 0.0
O106 O 0.78322 0.80142 0.94398 0.0
O107 O 0.90655 0.84342 0.87021 0.0
O108 O 0.84341 0.88725 0.99632 0.0
O109 O 0.87205 0.7842 0.01989 0.0
Sc110 Sc 0.65845 0.12164 0.47087 0.0
Sc111 Sc 0.61285 0.19409 0.4263 0.0
Sc112 Sc 0.61124 0.11219 0.34145 0.0
O113 O 0.62713 0.14247 0.41272 0.0
C114 C 0.68 0.0904 0.33736 0.0
C115 C 0.68433 0.19764 0.45707 0.0
C116 C 0.61874 0.19374 0.28085 0.0
C117 C 0.61922 0.17488 0.56288 0.0
C118 C 0.6153 0.05529 0.46 0.0
C119 C 0.55183 0.15215 0.38401 0.0
O120 O 0.68056 0.08826 0.39766 0.0
O121 O 0.65773 0.21192 0.45976 0.0
O122 O 0.60962 0.1602 0.27712 0.0
O123 O 0.64286 0.15529 0.55167 0.0
O124 O 0.61134 0.06167 0.40071 0.0
O125 O 0.56635 0.18171 0.39687 0.0
O126 O 0.62835 0.07818 0.49653 0.0
O127 O 0.59972 0.18122 0.52023 0.0
O128 O 0.56524 0.12205 0.37052 0.0
O129 O 0.68857 0.16401 0.44424 0.0
O130 O 0.65668 0.102 0.30789 0.0
O131 O 0.62555 0.20899 0.3329 0.0
Sc132 Sc 0.81309 0.12167 0.05836 0.0
Sc133 Sc 0.85859 0.19409 0.10292 0.0
Sc134 Sc 0.86034 0.11216 0.18773 0.0
O135 O 0.8444 0.14246 0.11648 0.0
C136 C 0.79162 0.09039 0.19184 0.0
C137 C 0.7871 0.19766 0.07229 0.0
C138 C 0.85272 0.19371 0.24839 0.0
C139 C 0.8522 0.17494 0.96635 0.0
C140 C 0.85634 0.0553 0.0691 0.0
C141 C 0.91968 0.15212 0.14515 0.0
O142 O 0.79106 0.08825 0.13155 0.0
O143 O 0.81368 0.21192 0.06955 0.0
O144 O 0.86189 0.16016 0.2521 0.0
O145 O 0.8286 0.15535 0.97757 0.0
O146 O 0.86031 0.06167 0.1284 0.0
O147 O 0.90512 0.18169 0.1323 0.0
O148 O 0.84325 0.07821 0.03261 0.0
O149 O 0.87171 0.18123 1.00896 0.0
O150 O 0.90633 0.12203 0.15865 0.0
O151 O 0.78292 0.16403 0.08512 0.0
O152 O 0.81492 0.10198 0.2213 0.0
O153 O 0.84589 0.20897 0.19635 0.0
Sc154 Sc 0.65871 0.84379 0.55831 0.0
Sc155 Sc 0.61322 0.77134 0.60285 0.0
Sc156 Sc 0.61144 0.85324 0.68773 0.0
O157 O 0.6274 0.82296 0.61645 0.0
C158 C 0.68016 0.87503 0.69181 0.0
C159 C 0.68471 0.76781 0.57211 0.0
C160 C 0.61907 0.77167 0.7483 0.0
C161 C 0.6196 0.79055 0.46629 0.0
C162 C 0.61543 0.91013 0.56916 0.0
C163 C 0.55211 0.81327 0.64513 0.0
O164 O 0.68073 0.87719 0.63151 0.0
O165 O 0.65813 0.75353 0.56939 0.0
O166 O 0.60989 0.80522 0.75205 0.0
O167 O 0.64321 0.81013 0.4775 0.0
O168 O 0.61146 0.90375 0.62846 0.0
O169 O 0.56668 0.78371 0.63228 0.0
O170 O 0.62854 0.88725 0.53264 0.0
O171 O 0.6001 0.78424 0.50893 0.0
O172 O 0.56546 0.84337 0.65866 0.0
O173 O 0.68888 0.80142 0.58498 0.0
O174 O 0.65685 0.86343 0.72128 0.0
O175 O 0.62591 0.75643 0.69624 0.0
Sc176 Sc 0.65884 0.6216 0.05824 0.0
Sc177 Sc 0.61326 0.69409 0.10284 0.0
Sc178 Sc 0.61162 0.6122 0.18773 0.0
O179 O 0.62752 0.64246 0.11643 0.0
C180 C 0.6156 0.55531 0.06916 0.0
C181 C 0.61964 0.67486 0.96626 0.0
C182 C 0.55222 0.65219 0.14516 0.0
C183 C 0.68475 0.69759 0.07202 0.0
C184 C 0.68038 0.59038 0.19172 0.0
C185 C 0.61915 0.69376 0.24829 0.0
O186 O 0.62871 0.57816 0.03263 0.0
O187 O 0.60014 0.6812 1.00892 0.0
O188 O 0.56562 0.6221 0.15873 0.0
O189 O 0.68897 0.66396 0.0848 0.0
O190 O 0.65706 0.60198 0.22121 0.0
O191 O 0.62594 0.70901 0.19623 0.0
O192 O 0.68093 0.58822 0.13142 0.0
O193 O 0.65815 0.71188 0.06936 0.0
O194 O 0.61004 0.66021 0.25205 0.0
O195 O 0.64327 0.65526 0.97744 0.0
O196 O 0.61166 0.5617 0.12846 0.0
O197 O 0.56674 0.68174 0.13227 0.0
Sc198 Sc 0.81295 0.34385 0.5583 0.0
Sc199 Sc 0.85852 0.27138 0.60293 0.0
Sc200 Sc 0.86015 0.35331 0.68773 0.0
O201 O 0.84426 0.32302 0.61647 0.0
C202 C 0.85617 0.41016 0.56911 0.0
C203 C 0.85215 0.29055 0.46633 0.0
C204 C 0.91955 0.3133 0.6452 0.0
C205 C 0.78703 0.26787 0.57218 0.0
C206 C 0.7914 0.37512 0.69177 0.0
C207 C 0.85262 0.27177 0.74839 0.0
O208 O 0.84307 0.38729 0.53261 0.0
O209 O 0.87165 0.28422 0.50898 0.0
O210 O 0.90616 0.3434 0.65872 0.0
O211 O 0.78281 0.3015 0.58494 0.0
O212 O 0.81472 0.36354 0.72125 0.0
O213 O 0.84583 0.25651 0.69635 0.0
O214 O 0.79084 0.37726 0.63148 0.0
O215 O 0.81363 0.25358 0.56952 0.0
O216 O 0.86174 0.30531 0.75211 0.0
O217 O 0.82852 0.31016 0.47753 0.0
O218 O 0.86012 0.40379 0.62841 0.0
O219 O 0.90504 0.28375 0.63232 0.0
Sc220 Sc 0.65832 0.34375 0.97081 0.0
Sc221 Sc 0.61281 0.27133 0.9263 0.0
Sc222 Sc 0.61107 0.35324 0.84147 0.0
O223 O 0.627 0.32295 0.91271 0.0
C224 C 0.61512 0.41014 0.96002 0.0
C225 C 0.61918 0.29053 0.06286 0.0
C226 C 0.55173 0.31329 0.88405 0.0
C227 C 0.6843 0.26776 0.95696 0.0
C228 C 0.67978 0.375 0.8373 0.0
C229 C 0.61867 0.27168 0.78086 0.0
O230 O 0.62817 0.38722 0.99654 0.0
O231 O 0.59968 0.28422 0.02024 0.0
O232 O 0.56508 0.3434 0.8706 0.0
O233 O 0.68848 0.30137 0.94408 0.0
O234 O 0.65648 0.3634 0.80785 0.0
O235 O 0.62553 0.25644 0.83289 0.0
O236 O 0.68035 0.37715 0.89759 0.0
O237 O 0.65772 0.2535 0.95973 0.0
O238 O 0.60948 0.30523 0.77714 0.0
O239 O 0.6428 0.3101 0.05162 0.0
O240 O 0.61114 0.40376 0.90073 0.0
O241 O 0.56629 0.28373 0.89688 0.0
Sc242 Sc 0.86073 0.61216 0.34118 0.0
Sc243 Sc 0.859 0.6941 0.42596 0.0
Sc244 Sc 0.81346 0.62171 0.47056 0.0
O245 O 0.84479 0.64248 0.41242 0.0
C246 C 0.79199 0.59044 0.33709 0.0
C247 C 0.85314 0.69371 0.28052 0.0
C248 C 0.78751 0.69772 0.45664 0.0
C249 C 0.92008 0.6521 0.38372 0.0
C250 C 0.85664 0.5553 0.4598 0.0
C251 C 0.8526 0.67495 0.56254 0.0
O252 O 0.81531 0.60202 0.30761 0.0
O253 O 0.8463 0.70897 0.33256 0.0
O254 O 0.78332 0.6641 0.44379 0.0
O255 O 0.90672 0.622 0.37026 0.0
O256 O 0.84358 0.57823 0.49631 0.0
O257 O 0.87211 0.68124 0.5199 0.0
O258 O 0.86063 0.56166 0.4005 0.0
O259 O 0.90552 0.68167 0.39653 0.0
O260 O 0.82897 0.65539 0.55133 0.0
O261 O 0.86232 0.66016 0.27681 0.0
O262 O 0.79143 0.5883 0.39739 0.0
O263 O 0.81409 0.71196 0.4594 0.0
Sc264 Sc 0.36017 0.35321 0.84117 0.0
Sc265 Sc 0.35853 0.27132 0.92608 0.0
Sc266 Sc 0.31296 0.34381 0.97068 0.0
O267 O 0.34427 0.32295 0.91249 0.0
C268 C 0.35619 0.41011 0.95973 0.0
C269 C 0.41957 0.31322 0.88373 0.0
C270 C 0.35216 0.29056 0.06266 0.0
C271 C 0.35264 0.27164 0.78063 0.0
C272 C 0.29141 0.37503 0.8372 0.0
C273 C 0.28704 0.26783 0.95693 0.0
O274 O 0.36014 0.40372 0.90043 0.0
O275 O 0.40505 0.28367 0.89664 0.0
O276 O 0.32853 0.31016 0.05148 0.0
O277 O 0.36175 0.30519 0.77686 0.0
O278 O 0.29086 0.3772 0.8975 0.0
O279 O 0.31364 0.25353 0.95957 0.0
O280 O 0.31473 0.36343 0.8077 0.0
O281 O 0.34585 0.2564 0.8327 0.0
O282 O 0.28282 0.30146 0.94414 0.0
O283 O 0.40617 0.34331 0.87016 0.0
O284 O 0.34309 0.38726 0.99627 0.0
O285 O 0.37165 0.28422 0.01999 0.0
Sc286 Sc 0.15884 0.62157 0.47062 0.0
Sc287 Sc 0.11327 0.69403 0.42597 0.0
Sc288 Sc 0.11163 0.6121 0.34119 0.0
O289 O 0.12753 0.6424 0.41244 0.0
C290 C 0.18039 0.59029 0.33715 0.0
C291 C 0.18475 0.69755 0.45672 0.0
C292 C 0.11917 0.69363 0.28051 0.0
C293 C 0.11964 0.67488 0.56257 0.0
C294 C 0.11563 0.55526 0.45983 0.0
C295 C 0.05223 0.65211 0.38372 0.0
O296 O 0.18095 0.58816 0.39745 0.0
O297 O 0.15816 0.71184 0.45938 0.0
O298 O 0.11005 0.66009 0.2768 0.0
O299 O 0.14327 0.65527 0.55138 0.0
O300 O 0.11167 0.56162 0.40054 0.0
O301 O 0.06675 0.68167 0.39658 0.0
O302 O 0.12873 0.57813 0.49632 0.0
O303 O 0.10014 0.68121 0.51992 0.0
O304 O 0.06563 0.62201 0.37021 0.0
O305 O 0.18898 0.66392 0.44395 0.0
O306 O 0.15707 0.60187 0.30767 0.0
O307 O 0.12596 0.7089 0.33255 0.0
Sc308 Sc 0.31346 0.62167 0.05809 0.0
Sc309 Sc 0.35898 0.69408 0.10258 0.0
Sc310 Sc 0.36072 0.61217 0.18742 0.0
O311 O 0.34478 0.64246 0.11618 0.0
C312 C 0.292 0.59042 0.19161 0.0
C313 C 0.28749 0.69767 0.07193 0.0
C314 C 0.35313 0.69373 0.24802 0.0
C315 C 0.3526 0.67489 0.96603 0.0
C316 C 0.35666 0.55527 0.06886 0.0
C317 C 0.42006 0.65212 0.14482 0.0
O318 O 0.29143 0.58828 0.13131 0.0
O319 O 0.31408 0.71192 0.06916 0.0
O320 O 0.36231 0.66019 0.25174 0.0
O321 O 0.32898 0.65533 0.97727 0.0
O322 O 0.36064 0.56166 0.12815 0.0
O323 O 0.4055 0.68168 0.132 0.0
O324 O 0.3436 0.57819 0.03234 0.0
O325 O 0.37211 0.68119 1.00864 0.0
O326 O 0.40671 0.62201 0.15827 0.0
O327 O 0.28331 0.66406 0.08484 0.0
O328 O 0.31531 0.60202 0.22105 0.0
O329 O 0.34627 0.70898 0.19599 0.0
Sc330 Sc 0.15832 0.34371 0.55838 0.0
Sc331 Sc 0.11279 0.27132 0.60298 0.0
Sc332 Sc 0.11106 0.35325 0.68777 0.0
O333 O 0.127 0.32294 0.61652 0.0
C334 C 0.17979 0.37497 0.69185 0.0
C335 C 0.18428 0.26771 0.57227 0.0
C336 C 0.11864 0.2717 0.74842 0.0
C337 C 0.11919 0.29047 0.46641 0.0
C338 C 0.11514 0.41012 0.56916 0.0
C339 C 0.05171 0.31331 0.64523 0.0
O340 O 0.18036 0.37711 0.63155 0.0
O341 O 0.1577 0.25346 0.56954 0.0
O342 O 0.10946 0.30525 0.75214 0.0
O343 O 0.14281 0.31003 0.47761 0.0
O344 O 0.11116 0.40376 0.62845 0.0
O345 O 0.06627 0.28374 0.63242 0.0
O346 O 0.12819 0.38719 0.53264 0.0
O347 O 0.09968 0.28418 0.50905 0.0
O348 O 0.06507 0.34342 0.65868 0.0
O349 O 0.18846 0.30132 0.58513 0.0
O350 O 0.15648 0.3634 0.72133 0.0
O351 O 0.12549 0.25645 0.69638 0.0
C352 C 0.2369 0.08175 0.19831 0.0
C353 C 0.20839 0.08302 0.22861 0.0
H354 H 0.28543 0.08281 0.20849 0.0
C355 C 0.20771 0.08187 0.29523 0.0
H356 H 0.23844 0.0827 0.1472 0.0
C357 C 0.23475 0.0817 0.33053 0.0
C358 C 0.26326 0.08304 0.30023 0.0
H359 H 0.18623 0.08268 0.32035 0.0
H360 H 0.23322 0.0826 0.38163 0.0
C361 C 0.26395 0.08194 0.23361 0.0
C362 C 0.20785 0.88348 0.73353 0.0
C363 C 0.20854 0.88237 0.80015 0.0
H364 H 0.23335 0.88273 0.64708 0.0
C365 C 0.23705 0.88369 0.8304 0.0
H366 H 0.18637 0.88263 0.70845 0.0
C367 C 0.26409 0.88351 0.79505 0.0
C368 C 0.2634 0.88236 0.72843 0.0
H369 H 0.23859 0.88277 0.8815 0.0
H370 H 0.28558 0.88267 0.82013 0.0
C371 C 0.23489 0.88366 0.69818 0.0
C372 C 0.70784 0.88347 0.79531 0.0
C373 C 0.70853 0.88237 0.72869 0.0
H374 H 0.73334 0.88271 0.88172 0.0
C375 C 0.73704 0.88371 0.6984 0.0
H376 H 0.68636 0.8826 0.82043 0.0
C377 C 0.76408 0.88354 0.73371 0.0
C378 C 0.76339 0.88239 0.80032 0.0
H379 H 0.73858 0.88281 0.64729 0.0
H380 H 0.78556 0.88272 0.70859 0.0
C381 C 0.73488 0.88366 0.83062 0.0
C382 C 0.73689 0.08175 0.33071 0.0
C383 C 0.70838 0.08305 0.30045 0.0
H384 H 0.78542 0.08277 0.32046 0.0
C385 C 0.7077 0.08192 0.23384 0.0
H386 H 0.73843 0.08267 0.38182 0.0
C387 C 0.73474 0.08174 0.19849 0.0
C388 C 0.76325 0.08305 0.22875 0.0
H389 H 0.68621 0.08276 0.20875 0.0
H390 H 0.7332 0.08266 0.14739 0.0
C391 C 0.76393 0.08192 0.29537 0.0
C392 C 0.76432 0.58198 0.23359 0.0
C393 C 0.76363 0.5831 0.30021 0.0
H394 H 0.73881 0.58271 0.14718 0.0
C395 C 0.73512 0.58176 0.33051 0.0
H396 H 0.7858 0.58285 0.20847 0.0
C397 C 0.70808 0.58191 0.2952 0.0
C398 C 0.70876 0.58305 0.22858 0.0
H399 H 0.73358 0.58267 0.38161 0.0
H400 H 0.68659 0.58274 0.32032 0.0
C401 C 0.73728 0.58178 0.19828 0.0
C402 C 0.70745 0.38347 0.73376 0.0
C403 C 0.70814 0.38237 0.80037 0.0
H404 H 0.73296 0.38274 0.64731 0.0
C405 C 0.73665 0.38375 0.83063 0.0
H406 H 0.68597 0.38258 0.70867 0.0
C407 C 0.76369 0.38361 0.79528 0.0
C408 C 0.76301 0.38245 0.72867 0.0
H409 H 0.73819 0.38285 0.88173 0.0
H410 H 0.78518 0.38281 0.82037 0.0
C411 C 0.7345 0.38369 0.69841 0.0
C412 C 0.26371 0.3835 0.73373 0.0
C413 C 0.26303 0.38236 0.80034 0.0
H414 H 0.23821 0.38275 0.64732 0.0
C415 C 0.23451 0.38363 0.83065 0.0
H416 H 0.28519 0.38268 0.7086 0.0
C417 C 0.20747 0.38344 0.79534 0.0
C418 C 0.20816 0.38232 0.72873 0.0
H419 H 0.23298 0.3827 0.88175 0.0
H420 H 0.18599 0.38257 0.82047 0.0
C421 C 0.23667 0.38366 0.69842 0.0
C422 C 0.23514 0.58166 0.19829 0.0
C423 C 0.26364 0.58305 0.22854 0.0
H424 H 0.18661 0.58258 0.20855 0.0
C425 C 0.26434 0.58196 0.29516 0.0
H426 H 0.2336 0.58255 0.14719 0.0
C427 C 0.2373 0.58174 0.33051 0.0
C428 C 0.20878 0.58297 0.30025 0.0
H429 H 0.28582 0.58286 0.32024 0.0
H430 H 0.23883 0.58269 0.38161 0.0
C431 C 0.2081 0.5818 0.23364 0.0
C432 C 0.09845 0.22908 0.90651 0.0
C433 C 0.11786 0.19803 0.90845 0.0
H434 H 0.08411 0.27726 0.85568 0.0
C435 C 0.13806 0.19224 0.858 0.0
H436 H 0.08284 0.23485 0.94492 0.0
C437 C 0.13867 0.21668 0.80679 0.0
C438 C 0.11949 0.24787 0.80531 0.0
H439 H 0.15357 0.16901 0.85825 0.0
H440 H 0.15434 0.21123 0.76832 0.0
C441 C 0.09946 0.25386 0.85585 0.0
C442 C 0.33375 0.77321 0.35764 0.0
C443 C 0.35395 0.7674 0.40806 0.0
H444 H 0.31747 0.75424 0.26798 0.0
C445 C 0.37335 0.73635 0.40607 0.0
H446 H 0.31824 0.79645 0.35793 0.0
C447 C 0.37234 0.71158 0.35541 0.0
C448 C 0.3523 0.71758 0.3049 0.0
H449 H 0.38897 0.73057 0.44445 0.0
H450 H 0.38767 0.68817 0.3552 0.0
C451 C 0.33313 0.74877 0.30642 0.0
C452 C 0.13914 0.74863 0.22209 0.0
C453 C 0.12 0.71746 0.22361 0.0
H454 H 0.15397 0.7963 0.1706 0.0
C455 C 0.09997 0.71149 0.1731 0.0
H456 H 0.1548 0.75408 0.26054 0.0
C457 C 0.09892 0.73627 0.12246 0.0
C458 C 0.11828 0.76731 0.12048 0.0
H459 H 0.08466 0.68809 0.1733 0.0
H460 H 0.08331 0.73051 0.08408 0.0
C461 C 0.13849 0.77308 0.17088 0.0
C462 C 0.37182 0.2538 0.67318 0.0
C463 C 0.35183 0.24779 0.72375 0.0
H464 H 0.38846 0.23483 0.58409 0.0
C465 C 0.33271 0.2166 0.72227 0.0
H466 H 0.38712 0.27721 0.67334 0.0
C467 C 0.33335 0.19217 0.67104 0.0
C468 C 0.35353 0.19798 0.62057 0.0
H469 H 0.31707 0.21113 0.76077 0.0
H470 H 0.31789 0.16893 0.67079 0.0
C471 C 0.37287 0.22904 0.62251 0.0
C472 C 0.87334 0.73633 0.12244 0.0
C473 C 0.85393 0.76738 0.12049 0.0
H474 H 0.88768 0.68816 0.17327 0.0
C475 C 0.83371 0.77316 0.17093 0.0
H476 H 0.88896 0.73057 0.08403 0.0
C477 C 0.83311 0.74872 0.22214 0.0
C478 C 0.8523 0.71754 0.22363 0.0
H479 H 0.8182 0.79639 0.17067 0.0
H480 H 0.81744 0.75417 0.26061 0.0
C481 C 0.87233 0.71156 0.17309 0.0
C482 C 0.63805 0.19221 0.67124 0.0
C483 C 0.61784 0.19801 0.62083 0.0
H484 H 0.65434 0.21118 0.7609 0.0
C485 C 0.59844 0.22906 0.62282 0.0
H486 H 0.65355 0.16897 0.67094 0.0
C487 C 0.59946 0.25383 0.67348 0.0
C488 C 0.61949 0.24783 0.72398 0.0
H489 H 0.58282 0.23484 0.58444 0.0
H490 H 0.58412 0.27724 0.67369 0.0
C491 C 0.63867 0.21664 0.72246 0.0
C492 C 0.87181 0.25393 0.85581 0.0
C493 C 0.8518 0.24793 0.80529 0.0
H494 H 0.88847 0.23493 0.94485 0.0
C495 C 0.83268 0.21674 0.80679 0.0
H496 H 0.88711 0.27733 0.85562 0.0
C497 C 0.83333 0.1923 0.85801 0.0
C498 C 0.85352 0.19809 0.90842 0.0
H499 H 0.81703 0.21128 0.76833 0.0
H500 H 0.81787 0.16906 0.85828 0.0
C501 C 0.87287 0.22915 0.90646 0.0
C502 C 0.6391 0.74879 0.30666 0.0
C503 C 0.61997 0.7176 0.30518 0.0
H504 H 0.65393 0.79645 0.35815 0.0
C505 C 0.59996 0.71161 0.35573 0.0
H506 H 0.65475 0.75425 0.26817 0.0
C507 C 0.59892 0.73637 0.4064 0.0
C508 C 0.61827 0.76742 0.40834 0.0
H509 H 0.58465 0.68821 0.35556 0.0
H510 H 0.58332 0.7306 0.44481 0.0
C511 C 0.63846 0.77322 0.35789 0.0
C512 C 0.63847 0.6922 0.85787 0.0
C513 C 0.61827 0.698 0.90832 0.0
H514 H 0.65474 0.71117 0.76817 0.0
C515 C 0.59887 0.72906 0.90638 0.0
H516 H 0.65397 0.66895 0.85813 0.0
C517 C 0.59989 0.75383 0.85572 0.0
C518 C 0.61991 0.74783 0.80517 0.0
H519 H 0.58326 0.73483 0.94479 0.0
H520 H 0.58455 0.77724 0.85555 0.0
C521 C 0.63908 0.71663 0.80665 0.0
C522 C 0.83332 0.27319 0.35798 0.0
C523 C 0.85352 0.26739 0.40841 0.0
H524 H 0.81705 0.25421 0.26831 0.0
C525 C 0.87291 0.23633 0.40645 0.0
H526 H 0.81783 0.29644 0.35825 0.0
C527 C 0.87189 0.21155 0.3558 0.0
C528 C 0.85188 0.21755 0.30528 0.0
H529 H 0.88852 0.23055 0.44485 0.0
H530 H 0.88723 0.18814 0.35562 0.0
C531 C 0.83271 0.24875 0.30677 0.0
C532 C 0.63803 0.2732 0.17123 0.0
C533 C 0.61784 0.2674 0.12081 0.0
H534 H 0.65433 0.25423 0.26092 0.0
C535 C 0.59849 0.23635 0.12279 0.0
H536 H 0.6535 0.29644 0.17094 0.0
C537 C 0.59954 0.21158 0.17345 0.0
C538 C 0.61955 0.21759 0.22397 0.0
H539 H 0.58289 0.23057 0.0844 0.0
H540 H 0.58423 0.18818 0.17365 0.0
C541 C 0.63867 0.24877 0.22246 0.0
C542 C 0.8733 0.72913 0.62242 0.0
C543 C 0.85393 0.6981 0.62047 0.0
H544 H 0.88757 0.77729 0.67327 0.0
C545 C 0.83372 0.69232 0.6709 0.0
H546 H 0.88891 0.73489 0.58402 0.0
C547 C 0.83308 0.71676 0.72212 0.0
C548 C 0.85223 0.74793 0.72362 0.0
H549 H 0.81824 0.6691 0.67063 0.0
H550 H 0.81742 0.71131 0.76059 0.0
C551 C 0.87226 0.7539 0.67308 0.0
C552 C 0.3719 0.21159 0.1732 0.0
C553 C 0.35188 0.2176 0.22375 0.0
H554 H 0.38852 0.23057 0.08413 0.0
C555 C 0.33272 0.2488 0.22228 0.0
H556 H 0.38723 0.18818 0.17337 0.0
C557 C 0.33333 0.27323 0.17106 0.0
C558 C 0.35353 0.26742 0.1206 0.0
H559 H 0.31706 0.25427 0.26076 0.0
H560 H 0.31784 0.29648 0.1708 0.0
C561 C 0.37292 0.23636 0.12254 0.0
C562 C 0.09989 0.75388 0.67311 0.0
C563 C 0.11991 0.74788 0.72363 0.0
H564 H 0.08327 0.73488 0.58406 0.0
C565 C 0.13908 0.71668 0.72213 0.0
H566 H 0.08456 0.77729 0.6733 0.0
C567 C 0.13847 0.69224 0.67092 0.0
C568 C 0.11827 0.69804 0.6205 0.0
H569 H 0.15474 0.71122 0.76059 0.0
H570 H 0.15397 0.66899 0.67065 0.0
C571 C 0.09888 0.7291 0.62246 0.0
C572 C 0.3733 0.72905 0.90609 0.0
C573 C 0.35394 0.69801 0.90808 0.0
H574 H 0.38757 0.77721 0.85522 0.0
C575 C 0.33374 0.69223 0.85767 0.0
H576 H 0.38891 0.73482 0.94446 0.0
C577 C 0.33309 0.71666 0.80644 0.0
C578 C 0.35223 0.74783 0.80492 0.0
H579 H 0.31826 0.669 0.85796 0.0
H580 H 0.31743 0.7112 0.76799 0.0
C581 C 0.37226 0.75382 0.85542 0.0
C582 C 0.09849 0.23628 0.40652 0.0
C583 C 0.11786 0.26732 0.40847 0.0
H584 H 0.08423 0.18812 0.35567 0.0
C585 C 0.13806 0.2731 0.35803 0.0
H586 H 0.08288 0.23052 0.44492 0.0
C587 C 0.1387 0.24867 0.30681 0.0
C588 C 0.11956 0.2175 0.30532 0.0
H589 H 0.15354 0.29633 0.3583 0.0
H590 H 0.15436 0.25412 0.26834 0.0
C591 C 0.09954 0.21151 0.35585 0.0
C592 C 0.00169 0.18495 0.13092 0.0
C593 C 0.01802 0.15258 0.14505 0.0
H594 H 0.95794 0.21034 0.11981 0.0
C595 C 0.00166 0.12028 0.15903 0.0
H596 H 0.01351 0.21034 0.11987 0.0
C597 C 0.9699 0.12029 0.159 0.0
C598 C 0.9535 0.15259 0.14497 0.0
H599 H 0.01336 0.09478 0.17009 0.0
H600 H 0.95824 0.09479 0.17003 0.0
C601 C 0.96979 0.18496 0.13088 0.0
C602 C 0.47012 0.84509 0.65878 0.0
C603 C 0.45378 0.81279 0.64473 0.0
H604 H 0.51353 0.87059 0.66993 0.0
C605 C 0.47012 0.78042 0.63065 0.0
H606 H 0.45841 0.87059 0.66981 0.0
C607 C 0.50202 0.78042 0.63072 0.0
C608 C 0.51829 0.8128 0.64487 0.0
H609 H 0.45831 0.75504 0.61955 0.0
H610 H 0.51389 0.75504 0.61967 0.0
C611 C 0.50188 0.84509 0.65885 0.0
C612 C 0.97013 0.84514 0.86995 0.0
C613 C 0.95377 0.81284 0.88391 0.0
H614 H 0.01355 0.87064 0.85897 0.0
C615 C 0.9701 0.78047 0.89801 0.0
H616 H 0.95843 0.87065 0.85891 0.0
C617 C 0.002 0.78047 0.89804 0.0
C618 C 0.01829 0.81284 0.88398 0.0
H619 H 0.95828 0.75508 0.90904 0.0
H620 H 0.01386 0.75507 0.90909 0.0
C621 C 0.00189 0.84514 0.86998 0.0
C622 C 0.46977 0.18499 0.3982 0.0
C623 C 0.4535 0.15262 0.38403 0.0
H624 H 0.51348 0.21037 0.40937 0.0
C625 C 0.46991 0.12033 0.37002 0.0
H626 H 0.4579 0.21037 0.40926 0.0
C627 C 0.50167 0.12033 0.37009 0.0
C628 C 0.51801 0.15262 0.38416 0.0
H629 H 0.45826 0.09483 0.35893 0.0
H630 H 0.51338 0.09483 0.35904 0.0
C631 C 0.50167 0.18499 0.39827 0.0
C632 C 0.50207 0.685 0.13071 0.0
C633 C 0.5184 0.65264 0.14488 0.0
H634 H 0.4583 0.71036 0.11952 0.0
C635 C 0.50205 0.62033 0.15885 0.0
H636 H 0.51388 0.71039 0.11968 0.0
C637 C 0.47029 0.62031 0.15874 0.0
C638 C 0.45389 0.6526 0.14468 0.0
H639 H 0.51375 0.59484 0.16993 0.0
H640 H 0.45864 0.59481 0.16976 0.0
C641 C 0.47016 0.68498 0.13062 0.0
C642 C 0.96972 0.34514 0.65902 0.0
C643 C 0.95338 0.31283 0.645 0.0
H644 H 0.01314 0.37064 0.67007 0.0
C645 C 0.96972 0.28047 0.6309 0.0
H646 H 0.95802 0.37063 0.67006 0.0
C647 C 0.00162 0.28047 0.63091 0.0
C648 C 0.01789 0.31284 0.64502 0.0
H649 H 0.9579 0.25508 0.61984 0.0
H650 H 0.01348 0.25509 0.61985 0.0
C651 C 0.00148 0.34514 0.65902 0.0
C652 C 0.5015 0.34509 0.8701 0.0
C653 C 0.51791 0.31281 0.88419 0.0
H654 H 0.45804 0.37056 0.85891 0.0
C655 C 0.50163 0.28043 0.89828 0.0
H656 H 0.51315 0.37059 0.85907 0.0
C657 C 0.46973 0.28041 0.89819 0.0
C658 C 0.45339 0.31276 0.884 0.0
H659 H 0.51349 0.25505 0.9094 0.0
H660 H 0.45791 0.25502 0.90924 0.0
C661 C 0.46974 0.34507 0.87001 0.0
C662 C 0.00207 0.68495 0.39801 0.0
C663 C 0.01841 0.65258 0.38392 0.0
H664 H 0.95831 0.71033 0.40905 0.0
C665 C 0.00207 0.62027 0.36994 0.0
H666 H 0.01389 0.71034 0.40905 0.0
C667 C 0.9703 0.62027 0.36994 0.0
C668 C 0.9539 0.65257 0.38392 0.0
H669 H 0.01377 0.59477 0.35891 0.0
H670 H 0.95865 0.59476 0.35891 0.0
C671 C 0.97017 0.68494 0.39801 0.0
C672 C 0.10707 0.01369 0.97566 0.0
C673 C 0.10834 0.01837 0.04188 0.0
H674 H 0.10779 0.97591 0.89759 0.0
C675 C 0.10702 -0.01307 0.08043 0.0
H676 H 0.10769 0.03735 0.94444 0.0
C677 C 0.1072 0.95166 0.05339 0.0
C678 C 0.10842 0.94698 0.98715 0.0
H679 H 0.10788 -0.01056 0.13145 0.0
H680 H 0.10791 0.928 0.08461 0.0
C681 C 0.10697 0.97842 0.94861 0.0
C682 C 0.36484 0.97842 0.5802 0.0
C683 C 0.36348 0.947 0.54162 0.0
H684 H 0.36398 0.03735 0.58444 0.0
C685 C 0.36473 0.9517 0.4754 0.0
H686 H 0.364 0.97589 0.63122 0.0
C687 C 0.36484 -0.01302 0.44839 0.0
C688 C 0.36342 0.0184 0.48697 0.0
H689 H 0.36409 0.92805 0.44415 0.0
H690 H 0.364 -0.0105 0.39737 0.0
C691 C 0.36467 0.0137 0.55319 0.0
C692 C 0.8648 -0.01301 0.08036 0.0
C693 C 0.86338 0.01843 0.04181 0.0
H694 H 0.86404 0.92806 0.08454 0.0
C695 C 0.86463 0.01374 0.97558 0.0
H696 H 0.86396 -0.0105 0.13138 0.0
C697 C 0.8648 0.97847 0.94854 0.0
C698 C 0.86344 0.94703 0.98709 0.0
H699 H 0.86394 0.0374 0.94436 0.0
H700 H 0.86396 0.97596 0.89752 0.0
C701 C 0.86469 0.95172 0.05331 0.0
C702 C 0.60697 -0.01301 0.44867 0.0
C703 C 0.60831 0.01841 0.48725 0.0
H704 H 0.60784 0.92806 0.44444 0.0
C705 C 0.60705 0.01371 0.55348 0.0
H706 H 0.60782 -0.01049 0.39766 0.0
C707 C 0.60695 0.97843 0.58049 0.0
C708 C 0.60838 0.94701 0.54191 0.0
H709 H 0.60768 0.03737 0.58472 0.0
H710 H 0.60777 0.97591 0.63151 0.0
C711 C 0.60714 0.95171 0.47569 0.0
C712 C 0.60694 0.48706 0.08047 0.0
C713 C 0.60849 0.51847 0.04189 0.0
H714 H 0.60748 0.42812 0.08471 0.0
C715 C 0.60726 0.51377 0.97566 0.0
H716 H 0.60775 0.48958 0.13149 0.0
C717 C 0.60698 0.4785 0.94866 0.0
C718 C 0.6082 0.44706 0.98724 0.0
H719 H 0.60805 0.53742 0.94442 0.0
H720 H 0.60784 0.47596 0.89764 0.0
C721 C 0.60693 0.45178 0.05346 0.0
C722 C 0.8648 0.51369 0.55328 0.0
C723 C 0.86355 0.51838 0.48706 0.0
H724 H 0.86398 0.47592 0.63135 0.0
C725 C 0.86479 0.48693 0.44851 0.0
H726 H 0.86424 0.53736 0.5845 0.0
C727 C 0.86451 0.45167 0.47556 0.0
C728 C 0.86327 0.44699 0.54179 0.0
H729 H 0.86394 0.48945 0.39749 0.0
H730 H 0.86374 0.42801 0.44434 0.0
C731 C 0.86481 0.47842 0.58033 0.0
C732 C 0.36455 0.45165 0.05321 0.0
C733 C 0.36331 0.44695 0.98698 0.0
H734 H 0.36398 0.48946 0.13123 0.0
C735 C 0.36483 0.47836 0.9484 0.0
H736 H 0.36378 0.428 0.08446 0.0
C737 C 0.36483 0.51364 0.97541 0.0
C738 C 0.36358 0.51835 0.04163 0.0
H739 H 0.36401 0.47584 0.89739 0.0
H740 H 0.36427 0.5373 0.94416 0.0
C741 C 0.36483 0.48692 0.08022 0.0
C742 C 0.1073 0.51375 0.5534 0.0
C743 C 0.10852 0.51843 0.48716 0.0
H744 H 0.10788 0.47598 0.63147 0.0
C745 C 0.10697 0.48699 0.44863 0.0
H746 H 0.10809 0.53742 0.58462 0.0
C747 C 0.10696 0.45173 0.47568 0.0
C748 C 0.10823 0.44704 0.5419 0.0
H749 H 0.10777 0.48949 0.39761 0.0
H750 H 0.10751 0.42806 0.44446 0.0
C751 C 0.10701 0.47849 0.58045 0.0
C752 C 0.20635 0.24663 1.00391 0.0
C753 C 0.21066 0.21753 0.04655 0.0
H754 H 0.22721 0.28427 0.93968 0.0
C755 C 0.24023 0.20383 0.05704 0.0
H756 H 0.18378 0.25714 0.99375 0.0
C757 C 0.26504 0.21881 0.02519 0.0
C758 C 0.26073 0.2479 0.98255 0.0
H759 H 0.24418 0.18117 0.08943 0.0
H760 H 0.28761 0.2083 0.03535 0.0
C761 C 0.23116 0.26161 0.97206 0.0
C762 C 0.26545 0.71877 0.50354 0.0
C763 C 0.26114 0.74785 0.54623 0.0
H764 H 0.24459 0.68113 0.43932 0.0
C765 C 0.23157 0.76155 0.55677 0.0
H766 H 0.28802 0.70826 0.49334 0.0
C767 C 0.20676 0.74657 0.52495 0.0
C768 C 0.21107 0.71749 0.48228 0.0
H769 H 0.22762 0.7842 0.58919 0.0
H770 H 0.18419 0.75707 0.53516 0.0
C771 C 0.24064 0.70379 0.47173 0.0
C772 C 0.20677 0.71887 0.02511 0.0
C773 C 0.21104 0.74784 0.9822 0.0
H774 H 0.22769 0.68138 0.08958 0.0
C775 C 0.24059 0.76147 0.97149 0.0
H776 H 0.18421 0.70842 0.03544 0.0
C777 C 0.26542 0.74654 1.00337 0.0
C778 C 0.26115 0.71757 0.04628 0.0
H779 H 0.2445 0.78403 0.9389 0.0
H780 H 0.28799 0.75698 0.99304 0.0
C781 C 0.2316 0.70394 0.05699 0.0
C782 C 0.265 0.2465 0.52534 0.0
C783 C 0.26073 0.2175 0.4825 0.0
H784 H 0.24409 0.28403 0.58978 0.0
C785 C 0.23119 0.20383 0.4719 0.0
H786 H 0.28756 0.25696 0.53559 0.0
C787 C 0.20635 0.21878 0.50381 0.0
C788 C 0.21062 0.24778 0.54663 0.0
H789 H 0.22727 0.18125 0.43936 0.0
H790 H 0.18379 0.20831 0.49355 0.0
C791 C 0.24017 0.26144 0.55725 0.0
C792 C 0.73157 0.76156 0.97185 0.0
C793 C 0.76114 0.74786 0.98237 0.0
H794 H 0.68418 0.75708 0.99351 0.0
C795 C 0.76544 0.71879 0.02506 0.0
H796 H 0.72762 0.7842 0.93943 0.0
C797 C 0.74063 0.70381 0.05691 0.0
C798 C 0.71106 0.71751 0.04639 0.0
H799 H 0.78802 0.70829 0.03524 0.0
H800 H 0.74458 0.68116 0.08933 0.0
C801 C 0.70676 0.74658 1.0037 0.0
C802 C 0.73115 0.26165 0.55713 0.0
C803 C 0.76071 0.24794 0.54661 0.0
H804 H 0.68376 0.25718 0.5355 0.0
C805 C 0.76502 0.21884 0.50395 0.0
H806 H 0.7272 0.28431 0.58952 0.0
C807 C 0.74022 0.20386 0.47214 0.0
C808 C 0.71065 0.21757 0.48266 0.0
H809 H 0.7876 0.20833 0.49377 0.0
H810 H 0.74417 0.1812 0.43974 0.0
C811 C 0.70634 0.24666 0.52531 0.0
C812 C 0.74019 0.26152 0.97197 0.0
C813 C 0.71064 0.24786 0.98262 0.0
H814 H 0.78758 0.25704 0.99355 0.0
C815 C 0.70637 0.21886 0.02546 0.0
H816 H 0.7441 0.2841 0.93943 0.0
C817 C 0.73121 0.20392 0.05733 0.0
C818 C 0.76076 0.21758 0.04668 0.0
H819 H 0.68381 0.20839 0.03574 0.0
H820 H 0.72729 0.18133 0.08987 0.0
C821 C 0.76502 0.24658 1.00385 0.0
C822 C 0.76543 0.74661 0.52518 0.0
C823 C 0.76117 0.71763 0.4823 0.0
H824 H 0.74451 0.78412 0.58966 0.0
C825 C 0.73162 0.70399 0.47164 0.0
H826 H 0.788 0.75706 0.53547 0.0
C827 C 0.70678 0.71893 0.50356 0.0
C828 C 0.71105 0.7479 0.54644 0.0
H829 H 0.7277 0.68142 0.43907 0.0
H830 H 0.68422 0.70847 0.49327 0.0
C831 C 0.7406 0.76155 0.55709 0.0
loop_
_geom_bond_atom_site_label_1
_geom_bond_atom_site_label_2
_geom_bond_distance
_geom_bond_site_symmetry_2
_ccdc_geom_bond_type
Sc0 O3 2.025 . S
Sc0 O10 2.105 . S
Sc0 O13 2.105 . S
Sc0 O16 2.105 . S
Sc0 O19 2.105 1_554 S
Sc1 O3 2.025 . S
Sc1 O11 2.105 1_554 S
Sc1 O15 2.105 . S
Sc1 O17 2.105 . S
Sc1 O21 2.105 . S
Sc2 O3 2.025 . S
Sc2 O12 2.105 . S
Sc2 O14 2.105 . S
Sc2 O18 2.105 . S
Sc2 O20 2.105 . S
O3 Sc0 2.025 . S
O3 Sc1 2.025 . S
O3 Sc2 2.025 . S
C4 O10 1.268 . S
C4 O20 1.268 . S
C5 O11 1.268 . S
C5 O19 1.268 . S
C6 O12 1.268 . S
C6 O21 1.268 . S
C7 O13 1.268 . S
C7 O17 1.268 . S
C8 O14 1.268 . S
C8 O16 1.268 . S
C9 O15 1.268 . S
C9 O18 1.268 . S
O10 Sc0 2.105 . S
O10 C4 1.268 . S
O11 Sc1 2.105 1_556 S
O11 C5 1.268 . S
O12 Sc2 2.105 . S
O12 C6 1.268 . S
O13 Sc0 2.105 . S
O13 C7 1.268 . S
O14 Sc2 2.105 . S
O14 C8 1.268 . S
O15 Sc1 2.105 . S
O15 C9 1.268 . S
O16 Sc0 2.105 . S
O16 C8 1.268 . S
O17 Sc1 2.105 . S
O17 C7 1.268 . S
O18 Sc2 2.105 . S
O18 C9 1.268 . S
O19 Sc0 2.105 1_556 S
O19 C5 1.268 . S
O20 Sc2 2.105 . S
O20 C4 1.268 . S
O21 Sc1 2.105 . S
O21 C6 1.268 . S
Sc22 O25 2.025 . S
Sc22 O32 2.105 . S
Sc22 O35 2.105 . S
Sc22 O38 2.105 . S
Sc22 O41 2.105 . S
Sc23 O25 2.025 . S
Sc23 O33 2.105 . S
Sc23 O37 2.105 . S
Sc23 O39 2.105 . S
Sc23 O43 2.105 . S
Sc24 O25 2.025 . S
Sc24 O34 2.105 . S
Sc24 O36 2.105 . S
Sc24 O40 2.105 . S
Sc24 O42 2.105 . S
O25 Sc22 2.025 . S
O25 Sc23 2.025 . S
O25 Sc24 2.025 . S
C26 O32 1.268 . S
C26 O42 1.268 . S
C27 O33 1.268 . S
C27 O41 1.268 . S
C28 O34 1.268 . S
C28 O43 1.268 . S
C29 O35 1.268 . S
C29 O39 1.268 . S
C30 O36 1.268 . S
C30 O38 1.268 . S
C31 O37 1.268 . S
C31 O40 1.268 . S
O32 Sc22 2.105 . S
O32 C26 1.268 . S
O33 Sc23 2.105 . S
O33 C27 1.268 . S
O34 Sc24 2.105 . S
O34 C28 1.268 . S
O35 Sc22 2.105 . S
O35 C29 1.268 . S
O36 Sc24 2.105 . S
O36 C30 1.268 . S
O37 Sc23 2.105 . S
O37 C31 1.268 . S
O38 Sc22 2.105 . S
O38 C30 1.268 . S
O39 Sc23 2.105 . S
O39 C29 1.268 . S
O40 Sc24 2.105 . S
O40 C31 1.268 . S
O41 Sc22 2.105 . S
O41 C27 1.268 . S
O42 Sc24 2.105 . S
O42 C26 1.268 . S
O43 Sc23 2.105 . S
O43 C28 1.268 . S
Sc44 O47 2.025 . S
Sc44 O54 2.105 . S
Sc44 O57 2.105 . S
Sc44 O60 2.105 . S
Sc44 O63 2.105 1_556 S
Sc45 O47 2.025 . S
Sc45 O55 2.105 1_556 S
Sc45 O59 2.105 . S
Sc45 O61 2.105 . S
Sc45 O65 2.105 . S
Sc46 O47 2.025 . S
Sc46 O56 2.105 . S
Sc46 O58 2.105 . S
Sc46 O62 2.105 . S
Sc46 O64 2.105 . S
O47 Sc44 2.025 . S
O47 Sc45 2.025 . S
O47 Sc46 2.025 . S
C48 O54 1.268 . S
C48 O64 1.268 . S
C49 O55 1.268 . S
C49 O63 1.268 . S
C50 O56 1.268 . S
C50 O65 1.268 . S
C51 O57 1.268 . S
C51 O61 1.268 . S
C52 O58 1.268 . S
C52 O60 1.268 . S
C53 O59 1.268 . S
C53 O62 1.268 . S
O54 Sc44 2.105 . S
O54 C48 1.268 . S
O55 Sc45 2.105 1_554 S
O55 C49 1.268 . S
O56 Sc46 2.105 . S
O56 C50 1.268 . S
O57 Sc44 2.105 . S
O57 C51 1.268 . S
O58 Sc46 2.105 . S
O58 C52 1.268 . S
O59 Sc45 2.105 . S
O59 C53 1.268 . S
O60 Sc44 2.105 . S
O60 C52 1.268 . S
O61 Sc45 2.105 . S
O61 C51 1.268 . S
O62 Sc46 2.105 . S
O62 C53 1.268 . S
O63 Sc44 2.105 1_554 S
O63 C49 1.268 . S
O64 Sc46 2.105 . S
O64 C48 1.268 . S
O65 Sc45 2.105 . S
O65 C50 1.268 . S
Sc66 O69 2.025 . S
Sc66 O76 2.105 . S
Sc66 O79 2.105 . S
Sc66 O82 2.105 . S
Sc66 O85 2.105 . S
Sc67 O69 2.025 . S
Sc67 O77 2.105 . S
Sc67 O81 2.105 . S
Sc67 O83 2.105 . S
Sc67 O87 2.105 . S
Sc68 O69 2.025 . S
Sc68 O78 2.105 . S
Sc68 O80 2.105 . S
Sc68 O84 2.105 . S
Sc68 O86 2.105 . S
O69 Sc66 2.025 . S
O69 Sc67 2.025 . S
O69 Sc68 2.025 . S
C70 O76 1.268 . S
C70 O86 1.268 . S
C71 O77 1.268 . S
C71 O85 1.268 . S
C72 O78 1.268 . S
C72 O87 1.268 . S
C73 O79 1.268 . S
C73 O83 1.268 . S
C74 O80 1.268 . S
C74 O82 1.268 . S
C75 O81 1.268 . S
C75 O84 1.268 . S
O76 Sc66 2.105 . S
O76 C70 1.268 . S
O77 Sc67 2.105 . S
O77 C71 1.268 . S
O78 Sc68 2.105 . S
O78 C72 1.268 . S
O79 Sc66 2.105 . S
O79 C73 1.268 . S
O80 Sc68 2.105 . S
O80 C74 1.268 . S
O81 Sc67 2.105 . S
O81 C75 1.268 . S
O82 Sc66 2.105 . S
O82 C74 1.268 . S
O83 Sc67 2.105 . S
O83 C73 1.268 . S
O84 Sc68 2.105 . S
O84 C75 1.268 . S
O85 Sc66 2.105 . S
O85 C71 1.268 . S
O86 Sc68 2.105 . S
O86 C70 1.268 . S
O87 Sc67 2.105 . S
O87 C72 1.268 . S
Sc88 O91 2.025 . S
Sc88 O98 2.105 . S
Sc88 O101 2.105 . S
Sc88 O104 2.105 . S
Sc88 O107 2.105 . S
Sc89 O91 2.025 . S
Sc89 O99 2.105 . S
Sc89 O103 2.105 . S
Sc89 O105 2.105 . S
Sc89 O109 2.105 1_556 S
Sc90 O91 2.025 . S
Sc90 O100 2.105 1_556 S
Sc90 O102 2.105 . S
Sc90 O106 2.105 . S
Sc90 O108 2.105 . S
O91 Sc88 2.025 . S
O91 Sc89 2.025 . S
O91 Sc90 2.025 . S
C92 O98 1.268 . S
C92 O108 1.268 . S
C93 O99 1.268 . S
C93 O107 1.268 . S
C94 O100 1.268 . S
C94 O109 1.268 . S
C95 O101 1.268 . S
C95 O105 1.268 . S
C96 O102 1.268 . S
C96 O104 1.268 . S
C97 O103 1.268 . S
C97 O106 1.268 . S
O98 Sc88 2.105 . S
O98 C92 1.268 . S
O99 Sc89 2.105 . S
O99 C93 1.268 . S
O100 Sc90 2.105 1_554 S
O100 C94 1.268 . S
O101 Sc88 2.105 . S
O101 C95 1.268 . S
O102 Sc90 2.105 . S
O102 C96 1.268 . S
O103 Sc89 2.105 . S
O103 C97 1.268 . S
O104 Sc88 2.105 . S
O104 C96 1.268 . S
O105 Sc89 2.105 . S
O105 C95 1.268 . S
O106 Sc90 2.105 . S
O106 C97 1.268 . S
O107 Sc88 2.105 . S
O107 C93 1.268 . S
O108 Sc90 2.105 . S
O108 C92 1.268 . S
O109 Sc89 2.105 1_554 S
O109 C94 1.268 . S
Sc110 O113 2.025 . S
Sc110 O120 2.105 . S
Sc110 O123 2.105 . S
Sc110 O126 2.105 . S
Sc110 O129 2.105 . S
Sc111 O113 2.025 . S
Sc111 O121 2.105 . S
Sc111 O125 2.105 . S
Sc111 O127 2.105 . S
Sc111 O131 2.105 . S
Sc112 O113 2.025 . S
Sc112 O122 2.105 . S
Sc112 O124 2.105 . S
Sc112 O128 2.105 . S
Sc112 O130 2.105 . S
O113 Sc110 2.025 . S
O113 Sc111 2.025 . S
O113 Sc112 2.025 . S
C114 O120 1.268 . S
C114 O130 1.268 . S
C115 O121 1.268 . S
C115 O129 1.268 . S
C116 O122 1.268 . S
C116 O131 1.268 . S
C117 O123 1.268 . S
C117 O127 1.268 . S
C118 O124 1.268 . S
C118 O126 1.268 . S
C119 O125 1.268 . S
C119 O128 1.268 . S
O120 Sc110 2.105 . S
O120 C114 1.268 . S
O121 Sc111 2.105 . S
O121 C115 1.268 . S
O122 Sc112 2.105 . S
O122 C116 1.268 . S
O123 Sc110 2.105 . S
O123 C117 1.268 . S
O124 Sc112 2.105 . S
O124 C118 1.268 . S
O125 Sc111 2.105 . S
O125 C119 1.268 . S
O126 Sc110 2.105 . S
O126 C118 1.268 . S
O127 Sc111 2.105 . S
O127 C117 1.268 . S
O128 Sc112 2.105 . S
O128 C119 1.268 . S
O129 Sc110 2.105 . S
O129 C115 1.268 . S
O130 Sc112 2.105 . S
O130 C114 1.268 . S
O131 Sc111 2.105 . S
O131 C116 1.268 . S
Sc132 O135 2.025 . S
Sc132 O142 2.105 . S
Sc132 O145 2.105 1_554 S
Sc132 O148 2.105 . S
Sc132 O151 2.105 . S
Sc133 O135 2.025 . S
Sc133 O143 2.105 . S
Sc133 O147 2.105 . S
Sc133 O149 2.105 1_554 S
Sc133 O153 2.105 . S
Sc134 O135 2.025 . S
Sc134 O144 2.105 . S
Sc134 O146 2.105 . S
Sc134 O150 2.105 . S
Sc134 O152 2.105 . S
O135 Sc132 2.025 . S
O135 Sc133 2.025 . S
O135 Sc134 2.025 . S
C136 O142 1.268 . S
C136 O152 1.268 . S
C137 O143 1.268 . S
C137 O151 1.268 . S
C138 O144 1.268 . S
C138 O153 1.268 . S
C139 O145 1.268 . S
C139 O149 1.268 . S
C140 O146 1.268 . S
C140 O148 1.268 . S
C141 O147 1.268 . S
C141 O150 1.268 . S
O142 Sc132 2.105 . S
O142 C136 1.268 . S
O143 Sc133 2.105 . S
O143 C137 1.268 . S
O144 Sc134 2.105 . S
O144 C138 1.268 . S
O145 Sc132 2.105 1_556 S
O145 C139 1.268 . S
O146 Sc134 2.105 . S
O146 C140 1.268 . S
O147 Sc133 2.105 . S
O147 C141 1.268 . S
O148 Sc132 2.105 . S
O148 C140 1.268 . S
O149 Sc133 2.105 1_556 S
O149 C139 1.268 . S
O150 Sc134 2.105 . S
O150 C141 1.268 . S
O151 Sc132 2.105 . S
O151 C137 1.268 . S
O152 Sc134 2.105 . S
O152 C136 1.268 . S
O153 Sc133 2.105 . S
O153 C138 1.268 . S
Sc154 O157 2.025 . S
Sc154 O164 2.105 . S
Sc154 O167 2.105 . S
Sc154 O170 2.105 . S
Sc154 O173 2.105 . S
Sc155 O157 2.025 . S
Sc155 O165 2.105 . S
Sc155 O169 2.105 . S
Sc155 O171 2.105 . S
Sc155 O175 2.105 . S
Sc156 O157 2.025 . S
Sc156 O166 2.105 . S
Sc156 O168 2.105 . S
Sc156 O172 2.105 . S
Sc156 O174 2.105 . S
O157 Sc154 2.025 . S
O157 Sc155 2.025 . S
O157 Sc156 2.025 . S
C158 O164 1.268 . S
C158 O174 1.268 . S
C159 O165 1.268 . S
C159 O173 1.268 . S
C160 O166 1.268 . S
C160 O175 1.268 . S
C161 O167 1.268 . S
C161 O171 1.268 . S
C162 O168 1.268 . S
C162 O170 1.268 . S
C163 O169 1.268 . S
C163 O172 1.268 . S
O164 Sc154 2.105 . S
O164 C158 1.268 . S
O165 Sc155 2.105 . S
O165 C159 1.268 . S
O166 Sc156 2.105 . S
O166 C160 1.268 . S
O167 Sc154 2.105 . S
O167 C161 1.268 . S
O168 Sc156 2.105 . S
O168 C162 1.268 . S
O169 Sc155 2.105 . S
O169 C163 1.268 . S
O170 Sc154 2.105 . S
O170 C162 1.268 . S
O171 Sc155 2.105 . S
O171 C161 1.268 . S
O172 Sc156 2.105 . S
O172 C163 1.268 . S
O173 Sc154 2.105 . S
O173 C159 1.268 . S
O174 Sc156 2.105 . S
O174 C158 1.268 . S
O175 Sc155 2.105 . S
O175 C160 1.268 . S
Sc176 O179 2.025 . S
Sc176 O186 2.105 . S
Sc176 O189 2.105 . S
Sc176 O192 2.105 . S
Sc176 O195 2.105 1_554 S
Sc177 O179 2.025 . S
Sc177 O187 2.105 1_554 S
Sc177 O191 2.105 . S
Sc177 O193 2.105 . S
Sc177 O197 2.105 . S
Sc178 O179 2.025 . S
Sc178 O188 2.105 . S
Sc178 O190 2.105 . S
Sc178 O194 2.105 . S
Sc178 O196 2.105 . S
O179 Sc176 2.025 . S
O179 Sc177 2.025 . S
O179 Sc178 2.025 . S
C180 O186 1.268 . S
C180 O196 1.268 . S
C181 O187 1.268 . S
C181 O195 1.268 . S
C182 O188 1.268 . S
C182 O197 1.268 . S
C183 O189 1.268 . S
C183 O193 1.268 . S
C184 O190 1.268 . S
C184 O192 1.268 . S
C185 O191 1.268 . S
C185 O194 1.268 . S
O186 Sc176 2.105 . S
O186 C180 1.268 . S
O187 Sc177 2.105 1_556 S
O187 C181 1.268 . S
O188 Sc178 2.105 . S
O188 C182 1.268 . S
O189 Sc176 2.105 . S
O189 C183 1.268 . S
O190 Sc178 2.105 . S
O190 C184 1.268 . S
O191 Sc177 2.105 . S
O191 C185 1.268 . S
O192 Sc176 2.105 . S
O192 C184 1.268 . S
O193 Sc177 2.105 . S
O193 C183 1.268 . S
O194 Sc178 2.105 . S
O194 C185 1.268 . S
O195 Sc176 2.105 1_556 S
O195 C181 1.268 . S
O196 Sc178 2.105 . S
O196 C180 1.268 . S
O197 Sc177 2.105 . S
O197 C182 1.268 . S
Sc198 O201 2.025 . S
Sc198 O208 2.105 . S
Sc198 O211 2.105 . S
Sc198 O214 2.105 . S
Sc198 O217 2.105 . S
Sc199 O201 2.025 . S
Sc199 O209 2.105 . S
Sc199 O213 2.105 . S
Sc199 O215 2.105 . S
Sc199 O219 2.105 . S
Sc200 O201 2.025 . S
Sc200 O210 2.105 . S
Sc200 O212 2.105 . S
Sc200 O216 2.105 . S
Sc200 O218 2.105 . S
O201 Sc198 2.025 . S
O201 Sc199 2.025 . S
O201 Sc200 2.025 . S
C202 O208 1.268 . S
C202 O218 1.268 . S
C203 O209 1.268 . S
C203 O217 1.268 . S
C204 O210 1.268 . S
C204 O219 1.268 . S
C205 O211 1.268 . S
C205 O215 1.268 . S
C206 O212 1.268 . S
C206 O214 1.268 . S
C207 O213 1.268 . S
C207 O216 1.268 . S
O208 Sc198 2.105 . S
O208 C202 1.268 . S
O209 Sc199 2.105 . S
O209 C203 1.268 . S
O210 Sc200 2.105 . S
O210 C204 1.268 . S
O211 Sc198 2.105 . S
O211 C205 1.268 . S
O212 Sc200 2.105 . S
O212 C206 1.268 . S
O213 Sc199 2.105 . S
O213 C207 1.268 . S
O214 Sc198 2.105 . S
O214 C206 1.268 . S
O215 Sc199 2.105 . S
O215 C205 1.268 . S
O216 Sc200 2.105 . S
O216 C207 1.268 . S
O217 Sc198 2.105 . S
O217 C203 1.268 . S
O218 Sc200 2.105 . S
O218 C202 1.268 . S
O219 Sc199 2.105 . S
O219 C204 1.268 . S
Sc220 O223 2.025 . S
Sc220 O230 2.105 . S
Sc220 O233 2.105 . S
Sc220 O236 2.105 . S
Sc220 O239 2.105 1_556 S
Sc221 O223 2.025 . S
Sc221 O231 2.105 1_556 S
Sc221 O235 2.105 . S
Sc221 O237 2.105 . S
Sc221 O241 2.105 . S
Sc222 O223 2.025 . S
Sc222 O232 2.105 . S
Sc222 O234 2.105 . S
Sc222 O238 2.105 . S
Sc222 O240 2.105 . S
O223 Sc220 2.025 . S
O223 Sc221 2.025 . S
O223 Sc222 2.025 . S
C224 O230 1.268 . S
C224 O240 1.268 . S
C225 O231 1.268 . S
C225 O239 1.268 . S
C226 O232 1.268 . S
C226 O241 1.268 . S
C227 O233 1.268 . S
C227 O237 1.268 . S
C228 O234 1.268 . S
C228 O236 1.268 . S
C229 O235 1.268 . S
C229 O238 1.268 . S
O230 Sc220 2.105 . S
O230 C224 1.268 . S
O231 Sc221 2.105 1_554 S
O231 C225 1.268 . S
O232 Sc222 2.105 . S
O232 C226 1.268 . S
O233 Sc220 2.105 . S
O233 C227 1.268 . S
O234 Sc222 2.105 . S
O234 C228 1.268 . S
O235 Sc221 2.105 . S
O235 C229 1.268 . S
O236 Sc220 2.105 . S
O236 C228 1.268 . S
O237 Sc221 2.105 . S
O237 C227 1.268 . S
O238 Sc222 2.105 . S
O238 C229 1.268 . S
O239 Sc220 2.105 1_554 S
O239 C225 1.268 . S
O240 Sc222 2.105 . S
O240 C224 1.268 . S
O241 Sc221 2.105 . S
O241 C226 1.268 . S
Sc242 O245 2.025 . S
Sc242 O252 2.105 . S
Sc242 O255 2.105 . S
Sc242 O258 2.105 . S
Sc242 O261 2.105 . S
Sc243 O245 2.025 . S
Sc243 O253 2.105 . S
Sc243 O257 2.105 . S
Sc243 O259 2.105 . S
Sc243 O263 2.105 . S
Sc244 O245 2.025 . S
Sc244 O254 2.105 . S
Sc244 O256 2.105 . S
Sc244 O260 2.105 . S
Sc244 O262 2.105 . S
O245 Sc242 2.025 . S
O245 Sc243 2.025 . S
O245 Sc244 2.025 . S
C246 O252 1.268 . S
C246 O262 1.268 . S
C247 O253 1.268 . S
C247 O261 1.268 . S
C248 O254 1.268 . S
C248 O263 1.268 . S
C249 O255 1.268 . S
C249 O259 1.268 . S
C250 O256 1.268 . S
C250 O258 1.268 . S
C251 O257 1.268 . S
C251 O260 1.268 . S
O252 Sc242 2.105 . S
O252 C246 1.268 . S
O253 Sc243 2.105 . S
O253 C247 1.268 . S
O254 Sc244 2.105 . S
O254 C248 1.268 . S
O255 Sc242 2.105 . S
O255 C249 1.268 . S
O256 Sc244 2.105 . S
O256 C250 1.268 . S
O257 Sc243 2.105 . S
O257 C251 1.268 . S
O258 Sc242 2.105 . S
O258 C250 1.268 . S
O259 Sc243 2.105 . S
O259 C249 1.268 . S
O260 Sc244 2.105 . S
O260 C251 1.268 . S
O261 Sc242 2.105 . S
O261 C247 1.268 . S
O262 Sc244 2.105 . S
O262 C246 1.268 . S
O263 Sc243 2.105 . S
O263 C248 1.268 . S
Sc264 O267 2.025 . S
Sc264 O274 2.105 . S
Sc264 O277 2.105 . S
Sc264 O280 2.105 . S
Sc264 O283 2.105 . S
Sc265 O267 2.025 . S
Sc265 O275 2.105 . S
Sc265 O279 2.105 . S
Sc265 O281 2.105 . S
Sc265 O285 2.105 1_556 S
Sc266 O267 2.025 . S
Sc266 O276 2.105 1_556 S
Sc266 O278 2.105 . S
Sc266 O282 2.105 . S
Sc266 O284 2.105 . S
O267 Sc264 2.025 . S
O267 Sc265 2.025 . S
O267 Sc266 2.025 . S
C268 O274 1.268 . S
C268 O284 1.268 . S
C269 O275 1.268 . S
C269 O283 1.268 . S
C270 O276 1.268 . S
C270 O285 1.268 . S
C271 O277 1.268 . S
C271 O281 1.268 . S
C272 O278 1.268 . S
C272 O280 1.268 . S
C273 O279 1.268 . S
C273 O282 1.268 . S
O274 Sc264 2.105 . S
O274 C268 1.268 . S
O275 Sc265 2.105 . S
O275 C269 1.268 . S
O276 Sc266 2.105 1_554 S
O276 C270 1.268 . S
O277 Sc264 2.105 . S
O277 C271 1.268 . S
O278 Sc266 2.105 . S
O278 C272 1.268 . S
O279 Sc265 2.105 . S
O279 C273 1.268 . S
O280 Sc264 2.105 . S
O280 C272 1.268 . S
O281 Sc265 2.105 . S
O281 C271 1.268 . S
O282 Sc266 2.105 . S
O282 C273 1.268 . S
O283 Sc264 2.105 . S
O283 C269 1.268 . S
O284 Sc266 2.105 . S
O284 C268 1.268 . S
O285 Sc265 2.105 1_554 S
O285 C270 1.268 . S
Sc286 O289 2.025 . S
Sc286 O296 2.105 . S
Sc286 O299 2.105 . S
Sc286 O302 2.105 . S
Sc286 O305 2.105 . S
Sc287 O289 2.025 . S
Sc287 O297 2.105 . S
Sc287 O301 2.105 . S
Sc287 O303 2.105 . S
Sc287 O307 2.105 . S
Sc288 O289 2.025 . S
Sc288 O298 2.105 . S
Sc288 O300 2.105 . S
Sc288 O304 2.105 . S
Sc288 O306 2.105 . S
O289 Sc286 2.025 . S
O289 Sc287 2.025 . S
O289 Sc288 2.025 . S
C290 O296 1.268 . S
C290 O306 1.268 . S
C291 O297 1.268 . S
C291 O305 1.268 . S
C292 O298 1.268 . S
C292 O307 1.268 . S
C293 O299 1.268 . S
C293 O303 1.268 . S
C294 O300 1.268 . S
C294 O302 1.268 . S
C295 O301 1.268 . S
C295 O304 1.268 . S
O296 Sc286 2.105 . S
O296 C290 1.268 . S
O297 Sc287 2.105 . S
O297 C291 1.268 . S
O298 Sc288 2.105 . S
O298 C292 1.268 . S
O299 Sc286 2.105 . S
O299 C293 1.268 . S
O300 Sc288 2.105 . S
O300 C294 1.268 . S
O301 Sc287 2.105 . S
O301 C295 1.268 . S
O302 Sc286 2.105 . S
O302 C294 1.268 . S
O303 Sc287 2.105 . S
O303 C293 1.268 . S
O304 Sc288 2.105 . S
O304 C295 1.268 . S
O305 Sc286 2.105 . S
O305 C291 1.268 . S
O306 Sc288 2.105 . S
O306 C290 1.268 . S
O307 Sc287 2.105 . S
O307 C292 1.268 . S
Sc308 O311 2.025 . S
Sc308 O318 2.105 . S
Sc308 O321 2.105 1_554 S
Sc308 O324 2.105 . S
Sc308 O327 2.105 . S
Sc309 O311 2.025 . S
Sc309 O319 2.105 . S
Sc309 O323 2.105 . S
Sc309 O325 2.105 1_554 S
Sc309 O329 2.105 . S
Sc310 O311 2.025 . S
Sc310 O320 2.105 . S
Sc310 O322 2.105 . S
Sc310 O326 2.105 . S
Sc310 O328 2.105 . S
O311 Sc308 2.025 . S
O311 Sc309 2.025 . S
O311 Sc310 2.025 . S
C312 O318 1.268 . S
C312 O328 1.268 . S
C313 O319 1.268 . S
C313 O327 1.268 . S
C314 O320 1.268 . S
C314 O329 1.268 . S
C315 O321 1.268 . S
C315 O325 1.268 . S
C316 O322 1.268 . S
C316 O324 1.268 . S
C317 O323 1.268 . S
C317 O326 1.268 . S
O318 Sc308 2.105 . S
O318 C312 1.268 . S
O319 Sc309 2.105 . S
O319 C313 1.268 . S
O320 Sc310 2.105 . S
O320 C314 1.268 . S
O321 Sc308 2.105 1_556 S
O321 C315 1.268 . S
O322 Sc310 2.105 . S
O322 C316 1.268 . S
O323 Sc309 2.105 . S
O323 C317 1.268 . S
O324 Sc308 2.105 . S
O324 C316 1.268 . S
O325 Sc309 2.105 1_556 S
O325 C315 1.268 . S
O326 Sc310 2.105 . S
O326 C317 1.268 . S
O327 Sc308 2.105 . S
O327 C313 1.268 . S
O328 Sc310 2.105 . S
O328 C312 1.268 . S
O329 Sc309 2.105 . S
O329 C314 1.268 . S
Sc330 O333 2.025 . S
Sc330 O340 2.105 . S
Sc330 O343 2.105 . S
Sc330 O346 2.105 . S
Sc330 O349 2.105 . S
Sc331 O333 2.025 . S
Sc331 O341 2.105 . S
Sc331 O345 2.105 . S
Sc331 O347 2.105 . S
Sc331 O351 2.105 . S
Sc332 O333 2.025 . S
Sc332 O342 2.105 . S
Sc332 O344 2.105 . S
Sc332 O348 2.105 . S
Sc332 O350 2.105 . S
O333 Sc330 2.025 . S
O333 Sc331 2.025 . S
O333 Sc332 2.025 . S
C334 O340 1.268 . S
C334 O350 1.268 . S
C335 O341 1.268 . S
C335 O349 1.268 . S
C336 O342 1.268 . S
C336 O351 1.268 . S
C337 O343 1.268 . S
C337 O347 1.268 . S
C338 O344 1.268 . S
C338 O346 1.268 . S
C339 O345 1.268 . S
C339 O348 1.268 . S
O340 Sc330 2.105 . S
O340 C334 1.268 . S
O341 Sc331 2.105 . S
O341 C335 1.268 . S
O342 Sc332 2.105 . S
O342 C336 1.268 . S
O343 Sc330 2.105 . S
O343 C337 1.268 . S
O344 Sc332 2.105 . S
O344 C338 1.268 . S
O345 Sc331 2.105 . S
O345 C339 1.268 . S
O346 Sc330 2.105 . S
O346 C338 1.268 . S
O347 Sc331 2.105 . S
O347 C337 1.268 . S
O348 Sc332 2.105 . S
O348 C339 1.268 . S
O349 Sc330 2.105 . S
O349 C335 1.268 . S
O350 Sc332 2.105 . S
O350 C334 1.268 . S
O351 Sc331 2.105 . S
O351 C336 1.268 . S
C352 C353 1.387 . S
C352 H356 0.950 . S
C352 C361 1.390 . S
C353 C352 1.387 . S
C353 C355 1.387 . S
H354 C361 0.950 . S
C355 C353 1.387 . S
C355 C357 1.390 . S
C355 H359 0.950 . S
H356 C352 0.950 . S
C357 C355 1.390 . S
C357 C358 1.387 . S
C357 H360 0.950 . S
C358 C357 1.387 . S
C358 C361 1.387 . S
H359 C355 0.950 . S
H360 C357 0.950 . S
C361 C352 1.390 . S
C361 H354 0.950 . S
C361 C358 1.387 . S
C362 C363 1.387 . S
C362 H366 0.950 . S
C362 C371 1.390 . S
C363 C362 1.387 . S
C363 C365 1.387 . S
H364 C371 0.950 . S
C365 C363 1.387 . S
C365 C367 1.390 . S
C365 H369 0.950 . S
H366 C362 0.950 . S
C367 C365 1.390 . S
C367 C368 1.387 . S
C367 H370 0.950 . S
C368 C367 1.387 . S
C368 C371 1.387 . S
H369 C365 0.950 . S
H370 C367 0.950 . S
C371 C362 1.390 . S
C371 H364 0.950 . S
C371 C368 1.387 . S
C372 C373 1.387 . S
C372 H376 0.950 . S
C372 C381 1.390 . S
C373 C372 1.387 . S
C373 C375 1.387 . S
H374 C381 0.950 . S
C375 C373 1.387 . S
C375 C377 1.390 . S
C375 H379 0.950 . S
H376 C372 0.950 . S
C377 C375 1.390 . S
C377 C378 1.387 . S
C377 H380 0.950 . S
C378 C377 1.387 . S
C378 C381 1.387 . S
H379 C375 0.950 . S
H380 C377 0.950 . S
C381 C372 1.390 . S
C381 H374 0.950 . S
C381 C378 1.387 . S
C382 C383 1.387 . S
C382 H386 0.950 . S
C382 C391 1.390 . S
C383 C382 1.387 . S
C383 C385 1.387 . S
H384 C391 0.950 . S
C385 C383 1.387 . S
C385 C387 1.390 . S
C385 H389 0.950 . S
H386 C382 0.950 . S
C387 C385 1.390 . S
C387 C388 1.387 . S
C387 H390 0.950 . S
C388 C387 1.387 . S
C388 C391 1.387 . S
H389 C385 0.950 . S
H390 C387 0.950 . S
C391 C382 1.390 . S
C391 H384 0.950 . S
C391 C388 1.387 . S
C392 C393 1.387 . S
C392 H396 0.950 . S
C392 C401 1.390 . S
C393 C392 1.387 . S
C393 C395 1.387 . S
H394 C401 0.950 . S
C395 C393 1.387 . S
C395 C397 1.390 . S
C395 H399 0.950 . S
H396 C392 0.950 . S
C397 C395 1.390 . S
C397 C398 1.387 . S
C397 H400 0.950 . S
C398 C397 1.387 . S
C398 C401 1.387 . S
H399 C395 0.950 . S
H400 C397 0.950 . S
C401 C392 1.390 . S
C401 H394 0.950 . S
C401 C398 1.387 . S
C402 C403 1.387 . S
C402 H406 0.950 . S
C402 C411 1.390 . S
C403 C402 1.387 . S
C403 C405 1.387 . S
H404 C411 0.950 . S
C405 C403 1.387 . S
C405 C407 1.390 . S
C405 H409 0.950 . S
H406 C402 0.950 . S
C407 C405 1.390 . S
C407 C408 1.387 . S
C407 H410 0.950 . S
C408 C407 1.387 . S
C408 C411 1.387 . S
H409 C405 0.950 . S
H410 C407 0.950 . S
C411 C402 1.390 . S
C411 H404 0.950 . S
C411 C408 1.387 . S
C412 C413 1.387 . S
C412 H416 0.950 . S
C412 C421 1.390 . S
C413 C412 1.387 . S
C413 C415 1.387 . S
H414 C421 0.950 . S
C415 C413 1.387 . S
C415 C417 1.390 . S
C415 H419 0.950 . S
H416 C412 0.950 . S
C417 C415 1.390 . S
C417 C418 1.387 . S
C417 H420 0.950 . S
C418 C417 1.387 . S
C418 C421 1.387 . S
H419 C415 0.950 . S
H420 C417 0.950 . S
C421 C412 1.390 . S
C421 H414 0.950 . S
C421 C418 1.387 . S
C422 C423 1.387 . S
C422 H426 0.950 . S
C422 C431 1.390 . S
C423 C422 1.387 . S
C423 C425 1.387 . S
H424 C431 0.950 . S
C425 C423 1.387 . S
C425 C427 1.390 . S
C425 H429 0.950 . S
H426 C422 0.950 . S
C427 C425 1.390 . S
C427 C428 1.387 . S
C427 H430 0.950 . S
C428 C427 1.387 . S
C428 C431 1.387 . S
H429 C425 0.950 . S
H430 C427 0.950 . S
C431 C422 1.390 . S
C431 H424 0.950 . S
C431 C428 1.387 . S
C432 C433 1.387 . S
C432 H436 0.950 . S
C432 C441 1.390 . S
C433 C432 1.387 . S
C433 C435 1.387 . S
H434 C441 0.950 . S
C435 C433 1.387 . S
C435 C437 1.390 . S
C435 H439 0.950 . S
H436 C432 0.950 . S
C437 C435 1.390 . S
C437 C438 1.387 . S
C437 H440 0.950 . S
C438 C437 1.387 . S
C438 C441 1.387 . S
H439 C435 0.950 . S
H440 C437 0.950 . S
C441 C432 1.390 . S
C441 H434 0.950 . S
C441 C438 1.387 . S
C442 C443 1.387 . S
C442 H446 0.950 . S
C442 C451 1.390 . S
C443 C442 1.387 . S
C443 C445 1.387 . S
H444 C451 0.950 . S
C445 C443 1.387 . S
C445 C447 1.390 . S
C445 H449 0.950 . S
H446 C442 0.950 . S
C447 C445 1.390 . S
C447 C448 1.387 . S
C447 H450 0.950 . S
C448 C447 1.387 . S
C448 C451 1.387 . S
H449 C445 0.950 . S
H450 C447 0.950 . S
C451 C442 1.390 . S
C451 H444 0.950 . S
C451 C448 1.387 . S
C452 C453 1.387 . S
C452 H456 0.950 . S
C452 C461 1.390 . S
C453 C452 1.387 . S
C453 C455 1.387 . S
H454 C461 0.950 . S
C455 C453 1.387 . S
C455 C457 1.390 . S
C455 H459 0.950 . S
H456 C452 0.950 . S
C457 C455 1.390 . S
C457 C458 1.387 . S
C457 H460 0.950 . S
C458 C457 1.387 . S
C458 C461 1.387 . S
H459 C455 0.950 . S
H460 C457 0.950 . S
C461 C452 1.390 . S
C461 H454 0.950 . S
C461 C458 1.387 . S
C462 C463 1.387 . S
C462 H466 0.950 . S
C462 C471 1.390 . S
C463 C462 1.387 . S
C463 C465 1.387 . S
H464 C471 0.950 . S
C465 C463 1.387 . S
C465 C467 1.390 . S
C465 H469 0.950 . S
H466 C462 0.950 . S
C467 C465 1.390 . S
C467 C468 1.387 . S
C467 H470 0.950 . S
C468 C467 1.387 . S
C468 C471 1.387 . S
H469 C465 0.950 . S
H470 C467 0.950 . S
C471 C462 1.390 . S
C471 H464 0.950 . S
C471 C468 1.387 . S
C472 C473 1.387 . S
C472 H476 0.950 . S
C472 C481 1.390 . S
C473 C472 1.387 . S
C473 C475 1.387 . S
H474 C481 0.950 . S
C475 C473 1.387 . S
C475 C477 1.390 . S
C475 H479 0.950 . S
H476 C472 0.950 . S
C477 C475 1.390 . S
C477 C478 1.387 . S
C477 H480 0.950 . S
C478 C477 1.387 . S
C478 C481 1.387 . S
H479 C475 0.950 . S
H480 C477 0.950 . S
C481 C472 1.390 . S
C481 H474 0.950 . S
C481 C478 1.387 . S
C482 C483 1.387 . S
C482 H486 0.950 . S
C482 C491 1.390 . S
C483 C482 1.387 . S
C483 C485 1.387 . S
H484 C491 0.950 . S
C485 C483 1.387 . S
C485 C487 1.390 . S
C485 H489 0.950 . S
H486 C482 0.950 . S
C487 C485 1.390 . S
C487 C488 1.387 . S
C487 H490 0.950 . S
C488 C487 1.387 . S
C488 C491 1.387 . S
H489 C485 0.950 . S
H490 C487 0.950 . S
C491 C482 1.390 . S
C491 H484 0.950 . S
C491 C488 1.387 . S
C492 C493 1.387 . S
C492 H496 0.950 . S
C492 C501 1.390 . S
C493 C492 1.387 . S
C493 C495 1.387 . S
H494 C501 0.950 . S
C495 C493 1.387 . S
C495 C497 1.390 . S
C495 H499 0.950 . S
H496 C492 0.950 . S
C497 C495 1.390 . S
C497 C498 1.387 . S
C497 H500 0.950 . S
C498 C497 1.387 . S
C498 C501 1.387 . S
H499 C495 0.950 . S
H500 C497 0.950 . S
C501 C492 1.390 . S
C501 H494 0.950 . S
C501 C498 1.387 . S
C502 C503 1.387 . S
C502 H506 0.950 . S
C502 C511 1.390 . S
C503 C502 1.387 . S
C503 C505 1.387 . S
H504 C511 0.950 . S
C505 C503 1.387 . S
C505 C507 1.390 . S
C505 H509 0.950 . S
H506 C502 0.950 . S
C507 C505 1.390 . S
C507 C508 1.387 . S
C507 H510 0.950 . S
C508 C507 1.387 . S
C508 C511 1.387 . S
H509 C505 0.950 . S
H510 C507 0.950 . S
C511 C502 1.390 . S
C511 H504 0.950 . S
C511 C508 1.387 . S
C512 C513 1.387 . S
C512 H516 0.950 . S
C512 C521 1.390 . S
C513 C512 1.387 . S
C513 C515 1.387 . S
H514 C521 0.950 . S
C515 C513 1.387 . S
C515 C517 1.390 . S
C515 H519 0.950 . S
H516 C512 0.950 . S
C517 C515 1.390 . S
C517 C518 1.387 . S
C517 H520 0.950 . S
C518 C517 1.387 . S
C518 C521 1.387 . S
H519 C515 0.950 . S
H520 C517 0.950 . S
C521 C512 1.390 . S
C521 H514 0.950 . S
C521 C518 1.387 . S
C522 C523 1.387 . S
C522 H526 0.950 . S
C522 C531 1.390 . S
C523 C522 1.387 . S
C523 C525 1.387 . S
H524 C531 0.950 . S
C525 C523 1.387 . S
C525 C527 1.390 . S
C525 H529 0.950 . S
H526 C522 0.950 . S
C527 C525 1.390 . S
C527 C528 1.387 . S
C527 H530 0.950 . S
C528 C527 1.387 . S
C528 C531 1.387 . S
H529 C525 0.950 . S
H530 C527 0.950 . S
C531 C522 1.390 . S
C531 H524 0.950 . S
C531 C528 1.387 . S
C532 C533 1.387 . S
C532 H536 0.950 . S
C532 C541 1.390 . S
C533 C532 1.387 . S
C533 C535 1.387 . S
H534 C541 0.950 . S
C535 C533 1.387 . S
C535 C537 1.390 . S
C535 H539 0.950 . S
H536 C532 0.950 . S
C537 C535 1.390 . S
C537 C538 1.387 . S
C537 H540 0.950 . S
C538 C537 1.387 . S
C538 C541 1.387 . S
H539 C535 0.950 . S
H540 C537 0.950 . S
C541 C532 1.390 . S
C541 H534 0.950 . S
C541 C538 1.387 . S
C542 C543 1.387 . S
C542 H546 0.950 . S
C542 C551 1.390 . S
C543 C542 1.387 . S
C543 C545 1.387 . S
H544 C551 0.950 . S
C545 C543 1.387 . S
C545 C547 1.390 . S
C545 H549 0.950 . S
H546 C542 0.950 . S
C547 C545 1.390 . S
C547 C548 1.387 . S
C547 H550 0.950 . S
C548 C547 1.387 . S
C548 C551 1.387 . S
H549 C545 0.950 . S
H550 C547 0.950 . S
C551 C542 1.390 . S
C551 H544 0.950 . S
C551 C548 1.387 . S
C552 C553 1.387 . S
C552 H556 0.950 . S
C552 C561 1.390 . S
C553 C552 1.387 . S
C553 C555 1.387 . S
H554 C561 0.950 . S
C555 C553 1.387 . S
C555 C557 1.390 . S
C555 H559 0.950 . S
H556 C552 0.950 . S
C557 C555 1.390 . S
C557 C558 1.387 . S
C557 H560 0.950 . S
C558 C557 1.387 . S
C558 C561 1.387 . S
H559 C555 0.950 . S
H560 C557 0.950 . S
C561 C552 1.390 . S
C561 H554 0.950 . S
C561 C558 1.387 . S
C562 C563 1.387 . S
C562 H566 0.950 . S
C562 C571 1.390 . S
C563 C562 1.387 . S
C563 C565 1.387 . S
H564 C571 0.950 . S
C565 C563 1.387 . S
C565 C567 1.390 . S
C565 H569 0.950 . S
H566 C562 0.950 . S
C567 C565 1.390 . S
C567 C568 1.387 . S
C567 H570 0.950 . S
C568 C567 1.387 . S
C568 C571 1.387 . S
H569 C565 0.950 . S
H570 C567 0.950 . S
C571 C562 1.390 . S
C571 H564 0.950 . S
C571 C568 1.387 . S
C572 C573 1.387 . S
C572 H576 0.950 . S
C572 C581 1.390 . S
C573 C572 1.387 . S
C573 C575 1.387 . S
H574 C581 0.950 . S
C575 C573 1.387 . S
C575 C577 1.390 . S
C575 H579 0.950 . S
H576 C572 0.950 . S
C577 C575 1.390 . S
C577 C578 1.387 . S
C577 H580 0.950 . S
C578 C577 1.387 . S
C578 C581 1.387 . S
H579 C575 0.950 . S
H580 C577 0.950 . S
C581 C572 1.390 . S
C581 H574 0.950 . S
C581 C578 1.387 . S
C582 C583 1.387 . S
C582 H586 0.950 . S
C582 C591 1.390 . S
C583 C582 1.387 . S
C583 C585 1.387 . S
H584 C591 0.950 . S
C585 C583 1.387 . S
C585 C587 1.390 . S
C585 H589 0.950 . S
H586 C582 0.950 . S
C587 C585 1.390 . S
C587 C588 1.387 . S
C587 H590 0.950 . S
C588 C587 1.387 . S
C588 C591 1.387 . S
H589 C585 0.950 . S
H590 C587 0.950 . S
C591 C582 1.390 . S
C591 H584 0.950 . S
C591 C588 1.387 . S
C592 C593 1.387 . S
C592 H596 0.950 1_554 S
C592 C601 1.390 1_455 S
C593 C592 1.387 . S
C593 C595 1.387 . S
H594 C601 0.950 1_556 S
C595 C593 1.387 . S
C595 C597 1.390 1_455 S
C595 H599 0.950 . S
H596 C592 0.950 1_556 S
C597 C595 1.390 1_655 S
C597 C598 1.387 . S
C597 H600 0.950 . S
C598 C597 1.387 . S
C598 C601 1.387 . S
H599 C595 0.950 . S
H600 C597 0.950 . S
C601 C592 1.390 1_655 S
C601 H594 0.950 1_554 S
C601 C598 1.387 . S
C602 C603 1.387 . S
C602 H606 0.950 . S
C602 C611 1.390 . S
C603 C602 1.387 . S
C603 C605 1.387 . S
H604 C611 0.950 . S
C605 C603 1.387 . S
C605 C607 1.390 . S
C605 H609 0.950 . S
H606 C602 0.950 . S
C607 C605 1.390 . S
C607 C608 1.387 . S
C607 H610 0.950 . S
C608 C607 1.387 . S
C608 C611 1.387 . S
H609 C605 0.950 . S
H610 C607 0.950 . S
C611 C602 1.390 . S
C611 H604 0.950 . S
C611 C608 1.387 . S
C612 C613 1.387 . S
C612 H616 0.950 . S
C612 C621 1.390 1_655 S
C613 C612 1.387 . S
C613 C615 1.387 . S
H614 C621 0.950 . S
C615 C613 1.387 . S
C615 C617 1.390 1_655 S
C615 H619 0.950 1_556 S
H616 C612 0.950 . S
C617 C615 1.390 1_455 S
C617 C618 1.387 . S
C617 H620 0.950 1_556 S
C618 C617 1.387 . S
C618 C621 1.387 . S
H619 C615 0.950 1_554 S
H620 C617 0.950 1_554 S
C621 C612 1.390 1_455 S
C621 H614 0.950 . S
C621 C618 1.387 . S
C622 C623 1.387 . S
C622 H626 0.950 . S
C622 C631 1.390 . S
C623 C622 1.387 . S
C623 C625 1.387 . S
H624 C631 0.950 . S
C625 C623 1.387 . S
C625 C627 1.390 . S
C625 H629 0.950 . S
H626 C622 0.950 . S
C627 C625 1.390 . S
C627 C628 1.387 . S
C627 H630 0.950 . S
C628 C627 1.387 . S
C628 C631 1.387 . S
H629 C625 0.950 . S
H630 C627 0.950 . S
C631 C622 1.390 . S
C631 H624 0.950 . S
C631 C628 1.387 . S
C632 C633 1.387 . S
C632 H636 0.950 1_554 S
C632 C641 1.390 . S
C633 C632 1.387 . S
C633 C635 1.387 . S
H634 C641 0.950 1_556 S
C635 C633 1.387 . S
C635 C637 1.390 . S
C635 H639 0.950 . S
H636 C632 0.950 1_556 S
C637 C635 1.390 . S
C637 C638 1.387 . S
C637 H640 0.950 . S
C638 C637 1.387 . S
C638 C641 1.387 . S
H639 C635 0.950 . S
H640 C637 0.950 . S
C641 C632 1.390 . S
C641 H634 0.950 1_554 S
C641 C638 1.387 . S
C642 C643 1.387 . S
C642 H646 0.950 . S
C642 C651 1.390 1_655 S
C643 C642 1.387 . S
C643 C645 1.387 . S
H644 C651 0.950 . S
C645 C643 1.387 . S
C645 C647 1.390 1_655 S
C645 H649 0.950 . S
H646 C642 0.950 . S
C647 C645 1.390 1_455 S
C647 C648 1.387 . S
C647 H650 0.950 . S
C648 C647 1.387 . S
C648 C651 1.387 . S
H649 C645 0.950 . S
H650 C647 0.950 . S
C651 C642 1.390 1_455 S
C651 H644 0.950 . S
C651 C648 1.387 . S
C652 C653 1.387 . S
C652 H656 0.950 . S
C652 C661 1.390 . S
C653 C652 1.387 . S
C653 C655 1.387 . S
H654 C661 0.950 . S
C655 C653 1.387 . S
C655 C657 1.390 . S
C655 H659 0.950 1_556 S
H656 C652 0.950 . S
C657 C655 1.390 . S
C657 C658 1.387 . S
C657 H660 0.950 1_556 S
C658 C657 1.387 . S
C658 C661 1.387 . S
H659 C655 0.950 1_554 S
H660 C657 0.950 1_554 S
C661 C652 1.390 . S
C661 H654 0.950 . S
C661 C658 1.387 . S
C662 C663 1.387 . S
C662 H666 0.950 . S
C662 C671 1.390 1_455 S
C663 C662 1.387 . S
C663 C665 1.387 . S
H664 C671 0.950 . S
C665 C663 1.387 . S
C665 C667 1.390 1_455 S
C665 H669 0.950 . S
H666 C662 0.950 . S
C667 C665 1.390 1_655 S
C667 C668 1.387 . S
C667 H670 0.950 . S
C668 C667 1.387 . S
C668 C671 1.387 . S
H669 C665 0.950 . S
H670 C667 0.950 . S
C671 C662 1.390 1_655 S
C671 H664 0.950 . S
C671 C668 1.387 . S
C672 C673 1.387 . S
C672 H676 0.950 . S
C672 C681 1.390 1_544 S
C673 C672 1.387 . S
C673 C675 1.387 . S
H674 C681 0.950 . S
C675 C673 1.387 . S
C675 C677 1.390 1_544 S
C675 H679 0.950 . S
H676 C672 0.950 . S
C677 C675 1.390 1_566 S
C677 C678 1.387 . S
C677 H680 0.950 . S
C678 C677 1.387 . S
C678 C681 1.387 . S
H679 C675 0.950 . S
H680 C677 0.950 . S
C681 C672 1.390 1_566 S
C681 H674 0.950 . S
C681 C678 1.387 . S
C682 C683 1.387 . S
C682 H686 0.950 . S
C682 C691 1.390 1_565 S
C683 C682 1.387 . S
C683 C685 1.387 . S
H684 C691 0.950 . S
C685 C683 1.387 . S
C685 C687 1.390 1_565 S
C685 H689 0.950 . S
H686 C682 0.950 . S
C687 C685 1.390 1_545 S
C687 C688 1.387 . S
C687 H690 0.950 . S
C688 C687 1.387 . S
C688 C691 1.387 . S
H689 C685 0.950 . S
H690 C687 0.950 . S
C691 C682 1.390 1_545 S
C691 H684 0.950 . S
C691 C688 1.387 . S
C692 C693 1.387 . S
C692 H696 0.950 . S
C692 C701 1.390 1_544 S
C693 C692 1.387 . S
C693 C695 1.387 . S
H694 C701 0.950 . S
C695 C693 1.387 . S
C695 C697 1.390 1_544 S
C695 H699 0.950 . S
H696 C692 0.950 . S
C697 C695 1.390 1_566 S
C697 C698 1.387 . S
C697 H700 0.950 . S
C698 C697 1.387 . S
C698 C701 1.387 . S
H699 C695 0.950 . S
H700 C697 0.950 . S
C701 C692 1.390 1_566 S
C701 H694 0.950 . S
C701 C698 1.387 . S
C702 C703 1.387 . S
C702 H706 0.950 . S
C702 C711 1.390 1_545 S
C703 C702 1.387 . S
C703 C705 1.387 . S
H704 C711 0.950 . S
C705 C703 1.387 . S
C705 C707 1.390 1_545 S
C705 H709 0.950 . S
H706 C702 0.950 . S
C707 C705 1.390 1_565 S
C707 C708 1.387 . S
C707 H710 0.950 . S
C708 C707 1.387 . S
C708 C711 1.387 . S
H709 C705 0.950 . S
H710 C707 0.950 . S
C711 C702 1.390 1_565 S
C711 H704 0.950 . S
C711 C708 1.387 . S
C712 C713 1.387 . S
C712 H716 0.950 . S
C712 C721 1.390 1_554 S
C713 C712 1.387 . S
C713 C715 1.387 . S
H714 C721 0.950 . S
C715 C713 1.387 . S
C715 C717 1.390 1_554 S
C715 H719 0.950 . S
H716 C712 0.950 . S
C717 C715 1.390 1_556 S
C717 C718 1.387 . S
C717 H720 0.950 . S
C718 C717 1.387 . S
C718 C721 1.387 . S
H719 C715 0.950 . S
H720 C717 0.950 . S
C721 C712 1.390 1_556 S
C721 H714 0.950 . S
C721 C718 1.387 . S
C722 C723 1.387 . S
C722 H726 0.950 . S
C722 C731 1.390 . S
C723 C722 1.387 . S
C723 C725 1.387 . S
H724 C731 0.950 . S
C725 C723 1.387 . S
C725 C727 1.390 . S
C725 H729 0.950 . S
H726 C722 0.950 . S
C727 C725 1.390 . S
C727 C728 1.387 . S
C727 H730 0.950 . S
C728 C727 1.387 . S
C728 C731 1.387 . S
H729 C725 0.950 . S
H730 C727 0.950 . S
C731 C722 1.390 . S
C731 H724 0.950 . S
C731 C728 1.387 . S
C732 C733 1.387 . S
C732 H736 0.950 . S
C732 C741 1.390 1_556 S
C733 C732 1.387 . S
C733 C735 1.387 . S
H734 C741 0.950 . S
C735 C733 1.387 . S
C735 C737 1.390 1_556 S
C735 H739 0.950 . S
H736 C732 0.950 . S
C737 C735 1.390 1_554 S
C737 C738 1.387 . S
C737 H740 0.950 . S
C738 C737 1.387 . S
C738 C741 1.387 . S
H739 C735 0.950 . S
H740 C737 0.950 . S
C741 C732 1.390 1_554 S
C741 H734 0.950 . S
C741 C738 1.387 . S
C742 C743 1.387 . S
C742 H746 0.950 . S
C742 C751 1.390 . S
C743 C742 1.387 . S
C743 C745 1.387 . S
H744 C751 0.950 . S
C745 C743 1.387 . S
C745 C747 1.390 . S
C745 H749 0.950 . S
H746 C742 0.950 . S
C747 C745 1.390 . S
C747 C748 1.387 . S
C747 H750 0.950 . S
C748 C747 1.387 . S
C748 C751 1.387 . S
H749 C745 0.950 . S
H750 C747 0.950 . S
C751 C742 1.390 . S
C751 H744 0.950 . S
C751 C748 1.387 . S
C752 C753 1.387 . S
C752 H756 0.950 . S
C752 C761 1.390 1_554 S
C753 C752 1.387 . S
C753 C755 1.387 . S
H754 C761 0.950 . S
C755 C753 1.387 . S
C755 C757 1.390 1_554 S
C755 H759 0.950 . S
H756 C752 0.950 . S
C757 C755 1.390 1_556 S
C757 C758 1.387 . S
C757 H760 0.950 . S
C758 C757 1.387 . S
C758 C761 1.387 . S
H759 C755 0.950 . S
H760 C757 0.950 . S
C761 C752 1.390 1_556 S
C761 H754 0.950 . S
C761 C758 1.387 . S
C762 C763 1.387 . S
C762 H766 0.950 . S
C762 C771 1.390 . S
C763 C762 1.387 . S
C763 C765 1.387 . S
H764 C771 0.950 . S
C765 C763 1.387 . S
C765 C767 1.390 . S
C765 H769 0.950 . S
H766 C762 0.950 . S
C767 C765 1.390 . S
C767 C768 1.387 . S
C767 H770 0.950 . S
C768 C767 1.387 . S
C768 C771 1.387 . S
H769 C765 0.950 . S
H770 C767 0.950 . S
C771 C762 1.390 . S
C771 H764 0.950 . S
C771 C768 1.387 . S
C772 C773 1.387 . S
C772 H776 0.950 . S
C772 C781 1.390 1_556 S
C773 C772 1.387 . S
C773 C775 1.387 . S
H774 C781 0.950 . S
C775 C773 1.387 . S
C775 C777 1.390 1_556 S
C775 H779 0.950 . S
H776 C772 0.950 . S
C777 C775 1.390 1_554 S
C777 C778 1.387 . S
C777 H780 0.950 . S
C778 C777 1.387 . S
C778 C781 1.387 . S
H779 C775 0.950 . S
H780 C777 0.950 . S
C781 C772 1.390 1_554 S
C781 H774 0.950 . S
C781 C778 1.387 . S
C782 C783 1.387 . S
C782 H786 0.950 . S
C782 C791 1.390 . S
C783 C782 1.387 . S
C783 C785 1.387 . S
H784 C791 0.950 . S
C785 C783 1.387 . S
C785 C787 1.390 . S
C785 H789 0.950 . S
H786 C782 0.950 . S
C787 C785 1.390 . S
C787 C788 1.387 . S
C787 H790 0.950 . S
C788 C787 1.387 . S
C788 C791 1.387 . S
H789 C785 0.950 . S
H790 C787 0.950 . S
C791 C782 1.390 . S
C791 H784 0.950 . S
C791 C788 1.387 . S
C792 C793 1.387 . S
C792 H796 0.950 . S
C792 C801 1.390 1_556 S
C793 C792 1.387 . S
C793 C795 1.387 . S
H794 C801 0.950 . S
C795 C793 1.387 . S
C795 C797 1.390 1_556 S
C795 H799 0.950 . S
H796 C792 0.950 . S
C797 C795 1.390 1_554 S
C797 C798 1.387 . S
C797 H800 0.950 . S
C798 C797 1.387 . S
C798 C801 1.387 . S
H799 C795 0.950 . S
H800 C797 0.950 . S
C801 C792 1.390 1_554 S
C801 H794 0.950 . S
C801 C798 1.387 . S
C802 C803 1.387 . S
C802 H806 0.950 . S
C802 C811 1.390 . S
C803 C802 1.387 . S
C803 C805 1.387 . S
H804 C811 0.950 . S
C805 C803 1.387 . S
C805 C807 1.390 . S
C805 H809 0.950 . S
H806 C802 0.950 . S
C807 C805 1.390 . S
C807 C808 1.387 . S
C807 H810 0.950 . S
C808 C807 1.387 . S
C808 C811 1.387 . S
H809 C805 0.950 . S
H810 C807 0.950 . S
C811 C802 1.390 . S
C811 H804 0.950 . S
C811 C808 1.387 . S
C812 C813 1.387 . S
C812 H816 0.950 . S
C812 C821 1.390 1_556 S
C813 C812 1.387 . S
C813 C815 1.387 . S
H814 C821 0.950 . S
C815 C813 1.387 . S
C815 C817 1.390 1_556 S
C815 H819 0.950 . S
H816 C812 0.950 . S
C817 C815 1.390 1_554 S
C817 C818 1.387 . S
C817 H820 0.950 . S
C818 C817 1.387 . S
C818 C821 1.387 . S
H819 C815 0.950 . S
H820 C817 0.950 . S
C821 C812 1.390 1_554 S
C821 H814 0.950 . S
C821 C818 1.387 . S
C822 C823 1.387 . S
C822 H826 0.950 . S
C822 C831 1.390 . S
C823 C822 1.387 . S
C823 C825 1.387 . S
H824 C831 0.950 . S
C825 C823 1.387 . S
C825 C827 1.390 . S
C825 H829 0.950 . S
H826 C822 0.950 . S
C827 C825 1.390 . S
C827 C828 1.387 . S
C827 H830 0.950 . S
C828 C827 1.387 . S
C828 C831 1.387 . S
H829 C825 0.950 . S
H830 C827 0.950 . S
C831 C822 1.390 . S
C831 H824 0.950 . S
C831 C828 1.387 . S
C353 C8 1.644 . S
C358 C70 1.644 . S
C363 C52 1.644 . S
C368 C30 1.644 . S
C373 C158 1.644 . S
C378 C96 1.644 . S
C383 C114 1.644 . S
C388 C136 1.644 . S
C393 C246 1.644 . S
C398 C184 1.644 . S
C403 C228 1.644 . S
C408 C206 1.644 . S
C413 C272 1.644 . S
C418 C334 1.644 . S
C423 C312 1.644 . S
C428 C290 1.644 . S
C433 C5 1.509 . S
C438 C336 1.645 . S
C443 C27 1.505 . S
C448 C314 1.645 . S
C453 C292 1.645 . S
C458 C49 1.505 . S
C463 C271 1.646 . S
C468 C75 1.509 . S
C473 C94 1.505 . S
C478 C247 1.645 . S
C483 C117 1.509 . S
C488 C229 1.646 . S
C493 C207 1.645 . S
C498 C139 1.505 . S
C503 C185 1.645 . S
C508 C161 1.508 . S
C513 C181 1.505 . S
C518 C160 1.645 . S
C523 C203 1.505 . S
C528 C138 1.645 . S
C533 C225 1.505 . S
C538 C116 1.645 . S
C543 C251 1.509 . S
C548 C95 1.646 . S
C553 C71 1.645 . S
C558 C270 1.505 . S
C563 C53 1.645 . S
C568 C293 1.505 . S
C573 C315 1.505 . S
C578 C31 1.645 . S
C583 C337 1.505 . S
C588 C9 1.645 . S
C593 C6 1.447 . S
C598 C141 1.447 . S
C603 C28 1.447 . S
C608 C163 1.446 . S
C613 C93 1.446 . S
C618 C50 1.447 . S
C623 C73 1.446 . S
C628 C119 1.447 . S
C633 C182 1.446 . S
C638 C317 1.447 . S
C643 C204 1.447 . S
C648 C339 1.446 . S
C653 C226 1.447 . S
C658 C269 1.447 . S
C663 C295 1.447 . S
C668 C249 1.446 . S
C673 C4 1.515 . S
C678 C48 1.515 . S
C683 C26 1.515 . S
C688 C74 1.515 . S
C693 C140 1.517 . S
C698 C92 1.517 . S
C703 C118 1.515 . S
C708 C162 1.515 . S
C713 C180 1.515 . S
C718 C224 1.515 . S
C723 C250 1.515 . S
C728 C202 1.515 . S
C733 C268 1.517 . S
C738 C316 1.517 . S
C743 C294 1.515 . S
C748 C338 1.515 . S
C753 C7 1.191 . S
C758 C273 1.191 . S
C763 C29 1.191 . S
C768 C291 1.191 . S
C773 C51 1.191 . S
C778 C313 1.191 . S
C783 C72 1.192 . S
C788 C335 1.192 . S
C793 C97 1.191 . S
C798 C183 1.191 . S
C803 C205 1.195 . S
C808 C115 1.195 . S
C813 C227 1.195 . S
C818 C137 1.195 . S
C823 C248 1.191 . S
C828 C159 1.191 . S
