# Generated by pormake.
# Topology fnr, (5)-cn, num edge types: 1
# Building blocks:
#     Node 0, Type 0, BuildingBlock: XOMCOT_clean_sbu_0, # of connection points: 5
#     Node 1, Type 0, BuildingBlock: XOMCOT_clean_sbu_0, # of connection points: 5
#     Node 2, Type 0, BuildingBlock: XOMCOT_clean_sbu_0, # of connection points: 5
#     Node 3, Type 0, BuildingBlock: XOMCOT_clean_sbu_0, # of connection points: 5
#     Node 4, Type 0, BuildingBlock: XOMCOT_clean_sbu_0, # of connection points: 5
#     Node 5, Type 0, BuildingBlock: XOMCOT_clean_sbu_0, # of connection points: 5
#     Node 6, Type 0, BuildingBlock: XOMCOT_clean_sbu_0, # of connection points: 5
#     Node 7, Type 0, BuildingBlock: XOMCOT_clean_sbu_0, # of connection points: 5
#     Node 8, Type 0, BuildingBlock: XOMCOT_clean_sbu_0, # of connection points: 5
#     Node 9, Type 0, BuildingBlock: XOMCOT_clean_sbu_0, # of connection points: 5
#     Node 10, Type 0, BuildingBlock: XOMCOT_clean_sbu_0, # of connection points: 5
#     Node 11, Type 0, BuildingBlock: XOMCOT_clean_sbu_0, # of connection points: 5
#     Edge 12, Type (0, 0), BuildingBlock: XUDNAN_clean_linker_2, # of connection points: 2
#     Edge 13, Type (0, 0), BuildingBlock: XUDNAN_clean_linker_2, # of connection points: 2
#     Edge 14, Type (0, 0), BuildingBlock: XUDNAN_clean_linker_2, # of connection points: 2
#     Edge 15, Type (0, 0), BuildingBlock: XUDNAN_clean_linker_2, # of connection points: 2
#     Edge 16, Type (0, 0), BuildingBlock: XUDNAN_clean_linker_2, # of connection points: 2
#     Edge 17, Type (0, 0), BuildingBlock: XUDNAN_clean_linker_2, # of connection points: 2
#     Edge 18, Type (0, 0), BuildingBlock: XUDNAN_clean_linker_2, # of connection points: 2
#     Edge 19, Type (0, 0), BuildingBlock: XUDNAN_clean_linker_2, # of connection points: 2
#     Edge 20, Type (0, 0), BuildingBlock: XUDNAN_clean_linker_2, # of connection points: 2
#     Edge 21, Type (0, 0), BuildingBlock: XUDNAN_clean_linker_2, # of connection points: 2
#     Edge 22, Type (0, 0), BuildingBlock: XUDNAN_clean_linker_2, # of connection points: 2
#     Edge 23, Type (0, 0), BuildingBlock: XUDNAN_clean_linker_2, # of connection points: 2
#     Edge 24, Type (0, 0), BuildingBlock: XUDNAN_clean_linker_2, # of connection points: 2
#     Edge 25, Type (0, 0), BuildingBlock: XUDNAN_clean_linker_2, # of connection points: 2
#     Edge 26, Type (0, 0), BuildingBlock: XUDNAN_clean_linker_2, # of connection points: 2
#     Edge 27, Type (0, 0), BuildingBlock: XUDNAN_clean_linker_2, # of connection points: 2
#     Edge 28, Type (0, 0), BuildingBlock: XUDNAN_clean_linker_2, # of connection points: 2
#     Edge 29, Type (0, 0), BuildingBlock: XUDNAN_clean_linker_2, # of connection points: 2
#     Edge 30, Type (0, 0), BuildingBlock: XUDNAN_clean_linker_2, # of connection points: 2
#     Edge 31, Type (0, 0), BuildingBlock: XUDNAN_clean_linker_2, # of connection points: 2
#     Edge 32, Type (0, 0), BuildingBlock: XUDNAN_clean_linker_2, # of connection points: 2
#     Edge 33, Type (0, 0), BuildingBlock: XUDNAN_clean_linker_2, # of connection points: 2
#     Edge 34, Type (0, 0), BuildingBlock: XUDNAN_clean_linker_2, # of connection points: 2
#     Edge 35, Type (0, 0), BuildingBlock: XUDNAN_clean_linker_2, # of connection points: 2
#     Edge 36, Type (0, 0), BuildingBlock: XUDNAN_clean_linker_2, # of connection points: 2
#     Edge 37, Type (0, 0), BuildingBlock: XUDNAN_clean_linker_2, # of connection points: 2
#     Edge 38, Type (0, 0), BuildingBlock: XUDNAN_clean_linker_2, # of connection points: 2
#     Edge 39, Type (0, 0), BuildingBlock: XUDNAN_clean_linker_2, # of connection points: 2
#     Edge 40, Type (0, 0), BuildingBlock: XUDNAN_clean_linker_2, # of connection points: 2
#     Edge 41, Type (0, 0), BuildingBlock: XUDNAN_clean_linker_2, # of connection points: 2
# Relax obj value: 0.290
# Max RMSD: 0.219
# Mean RMSD: 0.219
data_MOF--net-fnr--node1-XOMCOT_clean_sbu_0--edge1-XUDNAN_clean_linker_2
_symmetry_space_group_name_H-M    P1
_symmetry_Int_Tables_number       1
_symmetry_cell_setting            triclinic
loop_
_symmetry_equiv_pos_as_xyz
'x, y, z'
_cell_length_a     40.560885
_cell_length_b     40.499893
_cell_length_c     52.406664
_cell_angle_alpha  90.053409
_cell_angle_beta   90.085983
_cell_angle_gamma 119.85317
loop_
_atom_site_label
_atom_site_type_symbol
_atom_site_fract_x
_atom_site_fract_y
_atom_site_fract_z
_atom_type_partial_charge
Co0 Co 0.41182 0.17385 0.08094 0.0
C1 C 0.37258 0.21095 0.05692 0.0
C2 C 0.33535 0.16469 0.08127 0.0
C3 C 0.31541 0.18095 0.07124 0.0
N4 N 0.37114 0.1836 0.07234 0.0
N5 N 0.3388 0.21008 0.05591 0.0
H6 H 0.39779 0.23086 0.0466 0.0
H7 H 0.32469 0.14109 0.09448 0.0
C8 C 0.47694 0.25071 0.09306 0.0
O9 O 0.48276 0.2363 0.11391 0.0
N10 N 0.45314 0.16393 0.08873 0.0
C11 C 0.45177 0.1347 0.10197 0.0
C12 C 0.48596 0.13564 0.09963 0.0
C13 C 0.48791 0.18126 0.07771 0.0
N14 N 0.50874 0.16492 0.08433 0.0
C15 C 0.38834 0.14676 0.1322 0.0
C16 C 0.39574 0.2135 0.15167 0.0
C17 C 0.38493 0.1825 0.16807 0.0
C18 C 0.38068 0.1486 0.15795 0.0
C19 C 0.40353 0.2105 0.12608 0.0
N20 N 0.40208 0.17814 0.11694 0.0
H21 H 0.38163 0.11956 0.12441 0.0
H22 H 0.41018 0.23414 0.11355 0.0
H23 H 0.4273 0.11246 0.11144 0.0
H24 H 0.4971 0.20435 0.06418 0.0
O25 O 0.37785 0.11994 0.07621 0.0
O26 O 0.41373 0.16014 0.046 0.0
O27 O 0.44942 0.22989 0.0781 0.0
C28 C 0.38915 0.12544 0.05259 0.0
H29 H 0.28612 0.17239 0.07543 0.0
H30 H 0.49307 0.1157 0.10822 0.0
H31 H 0.39828 0.23991 0.15854 0.0
H32 H 0.37036 0.12334 0.16966 0.0
Co33 Co 0.22815 0.41152 0.56782 0.0
C34 C 0.1598 0.35312 0.53836 0.0
C35 C 0.14545 0.37196 0.57271 0.0
C36 C 0.11243 0.34667 0.56063 0.0
N37 N 0.17537 0.37562 0.55918 0.0
N38 N 0.12128 0.33479 0.53904 0.0
H39 H 0.17599 0.35065 0.52284 0.0
H40 H 0.14736 0.38773 0.58984 0.0
C41 C 0.23016 0.48874 0.56827 0.0
O42 O 0.26493 0.50759 0.57717 0.0
N43 N 0.28082 0.44707 0.57637 0.0
C44 C 0.29964 0.44618 0.59735 0.0
C45 C 0.33565 0.47724 0.59704 0.0
C46 C 0.30669 0.47691 0.56258 0.0
N47 N 0.33982 0.49684 0.57537 0.0
C48 C 0.20038 0.36817 0.61372 0.0
C49 C 0.2156 0.42828 0.64594 0.0
C50 C 0.19987 0.39162 0.65612 0.0
C51 C 0.19189 0.36121 0.63969 0.0
C52 C 0.2228 0.43386 0.61982 0.0
N53 N 0.21531 0.40407 0.60401 0.0
H54 H 0.19475 0.34465 0.60125 0.0
H55 H 0.23574 0.4624 0.61269 0.0
H56 H 0.28773 0.42512 0.61233 0.0
H57 H 0.30018 0.48591 0.54474 0.0
O58 O 0.24278 0.37318 0.56371 0.0
O59 O 0.24371 0.41129 0.53299 0.0
O60 O 0.21343 0.45265 0.56485 0.0
C61 C 0.25138 0.38505 0.54031 0.0
H62 H 0.08397 0.339 0.56664 0.0
H63 H 0.35661 0.48576 0.61212 0.0
H64 H 0.22212 0.45246 0.65808 0.0
H65 H 0.17986 0.33247 0.64694 0.0
Co66 Co 0.8443 0.23169 0.0699 0.0
C67 C 0.81873 0.1483 0.05773 0.0
C68 C 0.84255 0.18578 0.0258 0.0
C69 C 0.83193 0.14957 0.01787 0.0
N70 N 0.83483 0.18565 0.05093 0.0
N71 N 0.8169 0.12603 0.03781 0.0
H72 H 0.80764 0.13727 0.07647 0.0
H73 H 0.85433 0.21032 0.01344 0.0
C74 C 0.7601 0.1928 0.06204 0.0
O75 O 0.75794 0.16121 0.07028 0.0
N76 N 0.85373 0.2778 0.08735 0.0
C77 C 0.87405 0.29261 0.10886 0.0
C78 C 0.8728 0.32502 0.11513 0.0
C79 C 0.84104 0.30171 0.08054 0.0
N80 N 0.85202 0.3307 0.09733 0.0
C81 C 0.84769 0.19049 0.1127 0.0
C82 C 0.80056 0.20427 0.14356 0.0
C83 C 0.82532 0.19382 0.15496 0.0
C84 C 0.84767 0.18507 0.13903 0.0
C85 C 0.80165 0.20966 0.11709 0.0
N86 N 0.82623 0.20431 0.1021 0.0
H87 H 0.86767 0.18688 0.10108 0.0
H88 H 0.78595 0.22238 0.10923 0.0
H89 H 0.88829 0.28037 0.11942 0.0
H90 H 0.82348 0.29754 0.06395 0.0
O91 O 0.89706 0.24643 0.07403 0.0
O92 O 0.87418 0.2635 0.04141 0.0
O93 O 0.79243 0.223 0.06009 0.0
C94 C 0.90361 0.26542 0.05296 0.0
H95 H 0.83387 0.14087 0.99865 0.0
H96 H 0.88625 0.34307 0.13154 0.0
H97 H 0.78314 0.21172 0.15517 0.0
H98 H 0.86691 0.1765 0.14702 0.0
Co99 Co 0.60543 0.83692 0.57347 0.0
C100 C 0.66175 0.81015 0.56301 0.0
C101 C 0.62195 0.80027 0.53281 0.0
C102 C 0.64316 0.78402 0.52597 0.0
N103 N 0.6332 0.81644 0.55598 0.0
N104 N 0.66798 0.78991 0.54491 0.0
H105 H 0.67655 0.81881 0.58111 0.0
H106 H 0.59889 0.79942 0.52189 0.0
C107 C 0.53005 0.76698 0.58179 0.0
O108 O 0.52982 0.77988 0.60478 0.0
N109 N 0.57508 0.85673 0.58886 0.0
C110 C 0.58411 0.88503 0.60594 0.0
C111 C 0.55393 0.89171 0.60792 0.0
C112 C 0.54049 0.84821 0.57995 0.0
N113 N 0.52647 0.86812 0.59168 0.0
C114 C 0.6334 0.84614 0.62473 0.0
C115 C 0.60231 0.77008 0.63665 0.0
C116 C 0.61813 0.79717 0.65635 0.0
C117 C 0.6354 0.83573 0.64981 0.0
C118 C 0.60137 0.78192 0.61164 0.0
N119 N 0.61373 0.81938 0.60646 0.0
H120 H 0.64713 0.87598 0.62025 0.0
H121 H 0.58943 0.76075 0.5967 0.0
H122 H 0.61108 0.90125 0.61549 0.0
H123 H 0.52624 0.8286 0.56439 0.0
O124 O 0.64932 0.88698 0.57401 0.0
O125 O 0.60725 0.86457 0.54252 0.0
O126 O 0.55769 0.78659 0.56663 0.0
C127 C 0.6378 0.89298 0.55233 0.0
H128 H 0.64052 0.76887 0.50836 0.0
H129 H 0.55246 0.91248 0.62017 0.0
H130 H 0.5901 0.74 0.64061 0.0
H131 H 0.64883 0.85784 0.66412 0.0
Co132 Co 0.77888 0.59918 0.07507 0.0
C133 C 0.85028 0.64405 0.04478 0.0
C134 C 0.86072 0.63276 0.08309 0.0
C135 C 0.89497 0.65276 0.07093 0.0
N136 N 0.83262 0.62793 0.06699 0.0
N137 N 0.88836 0.6597 0.04693 0.0
H138 H 0.8359 0.64416 0.02742 0.0
H139 H 0.85671 0.62161 0.10226 0.0
C140 C 0.79362 0.53535 0.06475 0.0
O141 O 0.79917 0.54577 0.0407 0.0
N142 N 0.72574 0.56955 0.08331 0.0
C143 C 0.70572 0.57723 0.10048 0.0
C144 C 0.66946 0.54626 0.10174 0.0
C145 C 0.70151 0.5348 0.07395 0.0
N146 N 0.66707 0.51998 0.08491 0.0
C147 C 0.80638 0.65057 0.11716 0.0
C148 C 0.7885 0.59645 0.1548 0.0
C149 C 0.80534 0.63496 0.16183 0.0
C150 C 0.81405 0.66212 0.14258 0.0
C151 C 0.78084 0.58606 0.12916 0.0
N152 N 0.79032 0.61307 0.11071 0.0
H153 H 0.81353 0.67183 0.10252 0.0
H154 H 0.76667 0.55621 0.12426 0.0
H155 H 0.71699 0.60292 0.11182 0.0
H156 H 0.70938 0.52002 0.06017 0.0
O157 O 0.77163 0.64071 0.06462 0.0
O158 O 0.76451 0.59387 0.03916 0.0
O159 O 0.78438 0.55312 0.08069 0.0
C160 C 0.76197 0.62452 0.04242 0.0
H161 H 0.92262 0.66054 0.07878 0.0
H162 H 0.6468 0.543 0.11424 0.0
H163 H 0.78147 0.57442 0.16889 0.0
H164 H 0.82633 0.69207 0.14704 0.0
Co165 Co 0.18502 0.78924 0.57829 0.0
C166 C 0.19951 0.86133 0.55255 0.0
C167 C 0.23129 0.8718 0.58727 0.0
C168 C 0.24105 0.90617 0.57626 0.0
N169 N 0.20448 0.84346 0.57284 0.0
N170 N 0.22122 0.89964 0.55443 0.0
H171 H 0.1813 0.84687 0.53642 0.0
H172 H 0.24453 0.86802 0.60406 0.0
C173 C 0.25671 0.7822 0.56946 0.0
O174 O 0.23967 0.74593 0.57508 0.0
N175 N 0.165 0.73504 0.58349 0.0
C176 C 0.14382 0.71465 0.60353 0.0
C177 C 0.13275 0.67693 0.59977 0.0
C178 C 0.16451 0.70901 0.56711 0.0
N179 N 0.1462 0.67356 0.57703 0.0
C180 C 0.17981 0.81276 0.62866 0.0
C181 C 0.21877 0.7818 0.65277 0.0
C182 C 0.19879 0.79479 0.66747 0.0
C183 C 0.18036 0.8118 0.65527 0.0
C184 C 0.21813 0.78395 0.62626 0.0
N185 N 0.19775 0.79809 0.61444 0.0
H186 H 0.16343 0.82371 0.61936 0.0
H187 H 0.23127 0.77111 0.61555 0.0
H188 H 0.13717 0.72643 0.61995 0.0
H189 H 0.17854 0.71602 0.54874 0.0
O190 O 0.13417 0.77979 0.58126 0.0
O191 O 0.1602 0.77709 0.54479 0.0
O192 O 0.23847 0.80046 0.56948 0.0
C193 C 0.13004 0.77222 0.55709 0.0
H194 H 0.26273 0.93384 0.58304 0.0
H195 H 0.1177 0.65403 0.61327 0.0
H196 H 0.23325 0.76839 0.66168 0.0
H197 H 0.16445 0.82196 0.66612 0.0
Co198 Co 0.84074 0.61966 0.43341 0.0
C199 C 0.81159 0.66196 0.46341 0.0
C200 C 0.85396 0.69724 0.43603 0.0
C201 C 0.84541 0.72001 0.45079 0.0
N202 N 0.83288 0.66093 0.44395 0.0
N203 N 0.81894 0.69788 0.46799 0.0
H204 H 0.79275 0.63746 0.47479 0.0
H205 H 0.87541 0.70678 0.42132 0.0
C206 C 0.76466 0.55382 0.42047 0.0
O207 O 0.78102 0.54832 0.40057 0.0
N208 N 0.84977 0.57846 0.4235 0.0
C209 C 0.87244 0.57778 0.40488 0.0
C210 C 0.86859 0.54216 0.40384 0.0
C211 C 0.83396 0.54358 0.43433 0.0
N212 N 0.84419 0.52065 0.42219 0.0
C213 C 0.86971 0.65066 0.38401 0.0
C214 C 0.80205 0.63783 0.36271 0.0
C215 C 0.83473 0.65319 0.34748 0.0
C216 C 0.86905 0.66043 0.35865 0.0
C217 C 0.80411 0.62867 0.38816 0.0
N218 N 0.83709 0.63247 0.39799 0.0
H219 H 0.8968 0.65792 0.39235 0.0
H220 H 0.77919 0.61909 0.3999 0.0
H221 H 0.89083 0.60103 0.39271 0.0
H222 H 0.81385 0.53459 0.44992 0.0
O223 O 0.89471 0.65232 0.43822 0.0
O224 O 0.85484 0.61545 0.46813 0.0
O225 O 0.78383 0.58225 0.4354 0.0
C226 C 0.88949 0.64034 0.4616 0.0
H227 H 0.85813 0.75061 0.44931 0.0
H228 H 0.88262 0.53272 0.39055 0.0
H229 H 0.77529 0.63344 0.35513 0.0
H230 H 0.89521 0.67299 0.3478 0.0
Co231 Co 0.2376 0.8272 0.93876 0.0
C232 C 0.15588 0.79335 0.9522 0.0
C233 C 0.1851 0.85424 0.95542 0.0
C234 C 0.14802 0.84037 0.96259 0.0
N235 N 0.19038 0.82478 0.94921 0.0
N236 N 0.12974 0.80221 0.96057 0.0
H237 H 0.15009 0.76458 0.94891 0.0
H238 H 0.20642 0.88402 0.955 0.0
C239 C 0.22783 0.76103 0.96924 0.0
O240 O 0.25743 0.78467 0.98293 0.0
N241 N 0.28515 0.83004 0.92792 0.0
C242 C 0.31617 0.86127 0.91873 0.0
C243 C 0.34496 0.85324 0.91514 0.0
C244 C 0.29552 0.80303 0.92881 0.0
N245 N 0.33186 0.81669 0.92152 0.0
C246 C 0.20486 0.83008 0.89141 0.0
C247 C 0.20555 0.7684 0.86929 0.0
C248 C 0.19477 0.79028 0.85441 0.0
C249 C 0.19358 0.82092 0.86602 0.0
C250 C 0.21611 0.77823 0.8947 0.0
N251 N 0.21657 0.80928 0.9052 0.0
H252 H 0.20508 0.85452 0.89991 0.0
H253 H 0.22526 0.76161 0.90556 0.0
H254 H 0.31843 0.88854 0.91503 0.0
H255 H 0.27741 0.77399 0.9347 0.0
O256 O 0.26022 0.88094 0.93292 0.0
O257 O 0.26231 0.85504 0.96976 0.0
O258 O 0.21658 0.77337 0.95074 0.0
C259 C 0.27202 0.8857 0.95642 0.0
H260 H 0.1354 0.85706 0.96891 0.0
H261 H 0.37335 0.87272 0.90835 0.0
H262 H 0.20744 0.7448 0.86118 0.0
H263 H 0.18472 0.83818 0.85549 0.0
Co264 Co 0.41668 0.24445 0.43801 0.0
C265 C 0.35257 0.16568 0.45476 0.0
C266 C 0.39057 0.2004 0.48438 0.0
C267 C 0.36453 0.16641 0.49482 0.0
N268 N 0.38334 0.20058 0.45926 0.0
N269 N 0.34064 0.1444 0.47632 0.0
H270 H 0.34013 0.15505 0.43625 0.0
H271 H 0.41438 0.22305 0.49444 0.0
C272 C 0.45397 0.19788 0.43896 0.0
O273 O 0.41938 0.16898 0.43656 0.0
N274 N 0.45101 0.28939 0.41889 0.0
C275 C 0.44168 0.30727 0.40102 0.0
C276 C 0.47278 0.34279 0.39675 0.0
C277 C 0.48757 0.31396 0.42507 0.0
N278 N 0.50148 0.34671 0.4118 0.0
C279 C 0.36369 0.20312 0.39812 0.0
C280 C 0.4173 0.2082 0.36344 0.0
C281 C 0.38018 0.19579 0.35489 0.0
C282 C 0.35294 0.19218 0.37281 0.0
C283 C 0.42683 0.21877 0.38891 0.0
N284 N 0.40024 0.21624 0.40601 0.0
H285 H 0.34303 0.20323 0.41105 0.0
H286 H 0.45645 0.23215 0.39421 0.0
H287 H 0.41358 0.2963 0.39294 0.0
H288 H 0.50266 0.30924 0.4404 0.0
O289 O 0.38004 0.2612 0.43843 0.0
O290 O 0.42518 0.27758 0.46757 0.0
O291 O 0.45898 0.23151 0.44183 0.0
C292 C 0.39641 0.28025 0.45887 0.0
H293 H 0.36453 0.15777 0.51437 0.0
H294 H 0.47376 0.36469 0.38442 0.0
H295 H 0.43962 0.21264 0.35021 0.0
H296 H 0.32391 0.18276 0.3671 0.0
Co297 Co 0.19569 0.41483 0.93363 0.0
C298 C 0.22969 0.37187 0.95795 0.0
C299 C 0.17496 0.33407 0.94217 0.0
C300 C 0.18823 0.31273 0.95399 0.0
N301 N 0.20156 0.37134 0.9436 0.0
N302 N 0.22279 0.33646 0.96387 0.0
H303 H 0.25397 0.39761 0.96496 0.0
H304 H 0.14654 0.32265 0.93476 0.0
C305 C 0.27752 0.44299 0.92437 0.0
O306 O 0.26585 0.41111 0.9116 0.0
N307 N 0.18867 0.45742 0.92498 0.0
C308 C 0.16437 0.4564 0.90702 0.0
C309 C 0.16026 0.48784 0.90974 0.0
C310 C 0.19881 0.48947 0.93864 0.0
N311 N 0.18161 0.50846 0.92969 0.0
C312 C 0.1711 0.37104 0.88712 0.0
C313 C 0.2179 0.42903 0.85449 0.0
C314 C 0.19122 0.3937 0.84401 0.0
C315 C 0.16834 0.36433 0.86092 0.0
C316 C 0.2205 0.43421 0.88101 0.0
N317 N 0.19743 0.40525 0.89712 0.0
H318 H 0.1504 0.34913 0.89906 0.0
H319 H 0.23984 0.46219 0.88853 0.0
H320 H 0.14876 0.43313 0.89384 0.0
H321 H 0.21586 0.49706 0.95584 0.0
O322 O 0.14152 0.3844 0.93841 0.0
O323 O 0.18268 0.41812 0.96885 0.0
O324 O 0.25308 0.45 0.93484 0.0
C325 C 0.14744 0.39531 0.9621 0.0
H326 H 0.17305 0.28202 0.95554 0.0
H327 H 0.14153 0.49413 0.89864 0.0
H328 H 0.23558 0.45309 0.84241 0.0
H329 H 0.14746 0.33637 0.8541 0.0
Co330 Co 0.77552 0.18216 0.42831 0.0
C331 C 0.85652 0.20148 0.43936 0.0
C332 C 0.83352 0.22617 0.46515 0.0
C333 C 0.86937 0.23616 0.47321 0.0
N334 N 0.82518 0.20434 0.44409 0.0
N335 N 0.88386 0.22076 0.45713 0.0
H336 H 0.85897 0.1852 0.42383 0.0
H337 H 0.81436 0.23381 0.4743 0.0
C338 C 0.7742 0.25312 0.41253 0.0
O339 O 0.76187 0.23865 0.38972 0.0
N340 N 0.72437 0.16073 0.41417 0.0
C341 C 0.70294 0.12675 0.4026 0.0
C342 C 0.667 0.12115 0.3986 0.0
C343 C 0.7001 0.174 0.41839 0.0
N344 N 0.66529 0.15103 0.40843 0.0
C345 C 0.7866 0.15946 0.37868 0.0
C346 C 0.83659 0.23101 0.36014 0.0
C347 C 0.82102 0.2 0.34317 0.0
C348 C 0.79681 0.16372 0.353 0.0
C349 C 0.82505 0.22543 0.38579 0.0
N350 N 0.79804 0.1903 0.39425 0.0
H351 H 0.76929 0.13115 0.38596 0.0
H352 H 0.83694 0.24957 0.3986 0.0
H353 H 0.71145 0.10592 0.39876 0.0
H354 H 0.70737 0.19946 0.42917 0.0
O355 O 0.76694 0.13135 0.43453 0.0
O356 O 0.75289 0.16476 0.46151 0.0
O357 O 0.78076 0.23434 0.42938 0.0
C358 C 0.75297 0.13334 0.45643 0.0
H359 H 0.88386 0.25347 0.48973 0.0
H360 H 0.64346 0.09609 0.39015 0.0
H361 H 0.85648 0.25942 0.35351 0.0
H362 H 0.78587 0.13872 0.34091 0.0
Co363 Co 0.60667 0.76784 0.93289 0.0
C364 C 0.65921 0.84264 0.95948 0.0
C365 C 0.61207 0.84229 0.94077 0.0
C366 C 0.63232 0.87621 0.95338 0.0
N367 N 0.62864 0.82085 0.94431 0.0
N368 N 0.66186 0.87662 0.96542 0.0
H369 H 0.6783 0.83345 0.96676 0.0
H370 H 0.58607 0.8338 0.93048 0.0
C371 C 0.52623 0.74341 0.91764 0.0
O372 O 0.5298 0.72469 0.89833 0.0
N373 N 0.58345 0.71446 0.92276 0.0
C374 C 0.59555 0.69709 0.90632 0.0
C375 C 0.56917 0.65875 0.90564 0.0
C376 C 0.55088 0.68599 0.93268 0.0
N377 N 0.54085 0.65198 0.92199 0.0
C378 C 0.64391 0.78186 0.8839 0.0
C379 C 0.59529 0.79896 0.85769 0.0
C380 C 0.61952 0.79047 0.84379 0.0
C381 C 0.64568 0.78406 0.85718 0.0
C382 C 0.5949 0.79702 0.8843 0.0
N383 N 0.61631 0.78475 0.89702 0.0
H384 H 0.66316 0.77513 0.89381 0.0
H385 H 0.57546 0.80328 0.89411 0.0
H386 H 0.6216 0.71068 0.89558 0.0
H387 H 0.53437 0.69031 0.94715 0.0
O388 O 0.65353 0.76777 0.94009 0.0
O389 O 0.60633 0.7509 0.96747 0.0
O390 O 0.55433 0.763 0.93267 0.0
C391 C 0.63876 0.75318 0.9621 0.0
H392 H 0.62549 0.89886 0.95369 0.0
H393 H 0.57028 0.63769 0.8935 0.0
H394 H 0.5756 0.80548 0.84801 0.0
H395 H 0.66558 0.77831 0.84709 0.0
H396 H 0.68668 0.13545 0.06884 0.0
H397 H 0.75367 0.25541 0.04989 0.0
H398 H 0.69545 0.26047 0.0505 0.0
H399 H 0.60099 0.11578 0.03221 0.0
H400 H 0.56961 0.08352 0.05612 0.0
H401 H 0.61597 0.08872 0.05145 0.0
H402 H 0.63129 0.10541 0.09934 0.0
H403 H 0.5852 0.10062 0.10412 0.0
H404 H 0.6274 0.14435 0.11275 0.0
H405 H 0.63028 0.25348 0.05712 0.0
H406 H 0.56412 0.23476 0.06847 0.0
H407 H 0.54038 0.11933 0.08234 0.0
C408 C 0.68912 0.16265 0.0643 0.0
C409 C 0.72483 0.195 0.05925 0.0
C410 C 0.72666 0.23014 0.05371 0.0
C411 C 0.69371 0.23331 0.05401 0.0
C412 C 0.65909 0.20103 0.0597 0.0
C413 C 0.65659 0.1663 0.06452 0.0
C414 C 0.61647 0.13642 0.07155 0.0
C415 C 0.59978 0.10421 0.05164 0.0
C416 C 0.61503 0.12081 0.09854 0.0
C417 C 0.59693 0.15994 0.07056 0.0
C418 C 0.62182 0.19705 0.06348 0.0
C419 C 0.61043 0.22434 0.06234 0.0
C420 C 0.57271 0.2134 0.06874 0.0
C421 C 0.54683 0.17555 0.07633 0.0
C422 C 0.5593 0.14856 0.0769 0.0
H423 H 0.37222 0.55322 0.61016 0.0
H424 H 0.37109 0.52824 0.5297 0.0
H425 H 0.41907 0.59602 0.52168 0.0
H426 H 0.37943 0.64451 0.60174 0.0
H427 H 0.40939 0.66519 0.62933 0.0
H428 H 0.3759 0.61488 0.62843 0.0
H429 H 0.43037 0.60029 0.63705 0.0
H430 H 0.46395 0.65053 0.63819 0.0
H431 H 0.47129 0.62034 0.61639 0.0
H432 H 0.46921 0.66671 0.52342 0.0
H433 H 0.51524 0.73378 0.53428 0.0
H434 H 0.47961 0.71132 0.61343 0.0
C435 C 0.38252 0.56189 0.59091 0.0
C436 C 0.36867 0.53555 0.57056 0.0
C437 C 0.38176 0.54813 0.54549 0.0
C438 C 0.40886 0.58644 0.54083 0.0
C439 C 0.42191 0.61174 0.56142 0.0
C440 C 0.40888 0.5999 0.58593 0.0
C441 C 0.42644 0.63253 0.60474 0.0
C442 C 0.39597 0.63969 0.61676 0.0
C443 C 0.44938 0.6255 0.62529 0.0
C444 C 0.45208 0.66462 0.58714 0.0
C445 C 0.4492 0.65221 0.56222 0.0
C446 C 0.47141 0.67674 0.54283 0.0
C447 C 0.49744 0.71475 0.54918 0.0
C448 C 0.50079 0.72784 0.57466 0.0
C449 C 0.47741 0.7024 0.59371 0.0
H450 H 0.8397 0.36401 0.0558 0.0
H451 H 0.84183 0.36485 0.13857 0.0
H452 H 0.82571 0.41605 0.1389 0.0
H453 H 0.88214 0.46518 0.04803 0.0
H454 H 0.8534 0.46215 0.0209 0.0
H455 H 0.86389 0.42457 0.02699 0.0
H456 H 0.7919 0.37529 0.02729 0.0
H457 H 0.78117 0.41273 0.02119 0.0
H458 H 0.7609 0.38219 0.04851 0.0
H459 H 0.80943 0.46682 0.1306 0.0
H460 H 0.79656 0.51618 0.11429 0.0
H461 H 0.80599 0.48452 0.03655 0.0
C462 C 0.83644 0.37477 0.07396 0.0
C463 C 0.84212 0.3604 0.0972 0.0
C464 C 0.8381 0.37566 0.12056 0.0
C465 C 0.82869 0.40459 0.12094 0.0
C466 C 0.8235 0.41825 0.09778 0.0
C467 C 0.82737 0.40404 0.07469 0.0
C468 C 0.82129 0.42472 0.05258 0.0
C469 C 0.85733 0.44538 0.03616 0.0
C470 C 0.78676 0.39708 0.03644 0.0
C471 C 0.81357 0.45282 0.06689 0.0
C472 C 0.8147 0.44826 0.09295 0.0
C473 C 0.80845 0.47065 0.11024 0.0
C474 C 0.80105 0.49864 0.10072 0.0
C475 C 0.80016 0.50438 0.07409 0.0
C476 C 0.80647 0.48096 0.05699 0.0
H477 H 0.46166 0.80288 0.58063 0.0
H478 H 0.50737 0.92361 0.59376 0.0
H479 H 0.44353 0.91581 0.58599 0.0
H480 H 0.39484 0.79122 0.53053 0.0
H481 H 0.35893 0.74512 0.54175 0.0
H482 H 0.40848 0.7608 0.54703 0.0
H483 H 0.39626 0.74972 0.5956 0.0
H484 H 0.34669 0.73377 0.59044 0.0
H485 H 0.37395 0.77233 0.61231 0.0
H486 H 0.37406 0.89405 0.57714 0.0
H487 H 0.3042 0.85968 0.57217 0.0
H488 H 0.30457 0.75296 0.56571 0.0
C489 C 0.45833 0.82778 0.58153 0.0
C490 C 0.48947 0.86396 0.58753 0.0
C491 C 0.48382 0.89567 0.58924 0.0
C492 C 0.44778 0.89152 0.58467 0.0
C493 C 0.41772 0.85541 0.5786 0.0
C494 C 0.42262 0.82404 0.57728 0.0
C495 C 0.38547 0.78796 0.57189 0.0
C496 C 0.38704 0.77025 0.54627 0.0
C497 C 0.37498 0.75927 0.59387 0.0
C498 C 0.3587 0.80381 0.57056 0.0
C499 C 0.37785 0.84282 0.57414 0.0
C500 C 0.35882 0.86354 0.57425 0.0
C501 C 0.31912 0.84376 0.57128 0.0
C502 C 0.29883 0.80359 0.56853 0.0
C503 C 0.31918 0.78366 0.56769 0.0
H504 H 0.62855 0.46818 0.12146 0.0
H505 H 0.63703 0.48659 0.03985 0.0
H506 H 0.58597 0.41978 0.03295 0.0
H507 H 0.61804 0.37617 0.11826 0.0
H508 H 0.58573 0.35724 0.14482 0.0
H509 H 0.61964 0.40737 0.1434 0.0
H510 H 0.56506 0.42287 0.14729 0.0
H511 H 0.53096 0.37274 0.14885 0.0
H512 H 0.52601 0.402 0.12498 0.0
H513 H 0.53491 0.35098 0.03521 0.0
H514 H 0.49094 0.28357 0.04598 0.0
H515 H 0.51978 0.30896 0.12609 0.0
C516 C 0.6189 0.45816 0.10224 0.0
C517 C 0.63585 0.48225 0.08113 0.0
C518 C 0.62381 0.46827 0.05613 0.0
C519 C 0.59492 0.43057 0.05211 0.0
C520 C 0.57897 0.40726 0.07333 0.0
C521 C 0.59075 0.42039 0.0979 0.0
C522 C 0.57131 0.38874 0.11725 0.0
C523 C 0.60042 0.38199 0.13178 0.0
C524 C 0.54688 0.3971 0.13568 0.0
C525 C 0.54685 0.35572 0.09974 0.0
C526 C 0.55122 0.36712 0.07452 0.0
C527 C 0.53129 0.3417 0.05488 0.0
C528 C 0.50639 0.30354 0.06117 0.0
C529 C 0.50223 0.29114 0.08682 0.0
C530 C 0.5227 0.31764 0.10629 0.0
H531 H 0.25988 0.56497 0.56056 0.0
H532 H 0.15284 0.45925 0.56782 0.0
H533 H 0.11825 0.49513 0.56555 0.0
H534 H 0.23761 0.62067 0.59895 0.0
H535 H 0.26181 0.66314 0.57985 0.0
H536 H 0.27743 0.62868 0.57936 0.0
H537 H 0.26952 0.62342 0.53019 0.0
H538 H 0.25372 0.65789 0.53062 0.0
H539 H 0.22442 0.61187 0.51614 0.0
H540 H 0.09651 0.54358 0.5691 0.0
H541 H 0.08944 0.60044 0.57559 0.0
H542 H 0.20987 0.67348 0.56258 0.0
C543 C 0.22911 0.54928 0.56126 0.0
C544 C 0.20901 0.50936 0.56443 0.0
C545 C 0.16878 0.48984 0.56526 0.0
C546 C 0.14891 0.50997 0.56398 0.0
C547 C 0.16968 0.54947 0.56132 0.0
C548 C 0.20889 0.56883 0.55957 0.0
C549 C 0.2247 0.61143 0.558 0.0
C550 C 0.25197 0.63217 0.58038 0.0
C551 C 0.24423 0.62706 0.53219 0.0
C552 C 0.1884 0.61316 0.56016 0.0
C553 C 0.1569 0.57715 0.56198 0.0
C554 C 0.12079 0.57184 0.56696 0.0
C555 C 0.11697 0.60413 0.57061 0.0
C556 C 0.14893 0.64112 0.56892 0.0
C557 C 0.18482 0.64554 0.56303 0.0
H558 H 0.82785 0.46749 0.38576 0.0
H559 H 0.82766 0.48357 0.46748 0.0
H560 H 0.80609 0.41512 0.47411 0.0
H561 H 0.74345 0.37249 0.38415 0.0
H562 H 0.76225 0.35616 0.35907 0.0
H563 H 0.7757 0.40573 0.36101 0.0
H564 H 0.84681 0.42439 0.36211 0.0
H565 H 0.83363 0.37495 0.36021 0.0
H566 H 0.86316 0.40397 0.38611 0.0
H567 H 0.7904 0.34648 0.47154 0.0
H568 H 0.77761 0.28194 0.46021 0.0
H569 H 0.78539 0.31055 0.37984 0.0
C570 C 0.82319 0.45653 0.40504 0.0
C571 C 0.82973 0.48068 0.42618 0.0
C572 C 0.82269 0.46534 0.45111 0.0
C573 C 0.81054 0.42664 0.455 0.0
C574 C 0.80496 0.40371 0.43369 0.0
C575 C 0.81058 0.41802 0.40918 0.0
C576 C 0.80302 0.38766 0.38951 0.0
C577 C 0.76908 0.38006 0.37243 0.0
C578 C 0.83879 0.39839 0.37356 0.0
C579 C 0.7934 0.35418 0.40677 0.0
C580 C 0.79461 0.36398 0.43219 0.0
C581 C 0.78885 0.33836 0.45171 0.0
C582 C 0.78178 0.30184 0.44508 0.0
C583 C 0.78028 0.29121 0.41914 0.0
C584 C 0.78581 0.31769 0.3998 0.0
H585 H 0.40434 0.84532 0.93722 0.0
H586 H 0.30731 0.74402 0.90681 0.0
H587 H 0.34551 0.7116 0.90545 0.0
H588 H 0.47491 0.84184 0.90082 0.0
H589 H 0.50976 0.85789 0.92607 0.0
H590 H 0.47401 0.87182 0.92595 0.0
H591 H 0.45303 0.84396 0.97139 0.0
H592 H 0.48877 0.8299 0.97163 0.0
H593 H 0.4397 0.79504 0.97734 0.0
H594 H 0.39666 0.69351 0.90303 0.0
H595 H 0.45555 0.68949 0.90222 0.0
H596 H 0.51737 0.80091 0.9376 0.0
C597 C 0.3912 0.81625 0.9304 0.0
C598 C 0.35316 0.79711 0.92188 0.0
C599 C 0.33649 0.75896 0.9134 0.0
C600 C 0.35795 0.74045 0.91258 0.0
C601 C 0.39563 0.76031 0.92089 0.0
C602 C 0.41192 0.7972 0.92998 0.0
C603 C 0.45309 0.81257 0.93735 0.0
C604 C 0.47948 0.84812 0.9216 0.0
C605 C 0.45898 0.82084 0.96614 0.0
C606 C 0.45788 0.77904 0.9302 0.0
C607 C 0.42443 0.74916 0.92073 0.0
C608 C 0.42278 0.7164 0.91089 0.0
C609 C 0.4563 0.71438 0.91047 0.0
C610 C 0.49073 0.74465 0.92017 0.0
C611 C 0.49127 0.77703 0.93055 0.0
H612 H 0.72615 0.4775 0.41188 0.0
H613 H 0.71091 0.57079 0.43756 0.0
H614 H 0.64113 0.5271 0.43926 0.0
H615 H 0.64617 0.43194 0.37225 0.0
H616 H 0.63427 0.38414 0.38071 0.0
H617 H 0.68281 0.42216 0.38275 0.0
H618 H 0.68571 0.40627 0.43023 0.0
H619 H 0.63726 0.36787 0.42833 0.0
H620 H 0.65069 0.40447 0.4522 0.0
H621 H 0.57264 0.47445 0.43317 0.0
H622 H 0.51132 0.4152 0.42539 0.0
H623 H 0.57172 0.35521 0.40752 0.0
C624 C 0.70809 0.48858 0.41816 0.0
C625 C 0.72368 0.52747 0.42448 0.0
C626 C 0.69939 0.54101 0.43278 0.0
C627 C 0.6598 0.51644 0.43368 0.0
C628 C 0.64522 0.47832 0.42679 0.0
C629 C 0.66874 0.46429 0.41976 0.0
C630 C 0.6461 0.42219 0.41343 0.0
C631 C 0.65274 0.41469 0.38563 0.0
C632 C 0.6555 0.39882 0.43217 0.0
C633 C 0.606 0.41484 0.41727 0.0
C634 C 0.60606 0.44765 0.42477 0.0
C635 C 0.57232 0.44849 0.42777 0.0
C636 C 0.53772 0.41492 0.42319 0.0
C637 C 0.53713 0.38092 0.4161 0.0
C638 C 0.57166 0.38085 0.41328 0.0
H639 H 0.26805 0.72346 0.9741 0.0
H640 H 0.15409 0.70578 0.9655 0.0
H641 H 0.12912 0.63678 0.96017 0.0
H642 H 0.26084 0.66318 0.92596 0.0
H643 H 0.28806 0.64413 0.94062 0.0
H644 H 0.2967 0.69069 0.94945 0.0
H645 H 0.28469 0.67135 0.9968 0.0
H646 H 0.27666 0.62468 0.98851 0.0
H647 H 0.24109 0.62956 0.00602 0.0
H648 H 0.11749 0.57235 0.9503 0.0
H649 H 0.11961 0.51567 0.93559 0.0
H650 H 0.24123 0.57362 0.94877 0.0
C651 C 0.23767 0.70471 0.9722 0.0
C652 C 0.21272 0.71961 0.97085 0.0
C653 C 0.17342 0.69468 0.96703 0.0
C654 C 0.15904 0.6555 0.96402 0.0
C655 C 0.1844 0.64172 0.96466 0.0
C656 C 0.2229 0.66543 0.96872 0.0
C657 C 0.24441 0.64387 0.96541 0.0
C658 C 0.27423 0.6615 0.94407 0.0
C659 C 0.26279 0.64227 0.9907 0.0
C660 C 0.21217 0.60477 0.95794 0.0
C661 C 0.17778 0.60417 0.95812 0.0
C662 C 0.14414 0.5723 0.9504 0.0
C663 C 0.14566 0.54034 0.94191 0.0
C664 C 0.18056 0.54035 0.94102 0.0
C665 C 0.21415 0.57275 0.94966 0.0
H666 H 0.52654 0.22453 0.45914 0.0
H667 H 0.45092 0.15752 0.3976 0.0
H668 H 0.49865 0.14208 0.38195 0.0
H669 H 0.61667 0.26033 0.4228 0.0
H670 H 0.6423 0.25615 0.44956 0.0
H671 H 0.60395 0.26575 0.45484 0.0
H672 H 0.5708 0.20672 0.48424 0.0
H673 H 0.60894 0.19688 0.47899 0.0
H674 H 0.56059 0.16085 0.47221 0.0
H675 H 0.55121 0.13007 0.3741 0.0
H676 H 0.60726 0.12185 0.37447 0.0
H677 H 0.64979 0.19393 0.44175 0.0
C678 C 0.52054 0.20721 0.44215 0.0
C679 C 0.48509 0.1922 0.42956 0.0
C680 C 0.47783 0.16911 0.40762 0.0
C681 C 0.50481 0.1603 0.39847 0.0
C682 C 0.53905 0.1746 0.41152 0.0
C683 C 0.54725 0.19757 0.43285 0.0
C684 C 0.58555 0.20683 0.44401 0.0
C685 C 0.61379 0.24982 0.44272 0.0
C686 C 0.58119 0.19192 0.47149 0.0
C687 C 0.59688 0.18484 0.42588 0.0
C688 C 0.56969 0.16688 0.40718 0.0
C689 C 0.57285 0.14404 0.38861 0.0
C690 C 0.60468 0.13924 0.38913 0.0
C691 C 0.63298 0.15692 0.4082 0.0
C692 C 0.629 0.18029 0.42673 0.0
H693 H 0.31577 0.52057 0.93422 0.0
H694 H 0.33308 0.42465 0.9201 0.0
H695 H 0.40234 0.46743 0.92113 0.0
H696 H 0.39054 0.58568 0.89444 0.0
H697 H 0.40436 0.62626 0.91495 0.0
H698 H 0.35617 0.58752 0.91531 0.0
H699 H 0.36161 0.58103 0.96416 0.0
H700 H 0.41012 0.61953 0.96358 0.0
H701 H 0.39914 0.57397 0.97656 0.0
H702 H 0.46926 0.52026 0.92049 0.0
H703 H 0.53026 0.58071 0.91829 0.0
H704 H 0.4711 0.64342 0.93231 0.0
C705 C 0.33422 0.5086 0.93182 0.0
C706 C 0.31898 0.46924 0.92709 0.0
C707 C 0.34404 0.4547 0.92361 0.0
C708 C 0.38349 0.47875 0.92428 0.0
C709 C 0.39768 0.51744 0.92844 0.0
C710 C 0.37395 0.5324 0.93223 0.0
C711 C 0.39688 0.57545 0.93479 0.0
C712 C 0.38637 0.59485 0.9136 0.0
C713 C 0.39162 0.58824 0.96136 0.0
C714 C 0.43699 0.5822 0.9314 0.0
C715 C 0.4367 0.54825 0.92797 0.0
C716 C 0.46994 0.54706 0.92337 0.0
C717 C 0.50443 0.5815 0.92202 0.0
C718 C 0.50555 0.61674 0.92525 0.0
C719 C 0.4713 0.61692 0.93027 0.0
H720 H 0.4049 0.16432 0.31819 0.0
H721 H 0.33703 0.21904 0.32851 0.0
H722 H 0.32795 0.21836 0.28201 0.0
H723 H 0.45393 0.21646 0.26382 0.0
H724 H 0.45491 0.17737 0.24807 0.0
H725 H 0.45304 0.17855 0.28236 0.0
H726 H 0.39225 0.1121 0.28232 0.0
H727 H 0.39406 0.1106 0.24801 0.0
H728 H 0.35175 0.10444 0.26355 0.0
H729 H 0.33102 0.21721 0.23427 0.0
H730 H 0.34322 0.21222 0.1886 0.0
H731 H 0.40936 0.15878 0.2092 0.0
C732 C 0.38775 0.17575 0.3107 0.0
C733 C 0.37138 0.19138 0.32711 0.0
C734 C 0.34916 0.2061 0.31647 0.0
C735 C 0.34408 0.20614 0.29002 0.0
C736 C 0.36125 0.19125 0.2744 0.0
C737 C 0.38236 0.17601 0.28433 0.0
C738 C 0.39912 0.16327 0.26329 0.0
C739 C 0.44284 0.18523 0.26446 0.0
C740 C 0.38334 0.12003 0.26436 0.0
C741 C 0.38463 0.1743 0.24001 0.0
C742 C 0.36283 0.19038 0.24683 0.0
C743 C 0.34773 0.20432 0.22867 0.0
C744 C 0.35502 0.20162 0.20282 0.0
C745 C 0.3771 0.18501 0.19541 0.0
C746 C 0.3919 0.17108 0.21431 0.0
H747 H 0.24875 0.42742 0.69588 0.0
H748 H 0.13257 0.34166 0.67839 0.0
H749 H 0.11777 0.33291 0.72455 0.0
H750 H 0.25802 0.37956 0.75185 0.0
H751 H 0.28707 0.42326 0.76904 0.0
H752 H 0.28834 0.4228 0.73469 0.0
H753 H 0.27122 0.47647 0.73325 0.0
H754 H 0.26968 0.47694 0.76759 0.0
H755 H 0.22901 0.46978 0.74924 0.0
H756 H 0.11475 0.33683 0.77207 0.0
H757 H 0.12438 0.34808 0.81814 0.0
H758 H 0.24452 0.42708 0.80533 0.0
C759 C 0.22024 0.4068 0.70186 0.0
C760 C 0.19165 0.38527 0.68373 0.0
C761 C 0.15478 0.35824 0.6921 0.0
C762 C 0.14614 0.35323 0.7182 0.0
C763 C 0.17488 0.37509 0.73562 0.0
C764 C 0.21132 0.40094 0.72786 0.0
C765 C 0.23714 0.42016 0.75056 0.0
C766 C 0.26955 0.41087 0.75159 0.0
C767 C 0.25267 0.4634 0.75012 0.0
C768 C 0.20937 0.40141 0.7723 0.0
C769 C 0.17359 0.37579 0.7632 0.0
C770 C 0.14282 0.35619 0.77946 0.0
C771 C 0.14879 0.36258 0.80576 0.0
C772 C 0.1855 0.38787 0.8158 0.0
C773 C 0.21608 0.40759 0.79859 0.0
H774 H 0.7704 0.17124 0.30348 0.0
H775 H 0.89081 0.23954 0.32016 0.0
H776 H 0.90489 0.24457 0.27387 0.0
H777 H 0.7775 0.11888 0.25091 0.0
H778 H 0.74007 0.11937 0.23262 0.0
H779 H 0.7395 0.12137 0.26694 0.0
H780 H 0.73623 0.18357 0.26465 0.0
H781 H 0.73657 0.18166 0.23031 0.0
H782 H 0.7718 0.22351 0.24686 0.0
H783 H 0.90576 0.23948 0.2259 0.0
H784 H 0.89354 0.22981 0.1796 0.0
H785 H 0.77213 0.16688 0.19381 0.0
C786 C 0.79974 0.18725 0.29736 0.0
C787 C 0.82961 0.20485 0.31539 0.0
C788 C 0.86756 0.226 0.30666 0.0
C789 C 0.87578 0.22882 0.28044 0.0
C790 C 0.84568 0.21074 0.26319 0.0
C791 C 0.80838 0.1908 0.27127 0.0
C792 C 0.78121 0.17472 0.2488 0.0
C793 C 0.75822 0.13099 0.24989 0.0
C794 C 0.7549 0.1919 0.24759 0.0
C795 C 0.80905 0.18833 0.22676 0.0
C796 C 0.84611 0.2088 0.23552 0.0
C797 C 0.87687 0.2236 0.21886 0.0
C798 C 0.86963 0.21767 0.19258 0.0
C799 C 0.83189 0.19733 0.18306 0.0
C800 C 0.80125 0.18257 0.20049 0.0
H801 H 0.67171 0.82656 0.80519 0.0
H802 H 0.55492 0.73996 0.81961 0.0
H803 H 0.54385 0.72814 0.77329 0.0
H804 H 0.65088 0.86543 0.75053 0.0
H805 H 0.6934 0.87559 0.7334 0.0
H806 H 0.69324 0.87492 0.76774 0.0
H807 H 0.71523 0.82482 0.76717 0.0
H808 H 0.71526 0.82522 0.73278 0.0
H809 H 0.68783 0.78104 0.7497 0.0
H810 H 0.54461 0.72684 0.72565 0.0
H811 H 0.55526 0.7403 0.6796 0.0
H812 H 0.67103 0.82926 0.69528 0.0
C813 C 0.64402 0.80488 0.79848 0.0
C814 C 0.61414 0.78401 0.81586 0.0
C815 C 0.57806 0.75626 0.80651 0.0
C816 C 0.5716 0.7492 0.78028 0.0
C817 C 0.60146 0.77033 0.76356 0.0
C818 C 0.63686 0.79788 0.77221 0.0
C819 C 0.6631 0.81841 0.74998 0.0
C820 C 0.6759 0.86111 0.75045 0.0
C821 C 0.69739 0.81198 0.74991 0.0
C822 C 0.63676 0.79839 0.7276 0.0
C823 C 0.60155 0.77034 0.7359 0.0
C824 C 0.57216 0.74856 0.71889 0.0
C825 C 0.57858 0.75622 0.69271 0.0
C826 C 0.614 0.78571 0.68371 0.0
C827 C 0.64361 0.80656 0.7015 0.0
H828 H 0.76369 0.59713 0.20431 0.0
H829 H 0.86693 0.69919 0.18113 0.0
H830 H 0.88184 0.7182 0.22618 0.0
H831 H 0.74095 0.63728 0.25918 0.0
H832 H 0.72537 0.59506 0.27824 0.0
H833 H 0.7205 0.59125 0.24401 0.0
H834 H 0.75876 0.55565 0.24267 0.0
H835 H 0.76349 0.55911 0.27686 0.0
H836 H 0.80528 0.57726 0.25713 0.0
H837 H 0.88773 0.72439 0.27361 0.0
H838 H 0.88589 0.71551 0.32028 0.0
H839 H 0.78081 0.60781 0.31255 0.0
C840 C 0.78947 0.62349 0.20861 0.0
C841 C 0.81393 0.64678 0.18902 0.0
C842 C 0.84722 0.68122 0.19565 0.0
C843 C 0.85606 0.69223 0.22123 0.0
C844 C 0.83144 0.66848 0.23999 0.0
C845 C 0.79894 0.63473 0.23403 0.0
C846 C 0.7787 0.61303 0.25785 0.0
C847 C 0.73903 0.60893 0.25993 0.0
C848 C 0.77645 0.57396 0.25867 0.0
C849 C 0.80528 0.63958 0.27814 0.0
C850 C 0.83526 0.67162 0.26743 0.0
C851 C 0.86432 0.69951 0.28225 0.0
C852 C 0.86313 0.69412 0.3087 0.0
C853 C 0.83325 0.66094 0.32001 0.0
C854 C 0.80364 0.63375 0.3045 0.0
H855 H 0.21392 0.84256 0.81581 0.0
H856 H 0.15953 0.72089 0.82993 0.0
H857 H 0.15387 0.70904 0.78355 0.0
H858 H 0.15478 0.83498 0.76026 0.0
H859 H 0.19377 0.87435 0.74418 0.0
H860 H 0.19203 0.87302 0.77854 0.0
H861 H 0.25902 0.87984 0.77981 0.0
H862 H 0.26081 0.8807 0.74549 0.0
H863 H 0.26735 0.84596 0.76282 0.0
H864 H 0.15915 0.71077 0.73598 0.0
H865 H 0.16959 0.72563 0.68993 0.0
H866 H 0.21624 0.84559 0.70673 0.0
C867 C 0.19989 0.81332 0.80927 0.0
C868 C 0.18738 0.78268 0.82664 0.0
C869 C 0.16998 0.74492 0.81707 0.0
C870 C 0.16639 0.73786 0.79075 0.0
C871 C 0.17981 0.76879 0.77425 0.0
C872 C 0.19562 0.80572 0.7831 0.0
C873 C 0.20832 0.83394 0.76131 0.0
C874 C 0.18588 0.85533 0.76106 0.0
C875 C 0.25143 0.86174 0.76244 0.0
C876 C 0.19784 0.80713 0.7388 0.0
C877 C 0.18159 0.76968 0.74672 0.0
C878 C 0.17136 0.7399 0.72952 0.0
C879 C 0.17762 0.7486 0.70351 0.0
C880 C 0.19362 0.78667 0.69502 0.0
C881 C 0.20367 0.81625 0.71286 0.0
H882 H 0.28068 0.90806 0.00678 0.0
H883 H 0.31351 0.95067 0.92964 0.0
H884 H 0.34855 0.01636 0.94609 0.0
H885 H 0.26401 0.98212 0.02764 0.0
H886 H 0.2821 0.98487 0.05948 0.0
H887 H 0.26184 0.94068 0.04205 0.0
H888 H 0.32395 0.93816 0.04827 0.0
H889 H 0.34433 0.98226 0.06585 0.0
H890 H 0.36861 0.97802 0.03835 0.0
H891 H 0.37851 0.07722 0.97032 0.0
H892 H 0.40084 0.13019 1.00116 0.0
H893 H 0.34687 0.04898 0.06262 0.0
C894 C 0.29576 0.93124 0.99347 0.0
C895 C 0.29465 0.92439 0.96699 0.0
C896 C 0.31405 0.95537 0.95003 0.0
C897 C 0.33409 0.99277 0.95917 0.0
C898 C 0.33422 0.99872 0.98531 0.0
C899 C 0.31556 0.96894 1.00227 0.0
C900 C 0.31875 0.98355 0.02931 0.0
C901 C 0.27933 0.97213 0.04026 0.0
C902 C 0.3402 0.96967 0.04645 0.0
C903 C 0.34192 0.0261 0.02481 0.0
C904 C 0.35075 0.03415 0.9993 0.0
C905 C 0.37185 0.07135 0.99037 0.0
C906 C 0.38437 0.10122 0.00801 0.0
C907 C 0.37547 0.09368 0.03422 0.0
C908 C 0.35394 0.0556 0.04266 0.0
H909 H 0.27734 0.33599 0.55262 0.0
H910 H 0.27564 0.40735 0.49143 0.0
H911 H 0.31742 0.39222 0.46577 0.0
H912 H 0.3752 0.36052 0.5455 0.0
H913 H 0.36661 0.31321 0.55211 0.0
H914 H 0.33635 0.32927 0.5659 0.0
H915 H 0.27701 0.27156 0.54616 0.0
H916 H 0.307 0.25499 0.53271 0.0
H917 H 0.27571 0.26283 0.51233 0.0
H918 H 0.35847 0.36923 0.44663 0.0
H919 H 0.3922 0.33539 0.43351 0.0
H920 H 0.36903 0.27959 0.50709 0.0
C921 C 0.28547 0.34817 0.53372 0.0
C922 C 0.2731 0.37279 0.52397 0.0
C923 C 0.28458 0.3883 0.49924 0.0
C924 C 0.30853 0.38008 0.4846 0.0
C925 C 0.32085 0.35639 0.49498 0.0
C926 C 0.30946 0.34032 0.51885 0.0
C927 C 0.32623 0.31511 0.52524 0.0
C928 C 0.35266 0.33045 0.54858 0.0
C929 C 0.2946 0.27367 0.52934 0.0
C930 C 0.34853 0.31921 0.50109 0.0
C931 C 0.3452 0.34346 0.48402 0.0
C932 C 0.36161 0.35053 0.45991 0.0
C933 C 0.38088 0.33139 0.45269 0.0
C934 C 0.38386 0.30574 0.46954 0.0
C935 C 0.36817 0.30008 0.49424 0.0
H936 H 0.92853 0.28582 1.00341 0.0
H937 H 0.96765 0.29763 0.08173 0.0
H938 H 0.03412 0.33542 0.0673 0.0
H939 H 1.0021 0.27235 0.97721 0.0
H940 H 1.00663 0.29807 0.94817 0.0
H941 H 0.96187 0.27468 0.96474 0.0
H942 H 0.96148 0.33842 0.96697 0.0
H943 H 1.0063 0.362 0.95041 0.0
H944 H 1.00144 0.37964 0.98094 0.0
H945 H 0.09661 0.37112 0.04447 0.0
H946 H 0.15074 0.39827 0.01436 0.0
H947 H 0.07158 0.36045 0.95075 0.0
C948 C 0.95114 0.29685 0.01747 0.0
C949 C 0.943 0.28907 0.04369 0.0
C950 C 0.9733 0.30327 0.06153 0.0
C951 C 0.01115 0.32491 0.05355 0.0
C952 C 0.01837 0.33182 0.02758 0.0
C953 C 0.98929 0.318 0.00976 0.0
C954 C 1.00508 0.32745 0.98289 0.0
C955 C 0.99322 0.29096 0.96734 0.0
C956 C 0.99285 0.35343 0.96952 0.0
C957 C 0.04743 0.34848 0.98844 0.0
C958 C 0.0545 0.35115 0.01435 0.0
C959 C 0.09145 0.36923 0.02411 0.0
C960 C 0.12202 0.38464 0.0069 0.0
C961 C 0.11539 0.38139 0.98027 0.0
C962 C 0.07756 0.36328 0.97103 0.0
H963 H 0.64736 0.91513 0.5016 0.0
H964 H 0.66978 0.95839 0.5792 0.0
H965 H 0.70053 0.02413 0.56303 0.0
H966 H 0.73758 0.98825 0.47648 0.0
H967 H 0.71831 0.9914 0.44615 0.0
H968 H 0.69615 0.94727 0.46362 0.0
H969 H 0.63191 0.94648 0.46234 0.0
H970 H 0.65389 0.99061 0.44487 0.0
H971 H 0.62941 0.98691 0.47433 0.0
H972 H 0.72656 0.08485 0.53903 0.0
H973 H 0.75205 0.13786 0.5081 0.0
H974 H 0.71864 0.05692 0.44571 0.0
C975 C 0.65865 0.93854 0.51506 0.0
C976 C 0.65616 0.9318 0.54163 0.0
C977 C 0.67162 0.96302 0.55876 0.0
C978 C 0.68898 1.00045 0.54979 0.0
C979 C 0.69128 0.00633 0.52356 0.0
C980 C 0.67705 0.97639 0.50637 0.0
C981 C 0.68507 0.99106 0.47914 0.0
C982 C 0.71081 0.97876 0.46555 0.0
C983 C 0.64785 0.97798 0.4643 0.0
C984 C 0.70574 0.03374 0.48382 0.0
C985 C 0.70846 0.04179 0.50961 0.0
C986 C 0.72497 0.07899 0.51878 0.0
C987 C 0.73927 0.10888 0.50111 0.0
C988 C 0.73763 0.10141 0.47465 0.0
C989 C 0.72074 0.06336 0.46591 0.0
H990 H 0.78383 0.69677 0.02609 0.0
H991 H 0.69358 0.57933 0.0204 0.0
H992 H 0.65187 0.60032 1.00029 0.0
H993 H 0.72927 0.73831 0.04057 0.0
H994 H 0.75455 0.78008 0.02095 0.0
H995 H 0.77873 0.7563 0.03322 0.0
H996 H 0.79783 0.74823 0.9875 0.0
H997 H 0.77464 0.77297 0.97512 0.0
H998 H 0.76165 0.72624 0.96326 0.0
H999 H 0.61715 0.63475 0.98793 0.0
H1000 H 0.59569 0.67874 0.97306 0.0
H1001 H 0.71047 0.77374 0.98059 0.0
C1002 C 0.75574 0.67551 0.01972 0.0
C1003 C 0.74193 0.6364 0.02441 0.0
C1004 C 0.70486 0.60929 0.01638 0.0
C1005 C 0.68086 0.62102 0.00528 0.0
C1006 C 0.6948 0.6599 1.00174 0.0
C1007 C 0.73185 0.68667 0.00775 0.0
C1008 C 0.73981 0.72662 1.00145 0.0
C1009 C 0.75127 0.7518 0.02548 0.0
C1010 C 0.77028 0.74457 0.98059 0.0
C1011 C 0.70113 0.71819 0.99167 0.0
C1012 C 0.67543 0.67956 0.99259 0.0
C1013 C 0.63721 0.66493 0.98655 0.0
C1014 C 0.62519 0.6902 0.97842 0.0
C1015 C 0.65141 0.72954 0.97573 0.0
C1016 C 0.68989 0.74376 0.98253 0.0
H1017 H 0.96562 0.67551 0.45104 0.0
H1018 H 0.88509 0.64172 0.51347 0.0
H1019 H 0.9384 0.67357 0.54401 0.0
H1020 H 0.03579 0.66123 0.48559 0.0
H1021 H 0.07579 0.70123 0.47077 0.0
H1022 H 0.03134 0.67565 0.45383 0.0
H1023 H 0.03045 0.73863 0.44747 0.0
H1024 H 0.07468 0.76434 0.46465 0.0
H1025 H 0.03364 0.76695 0.47493 0.0
H1026 H 0.99911 0.71205 0.56708 0.0
H1027 H 0.06442 0.74802 0.58305 0.0
H1028 H 0.1076 0.75429 0.50629 0.0
C1029 C 0.95929 0.67463 0.47118 0.0
C1030 C 0.92128 0.65629 0.47999 0.0
C1031 C 0.91399 0.65544 0.50641 0.0
C1032 C 0.94406 0.67364 0.52384 0.0
C1033 C 0.98116 0.692 0.5145 0.0
C1034 C 0.989 0.69207 0.48889 0.0
C1035 C 0.0316 0.71313 0.48409 0.0
C1036 C 0.04438 0.6862 0.47291 0.0
C1037 C 0.04326 0.74782 0.46676 0.0
C1038 C 0.04647 0.72528 0.51104 0.0
C1039 C 0.01669 0.71306 0.52812 0.0
C1040 C 0.02268 0.72145 0.55396 0.0
C1041 C 0.06007 0.74217 0.56278 0.0
C1042 C 0.09133 0.75401 0.54593 0.0
C1043 C 0.08437 0.74564 0.51962 0.0
H1044 H 0.74181 0.07499 0.03646 0.0
H1045 H 0.85333 0.08652 0.03173 0.0
H1046 H 0.82462 0.01936 0.01748 0.0
H1047 H 0.68792 0.97091 0.05548 0.0
H1048 H 0.64791 0.96227 0.03581 0.0
H1049 H 0.67667 0.00824 0.05047 0.0
H1050 H 0.68794 0.0401 0.0061 0.0
H1051 H 0.65977 0.99435 0.99125 0.0
H1052 H 0.70793 0.02527 0.98088 0.0
H1053 H 0.78399 0.95357 0.99774 0.0
H1054 H 0.7357 0.89622 0.97466 0.0
H1055 H 0.6507 0.92799 0.99215 0.0
C1056 C 0.75978 0.06256 0.03366 0.0
C1057 C 0.79961 0.08526 0.03609 0.0
C1058 C 0.82268 0.069 0.03079 0.0
C1059 C 0.80659 0.03099 0.02255 0.0
C1060 C 0.76721 0.00954 0.01953 0.0
C1061 C 0.74406 0.02469 0.02518 0.0
C1062 C 0.7032 0.99732 0.01763 0.0
C1063 C 0.6774 0.98388 0.04126 0.0
C1064 C 0.6889 0.01534 0.99779 0.0
C1065 C 0.70716 0.96509 0.00608 0.0
C1066 C 0.74413 0.97228 0.00764 0.0
C1067 C 0.75482 0.94743 0.9968 0.0
C1068 C 0.72718 0.9148 0.98375 0.0
C1069 C 0.68933 0.90745 0.98135 0.0
C1070 C 0.67936 0.93274 0.99327 0.0
H1071 H 0.74497 0.66703 0.48106 0.0
H1072 H 0.85785 0.75983 0.49782 0.0
H1073 H 0.83073 0.78825 0.52689 0.0
H1074 H 0.70386 0.7223 0.47518 0.0
H1075 H 0.65858 0.68909 0.48896 0.0
H1076 H 0.68709 0.67188 0.4742 0.0
H1077 H 0.68557 0.6369 0.51595 0.0
H1078 H 0.65696 0.65411 0.53089 0.0
H1079 H 0.70099 0.66322 0.54546 0.0
H1080 H 0.79096 0.81136 0.54904 0.0
H1081 H 0.74194 0.82885 0.55954 0.0
H1082 H 0.65516 0.72185 0.52778 0.0
C1083 C 0.76387 0.69251 0.49167 0.0
C1084 C 0.80341 0.71107 0.48755 0.0
C1085 C 0.82744 0.7452 0.5009 0.0
C1086 C 0.8123 0.76136 0.51756 0.0
C1087 C 0.773 0.74306 0.52065 0.0
C1088 C 0.74908 0.7093 0.50808 0.0
C1089 C 0.70783 0.69818 0.51179 0.0
C1090 C 0.68822 0.69523 0.48601 0.0
C1091 C 0.68659 0.66089 0.52693 0.0
C1092 C 0.71235 0.73172 0.52738 0.0
C1093 C 0.75006 0.75687 0.53291 0.0
C1094 C 0.76127 0.79151 0.54526 0.0
C1095 C 0.73334 0.80121 0.55129 0.0
C1096 C 0.69495 0.77665 0.54451 0.0
C1097 C 0.68437 0.74099 0.53327 0.0
H1098 H 0.95232 0.72676 0.05208 0.0
H1099 H 0.88955 0.63356 0.99957 0.0
H1100 H 0.94476 0.66091 0.96996 0.0
H1101 H 1.00176 0.80094 1.003 0.0
H1102 H 0.04442 0.82485 0.022 0.0
H1103 H 0.99877 0.79916 0.03734 0.0
H1104 H 0.02225 0.75957 0.0624 0.0
H1105 H 0.06771 0.78466 0.04687 0.0
H1106 H 0.04035 0.73345 0.04512 0.0
H1107 H 0.01081 0.69514 0.94919 0.0
H1108 H 0.0781 0.73753 0.93639 0.0
H1109 H 0.09474 0.80918 1.00204 0.0
C1110 C 0.95005 0.71275 0.03402 0.0
C1111 C 0.917 0.67837 0.02784 0.0
C1112 C 0.91468 0.6603 0.00427 0.0
C1113 C 0.94591 0.67548 0.98754 0.0
C1114 C 0.97873 0.70902 0.99461 0.0
C1115 C 0.98054 0.72783 0.01707 0.0
C1116 C 0.01904 0.76284 0.02075 0.0
C1117 C 0.01579 0.79909 0.02076 0.0
C1118 C 0.03846 0.75993 0.04523 0.0
C1119 C 0.03908 0.76048 0.99717 0.0
C1120 C 0.01565 0.72918 0.98233 0.0
C1121 C 0.02912 0.7201 0.96043 0.0
C1122 C 0.0673 0.74403 0.9534 0.0
C1123 C 0.09117 0.77673 0.96808 0.0
C1124 C 0.07676 0.7848 0.99021 0.0
H1125 H 0.22955 0.9683 0.56501 0.0
H1126 H 0.22709 0.89674 0.50289 0.0
H1127 H 0.24864 0.95122 0.47303 0.0
H1128 H 0.20069 0.02847 0.52651 0.0
H1129 H 0.23199 0.07027 0.54479 0.0
H1130 H 0.20986 0.02403 0.55964 0.0
H1131 H 0.27617 0.03537 0.57331 0.0
H1132 H 0.29844 0.08137 0.55845 0.0
H1133 H 0.3122 0.04699 0.54937 0.0
H1134 H 0.28157 0.01728 0.45202 0.0
H1135 H 0.32041 0.08624 0.44236 0.0
H1136 H 0.29811 0.11279 0.5182 0.0
C1137 C 0.23246 0.9639 0.54495 0.0
C1138 C 0.22653 0.92844 0.53616 0.0
C1139 C 0.23093 0.9236 0.50987 0.0
C1140 C 0.24327 0.95443 0.49284 0.0
C1141 C 0.25026 0.9896 0.50238 0.0
C1142 C 0.24429 0.99413 0.52782 0.0
C1143 C 0.25693 0.03518 0.53408 0.0
C1144 C 0.22283 0.03975 0.5417 0.0
C1145 C 0.28776 0.05061 0.55502 0.0
C1146 C 0.27285 0.05358 0.50857 0.0
C1147 C 0.26836 0.02699 0.49031 0.0
C1148 C 0.28436 0.03818 0.46603 0.0
C1149 C 0.30625 0.0774 0.46062 0.0
C1150 C 0.31219 0.10487 0.47952 0.0
C1151 C 0.29402 0.09247 0.50337 0.0
H1152 H 0.20062 0.27039 0.9898 0.0
H1153 H 0.29978 0.37789 0.9696 0.0
H1154 H 0.3409 0.35788 0.99167 0.0
H1155 H 0.23267 0.26021 0.05177 0.0
H1156 H 0.21232 0.20941 0.04869 0.0
H1157 H 0.19097 0.23317 0.03228 0.0
H1158 H 0.19706 0.20491 0.98932 0.0
H1159 H 0.21847 0.18112 0.00557 0.0
H1160 H 0.24295 0.21274 0.9794 0.0
H1161 H 0.3713 0.32446 0.0152 0.0
H1162 H 0.38782 0.28175 0.03861 0.0
H1163 H 0.26834 0.19562 0.04125 0.0
C1164 C 0.23095 0.28982 0.98985 0.0
C1165 C 0.24683 0.32581 0.97787 0.0
C1166 C 0.28677 0.35041 0.97889 0.0
C1167 C 0.31041 0.33917 0.99125 0.0
C1168 C 0.29372 0.30324 1.00252 0.0
C1169 C 0.25485 0.27903 1.00195 0.0
C1170 C 0.24382 0.24165 0.01503 0.0
C1171 C 0.21845 0.23579 0.03833 0.0
C1172 C 0.22444 0.20814 0.9962 0.0
C1173 C 0.28256 0.24844 0.02302 0.0
C1174 C 0.31104 0.2841 0.0157 0.0
C1175 C 0.34916 0.29648 0.02098 0.0
C1176 C 0.3583 0.27184 0.03416 0.0
C1177 C 0.32946 0.23514 0.04191 0.0
C1178 C 0.29115 0.22354 0.03605 0.0
H1179 H 0.05269 0.27406 0.54824 0.0
H1180 H 0.1273 0.3423 0.48734 0.0
H1181 H 0.07461 0.3089 0.45621 0.0
H1182 H 0.99236 0.18461 0.50961 0.0
H1183 H 0.95032 0.17598 0.52676 0.0
H1184 H 0.99589 0.19876 0.54258 0.0
H1185 H 0.98649 0.25559 0.5548 0.0
H1186 H 0.94112 0.23306 0.53913 0.0
H1187 H 0.97681 0.28051 0.53004 0.0
H1188 H 0.00985 0.27677 0.43364 0.0
H1189 H 0.9416 0.25107 0.42299 0.0
H1190 H 0.91057 0.20434 0.49887 0.0
C1191 C 0.05822 0.28104 0.5282 0.0
C1192 C 0.09401 0.31057 0.52014 0.0
C1193 C 0.10024 0.31931 0.49383 0.0
C1194 C 0.0704 0.3005 0.47606 0.0
C1195 C 0.03477 0.27258 0.48489 0.0
C1196 C 0.0289 0.26259 0.51041 0.0
C1197 C 0.98738 0.2355 0.51597 0.0
C1198 C 0.98113 0.19639 0.52421 0.0
C1199 C 0.97208 0.25219 0.53615 0.0
C1200 C 0.97026 0.23336 0.48996 0.0
C1201 C 0.99791 0.25414 0.47201 0.0
C1202 C 0.98813 0.25958 0.44737 0.0
C1203 C 0.94936 0.24469 0.44136 0.0
C1204 C 0.92109 0.22514 0.46001 0.0
C1205 C 0.93178 0.21829 0.48416 0.0
loop_
_geom_bond_atom_site_label_1
_geom_bond_atom_site_label_2
_geom_bond_distance
_geom_bond_site_symmetry_2
_ccdc_geom_bond_type
Co0 N4 2.148 . S
Co0 N10 2.128 . S
Co0 N20 2.194 . S
Co0 O25 2.351 . S
Co0 O26 2.155 . S
Co0 O27 2.096 . S
C1 N4 1.301 . S
C1 N5 1.328 . S
C1 H6 0.930 . S
C2 C3 1.333 . S
C2 N4 1.317 . S
C2 H7 0.930 . S
C3 C2 1.333 . S
C3 N5 1.350 . S
C3 H29 0.931 . S
N4 Co0 2.148 . S
N4 C1 1.301 . S
N4 C2 1.317 . S
N5 C1 1.328 . S
N5 C3 1.350 . S
H6 C1 0.930 . S
H7 C2 0.930 . S
C8 O9 1.224 . S
C8 O27 1.247 . S
O9 C8 1.224 . S
N10 Co0 2.128 . S
N10 C11 1.355 . S
N10 C13 1.311 . S
C11 N10 1.355 . S
C11 C12 1.363 . S
C11 H23 0.929 . S
C12 C11 1.363 . S
C12 N14 1.375 . S
C12 H30 0.931 . S
C13 N10 1.311 . S
C13 N14 1.347 . S
C13 H24 0.929 . S
N14 C12 1.375 . S
N14 C13 1.347 . S
C15 C18 1.365 . S
C15 N20 1.328 . S
C15 H21 0.929 . S
C16 C17 1.362 . S
C16 C19 1.378 . S
C16 H31 0.929 . S
C17 C16 1.362 . S
C17 C18 1.366 . S
C18 C15 1.365 . S
C18 C17 1.366 . S
C18 H32 0.930 . S
C19 C16 1.378 . S
C19 N20 1.315 . S
C19 H22 0.930 . S
N20 Co0 2.194 . S
N20 C15 1.328 . S
N20 C19 1.315 . S
H21 C15 0.929 . S
H22 C19 0.930 . S
H23 C11 0.929 . S
H24 C13 0.929 . S
O25 Co0 2.351 . S
O25 C28 1.244 . S
O26 Co0 2.155 . S
O26 C28 1.240 . S
O27 Co0 2.096 . S
O27 C8 1.247 . S
C28 O25 1.244 . S
C28 O26 1.240 . S
H29 C3 0.931 . S
H30 C12 0.931 . S
H31 C16 0.929 . S
H32 C18 0.930 . S
Co33 N37 2.148 . S
Co33 N43 2.128 . S
Co33 N53 2.194 . S
Co33 O58 2.351 . S
Co33 O59 2.155 . S
Co33 O60 2.096 . S
C34 N37 1.301 . S
C34 N38 1.328 . S
C34 H39 0.930 . S
C35 C36 1.333 . S
C35 N37 1.317 . S
C35 H40 0.930 . S
C36 C35 1.333 . S
C36 N38 1.350 . S
C36 H62 0.931 . S
N37 Co33 2.148 . S
N37 C34 1.301 . S
N37 C35 1.317 . S
N38 C34 1.328 . S
N38 C36 1.350 . S
H39 C34 0.930 . S
H40 C35 0.930 . S
C41 O42 1.224 . S
C41 O60 1.247 . S
O42 C41 1.224 . S
N43 Co33 2.128 . S
N43 C44 1.355 . S
N43 C46 1.311 . S
C44 N43 1.355 . S
C44 C45 1.363 . S
C44 H56 0.929 . S
C45 C44 1.363 . S
C45 N47 1.375 . S
C45 H63 0.931 . S
C46 N43 1.311 . S
C46 N47 1.347 . S
C46 H57 0.929 . S
N47 C45 1.375 . S
N47 C46 1.347 . S
C48 C51 1.365 . S
C48 N53 1.328 . S
C48 H54 0.929 . S
C49 C50 1.362 . S
C49 C52 1.378 . S
C49 H64 0.929 . S
C50 C49 1.362 . S
C50 C51 1.366 . S
C51 C48 1.365 . S
C51 C50 1.366 . S
C51 H65 0.930 . S
C52 C49 1.378 . S
C52 N53 1.315 . S
C52 H55 0.930 . S
N53 Co33 2.194 . S
N53 C48 1.328 . S
N53 C52 1.315 . S
H54 C48 0.929 . S
H55 C52 0.930 . S
H56 C44 0.929 . S
H57 C46 0.929 . S
O58 Co33 2.351 . S
O58 C61 1.244 . S
O59 Co33 2.155 . S
O59 C61 1.240 . S
O60 Co33 2.096 . S
O60 C41 1.247 . S
C61 O58 1.244 . S
C61 O59 1.240 . S
H62 C36 0.931 . S
H63 C45 0.931 . S
H64 C49 0.929 . S
H65 C51 0.930 . S
Co66 N70 2.148 . S
Co66 N76 2.128 . S
Co66 N86 2.194 . S
Co66 O91 2.351 . S
Co66 O92 2.155 . S
Co66 O93 2.096 . S
C67 N70 1.301 . S
C67 N71 1.328 . S
C67 H72 0.930 . S
C68 C69 1.333 . S
C68 N70 1.317 . S
C68 H73 0.930 . S
C69 C68 1.333 . S
C69 N71 1.350 . S
C69 H95 0.931 . S
N70 Co66 2.148 . S
N70 C67 1.301 . S
N70 C68 1.317 . S
N71 C67 1.328 . S
N71 C69 1.350 . S
H72 C67 0.930 . S
H73 C68 0.930 . S
C74 O75 1.224 . S
C74 O93 1.247 . S
O75 C74 1.224 . S
N76 Co66 2.128 . S
N76 C77 1.355 . S
N76 C79 1.311 . S
C77 N76 1.355 . S
C77 C78 1.363 . S
C77 H89 0.929 . S
C78 C77 1.363 . S
C78 N80 1.375 . S
C78 H96 0.931 . S
C79 N76 1.311 . S
C79 N80 1.347 . S
C79 H90 0.929 . S
N80 C78 1.375 . S
N80 C79 1.347 . S
C81 C84 1.365 . S
C81 N86 1.328 . S
C81 H87 0.929 . S
C82 C83 1.362 . S
C82 C85 1.378 . S
C82 H97 0.929 . S
C83 C82 1.362 . S
C83 C84 1.366 . S
C84 C81 1.365 . S
C84 C83 1.366 . S
C84 H98 0.930 . S
C85 C82 1.378 . S
C85 N86 1.315 . S
C85 H88 0.930 . S
N86 Co66 2.194 . S
N86 C81 1.328 . S
N86 C85 1.315 . S
H87 C81 0.929 . S
H88 C85 0.930 . S
H89 C77 0.929 . S
H90 C79 0.929 . S
O91 Co66 2.351 . S
O91 C94 1.244 . S
O92 Co66 2.155 . S
O92 C94 1.240 . S
O93 Co66 2.096 . S
O93 C74 1.247 . S
C94 O91 1.244 . S
C94 O92 1.240 . S
H95 C69 0.931 . S
H96 C78 0.931 . S
H97 C82 0.929 . S
H98 C84 0.930 . S
Co99 N103 2.148 . S
Co99 N109 2.128 . S
Co99 N119 2.194 . S
Co99 O124 2.351 . S
Co99 O125 2.155 . S
Co99 O126 2.096 . S
C100 N103 1.301 . S
C100 N104 1.328 . S
C100 H105 0.930 . S
C101 C102 1.333 . S
C101 N103 1.317 . S
C101 H106 0.930 . S
C102 C101 1.333 . S
C102 N104 1.350 . S
C102 H128 0.931 . S
N103 Co99 2.148 . S
N103 C100 1.301 . S
N103 C101 1.317 . S
N104 C100 1.328 . S
N104 C102 1.350 . S
H105 C100 0.930 . S
H106 C101 0.930 . S
C107 O108 1.224 . S
C107 O126 1.247 . S
O108 C107 1.224 . S
N109 Co99 2.128 . S
N109 C110 1.355 . S
N109 C112 1.311 . S
C110 N109 1.355 . S
C110 C111 1.363 . S
C110 H122 0.929 . S
C111 C110 1.363 . S
C111 N113 1.375 . S
C111 H129 0.931 . S
C112 N109 1.311 . S
C112 N113 1.347 . S
C112 H123 0.929 . S
N113 C111 1.375 . S
N113 C112 1.347 . S
C114 C117 1.365 . S
C114 N119 1.328 . S
C114 H120 0.929 . S
C115 C116 1.362 . S
C115 C118 1.378 . S
C115 H130 0.929 . S
C116 C115 1.362 . S
C116 C117 1.366 . S
C117 C114 1.365 . S
C117 C116 1.366 . S
C117 H131 0.930 . S
C118 C115 1.378 . S
C118 N119 1.315 . S
C118 H121 0.930 . S
N119 Co99 2.194 . S
N119 C114 1.328 . S
N119 C118 1.315 . S
H120 C114 0.929 . S
H121 C118 0.930 . S
H122 C110 0.929 . S
H123 C112 0.929 . S
O124 Co99 2.351 . S
O124 C127 1.244 . S
O125 Co99 2.155 . S
O125 C127 1.240 . S
O126 Co99 2.096 . S
O126 C107 1.247 . S
C127 O124 1.244 . S
C127 O125 1.240 . S
H128 C102 0.931 . S
H129 C111 0.931 . S
H130 C115 0.929 . S
H131 C117 0.930 . S
Co132 N136 2.148 . S
Co132 N142 2.128 . S
Co132 N152 2.194 . S
Co132 O157 2.351 . S
Co132 O158 2.155 . S
Co132 O159 2.096 . S
C133 N136 1.301 . S
C133 N137 1.328 . S
C133 H138 0.930 . S
C134 C135 1.333 . S
C134 N136 1.317 . S
C134 H139 0.930 . S
C135 C134 1.333 . S
C135 N137 1.350 . S
C135 H161 0.931 . S
N136 Co132 2.148 . S
N136 C133 1.301 . S
N136 C134 1.317 . S
N137 C133 1.328 . S
N137 C135 1.350 . S
H138 C133 0.930 . S
H139 C134 0.930 . S
C140 O141 1.224 . S
C140 O159 1.247 . S
O141 C140 1.224 . S
N142 Co132 2.128 . S
N142 C143 1.355 . S
N142 C145 1.311 . S
C143 N142 1.355 . S
C143 C144 1.363 . S
C143 H155 0.929 . S
C144 C143 1.363 . S
C144 N146 1.375 . S
C144 H162 0.931 . S
C145 N142 1.311 . S
C145 N146 1.347 . S
C145 H156 0.929 . S
N146 C144 1.375 . S
N146 C145 1.347 . S
C147 C150 1.365 . S
C147 N152 1.328 . S
C147 H153 0.929 . S
C148 C149 1.362 . S
C148 C151 1.378 . S
C148 H163 0.929 . S
C149 C148 1.362 . S
C149 C150 1.366 . S
C150 C147 1.365 . S
C150 C149 1.366 . S
C150 H164 0.930 . S
C151 C148 1.378 . S
C151 N152 1.315 . S
C151 H154 0.930 . S
N152 Co132 2.194 . S
N152 C147 1.328 . S
N152 C151 1.315 . S
H153 C147 0.929 . S
H154 C151 0.930 . S
H155 C143 0.929 . S
H156 C145 0.929 . S
O157 Co132 2.351 . S
O157 C160 1.244 . S
O158 Co132 2.155 . S
O158 C160 1.240 . S
O159 Co132 2.096 . S
O159 C140 1.247 . S
C160 O157 1.244 . S
C160 O158 1.240 . S
H161 C135 0.931 . S
H162 C144 0.931 . S
H163 C148 0.929 . S
H164 C150 0.930 . S
Co165 N169 2.148 . S
Co165 N175 2.128 . S
Co165 N185 2.194 . S
Co165 O190 2.351 . S
Co165 O191 2.155 . S
Co165 O192 2.096 . S
C166 N169 1.301 . S
C166 N170 1.328 . S
C166 H171 0.930 . S
C167 C168 1.333 . S
C167 N169 1.317 . S
C167 H172 0.930 . S
C168 C167 1.333 . S
C168 N170 1.350 . S
C168 H194 0.931 . S
N169 Co165 2.148 . S
N169 C166 1.301 . S
N169 C167 1.317 . S
N170 C166 1.328 . S
N170 C168 1.350 . S
H171 C166 0.930 . S
H172 C167 0.930 . S
C173 O174 1.224 . S
C173 O192 1.247 . S
O174 C173 1.224 . S
N175 Co165 2.128 . S
N175 C176 1.355 . S
N175 C178 1.311 . S
C176 N175 1.355 . S
C176 C177 1.363 . S
C176 H188 0.929 . S
C177 C176 1.363 . S
C177 N179 1.375 . S
C177 H195 0.931 . S
C178 N175 1.311 . S
C178 N179 1.347 . S
C178 H189 0.929 . S
N179 C177 1.375 . S
N179 C178 1.347 . S
C180 C183 1.365 . S
C180 N185 1.328 . S
C180 H186 0.929 . S
C181 C182 1.362 . S
C181 C184 1.378 . S
C181 H196 0.929 . S
C182 C181 1.362 . S
C182 C183 1.366 . S
C183 C180 1.365 . S
C183 C182 1.366 . S
C183 H197 0.930 . S
C184 C181 1.378 . S
C184 N185 1.315 . S
C184 H187 0.930 . S
N185 Co165 2.194 . S
N185 C180 1.328 . S
N185 C184 1.315 . S
H186 C180 0.929 . S
H187 C184 0.930 . S
H188 C176 0.929 . S
H189 C178 0.929 . S
O190 Co165 2.351 . S
O190 C193 1.244 . S
O191 Co165 2.155 . S
O191 C193 1.240 . S
O192 Co165 2.096 . S
O192 C173 1.247 . S
C193 O190 1.244 . S
C193 O191 1.240 . S
H194 C168 0.931 . S
H195 C177 0.931 . S
H196 C181 0.929 . S
H197 C183 0.930 . S
Co198 N202 2.148 . S
Co198 N208 2.128 . S
Co198 N218 2.194 . S
Co198 O223 2.351 . S
Co198 O224 2.155 . S
Co198 O225 2.096 . S
C199 N202 1.301 . S
C199 N203 1.328 . S
C199 H204 0.930 . S
C200 C201 1.333 . S
C200 N202 1.317 . S
C200 H205 0.930 . S
C201 C200 1.333 . S
C201 N203 1.350 . S
C201 H227 0.931 . S
N202 Co198 2.148 . S
N202 C199 1.301 . S
N202 C200 1.317 . S
N203 C199 1.328 . S
N203 C201 1.350 . S
H204 C199 0.930 . S
H205 C200 0.930 . S
C206 O207 1.224 . S
C206 O225 1.247 . S
O207 C206 1.224 . S
N208 Co198 2.128 . S
N208 C209 1.355 . S
N208 C211 1.311 . S
C209 N208 1.355 . S
C209 C210 1.363 . S
C209 H221 0.929 . S
C210 C209 1.363 . S
C210 N212 1.375 . S
C210 H228 0.931 . S
C211 N208 1.311 . S
C211 N212 1.347 . S
C211 H222 0.929 . S
N212 C210 1.375 . S
N212 C211 1.347 . S
C213 C216 1.365 . S
C213 N218 1.328 . S
C213 H219 0.929 . S
C214 C215 1.362 . S
C214 C217 1.378 . S
C214 H229 0.929 . S
C215 C214 1.362 . S
C215 C216 1.366 . S
C216 C213 1.365 . S
C216 C215 1.366 . S
C216 H230 0.930 . S
C217 C214 1.378 . S
C217 N218 1.315 . S
C217 H220 0.930 . S
N218 Co198 2.194 . S
N218 C213 1.328 . S
N218 C217 1.315 . S
H219 C213 0.929 . S
H220 C217 0.930 . S
H221 C209 0.929 . S
H222 C211 0.929 . S
O223 Co198 2.351 . S
O223 C226 1.244 . S
O224 Co198 2.155 . S
O224 C226 1.240 . S
O225 Co198 2.096 . S
O225 C206 1.247 . S
C226 O223 1.244 . S
C226 O224 1.240 . S
H227 C201 0.931 . S
H228 C210 0.931 . S
H229 C214 0.929 . S
H230 C216 0.930 . S
Co231 N235 2.148 . S
Co231 N241 2.128 . S
Co231 N251 2.194 . S
Co231 O256 2.351 . S
Co231 O257 2.155 . S
Co231 O258 2.096 . S
C232 N235 1.301 . S
C232 N236 1.328 . S
C232 H237 0.930 . S
C233 C234 1.333 . S
C233 N235 1.317 . S
C233 H238 0.930 . S
C234 C233 1.333 . S
C234 N236 1.350 . S
C234 H260 0.931 . S
N235 Co231 2.148 . S
N235 C232 1.301 . S
N235 C233 1.317 . S
N236 C232 1.328 . S
N236 C234 1.350 . S
H237 C232 0.930 . S
H238 C233 0.930 . S
C239 O240 1.224 . S
C239 O258 1.247 . S
O240 C239 1.224 . S
N241 Co231 2.128 . S
N241 C242 1.355 . S
N241 C244 1.311 . S
C242 N241 1.355 . S
C242 C243 1.363 . S
C242 H254 0.929 . S
C243 C242 1.363 . S
C243 N245 1.375 . S
C243 H261 0.931 . S
C244 N241 1.311 . S
C244 N245 1.347 . S
C244 H255 0.929 . S
N245 C243 1.375 . S
N245 C244 1.347 . S
C246 C249 1.365 . S
C246 N251 1.328 . S
C246 H252 0.929 . S
C247 C248 1.362 . S
C247 C250 1.378 . S
C247 H262 0.929 . S
C248 C247 1.362 . S
C248 C249 1.366 . S
C249 C246 1.365 . S
C249 C248 1.366 . S
C249 H263 0.930 . S
C250 C247 1.378 . S
C250 N251 1.315 . S
C250 H253 0.930 . S
N251 Co231 2.194 . S
N251 C246 1.328 . S
N251 C250 1.315 . S
H252 C246 0.929 . S
H253 C250 0.930 . S
H254 C242 0.929 . S
H255 C244 0.929 . S
O256 Co231 2.351 . S
O256 C259 1.244 . S
O257 Co231 2.155 . S
O257 C259 1.240 . S
O258 Co231 2.096 . S
O258 C239 1.247 . S
C259 O256 1.244 . S
C259 O257 1.240 . S
H260 C234 0.931 . S
H261 C243 0.931 . S
H262 C247 0.929 . S
H263 C249 0.930 . S
Co264 N268 2.148 . S
Co264 N274 2.128 . S
Co264 N284 2.194 . S
Co264 O289 2.351 . S
Co264 O290 2.155 . S
Co264 O291 2.096 . S
C265 N268 1.301 . S
C265 N269 1.328 . S
C265 H270 0.930 . S
C266 C267 1.333 . S
C266 N268 1.317 . S
C266 H271 0.930 . S
C267 C266 1.333 . S
C267 N269 1.350 . S
C267 H293 0.931 . S
N268 Co264 2.148 . S
N268 C265 1.301 . S
N268 C266 1.317 . S
N269 C265 1.328 . S
N269 C267 1.350 . S
H270 C265 0.930 . S
H271 C266 0.930 . S
C272 O273 1.224 . S
C272 O291 1.247 . S
O273 C272 1.224 . S
N274 Co264 2.128 . S
N274 C275 1.355 . S
N274 C277 1.311 . S
C275 N274 1.355 . S
C275 C276 1.363 . S
C275 H287 0.929 . S
C276 C275 1.363 . S
C276 N278 1.375 . S
C276 H294 0.931 . S
C277 N274 1.311 . S
C277 N278 1.347 . S
C277 H288 0.929 . S
N278 C276 1.375 . S
N278 C277 1.347 . S
C279 C282 1.365 . S
C279 N284 1.328 . S
C279 H285 0.929 . S
C280 C281 1.362 . S
C280 C283 1.378 . S
C280 H295 0.929 . S
C281 C280 1.362 . S
C281 C282 1.366 . S
C282 C279 1.365 . S
C282 C281 1.366 . S
C282 H296 0.930 . S
C283 C280 1.378 . S
C283 N284 1.315 . S
C283 H286 0.930 . S
N284 Co264 2.194 . S
N284 C279 1.328 . S
N284 C283 1.315 . S
H285 C279 0.929 . S
H286 C283 0.930 . S
H287 C275 0.929 . S
H288 C277 0.929 . S
O289 Co264 2.351 . S
O289 C292 1.244 . S
O290 Co264 2.155 . S
O290 C292 1.240 . S
O291 Co264 2.096 . S
O291 C272 1.247 . S
C292 O289 1.244 . S
C292 O290 1.240 . S
H293 C267 0.931 . S
H294 C276 0.931 . S
H295 C280 0.929 . S
H296 C282 0.930 . S
Co297 N301 2.148 . S
Co297 N307 2.128 . S
Co297 N317 2.194 . S
Co297 O322 2.351 . S
Co297 O323 2.155 . S
Co297 O324 2.096 . S
C298 N301 1.301 . S
C298 N302 1.328 . S
C298 H303 0.930 . S
C299 C300 1.333 . S
C299 N301 1.317 . S
C299 H304 0.930 . S
C300 C299 1.333 . S
C300 N302 1.350 . S
C300 H326 0.931 . S
N301 Co297 2.148 . S
N301 C298 1.301 . S
N301 C299 1.317 . S
N302 C298 1.328 . S
N302 C300 1.350 . S
H303 C298 0.930 . S
H304 C299 0.930 . S
C305 O306 1.224 . S
C305 O324 1.247 . S
O306 C305 1.224 . S
N307 Co297 2.128 . S
N307 C308 1.355 . S
N307 C310 1.311 . S
C308 N307 1.355 . S
C308 C309 1.363 . S
C308 H320 0.929 . S
C309 C308 1.363 . S
C309 N311 1.375 . S
C309 H327 0.931 . S
C310 N307 1.311 . S
C310 N311 1.347 . S
C310 H321 0.929 . S
N311 C309 1.375 . S
N311 C310 1.347 . S
C312 C315 1.365 . S
C312 N317 1.328 . S
C312 H318 0.929 . S
C313 C314 1.362 . S
C313 C316 1.378 . S
C313 H328 0.929 . S
C314 C313 1.362 . S
C314 C315 1.366 . S
C315 C312 1.365 . S
C315 C314 1.366 . S
C315 H329 0.930 . S
C316 C313 1.378 . S
C316 N317 1.315 . S
C316 H319 0.930 . S
N317 Co297 2.194 . S
N317 C312 1.328 . S
N317 C316 1.315 . S
H318 C312 0.929 . S
H319 C316 0.930 . S
H320 C308 0.929 . S
H321 C310 0.929 . S
O322 Co297 2.351 . S
O322 C325 1.244 . S
O323 Co297 2.155 . S
O323 C325 1.240 . S
O324 Co297 2.096 . S
O324 C305 1.247 . S
C325 O322 1.244 . S
C325 O323 1.240 . S
H326 C300 0.931 . S
H327 C309 0.931 . S
H328 C313 0.929 . S
H329 C315 0.930 . S
Co330 N334 2.148 . S
Co330 N340 2.128 . S
Co330 N350 2.194 . S
Co330 O355 2.351 . S
Co330 O356 2.155 . S
Co330 O357 2.096 . S
C331 N334 1.301 . S
C331 N335 1.328 . S
C331 H336 0.930 . S
C332 C333 1.333 . S
C332 N334 1.317 . S
C332 H337 0.930 . S
C333 C332 1.333 . S
C333 N335 1.350 . S
C333 H359 0.931 . S
N334 Co330 2.148 . S
N334 C331 1.301 . S
N334 C332 1.317 . S
N335 C331 1.328 . S
N335 C333 1.350 . S
H336 C331 0.930 . S
H337 C332 0.930 . S
C338 O339 1.224 . S
C338 O357 1.247 . S
O339 C338 1.224 . S
N340 Co330 2.128 . S
N340 C341 1.355 . S
N340 C343 1.311 . S
C341 N340 1.355 . S
C341 C342 1.363 . S
C341 H353 0.929 . S
C342 C341 1.363 . S
C342 N344 1.375 . S
C342 H360 0.931 . S
C343 N340 1.311 . S
C343 N344 1.347 . S
C343 H354 0.929 . S
N344 C342 1.375 . S
N344 C343 1.347 . S
C345 C348 1.365 . S
C345 N350 1.328 . S
C345 H351 0.929 . S
C346 C347 1.362 . S
C346 C349 1.378 . S
C346 H361 0.929 . S
C347 C346 1.362 . S
C347 C348 1.366 . S
C348 C345 1.365 . S
C348 C347 1.366 . S
C348 H362 0.930 . S
C349 C346 1.378 . S
C349 N350 1.315 . S
C349 H352 0.930 . S
N350 Co330 2.194 . S
N350 C345 1.328 . S
N350 C349 1.315 . S
H351 C345 0.929 . S
H352 C349 0.930 . S
H353 C341 0.929 . S
H354 C343 0.929 . S
O355 Co330 2.351 . S
O355 C358 1.244 . S
O356 Co330 2.155 . S
O356 C358 1.240 . S
O357 Co330 2.096 . S
O357 C338 1.247 . S
C358 O355 1.244 . S
C358 O356 1.240 . S
H359 C333 0.931 . S
H360 C342 0.931 . S
H361 C346 0.929 . S
H362 C348 0.930 . S
Co363 N367 2.148 . S
Co363 N373 2.128 . S
Co363 N383 2.194 . S
Co363 O388 2.351 . S
Co363 O389 2.155 . S
Co363 O390 2.096 . S
C364 N367 1.301 . S
C364 N368 1.328 . S
C364 H369 0.930 . S
C365 C366 1.333 . S
C365 N367 1.317 . S
C365 H370 0.930 . S
C366 C365 1.333 . S
C366 N368 1.350 . S
C366 H392 0.931 . S
N367 Co363 2.148 . S
N367 C364 1.301 . S
N367 C365 1.317 . S
N368 C364 1.328 . S
N368 C366 1.350 . S
H369 C364 0.930 . S
H370 C365 0.930 . S
C371 O372 1.224 . S
C371 O390 1.247 . S
O372 C371 1.224 . S
N373 Co363 2.128 . S
N373 C374 1.355 . S
N373 C376 1.311 . S
C374 N373 1.355 . S
C374 C375 1.363 . S
C374 H386 0.929 . S
C375 C374 1.363 . S
C375 N377 1.375 . S
C375 H393 0.931 . S
C376 N373 1.311 . S
C376 N377 1.347 . S
C376 H387 0.929 . S
N377 C375 1.375 . S
N377 C376 1.347 . S
C378 C381 1.365 . S
C378 N383 1.328 . S
C378 H384 0.929 . S
C379 C380 1.362 . S
C379 C382 1.378 . S
C379 H394 0.929 . S
C380 C379 1.362 . S
C380 C381 1.366 . S
C381 C378 1.365 . S
C381 C380 1.366 . S
C381 H395 0.930 . S
C382 C379 1.378 . S
C382 N383 1.315 . S
C382 H385 0.930 . S
N383 Co363 2.194 . S
N383 C378 1.328 . S
N383 C382 1.315 . S
H384 C378 0.929 . S
H385 C382 0.930 . S
H386 C374 0.929 . S
H387 C376 0.929 . S
O388 Co363 2.351 . S
O388 C391 1.244 . S
O389 Co363 2.155 . S
O389 C391 1.240 . S
O390 Co363 2.096 . S
O390 C371 1.247 . S
C391 O388 1.244 . S
C391 O389 1.240 . S
H392 C366 0.931 . S
H393 C375 0.931 . S
H394 C379 0.929 . S
H395 C381 0.930 . S
H396 C408 0.930 . S
H397 C410 0.930 . S
H398 C411 0.930 . S
H399 C415 0.959 . S
H400 C415 0.959 . S
H401 C415 0.961 . S
H402 C416 0.960 . S
H403 C416 0.961 . S
H404 C416 0.959 . S
H405 C419 0.929 . S
H406 C420 0.931 . S
H407 C422 0.930 . S
C408 H396 0.930 . S
C408 C409 1.399 . S
C408 C413 1.399 . S
C409 C408 1.399 . S
C409 C410 1.376 . S
C410 H397 0.930 . S
C410 C409 1.376 . S
C410 C411 1.388 . S
C411 H398 0.930 . S
C411 C410 1.388 . S
C411 C412 1.390 . S
C412 C411 1.390 . S
C412 C413 1.394 . S
C412 C418 1.465 . S
C413 C408 1.399 . S
C413 C412 1.394 . S
C413 C414 1.516 . S
C414 C413 1.516 . S
C414 C415 1.502 . S
C414 C416 1.561 . S
C414 C417 1.526 . S
C415 H399 0.959 . S
C415 H400 0.959 . S
C415 H401 0.961 . S
C415 C414 1.502 . S
C416 H402 0.960 . S
C416 H403 0.961 . S
C416 H404 0.959 . S
C416 C414 1.561 . S
C417 C414 1.526 . S
C417 C418 1.396 . S
C417 C422 1.390 . S
C418 C412 1.465 . S
C418 C417 1.396 . S
C418 C419 1.399 . S
C419 H405 0.929 . S
C419 C418 1.399 . S
C419 C420 1.385 . S
C420 H406 0.931 . S
C420 C419 1.385 . S
C420 C421 1.389 . S
C421 C420 1.389 . S
C421 C422 1.387 . S
C422 H407 0.930 . S
C422 C417 1.390 . S
C422 C421 1.387 . S
H423 C435 0.930 . S
H424 C437 0.930 . S
H425 C438 0.930 . S
H426 C442 0.959 . S
H427 C442 0.959 . S
H428 C442 0.961 . S
H429 C443 0.960 . S
H430 C443 0.961 . S
H431 C443 0.959 . S
H432 C446 0.929 . S
H433 C447 0.931 . S
H434 C449 0.930 . S
C435 H423 0.930 . S
C435 C436 1.399 . S
C435 C440 1.399 . S
C436 C435 1.399 . S
C436 C437 1.376 . S
C437 H424 0.930 . S
C437 C436 1.376 . S
C437 C438 1.388 . S
C438 H425 0.930 . S
C438 C437 1.388 . S
C438 C439 1.390 . S
C439 C438 1.390 . S
C439 C440 1.394 . S
C439 C445 1.465 . S
C440 C435 1.399 . S
C440 C439 1.394 . S
C440 C441 1.516 . S
C441 C440 1.516 . S
C441 C442 1.502 . S
C441 C443 1.561 . S
C441 C444 1.526 . S
C442 H426 0.959 . S
C442 H427 0.959 . S
C442 H428 0.961 . S
C442 C441 1.502 . S
C443 H429 0.960 . S
C443 H430 0.961 . S
C443 H431 0.959 . S
C443 C441 1.561 . S
C444 C441 1.526 . S
C444 C445 1.396 . S
C444 C449 1.390 . S
C445 C439 1.465 . S
C445 C444 1.396 . S
C445 C446 1.399 . S
C446 H432 0.929 . S
C446 C445 1.399 . S
C446 C447 1.385 . S
C447 H433 0.931 . S
C447 C446 1.385 . S
C447 C448 1.389 . S
C448 C447 1.389 . S
C448 C449 1.387 . S
C449 H434 0.930 . S
C449 C444 1.390 . S
C449 C448 1.387 . S
H450 C462 0.930 . S
H451 C464 0.930 . S
H452 C465 0.930 . S
H453 C469 0.959 . S
H454 C469 0.959 . S
H455 C469 0.961 . S
H456 C470 0.960 . S
H457 C470 0.961 . S
H458 C470 0.959 . S
H459 C473 0.929 . S
H460 C474 0.931 . S
H461 C476 0.930 . S
C462 H450 0.930 . S
C462 C463 1.399 . S
C462 C467 1.399 . S
C463 C462 1.399 . S
C463 C464 1.376 . S
C464 H451 0.930 . S
C464 C463 1.376 . S
C464 C465 1.388 . S
C465 H452 0.930 . S
C465 C464 1.388 . S
C465 C466 1.390 . S
C466 C465 1.390 . S
C466 C467 1.394 . S
C466 C472 1.465 . S
C467 C462 1.399 . S
C467 C466 1.394 . S
C467 C468 1.516 . S
C468 C467 1.516 . S
C468 C469 1.502 . S
C468 C470 1.561 . S
C468 C471 1.526 . S
C469 H453 0.959 . S
C469 H454 0.959 . S
C469 H455 0.961 . S
C469 C468 1.502 . S
C470 H456 0.960 . S
C470 H457 0.961 . S
C470 H458 0.959 . S
C470 C468 1.561 . S
C471 C468 1.526 . S
C471 C472 1.396 . S
C471 C476 1.390 . S
C472 C466 1.465 . S
C472 C471 1.396 . S
C472 C473 1.399 . S
C473 H459 0.929 . S
C473 C472 1.399 . S
C473 C474 1.385 . S
C474 H460 0.931 . S
C474 C473 1.385 . S
C474 C475 1.389 . S
C475 C474 1.389 . S
C475 C476 1.387 . S
C476 H461 0.930 . S
C476 C471 1.390 . S
C476 C475 1.387 . S
H477 C489 0.930 . S
H478 C491 0.930 . S
H479 C492 0.930 . S
H480 C496 0.959 . S
H481 C496 0.959 . S
H482 C496 0.961 . S
H483 C497 0.960 . S
H484 C497 0.961 . S
H485 C497 0.959 . S
H486 C500 0.929 . S
H487 C501 0.931 . S
H488 C503 0.930 . S
C489 H477 0.930 . S
C489 C490 1.399 . S
C489 C494 1.399 . S
C490 C489 1.399 . S
C490 C491 1.376 . S
C491 H478 0.930 . S
C491 C490 1.376 . S
C491 C492 1.388 . S
C492 H479 0.930 . S
C492 C491 1.388 . S
C492 C493 1.390 . S
C493 C492 1.390 . S
C493 C494 1.394 . S
C493 C499 1.465 . S
C494 C489 1.399 . S
C494 C493 1.394 . S
C494 C495 1.516 . S
C495 C494 1.516 . S
C495 C496 1.502 . S
C495 C497 1.561 . S
C495 C498 1.526 . S
C496 H480 0.959 . S
C496 H481 0.959 . S
C496 H482 0.961 . S
C496 C495 1.502 . S
C497 H483 0.960 . S
C497 H484 0.961 . S
C497 H485 0.959 . S
C497 C495 1.561 . S
C498 C495 1.526 . S
C498 C499 1.396 . S
C498 C503 1.390 . S
C499 C493 1.465 . S
C499 C498 1.396 . S
C499 C500 1.399 . S
C500 H486 0.929 . S
C500 C499 1.399 . S
C500 C501 1.385 . S
C501 H487 0.931 . S
C501 C500 1.385 . S
C501 C502 1.389 . S
C502 C501 1.389 . S
C502 C503 1.387 . S
C503 H488 0.930 . S
C503 C498 1.390 . S
C503 C502 1.387 . S
H504 C516 0.930 . S
H505 C518 0.930 . S
H506 C519 0.930 . S
H507 C523 0.959 . S
H508 C523 0.959 . S
H509 C523 0.961 . S
H510 C524 0.960 . S
H511 C524 0.961 . S
H512 C524 0.959 . S
H513 C527 0.929 . S
H514 C528 0.931 . S
H515 C530 0.930 . S
C516 H504 0.930 . S
C516 C517 1.399 . S
C516 C521 1.399 . S
C517 C516 1.399 . S
C517 C518 1.376 . S
C518 H505 0.930 . S
C518 C517 1.376 . S
C518 C519 1.388 . S
C519 H506 0.930 . S
C519 C518 1.388 . S
C519 C520 1.390 . S
C520 C519 1.390 . S
C520 C521 1.394 . S
C520 C526 1.465 . S
C521 C516 1.399 . S
C521 C520 1.394 . S
C521 C522 1.516 . S
C522 C521 1.516 . S
C522 C523 1.502 . S
C522 C524 1.561 . S
C522 C525 1.526 . S
C523 H507 0.959 . S
C523 H508 0.959 . S
C523 H509 0.961 . S
C523 C522 1.502 . S
C524 H510 0.960 . S
C524 H511 0.961 . S
C524 H512 0.959 . S
C524 C522 1.561 . S
C525 C522 1.526 . S
C525 C526 1.396 . S
C525 C530 1.390 . S
C526 C520 1.465 . S
C526 C525 1.396 . S
C526 C527 1.399 . S
C527 H513 0.929 . S
C527 C526 1.399 . S
C527 C528 1.385 . S
C528 H514 0.931 . S
C528 C527 1.385 . S
C528 C529 1.389 . S
C529 C528 1.389 . S
C529 C530 1.387 . S
C530 H515 0.930 . S
C530 C525 1.390 . S
C530 C529 1.387 . S
H531 C543 0.930 . S
H532 C545 0.930 . S
H533 C546 0.930 . S
H534 C550 0.959 . S
H535 C550 0.959 . S
H536 C550 0.961 . S
H537 C551 0.960 . S
H538 C551 0.961 . S
H539 C551 0.959 . S
H540 C554 0.929 . S
H541 C555 0.931 . S
H542 C557 0.930 . S
C543 H531 0.930 . S
C543 C544 1.399 . S
C543 C548 1.399 . S
C544 C543 1.399 . S
C544 C545 1.376 . S
C545 H532 0.930 . S
C545 C544 1.376 . S
C545 C546 1.388 . S
C546 H533 0.930 . S
C546 C545 1.388 . S
C546 C547 1.390 . S
C547 C546 1.390 . S
C547 C548 1.394 . S
C547 C553 1.465 . S
C548 C543 1.399 . S
C548 C547 1.394 . S
C548 C549 1.516 . S
C549 C548 1.516 . S
C549 C550 1.502 . S
C549 C551 1.561 . S
C549 C552 1.526 . S
C550 H534 0.959 . S
C550 H535 0.959 . S
C550 H536 0.961 . S
C550 C549 1.502 . S
C551 H537 0.960 . S
C551 H538 0.961 . S
C551 H539 0.959 . S
C551 C549 1.561 . S
C552 C549 1.526 . S
C552 C553 1.396 . S
C552 C557 1.390 . S
C553 C547 1.465 . S
C553 C552 1.396 . S
C553 C554 1.399 . S
C554 H540 0.929 . S
C554 C553 1.399 . S
C554 C555 1.385 . S
C555 H541 0.931 . S
C555 C554 1.385 . S
C555 C556 1.389 . S
C556 C555 1.389 . S
C556 C557 1.387 . S
C557 H542 0.930 . S
C557 C552 1.390 . S
C557 C556 1.387 . S
H558 C570 0.930 . S
H559 C572 0.930 . S
H560 C573 0.930 . S
H561 C577 0.959 . S
H562 C577 0.959 . S
H563 C577 0.961 . S
H564 C578 0.960 . S
H565 C578 0.961 . S
H566 C578 0.959 . S
H567 C581 0.929 . S
H568 C582 0.931 . S
H569 C584 0.930 . S
C570 H558 0.930 . S
C570 C571 1.399 . S
C570 C575 1.399 . S
C571 C570 1.399 . S
C571 C572 1.376 . S
C572 H559 0.930 . S
C572 C571 1.376 . S
C572 C573 1.388 . S
C573 H560 0.930 . S
C573 C572 1.388 . S
C573 C574 1.390 . S
C574 C573 1.390 . S
C574 C575 1.394 . S
C574 C580 1.465 . S
C575 C570 1.399 . S
C575 C574 1.394 . S
C575 C576 1.516 . S
C576 C575 1.516 . S
C576 C577 1.502 . S
C576 C578 1.561 . S
C576 C579 1.526 . S
C577 H561 0.959 . S
C577 H562 0.959 . S
C577 H563 0.961 . S
C577 C576 1.502 . S
C578 H564 0.960 . S
C578 H565 0.961 . S
C578 H566 0.959 . S
C578 C576 1.561 . S
C579 C576 1.526 . S
C579 C580 1.396 . S
C579 C584 1.390 . S
C580 C574 1.465 . S
C580 C579 1.396 . S
C580 C581 1.399 . S
C581 H567 0.929 . S
C581 C580 1.399 . S
C581 C582 1.385 . S
C582 H568 0.931 . S
C582 C581 1.385 . S
C582 C583 1.389 . S
C583 C582 1.389 . S
C583 C584 1.387 . S
C584 H569 0.930 . S
C584 C579 1.390 . S
C584 C583 1.387 . S
H585 C597 0.930 . S
H586 C599 0.930 . S
H587 C600 0.930 . S
H588 C604 0.959 . S
H589 C604 0.959 . S
H590 C604 0.961 . S
H591 C605 0.960 . S
H592 C605 0.961 . S
H593 C605 0.959 . S
H594 C608 0.929 . S
H595 C609 0.931 . S
H596 C611 0.930 . S
C597 H585 0.930 . S
C597 C598 1.399 . S
C597 C602 1.399 . S
C598 C597 1.399 . S
C598 C599 1.376 . S
C599 H586 0.930 . S
C599 C598 1.376 . S
C599 C600 1.388 . S
C600 H587 0.930 . S
C600 C599 1.388 . S
C600 C601 1.390 . S
C601 C600 1.390 . S
C601 C602 1.394 . S
C601 C607 1.465 . S
C602 C597 1.399 . S
C602 C601 1.394 . S
C602 C603 1.516 . S
C603 C602 1.516 . S
C603 C604 1.502 . S
C603 C605 1.561 . S
C603 C606 1.526 . S
C604 H588 0.959 . S
C604 H589 0.959 . S
C604 H590 0.961 . S
C604 C603 1.502 . S
C605 H591 0.960 . S
C605 H592 0.961 . S
C605 H593 0.959 . S
C605 C603 1.561 . S
C606 C603 1.526 . S
C606 C607 1.396 . S
C606 C611 1.390 . S
C607 C601 1.465 . S
C607 C606 1.396 . S
C607 C608 1.399 . S
C608 H594 0.929 . S
C608 C607 1.399 . S
C608 C609 1.385 . S
C609 H595 0.931 . S
C609 C608 1.385 . S
C609 C610 1.389 . S
C610 C609 1.389 . S
C610 C611 1.387 . S
C611 H596 0.930 . S
C611 C606 1.390 . S
C611 C610 1.387 . S
H612 C624 0.930 . S
H613 C626 0.930 . S
H614 C627 0.930 . S
H615 C631 0.959 . S
H616 C631 0.959 . S
H617 C631 0.961 . S
H618 C632 0.960 . S
H619 C632 0.961 . S
H620 C632 0.959 . S
H621 C635 0.929 . S
H622 C636 0.931 . S
H623 C638 0.930 . S
C624 H612 0.930 . S
C624 C625 1.399 . S
C624 C629 1.399 . S
C625 C624 1.399 . S
C625 C626 1.376 . S
C626 H613 0.930 . S
C626 C625 1.376 . S
C626 C627 1.388 . S
C627 H614 0.930 . S
C627 C626 1.388 . S
C627 C628 1.390 . S
C628 C627 1.390 . S
C628 C629 1.394 . S
C628 C634 1.465 . S
C629 C624 1.399 . S
C629 C628 1.394 . S
C629 C630 1.516 . S
C630 C629 1.516 . S
C630 C631 1.502 . S
C630 C632 1.561 . S
C630 C633 1.526 . S
C631 H615 0.959 . S
C631 H616 0.959 . S
C631 H617 0.961 . S
C631 C630 1.502 . S
C632 H618 0.960 . S
C632 H619 0.961 . S
C632 H620 0.959 . S
C632 C630 1.561 . S
C633 C630 1.526 . S
C633 C634 1.396 . S
C633 C638 1.390 . S
C634 C628 1.465 . S
C634 C633 1.396 . S
C634 C635 1.399 . S
C635 H621 0.929 . S
C635 C634 1.399 . S
C635 C636 1.385 . S
C636 H622 0.931 . S
C636 C635 1.385 . S
C636 C637 1.389 . S
C637 C636 1.389 . S
C637 C638 1.387 . S
C638 H623 0.930 . S
C638 C633 1.390 . S
C638 C637 1.387 . S
H639 C651 0.930 . S
H640 C653 0.930 . S
H641 C654 0.930 . S
H642 C658 0.959 . S
H643 C658 0.959 . S
H644 C658 0.961 . S
H645 C659 0.960 . S
H646 C659 0.961 . S
H647 C659 0.959 . S
H648 C662 0.929 . S
H649 C663 0.931 . S
H650 C665 0.930 . S
C651 H639 0.930 . S
C651 C652 1.399 . S
C651 C656 1.399 . S
C652 C651 1.399 . S
C652 C653 1.376 . S
C653 H640 0.930 . S
C653 C652 1.376 . S
C653 C654 1.388 . S
C654 H641 0.930 . S
C654 C653 1.388 . S
C654 C655 1.390 . S
C655 C654 1.390 . S
C655 C656 1.394 . S
C655 C661 1.465 . S
C656 C651 1.399 . S
C656 C655 1.394 . S
C656 C657 1.516 . S
C657 C656 1.516 . S
C657 C658 1.502 . S
C657 C659 1.561 . S
C657 C660 1.526 . S
C658 H642 0.959 . S
C658 H643 0.959 . S
C658 H644 0.961 . S
C658 C657 1.502 . S
C659 H645 0.960 . S
C659 H646 0.961 . S
C659 H647 0.959 . S
C659 C657 1.561 . S
C660 C657 1.526 . S
C660 C661 1.396 . S
C660 C665 1.390 . S
C661 C655 1.465 . S
C661 C660 1.396 . S
C661 C662 1.399 . S
C662 H648 0.929 . S
C662 C661 1.399 . S
C662 C663 1.385 . S
C663 H649 0.931 . S
C663 C662 1.385 . S
C663 C664 1.389 . S
C664 C663 1.389 . S
C664 C665 1.387 . S
C665 H650 0.930 . S
C665 C660 1.390 . S
C665 C664 1.387 . S
H666 C678 0.930 . S
H667 C680 0.930 . S
H668 C681 0.930 . S
H669 C685 0.959 . S
H670 C685 0.959 . S
H671 C685 0.961 . S
H672 C686 0.960 . S
H673 C686 0.961 . S
H674 C686 0.959 . S
H675 C689 0.929 . S
H676 C690 0.931 . S
H677 C692 0.930 . S
C678 H666 0.930 . S
C678 C679 1.399 . S
C678 C683 1.399 . S
C679 C678 1.399 . S
C679 C680 1.376 . S
C680 H667 0.930 . S
C680 C679 1.376 . S
C680 C681 1.388 . S
C681 H668 0.930 . S
C681 C680 1.388 . S
C681 C682 1.390 . S
C682 C681 1.390 . S
C682 C683 1.394 . S
C682 C688 1.465 . S
C683 C678 1.399 . S
C683 C682 1.394 . S
C683 C684 1.516 . S
C684 C683 1.516 . S
C684 C685 1.502 . S
C684 C686 1.561 . S
C684 C687 1.526 . S
C685 H669 0.959 . S
C685 H670 0.959 . S
C685 H671 0.961 . S
C685 C684 1.502 . S
C686 H672 0.960 . S
C686 H673 0.961 . S
C686 H674 0.959 . S
C686 C684 1.561 . S
C687 C684 1.526 . S
C687 C688 1.396 . S
C687 C692 1.390 . S
C688 C682 1.465 . S
C688 C687 1.396 . S
C688 C689 1.399 . S
C689 H675 0.929 . S
C689 C688 1.399 . S
C689 C690 1.385 . S
C690 H676 0.931 . S
C690 C689 1.385 . S
C690 C691 1.389 . S
C691 C690 1.389 . S
C691 C692 1.387 . S
C692 H677 0.930 . S
C692 C687 1.390 . S
C692 C691 1.387 . S
H693 C705 0.930 . S
H694 C707 0.930 . S
H695 C708 0.930 . S
H696 C712 0.959 . S
H697 C712 0.959 . S
H698 C712 0.961 . S
H699 C713 0.960 . S
H700 C713 0.961 . S
H701 C713 0.959 . S
H702 C716 0.929 . S
H703 C717 0.931 . S
H704 C719 0.930 . S
C705 H693 0.930 . S
C705 C706 1.399 . S
C705 C710 1.399 . S
C706 C705 1.399 . S
C706 C707 1.376 . S
C707 H694 0.930 . S
C707 C706 1.376 . S
C707 C708 1.388 . S
C708 H695 0.930 . S
C708 C707 1.388 . S
C708 C709 1.390 . S
C709 C708 1.390 . S
C709 C710 1.394 . S
C709 C715 1.465 . S
C710 C705 1.399 . S
C710 C709 1.394 . S
C710 C711 1.516 . S
C711 C710 1.516 . S
C711 C712 1.502 . S
C711 C713 1.561 . S
C711 C714 1.526 . S
C712 H696 0.959 . S
C712 H697 0.959 . S
C712 H698 0.961 . S
C712 C711 1.502 . S
C713 H699 0.960 . S
C713 H700 0.961 . S
C713 H701 0.959 . S
C713 C711 1.561 . S
C714 C711 1.526 . S
C714 C715 1.396 . S
C714 C719 1.390 . S
C715 C709 1.465 . S
C715 C714 1.396 . S
C715 C716 1.399 . S
C716 H702 0.929 . S
C716 C715 1.399 . S
C716 C717 1.385 . S
C717 H703 0.931 . S
C717 C716 1.385 . S
C717 C718 1.389 . S
C718 C717 1.389 . S
C718 C719 1.387 . S
C719 H704 0.930 . S
C719 C714 1.390 . S
C719 C718 1.387 . S
H720 C732 0.930 . S
H721 C734 0.930 . S
H722 C735 0.930 . S
H723 C739 0.959 . S
H724 C739 0.959 . S
H725 C739 0.961 . S
H726 C740 0.960 . S
H727 C740 0.961 . S
H728 C740 0.959 . S
H729 C743 0.929 . S
H730 C744 0.931 . S
H731 C746 0.930 . S
C732 H720 0.930 . S
C732 C733 1.399 . S
C732 C737 1.399 . S
C733 C732 1.399 . S
C733 C734 1.376 . S
C734 H721 0.930 . S
C734 C733 1.376 . S
C734 C735 1.388 . S
C735 H722 0.930 . S
C735 C734 1.388 . S
C735 C736 1.390 . S
C736 C735 1.390 . S
C736 C737 1.394 . S
C736 C742 1.465 . S
C737 C732 1.399 . S
C737 C736 1.394 . S
C737 C738 1.516 . S
C738 C737 1.516 . S
C738 C739 1.502 . S
C738 C740 1.561 . S
C738 C741 1.526 . S
C739 H723 0.959 . S
C739 H724 0.959 . S
C739 H725 0.961 . S
C739 C738 1.502 . S
C740 H726 0.960 . S
C740 H727 0.961 . S
C740 H728 0.959 . S
C740 C738 1.561 . S
C741 C738 1.526 . S
C741 C742 1.396 . S
C741 C746 1.390 . S
C742 C736 1.465 . S
C742 C741 1.396 . S
C742 C743 1.399 . S
C743 H729 0.929 . S
C743 C742 1.399 . S
C743 C744 1.385 . S
C744 H730 0.931 . S
C744 C743 1.385 . S
C744 C745 1.389 . S
C745 C744 1.389 . S
C745 C746 1.387 . S
C746 H731 0.930 . S
C746 C741 1.390 . S
C746 C745 1.387 . S
H747 C759 0.930 . S
H748 C761 0.930 . S
H749 C762 0.930 . S
H750 C766 0.959 . S
H751 C766 0.959 . S
H752 C766 0.961 . S
H753 C767 0.960 . S
H754 C767 0.961 . S
H755 C767 0.959 . S
H756 C770 0.929 . S
H757 C771 0.931 . S
H758 C773 0.930 . S
C759 H747 0.930 . S
C759 C760 1.399 . S
C759 C764 1.399 . S
C760 C759 1.399 . S
C760 C761 1.376 . S
C761 H748 0.930 . S
C761 C760 1.376 . S
C761 C762 1.388 . S
C762 H749 0.930 . S
C762 C761 1.388 . S
C762 C763 1.390 . S
C763 C762 1.390 . S
C763 C764 1.394 . S
C763 C769 1.465 . S
C764 C759 1.399 . S
C764 C763 1.394 . S
C764 C765 1.516 . S
C765 C764 1.516 . S
C765 C766 1.502 . S
C765 C767 1.561 . S
C765 C768 1.526 . S
C766 H750 0.959 . S
C766 H751 0.959 . S
C766 H752 0.961 . S
C766 C765 1.502 . S
C767 H753 0.960 . S
C767 H754 0.961 . S
C767 H755 0.959 . S
C767 C765 1.561 . S
C768 C765 1.526 . S
C768 C769 1.396 . S
C768 C773 1.390 . S
C769 C763 1.465 . S
C769 C768 1.396 . S
C769 C770 1.399 . S
C770 H756 0.929 . S
C770 C769 1.399 . S
C770 C771 1.385 . S
C771 H757 0.931 . S
C771 C770 1.385 . S
C771 C772 1.389 . S
C772 C771 1.389 . S
C772 C773 1.387 . S
C773 H758 0.930 . S
C773 C768 1.390 . S
C773 C772 1.387 . S
H774 C786 0.930 . S
H775 C788 0.930 . S
H776 C789 0.930 . S
H777 C793 0.959 . S
H778 C793 0.959 . S
H779 C793 0.961 . S
H780 C794 0.960 . S
H781 C794 0.961 . S
H782 C794 0.959 . S
H783 C797 0.929 . S
H784 C798 0.931 . S
H785 C800 0.930 . S
C786 H774 0.930 . S
C786 C787 1.399 . S
C786 C791 1.399 . S
C787 C786 1.399 . S
C787 C788 1.376 . S
C788 H775 0.930 . S
C788 C787 1.376 . S
C788 C789 1.388 . S
C789 H776 0.930 . S
C789 C788 1.388 . S
C789 C790 1.390 . S
C790 C789 1.390 . S
C790 C791 1.394 . S
C790 C796 1.465 . S
C791 C786 1.399 . S
C791 C790 1.394 . S
C791 C792 1.516 . S
C792 C791 1.516 . S
C792 C793 1.502 . S
C792 C794 1.561 . S
C792 C795 1.526 . S
C793 H777 0.959 . S
C793 H778 0.959 . S
C793 H779 0.961 . S
C793 C792 1.502 . S
C794 H780 0.960 . S
C794 H781 0.961 . S
C794 H782 0.959 . S
C794 C792 1.561 . S
C795 C792 1.526 . S
C795 C796 1.396 . S
C795 C800 1.390 . S
C796 C790 1.465 . S
C796 C795 1.396 . S
C796 C797 1.399 . S
C797 H783 0.929 . S
C797 C796 1.399 . S
C797 C798 1.385 . S
C798 H784 0.931 . S
C798 C797 1.385 . S
C798 C799 1.389 . S
C799 C798 1.389 . S
C799 C800 1.387 . S
C800 H785 0.930 . S
C800 C795 1.390 . S
C800 C799 1.387 . S
H801 C813 0.930 . S
H802 C815 0.930 . S
H803 C816 0.930 . S
H804 C820 0.959 . S
H805 C820 0.959 . S
H806 C820 0.961 . S
H807 C821 0.960 . S
H808 C821 0.961 . S
H809 C821 0.959 . S
H810 C824 0.929 . S
H811 C825 0.931 . S
H812 C827 0.930 . S
C813 H801 0.930 . S
C813 C814 1.399 . S
C813 C818 1.399 . S
C814 C813 1.399 . S
C814 C815 1.376 . S
C815 H802 0.930 . S
C815 C814 1.376 . S
C815 C816 1.388 . S
C816 H803 0.930 . S
C816 C815 1.388 . S
C816 C817 1.390 . S
C817 C816 1.390 . S
C817 C818 1.394 . S
C817 C823 1.465 . S
C818 C813 1.399 . S
C818 C817 1.394 . S
C818 C819 1.516 . S
C819 C818 1.516 . S
C819 C820 1.502 . S
C819 C821 1.561 . S
C819 C822 1.526 . S
C820 H804 0.959 . S
C820 H805 0.959 . S
C820 H806 0.961 . S
C820 C819 1.502 . S
C821 H807 0.960 . S
C821 H808 0.961 . S
C821 H809 0.959 . S
C821 C819 1.561 . S
C822 C819 1.526 . S
C822 C823 1.396 . S
C822 C827 1.390 . S
C823 C817 1.465 . S
C823 C822 1.396 . S
C823 C824 1.399 . S
C824 H810 0.929 . S
C824 C823 1.399 . S
C824 C825 1.385 . S
C825 H811 0.931 . S
C825 C824 1.385 . S
C825 C826 1.389 . S
C826 C825 1.389 . S
C826 C827 1.387 . S
C827 H812 0.930 . S
C827 C822 1.390 . S
C827 C826 1.387 . S
H828 C840 0.930 . S
H829 C842 0.930 . S
H830 C843 0.930 . S
H831 C847 0.959 . S
H832 C847 0.959 . S
H833 C847 0.961 . S
H834 C848 0.960 . S
H835 C848 0.961 . S
H836 C848 0.959 . S
H837 C851 0.929 . S
H838 C852 0.931 . S
H839 C854 0.930 . S
C840 H828 0.930 . S
C840 C841 1.399 . S
C840 C845 1.399 . S
C841 C840 1.399 . S
C841 C842 1.376 . S
C842 H829 0.930 . S
C842 C841 1.376 . S
C842 C843 1.388 . S
C843 H830 0.930 . S
C843 C842 1.388 . S
C843 C844 1.390 . S
C844 C843 1.390 . S
C844 C845 1.394 . S
C844 C850 1.465 . S
C845 C840 1.399 . S
C845 C844 1.394 . S
C845 C846 1.516 . S
C846 C845 1.516 . S
C846 C847 1.502 . S
C846 C848 1.561 . S
C846 C849 1.526 . S
C847 H831 0.959 . S
C847 H832 0.959 . S
C847 H833 0.961 . S
C847 C846 1.502 . S
C848 H834 0.960 . S
C848 H835 0.961 . S
C848 H836 0.959 . S
C848 C846 1.561 . S
C849 C846 1.526 . S
C849 C850 1.396 . S
C849 C854 1.390 . S
C850 C844 1.465 . S
C850 C849 1.396 . S
C850 C851 1.399 . S
C851 H837 0.929 . S
C851 C850 1.399 . S
C851 C852 1.385 . S
C852 H838 0.931 . S
C852 C851 1.385 . S
C852 C853 1.389 . S
C853 C852 1.389 . S
C853 C854 1.387 . S
C854 H839 0.930 . S
C854 C849 1.390 . S
C854 C853 1.387 . S
H855 C867 0.930 . S
H856 C869 0.930 . S
H857 C870 0.930 . S
H858 C874 0.959 . S
H859 C874 0.959 . S
H860 C874 0.961 . S
H861 C875 0.960 . S
H862 C875 0.961 . S
H863 C875 0.959 . S
H864 C878 0.929 . S
H865 C879 0.931 . S
H866 C881 0.930 . S
C867 H855 0.930 . S
C867 C868 1.399 . S
C867 C872 1.399 . S
C868 C867 1.399 . S
C868 C869 1.376 . S
C869 H856 0.930 . S
C869 C868 1.376 . S
C869 C870 1.388 . S
C870 H857 0.930 . S
C870 C869 1.388 . S
C870 C871 1.390 . S
C871 C870 1.390 . S
C871 C872 1.394 . S
C871 C877 1.465 . S
C872 C867 1.399 . S
C872 C871 1.394 . S
C872 C873 1.516 . S
C873 C872 1.516 . S
C873 C874 1.502 . S
C873 C875 1.561 . S
C873 C876 1.526 . S
C874 H858 0.959 . S
C874 H859 0.959 . S
C874 H860 0.961 . S
C874 C873 1.502 . S
C875 H861 0.960 . S
C875 H862 0.961 . S
C875 H863 0.959 . S
C875 C873 1.561 . S
C876 C873 1.526 . S
C876 C877 1.396 . S
C876 C881 1.390 . S
C877 C871 1.465 . S
C877 C876 1.396 . S
C877 C878 1.399 . S
C878 H864 0.929 . S
C878 C877 1.399 . S
C878 C879 1.385 . S
C879 H865 0.931 . S
C879 C878 1.385 . S
C879 C880 1.389 . S
C880 C879 1.389 . S
C880 C881 1.387 . S
C881 H866 0.930 . S
C881 C876 1.390 . S
C881 C880 1.387 . S
H882 C894 0.930 1_554 S
H883 C896 0.930 . S
H884 C897 0.930 . S
H885 C901 0.959 . S
H886 C901 0.959 . S
H887 C901 0.961 . S
H888 C902 0.960 . S
H889 C902 0.961 . S
H890 C902 0.959 . S
H891 C905 0.929 . S
H892 C906 0.931 1_556 S
H893 C908 0.930 . S
C894 H882 0.930 1_556 S
C894 C895 1.399 . S
C894 C899 1.391 1_556 S
C895 C894 1.399 . S
C895 C896 1.376 . S
C896 H883 0.930 . S
C896 C895 1.376 . S
C896 C897 1.388 . S
C897 H884 0.930 . S
C897 C896 1.388 . S
C897 C898 1.390 . S
C898 C897 1.390 . S
C898 C899 1.377 1_556 S
C898 C904 1.465 1_565 S
C899 C894 1.391 1_554 S
C899 C898 1.377 1_554 S
C899 C900 1.540 . S
C900 C899 1.540 . S
C900 C901 1.502 . S
C900 C902 1.561 . S
C900 C903 1.526 1_565 S
C901 H885 0.959 . S
C901 H886 0.959 . S
C901 H887 0.961 . S
C901 C900 1.502 . S
C902 H888 0.960 . S
C902 H889 0.961 . S
C902 H890 0.959 . S
C902 C900 1.561 . S
C903 C900 1.526 1_545 S
C903 C904 1.396 1_554 S
C903 C908 1.390 . S
C904 C898 1.465 1_545 S
C904 C903 1.396 1_556 S
C904 C905 1.399 . S
C905 H891 0.929 . S
C905 C904 1.399 . S
C905 C906 1.385 1_556 S
C906 H892 0.931 1_554 S
C906 C905 1.385 1_554 S
C906 C907 1.389 . S
C907 C906 1.389 . S
C907 C908 1.387 . S
C908 H893 0.930 . S
C908 C903 1.390 . S
C908 C907 1.387 . S
H909 C921 0.930 . S
H910 C923 0.930 . S
H911 C924 0.930 . S
H912 C928 0.959 . S
H913 C928 0.959 . S
H914 C928 0.961 . S
H915 C929 0.960 . S
H916 C929 0.961 . S
H917 C929 0.959 . S
H918 C932 0.929 . S
H919 C933 0.931 . S
H920 C935 0.930 . S
C921 H909 0.930 . S
C921 C922 1.399 . S
C921 C926 1.399 . S
C922 C921 1.399 . S
C922 C923 1.376 . S
C923 H910 0.930 . S
C923 C922 1.376 . S
C923 C924 1.388 . S
C924 H911 0.930 . S
C924 C923 1.388 . S
C924 C925 1.390 . S
C925 C924 1.390 . S
C925 C926 1.394 . S
C925 C931 1.465 . S
C926 C921 1.399 . S
C926 C925 1.394 . S
C926 C927 1.516 . S
C927 C926 1.516 . S
C927 C928 1.502 . S
C927 C929 1.561 . S
C927 C930 1.526 . S
C928 H912 0.959 . S
C928 H913 0.959 . S
C928 H914 0.961 . S
C928 C927 1.502 . S
C929 H915 0.960 . S
C929 H916 0.961 . S
C929 H917 0.959 . S
C929 C927 1.561 . S
C930 C927 1.526 . S
C930 C931 1.396 . S
C930 C935 1.390 . S
C931 C925 1.465 . S
C931 C930 1.396 . S
C931 C932 1.399 . S
C932 H918 0.929 . S
C932 C931 1.399 . S
C932 C933 1.385 . S
C933 H919 0.931 . S
C933 C932 1.385 . S
C933 C934 1.389 . S
C934 C933 1.389 . S
C934 C935 1.387 . S
C935 H920 0.930 . S
C935 C930 1.390 . S
C935 C934 1.387 . S
H936 C948 0.930 . S
H937 C950 0.930 . S
H938 C951 0.930 . S
H939 C955 0.959 . S
H940 C955 0.959 1_556 S
H941 C955 0.961 1_655 S
H942 C956 0.960 . S
H943 C956 0.961 . S
H944 C956 0.959 . S
H945 C959 0.929 . S
H946 C960 0.931 . S
H947 C962 0.930 . S
C948 H936 0.930 . S
C948 C949 1.399 . S
C948 C953 1.399 . S
C949 C948 1.399 . S
C949 C950 1.376 . S
C950 H937 0.930 . S
C950 C949 1.376 . S
C950 C951 1.388 . S
C951 H938 0.930 . S
C951 C950 1.388 . S
C951 C952 1.390 . S
C952 C951 1.390 . S
C952 C953 1.394 . S
C952 C958 1.465 1_654 S
C953 C948 1.399 . S
C953 C952 1.394 . S
C953 C954 1.516 1_554 S
C954 C953 1.516 1_556 S
C954 C955 1.502 1_656 S
C954 C956 1.561 . S
C954 C957 1.526 1_655 S
C955 H939 0.959 . S
C955 H940 0.959 1_554 S
C955 H941 0.961 1_455 S
C955 C954 1.502 1_454 S
C956 H942 0.960 . S
C956 H943 0.961 . S
C956 H944 0.959 . S
C956 C954 1.561 . S
C957 C954 1.526 1_455 S
C957 C958 1.396 . S
C957 C962 1.390 . S
C958 C952 1.465 1_456 S
C958 C957 1.396 . S
C958 C959 1.399 . S
C959 H945 0.929 . S
C959 C958 1.399 . S
C959 C960 1.385 . S
C960 H946 0.931 . S
C960 C959 1.385 . S
C960 C961 1.389 . S
C961 C960 1.389 . S
C961 C962 1.387 . S
C962 H947 0.930 . S
C962 C957 1.390 . S
C962 C961 1.387 . S
H963 C975 0.930 . S
H964 C977 0.930 . S
H965 C978 0.930 . S
H966 C982 0.959 . S
H967 C982 0.959 . S
H968 C982 0.961 . S
H969 C983 0.960 . S
H970 C983 0.961 . S
H971 C983 0.959 . S
H972 C986 0.929 . S
H973 C987 0.931 . S
H974 C989 0.930 . S
C975 H963 0.930 . S
C975 C976 1.399 . S
C975 C980 1.399 . S
C976 C975 1.399 . S
C976 C977 1.376 . S
C977 H964 0.930 . S
C977 C976 1.376 . S
C977 C978 1.388 . S
C978 H965 0.930 . S
C978 C977 1.388 . S
C978 C979 1.390 . S
C979 C978 1.390 . S
C979 C980 1.394 . S
C979 C985 1.465 1_565 S
C980 C975 1.399 . S
C980 C979 1.394 . S
C980 C981 1.516 . S
C981 C980 1.516 . S
C981 C982 1.502 . S
C981 C983 1.561 . S
C981 C984 1.526 1_565 S
C982 H966 0.959 . S
C982 H967 0.959 . S
C982 H968 0.961 . S
C982 C981 1.502 . S
C983 H969 0.960 . S
C983 H970 0.961 . S
C983 H971 0.959 . S
C983 C981 1.561 . S
C984 C981 1.526 1_545 S
C984 C985 1.396 . S
C984 C989 1.390 . S
C985 C979 1.465 1_545 S
C985 C984 1.396 . S
C985 C986 1.399 . S
C986 H972 0.929 . S
C986 C985 1.399 . S
C986 C987 1.385 . S
C987 H973 0.931 . S
C987 C986 1.385 . S
C987 C988 1.389 . S
C988 C987 1.389 . S
C988 C989 1.387 . S
C989 H974 0.930 . S
C989 C984 1.390 . S
C989 C988 1.387 . S
H990 C1002 0.930 . S
H991 C1004 0.930 . S
H992 C1005 0.930 . S
H993 C1009 0.959 . S
H994 C1009 0.957 . S
H995 C1009 0.961 . S
H996 C1010 0.960 . S
H997 C1010 0.961 . S
H998 C1010 0.959 . S
H999 C1013 0.929 . S
H1000 C1014 0.931 . S
H1001 C1016 0.930 . S
C1002 H990 0.930 . S
C1002 C1003 1.399 . S
C1002 C1007 1.399 . S
C1003 C1002 1.399 . S
C1003 C1004 1.376 . S
C1004 H991 0.930 . S
C1004 C1003 1.376 . S
C1004 C1005 1.388 . S
C1005 H992 0.930 . S
C1005 C1004 1.388 . S
C1005 C1006 1.390 . S
C1006 C1005 1.390 . S
C1006 C1007 1.394 . S
C1006 C1012 1.465 1_554 S
C1007 C1002 1.399 . S
C1007 C1006 1.394 . S
C1007 C1008 1.516 1_554 S
C1008 C1007 1.516 1_556 S
C1008 C1009 1.502 1_556 S
C1008 C1010 1.561 . S
C1008 C1011 1.526 . S
C1009 H993 0.959 . S
C1009 H994 0.957 . S
C1009 H995 0.961 . S
C1009 C1008 1.502 1_554 S
C1010 H996 0.960 . S
C1010 H997 0.961 . S
C1010 H998 0.959 . S
C1010 C1008 1.561 . S
C1011 C1008 1.526 . S
C1011 C1012 1.396 . S
C1011 C1016 1.390 . S
C1012 C1006 1.465 1_556 S
C1012 C1011 1.396 . S
C1012 C1013 1.399 . S
C1013 H999 0.929 . S
C1013 C1012 1.399 . S
C1013 C1014 1.385 . S
C1014 H1000 0.931 . S
C1014 C1013 1.385 . S
C1014 C1015 1.389 . S
C1015 C1014 1.389 . S
C1015 C1016 1.387 . S
C1016 H1001 0.930 . S
C1016 C1011 1.390 . S
C1016 C1015 1.387 . S
H1017 C1029 0.930 . S
H1018 C1031 0.930 . S
H1019 C1032 0.930 . S
H1020 C1036 0.959 . S
H1021 C1036 0.959 . S
H1022 C1036 0.961 . S
H1023 C1037 0.960 . S
H1024 C1037 0.961 . S
H1025 C1037 0.959 . S
H1026 C1040 0.929 . S
H1027 C1041 0.931 . S
H1028 C1043 0.930 . S
C1029 H1017 0.930 . S
C1029 C1030 1.399 . S
C1029 C1034 1.399 . S
C1030 C1029 1.399 . S
C1030 C1031 1.376 . S
C1031 H1018 0.930 . S
C1031 C1030 1.376 . S
C1031 C1032 1.388 . S
C1032 H1019 0.930 . S
C1032 C1031 1.388 . S
C1032 C1033 1.390 . S
C1033 C1032 1.390 . S
C1033 C1034 1.394 . S
C1033 C1039 1.465 1_655 S
C1034 C1029 1.399 . S
C1034 C1033 1.394 . S
C1034 C1035 1.516 1_655 S
C1035 C1034 1.516 1_455 S
C1035 C1036 1.502 . S
C1035 C1037 1.561 . S
C1035 C1038 1.526 . S
C1036 H1020 0.959 . S
C1036 H1021 0.959 . S
C1036 H1022 0.961 . S
C1036 C1035 1.502 . S
C1037 H1023 0.960 . S
C1037 H1024 0.961 . S
C1037 H1025 0.959 . S
C1037 C1035 1.561 . S
C1038 C1035 1.526 . S
C1038 C1039 1.396 . S
C1038 C1043 1.390 . S
C1039 C1033 1.465 1_455 S
C1039 C1038 1.396 . S
C1039 C1040 1.399 . S
C1040 H1026 0.929 . S
C1040 C1039 1.399 . S
C1040 C1041 1.385 . S
C1041 H1027 0.931 . S
C1041 C1040 1.385 . S
C1041 C1042 1.389 . S
C1042 C1041 1.389 . S
C1042 C1043 1.387 . S
C1043 H1028 0.930 . S
C1043 C1038 1.390 . S
C1043 C1042 1.387 . S
H1044 C1056 0.930 . S
H1045 C1058 0.930 . S
H1046 C1059 0.930 . S
H1047 C1063 0.959 . S
H1048 C1063 0.959 . S
H1049 C1063 0.961 . S
H1050 C1064 0.960 . S
H1051 C1064 0.961 . S
H1052 C1064 0.959 . S
H1053 C1067 0.929 1_545 S
H1054 C1068 0.931 . S
H1055 C1070 0.930 . S
C1056 H1044 0.930 . S
C1056 C1057 1.399 . S
C1056 C1061 1.399 . S
C1057 C1056 1.399 . S
C1057 C1058 1.376 . S
C1058 H1045 0.930 . S
C1058 C1057 1.376 . S
C1058 C1059 1.388 1_554 S
C1059 H1046 0.930 . S
C1059 C1058 1.388 1_556 S
C1059 C1060 1.390 . S
C1060 C1059 1.390 . S
C1060 C1061 1.394 1_556 S
C1060 C1066 1.465 1_545 S
C1061 C1056 1.399 . S
C1061 C1060 1.394 1_554 S
C1061 C1062 1.516 1_545 S
C1062 C1061 1.516 1_565 S
C1062 C1063 1.502 . S
C1062 C1064 1.561 . S
C1062 C1065 1.526 1_554 S
C1063 H1047 0.959 . S
C1063 H1048 0.959 . S
C1063 H1049 0.961 . S
C1063 C1062 1.502 . S
C1064 H1050 0.960 . S
C1064 H1051 0.961 . S
C1064 H1052 0.959 . S
C1064 C1062 1.561 . S
C1065 C1062 1.526 1_556 S
C1065 C1066 1.396 . S
C1065 C1070 1.390 . S
C1066 C1060 1.465 1_565 S
C1066 C1065 1.396 . S
C1066 C1067 1.399 . S
C1067 H1053 0.929 1_565 S
C1067 C1066 1.399 . S
C1067 C1068 1.385 . S
C1068 H1054 0.931 . S
C1068 C1067 1.385 . S
C1068 C1069 1.389 . S
C1069 C1068 1.389 . S
C1069 C1070 1.387 . S
C1070 H1055 0.930 . S
C1070 C1065 1.390 . S
C1070 C1069 1.387 . S
H1071 C1083 0.930 . S
H1072 C1085 0.930 . S
H1073 C1086 0.930 . S
H1074 C1090 0.959 . S
H1075 C1090 0.959 . S
H1076 C1090 0.961 . S
H1077 C1091 0.960 . S
H1078 C1091 0.961 . S
H1079 C1091 0.959 . S
H1080 C1094 0.929 . S
H1081 C1095 0.931 . S
H1082 C1097 0.930 . S
C1083 H1071 0.930 . S
C1083 C1084 1.399 . S
C1083 C1088 1.399 . S
C1084 C1083 1.399 . S
C1084 C1085 1.376 . S
C1085 H1072 0.930 . S
C1085 C1084 1.376 . S
C1085 C1086 1.388 . S
C1086 H1073 0.930 . S
C1086 C1085 1.388 . S
C1086 C1087 1.390 . S
C1087 C1086 1.390 . S
C1087 C1088 1.394 . S
C1087 C1093 1.465 . S
C1088 C1083 1.399 . S
C1088 C1087 1.394 . S
C1088 C1089 1.516 . S
C1089 C1088 1.516 . S
C1089 C1090 1.502 . S
C1089 C1091 1.561 . S
C1089 C1092 1.526 . S
C1090 H1074 0.959 . S
C1090 H1075 0.959 . S
C1090 H1076 0.961 . S
C1090 C1089 1.502 . S
C1091 H1077 0.960 . S
C1091 H1078 0.961 . S
C1091 H1079 0.959 . S
C1091 C1089 1.561 . S
C1092 C1089 1.526 . S
C1092 C1093 1.396 . S
C1092 C1097 1.390 . S
C1093 C1087 1.465 . S
C1093 C1092 1.396 . S
C1093 C1094 1.399 . S
C1094 H1080 0.929 . S
C1094 C1093 1.399 . S
C1094 C1095 1.385 . S
C1095 H1081 0.931 . S
C1095 C1094 1.385 . S
C1095 C1096 1.389 . S
C1096 C1095 1.389 . S
C1096 C1097 1.387 . S
C1097 H1082 0.930 . S
C1097 C1092 1.390 . S
C1097 C1096 1.387 . S
H1098 C1110 0.930 . S
H1099 C1112 0.930 . S
H1100 C1113 0.930 1_556 S
H1101 C1117 0.959 1_556 S
H1102 C1117 0.959 . S
H1103 C1117 0.961 . S
H1104 C1118 0.960 . S
H1105 C1118 0.961 . S
H1106 C1118 0.959 . S
H1107 C1121 0.929 . S
H1108 C1122 0.931 . S
H1109 C1124 0.930 . S
C1110 H1098 0.930 . S
C1110 C1111 1.399 . S
C1110 C1115 1.399 . S
C1111 C1110 1.399 . S
C1111 C1112 1.376 . S
C1112 H1099 0.930 . S
C1112 C1111 1.376 . S
C1112 C1113 1.388 . S
C1113 H1100 0.930 1_554 S
C1113 C1112 1.388 . S
C1113 C1114 1.390 . S
C1114 C1113 1.390 . S
C1114 C1115 1.394 . S
C1114 C1120 1.465 1_654 S
C1115 C1110 1.399 . S
C1115 C1114 1.394 . S
C1115 C1116 1.516 1_655 S
C1116 C1115 1.516 1_455 S
C1116 C1117 1.502 . S
C1116 C1118 1.561 . S
C1116 C1119 1.526 1_554 S
C1117 H1101 0.959 1_554 S
C1117 H1102 0.959 . S
C1117 H1103 0.961 . S
C1117 C1116 1.502 . S
C1118 H1104 0.960 . S
C1118 H1105 0.961 . S
C1118 H1106 0.959 . S
C1118 C1116 1.561 . S
C1119 C1116 1.526 1_556 S
C1119 C1120 1.396 . S
C1119 C1124 1.390 . S
C1120 C1114 1.465 1_456 S
C1120 C1119 1.396 . S
C1120 C1121 1.399 . S
C1121 H1107 0.929 . S
C1121 C1120 1.399 . S
C1121 C1122 1.385 . S
C1122 H1108 0.931 . S
C1122 C1121 1.385 . S
C1122 C1123 1.389 . S
C1123 C1122 1.389 . S
C1123 C1124 1.387 . S
C1124 H1109 0.930 . S
C1124 C1119 1.390 . S
C1124 C1123 1.387 . S
H1125 C1137 0.930 . S
H1126 C1139 0.930 . S
H1127 C1140 0.930 . S
H1128 C1144 0.959 1_565 S
H1129 C1144 0.959 . S
H1130 C1144 0.961 1_565 S
H1131 C1145 0.960 . S
H1132 C1145 0.961 . S
H1133 C1145 0.959 . S
H1134 C1148 0.929 . S
H1135 C1149 0.931 . S
H1136 C1151 0.930 . S
C1137 H1125 0.930 . S
C1137 C1138 1.399 . S
C1137 C1142 1.399 . S
C1138 C1137 1.399 . S
C1138 C1139 1.376 . S
C1139 H1126 0.930 . S
C1139 C1138 1.376 . S
C1139 C1140 1.388 . S
C1140 H1127 0.930 . S
C1140 C1139 1.388 . S
C1140 C1141 1.390 . S
C1141 C1140 1.390 . S
C1141 C1142 1.394 . S
C1141 C1147 1.465 1_565 S
C1142 C1137 1.399 . S
C1142 C1141 1.394 . S
C1142 C1143 1.516 1_565 S
C1143 C1142 1.516 1_545 S
C1143 C1144 1.502 . S
C1143 C1145 1.561 . S
C1143 C1146 1.526 . S
C1144 H1128 0.959 1_545 S
C1144 H1129 0.959 . S
C1144 H1130 0.961 1_545 S
C1144 C1143 1.502 . S
C1145 H1131 0.960 . S
C1145 H1132 0.961 . S
C1145 H1133 0.959 . S
C1145 C1143 1.561 . S
C1146 C1143 1.526 . S
C1146 C1147 1.396 . S
C1146 C1151 1.390 . S
C1147 C1141 1.465 1_545 S
C1147 C1146 1.396 . S
C1147 C1148 1.399 . S
C1148 H1134 0.929 . S
C1148 C1147 1.399 . S
C1148 C1149 1.385 . S
C1149 H1135 0.931 . S
C1149 C1148 1.385 . S
C1149 C1150 1.389 . S
C1150 C1149 1.389 . S
C1150 C1151 1.387 . S
C1151 H1136 0.930 . S
C1151 C1146 1.390 . S
C1151 C1150 1.387 . S
H1152 C1164 0.930 . S
H1153 C1166 0.930 . S
H1154 C1167 0.930 1_554 S
H1155 C1171 0.959 1_554 S
H1156 C1171 0.959 . S
H1157 C1171 0.961 . S
H1158 C1172 0.960 . S
H1159 C1172 0.961 . S
H1160 C1172 0.959 . S
H1161 C1175 0.929 . S
H1162 C1176 0.931 . S
H1163 C1178 0.930 . S
C1164 H1152 0.930 . S
C1164 C1165 1.399 . S
C1164 C1169 1.399 . S
C1165 C1164 1.399 . S
C1165 C1166 1.376 . S
C1166 H1153 0.930 . S
C1166 C1165 1.376 . S
C1166 C1167 1.388 . S
C1167 H1154 0.930 1_556 S
C1167 C1166 1.388 . S
C1167 C1168 1.390 . S
C1168 C1167 1.390 . S
C1168 C1169 1.394 . S
C1168 C1174 1.465 1_556 S
C1169 C1164 1.399 . S
C1169 C1168 1.394 . S
C1169 C1170 1.516 . S
C1170 C1169 1.516 . S
C1170 C1171 1.502 . S
C1170 C1172 1.561 . S
C1170 C1173 1.526 1_556 S
C1171 H1155 0.959 1_556 S
C1171 H1156 0.959 . S
C1171 H1157 0.961 . S
C1171 C1170 1.502 . S
C1172 H1158 0.960 . S
C1172 H1159 0.961 . S
C1172 H1160 0.959 . S
C1172 C1170 1.561 . S
C1173 C1170 1.526 1_554 S
C1173 C1174 1.396 . S
C1173 C1178 1.390 . S
C1174 C1168 1.465 1_554 S
C1174 C1173 1.396 . S
C1174 C1175 1.399 . S
C1175 H1161 0.929 . S
C1175 C1174 1.399 . S
C1175 C1176 1.385 . S
C1176 H1162 0.931 . S
C1176 C1175 1.385 . S
C1176 C1177 1.389 . S
C1177 C1176 1.389 . S
C1177 C1178 1.387 . S
C1178 H1163 0.930 . S
C1178 C1173 1.390 . S
C1178 C1177 1.387 . S
H1179 C1191 0.930 . S
H1180 C1193 0.930 . S
H1181 C1194 0.930 . S
H1182 C1198 0.959 . S
H1183 C1198 0.959 . S
H1184 C1198 0.961 . S
H1185 C1199 0.960 . S
H1186 C1199 0.961 . S
H1187 C1199 0.959 . S
H1188 C1202 0.929 1_455 S
H1189 C1203 0.931 . S
H1190 C1205 0.930 . S
C1191 H1179 0.930 . S
C1191 C1192 1.399 . S
C1191 C1196 1.399 . S
C1192 C1191 1.399 . S
C1192 C1193 1.376 . S
C1193 H1180 0.930 . S
C1193 C1192 1.376 . S
C1193 C1194 1.388 . S
C1194 H1181 0.930 . S
C1194 C1193 1.388 . S
C1194 C1195 1.390 . S
C1195 C1194 1.390 . S
C1195 C1196 1.394 . S
C1195 C1201 1.465 1_455 S
C1196 C1191 1.399 . S
C1196 C1195 1.394 . S
C1196 C1197 1.516 1_455 S
C1197 C1196 1.516 1_655 S
C1197 C1198 1.502 . S
C1197 C1199 1.561 . S
C1197 C1200 1.526 . S
C1198 H1182 0.959 . S
C1198 H1183 0.959 . S
C1198 H1184 0.961 . S
C1198 C1197 1.502 . S
C1199 H1185 0.960 . S
C1199 H1186 0.961 . S
C1199 H1187 0.959 . S
C1199 C1197 1.561 . S
C1200 C1197 1.526 . S
C1200 C1201 1.396 . S
C1200 C1205 1.390 . S
C1201 C1195 1.465 1_655 S
C1201 C1200 1.396 . S
C1201 C1202 1.399 . S
C1202 H1188 0.929 1_655 S
C1202 C1201 1.399 . S
C1202 C1203 1.385 . S
C1203 H1189 0.931 . S
C1203 C1202 1.385 . S
C1203 C1204 1.389 . S
C1204 C1203 1.389 . S
C1204 C1205 1.387 . S
C1205 H1190 0.930 . S
C1205 C1200 1.390 . S
C1205 C1204 1.387 . S
C409 C74 1.540 . S
C421 N14 1.637 . S
C436 N47 1.608 . S
C448 C107 1.597 . S
C463 N80 1.630 . S
C475 C140 1.555 . S
C490 N113 1.632 . S
C502 C173 1.551 . S
C517 N146 1.601 . S
C529 C8 1.610 . S
C544 C41 1.578 . S
C556 N179 1.618 . S
C571 N212 1.605 . S
C583 C338 1.604 . S
C598 N245 1.638 . S
C610 C371 1.540 . S
C625 C206 1.560 . S
C637 N278 1.628 . S
C652 C239 1.542 . S
C664 N311 1.636 . S
C679 C272 1.540 . S
C691 N344 1.637 . S
C706 C305 1.539 . S
C718 N377 1.638 . S
C733 C281 1.341 . S
C745 C17 1.304 . S
C760 C50 1.329 . S
C772 C314 1.350 . S
C787 C347 1.304 . S
C799 C83 1.323 . S
C814 C380 1.321 . S
C826 C116 1.305 . S
C841 C149 1.327 . S
C853 C215 1.350 . S
C868 C248 1.303 . S
C880 C182 1.324 . S
C895 C259 1.318 . S
C907 C28 1.349 . S
C922 C61 1.351 . S
C934 C292 1.319 . S
C949 C94 1.333 . S
C961 C325 1.328 . S
C976 C127 1.318 . S
C988 C358 1.349 . S
C1003 C160 1.333 . S
C1015 C391 1.327 . S
C1030 C226 1.367 . S
C1042 C193 1.336 . S
C1057 N71 1.438 . S
C1069 N368 1.506 . S
C1084 N203 1.516 . S
C1096 N104 1.526 . S
C1111 N137 1.421 . S
C1123 N236 1.448 . S
C1138 N170 1.429 . S
C1150 N269 1.434 . S
C1165 N302 1.421 . S
C1177 N5 1.447 . S
C1192 N38 1.419 . S
C1204 N335 1.468 . S
