# Generated by pormake.
# Topology utp, (3)-cn, num edge types: 1
# Building blocks:
#     Node 0, Type 0, BuildingBlock: OLANEW_clean_sbu_2, # of connection points: 3
#     Node 1, Type 0, BuildingBlock: OLANEW_clean_sbu_2, # of connection points: 3
#     Node 2, Type 0, BuildingBlock: OLANEW_clean_sbu_2, # of connection points: 3
#     Node 3, Type 0, BuildingBlock: OLANEW_clean_sbu_2, # of connection points: 3
#     Node 4, Type 0, BuildingBlock: OLANEW_clean_sbu_2, # of connection points: 3
#     Node 5, Type 0, BuildingBlock: OLANEW_clean_sbu_2, # of connection points: 3
#     Node 6, Type 0, BuildingBlock: OLANEW_clean_sbu_2, # of connection points: 3
#     Node 7, Type 0, BuildingBlock: OLANEW_clean_sbu_2, # of connection points: 3
#     Edge 8, Type (0, 0), BuildingBlock: ZUJKAS_clean_linker_0, # of connection points: 2
#     Edge 9, Type (0, 0), BuildingBlock: ZUJKAS_clean_linker_0, # of connection points: 2
#     Edge 10, Type (0, 0), BuildingBlock: ZUJKAS_clean_linker_0, # of connection points: 2
#     Edge 11, Type (0, 0), BuildingBlock: ZUJKAS_clean_linker_0, # of connection points: 2
#     Edge 12, Type (0, 0), BuildingBlock: ZUJKAS_clean_linker_0, # of connection points: 2
#     Edge 13, Type (0, 0), BuildingBlock: ZUJKAS_clean_linker_0, # of connection points: 2
#     Edge 14, Type (0, 0), BuildingBlock: ZUJKAS_clean_linker_0, # of connection points: 2
#     Edge 15, Type (0, 0), BuildingBlock: ZUJKAS_clean_linker_0, # of connection points: 2
#     Edge 16, Type (0, 0), BuildingBlock: ZUJKAS_clean_linker_0, # of connection points: 2
#     Edge 17, Type (0, 0), BuildingBlock: ZUJKAS_clean_linker_0, # of connection points: 2
#     Edge 18, Type (0, 0), BuildingBlock: ZUJKAS_clean_linker_0, # of connection points: 2
#     Edge 19, Type (0, 0), BuildingBlock: ZUJKAS_clean_linker_0, # of connection points: 2
# Relax obj value: 0.000
# Max RMSD: 0.054
# Mean RMSD: 0.054
data_MOF--net-utp--node1-OLANEW_clean_sbu_2--edge1-ZUJKAS_clean_linker_0
_symmetry_space_group_name_H-M    P1
_symmetry_Int_Tables_number       1
_symmetry_cell_setting            triclinic
loop_
_symmetry_equiv_pos_as_xyz
'x, y, z'
_cell_length_a     55.068393
_cell_length_b     61.432984
_cell_length_c     48.59095
_cell_angle_alpha  90.032885
_cell_angle_beta   90.372196
_cell_angle_gamma 89.918924
loop_
_atom_site_label
_atom_site_type_symbol
_atom_site_fract_x
_atom_site_fract_y
_atom_site_fract_z
_atom_type_partial_charge
O0 O 0.14668 0.06433 0.16482 0.0
Cd1 Cd 0.10671 0.08134 0.15908 0.0
O2 O 0.151 0.0583 0.12047 0.0
Cd3 Cd 0.11432 0.06785 0.10828 0.0
O4 O 0.08273 0.05864 0.08349 0.0
C5 C 0.07988 0.03826 0.08032 0.0
O6 O 0.09503 0.02494 0.09284 0.0
C7 C 0.1594 0.05741 0.14488 0.0
C8 C 0.10446 0.12333 0.18119 0.0
O9 O 0.10041 0.10655 0.19613 0.0
O10 O 0.10973 0.12026 0.15582 0.0
O11 O 0.36565 0.90546 0.20855 0.0
Cd12 Cd 0.40123 0.88219 0.21599 0.0
O13 O 0.38412 0.91842 0.17233 0.0
Cd14 Cd 0.39021 0.94054 0.13768 0.0
O15 O 0.40141 0.95982 0.10214 0.0
C16 C 0.41412 0.97686 0.1057 0.0
O17 O 0.41975 0.98285 0.13091 0.0
C18 C 0.36582 0.91845 0.1882 0.0
C19 C 0.3913 0.83867 0.22808 0.0
O20 O 0.39265 0.85301 0.2472 0.0
O21 O 0.39411 0.845 0.20317 0.0
O22 O 0.11692 0.4029 0.30277 0.0
Cd23 Cd 0.07907 0.38299 0.31008 0.0
O24 O 0.12635 0.40341 0.34684 0.0
Cd25 Cd 0.0905 0.39389 0.36128 0.0
O26 O 0.0624 0.40709 0.38814 0.0
C27 C 0.06429 0.42746 0.39233 0.0
O28 O 0.08171 0.43814 0.37988 0.0
C29 C 0.13185 0.40744 0.32199 0.0
C30 C 0.08236 0.34047 0.28986 0.0
O31 O 0.0757 0.35624 0.27428 0.0
O32 O 0.08737 0.34477 0.31509 0.0
O33 O 0.3542 0.54826 0.3074 0.0
Cd34 Cd 0.39144 0.56855 0.31729 0.0
O35 O 0.33897 0.55481 0.34831 0.0
Cd36 Cd 0.37321 0.56624 0.3658 0.0
O37 O 0.40157 0.55738 0.39537 0.0
C38 C 0.3979 0.53925 0.40724 0.0
O39 O 0.37831 0.52815 0.40071 0.0
C40 C 0.33668 0.54693 0.32423 0.0
C41 C 0.38738 0.61218 0.30167 0.0
O42 O 0.39465 0.59764 0.28466 0.0
O43 O 0.38201 0.60608 0.32611 0.0
O44 O 0.83289 0.90697 0.82709 0.0
Cd45 Cd 0.86931 0.88687 0.84123 0.0
O46 O 0.85304 0.93712 0.81865 0.0
Cd47 Cd 0.88696 0.92652 0.83789 0.0
O48 O 0.91508 0.93455 0.86815 0.0
C49 C 0.91627 0.95463 0.8744 0.0
O50 O 0.90144 0.9683 0.862 0.0
C51 C 0.83325 0.92649 0.81839 0.0
C52 C 0.87172 0.84585 0.81638 0.0
O53 O 0.86123 0.84848 0.83962 0.0
O54 O 0.88108 0.86262 0.8049 0.0
O55 O 0.61697 0.07194 0.81485 0.0
Cd56 Cd 0.5811 0.09401 0.82508 0.0
O57 O 0.59581 0.04314 0.80256 0.0
Cd58 Cd 0.56168 0.05625 0.8181 0.0
O59 O 0.53312 0.05551 0.84908 0.0
C60 C 0.5375 0.06361 0.87267 0.0
O61 O 0.55831 0.07356 0.87686 0.0
C62 C 0.61618 0.05264 0.80539 0.0
C63 C 0.58378 0.13514 0.80076 0.0
O64 O 0.59215 0.13179 0.82507 0.0
O65 O 0.57412 0.11905 0.78797 0.0
O66 O 0.85211 0.5696 0.68404 0.0
Cd67 Cd 0.88721 0.59124 0.67011 0.0
O68 O 0.86611 0.53903 0.66646 0.0
Cd69 Cd 0.89875 0.55149 0.6468 0.0
O70 O 0.9245 0.54404 0.61407 0.0
C71 C 0.91539 0.5346 0.59313 0.0
O72 O 0.89183 0.53124 0.59237 0.0
C73 C 0.84985 0.54929 0.67967 0.0
C74 C 0.88552 0.63306 0.69282 0.0
O75 O 0.87589 0.62901 0.66929 0.0
O76 O 0.89604 0.61736 0.70556 0.0
O77 O 0.6309 0.41172 0.67675 0.0
Cd78 Cd 0.59528 0.39166 0.66029 0.0
O79 O 0.61004 0.44141 0.68582 0.0
Cd80 Cd 0.57697 0.43076 0.66493 0.0
O81 O 0.55092 0.43889 0.63242 0.0
C82 C 0.55641 0.45578 0.6187 0.0
O83 O 0.57653 0.46618 0.625 0.0
C84 C 0.63 0.43099 0.68628 0.0
C85 C 0.5935 0.3496 0.68209 0.0
O86 O 0.60444 0.35345 0.6594 0.0
O87 O 0.58341 0.36565 0.69445 0.0
H88 H 0.10596 0.16206 0.15351 0.0
H89 H 0.10238 0.19879 0.17275 0.0
H90 H 0.09562 0.17177 0.25417 0.0
H91 H 0.09902 0.13496 0.23517 0.0
H92 H 0.06084 0.21427 0.20844 0.0
H93 H 0.15227 0.21885 0.25766 0.0
H94 H 0.14563 0.20051 0.22951 0.0
H95 H 0.13478 0.19455 0.2634 0.0
C96 C 0.10381 0.16391 0.17553 0.0
C97 C 0.10281 0.14558 0.19282 0.0
C98 C 0.10173 0.1849 0.18645 0.0
C99 C 0.09893 0.18793 0.21486 0.0
C100 C 0.09801 0.16972 0.23221 0.0
H101 H 0.09065 0.30295 0.3188 0.0
H102 H 0.0937 0.26586 0.3007 0.0
C103 C 0.09988 0.14872 0.22129 0.0
C104 C 0.09639 0.21015 0.22628 0.0
H105 H 0.12571 0.24838 0.26509 0.0
C106 C 0.075 0.22181 0.22079 0.0
C107 C 0.11485 0.21975 0.24253 0.0
C108 C 0.13829 0.20792 0.2486 0.0
C109 C 0.07143 0.24283 0.23141 0.0
C110 C 0.09008 0.25265 0.2473 0.0
C111 C 0.11145 0.24088 0.25288 0.0
C112 C 0.08789 0.27516 0.25821 0.0
C113 C 0.04746 0.25405 0.22606 0.0
C114 C 0.08389 0.29277 0.24032 0.0
C115 C 0.08192 0.31395 0.25063 0.0
C116 C 0.08429 0.318 0.27901 0.0
C117 C 0.08869 0.30038 0.29684 0.0
C118 C 0.09046 0.27918 0.28653 0.0
H119 H 0.03288 0.24216 0.2211 0.0
H120 H 0.04174 0.26385 0.2441 0.0
H121 H 0.04934 0.26511 0.20816 0.0
H122 H 0.08251 0.29018 0.21833 0.0
H123 H 0.07877 0.32717 0.2363 0.0
H124 H 0.38351 0.8204 0.27861 0.0
H125 H 0.38051 0.78164 0.28978 0.0
H126 H 0.38794 0.76543 0.20391 0.0
H127 H 0.39104 0.80412 0.1925 0.0
H128 H 0.34706 0.74865 0.2688 0.0
H129 H 0.44367 0.73169 0.24378 0.0
H130 H 0.43234 0.75891 0.24948 0.0
H131 H 0.42632 0.74529 0.21745 0.0
C132 C 0.38437 0.80861 0.26206 0.0
C133 C 0.38769 0.81535 0.23467 0.0
C134 C 0.38262 0.78648 0.26849 0.0
C135 C 0.38434 0.77071 0.24771 0.0
C136 C 0.38693 0.77737 0.22028 0.0
H137 H 0.39435 0.62956 0.25054 0.0
H138 H 0.39195 0.66786 0.23709 0.0
C139 C 0.3886 0.79949 0.2138 0.0
C140 C 0.38403 0.74728 0.25485 0.0
H141 H 0.41937 0.70159 0.25573 0.0
C142 C 0.36284 0.73832 0.26598 0.0
C143 C 0.40466 0.7339 0.25108 0.0
C144 C 0.42814 0.74288 0.24 0.0
C145 C 0.36161 0.71618 0.27313 0.0
C146 C 0.38234 0.70283 0.26962 0.0
C147 C 0.40349 0.71183 0.25837 0.0
C148 C 0.38268 0.67953 0.27772 0.0
C149 C 0.33798 0.70724 0.28383 0.0
C150 C 0.37842 0.67336 0.30508 0.0
C151 C 0.37966 0.65146 0.31281 0.0
C152 C 0.38548 0.63533 0.29338 0.0
C153 C 0.38982 0.64157 0.26601 0.0
C154 C 0.38845 0.66346 0.25828 0.0
H155 H 0.32232 0.71764 0.27776 0.0
H156 H 0.33473 0.69046 0.27615 0.0
H157 H 0.33873 0.70672 0.30665 0.0
H158 H 0.37454 0.68552 0.32059 0.0
H159 H 0.37639 0.64722 0.3341 0.0
H160 H 0.89233 0.83523 0.76706 0.0
H161 H 0.89425 0.79935 0.7453 0.0
H162 H 0.85645 0.77138 0.81418 0.0
H163 H 0.85416 0.80723 0.83595 0.0
H164 H 0.91567 0.76134 0.76474 0.0
H165 H 0.81671 0.75 0.74807 0.0
H166 H 0.82987 0.77606 0.75659 0.0
H167 H 0.82497 0.75612 0.78304 0.0
C168 C 0.88433 0.82147 0.77755 0.0
C169 C 0.87298 0.82412 0.80319 0.0
C170 C 0.88547 0.80097 0.76509 0.0
C171 C 0.87518 0.78276 0.77793 0.0
C172 C 0.86407 0.78529 0.80364 0.0
H173 H 0.90363 0.64651 0.74257 0.0
H174 H 0.90145 0.68294 0.76274 0.0
C175 C 0.8629 0.80579 0.81612 0.0
C176 C 0.87658 0.76103 0.76468 0.0
H177 H 0.84189 0.7192 0.74004 0.0
C178 C 0.89955 0.75214 0.75925 0.0
C179 C 0.85551 0.74919 0.75722 0.0
C180 C 0.83036 0.75838 0.76126 0.0
C181 C 0.90204 0.73155 0.747 0.0
C182 C 0.88098 0.7194 0.7404 0.0
C183 C 0.85801 0.72846 0.74537 0.0
C184 C 0.88238 0.69731 0.72815 0.0
C185 C 0.92719 0.72313 0.74087 0.0
C186 C 0.87189 0.69316 0.70228 0.0
C187 C 0.87297 0.67232 0.69075 0.0
C188 C 0.88446 0.65518 0.70497 0.0
C189 C 0.89478 0.65936 0.731 0.0
C190 C 0.89367 0.68021 0.74251 0.0
H191 H 0.94076 0.73649 0.74038 0.0
H192 H 0.93277 0.71151 0.7572 0.0
H193 H 0.92755 0.71444 0.72083 0.0
H194 H 0.86298 0.70611 0.69093 0.0
H195 H 0.86479 0.66965 0.67071 0.0
H196 H 0.61321 0.31235 0.66078 0.0
H197 H 0.61134 0.27553 0.67987 0.0
H198 H 0.57025 0.29959 0.74875 0.0
H199 H 0.57176 0.3364 0.7297 0.0
H200 H 0.6283 0.2604 0.73067 0.0
H201 H 0.52873 0.24888 0.72032 0.0
H202 H 0.5448 0.27037 0.70285 0.0
H203 H 0.53729 0.27311 0.73864 0.0
C204 C 0.60369 0.30981 0.67995 0.0
C205 C 0.59252 0.3273 0.69365 0.0
C206 C 0.60267 0.28876 0.69083 0.0
C207 C 0.59036 0.28478 0.71551 0.0
C208 C 0.57942 0.30223 0.7294 0.0
H209 H 0.60281 0.17244 0.82283 0.0
H210 H 0.60486 0.20846 0.80157 0.0
C211 C 0.58043 0.32328 0.71854 0.0
C212 C 0.58938 0.26245 0.72702 0.0
H213 H 0.55024 0.22229 0.74638 0.0
C214 C 0.61126 0.25201 0.73402 0.0
C215 C 0.56713 0.25145 0.73102 0.0
C216 C 0.54315 0.26141 0.72259 0.0
C217 C 0.61145 0.23102 0.74545 0.0
C218 C 0.58915 0.22034 0.75037 0.0
C219 C 0.5673 0.2306 0.74284 0.0
C220 C 0.58806 0.19847 0.76322 0.0
C221 C 0.63553 0.22035 0.75182 0.0
C222 C 0.57743 0.18101 0.74896 0.0
C223 C 0.57608 0.16043 0.76111 0.0
C224 C 0.58523 0.15695 0.78785 0.0
C225 C 0.59571 0.17453 0.80216 0.0
C226 C 0.59703 0.19511 0.78998 0.0
H227 H 0.65061 0.22806 0.7403 0.0
H228 H 0.63953 0.22204 0.77413 0.0
H229 H 0.63509 0.20273 0.74675 0.0
H230 H 0.57028 0.1833 0.72833 0.0
H231 H 0.56786 0.14725 0.74955 0.0
H232 H 0.34763 0.934 0.13942 0.0
H233 H 0.31448 0.96009 0.13287 0.0
H234 H 0.30347 0.96229 0.22062 0.0
H235 H 0.33719 0.93675 0.22735 0.0
H236 H 0.266 0.95489 0.14892 0.0
H237 H 0.30758 0.02705 0.19942 0.0
H238 H 0.32518 0.00371 0.18882 0.0
H239 H 0.30769 0.00269 0.21988 0.0
C240 C 0.33863 0.94051 0.15735 0.0
C241 C 0.34547 0.93383 0.18394 0.0
C242 C 0.31949 0.9552 0.15357 0.0
C243 C 0.30688 0.96348 0.1763 0.0
C244 C 0.31335 0.95651 0.20285 0.0
H245 H 0.18009 0.04648 0.19453 0.0
H246 H 0.21664 0.02445 0.20221 0.0
C247 C 0.33246 0.94178 0.20663 0.0
C248 C 0.28625 0.97865 0.17212 0.0
H249 H 0.26598 0.02993 0.1868 0.0
C250 C 0.26604 0.97133 0.15707 0.0
C251 C 0.28633 4e-05 0.18293 0.0
C252 C 0.30792 0.00898 0.19848 0.0
C253 C 0.24571 0.98473 0.15283 0.0
C254 C 0.24582 0.00618 0.16348 0.0
C255 C 0.26599 0.01349 0.17864 0.0
C256 C 0.22508 0.02117 0.15898 0.0
C257 C 0.22406 0.97562 0.13749 0.0
C258 C 0.21826 0.02725 0.13221 0.0
C259 C 0.19742 0.03975 0.12774 0.0
C260 C 0.18307 0.04658 0.15 0.0
C261 C 0.19068 0.04144 0.17693 0.0
C262 C 0.21154 0.02884 0.18136 0.0
H263 H 0.22434 0.95754 0.13698 0.0
H264 H 0.2068 0.98105 0.14701 0.0
H265 H 0.22432 0.98155 0.11593 0.0
H266 H 0.22879 0.0219 0.1147 0.0
H267 H 0.19225 0.04359 0.10675 0.0
H268 H 0.29492 0.54349 0.35389 0.0
H269 H 0.26053 0.51942 0.34494 0.0
H270 H 0.29364 0.49801 0.26944 0.0
H271 H 0.32833 0.52205 0.27824 0.0
H272 H 0.22792 0.5156 0.29807 0.0
H273 H 0.28449 0.44171 0.31656 0.0
H274 H 0.29424 0.46856 0.32687 0.0
H275 H 0.29517 0.46078 0.2913 0.0
C276 C 0.29482 0.53388 0.33519 0.0
C277 C 0.3145 0.53455 0.31691 0.0
C278 C 0.27512 0.52016 0.3301 0.0
C279 C 0.27476 0.50675 0.30675 0.0
C280 C 0.29379 0.50806 0.28777 0.0
H281 H 0.14614 0.42548 0.27304 0.0
H282 H 0.18175 0.44849 0.2651 0.0
C283 C 0.31351 0.52188 0.29278 0.0
C284 C 0.25501 0.49066 0.30332 0.0
H285 H 0.2428 0.43634 0.30858 0.0
C286 C 0.23114 0.49824 0.29993 0.0
C287 C 0.25938 0.46807 0.30608 0.0
C288 C 0.28465 0.45917 0.31059 0.0
C289 C 0.21139 0.48382 0.29991 0.0
C290 C 0.21573 0.46127 0.30317 0.0
C291 C 0.23964 0.45364 0.30585 0.0
C292 C 0.19554 0.44568 0.30673 0.0
C293 C 0.18596 0.49288 0.29775 0.0
C294 C 0.19205 0.43592 0.33246 0.0
C295 C 0.17182 0.4228 0.33708 0.0
C296 C 0.15474 0.41908 0.31595 0.0
C297 C 0.15891 0.42805 0.28976 0.0
C298 C 0.17916 0.44129 0.28521 0.0
H299 H 0.18561 0.51092 0.29948 0.0
H300 H 0.17796 0.48829 0.27755 0.0
H301 H 0.17429 0.48593 0.31409 0.0
H302 H 0.20457 0.43907 0.34929 0.0
H303 H 0.16926 0.41606 0.35744 0.0
H304 H 0.66278 0.06547 0.81654 0.0
H305 H 0.6998 0.04367 0.81259 0.0
H306 H 0.65827 -0.0094 0.77843 0.0
H307 H 0.62111 0.01222 0.78228 0.0
H308 H 0.70469 0.00199 0.84009 0.0
H309 H 0.71881 -0.00355 0.72704 0.0
H310 H 0.70087 0.01774 0.74267 0.0
H311 H 0.68862 -0.00916 0.73904 0.0
C312 C 0.66154 0.04931 0.80773 0.0
C313 C 0.63895 0.04056 0.79983 0.0
C314 C 0.68271 0.03688 0.80553 0.0
C315 C 0.68174 0.01561 0.79508 0.0
C316 C 0.65942 0.0071 0.78622 0.0
H317 H 0.78655 0.91203 0.82462 0.0
H318 H 0.74907 0.9327 0.81672 0.0
C319 C 0.63819 0.01946 0.78856 0.0
C320 C 0.70368 0.00169 0.7958 0.0
H321 H 0.74432 0.97466 0.75535 0.0
C322 C 0.71338 -0.00399 0.82158 0.0
C323 C 0.71491 -0.006 0.77159 0.0
C324 C 0.70546 0.00014 0.74345 0.0
C325 C 0.73399 0.98271 0.82382 0.0
C326 C 0.74507 0.97479 0.79964 0.0
C327 C 0.73555 0.9806 0.77382 0.0
C328 C 0.76726 0.96126 0.80107 0.0
C329 C 0.74404 0.97744 0.85202 0.0
C330 C 0.78973 0.9703 0.79406 0.0
C331 C 0.81115 0.95861 0.79864 0.0
C332 C 0.81044 0.9376 0.81016 0.0
C333 C 0.78775 0.92816 0.81578 0.0
C334 C 0.76633 0.93995 0.81134 0.0
H335 H 0.73567 0.9876 0.86835 0.0
H336 H 0.74042 0.96009 0.85679 0.0
H337 H 0.76401 0.97989 0.85257 0.0
H338 H 0.79075 0.98673 0.78608 0.0
H339 H 0.8283 0.96632 0.79393 0.0
H340 H 0.67687 0.41626 0.68294 0.0
H341 H 0.71394 0.43705 0.69142 0.0
H342 H 0.67124 0.49182 0.71855 0.0
H343 H 0.63405 0.4713 0.70971 0.0
H344 H 0.7028 0.50242 0.67793 0.0
H345 H 0.75139 0.45646 0.75939 0.0
H346 H 0.74215 0.4396 0.73105 0.0
H347 H 0.7195 0.45253 0.75203 0.0
C348 C 0.67535 0.43255 0.69128 0.0
C349 C 0.65247 0.44215 0.69547 0.0
C350 C 0.6966 0.44438 0.69629 0.0
C351 C 0.69537 0.46592 0.70589 0.0
C352 C 0.6726 0.47519 0.71125 0.0
H353 H 0.80962 0.56593 0.70547 0.0
H354 H 0.7718 0.54676 0.71603 0.0
C355 C 0.65135 0.46342 0.70617 0.0
C356 C 0.71756 0.47953 0.70716 0.0
H357 H 0.7753 0.48157 0.73305 0.0
C358 C 0.71852 0.49809 0.69035 0.0
C359 C 0.73804 0.47379 0.72329 0.0
C360 C 0.73769 0.45462 0.74267 0.0
C361 C 0.73978 0.5105 0.68826 0.0
C362 C 0.7605 0.5044 0.70378 0.0
C363 C 0.75935 0.48621 0.72121 0.0
C364 C 0.78405 0.51566 0.70039 0.0
C365 C 0.74022 0.5294 0.66841 0.0
C366 C 0.80371 0.50433 0.6891 0.0
C367 C 0.82531 0.51515 0.68318 0.0
C368 C 0.82771 0.53757 0.68849 0.0
C369 C 0.80832 0.54871 0.70093 0.0
C370 C 0.78667 0.53781 0.70688 0.0
H371 H 0.72441 0.52924 0.6541 0.0
H372 H 0.73974 0.54489 0.68017 0.0
H373 H 0.75713 0.5292 0.65608 0.0
H374 H 0.80207 0.48721 0.684 0.0
H375 H 0.8399 0.50601 0.67377 0.0
H376 H 0.92387 -0.00336 0.89037 0.0
H377 H 0.95135 0.00997 0.9262 0.0
H378 H 0.97435 0.94419 0.94328 0.0
H379 H 0.94712 0.93067 0.90706 0.0
H380 H 0.95159 0.00013 0.98188 0.0
H381 H 0.03866 0.97617 0.93328 0.0
H382 H 0.01027 0.9767 0.91453 0.0
H383 H 0.01729 0.95434 0.93708 0.0
C384 C 0.93487 0.98497 0.9016 0.0
C385 C 0.93338 0.96258 0.89576 0.0
C386 C 0.95053 -0.00736 0.92212 0.0
C387 C 0.96509 0.97811 0.93717 0.0
C388 C 0.96361 0.95572 0.93153 0.0
H389 H 0.07028 -0.00436 0.06884 0.0
H390 H 0.04125 0.98111 0.03539 0.0
C391 C 0.94797 0.94802 0.91091 0.0
C392 C 0.9814 0.98647 0.95913 0.0
H393 H 0.0409 0.98995 0.97874 0.0
C394 C 0.97113 -0.00204 0.98119 0.0
C395 C 0.00686 0.9836 0.95815 0.0
C396 C 0.01901 0.97221 0.93439 0.0
C397 C 0.98564 0.00645 0.00248 0.0
C398 C 0.0111 0.00363 0.00145 0.0
C399 C 0.02135 -0.00795 0.97948 0.0
C400 C 0.02753 0.0126 0.02286 0.0
C401 C 0.97359 0.01806 0.02614 0.0
C402 C 0.02938 0.03517 0.02696 0.0
C403 C 0.04597 0.04357 0.04611 0.0
C404 C 0.0611 0.02953 0.06137 0.0
C405 C 0.05892 0.00693 0.05745 0.0
C406 C 0.04236 -0.00143 0.03832 0.0
H407 H 0.95394 0.01413 0.02737 0.0
H408 H 0.98242 0.01372 0.04601 0.0
H409 H 0.97536 0.03589 0.0232 0.0
H410 H 0.01839 0.0463 0.01488 0.0
H411 H 0.04728 0.06106 0.04855 0.0
H412 H 0.4061 0.9688 0.05094 0.0
H413 H 0.4245 0.98727 0.01163 0.0
H414 H 0.46219 0.03075 0.06687 0.0
H415 H 0.44405 0.01235 0.10631 0.0
H416 H 0.42417 0.03299 -0.00433 0.0
H417 H 0.51643 0.00143 0.02062 0.0
H418 H 0.48924 0.99002 0.0353 0.0
H419 H 0.5012 0.01526 0.04818 0.0
C420 C 0.41819 0.98237 0.05475 0.0
C421 C 0.42379 0.98896 0.08179 0.0
C422 C 0.42863 -0.00707 0.03225 0.0
C423 C 0.44492 0.01016 0.0364 0.0
C424 C 0.44991 0.01727 0.06329 0.0
H425 H 0.54184 0.07824 0.9256 0.0
H426 H 0.51743 0.06768 0.96523 0.0
C427 C 0.43947 0.00676 0.08579 0.0
C428 C 0.45741 0.02014 0.01267 0.0
H429 H 0.5132 0.02584 0.98341 0.0
C430 C 0.44363 0.03149 0.99294 0.0
C431 C 0.48279 0.01811 0.00924 0.0
C432 C 0.49834 0.00541 0.02929 0.0
C433 C 0.45466 0.04107 0.96993 0.0
C434 C 0.48002 0.03886 0.96638 0.0
C435 C 0.49377 0.02763 0.98625 0.0
C436 C 0.49276 0.04735 0.94183 0.0
C437 C 0.43911 0.05373 0.94987 0.0
C438 C 0.4868 0.03966 0.91543 0.0
C439 C 0.50067 0.04573 0.89269 0.0
C440 C 0.52095 0.05942 0.89599 0.0
C441 C 0.52638 0.06765 0.92233 0.0
C442 C 0.51246 0.06163 0.94502 0.0
H443 H 0.42194 0.05931 0.95948 0.0
H444 H 0.44896 0.06812 0.94185 0.0
H445 H 0.4343 0.04308 0.93221 0.0
H446 H 0.47202 0.02826 0.91254 0.0
H447 H 0.49605 0.03901 0.87272 0.0
H448 H 0.96512 0.53532 0.59011 0.0
H449 H -0.00938 0.51874 0.55463 0.0
H450 H 0.92653 0.49726 0.51106 0.0
H451 H 0.90096 0.51391 0.5461 0.0
H452 H -0.00832 0.47469 0.53996 0.0
H453 H 0.9665 0.52633 0.45057 0.0
H454 H 0.9601 0.53409 0.48563 0.0
H455 H 0.94096 0.5148 0.4681 0.0
C456 C 0.95645 0.5273 0.5728 0.0
C457 C 0.931 0.52597 0.57092 0.0
C458 C 0.97104 0.5178 0.55259 0.0
C459 C 0.96045 0.50699 0.53007 0.0
C460 C 0.93507 0.50587 0.52799 0.0
H461 H 0.02772 0.41031 0.42374 0.0
H462 H 0.0023 0.42953 0.45712 0.0
C463 C 0.92049 0.51532 0.54815 0.0
C464 C 0.97586 0.4959 0.50946 0.0
H465 H -0.01128 0.49397 0.44086 0.0
C466 C -0.00885 0.47896 0.51831 0.0
C467 C 0.97523 0.50163 0.48127 0.0
C468 C 0.96 0.52034 0.47079 0.0
C469 C 0.00555 0.46733 0.49963 0.0
C470 C 0.00433 0.47259 0.47131 0.0
C471 C -0.01063 0.48979 0.46254 0.0
C472 C 0.01908 0.46093 0.45058 0.0
C473 C 0.02223 0.44974 0.51041 0.0
C474 C 0.03642 0.47233 0.43531 0.0
C475 C 0.05083 0.46145 0.41616 0.0
C476 C 0.04812 0.43894 0.4118 0.0
C477 C 0.03035 0.42762 0.42671 0.0
C478 C 0.01591 0.43855 0.44591 0.0
H479 H 0.02536 0.45128 0.53294 0.0
H480 H 0.0139 0.4336 0.50643 0.0
H481 H 0.04005 0.45023 0.49986 0.0
H482 H 0.03906 0.48962 0.43852 0.0
H483 H 0.06428 0.4707 0.40499 0.0
H484 H 0.44051 0.55751 0.42561 0.0
H485 H 0.46848 0.54293 0.4605 0.0
H486 H 0.42175 0.48738 0.47142 0.0
H487 H 0.39398 0.50157 0.43648 0.0
H488 H 0.45883 0.53334 0.51557 0.0
H489 H 0.48804 0.45923 0.45945 0.0
H490 H 0.47261 0.48157 0.44267 0.0
H491 H 0.45568 0.46195 0.46217 0.0
C492 C 0.43628 0.54213 0.43533 0.0
C493 C 0.41508 0.53065 0.42816 0.0
C494 C 0.45225 0.53383 0.45525 0.0
C495 C 0.44738 0.5139 0.46819 0.0
C496 C 0.42615 0.50253 0.46124 0.0
H497 H 0.51361 0.4383 0.59972 0.0
H498 H 0.48712 0.45269 0.56326 0.0
C499 C 0.41021 0.51077 0.44135 0.0
C500 C 0.46399 0.50528 0.48969 0.0
H501 H 0.4989 0.46128 0.50689 0.0
C502 C 0.46775 0.51767 0.51361 0.0
C503 C 0.4755 0.48478 0.48708 0.0
C504 C 0.47298 0.47118 0.46136 0.0
C505 C 0.48233 0.50989 0.53528 0.0
C506 C 0.49371 0.48934 0.53274 0.0
C507 C 0.49004 0.47698 0.50879 0.0
C508 C 0.50981 0.48054 0.55458 0.0
C509 C 0.48502 0.52352 0.56096 0.0
C510 C 0.53147 0.49127 0.5614 0.0
C511 C 0.54661 0.48312 0.58214 0.0
C512 C 0.54042 0.46401 0.59639 0.0
C513 C 0.51885 0.45309 0.58922 0.0
C514 C 0.50372 0.46127 0.56839 0.0
H515 H 0.47058 0.53611 0.56243 0.0
H516 H 0.48444 0.51318 0.57969 0.0
H517 H 0.50283 0.53194 0.56062 0.0
H518 H 0.53672 0.50594 0.55062 0.0
H519 H 0.56314 0.49187 0.58701 0.0
loop_
_geom_bond_atom_site_label_1
_geom_bond_atom_site_label_2
_geom_bond_distance
_geom_bond_site_symmetry_2
_ccdc_geom_bond_type
O0 Cd1 2.300 . S
O0 C7 1.275 . S
Cd1 O0 2.300 . S
Cd1 O9 2.381 . S
Cd1 O10 2.378 . S
O2 Cd3 2.385 . S
O2 C7 1.255 . S
Cd3 O2 2.385 . S
Cd3 O4 2.317 . S
O4 Cd3 2.317 . S
O4 C5 1.232 . S
C5 O4 1.232 . S
C5 O6 1.218 . S
O6 C5 1.218 . S
C7 O0 1.275 . S
C7 O2 1.255 . S
C8 O9 1.258 . S
C8 O10 1.256 . S
O9 Cd1 2.381 . S
O9 C8 1.258 . S
O10 Cd1 2.378 . S
O10 C8 1.256 . S
O11 Cd12 2.300 . S
O11 C18 1.275 . S
Cd12 O11 2.300 . S
Cd12 O20 2.381 . S
Cd12 O21 2.378 . S
O13 Cd14 2.385 . S
O13 C18 1.255 . S
Cd14 O13 2.385 . S
Cd14 O15 2.317 . S
O15 Cd14 2.317 . S
O15 C16 1.232 . S
C16 O15 1.232 . S
C16 O17 1.218 . S
O17 C16 1.218 . S
C18 O11 1.275 . S
C18 O13 1.255 . S
C19 O20 1.258 . S
C19 O21 1.256 . S
O20 Cd12 2.381 . S
O20 C19 1.258 . S
O21 Cd12 2.378 . S
O21 C19 1.256 . S
O22 Cd23 2.300 . S
O22 C29 1.275 . S
Cd23 O22 2.300 . S
Cd23 O31 2.381 . S
Cd23 O32 2.378 . S
O24 Cd25 2.385 . S
O24 C29 1.255 . S
Cd25 O24 2.385 . S
Cd25 O26 2.317 . S
O26 Cd25 2.317 . S
O26 C27 1.232 . S
C27 O26 1.232 . S
C27 O28 1.218 . S
O28 C27 1.218 . S
C29 O22 1.275 . S
C29 O24 1.255 . S
C30 O31 1.258 . S
C30 O32 1.256 . S
O31 Cd23 2.381 . S
O31 C30 1.258 . S
O32 Cd23 2.378 . S
O32 C30 1.256 . S
O33 Cd34 2.300 . S
O33 C40 1.275 . S
Cd34 O33 2.300 . S
Cd34 O42 2.381 . S
Cd34 O43 2.378 . S
O35 Cd36 2.385 . S
O35 C40 1.255 . S
Cd36 O35 2.385 . S
Cd36 O37 2.317 . S
O37 Cd36 2.317 . S
O37 C38 1.232 . S
C38 O37 1.232 . S
C38 O39 1.218 . S
O39 C38 1.218 . S
C40 O33 1.275 . S
C40 O35 1.255 . S
C41 O42 1.258 . S
C41 O43 1.256 . S
O42 Cd34 2.381 . S
O42 C41 1.258 . S
O43 Cd34 2.378 . S
O43 C41 1.256 . S
O44 Cd45 2.300 . S
O44 C51 1.275 . S
Cd45 O44 2.300 . S
Cd45 O53 2.381 . S
Cd45 O54 2.378 . S
O46 Cd47 2.385 . S
O46 C51 1.255 . S
Cd47 O46 2.385 . S
Cd47 O48 2.317 . S
O48 Cd47 2.317 . S
O48 C49 1.232 . S
C49 O48 1.232 . S
C49 O50 1.218 . S
O50 C49 1.218 . S
C51 O44 1.275 . S
C51 O46 1.255 . S
C52 O53 1.258 . S
C52 O54 1.256 . S
O53 Cd45 2.381 . S
O53 C52 1.258 . S
O54 Cd45 2.378 . S
O54 C52 1.256 . S
O55 Cd56 2.300 . S
O55 C62 1.275 . S
Cd56 O55 2.300 . S
Cd56 O64 2.381 . S
Cd56 O65 2.378 . S
O57 Cd58 2.385 . S
O57 C62 1.255 . S
Cd58 O57 2.385 . S
Cd58 O59 2.317 . S
O59 Cd58 2.317 . S
O59 C60 1.232 . S
C60 O59 1.232 . S
C60 O61 1.218 . S
O61 C60 1.218 . S
C62 O55 1.275 . S
C62 O57 1.255 . S
C63 O64 1.258 . S
C63 O65 1.256 . S
O64 Cd56 2.381 . S
O64 C63 1.258 . S
O65 Cd56 2.378 . S
O65 C63 1.256 . S
O66 Cd67 2.300 . S
O66 C73 1.275 . S
Cd67 O66 2.300 . S
Cd67 O75 2.381 . S
Cd67 O76 2.378 . S
O68 Cd69 2.385 . S
O68 C73 1.255 . S
Cd69 O68 2.385 . S
Cd69 O70 2.317 . S
O70 Cd69 2.317 . S
O70 C71 1.232 . S
C71 O70 1.232 . S
C71 O72 1.218 . S
O72 C71 1.218 . S
C73 O66 1.275 . S
C73 O68 1.255 . S
C74 O75 1.258 . S
C74 O76 1.256 . S
O75 Cd67 2.381 . S
O75 C74 1.258 . S
O76 Cd67 2.378 . S
O76 C74 1.256 . S
O77 Cd78 2.300 . S
O77 C84 1.275 . S
Cd78 O77 2.300 . S
Cd78 O86 2.381 . S
Cd78 O87 2.378 . S
O79 Cd80 2.385 . S
O79 C84 1.255 . S
Cd80 O79 2.385 . S
Cd80 O81 2.317 . S
O81 Cd80 2.317 . S
O81 C82 1.232 . S
C82 O81 1.232 . S
C82 O83 1.218 . S
O83 C82 1.218 . S
C84 O77 1.275 . S
C84 O79 1.255 . S
C85 O86 1.258 . S
C85 O87 1.256 . S
O86 Cd78 2.381 . S
O86 C85 1.258 . S
O87 Cd78 2.378 . S
O87 C85 1.256 . S
H88 C96 0.929 . S
H89 C98 0.930 . S
H90 C100 0.930 . S
H91 C103 0.929 . S
H92 C106 0.930 . S
H93 C108 0.960 . S
H94 C108 0.960 . S
H95 C108 0.960 . S
C96 H88 0.929 . S
C96 C97 1.377 . S
C96 C98 1.384 . S
C97 C96 1.377 . S
C97 C103 1.390 . S
C98 H89 0.930 . S
C98 C96 1.384 . S
C98 C99 1.372 . S
C99 C98 1.372 . S
C99 C100 1.400 . S
C99 C104 1.490 . S
C100 H90 0.930 . S
C100 C99 1.400 . S
C100 C103 1.386 . S
H101 C117 0.930 . S
H102 C118 0.931 . S
C103 H91 0.929 . S
C103 C97 1.390 . S
C103 C100 1.386 . S
C104 C99 1.490 . S
C104 C106 1.395 . S
C104 C107 1.403 . S
H105 C111 0.930 . S
C106 H92 0.930 . S
C106 C104 1.395 . S
C106 C109 1.403 . S
C107 C104 1.403 . S
C107 C108 1.524 . S
C107 C111 1.400 . S
C108 H93 0.960 . S
C108 H94 0.960 . S
C108 H95 0.960 . S
C108 C107 1.524 . S
C109 C106 1.403 . S
C109 C110 1.392 . S
C109 C113 1.495 . S
C110 C109 1.392 . S
C110 C111 1.385 . S
C110 C112 1.478 . S
C111 H105 0.930 . S
C111 C107 1.400 . S
C111 C110 1.385 . S
C112 C110 1.478 . S
C112 C114 1.381 . S
C112 C118 1.383 . S
C113 C109 1.495 . S
C113 H119 0.959 . S
C113 H120 0.961 . S
C113 H121 0.960 . S
C114 C112 1.381 . S
C114 C115 1.394 . S
C114 H122 0.930 . S
C115 C114 1.394 . S
C115 C116 1.383 . S
C115 H123 0.929 . S
C116 C115 1.383 . S
C116 C117 1.377 . S
C117 H101 0.930 . S
C117 C116 1.377 . S
C117 C118 1.379 . S
C118 H102 0.931 . S
C118 C112 1.383 . S
C118 C117 1.379 . S
H119 C113 0.959 . S
H120 C113 0.961 . S
H121 C113 0.960 . S
H122 C114 0.930 . S
H123 C115 0.929 . S
H124 C132 0.929 . S
H125 C134 0.930 . S
H126 C136 0.930 . S
H127 C139 0.929 . S
H128 C142 0.930 . S
H129 C144 0.960 . S
H130 C144 0.960 . S
H131 C144 0.960 . S
C132 H124 0.929 . S
C132 C133 1.377 . S
C132 C134 1.384 . S
C133 C132 1.377 . S
C133 C139 1.390 . S
C134 H125 0.930 . S
C134 C132 1.384 . S
C134 C135 1.372 . S
C135 C134 1.372 . S
C135 C136 1.400 . S
C135 C140 1.490 . S
C136 H126 0.930 . S
C136 C135 1.400 . S
C136 C139 1.386 . S
H137 C153 0.930 . S
H138 C154 0.931 . S
C139 H127 0.929 . S
C139 C133 1.390 . S
C139 C136 1.386 . S
C140 C135 1.490 . S
C140 C142 1.395 . S
C140 C143 1.403 . S
H141 C147 0.930 . S
C142 H128 0.930 . S
C142 C140 1.395 . S
C142 C145 1.403 . S
C143 C140 1.403 . S
C143 C144 1.524 . S
C143 C147 1.400 . S
C144 H129 0.960 . S
C144 H130 0.960 . S
C144 H131 0.960 . S
C144 C143 1.524 . S
C145 C142 1.403 . S
C145 C146 1.392 . S
C145 C149 1.495 . S
C146 C145 1.392 . S
C146 C147 1.385 . S
C146 C148 1.478 . S
C147 H141 0.930 . S
C147 C143 1.400 . S
C147 C146 1.385 . S
C148 C146 1.478 . S
C148 C150 1.381 . S
C148 C154 1.383 . S
C149 C145 1.495 . S
C149 H155 0.959 . S
C149 H156 0.961 . S
C149 H157 0.960 . S
C150 C148 1.381 . S
C150 C151 1.394 . S
C150 H158 0.930 . S
C151 C150 1.394 . S
C151 C152 1.383 . S
C151 H159 0.929 . S
C152 C151 1.383 . S
C152 C153 1.377 . S
C153 H137 0.930 . S
C153 C152 1.377 . S
C153 C154 1.379 . S
C154 H138 0.931 . S
C154 C148 1.383 . S
C154 C153 1.379 . S
H155 C149 0.959 . S
H156 C149 0.961 . S
H157 C149 0.960 . S
H158 C150 0.930 . S
H159 C151 0.929 . S
H160 C168 0.929 . S
H161 C170 0.930 . S
H162 C172 0.930 . S
H163 C175 0.929 . S
H164 C178 0.930 . S
H165 C180 0.960 . S
H166 C180 0.960 . S
H167 C180 0.960 . S
C168 H160 0.929 . S
C168 C169 1.377 . S
C168 C170 1.384 . S
C169 C168 1.377 . S
C169 C175 1.390 . S
C170 H161 0.930 . S
C170 C168 1.384 . S
C170 C171 1.372 . S
C171 C170 1.372 . S
C171 C172 1.400 . S
C171 C176 1.490 . S
C172 H162 0.930 . S
C172 C171 1.400 . S
C172 C175 1.386 . S
H173 C189 0.930 . S
H174 C190 0.931 . S
C175 H163 0.929 . S
C175 C169 1.390 . S
C175 C172 1.386 . S
C176 C171 1.490 . S
C176 C178 1.395 . S
C176 C179 1.403 . S
H177 C183 0.930 . S
C178 H164 0.930 . S
C178 C176 1.395 . S
C178 C181 1.403 . S
C179 C176 1.403 . S
C179 C180 1.524 . S
C179 C183 1.400 . S
C180 H165 0.960 . S
C180 H166 0.960 . S
C180 H167 0.960 . S
C180 C179 1.524 . S
C181 C178 1.403 . S
C181 C182 1.392 . S
C181 C185 1.495 . S
C182 C181 1.392 . S
C182 C183 1.385 . S
C182 C184 1.478 . S
C183 H177 0.930 . S
C183 C179 1.400 . S
C183 C182 1.385 . S
C184 C182 1.478 . S
C184 C186 1.381 . S
C184 C190 1.383 . S
C185 C181 1.495 . S
C185 H191 0.959 . S
C185 H192 0.961 . S
C185 H193 0.960 . S
C186 C184 1.381 . S
C186 C187 1.394 . S
C186 H194 0.930 . S
C187 C186 1.394 . S
C187 C188 1.383 . S
C187 H195 0.929 . S
C188 C187 1.383 . S
C188 C189 1.377 . S
C189 H173 0.930 . S
C189 C188 1.377 . S
C189 C190 1.379 . S
C190 H174 0.931 . S
C190 C184 1.383 . S
C190 C189 1.379 . S
H191 C185 0.959 . S
H192 C185 0.961 . S
H193 C185 0.960 . S
H194 C186 0.930 . S
H195 C187 0.929 . S
H196 C204 0.929 . S
H197 C206 0.930 . S
H198 C208 0.930 . S
H199 C211 0.929 . S
H200 C214 0.930 . S
H201 C216 0.960 . S
H202 C216 0.960 . S
H203 C216 0.960 . S
C204 H196 0.929 . S
C204 C205 1.377 . S
C204 C206 1.384 . S
C205 C204 1.377 . S
C205 C211 1.390 . S
C206 H197 0.930 . S
C206 C204 1.384 . S
C206 C207 1.372 . S
C207 C206 1.372 . S
C207 C208 1.400 . S
C207 C212 1.490 . S
C208 H198 0.930 . S
C208 C207 1.400 . S
C208 C211 1.386 . S
H209 C225 0.930 . S
H210 C226 0.931 . S
C211 H199 0.929 . S
C211 C205 1.390 . S
C211 C208 1.386 . S
C212 C207 1.490 . S
C212 C214 1.395 . S
C212 C215 1.403 . S
H213 C219 0.930 . S
C214 H200 0.930 . S
C214 C212 1.395 . S
C214 C217 1.403 . S
C215 C212 1.403 . S
C215 C216 1.524 . S
C215 C219 1.400 . S
C216 H201 0.960 . S
C216 H202 0.960 . S
C216 H203 0.960 . S
C216 C215 1.524 . S
C217 C214 1.403 . S
C217 C218 1.392 . S
C217 C221 1.495 . S
C218 C217 1.392 . S
C218 C219 1.385 . S
C218 C220 1.478 . S
C219 H213 0.930 . S
C219 C215 1.400 . S
C219 C218 1.385 . S
C220 C218 1.478 . S
C220 C222 1.381 . S
C220 C226 1.383 . S
C221 C217 1.495 . S
C221 H227 0.959 . S
C221 H228 0.961 . S
C221 H229 0.960 . S
C222 C220 1.381 . S
C222 C223 1.394 . S
C222 H230 0.930 . S
C223 C222 1.394 . S
C223 C224 1.383 . S
C223 H231 0.929 . S
C224 C223 1.383 . S
C224 C225 1.377 . S
C225 H209 0.930 . S
C225 C224 1.377 . S
C225 C226 1.379 . S
C226 H210 0.931 . S
C226 C220 1.383 . S
C226 C225 1.379 . S
H227 C221 0.959 . S
H228 C221 0.961 . S
H229 C221 0.960 . S
H230 C222 0.930 . S
H231 C223 0.929 . S
H232 C240 0.929 . S
H233 C242 0.930 . S
H234 C244 0.930 . S
H235 C247 0.929 . S
H236 C250 0.930 . S
H237 C252 0.960 . S
H238 C252 0.960 . S
H239 C252 0.960 . S
C240 H232 0.929 . S
C240 C241 1.377 . S
C240 C242 1.384 . S
C241 C240 1.377 . S
C241 C247 1.390 . S
C242 H233 0.930 . S
C242 C240 1.384 . S
C242 C243 1.372 . S
C243 C242 1.372 . S
C243 C244 1.400 . S
C243 C248 1.490 . S
C244 H234 0.930 . S
C244 C243 1.400 . S
C244 C247 1.386 . S
H245 C261 0.930 . S
H246 C262 0.931 . S
C247 H235 0.929 . S
C247 C241 1.390 . S
C247 C244 1.386 . S
C248 C243 1.490 . S
C248 C250 1.395 . S
C248 C251 1.403 1_565 S
H249 C255 0.930 . S
C250 H236 0.930 . S
C250 C248 1.395 . S
C250 C253 1.403 . S
C251 C248 1.403 1_545 S
C251 C252 1.524 . S
C251 C255 1.400 . S
C252 H237 0.960 . S
C252 H238 0.960 . S
C252 H239 0.960 . S
C252 C251 1.524 . S
C253 C250 1.403 . S
C253 C254 1.392 1_565 S
C253 C257 1.495 . S
C254 C253 1.392 1_545 S
C254 C255 1.385 . S
C254 C256 1.478 . S
C255 H249 0.930 . S
C255 C251 1.400 . S
C255 C254 1.385 . S
C256 C254 1.478 . S
C256 C258 1.381 . S
C256 C262 1.383 . S
C257 C253 1.495 . S
C257 H263 0.959 . S
C257 H264 0.961 . S
C257 H265 0.960 . S
C258 C256 1.381 . S
C258 C259 1.394 . S
C258 H266 0.930 . S
C259 C258 1.394 . S
C259 C260 1.383 . S
C259 H267 0.929 . S
C260 C259 1.383 . S
C260 C261 1.377 . S
C261 H245 0.930 . S
C261 C260 1.377 . S
C261 C262 1.379 . S
C262 H246 0.931 . S
C262 C256 1.383 . S
C262 C261 1.379 . S
H263 C257 0.959 . S
H264 C257 0.961 . S
H265 C257 0.960 . S
H266 C258 0.930 . S
H267 C259 0.929 . S
H268 C276 0.929 . S
H269 C278 0.930 . S
H270 C280 0.930 . S
H271 C283 0.929 . S
H272 C286 0.930 . S
H273 C288 0.960 . S
H274 C288 0.960 . S
H275 C288 0.960 . S
C276 H268 0.929 . S
C276 C277 1.377 . S
C276 C278 1.384 . S
C277 C276 1.377 . S
C277 C283 1.390 . S
C278 H269 0.930 . S
C278 C276 1.384 . S
C278 C279 1.372 . S
C279 C278 1.372 . S
C279 C280 1.400 . S
C279 C284 1.490 . S
C280 H270 0.930 . S
C280 C279 1.400 . S
C280 C283 1.386 . S
H281 C297 0.930 . S
H282 C298 0.931 . S
C283 H271 0.929 . S
C283 C277 1.390 . S
C283 C280 1.386 . S
C284 C279 1.490 . S
C284 C286 1.395 . S
C284 C287 1.403 . S
H285 C291 0.930 . S
C286 H272 0.930 . S
C286 C284 1.395 . S
C286 C289 1.403 . S
C287 C284 1.403 . S
C287 C288 1.524 . S
C287 C291 1.400 . S
C288 H273 0.960 . S
C288 H274 0.960 . S
C288 H275 0.960 . S
C288 C287 1.524 . S
C289 C286 1.403 . S
C289 C290 1.392 . S
C289 C293 1.495 . S
C290 C289 1.392 . S
C290 C291 1.385 . S
C290 C292 1.478 . S
C291 H285 0.930 . S
C291 C287 1.400 . S
C291 C290 1.385 . S
C292 C290 1.478 . S
C292 C294 1.381 . S
C292 C298 1.383 . S
C293 C289 1.495 . S
C293 H299 0.959 . S
C293 H300 0.961 . S
C293 H301 0.960 . S
C294 C292 1.381 . S
C294 C295 1.394 . S
C294 H302 0.930 . S
C295 C294 1.394 . S
C295 C296 1.383 . S
C295 H303 0.929 . S
C296 C295 1.383 . S
C296 C297 1.377 . S
C297 H281 0.930 . S
C297 C296 1.377 . S
C297 C298 1.379 . S
C298 H282 0.931 . S
C298 C292 1.383 . S
C298 C297 1.379 . S
H299 C293 0.959 . S
H300 C293 0.961 . S
H301 C293 0.960 . S
H302 C294 0.930 . S
H303 C295 0.929 . S
H304 C312 0.929 . S
H305 C314 0.930 . S
H306 C316 0.930 . S
H307 C319 0.929 . S
H308 C322 0.930 . S
H309 C324 0.960 1_565 S
H310 C324 0.960 . S
H311 C324 0.960 . S
C312 H304 0.929 . S
C312 C313 1.377 . S
C312 C314 1.384 . S
C313 C312 1.377 . S
C313 C319 1.390 . S
C314 H305 0.930 . S
C314 C312 1.384 . S
C314 C315 1.372 . S
C315 C314 1.372 . S
C315 C316 1.400 . S
C315 C320 1.490 . S
C316 H306 0.930 . S
C316 C315 1.400 . S
C316 C319 1.386 . S
H317 C333 0.930 . S
H318 C334 0.931 . S
C319 H307 0.929 . S
C319 C313 1.390 . S
C319 C316 1.386 . S
C320 C315 1.490 . S
C320 C322 1.395 . S
C320 C323 1.403 . S
H321 C327 0.930 . S
C322 H308 0.930 . S
C322 C320 1.395 . S
C322 C325 1.403 1_545 S
C323 C320 1.403 . S
C323 C324 1.524 . S
C323 C327 1.400 1_545 S
C324 H309 0.960 1_545 S
C324 H310 0.960 . S
C324 H311 0.960 . S
C324 C323 1.524 . S
C325 C322 1.403 1_565 S
C325 C326 1.392 . S
C325 C329 1.495 . S
C326 C325 1.392 . S
C326 C327 1.385 . S
C326 C328 1.478 . S
C327 H321 0.930 . S
C327 C323 1.400 1_565 S
C327 C326 1.385 . S
C328 C326 1.478 . S
C328 C330 1.381 . S
C328 C334 1.383 . S
C329 C325 1.495 . S
C329 H335 0.959 1_565 S
C329 H336 0.961 . S
C329 H337 0.960 1_565 S
C330 C328 1.381 . S
C330 C331 1.394 . S
C330 H338 0.930 . S
C331 C330 1.394 . S
C331 C332 1.383 . S
C331 H339 0.929 . S
C332 C331 1.383 . S
C332 C333 1.377 . S
C333 H317 0.930 . S
C333 C332 1.377 . S
C333 C334 1.379 . S
C334 H318 0.931 . S
C334 C328 1.383 . S
C334 C333 1.379 . S
H335 C329 0.959 1_545 S
H336 C329 0.961 . S
H337 C329 0.960 1_545 S
H338 C330 0.930 . S
H339 C331 0.929 . S
H340 C348 0.929 . S
H341 C350 0.930 . S
H342 C352 0.930 . S
H343 C355 0.929 . S
H344 C358 0.930 . S
H345 C360 0.960 . S
H346 C360 0.960 . S
H347 C360 0.960 . S
C348 H340 0.929 . S
C348 C349 1.377 . S
C348 C350 1.384 . S
C349 C348 1.377 . S
C349 C355 1.390 . S
C350 H341 0.930 . S
C350 C348 1.384 . S
C350 C351 1.372 . S
C351 C350 1.372 . S
C351 C352 1.400 . S
C351 C356 1.490 . S
C352 H342 0.930 . S
C352 C351 1.400 . S
C352 C355 1.386 . S
H353 C369 0.930 . S
H354 C370 0.931 . S
C355 H343 0.929 . S
C355 C349 1.390 . S
C355 C352 1.386 . S
C356 C351 1.490 . S
C356 C358 1.395 . S
C356 C359 1.403 . S
H357 C363 0.930 . S
C358 H344 0.930 . S
C358 C356 1.395 . S
C358 C361 1.403 . S
C359 C356 1.403 . S
C359 C360 1.524 . S
C359 C363 1.400 . S
C360 H345 0.960 . S
C360 H346 0.960 . S
C360 H347 0.960 . S
C360 C359 1.524 . S
C361 C358 1.403 . S
C361 C362 1.392 . S
C361 C365 1.495 . S
C362 C361 1.392 . S
C362 C363 1.385 . S
C362 C364 1.478 . S
C363 H357 0.930 . S
C363 C359 1.400 . S
C363 C362 1.385 . S
C364 C362 1.478 . S
C364 C366 1.381 . S
C364 C370 1.383 . S
C365 C361 1.495 . S
C365 H371 0.959 . S
C365 H372 0.961 . S
C365 H373 0.960 . S
C366 C364 1.381 . S
C366 C367 1.394 . S
C366 H374 0.930 . S
C367 C366 1.394 . S
C367 C368 1.383 . S
C367 H375 0.929 . S
C368 C367 1.383 . S
C368 C369 1.377 . S
C369 H353 0.930 . S
C369 C368 1.377 . S
C369 C370 1.379 . S
C370 H354 0.931 . S
C370 C364 1.383 . S
C370 C369 1.379 . S
H371 C365 0.959 . S
H372 C365 0.961 . S
H373 C365 0.960 . S
H374 C366 0.930 . S
H375 C367 0.929 . S
H376 C384 0.929 . S
H377 C386 0.932 . S
H378 C388 0.930 . S
H379 C391 0.929 . S
H380 C394 0.930 . S
H381 C396 0.960 . S
H382 C396 0.960 . S
H383 C396 0.960 . S
C384 H376 0.929 . S
C384 C385 1.377 . S
C384 C386 1.384 . S
C385 C384 1.377 . S
C385 C391 1.390 . S
C386 H377 0.932 . S
C386 C384 1.384 . S
C386 C387 1.372 . S
C387 C386 1.372 . S
C387 C388 1.400 . S
C387 C392 1.490 . S
C388 H378 0.930 . S
C388 C387 1.400 . S
C388 C391 1.386 . S
H389 C405 0.930 . S
H390 C406 0.931 . S
C391 H379 0.929 . S
C391 C385 1.390 . S
C391 C388 1.386 . S
C392 C387 1.490 . S
C392 C394 1.369 1_566 S
C392 C395 1.403 1_655 S
H393 C399 0.931 . S
C394 H380 0.930 . S
C394 C392 1.369 1_544 S
C394 C397 1.430 . S
C395 C392 1.403 1_455 S
C395 C396 1.524 . S
C395 C399 1.378 1_566 S
C396 H381 0.960 . S
C396 H382 0.960 . S
C396 H383 0.960 . S
C396 C395 1.524 . S
C397 C394 1.430 . S
C397 C398 1.392 1_655 S
C397 C401 1.495 . S
C398 C397 1.392 1_455 S
C398 C399 1.407 . S
C398 C400 1.478 . S
C399 H393 0.931 . S
C399 C395 1.378 1_544 S
C399 C398 1.407 . S
C400 C398 1.478 . S
C400 C402 1.381 . S
C400 C406 1.383 . S
C401 C397 1.495 . S
C401 H407 0.959 . S
C401 H408 0.961 . S
C401 H409 0.960 . S
C402 C400 1.381 . S
C402 C403 1.394 . S
C402 H410 0.930 . S
C403 C402 1.394 . S
C403 C404 1.383 . S
C403 H411 0.929 . S
C404 C403 1.383 . S
C404 C405 1.377 . S
C405 H389 0.930 . S
C405 C404 1.377 . S
C405 C406 1.379 . S
C406 H390 0.931 . S
C406 C400 1.383 . S
C406 C405 1.379 . S
H407 C401 0.959 . S
H408 C401 0.961 . S
H409 C401 0.960 . S
H410 C402 0.930 . S
H411 C403 0.929 . S
H412 C420 0.929 . S
H413 C422 0.930 . S
H414 C424 0.930 . S
H415 C427 0.929 . S
H416 C430 0.931 . S
H417 C432 0.960 . S
H418 C432 0.960 . S
H419 C432 0.960 . S
C420 H412 0.929 . S
C420 C421 1.377 . S
C420 C422 1.384 . S
C421 C420 1.377 . S
C421 C427 1.390 . S
C422 H413 0.930 . S
C422 C420 1.384 . S
C422 C423 1.372 . S
C423 C422 1.372 . S
C423 C424 1.400 . S
C423 C428 1.490 . S
C424 H414 0.930 . S
C424 C423 1.400 . S
C424 C427 1.386 . S
H425 C441 0.930 . S
H426 C442 0.931 . S
C427 H415 0.929 . S
C427 C421 1.390 . S
C427 C424 1.386 . S
C428 C423 1.490 . S
C428 C430 1.406 1_554 S
C428 C431 1.403 . S
H429 C435 0.928 1_554 S
C430 H416 0.931 . S
C430 C428 1.406 1_556 S
C430 C433 1.391 1_565 S
C431 C428 1.403 . S
C431 C432 1.524 . S
C431 C435 1.380 1_564 S
C432 H417 0.960 . S
C432 H418 0.960 . S
C432 H419 0.960 . S
C432 C431 1.524 . S
C433 C430 1.391 1_545 S
C433 C434 1.392 . S
C433 C437 1.495 . S
C434 C433 1.392 . S
C434 C435 1.407 . S
C434 C436 1.478 . S
C435 H429 0.928 1_556 S
C435 C431 1.380 1_546 S
C435 C434 1.407 . S
C436 C434 1.478 . S
C436 C438 1.381 . S
C436 C442 1.383 . S
C437 C433 1.495 . S
C437 H443 0.959 . S
C437 H444 0.961 . S
C437 H445 0.960 . S
C438 C436 1.381 . S
C438 C439 1.394 . S
C438 H446 0.930 . S
C439 C438 1.394 . S
C439 C440 1.383 . S
C439 H447 0.929 . S
C440 C439 1.383 . S
C440 C441 1.377 . S
C441 H425 0.930 . S
C441 C440 1.377 . S
C441 C442 1.379 . S
C442 H426 0.931 . S
C442 C436 1.383 . S
C442 C441 1.379 . S
H443 C437 0.959 . S
H444 C437 0.961 . S
H445 C437 0.960 . S
H446 C438 0.930 . S
H447 C439 0.929 . S
H448 C456 0.929 . S
H449 C458 0.930 . S
H450 C460 0.930 . S
H451 C463 0.929 . S
H452 C466 0.930 . S
H453 C468 0.960 . S
H454 C468 0.960 . S
H455 C468 0.960 . S
C456 H448 0.929 . S
C456 C457 1.377 . S
C456 C458 1.384 . S
C457 C456 1.377 . S
C457 C463 1.390 . S
C458 H449 0.930 . S
C458 C456 1.384 . S
C458 C459 1.372 . S
C459 C458 1.372 . S
C459 C460 1.400 . S
C459 C464 1.490 . S
C460 H450 0.930 . S
C460 C459 1.400 . S
C460 C463 1.386 . S
H461 C477 0.930 . S
H462 C478 0.931 . S
C463 H451 0.929 . S
C463 C457 1.390 . S
C463 C460 1.386 . S
C464 C459 1.490 . S
C464 C466 1.395 1_655 S
C464 C467 1.403 . S
H465 C471 0.932 . S
C466 H452 0.930 . S
C466 C464 1.395 1_455 S
C466 C469 1.403 . S
C467 C464 1.403 . S
C467 C468 1.524 . S
C467 C471 1.400 1_655 S
C468 H453 0.960 . S
C468 H454 0.960 . S
C468 H455 0.960 . S
C468 C467 1.524 . S
C469 C466 1.403 . S
C469 C470 1.392 . S
C469 C473 1.495 . S
C470 C469 1.392 . S
C470 C471 1.385 . S
C470 C472 1.478 . S
C471 H465 0.932 . S
C471 C467 1.400 1_455 S
C471 C470 1.385 . S
C472 C470 1.478 . S
C472 C474 1.381 . S
C472 C478 1.383 . S
C473 C469 1.495 . S
C473 H479 0.959 . S
C473 H480 0.961 . S
C473 H481 0.960 . S
C474 C472 1.381 . S
C474 C475 1.394 . S
C474 H482 0.930 . S
C475 C474 1.394 . S
C475 C476 1.383 . S
C475 H483 0.929 . S
C476 C475 1.383 . S
C476 C477 1.377 . S
C477 H461 0.930 . S
C477 C476 1.377 . S
C477 C478 1.379 . S
C478 H462 0.931 . S
C478 C472 1.383 . S
C478 C477 1.379 . S
H479 C473 0.959 . S
H480 C473 0.961 . S
H481 C473 0.960 . S
H482 C474 0.930 . S
H483 C475 0.929 . S
H484 C492 0.929 . S
H485 C494 0.930 . S
H486 C496 0.930 . S
H487 C499 0.929 . S
H488 C502 0.930 . S
H489 C504 0.960 . S
H490 C504 0.960 . S
H491 C504 0.960 . S
C492 H484 0.929 . S
C492 C493 1.377 . S
C492 C494 1.384 . S
C493 C492 1.377 . S
C493 C499 1.390 . S
C494 H485 0.930 . S
C494 C492 1.384 . S
C494 C495 1.372 . S
C495 C494 1.372 . S
C495 C496 1.400 . S
C495 C500 1.490 . S
C496 H486 0.930 . S
C496 C495 1.400 . S
C496 C499 1.386 . S
H497 C513 0.930 . S
H498 C514 0.931 . S
C499 H487 0.929 . S
C499 C493 1.390 . S
C499 C496 1.386 . S
C500 C495 1.490 . S
C500 C502 1.395 . S
C500 C503 1.403 . S
H501 C507 0.930 . S
C502 H488 0.930 . S
C502 C500 1.395 . S
C502 C505 1.403 . S
C503 C500 1.403 . S
C503 C504 1.524 . S
C503 C507 1.400 . S
C504 H489 0.960 . S
C504 H490 0.960 . S
C504 H491 0.960 . S
C504 C503 1.524 . S
C505 C502 1.403 . S
C505 C506 1.392 . S
C505 C509 1.495 . S
C506 C505 1.392 . S
C506 C507 1.385 . S
C506 C508 1.478 . S
C507 H501 0.930 . S
C507 C503 1.400 . S
C507 C506 1.385 . S
C508 C506 1.478 . S
C508 C510 1.381 . S
C508 C514 1.383 . S
C509 C505 1.495 . S
C509 H515 0.959 . S
C509 H516 0.961 . S
C509 H517 0.960 . S
C510 C508 1.381 . S
C510 C511 1.394 . S
C510 H518 0.930 . S
C511 C510 1.394 . S
C511 C512 1.383 . S
C511 H519 0.929 . S
C512 C511 1.383 . S
C512 C513 1.377 . S
C513 H497 0.930 . S
C513 C512 1.377 . S
C513 C514 1.379 . S
C514 H498 0.931 . S
C514 C508 1.383 . S
C514 C513 1.379 . S
H515 C509 0.959 . S
H516 C509 0.961 . S
H517 C509 0.960 . S
H518 C510 0.930 . S
H519 C511 0.929 . S
C97 C8 1.488 . S
C116 C30 1.496 . S
C133 C19 1.493 . S
C152 C41 1.479 . S
C169 C52 1.488 . S
C188 C74 1.485 . S
C205 C85 1.492 . S
C224 C63 1.483 . S
C241 C18 1.461 . S
C260 C7 1.479 . S
C277 C40 1.457 . S
C296 C29 1.474 . S
C313 C62 1.455 . S
C332 C51 1.479 . S
C349 C84 1.460 . S
C368 C73 1.470 . S
C385 C49 1.287 . S
C404 C5 1.336 . S
C421 C16 1.296 . S
C440 C60 1.290 . S
C457 C71 1.305 . S
C476 C27 1.249 . S
C493 C38 1.309 . S
C512 C82 1.243 . S
