# Generated by pormake.
# Topology una, (4)-cn, num edge types: 1
# Building blocks:
#     Node 0, Type 0, BuildingBlock: GALJAG_clean_sbu_0, # of connection points: 4
#     Node 1, Type 0, BuildingBlock: GALJAG_clean_sbu_0, # of connection points: 4
#     Node 2, Type 0, BuildingBlock: GALJAG_clean_sbu_0, # of connection points: 4
#     Node 3, Type 0, BuildingBlock: GALJAG_clean_sbu_0, # of connection points: 4
#     Node 4, Type 0, BuildingBlock: GALJAG_clean_sbu_0, # of connection points: 4
#     Node 5, Type 0, BuildingBlock: GALJAG_clean_sbu_0, # of connection points: 4
#     Node 6, Type 0, BuildingBlock: GALJAG_clean_sbu_0, # of connection points: 4
#     Node 7, Type 0, BuildingBlock: GALJAG_clean_sbu_0, # of connection points: 4
#     Node 8, Type 0, BuildingBlock: GALJAG_clean_sbu_0, # of connection points: 4
#     Node 9, Type 0, BuildingBlock: GALJAG_clean_sbu_0, # of connection points: 4
#     Node 10, Type 0, BuildingBlock: GALJAG_clean_sbu_0, # of connection points: 4
#     Node 11, Type 0, BuildingBlock: GALJAG_clean_sbu_0, # of connection points: 4
#     Edge 12, Type (0, 0), BuildingBlock: KIFKEQ_clean_linker_1, # of connection points: 2
#     Edge 13, Type (0, 0), BuildingBlock: KIFKEQ_clean_linker_1, # of connection points: 2
#     Edge 14, Type (0, 0), BuildingBlock: KIFKEQ_clean_linker_1, # of connection points: 2
#     Edge 15, Type (0, 0), BuildingBlock: KIFKEQ_clean_linker_1, # of connection points: 2
#     Edge 16, Type (0, 0), BuildingBlock: KIFKEQ_clean_linker_1, # of connection points: 2
#     Edge 17, Type (0, 0), BuildingBlock: KIFKEQ_clean_linker_1, # of connection points: 2
#     Edge 18, Type (0, 0), BuildingBlock: KIFKEQ_clean_linker_1, # of connection points: 2
#     Edge 19, Type (0, 0), BuildingBlock: KIFKEQ_clean_linker_1, # of connection points: 2
#     Edge 20, Type (0, 0), BuildingBlock: KIFKEQ_clean_linker_1, # of connection points: 2
#     Edge 21, Type (0, 0), BuildingBlock: KIFKEQ_clean_linker_1, # of connection points: 2
#     Edge 22, Type (0, 0), BuildingBlock: KIFKEQ_clean_linker_1, # of connection points: 2
#     Edge 23, Type (0, 0), BuildingBlock: KIFKEQ_clean_linker_1, # of connection points: 2
#     Edge 24, Type (0, 0), BuildingBlock: KIFKEQ_clean_linker_1, # of connection points: 2
#     Edge 25, Type (0, 0), BuildingBlock: KIFKEQ_clean_linker_1, # of connection points: 2
#     Edge 26, Type (0, 0), BuildingBlock: KIFKEQ_clean_linker_1, # of connection points: 2
#     Edge 27, Type (0, 0), BuildingBlock: KIFKEQ_clean_linker_1, # of connection points: 2
#     Edge 28, Type (0, 0), BuildingBlock: KIFKEQ_clean_linker_1, # of connection points: 2
#     Edge 29, Type (0, 0), BuildingBlock: KIFKEQ_clean_linker_1, # of connection points: 2
#     Edge 30, Type (0, 0), BuildingBlock: KIFKEQ_clean_linker_1, # of connection points: 2
#     Edge 31, Type (0, 0), BuildingBlock: KIFKEQ_clean_linker_1, # of connection points: 2
#     Edge 32, Type (0, 0), BuildingBlock: KIFKEQ_clean_linker_1, # of connection points: 2
#     Edge 33, Type (0, 0), BuildingBlock: KIFKEQ_clean_linker_1, # of connection points: 2
#     Edge 34, Type (0, 0), BuildingBlock: KIFKEQ_clean_linker_1, # of connection points: 2
#     Edge 35, Type (0, 0), BuildingBlock: KIFKEQ_clean_linker_1, # of connection points: 2
# Relax obj value: 0.044
# Max RMSD: 0.038
# Mean RMSD: 0.038
data_MOF--net-una--node1-GALJAG_clean_sbu_0--edge1-KIFKEQ_clean_linker_1
_symmetry_space_group_name_H-M    P1
_symmetry_Int_Tables_number       1
_symmetry_cell_setting            triclinic
loop_
_symmetry_equiv_pos_as_xyz
'x, y, z'
_cell_length_a     61.816401
_cell_length_b     61.817168
_cell_length_c     20.417464
_cell_angle_alpha  90.002357
_cell_angle_beta   90.054599
_cell_angle_gamma 120.02241
loop_
_atom_site_label
_atom_site_type_symbol
_atom_site_fract_x
_atom_site_fract_y
_atom_site_fract_z
_atom_type_partial_charge
In0 In 0.1293 0.44131 0.07365 0.0
O1 O 0.08825 0.409 0.07653 0.0
O2 O 0.1046 0.4241 0.98444 0.0
C3 C 0.14844 0.43088 0.18084 0.0
C4 C 0.12653 0.4825 0.10226 0.0
C5 C 0.16493 0.44909 0.98611 0.0
O6 O 0.13609 0.41461 0.13778 0.0
O7 O 0.14939 0.45153 0.1721 0.0
O8 O 0.15262 0.4603 0.98271 0.0
O9 O 0.15912 0.43394 0.03299 0.0
C10 C 0.0854 0.40863 0.01512 0.0
O11 O 0.14527 0.48331 0.07525 0.0
O12 O 0.10904 0.46076 0.11573 0.0
In13 In 0.68744 0.13238 0.21997 0.0
O14 O 0.68825 0.09564 0.20785 0.0
O15 O 0.6585 0.09851 0.16445 0.0
C16 C 0.72438 0.16022 0.30698 0.0
C17 C 0.64684 0.13252 0.26769 0.0
C18 C 0.7103 0.15659 0.1097 0.0
O19 O 0.71194 0.13663 0.31162 0.0
O20 O 0.71765 0.16895 0.26082 0.0
O21 O 0.69368 0.15948 0.13742 0.0
O22 O 0.71479 0.14084 0.13646 0.0
C23 C 0.66856 0.08536 0.17344 0.0
O24 O 0.65931 0.14563 0.21966 0.0
O25 O 0.65506 0.11939 0.29316 0.0
In26 In 0.55663 0.68682 0.3822 0.0
O27 O 0.59385 0.68655 0.37201 0.0
O28 O 0.56127 0.6582 0.32505 0.0
C29 C 0.56656 0.72402 0.46867 0.0
C30 C 0.51554 0.64574 0.42688 0.0
C31 C 0.55546 0.71092 0.27428 0.0
O32 O 0.57732 0.7112 0.47337 0.0
O33 O 0.55085 0.71739 0.423 0.0
O34 O 0.53593 0.69555 0.30445 0.0
O35 O 0.5756 0.71369 0.29773 0.0
C36 C 0.58429 0.6674 0.33554 0.0
O37 O 0.51651 0.65581 0.37245 0.0
O38 O 0.53534 0.6568 0.46059 0.0
In39 In 0.87244 0.55638 0.55922 0.0
O40 O 0.8666 0.51759 0.54141 0.0
O41 O 0.88704 0.53678 0.62657 0.0
C42 C 0.84011 0.55402 0.46775 0.0
C43 C 0.91726 0.58638 0.50232 0.0
C44 C 0.84856 0.5646 0.65916 0.0
O45 O 0.83982 0.53473 0.48928 0.0
O46 O 0.85682 0.57437 0.49196 0.0
O47 O 0.86866 0.582 0.63538 0.0
O48 O 0.84164 0.54336 0.63499 0.0
C49 C 0.87826 0.51726 0.59179 0.0
O50 O 0.91299 0.58952 0.56119 0.0
O51 O 0.89916 0.5684 0.47361 0.0
In52 In 0.31776 0.87129 0.71786 0.0
O53 O 0.35003 0.86446 0.69975 0.0
O54 O 0.3513 0.88399 0.78675 0.0
C55 C 0.2872 0.84328 0.62151 0.0
C56 C 0.33338 0.91712 0.66692 0.0
C57 C 0.28527 0.84258 0.81194 0.0
O58 O 0.30723 0.8434 0.6349 0.0
O59 O 0.28289 0.85766 0.65605 0.0
O60 O 0.29046 0.86498 0.80313 0.0
O61 O 0.2974 0.83575 0.7763 0.0
C62 C 0.36183 0.87523 0.75117 0.0
O63 O 0.32434 0.91156 0.7242 0.0
O64 O 0.33443 0.89982 0.63727 0.0
In65 In 0.44461 0.31592 0.90031 0.0
O66 O 0.41199 0.32415 0.90649 0.0
O67 O 0.43454 0.33475 0.82098 0.0
C68 C 0.4331 0.2837 0.00231 0.0
C69 C 0.48654 0.35951 0.92523 0.0
C70 C 0.44758 0.28637 0.80844 0.0
O71 O 0.41717 0.28096 0.95949 0.0
O72 O 0.4539 0.30337 0.99593 0.0
O73 O 0.46582 0.30026 0.84484 0.0
O74 O 0.42807 0.28752 0.81835 0.0
C75 C 0.4162 0.33394 0.85005 0.0
O76 O 0.48437 0.34584 0.87682 0.0
O77 O 0.46743 0.3512 0.9615 0.0
In78 In 0.56304 0.8742 0.88219 0.0
O79 O 0.52335 0.8651 0.90327 0.0
O80 O 0.54222 0.88942 0.82304 0.0
C81 C 0.55979 0.83892 0.96496 0.0
C82 C 0.59037 0.91888 0.94245 0.0
C83 C 0.5729 0.8548 0.77463 0.0
O84 O 0.54095 0.83714 0.9359 0.0
O85 O 0.58007 0.85867 0.95327 0.0
O86 O 0.58994 0.86881 0.81418 0.0
O87 O 0.55184 0.85232 0.78706 0.0
C88 C 0.52251 0.87825 0.85704 0.0
O89 O 0.59575 0.91511 0.88528 0.0
O90 O 0.57182 0.90032 0.96785 0.0
In91 In 0.69032 0.56054 0.05159 0.0
O92 O 0.66253 0.51926 0.06604 0.0
O93 O 0.65553 0.53812 0.98869 0.0
C94 C 0.71763 0.55456 0.1448 0.0
C95 C 0.67038 0.58688 0.10467 0.0
C96 C 0.72365 0.57595 0.95105 0.0
O97 O 0.70702 0.53878 0.09956 0.0
O98 O 0.71424 0.57303 0.14301 0.0
O99 O 0.70129 0.55867 0.94557 0.0
O100 O 0.72879 0.58685 0.00576 0.0
C101 C 0.64832 0.51796 0.01981 0.0
O102 O 0.68496 0.59517 0.05598 0.0
O103 O 0.66601 0.56582 0.1245 0.0
In104 In 0.12912 0.6866 0.21957 0.0
O105 O 0.08806 0.67764 0.21475 0.0
O106 O 0.10284 0.6745 0.30599 0.0
C107 C 0.15382 0.71467 0.11398 0.0
C108 C 0.12536 0.64192 0.19677 0.0
C109 C 0.16066 0.71934 0.30766 0.0
O110 O 0.1346 0.71443 0.13632 0.0
O111 O 0.15914 0.69982 0.14219 0.0
O112 O 0.15773 0.69773 0.301 0.0
O113 O 0.14729 0.72423 0.27069 0.0
C114 C 0.08422 0.67235 0.27513 0.0
O115 O 0.14046 0.65751 0.23757 0.0
O116 O 0.11186 0.6488 0.16697 0.0
In117 In 0.44413 0.1311 0.39269 0.0
O118 O 0.4853 0.14508 0.40835 0.0
O119 O 0.46548 0.11369 0.34535 0.0
C120 C 0.44611 0.16381 0.48248 0.0
C121 C 0.41519 0.08579 0.44824 0.0
C122 C 0.43436 0.15139 0.28622 0.0
O123 O 0.46549 0.16474 0.45954 0.0
O124 O 0.42579 0.14631 0.46039 0.0
O125 O 0.41734 0.13652 0.32431 0.0
O126 O 0.4556 0.15445 0.29927 0.0
C127 C 0.48606 0.12896 0.372 0.0
O128 O 0.41348 0.0896 0.38802 0.0
O129 O 0.43133 0.10463 0.47919 0.0
In130 In 0.31456 0.44483 0.57098 0.0
O131 O 0.34549 0.48463 0.59067 0.0
O132 O 0.3504 0.46568 0.51022 0.0
C133 C 0.28495 0.45018 0.65752 0.0
C134 C 0.3271 0.41262 0.6265 0.0
C135 C 0.28405 0.43681 0.46713 0.0
O136 O 0.30808 0.46556 0.65389 0.0
O137 O 0.27691 0.432 0.61835 0.0
O138 O 0.28359 0.41903 0.49893 0.0
O139 O 0.30078 0.45824 0.48531 0.0
C140 C 0.35921 0.48544 0.544 0.0
O141 O 0.32558 0.41419 0.56514 0.0
O142 O 0.32178 0.42666 0.65864 0.0
In143 In 0.87487 0.3142 0.72429 0.0
O144 O 0.86888 0.34669 0.74868 0.0
O145 O 0.89069 0.35017 0.66441 0.0
C146 C 0.83955 0.28233 0.80708 0.0
C147 C 0.91937 0.32843 0.7824 0.0
C148 C 0.85344 0.28509 0.61748 0.0
O149 O 0.83862 0.30039 0.78125 0.0
O150 O 0.85852 0.28078 0.79236 0.0
O151 O 0.86946 0.28312 0.65158 0.0
O152 O 0.84979 0.30254 0.63487 0.0
C153 C 0.88131 0.35995 0.70065 0.0
O154 O 0.91535 0.32147 0.72309 0.0
O155 O 0.90113 0.32804 0.81102 0.0
H156 H 0.17516 0.46297 0.2791 0.0
H157 H 0.15879 0.39272 0.19202 0.0
H158 H 0.2073 0.46243 0.3468 0.0
H159 H 0.19144 0.39237 0.2593 0.0
H160 H 0.24048 0.39371 0.43686 0.0
H161 H 0.20558 0.38997 0.37104 0.0
H162 H 0.24855 0.46859 0.3248 0.0
H163 H 0.283 0.47236 0.39102 0.0
C164 C 0.17818 0.4472 0.2751 0.0
C165 C 0.16447 0.42794 0.22999 0.0
C166 C 0.19683 0.44702 0.31341 0.0
C167 C 0.20236 0.42763 0.30751 0.0
C168 C 0.18768 0.4076 0.26507 0.0
C169 C 0.16893 0.40777 0.22663 0.0
C170 C 0.24256 0.41007 0.41174 0.0
C171 C 0.26446 0.43336 0.41941 0.0
C172 C 0.22255 0.40794 0.37414 0.0
C173 C 0.22405 0.42908 0.34365 0.0
C174 C 0.24646 0.45206 0.349 0.0
C175 C 0.26635 0.45418 0.38643 0.0
H176 H 0.84945 0.23983 0.58627 0.0
H177 H 0.82108 0.28881 0.53516 0.0
H178 H 0.81964 0.20828 0.50966 0.0
H179 H 0.79136 0.25755 0.46054 0.0
H180 H 0.75697 0.20919 0.28697 0.0
H181 H 0.79035 0.23843 0.35746 0.0
H182 H 0.77342 0.17934 0.49631 0.0
H183 H 0.73988 0.14948 0.42381 0.0
C184 C 0.83712 0.24399 0.55811 0.0
C185 C 0.83777 0.26691 0.56635 0.0
C186 C 0.81987 0.22583 0.51487 0.0
C187 C 0.80312 0.23037 0.47877 0.0
C188 C 0.8042 0.2535 0.48657 0.0
C189 C 0.82126 0.27148 0.5296 0.0
C190 C 0.76031 0.20227 0.33238 0.0
C191 C 0.7455 0.17703 0.3502 0.0
C192 C 0.77949 0.21913 0.37298 0.0
C193 C 0.78436 0.21138 0.43312 0.0
C194 C 0.77019 0.1859 0.45018 0.0
C195 C 0.75091 0.16884 0.40896 0.0
H196 H 0.58996 0.73733 0.58961 0.0
H197 H 0.55519 0.75992 0.44205 0.0
H198 H 0.59465 0.77162 0.66049 0.0
H199 H 0.56055 0.7942 0.51075 0.0
H200 H 0.53932 0.82684 0.68125 0.0
H201 H 0.54068 0.79692 0.60728 0.0
H202 H 0.6144 0.81735 0.67797 0.0
H203 H 0.6127 0.84725 0.75406 0.0
C204 C 0.58364 0.74977 0.57205 0.0
C205 C 0.5718 0.74565 0.51082 0.0
C206 C 0.58644 0.76949 0.61236 0.0
C207 C 0.57761 0.78548 0.59178 0.0
C208 C 0.56697 0.78193 0.52908 0.0
C209 C 0.56396 0.76225 0.4895 0.0
C210 C 0.55602 0.82529 0.6805 0.0
C211 C 0.57595 0.83955 0.72332 0.0
C212 C 0.55685 0.80812 0.6378 0.0
C213 C 0.5777 0.80469 0.63632 0.0
C214 C 0.59798 0.81936 0.67819 0.0
C215 C 0.59714 0.8367 0.72116 0.0
H216 H 0.80465 0.52934 0.71188 0.0
H217 H 0.85588 0.60895 0.71109 0.0
H218 H 0.77563 0.53543 0.77862 0.0
H219 H 0.82646 0.6151 0.7784 0.0
H220 H 0.77449 0.6062 0.9608 0.0
H221 H 0.80626 0.60569 0.89028 0.0
H222 H 0.74824 0.55325 0.76142 0.0
H223 H 0.71662 0.55354 0.83191 0.0
C224 C 0.80983 0.54818 0.72638 0.0
C225 C 0.83258 0.56867 0.70596 0.0
C226 C 0.79303 0.55169 0.76418 0.0
C227 C 0.79849 0.57579 0.78286 0.0
C228 C 0.82168 0.5963 0.76465 0.0
C229 C 0.83853 0.59278 0.72626 0.0
C230 C 0.76858 0.59501 0.91661 0.0
C231 C 0.74301 0.57975 0.90223 0.0
C232 C 0.78679 0.5947 0.87625 0.0
C233 C 0.77975 0.57905 0.82094 0.0
C234 C 0.75426 0.56507 0.80449 0.0
C235 C 0.73612 0.56541 0.8446 0.0
H236 H 0.25784 0.85142 0.90418 0.0
H237 H 0.26667 0.79266 0.81702 0.0
H238 H 0.22447 0.82041 0.97454 0.0
H239 H 0.23315 0.76198 0.8842 0.0
H240 H 0.19589 0.71767 0.06507 0.0
H241 H 0.22679 0.74924 0.99396 0.0
H242 H 0.18185 0.78462 0.97859 0.0
H243 H 0.15093 0.75303 0.05289 0.0
C244 C 0.25265 0.83195 0.89999 0.0
C245 C 0.2652 0.82458 0.85583 0.0
C246 C 0.23338 0.81414 0.93976 0.0
C247 C 0.22622 0.78864 0.93567 0.0
C248 C 0.23849 0.78144 0.89017 0.0
C249 C 0.25776 0.79911 0.85132 0.0
C250 C 0.19236 0.73199 0.04617 0.0
C251 C 0.17081 0.73269 0.06437 0.0
C252 C 0.21013 0.75014 0.00497 0.0
C253 C 0.20685 0.7695 0.97989 0.0
C254 C 0.18511 0.77012 0.9974 0.0
C255 C 0.16725 0.75188 0.03929 0.0
H256 H 0.4691 0.18488 0.20243 0.0
H257 H 0.39214 0.15426 0.26102 0.0
H258 H 0.46623 0.21595 0.13574 0.0
H259 H 0.3893 0.1857 0.19396 0.0
H260 H 0.39348 0.23571 0.01177 0.0
H261 H 0.39148 0.20158 0.07776 0.0
H262 H 0.46282 0.25303 0.16434 0.0
H263 H 0.46489 0.28685 0.09865 0.0
C264 C 0.45143 0.18454 0.20034 0.0
C265 C 0.43089 0.16717 0.23736 0.0
C266 C 0.44985 0.20253 0.16255 0.0
C267 C 0.42769 0.20363 0.16061 0.0
C268 C 0.40665 0.18537 0.1946 0.0
C269 C 0.40826 0.16735 0.23285 0.0
C270 C 0.40847 0.23977 0.04587 0.0
C271 C 0.42942 0.26396 0.04969 0.0
C272 C 0.40735 0.22022 0.08351 0.0
C273 C 0.42723 0.2245 0.12528 0.0
C274 C 0.44748 0.24898 0.13146 0.0
C275 C 0.44856 0.26843 0.09421 0.0
H276 H 0.16451 0.53055 0.0947 0.0
H277 H 0.08609 0.48604 0.14189 0.0
H278 H 0.16316 0.56853 0.118 0.0
H279 H 0.08474 0.52429 0.16499 0.0
H280 H 0.09091 0.6023 0.12395 0.0
H281 H 0.09019 0.56294 0.10192 0.0
H282 H 0.15669 0.58814 0.21928 0.0
H283 H 0.15739 0.62722 0.24148 0.0
C284 C 0.14697 0.52889 0.11007 0.0
C285 C 0.12542 0.50534 0.11672 0.0
C286 C 0.14623 0.55063 0.12363 0.0
C287 C 0.12386 0.54933 0.14348 0.0
C288 C 0.10219 0.5258 0.14941 0.0
C289 C 0.103 0.50396 0.13658 0.0
C290 C 0.1053 0.59934 0.14513 0.0
C291 C 0.12425 0.61784 0.18422 0.0
C292 C 0.10481 0.57681 0.13282 0.0
C293 C 0.12346 0.57258 0.15868 0.0
C294 C 0.14224 0.59102 0.19816 0.0
C295 C 0.14256 0.61334 0.21106 0.0
H296 H 0.60826 0.09631 0.33936 0.0
H297 H 0.63331 0.16728 0.24391 0.0
H298 H 0.56875 0.09446 0.36777 0.0
H299 H 0.59424 0.16561 0.27321 0.0
H300 H 0.5332 0.16541 0.40228 0.0
H301 H 0.57226 0.16574 0.38185 0.0
H302 H 0.5311 0.09193 0.29761 0.0
H303 H 0.4918 0.09167 0.31717 0.0
C304 C 0.60544 0.1116 0.32521 0.0
C305 C 0.62382 0.13196 0.28957 0.0
C306 C 0.58283 0.11046 0.34101 0.0
C307 C 0.57853 0.1299 0.32262 0.0
C308 C 0.59717 0.15047 0.28832 0.0
C309 C 0.61948 0.15138 0.27147 0.0
C310 C 0.53244 0.1492 0.37957 0.0
C311 C 0.50947 0.12855 0.36097 0.0
C312 C 0.55479 0.14943 0.36784 0.0
C313 C 0.55464 0.12887 0.33821 0.0
C314 C 0.53166 0.10794 0.32096 0.0
C315 C 0.50925 0.10787 0.33174 0.0
H316 H 0.38408 0.5273 0.6191 0.0
H317 H 0.38886 0.49469 0.43643 0.0
H318 H 0.42288 0.56564 0.59313 0.0
H319 H 0.42771 0.5331 0.41046 0.0
H320 H 0.47464 0.6163 0.35305 0.0
H321 H 0.43806 0.57688 0.38333 0.0
H322 H 0.46918 0.58204 0.57597 0.0
H323 H 0.50611 0.62176 0.54548 0.0
C324 C 0.39351 0.52828 0.57357 0.0
C325 C 0.38338 0.50807 0.52956 0.0
C326 C 0.4158 0.55017 0.55895 0.0
C327 C 0.42826 0.55239 0.4997 0.0
C328 C 0.41836 0.53199 0.45623 0.0
C329 C 0.39619 0.50999 0.47117 0.0
C330 C 0.47372 0.60909 0.40195 0.0
C331 C 0.49323 0.62215 0.44699 0.0
C332 C 0.45284 0.58639 0.41906 0.0
C333 C 0.45084 0.5763 0.48183 0.0
C334 C 0.47022 0.58945 0.52728 0.0
C335 C 0.49133 0.61212 0.50985 0.0
H336 H 0.89615 0.50853 0.70556 0.0
H337 H 0.86663 0.47685 0.51534 0.0
H338 H 0.89935 0.47166 0.73322 0.0
H339 H 0.86984 0.44019 0.54288 0.0
H340 H 0.90066 0.38872 0.59119 0.0
H341 H 0.90224 0.42815 0.56576 0.0
H342 H 0.86898 0.42603 0.75327 0.0
H343 H 0.8674 0.38667 0.77873 0.0
C344 C 0.89047 0.49376 0.66962 0.0
C345 C 0.88108 0.49552 0.6084 0.0
C346 C 0.89222 0.47265 0.68551 0.0
C347 C 0.88488 0.45306 0.64015 0.0
C348 C 0.87591 0.45509 0.57855 0.0
C349 C 0.87392 0.47602 0.56298 0.0
C350 C 0.89387 0.39679 0.62715 0.0
C351 C 0.88379 0.38456 0.68679 0.0
C352 C 0.89468 0.41929 0.61249 0.0
C353 C 0.88566 0.43013 0.65746 0.0
C354 C 0.87626 0.41825 0.7179 0.0
C355 C 0.87523 0.39564 0.73228 0.0
H356 H 0.38776 0.89084 0.86659 0.0
H357 H 0.39068 0.86439 0.67279 0.0
H358 H 0.42761 0.8934 0.89348 0.0
H359 H 0.43037 0.86701 0.69956 0.0
H360 H 0.51305 0.89877 0.75001 0.0
H361 H 0.47482 0.89977 0.72546 0.0
H362 H 0.44278 0.86246 0.90846 0.0
H363 H 0.48092 0.8614 0.93298 0.0
C364 C 0.39695 0.88567 0.82975 0.0
C365 C 0.3861 0.87736 0.76769 0.0
C366 C 0.41968 0.88705 0.84519 0.0
C367 C 0.4321 0.88046 0.79853 0.0
C368 C 0.42138 0.87249 0.73623 0.0
C369 C 0.39856 0.87083 0.7211 0.0
C370 C 0.49789 0.89091 0.78511 0.0
C371 C 0.49991 0.87991 0.84325 0.0
C372 C 0.476 0.8914 0.77095 0.0
C373 C 0.45582 0.88115 0.81502 0.0
C374 C 0.4581 0.87069 0.87387 0.0
C375 C 0.47987 0.86995 0.88768 0.0
H376 H 0.49964 0.3875 0.03718 0.0
H377 H 0.52611 0.3849 0.84324 0.0
H378 H 0.53888 0.42612 0.05964 0.0
H379 H 0.56516 0.42356 0.86555 0.0
H380 H 0.61875 0.50776 0.91155 0.0
H381 H 0.57921 0.46959 0.88824 0.0
H382 H 0.58491 0.43798 0.07156 0.0
H383 H 0.6245 0.47597 0.09463 0.0
C384 C 0.51378 0.39525 -0.00068 0.0
C385 C 0.50985 0.3832 0.93852 0.0
C386 C 0.53625 0.41724 0.01227 0.0
C387 C 0.55503 0.42779 0.96431 0.0
C388 C 0.55092 0.41593 0.90319 0.0
C389 C 0.52863 0.39376 0.89059 0.0
C390 C 0.61157 0.49263 0.94673 0.0
C391 C 0.6247 0.4948 0.00483 0.0
C392 C 0.58901 0.47079 0.93332 0.0
C393 C 0.57899 0.4509 0.97824 0.0
C394 C 0.5921 0.45313 0.03641 0.0
C395 C 0.61482 0.47479 0.04936 0.0
H396 H 0.29823 0.47742 0.77024 0.0
H397 H 0.23461 0.42939 0.64936 0.0
H398 H 0.27023 0.48024 0.85045 0.0
H399 H 0.20682 0.43277 0.7287 0.0
H400 H 0.17069 0.46732 0.8619 0.0
H401 H 0.2012 0.47043 0.78018 0.0
H402 H 0.23329 0.44276 0.92198 0.0
H403 H 0.20253 0.43904 0.00306 0.0
C404 C 0.27833 0.46774 0.76058 0.0
C405 C 0.26848 0.45306 0.70409 0.0
C406 C 0.2624 0.46935 0.80628 0.0
C407 C 0.23653 0.45679 0.79521 0.0
C408 C 0.22677 0.44276 0.73777 0.0
C409 C 0.24261 0.4407 0.69282 0.0
C410 C 0.18442 0.46213 0.8756 0.0
C411 C 0.18426 0.45282 0.9384 0.0
C412 C 0.20175 0.46386 0.82902 0.0
C413 C 0.21947 0.45688 0.84527 0.0
C414 C 0.21987 0.44842 0.90873 0.0
C415 C 0.20223 0.44617 0.95479 0.0
H416 H 0.71434 0.20041 0.06989 0.0
H417 H 0.7413 0.14944 0.02942 0.0
H418 H 0.74475 0.23049 0.99378 0.0
H419 H 0.77093 0.17894 0.95055 0.0
H420 H 0.84193 0.24869 0.88776 0.0
H421 H 0.80874 0.21716 0.95522 0.0
H422 H 0.75831 0.24148 0.88489 0.0
H423 H 0.79206 0.27388 0.81987 0.0
C424 C 0.72636 0.1954 0.04333 0.0
C425 C 0.72565 0.17273 0.05579 0.0
C426 C 0.74376 0.21261 -0.0005 0.0
C427 C 0.76055 0.20731 0.96656 0.0
C428 C 0.75875 0.18393 0.97636 0.0
C429 C 0.74162 0.1669 0.02099 0.0
C430 C 0.82376 0.24732 0.88701 0.0
C431 C 0.81953 0.26373 0.84894 0.0
C432 C 0.80463 0.22907 0.92509 0.0
C433 C 0.78071 0.22657 0.92508 0.0
C434 C 0.77655 0.24305 0.88673 0.0
C435 C 0.79584 0.26158 0.84938 0.0
H436 H 0.51618 0.71596 0.23498 0.0
H437 H 0.59379 0.74141 0.19365 0.0
H438 H 0.51685 0.74606 0.15709 0.0
H439 H 0.59426 0.77087 0.11347 0.0
H440 H 0.59574 0.84192 0.04725 0.0
H441 H 0.59401 0.80915 0.11682 0.0
H442 H 0.51959 0.75804 0.0455 0.0
H443 H 0.52102 0.79128 0.9779 0.0
C444 C 0.53323 0.72764 0.20809 0.0
C445 C 0.55499 0.72653 0.22059 0.0
C446 C 0.53361 0.74484 0.16323 0.0
C447 C 0.55569 0.76107 0.12948 0.0
C448 C 0.57711 0.75904 0.13976 0.0
C449 C 0.5768 0.74203 0.1852 0.0
C450 C 0.579 0.82368 0.04663 0.0
C451 C 0.55847 0.81911 0.00752 0.0
C452 C 0.57809 0.80482 0.08596 0.0
C453 C 0.55673 0.78088 0.08638 0.0
C454 C 0.53621 0.77633 0.04692 0.0
C455 C 0.53703 0.79532 0.00811 0.0
H456 H 0.83965 0.59322 0.4092 0.0
H457 H 0.7997 0.51256 0.4171 0.0
H458 H 0.80921 0.59197 0.33153 0.0
H459 H 0.7687 0.51128 0.34038 0.0
H460 H 0.73418 0.52103 0.1484 0.0
H461 H 0.76366 0.52 0.22649 0.0
H462 H 0.76621 0.58191 0.33175 0.0
H463 H 0.73744 0.58336 0.25296 0.0
C464 C 0.8243 0.57521 0.39441 0.0
C465 C 0.82198 0.55299 0.41926 0.0
C466 C 0.80675 0.57449 0.35027 0.0
C467 C 0.78639 0.55152 0.33033 0.0
C468 C 0.78427 0.52925 0.35447 0.0
C469 C 0.80194 0.52998 0.39854 0.0
C470 C 0.74096 0.53428 0.18854 0.0
C471 C 0.73373 0.55241 0.19443 0.0
C472 C 0.75775 0.53363 0.23334 0.0
C473 C 0.76747 0.55105 0.28485 0.0
C474 C 0.7595 0.5686 0.29176 0.0
C475 C 0.74289 0.56933 0.24689 0.0
H476 H 0.17223 0.76767 0.32447 0.0
H477 H 0.19042 0.71263 0.39385 0.0
H478 H 0.20368 0.79871 0.39755 0.0
H479 H 0.22145 0.74348 0.46798 0.0
H480 H 0.24178 0.83758 0.59071 0.0
H481 H 0.21106 0.80774 0.51416 0.0
H482 H 0.262 0.78166 0.46317 0.0
H483 H 0.2925 0.81113 0.54089 0.0
C484 C 0.18283 0.76218 0.35572 0.0
C485 C 0.17892 0.73778 0.35359 0.0
C486 C 0.20076 0.77991 0.39766 0.0
C487 C 0.21508 0.77354 0.4383 0.0
C488 C 0.21099 0.74904 0.43645 0.0
C489 C 0.1931 0.73134 0.39442 0.0
C490 C 0.24646 0.82558 0.5628 0.0
C491 C 0.26946 0.82657 0.57181 0.0
C492 C 0.22892 0.80857 0.51881 0.0
C493 C 0.23408 0.79229 0.48294 0.0
C494 C 0.25734 0.7937 0.49095 0.0
C495 C 0.27486 0.81068 0.53505 0.0
H496 H 0.48321 0.27299 0.79436 0.0
H497 H 0.41411 0.26196 0.71133 0.0
H498 H 0.48332 0.24322 0.71592 0.0
H499 H 0.41465 0.23304 0.63147 0.0
H500 H 0.40716 0.16179 0.54933 0.0
H501 H 0.40837 0.19181 0.62838 0.0
H502 H 0.48829 0.23717 0.60195 0.0
H503 H 0.48712 0.20653 0.5245 0.0
C504 C 0.46823 0.2644 0.7588 0.0
C505 C 0.44858 0.2696 0.75903 0.0
C506 C 0.46833 0.24746 0.71372 0.0
C507 C 0.4489 0.23562 0.66773 0.0
C508 C 0.4296 0.24139 0.66715 0.0
C509 C 0.42937 0.25808 0.71259 0.0
C510 C 0.42498 0.17814 0.56058 0.0
C511 C 0.44704 0.18189 0.53082 0.0
C512 C 0.42568 0.19545 0.60551 0.0
C513 C 0.44841 0.217 0.6211 0.0
C514 C 0.47052 0.22063 0.59156 0.0
C515 C 0.46985 0.20317 0.54698 0.0
H516 H 0.04019 0.37465 0.06857 0.0
H517 H 0.07605 0.40741 0.88463 0.0
H518 H 0.99995 0.35185 0.01224 0.0
H519 H 0.036 0.38542 0.82884 0.0
H520 H 0.96214 0.33079 0.73496 0.0
H521 H 0.00211 0.34644 0.79194 0.0
H522 H 0.97091 0.3617 0.96329 0.0
H523 H 0.93112 0.3455 0.90733 0.0
C524 C 0.0395 0.37684 0.01611 0.0
C525 C 0.06127 0.39292 0.98118 0.0
C526 C 0.01643 0.36392 0.9838 0.0
C527 C 0.01462 0.3669 0.91589 0.0
C528 C 0.03662 0.38236 0.88086 0.0
C529 C 0.05962 0.39515 0.91305 0.0
C530 C 0.96385 0.33732 0.78496 0.0
C531 C 0.9435 0.33699 0.81649 0.0
C532 C 0.98676 0.34639 0.8176 0.0
C533 C 0.98982 0.35537 0.8824 0.0
C534 C 0.96924 0.35457 0.91399 0.0
C535 C 0.94641 0.34546 0.88156 0.0
H536 H 0.57505 0.93205 0.05187 0.0
H537 H 0.63566 0.96042 0.91245 0.0
H538 H 0.59531 0.97189 0.10922 0.0
H539 H 0.65629 1.00061 0.97129 0.0
H540 H 0.69221 0.05844 0.15015 0.0
H541 H 0.67491 0.01802 0.09317 0.0
H542 H 0.60446 0.01596 0.07128 0.0
H543 H 0.62165 0.05615 0.12672 0.0
C544 C 0.59283 0.94676 0.03367 0.0
C545 C 0.6037 0.94313 0.97735 0.0
C546 C 0.60439 0.96959 0.06657 0.0
C547 C 0.62731 0.98931 0.04464 0.0
C548 C 0.63865 0.98561 0.98935 0.0
C549 C 0.62682 0.96274 0.95555 0.0
C550 C 0.673 0.04921 0.13342 0.0
C551 C 0.65823 0.06036 0.14313 0.0
C552 C 0.66321 0.02627 0.10041 0.0
C553 C 0.63837 0.01393 0.07788 0.0
C554 C 0.62362 0.025 0.08843 0.0
C555 C 0.63348 0.048 0.12018 0.0
H556 H 0.63381 0.56799 0.19579 0.0
H557 H 0.68167 0.63586 0.08944 0.0
H558 H 0.61495 0.58882 0.253 0.0
H559 H 0.66248 0.65696 0.14763 0.0
H560 H 0.63538 0.68784 0.32563 0.0
H561 H 0.65777 0.66991 0.268 0.0
H562 H 0.58721 0.60537 0.21626 0.0
H563 H 0.5651 0.62299 0.27306 0.0
C564 C 0.64032 0.58742 0.18454 0.0
C565 C 0.65913 0.60024 0.13768 0.0
C566 C 0.62945 0.59934 0.21737 0.0
C567 C 0.63716 0.62448 0.20465 0.0
C568 C 0.65629 0.63758 0.1586 0.0
C569 C 0.66709 0.62548 0.12497 0.0
C570 C 0.62476 0.66977 0.30221 0.0
C571 C 0.5985 0.65674 0.30428 0.0
C572 C 0.63753 0.65965 0.26878 0.0
C573 C 0.62421 0.63622 0.2378 0.0
C574 C 0.598 0.62332 0.24019 0.0
C575 C 0.58534 0.63346 0.27276 0.0
H576 H 0.03955 0.66279 0.22081 0.0
H577 H 0.07374 0.66128 0.40401 0.0
H578 H 0.999 0.64517 0.27572 0.0
H579 H 0.03346 0.64326 0.45822 0.0
H580 H 0.96029 0.62594 0.55169 0.0
H581 H 1.00047 0.65007 0.49581 0.0
H582 H 0.96891 0.60542 0.3216 0.0
H583 H 0.9289 0.58191 0.37665 0.0
C584 C 0.03843 0.65884 0.27277 0.0
C585 C 0.05981 0.6633 0.30792 0.0
C586 C 0.0152 0.64862 0.30423 0.0
C587 C 0.0129 0.64269 0.37148 0.0
C588 C 0.03451 0.64788 0.40673 0.0
C589 C 0.05762 0.65805 0.3754 0.0
C590 C 0.96195 0.62147 0.50132 0.0
C591 C 0.94147 0.60194 0.46877 0.0
C592 C 0.98498 0.63521 0.46932 0.0
C593 C 0.98799 0.62968 0.4041 0.0
C594 C 0.96726 0.61049 0.37135 0.0
C595 C 0.94433 0.59683 0.40323 0.0
H596 H 0.41619 0.0748 0.57686 0.0
H597 H 0.38025 0.04138 0.39324 0.0
H598 H 0.39379 0.03421 0.6301 0.0
H599 H 0.35731 1.00065 0.44697 0.0
H600 H 0.35081 0.9303 0.54309 0.0
H601 H 0.36779 0.97082 0.49102 0.0
H602 H 0.35331 1.00058 0.66646 0.0
H603 H 0.33657 0.95969 0.71951 0.0
C604 C 0.40327 0.05879 0.54796 0.0
C605 C 0.40016 0.06125 0.48064 0.0
C606 C 0.39025 0.03552 0.57871 0.0
C607 C 0.37379 0.01411 0.54289 0.0
C608 C 0.37012 0.01671 0.47585 0.0
C609 C 0.38317 0.04004 0.44505 0.0
C610 C 0.3511 0.94541 0.57066 0.0
C611 C 0.34246 0.94181 0.63565 0.0
C612 C 0.36066 0.96865 0.54045 0.0
C613 C 0.36187 0.989 0.57434 0.0
C614 C 0.35285 0.98534 0.63914 0.0
C615 C 0.34317 0.96193 0.66949 0.0
H616 H 0.34287 0.38273 0.56941 0.0
H617 H 0.33221 0.40807 0.75733 0.0
H618 H 0.36167 0.36088 0.62389 0.0
H619 H 0.35153 0.38693 0.81152 0.0
H620 H 0.37348 0.33223 0.89586 0.0
H621 H 0.3487 0.34782 0.84088 0.0
H622 H 0.40042 0.37303 0.6785 0.0
H623 H 0.42456 0.35705 0.73229 0.0
C624 C 0.34436 0.38346 0.62232 0.0
C625 C 0.33621 0.39725 0.65896 0.0
C626 C 0.35528 0.3711 0.6536 0.0
C627 C 0.35837 0.37233 0.72218 0.0
C628 C 0.34928 0.38534 0.75882 0.0
C629 C 0.33833 0.39762 0.72761 0.0
C630 C 0.37944 0.34106 0.84838 0.0
C631 C 0.40098 0.34344 0.81854 0.0
C632 C 0.3653 0.35004 0.81688 0.0
C633 C 0.37245 0.36158 0.75494 0.0
C634 C 0.39399 0.36382 0.72538 0.0
C635 C 0.40802 0.35485 0.75666 0.0
loop_
_geom_bond_atom_site_label_1
_geom_bond_atom_site_label_2
_geom_bond_distance
_geom_bond_site_symmetry_2
_ccdc_geom_bond_type
In0 O1 2.294 . S
In0 O2 2.326 1_554 S
In0 O6 2.266 . S
In0 O7 2.326 . S
In0 O8 2.266 1_554 S
In0 O9 2.326 . S
In0 O11 2.294 . S
In0 O12 2.326 . S
O1 In0 2.294 . S
O1 C10 1.240 . S
O2 In0 2.326 1_556 S
O2 C10 1.252 1_556 S
C3 O6 1.252 . S
C3 O7 1.260 . S
C4 O11 1.240 . S
C4 O12 1.252 . S
C5 O8 1.252 . S
C5 O9 1.260 1_556 S
O6 In0 2.266 . S
O6 C3 1.252 . S
O7 In0 2.326 . S
O7 C3 1.260 . S
O8 In0 2.266 1_556 S
O8 C5 1.252 . S
O9 In0 2.326 . S
O9 C5 1.260 1_554 S
C10 O1 1.240 . S
C10 O2 1.252 1_554 S
O11 In0 2.294 . S
O11 C4 1.240 . S
O12 In0 2.326 . S
O12 C4 1.252 . S
In13 O14 2.294 . S
In13 O15 2.326 . S
In13 O19 2.266 . S
In13 O20 2.326 . S
In13 O21 2.266 . S
In13 O22 2.326 . S
In13 O24 2.294 . S
In13 O25 2.326 . S
O14 In13 2.294 . S
O14 C23 1.240 . S
O15 In13 2.326 . S
O15 C23 1.252 . S
C16 O19 1.252 . S
C16 O20 1.260 . S
C17 O24 1.240 . S
C17 O25 1.252 . S
C18 O21 1.252 . S
C18 O22 1.260 . S
O19 In13 2.266 . S
O19 C16 1.252 . S
O20 In13 2.326 . S
O20 C16 1.260 . S
O21 In13 2.266 . S
O21 C18 1.252 . S
O22 In13 2.326 . S
O22 C18 1.260 . S
C23 O14 1.240 . S
C23 O15 1.252 . S
O24 In13 2.294 . S
O24 C17 1.240 . S
O25 In13 2.326 . S
O25 C17 1.252 . S
In26 O27 2.294 . S
In26 O28 2.326 . S
In26 O32 2.266 . S
In26 O33 2.326 . S
In26 O34 2.266 . S
In26 O35 2.326 . S
In26 O37 2.294 . S
In26 O38 2.326 . S
O27 In26 2.294 . S
O27 C36 1.240 . S
O28 In26 2.326 . S
O28 C36 1.252 . S
C29 O32 1.252 . S
C29 O33 1.260 . S
C30 O37 1.240 . S
C30 O38 1.252 . S
C31 O34 1.252 . S
C31 O35 1.260 . S
O32 In26 2.266 . S
O32 C29 1.252 . S
O33 In26 2.326 . S
O33 C29 1.260 . S
O34 In26 2.266 . S
O34 C31 1.252 . S
O35 In26 2.326 . S
O35 C31 1.260 . S
C36 O27 1.240 . S
C36 O28 1.252 . S
O37 In26 2.294 . S
O37 C30 1.240 . S
O38 In26 2.326 . S
O38 C30 1.252 . S
In39 O40 2.294 . S
In39 O41 2.326 . S
In39 O45 2.266 . S
In39 O46 2.326 . S
In39 O47 2.266 . S
In39 O48 2.326 . S
In39 O50 2.294 . S
In39 O51 2.326 . S
O40 In39 2.294 . S
O40 C49 1.240 . S
O41 In39 2.326 . S
O41 C49 1.252 . S
C42 O45 1.252 . S
C42 O46 1.260 . S
C43 O50 1.240 . S
C43 O51 1.252 . S
C44 O47 1.252 . S
C44 O48 1.260 . S
O45 In39 2.266 . S
O45 C42 1.252 . S
O46 In39 2.326 . S
O46 C42 1.260 . S
O47 In39 2.266 . S
O47 C44 1.252 . S
O48 In39 2.326 . S
O48 C44 1.260 . S
C49 O40 1.240 . S
C49 O41 1.252 . S
O50 In39 2.294 . S
O50 C43 1.240 . S
O51 In39 2.326 . S
O51 C43 1.252 . S
In52 O53 2.294 . S
In52 O54 2.326 . S
In52 O58 2.266 . S
In52 O59 2.326 . S
In52 O60 2.266 . S
In52 O61 2.326 . S
In52 O63 2.294 . S
In52 O64 2.326 . S
O53 In52 2.294 . S
O53 C62 1.240 . S
O54 In52 2.326 . S
O54 C62 1.252 . S
C55 O58 1.252 . S
C55 O59 1.260 . S
C56 O63 1.240 . S
C56 O64 1.252 . S
C57 O60 1.252 . S
C57 O61 1.260 . S
O58 In52 2.266 . S
O58 C55 1.252 . S
O59 In52 2.326 . S
O59 C55 1.260 . S
O60 In52 2.266 . S
O60 C57 1.252 . S
O61 In52 2.326 . S
O61 C57 1.260 . S
C62 O53 1.240 . S
C62 O54 1.252 . S
O63 In52 2.294 . S
O63 C56 1.240 . S
O64 In52 2.326 . S
O64 C56 1.252 . S
In65 O66 2.294 . S
In65 O67 2.326 . S
In65 O71 2.266 . S
In65 O72 2.326 . S
In65 O73 2.266 . S
In65 O74 2.326 . S
In65 O76 2.294 . S
In65 O77 2.326 . S
O66 In65 2.294 . S
O66 C75 1.240 . S
O67 In65 2.326 . S
O67 C75 1.252 . S
C68 O71 1.252 . S
C68 O72 1.260 . S
C69 O76 1.240 . S
C69 O77 1.252 . S
C70 O73 1.252 . S
C70 O74 1.260 . S
O71 In65 2.266 . S
O71 C68 1.252 . S
O72 In65 2.326 . S
O72 C68 1.260 . S
O73 In65 2.266 . S
O73 C70 1.252 . S
O74 In65 2.326 . S
O74 C70 1.260 . S
C75 O66 1.240 . S
C75 O67 1.252 . S
O76 In65 2.294 . S
O76 C69 1.240 . S
O77 In65 2.326 . S
O77 C69 1.252 . S
In78 O79 2.294 . S
In78 O80 2.326 . S
In78 O84 2.266 . S
In78 O85 2.326 . S
In78 O86 2.266 . S
In78 O87 2.326 . S
In78 O89 2.294 . S
In78 O90 2.326 . S
O79 In78 2.294 . S
O79 C88 1.240 . S
O80 In78 2.326 . S
O80 C88 1.252 . S
C81 O84 1.252 . S
C81 O85 1.260 . S
C82 O89 1.240 . S
C82 O90 1.252 . S
C83 O86 1.252 . S
C83 O87 1.260 . S
O84 In78 2.266 . S
O84 C81 1.252 . S
O85 In78 2.326 . S
O85 C81 1.260 . S
O86 In78 2.266 . S
O86 C83 1.252 . S
O87 In78 2.326 . S
O87 C83 1.260 . S
C88 O79 1.240 . S
C88 O80 1.252 . S
O89 In78 2.294 . S
O89 C82 1.240 . S
O90 In78 2.326 . S
O90 C82 1.252 . S
In91 O92 2.294 . S
In91 O93 2.326 1_554 S
In91 O97 2.266 . S
In91 O98 2.326 . S
In91 O99 2.266 1_554 S
In91 O100 2.326 1_554 S
In91 O102 2.294 . S
In91 O103 2.326 . S
O92 In91 2.294 . S
O92 C101 1.240 . S
O93 In91 2.326 1_556 S
O93 C101 1.252 1_556 S
C94 O97 1.252 . S
C94 O98 1.260 . S
C95 O102 1.240 . S
C95 O103 1.252 . S
C96 O99 1.252 . S
C96 O100 1.260 . S
O97 In91 2.266 . S
O97 C94 1.252 . S
O98 In91 2.326 . S
O98 C94 1.260 . S
O99 In91 2.266 1_556 S
O99 C96 1.252 . S
O100 In91 2.326 1_556 S
O100 C96 1.260 . S
C101 O92 1.240 . S
C101 O93 1.252 1_554 S
O102 In91 2.294 . S
O102 C95 1.240 . S
O103 In91 2.326 . S
O103 C95 1.252 . S
In104 O105 2.294 . S
In104 O106 2.326 . S
In104 O110 2.266 . S
In104 O111 2.326 . S
In104 O112 2.266 . S
In104 O113 2.326 . S
In104 O115 2.294 . S
In104 O116 2.326 . S
O105 In104 2.294 . S
O105 C114 1.240 . S
O106 In104 2.326 . S
O106 C114 1.252 . S
C107 O110 1.252 . S
C107 O111 1.260 . S
C108 O115 1.240 . S
C108 O116 1.252 . S
C109 O112 1.252 . S
C109 O113 1.260 . S
O110 In104 2.266 . S
O110 C107 1.252 . S
O111 In104 2.326 . S
O111 C107 1.260 . S
O112 In104 2.266 . S
O112 C109 1.252 . S
O113 In104 2.326 . S
O113 C109 1.260 . S
C114 O105 1.240 . S
C114 O106 1.252 . S
O115 In104 2.294 . S
O115 C108 1.240 . S
O116 In104 2.326 . S
O116 C108 1.252 . S
In117 O118 2.294 . S
In117 O119 2.326 . S
In117 O123 2.266 . S
In117 O124 2.326 . S
In117 O125 2.266 . S
In117 O126 2.326 . S
In117 O128 2.294 . S
In117 O129 2.326 . S
O118 In117 2.294 . S
O118 C127 1.240 . S
O119 In117 2.326 . S
O119 C127 1.252 . S
C120 O123 1.252 . S
C120 O124 1.260 . S
C121 O128 1.240 . S
C121 O129 1.252 . S
C122 O125 1.252 . S
C122 O126 1.260 . S
O123 In117 2.266 . S
O123 C120 1.252 . S
O124 In117 2.326 . S
O124 C120 1.260 . S
O125 In117 2.266 . S
O125 C122 1.252 . S
O126 In117 2.326 . S
O126 C122 1.260 . S
C127 O118 1.240 . S
C127 O119 1.252 . S
O128 In117 2.294 . S
O128 C121 1.240 . S
O129 In117 2.326 . S
O129 C121 1.252 . S
In130 O131 2.294 . S
In130 O132 2.326 . S
In130 O136 2.266 . S
In130 O137 2.326 . S
In130 O138 2.266 . S
In130 O139 2.326 . S
In130 O141 2.294 . S
In130 O142 2.326 . S
O131 In130 2.294 . S
O131 C140 1.240 . S
O132 In130 2.326 . S
O132 C140 1.252 . S
C133 O136 1.252 . S
C133 O137 1.260 . S
C134 O141 1.240 . S
C134 O142 1.252 . S
C135 O138 1.252 . S
C135 O139 1.260 . S
O136 In130 2.266 . S
O136 C133 1.252 . S
O137 In130 2.326 . S
O137 C133 1.260 . S
O138 In130 2.266 . S
O138 C135 1.252 . S
O139 In130 2.326 . S
O139 C135 1.260 . S
C140 O131 1.240 . S
C140 O132 1.252 . S
O141 In130 2.294 . S
O141 C134 1.240 . S
O142 In130 2.326 . S
O142 C134 1.252 . S
In143 O144 2.294 . S
In143 O145 2.326 . S
In143 O149 2.266 . S
In143 O150 2.326 . S
In143 O151 2.266 . S
In143 O152 2.326 . S
In143 O154 2.294 . S
In143 O155 2.326 . S
O144 In143 2.294 . S
O144 C153 1.240 . S
O145 In143 2.326 . S
O145 C153 1.252 . S
C146 O149 1.252 . S
C146 O150 1.260 . S
C147 O154 1.240 . S
C147 O155 1.252 . S
C148 O151 1.252 . S
C148 O152 1.260 . S
O149 In143 2.266 . S
O149 C146 1.252 . S
O150 In143 2.326 . S
O150 C146 1.260 . S
O151 In143 2.266 . S
O151 C148 1.252 . S
O152 In143 2.326 . S
O152 C148 1.260 . S
C153 O144 1.240 . S
C153 O145 1.252 . S
O154 In143 2.294 . S
O154 C147 1.240 . S
O155 In143 2.326 . S
O155 C147 1.252 . S
H156 C164 0.950 . S
H157 C169 0.950 . S
H158 C166 0.950 . S
H159 C168 0.950 . S
H160 C170 0.950 . S
H161 C172 0.950 . S
H162 C174 0.950 . S
H163 C175 0.950 . S
C164 H156 0.950 . S
C164 C165 1.386 . S
C164 C166 1.391 . S
C165 C164 1.386 . S
C165 C169 1.393 . S
C166 H158 0.950 . S
C166 C164 1.391 . S
C166 C167 1.400 . S
C167 C166 1.400 . S
C167 C168 1.398 . S
C167 C173 1.491 . S
C168 H159 0.950 . S
C168 C167 1.398 . S
C168 C169 1.391 . S
C169 H157 0.950 . S
C169 C165 1.393 . S
C169 C168 1.391 . S
C170 H160 0.950 . S
C170 C171 1.386 . S
C170 C172 1.391 . S
C171 C170 1.386 . S
C171 C175 1.393 . S
C172 H161 0.950 . S
C172 C170 1.391 . S
C172 C173 1.400 . S
C173 C167 1.491 . S
C173 C172 1.400 . S
C173 C174 1.398 . S
C174 H162 0.950 . S
C174 C173 1.398 . S
C174 C175 1.391 . S
C175 H163 0.950 . S
C175 C171 1.393 . S
C175 C174 1.391 . S
H176 C184 0.950 . S
H177 C189 0.950 . S
H178 C186 0.950 . S
H179 C188 0.950 . S
H180 C190 0.950 . S
H181 C192 0.950 . S
H182 C194 0.950 . S
H183 C195 0.950 . S
C184 H176 0.950 . S
C184 C185 1.386 . S
C184 C186 1.391 . S
C185 C184 1.386 . S
C185 C189 1.393 . S
C186 H178 0.950 . S
C186 C184 1.391 . S
C186 C187 1.400 . S
C187 C186 1.400 . S
C187 C188 1.398 . S
C187 C193 1.491 . S
C188 H179 0.950 . S
C188 C187 1.398 . S
C188 C189 1.391 . S
C189 H177 0.950 . S
C189 C185 1.393 . S
C189 C188 1.391 . S
C190 H180 0.950 . S
C190 C191 1.386 . S
C190 C192 1.391 . S
C191 C190 1.386 . S
C191 C195 1.393 . S
C192 H181 0.950 . S
C192 C190 1.391 . S
C192 C193 1.400 . S
C193 C187 1.491 . S
C193 C192 1.400 . S
C193 C194 1.398 . S
C194 H182 0.950 . S
C194 C193 1.398 . S
C194 C195 1.391 . S
C195 H183 0.950 . S
C195 C191 1.393 . S
C195 C194 1.391 . S
H196 C204 0.950 . S
H197 C209 0.950 . S
H198 C206 0.950 . S
H199 C208 0.950 . S
H200 C210 0.950 . S
H201 C212 0.950 . S
H202 C214 0.950 . S
H203 C215 0.950 . S
C204 H196 0.950 . S
C204 C205 1.386 . S
C204 C206 1.391 . S
C205 C204 1.386 . S
C205 C209 1.393 . S
C206 H198 0.950 . S
C206 C204 1.391 . S
C206 C207 1.400 . S
C207 C206 1.400 . S
C207 C208 1.398 . S
C207 C213 1.491 . S
C208 H199 0.950 . S
C208 C207 1.398 . S
C208 C209 1.391 . S
C209 H197 0.950 . S
C209 C205 1.393 . S
C209 C208 1.391 . S
C210 H200 0.950 . S
C210 C211 1.386 . S
C210 C212 1.391 . S
C211 C210 1.386 . S
C211 C215 1.393 . S
C212 H201 0.950 . S
C212 C210 1.391 . S
C212 C213 1.400 . S
C213 C207 1.491 . S
C213 C212 1.400 . S
C213 C214 1.398 . S
C214 H202 0.950 . S
C214 C213 1.398 . S
C214 C215 1.391 . S
C215 H203 0.950 . S
C215 C211 1.393 . S
C215 C214 1.391 . S
H216 C224 0.950 . S
H217 C229 0.950 . S
H218 C226 0.950 . S
H219 C228 0.950 . S
H220 C230 0.950 . S
H221 C232 0.950 . S
H222 C234 0.950 . S
H223 C235 0.950 . S
C224 H216 0.950 . S
C224 C225 1.386 . S
C224 C226 1.391 . S
C225 C224 1.386 . S
C225 C229 1.393 . S
C226 H218 0.950 . S
C226 C224 1.391 . S
C226 C227 1.400 . S
C227 C226 1.400 . S
C227 C228 1.398 . S
C227 C233 1.491 . S
C228 H219 0.950 . S
C228 C227 1.398 . S
C228 C229 1.391 . S
C229 H217 0.950 . S
C229 C225 1.393 . S
C229 C228 1.391 . S
C230 H220 0.950 . S
C230 C231 1.386 . S
C230 C232 1.391 . S
C231 C230 1.386 . S
C231 C235 1.393 . S
C232 H221 0.950 . S
C232 C230 1.391 . S
C232 C233 1.400 . S
C233 C227 1.491 . S
C233 C232 1.400 . S
C233 C234 1.398 . S
C234 H222 0.950 . S
C234 C233 1.398 . S
C234 C235 1.391 . S
C235 H223 0.950 . S
C235 C231 1.393 . S
C235 C234 1.391 . S
H236 C244 0.950 . S
H237 C249 0.950 . S
H238 C246 0.950 . S
H239 C248 0.950 . S
H240 C250 0.950 . S
H241 C252 0.950 . S
H242 C254 0.950 . S
H243 C255 0.950 . S
C244 H236 0.950 . S
C244 C245 1.386 . S
C244 C246 1.391 . S
C245 C244 1.386 . S
C245 C249 1.393 . S
C246 H238 0.950 . S
C246 C244 1.391 . S
C246 C247 1.400 . S
C247 C246 1.400 . S
C247 C248 1.398 . S
C247 C253 1.491 . S
C248 H239 0.950 . S
C248 C247 1.398 . S
C248 C249 1.391 . S
C249 H237 0.950 . S
C249 C245 1.393 . S
C249 C248 1.391 . S
C250 H240 0.950 . S
C250 C251 1.386 . S
C250 C252 1.391 1_554 S
C251 C250 1.386 . S
C251 C255 1.393 . S
C252 H241 0.950 . S
C252 C250 1.391 1_556 S
C252 C253 1.400 . S
C253 C247 1.491 . S
C253 C252 1.400 . S
C253 C254 1.398 1_556 S
C254 H242 0.950 . S
C254 C253 1.398 1_554 S
C254 C255 1.391 . S
C255 H243 0.950 . S
C255 C251 1.393 . S
C255 C254 1.391 . S
H256 C264 0.950 . S
H257 C269 0.950 . S
H258 C266 0.950 . S
H259 C268 0.950 . S
H260 C270 0.950 1_556 S
H261 C272 0.950 . S
H262 C274 0.950 . S
H263 C275 0.950 . S
C264 H256 0.950 . S
C264 C265 1.386 . S
C264 C266 1.391 . S
C265 C264 1.386 . S
C265 C269 1.393 . S
C266 H258 0.950 . S
C266 C264 1.391 . S
C266 C267 1.400 . S
C267 C266 1.400 . S
C267 C268 1.398 . S
C267 C273 1.491 . S
C268 H259 0.950 . S
C268 C267 1.398 . S
C268 C269 1.391 . S
C269 H257 0.950 . S
C269 C265 1.393 . S
C269 C268 1.391 . S
C270 H260 0.950 1_554 S
C270 C271 1.386 . S
C270 C272 1.391 . S
C271 C270 1.386 . S
C271 C275 1.393 . S
C272 H261 0.950 . S
C272 C270 1.391 . S
C272 C273 1.400 . S
C273 C267 1.491 . S
C273 C272 1.400 . S
C273 C274 1.398 . S
C274 H262 0.950 . S
C274 C273 1.398 . S
C274 C275 1.391 . S
C275 H263 0.950 . S
C275 C271 1.393 . S
C275 C274 1.391 . S
H276 C284 0.950 . S
H277 C289 0.950 . S
H278 C286 0.950 . S
H279 C288 0.950 . S
H280 C290 0.950 . S
H281 C292 0.950 . S
H282 C294 0.950 . S
H283 C295 0.950 . S
C284 H276 0.950 . S
C284 C285 1.386 . S
C284 C286 1.391 . S
C285 C284 1.386 . S
C285 C289 1.393 . S
C286 H278 0.950 . S
C286 C284 1.391 . S
C286 C287 1.400 . S
C287 C286 1.400 . S
C287 C288 1.398 . S
C287 C293 1.491 . S
C288 H279 0.950 . S
C288 C287 1.398 . S
C288 C289 1.391 . S
C289 H277 0.950 . S
C289 C285 1.393 . S
C289 C288 1.391 . S
C290 H280 0.950 . S
C290 C291 1.386 . S
C290 C292 1.391 . S
C291 C290 1.386 . S
C291 C295 1.393 . S
C292 H281 0.950 . S
C292 C290 1.391 . S
C292 C293 1.400 . S
C293 C287 1.491 . S
C293 C292 1.400 . S
C293 C294 1.398 . S
C294 H282 0.950 . S
C294 C293 1.398 . S
C294 C295 1.391 . S
C295 H283 0.950 . S
C295 C291 1.393 . S
C295 C294 1.391 . S
H296 C304 0.950 . S
H297 C309 0.950 . S
H298 C306 0.950 . S
H299 C308 0.950 . S
H300 C310 0.950 . S
H301 C312 0.950 . S
H302 C314 0.950 . S
H303 C315 0.950 . S
C304 H296 0.950 . S
C304 C305 1.386 . S
C304 C306 1.391 . S
C305 C304 1.386 . S
C305 C309 1.393 . S
C306 H298 0.950 . S
C306 C304 1.391 . S
C306 C307 1.400 . S
C307 C306 1.400 . S
C307 C308 1.398 . S
C307 C313 1.491 . S
C308 H299 0.950 . S
C308 C307 1.398 . S
C308 C309 1.391 . S
C309 H297 0.950 . S
C309 C305 1.393 . S
C309 C308 1.391 . S
C310 H300 0.950 . S
C310 C311 1.386 . S
C310 C312 1.391 . S
C311 C310 1.386 . S
C311 C315 1.393 . S
C312 H301 0.950 . S
C312 C310 1.391 . S
C312 C313 1.400 . S
C313 C307 1.491 . S
C313 C312 1.400 . S
C313 C314 1.398 . S
C314 H302 0.950 . S
C314 C313 1.398 . S
C314 C315 1.391 . S
C315 H303 0.950 . S
C315 C311 1.393 . S
C315 C314 1.391 . S
H316 C324 0.950 . S
H317 C329 0.950 . S
H318 C326 0.950 . S
H319 C328 0.950 . S
H320 C330 0.950 . S
H321 C332 0.950 . S
H322 C334 0.950 . S
H323 C335 0.950 . S
C324 H316 0.950 . S
C324 C325 1.386 . S
C324 C326 1.391 . S
C325 C324 1.386 . S
C325 C329 1.393 . S
C326 H318 0.950 . S
C326 C324 1.391 . S
C326 C327 1.400 . S
C327 C326 1.400 . S
C327 C328 1.398 . S
C327 C333 1.491 . S
C328 H319 0.950 . S
C328 C327 1.398 . S
C328 C329 1.391 . S
C329 H317 0.950 . S
C329 C325 1.393 . S
C329 C328 1.391 . S
C330 H320 0.950 . S
C330 C331 1.386 . S
C330 C332 1.391 . S
C331 C330 1.386 . S
C331 C335 1.393 . S
C332 H321 0.950 . S
C332 C330 1.391 . S
C332 C333 1.400 . S
C333 C327 1.491 . S
C333 C332 1.400 . S
C333 C334 1.398 . S
C334 H322 0.950 . S
C334 C333 1.398 . S
C334 C335 1.391 . S
C335 H323 0.950 . S
C335 C331 1.393 . S
C335 C334 1.391 . S
H336 C344 0.950 . S
H337 C349 0.950 . S
H338 C346 0.950 . S
H339 C348 0.950 . S
H340 C350 0.950 . S
H341 C352 0.950 . S
H342 C354 0.950 . S
H343 C355 0.950 . S
C344 H336 0.950 . S
C344 C345 1.386 . S
C344 C346 1.391 . S
C345 C344 1.386 . S
C345 C349 1.393 . S
C346 H338 0.950 . S
C346 C344 1.391 . S
C346 C347 1.400 . S
C347 C346 1.400 . S
C347 C348 1.398 . S
C347 C353 1.491 . S
C348 H339 0.950 . S
C348 C347 1.398 . S
C348 C349 1.391 . S
C349 H337 0.950 . S
C349 C345 1.393 . S
C349 C348 1.391 . S
C350 H340 0.950 . S
C350 C351 1.386 . S
C350 C352 1.391 . S
C351 C350 1.386 . S
C351 C355 1.393 . S
C352 H341 0.950 . S
C352 C350 1.391 . S
C352 C353 1.400 . S
C353 C347 1.491 . S
C353 C352 1.400 . S
C353 C354 1.398 . S
C354 H342 0.950 . S
C354 C353 1.398 . S
C354 C355 1.391 . S
C355 H343 0.950 . S
C355 C351 1.393 . S
C355 C354 1.391 . S
H356 C364 0.950 . S
H357 C369 0.950 . S
H358 C366 0.950 . S
H359 C368 0.950 . S
H360 C370 0.950 . S
H361 C372 0.950 . S
H362 C374 0.950 . S
H363 C375 0.950 . S
C364 H356 0.950 . S
C364 C365 1.386 . S
C364 C366 1.391 . S
C365 C364 1.386 . S
C365 C369 1.393 . S
C366 H358 0.950 . S
C366 C364 1.391 . S
C366 C367 1.400 . S
C367 C366 1.400 . S
C367 C368 1.398 . S
C367 C373 1.491 . S
C368 H359 0.950 . S
C368 C367 1.398 . S
C368 C369 1.391 . S
C369 H357 0.950 . S
C369 C365 1.393 . S
C369 C368 1.391 . S
C370 H360 0.950 . S
C370 C371 1.386 . S
C370 C372 1.391 . S
C371 C370 1.386 . S
C371 C375 1.393 . S
C372 H361 0.950 . S
C372 C370 1.391 . S
C372 C373 1.400 . S
C373 C367 1.491 . S
C373 C372 1.400 . S
C373 C374 1.398 . S
C374 H362 0.950 . S
C374 C373 1.398 . S
C374 C375 1.391 . S
C375 H363 0.950 . S
C375 C371 1.393 . S
C375 C374 1.391 . S
H376 C384 0.950 . S
H377 C389 0.950 . S
H378 C386 0.950 . S
H379 C388 0.950 . S
H380 C390 0.950 . S
H381 C392 0.950 . S
H382 C394 0.950 . S
H383 C395 0.950 . S
C384 H376 0.950 . S
C384 C385 1.386 1_554 S
C384 C386 1.391 . S
C385 C384 1.386 1_556 S
C385 C389 1.393 . S
C386 H378 0.950 . S
C386 C384 1.391 . S
C386 C387 1.400 1_554 S
C387 C386 1.400 1_556 S
C387 C388 1.398 . S
C387 C393 1.491 . S
C388 H379 0.950 . S
C388 C387 1.398 . S
C388 C389 1.391 . S
C389 H377 0.950 . S
C389 C385 1.393 . S
C389 C388 1.391 . S
C390 H380 0.950 . S
C390 C391 1.386 1_556 S
C390 C392 1.391 . S
C391 C390 1.386 1_554 S
C391 C395 1.393 . S
C392 H381 0.950 . S
C392 C390 1.391 . S
C392 C393 1.400 . S
C393 C387 1.491 . S
C393 C392 1.400 . S
C393 C394 1.398 1_556 S
C394 H382 0.950 . S
C394 C393 1.398 1_554 S
C394 C395 1.391 . S
C395 H383 0.950 . S
C395 C391 1.393 . S
C395 C394 1.391 . S
H396 C404 0.950 . S
H397 C409 0.950 . S
H398 C406 0.950 . S
H399 C408 0.950 . S
H400 C410 0.950 . S
H401 C412 0.950 . S
H402 C414 0.950 . S
H403 C415 0.950 . S
C404 H396 0.950 . S
C404 C405 1.386 . S
C404 C406 1.391 . S
C405 C404 1.386 . S
C405 C409 1.393 . S
C406 H398 0.950 . S
C406 C404 1.391 . S
C406 C407 1.400 . S
C407 C406 1.400 . S
C407 C408 1.398 . S
C407 C413 1.491 . S
C408 H399 0.950 . S
C408 C407 1.398 . S
C408 C409 1.391 . S
C409 H397 0.950 . S
C409 C405 1.393 . S
C409 C408 1.391 . S
C410 H400 0.950 . S
C410 C411 1.386 . S
C410 C412 1.391 . S
C411 C410 1.386 . S
C411 C415 1.393 . S
C412 H401 0.950 . S
C412 C410 1.391 . S
C412 C413 1.400 . S
C413 C407 1.491 . S
C413 C412 1.400 . S
C413 C414 1.398 . S
C414 H402 0.950 . S
C414 C413 1.398 . S
C414 C415 1.391 . S
C415 H403 0.950 . S
C415 C411 1.393 . S
C415 C414 1.391 . S
H416 C424 0.950 . S
H417 C429 0.950 . S
H418 C426 0.950 . S
H419 C428 0.950 . S
H420 C430 0.950 . S
H421 C432 0.950 . S
H422 C434 0.950 1_554 S
H423 C435 0.950 . S
C424 H416 0.950 . S
C424 C425 1.386 . S
C424 C426 1.391 . S
C425 C424 1.386 . S
C425 C429 1.393 . S
C426 H418 0.950 . S
C426 C424 1.391 . S
C426 C427 1.387 1_554 S
C427 C426 1.387 1_556 S
C427 C428 1.402 . S
C427 C433 1.500 . S
C428 H419 0.950 . S
C428 C427 1.402 . S
C428 C429 1.391 1_556 S
C429 H417 0.950 . S
C429 C425 1.393 . S
C429 C428 1.391 1_554 S
C430 H420 0.950 . S
C430 C431 1.386 . S
C430 C432 1.391 . S
C431 C430 1.386 . S
C431 C435 1.393 . S
C432 H421 0.950 . S
C432 C430 1.391 . S
C432 C433 1.400 . S
C433 C427 1.500 . S
C433 C432 1.400 . S
C433 C434 1.398 . S
C434 H422 0.950 1_556 S
C434 C433 1.398 . S
C434 C435 1.391 . S
C435 H423 0.950 . S
C435 C431 1.393 . S
C435 C434 1.391 . S
H436 C444 0.950 . S
H437 C449 0.950 . S
H438 C446 0.950 . S
H439 C448 0.950 . S
H440 C450 0.950 . S
H441 C452 0.950 . S
H442 C454 0.950 . S
H443 C455 0.950 1_556 S
C444 H436 0.950 . S
C444 C445 1.386 . S
C444 C446 1.391 . S
C445 C444 1.386 . S
C445 C449 1.393 . S
C446 H438 0.950 . S
C446 C444 1.391 . S
C446 C447 1.400 . S
C447 C446 1.400 . S
C447 C448 1.398 . S
C447 C453 1.491 . S
C448 H439 0.950 . S
C448 C447 1.398 . S
C448 C449 1.391 . S
C449 H437 0.950 . S
C449 C445 1.393 . S
C449 C448 1.391 . S
C450 H440 0.950 . S
C450 C451 1.386 . S
C450 C452 1.391 . S
C451 C450 1.386 . S
C451 C455 1.393 . S
C452 H441 0.950 . S
C452 C450 1.391 . S
C452 C453 1.400 . S
C453 C447 1.491 . S
C453 C452 1.400 . S
C453 C454 1.398 . S
C454 H442 0.950 . S
C454 C453 1.398 . S
C454 C455 1.391 . S
C455 H443 0.950 1_554 S
C455 C451 1.393 . S
C455 C454 1.391 . S
H456 C464 0.950 . S
H457 C469 0.950 . S
H458 C466 0.950 . S
H459 C468 0.950 . S
H460 C470 0.950 . S
H461 C472 0.950 . S
H462 C474 0.950 . S
H463 C475 0.950 . S
C464 H456 0.950 . S
C464 C465 1.386 . S
C464 C466 1.391 . S
C465 C464 1.386 . S
C465 C469 1.393 . S
C466 H458 0.950 . S
C466 C464 1.391 . S
C466 C467 1.400 . S
C467 C466 1.400 . S
C467 C468 1.398 . S
C467 C473 1.491 . S
C468 H459 0.950 . S
C468 C467 1.398 . S
C468 C469 1.391 . S
C469 H457 0.950 . S
C469 C465 1.393 . S
C469 C468 1.391 . S
C470 H460 0.950 . S
C470 C471 1.386 . S
C470 C472 1.391 . S
C471 C470 1.386 . S
C471 C475 1.393 . S
C472 H461 0.950 . S
C472 C470 1.391 . S
C472 C473 1.400 . S
C473 C467 1.491 . S
C473 C472 1.400 . S
C473 C474 1.398 . S
C474 H462 0.950 . S
C474 C473 1.398 . S
C474 C475 1.391 . S
C475 H463 0.950 . S
C475 C471 1.393 . S
C475 C474 1.391 . S
H476 C484 0.950 . S
H477 C489 0.950 . S
H478 C486 0.950 . S
H479 C488 0.950 . S
H480 C490 0.950 . S
H481 C492 0.950 . S
H482 C494 0.950 . S
H483 C495 0.950 . S
C484 H476 0.950 . S
C484 C485 1.386 . S
C484 C486 1.391 . S
C485 C484 1.386 . S
C485 C489 1.393 . S
C486 H478 0.950 . S
C486 C484 1.391 . S
C486 C487 1.400 . S
C487 C486 1.400 . S
C487 C488 1.398 . S
C487 C493 1.491 . S
C488 H479 0.950 . S
C488 C487 1.398 . S
C488 C489 1.391 . S
C489 H477 0.950 . S
C489 C485 1.393 . S
C489 C488 1.391 . S
C490 H480 0.950 . S
C490 C491 1.386 . S
C490 C492 1.391 . S
C491 C490 1.386 . S
C491 C495 1.393 . S
C492 H481 0.950 . S
C492 C490 1.391 . S
C492 C493 1.400 . S
C493 C487 1.491 . S
C493 C492 1.400 . S
C493 C494 1.398 . S
C494 H482 0.950 . S
C494 C493 1.398 . S
C494 C495 1.391 . S
C495 H483 0.950 . S
C495 C491 1.393 . S
C495 C494 1.391 . S
H496 C504 0.950 . S
H497 C509 0.950 . S
H498 C506 0.950 . S
H499 C508 0.950 . S
H500 C510 0.950 . S
H501 C512 0.950 . S
H502 C514 0.950 . S
H503 C515 0.950 . S
C504 H496 0.950 . S
C504 C505 1.386 . S
C504 C506 1.391 . S
C505 C504 1.386 . S
C505 C509 1.393 . S
C506 H498 0.950 . S
C506 C504 1.391 . S
C506 C507 1.400 . S
C507 C506 1.400 . S
C507 C508 1.398 . S
C507 C513 1.491 . S
C508 H499 0.950 . S
C508 C507 1.398 . S
C508 C509 1.391 . S
C509 H497 0.950 . S
C509 C505 1.393 . S
C509 C508 1.391 . S
C510 H500 0.950 . S
C510 C511 1.386 . S
C510 C512 1.391 . S
C511 C510 1.386 . S
C511 C515 1.393 . S
C512 H501 0.950 . S
C512 C510 1.391 . S
C512 C513 1.400 . S
C513 C507 1.491 . S
C513 C512 1.400 . S
C513 C514 1.398 . S
C514 H502 0.950 . S
C514 C513 1.398 . S
C514 C515 1.391 . S
C515 H503 0.950 . S
C515 C511 1.393 . S
C515 C514 1.391 . S
H516 C524 0.950 . S
H517 C529 0.950 . S
H518 C526 0.954 . S
H519 C528 0.950 . S
H520 C530 0.950 . S
H521 C532 0.955 . S
H522 C534 0.950 . S
H523 C535 0.950 . S
C524 H516 0.950 . S
C524 C525 1.386 1_554 S
C524 C526 1.391 1_554 S
C525 C524 1.386 1_556 S
C525 C529 1.393 . S
C526 H518 0.954 . S
C526 C524 1.391 1_556 S
C526 C527 1.400 . S
C527 C526 1.400 . S
C527 C528 1.398 . S
C527 C533 1.491 1_455 S
C528 H519 0.950 . S
C528 C527 1.398 . S
C528 C529 1.391 . S
C529 H517 0.950 . S
C529 C525 1.393 . S
C529 C528 1.391 . S
C530 H520 0.950 . S
C530 C531 1.386 . S
C530 C532 1.391 . S
C531 C530 1.386 . S
C531 C535 1.393 . S
C532 H521 0.955 . S
C532 C530 1.391 . S
C532 C533 1.400 . S
C533 C527 1.491 1_655 S
C533 C532 1.400 . S
C533 C534 1.398 . S
C534 H522 0.950 . S
C534 C533 1.398 . S
C534 C535 1.391 . S
C535 H523 0.950 . S
C535 C531 1.393 . S
C535 C534 1.391 . S
H536 C544 0.950 . S
H537 C549 0.950 . S
H538 C546 0.950 . S
H539 C548 0.950 . S
H540 C550 0.950 . S
H541 C552 0.950 . S
H542 C554 0.950 . S
H543 C555 0.950 . S
C544 H536 0.950 . S
C544 C545 1.386 . S
C544 C546 1.391 1_556 S
C545 C544 1.386 . S
C545 C549 1.393 . S
C546 H538 0.950 . S
C546 C544 1.391 1_554 S
C546 C547 1.400 . S
C547 C546 1.400 . S
C547 C548 1.398 . S
C547 C553 1.491 1_565 S
C548 H539 0.950 . S
C548 C547 1.398 . S
C548 C549 1.391 1_554 S
C549 H537 0.950 . S
C549 C545 1.393 . S
C549 C548 1.391 1_556 S
C550 H540 0.950 . S
C550 C551 1.386 . S
C550 C552 1.391 . S
C551 C550 1.386 . S
C551 C555 1.393 . S
C552 H541 0.950 . S
C552 C550 1.391 . S
C552 C553 1.400 . S
C553 C547 1.491 1_545 S
C553 C552 1.400 . S
C553 C554 1.398 . S
C554 H542 0.950 . S
C554 C553 1.398 . S
C554 C555 1.391 . S
C555 H543 0.950 . S
C555 C551 1.393 . S
C555 C554 1.391 . S
H556 C564 0.950 . S
H557 C569 0.950 . S
H558 C566 0.950 . S
H559 C568 0.950 . S
H560 C570 0.950 . S
H561 C572 0.950 . S
H562 C574 0.950 . S
H563 C575 0.950 . S
C564 H556 0.950 . S
C564 C565 1.386 . S
C564 C566 1.391 . S
C565 C564 1.386 . S
C565 C569 1.393 . S
C566 H558 0.950 . S
C566 C564 1.391 . S
C566 C567 1.400 . S
C567 C566 1.400 . S
C567 C568 1.398 . S
C567 C573 1.491 . S
C568 H559 0.950 . S
C568 C567 1.398 . S
C568 C569 1.391 . S
C569 H557 0.950 . S
C569 C565 1.393 . S
C569 C568 1.391 . S
C570 H560 0.950 . S
C570 C571 1.386 . S
C570 C572 1.391 . S
C571 C570 1.386 . S
C571 C575 1.393 . S
C572 H561 0.950 . S
C572 C570 1.391 . S
C572 C573 1.400 . S
C573 C567 1.491 . S
C573 C572 1.400 . S
C573 C574 1.398 . S
C574 H562 0.950 . S
C574 C573 1.398 . S
C574 C575 1.391 . S
C575 H563 0.950 . S
C575 C571 1.393 . S
C575 C574 1.391 . S
H576 C584 0.950 . S
H577 C589 0.950 . S
H578 C586 0.950 1_655 S
H579 C588 0.950 . S
H580 C590 0.950 . S
H581 C592 0.950 1_455 S
H582 C594 0.950 . S
H583 C595 0.950 . S
C584 H576 0.950 . S
C584 C585 1.386 . S
C584 C586 1.391 . S
C585 C584 1.386 . S
C585 C589 1.393 . S
C586 H578 0.950 1_455 S
C586 C584 1.391 . S
C586 C587 1.400 . S
C587 C586 1.400 . S
C587 C588 1.398 . S
C587 C593 1.491 1_455 S
C588 H579 0.950 . S
C588 C587 1.398 . S
C588 C589 1.391 . S
C589 H577 0.950 . S
C589 C585 1.393 . S
C589 C588 1.391 . S
C590 H580 0.950 . S
C590 C591 1.386 . S
C590 C592 1.391 . S
C591 C590 1.386 . S
C591 C595 1.393 . S
C592 H581 0.950 1_655 S
C592 C590 1.391 . S
C592 C593 1.400 . S
C593 C587 1.491 1_655 S
C593 C592 1.400 . S
C593 C594 1.398 . S
C594 H582 0.950 . S
C594 C593 1.398 . S
C594 C595 1.391 . S
C595 H583 0.950 . S
C595 C591 1.393 . S
C595 C594 1.391 . S
H596 C604 0.950 . S
H597 C609 0.950 . S
H598 C606 0.950 . S
H599 C608 0.950 . S
H600 C610 0.950 . S
H601 C612 0.950 . S
H602 C614 0.950 . S
H603 C615 0.950 . S
C604 H596 0.950 . S
C604 C605 1.386 . S
C604 C606 1.391 . S
C605 C604 1.386 . S
C605 C609 1.393 . S
C606 H598 0.950 . S
C606 C604 1.391 . S
C606 C607 1.400 . S
C607 C606 1.400 . S
C607 C608 1.398 . S
C607 C613 1.491 1_545 S
C608 H599 0.950 . S
C608 C607 1.398 . S
C608 C609 1.391 . S
C609 H597 0.950 . S
C609 C605 1.393 . S
C609 C608 1.391 . S
C610 H600 0.950 . S
C610 C611 1.386 . S
C610 C612 1.391 . S
C611 C610 1.386 . S
C611 C615 1.393 . S
C612 H601 0.950 . S
C612 C610 1.391 . S
C612 C613 1.400 . S
C613 C607 1.491 1_565 S
C613 C612 1.400 . S
C613 C614 1.398 . S
C614 H602 0.950 . S
C614 C613 1.398 . S
C614 C615 1.391 . S
C615 H603 0.950 . S
C615 C611 1.393 . S
C615 C614 1.391 . S
H616 C624 0.950 . S
H617 C629 0.950 . S
H618 C626 0.950 . S
H619 C628 0.950 . S
H620 C630 0.950 . S
H621 C632 0.950 . S
H622 C634 0.950 . S
H623 C635 0.950 . S
C624 H616 0.950 . S
C624 C625 1.386 . S
C624 C626 1.391 . S
C625 C624 1.386 . S
C625 C629 1.393 . S
C626 H618 0.950 . S
C626 C624 1.391 . S
C626 C627 1.400 . S
C627 C626 1.400 . S
C627 C628 1.398 . S
C627 C633 1.491 . S
C628 H619 0.950 . S
C628 C627 1.398 . S
C628 C629 1.391 . S
C629 H617 0.950 . S
C629 C625 1.393 . S
C629 C628 1.391 . S
C630 H620 0.950 . S
C630 C631 1.386 . S
C630 C632 1.391 . S
C631 C630 1.386 . S
C631 C635 1.393 . S
C632 H621 0.950 . S
C632 C630 1.391 . S
C632 C633 1.400 . S
C633 C627 1.491 . S
C633 C632 1.400 . S
C633 C634 1.398 . S
C634 H622 0.950 . S
C634 C633 1.398 . S
C634 C635 1.391 . S
C635 H623 0.950 . S
C635 C631 1.393 . S
C635 C634 1.391 . S
C165 C3 1.502 . S
C171 C135 1.504 . S
C185 C148 1.492 . S
C191 C16 1.498 . S
C205 C29 1.497 . S
C211 C83 1.492 . S
C225 C44 1.497 . S
C231 C96 1.504 . S
C245 C57 1.495 . S
C251 C107 1.492 . S
C265 C122 1.500 . S
C271 C68 1.504 1_554 S
C285 C4 1.750 . S
C291 C108 1.747 . S
C305 C17 1.752 . S
C311 C127 1.753 . S
C325 C140 1.751 . S
C331 C30 1.747 . S
C345 C49 1.750 . S
C351 C153 1.754 . S
C365 C62 1.747 . S
C371 C88 1.751 . S
C385 C69 1.747 . S
C391 C101 1.751 . S
C405 C133 1.473 . S
C411 C5 1.477 . S
C425 C18 1.477 . S
C431 C146 1.472 . S
C445 C31 1.473 . S
C451 C81 1.476 1_554 S
C465 C42 1.477 . S
C471 C94 1.473 . S
C485 C109 1.477 . S
C491 C55 1.472 . S
C505 C70 1.477 . S
C511 C120 1.472 . S
C525 C10 1.397 1_556 S
C531 C147 1.401 . S
C545 C82 1.398 . S
C551 C23 1.398 . S
C565 C95 1.398 . S
C571 C36 1.398 . S
C585 C114 1.401 . S
C591 C43 1.405 . S
C605 C121 1.409 . S
C611 C56 1.407 . S
C625 C134 1.399 . S
C631 C75 1.403 . S
