# Generated by pormake.
# Topology noo, (5)-cn, num edge types: 1
# Building blocks:
#     Node 0, Type 0, BuildingBlock: XOMCOT_clean_sbu_0, # of connection points: 5
#     Node 1, Type 0, BuildingBlock: XOMCOT_clean_sbu_0, # of connection points: 5
#     Node 2, Type 0, BuildingBlock: XOMCOT_clean_sbu_0, # of connection points: 5
#     Node 3, Type 0, BuildingBlock: XOMCOT_clean_sbu_0, # of connection points: 5
#     Node 4, Type 0, BuildingBlock: XOMCOT_clean_sbu_0, # of connection points: 5
#     Node 5, Type 0, BuildingBlock: XOMCOT_clean_sbu_0, # of connection points: 5
#     Node 6, Type 0, BuildingBlock: XOMCOT_clean_sbu_0, # of connection points: 5
#     Node 7, Type 0, BuildingBlock: XOMCOT_clean_sbu_0, # of connection points: 5
#     Edge 8, Type (0, 0), None
#     Edge 9, Type (0, 0), None
#     Edge 10, Type (0, 0), None
#     Edge 11, Type (0, 0), None
#     Edge 12, Type (0, 0), None
#     Edge 13, Type (0, 0), None
#     Edge 14, Type (0, 0), None
#     Edge 15, Type (0, 0), None
#     Edge 16, Type (0, 0), None
#     Edge 17, Type (0, 0), None
#     Edge 18, Type (0, 0), None
#     Edge 19, Type (0, 0), None
#     Edge 20, Type (0, 0), None
#     Edge 21, Type (0, 0), None
#     Edge 22, Type (0, 0), None
#     Edge 23, Type (0, 0), None
#     Edge 24, Type (0, 0), None
#     Edge 25, Type (0, 0), None
#     Edge 26, Type (0, 0), None
#     Edge 27, Type (0, 0), None
# Relax obj value: 0.065
# Max RMSD: 0.090
# Mean RMSD: 0.090
data_MOF--net-noo--node1-XOMCOT_clean_sbu_0--edge1-none
_symmetry_space_group_name_H-M    P1
_symmetry_Int_Tables_number       1
_symmetry_cell_setting            triclinic
loop_
_symmetry_equiv_pos_as_xyz
'x, y, z'
_cell_length_a     19.691181
_cell_length_b     19.691387
_cell_length_c     15.337549
_cell_angle_alpha  90.009092
_cell_angle_beta   90.006596
_cell_angle_gamma 89.99926
loop_
_atom_site_label
_atom_site_type_symbol
_atom_site_fract_x
_atom_site_fract_y
_atom_site_fract_z
_atom_type_partial_charge
Co0 Co 0.43685 0.2517 0.09844 0.0
C1 C 0.47752 0.10794 0.12894 0.0
C2 C 0.56253 0.17533 0.13658 0.0
C3 C 0.58597 0.11083 0.14966 0.0
N4 N 0.4947 0.17386 0.12135 0.0
N5 N 0.53244 0.06916 0.14487 0.0
H6 H 0.42654 0.08846 0.12247 0.0
H7 H 0.59444 0.21937 0.13905 0.0
C8 C 0.56071 0.34131 0.11344 0.0
O9 O 0.54298 0.36006 0.1924 0.0
N10 N 0.38292 0.33259 0.07831 0.0
C11 C 0.33947 0.34519 0.01233 0.0
C12 C 0.321 0.41261 0.01521 0.0
C13 C 0.38848 0.39204 0.1221 0.0
N14 N 0.35162 0.44189 0.08447 0.0
C15 C 0.3925 0.16637 0.95915 0.0
C16 C 0.43599 0.2464 0.82272 0.0
C17 C 0.39934 0.18667 0.80378 0.0
C18 C 0.37898 0.14598 0.87395 0.0
C19 C 0.45034 0.26399 0.90932 0.0
N20 N 0.42774 0.22453 0.97658 0.0
H21 H 0.37256 0.13569 0.01114 0.0
H22 H 0.47611 0.31139 0.92193 0.0
H23 H 0.32279 0.30848 0.96452 0.0
H24 H 0.41925 0.39889 0.1798 0.0
O25 O 0.35788 0.20387 0.14229 0.0
O26 O 0.42796 0.26374 0.22435 0.0
O27 O 0.5214 0.30382 0.06818 0.0
C28 C 0.37506 0.22366 0.21931 0.0
H29 H 0.638 0.09578 0.16155 0.0
H30 H 0.28611 0.43768 0.97108 0.0
H31 H 0.4516 0.28093 0.77166 0.0
H32 H 0.35189 0.09883 0.86386 0.0
Co33 Co 0.81557 0.43685 0.09845 0.0
C34 C 0.95934 0.4775 0.12892 0.0
C35 C 0.89196 0.56251 0.13664 0.0
C36 C 0.95646 0.58594 0.1497 0.0
N37 N 0.89342 0.49468 0.12137 0.0
N38 N 0.99813 0.53241 0.14486 0.0
H39 H 0.97882 0.42653 0.12242 0.0
H40 H 0.84791 0.59441 0.13916 0.0
C41 C 0.72597 0.56071 0.11341 0.0
O42 O 0.7072 0.54297 0.19236 0.0
N43 N 0.73466 0.38293 0.07831 0.0
C44 C 0.72202 0.33952 0.01229 0.0
C45 C 0.65462 0.32103 0.01521 0.0
C46 C 0.67525 0.38846 0.12216 0.0
N47 N 0.62539 0.35158 0.08455 0.0
C48 C 0.90087 0.39243 0.95919 0.0
C49 C 0.8209 0.43602 0.82272 0.0
C50 C 0.88061 0.39932 0.80381 0.0
C51 C 0.92126 0.37891 0.87399 0.0
C52 C 0.8033 0.45036 0.90931 0.0
N53 N 0.84273 0.42771 0.97659 0.0
H54 H 0.93153 0.37246 0.01119 0.0
H55 H 0.75592 0.47617 0.9219 0.0
H56 H 0.7587 0.32288 0.96442 0.0
H57 H 0.66843 0.4192 0.17988 0.0
O58 O 0.86339 0.35787 0.14232 0.0
O59 O 0.80353 0.42797 0.22435 0.0
O60 O 0.76347 0.5214 0.06817 0.0
C61 C 0.8436 0.37506 0.21934 0.0
H62 H 0.97151 0.63797 0.16161 0.0
H63 H 0.62952 0.28617 0.97106 0.0
H64 H 0.7864 0.45166 0.77165 0.0
H65 H 0.96841 0.35179 0.86393 0.0
Co66 Co 0.63042 0.81557 0.09841 0.0
C67 C 0.58975 0.95935 0.12876 0.0
C68 C 0.50478 0.89193 0.13676 0.0
C69 C 0.48133 0.95643 0.14978 0.0
N70 N 0.57258 0.89342 0.12132 0.0
N71 N 0.53483 0.99813 0.14472 0.0
H72 H 0.64071 0.97884 0.12222 0.0
H73 H 0.47292 0.84786 0.13948 0.0
C74 C 0.50656 0.72596 0.11334 0.0
O75 O 0.52434 0.70716 0.19226 0.0
N76 N 0.68433 0.73466 0.07828 0.0
C77 C 0.72775 0.72203 0.01228 0.0
C78 C 0.74624 0.65462 0.0152 0.0
C79 C 0.67882 0.67525 0.12213 0.0
N80 N 0.7157 0.62539 0.08452 0.0
C81 C 0.67487 0.90085 0.95917 0.0
C82 C 0.63124 0.8209 0.82268 0.0
C83 C 0.66796 0.8806 0.80378 0.0
C84 C 0.68839 0.92124 0.87398 0.0
C85 C 0.61689 0.80331 0.90927 0.0
N86 N 0.63955 0.84273 0.97656 0.0
H87 H 0.69487 0.93149 0.01118 0.0
H88 H 0.59106 0.75594 0.92185 0.0
H89 H 0.74439 0.75871 0.96442 0.0
H90 H 0.64808 0.66843 0.17985 0.0
O91 O 0.70939 0.86339 0.14231 0.0
O92 O 0.63929 0.80354 0.22432 0.0
O93 O 0.54585 0.76348 0.06811 0.0
C94 C 0.69221 0.8436 0.21932 0.0
H95 H 0.42932 0.97147 0.16187 0.0
H96 H 0.7811 0.62952 0.97106 0.0
H97 H 0.61558 0.78641 0.7716 0.0
H98 H 0.71554 0.96836 0.86393 0.0
Co99 Co 0.2517 0.63041 0.09839 0.0
C100 C 0.10794 0.58972 0.12877 0.0
C101 C 0.17536 0.50475 0.13666 0.0
C102 C 0.11087 0.4813 0.1497 0.0
N103 N 0.17386 0.57256 0.12128 0.0
N104 N 0.06917 0.5348 0.1447 0.0
H105 H 0.08845 0.64069 0.12228 0.0
H106 H 0.21943 0.47288 0.13931 0.0
C107 C 0.34133 0.50657 0.11336 0.0
O108 O 0.3601 0.52432 0.19231 0.0
N109 N 0.33259 0.68435 0.07828 0.0
C110 C 0.34519 0.7278 0.01232 0.0
C111 C 0.41259 0.7463 0.01521 0.0
C112 C 0.39203 0.67881 0.12208 0.0
N113 N 0.44186 0.71571 0.08448 0.0
C114 C 0.16639 0.67479 0.95911 0.0
C115 C 0.24642 0.63127 0.82267 0.0
C116 C 0.18669 0.66794 0.80374 0.0
C117 C 0.14601 0.68831 0.87391 0.0
C118 C 0.264 0.61691 0.90926 0.0
N119 N 0.22454 0.63952 0.97653 0.0
H120 H 0.13572 0.69475 0.01111 0.0
H121 H 0.31139 0.59112 0.92187 0.0
H122 H 0.30848 0.74446 0.96449 0.0
H123 H 0.39889 0.64803 0.17976 0.0
O124 O 0.20386 0.70938 0.14226 0.0
O125 O 0.26374 0.6393 0.2243 0.0
O126 O 0.30382 0.54586 0.06811 0.0
C127 C 0.22365 0.69221 0.21928 0.0
H128 H 0.09583 0.42928 0.16176 0.0
H129 H 0.43766 0.78119 0.9711 0.0
H130 H 0.28095 0.61566 0.77161 0.0
H131 H 0.09886 0.71542 0.86384 0.0
Co132 Co 0.93686 0.31557 0.41761 0.0
C133 C 0.97751 0.45933 0.3871 0.0
C134 C 0.06254 0.39194 0.37949 0.0
C135 C 0.08596 0.45644 0.36639 0.0
N136 N 0.9947 0.39342 0.39471 0.0
N137 N 1.03243 0.49811 0.37116 0.0
H138 H 0.92654 0.47881 0.39354 0.0
H139 H 0.09444 0.3479 0.37704 0.0
C140 C 0.06071 0.22596 0.40261 0.0
O141 O 0.04295 0.20721 0.32365 0.0
N142 N 0.88293 0.23468 0.43773 0.0
C143 C 0.8395 0.22207 0.50372 0.0
C144 C 0.82103 0.15465 0.50083 0.0
C145 C 0.88847 0.17524 0.39392 0.0
N146 N 0.85162 0.12538 0.43155 0.0
C147 C 0.89252 0.4009 0.55689 0.0
C148 C 0.93602 0.32087 0.69333 0.0
C149 C 0.89935 0.3806 0.71226 0.0
C150 C 0.879 0.42128 0.64209 0.0
C151 C 0.95037 0.30328 0.60674 0.0
N152 N 0.92776 0.34274 0.53947 0.0
H153 H 0.87258 0.43159 0.50489 0.0
H154 H 0.97614 0.25588 0.59413 0.0
H155 H 0.82284 0.25877 0.55155 0.0
H156 H 0.91922 0.1684 0.33621 0.0
O157 O 0.85788 0.36341 0.37375 0.0
O158 O 0.92796 0.30353 0.2917 0.0
O159 O 1.02141 0.26345 0.44787 0.0
C160 C 0.87507 0.34362 0.29673 0.0
H161 H 0.138 0.47149 0.35451 0.0
H162 H 0.78616 0.12958 0.54496 0.0
H163 H 0.95162 0.28634 0.74439 0.0
H164 H 0.85191 0.46844 0.65217 0.0
Co165 Co 0.75171 0.93686 0.41761 0.0
C166 C 0.60794 0.97752 0.38707 0.0
C167 C 0.67532 0.06254 0.37952 0.0
C168 C 0.61082 0.08597 0.3664 0.0
N169 N 0.67385 0.99471 0.39471 0.0
N170 N 0.56915 1.03243 0.37114 0.0
H171 H 0.58847 0.92654 0.39349 0.0
H172 H 0.71936 0.09445 0.3771 0.0
C173 C 0.84131 0.06071 0.40264 0.0
O174 O 0.86005 0.04297 0.32368 0.0
N175 N 0.8326 0.88293 0.43773 0.0
C176 C 0.84522 0.83948 0.50369 0.0
C177 C 0.91263 0.821 0.50079 0.0
C178 C 0.89204 0.88849 0.39393 0.0
N179 N 0.94189 0.85162 0.43154 0.0
C180 C 0.66638 0.89252 0.55687 0.0
C181 C 0.74644 0.93598 0.69334 0.0
C182 C 0.6867 0.89933 0.71224 0.0
C183 C 0.646 0.87899 0.64206 0.0
C184 C 0.76402 0.95034 0.60675 0.0
N185 N 0.72455 0.92775 0.53947 0.0
H186 H 0.63569 0.87259 0.50486 0.0
H187 H 0.81142 0.97611 0.59415 0.0
H188 H 0.80852 0.8228 0.55151 0.0
H189 H 0.89887 0.91925 0.33624 0.0
O190 O 0.70387 0.85789 0.37374 0.0
O191 O 0.76373 0.92797 0.29171 0.0
O192 O 0.80383 1.02141 0.4479 0.0
C193 C 0.72365 0.87507 0.29672 0.0
H194 H 0.59577 0.138 0.35454 0.0
H195 H 0.93771 0.7861 0.5449 0.0
H196 H 0.78097 0.95158 0.7444 0.0
H197 H 0.59884 0.85191 0.65212 0.0
Co198 Co 0.13042 0.75171 0.41756 0.0
C199 C 0.08974 0.60792 0.38721 0.0
C200 C 1.00477 0.67534 0.37925 0.0
C201 C 0.98131 0.61084 0.36624 0.0
N202 N 0.07258 0.67385 0.39466 0.0
N203 N 0.03482 0.56915 0.37128 0.0
H204 H 0.1407 0.58844 0.39373 0.0
H205 H 0.97291 0.71941 0.37655 0.0
C206 C 1.00656 0.84132 0.40263 0.0
O207 O 1.02429 0.8601 0.32369 0.0
N208 N 0.18434 0.83261 0.43769 0.0
C209 C 0.22778 0.84524 0.50368 0.0
C210 C 0.24625 0.91265 0.50078 0.0
C211 C 0.17879 0.89203 0.39387 0.0
N212 N 0.21565 0.9419 0.4315 0.0
C213 C 0.17486 0.66642 0.55682 0.0
C214 C 0.13127 0.74639 0.69329 0.0
C215 C 0.16797 0.68668 0.7122 0.0
C216 C 0.18838 0.64603 0.64201 0.0
C217 C 0.11692 0.76398 0.6067 0.0
N218 N 0.13957 0.72455 0.53942 0.0
H219 H 0.19485 0.63577 0.50482 0.0
H220 H 0.09111 0.81136 0.59411 0.0
H221 H 0.24445 0.80855 0.55152 0.0
H222 H 0.14804 0.89886 0.33616 0.0
O223 O 0.20939 0.70388 0.37369 0.0
O224 O 0.13928 0.76373 0.29165 0.0
O225 O 0.04586 0.8038 0.44786 0.0
C226 C 0.19219 0.72365 0.29667 0.0
H227 H 0.9293 0.5958 0.35417 0.0
H228 H 0.28114 0.93774 0.54491 0.0
H229 H 0.11563 0.7809 0.74436 0.0
H230 H 0.21551 0.59889 0.65207 0.0
Co231 Co 0.31557 0.13042 0.41757 0.0
C232 C 0.45934 0.08974 0.38719 0.0
C233 C 0.39193 1.00475 0.37931 0.0
C234 C 0.45643 0.9813 0.36628 0.0
N235 N 0.39341 0.07257 0.39467 0.0
N236 N 0.49812 0.03481 0.37127 0.0
H237 H 0.47882 0.1407 0.39369 0.0
H238 H 0.34786 0.97288 0.37666 0.0
C239 C 0.22595 1.00656 0.40259 0.0
O240 O 0.20718 1.02429 0.32364 0.0
N241 N 0.23468 0.18434 0.4377 0.0
C242 C 0.22206 0.22777 0.5037 0.0
C243 C 0.15465 0.24625 0.5008 0.0
C244 C 0.17524 0.17881 0.39387 0.0
N245 N 0.1254 0.21569 0.43148 0.0
C246 C 0.40088 0.17482 0.55686 0.0
C247 C 0.32089 0.13124 0.6933 0.0
C248 C 0.38061 0.16794 0.71223 0.0
C249 C 0.42126 0.18834 0.64206 0.0
C250 C 0.3033 0.1169 0.6067 0.0
N251 N 0.34274 0.13954 0.53944 0.0
H252 H 0.43154 0.19479 0.50487 0.0
H253 H 0.25592 0.09109 0.59409 0.0
H254 H 0.25875 0.24441 0.55156 0.0
H255 H 0.16841 0.14806 0.33615 0.0
O256 O 0.3634 0.20938 0.37372 0.0
O257 O 0.30353 0.13929 0.29166 0.0
O258 O 0.26346 0.04587 0.44784 0.0
C259 C 0.34362 0.19219 0.2967 0.0
H260 H 0.47147 0.92929 0.35424 0.0
H261 H 0.12956 0.28112 0.54495 0.0
H262 H 0.28639 0.11561 0.74436 0.0
H263 H 0.4684 0.21546 0.65214 0.0
loop_
_geom_bond_atom_site_label_1
_geom_bond_atom_site_label_2
_geom_bond_distance
_geom_bond_site_symmetry_2
_ccdc_geom_bond_type
Co0 N4 2.148 . S
Co0 N10 2.128 . S
Co0 N20 2.194 1_554 S
Co0 O25 2.351 . S
Co0 O26 2.155 . S
Co0 O27 2.096 . S
C1 N4 1.301 . S
C1 N5 1.328 . S
C1 H6 0.930 . S
C2 C3 1.333 . S
C2 N4 1.317 . S
C2 H7 0.930 . S
C3 C2 1.333 . S
C3 N5 1.350 . S
C3 H29 0.931 . S
N4 Co0 2.148 . S
N4 C1 1.301 . S
N4 C2 1.317 . S
N5 C1 1.328 . S
N5 C3 1.350 . S
H6 C1 0.930 . S
H7 C2 0.930 . S
C8 O9 1.224 1_554 S
C8 O27 1.247 . S
O9 C8 1.224 1_556 S
N10 Co0 2.128 . S
N10 C11 1.355 . S
N10 C13 1.311 . S
C11 N10 1.355 . S
C11 C12 1.363 . S
C11 H23 0.929 . S
C12 C11 1.363 . S
C12 N14 1.375 . S
C12 H30 0.931 . S
C13 N10 1.311 . S
C13 N14 1.347 . S
C13 H24 0.929 . S
N14 C12 1.375 . S
N14 C13 1.347 . S
C15 C18 1.365 . S
C15 N20 1.328 . S
C15 H21 0.929 . S
C16 C17 1.362 . S
C16 C19 1.378 . S
C16 H31 0.929 . S
C17 C16 1.362 . S
C17 C18 1.366 . S
C18 C15 1.365 . S
C18 C17 1.366 . S
C18 H32 0.930 . S
C19 C16 1.378 . S
C19 N20 1.315 . S
C19 H22 0.930 . S
N20 Co0 2.194 1_556 S
N20 C15 1.328 . S
N20 C19 1.315 . S
H21 C15 0.929 . S
H22 C19 0.930 . S
H23 C11 0.929 . S
H24 C13 0.929 . S
O25 Co0 2.351 . S
O25 C28 1.244 . S
O26 Co0 2.155 . S
O26 C28 1.240 . S
O27 Co0 2.096 . S
O27 C8 1.247 . S
C28 O25 1.244 . S
C28 O26 1.240 . S
H29 C3 0.931 . S
H30 C12 0.931 . S
H31 C16 0.929 . S
H32 C18 0.930 . S
Co33 N37 2.148 . S
Co33 N43 2.128 . S
Co33 N53 2.194 1_554 S
Co33 O58 2.351 . S
Co33 O59 2.155 . S
Co33 O60 2.096 . S
C34 N37 1.301 . S
C34 N38 1.328 . S
C34 H39 0.930 . S
C35 C36 1.333 . S
C35 N37 1.317 . S
C35 H40 0.930 . S
C36 C35 1.333 . S
C36 N38 1.350 . S
C36 H62 0.931 . S
N37 Co33 2.148 . S
N37 C34 1.301 . S
N37 C35 1.317 . S
N38 C34 1.328 . S
N38 C36 1.350 . S
H39 C34 0.930 . S
H40 C35 0.930 . S
C41 O42 1.224 1_554 S
C41 O60 1.247 . S
O42 C41 1.224 1_556 S
N43 Co33 2.128 . S
N43 C44 1.355 . S
N43 C46 1.311 . S
C44 N43 1.355 . S
C44 C45 1.363 . S
C44 H56 0.929 . S
C45 C44 1.363 . S
C45 N47 1.375 . S
C45 H63 0.931 . S
C46 N43 1.311 . S
C46 N47 1.347 . S
C46 H57 0.929 . S
N47 C45 1.375 . S
N47 C46 1.347 . S
C48 C51 1.365 . S
C48 N53 1.328 . S
C48 H54 0.929 . S
C49 C50 1.362 . S
C49 C52 1.378 . S
C49 H64 0.929 . S
C50 C49 1.362 . S
C50 C51 1.366 . S
C51 C48 1.365 . S
C51 C50 1.366 . S
C51 H65 0.930 . S
C52 C49 1.378 . S
C52 N53 1.315 . S
C52 H55 0.930 . S
N53 Co33 2.194 1_556 S
N53 C48 1.328 . S
N53 C52 1.315 . S
H54 C48 0.929 . S
H55 C52 0.930 . S
H56 C44 0.929 . S
H57 C46 0.929 . S
O58 Co33 2.351 . S
O58 C61 1.244 . S
O59 Co33 2.155 . S
O59 C61 1.240 . S
O60 Co33 2.096 . S
O60 C41 1.247 . S
C61 O58 1.244 . S
C61 O59 1.240 . S
H62 C36 0.931 . S
H63 C45 0.931 . S
H64 C49 0.929 . S
H65 C51 0.930 . S
Co66 N70 2.148 . S
Co66 N76 2.128 . S
Co66 N86 2.194 1_554 S
Co66 O91 2.351 . S
Co66 O92 2.155 . S
Co66 O93 2.096 . S
C67 N70 1.301 . S
C67 N71 1.328 . S
C67 H72 0.930 . S
C68 C69 1.333 . S
C68 N70 1.317 . S
C68 H73 0.930 . S
C69 C68 1.333 . S
C69 N71 1.350 . S
C69 H95 0.931 . S
N70 Co66 2.148 . S
N70 C67 1.301 . S
N70 C68 1.317 . S
N71 C67 1.328 . S
N71 C69 1.350 . S
H72 C67 0.930 . S
H73 C68 0.930 . S
C74 O75 1.224 1_554 S
C74 O93 1.247 . S
O75 C74 1.224 1_556 S
N76 Co66 2.128 . S
N76 C77 1.355 . S
N76 C79 1.311 . S
C77 N76 1.355 . S
C77 C78 1.363 . S
C77 H89 0.929 . S
C78 C77 1.363 . S
C78 N80 1.375 . S
C78 H96 0.931 . S
C79 N76 1.311 . S
C79 N80 1.347 . S
C79 H90 0.929 . S
N80 C78 1.375 . S
N80 C79 1.347 . S
C81 C84 1.365 . S
C81 N86 1.328 . S
C81 H87 0.929 . S
C82 C83 1.362 . S
C82 C85 1.378 . S
C82 H97 0.929 . S
C83 C82 1.362 . S
C83 C84 1.366 . S
C84 C81 1.365 . S
C84 C83 1.366 . S
C84 H98 0.930 . S
C85 C82 1.378 . S
C85 N86 1.315 . S
C85 H88 0.930 . S
N86 Co66 2.194 1_556 S
N86 C81 1.328 . S
N86 C85 1.315 . S
H87 C81 0.929 . S
H88 C85 0.930 . S
H89 C77 0.929 . S
H90 C79 0.929 . S
O91 Co66 2.351 . S
O91 C94 1.244 . S
O92 Co66 2.155 . S
O92 C94 1.240 . S
O93 Co66 2.096 . S
O93 C74 1.247 . S
C94 O91 1.244 . S
C94 O92 1.240 . S
H95 C69 0.931 . S
H96 C78 0.931 . S
H97 C82 0.929 . S
H98 C84 0.930 . S
Co99 N103 2.148 . S
Co99 N109 2.128 . S
Co99 N119 2.194 1_554 S
Co99 O124 2.351 . S
Co99 O125 2.155 . S
Co99 O126 2.096 . S
C100 N103 1.301 . S
C100 N104 1.328 . S
C100 H105 0.930 . S
C101 C102 1.333 . S
C101 N103 1.317 . S
C101 H106 0.930 . S
C102 C101 1.333 . S
C102 N104 1.350 . S
C102 H128 0.931 . S
N103 Co99 2.148 . S
N103 C100 1.301 . S
N103 C101 1.317 . S
N104 C100 1.328 . S
N104 C102 1.350 . S
H105 C100 0.930 . S
H106 C101 0.930 . S
C107 O108 1.224 1_554 S
C107 O126 1.247 . S
O108 C107 1.224 1_556 S
N109 Co99 2.128 . S
N109 C110 1.355 . S
N109 C112 1.311 . S
C110 N109 1.355 . S
C110 C111 1.363 . S
C110 H122 0.929 . S
C111 C110 1.363 . S
C111 N113 1.375 . S
C111 H129 0.931 . S
C112 N109 1.311 . S
C112 N113 1.347 . S
C112 H123 0.929 . S
N113 C111 1.375 . S
N113 C112 1.347 . S
C114 C117 1.365 . S
C114 N119 1.328 . S
C114 H120 0.929 . S
C115 C116 1.362 . S
C115 C118 1.378 . S
C115 H130 0.929 . S
C116 C115 1.362 . S
C116 C117 1.366 . S
C117 C114 1.365 . S
C117 C116 1.366 . S
C117 H131 0.930 . S
C118 C115 1.378 . S
C118 N119 1.315 . S
C118 H121 0.930 . S
N119 Co99 2.194 1_556 S
N119 C114 1.328 . S
N119 C118 1.315 . S
H120 C114 0.929 . S
H121 C118 0.930 . S
H122 C110 0.929 . S
H123 C112 0.929 . S
O124 Co99 2.351 . S
O124 C127 1.244 . S
O125 Co99 2.155 . S
O125 C127 1.240 . S
O126 Co99 2.096 . S
O126 C107 1.247 . S
C127 O124 1.244 . S
C127 O125 1.240 . S
H128 C102 0.931 . S
H129 C111 0.931 . S
H130 C115 0.929 . S
H131 C117 0.930 . S
Co132 N136 2.148 . S
Co132 N142 2.128 . S
Co132 N152 2.194 . S
Co132 O157 2.351 . S
Co132 O158 2.155 . S
Co132 O159 2.104 . S
C133 N136 1.301 . S
C133 N137 1.328 1_655 S
C133 H138 0.930 . S
C134 C135 1.333 . S
C134 N136 1.317 1_455 S
C134 H139 0.930 . S
C135 C134 1.333 . S
C135 N137 1.350 . S
C135 H161 0.931 . S
N136 Co132 2.148 . S
N136 C133 1.301 . S
N136 C134 1.317 1_655 S
N137 C133 1.328 1_455 S
N137 C135 1.350 . S
H138 C133 0.930 . S
H139 C134 0.930 . S
C140 O141 1.224 . S
C140 O159 1.241 1_455 S
O141 C140 1.224 . S
N142 Co132 2.128 . S
N142 C143 1.355 . S
N142 C145 1.311 . S
C143 N142 1.355 . S
C143 C144 1.363 . S
C143 H155 0.929 . S
C144 C143 1.363 . S
C144 N146 1.375 . S
C144 H162 0.931 . S
C145 N142 1.311 . S
C145 N146 1.347 . S
C145 H156 0.929 . S
N146 C144 1.375 . S
N146 C145 1.347 . S
C147 C150 1.365 . S
C147 N152 1.328 . S
C147 H153 0.929 . S
C148 C149 1.362 . S
C148 C151 1.378 . S
C148 H163 0.929 . S
C149 C148 1.362 . S
C149 C150 1.366 . S
C150 C147 1.365 . S
C150 C149 1.366 . S
C150 H164 0.930 . S
C151 C148 1.378 . S
C151 N152 1.315 . S
C151 H154 0.930 . S
N152 Co132 2.194 . S
N152 C147 1.328 . S
N152 C151 1.315 . S
H153 C147 0.929 . S
H154 C151 0.930 . S
H155 C143 0.929 . S
H156 C145 0.929 . S
O157 Co132 2.351 . S
O157 C160 1.244 . S
O158 Co132 2.155 . S
O158 C160 1.240 . S
O159 Co132 2.104 . S
O159 C140 1.241 1_655 S
C160 O157 1.244 . S
C160 O158 1.240 . S
H161 C135 0.931 . S
H162 C144 0.931 . S
H163 C148 0.929 . S
H164 C150 0.930 . S
Co165 N169 2.148 . S
Co165 N175 2.128 . S
Co165 N185 2.194 . S
Co165 O190 2.351 . S
Co165 O191 2.155 . S
Co165 O192 2.104 . S
C166 N169 1.301 . S
C166 N170 1.328 1_565 S
C166 H171 0.930 . S
C167 C168 1.333 . S
C167 N169 1.317 1_545 S
C167 H172 0.930 . S
C168 C167 1.333 . S
C168 N170 1.350 . S
C168 H194 0.931 . S
N169 Co165 2.148 . S
N169 C166 1.301 . S
N169 C167 1.317 1_565 S
N170 C166 1.328 1_545 S
N170 C168 1.350 . S
H171 C166 0.930 . S
H172 C167 0.930 . S
C173 O174 1.224 . S
C173 O192 1.241 1_545 S
O174 C173 1.224 . S
N175 Co165 2.128 . S
N175 C176 1.355 . S
N175 C178 1.311 . S
C176 N175 1.355 . S
C176 C177 1.363 . S
C176 H188 0.929 . S
C177 C176 1.363 . S
C177 N179 1.375 . S
C177 H195 0.931 . S
C178 N175 1.311 . S
C178 N179 1.347 . S
C178 H189 0.929 . S
N179 C177 1.375 . S
N179 C178 1.347 . S
C180 C183 1.365 . S
C180 N185 1.328 . S
C180 H186 0.929 . S
C181 C182 1.362 . S
C181 C184 1.378 . S
C181 H196 0.929 . S
C182 C181 1.362 . S
C182 C183 1.366 . S
C183 C180 1.365 . S
C183 C182 1.366 . S
C183 H197 0.930 . S
C184 C181 1.378 . S
C184 N185 1.315 . S
C184 H187 0.930 . S
N185 Co165 2.194 . S
N185 C180 1.328 . S
N185 C184 1.315 . S
H186 C180 0.929 . S
H187 C184 0.930 . S
H188 C176 0.929 . S
H189 C178 0.929 . S
O190 Co165 2.351 . S
O190 C193 1.244 . S
O191 Co165 2.155 . S
O191 C193 1.240 . S
O192 Co165 2.104 . S
O192 C173 1.241 1_565 S
C193 O190 1.244 . S
C193 O191 1.240 . S
H194 C168 0.931 . S
H195 C177 0.931 . S
H196 C181 0.929 . S
H197 C183 0.930 . S
Co198 N202 2.148 . S
Co198 N208 2.128 . S
Co198 N218 2.194 . S
Co198 O223 2.351 . S
Co198 O224 2.155 . S
Co198 O225 2.104 . S
C199 N202 1.301 . S
C199 N203 1.328 1_455 S
C199 H204 0.930 . S
C200 C201 1.333 . S
C200 N202 1.317 1_655 S
C200 H205 0.930 . S
C201 C200 1.333 . S
C201 N203 1.350 . S
C201 H227 0.931 . S
N202 Co198 2.148 . S
N202 C199 1.301 . S
N202 C200 1.317 1_455 S
N203 C199 1.328 1_655 S
N203 C201 1.350 . S
H204 C199 0.930 . S
H205 C200 0.930 . S
C206 O207 1.224 . S
C206 O225 1.241 1_655 S
O207 C206 1.224 . S
N208 Co198 2.128 . S
N208 C209 1.355 . S
N208 C211 1.311 . S
C209 N208 1.355 . S
C209 C210 1.363 . S
C209 H221 0.929 . S
C210 C209 1.363 . S
C210 N212 1.375 . S
C210 H228 0.931 . S
C211 N208 1.311 . S
C211 N212 1.347 . S
C211 H222 0.929 . S
N212 C210 1.375 . S
N212 C211 1.347 . S
C213 C216 1.365 . S
C213 N218 1.328 . S
C213 H219 0.929 . S
C214 C215 1.362 . S
C214 C217 1.378 . S
C214 H229 0.929 . S
C215 C214 1.362 . S
C215 C216 1.366 . S
C216 C213 1.365 . S
C216 C215 1.366 . S
C216 H230 0.930 . S
C217 C214 1.378 . S
C217 N218 1.315 . S
C217 H220 0.930 . S
N218 Co198 2.194 . S
N218 C213 1.328 . S
N218 C217 1.315 . S
H219 C213 0.929 . S
H220 C217 0.930 . S
H221 C209 0.929 . S
H222 C211 0.929 . S
O223 Co198 2.351 . S
O223 C226 1.244 . S
O224 Co198 2.155 . S
O224 C226 1.240 . S
O225 Co198 2.104 . S
O225 C206 1.241 1_455 S
C226 O223 1.244 . S
C226 O224 1.240 . S
H227 C201 0.931 . S
H228 C210 0.931 . S
H229 C214 0.929 . S
H230 C216 0.930 . S
Co231 N235 2.148 . S
Co231 N241 2.128 . S
Co231 N251 2.194 . S
Co231 O256 2.351 . S
Co231 O257 2.155 . S
Co231 O258 2.104 . S
C232 N235 1.301 . S
C232 N236 1.328 1_545 S
C232 H237 0.930 . S
C233 C234 1.333 . S
C233 N235 1.317 1_565 S
C233 H238 0.930 . S
C234 C233 1.333 . S
C234 N236 1.350 . S
C234 H260 0.931 . S
N235 Co231 2.148 . S
N235 C232 1.301 . S
N235 C233 1.317 1_545 S
N236 C232 1.328 1_565 S
N236 C234 1.350 . S
H237 C232 0.930 . S
H238 C233 0.930 . S
C239 O240 1.224 . S
C239 O258 1.241 1_565 S
O240 C239 1.224 . S
N241 Co231 2.128 . S
N241 C242 1.355 . S
N241 C244 1.311 . S
C242 N241 1.355 . S
C242 C243 1.363 . S
C242 H254 0.929 . S
C243 C242 1.363 . S
C243 N245 1.375 . S
C243 H261 0.931 . S
C244 N241 1.311 . S
C244 N245 1.347 . S
C244 H255 0.929 . S
N245 C243 1.375 . S
N245 C244 1.347 . S
C246 C249 1.365 . S
C246 N251 1.328 . S
C246 H252 0.929 . S
C247 C248 1.362 . S
C247 C250 1.378 . S
C247 H262 0.929 . S
C248 C247 1.362 . S
C248 C249 1.366 . S
C249 C246 1.365 . S
C249 C248 1.366 . S
C249 H263 0.930 . S
C250 C247 1.378 . S
C250 N251 1.315 . S
C250 H253 0.930 . S
N251 Co231 2.194 . S
N251 C246 1.328 . S
N251 C250 1.315 . S
H252 C246 0.929 . S
H253 C250 0.930 . S
H254 C242 0.929 . S
H255 C244 0.929 . S
O256 Co231 2.351 . S
O256 C259 1.244 . S
O257 Co231 2.155 . S
O257 C259 1.240 . S
O258 Co231 2.104 . S
O258 C239 1.241 1_545 S
C259 O256 1.244 . S
C259 O257 1.240 . S
H260 C234 0.931 . S
H261 C243 0.931 . S
H262 C247 0.929 . S
H263 C249 0.930 . S
N71 N5 1.875 1_565 S
N38 N104 1.875 1_655 S
N137 N203 1.875 1_455 S
N170 N236 1.875 1_545 S
C107 N14 1.578 . S
C8 N47 1.578 . S
N80 C41 1.578 . S
N113 C74 1.578 . S
C173 N146 1.578 . S
C206 N179 1.578 . S
C239 N212 1.578 . S
C140 N245 1.578 . S
C28 C259 1.430 . S
C61 C160 1.430 . S
C193 C94 1.430 . S
C226 C127 1.430 . S
C83 C182 1.555 . S
C215 C116 1.555 . S
C248 C17 1.555 . S
C149 C50 1.555 . S
