# Generated by pormake.
# Topology umf, (4)-cn, num edge types: 1
# Building blocks:
#     Node 0, Type 0, BuildingBlock: KOZSID_clean_sbu_0, # of connection points: 4
#     Node 1, Type 0, BuildingBlock: KOZSID_clean_sbu_0, # of connection points: 4
#     Node 2, Type 0, BuildingBlock: KOZSID_clean_sbu_0, # of connection points: 4
#     Node 3, Type 0, BuildingBlock: KOZSID_clean_sbu_0, # of connection points: 4
#     Node 4, Type 0, BuildingBlock: KOZSID_clean_sbu_0, # of connection points: 4
#     Node 5, Type 0, BuildingBlock: KOZSID_clean_sbu_0, # of connection points: 4
#     Node 6, Type 0, BuildingBlock: KOZSID_clean_sbu_0, # of connection points: 4
#     Node 7, Type 0, BuildingBlock: KOZSID_clean_sbu_0, # of connection points: 4
#     Edge 8, Type (0, 0), BuildingBlock: CIFDUS_clean_linker_0, # of connection points: 2
#     Edge 9, Type (0, 0), BuildingBlock: CIFDUS_clean_linker_0, # of connection points: 2
#     Edge 10, Type (0, 0), BuildingBlock: CIFDUS_clean_linker_0, # of connection points: 2
#     Edge 11, Type (0, 0), BuildingBlock: CIFDUS_clean_linker_0, # of connection points: 2
#     Edge 12, Type (0, 0), BuildingBlock: CIFDUS_clean_linker_0, # of connection points: 2
#     Edge 13, Type (0, 0), BuildingBlock: CIFDUS_clean_linker_0, # of connection points: 2
#     Edge 14, Type (0, 0), BuildingBlock: CIFDUS_clean_linker_0, # of connection points: 2
#     Edge 15, Type (0, 0), BuildingBlock: CIFDUS_clean_linker_0, # of connection points: 2
#     Edge 16, Type (0, 0), BuildingBlock: CIFDUS_clean_linker_0, # of connection points: 2
#     Edge 17, Type (0, 0), BuildingBlock: CIFDUS_clean_linker_0, # of connection points: 2
#     Edge 18, Type (0, 0), BuildingBlock: CIFDUS_clean_linker_0, # of connection points: 2
#     Edge 19, Type (0, 0), BuildingBlock: CIFDUS_clean_linker_0, # of connection points: 2
#     Edge 20, Type (0, 0), BuildingBlock: CIFDUS_clean_linker_0, # of connection points: 2
#     Edge 21, Type (0, 0), BuildingBlock: CIFDUS_clean_linker_0, # of connection points: 2
#     Edge 22, Type (0, 0), BuildingBlock: CIFDUS_clean_linker_0, # of connection points: 2
#     Edge 23, Type (0, 0), BuildingBlock: CIFDUS_clean_linker_0, # of connection points: 2
# Relax obj value: 0.078
# Max RMSD: 0.192
# Mean RMSD: 0.192
data_MOF--net-umf--node1-KOZSID_clean_sbu_0--edge1-CIFDUS_clean_linker_0
_symmetry_space_group_name_H-M    P1
_symmetry_Int_Tables_number       1
_symmetry_cell_setting            triclinic
loop_
_symmetry_equiv_pos_as_xyz
'x, y, z'
_cell_length_a     34.339335
_cell_length_b     34.31577
_cell_length_c     51.96607
_cell_angle_alpha  89.931493
_cell_angle_beta   90.05726
_cell_angle_gamma 89.869275
loop_
_atom_site_label
_atom_site_type_symbol
_atom_site_fract_x
_atom_site_fract_y
_atom_site_fract_z
_atom_type_partial_charge
C0 C 0.13636 0.2366 0.179 0.0
C1 C 0.17667 0.2322 0.17842 0.0
C2 C 0.1898 0.2512 0.15701 0.0
C3 C 0.15711 0.26482 0.14487 0.0
N4 N 0.12408 0.25569 0.15747 0.0
Co5 Co 0.07051 0.26122 0.14344 0.0
N6 N 0.08981 0.26438 0.1075 0.0
C7 C 0.1265 0.27297 0.10047 0.0
C8 C 0.13216 0.27141 0.0744 0.0
C9 C 0.09666 0.26181 0.06432 0.0
C10 C 0.07097 0.25865 0.08491 0.0
N11 N 0.01714 0.26647 0.12947 0.0
C12 C 1.00381 0.2622 0.10495 0.0
C13 C 0.96421 0.27006 0.10383 0.0
C14 C 0.95274 0.27972 0.12843 0.0
C15 C 0.98587 0.27737 0.14327 0.0
N16 N 0.05249 0.25735 0.17952 0.0
C17 C 0.0177 0.26964 0.18814 0.0
C18 C 0.01287 0.26197 0.21394 0.0
C19 C 0.04667 0.24363 0.22177 0.0
C20 C 0.07038 0.24068 0.20026 0.0
N21 N 0.07242 0.31935 0.1462 0.0
C22 C 0.05874 0.4011 0.15061 0.0
C23 C 0.07178 0.37887 0.17175 0.0
C24 C 0.07907 0.33831 0.16905 0.0
C25 C 0.05409 0.38146 0.12719 0.0
C26 C 0.0606 0.3412 0.12546 0.0
N27 N 0.06568 0.20418 0.14048 0.0
C28 C 0.02618 0.14718 0.14789 0.0
C29 C 0.05213 0.12348 0.13419 0.0
C30 C 0.08587 0.1414 0.12417 0.0
C31 C 0.09226 0.18162 0.12774 0.0
C32 C 0.03307 0.18696 0.15039 0.0
H33 H 0.11825 0.19459 0.11983 0.0
H34 H 1.01132 0.20382 0.16025 0.0
H35 H 0.08887 0.32213 0.1857 0.0
H36 H 0.05419 0.32767 0.10729 0.0
C37 C 0.15611 0.27425 0.11878 0.0
C38 C 0.11039 0.22373 0.20029 0.0
C39 C 0.02853 0.25431 0.08219 0.0
C40 C 0.98809 0.2796 0.1704 0.0
H41 H 0.19527 0.21529 0.19088 0.0
H42 H 0.21931 0.25112 0.14971 0.0
H43 H 0.15925 0.27489 0.06402 0.0
H44 H 0.09066 0.25779 0.04408 0.0
H45 H 0.94573 0.26941 0.08695 0.0
H46 H 0.92353 0.28665 0.13479 0.0
H47 H 0.98706 0.26701 0.22541 0.0
H48 H 0.05294 0.23325 0.24101 0.0
H49 H 0.07651 0.39271 0.1902 0.0
H50 H 0.04411 0.39702 0.11026 0.0
H51 H 1.00042 0.13533 0.15692 0.0
H52 H 0.107 0.12483 0.11327 0.0
C53 C 0.78273 0.12179 0.68813 0.0
C54 C 0.77973 0.16168 0.69228 0.0
C55 C 0.76272 0.17732 0.67073 0.0
C56 C 0.75583 0.14624 0.65478 0.0
N57 N 0.7673 0.11207 0.66497 0.0
Co58 Co 0.7599 0.06033 0.64891 0.0
N59 N 0.75655 0.08353 0.61397 0.0
C60 C 0.74775 0.12104 0.6089 0.0
C61 C 0.7457 0.12903 0.5831 0.0
C62 C 0.75321 0.0943 0.57114 0.0
C63 C 0.75956 0.06681 0.59042 0.0
N64 N 0.75227 1.00873 0.63271 0.0
C65 C 0.75505 0.99782 0.60759 0.0
C66 C 0.74687 0.9584 0.60508 0.0
C67 C 0.73788 0.94477 0.62927 0.0
C68 C 0.74122 0.97636 0.64534 0.0
N69 N 0.76369 0.03861 0.68432 0.0
C70 C 0.75148 1.00296 0.69141 0.0
C71 C 0.76236 0.99401 0.71617 0.0
C72 C 0.78239 0.02601 0.72509 0.0
C73 C 0.78223 0.05347 0.70544 0.0
N74 N 0.70218 0.0643 0.65255 0.0
C75 C 0.62126 0.04875 0.65935 0.0
C76 C 0.64469 0.06247 0.67976 0.0
C77 C 0.68474 0.07035 0.67594 0.0
C78 C 0.63917 0.04608 0.63513 0.0
C79 C 0.67904 0.05378 0.63218 0.0
N80 N 0.81667 0.05305 0.64505 0.0
C81 C 0.87053 1.00846 0.65002 0.0
C82 C 0.89504 0.03218 0.63542 0.0
C83 C 0.87978 0.06817 0.62678 0.0
C84 C 0.84047 0.07817 0.63196 0.0
C85 C 0.83201 0.01882 0.65405 0.0
H86 H 0.82907 0.10547 0.62478 0.0
H87 H 0.81447 0.99785 0.66391 0.0
H88 H 0.70198 0.07939 0.69226 0.0
H89 H 0.69138 0.04893 0.61344 0.0
C90 C 0.74614 0.14863 0.62869 0.0
C91 C 0.79828 0.09387 0.70714 0.0
C92 C 0.76252 0.02459 0.58566 0.0
C93 C 0.74024 0.97578 0.67247 0.0
H94 H 0.78883 0.17786 0.7091 0.0
H95 H 0.75763 0.20788 0.66674 0.0
H96 H 0.73989 0.15685 0.57402 0.0
H97 H 0.75258 0.08968 0.55056 0.0
H98 H 0.74709 0.9413 0.5876 0.0
H99 H 0.73096 0.91507 0.63457 0.0
H100 H 0.75909 0.96631 0.72591 0.0
H101 H 0.79655 0.02777 0.7436 0.0
H102 H 0.63278 0.06557 0.69892 0.0
H103 H 0.62273 0.03722 0.61835 0.0
H104 H 0.88067 0.98125 0.65823 0.0
H105 H 0.89754 0.08793 0.6156 0.0
C106 C 0.90167 0.78488 0.19048 0.0
C107 C 0.86215 0.78065 0.19534 0.0
C108 C 0.84659 0.76158 0.17454 0.0
C109 C 0.87738 0.75488 0.15827 0.0
N110 N 0.91127 0.76831 0.16764 0.0
Co111 Co 0.96252 0.76389 0.15049 0.0
N112 N 0.938 0.75848 0.11609 0.0
C113 C 0.90093 0.74742 0.11188 0.0
C114 C 0.8919 0.74468 0.08624 0.0
C115 C 0.92552 0.75411 0.07352 0.0
C116 C 0.95341 0.76222 0.09219 0.0
N117 N 0.01373 0.75932 0.13331 0.0
C118 C 0.02327 0.7622 0.10797 0.0
C119 C 0.063 0.75639 0.10472 0.0
C120 C 0.0783 0.74881 0.12869 0.0
C121 C 0.04732 0.75056 0.14536 0.0
N122 N 0.98559 0.77007 0.1853 0.0
C123 C 0.0223 0.76047 0.19179 0.0
C124 C 0.0316 0.77275 0.2162 0.0
C125 C 0.99877 0.7911 0.22546 0.0
C126 C 0.97058 0.78862 0.20636 0.0
N127 N 0.96273 0.70593 0.15456 0.0
C128 C 0.98027 0.62491 0.16062 0.0
C129 C 0.9675 0.64806 0.18149 0.0
C130 C 0.95868 0.68814 0.17805 0.0
C131 C 0.98157 0.64335 0.1365 0.0
C132 C 0.97303 0.68321 0.13394 0.0
N133 N 0.96513 0.82088 0.14609 0.0
C134 C 1.00412 0.87898 0.14987 0.0
C135 C 0.9755 0.90166 0.13782 0.0
C136 C 0.94067 0.88275 0.13058 0.0
C137 C 0.93596 0.84241 0.13506 0.0
C138 C 0.99872 0.8392 0.15333 0.0
H139 H 0.90916 0.8285 0.12926 0.0
H140 H 0.02243 0.8233 0.16179 0.0
H141 H 0.95013 0.70507 0.19463 0.0
H142 H 0.97664 0.69579 0.11513 0.0
C143 C 0.87441 0.74461 0.13228 0.0
C144 C 0.92954 0.8029 0.20847 0.0
C145 C 0.99512 0.76749 0.08655 0.0
C146 C 0.04927 0.7504 0.17247 0.0
H147 H 0.84617 0.79051 0.21206 0.0
H148 H 0.81614 0.75538 0.1711 0.0
H149 H 0.8641 0.73724 0.07777 0.0
H150 H 0.92926 0.75368 0.05286 0.0
H151 H 0.07923 0.75726 0.08689 0.0
H152 H 0.10861 0.74388 0.13345 0.0
H153 H 0.05987 0.77156 0.22539 0.0
H154 H 0.99681 0.80576 0.24378 0.0
H155 H 0.96559 0.63584 0.20065 0.0
H156 H 0.9897 0.62731 0.1194 0.0
H157 H 0.03093 0.89165 0.15687 0.0
H158 H 0.91743 0.89866 0.12116 0.0
C159 C 0.23925 0.89788 0.69108 0.0
C160 C 0.24263 0.85832 0.69636 0.0
C161 C 0.25863 0.84137 0.67493 0.0
C162 C 0.26458 0.87143 0.65793 0.0
N163 N 0.25355 0.90617 0.6674 0.0
Co164 Co 0.25938 0.95691 0.64977 0.0
N165 N 0.26057 0.93156 0.6155 0.0
C166 C 0.26839 0.89365 0.61113 0.0
C167 C 0.26616 0.88386 0.58561 0.0
C168 C 0.25694 0.91781 0.5731 0.0
C169 C 0.2546 0.94676 0.59176 0.0
N170 N 0.26538 1.00749 0.63203 0.0
C171 C 0.26045 0.01678 0.60678 0.0
C172 C 0.26912 0.05576 0.60268 0.0
C173 C 0.27994 0.07097 0.62616 0.0
C174 C 0.27745 0.04054 0.64333 0.0
N175 N 0.25767 0.9807 0.68458 0.0
C176 C 0.27022 0.01674 0.69038 0.0
C177 C 0.26061 0.02708 0.71513 0.0
C178 C 0.24102 0.99562 0.72533 0.0
C179 C 0.24007 0.9671 0.7064 0.0
N180 N 0.31739 0.95359 0.65184 0.0
C181 C 0.3991 0.9671 0.65443 0.0
C182 C 0.37748 0.95772 0.6766 0.0
C183 C 0.33691 0.9504 0.67483 0.0
C184 C 0.37895 0.96789 0.63099 0.0
C185 C 0.33868 0.96147 0.63012 0.0
N186 N 0.2023 0.96362 0.6472 0.0
C187 C 0.14862 1.00849 0.65193 0.0
C188 C 0.12392 0.98469 0.63751 0.0
C189 C 0.13893 0.94839 0.62933 0.0
C190 C 0.17816 0.93825 0.6346 0.0
C191 C 0.18717 0.99808 0.65592 0.0
H192 H 0.18929 0.91071 0.62771 0.0
H193 H 0.20493 0.01936 0.6653 0.0
H194 H 0.32117 0.9436 0.69225 0.0
H195 H 0.32469 0.96501 0.61175 0.0
C196 C 0.27187 0.8673 0.6316 0.0
C197 C 0.22383 0.92692 0.70928 0.0
C198 C 0.25099 0.98867 0.58611 0.0
C199 C 0.28024 0.04282 0.67041 0.0
H200 H 0.23413 0.84322 0.71375 0.0
H201 H 0.26332 0.81057 0.67166 0.0
H202 H 0.26956 0.85525 0.57715 0.0
H203 H 0.25299 0.92075 0.55255 0.0
H204 H 0.26817 0.07138 0.58458 0.0
H205 H 0.28762 0.10089 0.63027 0.0
H206 H 0.26436 0.05532 0.72405 0.0
H207 H 0.22786 0.99489 0.74417 0.0
H208 H 0.39175 0.95602 0.69515 0.0
H209 H 0.39403 0.975 0.6133 0.0
H210 H 0.13871 0.03591 0.65988 0.0
H211 H 0.12107 0.9285 0.61833 0.0
C212 C 0.1238 0.78331 0.82808 0.0
C213 C 0.16304 0.77814 0.82257 0.0
C214 C 0.17946 0.76077 0.84377 0.0
C215 C 0.14941 0.75585 0.86088 0.0
N216 N 0.11515 0.76874 0.85164 0.0
Co217 Co 0.06455 0.76575 0.86964 0.0
N218 N 0.09035 0.76286 0.9038 0.0
C219 C 0.12791 0.75328 0.90789 0.0
C220 C 0.13828 0.75501 0.93335 0.0
C221 C 0.10505 0.76575 0.9461 0.0
C222 C 0.07585 0.7694 0.92768 0.0
N223 N 0.01403 0.76238 0.8877 0.0
C224 C 1.00541 0.76703 0.91306 0.0
C225 C 0.96613 0.76016 0.91732 0.0
C226 C 0.95 0.75079 0.89386 0.0
C227 C 0.98019 0.75227 0.87653 0.0
N228 N 0.04021 0.76968 0.83506 0.0
C229 C 1.00333 0.75968 0.82943 0.0
C230 C 0.99305 0.77075 0.80492 0.0
C231 C 0.02542 0.78869 0.79469 0.0
C232 C 0.05436 0.78717 0.81336 0.0
N233 N 0.06435 0.70755 0.86734 0.0
C234 C 0.04233 0.62744 0.86499 0.0
C235 C 0.05291 0.64832 0.84265 0.0
C236 C 0.06427 0.68803 0.84427 0.0
C237 C 0.04687 0.64707 0.88851 0.0
C238 C 0.05709 0.68651 0.88925 0.0
N239 N 0.06168 0.82299 0.87235 0.0
C240 C 0.02179 0.88051 0.86758 0.0
C241 C 0.04978 0.90388 0.87956 0.0
C242 C 0.08493 0.88557 0.8871 0.0
C243 C 0.09046 0.84523 0.88304 0.0
C244 C 0.02783 0.84072 0.86478 0.0
H245 H 0.1175 0.83189 0.88905 0.0
H246 H 1.00425 0.8243 0.85674 0.0
H247 H 0.07089 0.70339 0.82666 0.0
H248 H 0.05656 0.70026 0.90781 0.0
C249 C 0.15362 0.74844 0.88722 0.0
C250 C 0.09536 0.80105 0.81032 0.0
C251 C 0.03419 0.77455 0.93368 0.0
C252 C 0.97718 0.75047 0.84947 0.0
H253 H 0.17831 0.78654 0.80523 0.0
H254 H 0.21006 0.75472 0.84689 0.0
H255 H 0.16685 0.75024 0.9416 0.0
H256 H 0.10272 0.76978 0.96668 0.0
H257 H 0.95087 0.76133 0.93552 0.0
H258 H 0.91968 0.74472 0.88986 0.0
H259 H 0.96445 0.76908 0.79622 0.0
H260 H 0.02651 0.80246 0.77603 0.0
H261 H 0.05072 0.63482 0.8239 0.0
H262 H 0.04111 0.63253 0.9066 0.0
H263 H 0.99484 0.89253 0.86023 0.0
H264 H 0.1078 0.90187 0.89649 0.0
C265 C 0.23804 0.13572 0.33584 0.0
C266 C 0.23494 0.17617 0.33531 0.0
C267 C 0.25202 0.18974 0.35729 0.0
C268 C 0.26376 0.15714 0.37043 0.0
N269 N 0.25513 0.12377 0.35807 0.0
Co270 Co 0.26196 0.0704 0.37219 0.0
N271 N 0.26379 0.09024 0.40809 0.0
C272 C 0.27195 0.12716 0.41491 0.0
C273 C 0.27311 0.13266 0.44098 0.0
C274 C 0.26565 0.09684 0.45134 0.0
C275 C 0.26013 0.07127 0.43086 0.0
N276 N 0.26943 0.01732 0.38645 0.0
C277 C 0.26622 1.00408 0.41107 0.0
C278 C 0.27477 0.96455 0.41214 0.0
C279 C 0.2844 0.95321 0.38754 0.0
C280 C 0.28108 0.98621 0.37268 0.0
N281 N 0.25865 0.0519 0.33608 0.0
C282 C 0.27108 0.01702 0.32769 0.0
C283 C 0.26378 1.01179 0.30187 0.0
C284 C 0.24564 0.04551 0.29369 0.0
C285 C 0.24262 0.06959 0.31499 0.0
N286 N 0.32009 0.07407 0.36966 0.0
C287 C 0.40201 0.06076 0.36578 0.0
C288 C 0.37978 0.07238 0.34427 0.0
C289 C 0.33914 0.07953 0.3467 0.0
C290 C 0.38227 0.05751 0.38926 0.0
C291 C 0.342 0.06385 0.39075 0.0
N292 N 0.20503 0.06361 0.37482 0.0
C293 C 0.15054 0.0197 0.37062 0.0
C294 C 0.12428 0.04789 0.37959 0.0
C295 C 0.13998 0.08471 0.38608 0.0
C296 C 0.18038 0.0918 0.38385 0.0
C297 C 0.1899 0.02832 0.36787 0.0
H298 H 0.1917 0.11989 0.38943 0.0
H299 H 0.20818 1.00564 0.36036 0.0
H300 H 0.32301 0.08811 0.32976 0.0
H301 H 0.32859 0.05826 0.40903 0.0
C302 C 0.27293 0.15673 0.39654 0.0
C303 C 0.22667 0.10992 0.31433 0.0
C304 C 0.25764 0.02868 0.43386 0.0
C305 C 0.28228 0.98805 0.34554 0.0
H306 H 0.22109 0.19432 0.32096 0.0
H307 H 0.25287 0.21967 0.36383 0.0
H308 H 0.27816 0.15959 0.45127 0.0
H309 H 0.2658 0.09031 0.4717 0.0
H310 H 0.27429 0.94588 0.42892 0.0
H311 H 0.29162 0.92407 0.38116 0.0
H312 H 0.26927 0.98589 0.29056 0.0
H313 H 0.23559 0.05161 0.27435 0.0
H314 H 0.39363 0.07601 0.32572 0.0
H315 H 0.39772 0.04857 0.40648 0.0
H316 H 0.14139 0.99041 0.36604 0.0
H317 H 0.12145 0.1081 0.39277 0.0
C318 C 0.89665 0.2417 0.82474 0.0
C319 C 0.85738 0.24649 0.81908 0.0
C320 C 0.84101 0.26539 0.83967 0.0
C321 C 0.87111 0.27152 0.85658 0.0
N322 N 0.90533 0.25785 0.84785 0.0
Co323 Co 0.95599 0.26282 0.86568 0.0
N324 N 0.93031 0.26848 0.89966 0.0
C325 C 0.89299 0.27933 0.90327 0.0
C326 C 0.88309 0.28217 0.92875 0.0
C327 C 0.91638 0.27305 0.94201 0.0
C328 C 0.94497 0.26506 0.9238 0.0
N329 N 1.00656 0.26813 0.88359 0.0
C330 C 0.0153 0.26577 0.9091 0.0
C331 C 0.05478 0.27221 0.91296 0.0
C332 C 0.07077 0.27957 0.88918 0.0
C333 C 0.0404 0.2771 0.87202 0.0
N334 N 0.98025 0.25641 0.83123 0.0
C335 C 0.01706 0.26617 0.82527 0.0
C336 C 0.02737 0.25345 0.80115 0.0
C337 C 0.99507 0.23472 0.7915 0.0
C338 C 0.96612 0.23747 0.81006 0.0
N339 N 0.9555 0.32059 0.86115 0.0
C340 C 0.97316 0.40102 0.85435 0.0
C341 C 0.96177 0.37738 0.83348 0.0
C342 C 0.95251 0.33761 0.83733 0.0
C343 C 0.97329 0.38363 0.87877 0.0
C344 C 0.96469 0.34389 0.88172 0.0
N345 N 0.95941 0.20592 0.87045 0.0
C346 C 0.99942 0.14832 0.86692 0.0
C347 C 0.97129 0.12532 0.87906 0.0
C348 C 0.93614 0.14389 0.88624 0.0
C349 C 0.93063 0.18412 0.88152 0.0
C350 C 0.99338 0.18798 0.86343 0.0
H351 H 0.90356 0.19771 0.88718 0.0
H352 H 0.01694 0.20408 0.85512 0.0
H353 H 0.94461 0.32026 0.8208 0.0
H354 H 0.96776 0.33177 0.90071 0.0
C355 C 0.86715 0.28198 0.88246 0.0
C356 C 0.92514 0.2234 0.80731 0.0
C357 C 0.98654 0.26033 0.93009 0.0
C358 C 0.04325 0.27684 0.84495 0.0
H359 H 0.84208 0.23716 0.80196 0.0
H360 H 0.81048 0.27202 0.84248 0.0
H361 H 0.85494 0.28951 0.93676 0.0
H362 H 0.91945 0.27365 0.96273 0.0
H363 H 0.07036 0.27192 0.93107 0.0
H364 H 0.10114 0.28483 0.88488 0.0
H365 H 0.05596 0.2546 0.79244 0.0
H366 H 0.99405 0.2196 0.77332 0.0
H367 H 0.9605 0.38937 0.81422 0.0
H368 H 0.98204 0.40011 0.89556 0.0
H369 H 0.02641 0.13609 0.85985 0.0
H370 H 0.9132 0.12785 0.89576 0.0
C371 C 0.78329 0.90342 0.32548 0.0
C372 C 0.77787 0.86453 0.31905 0.0
C373 C 0.75902 0.8475 0.33941 0.0
C374 C 0.75356 0.87688 0.35697 0.0
N375 N 0.76755 0.91129 0.34881 0.0
Co376 Co 0.76382 0.96118 0.36773 0.0
N377 N 0.75823 0.93395 0.40119 0.0
C378 C 0.7479 0.89639 0.40423 0.0
C379 C 0.74756 0.88489 0.4295 0.0
C380 C 0.75777 0.91736 0.44324 0.0
C381 C 0.76322 0.94726 0.42553 0.0
N382 N 0.75915 1.01091 0.38674 0.0
C383 C 0.76255 0.01834 0.41234 0.0
C384 C 0.75557 0.05747 0.41723 0.0
C385 C 0.7475 0.07476 0.39386 0.0
C386 C 0.74976 0.04534 0.37597 0.0
N387 N 0.77075 0.9871 0.33392 0.0
C388 C 0.76185 0.02447 0.3288 0.0
C389 C 0.77458 0.03561 0.30482 0.0
C390 C 0.79244 1.00324 0.2944 0.0
C391 C 0.78931 0.97353 0.31243 0.0
N392 N 0.70598 0.96206 0.36343 0.0
C393 C 0.62528 0.98046 0.35716 0.0
C394 C 0.64876 0.96893 0.33616 0.0
C395 C 0.68867 0.95973 0.3397 0.0
C396 C 0.64321 0.98015 0.38148 0.0
C397 C 0.68296 0.97104 0.38417 0.0
N398 N 0.8209 0.96321 0.3721 0.0
C399 C 0.87861 1.00331 0.37165 0.0
C400 C 0.90233 0.9712 0.37666 0.0
C401 C 0.8844 0.9345 0.37933 0.0
C402 C 0.84345 0.93121 0.37735 0.0
C403 C 0.83859 0.99867 0.36912 0.0
H404 H 0.83007 0.90297 0.37975 0.0
H405 H 0.82216 0.02425 0.36427 0.0
H406 H 0.70588 0.95227 0.32301 0.0
H407 H 0.69529 0.97309 0.40317 0.0
C408 C 0.74424 0.87167 0.38294 0.0
C409 C 0.80241 0.93228 0.30877 0.0
C410 C 0.76908 0.98849 0.43248 0.0
C411 C 0.75071 0.04973 0.34895 0.0
H412 H 0.78699 0.84985 0.30164 0.0
H413 H 0.75225 0.81691 0.34173 0.0
H414 H 0.74181 0.85605 0.43703 0.0
H415 H 0.76038 0.91867 0.46395 0.0
H416 H 0.75599 0.0719 0.43573 0.0
H417 H 0.74209 0.10538 0.39031 0.0
H418 H 0.77364 0.06458 0.29658 0.0
H419 H 0.80698 1.00242 0.276 0.0
H420 H 0.63692 0.96834 0.31687 0.0
H421 H 0.62682 0.98739 0.3986 0.0
H422 H 0.89106 0.03197 0.36878 0.0
H423 H 0.9018 0.90873 0.38301 0.0
H424 H 1.01012 0.44269 0.18361 0.0
H425 H 0.08871 0.45754 0.11974 0.0
H426 H 0.07276 0.52684 0.11775 0.0
H427 H 0.03547 0.58333 0.13301 0.0
H428 H 0.95348 0.56913 0.19521 0.0
H429 H 0.97229 0.50064 0.19921 0.0
C430 C 0.02413 0.46123 0.1695 0.0
C431 C 0.05089 0.44449 0.15189 0.0
C432 C 0.01407 0.50154 0.16805 0.0
C433 C 0.06812 0.46922 0.13352 0.0
C434 C 0.05891 0.50904 0.13234 0.0
C435 C 0.02109 0.56546 0.14731 0.0
C436 C 0.99255 0.58237 0.16361 0.0
C437 C 0.03156 0.52553 0.14924 0.0
C438 C 0.97568 0.55794 0.18242 0.0
C439 C 0.98631 0.51832 0.18465 0.0
H440 H 0.44045 0.01916 0.68491 0.0
H441 H 0.45527 0.93486 0.62425 0.0
H442 H 0.52412 0.95161 0.6209 0.0
H443 H 0.58017 0.99107 0.63408 0.0
H444 H 0.56594 0.07824 0.69317 0.0
H445 H 0.49789 0.05905 0.69846 0.0
C446 C 0.45889 1.00411 0.67121 0.0
C447 C 0.44228 0.97556 0.65488 0.0
C448 C 0.49889 0.01453 0.66899 0.0
C449 C 0.46686 0.95691 0.63702 0.0
C450 C 0.50641 0.96655 0.63506 0.0
C451 C 0.56234 1.00646 0.64796 0.0
C452 C 0.57903 0.03656 0.66301 0.0
C453 C 0.52273 0.99566 0.65067 0.0
C454 C 0.55481 0.05483 0.68134 0.0
C455 C 0.51549 0.04396 0.68431 0.0
H456 H 0.95663 0.46492 0.88438 0.0
H457 H 0.02099 0.43152 0.81675 0.0
H458 H 0.0476 0.49758 0.81338 0.0
H459 H 0.05524 0.565 0.83103 0.0
H460 H 0.98686 0.59755 0.89742 0.0
H461 H 0.96039 0.53238 0.89992 0.0
C462 C 0.97644 0.47196 0.86883 0.0
C463 C 0.98672 0.4427 0.85094 0.0
C464 C 0.99164 0.51023 0.86693 0.0
C465 C 1.01208 0.45312 0.83075 0.0
C466 C 0.02762 0.49104 0.82891 0.0
C467 C 0.03435 0.55809 0.84595 0.0
C468 C 0.02452 0.58682 0.86451 0.0
C469 C 0.01797 0.51994 0.84706 0.0
C470 C 0.99683 0.57645 0.88343 0.0
C471 C 0.98104 0.53892 0.88476 0.0
H472 H 0.44394 1.01222 0.33283 0.0
H473 H 0.45822 0.09005 0.3972 0.0
H474 H 0.52718 0.0732 0.39984 0.0
H475 H 0.58361 0.03521 0.38507 0.0
H476 H 0.57009 0.95477 0.32193 0.0
H477 H 0.50186 0.9742 0.31748 0.0
C478 C 0.46227 0.0259 0.34719 0.0
C479 C 0.44539 0.05261 0.36478 0.0
C480 C 0.50244 0.01543 0.34897 0.0
C481 C 0.46993 0.06942 0.38345 0.0
C482 C 0.50958 0.05971 0.38501 0.0
C483 C 0.56591 0.02138 0.37044 0.0
C484 C 0.58291 0.99307 0.35401 0.0
C485 C 0.52616 0.03236 0.36814 0.0
C486 C 0.55877 0.97679 0.33482 0.0
C487 C 0.51932 0.9878 0.33232 0.0
H488 H 0.97725 0.20718 0.96902 0.0
H489 H 0.01871 0.32326 0.95368 0.0
H490 H 0.03045 0.33347 0.99965 0.0
H491 H 0.02975 0.30924 0.04435 0.0
H492 H 0.99178 0.19219 0.06005 0.0
H493 H 0.9763 0.18287 0.01426 0.0
C494 C 0.98946 0.23441 0.97581 0.0
C495 C 0.99819 0.26405 0.95786 0.0
C496 C 0.99575 0.24021 1.00245 0.0
C497 C 0.01292 0.29962 0.96697 0.0
C498 C 0.01911 0.30564 0.99331 0.0
C499 C 0.01749 0.28192 0.03773 0.0
C500 C 1.01183 0.25142 0.05555 0.0
C501 C 1.01054 0.27624 0.01124 0.0
C502 C 0.99612 0.21613 0.04676 0.0
C503 C 0.98779 0.21068 0.02052 0.0
H504 H 0.81663 0.03241 0.54734 0.0
H505 H 0.70074 0.99006 0.56187 0.0
H506 H 0.69169 0.97719 0.51595 0.0
H507 H 0.71588 0.97983 0.4712 0.0
H508 H 0.83167 0.02184 0.45618 0.0
H509 H 0.84124 0.03433 0.50232 0.0
C510 C 0.78976 0.01957 0.54043 0.0
C511 C 0.75982 1.01108 0.55818 0.0
C512 C 0.78441 0.01317 0.51376 0.0
C513 C 0.72468 0.99562 0.54883 0.0
C514 C 0.71929 0.98883 0.52248 0.0
C515 C 0.7432 0.99174 0.4781 0.0
C516 C 0.77321 0.9996 0.46032 0.0
C517 C 0.74876 0.99784 0.50472 0.0
C518 C 0.80822 0.0155 0.46946 0.0
C519 C 0.81376 0.02232 0.49587 0.0
H520 H 0.98452 0.82065 0.04775 0.0
H521 H 0.0311 0.7063 0.06307 0.0
H522 H 0.04497 0.69736 0.01727 0.0
H523 H 0.043 0.72154 0.97251 0.0
H524 H 0.99761 0.83611 0.9567 0.0
H525 H 0.98292 0.84514 1.0026 0.0
C526 C 0.99834 0.79411 0.04102 0.0
C527 C 1.00783 0.76461 0.05894 0.0
C528 C 1.00564 0.78892 0.01444 0.0
C529 C 0.02466 0.72989 0.04985 0.0
C530 C 0.03211 0.72458 0.02359 0.0
C531 C 0.02985 0.74846 0.97918 0.0
C532 C 0.02171 0.77831 0.96128 0.0
C533 C 0.02255 0.75376 1.00567 0.0
C534 C 1.0042 0.8128 0.9701 0.0
C535 C 0.99611 0.81803 0.99637 0.0
H536 H 0.2028 0.03367 0.47176 0.0
H537 H 0.3192 0.99241 0.457 0.0
H538 H 0.32838 0.97888 0.50285 0.0
H539 H 0.30436 0.98131 0.54763 0.0
H540 H 0.18833 0.02291 0.56289 0.0
H541 H 0.17836 0.03535 0.51675 0.0
C542 C 0.22975 0.02077 0.47859 0.0
C543 C 0.25987 0.01295 0.46082 0.0
C544 C 0.23533 0.01441 0.50523 0.0
C545 C 0.29513 0.99743 0.47005 0.0
C546 C 0.30063 0.99039 0.49637 0.0
C547 C 0.27704 0.99343 0.54079 0.0
C548 C 0.24709 1.0013 0.5586 0.0
C549 C 0.27121 0.99935 0.51419 0.0
C550 C 0.21183 0.01691 0.54957 0.0
C551 C 0.20602 0.02356 0.52316 0.0
H552 H 0.17763 0.23228 0.22972 0.0
H553 H 0.07583 0.15992 0.22338 0.0
H554 H 0.10143 0.1176 0.25776 0.0
H555 H 0.15497 0.10041 0.28946 0.0
H556 H 0.26377 0.16221 0.28374 0.0
H557 H 0.23531 0.20668 0.25223 0.0
C558 C 0.16185 0.20592 0.23435 0.0
C559 C 0.12542 0.19873 0.22257 0.0
C560 C 0.17868 0.17916 0.25186 0.0
C561 C 0.10409 0.16638 0.23158 0.0
C562 C 0.11902 0.14175 0.2511 0.0
C563 C 0.17272 0.12294 0.28079 0.0
C564 C 0.21127 0.12872 0.28985 0.0
C565 C 0.15671 0.14747 0.26123 0.0
C566 C 0.23391 0.15756 0.27774 0.0
C567 C 0.2175 0.18333 0.25984 0.0
H568 H 0.87437 0.16199 0.8104 0.0
H569 H 0.93684 0.23022 0.75442 0.0
H570 H 0.90899 0.19141 0.71978 0.0
H571 H 0.86232 0.14135 0.70459 0.0
H572 H 0.78658 0.087 0.76002 0.0
H573 H 0.8236 0.1162 0.79505 0.0
C574 C 0.88241 0.16804 0.79062 0.0
C575 C 0.91004 0.19777 0.78552 0.0
C576 C 0.86337 0.14775 0.7704 0.0
C577 C 0.91851 0.20586 0.75953 0.0
C578 C 0.90155 0.18419 0.73947 0.0
C579 C 0.85423 0.13534 0.72437 0.0
C580 C 0.82283 0.10956 0.7293 0.0
C581 C 0.87359 0.15529 0.7446 0.0
C582 C 0.81215 0.10378 0.75521 0.0
C583 C 0.83284 0.12155 0.77543 0.0
H584 H 0.8637 0.88127 0.31161 0.0
H585 H 0.79567 0.94516 0.25601 0.0
H586 H 0.8327 0.91543 0.22107 0.0
H587 H 0.88108 0.86666 0.20563 0.0
H588 H 0.93797 0.79265 0.26122 0.0
H589 H 0.90931 0.8303 0.29621 0.0
C590 C 0.85741 0.88928 0.29184 0.0
C591 C 0.82795 0.9174 0.28688 0.0
C592 C 0.87701 0.86967 0.27154 0.0
C593 C 0.81958 0.926 0.26093 0.0
C594 C 0.84028 0.90807 0.24073 0.0
C595 C 0.88775 0.85914 0.22542 0.0
C596 C 0.91386 0.82788 0.23042 0.0
C597 C 0.86875 0.87943 0.24573 0.0
C598 C 0.92059 0.81793 0.25636 0.0
C599 C 0.9033 0.83906 0.27656 0.0
H600 H 0.15964 0.87988 0.70696 0.0
H601 H 0.23418 0.93643 0.76215 0.0
H602 H 0.19655 0.90838 0.7973 0.0
H603 H 0.14583 0.8627 0.81293 0.0
H604 H 0.08402 0.79291 0.75749 0.0
H605 H 0.11247 0.83061 0.7225 0.0
C606 C 0.1673 0.88666 0.7267 0.0
C607 C 0.19864 0.91258 0.73149 0.0
C608 C 0.14753 0.86746 0.74707 0.0
C609 C 0.20873 0.91945 0.75738 0.0
C610 C 0.18769 0.90233 0.77769 0.0
C611 C 0.13803 0.8561 0.79319 0.0
C612 C 0.1105 0.82619 0.78831 0.0
C613 C 0.15732 0.87585 0.77283 0.0
C614 C 0.10231 0.81739 0.76239 0.0
C615 C 0.11961 0.83844 0.74215 0.0
H616 H 0.98081 0.08641 0.13158 0.0
H617 H 0.10452 0.06264 0.12966 0.0
H618 H 0.09118 0.99311 0.12738 0.0
H619 H 0.04513 0.93885 0.12857 0.0
H620 H 0.92208 0.96214 0.1372 0.0
H621 H 0.93473 0.03191 0.134 0.0
C622 C 1.00515 0.0663 0.13112 0.0
C623 C 0.04386 0.08059 0.13111 0.0
C624 C 0.99738 0.02596 0.13098 0.0
C625 C 0.07445 0.0533 0.1294 0.0
C626 C 0.06685 0.01323 0.12835 0.0
C627 C 0.02087 0.95892 0.13023 0.0
C628 C 0.98257 0.94452 0.13359 0.0
C629 C 0.02849 0.99922 0.1296 0.0
C630 C 0.9518 0.97168 0.13445 0.0
C631 C 0.95907 1.01184 0.13288 0.0
H632 H 0.05599 0.94229 0.63147 0.0
H633 H 0.0998 0.06011 0.62872 0.0
H634 H 0.03387 0.08545 0.62713 0.0
H635 H 0.96299 0.07484 0.63068 0.0
H636 H 0.91941 0.95707 0.62653 0.0
H637 H 0.98542 0.93173 0.62621 0.0
C638 C 0.05136 0.97346 0.63001 0.0
C639 C 0.08337 0.99898 0.63155 0.0
C640 C 0.01298 0.98824 0.62812 0.0
C641 C 0.07609 0.0394 0.6291 0.0
C642 C 0.03816 0.05417 0.62786 0.0
C643 C 0.96776 0.04369 0.62917 0.0
C644 C 0.93574 0.01812 0.62989 0.0
C645 C 1.00622 0.02894 0.62813 0.0
C646 C 0.94313 0.97775 0.62741 0.0
C647 C 0.98109 0.96301 0.62697 0.0
H648 H 0.04207 0.08836 0.8864 0.0
H649 H 0.91863 0.06443 0.88183 0.0
H650 H 0.93221 0.99489 0.88505 0.0
H651 H 0.97881 0.94084 0.88612 0.0
H652 H 0.1023 0.96489 0.88233 0.0
H653 H 0.08864 0.03436 0.88551 0.0
C654 C 0.01783 0.06828 0.88549 0.0
C655 C 0.97915 0.08251 0.88332 0.0
C656 C 0.0259 0.02803 0.88586 0.0
C657 C 0.94864 0.05516 0.88364 0.0
C658 C 0.95643 0.01509 0.88522 0.0
C659 C 1.00305 0.96093 0.88537 0.0
C660 C 0.04177 0.94672 0.88347 0.0
C661 C 0.99497 1.00119 0.88574 0.0
C662 C 0.07226 0.9741 0.88396 0.0
C663 C 0.06444 0.01415 0.88552 0.0
H664 H 0.94369 0.02429 0.40461 0.0
H665 H 0.95755 0.93227 0.34896 0.0
H666 H 0.02647 0.94902 0.34408 0.0
H667 H 0.08099 0.99249 0.35327 0.0
H668 H 0.06933 0.0806 0.4123 0.0
H669 H 1.00087 0.06391 0.41709 0.0
C670 C 0.96201 1.00753 0.3917 0.0
C671 C 0.94546 0.97692 0.3772 0.0
C672 C 1.00172 0.01731 0.38905 0.0
C673 C 0.96957 0.95552 0.36059 0.0
C674 C 1.0089 0.96544 0.35759 0.0
C675 C 0.0643 1.00765 0.36781 0.0
C676 C 0.08151 0.03804 0.3824 0.0
C677 C 0.02514 0.99665 0.37144 0.0
C678 C 0.05765 0.05775 0.40025 0.0
C679 C 0.01829 0.04783 0.40332 0.0
loop_
_geom_bond_atom_site_label_1
_geom_bond_atom_site_label_2
_geom_bond_distance
_geom_bond_site_symmetry_2
_ccdc_geom_bond_type
C0 C1 1.443 . S
C0 N4 1.376 . S
C0 C38 1.389 . S
C1 C0 1.443 . S
C1 C2 1.340 . S
C1 H41 0.951 . S
C2 C1 1.340 . S
C2 C3 1.439 . S
C2 H42 0.950 . S
C3 C2 1.439 . S
C3 N4 1.374 . S
C3 C37 1.395 . S
N4 C0 1.376 . S
N4 C3 1.374 . S
N4 Co5 2.008 . S
Co5 N4 2.008 . S
Co5 N6 1.995 . S
Co5 N11 2.008 . S
Co5 N16 1.995 . S
Co5 N21 2.282 . S
Co5 N27 2.282 . S
N6 Co5 1.995 . S
N6 C7 1.376 . S
N6 C10 1.383 . S
C7 N6 1.376 . S
C7 C8 1.446 . S
C7 C37 1.391 . S
C8 C7 1.446 . S
C8 C9 1.339 . S
C8 H43 0.949 . S
C9 C8 1.339 . S
C9 C10 1.439 . S
C9 H44 0.950 . S
C10 N6 1.383 . S
C10 C9 1.439 . S
C10 C39 1.392 . S
N11 Co5 2.008 . S
N11 C12 1.376 1_455 S
N11 C15 1.374 1_455 S
C12 N11 1.376 1_655 S
C12 C13 1.443 . S
C12 C39 1.389 1_655 S
C13 C12 1.443 . S
C13 C14 1.340 . S
C13 H45 0.951 . S
C14 C13 1.340 . S
C14 C15 1.439 . S
C14 H46 0.950 . S
C15 N11 1.374 1_655 S
C15 C14 1.439 . S
C15 C40 1.395 . S
N16 Co5 1.995 . S
N16 C17 1.359 1_455 S
N16 C20 1.383 . S
C17 N16 1.359 1_655 S
C17 C18 1.448 . S
C17 C40 1.404 . S
C18 C17 1.448 . S
C18 C19 1.339 1_655 S
C18 H47 0.949 . S
C19 C18 1.339 1_455 S
C19 C20 1.439 . S
C19 H48 0.950 . S
C20 N16 1.383 . S
C20 C19 1.439 . S
C20 C38 1.392 . S
N21 Co5 2.282 . S
N21 C24 1.332 . S
N21 C26 1.332 . S
C22 C23 1.386 . S
C22 C25 1.388 . S
C23 C22 1.386 . S
C23 C24 1.382 . S
C23 H49 0.950 . S
C24 N21 1.332 . S
C24 C23 1.382 . S
C24 H35 0.952 . S
C25 C22 1.388 . S
C25 C26 1.382 . S
C25 H50 0.950 . S
C26 N21 1.332 . S
C26 C25 1.382 . S
C26 H36 0.948 . S
N27 Co5 2.282 . S
N27 C31 1.332 . S
N27 C32 1.332 . S
C28 C29 1.388 . S
C28 C32 1.382 . S
C28 H51 0.950 . S
C29 C28 1.388 . S
C29 C30 1.386 . S
C30 C29 1.386 . S
C30 C31 1.382 . S
C30 H52 0.950 . S
C31 N27 1.332 . S
C31 C30 1.382 . S
C31 H33 0.952 . S
C32 N27 1.332 . S
C32 C28 1.382 . S
C32 H34 0.948 . S
H33 C31 0.952 . S
H34 C32 0.948 . S
H35 C24 0.952 . S
H36 C26 0.948 . S
C37 C3 1.395 . S
C37 C7 1.391 . S
C38 C0 1.389 . S
C38 C20 1.392 . S
C39 C10 1.392 . S
C39 C12 1.389 1_455 S
C40 C15 1.395 . S
C40 C17 1.404 . S
H41 C1 0.951 . S
H42 C2 0.950 . S
H43 C8 0.949 . S
H44 C9 0.950 . S
H45 C13 0.951 . S
H46 C14 0.950 . S
H47 C18 0.949 . S
H48 C19 0.950 . S
H49 C23 0.950 . S
H50 C25 0.950 . S
H51 C28 0.950 . S
H52 C30 0.950 . S
C53 C54 1.443 . S
C53 N57 1.376 . S
C53 C91 1.389 . S
C54 C53 1.443 . S
C54 C55 1.340 . S
C54 H94 0.951 . S
C55 C54 1.340 . S
C55 C56 1.439 . S
C55 H95 0.950 . S
C56 C55 1.439 . S
C56 N57 1.374 . S
C56 C90 1.395 . S
N57 C53 1.376 . S
N57 C56 1.374 . S
N57 Co58 2.008 . S
Co58 N57 2.008 . S
Co58 N59 1.995 . S
Co58 N64 2.008 . S
Co58 N69 1.995 . S
Co58 N74 2.282 . S
Co58 N80 2.282 . S
N59 Co58 1.995 . S
N59 C60 1.376 . S
N59 C63 1.383 . S
C60 N59 1.376 . S
C60 C61 1.446 . S
C60 C90 1.391 . S
C61 C60 1.446 . S
C61 C62 1.339 . S
C61 H96 0.949 . S
C62 C61 1.339 . S
C62 C63 1.439 . S
C62 H97 0.950 . S
C63 N59 1.383 . S
C63 C62 1.439 . S
C63 C92 1.392 . S
N64 Co58 2.008 . S
N64 C65 1.376 1_545 S
N64 C68 1.374 1_545 S
C65 N64 1.376 1_565 S
C65 C66 1.443 . S
C65 C92 1.389 1_565 S
C66 C65 1.443 . S
C66 C67 1.340 . S
C66 H98 0.951 . S
C67 C66 1.340 . S
C67 C68 1.439 . S
C67 H99 0.950 . S
C68 N64 1.374 1_565 S
C68 C67 1.439 . S
C68 C93 1.395 . S
N69 Co58 1.995 . S
N69 C70 1.359 1_545 S
N69 C73 1.383 . S
C70 N69 1.359 1_565 S
C70 C71 1.448 . S
C70 C93 1.404 . S
C71 C70 1.448 . S
C71 C72 1.339 1_565 S
C71 H100 0.949 . S
C72 C71 1.339 1_545 S
C72 C73 1.439 . S
C72 H101 0.950 . S
C73 N69 1.383 . S
C73 C72 1.439 . S
C73 C91 1.392 . S
N74 Co58 2.282 . S
N74 C77 1.332 . S
N74 C79 1.332 . S
C75 C76 1.386 . S
C75 C78 1.388 . S
C76 C75 1.386 . S
C76 C77 1.382 . S
C76 H102 0.950 . S
C77 N74 1.332 . S
C77 C76 1.382 . S
C77 H88 0.952 . S
C78 C75 1.388 . S
C78 C79 1.382 . S
C78 H103 0.950 . S
C79 N74 1.332 . S
C79 C78 1.382 . S
C79 H89 0.948 . S
N80 Co58 2.282 . S
N80 C84 1.332 . S
N80 C85 1.332 . S
C81 C82 1.388 . S
C81 C85 1.382 . S
C81 H104 0.950 . S
C82 C81 1.388 . S
C82 C83 1.386 . S
C83 C82 1.386 . S
C83 C84 1.382 . S
C83 H105 0.950 . S
C84 N80 1.332 . S
C84 C83 1.382 . S
C84 H86 0.952 . S
C85 N80 1.332 . S
C85 C81 1.382 . S
C85 H87 0.948 . S
H86 C84 0.952 . S
H87 C85 0.948 . S
H88 C77 0.952 . S
H89 C79 0.948 . S
C90 C56 1.395 . S
C90 C60 1.391 . S
C91 C53 1.389 . S
C91 C73 1.392 . S
C92 C63 1.392 . S
C92 C65 1.389 1_545 S
C93 C68 1.395 . S
C93 C70 1.404 . S
H94 C54 0.951 . S
H95 C55 0.950 . S
H96 C61 0.949 . S
H97 C62 0.950 . S
H98 C66 0.951 . S
H99 C67 0.950 . S
H100 C71 0.949 . S
H101 C72 0.950 . S
H102 C76 0.950 . S
H103 C78 0.950 . S
H104 C81 0.950 . S
H105 C83 0.950 . S
C106 C107 1.443 . S
C106 N110 1.376 . S
C106 C144 1.389 . S
C107 C106 1.443 . S
C107 C108 1.340 . S
C107 H147 0.951 . S
C108 C107 1.340 . S
C108 C109 1.439 . S
C108 H148 0.950 . S
C109 C108 1.439 . S
C109 N110 1.374 . S
C109 C143 1.395 . S
N110 C106 1.376 . S
N110 C109 1.374 . S
N110 Co111 2.008 . S
Co111 N110 2.008 . S
Co111 N112 1.995 . S
Co111 N117 2.008 . S
Co111 N122 1.995 . S
Co111 N127 2.282 . S
Co111 N133 2.282 . S
N112 Co111 1.995 . S
N112 C113 1.376 . S
N112 C116 1.383 . S
C113 N112 1.376 . S
C113 C114 1.446 . S
C113 C143 1.391 . S
C114 C113 1.446 . S
C114 C115 1.339 . S
C114 H149 0.949 . S
C115 C114 1.339 . S
C115 C116 1.439 . S
C115 H150 0.950 . S
C116 N112 1.383 . S
C116 C115 1.439 . S
C116 C145 1.392 . S
N117 Co111 2.008 . S
N117 C118 1.376 1_655 S
N117 C121 1.374 1_655 S
C118 N117 1.376 1_455 S
C118 C119 1.443 . S
C118 C145 1.389 1_455 S
C119 C118 1.443 . S
C119 C120 1.340 . S
C119 H151 0.951 . S
C120 C119 1.340 . S
C120 C121 1.439 . S
C120 H152 0.950 . S
C121 N117 1.374 1_455 S
C121 C120 1.439 . S
C121 C146 1.395 . S
N122 Co111 1.995 . S
N122 C123 1.359 1_655 S
N122 C126 1.383 . S
C123 N122 1.359 1_455 S
C123 C124 1.448 . S
C123 C146 1.404 . S
C124 C123 1.448 . S
C124 C125 1.339 1_455 S
C124 H153 0.949 . S
C125 C124 1.339 1_655 S
C125 C126 1.439 . S
C125 H154 0.950 . S
C126 N122 1.383 . S
C126 C125 1.439 . S
C126 C144 1.392 . S
N127 Co111 2.282 . S
N127 C130 1.332 . S
N127 C132 1.332 . S
C128 C129 1.386 . S
C128 C131 1.388 . S
C129 C128 1.386 . S
C129 C130 1.382 . S
C129 H155 0.950 . S
C130 N127 1.332 . S
C130 C129 1.382 . S
C130 H141 0.952 . S
C131 C128 1.388 . S
C131 C132 1.382 . S
C131 H156 0.950 . S
C132 N127 1.332 . S
C132 C131 1.382 . S
C132 H142 0.948 . S
N133 Co111 2.282 . S
N133 C137 1.332 . S
N133 C138 1.332 . S
C134 C135 1.388 . S
C134 C138 1.382 . S
C134 H157 0.950 . S
C135 C134 1.388 . S
C135 C136 1.386 . S
C136 C135 1.386 . S
C136 C137 1.382 . S
C136 H158 0.950 . S
C137 N133 1.332 . S
C137 C136 1.382 . S
C137 H139 0.952 . S
C138 N133 1.332 . S
C138 C134 1.382 . S
C138 H140 0.948 . S
H139 C137 0.952 . S
H140 C138 0.948 . S
H141 C130 0.952 . S
H142 C132 0.948 . S
C143 C109 1.395 . S
C143 C113 1.391 . S
C144 C106 1.389 . S
C144 C126 1.392 . S
C145 C116 1.392 . S
C145 C118 1.389 1_655 S
C146 C121 1.395 . S
C146 C123 1.404 . S
H147 C107 0.951 . S
H148 C108 0.950 . S
H149 C114 0.949 . S
H150 C115 0.950 . S
H151 C119 0.951 . S
H152 C120 0.950 . S
H153 C124 0.949 . S
H154 C125 0.950 . S
H155 C129 0.950 . S
H156 C131 0.950 . S
H157 C134 0.950 . S
H158 C136 0.950 . S
C159 C160 1.443 . S
C159 N163 1.376 . S
C159 C197 1.389 . S
C160 C159 1.443 . S
C160 C161 1.340 . S
C160 H200 0.951 . S
C161 C160 1.340 . S
C161 C162 1.439 . S
C161 H201 0.950 . S
C162 C161 1.439 . S
C162 N163 1.374 . S
C162 C196 1.395 . S
N163 C159 1.376 . S
N163 C162 1.374 . S
N163 Co164 2.008 . S
Co164 N163 2.008 . S
Co164 N165 1.995 . S
Co164 N170 2.008 . S
Co164 N175 1.995 . S
Co164 N180 2.282 . S
Co164 N186 2.282 . S
N165 Co164 1.995 . S
N165 C166 1.376 . S
N165 C169 1.383 . S
C166 N165 1.376 . S
C166 C167 1.446 . S
C166 C196 1.391 . S
C167 C166 1.446 . S
C167 C168 1.339 . S
C167 H202 0.949 . S
C168 C167 1.339 . S
C168 C169 1.439 . S
C168 H203 0.950 . S
C169 N165 1.383 . S
C169 C168 1.439 . S
C169 C198 1.392 . S
N170 Co164 2.008 . S
N170 C171 1.376 1_565 S
N170 C174 1.374 1_565 S
C171 N170 1.376 1_545 S
C171 C172 1.443 . S
C171 C198 1.389 1_545 S
C172 C171 1.443 . S
C172 C173 1.340 . S
C172 H204 0.951 . S
C173 C172 1.340 . S
C173 C174 1.439 . S
C173 H205 0.950 . S
C174 N170 1.374 1_545 S
C174 C173 1.439 . S
C174 C199 1.395 . S
N175 Co164 1.995 . S
N175 C176 1.359 1_565 S
N175 C179 1.383 . S
C176 N175 1.359 1_545 S
C176 C177 1.448 . S
C176 C199 1.404 . S
C177 C176 1.448 . S
C177 C178 1.339 1_545 S
C177 H206 0.949 . S
C178 C177 1.339 1_565 S
C178 C179 1.439 . S
C178 H207 0.950 . S
C179 N175 1.383 . S
C179 C178 1.439 . S
C179 C197 1.392 . S
N180 Co164 2.282 . S
N180 C183 1.332 . S
N180 C185 1.332 . S
C181 C182 1.386 . S
C181 C184 1.388 . S
C182 C181 1.386 . S
C182 C183 1.382 . S
C182 H208 0.950 . S
C183 N180 1.332 . S
C183 C182 1.382 . S
C183 H194 0.952 . S
C184 C181 1.388 . S
C184 C185 1.382 . S
C184 H209 0.950 . S
C185 N180 1.332 . S
C185 C184 1.382 . S
C185 H195 0.948 . S
N186 Co164 2.282 . S
N186 C190 1.332 . S
N186 C191 1.332 . S
C187 C188 1.388 . S
C187 C191 1.382 . S
C187 H210 0.950 . S
C188 C187 1.388 . S
C188 C189 1.386 . S
C189 C188 1.386 . S
C189 C190 1.382 . S
C189 H211 0.950 . S
C190 N186 1.332 . S
C190 C189 1.382 . S
C190 H192 0.952 . S
C191 N186 1.332 . S
C191 C187 1.382 . S
C191 H193 0.948 . S
H192 C190 0.952 . S
H193 C191 0.948 . S
H194 C183 0.952 . S
H195 C185 0.948 . S
C196 C162 1.395 . S
C196 C166 1.391 . S
C197 C159 1.389 . S
C197 C179 1.392 . S
C198 C169 1.392 . S
C198 C171 1.389 1_565 S
C199 C174 1.395 . S
C199 C176 1.404 . S
H200 C160 0.951 . S
H201 C161 0.950 . S
H202 C167 0.949 . S
H203 C168 0.950 . S
H204 C172 0.951 . S
H205 C173 0.950 . S
H206 C177 0.949 . S
H207 C178 0.950 . S
H208 C182 0.950 . S
H209 C184 0.950 . S
H210 C187 0.950 . S
H211 C189 0.950 . S
C212 C213 1.443 . S
C212 N216 1.376 . S
C212 C250 1.389 . S
C213 C212 1.443 . S
C213 C214 1.340 . S
C213 H253 0.951 . S
C214 C213 1.340 . S
C214 C215 1.439 . S
C214 H254 0.950 . S
C215 C214 1.439 . S
C215 N216 1.374 . S
C215 C249 1.395 . S
N216 C212 1.376 . S
N216 C215 1.374 . S
N216 Co217 2.008 . S
Co217 N216 2.008 . S
Co217 N218 1.995 . S
Co217 N223 2.008 . S
Co217 N228 1.995 . S
Co217 N233 2.282 . S
Co217 N239 2.282 . S
N218 Co217 1.995 . S
N218 C219 1.376 . S
N218 C222 1.383 . S
C219 N218 1.376 . S
C219 C220 1.446 . S
C219 C249 1.391 . S
C220 C219 1.446 . S
C220 C221 1.339 . S
C220 H255 0.949 . S
C221 C220 1.339 . S
C221 C222 1.439 . S
C221 H256 0.950 . S
C222 N218 1.383 . S
C222 C221 1.439 . S
C222 C251 1.392 . S
N223 Co217 2.008 . S
N223 C224 1.376 1_455 S
N223 C227 1.374 1_455 S
C224 N223 1.376 1_655 S
C224 C225 1.443 . S
C224 C251 1.389 1_655 S
C225 C224 1.443 . S
C225 C226 1.340 . S
C225 H257 0.951 . S
C226 C225 1.340 . S
C226 C227 1.439 . S
C226 H258 0.950 . S
C227 N223 1.374 1_655 S
C227 C226 1.439 . S
C227 C252 1.395 . S
N228 Co217 1.995 . S
N228 C229 1.359 1_455 S
N228 C232 1.383 . S
C229 N228 1.359 1_655 S
C229 C230 1.448 . S
C229 C252 1.404 . S
C230 C229 1.448 . S
C230 C231 1.339 1_655 S
C230 H259 0.949 . S
C231 C230 1.339 1_455 S
C231 C232 1.439 . S
C231 H260 0.950 . S
C232 N228 1.383 . S
C232 C231 1.439 . S
C232 C250 1.392 . S
N233 Co217 2.282 . S
N233 C236 1.332 . S
N233 C238 1.332 . S
C234 C235 1.386 . S
C234 C237 1.388 . S
C235 C234 1.386 . S
C235 C236 1.382 . S
C235 H261 0.950 . S
C236 N233 1.332 . S
C236 C235 1.382 . S
C236 H247 0.952 . S
C237 C234 1.388 . S
C237 C238 1.382 . S
C237 H262 0.950 . S
C238 N233 1.332 . S
C238 C237 1.382 . S
C238 H248 0.948 . S
N239 Co217 2.282 . S
N239 C243 1.332 . S
N239 C244 1.332 . S
C240 C241 1.388 . S
C240 C244 1.382 . S
C240 H263 0.950 . S
C241 C240 1.388 . S
C241 C242 1.386 . S
C242 C241 1.386 . S
C242 C243 1.382 . S
C242 H264 0.950 . S
C243 N239 1.332 . S
C243 C242 1.382 . S
C243 H245 0.952 . S
C244 N239 1.332 . S
C244 C240 1.382 . S
C244 H246 0.948 . S
H245 C243 0.952 . S
H246 C244 0.948 . S
H247 C236 0.952 . S
H248 C238 0.948 . S
C249 C215 1.395 . S
C249 C219 1.391 . S
C250 C212 1.389 . S
C250 C232 1.392 . S
C251 C222 1.392 . S
C251 C224 1.389 1_455 S
C252 C227 1.395 . S
C252 C229 1.404 . S
H253 C213 0.951 . S
H254 C214 0.950 . S
H255 C220 0.949 . S
H256 C221 0.950 . S
H257 C225 0.951 . S
H258 C226 0.950 . S
H259 C230 0.949 . S
H260 C231 0.950 . S
H261 C235 0.950 . S
H262 C237 0.950 . S
H263 C240 0.950 . S
H264 C242 0.950 . S
C265 C266 1.443 . S
C265 N269 1.376 . S
C265 C303 1.389 . S
C266 C265 1.443 . S
C266 C267 1.340 . S
C266 H306 0.951 . S
C267 C266 1.340 . S
C267 C268 1.439 . S
C267 H307 0.950 . S
C268 C267 1.439 . S
C268 N269 1.374 . S
C268 C302 1.395 . S
N269 C265 1.376 . S
N269 C268 1.374 . S
N269 Co270 2.008 . S
Co270 N269 2.008 . S
Co270 N271 1.995 . S
Co270 N276 2.008 . S
Co270 N281 1.995 . S
Co270 N286 2.282 . S
Co270 N292 2.282 . S
N271 Co270 1.995 . S
N271 C272 1.376 . S
N271 C275 1.383 . S
C272 N271 1.376 . S
C272 C273 1.446 . S
C272 C302 1.391 . S
C273 C272 1.446 . S
C273 C274 1.339 . S
C273 H308 0.949 . S
C274 C273 1.339 . S
C274 C275 1.439 . S
C274 H309 0.950 . S
C275 N271 1.383 . S
C275 C274 1.439 . S
C275 C304 1.392 . S
N276 Co270 2.008 . S
N276 C277 1.376 1_545 S
N276 C280 1.374 1_545 S
C277 N276 1.376 1_565 S
C277 C278 1.443 . S
C277 C304 1.389 1_565 S
C278 C277 1.443 . S
C278 C279 1.340 . S
C278 H310 0.951 . S
C279 C278 1.340 . S
C279 C280 1.439 . S
C279 H311 0.950 . S
C280 N276 1.374 1_565 S
C280 C279 1.439 . S
C280 C305 1.395 . S
N281 Co270 1.995 . S
N281 C282 1.359 1_545 S
N281 C285 1.383 . S
C282 N281 1.359 1_565 S
C282 C283 1.448 . S
C282 C305 1.404 . S
C283 C282 1.448 . S
C283 C284 1.339 1_565 S
C283 H312 0.949 . S
C284 C283 1.339 1_545 S
C284 C285 1.439 . S
C284 H313 0.950 . S
C285 N281 1.383 . S
C285 C284 1.439 . S
C285 C303 1.392 . S
N286 Co270 2.282 . S
N286 C289 1.332 . S
N286 C291 1.332 . S
C287 C288 1.386 . S
C287 C290 1.388 . S
C288 C287 1.386 . S
C288 C289 1.382 . S
C288 H314 0.950 . S
C289 N286 1.332 . S
C289 C288 1.382 . S
C289 H300 0.952 . S
C290 C287 1.388 . S
C290 C291 1.382 . S
C290 H315 0.950 . S
C291 N286 1.332 . S
C291 C290 1.382 . S
C291 H301 0.948 . S
N292 Co270 2.282 . S
N292 C296 1.332 . S
N292 C297 1.332 . S
C293 C294 1.388 . S
C293 C297 1.382 . S
C293 H316 0.950 . S
C294 C293 1.388 . S
C294 C295 1.386 . S
C295 C294 1.386 . S
C295 C296 1.382 . S
C295 H317 0.950 . S
C296 N292 1.332 . S
C296 C295 1.382 . S
C296 H298 0.952 . S
C297 N292 1.332 . S
C297 C293 1.382 . S
C297 H299 0.948 . S
H298 C296 0.952 . S
H299 C297 0.948 . S
H300 C289 0.952 . S
H301 C291 0.948 . S
C302 C268 1.395 . S
C302 C272 1.391 . S
C303 C265 1.389 . S
C303 C285 1.392 . S
C304 C275 1.392 . S
C304 C277 1.389 1_545 S
C305 C280 1.395 . S
C305 C282 1.404 . S
H306 C266 0.951 . S
H307 C267 0.950 . S
H308 C273 0.949 . S
H309 C274 0.950 . S
H310 C278 0.951 . S
H311 C279 0.950 . S
H312 C283 0.949 . S
H313 C284 0.950 . S
H314 C288 0.950 . S
H315 C290 0.950 . S
H316 C293 0.950 . S
H317 C295 0.950 . S
C318 C319 1.443 . S
C318 N322 1.376 . S
C318 C356 1.389 . S
C319 C318 1.443 . S
C319 C320 1.340 . S
C319 H359 0.951 . S
C320 C319 1.340 . S
C320 C321 1.439 . S
C320 H360 0.950 . S
C321 C320 1.439 . S
C321 N322 1.374 . S
C321 C355 1.395 . S
N322 C318 1.376 . S
N322 C321 1.374 . S
N322 Co323 2.008 . S
Co323 N322 2.008 . S
Co323 N324 1.995 . S
Co323 N329 2.008 . S
Co323 N334 1.995 . S
Co323 N339 2.282 . S
Co323 N345 2.282 . S
N324 Co323 1.995 . S
N324 C325 1.376 . S
N324 C328 1.383 . S
C325 N324 1.376 . S
C325 C326 1.446 . S
C325 C355 1.391 . S
C326 C325 1.446 . S
C326 C327 1.339 . S
C326 H361 0.949 . S
C327 C326 1.339 . S
C327 C328 1.439 . S
C327 H362 0.950 . S
C328 N324 1.383 . S
C328 C327 1.439 . S
C328 C357 1.392 . S
N329 Co323 2.008 . S
N329 C330 1.376 1_655 S
N329 C333 1.374 1_655 S
C330 N329 1.376 1_455 S
C330 C331 1.443 . S
C330 C357 1.389 1_455 S
C331 C330 1.443 . S
C331 C332 1.340 . S
C331 H363 0.951 . S
C332 C331 1.340 . S
C332 C333 1.439 . S
C332 H364 0.950 . S
C333 N329 1.374 1_455 S
C333 C332 1.439 . S
C333 C358 1.395 . S
N334 Co323 1.995 . S
N334 C335 1.359 1_655 S
N334 C338 1.383 . S
C335 N334 1.359 1_455 S
C335 C336 1.448 . S
C335 C358 1.404 . S
C336 C335 1.448 . S
C336 C337 1.339 1_455 S
C336 H365 0.949 . S
C337 C336 1.339 1_655 S
C337 C338 1.439 . S
C337 H366 0.950 . S
C338 N334 1.383 . S
C338 C337 1.439 . S
C338 C356 1.392 . S
N339 Co323 2.282 . S
N339 C342 1.332 . S
N339 C344 1.332 . S
C340 C341 1.386 . S
C340 C343 1.388 . S
C341 C340 1.386 . S
C341 C342 1.382 . S
C341 H367 0.950 . S
C342 N339 1.332 . S
C342 C341 1.382 . S
C342 H353 0.952 . S
C343 C340 1.388 . S
C343 C344 1.382 . S
C343 H368 0.950 . S
C344 N339 1.332 . S
C344 C343 1.382 . S
C344 H354 0.948 . S
N345 Co323 2.282 . S
N345 C349 1.332 . S
N345 C350 1.332 . S
C346 C347 1.388 . S
C346 C350 1.382 . S
C346 H369 0.950 . S
C347 C346 1.388 . S
C347 C348 1.386 . S
C348 C347 1.386 . S
C348 C349 1.382 . S
C348 H370 0.950 . S
C349 N345 1.332 . S
C349 C348 1.382 . S
C349 H351 0.952 . S
C350 N345 1.332 . S
C350 C346 1.382 . S
C350 H352 0.948 . S
H351 C349 0.952 . S
H352 C350 0.948 . S
H353 C342 0.952 . S
H354 C344 0.948 . S
C355 C321 1.395 . S
C355 C325 1.391 . S
C356 C318 1.389 . S
C356 C338 1.392 . S
C357 C328 1.392 . S
C357 C330 1.389 1_655 S
C358 C333 1.395 . S
C358 C335 1.404 . S
H359 C319 0.951 . S
H360 C320 0.950 . S
H361 C326 0.949 . S
H362 C327 0.950 . S
H363 C331 0.951 . S
H364 C332 0.950 . S
H365 C336 0.949 . S
H366 C337 0.950 . S
H367 C341 0.950 . S
H368 C343 0.950 . S
H369 C346 0.950 . S
H370 C348 0.950 . S
C371 C372 1.443 . S
C371 N375 1.376 . S
C371 C409 1.389 . S
C372 C371 1.443 . S
C372 C373 1.340 . S
C372 H412 0.951 . S
C373 C372 1.340 . S
C373 C374 1.439 . S
C373 H413 0.950 . S
C374 C373 1.439 . S
C374 N375 1.374 . S
C374 C408 1.395 . S
N375 C371 1.376 . S
N375 C374 1.374 . S
N375 Co376 2.008 . S
Co376 N375 2.008 . S
Co376 N377 1.995 . S
Co376 N382 2.008 . S
Co376 N387 1.995 . S
Co376 N392 2.282 . S
Co376 N398 2.282 . S
N377 Co376 1.995 . S
N377 C378 1.376 . S
N377 C381 1.383 . S
C378 N377 1.376 . S
C378 C379 1.446 . S
C378 C408 1.391 . S
C379 C378 1.446 . S
C379 C380 1.339 . S
C379 H414 0.949 . S
C380 C379 1.339 . S
C380 C381 1.439 . S
C380 H415 0.950 . S
C381 N377 1.383 . S
C381 C380 1.439 . S
C381 C410 1.392 . S
N382 Co376 2.008 . S
N382 C383 1.376 1_565 S
N382 C386 1.374 1_565 S
C383 N382 1.376 1_545 S
C383 C384 1.443 . S
C383 C410 1.389 1_545 S
C384 C383 1.443 . S
C384 C385 1.340 . S
C384 H416 0.951 . S
C385 C384 1.340 . S
C385 C386 1.439 . S
C385 H417 0.950 . S
C386 N382 1.374 1_545 S
C386 C385 1.439 . S
C386 C411 1.395 . S
N387 Co376 1.995 . S
N387 C388 1.359 1_565 S
N387 C391 1.383 . S
C388 N387 1.359 1_545 S
C388 C389 1.448 . S
C388 C411 1.404 . S
C389 C388 1.448 . S
C389 C390 1.339 1_545 S
C389 H418 0.949 . S
C390 C389 1.339 1_565 S
C390 C391 1.439 . S
C390 H419 0.950 . S
C391 N387 1.383 . S
C391 C390 1.439 . S
C391 C409 1.392 . S
N392 Co376 2.282 . S
N392 C395 1.332 . S
N392 C397 1.332 . S
C393 C394 1.386 . S
C393 C396 1.388 . S
C394 C393 1.386 . S
C394 C395 1.382 . S
C394 H420 0.950 . S
C395 N392 1.332 . S
C395 C394 1.382 . S
C395 H406 0.952 . S
C396 C393 1.388 . S
C396 C397 1.382 . S
C396 H421 0.950 . S
C397 N392 1.332 . S
C397 C396 1.382 . S
C397 H407 0.948 . S
N398 Co376 2.282 . S
N398 C402 1.332 . S
N398 C403 1.332 . S
C399 C400 1.388 . S
C399 C403 1.382 . S
C399 H422 0.950 . S
C400 C399 1.388 . S
C400 C401 1.386 . S
C401 C400 1.386 . S
C401 C402 1.382 . S
C401 H423 0.950 . S
C402 N398 1.332 . S
C402 C401 1.382 . S
C402 H404 0.952 . S
C403 N398 1.332 . S
C403 C399 1.382 . S
C403 H405 0.948 . S
H404 C402 0.952 . S
H405 C403 0.948 . S
H406 C395 0.952 . S
H407 C397 0.948 . S
C408 C374 1.395 . S
C408 C378 1.391 . S
C409 C371 1.389 . S
C409 C391 1.392 . S
C410 C381 1.392 . S
C410 C383 1.389 1_565 S
C411 C386 1.395 . S
C411 C388 1.404 . S
H412 C372 0.951 . S
H413 C373 0.950 . S
H414 C379 0.949 . S
H415 C380 0.950 . S
H416 C384 0.951 . S
H417 C385 0.950 . S
H418 C389 0.949 . S
H419 C390 0.950 . S
H420 C394 0.950 . S
H421 C396 0.950 . S
H422 C399 0.950 . S
H423 C401 0.950 . S
H424 C430 0.930 . S
H425 C433 0.930 . S
H426 C434 0.930 . S
H427 C435 0.930 . S
H428 C438 0.930 . S
H429 C439 0.930 . S
C430 H424 0.930 . S
C430 C431 1.355 . S
C430 C432 1.415 1_455 S
C431 C430 1.355 . S
C431 C433 1.419 . S
C432 C430 1.415 1_655 S
C432 C437 1.425 1_655 S
C432 C439 1.409 . S
C433 H425 0.930 . S
C433 C431 1.419 . S
C433 C434 1.362 . S
C434 H426 0.930 . S
C434 C433 1.362 . S
C434 C437 1.409 . S
C435 H427 0.930 . S
C435 C436 1.355 . S
C435 C437 1.415 1_655 S
C436 C435 1.355 . S
C436 C438 1.419 . S
C437 C432 1.425 1_455 S
C437 C434 1.409 . S
C437 C435 1.415 1_455 S
C438 H428 0.930 . S
C438 C436 1.419 . S
C438 C439 1.362 . S
C439 H429 0.930 . S
C439 C432 1.409 . S
C439 C438 1.362 . S
H440 C446 0.930 . S
H441 C449 0.930 . S
H442 C450 0.930 1_545 S
H443 C451 0.930 . S
H444 C454 0.930 . S
H445 C455 0.930 1_565 S
C446 H440 0.930 . S
C446 C447 1.355 . S
C446 C448 1.415 . S
C447 C446 1.355 . S
C447 C449 1.419 . S
C448 C446 1.415 . S
C448 C453 1.425 1_565 S
C448 C455 1.409 1_565 S
C449 H441 0.930 . S
C449 C447 1.419 . S
C449 C450 1.362 . S
C450 H442 0.930 1_565 S
C450 C449 1.362 . S
C450 C453 1.409 1_565 S
C451 H443 0.930 . S
C451 C452 1.355 . S
C451 C453 1.415 . S
C452 C451 1.355 . S
C452 C454 1.419 . S
C453 C448 1.425 1_545 S
C453 C450 1.409 1_545 S
C453 C451 1.415 . S
C454 H444 0.930 . S
C454 C452 1.419 . S
C454 C455 1.362 . S
C455 H445 0.930 1_545 S
C455 C448 1.409 1_545 S
C455 C454 1.362 . S
H456 C462 0.930 . S
H457 C465 0.930 . S
H458 C466 0.923 1_455 S
H459 C467 0.930 . S
H460 C470 0.930 . S
H461 C471 0.923 1_655 S
C462 H456 0.930 . S
C462 C463 1.355 . S
C462 C464 1.415 . S
C463 C462 1.355 . S
C463 C465 1.419 . S
C464 C462 1.415 . S
C464 C469 1.425 1_655 S
C464 C471 1.405 1_655 S
C465 H457 0.930 . S
C465 C463 1.419 . S
C465 C466 1.375 . S
C466 H458 0.923 1_655 S
C466 C465 1.375 . S
C466 C469 1.405 1_655 S
C467 H459 0.930 . S
C467 C468 1.355 . S
C467 C469 1.415 . S
C468 C467 1.355 . S
C468 C470 1.419 . S
C469 C464 1.425 1_455 S
C469 C466 1.405 1_455 S
C469 C467 1.415 . S
C470 H460 0.930 . S
C470 C468 1.419 . S
C470 C471 1.375 . S
C471 H461 0.923 1_455 S
C471 C464 1.405 1_455 S
C471 C470 1.375 . S
H472 C478 0.930 1_565 S
H473 C481 0.930 . S
H474 C482 0.930 . S
H475 C483 0.930 1_545 S
H476 C486 0.930 . S
H477 C487 0.930 . S
C478 H472 0.930 1_545 S
C478 C479 1.355 . S
C478 C480 1.415 1_545 S
C479 C478 1.355 . S
C479 C481 1.419 . S
C480 C478 1.415 1_565 S
C480 C485 1.425 1_565 S
C480 C487 1.409 . S
C481 H473 0.930 . S
C481 C479 1.419 . S
C481 C482 1.362 . S
C482 H474 0.930 . S
C482 C481 1.362 . S
C482 C485 1.409 . S
C483 H475 0.930 1_565 S
C483 C484 1.355 . S
C483 C485 1.415 1_565 S
C484 C483 1.355 . S
C484 C486 1.419 . S
C485 C480 1.425 1_545 S
C485 C482 1.409 . S
C485 C483 1.415 1_545 S
C486 H476 0.930 . S
C486 C484 1.419 . S
C486 C487 1.362 . S
C487 H477 0.930 . S
C487 C480 1.409 . S
C487 C486 1.362 . S
H488 C494 0.930 . S
H489 C497 0.930 . S
H490 C498 0.930 . S
H491 C499 0.930 . S
H492 C502 0.930 . S
H493 C503 0.930 . S
C494 H488 0.930 . S
C494 C495 1.355 . S
C494 C496 1.415 . S
C495 C494 1.355 . S
C495 C497 1.419 1_655 S
C496 C494 1.415 . S
C496 C501 1.425 1_656 S
C496 C503 1.409 1_556 S
C497 H489 0.930 . S
C497 C495 1.419 1_455 S
C497 C498 1.362 . S
C498 H490 0.930 . S
C498 C497 1.362 . S
C498 C501 1.409 1_556 S
C499 H491 0.930 . S
C499 C500 1.355 . S
C499 C501 1.415 . S
C500 C499 1.355 . S
C500 C502 1.419 1_455 S
C501 C496 1.425 1_454 S
C501 C498 1.409 1_554 S
C501 C499 1.415 . S
C502 H492 0.930 . S
C502 C500 1.419 1_655 S
C502 C503 1.362 . S
C503 H493 0.930 . S
C503 C496 1.409 1_554 S
C503 C502 1.362 . S
H504 C510 0.930 . S
H505 C513 0.929 1_565 S
H506 C514 0.930 . S
H507 C515 0.930 . S
H508 C518 0.929 1_545 S
H509 C519 0.930 . S
C510 H504 0.930 . S
C510 C511 1.355 . S
C510 C512 1.415 . S
C511 C510 1.355 . S
C511 C513 1.419 . S
C512 C510 1.415 . S
C512 C517 1.425 1_545 S
C512 C519 1.409 . S
C513 H505 0.929 1_545 S
C513 C511 1.419 . S
C513 C514 1.362 1_545 S
C514 H506 0.930 . S
C514 C513 1.362 1_565 S
C514 C517 1.409 . S
C515 H507 0.930 . S
C515 C516 1.355 . S
C515 C517 1.415 . S
C516 C515 1.355 . S
C516 C518 1.419 . S
C517 C512 1.425 1_565 S
C517 C514 1.409 . S
C517 C515 1.415 . S
C518 H508 0.929 1_565 S
C518 C516 1.419 . S
C518 C519 1.362 1_565 S
C519 H509 0.930 . S
C519 C512 1.409 . S
C519 C518 1.362 1_545 S
H520 C526 0.933 . S
H521 C529 0.930 . S
H522 C530 0.930 . S
H523 C531 0.933 . S
H524 C534 0.930 . S
H525 C535 0.930 . S
C526 H520 0.933 . S
C526 C527 1.355 . S
C526 C528 1.415 1_655 S
C527 C526 1.355 . S
C527 C529 1.419 . S
C528 C526 1.415 1_455 S
C528 C533 1.425 1_454 S
C528 C535 1.409 1_554 S
C529 H521 0.930 . S
C529 C527 1.419 . S
C529 C530 1.362 . S
C530 H522 0.930 . S
C530 C529 1.362 . S
C530 C533 1.409 1_554 S
C531 H523 0.933 . S
C531 C532 1.355 . S
C531 C533 1.415 1_455 S
C532 C531 1.355 . S
C532 C534 1.419 . S
C533 C528 1.425 1_656 S
C533 C530 1.409 1_556 S
C533 C531 1.415 1_655 S
C534 H524 0.930 . S
C534 C532 1.419 . S
C534 C535 1.362 . S
C535 H525 0.930 . S
C535 C528 1.409 1_556 S
C535 C534 1.362 . S
H536 C542 0.930 . S
H537 C545 0.930 . S
H538 C546 0.930 . S
H539 C547 0.930 . S
H540 C550 0.930 . S
H541 C551 0.930 . S
C542 H536 0.930 . S
C542 C543 1.355 . S
C542 C544 1.415 . S
C543 C542 1.355 . S
C543 C545 1.419 1_545 S
C544 C542 1.415 . S
C544 C549 1.425 1_545 S
C544 C551 1.409 . S
C545 H537 0.930 . S
C545 C543 1.419 1_565 S
C545 C546 1.362 . S
C546 H538 0.930 . S
C546 C545 1.362 . S
C546 C549 1.409 . S
C547 H539 0.930 . S
C547 C548 1.355 . S
C547 C549 1.415 . S
C548 C547 1.355 . S
C548 C550 1.419 1_565 S
C549 C544 1.425 1_565 S
C549 C546 1.409 . S
C549 C547 1.415 . S
C550 H540 0.930 . S
C550 C548 1.419 1_545 S
C550 C551 1.362 . S
C551 H541 0.930 . S
C551 C544 1.409 . S
C551 C550 1.362 . S
H552 C558 0.930 . S
H553 C561 0.930 . S
H554 C562 0.930 . S
H555 C563 0.930 . S
H556 C566 0.930 . S
H557 C567 0.930 . S
C558 H552 0.930 . S
C558 C559 1.355 . S
C558 C560 1.415 . S
C559 C558 1.355 . S
C559 C561 1.419 . S
C560 C558 1.415 . S
C560 C565 1.425 . S
C560 C567 1.409 . S
C561 H553 0.930 . S
C561 C559 1.419 . S
C561 C562 1.362 . S
C562 H554 0.930 . S
C562 C561 1.362 . S
C562 C565 1.409 . S
C563 H555 0.930 . S
C563 C564 1.355 . S
C563 C565 1.415 . S
C564 C563 1.355 . S
C564 C566 1.419 . S
C565 C560 1.425 . S
C565 C562 1.409 . S
C565 C563 1.415 . S
C566 H556 0.930 . S
C566 C564 1.419 . S
C566 C567 1.362 . S
C567 H557 0.930 . S
C567 C560 1.409 . S
C567 C566 1.362 . S
H568 C574 0.930 . S
H569 C577 0.930 . S
H570 C578 0.930 . S
H571 C579 0.930 . S
H572 C582 0.930 . S
H573 C583 0.930 . S
C574 H568 0.930 . S
C574 C575 1.355 . S
C574 C576 1.415 . S
C575 C574 1.355 . S
C575 C577 1.419 . S
C576 C574 1.415 . S
C576 C581 1.425 . S
C576 C583 1.409 . S
C577 H569 0.930 . S
C577 C575 1.419 . S
C577 C578 1.362 . S
C578 H570 0.930 . S
C578 C577 1.362 . S
C578 C581 1.409 . S
C579 H571 0.930 . S
C579 C580 1.355 . S
C579 C581 1.415 . S
C580 C579 1.355 . S
C580 C582 1.419 . S
C581 C576 1.425 . S
C581 C578 1.409 . S
C581 C579 1.415 . S
C582 H572 0.930 . S
C582 C580 1.419 . S
C582 C583 1.362 . S
C583 H573 0.930 . S
C583 C576 1.409 . S
C583 C582 1.362 . S
H584 C590 0.930 . S
H585 C593 0.930 . S
H586 C594 0.930 . S
H587 C595 0.930 . S
H588 C598 0.930 . S
H589 C599 0.930 . S
C590 H584 0.930 . S
C590 C591 1.355 . S
C590 C592 1.415 . S
C591 C590 1.355 . S
C591 C593 1.419 . S
C592 C590 1.415 . S
C592 C597 1.425 . S
C592 C599 1.409 . S
C593 H585 0.930 . S
C593 C591 1.419 . S
C593 C594 1.362 . S
C594 H586 0.930 . S
C594 C593 1.362 . S
C594 C597 1.409 . S
C595 H587 0.930 . S
C595 C596 1.355 . S
C595 C597 1.415 . S
C596 C595 1.355 . S
C596 C598 1.419 . S
C597 C592 1.425 . S
C597 C594 1.409 . S
C597 C595 1.415 . S
C598 H588 0.930 . S
C598 C596 1.419 . S
C598 C599 1.362 . S
C599 H589 0.930 . S
C599 C592 1.409 . S
C599 C598 1.362 . S
H600 C606 0.930 . S
H601 C609 0.930 . S
H602 C610 0.930 . S
H603 C611 0.930 . S
H604 C614 0.930 . S
H605 C615 0.930 . S
C606 H600 0.930 . S
C606 C607 1.355 . S
C606 C608 1.415 . S
C607 C606 1.355 . S
C607 C609 1.419 . S
C608 C606 1.415 . S
C608 C613 1.425 . S
C608 C615 1.409 . S
C609 H601 0.930 . S
C609 C607 1.419 . S
C609 C610 1.362 . S
C610 H602 0.930 . S
C610 C609 1.362 . S
C610 C613 1.409 . S
C611 H603 0.930 . S
C611 C612 1.355 . S
C611 C613 1.415 . S
C612 C611 1.355 . S
C612 C614 1.419 . S
C613 C608 1.425 . S
C613 C610 1.409 . S
C613 C611 1.415 . S
C614 H604 0.930 . S
C614 C612 1.419 . S
C614 C615 1.362 . S
C615 H605 0.930 . S
C615 C608 1.409 . S
C615 C614 1.362 . S
H616 C622 0.922 1_655 S
H617 C625 0.930 . S
H618 C626 0.930 . S
H619 C627 0.922 1_455 S
H620 C630 0.930 . S
H621 C631 0.930 . S
C622 H616 0.922 1_455 S
C622 C623 1.355 . S
C622 C624 1.415 1_455 S
C623 C622 1.355 . S
C623 C625 1.419 . S
C624 C622 1.415 1_655 S
C624 C629 1.425 1_645 S
C624 C631 1.409 . S
C625 H617 0.930 . S
C625 C623 1.419 . S
C625 C626 1.362 1_545 S
C626 H618 0.930 . S
C626 C625 1.362 1_565 S
C626 C629 1.409 . S
C627 H619 0.922 1_655 S
C627 C628 1.355 . S
C627 C629 1.415 1_655 S
C628 C627 1.355 . S
C628 C630 1.419 . S
C629 C624 1.425 1_465 S
C629 C626 1.409 . S
C629 C627 1.415 1_455 S
C630 H620 0.930 . S
C630 C628 1.419 . S
C630 C631 1.362 1_565 S
C631 H621 0.930 . S
C631 C624 1.409 . S
C631 C630 1.362 1_545 S
H632 C638 0.930 . S
H633 C641 0.930 1_545 S
H634 C642 0.930 . S
H635 C643 0.930 . S
H636 C646 0.930 1_565 S
H637 C647 0.930 . S
C638 H632 0.930 . S
C638 C639 1.355 . S
C638 C640 1.415 1_455 S
C639 C638 1.355 . S
C639 C641 1.419 . S
C640 C638 1.415 1_655 S
C640 C645 1.425 1_665 S
C640 C647 1.409 . S
C641 H633 0.930 1_565 S
C641 C639 1.419 . S
C641 C642 1.363 1_565 S
C642 H634 0.930 . S
C642 C641 1.363 1_545 S
C642 C645 1.409 . S
C643 H635 0.930 . S
C643 C644 1.355 . S
C643 C645 1.415 1_655 S
C644 C643 1.355 . S
C644 C646 1.419 . S
C645 C640 1.425 1_445 S
C645 C642 1.409 . S
C645 C643 1.415 1_455 S
C646 H636 0.930 1_545 S
C646 C644 1.419 . S
C646 C647 1.363 1_545 S
C647 H637 0.930 . S
C647 C640 1.409 . S
C647 C646 1.363 1_565 S
H648 C654 0.930 1_455 S
H649 C657 0.930 . S
H650 C658 0.930 . S
H651 C659 0.930 1_655 S
H652 C662 0.930 . S
H653 C663 0.930 . S
C654 H648 0.930 1_655 S
C654 C655 1.355 . S
C654 C656 1.415 1_655 S
C655 C654 1.355 . S
C655 C657 1.419 . S
C656 C654 1.415 1_455 S
C656 C661 1.425 1_445 S
C656 C663 1.409 . S
C657 H649 0.930 . S
C657 C655 1.419 . S
C657 C658 1.362 1_545 S
C658 H650 0.930 . S
C658 C657 1.362 1_565 S
C658 C661 1.409 . S
C659 H651 0.930 1_455 S
C659 C660 1.355 . S
C659 C661 1.415 1_455 S
C660 C659 1.355 . S
C660 C662 1.419 . S
C661 C656 1.425 1_665 S
C661 C658 1.409 . S
C661 C659 1.415 1_655 S
C662 H652 0.930 . S
C662 C660 1.419 . S
C662 C663 1.362 1_565 S
C663 H653 0.930 . S
C663 C656 1.409 . S
C663 C662 1.362 1_545 S
H664 C670 0.930 . S
H665 C673 0.930 . S
H666 C674 0.930 1_545 S
H667 C675 0.930 . S
H668 C678 0.930 . S
H669 C679 0.930 1_565 S
C670 H664 0.930 . S
C670 C671 1.355 . S
C670 C672 1.415 . S
C671 C670 1.355 . S
C671 C673 1.419 . S
C672 C670 1.415 . S
C672 C677 1.425 1_665 S
C672 C679 1.409 1_665 S
C673 H665 0.930 . S
C673 C671 1.419 . S
C673 C674 1.362 . S
C674 H666 0.930 1_565 S
C674 C673 1.362 . S
C674 C677 1.409 1_665 S
C675 H667 0.930 . S
C675 C676 1.355 . S
C675 C677 1.415 . S
C676 C675 1.355 . S
C676 C678 1.419 . S
C677 C672 1.425 1_445 S
C677 C674 1.409 1_445 S
C677 C675 1.415 . S
C678 H668 0.930 . S
C678 C676 1.419 . S
C678 C679 1.362 . S
C679 H669 0.930 1_545 S
C679 C672 1.409 1_445 S
C679 C678 1.362 . S
C431 C22 1.908 . S
C436 C128 1.900 . S
C447 C181 1.883 . S
C452 C75 1.877 . S
C463 C340 1.893 . S
C468 C234 1.900 . S
C479 C287 1.922 . S
C484 C393 1.918 . S
C495 C357 1.791 . S
C500 C39 1.773 . S
C511 C92 1.791 . S
C516 C410 1.755 . S
C527 C145 1.784 . S
C532 C251 1.753 . S
C543 C304 1.794 . S
C548 C198 1.767 . S
C559 C38 1.855 . S
C564 C303 1.856 . S
C575 C356 1.868 . S
C580 C91 1.868 . S
C591 C409 1.867 . S
C596 C144 1.868 . S
C607 C197 1.869 . S
C612 C250 1.870 . S
C623 C29 1.744 . S
C628 C135 1.746 . S
C639 C188 1.674 . S
C644 C82 1.677 . S
C655 C347 1.746 . S
C660 C241 1.744 . S
C671 C400 1.697 . S
C676 C294 1.689 . S
