# Generated by pormake.
# Topology unb, (4)-cn, num edge types: 1
# Building blocks:
#     Node 0, Type 0, BuildingBlock: TATPOV_clean_sbu_0, # of connection points: 4
#     Node 1, Type 0, BuildingBlock: TATPOV_clean_sbu_0, # of connection points: 4
#     Node 2, Type 0, BuildingBlock: TATPOV_clean_sbu_0, # of connection points: 4
#     Node 3, Type 0, BuildingBlock: TATPOV_clean_sbu_0, # of connection points: 4
#     Node 4, Type 0, BuildingBlock: TATPOV_clean_sbu_0, # of connection points: 4
#     Node 5, Type 0, BuildingBlock: TATPOV_clean_sbu_0, # of connection points: 4
#     Node 6, Type 0, BuildingBlock: TATPOV_clean_sbu_0, # of connection points: 4
#     Node 7, Type 0, BuildingBlock: TATPOV_clean_sbu_0, # of connection points: 4
#     Node 8, Type 0, BuildingBlock: TATPOV_clean_sbu_0, # of connection points: 4
#     Node 9, Type 0, BuildingBlock: TATPOV_clean_sbu_0, # of connection points: 4
#     Node 10, Type 0, BuildingBlock: TATPOV_clean_sbu_0, # of connection points: 4
#     Node 11, Type 0, BuildingBlock: TATPOV_clean_sbu_0, # of connection points: 4
#     Node 12, Type 0, BuildingBlock: TATPOV_clean_sbu_0, # of connection points: 4
#     Node 13, Type 0, BuildingBlock: TATPOV_clean_sbu_0, # of connection points: 4
#     Node 14, Type 0, BuildingBlock: TATPOV_clean_sbu_0, # of connection points: 4
#     Node 15, Type 0, BuildingBlock: TATPOV_clean_sbu_0, # of connection points: 4
#     Node 16, Type 0, BuildingBlock: TATPOV_clean_sbu_0, # of connection points: 4
#     Node 17, Type 0, BuildingBlock: TATPOV_clean_sbu_0, # of connection points: 4
#     Edge 18, Type (0, 0), BuildingBlock: MIFKUJ_clean_linker_0, # of connection points: 2
#     Edge 19, Type (0, 0), BuildingBlock: MIFKUJ_clean_linker_0, # of connection points: 2
#     Edge 20, Type (0, 0), BuildingBlock: MIFKUJ_clean_linker_0, # of connection points: 2
#     Edge 21, Type (0, 0), BuildingBlock: MIFKUJ_clean_linker_0, # of connection points: 2
#     Edge 22, Type (0, 0), BuildingBlock: MIFKUJ_clean_linker_0, # of connection points: 2
#     Edge 23, Type (0, 0), BuildingBlock: MIFKUJ_clean_linker_0, # of connection points: 2
#     Edge 24, Type (0, 0), BuildingBlock: MIFKUJ_clean_linker_0, # of connection points: 2
#     Edge 25, Type (0, 0), BuildingBlock: MIFKUJ_clean_linker_0, # of connection points: 2
#     Edge 26, Type (0, 0), BuildingBlock: MIFKUJ_clean_linker_0, # of connection points: 2
#     Edge 27, Type (0, 0), BuildingBlock: MIFKUJ_clean_linker_0, # of connection points: 2
#     Edge 28, Type (0, 0), BuildingBlock: MIFKUJ_clean_linker_0, # of connection points: 2
#     Edge 29, Type (0, 0), BuildingBlock: MIFKUJ_clean_linker_0, # of connection points: 2
#     Edge 30, Type (0, 0), BuildingBlock: MIFKUJ_clean_linker_0, # of connection points: 2
#     Edge 31, Type (0, 0), BuildingBlock: MIFKUJ_clean_linker_0, # of connection points: 2
#     Edge 32, Type (0, 0), BuildingBlock: MIFKUJ_clean_linker_0, # of connection points: 2
#     Edge 33, Type (0, 0), BuildingBlock: MIFKUJ_clean_linker_0, # of connection points: 2
#     Edge 34, Type (0, 0), BuildingBlock: MIFKUJ_clean_linker_0, # of connection points: 2
#     Edge 35, Type (0, 0), BuildingBlock: MIFKUJ_clean_linker_0, # of connection points: 2
#     Edge 36, Type (0, 0), BuildingBlock: MIFKUJ_clean_linker_0, # of connection points: 2
#     Edge 37, Type (0, 0), BuildingBlock: MIFKUJ_clean_linker_0, # of connection points: 2
#     Edge 38, Type (0, 0), BuildingBlock: MIFKUJ_clean_linker_0, # of connection points: 2
#     Edge 39, Type (0, 0), BuildingBlock: MIFKUJ_clean_linker_0, # of connection points: 2
#     Edge 40, Type (0, 0), BuildingBlock: MIFKUJ_clean_linker_0, # of connection points: 2
#     Edge 41, Type (0, 0), BuildingBlock: MIFKUJ_clean_linker_0, # of connection points: 2
#     Edge 42, Type (0, 0), BuildingBlock: MIFKUJ_clean_linker_0, # of connection points: 2
#     Edge 43, Type (0, 0), BuildingBlock: MIFKUJ_clean_linker_0, # of connection points: 2
#     Edge 44, Type (0, 0), BuildingBlock: MIFKUJ_clean_linker_0, # of connection points: 2
#     Edge 45, Type (0, 0), BuildingBlock: MIFKUJ_clean_linker_0, # of connection points: 2
#     Edge 46, Type (0, 0), BuildingBlock: MIFKUJ_clean_linker_0, # of connection points: 2
#     Edge 47, Type (0, 0), BuildingBlock: MIFKUJ_clean_linker_0, # of connection points: 2
#     Edge 48, Type (0, 0), BuildingBlock: MIFKUJ_clean_linker_0, # of connection points: 2
#     Edge 49, Type (0, 0), BuildingBlock: MIFKUJ_clean_linker_0, # of connection points: 2
#     Edge 50, Type (0, 0), BuildingBlock: MIFKUJ_clean_linker_0, # of connection points: 2
#     Edge 51, Type (0, 0), BuildingBlock: MIFKUJ_clean_linker_0, # of connection points: 2
#     Edge 52, Type (0, 0), BuildingBlock: MIFKUJ_clean_linker_0, # of connection points: 2
#     Edge 53, Type (0, 0), BuildingBlock: MIFKUJ_clean_linker_0, # of connection points: 2
# Relax obj value: 0.025
# Max RMSD: 0.034
# Mean RMSD: 0.034
data_MOF--net-unb--node1-TATPOV_clean_sbu_0--edge1-MIFKUJ_clean_linker_0
_symmetry_space_group_name_H-M    P1
_symmetry_Int_Tables_number       1
_symmetry_cell_setting            triclinic
loop_
_symmetry_equiv_pos_as_xyz
'x, y, z'
_cell_length_a     85.462701
_cell_length_b     85.479578
_cell_length_c     32.249512
_cell_angle_alpha  89.985164
_cell_angle_beta   90.004462
_cell_angle_gamma 120.00707
loop_
_atom_site_label
_atom_site_type_symbol
_atom_site_fract_x
_atom_site_fract_y
_atom_site_fract_z
_atom_type_partial_charge
Zn0 Zn 0.11055 0.22064 0.04791 0.0
Zn1 Zn 0.12566 0.24931 0.09257 0.0
O2 O 0.09753 0.23818 0.09812 0.0
O3 O 0.08553 0.21191 0.06637 0.0
O4 O 0.13638 0.26823 0.13829 0.0
O5 O 0.12416 0.2092 0.06915 0.0
O6 O 0.13968 0.23536 0.10053 0.0
C7 C 0.08364 0.22342 0.08691 0.0
C8 C 0.13028 0.25464 1.00152 0.0
O9 O 0.1339 0.26217 0.03709 0.0
O10 O 0.12056 0.23761 0.99837 0.0
C11 C 0.13152 0.27969 0.14717 0.0
O12 O 0.11891 0.28015 0.12478 0.0
C13 C 0.13772 0.22006 0.09029 0.0
Zn14 Zn 0.76063 0.87487 0.00725 0.0
Zn15 Zn 0.74177 0.86974 0.07122 0.0
O16 O 0.75522 0.85499 0.07916 0.0
O17 O 0.77595 0.86576 0.03031 0.0
O18 O 0.72794 0.86558 0.12543 0.0
O19 O 0.76974 0.90103 0.00444 0.0
O20 O 0.75659 0.89804 0.06482 0.0
C21 C 0.76898 0.85577 0.06156 0.0
C22 C 0.72334 0.85431 0.98892 0.0
O23 O 0.72203 0.85849 0.02621 0.0
O24 O 0.73867 0.85854 0.97414 0.0
C25 C 0.7143 0.85025 0.13383 0.0
O26 O 0.70918 0.83707 0.1068 0.0
C27 C 0.76623 0.90804 0.03489 0.0
Zn28 Zn 0.12665 0.88893 0.0104 0.0
Zn29 Zn 0.13422 0.87545 0.07191 0.0
O30 O 0.14951 0.90383 0.07894 0.0
O31 O 0.13916 0.91401 0.02957 0.0
O32 O 0.13902 0.86585 0.12538 0.0
O33 O 0.10031 0.8748 0.01578 0.0
O34 O 0.10574 0.86135 0.06741 0.0
C35 C 0.14938 0.91698 0.06032 0.0
C36 C 0.14583 0.87062 0.98698 0.0
O37 O 0.14483 0.86706 0.0256 0.0
O38 O 0.1394 0.8801 0.97307 0.0
C39 C 0.15494 0.86987 0.1361 0.0
O40 O 0.16853 0.88039 0.11181 0.0
C41 C 0.09457 0.86285 0.04364 0.0
Zn42 Zn 0.22567 0.11802 0.96123 0.0
Zn43 Zn 0.25194 0.13077 0.90916 0.0
O44 O 0.23973 0.10248 0.90724 0.0
O45 O 0.21595 0.09229 0.94791 0.0
O46 O 0.26955 0.13956 0.86058 0.0
O47 O 0.21357 0.13084 0.93962 0.0
O48 O 0.2382 0.14521 0.90201 0.0
C49 C 0.22579 0.08929 0.92381 0.0
C50 C 0.26151 0.13806 0.99875 0.0
O51 O 0.26716 0.13976 0.96153 0.0
O52 O 0.24469 0.12967 0.00628 0.0
C53 C 0.27775 0.13141 0.84834 0.0
O54 O 0.2752 0.11694 0.8684 0.0
C55 C 0.2233 0.14351 0.91501 0.0
Zn56 Zn 0.87198 0.13359 0.01245 0.0
Zn57 Zn 0.86554 0.1352 0.93885 0.0
O58 O 0.89401 0.14869 0.94318 0.0
O59 O 0.89695 0.13868 0.00378 0.0
O60 O 0.86021 0.13777 0.87847 0.0
O61 O 0.85235 0.10816 0.01881 0.0
O62 O 0.85168 0.10729 0.95073 0.0
C63 C 0.90397 0.14726 0.97076 0.0
C64 C 0.85769 0.15597 0.0043 0.0
O65 O 0.85379 0.14815 0.96915 0.0
O66 O 0.86782 0.15368 0.02905 0.0
C67 C 0.86464 0.1535 0.86531 0.0
O68 O 0.87324 0.1673 0.89054 0.0
C69 C 0.84664 0.09918 0.98566 0.0
Zn70 Zn 0.88899 0.76183 0.98803 0.0
Zn71 Zn 0.87432 0.74116 0.92488 0.0
O72 O 0.86052 0.75567 0.93187 0.0
O73 O 0.87443 0.77373 0.98456 0.0
O74 O 0.864 0.72688 0.8715 0.0
O75 O 0.91365 0.77436 0.96564 0.0
O76 O 0.90242 0.75464 0.91462 0.0
C77 C 0.86235 0.76806 0.95696 0.0
C78 C 0.87116 0.72411 0.00899 0.0
O79 O 0.86695 0.72197 0.97066 0.0
O80 O 0.88077 0.73985 0.02365 0.0
C81 C 0.86684 0.71408 0.86167 0.0
O82 O 0.87638 0.71003 0.88686 0.0
C83 C 0.91592 0.76763 0.93297 0.0
Zn84 Zn 0.78325 0.55724 0.37129 0.0
Zn85 Zn 0.79649 0.58355 0.42283 0.0
O86 O 0.76815 0.57048 0.42815 0.0
O87 O 0.75791 0.54605 0.3897 0.0
O88 O 0.80573 0.60053 0.47248 0.0
O89 O 0.79812 0.54642 0.38732 0.0
O90 O 0.81201 0.57081 0.42586 0.0
C91 C 0.75494 0.55588 0.41388 0.0
C92 C 0.80089 0.59326 0.33347 0.0
O93 O 0.80409 0.59904 0.37069 0.0
O94 O 0.79229 0.57642 0.32623 0.0
C95 C 0.80245 0.61326 0.47949 0.0
O96 O 0.79261 0.61625 0.45284 0.0
C97 C 0.81103 0.55649 0.41102 0.0
Zn98 Zn 0.43154 0.21581 0.34655 0.0
Zn99 Zn 0.40906 0.20532 0.40826 0.0
O100 O 0.42321 0.19108 0.41324 0.0
O101 O 0.44338 0.2021 0.36304 0.0
O102 O 0.39324 0.19816 0.46004 0.0
O103 O 0.44315 0.24167 0.3604 0.0
O104 O 0.4227 0.23369 0.40962 0.0
C105 C 0.43642 0.19158 0.39348 0.0
C106 C 0.39423 0.19721 0.32085 0.0
O107 O 0.39114 0.19604 0.35973 0.0
O108 O 0.41033 0.2049 0.30759 0.0
C109 C 0.38674 0.18264 0.47674 0.0
O110 O 0.39018 0.17069 0.45992 0.0
C111 C 0.43594 0.24596 0.38903 0.0
Zn112 Zn 0.77521 0.22519 0.39183 0.0
Zn113 Zn 0.79134 0.21284 0.43284 0.0
O114 O 0.80613 0.24133 0.4337 0.0
O115 O 0.78861 0.25086 0.40812 0.0
O116 O 0.80271 0.20566 0.4791 0.0
O117 O 0.75027 0.20931 0.41145 0.0
O118 O 0.7634 0.1956 0.44025 0.0
C119 C 0.80353 0.25435 0.42387 0.0
C120 C 0.79279 0.20895 0.34319 0.0
O121 O 0.79724 0.20544 0.37819 0.0
O122 O 0.78395 0.21725 0.34133 0.0
C123 C 0.79869 0.18943 0.48634 0.0
O124 O 0.78696 0.17649 0.46219 0.0
C125 C 0.74903 0.19584 0.43053 0.0
Zn126 Zn 0.88987 0.44519 0.27654 0.0
Zn127 Zn 0.91882 0.45853 0.23493 0.0
O128 O 0.90451 0.43035 0.22639 0.0
O129 O 0.87782 0.42033 0.25473 0.0
O130 O 0.93836 0.46839 0.1899 0.0
O131 O 0.88122 0.46171 0.25986 0.0
O132 O 0.90823 0.47608 0.23178 0.0
C133 C 0.88881 0.41726 0.23525 0.0
C134 C 0.9231 0.45841 0.32586 0.0
O135 O 0.93116 0.4626 0.29091 0.0
O136 O 0.90603 0.45118 0.32751 0.0
C137 C 0.94374 0.45884 0.17102 0.0
O138 O 0.93712 0.44188 0.18192 0.0
C139 C 0.89351 0.47554 0.24196 0.0
Zn140 Zn 0.54528 0.45119 0.32841 0.0
Zn141 Zn 0.53712 0.46518 0.26702 0.0
O142 O 0.56569 0.47867 0.26796 0.0
O143 O 0.5714 0.4646 0.31779 0.0
O144 O 0.53028 0.47414 0.21514 0.0
O145 O 0.53115 0.42599 0.30969 0.0
O146 O 0.52171 0.43696 0.26004 0.0
C147 C 0.57697 0.47652 0.28983 0.0
C148 C 0.52749 0.47059 0.35419 0.0
O149 O 0.52746 0.47357 0.31545 0.0
O150 O 0.53428 0.46133 0.36738 0.0
C151 C 0.5406 0.48876 0.19592 0.0
O152 O 0.55705 0.49935 0.20988 0.0
C153 C 0.52117 0.42351 0.2787 0.0
Zn154 Zn 0.55799 0.10159 0.3197 0.0
Zn155 Zn 0.54381 0.07907 0.25973 0.0
O156 O 0.53072 0.09443 0.26194 0.0
O157 O 0.54582 0.11551 0.30844 0.0
O158 O 0.53359 0.06397 0.20741 0.0
O159 O 0.58322 0.11135 0.30204 0.0
O160 O 0.57198 0.09071 0.25296 0.0
C161 C 0.53324 0.10837 0.28214 0.0
C162 C 0.53719 0.06433 0.3465 0.0
O163 O 0.5349 0.06099 0.30776 0.0
O164 O 0.54638 0.08048 0.35918 0.0
C165 C 0.53758 0.05208 0.19655 0.0
O166 O 0.54852 0.04932 0.2201 0.0
C167 C 0.58557 0.10339 0.27179 0.0
Zn168 Zn 0.44809 0.89529 0.70579 0.0
Zn169 Zn 0.46243 0.92098 0.75822 0.0
O170 O 0.4343 0.90859 0.76638 0.0
O171 O 0.42292 0.88519 0.72438 0.0
O172 O 0.47289 0.93779 0.8079 0.0
O173 O 0.4615 0.88291 0.72063 0.0
O174 O 0.47733 0.90748 0.75761 0.0
C175 C 0.42066 0.89462 0.75118 0.0
C176 C 0.46673 0.93138 0.66912 0.0
O177 O 0.46945 0.93681 0.70664 0.0
O178 O 0.45828 0.91461 0.66108 0.0
C179 C 0.46831 0.9493 0.81823 0.0
O180 O 0.45645 0.9509 0.79537 0.0
C181 C 0.47523 0.89274 0.74245 0.0
Zn182 Zn 0.08915 0.5446 0.65778 0.0
Zn183 Zn 0.0722 0.53714 0.72722 0.0
O184 O 0.08888 0.52544 0.73104 0.0
O185 O 0.10409 0.53395 0.67245 0.0
O186 O 0.05949 0.53165 0.78341 0.0
O187 O 0.09962 0.57087 0.66296 0.0
O188 O 0.08468 0.56551 0.72182 0.0
C189 C 0.10083 0.52572 0.70666 0.0
C190 C 0.05135 0.52198 0.64629 0.0
O191 O 0.05112 0.52361 0.68558 0.0
O192 O 0.06619 0.52977 0.62689 0.0
C193 C 0.05147 0.51564 0.79789 0.0
O194 O 0.05172 0.50274 0.77625 0.0
C195 C 0.09521 0.57658 0.69439 0.0
Zn196 Zn 0.44311 0.55463 0.71456 0.0
Zn197 Zn 0.45686 0.54246 0.76741 0.0
O198 O 0.47191 0.57082 0.77129 0.0
O199 O 0.45779 0.58021 0.73001 0.0
O200 O 0.46586 0.53375 0.81593 0.0
O201 O 0.41795 0.5407 0.73392 0.0
O202 O 0.4286 0.52722 0.77355 0.0
C203 C 0.47048 0.58369 0.75504 0.0
C204 C 0.46073 0.53649 0.67738 0.0
O205 O 0.46416 0.53446 0.71483 0.0
O206 O 0.45192 0.54445 0.66947 0.0
C207 C 0.4823 0.54185 0.82755 0.0
O208 O 0.49414 0.5562 0.80701 0.0
C209 C 0.41526 0.52836 0.75925 0.0
Zn210 Zn 0.56082 0.7889 0.63004 0.0
Zn211 Zn 0.58498 0.79681 0.57547 0.0
O212 O 0.57174 0.76849 0.58301 0.0
O213 O 0.55058 0.76255 0.62935 0.0
O214 O 0.60087 0.80154 0.52456 0.0
O215 O 0.54766 0.79942 0.6024 0.0
O216 O 0.57192 0.81165 0.56324 0.0
C217 C 0.55865 0.75717 0.60558 0.0
C218 C 0.59751 0.8107 0.66086 0.0
O219 O 0.60194 0.80861 0.62442 0.0
O220 O 0.58099 0.80414 0.67023 0.0
C221 C 0.61454 0.81696 0.51705 0.0
O222 O 0.6188 0.83019 0.54348 0.0
C223 C 0.55723 0.81076 0.57508 0.0
Zn224 Zn 0.22036 0.7781 0.62588 0.0
Zn225 Zn 0.21144 0.79461 0.5736 0.0
O226 O 0.23986 0.80883 0.57674 0.0
O227 O 0.24669 0.79264 0.61789 0.0
O228 O 0.20596 0.80601 0.52432 0.0
O229 O 0.20674 0.75376 0.60148 0.0
O230 O 0.1953 0.76671 0.56265 0.0
C231 C 0.25168 0.80641 0.59537 0.0
C232 C 0.20195 0.79578 0.66201 0.0
O233 O 0.20193 0.80098 0.62497 0.0
O234 O 0.20864 0.7858 0.66988 0.0
C235 C 0.18993 0.80206 0.51491 0.0
O236 O 0.17649 0.79058 0.53838 0.0
C237 C 0.1953 0.7525 0.57501 0.0
Zn238 Zn 0.20932 0.41364 0.66878 0.0
Zn239 Zn 0.20123 0.40147 0.59991 0.0
O240 O 0.18617 0.41444 0.61104 0.0
O241 O 0.18751 0.41564 0.67907 0.0
O242 O 0.19433 0.3915 0.54122 0.0
O243 O 0.23249 0.43527 0.65224 0.0
O244 O 0.22946 0.41775 0.59959 0.0
C245 C 0.18086 0.41743 0.64569 0.0
C246 C 0.19994 0.37771 0.67045 0.0
O247 O 0.19323 0.37849 0.63571 0.0
O248 O 0.20998 0.39211 0.69007 0.0
C249 C 0.19895 0.38042 0.52753 0.0
O250 O 0.20865 0.37608 0.55141 0.0
C251 C 0.23939 0.4316 0.6218 0.0
H252 H 0.17816 0.38561 0.47017 0.0
H253 H 0.16749 0.37057 0.40303 0.0
H254 H 0.19506 0.34063 0.42425 0.0
H255 H 0.20599 0.35577 0.49088 0.0
H256 H 0.19989 0.35242 0.34617 0.0
H257 H 0.14896 0.32148 0.43857 0.0
H258 H 0.12607 0.31934 0.4884 0.0
H259 H 0.1058 0.34161 0.3979 0.0
H260 H 0.12874 0.3441 0.3477 0.0
H261 H 0.1559 0.28039 0.20339 0.0
H262 H 0.16795 0.2994 0.26484 0.0
H263 H 0.13739 0.32561 0.2352 0.0
H264 H 0.12495 0.30633 0.174 0.0
H265 H 0.13429 0.31773 0.31496 0.0
H266 H 0.18392 0.347 0.22094 0.0
H267 H 0.20676 0.34923 0.17092 0.0
H268 H 0.22958 0.33048 0.26367 0.0
H269 H 0.20671 0.32791 0.31412 0.0
C270 C 0.18201 0.37588 0.46048 0.0
C271 C 0.19288 0.37187 0.48608 0.0
C272 C 0.17583 0.36722 0.42213 0.0
C273 C 0.18028 0.35427 0.4087 0.0
C274 C 0.19143 0.35054 0.43385 0.0
C275 C 0.19763 0.35919 0.47208 0.0
C276 C 0.17321 0.34441 0.36877 0.0
C277 C 0.18553 0.34469 0.33953 0.0
C278 C 0.15451 0.33471 0.35946 0.0
C279 C 0.14068 0.33316 0.38955 0.0
C280 C 0.13971 0.32605 0.42941 0.0
C281 C 0.12671 0.32475 0.4577 0.0
C282 C 0.11452 0.33038 0.44636 0.0
C283 C 0.11527 0.33728 0.40667 0.0
C284 C 0.12826 0.33863 0.37828 0.0
C285 C 0.1518 0.29026 0.20972 0.0
C286 C 0.13946 0.29182 0.18361 0.0
C287 C 0.15879 0.30121 0.24487 0.0
C288 C 0.15379 0.31415 0.25452 0.0
C289 C 0.1415 0.31577 0.22845 0.0
C290 C 0.13443 0.30476 0.19335 0.0
C291 C 0.16096 0.32556 0.29248 0.0
C292 C 0.14866 0.32556 0.32139 0.0
C293 C 0.17969 0.33555 0.30144 0.0
C294 C 0.1935 0.33712 0.27121 0.0
C295 C 0.19372 0.34323 0.23059 0.0
C296 C 0.20669 0.34457 0.20217 0.0
C297 C 0.21959 0.33996 0.21408 0.0
C298 C 0.21957 0.33403 0.25447 0.0
C299 C 0.20662 0.33265 0.28301 0.0
H300 H 0.22962 0.34101 0.19203 0.0
H301 H 0.10447 0.32936 0.4683 0.0
H302 H 0.60762 0.79375 0.45185 0.0
H303 H 0.62487 0.79953 0.38763 0.0
H304 H 0.66311 0.85309 0.43068 0.0
H305 H 0.6457 0.84756 0.49453 0.0
H306 H 0.65504 0.85452 0.35255 0.0
H307 H 0.67282 0.81793 0.42982 0.0
H308 H 0.66805 0.79131 0.46984 0.0
H309 H 0.64111 0.75702 0.36564 0.0
H310 H 0.64552 0.78342 0.32516 0.0
H311 H 0.72239 0.87359 0.19939 0.0
H312 H 0.70594 0.86807 0.26483 0.0
H313 H 0.667 0.81446 0.22345 0.0
H314 H 0.68355 0.81973 0.15843 0.0
H315 H 0.67585 0.81328 0.30129 0.0
H316 H 0.65769 0.84976 0.2244 0.0
H317 H 0.66237 0.87634 0.18434 0.0
H318 H 0.68995 0.9108 0.28786 0.0
H319 H 0.68564 0.88444 0.32838 0.0
C320 C 0.61974 0.80674 0.44776 0.0
C321 C 0.62527 0.82017 0.47847 0.0
C322 C 0.62965 0.81001 0.41103 0.0
C323 C 0.64546 0.82669 0.40437 0.0
C324 C 0.65099 0.84011 0.43499 0.0
C325 C 0.64103 0.8369 0.47161 0.0
C326 C 0.65605 0.8303 0.36523 0.0
C327 C 0.65981 0.84563 0.34169 0.0
C328 C 0.66196 0.81852 0.35037 0.0
C329 C 0.65936 0.80264 0.3746 0.0
C330 C 0.66577 0.8047 0.41554 0.0
C331 C 0.66315 0.78965 0.43829 0.0
C332 C 0.65424 0.77248 0.42033 0.0
C333 C 0.64799 0.77032 0.37953 0.0
C334 C 0.65056 0.78533 0.35666 0.0
C335 C 0.71031 0.86064 0.20417 0.0
C336 C 0.70429 0.84713 0.17352 0.0
C337 C 0.70086 0.85751 0.24159 0.0
C338 C 0.68507 0.8409 0.24902 0.0
C339 C 0.67912 0.82738 0.21855 0.0
C340 C 0.6886 0.83045 0.18126 0.0
C341 C 0.6748 0.83748 0.2886 0.0
C342 C 0.6711 0.82219 0.31221 0.0
C343 C 0.66894 0.84929 0.30352 0.0
C344 C 0.6715 0.86515 0.27926 0.0
C345 C 0.66487 0.86302 0.23851 0.0
C346 C 0.66744 0.87805 0.21574 0.0
C347 C 0.6765 0.89526 0.23351 0.0
C348 C 0.68296 0.89747 0.27412 0.0
C349 C 0.68045 0.88249 0.29701 0.0
H350 H 0.67847 0.90687 0.21583 0.0
H351 H 0.65223 0.76084 0.438 0.0
H352 H 0.15738 0.79687 0.48718 0.0
H353 H 0.15128 0.80873 0.42407 0.0
H354 H 0.208 0.83622 0.39339 0.0
H355 H 0.21427 0.82466 0.45693 0.0
H356 H 0.19415 0.85762 0.37881 0.0
H357 H 0.17737 0.79643 0.34525 0.0
H358 H 0.16131 0.76338 0.35485 0.0
H359 H 0.11033 0.7616 0.345 0.0
H360 H 0.1261 0.79468 0.33589 0.0
H361 H 0.18723 0.87565 0.16699 0.0
H362 H 0.19275 0.86446 0.23185 0.0
H363 H 0.1358 0.83745 0.25999 0.0
H364 H 0.13011 0.84838 0.19468 0.0
H365 H 0.14931 0.81591 0.27653 0.0
H366 H 0.16604 0.87701 0.30887 0.0
H367 H 0.18206 0.91005 0.29928 0.0
H368 H 0.23306 0.91205 0.31149 0.0
H369 H 0.21734 0.87897 0.32059 0.0
C370 C 0.16859 0.80548 0.46711 0.0
C371 C 0.18632 0.80973 0.47711 0.0
C372 C 0.16506 0.81219 0.43086 0.0
C373 C 0.17913 0.82317 0.40354 0.0
C374 C 0.19689 0.82774 0.41387 0.0
C375 C 0.20045 0.82108 0.4502 0.0
C376 C 0.17533 0.82982 0.36415 0.0
C377 C 0.18452 0.84847 0.35621 0.0
C378 C 0.16243 0.81796 0.33502 0.0
C379 C 0.15292 0.79805 0.3403 0.0
C380 C 0.16274 0.78901 0.34544 0.0
C381 C 0.15369 0.77027 0.35075 0.0
C382 C 0.13481 0.7604 0.35065 0.0
C383 C 0.12495 0.76926 0.34513 0.0
C384 C 0.13394 0.788 0.33986 0.0
C385 C 0.17585 0.86734 0.18693 0.0
C386 C 0.15822 0.86298 0.17559 0.0
C387 C 0.17905 0.86102 0.22419 0.0
C388 C 0.16474 0.8503 0.25121 0.0
C389 C 0.14709 0.84573 0.23976 0.0
C390 C 0.14386 0.85203 0.20242 0.0
C391 C 0.16817 0.84371 0.29112 0.0
C392 C 0.15892 0.82507 0.29916 0.0
C393 C 0.18101 0.85558 0.32035 0.0
C394 C 0.19051 0.87549 0.31502 0.0
C395 C 0.18067 0.88448 0.30919 0.0
C396 C 0.1897 0.90322 0.3039 0.0
C397 C 0.20857 0.91314 0.30467 0.0
C398 C 0.21845 0.90435 0.31084 0.0
C399 C 0.20948 0.8856 0.31611 0.0
H400 H 0.21553 0.92765 0.30057 0.0
H401 H 0.12783 0.74589 0.35476 0.0
H402 H 0.37388 0.20256 0.51557 0.0
H403 H 0.35537 0.19472 0.57833 0.0
H404 H 0.35613 0.14476 0.58768 0.0
H405 H 0.37419 0.15227 0.52448 0.0
H406 H 0.32352 0.13852 0.60246 0.0
H407 H 0.38264 0.18238 0.65091 0.0
H408 H 0.41097 0.21173 0.65202 0.0
H409 H 0.38103 0.23883 0.67604 0.0
H410 H 0.35249 0.20964 0.67453 0.0
H411 H 0.29467 0.11529 0.81038 0.0
H412 H 0.31307 0.12493 0.7475 0.0
H413 H 0.3058 0.17122 0.7382 0.0
H414 H 0.28739 0.16171 0.80137 0.0
H415 H 0.34098 0.18001 0.72293 0.0
H416 H 0.28185 0.1355 0.67662 0.0
H417 H 0.25386 0.10585 0.67675 0.0
H418 H 0.28442 0.07966 0.64981 0.0
H419 H 0.31264 0.10915 0.65009 0.0
C420 C 0.37012 0.18991 0.531 0.0
C421 C 0.37557 0.17807 0.51497 0.0
C422 C 0.35959 0.18548 0.56706 0.0
C423 C 0.3545 0.16923 0.5882 0.0
C424 C 0.35985 0.15736 0.57204 0.0
C425 C 0.37024 0.16171 0.53587 0.0
C426 C 0.34342 0.1644 0.62682 0.0
C427 C 0.32749 0.14753 0.62895 0.0
C428 C 0.34829 0.17629 0.66118 0.0
C429 C 0.36542 0.19384 0.66216 0.0
C430 C 0.38209 0.19461 0.6561 0.0
C431 C 0.39818 0.21122 0.65687 0.0
C432 C 0.39779 0.22714 0.66398 0.0
C433 C 0.38131 0.22649 0.67046 0.0
C434 C 0.36517 0.20991 0.66969 0.0
C435 C 0.297 0.12756 0.79511 0.0
C436 C 0.28946 0.13767 0.81089 0.0
C437 C 0.30749 0.13302 0.75901 0.0
C438 C 0.31065 0.14869 0.73781 0.0
C439 C 0.3035 0.15906 0.75397 0.0
C440 C 0.29294 0.15357 0.79003 0.0
C441 C 0.32126 0.15409 0.69858 0.0
C442 C 0.33704 0.17106 0.69634 0.0
C443 C 0.31633 0.14226 0.66418 0.0
C444 C 0.29937 0.12452 0.66376 0.0
C445 C 0.28262 0.12341 0.67104 0.0
C446 C 0.26671 0.10663 0.67098 0.0
C447 C 0.26737 0.09088 0.66339 0.0
C448 C 0.28394 0.09187 0.65573 0.0
C449 C 0.29989 0.10862 0.65579 0.0
H450 H 0.25504 0.0779 0.66337 0.0
H451 H 0.41027 0.23998 0.66456 0.0
H452 H 0.8216 0.21262 0.54544 0.0
H453 H 0.83367 0.20526 0.60634 0.0
H454 H 0.806 0.14915 0.57034 0.0
H455 H 0.79357 0.15635 0.5097 0.0
H456 H 0.80155 0.15199 0.65061 0.0
H457 H 0.85237 0.17638 0.55913 0.0
H458 H 0.87518 0.19872 0.51153 0.0
H459 H 0.89528 0.23831 0.60881 0.0
H460 H 0.87242 0.21627 0.65687 0.0
H461 H 0.84569 0.12806 0.80529 0.0
H462 H 0.83555 0.13289 0.73786 0.0
H463 H 0.86079 0.18995 0.76351 0.0
H464 H 0.87122 0.18531 0.83031 0.0
H465 H 0.86683 0.18479 0.68543 0.0
H466 H 0.81465 0.161 0.77514 0.0
H467 H 0.79173 0.13873 0.8227 0.0
H468 H 0.77422 0.09798 0.72825 0.0
H469 H 0.79721 0.11997 0.68029 0.0
C470 C 0.81814 0.19872 0.55029 0.0
C471 C 0.80662 0.18509 0.52254 0.0
C472 C 0.82514 0.19453 0.5851 0.0
C473 C 0.82095 0.17666 0.59279 0.0
C474 C 0.80947 0.16303 0.56511 0.0
C475 C 0.80241 0.1672 0.53034 0.0
C476 C 0.82812 0.17215 0.63032 0.0
C477 C 0.81586 0.15896 0.65782 0.0
C478 C 0.84677 0.18143 0.64029 0.0
C479 C 0.86058 0.19471 0.6115 0.0
C480 C 0.86157 0.18989 0.57029 0.0
C481 C 0.87452 0.20249 0.54324 0.0
C482 C 0.88665 0.21994 0.55711 0.0
C483 C 0.88587 0.2248 0.5981 0.0
C484 C 0.87293 0.21225 0.62527 0.0
C485 C 0.84918 0.14165 0.79645 0.0
C486 C 0.85921 0.15628 0.82338 0.0
C487 C 0.84329 0.14438 0.75795 0.0
C488 C 0.84719 0.16177 0.74573 0.0
C489 C 0.85758 0.17641 0.77215 0.0
C490 C 0.8635 0.17371 0.81049 0.0
C491 C 0.84023 0.1648 0.70591 0.0
C492 C 0.85253 0.17773 0.678 0.0
C493 C 0.82163 0.15528 0.69555 0.0
C494 C 0.80778 0.14207 0.72431 0.0
C495 C 0.806 0.14725 0.76463 0.0
C496 C 0.79298 0.13469 0.79163 0.0
C497 C 0.78156 0.11693 0.77854 0.0
C498 C 0.7831 0.11173 0.73837 0.0
C499 C 0.79611 0.12424 0.71126 0.0
H500 H 0.77149 0.10723 0.79949 0.0
H501 H 0.89667 0.22968 0.53612 0.0
H502 H 0.86946 0.68528 0.83368 0.0
H503 H 0.8585 0.66905 0.76826 0.0
H504 H 0.83764 0.70392 0.73389 0.0
H505 H 0.84831 0.72007 0.79984 0.0
H506 H 0.81386 0.66965 0.71488 0.0
H507 H 0.87708 0.70928 0.69154 0.0
H508 H 0.90966 0.72333 0.7064 0.0
H509 H 0.90612 0.67152 0.69806 0.0
H510 H 0.87345 0.65711 0.68371 0.0
H511 H 0.79895 0.6422 0.503 0.0
H512 H 0.80988 0.66002 0.56664 0.0
H513 H 0.83211 0.62702 0.60692 0.0
H514 H 0.82153 0.60938 0.54305 0.0
H515 H 0.85541 0.66154 0.62155 0.0
H516 H 0.79199 0.62184 0.64692 0.0
H517 H 0.7594 0.60782 0.63219 0.0
H518 H 0.76337 0.6599 0.63652 0.0
H519 H 0.79606 0.67427 0.65075 0.0
C520 C 0.86254 0.68953 0.81228 0.0
C521 C 0.85986 0.70407 0.82203 0.0
C522 C 0.85634 0.68027 0.7747 0.0
C523 C 0.84748 0.68542 0.74572 0.0
C524 C 0.84449 0.69972 0.75564 0.0
C525 C 0.85064 0.70898 0.79335 0.0
C526 C 0.8413 0.6758 0.70523 0.0
C527 C 0.82302 0.66812 0.69418 0.0
C528 C 0.85312 0.67346 0.67847 0.0
C529 C 0.87278 0.68209 0.68691 0.0
C530 C 0.88322 0.70086 0.69317 0.0
C531 C 0.90171 0.70889 0.70146 0.0
C532 C 0.90995 0.69832 0.70327 0.0
C533 C 0.89972 0.67969 0.6967 0.0
C534 C 0.88122 0.67158 0.68844 0.0
C535 C 0.80618 0.63873 0.52536 0.0
C536 C 0.80929 0.62429 0.51788 0.0
C537 C 0.81236 0.64889 0.56189 0.0
C538 C 0.82163 0.64474 0.59197 0.0
C539 C 0.82497 0.6305 0.58429 0.0
C540 C 0.81886 0.62038 0.54773 0.0
C541 C 0.82794 0.65525 0.63136 0.0
C542 C 0.84626 0.66311 0.64218 0.0
C543 C 0.81616 0.65777 0.65787 0.0
C544 C 0.7965 0.64915 0.64947 0.0
C545 C 0.78594 0.63032 0.64442 0.0
C546 C 0.76745 0.62231 0.63621 0.0
C547 C 0.75933 0.63297 0.6333 0.0
C548 C 0.76968 0.65166 0.63872 0.0
C549 C 0.78819 0.65974 0.64688 0.0
H550 H 0.74501 0.62674 0.62695 0.0
H551 H 0.92426 0.70456 0.70969 0.0
H552 H 0.96088 0.49357 0.14062 0.0
H553 H 0.98086 0.50532 0.08025 0.0
H554 H 0.9751 0.45282 0.05992 0.0
H555 H 0.95552 0.44112 0.12059 0.0
H556 H 0.00899 0.4779 0.04846 0.0
H557 H 0.95144 0.46898 1.00202 0.0
H558 H 0.92486 0.47308 0.00396 0.0
H559 H 0.95923 0.53032 0.98862 0.0
H560 H 0.98605 0.52658 0.98711 0.0
H561 H 0.0345 0.48317 0.83825 0.0
H562 H 0.01808 0.47585 0.90381 0.0
H563 H 0.02978 0.53094 0.91499 0.0
H564 H 0.04618 0.53838 0.84894 0.0
H565 H 0.9947 0.50725 0.93339 0.0
H566 H 0.05211 0.51566 0.9746 0.0
H567 H 0.07847 0.51123 0.97179 0.0
H568 H 0.04419 0.45464 0.9964 0.0
H569 H 0.01758 0.45868 0.99878 0.0
C570 C 0.96393 0.48454 0.12342 0.0
C571 C 0.9565 0.46636 0.13546 0.0
C572 C 0.9753 0.49127 0.08872 0.0
C573 C 0.97932 0.47991 0.06501 0.0
C574 C 0.97222 0.46187 0.07756 0.0
C575 C 0.96096 0.45518 0.11231 0.0
C576 C 0.99073 0.48663 0.02688 0.0
C577 C 0.00573 0.48416 0.02317 0.0
C578 C 0.98686 0.49527 0.99417 0.0
C579 C 0.97076 0.49752 0.99492 0.0
C580 C 0.95334 0.48246 0.99937 0.0
C581 C 0.93823 0.48471 1.00034 0.0
C582 C 0.94036 0.50196 0.99654 0.0
C583 C 0.9576 0.51698 0.99164 0.0
C584 C 0.97276 0.5148 0.9907 0.0
C585 C 0.03366 0.49378 0.85461 0.0
C586 C 0.04174 0.51139 0.83826 0.0
C587 C 0.02431 0.48958 0.89229 0.0
C588 C 0.02284 0.50288 0.91471 0.0
C589 C 0.03076 0.52045 0.89837 0.0
C590 C 0.04019 0.5247 0.86064 0.0
C591 C 0.01276 0.49825 0.95477 0.0
C592 C 0.99803 0.50112 0.95884 0.0
C593 C 0.01684 0.48993 0.98777 0.0
C594 C 0.03283 0.48745 0.98652 0.0
C595 C 0.05017 0.50224 0.9791 0.0
C596 C 0.06516 0.49981 0.97764 0.0
C597 C 0.063 0.48265 0.98382 0.0
C598 C 0.04585 0.46791 0.99158 0.0
C599 C 0.0308 0.47027 0.99303 0.0
H600 H 0.07463 0.48079 0.98268 0.0
H601 H 0.92864 0.50367 0.9973 0.0
H602 H 0.55975 0.51805 0.14541 0.0
H603 H 0.54928 0.5263 0.08311 0.0
H604 H 0.49645 0.47936 0.09822 0.0
H605 H 0.50694 0.4708 0.16024 0.0
H606 H 0.5063 0.48317 0.01901 0.0
H607 H 0.50477 0.52213 0.12348 0.0
H608 H 0.51678 0.54449 0.18009 0.0
H609 H 0.55758 0.58306 0.09857 0.0
H610 H 0.54595 0.56084 0.04158 0.0
H611 H 0.4617 0.51212 0.87628 0.0
H612 H 0.47112 0.50247 0.93833 0.0
H613 H 0.52516 0.54767 0.92489 0.0
H614 H 0.51584 0.55747 0.86313 0.0
H615 H 0.51377 0.54429 0.00394 0.0
H616 H 0.51522 0.50488 0.89963 0.0
H617 H 0.50287 0.48238 0.84332 0.0
H618 H 0.46163 0.44453 0.92508 0.0
H619 H 0.47359 0.4669 0.98176 0.0
C620 C 0.54588 0.50947 0.13558 0.0
C621 C 0.53417 0.49379 0.15804 0.0
C622 C 0.53988 0.51425 0.09996 0.0
C623 C 0.52198 0.5036 0.08616 0.0
C624 C 0.51031 0.48783 0.10823 0.0
C625 C 0.51632 0.48298 0.1438 0.0
C626 C 0.51549 0.5089 0.04863 0.0
C627 C 0.5077 0.49645 0.01601 0.0
C628 C 0.51759 0.52634 0.04419 0.0
C629 C 0.52459 0.53976 0.07837 0.0
C630 C 0.51638 0.53533 0.1177 0.0
C631 C 0.52311 0.54799 0.14985 0.0
C632 C 0.53796 0.56517 0.14296 0.0
C633 C 0.54609 0.56974 0.10387 0.0
C634 C 0.53943 0.55713 0.07163 0.0
C635 C 0.47561 0.51998 0.88641 0.0
C636 C 0.48801 0.53558 0.86461 0.0
C637 C 0.481 0.5144 0.92185 0.0
C638 C 0.4989 0.52426 0.9362 0.0
C639 C 0.51128 0.53983 0.91449 0.0
C640 C 0.50593 0.54539 0.87904 0.0
C641 C 0.50471 0.51861 0.97425 0.0
C642 C 0.51235 0.531 0.007 0.0
C643 C 0.5024 0.5011 0.97883 0.0
C644 C 0.49519 0.48763 0.94481 0.0
C645 C 0.50343 0.49181 0.9055 0.0
C646 C 0.49652 0.47907 0.87354 0.0
C647 C 0.48144 0.46205 0.88058 0.0
C648 C 0.47328 0.45773 0.91965 0.0
C649 C 0.48013 0.47042 0.95172 0.0
H650 H 0.47612 0.45221 0.8558 0.0
H651 H 0.54315 0.57496 0.16789 0.0
H652 H 0.54361 0.02587 0.1647 0.0
H653 H 0.53192 0.00894 0.10026 0.0
H654 H 0.50346 0.03772 0.0751 0.0
H655 H 0.51492 0.05456 0.13994 0.0
H656 H 0.48239 0.00236 0.05903 0.0
H657 H 0.5427 0.04816 0.02395 0.0
H658 H 0.57581 0.06595 0.03184 0.0
H659 H 0.57926 0.01784 0.01723 0.0
H660 H 0.54613 -0.00029 0.00981 0.0
H661 H 0.46188 0.97556 0.84826 0.0
H662 H 0.47371 0.99332 0.91167 0.0
H663 H 0.50331 0.96583 0.93839 0.0
H664 H 0.49179 0.94824 0.87462 0.0
H665 H 0.52383 0.00101 0.9532 0.0
H666 H 0.46358 0.95514 0.98934 0.0
H667 H 0.43046 0.93723 0.98173 0.0
H668 H 0.42688 0.98534 0.99461 0.0
H669 H 0.46002 0.00358 1.00175 0.0
C670 C 0.53486 0.02862 0.14553 0.0
C671 C 0.53027 0.04165 0.15751 0.0
C672 C 0.52824 0.01897 0.10851 0.0
C673 C 0.51699 0.0222 0.08243 0.0
C674 C 0.51216 0.035 0.09461 0.0
C675 C 0.51876 0.04467 0.13167 0.0
C676 C 0.51019 0.01215 0.04264 0.0
C677 C 0.49147 0.00229 0.03563 0.0
C678 C 0.52198 0.01168 0.01241 0.0
C679 C 0.54192 0.02256 0.01672 0.0
C680 C 0.55051 0.04135 0.02274 0.0
C681 C 0.56928 0.0515 0.02707 0.0
C682 C 0.57963 0.04302 0.02515 0.0
C683 C 0.57123 0.02438 0.01877 0.0
C684 C 0.55245 0.01417 0.01446 0.0
C685 C 0.47093 0.97329 0.86755 0.0
C686 C 0.47581 0.96039 0.85634 0.0
C687 C 0.47763 0.98341 0.90397 0.0
C688 C 0.48922 0.98076 0.93024 0.0
C689 C 0.49436 0.96812 0.91875 0.0
C690 C 0.48771 0.95802 0.88227 0.0
C691 C 0.49602 0.99117 0.96963 0.0
C692 C 0.51474 0.0011 0.97656 0.0
C693 C 0.48423 0.99169 0.99981 0.0
C694 C 0.4643 0.98074 0.99565 0.0
C695 C 0.45574 0.96192 0.99023 0.0
C696 C 0.43696 0.9517 0.98605 0.0
C697 C 0.42658 0.96015 0.98757 0.0
C698 C 0.43495 0.97882 0.99338 0.0
C699 C 0.45372 0.9891 0.99752 0.0
H700 H 0.41204 0.95222 0.98434 0.0
H701 H 0.59416 0.05091 0.02851 0.0
H702 H 0.11771 0.24523 0.92262 0.0
H703 H 0.13 0.26302 0.85958 0.0
H704 H 0.17249 0.30588 0.93126 0.0
H705 H 0.15971 0.28843 0.99473 0.0
H706 H 0.15976 0.31966 0.8813 0.0
H707 H 0.17975 0.27636 0.8633 0.0
H708 H 0.1767 0.24614 0.85796 0.0
H709 H 0.13932 0.23279 0.75724 0.0
H710 H 0.14225 0.26297 0.76164 0.0
H711 H 0.21879 0.37153 0.72917 0.0
H712 H 0.20691 0.34609 0.77701 0.0
H713 H 0.15715 0.31943 0.70768 0.0
H714 H 0.169 0.34506 0.65925 0.0
H715 H 0.17228 0.29629 0.75202 0.0
H716 H 0.1532 0.34099 0.77302 0.0
H717 H 0.15972 0.37252 0.77635 0.0
H718 H 0.19812 0.38369 0.87386 0.0
H719 H 0.19206 0.35229 0.87054 0.0
C720 C 0.12968 0.25846 0.92491 0.0
C721 C 0.1377 0.26552 0.96359 0.0
C722 C 0.1368 0.26854 0.88878 0.0
C723 C 0.15236 0.28568 0.89049 0.0
C724 C 0.16047 0.29268 0.92914 0.0
C725 C 0.15314 0.28274 0.9654 0.0
C726 C 0.15959 0.29679 0.85248 0.0
C727 C 0.16263 0.31451 0.85331 0.0
C728 C 0.163 0.29004 0.81542 0.0
C729 C 0.16108 0.27185 0.81306 0.0
C730 C 0.17078 0.26693 0.8402 0.0
C731 C 0.1691 0.24983 0.83731 0.0
C732 C 0.15772 0.23752 0.80754 0.0
C733 C 0.14809 0.24233 0.78036 0.0
C734 C 0.14981 0.25944 0.78291 0.0
C735 C 0.20553 0.36001 0.72326 0.0
C736 C 0.19464 0.36039 0.69107 0.0
C737 C 0.19882 0.34546 0.75049 0.0
C738 C 0.18112 0.33109 0.74602 0.0
C739 C 0.17088 0.33046 0.71138 0.0
C740 C 0.17764 0.34509 0.68387 0.0
C741 C 0.1725 0.31894 0.78157 0.0
C742 C 0.16922 0.30119 0.78017 0.0
C743 C 0.16904 0.32564 0.8184 0.0
C744 C 0.17229 0.34436 0.82128 0.0
C745 C 0.16312 0.35021 0.79497 0.0
C746 C 0.16672 0.36805 0.79687 0.0
C747 C 0.17936 0.38012 0.82524 0.0
C748 C 0.18836 0.37434 0.85187 0.0
C749 C 0.18483 0.35652 0.85002 0.0
H750 H 0.18214 0.39393 0.82664 0.0
H751 H 0.15643 0.22429 0.80542 0.0
H752 H 0.63311 0.81987 0.6581 0.0
H753 H 0.65403 0.82899 0.71676 0.0
H754 H 0.61397 0.8301 0.79604 0.0
H755 H 0.59293 0.82088 0.7379 0.0
H756 H 0.65059 0.85776 0.81335 0.0
H757 H 0.61433 0.79383 0.78874 0.0
H758 H 0.60268 0.76738 0.74284 0.0
H759 H 0.65611 0.77515 0.72988 0.0
H760 H 0.66833 0.80253 0.77333 0.0
H761 H 0.69013 0.85131 1.00107 0.0
H762 H 0.66655 0.84333 0.94859 0.0
H763 H 0.69792 0.83231 0.86074 0.0
H764 H 0.72114 0.83978 0.91283 0.0
H765 H 0.66342 0.80895 0.85106 0.0
H766 H 0.70047 0.87371 0.8649 0.0
H767 H 0.71428 0.90272 0.90249 0.0
H768 H 0.6616 0.89397 0.93307 0.0
H769 H 0.64747 0.86478 0.89606 0.0
C770 C 0.6289 0.82246 0.68777 0.0
C771 C 0.61128 0.81935 0.69359 0.0
C772 C 0.64087 0.82769 0.72117 0.0
C773 C 0.63538 0.82993 0.76068 0.0
C774 C 0.61839 0.82838 0.76575 0.0
C775 C 0.60637 0.82299 0.73253 0.0
C776 C 0.64624 0.83142 0.79757 0.0
C777 C 0.65325 0.84704 0.82198 0.0
C778 C 0.64974 0.8174 0.80835 0.0
C779 C 0.64229 0.80041 0.78394 0.0
C780 C 0.62365 0.79005 0.77576 0.0
C781 C 0.61694 0.7749 0.75008 0.0
C782 C 0.62861 0.76948 0.73369 0.0
C783 C 0.64707 0.77935 0.74263 0.0
C784 C 0.65393 0.79479 0.76753 0.0
C785 C 0.69177 0.84677 0.97086 0.0
C786 C 0.7076 0.84642 0.96086 0.0
C787 C 0.67837 0.84235 0.94086 0.0
C788 C 0.6807 0.83761 0.90054 0.0
C789 C 0.69589 0.83603 0.89156 0.0
C790 C 0.7092 0.84039 0.92139 0.0
C791 C 0.66814 0.83549 0.86659 0.0
C792 C 0.66067 0.81965 0.84275 0.0
C793 C 0.66446 0.84942 0.85598 0.0
C794 C 0.67292 0.86697 0.87816 0.0
C795 C 0.69184 0.87791 0.87992 0.0
C796 C 0.69972 0.89439 0.90107 0.0
C797 C 0.68883 0.90016 0.92028 0.0
C798 C 0.67002 0.88947 0.91826 0.0
C799 C 0.66207 0.87296 0.89719 0.0
H800 H 0.69496 0.91292 0.93665 0.0
H801 H 0.62335 0.75765 0.71404 0.0
H802 H 0.15334 0.87925 0.90557 0.0
H803 H 0.16291 0.86489 0.85438 0.0
H804 H 0.16525 0.8305 0.94913 0.0
H805 H 0.15568 0.84498 1.00123 0.0
H806 H 0.19438 0.84409 0.89216 0.0
H807 H 0.12971 0.81314 0.88965 0.0
H808 H 0.09979 0.81082 0.88718 0.0
H809 H 0.11239 0.83677 0.76808 0.0
H810 H 0.14251 0.83949 0.77012 0.0
H811 H 0.19806 0.7852 0.74292 0.0
H812 H 0.18831 0.79654 0.8009 0.0
H813 H 0.18045 0.83158 0.71781 0.0
H814 H 0.19 0.82013 0.65925 0.0
H815 H 0.15298 0.81508 0.773 0.0
H816 H 0.21813 0.84918 0.7783 0.0
H817 H 0.24865 0.85289 0.77999 0.0
H818 H 0.23537 0.8216 0.89195 0.0
H819 H 0.20475 0.81778 0.89101 0.0
C820 C 0.15599 0.86873 0.91578 0.0
C821 C 0.15352 0.86309 0.95741 0.0
C822 C 0.16144 0.86052 0.88641 0.0
C823 C 0.16442 0.84643 0.89792 0.0
C824 C 0.16287 0.8413 0.93973 0.0
C825 C 0.15741 0.84957 0.96937 0.0
C826 C 0.1685 0.83677 0.86557 0.0
C827 C 0.18521 0.83743 0.86651 0.0
C828 C 0.15662 0.82843 0.83175 0.0
C829 C 0.13842 0.82663 0.83019 0.0
C830 C 0.12615 0.81846 0.86306 0.0
C831 C 0.10914 0.81706 0.86172 0.0
C832 C 0.1042 0.82367 0.82753 0.0
C833 C 0.11624 0.83166 0.79456 0.0
C834 C 0.13327 0.83312 0.79576 0.0
C835 C 0.1942 0.79527 0.73684 0.0
C836 C 0.19493 0.80188 0.69649 0.0
C837 C 0.18869 0.80178 0.77009 0.0
C838 C 0.18395 0.81509 0.76369 0.0
C839 C 0.18413 0.82134 0.72333 0.0
C840 C 0.1896 0.8148 0.68996 0.0
C841 C 0.17899 0.82266 0.7992 0.0
C842 C 0.16208 0.82157 0.79887 0.0
C843 C 0.19071 0.83065 0.83344 0.0
C844 C 0.20912 0.83305 0.83436 0.0
C845 C 0.2217 0.84301 0.80315 0.0
C846 C 0.23901 0.84515 0.804 0.0
C847 C 0.24391 0.83737 0.83589 0.0
C848 C 0.23154 0.82757 0.86721 0.0
C849 C 0.21423 0.82548 0.86662 0.0
H850 H 0.25731 0.839 0.8364 0.0
H851 H 0.09103 0.82258 0.82656 0.0
H852 H 0.35789 0.18238 0.33612 0.0
H853 H 0.33367 0.17271 0.28461 0.0
H854 H 0.37263 0.18685 0.18611 0.0
H855 H 0.39678 0.19666 0.23686 0.0
H856 H 0.35041 0.2001 0.17202 0.0
H857 H 0.34495 0.14317 0.21357 0.0
H858 H 0.34072 0.11954 0.26359 0.0
H859 H 0.28919 0.11267 0.29879 0.0
H860 H 0.29324 0.13644 0.24932 0.0
H861 H 0.29843 0.15484 0.99555 0.0
H862 H 0.31947 0.16567 0.05396 0.0
H863 H 0.27489 0.14881 0.13896 0.0
H864 H 0.25375 0.13776 0.08094 0.0
H865 H 0.29788 0.1379 0.16458 0.0
H866 H 0.30211 0.19296 0.11855 0.0
H867 H 0.30621 0.21638 0.06807 0.0
H868 H 0.35985 0.2269 0.04142 0.0
H869 H 0.35598 0.20334 0.0913 0.0
C870 C 0.36125 0.18332 0.30348 0.0
C871 C 0.37926 0.19032 0.29059 0.0
C872 C 0.34742 0.17778 0.27415 0.0
C873 C 0.3514 0.17907 0.2316 0.0
C874 C 0.3693 0.18585 0.2188 0.0
C875 C 0.38308 0.19139 0.24793 0.0
C876 C 0.33708 0.17365 0.19997 0.0
C877 C 0.33898 0.18646 0.17017 0.0
C878 C 0.32193 0.15602 0.19841 0.0
C879 C 0.31949 0.14173 0.22812 0.0
C880 C 0.33279 0.13673 0.23224 0.0
C881 C 0.33042 0.12329 0.26044 0.0
C882 C 0.31473 0.11465 0.28445 0.0
C883 C 0.30136 0.1194 0.28023 0.0
C884 C 0.30368 0.13285 0.25211 0.0
C885 C 0.29311 0.15354 0.02664 0.0
C886 C 0.27442 0.14541 0.03359 0.0
C887 C 0.30515 0.15978 0.05995 0.0
C888 C 0.29872 0.15815 0.10071 0.0
C889 C 0.2801 0.15018 0.10772 0.0
C890 C 0.26805 0.14391 0.07448 0.0
C891 C 0.31142 0.16424 0.13609 0.0
C892 C 0.30919 0.15159 0.16664 0.0
C893 C 0.32628 0.18202 0.13837 0.0
C894 C 0.32869 0.19627 0.10845 0.0
C895 C 0.31473 0.20016 0.1017 0.0
C896 C 0.31702 0.21348 0.07322 0.0
C897 C 0.33327 0.22309 0.05149 0.0
C898 C 0.34727 0.21943 0.05826 0.0
C899 C 0.34504 0.20611 0.08666 0.0
H900 H 0.33501 0.2334 0.02946 0.0
H901 H 0.31291 0.10424 0.30625 0.0
H902 H 0.87303 0.1903 0.03231 0.0
H903 H 0.85895 0.20155 0.08086 0.0
H904 H 0.80784 0.15241 0.06506 0.0
H905 H 0.82172 0.1417 0.01449 0.0
H906 H 0.80184 0.17858 0.08824 0.0
H907 H 0.83814 0.15422 0.13557 0.0
H908 H 0.8654 0.15132 0.13934 0.0
H909 H 0.89609 0.20566 0.18502 0.0
H910 H 0.86905 0.20897 0.18085 0.0
H911 H 0.80245 0.18317 0.33283 0.0
H912 H 0.81037 0.17404 0.26786 0.0
H913 H 0.8032 0.21395 0.20167 0.0
H914 H 0.79436 0.22236 0.26594 0.0
H915 H 0.83662 0.1904 0.21907 0.0
H916 H 0.79117 0.20249 0.10377 0.0
H917 H 0.76115 0.20003 0.10333 0.0
H918 H 0.74334 0.16032 0.20022 0.0
H919 H 0.7732 0.16248 0.20116 0.0
C920 C 0.85859 0.18239 0.0376 0.0
C921 C 0.84839 0.16519 0.02001 0.0
C922 C 0.85059 0.18872 0.06556 0.0
C923 C 0.83252 0.17752 0.07763 0.0
C924 C 0.82183 0.16121 0.05642 0.0
C925 C 0.82974 0.15511 0.02746 0.0
C926 C 0.82585 0.18123 0.1167 0.0
C927 C 0.80946 0.18128 0.11682 0.0
C928 C 0.83538 0.1839 0.15442 0.0
C929 C 0.85163 0.1819 0.15751 0.0
C930 C 0.85073 0.16558 0.1462 0.0
C931 C 0.86614 0.16386 0.1484 0.0
C932 C 0.88248 0.17831 0.16233 0.0
C933 C 0.88343 0.19449 0.17418 0.0
C934 C 0.86807 0.1963 0.1719 0.0
C935 C 0.80249 0.1899 0.30434 0.0
C936 C 0.79782 0.20348 0.30439 0.0
C937 C 0.80701 0.18469 0.26726 0.0
C938 C 0.80717 0.19314 0.22973 0.0
C939 C 0.80273 0.20688 0.22995 0.0
C940 C 0.79784 0.21181 0.2668 0.0
C941 C 0.81276 0.18818 0.19068 0.0
C942 C 0.82897 0.1878 0.19056 0.0
C943 C 0.80259 0.18436 0.15357 0.0
C944 C 0.78449 0.18277 0.15273 0.0
C945 C 0.78083 0.19319 0.12487 0.0
C946 C 0.76385 0.19188 0.12462 0.0
C947 C 0.75038 0.1801 0.15189 0.0
C948 C 0.75382 0.16953 0.17933 0.0
C949 C 0.77078 0.17082 0.17979 0.0
H950 H 0.73725 0.17912 0.15169 0.0
H951 H 0.8944 0.17696 0.16402 0.0
H952 H 0.88173 0.72437 0.08851 0.0
H953 H 0.86964 0.69954 0.13768 0.0
H954 H 0.83366 0.66358 0.04383 0.0
H955 H 0.84566 0.68866 0.99394 0.0
H956 H 0.81621 0.66095 0.11643 0.0
H957 H 0.86848 0.65889 0.07559 0.0
H958 H 0.90065 0.67075 0.05919 0.0
H959 H 0.9151 0.68926 0.1846 0.0
H960 H 0.88304 0.67775 0.20165 0.0
H961 H 0.79059 0.58581 0.25263 0.0
H962 H 0.80226 0.60634 0.19349 0.0
H963 H 0.83784 0.64975 0.27474 0.0
H964 H 0.82614 0.6293 0.33442 0.0
H965 H 0.85474 0.64558 0.20272 0.0
H966 H 0.80239 0.64987 0.24059 0.0
H967 H 0.77013 0.63781 0.25631 0.0
H968 H 0.75582 0.61437 0.13473 0.0
H969 H 0.78802 0.62608 0.11849 0.0
C970 C 0.87135 0.71118 0.07804 0.0
C971 C 0.8646 0.7085 0.03732 0.0
C972 C 0.86453 0.69695 0.10619 0.0
C973 C 0.8509 0.67969 0.09427 0.0
C974 C 0.84425 0.67682 0.0535 0.0
C975 C 0.85114 0.69112 0.02508 0.0
C976 C 0.84301 0.66511 0.12557 0.0
C977 C 0.82455 0.65727 0.13469 0.0
C978 C 0.854 0.66062 0.14986 0.0
C979 C 0.87334 0.66755 0.13982 0.0
C980 C 0.87852 0.66561 0.09961 0.0
C981 C 0.89674 0.67225 0.09021 0.0
C982 C 0.90991 0.68078 0.12081 0.0
C983 C 0.90488 0.68265 0.16092 0.0
C984 C 0.88668 0.67605 0.17049 0.0
C985 C 0.80085 0.59975 0.25803 0.0
C986 C 0.80745 0.60596 0.2982 0.0
C987 C 0.80745 0.61144 0.2242 0.0
C988 C 0.82084 0.6295 0.2299 0.0
C989 C 0.82749 0.6358 0.26988 0.0
C990 C 0.82074 0.62415 0.30388 0.0
C991 C 0.82809 0.64177 0.19395 0.0
C992 C 0.8464 0.64911 0.18403 0.0
C993 C 0.81695 0.64571 0.16879 0.0
C994 C 0.7976 0.63867 0.17851 0.0
C995 C 0.79236 0.64199 0.21735 0.0
C996 C 0.77408 0.63526 0.22632 0.0
C997 C 0.76093 0.62528 0.19658 0.0
C998 C 0.76603 0.62207 0.15776 0.0
C999 C 0.78428 0.62876 0.14865 0.0
H1000 H 0.74679 0.62008 0.20359 0.0
H1001 H 0.92401 0.68591 0.11347 0.0
H1002 H 0.91056 0.45523 0.40509 0.0
H1003 H 0.92767 0.46121 0.46956 0.0
H1004 H 0.97582 0.47482 0.39955 0.0
H1005 H 0.95888 0.46902 0.33478 0.0
H1006 H 0.96968 0.45161 0.46871 0.0
H1007 H 0.97109 0.50814 0.43516 0.0
H1008 H 0.95645 0.52607 0.41957 0.0
H1009 H 0.92773 0.50966 0.53514 0.0
H1010 H 0.94219 0.49157 0.55133 0.0
H1011 H 0.04876 0.51054 0.56701 0.0
H1012 H 0.02186 0.49436 0.52489 0.0
H1013 H 0.98876 0.49232 0.62808 0.0
H1014 H 0.01605 0.50888 0.6711 0.0
H1015 H 0.98061 0.50399 0.55584 0.0
H1016 H 0.98545 0.45365 0.5966 0.0
H1017 H 0.00032 0.43597 0.61228 0.0
H1018 H 0.01638 0.43949 0.48492 0.0
H1019 H 0.00186 0.45743 0.46853 0.0
C1020 C 0.9248 0.4595 0.40334 0.0
C1021 C 0.93342 0.46181 0.36478 0.0
C1022 C 0.93451 0.46288 0.44023 0.0
C1023 C 0.95296 0.46849 0.43918 0.0
C1024 C 0.96154 0.47045 0.40086 0.0
C1025 C 0.95188 0.46724 0.36394 0.0
C1026 C 0.96362 0.47294 0.47783 0.0
C1027 C 0.97211 0.46304 0.48787 0.0
C1028 C 0.96606 0.48735 0.50369 0.0
C1029 C 0.95755 0.49837 0.49423 0.0
C1030 C 0.96157 0.50828 0.45712 0.0
C1031 C 0.95334 0.5185 0.44822 0.0
C1032 C 0.94111 0.51894 0.47627 0.0
C1033 C 0.93718 0.50927 0.51341 0.0
C1034 C 0.94541 0.49907 0.52251 0.0
C1035 C 0.0358 0.50658 0.58109 0.0
C1036 C 0.03455 0.51107 0.62242 0.0
C1037 C 0.02038 0.49717 0.55697 0.0
C1038 C 0.00329 0.49191 0.57351 0.0
C1039 C 0.00185 0.49616 0.6149 0.0
C1040 C 0.01741 0.50557 0.63938 0.0
C1041 C 0.98738 0.48314 0.54582 0.0
C1042 C 0.97782 0.4922 0.53766 0.0
C1043 C 0.98386 0.46785 0.52185 0.0
C1044 C 0.99258 0.45695 0.53137 0.0
C1045 C 0.99224 0.45076 0.57196 0.0
C1046 C 0.0006 0.44067 0.58098 0.0
C1047 C 0.00929 0.43662 0.54962 0.0
C1048 C 0.00962 0.44262 0.50917 0.0
C1049 C 0.00129 0.45273 0.49998 0.0
H1050 H 0.01576 0.42881 0.55667 0.0
H1051 H 0.9347 0.52681 0.46924 0.0
H1052 H 0.45537 0.53865 0.59469 0.0
H1053 H 0.46614 0.52811 0.53712 0.0
H1054 H 0.49095 0.50847 0.62341 0.0
H1055 H 0.48042 0.51923 0.68148 0.0
H1056 H 0.51347 0.52738 0.56031 0.0
H1057 H 0.45177 0.47967 0.57518 0.0
H1058 H 0.4188 0.46696 0.58002 0.0
H1059 H 0.41817 0.48673 0.458 0.0
H1060 H 0.45119 0.49983 0.45268 0.0
H1061 H 0.52818 0.46858 0.43823 0.0
H1062 H 0.51625 0.48093 0.48891 0.0
H1063 H 0.49752 0.50162 0.39045 0.0
H1064 H 0.5095 0.48917 0.33885 0.0
H1065 H 0.47198 0.48409 0.45514 0.0
H1066 H 0.53354 0.53054 0.43912 0.0
H1067 H 0.5665 0.54319 0.43455 0.0
H1068 H 0.5673 0.52569 0.55895 0.0
H1069 H 0.53429 0.51269 0.56406 0.0
C1070 C 0.46308 0.53206 0.60154 0.0
C1071 C 0.46703 0.52976 0.64271 0.0
C1072 C 0.46916 0.52598 0.56855 0.0
C1073 C 0.47918 0.51737 0.57606 0.0
C1074 C 0.48321 0.51508 0.61705 0.0
C1075 C 0.47714 0.52119 0.65014 0.0
C1076 C 0.48574 0.51103 0.54109 0.0
C1077 C 0.50438 0.51776 0.53758 0.0
C1078 C 0.47389 0.49894 0.51074 0.0
C1079 C 0.45399 0.49089 0.5137 0.0
C1080 C 0.44462 0.48143 0.54949 0.0
C1081 C 0.42592 0.47413 0.55231 0.0
C1082 C 0.4164 0.47607 0.51937 0.0
C1083 C 0.42556 0.48526 0.48351 0.0
C1084 C 0.44427 0.49261 0.48056 0.0
C1085 C 0.52153 0.47573 0.42711 0.0
C1086 C 0.51988 0.47798 0.38443 0.0
C1087 C 0.51475 0.48282 0.45621 0.0
C1088 C 0.50622 0.49234 0.44335 0.0
C1089 C 0.50415 0.49434 0.40084 0.0
C1090 C 0.51104 0.48729 0.37151 0.0
C1091 C 0.49965 0.50023 0.47486 0.0
C1092 C 0.48105 0.49382 0.47771 0.0
C1093 C 0.51152 0.51261 0.50468 0.0
C1094 C 0.53141 0.52051 0.50185 0.0
C1095 C 0.54072 0.52926 0.4654 0.0
C1096 C 0.55942 0.53652 0.46273 0.0
C1097 C 0.56898 0.53521 0.49641 0.0
C1098 C 0.55987 0.52668 0.53287 0.0
C1099 C 0.54117 0.51939 0.53569 0.0
H1100 H 0.58346 0.54084 0.49428 0.0
H1101 H 0.40193 0.47043 0.52162 0.0
H1102 H 0.47953 0.9678 0.67228 0.0
H1103 H 0.49045 0.98915 0.61426 0.0
H1104 H 0.48037 0.94586 0.53016 0.0
H1105 H 0.46944 0.92445 0.58777 0.0
H1106 H 0.51382 0.97659 0.51782 0.0
H1107 H 0.45174 0.96048 0.53016 0.0
H1108 H 0.42432 0.95571 0.56651 0.0
H1109 H 0.45089 0.01187 0.59954 0.0
H1110 H 0.47857 0.01695 0.56371 0.0
H1111 H 0.52301 0.02796 0.33381 0.0
H1112 H 0.50992 0.00394 0.38628 0.0
H1113 H 0.51957 0.04354 0.4806 0.0
H1114 H 0.53272 0.0675 0.42888 0.0
H1115 H 0.4849 0.01295 0.48409 0.0
H1116 H 0.54737 0.02865 0.47461 0.0
H1117 H 0.57478 0.03351 0.43804 0.0
H1118 H 0.54737 0.97797 0.39962 0.0
H1119 H 0.51967 0.97286 0.43541 0.0
C1120 C 0.47966 0.96284 0.64145 0.0
C1121 C 0.47353 0.94445 0.63456 0.0
C1122 C 0.48584 0.97502 0.60837 0.0
C1123 C 0.48606 0.969 0.56798 0.0
C1124 C 0.48026 0.95072 0.56112 0.0
C1125 C 0.47394 0.93852 0.59406 0.0
C1126 C 0.49228 0.9818 0.53284 0.0
C1127 C 0.50734 0.98435 0.50998 0.0
C1128 C 0.48392 0.99204 0.52312 0.0
C1129 C 0.46729 0.98906 0.54458 0.0
C1130 C 0.45179 0.97179 0.54546 0.0
C1131 C 0.43619 0.96903 0.56593 0.0
C1132 C 0.43588 0.98345 0.58547 0.0
C1133 C 0.45116 0.0007 0.58444 0.0
C1134 C 0.4668 0.00353 0.564 0.0
C1135 C 0.52228 0.0315 0.36572 0.0
C1136 C 0.52896 0.0496 0.37727 0.0
C1137 C 0.51485 0.01781 0.39558 0.0
C1138 C 0.51386 0.02205 0.4372 0.0
C1139 C 0.5202 0.04004 0.44859 0.0
C1140 C 0.5278 0.0537 0.41899 0.0
C1141 C 0.50654 0.00787 0.46938 0.0
C1142 C 0.49127 0.00507 0.4917 0.0
C1143 C 0.51471 0.99741 0.47856 0.0
C1144 C 0.53138 0.00042 0.45724 0.0
C1145 C 0.54713 0.01751 0.45803 0.0
C1146 C 0.56273 0.02031 0.4375 0.0
C1147 C 0.5628 0.00607 0.41641 0.0
C1148 C 0.54728 0.98899 0.4159 0.0
C1149 C 0.53163 0.98614 0.4363 0.0
H1150 H 0.57489 0.00825 0.40055 0.0
H1151 H 0.42379 0.98128 0.6013 0.0
H1152 H 0.17356 0.24519 0.08722 0.0
H1153 H 0.19691 0.23952 0.05954 0.0
H1154 H 0.15992 0.18213 0.0664 0.0
H1155 H 0.13654 0.1877 0.09372 0.0
H1156 H 0.19612 0.19112 0.07586 0.0
H1157 H 0.15789 0.2036 0.98387 0.0
H1158 H 0.14595 0.22327 0.9617 0.0
H1159 H 0.19983 0.26612 0.93606 0.0
H1160 H 0.2121 0.24677 0.95874 0.0
H1161 H 0.19029 0.14056 0.91018 0.0
H1162 H 0.18336 0.16309 0.93687 0.0
H1163 H 0.24019 0.20227 0.94207 0.0
H1164 H 0.24725 0.17972 0.91512 0.0
H1165 H 0.20209 0.20971 0.92799 0.0
H1166 H 0.24006 0.19478 0.02218 0.0
H1167 H 0.24889 0.17242 0.04272 0.0
H1168 H 0.19313 0.1326 0.0616 0.0
H1169 H 0.18401 0.1547 0.04067 0.0
C1170 C 0.1707 0.23136 0.08494 0.0
C1171 C 0.15315 0.21686 0.09198 0.0
C1172 C 0.18403 0.22816 0.06876 0.0
C1173 C 0.17997 0.21043 0.05999 0.0
C1174 C 0.16329 0.19592 0.07268 0.0
C1175 C 0.14993 0.19911 0.08839 0.0
C1176 C 0.19124 0.20686 0.03096 0.0
C1177 C 0.19787 0.19561 0.04385 0.0
C1178 C 0.19333 0.21252 0.98895 0.0
C1179 C 0.18592 0.22383 0.97336 0.0
C1180 C 0.16718 0.21724 0.97358 0.0
C1181 C 0.16036 0.22833 0.96102 0.0
C1182 C 0.17214 0.24597 0.94776 0.0
C1183 C 0.19074 0.25249 0.94661 0.0
C1184 C 0.19764 0.24146 0.95925 0.0
C1185 C 0.20127 0.15426 0.91467 0.0
C1186 C 0.2193 0.15833 0.91114 0.0
C1187 C 0.19729 0.16714 0.92995 0.0
C1188 C 0.21129 0.18421 0.94195 0.0
C1189 C 0.22923 0.18915 0.93283 0.0
C1190 C 0.23323 0.17625 0.91722 0.0
C1191 C 0.20719 0.19428 0.97324 0.0
C1192 C 0.2014 0.20623 0.96055 0.0
C1193 C 0.20589 0.18935 0.01551 0.0
C1194 C 0.21138 0.17633 0.02985 0.0
C1195 C 0.22971 0.18125 0.03074 0.0
C1196 C 0.23476 0.16863 0.04237 0.0
C1197 C 0.22158 0.1511 0.05344 0.0
C1198 C 0.20333 0.14618 0.05304 0.0
C1199 C 0.19821 0.15875 0.04136 0.0
H1200 H 0.22549 0.14134 0.06239 0.0
H1201 H 0.16684 0.25455 0.9381 0.0
H1202 H 0.82969 0.07997 0.05464 0.0
H1203 H 0.81331 0.04738 0.06352 0.0
H1204 H 0.82051 0.0404 0.93383 0.0
H1205 H 0.83705 0.0734 0.92442 0.0
H1206 H 0.78604 0.01502 0.96409 0.0
H1207 H 0.84807 0.03789 1.00033 0.0
H1208 H 0.87685 0.0578 0.03591 0.0
H1209 H 0.85109 0.03858 0.15403 0.0
H1210 H 0.82206 0.01873 0.11913 0.0
H1211 H 0.77948 0.92987 0.96773 0.0
H1212 H 0.78968 0.96186 0.96253 0.0
H1213 H 0.77777 0.96312 0.092 0.0
H1214 H 0.76721 0.93057 0.09762 0.0
H1215 H 0.8128 0.99119 0.06521 0.0
H1216 H 0.75089 0.96586 0.02631 0.0
H1217 H 0.72307 0.94514 0.98836 0.0
H1218 H 0.7494 0.96829 0.87272 0.0
H1219 H 0.7775 0.98894 0.90991 0.0
C1220 C 0.82772 0.07158 0.02776 0.0
C1221 C 0.83492 0.07931 0.98885 0.0
C1222 C 0.81832 0.05291 0.03298 0.0
C1223 C 0.81598 0.0415 0.99955 0.0
C1224 C 0.82227 0.04903 0.96008 0.0
C1225 C 0.83172 0.06785 0.95475 0.0
C1226 C 0.80788 0.02182 0.00682 0.0
C1227 C 0.79196 0.00977 0.98587 0.0
C1228 C 0.81541 0.01505 0.036 0.0
C1229 C 0.83284 0.02698 0.05712 0.0
C1230 C 0.8485 0.03803 0.0339 0.0
C1231 C 0.86486 0.04928 0.05394 0.0
C1232 C 0.86578 0.0495 0.09721 0.0
C1233 C 0.85034 0.03842 0.12052 0.0
C1234 C 0.83393 0.02716 0.10062 0.0
C1235 C 0.77899 0.93684 0.99532 0.0
C1236 C 0.77257 0.92763 0.03324 0.0
C1237 C 0.78473 0.95515 0.9921 0.0
C1238 C 0.78428 0.96478 0.02669 0.0
C1239 C 0.77809 0.95582 0.06487 0.0
C1240 C 0.77208 0.93728 0.06805 0.0
C1241 C 0.79097 0.98437 0.0225 0.0
C1242 C 0.80672 0.99643 0.04387 0.0
C1243 C 0.78335 0.99109 0.99344 0.0
C1244 C 0.76637 0.97888 0.97094 0.0
C1245 C 0.75081 0.96645 0.99277 0.0
C1246 C 0.73497 0.95473 0.97139 0.0
C1247 C 0.73448 0.95537 0.92815 0.0
C1248 C 0.7498 0.96779 0.90621 0.0
C1249 C 0.76569 0.97953 0.92744 0.0
H1250 H 0.72221 0.94627 0.91165 0.0
H1251 H 0.87847 0.05821 0.11267 0.0
H1252 H 0.94248 0.80176 0.91916 0.0
H1253 H 0.97461 0.81277 0.92824 0.0
H1254 H 0.96396 0.75788 0.93515 0.0
H1255 H 0.93155 0.74681 0.92568 0.0
H1256 H 0.98072 0.77678 0.004 0.0
H1257 H 0.99237 0.78575 0.86053 0.0
H1258 H 0.9904 0.79486 0.78908 0.0
H1259 H 0.01435 0.85019 0.82781 0.0
H1260 H 0.01623 0.8414 0.89963 0.0
H1261 H 0.07832 0.82609 0.05172 0.0
H1262 H 0.04779 0.8043 0.02691 0.0
H1263 H 0.03703 0.84795 0.00689 0.0
H1264 H 0.06731 0.86956 0.03115 0.0
H1265 H 0.03327 0.8282 0.93586 0.0
H1266 H 0.01535 0.81733 0.08117 0.0
H1267 H 0.01684 0.80798 0.15273 0.0
H1268 H 0.00476 0.75567 0.10894 0.0
H1269 H 0.00343 0.76481 0.037 0.0
C1270 C 0.94712 0.79207 0.92034 0.0
C1271 C 0.93465 0.77349 0.92126 0.0
C1272 C 0.9655 0.79834 0.92574 0.0
C1273 C 0.97173 0.78615 0.9325 0.0
C1274 C 0.95944 0.76751 0.92989 0.0
C1275 C 0.94099 0.7612 0.92391 0.0
C1276 C 0.99031 0.79312 0.94871 0.0
C1277 C 0.99235 0.78768 0.98856 0.0
C1278 C 0.00544 0.80744 0.92883 0.0
C1279 C 0.0044 0.81288 0.88559 0.0
C1280 C 0.99712 0.79985 0.8539 0.0
C1281 C 0.99603 0.80496 0.8133 0.0
C1282 C 0.00224 0.82309 0.80392 0.0
C1283 C 0.00957 0.83615 0.83511 0.0
C1284 C 0.01068 0.83111 0.87578 0.0
C1285 C 0.06912 0.83087 0.04369 0.0
C1286 C 0.07512 0.84948 0.04324 0.0
C1287 C 0.05178 0.81846 0.02912 0.0
C1288 C 0.0403 0.82459 0.01434 0.0
C1289 C 0.04577 0.84298 0.01759 0.0
C1290 C 0.06299 0.85529 0.03186 0.0
C1291 C 0.02335 0.81248 0.9918 0.0
C1292 C 0.02174 0.81696 0.95072 0.0
C1293 C 0.00868 0.79727 0.01049 0.0
C1294 C 0.00955 0.79184 0.05368 0.0
C1295 C 0.0132 0.8039 0.08676 0.0
C1296 C 0.01397 0.79862 0.12739 0.0
C1297 C 0.01097 0.78126 0.13536 0.0
C1298 C 0.00713 0.76913 0.10271 0.0
C1299 C 0.00636 0.77435 0.06201 0.0
H1300 H 0.01155 0.7772 0.16684 0.0
H1301 H 0.00138 0.82702 0.77246 0.0
H1302 H 0.82554 0.74894 0.94732 0.0
H1303 H 0.80444 0.75884 0.9707 0.0
H1304 H 0.84947 0.81208 0.99496 0.0
H1305 H 0.87038 0.80224 0.97235 0.0
H1306 H 0.82848 0.79741 0.06314 0.0
H1307 H 0.82006 0.80439 0.91652 0.0
H1308 H 0.81156 0.79359 0.84465 0.0
H1309 H 0.7581 0.75465 0.88505 0.0
H1310 H 0.76637 0.76508 0.9573 0.0
H1311 H 0.80346 0.86344 0.07116 0.0
H1312 H 0.81435 0.84215 0.06263 0.0
H1313 H 0.75938 0.79787 0.06036 0.0
H1314 H 0.74843 0.81931 0.06973 0.0
H1315 H 0.77885 0.79991 0.98955 0.0
H1316 H 0.78605 0.79764 0.1343 0.0
H1317 H 0.79466 0.80926 0.20554 0.0
H1318 H 0.85039 0.83953 0.16912 0.0
H1319 H 0.84211 0.82832 0.09749 0.0
C1320 C 0.83081 0.76291 0.95618 0.0
C1321 C 0.84955 0.77484 0.95817 0.0
C1322 C 0.81878 0.76851 0.96988 0.0
C1323 C 0.82544 0.78612 0.98524 0.0
C1324 C 0.84407 0.79837 0.98384 0.0
C1325 C 0.85599 0.79279 0.97055 0.0
C1326 C 0.8135 0.79168 0.00603 0.0
C1327 C 0.81764 0.798 0.04704 0.0
C1328 C 0.79883 0.79163 0.98572 0.0
C1329 C 0.7939 0.78534 0.94236 0.0
C1330 C 0.80655 0.7934 0.91014 0.0
C1331 C 0.80176 0.78738 0.86932 0.0
C1332 C 0.78432 0.77339 0.86031 0.0
C1333 C 0.77161 0.76544 0.89209 0.0
C1334 C 0.77634 0.77141 0.93297 0.0
C1335 C 0.79375 0.84909 0.07088 0.0
C1336 C 0.77515 0.84296 0.07151 0.0
C1337 C 0.79995 0.83693 0.0658 0.0
C1338 C 0.78767 0.81842 0.06071 0.0
C1339 C 0.76907 0.81209 0.06434 0.0
C1340 C 0.76284 0.8243 0.07022 0.0
C1341 C 0.79446 0.80648 0.04592 0.0
C1342 C 0.78935 0.79889 0.00612 0.0
C1343 C 0.8083 0.80538 0.06729 0.0
C1344 C 0.81342 0.81217 0.11041 0.0
C1345 C 0.80013 0.80687 0.14138 0.0
C1346 C 0.80495 0.81337 0.18187 0.0
C1347 C 0.82305 0.82513 0.19184 0.0
C1348 C 0.83637 0.8304 0.16136 0.0
C1349 C 0.83162 0.82395 0.12081 0.0
H1350 H 0.82676 0.83015 0.2232 0.0
H1351 H 0.78064 0.76875 0.82869 0.0
H1352 H 0.18592 0.93178 0.06169 0.0
H1353 H 0.20705 0.963 0.04013 0.0
H1354 H 0.16433 0.97571 0.04966 0.0
H1355 H 0.14331 0.94473 0.07096 0.0
H1356 H 0.18193 0.97385 0.96311 0.0
H1357 H 0.19176 0.99854 0.10469 0.0
H1358 H 0.20289 0.00132 0.17638 0.0
H1359 H 0.25608 0.01759 0.13077 0.0
H1360 H 0.24517 0.01465 0.05872 0.0
H1361 H 0.1935 0.05842 0.92118 0.0
H1362 H 0.18765 0.02858 0.94194 0.0
H1363 H 0.24499 0.0484 0.94813 0.0
H1364 H 0.2509 0.07851 0.92692 0.0
H1365 H 0.22806 0.03286 0.02103 0.0
H1366 H 0.22012 0.01509 0.88075 0.0
H1367 H 0.20977 0.01231 0.80838 0.0
H1368 H 0.15454 0.98234 0.84864 0.0
H1369 H 0.16452 0.98516 0.92133 0.0
C1370 C 0.18138 0.94157 0.06174 0.0
C1371 C 0.16304 0.93594 0.06804 0.0
C1372 C 0.1934 0.95932 0.04898 0.0
C1373 C 0.18714 0.97152 0.043 0.0
C1374 C 0.16939 0.96646 0.05423 0.0
C1375 C 0.15743 0.94882 0.06677 0.0
C1376 C 0.19736 0.98784 0.01716 0.0
C1377 C 0.19207 0.98679 0.9756 0.0
C1378 C 0.21111 0.00441 0.03314 0.0
C1379 C 0.21758 0.00608 0.07637 0.0
C1380 C 0.20576 0.00247 0.10994 0.0
C1381 C 0.21205 0.00414 0.15064 0.0
C1382 C 0.23016 0.00955 0.15813 0.0
C1383 C 0.24204 0.01335 0.12492 0.0
C1384 C 0.23581 0.01169 0.08417 0.0
C1385 C 0.20485 0.05623 0.92524 0.0
C1386 C 0.22263 0.07071 0.92225 0.0
C1387 C 0.20151 0.03917 0.93723 0.0
C1388 C 0.21589 0.03624 0.9467 0.0
C1389 C 0.23371 0.05037 0.94093 0.0
C1390 C 0.23707 0.06748 0.92831 0.0
C1391 C 0.21191 0.01911 0.96734 0.0
C1392 C 0.21834 0.01989 0.0079 0.0
C1393 C 0.19925 0.00219 0.95034 0.0
C1394 C 0.1931 0.00039 0.9066 0.0
C1395 C 0.20576 0.008 0.87423 0.0
C1396 C 0.19996 0.0064 0.83312 0.0
C1397 C 0.18151 0.99716 0.82392 0.0
C1398 C 0.16883 0.98948 0.85581 0.0
C1399 C 0.17455 0.99104 0.89698 0.0
H1400 H 0.17705 0.99595 0.79207 0.0
H1401 H 0.235 0.01085 0.18966 0.0
H1402 H 0.92616 0.18239 0.94696 0.0
H1403 H 0.95812 0.20111 0.9669 0.0
H1404 H 0.95802 0.1536 0.01246 0.0
H1405 H 0.92632 0.13509 0.99316 0.0
H1406 H 0.96699 0.17967 0.07238 0.0
H1407 H 0.9825 0.17589 0.92884 0.0
H1408 H 0.98208 0.18052 0.85346 0.0
H1409 H 0.00501 0.23756 0.87262 0.0
H1410 H 0.00534 0.23323 0.94822 0.0
H1411 H 0.05299 0.19209 0.10339 0.0
H1412 H 0.02235 0.18513 0.08684 0.0
H1413 H 0.04201 0.24114 0.05716 0.0
H1414 H 0.07291 0.24821 0.07426 0.0
H1415 H 0.02295 0.21839 0.99282 0.0
H1416 H 0.01253 0.22286 0.13487 0.0
H1417 H 0.01332 0.21859 0.21027 0.0
H1418 H 0.98077 0.16115 0.19496 0.0
H1419 H 0.97999 0.16503 0.11938 0.0
C1420 C 0.93325 0.17591 0.95956 0.0
C1421 C 0.92385 0.15733 0.9686 0.0
C1422 C 0.95142 0.18662 0.97131 0.0
C1423 C 0.96032 0.17876 0.99182 0.0
C1424 C 0.95134 0.15997 0.99717 0.0
C1425 C 0.93329 0.14937 0.98577 0.0
C1426 C 0.97816 0.18992 0.01194 0.0
C1427 C 0.97926 0.1881 0.05498 0.0
C1428 C 0.99399 0.20164 0.98958 0.0
C1429 C 0.99371 0.20421 0.9442 0.0
C1430 C 0.98727 0.1894 0.91702 0.0
C1431 C 0.98709 0.19197 0.87424 0.0
C1432 C 0.99345 0.20932 0.85827 0.0
C1433 C 5e-05 0.22413 0.88504 0.0
C1434 C 0.00024 0.22162 0.92784 0.0
C1435 C 0.05067 0.20305 0.09504 0.0
C1436 C 0.06525 0.22068 0.09036 0.0
C1437 C 0.03316 0.19906 0.08543 0.0
C1438 C 0.02988 0.21261 0.07063 0.0
C1439 C 0.04426 0.23051 0.06857 0.0
C1440 C 0.06184 0.23456 0.07884 0.0
C1441 C 0.01188 0.20735 0.05294 0.0
C1442 C 0.01067 0.21032 0.01046 0.0
C1443 C 0.99588 0.19672 0.07582 0.0
C1444 C 0.99626 0.19425 0.12135 0.0
C1445 C 0.00564 0.2093 0.14752 0.0
C1446 C 0.00607 0.20695 0.19032 0.0
C1447 C 0.99711 0.18961 0.20739 0.0
C1448 C 0.98769 0.17458 0.1817 0.0
C1449 C 0.98722 0.17685 0.13887 0.0
H1450 H 0.99746 0.18782 0.24054 0.0
H1451 H 0.99331 0.21129 0.82515 0.0
H1452 H 0.84677 0.5819 0.40829 0.0
H1453 H 0.87085 0.57652 0.38395 0.0
H1454 H 0.83422 0.51904 0.39043 0.0
H1455 H 0.81014 0.52435 0.41405 0.0
H1456 H 0.87041 0.52866 0.40656 0.0
H1457 H 0.83411 0.54014 0.30598 0.0
H1458 H 0.82276 0.55931 0.27694 0.0
H1459 H 0.87721 0.60169 0.25441 0.0
H1460 H 0.88887 0.58284 0.28402 0.0
H1461 H 0.86292 0.47747 0.23518 0.0
H1462 H 0.85864 0.50141 0.2642 0.0
H1463 H 0.91609 0.5345 0.28254 0.0
H1464 H 0.92051 0.51042 0.25366 0.0
H1465 H 0.87909 0.54544 0.2574 0.0
H1466 H 0.91532 0.53201 0.36147 0.0
H1467 H 0.92377 0.51002 0.38707 0.0
H1468 H 0.86773 0.47 0.40019 0.0
H1469 H 0.85897 0.49168 0.3737 0.0
C1470 C 0.84413 0.56814 0.4065 0.0
C1471 C 0.82658 0.55352 0.41276 0.0
C1472 C 0.85786 0.56509 0.39227 0.0
C1473 C 0.85421 0.54739 0.38474 0.0
C1474 C 0.83732 0.5328 0.39598 0.0
C1475 C 0.82356 0.53584 0.40953 0.0
C1476 C 0.86636 0.54382 0.3586 0.0
C1477 C 0.8728 0.5328 0.3743 0.0
C1478 C 0.86936 0.54908 0.31631 0.0
C1479 C 0.86235 0.5602 0.29762 0.0
C1480 C 0.84365 0.55359 0.29503 0.0
C1481 C 0.83717 0.56439 0.27849 0.0
C1482 C 0.84926 0.58173 0.26395 0.0
C1483 C 0.86786 0.58827 0.26578 0.0
C1484 C 0.87442 0.57755 0.28245 0.0
C1485 C 0.87473 0.49016 0.24356 0.0
C1486 C 0.89201 0.492 0.24262 0.0
C1487 C 0.87227 0.50383 0.26018 0.0
C1488 C 0.88702 0.51954 0.27612 0.0
C1489 C 0.90455 0.52239 0.27055 0.0
C1490 C 0.90705 0.50868 0.25371 0.0
C1491 C 0.88334 0.53055 0.30561 0.0
C1492 C 0.87789 0.54242 0.29032 0.0
C1493 C 0.88135 0.52621 0.34833 0.0
C1494 C 0.88652 0.51339 0.36553 0.0
C1495 C 0.90482 0.5185 0.36977 0.0
C1496 C 0.90967 0.50611 0.3844 0.0
C1497 C 0.89631 0.48864 0.39538 0.0
C1498 C 0.87807 0.48354 0.39171 0.0
C1499 C 0.87316 0.49586 0.37685 0.0
H1500 H 0.90009 0.47908 0.40673 0.0
H1501 H 0.84422 0.59008 0.2512 0.0
H1502 H 0.4848 0.40953 0.27655 0.0
H1503 H 0.46249 0.3777 0.28997 0.0
H1504 H 0.50433 0.36379 0.27756 0.0
H1505 H 0.52652 0.39545 0.26488 0.0
H1506 H 0.47086 0.33626 0.25059 0.0
H1507 H 0.4977 0.37721 0.36886 0.0
H1508 H 0.50378 0.40407 0.40971 0.0
H1509 H 0.44677 0.3833 0.42387 0.0
H1510 H 0.44038 0.35643 0.38248 0.0
H1511 H 0.46973 0.2744 0.38255 0.0
H1512 H 0.47753 0.30492 0.36211 0.0
H1513 H 0.42215 0.29148 0.37922 0.0
H1514 H 0.41421 0.26068 0.40002 0.0
H1515 H 0.4534 0.33092 0.39909 0.0
H1516 H 0.42749 0.28612 0.29156 0.0
H1517 H 0.42336 0.25929 0.25355 0.0
H1518 H 0.47951 0.28737 0.22006 0.0
H1519 H 0.48406 0.31426 0.25859 0.0
C1520 C 0.48897 0.39949 0.27454 0.0
C1521 C 0.50729 0.40481 0.26953 0.0
C1522 C 0.47628 0.38137 0.28266 0.0
C1523 C 0.48184 0.36847 0.28543 0.0
C1524 C 0.49975 0.37352 0.27559 0.0
C1525 C 0.51242 0.39159 0.26813 0.0
C1526 C 0.47023 0.35058 0.30485 0.0
C1527 C 0.46679 0.33505 0.28283 0.0
C1528 C 0.46472 0.34898 0.34687 0.0
C1529 C 0.46856 0.36496 0.37219 0.0
C1530 C 0.48647 0.37844 0.38047 0.0
C1531 C 0.48997 0.39366 0.40372 0.0
C1532 C 0.47567 0.39542 0.41927 0.0
C1533 C 0.45784 0.38194 0.41171 0.0
C1534 C 0.45426 0.36672 0.38835 0.0
C1535 C 0.45936 0.27816 0.38374 0.0
C1536 C 0.44136 0.2652 0.39259 0.0
C1537 C 0.46381 0.29556 0.37188 0.0
C1538 C 0.45033 0.30027 0.36841 0.0
C1539 C 0.4327 0.28803 0.38168 0.0
C1540 C 0.42822 0.2705 0.39382 0.0
C1541 C 0.45444 0.31676 0.34497 0.0
C1542 C 0.45668 0.332 0.36634 0.0
C1543 C 0.45887 0.31814 0.30232 0.0
C1544 C 0.45612 0.30217 0.27815 0.0
C1545 C 0.43898 0.28653 0.27631 0.0
C1546 C 0.43656 0.27131 0.25466 0.0
C1547 C 0.45117 0.27162 0.23444 0.0
C1548 C 0.46821 0.28716 0.23573 0.0
C1549 C 0.47071 0.3024 0.25744 0.0
H1550 H 0.44927 0.25982 0.21772 0.0
H1551 H 0.47841 0.40721 0.43727 0.0
H1552 H 0.59749 0.0793 0.2722 0.0
H1553 H 0.62813 0.0869 0.29293 0.0
H1554 H 0.64573 0.14357 0.28024 0.0
H1555 H 0.61525 0.13601 0.26006 0.0
H1556 H 0.67378 0.13657 0.26624 0.0
H1557 H 0.62531 0.12236 0.36803 0.0
H1558 H 0.59534 0.1014 0.39763 0.0
H1559 H 0.61195 0.06237 0.4208 0.0
H1560 H 0.64196 0.08304 0.39073 0.0
H1561 H 0.71593 0.193 0.42992 0.0
H1562 H 0.68869 0.16772 0.40075 0.0
H1563 H 0.71458 0.13553 0.39849 0.0
H1564 H 0.74213 0.16095 0.42737 0.0
H1565 H 0.66725 0.12203 0.41662 0.0
H1566 H 0.71865 0.13961 0.31975 0.0
H1567 H 0.7482 0.16295 0.29233 0.0
H1568 H 0.72566 0.19645 0.26122 0.0
H1569 H 0.69607 0.17341 0.28918 0.0
C1570 C 0.60818 0.0933 0.27145 0.0
C1571 C 0.6041 0.10711 0.26464 0.0
C1572 C 0.62563 0.09764 0.28371 0.0
C1573 C 0.6391 0.11581 0.28895 0.0
C1574 C 0.63556 0.12947 0.2765 0.0
C1575 C 0.61814 0.12515 0.26478 0.0
C1576 C 0.65528 0.12091 0.31495 0.0
C1577 C 0.67242 0.13295 0.29883 0.0
C1578 C 0.65356 0.11628 0.35763 0.0
C1579 C 0.63577 0.10413 0.37681 0.0
C1580 C 0.62253 0.10928 0.37935 0.0
C1581 C 0.60555 0.09746 0.39617 0.0
C1582 C 0.60173 0.08055 0.41101 0.0
C1583 C 0.61492 0.07546 0.40922 0.0
C1584 C 0.63191 0.08722 0.39229 0.0
C1585 C 0.7156 0.1803 0.425 0.0
C1586 C 0.73126 0.17906 0.43037 0.0
C1587 C 0.70002 0.16587 0.40822 0.0
C1588 C 0.69982 0.14996 0.39679 0.0
C1589 C 0.71458 0.1478 0.40694 0.0
C1590 C 0.73026 0.16229 0.42379 0.0
C1591 C 0.68564 0.13753 0.36775 0.0
C1592 C 0.6688 0.12461 0.38351 0.0
C1593 C 0.68764 0.14123 0.3247 0.0
C1594 C 0.70523 0.15488 0.30685 0.0
C1595 C 0.72005 0.15201 0.30731 0.0
C1596 C 0.7368 0.16518 0.29171 0.0
C1597 C 0.73882 0.1812 0.27519 0.0
C1598 C 0.72408 0.18405 0.2741 0.0
C1599 C 0.70732 0.17094 0.28982 0.0
H1600 H 0.75179 0.19137 0.2631 0.0
H1601 H 0.58856 0.0714 0.42395 0.0
H1602 H 0.4965 0.08815 0.27261 0.0
H1603 H 0.4747 0.09719 0.29536 0.0
H1604 H 0.51846 0.15148 0.31589 0.0
H1605 H 0.54012 0.14256 0.29356 0.0
H1606 H 0.49802 0.13556 0.38637 0.0
H1607 H 0.4885 0.14276 0.24037 0.0
H1608 H 0.47979 0.13199 0.16855 0.0
H1609 H 0.42698 0.09191 0.21016 0.0
H1610 H 0.43548 0.10229 0.28236 0.0
H1611 H 0.47082 0.19937 0.40352 0.0
H1612 H 0.48222 0.17869 0.39207 0.0
H1613 H 0.42757 0.13398 0.38476 0.0
H1614 H 0.41609 0.15488 0.39675 0.0
H1615 H 0.44716 0.13676 0.31548 0.0
H1616 H 0.45481 0.13342 0.45938 0.0
H1617 H 0.46319 0.14421 0.53125 0.0
H1618 H 0.51883 0.17616 0.49522 0.0
H1619 H 0.51078 0.16579 0.42299 0.0
C1620 C 0.50134 0.10217 0.28031 0.0
C1621 C 0.51999 0.11465 0.28155 0.0
C1622 C 0.48891 0.10727 0.29369 0.0
C1623 C 0.49503 0.12492 0.30805 0.0
C1624 C 0.51348 0.13773 0.3055 0.0
C1625 C 0.52583 0.13266 0.29238 0.0
C1626 C 0.48281 0.12988 0.32967 0.0
C1627 C 0.48692 0.13589 0.37087 0.0
C1628 C 0.46777 0.12938 0.31015 0.0
C1629 C 0.46271 0.12313 0.2668 0.0
C1630 C 0.4751 0.13152 0.23426 0.0
C1631 C 0.47018 0.12552 0.19347 0.0
C1632 C 0.45286 0.11123 0.18481 0.0
C1633 C 0.44041 0.10295 0.21692 0.0
C1634 C 0.44526 0.10889 0.25777 0.0
C1635 C 0.46126 0.18502 0.40145 0.0
C1636 C 0.44263 0.17865 0.40147 0.0
C1637 C 0.46777 0.17319 0.39473 0.0
C1638 C 0.45575 0.15477 0.38751 0.0
C1639 C 0.43706 0.14814 0.39039 0.0
C1640 C 0.43052 0.16002 0.39777 0.0
C1641 C 0.46299 0.14336 0.37153 0.0
C1642 C 0.45795 0.13603 0.33146 0.0
C1643 C 0.47716 0.14255 0.39216 0.0
C1644 C 0.48216 0.14885 0.43565 0.0
C1645 C 0.46882 0.14284 0.46669 0.0
C1646 C 0.47352 0.14887 0.50753 0.0
C1647 C 0.49153 0.16087 0.51779 0.0
C1648 C 0.50488 0.16685 0.48724 0.0
C1649 C 0.50026 0.16087 0.44634 0.0
H1650 H 0.49513 0.16552 0.54942 0.0
H1651 H 0.44908 0.10661 0.15321 0.0
H1652 H 0.80173 0.28516 0.41905 0.0
H1653 H 0.82424 0.31322 0.38647 0.0
H1654 H 0.86226 0.29409 0.38509 0.0
H1655 H 0.83966 0.2657 0.41742 0.0
H1656 H 0.87217 0.33909 0.39838 0.0
H1657 H 0.85103 0.28524 0.30682 0.0
H1658 H 0.82641 0.25552 0.28354 0.0
H1659 H 0.79365 0.2791 0.25419 0.0
H1660 H 0.81796 0.30887 0.278 0.0
H1661 H 0.91268 0.40507 0.24393 0.0
H1662 H 0.90487 0.37547 0.27231 0.0
H1663 H 0.84827 0.35757 0.25614 0.0
H1664 H 0.85599 0.38697 0.22767 0.0
H1665 H 0.85402 0.32955 0.25008 0.0
H1666 H 0.87037 0.38033 0.34258 0.0
H1667 H 0.89129 0.41092 0.36909 0.0
H1668 H 0.9299 0.39462 0.40028 0.0
H1669 H 0.90931 0.364 0.37322 0.0
C1670 C 0.81512 0.28718 0.41349 0.0
C1671 C 0.81881 0.27309 0.42024 0.0
C1672 C 0.82797 0.30324 0.39483 0.0
C1673 C 0.84476 0.30556 0.3829 0.0
C1674 C 0.84934 0.29249 0.39413 0.0
C1675 C 0.83642 0.27631 0.41281 0.0
C1676 C 0.85559 0.31974 0.35212 0.0
C1677 C 0.86872 0.33693 0.36571 0.0
C1678 C 0.85062 0.31697 0.30978 0.0
C1679 C 0.83624 0.29921 0.29441 0.0
C1680 C 0.83852 0.28403 0.29564 0.0
C1681 C 0.82464 0.26719 0.28234 0.0
C1682 C 0.80847 0.26543 0.26745 0.0
C1683 C 0.80617 0.28049 0.26575 0.0
C1684 C 0.82 0.29734 0.2791 0.0
C1685 C 0.89862 0.39451 0.24436 0.0
C1686 C 0.8849 0.39838 0.23415 0.0
C1687 C 0.89417 0.37766 0.26107 0.0
C1688 C 0.87597 0.36452 0.2675 0.0
C1689 C 0.86239 0.36756 0.25187 0.0
C1690 C 0.86682 0.38437 0.23542 0.0
C1691 C 0.8708 0.34904 0.29602 0.0
C1692 C 0.85833 0.33161 0.28224 0.0
C1693 C 0.87622 0.35171 0.33827 0.0
C1694 C 0.88842 0.36996 0.35543 0.0
C1695 C 0.88336 0.3833 0.3549 0.0
C1696 C 0.89516 0.40064 0.37 0.0
C1697 C 0.91194 0.40473 0.38624 0.0
C1698 C 0.91692 0.39145 0.38757 0.0
C1699 C 0.9052 0.37411 0.37234 0.0
H1700 H 0.92106 0.41817 0.39788 0.0
H1701 H 0.79772 0.25241 0.25713 0.0
H1702 H 0.595 0.5135 0.28564 0.0
H1703 H 0.62633 0.5333 0.30904 0.0
H1704 H 0.63393 0.48717 0.31666 0.0
H1705 H 0.60294 0.46754 0.2935 0.0
H1706 H 0.63776 0.50606 0.39339 0.0
H1707 H 0.65675 0.51733 0.24857 0.0
H1708 H 0.65684 0.52847 0.17798 0.0
H1709 H 0.67433 0.58151 0.22624 0.0
H1710 H 0.6741 0.5706 0.29725 0.0
H1711 H 0.72523 0.52276 0.4192 0.0
H1712 H 0.69436 0.51516 0.4037 0.0
H1713 H 0.71097 0.57183 0.3991 0.0
H1714 H 0.74218 0.57951 0.41469 0.0
H1715 H 0.69365 0.55469 0.32876 0.0
H1716 H 0.68027 0.54511 0.47147 0.0
H1717 H 0.68034 0.53455 0.54256 0.0
H1718 H 0.65187 0.47949 0.50079 0.0
H1719 H 0.65185 0.4897 0.42932 0.0
C1720 C 0.60368 0.5078 0.29039 0.0
C1721 C 0.59662 0.48902 0.28786 0.0
C1722 C 0.62148 0.51907 0.30417 0.0
C1723 C 0.63228 0.5116 0.31526 0.0
C1724 C 0.62574 0.49315 0.30868 0.0
C1725 C 0.6081 0.48198 0.29507 0.0
C1726 C 0.64939 0.52213 0.33857 0.0
C1727 C 0.65002 0.5167 0.37933 0.0
C1728 C 0.66508 0.5366 0.32089 0.0
C1729 C 0.66514 0.54309 0.27826 0.0
C1730 C 0.66041 0.53131 0.24419 0.0
C1731 C 0.66054 0.5376 0.20409 0.0
C1732 C 0.66551 0.55567 0.19765 0.0
C1733 C 0.67043 0.56751 0.23129 0.0
C1734 C 0.67031 0.56128 0.27146 0.0
C1735 C 0.72218 0.53359 0.41653 0.0
C1736 C 0.73606 0.5517 0.41832 0.0
C1737 C 0.70451 0.52925 0.40759 0.0
C1738 C 0.70031 0.54293 0.40017 0.0
C1739 C 0.71391 0.56107 0.40475 0.0
C1740 C 0.73167 0.56544 0.41418 0.0
C1741 C 0.68227 0.53795 0.38295 0.0
C1742 C 0.68135 0.54442 0.34342 0.0
C1743 C 0.66621 0.5245 0.4019 0.0
C1744 C 0.66611 0.51821 0.44492 0.0
C1745 C 0.67412 0.53075 0.47736 0.0
C1746 C 0.67414 0.52482 0.51776 0.0
C1747 C 0.66612 0.50636 0.52618 0.0
C1748 C 0.65805 0.49379 0.49423 0.0
C1749 C 0.658 0.49964 0.45377 0.0
H1750 H 0.66616 0.5018 0.55748 0.0
H1751 H 0.66562 0.56051 0.16658 0.0
H1752 H 0.58157 0.84676 0.56988 0.0
H1753 H 0.57484 0.87036 0.59037 0.0
H1754 H 0.51781 0.83152 0.5865 0.0
H1755 H 0.52447 0.80807 0.56591 0.0
H1756 H 0.52388 0.86543 0.57195 0.0
H1757 H 0.54338 0.83478 0.67175 0.0
H1758 H 0.56588 0.82727 0.69866 0.0
H1759 H 0.60438 0.88372 0.71295 0.0
H1760 H 0.58217 0.89154 0.68554 0.0
H1761 H 0.47282 0.85999 0.73696 0.0
H1762 H 0.49538 0.85442 0.70472 0.0
H1763 H 0.53412 0.9114 0.70788 0.0
H1764 H 0.51146 0.91716 0.74012 0.0
H1765 H 0.54489 0.8784 0.71813 0.0
H1766 H 0.52193 0.90837 0.62866 0.0
H1767 H 0.49738 0.91368 0.60612 0.0
H1768 H 0.46467 0.85762 0.57422 0.0
H1769 H 0.48892 0.85193 0.59738 0.0
C1770 C 0.56759 0.84353 0.57097 0.0
C1771 C 0.55351 0.82555 0.56692 0.0
C1772 C 0.56377 0.85699 0.58319 0.0
C1773 C 0.54584 0.85255 0.59124 0.0
C1774 C 0.53175 0.83524 0.5809 0.0
C1775 C 0.53556 0.82182 0.56893 0.0
C1776 C 0.54164 0.86421 0.6176 0.0
C1777 C 0.5288 0.86864 0.60357 0.0
C1778 C 0.54808 0.8685 0.65899 0.0
C1779 C 0.56123 0.86374 0.6762 0.0
C1780 C 0.55668 0.84557 0.68049 0.0
C1781 C 0.56937 0.84126 0.69579 0.0
C1782 C 0.58657 0.85502 0.70738 0.0
C1783 C 0.59108 0.87309 0.70385 0.0
C1784 C 0.57845 0.87747 0.68842 0.0
C1785 C 0.48639 0.87126 0.73266 0.0
C1786 C 0.49032 0.88902 0.74057 0.0
C1787 C 0.49925 0.86806 0.71411 0.0
C1788 C 0.51624 0.88255 0.70334 0.0
C1789 C 0.52103 0.90008 0.716 0.0
C1790 C 0.5081 0.90332 0.73468 0.0
C1791 C 0.52709 0.87937 0.67239 0.0
C1792 C 0.54081 0.87617 0.68582 0.0
C1793 C 0.52153 0.87626 0.63043 0.0
C1794 C 0.50719 0.87972 0.61498 0.0
C1795 C 0.50946 0.89717 0.61705 0.0
C1796 C 0.4956 0.90025 0.60417 0.0
C1797 C 0.47946 0.88599 0.58881 0.0
C1798 C 0.47718 0.86865 0.58614 0.0
C1799 C 0.49098 0.86549 0.5991 0.0
H1800 H 0.46874 0.8884 0.57892 0.0
H1801 H 0.5964 0.85169 0.71919 0.0
H1802 H 0.15955 0.74213 0.57372 0.0
H1803 H 0.1349 0.71143 0.58851 0.0
H1804 H 0.17201 0.69135 0.57617 0.0
H1805 H 0.19657 0.72189 0.56193 0.0
H1806 H 0.13742 0.66625 0.55089 0.0
H1807 H 0.16789 0.70707 0.66723 0.0
H1808 H 0.17716 0.73513 0.70654 0.0
H1809 H 0.12154 0.7205 0.72157 0.0
H1810 H 0.11198 0.69248 0.6817 0.0
H1811 H 0.1298 0.60285 0.6874 0.0
H1812 H 0.14028 0.6338 0.66516 0.0
H1813 H 0.08639 0.62525 0.67921 0.0
H1814 H 0.07577 0.59397 0.70192 0.0
H1815 H 0.12078 0.66393 0.69929 0.0
H1816 H 0.09087 0.619 0.59278 0.0
H1817 H 0.0838 0.59093 0.55601 0.0
H1818 H 0.13973 0.61342 0.52371 0.0
H1819 H 0.14718 0.64151 0.56098 0.0
C1820 C 0.16221 0.73101 0.57208 0.0
C1821 C 0.17994 0.73432 0.56684 0.0
C1822 C 0.14816 0.71352 0.581 0.0
C1823 C 0.15173 0.6992 0.58426 0.0
C1824 C 0.16897 0.70221 0.57396 0.0
C1825 C 0.183 0.71965 0.56565 0.0
C1826 C 0.13875 0.68189 0.60443 0.0
C1827 C 0.13353 0.66574 0.5831 0.0
C1828 C 0.13352 0.6812 0.64644 0.0
C1829 C 0.13924 0.69782 0.67109 0.0
C1830 C 0.15765 0.7099 0.67872 0.0
C1831 C 0.16296 0.72579 0.70109 0.0
C1832 C 0.14995 0.72962 0.71643 0.0
C1833 C 0.13161 0.71753 0.70957 0.0
C1834 C 0.12623 0.70166 0.68707 0.0
C1835 C 0.12035 0.60782 0.68761 0.0
C1836 C 0.10203 0.59613 0.69648 0.0
C1837 C 0.12633 0.62546 0.67469 0.0
C1838 C 0.11405 0.63167 0.67 0.0
C1839 C 0.09605 0.62065 0.68276 0.0
C1840 C 0.09003 0.60288 0.69598 0.0
C1841 C 0.11977 0.6484 0.64583 0.0
C1842 C 0.12388 0.66441 0.66654 0.0
C1843 C 0.12405 0.649 0.60323 0.0
C1844 C 0.11958 0.63232 0.57986 0.0
C1845 C 0.10167 0.61791 0.57806 0.0
C1846 C 0.0976 0.602 0.55712 0.0
C1847 C 0.11131 0.60038 0.53758 0.0
C1848 C 0.12912 0.61469 0.53885 0.0
C1849 C 0.13327 0.63062 0.55984 0.0
H1850 H 0.10813 0.58805 0.5214 0.0
H1851 H 0.15408 0.74194 0.73372 0.0
H1852 H 0.40284 0.49233 0.75243 0.0
H1853 H 0.37201 0.46987 0.73157 0.0
H1854 H 0.35491 0.50893 0.75221 0.0
H1855 H 0.38563 0.53136 0.77239 0.0
H1856 H 0.32781 0.47345 0.76978 0.0
H1857 H 0.37193 0.50778 0.66111 0.0
H1858 H 0.40058 0.51735 0.62413 0.0
H1859 H 0.38347 0.46204 0.59531 0.0
H1860 H 0.35481 0.45214 0.63276 0.0
H1861 H 0.26272 0.46671 0.63938 0.0
H1862 H 0.29392 0.47893 0.66198 0.0
H1863 H 0.29209 0.42948 0.62592 0.0
H1864 H 0.26073 0.41718 0.60267 0.0
H1865 H 0.32799 0.46309 0.6182 0.0
H1866 H 0.28139 0.42921 0.71694 0.0
H1867 H 0.25267 0.42014 0.75307 0.0
H1868 H 0.27439 0.47389 0.8012 0.0
H1869 H 0.30312 0.48338 0.76463 0.0
C1870 C 0.39227 0.49578 0.75456 0.0
C1871 C 0.39653 0.51354 0.76396 0.0
C1872 C 0.37473 0.48302 0.74217 0.0
C1873 C 0.3613 0.48788 0.73957 0.0
C1874 C 0.36509 0.50493 0.75385 0.0
C1875 C 0.38261 0.51771 0.76559 0.0
C1876 C 0.34429 0.47665 0.71646 0.0
C1877 C 0.32783 0.47105 0.73675 0.0
C1878 C 0.34432 0.47323 0.67342 0.0
C1879 C 0.36134 0.47921 0.65012 0.0
C1880 C 0.37433 0.49766 0.64709 0.0
C1881 C 0.39056 0.50315 0.62604 0.0
C1882 C 0.39387 0.49031 0.60748 0.0
C1883 C 0.38091 0.47197 0.60978 0.0
C1884 C 0.36467 0.46641 0.63091 0.0
C1885 C 0.26921 0.45874 0.63451 0.0
C1886 C 0.25928 0.44096 0.61965 0.0
C1887 C 0.287 0.46569 0.64765 0.0
C1888 C 0.2951 0.45491 0.64654 0.0
C1889 C 0.286 0.43795 0.62718 0.0
C1890 C 0.26813 0.43099 0.61367 0.0
C1891 C 0.31162 0.46039 0.67142 0.0
C1892 C 0.32792 0.46496 0.65145 0.0
C1893 C 0.31147 0.46277 0.71486 0.0
C1894 C 0.29438 0.45703 0.73782 0.0
C1895 C 0.28 0.43913 0.73501 0.0
C1896 C 0.26372 0.43391 0.75558 0.0
C1897 C 0.2617 0.44644 0.77938 0.0
C1898 C 0.27597 0.4642 0.78275 0.0
C1899 C 0.29227 0.46951 0.76213 0.0
H1900 H 0.24908 0.44237 0.79527 0.0
H1901 H 0.40646 0.49459 0.59126 0.0
H1902 H 0.15437 0.40873 0.70222 0.0
H1903 H 0.13838 0.42521 0.71682 0.0
H1904 H 0.16454 0.46 0.61213 0.0
H1905 H 0.1802 0.44314 0.59658 0.0
H1906 H 0.16948 0.47647 0.69856 0.0
H1907 H 0.12408 0.43622 0.60061 0.0
H1908 H 0.10176 0.40631 0.57325 0.0
H1909 H 0.07233 0.39362 0.68788 0.0
H1910 H 0.09465 0.42338 0.71616 0.0
H1911 H 0.13302 0.53254 0.67608 0.0
H1912 H 0.14509 0.51226 0.67416 0.0
H1913 H 0.1017 0.4746 0.75301 0.0
H1914 H 0.08904 0.49491 0.75378 0.0
H1915 H 0.10443 0.45747 0.68871 0.0
H1916 H 0.14684 0.49717 0.78627 0.0
H1917 H 0.16891 0.52609 0.81838 0.0
H1918 H 0.20392 0.53859 0.71306 0.0
H1919 H 0.18196 0.50987 0.68 0.0
C1920 C 0.15626 0.41953 0.68156 0.0
C1921 C 0.16844 0.42466 0.64819 0.0
C1922 C 0.14716 0.42894 0.69 0.0
C1923 C 0.15038 0.44383 0.66568 0.0
C1924 C 0.16189 0.44848 0.63115 0.0
C1925 C 0.1707 0.43879 0.6221 0.0
C1926 C 0.14319 0.45558 0.67893 0.0
C1927 C 0.1553 0.47248 0.69595 0.0
C1928 C 0.12456 0.44983 0.67768 0.0
C1929 C 0.11116 0.43194 0.66068 0.0
C1930 C 0.11296 0.42698 0.62015 0.0
C1931 C 0.10028 0.41007 0.60443 0.0
C1932 C 0.08567 0.39804 0.62885 0.0
C1933 C 0.08368 0.40293 0.66902 0.0
C1934 C 0.09633 0.41983 0.6849 0.0
C1935 C 0.12622 0.52013 0.69386 0.0
C1936 C 0.11002 0.51527 0.71493 0.0
C1937 C 0.13323 0.50855 0.69294 0.0
C1938 C 0.12442 0.4919 0.71367 0.0
C1939 C 0.10875 0.4874 0.73681 0.0
C1940 C 0.10163 0.49907 0.73762 0.0
C1941 C 0.13082 0.47878 0.7073 0.0
C1942 C 0.1186 0.46152 0.6918 0.0
C1943 C 0.14935 0.48405 0.71079 0.0
C1944 C 0.16267 0.50137 0.73054 0.0
C1945 C 0.15919 0.50613 0.7698 0.0
C1946 C 0.17169 0.52249 0.7882 0.0
C1947 C 0.18779 0.53418 0.76775 0.0
C1948 C 0.19144 0.52952 0.72887 0.0
C1949 C 0.17898 0.51318 0.71032 0.0
H1950 H 0.19746 0.54683 0.78204 0.0
H1951 H 0.07586 0.38496 0.61662 0.0
H1952 H 0.46689 0.61332 0.75648 0.0
H1953 H 0.48947 0.64317 0.73183 0.0
H1954 H 0.52961 0.62671 0.73063 0.0
H1955 H 0.5069 0.59657 0.75551 0.0
H1956 H 0.54061 0.66764 0.75201 0.0
H1957 H 0.51502 0.62083 0.64822 0.0
H1958 H 0.48975 0.59361 0.61677 0.0
H1959 H 0.46128 0.6224 0.59549 0.0
H1960 H 0.48623 0.6497 0.62762 0.0
H1961 H 0.5814 0.74338 0.61149 0.0
H1962 H 0.57307 0.71294 0.6364 0.0
H1963 H 0.51683 0.69816 0.63482 0.0
H1964 H 0.52509 0.72831 0.61047 0.0
H1965 H 0.52102 0.67064 0.60873 0.0
H1966 H 0.54284 0.71445 0.72242 0.0
H1967 H 0.56474 0.74006 0.76507 0.0
H1968 H 0.59899 0.71672 0.77146 0.0
H1969 H 0.57737 0.69106 0.72849 0.0
C1970 C 0.48072 0.61631 0.7529 0.0
C1971 C 0.48513 0.60264 0.75758 0.0
C1972 C 0.49359 0.63333 0.73861 0.0
C1973 C 0.51105 0.63695 0.72869 0.0
C1974 C 0.51616 0.62409 0.7381 0.0
C1975 C 0.50321 0.60695 0.7526 0.0
C1976 C 0.52248 0.65279 0.70234 0.0
C1977 C 0.53678 0.66823 0.72022 0.0
C1978 C 0.51726 0.65348 0.66107 0.0
C1979 C 0.50246 0.63727 0.64054 0.0
C1980 C 0.50332 0.62132 0.63707 0.0
C1981 C 0.48906 0.60588 0.61912 0.0
C1982 C 0.47391 0.60627 0.60419 0.0
C1983 C 0.47303 0.62212 0.60707 0.0
C1984 C 0.48724 0.63759 0.62511 0.0
C1985 C 0.56724 0.73337 0.61506 0.0
C1986 C 0.55384 0.73808 0.60883 0.0
C1987 C 0.56252 0.7161 0.6298 0.0
C1988 C 0.54434 0.70335 0.63798 0.0
C1989 C 0.53094 0.70774 0.62877 0.0
C1990 C 0.53564 0.72495 0.61468 0.0
C1991 C 0.53891 0.68586 0.65874 0.0
C1992 C 0.52553 0.66999 0.63981 0.0
C1993 C 0.54501 0.68485 0.69905 0.0
C1994 C 0.55863 0.70099 0.72178 0.0
C1995 C 0.55519 0.71495 0.73231 0.0
C1996 C 0.56749 0.72941 0.75675 0.0
C1997 C 0.58319 0.72995 0.77109 0.0
C1998 C 0.5868 0.71624 0.76039 0.0
C1999 C 0.57455 0.70176 0.73597 0.0
H2000 H 0.59252 0.74094 0.79074 0.0
H2001 H 0.46287 0.5943 0.59033 0.0
H2002 H 0.28057 0.80246 0.61211 0.0
H2003 H 0.30919 0.82546 0.64139 0.0
H2004 H 0.29473 0.86623 0.61746 0.0
H2005 H 0.26567 0.84306 0.58839 0.0
H2006 H 0.33638 0.87429 0.60832 0.0
H2007 H 0.28604 0.85729 0.70013 0.0
H2008 H 0.25689 0.83527 0.73132 0.0
H2009 H 0.28119 0.80636 0.7839 0.0
H2010 H 0.31035 0.82781 0.7516 0.0
H2011 H 0.40884 0.91879 0.74706 0.0
H2012 H 0.37813 0.91106 0.72664 0.0
H2013 H 0.36022 0.85457 0.74471 0.0
H2014 H 0.39078 0.86223 0.76452 0.0
H2015 H 0.33285 0.8625 0.75986 0.0
H2016 H 0.37903 0.87381 0.65468 0.0
H2017 H 0.40845 0.89361 0.62129 0.0
H2018 H 0.3921 0.93258 0.59456 0.0
H2019 H 0.36267 0.91309 0.62842 0.0
C2020 C 0.2837 0.8164 0.61164 0.0
C2021 C 0.27078 0.82091 0.59842 0.0
C2022 C 0.30005 0.82953 0.62849 0.0
C2023 C 0.30386 0.84742 0.63222 0.0
C2024 C 0.29194 0.85243 0.61489 0.0
C2025 C 0.27542 0.83921 0.59806 0.0
C2026 C 0.31894 0.85979 0.65946 0.0
C2027 C 0.33552 0.87223 0.64163 0.0
C2028 C 0.31779 0.85685 0.70284 0.0
C2029 C 0.30037 0.8441 0.72312 0.0
C2030 C 0.28514 0.84614 0.71796 0.0
C2031 C 0.26861 0.83377 0.7359 0.0
C2032 C 0.26719 0.81946 0.75969 0.0
C2033 C 0.2823 0.81746 0.76548 0.0
C2034 C 0.29884 0.82971 0.74729 0.0
C2035 C 0.39811 0.90483 0.74888 0.0
C2036 C 0.4021 0.89107 0.7572 0.0
C2037 C 0.38062 0.90041 0.7368 0.0
C2038 C 0.367 0.88222 0.73335 0.0
C2039 C 0.37052 0.86869 0.74703 0.0
C2040 C 0.38797 0.87307 0.75852 0.0
C2041 C 0.3504 0.8768 0.70872 0.0
C2042 C 0.33356 0.86535 0.72692 0.0
C2043 C 0.35132 0.88066 0.66571 0.0
C2044 C 0.36877 0.89211 0.64442 0.0
C2045 C 0.38176 0.88664 0.64182 0.0
C2046 C 0.39843 0.8978 0.62284 0.0
C2047 C 0.40217 0.91437 0.6059 0.0
C2048 C 0.38921 0.91976 0.60777 0.0
C2049 C 0.37253 0.90867 0.62686 0.0
H2050 H 0.41509 0.92299 0.59127 0.0
H2051 H 0.25439 0.80994 0.77365 0.0
loop_
_geom_bond_atom_site_label_1
_geom_bond_atom_site_label_2
_geom_bond_distance
_geom_bond_site_symmetry_2
_ccdc_geom_bond_type
Zn0 O3 2.031 1_556 S
Zn0 O5 2.049 . S
Zn0 O10 2.067 . S
Zn1 O2 1.962 . S
Zn1 O4 1.986 . S
Zn1 O6 1.996 . S
Zn1 O9 1.943 . S
O2 Zn1 1.962 . S
O2 C7 1.254 . S
O3 Zn0 2.031 1_554 S
O3 C7 1.269 . S
O4 Zn1 1.986 . S
O4 C11 1.262 . S
O5 Zn0 2.049 . S
O5 C13 1.260 1_556 S
O6 Zn1 1.996 . S
O6 C13 1.257 . S
C7 O2 1.254 . S
C7 O3 1.269 . S
C8 O9 1.249 1_556 S
C8 O10 1.270 . S
O9 Zn1 1.943 . S
O9 C8 1.249 1_554 S
O10 Zn0 2.067 . S
O10 C8 1.270 . S
C11 O4 1.262 . S
C11 O12 1.232 . S
O12 C11 1.232 . S
C13 O5 1.260 1_554 S
C13 O6 1.257 . S
Zn14 O17 2.031 1_556 S
Zn14 O19 2.049 . S
Zn14 O24 2.067 . S
Zn15 O16 1.962 . S
Zn15 O18 1.986 . S
Zn15 O20 1.996 . S
Zn15 O23 1.943 . S
O16 Zn15 1.962 . S
O16 C21 1.254 . S
O17 Zn14 2.031 1_554 S
O17 C21 1.269 . S
O18 Zn15 1.986 . S
O18 C25 1.262 . S
O19 Zn14 2.049 . S
O19 C27 1.260 1_556 S
O20 Zn15 1.996 . S
O20 C27 1.257 . S
C21 O16 1.254 . S
C21 O17 1.269 . S
C22 O23 1.249 1_556 S
C22 O24 1.270 . S
O23 Zn15 1.943 . S
O23 C22 1.249 1_554 S
O24 Zn14 2.067 . S
O24 C22 1.270 . S
C25 O18 1.262 . S
C25 O26 1.232 . S
O26 C25 1.232 . S
C27 O19 1.260 1_554 S
C27 O20 1.257 . S
Zn28 O31 2.031 1_556 S
Zn28 O33 2.049 . S
Zn28 O38 2.067 . S
Zn29 O30 1.962 . S
Zn29 O32 1.986 . S
Zn29 O34 1.996 . S
Zn29 O37 1.943 . S
O30 Zn29 1.962 . S
O30 C35 1.254 . S
O31 Zn28 2.031 1_554 S
O31 C35 1.269 . S
O32 Zn29 1.986 . S
O32 C39 1.262 . S
O33 Zn28 2.049 . S
O33 C41 1.260 1_556 S
O34 Zn29 1.996 . S
O34 C41 1.257 . S
C35 O30 1.254 . S
C35 O31 1.269 . S
C36 O37 1.249 1_556 S
C36 O38 1.270 . S
O37 Zn29 1.943 . S
O37 C36 1.249 1_554 S
O38 Zn28 2.067 . S
O38 C36 1.270 . S
C39 O32 1.262 . S
C39 O40 1.232 . S
O40 C39 1.232 . S
C41 O33 1.260 1_554 S
C41 O34 1.257 . S
Zn42 O45 2.031 1_554 S
Zn42 O47 2.049 . S
Zn42 O52 2.067 . S
Zn43 O44 1.962 . S
Zn43 O46 1.986 . S
Zn43 O48 1.996 . S
Zn43 O51 1.943 . S
O44 Zn43 1.962 . S
O44 C49 1.254 . S
O45 Zn42 2.031 1_556 S
O45 C49 1.269 . S
O46 Zn43 1.986 . S
O46 C53 1.262 . S
O47 Zn42 2.049 . S
O47 C55 1.260 1_554 S
O48 Zn43 1.996 . S
O48 C55 1.257 . S
C49 O44 1.254 . S
C49 O45 1.269 . S
C50 O51 1.249 1_554 S
C50 O52 1.270 . S
O51 Zn43 1.943 . S
O51 C50 1.249 1_556 S
O52 Zn42 2.067 . S
O52 C50 1.270 . S
C53 O46 1.262 . S
C53 O54 1.232 . S
O54 C53 1.232 . S
C55 O47 1.260 1_556 S
C55 O48 1.257 . S
Zn56 O59 2.031 1_554 S
Zn56 O61 2.049 . S
Zn56 O66 2.067 . S
Zn57 O58 1.962 . S
Zn57 O60 1.986 . S
Zn57 O62 1.996 . S
Zn57 O65 1.943 . S
O58 Zn57 1.962 . S
O58 C63 1.254 . S
O59 Zn56 2.031 1_556 S
O59 C63 1.269 . S
O60 Zn57 1.986 . S
O60 C67 1.262 . S
O61 Zn56 2.049 . S
O61 C69 1.260 1_554 S
O62 Zn57 1.996 . S
O62 C69 1.257 . S
C63 O58 1.254 . S
C63 O59 1.269 . S
C64 O65 1.249 1_554 S
C64 O66 1.270 . S
O65 Zn57 1.943 . S
O65 C64 1.249 1_556 S
O66 Zn56 2.067 . S
O66 C64 1.270 . S
C67 O60 1.262 . S
C67 O68 1.232 . S
O68 C67 1.232 . S
C69 O61 1.260 1_556 S
C69 O62 1.257 . S
Zn70 O73 2.031 1_554 S
Zn70 O75 2.049 . S
Zn70 O80 2.067 . S
Zn71 O72 1.962 . S
Zn71 O74 1.986 . S
Zn71 O76 1.996 . S
Zn71 O79 1.943 . S
O72 Zn71 1.962 . S
O72 C77 1.254 . S
O73 Zn70 2.031 1_556 S
O73 C77 1.269 . S
O74 Zn71 1.986 . S
O74 C81 1.262 . S
O75 Zn70 2.049 . S
O75 C83 1.260 1_554 S
O76 Zn71 1.996 . S
O76 C83 1.257 . S
C77 O72 1.254 . S
C77 O73 1.269 . S
C78 O79 1.249 1_554 S
C78 O80 1.270 . S
O79 Zn71 1.943 . S
O79 C78 1.249 1_556 S
O80 Zn70 2.067 . S
O80 C78 1.270 . S
C81 O74 1.262 . S
C81 O82 1.232 . S
O82 C81 1.232 . S
C83 O75 1.260 1_556 S
C83 O76 1.257 . S
Zn84 O87 2.031 . S
Zn84 O89 2.049 . S
Zn84 O94 2.067 . S
Zn85 O86 1.962 . S
Zn85 O88 1.986 . S
Zn85 O90 1.996 . S
Zn85 O93 1.943 . S
O86 Zn85 1.962 . S
O86 C91 1.254 . S
O87 Zn84 2.031 . S
O87 C91 1.269 . S
O88 Zn85 1.986 . S
O88 C95 1.262 . S
O89 Zn84 2.049 . S
O89 C97 1.260 . S
O90 Zn85 1.996 . S
O90 C97 1.257 . S
C91 O86 1.254 . S
C91 O87 1.269 . S
C92 O93 1.249 . S
C92 O94 1.270 . S
O93 Zn85 1.943 . S
O93 C92 1.249 . S
O94 Zn84 2.067 . S
O94 C92 1.270 . S
C95 O88 1.262 . S
C95 O96 1.232 . S
O96 C95 1.232 . S
C97 O89 1.260 . S
C97 O90 1.257 . S
Zn98 O101 2.031 . S
Zn98 O103 2.049 . S
Zn98 O108 2.067 . S
Zn99 O100 1.962 . S
Zn99 O102 1.986 . S
Zn99 O104 1.996 . S
Zn99 O107 1.943 . S
O100 Zn99 1.962 . S
O100 C105 1.254 . S
O101 Zn98 2.031 . S
O101 C105 1.269 . S
O102 Zn99 1.986 . S
O102 C109 1.262 . S
O103 Zn98 2.049 . S
O103 C111 1.260 . S
O104 Zn99 1.996 . S
O104 C111 1.257 . S
C105 O100 1.254 . S
C105 O101 1.269 . S
C106 O107 1.249 . S
C106 O108 1.270 . S
O107 Zn99 1.943 . S
O107 C106 1.249 . S
O108 Zn98 2.067 . S
O108 C106 1.270 . S
C109 O102 1.262 . S
C109 O110 1.232 . S
O110 C109 1.232 . S
C111 O103 1.260 . S
C111 O104 1.257 . S
Zn112 O115 2.031 . S
Zn112 O117 2.049 . S
Zn112 O122 2.067 . S
Zn113 O114 1.962 . S
Zn113 O116 1.986 . S
Zn113 O118 1.996 . S
Zn113 O121 1.943 . S
O114 Zn113 1.962 . S
O114 C119 1.254 . S
O115 Zn112 2.031 . S
O115 C119 1.269 . S
O116 Zn113 1.986 . S
O116 C123 1.262 . S
O117 Zn112 2.049 . S
O117 C125 1.260 . S
O118 Zn113 1.996 . S
O118 C125 1.257 . S
C119 O114 1.254 . S
C119 O115 1.269 . S
C120 O121 1.249 . S
C120 O122 1.270 . S
O121 Zn113 1.943 . S
O121 C120 1.249 . S
O122 Zn112 2.067 . S
O122 C120 1.270 . S
C123 O116 1.262 . S
C123 O124 1.232 . S
O124 C123 1.232 . S
C125 O117 1.260 . S
C125 O118 1.257 . S
Zn126 O129 2.031 . S
Zn126 O131 2.049 . S
Zn126 O136 2.067 . S
Zn127 O128 1.962 . S
Zn127 O130 1.986 . S
Zn127 O132 1.996 . S
Zn127 O135 1.943 . S
O128 Zn127 1.962 . S
O128 C133 1.254 . S
O129 Zn126 2.031 . S
O129 C133 1.269 . S
O130 Zn127 1.986 . S
O130 C137 1.262 . S
O131 Zn126 2.049 . S
O131 C139 1.260 . S
O132 Zn127 1.996 . S
O132 C139 1.257 . S
C133 O128 1.254 . S
C133 O129 1.269 . S
C134 O135 1.249 . S
C134 O136 1.270 . S
O135 Zn127 1.943 . S
O135 C134 1.249 . S
O136 Zn126 2.067 . S
O136 C134 1.270 . S
C137 O130 1.262 . S
C137 O138 1.232 . S
O138 C137 1.232 . S
C139 O131 1.260 . S
C139 O132 1.257 . S
Zn140 O143 2.031 . S
Zn140 O145 2.049 . S
Zn140 O150 2.067 . S
Zn141 O142 1.962 . S
Zn141 O144 1.986 . S
Zn141 O146 1.996 . S
Zn141 O149 1.943 . S
O142 Zn141 1.962 . S
O142 C147 1.254 . S
O143 Zn140 2.031 . S
O143 C147 1.269 . S
O144 Zn141 1.986 . S
O144 C151 1.262 . S
O145 Zn140 2.049 . S
O145 C153 1.260 . S
O146 Zn141 1.996 . S
O146 C153 1.257 . S
C147 O142 1.254 . S
C147 O143 1.269 . S
C148 O149 1.249 . S
C148 O150 1.270 . S
O149 Zn141 1.943 . S
O149 C148 1.249 . S
O150 Zn140 2.067 . S
O150 C148 1.270 . S
C151 O144 1.262 . S
C151 O152 1.232 . S
O152 C151 1.232 . S
C153 O145 1.260 . S
C153 O146 1.257 . S
Zn154 O157 2.031 . S
Zn154 O159 2.049 . S
Zn154 O164 2.067 . S
Zn155 O156 1.962 . S
Zn155 O158 1.986 . S
Zn155 O160 1.996 . S
Zn155 O163 1.943 . S
O156 Zn155 1.962 . S
O156 C161 1.254 . S
O157 Zn154 2.031 . S
O157 C161 1.269 . S
O158 Zn155 1.986 . S
O158 C165 1.262 . S
O159 Zn154 2.049 . S
O159 C167 1.260 . S
O160 Zn155 1.996 . S
O160 C167 1.257 . S
C161 O156 1.254 . S
C161 O157 1.269 . S
C162 O163 1.249 . S
C162 O164 1.270 . S
O163 Zn155 1.943 . S
O163 C162 1.249 . S
O164 Zn154 2.067 . S
O164 C162 1.270 . S
C165 O158 1.262 . S
C165 O166 1.232 . S
O166 C165 1.232 . S
C167 O159 1.260 . S
C167 O160 1.257 . S
Zn168 O171 2.031 . S
Zn168 O173 2.049 . S
Zn168 O178 2.067 . S
Zn169 O170 1.962 . S
Zn169 O172 1.986 . S
Zn169 O174 1.996 . S
Zn169 O177 1.943 . S
O170 Zn169 1.962 . S
O170 C175 1.254 . S
O171 Zn168 2.031 . S
O171 C175 1.269 . S
O172 Zn169 1.986 . S
O172 C179 1.262 . S
O173 Zn168 2.049 . S
O173 C181 1.260 . S
O174 Zn169 1.996 . S
O174 C181 1.257 . S
C175 O170 1.254 . S
C175 O171 1.269 . S
C176 O177 1.249 . S
C176 O178 1.270 . S
O177 Zn169 1.943 . S
O177 C176 1.249 . S
O178 Zn168 2.067 . S
O178 C176 1.270 . S
C179 O172 1.262 . S
C179 O180 1.232 . S
O180 C179 1.232 . S
C181 O173 1.260 . S
C181 O174 1.257 . S
Zn182 O185 2.031 . S
Zn182 O187 2.049 . S
Zn182 O192 2.067 . S
Zn183 O184 1.962 . S
Zn183 O186 1.986 . S
Zn183 O188 1.996 . S
Zn183 O191 1.943 . S
O184 Zn183 1.962 . S
O184 C189 1.254 . S
O185 Zn182 2.031 . S
O185 C189 1.269 . S
O186 Zn183 1.986 . S
O186 C193 1.262 . S
O187 Zn182 2.049 . S
O187 C195 1.260 . S
O188 Zn183 1.996 . S
O188 C195 1.257 . S
C189 O184 1.254 . S
C189 O185 1.269 . S
C190 O191 1.249 . S
C190 O192 1.270 . S
O191 Zn183 1.943 . S
O191 C190 1.249 . S
O192 Zn182 2.067 . S
O192 C190 1.270 . S
C193 O186 1.262 . S
C193 O194 1.232 . S
O194 C193 1.232 . S
C195 O187 1.260 . S
C195 O188 1.257 . S
Zn196 O199 2.031 . S
Zn196 O201 2.049 . S
Zn196 O206 2.067 . S
Zn197 O198 1.962 . S
Zn197 O200 1.986 . S
Zn197 O202 1.996 . S
Zn197 O205 1.943 . S
O198 Zn197 1.962 . S
O198 C203 1.254 . S
O199 Zn196 2.031 . S
O199 C203 1.269 . S
O200 Zn197 1.986 . S
O200 C207 1.262 . S
O201 Zn196 2.049 . S
O201 C209 1.260 . S
O202 Zn197 1.996 . S
O202 C209 1.257 . S
C203 O198 1.254 . S
C203 O199 1.269 . S
C204 O205 1.249 . S
C204 O206 1.270 . S
O205 Zn197 1.943 . S
O205 C204 1.249 . S
O206 Zn196 2.067 . S
O206 C204 1.270 . S
C207 O200 1.262 . S
C207 O208 1.232 . S
O208 C207 1.232 . S
C209 O201 1.260 . S
C209 O202 1.257 . S
Zn210 O213 2.031 . S
Zn210 O215 2.049 . S
Zn210 O220 2.067 . S
Zn211 O212 1.962 . S
Zn211 O214 1.986 . S
Zn211 O216 1.996 . S
Zn211 O219 1.943 . S
O212 Zn211 1.962 . S
O212 C217 1.254 . S
O213 Zn210 2.031 . S
O213 C217 1.269 . S
O214 Zn211 1.986 . S
O214 C221 1.262 . S
O215 Zn210 2.049 . S
O215 C223 1.260 . S
O216 Zn211 1.996 . S
O216 C223 1.257 . S
C217 O212 1.254 . S
C217 O213 1.269 . S
C218 O219 1.249 . S
C218 O220 1.270 . S
O219 Zn211 1.943 . S
O219 C218 1.249 . S
O220 Zn210 2.067 . S
O220 C218 1.270 . S
C221 O214 1.262 . S
C221 O222 1.232 . S
O222 C221 1.232 . S
C223 O215 1.260 . S
C223 O216 1.257 . S
Zn224 O227 2.031 . S
Zn224 O229 2.049 . S
Zn224 O234 2.067 . S
Zn225 O226 1.962 . S
Zn225 O228 1.986 . S
Zn225 O230 1.996 . S
Zn225 O233 1.943 . S
O226 Zn225 1.962 . S
O226 C231 1.254 . S
O227 Zn224 2.031 . S
O227 C231 1.269 . S
O228 Zn225 1.986 . S
O228 C235 1.262 . S
O229 Zn224 2.049 . S
O229 C237 1.260 . S
O230 Zn225 1.996 . S
O230 C237 1.257 . S
C231 O226 1.254 . S
C231 O227 1.269 . S
C232 O233 1.249 . S
C232 O234 1.270 . S
O233 Zn225 1.943 . S
O233 C232 1.249 . S
O234 Zn224 2.067 . S
O234 C232 1.270 . S
C235 O228 1.262 . S
C235 O236 1.232 . S
O236 C235 1.232 . S
C237 O229 1.260 . S
C237 O230 1.257 . S
Zn238 O241 2.031 . S
Zn238 O243 2.049 . S
Zn238 O248 2.067 . S
Zn239 O240 1.962 . S
Zn239 O242 1.986 . S
Zn239 O244 1.996 . S
Zn239 O247 1.943 . S
O240 Zn239 1.962 . S
O240 C245 1.254 . S
O241 Zn238 2.031 . S
O241 C245 1.269 . S
O242 Zn239 1.986 . S
O242 C249 1.262 . S
O243 Zn238 2.049 . S
O243 C251 1.260 . S
O244 Zn239 1.996 . S
O244 C251 1.257 . S
C245 O240 1.254 . S
C245 O241 1.269 . S
C246 O247 1.249 . S
C246 O248 1.270 . S
O247 Zn239 1.943 . S
O247 C246 1.249 . S
O248 Zn238 2.067 . S
O248 C246 1.270 . S
C249 O242 1.262 . S
C249 O250 1.232 . S
O250 C249 1.232 . S
C251 O243 1.260 . S
C251 O244 1.257 . S
H252 C270 0.951 . S
H253 C272 0.951 . S
H254 C274 0.950 . S
H255 C275 0.950 . S
H256 C277 0.950 . S
H257 C280 0.950 . S
H258 C281 0.950 . S
H259 C283 0.950 . S
H260 C284 0.950 . S
H261 C285 0.951 . S
H262 C287 0.951 . S
H263 C289 0.950 . S
H264 C290 0.950 . S
H265 C292 0.950 . S
H266 C295 0.950 . S
H267 C296 0.950 . S
H268 C298 0.950 . S
H269 C299 0.950 . S
C270 H252 0.951 . S
C270 C271 1.366 . S
C270 C272 1.388 . S
C271 C270 1.366 . S
C271 C275 1.385 . S
C272 H253 0.951 . S
C272 C270 1.388 . S
C272 C273 1.366 . S
C273 C272 1.366 . S
C273 C274 1.414 . S
C273 C276 1.499 . S
C274 H254 0.950 . S
C274 C273 1.414 . S
C274 C275 1.374 . S
C275 H255 0.950 . S
C275 C271 1.385 . S
C275 C274 1.374 . S
C276 C273 1.499 . S
C276 C277 1.373 . S
C276 C278 1.389 . S
C277 H256 0.950 . S
C277 C276 1.373 . S
C277 C293 1.377 . S
C278 C276 1.389 . S
C278 C279 1.524 . S
C278 C292 1.377 . S
C279 C278 1.524 . S
C279 C280 1.397 . S
C279 C284 1.363 . S
C280 H257 0.950 . S
C280 C279 1.397 . S
C280 C281 1.334 . S
C281 H258 0.950 . S
C281 C280 1.334 . S
C281 C282 1.287 . S
C282 C281 1.287 . S
C282 C283 1.524 . S
C282 H301 0.913 . S
C283 H259 0.950 . S
C283 C282 1.524 . S
C283 C284 1.415 . S
C284 H260 0.950 . S
C284 C279 1.363 . S
C284 C283 1.415 . S
C285 H261 0.951 . S
C285 C286 1.366 . S
C285 C287 1.388 . S
C286 C285 1.366 . S
C286 C290 1.385 . S
C287 H262 0.951 . S
C287 C285 1.388 . S
C287 C288 1.366 . S
C288 C287 1.366 . S
C288 C289 1.414 . S
C288 C291 1.499 . S
C289 H263 0.950 . S
C289 C288 1.414 . S
C289 C290 1.374 . S
C290 H264 0.950 . S
C290 C286 1.385 . S
C290 C289 1.374 . S
C291 C288 1.499 . S
C291 C292 1.373 . S
C291 C293 1.389 . S
C292 H265 0.950 . S
C292 C278 1.377 . S
C292 C291 1.373 . S
C293 C277 1.377 . S
C293 C291 1.389 . S
C293 C294 1.524 . S
C294 C293 1.524 . S
C294 C295 1.397 . S
C294 C299 1.363 . S
C295 H266 0.950 . S
C295 C294 1.397 . S
C295 C296 1.334 . S
C296 H267 0.950 . S
C296 C295 1.334 . S
C296 C297 1.287 . S
C297 C296 1.287 . S
C297 C298 1.524 . S
C297 H300 0.999 . S
C298 H268 0.950 . S
C298 C297 1.524 . S
C298 C299 1.415 . S
C299 H269 0.950 . S
C299 C294 1.363 . S
C299 C298 1.415 . S
H300 C297 0.999 . S
H301 C282 0.913 . S
H302 C320 0.951 . S
H303 C322 0.951 . S
H304 C324 0.950 . S
H305 C325 0.950 . S
H306 C327 0.950 . S
H307 C330 0.950 . S
H308 C331 0.950 . S
H309 C333 0.950 . S
H310 C334 0.950 . S
H311 C335 0.951 . S
H312 C337 0.951 . S
H313 C339 0.950 . S
H314 C340 0.950 . S
H315 C342 0.950 . S
H316 C345 0.950 . S
H317 C346 0.950 . S
H318 C348 0.950 . S
H319 C349 0.950 . S
C320 H302 0.951 . S
C320 C321 1.366 . S
C320 C322 1.388 . S
C321 C320 1.366 . S
C321 C325 1.385 . S
C322 H303 0.951 . S
C322 C320 1.388 . S
C322 C323 1.366 . S
C323 C322 1.366 . S
C323 C324 1.414 . S
C323 C326 1.499 . S
C324 H304 0.950 . S
C324 C323 1.414 . S
C324 C325 1.374 . S
C325 H305 0.950 . S
C325 C321 1.385 . S
C325 C324 1.374 . S
C326 C323 1.499 . S
C326 C327 1.373 . S
C326 C328 1.389 . S
C327 H306 0.950 . S
C327 C326 1.373 . S
C327 C343 1.377 . S
C328 C326 1.389 . S
C328 C329 1.524 . S
C328 C342 1.377 . S
C329 C328 1.524 . S
C329 C330 1.397 . S
C329 C334 1.363 . S
C330 H307 0.950 . S
C330 C329 1.397 . S
C330 C331 1.334 . S
C331 H308 0.950 . S
C331 C330 1.334 . S
C331 C332 1.287 . S
C332 C331 1.287 . S
C332 C333 1.524 . S
C332 H351 0.913 . S
C333 H309 0.950 . S
C333 C332 1.524 . S
C333 C334 1.415 . S
C334 H310 0.950 . S
C334 C329 1.363 . S
C334 C333 1.415 . S
C335 H311 0.951 . S
C335 C336 1.366 . S
C335 C337 1.388 . S
C336 C335 1.366 . S
C336 C340 1.385 . S
C337 H312 0.951 . S
C337 C335 1.388 . S
C337 C338 1.366 . S
C338 C337 1.366 . S
C338 C339 1.414 . S
C338 C341 1.499 . S
C339 H313 0.950 . S
C339 C338 1.414 . S
C339 C340 1.374 . S
C340 H314 0.950 . S
C340 C336 1.385 . S
C340 C339 1.374 . S
C341 C338 1.499 . S
C341 C342 1.373 . S
C341 C343 1.389 . S
C342 H315 0.950 . S
C342 C328 1.377 . S
C342 C341 1.373 . S
C343 C327 1.377 . S
C343 C341 1.389 . S
C343 C344 1.524 . S
C344 C343 1.524 . S
C344 C345 1.397 . S
C344 C349 1.363 . S
C345 H316 0.950 . S
C345 C344 1.397 . S
C345 C346 1.334 . S
C346 H317 0.950 . S
C346 C345 1.334 . S
C346 C347 1.287 . S
C347 C346 1.287 . S
C347 C348 1.524 . S
C347 H350 0.999 . S
C348 H318 0.950 . S
C348 C347 1.524 . S
C348 C349 1.415 . S
C349 H319 0.950 . S
C349 C344 1.363 . S
C349 C348 1.415 . S
H350 C347 0.999 . S
H351 C332 0.913 . S
H352 C370 0.951 . S
H353 C372 0.951 . S
H354 C374 0.950 . S
H355 C375 0.950 . S
H356 C377 0.950 . S
H357 C380 0.950 . S
H358 C381 0.950 . S
H359 C383 0.950 . S
H360 C384 0.950 . S
H361 C385 0.951 . S
H362 C387 0.951 . S
H363 C389 0.950 . S
H364 C390 0.950 . S
H365 C392 0.950 . S
H366 C395 0.950 . S
H367 C396 0.950 . S
H368 C398 0.950 . S
H369 C399 0.950 . S
C370 H352 0.951 . S
C370 C371 1.366 . S
C370 C372 1.388 . S
C371 C370 1.366 . S
C371 C375 1.385 . S
C372 H353 0.951 . S
C372 C370 1.388 . S
C372 C373 1.366 . S
C373 C372 1.366 . S
C373 C374 1.414 . S
C373 C376 1.499 . S
C374 H354 0.950 . S
C374 C373 1.414 . S
C374 C375 1.374 . S
C375 H355 0.950 . S
C375 C371 1.385 . S
C375 C374 1.374 . S
C376 C373 1.499 . S
C376 C377 1.373 . S
C376 C378 1.389 . S
C377 H356 0.950 . S
C377 C376 1.373 . S
C377 C393 1.377 . S
C378 C376 1.389 . S
C378 C379 1.524 . S
C378 C392 1.377 . S
C379 C378 1.524 . S
C379 C380 1.397 . S
C379 C384 1.363 . S
C380 H357 0.950 . S
C380 C379 1.397 . S
C380 C381 1.334 . S
C381 H358 0.950 . S
C381 C380 1.334 . S
C381 C382 1.287 . S
C382 C381 1.287 . S
C382 C383 1.524 . S
C382 H401 0.913 . S
C383 H359 0.950 . S
C383 C382 1.524 . S
C383 C384 1.415 . S
C384 H360 0.950 . S
C384 C379 1.363 . S
C384 C383 1.415 . S
C385 H361 0.951 . S
C385 C386 1.366 . S
C385 C387 1.388 . S
C386 C385 1.366 . S
C386 C390 1.385 . S
C387 H362 0.951 . S
C387 C385 1.388 . S
C387 C388 1.366 . S
C388 C387 1.366 . S
C388 C389 1.414 . S
C388 C391 1.499 . S
C389 H363 0.950 . S
C389 C388 1.414 . S
C389 C390 1.374 . S
C390 H364 0.950 . S
C390 C386 1.385 . S
C390 C389 1.374 . S
C391 C388 1.499 . S
C391 C392 1.373 . S
C391 C393 1.389 . S
C392 H365 0.950 . S
C392 C378 1.377 . S
C392 C391 1.373 . S
C393 C377 1.377 . S
C393 C391 1.389 . S
C393 C394 1.524 . S
C394 C393 1.524 . S
C394 C395 1.397 . S
C394 C399 1.363 . S
C395 H366 0.950 . S
C395 C394 1.397 . S
C395 C396 1.334 . S
C396 H367 0.950 . S
C396 C395 1.334 . S
C396 C397 1.287 . S
C397 C396 1.287 . S
C397 C398 1.524 . S
C397 H400 0.999 . S
C398 H368 0.950 . S
C398 C397 1.524 . S
C398 C399 1.415 . S
C399 H369 0.950 . S
C399 C394 1.363 . S
C399 C398 1.415 . S
H400 C397 0.999 . S
H401 C382 0.913 . S
H402 C420 0.951 . S
H403 C422 0.951 . S
H404 C424 0.950 . S
H405 C425 0.950 . S
H406 C427 0.950 . S
H407 C430 0.950 . S
H408 C431 0.950 . S
H409 C433 0.950 . S
H410 C434 0.950 . S
H411 C435 0.951 . S
H412 C437 0.951 . S
H413 C439 0.950 . S
H414 C440 0.950 . S
H415 C442 0.950 . S
H416 C445 0.950 . S
H417 C446 0.950 . S
H418 C448 0.950 . S
H419 C449 0.950 . S
C420 H402 0.951 . S
C420 C421 1.366 . S
C420 C422 1.388 . S
C421 C420 1.366 . S
C421 C425 1.385 . S
C422 H403 0.951 . S
C422 C420 1.388 . S
C422 C423 1.366 . S
C423 C422 1.366 . S
C423 C424 1.414 . S
C423 C426 1.499 . S
C424 H404 0.950 . S
C424 C423 1.414 . S
C424 C425 1.374 . S
C425 H405 0.950 . S
C425 C421 1.385 . S
C425 C424 1.374 . S
C426 C423 1.499 . S
C426 C427 1.373 . S
C426 C428 1.389 . S
C427 H406 0.950 . S
C427 C426 1.373 . S
C427 C443 1.377 . S
C428 C426 1.389 . S
C428 C429 1.524 . S
C428 C442 1.377 . S
C429 C428 1.524 . S
C429 C430 1.397 . S
C429 C434 1.363 . S
C430 H407 0.950 . S
C430 C429 1.397 . S
C430 C431 1.334 . S
C431 H408 0.950 . S
C431 C430 1.334 . S
C431 C432 1.287 . S
C432 C431 1.287 . S
C432 C433 1.524 . S
C432 H451 0.913 . S
C433 H409 0.950 . S
C433 C432 1.524 . S
C433 C434 1.415 . S
C434 H410 0.950 . S
C434 C429 1.363 . S
C434 C433 1.415 . S
C435 H411 0.951 . S
C435 C436 1.366 . S
C435 C437 1.388 . S
C436 C435 1.366 . S
C436 C440 1.385 . S
C437 H412 0.951 . S
C437 C435 1.388 . S
C437 C438 1.366 . S
C438 C437 1.366 . S
C438 C439 1.414 . S
C438 C441 1.499 . S
C439 H413 0.950 . S
C439 C438 1.414 . S
C439 C440 1.374 . S
C440 H414 0.950 . S
C440 C436 1.385 . S
C440 C439 1.374 . S
C441 C438 1.499 . S
C441 C442 1.373 . S
C441 C443 1.389 . S
C442 H415 0.950 . S
C442 C428 1.377 . S
C442 C441 1.373 . S
C443 C427 1.377 . S
C443 C441 1.389 . S
C443 C444 1.524 . S
C444 C443 1.524 . S
C444 C445 1.397 . S
C444 C449 1.363 . S
C445 H416 0.950 . S
C445 C444 1.397 . S
C445 C446 1.334 . S
C446 H417 0.950 . S
C446 C445 1.334 . S
C446 C447 1.287 . S
C447 C446 1.287 . S
C447 C448 1.524 . S
C447 H450 0.999 . S
C448 H418 0.950 . S
C448 C447 1.524 . S
C448 C449 1.415 . S
C449 H419 0.950 . S
C449 C444 1.363 . S
C449 C448 1.415 . S
H450 C447 0.999 . S
H451 C432 0.913 . S
H452 C470 0.951 . S
H453 C472 0.951 . S
H454 C474 0.950 . S
H455 C475 0.950 . S
H456 C477 0.950 . S
H457 C480 0.950 . S
H458 C481 0.950 . S
H459 C483 0.950 . S
H460 C484 0.950 . S
H461 C485 0.951 . S
H462 C487 0.951 . S
H463 C489 0.950 . S
H464 C490 0.950 . S
H465 C492 0.950 . S
H466 C495 0.950 . S
H467 C496 0.950 . S
H468 C498 0.950 . S
H469 C499 0.950 . S
C470 H452 0.951 . S
C470 C471 1.366 . S
C470 C472 1.388 . S
C471 C470 1.366 . S
C471 C475 1.385 . S
C472 H453 0.951 . S
C472 C470 1.388 . S
C472 C473 1.366 . S
C473 C472 1.366 . S
C473 C474 1.414 . S
C473 C476 1.499 . S
C474 H454 0.950 . S
C474 C473 1.414 . S
C474 C475 1.374 . S
C475 H455 0.950 . S
C475 C471 1.385 . S
C475 C474 1.374 . S
C476 C473 1.499 . S
C476 C477 1.373 . S
C476 C478 1.389 . S
C477 H456 0.950 . S
C477 C476 1.373 . S
C477 C493 1.377 . S
C478 C476 1.389 . S
C478 C479 1.524 . S
C478 C492 1.377 . S
C479 C478 1.524 . S
C479 C480 1.397 . S
C479 C484 1.363 . S
C480 H457 0.950 . S
C480 C479 1.397 . S
C480 C481 1.334 . S
C481 H458 0.950 . S
C481 C480 1.334 . S
C481 C482 1.287 . S
C482 C481 1.287 . S
C482 C483 1.524 . S
C482 H501 0.913 . S
C483 H459 0.950 . S
C483 C482 1.524 . S
C483 C484 1.415 . S
C484 H460 0.950 . S
C484 C479 1.363 . S
C484 C483 1.415 . S
C485 H461 0.951 . S
C485 C486 1.366 . S
C485 C487 1.388 . S
C486 C485 1.366 . S
C486 C490 1.385 . S
C487 H462 0.951 . S
C487 C485 1.388 . S
C487 C488 1.366 . S
C488 C487 1.366 . S
C488 C489 1.414 . S
C488 C491 1.499 . S
C489 H463 0.950 . S
C489 C488 1.414 . S
C489 C490 1.374 . S
C490 H464 0.950 . S
C490 C486 1.385 . S
C490 C489 1.374 . S
C491 C488 1.499 . S
C491 C492 1.373 . S
C491 C493 1.389 . S
C492 H465 0.950 . S
C492 C478 1.377 . S
C492 C491 1.373 . S
C493 C477 1.377 . S
C493 C491 1.389 . S
C493 C494 1.524 . S
C494 C493 1.524 . S
C494 C495 1.397 . S
C494 C499 1.363 . S
C495 H466 0.950 . S
C495 C494 1.397 . S
C495 C496 1.334 . S
C496 H467 0.950 . S
C496 C495 1.334 . S
C496 C497 1.287 . S
C497 C496 1.287 . S
C497 C498 1.524 . S
C497 H500 0.999 . S
C498 H468 0.950 . S
C498 C497 1.524 . S
C498 C499 1.415 . S
C499 H469 0.950 . S
C499 C494 1.363 . S
C499 C498 1.415 . S
H500 C497 0.999 . S
H501 C482 0.913 . S
H502 C520 0.951 . S
H503 C522 0.951 . S
H504 C524 0.950 . S
H505 C525 0.950 . S
H506 C527 0.950 . S
H507 C530 0.950 . S
H508 C531 0.950 . S
H509 C533 0.950 . S
H510 C534 0.950 . S
H511 C535 0.951 . S
H512 C537 0.951 . S
H513 C539 0.950 . S
H514 C540 0.950 . S
H515 C542 0.950 . S
H516 C545 0.950 . S
H517 C546 0.950 . S
H518 C548 0.950 . S
H519 C549 0.950 . S
C520 H502 0.951 . S
C520 C521 1.366 . S
C520 C522 1.388 . S
C521 C520 1.366 . S
C521 C525 1.385 . S
C522 H503 0.951 . S
C522 C520 1.388 . S
C522 C523 1.366 . S
C523 C522 1.366 . S
C523 C524 1.414 . S
C523 C526 1.499 . S
C524 H504 0.950 . S
C524 C523 1.414 . S
C524 C525 1.374 . S
C525 H505 0.950 . S
C525 C521 1.385 . S
C525 C524 1.374 . S
C526 C523 1.499 . S
C526 C527 1.373 . S
C526 C528 1.389 . S
C527 H506 0.950 . S
C527 C526 1.373 . S
C527 C543 1.377 . S
C528 C526 1.389 . S
C528 C529 1.524 . S
C528 C542 1.377 . S
C529 C528 1.524 . S
C529 C530 1.397 . S
C529 C534 1.363 . S
C530 H507 0.950 . S
C530 C529 1.397 . S
C530 C531 1.334 . S
C531 H508 0.950 . S
C531 C530 1.334 . S
C531 C532 1.287 . S
C532 C531 1.287 . S
C532 C533 1.524 . S
C532 H551 0.913 . S
C533 H509 0.950 . S
C533 C532 1.524 . S
C533 C534 1.415 . S
C534 H510 0.950 . S
C534 C529 1.363 . S
C534 C533 1.415 . S
C535 H511 0.951 . S
C535 C536 1.366 . S
C535 C537 1.388 . S
C536 C535 1.366 . S
C536 C540 1.385 . S
C537 H512 0.951 . S
C537 C535 1.388 . S
C537 C538 1.366 . S
C538 C537 1.366 . S
C538 C539 1.414 . S
C538 C541 1.499 . S
C539 H513 0.950 . S
C539 C538 1.414 . S
C539 C540 1.374 . S
C540 H514 0.950 . S
C540 C536 1.385 . S
C540 C539 1.374 . S
C541 C538 1.499 . S
C541 C542 1.373 . S
C541 C543 1.389 . S
C542 H515 0.950 . S
C542 C528 1.377 . S
C542 C541 1.373 . S
C543 C527 1.377 . S
C543 C541 1.389 . S
C543 C544 1.524 . S
C544 C543 1.524 . S
C544 C545 1.397 . S
C544 C549 1.363 . S
C545 H516 0.950 . S
C545 C544 1.397 . S
C545 C546 1.334 . S
C546 H517 0.950 . S
C546 C545 1.334 . S
C546 C547 1.287 . S
C547 C546 1.287 . S
C547 C548 1.524 . S
C547 H550 0.999 . S
C548 H518 0.950 . S
C548 C547 1.524 . S
C548 C549 1.415 . S
C549 H519 0.950 . S
C549 C544 1.363 . S
C549 C548 1.415 . S
H550 C547 0.999 . S
H551 C532 0.913 . S
H552 C570 0.951 . S
H553 C572 0.951 . S
H554 C574 0.950 . S
H555 C575 0.950 . S
H556 C577 0.950 . S
H557 C580 0.950 . S
H558 C581 0.950 . S
H559 C583 0.950 . S
H560 C584 0.949 1_556 S
H561 C585 0.951 . S
H562 C587 0.951 . S
H563 C589 0.950 . S
H564 C590 0.950 . S
H565 C592 0.950 . S
H566 C595 0.950 . S
H567 C596 0.950 . S
H568 C598 0.950 . S
H569 C599 0.948 1_554 S
C570 H552 0.951 . S
C570 C571 1.366 . S
C570 C572 1.388 . S
C571 C570 1.366 . S
C571 C575 1.385 . S
C572 H553 0.951 . S
C572 C570 1.388 . S
C572 C573 1.366 . S
C573 C572 1.366 . S
C573 C574 1.414 . S
C573 C576 1.499 . S
C574 H554 0.950 . S
C574 C573 1.414 . S
C574 C575 1.374 . S
C575 H555 0.950 . S
C575 C571 1.385 . S
C575 C574 1.374 . S
C576 C573 1.499 . S
C576 C577 1.373 1_655 S
C576 C578 1.389 . S
C577 H556 0.950 . S
C577 C576 1.373 1_455 S
C577 C593 1.377 1_554 S
C578 C576 1.389 . S
C578 C579 1.524 . S
C578 C592 1.377 1_554 S
C579 C578 1.524 . S
C579 C580 1.397 . S
C579 C584 1.363 . S
C580 H557 0.950 . S
C580 C579 1.397 . S
C580 C581 1.334 . S
C581 H558 0.950 . S
C581 C580 1.334 . S
C581 C582 1.287 . S
C582 C581 1.287 . S
C582 C583 1.524 . S
C582 H601 0.913 . S
C583 H559 0.950 . S
C583 C582 1.524 . S
C583 C584 1.415 . S
C584 H560 0.949 1_554 S
C584 C579 1.363 . S
C584 C583 1.415 . S
C585 H561 0.951 . S
C585 C586 1.366 . S
C585 C587 1.388 . S
C586 C585 1.366 . S
C586 C590 1.385 . S
C587 H562 0.951 . S
C587 C585 1.388 . S
C587 C588 1.366 . S
C588 C587 1.366 . S
C588 C589 1.414 . S
C588 C591 1.499 . S
C589 H563 0.950 . S
C589 C588 1.414 . S
C589 C590 1.374 . S
C590 H564 0.950 . S
C590 C586 1.385 . S
C590 C589 1.374 . S
C591 C588 1.499 . S
C591 C592 1.373 1_455 S
C591 C593 1.389 . S
C592 H565 0.950 . S
C592 C578 1.377 1_556 S
C592 C591 1.373 1_655 S
C593 C577 1.377 1_556 S
C593 C591 1.389 . S
C593 C594 1.524 . S
C594 C593 1.524 . S
C594 C595 1.397 . S
C594 C599 1.363 . S
C595 H566 0.950 . S
C595 C594 1.397 . S
C595 C596 1.334 . S
C596 H567 0.950 . S
C596 C595 1.334 . S
C596 C597 1.287 . S
C597 C596 1.287 . S
C597 C598 1.524 . S
C597 H600 0.999 . S
C598 H568 0.950 . S
C598 C597 1.524 . S
C598 C599 1.415 . S
C599 H569 0.948 1_556 S
C599 C594 1.363 . S
C599 C598 1.415 . S
H600 C597 0.999 . S
H601 C582 0.913 . S
H602 C620 0.951 . S
H603 C622 0.951 . S
H604 C624 0.950 . S
H605 C625 0.950 . S
H606 C627 0.950 . S
H607 C630 0.950 . S
H608 C631 0.950 . S
H609 C633 0.950 . S
H610 C634 0.950 . S
H611 C635 0.951 . S
H612 C637 0.951 . S
H613 C639 0.950 . S
H614 C640 0.950 . S
H615 C642 0.950 . S
H616 C645 0.950 . S
H617 C646 0.950 . S
H618 C648 0.950 . S
H619 C649 0.950 . S
C620 H602 0.951 . S
C620 C621 1.366 . S
C620 C622 1.388 . S
C621 C620 1.366 . S
C621 C625 1.385 . S
C622 H603 0.951 . S
C622 C620 1.388 . S
C622 C623 1.366 . S
C623 C622 1.366 . S
C623 C624 1.414 . S
C623 C626 1.499 . S
C624 H604 0.950 . S
C624 C623 1.414 . S
C624 C625 1.374 . S
C625 H605 0.950 . S
C625 C621 1.385 . S
C625 C624 1.374 . S
C626 C623 1.499 . S
C626 C627 1.373 . S
C626 C628 1.389 . S
C627 H606 0.950 . S
C627 C626 1.373 . S
C627 C643 1.377 1_554 S
C628 C626 1.389 . S
C628 C629 1.524 . S
C628 C642 1.377 1_554 S
C629 C628 1.524 . S
C629 C630 1.397 . S
C629 C634 1.363 . S
C630 H607 0.950 . S
C630 C629 1.397 . S
C630 C631 1.334 . S
C631 H608 0.950 . S
C631 C630 1.334 . S
C631 C632 1.287 . S
C632 C631 1.287 . S
C632 C633 1.524 . S
C632 H651 0.913 . S
C633 H609 0.950 . S
C633 C632 1.524 . S
C633 C634 1.415 . S
C634 H610 0.950 . S
C634 C629 1.363 . S
C634 C633 1.415 . S
C635 H611 0.951 . S
C635 C636 1.366 . S
C635 C637 1.388 . S
C636 C635 1.366 . S
C636 C640 1.385 . S
C637 H612 0.951 . S
C637 C635 1.388 . S
C637 C638 1.366 . S
C638 C637 1.366 . S
C638 C639 1.414 . S
C638 C641 1.499 . S
C639 H613 0.950 . S
C639 C638 1.414 . S
C639 C640 1.374 . S
C640 H614 0.950 . S
C640 C636 1.385 . S
C640 C639 1.374 . S
C641 C638 1.499 . S
C641 C642 1.373 . S
C641 C643 1.389 . S
C642 H615 0.950 . S
C642 C628 1.377 1_556 S
C642 C641 1.373 . S
C643 C627 1.377 1_556 S
C643 C641 1.389 . S
C643 C644 1.524 . S
C644 C643 1.524 . S
C644 C645 1.397 . S
C644 C649 1.363 . S
C645 H616 0.950 . S
C645 C644 1.397 . S
C645 C646 1.334 . S
C646 H617 0.950 . S
C646 C645 1.334 . S
C646 C647 1.287 . S
C647 C646 1.287 . S
C647 C648 1.524 . S
C647 H650 0.999 . S
C648 H618 0.950 . S
C648 C647 1.524 . S
C648 C649 1.415 . S
C649 H619 0.950 . S
C649 C644 1.363 . S
C649 C648 1.415 . S
H650 C647 0.999 . S
H651 C632 0.913 . S
H652 C670 0.951 . S
H653 C672 0.951 . S
H654 C674 0.950 . S
H655 C675 0.950 . S
H656 C677 0.950 . S
H657 C680 0.950 . S
H658 C681 0.950 . S
H659 C683 0.950 . S
H660 C684 0.950 1_565 S
H661 C685 0.951 . S
H662 C687 0.951 . S
H663 C689 0.950 . S
H664 C690 0.950 . S
H665 C692 0.950 . S
H666 C695 0.950 . S
H667 C696 0.950 . S
H668 C698 0.950 . S
H669 C699 0.950 1_545 S
C670 H652 0.951 . S
C670 C671 1.366 . S
C670 C672 1.388 . S
C671 C670 1.366 . S
C671 C675 1.385 . S
C672 H653 0.951 . S
C672 C670 1.388 . S
C672 C673 1.366 . S
C673 C672 1.366 . S
C673 C674 1.414 . S
C673 C676 1.499 . S
C674 H654 0.950 . S
C674 C673 1.414 . S
C674 C675 1.374 . S
C675 H655 0.950 . S
C675 C671 1.385 . S
C675 C674 1.374 . S
C676 C673 1.499 . S
C676 C677 1.373 . S
C676 C678 1.389 . S
C677 H656 0.950 . S
C677 C676 1.373 . S
C677 C693 1.377 1_544 S
C678 C676 1.389 . S
C678 C679 1.524 . S
C678 C692 1.377 1_544 S
C679 C678 1.524 . S
C679 C680 1.397 . S
C679 C684 1.363 . S
C680 H657 0.950 . S
C680 C679 1.397 . S
C680 C681 1.334 . S
C681 H658 0.950 . S
C681 C680 1.334 . S
C681 C682 1.287 . S
C682 C681 1.287 . S
C682 C683 1.524 . S
C682 H701 0.913 . S
C683 H659 0.950 . S
C683 C682 1.524 . S
C683 C684 1.415 . S
C684 H660 0.950 1_545 S
C684 C679 1.363 . S
C684 C683 1.415 . S
C685 H661 0.951 . S
C685 C686 1.366 . S
C685 C687 1.388 . S
C686 C685 1.366 . S
C686 C690 1.385 . S
C687 H662 0.951 . S
C687 C685 1.388 . S
C687 C688 1.366 . S
C688 C687 1.366 . S
C688 C689 1.414 . S
C688 C691 1.499 . S
C689 H663 0.950 . S
C689 C688 1.414 . S
C689 C690 1.374 . S
C690 H664 0.950 . S
C690 C686 1.385 . S
C690 C689 1.374 . S
C691 C688 1.499 . S
C691 C692 1.373 . S
C691 C693 1.389 . S
C692 H665 0.950 . S
C692 C678 1.377 1_566 S
C692 C691 1.373 . S
C693 C677 1.377 1_566 S
C693 C691 1.389 . S
C693 C694 1.524 . S
C694 C693 1.524 . S
C694 C695 1.397 . S
C694 C699 1.363 . S
C695 H666 0.950 . S
C695 C694 1.397 . S
C695 C696 1.334 . S
C696 H667 0.950 . S
C696 C695 1.334 . S
C696 C697 1.287 . S
C697 C696 1.287 . S
C697 C698 1.524 . S
C697 H700 0.999 . S
C698 H668 0.950 . S
C698 C697 1.524 . S
C698 C699 1.415 . S
C699 H669 0.950 1_565 S
C699 C694 1.363 . S
C699 C698 1.415 . S
H700 C697 0.999 . S
H701 C682 0.913 . S
H702 C720 0.951 . S
H703 C722 0.951 . S
H704 C724 0.950 . S
H705 C725 0.950 . S
H706 C727 0.950 . S
H707 C730 0.950 . S
H708 C731 0.950 . S
H709 C733 0.950 . S
H710 C734 0.950 . S
H711 C735 0.951 . S
H712 C737 0.951 . S
H713 C739 0.950 . S
H714 C740 0.950 . S
H715 C742 0.950 . S
H716 C745 0.950 . S
H717 C746 0.950 . S
H718 C748 0.950 . S
H719 C749 0.950 . S
C720 H702 0.951 . S
C720 C721 1.366 . S
C720 C722 1.388 . S
C721 C720 1.366 . S
C721 C725 1.385 . S
C722 H703 0.951 . S
C722 C720 1.388 . S
C722 C723 1.366 . S
C723 C722 1.366 . S
C723 C724 1.414 . S
C723 C726 1.499 . S
C724 H704 0.950 . S
C724 C723 1.414 . S
C724 C725 1.374 . S
C725 H705 0.950 . S
C725 C721 1.385 . S
C725 C724 1.374 . S
C726 C723 1.499 . S
C726 C727 1.373 . S
C726 C728 1.389 . S
C727 H706 0.950 . S
C727 C726 1.373 . S
C727 C743 1.377 . S
C728 C726 1.389 . S
C728 C729 1.524 . S
C728 C742 1.377 . S
C729 C728 1.524 . S
C729 C730 1.397 . S
C729 C734 1.363 . S
C730 H707 0.950 . S
C730 C729 1.397 . S
C730 C731 1.334 . S
C731 H708 0.950 . S
C731 C730 1.334 . S
C731 C732 1.287 . S
C732 C731 1.287 . S
C732 C733 1.524 . S
C732 H751 0.913 . S
C733 H709 0.950 . S
C733 C732 1.524 . S
C733 C734 1.415 . S
C734 H710 0.950 . S
C734 C729 1.363 . S
C734 C733 1.415 . S
C735 H711 0.951 . S
C735 C736 1.366 . S
C735 C737 1.388 . S
C736 C735 1.366 . S
C736 C740 1.385 . S
C737 H712 0.951 . S
C737 C735 1.388 . S
C737 C738 1.366 . S
C738 C737 1.366 . S
C738 C739 1.414 . S
C738 C741 1.499 . S
C739 H713 0.950 . S
C739 C738 1.414 . S
C739 C740 1.374 . S
C740 H714 0.950 . S
C740 C736 1.385 . S
C740 C739 1.374 . S
C741 C738 1.499 . S
C741 C742 1.373 . S
C741 C743 1.389 . S
C742 H715 0.950 . S
C742 C728 1.377 . S
C742 C741 1.373 . S
C743 C727 1.377 . S
C743 C741 1.389 . S
C743 C744 1.524 . S
C744 C743 1.524 . S
C744 C745 1.397 . S
C744 C749 1.363 . S
C745 H716 0.950 . S
C745 C744 1.397 . S
C745 C746 1.334 . S
C746 H717 0.950 . S
C746 C745 1.334 . S
C746 C747 1.287 . S
C747 C746 1.287 . S
C747 C748 1.524 . S
C747 H750 0.999 . S
C748 H718 0.950 . S
C748 C747 1.524 . S
C748 C749 1.415 . S
C749 H719 0.950 . S
C749 C744 1.363 . S
C749 C748 1.415 . S
H750 C747 0.999 . S
H751 C732 0.913 . S
H752 C770 0.951 . S
H753 C772 0.951 . S
H754 C774 0.950 . S
H755 C775 0.950 . S
H756 C777 0.950 . S
H757 C780 0.950 . S
H758 C781 0.950 . S
H759 C783 0.950 . S
H760 C784 0.950 . S
H761 C785 0.951 . S
H762 C787 0.951 . S
H763 C789 0.950 . S
H764 C790 0.950 . S
H765 C792 0.950 . S
H766 C795 0.950 . S
H767 C796 0.950 . S
H768 C798 0.950 . S
H769 C799 0.950 . S
C770 H752 0.951 . S
C770 C771 1.366 . S
C770 C772 1.388 . S
C771 C770 1.366 . S
C771 C775 1.385 . S
C772 H753 0.951 . S
C772 C770 1.388 . S
C772 C773 1.366 . S
C773 C772 1.366 . S
C773 C774 1.414 . S
C773 C776 1.499 . S
C774 H754 0.950 . S
C774 C773 1.414 . S
C774 C775 1.374 . S
C775 H755 0.950 . S
C775 C771 1.385 . S
C775 C774 1.374 . S
C776 C773 1.499 . S
C776 C777 1.373 . S
C776 C778 1.389 . S
C777 H756 0.950 . S
C777 C776 1.373 . S
C777 C793 1.377 . S
C778 C776 1.389 . S
C778 C779 1.524 . S
C778 C792 1.377 . S
C779 C778 1.524 . S
C779 C780 1.397 . S
C779 C784 1.363 . S
C780 H757 0.950 . S
C780 C779 1.397 . S
C780 C781 1.334 . S
C781 H758 0.950 . S
C781 C780 1.334 . S
C781 C782 1.287 . S
C782 C781 1.287 . S
C782 C783 1.524 . S
C782 H801 0.913 . S
C783 H759 0.950 . S
C783 C782 1.524 . S
C783 C784 1.415 . S
C784 H760 0.950 . S
C784 C779 1.363 . S
C784 C783 1.415 . S
C785 H761 0.951 . S
C785 C786 1.366 . S
C785 C787 1.388 . S
C786 C785 1.366 . S
C786 C790 1.385 . S
C787 H762 0.951 . S
C787 C785 1.388 . S
C787 C788 1.366 . S
C788 C787 1.366 . S
C788 C789 1.414 . S
C788 C791 1.499 . S
C789 H763 0.950 . S
C789 C788 1.414 . S
C789 C790 1.374 . S
C790 H764 0.950 . S
C790 C786 1.385 . S
C790 C789 1.374 . S
C791 C788 1.499 . S
C791 C792 1.373 . S
C791 C793 1.389 . S
C792 H765 0.950 . S
C792 C778 1.377 . S
C792 C791 1.373 . S
C793 C777 1.377 . S
C793 C791 1.389 . S
C793 C794 1.524 . S
C794 C793 1.524 . S
C794 C795 1.397 . S
C794 C799 1.363 . S
C795 H766 0.950 . S
C795 C794 1.397 . S
C795 C796 1.334 . S
C796 H767 0.950 . S
C796 C795 1.334 . S
C796 C797 1.287 . S
C797 C796 1.287 . S
C797 C798 1.524 . S
C797 H800 0.999 . S
C798 H768 0.950 . S
C798 C797 1.524 . S
C798 C799 1.415 . S
C799 H769 0.950 . S
C799 C794 1.363 . S
C799 C798 1.415 . S
H800 C797 0.999 . S
H801 C782 0.913 . S
H802 C820 0.951 . S
H803 C822 0.951 . S
H804 C824 0.950 . S
H805 C825 0.950 . S
H806 C827 0.950 . S
H807 C830 0.950 . S
H808 C831 0.950 . S
H809 C833 0.950 . S
H810 C834 0.950 . S
H811 C835 0.951 . S
H812 C837 0.951 . S
H813 C839 0.950 . S
H814 C840 0.950 . S
H815 C842 0.950 . S
H816 C845 0.950 . S
H817 C846 0.950 . S
H818 C848 0.950 . S
H819 C849 0.950 . S
C820 H802 0.951 . S
C820 C821 1.366 . S
C820 C822 1.388 . S
C821 C820 1.366 . S
C821 C825 1.385 . S
C822 H803 0.951 . S
C822 C820 1.388 . S
C822 C823 1.366 . S
C823 C822 1.366 . S
C823 C824 1.414 . S
C823 C826 1.499 . S
C824 H804 0.950 . S
C824 C823 1.414 . S
C824 C825 1.374 . S
C825 H805 0.950 . S
C825 C821 1.385 . S
C825 C824 1.374 . S
C826 C823 1.499 . S
C826 C827 1.373 . S
C826 C828 1.389 . S
C827 H806 0.950 . S
C827 C826 1.373 . S
C827 C843 1.377 . S
C828 C826 1.389 . S
C828 C829 1.524 . S
C828 C842 1.377 . S
C829 C828 1.524 . S
C829 C830 1.397 . S
C829 C834 1.363 . S
C830 H807 0.950 . S
C830 C829 1.397 . S
C830 C831 1.334 . S
C831 H808 0.950 . S
C831 C830 1.334 . S
C831 C832 1.287 . S
C832 C831 1.287 . S
C832 C833 1.524 . S
C832 H851 0.913 . S
C833 H809 0.950 . S
C833 C832 1.524 . S
C833 C834 1.415 . S
C834 H810 0.950 . S
C834 C829 1.363 . S
C834 C833 1.415 . S
C835 H811 0.951 . S
C835 C836 1.366 . S
C835 C837 1.388 . S
C836 C835 1.366 . S
C836 C840 1.385 . S
C837 H812 0.951 . S
C837 C835 1.388 . S
C837 C838 1.366 . S
C838 C837 1.366 . S
C838 C839 1.414 . S
C838 C841 1.499 . S
C839 H813 0.950 . S
C839 C838 1.414 . S
C839 C840 1.374 . S
C840 H814 0.950 . S
C840 C836 1.385 . S
C840 C839 1.374 . S
C841 C838 1.499 . S
C841 C842 1.373 . S
C841 C843 1.389 . S
C842 H815 0.950 . S
C842 C828 1.377 . S
C842 C841 1.373 . S
C843 C827 1.377 . S
C843 C841 1.389 . S
C843 C844 1.524 . S
C844 C843 1.524 . S
C844 C845 1.397 . S
C844 C849 1.363 . S
C845 H816 0.950 . S
C845 C844 1.397 . S
C845 C846 1.334 . S
C846 H817 0.950 . S
C846 C845 1.334 . S
C846 C847 1.287 . S
C847 C846 1.287 . S
C847 C848 1.524 . S
C847 H850 0.999 . S
C848 H818 0.950 . S
C848 C847 1.524 . S
C848 C849 1.415 . S
C849 H819 0.950 . S
C849 C844 1.363 . S
C849 C848 1.415 . S
H850 C847 0.999 . S
H851 C832 0.913 . S
H852 C870 0.951 . S
H853 C872 0.951 . S
H854 C874 0.950 . S
H855 C875 0.950 . S
H856 C877 0.950 . S
H857 C880 0.950 . S
H858 C881 0.950 . S
H859 C883 0.950 . S
H860 C884 0.950 . S
H861 C885 0.951 1_556 S
H862 C887 0.951 . S
H863 C889 0.950 . S
H864 C890 0.950 . S
H865 C892 0.950 . S
H866 C895 0.950 . S
H867 C896 0.950 . S
H868 C898 0.950 . S
H869 C899 0.950 . S
C870 H852 0.951 . S
C870 C871 1.366 . S
C870 C872 1.388 . S
C871 C870 1.366 . S
C871 C875 1.385 . S
C872 H853 0.951 . S
C872 C870 1.388 . S
C872 C873 1.366 . S
C873 C872 1.366 . S
C873 C874 1.414 . S
C873 C876 1.499 . S
C874 H854 0.950 . S
C874 C873 1.414 . S
C874 C875 1.374 . S
C875 H855 0.950 . S
C875 C871 1.385 . S
C875 C874 1.374 . S
C876 C873 1.499 . S
C876 C877 1.373 . S
C876 C878 1.389 . S
C877 H856 0.950 . S
C877 C876 1.373 . S
C877 C893 1.377 . S
C878 C876 1.389 . S
C878 C879 1.524 . S
C878 C892 1.377 . S
C879 C878 1.524 . S
C879 C880 1.397 . S
C879 C884 1.363 . S
C880 H857 0.950 . S
C880 C879 1.397 . S
C880 C881 1.334 . S
C881 H858 0.950 . S
C881 C880 1.334 . S
C881 C882 1.287 . S
C882 C881 1.287 . S
C882 C883 1.524 . S
C882 H901 0.913 . S
C883 H859 0.950 . S
C883 C882 1.524 . S
C883 C884 1.415 . S
C884 H860 0.950 . S
C884 C879 1.363 . S
C884 C883 1.415 . S
C885 H861 0.951 1_554 S
C885 C886 1.366 . S
C885 C887 1.388 . S
C886 C885 1.366 . S
C886 C890 1.385 . S
C887 H862 0.951 . S
C887 C885 1.388 . S
C887 C888 1.366 . S
C888 C887 1.366 . S
C888 C889 1.414 . S
C888 C891 1.499 . S
C889 H863 0.950 . S
C889 C888 1.414 . S
C889 C890 1.374 . S
C890 H864 0.950 . S
C890 C886 1.385 . S
C890 C889 1.374 . S
C891 C888 1.499 . S
C891 C892 1.373 . S
C891 C893 1.389 . S
C892 H865 0.950 . S
C892 C878 1.377 . S
C892 C891 1.373 . S
C893 C877 1.377 . S
C893 C891 1.389 . S
C893 C894 1.524 . S
C894 C893 1.524 . S
C894 C895 1.397 . S
C894 C899 1.363 . S
C895 H866 0.950 . S
C895 C894 1.397 . S
C895 C896 1.334 . S
C896 H867 0.950 . S
C896 C895 1.334 . S
C896 C897 1.287 . S
C897 C896 1.287 . S
C897 C898 1.524 . S
C897 H900 0.999 . S
C898 H868 0.950 . S
C898 C897 1.524 . S
C898 C899 1.415 . S
C899 H869 0.950 . S
C899 C894 1.363 . S
C899 C898 1.415 . S
H900 C897 0.999 . S
H901 C882 0.913 . S
H902 C920 0.951 . S
H903 C922 0.951 . S
H904 C924 0.950 . S
H905 C925 0.950 . S
H906 C927 0.950 . S
H907 C930 0.950 . S
H908 C931 0.950 . S
H909 C933 0.950 . S
H910 C934 0.950 . S
H911 C935 0.951 . S
H912 C937 0.951 . S
H913 C939 0.950 . S
H914 C940 0.950 . S
H915 C942 0.950 . S
H916 C945 0.950 . S
H917 C946 0.950 . S
H918 C948 0.950 . S
H919 C949 0.950 . S
C920 H902 0.951 . S
C920 C921 1.366 . S
C920 C922 1.388 . S
C921 C920 1.366 . S
C921 C925 1.385 . S
C922 H903 0.951 . S
C922 C920 1.388 . S
C922 C923 1.366 . S
C923 C922 1.366 . S
C923 C924 1.414 . S
C923 C926 1.499 . S
C924 H904 0.950 . S
C924 C923 1.414 . S
C924 C925 1.374 . S
C925 H905 0.950 . S
C925 C921 1.385 . S
C925 C924 1.374 . S
C926 C923 1.499 . S
C926 C927 1.373 . S
C926 C928 1.389 . S
C927 H906 0.950 . S
C927 C926 1.373 . S
C927 C943 1.377 . S
C928 C926 1.389 . S
C928 C929 1.524 . S
C928 C942 1.377 . S
C929 C928 1.524 . S
C929 C930 1.397 . S
C929 C934 1.363 . S
C930 H907 0.950 . S
C930 C929 1.397 . S
C930 C931 1.334 . S
C931 H908 0.950 . S
C931 C930 1.334 . S
C931 C932 1.287 . S
C932 C931 1.287 . S
C932 C933 1.524 . S
C932 H951 0.913 . S
C933 H909 0.950 . S
C933 C932 1.524 . S
C933 C934 1.415 . S
C934 H910 0.950 . S
C934 C929 1.363 . S
C934 C933 1.415 . S
C935 H911 0.951 . S
C935 C936 1.366 . S
C935 C937 1.388 . S
C936 C935 1.366 . S
C936 C940 1.385 . S
C937 H912 0.951 . S
C937 C935 1.388 . S
C937 C938 1.366 . S
C938 C937 1.366 . S
C938 C939 1.414 . S
C938 C941 1.499 . S
C939 H913 0.950 . S
C939 C938 1.414 . S
C939 C940 1.374 . S
C940 H914 0.950 . S
C940 C936 1.385 . S
C940 C939 1.374 . S
C941 C938 1.499 . S
C941 C942 1.373 . S
C941 C943 1.389 . S
C942 H915 0.950 . S
C942 C928 1.377 . S
C942 C941 1.373 . S
C943 C927 1.377 . S
C943 C941 1.389 . S
C943 C944 1.524 . S
C944 C943 1.524 . S
C944 C945 1.397 . S
C944 C949 1.363 . S
C945 H916 0.950 . S
C945 C944 1.397 . S
C945 C946 1.334 . S
C946 H917 0.950 . S
C946 C945 1.334 . S
C946 C947 1.287 . S
C947 C946 1.287 . S
C947 C948 1.524 . S
C947 H950 0.999 . S
C948 H918 0.950 . S
C948 C947 1.524 . S
C948 C949 1.415 . S
C949 H919 0.950 . S
C949 C944 1.363 . S
C949 C948 1.415 . S
H950 C947 0.999 . S
H951 C932 0.913 . S
H952 C970 0.951 . S
H953 C972 0.951 . S
H954 C974 0.950 . S
H955 C975 0.950 . S
H956 C977 0.950 . S
H957 C980 0.950 . S
H958 C981 0.950 . S
H959 C983 0.950 . S
H960 C984 0.950 . S
H961 C985 0.951 . S
H962 C987 0.951 . S
H963 C989 0.950 . S
H964 C990 0.950 . S
H965 C992 0.950 . S
H966 C995 0.950 . S
H967 C996 0.950 . S
H968 C998 0.950 . S
H969 C999 0.950 . S
C970 H952 0.951 . S
C970 C971 1.366 . S
C970 C972 1.388 . S
C971 C970 1.366 . S
C971 C975 1.385 . S
C972 H953 0.951 . S
C972 C970 1.388 . S
C972 C973 1.366 . S
C973 C972 1.366 . S
C973 C974 1.414 . S
C973 C976 1.499 . S
C974 H954 0.950 . S
C974 C973 1.414 . S
C974 C975 1.374 . S
C975 H955 0.950 . S
C975 C971 1.385 . S
C975 C974 1.374 . S
C976 C973 1.499 . S
C976 C977 1.373 . S
C976 C978 1.389 . S
C977 H956 0.950 . S
C977 C976 1.373 . S
C977 C993 1.377 . S
C978 C976 1.389 . S
C978 C979 1.524 . S
C978 C992 1.377 . S
C979 C978 1.524 . S
C979 C980 1.397 . S
C979 C984 1.363 . S
C980 H957 0.950 . S
C980 C979 1.397 . S
C980 C981 1.334 . S
C981 H958 0.950 . S
C981 C980 1.334 . S
C981 C982 1.287 . S
C982 C981 1.287 . S
C982 C983 1.524 . S
C982 H1001 0.913 . S
C983 H959 0.950 . S
C983 C982 1.524 . S
C983 C984 1.415 . S
C984 H960 0.950 . S
C984 C979 1.363 . S
C984 C983 1.415 . S
C985 H961 0.951 . S
C985 C986 1.366 . S
C985 C987 1.388 . S
C986 C985 1.366 . S
C986 C990 1.385 . S
C987 H962 0.951 . S
C987 C985 1.388 . S
C987 C988 1.366 . S
C988 C987 1.366 . S
C988 C989 1.414 . S
C988 C991 1.499 . S
C989 H963 0.950 . S
C989 C988 1.414 . S
C989 C990 1.374 . S
C990 H964 0.950 . S
C990 C986 1.385 . S
C990 C989 1.374 . S
C991 C988 1.499 . S
C991 C992 1.373 . S
C991 C993 1.389 . S
C992 H965 0.950 . S
C992 C978 1.377 . S
C992 C991 1.373 . S
C993 C977 1.377 . S
C993 C991 1.389 . S
C993 C994 1.524 . S
C994 C993 1.524 . S
C994 C995 1.397 . S
C994 C999 1.363 . S
C995 H966 0.950 . S
C995 C994 1.397 . S
C995 C996 1.334 . S
C996 H967 0.950 . S
C996 C995 1.334 . S
C996 C997 1.287 . S
C997 C996 1.287 . S
C997 C998 1.524 . S
C997 H1000 0.999 . S
C998 H968 0.950 . S
C998 C997 1.524 . S
C998 C999 1.415 . S
C999 H969 0.950 . S
C999 C994 1.363 . S
C999 C998 1.415 . S
H1000 C997 0.999 . S
H1001 C982 0.913 . S
H1002 C1020 0.951 . S
H1003 C1022 0.951 . S
H1004 C1024 0.950 . S
H1005 C1025 0.950 . S
H1006 C1027 0.950 . S
H1007 C1030 0.950 . S
H1008 C1031 0.950 . S
H1009 C1033 0.950 . S
H1010 C1034 0.950 1_655 S
H1011 C1035 0.951 . S
H1012 C1037 0.951 . S
H1013 C1039 0.950 . S
H1014 C1040 0.950 . S
H1015 C1042 0.950 . S
H1016 C1045 0.950 . S
H1017 C1046 0.950 . S
H1018 C1048 0.950 . S
H1019 C1049 0.950 1_455 S
C1020 H1002 0.951 . S
C1020 C1021 1.366 . S
C1020 C1022 1.388 . S
C1021 C1020 1.366 . S
C1021 C1025 1.385 . S
C1022 H1003 0.951 . S
C1022 C1020 1.388 . S
C1022 C1023 1.366 . S
C1023 C1022 1.366 . S
C1023 C1024 1.414 . S
C1023 C1026 1.499 . S
C1024 H1004 0.950 . S
C1024 C1023 1.414 . S
C1024 C1025 1.374 . S
C1025 H1005 0.950 . S
C1025 C1021 1.385 . S
C1025 C1024 1.374 . S
C1026 C1023 1.499 . S
C1026 C1027 1.373 . S
C1026 C1028 1.387 1_655 S
C1027 H1006 0.950 . S
C1027 C1026 1.373 . S
C1027 C1043 1.390 . S
C1028 C1026 1.387 1_455 S
C1028 C1029 1.516 . S
C1028 C1042 1.390 . S
C1029 C1028 1.516 . S
C1029 C1030 1.397 . S
C1029 C1034 1.363 . S
C1030 H1007 0.950 . S
C1030 C1029 1.397 . S
C1030 C1031 1.334 . S
C1031 H1008 0.950 . S
C1031 C1030 1.334 . S
C1031 C1032 1.287 . S
C1032 C1031 1.287 . S
C1032 C1033 1.524 . S
C1032 H1051 0.913 . S
C1033 H1009 0.950 . S
C1033 C1032 1.524 . S
C1033 C1034 1.415 . S
C1034 H1010 0.950 1_455 S
C1034 C1029 1.363 . S
C1034 C1033 1.415 . S
C1035 H1011 0.951 . S
C1035 C1036 1.366 . S
C1035 C1037 1.388 . S
C1036 C1035 1.366 . S
C1036 C1040 1.385 . S
C1037 H1012 0.951 . S
C1037 C1035 1.388 . S
C1037 C1038 1.366 . S
C1038 C1037 1.366 . S
C1038 C1039 1.414 . S
C1038 C1041 1.499 . S
C1039 H1013 0.950 . S
C1039 C1038 1.414 . S
C1039 C1040 1.374 . S
C1040 H1014 0.950 . S
C1040 C1036 1.385 . S
C1040 C1039 1.374 . S
C1041 C1038 1.499 . S
C1041 C1042 1.373 . S
C1041 C1043 1.387 1_455 S
C1042 H1015 0.950 . S
C1042 C1028 1.390 . S
C1042 C1041 1.373 . S
C1043 C1027 1.390 . S
C1043 C1041 1.387 1_655 S
C1043 C1044 1.516 . S
C1044 C1043 1.516 . S
C1044 C1045 1.397 . S
C1044 C1049 1.363 . S
C1045 H1016 0.950 . S
C1045 C1044 1.397 . S
C1045 C1046 1.334 . S
C1046 H1017 0.950 . S
C1046 C1045 1.334 . S
C1046 C1047 1.287 . S
C1047 C1046 1.287 . S
C1047 C1048 1.524 . S
C1047 H1050 0.999 . S
C1048 H1018 0.950 . S
C1048 C1047 1.524 . S
C1048 C1049 1.415 . S
C1049 H1019 0.950 1_655 S
C1049 C1044 1.363 . S
C1049 C1048 1.415 . S
H1050 C1047 0.999 . S
H1051 C1032 0.913 . S
H1052 C1070 0.951 . S
H1053 C1072 0.951 . S
H1054 C1074 0.950 . S
H1055 C1075 0.950 . S
H1056 C1077 0.950 . S
H1057 C1080 0.950 . S
H1058 C1081 0.950 . S
H1059 C1083 0.950 . S
H1060 C1084 0.950 . S
H1061 C1085 0.951 . S
H1062 C1087 0.951 . S
H1063 C1089 0.950 . S
H1064 C1090 0.950 . S
H1065 C1092 0.950 . S
H1066 C1095 0.950 . S
H1067 C1096 0.950 . S
H1068 C1098 0.950 . S
H1069 C1099 0.950 . S
C1070 H1052 0.951 . S
C1070 C1071 1.366 . S
C1070 C1072 1.388 . S
C1071 C1070 1.366 . S
C1071 C1075 1.385 . S
C1072 H1053 0.951 . S
C1072 C1070 1.388 . S
C1072 C1073 1.366 . S
C1073 C1072 1.366 . S
C1073 C1074 1.414 . S
C1073 C1076 1.499 . S
C1074 H1054 0.950 . S
C1074 C1073 1.414 . S
C1074 C1075 1.374 . S
C1075 H1055 0.950 . S
C1075 C1071 1.385 . S
C1075 C1074 1.374 . S
C1076 C1073 1.499 . S
C1076 C1077 1.373 . S
C1076 C1078 1.389 . S
C1077 H1056 0.950 . S
C1077 C1076 1.373 . S
C1077 C1093 1.377 . S
C1078 C1076 1.389 . S
C1078 C1079 1.524 . S
C1078 C1092 1.377 . S
C1079 C1078 1.524 . S
C1079 C1080 1.397 . S
C1079 C1084 1.363 . S
C1080 H1057 0.950 . S
C1080 C1079 1.397 . S
C1080 C1081 1.334 . S
C1081 H1058 0.950 . S
C1081 C1080 1.334 . S
C1081 C1082 1.287 . S
C1082 C1081 1.287 . S
C1082 C1083 1.524 . S
C1082 H1101 0.913 . S
C1083 H1059 0.950 . S
C1083 C1082 1.524 . S
C1083 C1084 1.415 . S
C1084 H1060 0.950 . S
C1084 C1079 1.363 . S
C1084 C1083 1.415 . S
C1085 H1061 0.951 . S
C1085 C1086 1.366 . S
C1085 C1087 1.388 . S
C1086 C1085 1.366 . S
C1086 C1090 1.385 . S
C1087 H1062 0.951 . S
C1087 C1085 1.388 . S
C1087 C1088 1.366 . S
C1088 C1087 1.366 . S
C1088 C1089 1.414 . S
C1088 C1091 1.499 . S
C1089 H1063 0.950 . S
C1089 C1088 1.414 . S
C1089 C1090 1.374 . S
C1090 H1064 0.950 . S
C1090 C1086 1.385 . S
C1090 C1089 1.374 . S
C1091 C1088 1.499 . S
C1091 C1092 1.373 . S
C1091 C1093 1.389 . S
C1092 H1065 0.950 . S
C1092 C1078 1.377 . S
C1092 C1091 1.373 . S
C1093 C1077 1.377 . S
C1093 C1091 1.389 . S
C1093 C1094 1.524 . S
C1094 C1093 1.524 . S
C1094 C1095 1.397 . S
C1094 C1099 1.363 . S
C1095 H1066 0.950 . S
C1095 C1094 1.397 . S
C1095 C1096 1.334 . S
C1096 H1067 0.950 . S
C1096 C1095 1.334 . S
C1096 C1097 1.287 . S
C1097 C1096 1.287 . S
C1097 C1098 1.524 . S
C1097 H1100 0.999 . S
C1098 H1068 0.950 . S
C1098 C1097 1.524 . S
C1098 C1099 1.415 . S
C1099 H1069 0.950 . S
C1099 C1094 1.363 . S
C1099 C1098 1.415 . S
H1100 C1097 0.999 . S
H1101 C1082 0.913 . S
H1102 C1120 0.951 . S
H1103 C1122 0.951 . S
H1104 C1124 0.950 . S
H1105 C1125 0.950 . S
H1106 C1127 0.960 . S
H1107 C1130 0.950 . S
H1108 C1131 0.950 . S
H1109 C1133 0.950 . S
H1110 C1134 0.950 . S
H1111 C1135 0.951 . S
H1112 C1137 0.951 . S
H1113 C1139 0.950 . S
H1114 C1140 0.950 . S
H1115 C1142 0.960 . S
H1116 C1145 0.950 . S
H1117 C1146 0.950 . S
H1118 C1148 0.950 . S
H1119 C1149 0.950 . S
C1120 H1102 0.951 . S
C1120 C1121 1.366 . S
C1120 C1122 1.388 . S
C1121 C1120 1.366 . S
C1121 C1125 1.385 . S
C1122 H1103 0.951 . S
C1122 C1120 1.388 . S
C1122 C1123 1.366 . S
C1123 C1122 1.366 . S
C1123 C1124 1.414 . S
C1123 C1126 1.499 . S
C1124 H1104 0.950 . S
C1124 C1123 1.414 . S
C1124 C1125 1.374 . S
C1125 H1105 0.950 . S
C1125 C1121 1.385 . S
C1125 C1124 1.374 . S
C1126 C1123 1.499 . S
C1126 C1127 1.370 1_565 S
C1126 C1128 1.389 . S
C1127 H1106 0.960 . S
C1127 C1126 1.370 1_545 S
C1127 C1143 1.386 . S
C1128 C1126 1.389 . S
C1128 C1129 1.524 . S
C1128 C1142 1.386 . S
C1129 C1128 1.524 . S
C1129 C1130 1.397 . S
C1129 C1134 1.363 . S
C1130 H1107 0.950 . S
C1130 C1129 1.397 . S
C1130 C1131 1.334 . S
C1131 H1108 0.950 . S
C1131 C1130 1.334 . S
C1131 C1132 1.287 . S
C1132 C1131 1.287 . S
C1132 C1133 1.524 . S
C1132 H1151 0.913 . S
C1133 H1109 0.950 . S
C1133 C1132 1.524 . S
C1133 C1134 1.415 . S
C1134 H1110 0.950 . S
C1134 C1129 1.363 . S
C1134 C1133 1.415 . S
C1135 H1111 0.951 . S
C1135 C1136 1.366 . S
C1135 C1137 1.388 . S
C1136 C1135 1.366 . S
C1136 C1140 1.385 . S
C1137 H1112 0.951 . S
C1137 C1135 1.388 . S
C1137 C1138 1.366 . S
C1138 C1137 1.366 . S
C1138 C1139 1.414 . S
C1138 C1141 1.499 . S
C1139 H1113 0.950 . S
C1139 C1138 1.414 . S
C1139 C1140 1.374 . S
C1140 H1114 0.950 . S
C1140 C1136 1.385 . S
C1140 C1139 1.374 . S
C1141 C1138 1.499 . S
C1141 C1142 1.370 1_545 S
C1141 C1143 1.389 . S
C1142 H1115 0.960 . S
C1142 C1128 1.386 . S
C1142 C1141 1.370 1_565 S
C1143 C1127 1.386 . S
C1143 C1141 1.389 . S
C1143 C1144 1.524 . S
C1144 C1143 1.524 . S
C1144 C1145 1.397 . S
C1144 C1149 1.363 . S
C1145 H1116 0.950 . S
C1145 C1144 1.397 . S
C1145 C1146 1.334 . S
C1146 H1117 0.950 . S
C1146 C1145 1.334 . S
C1146 C1147 1.287 . S
C1147 C1146 1.287 . S
C1147 C1148 1.524 . S
C1147 H1150 0.999 . S
C1148 H1118 0.950 . S
C1148 C1147 1.524 . S
C1148 C1149 1.415 . S
C1149 H1119 0.950 . S
C1149 C1144 1.363 . S
C1149 C1148 1.415 . S
H1150 C1147 0.999 . S
H1151 C1132 0.913 . S
H1152 C1170 0.951 . S
H1153 C1172 0.951 . S
H1154 C1174 0.950 . S
H1155 C1175 0.950 . S
H1156 C1177 0.950 . S
H1157 C1180 0.950 . S
H1158 C1181 0.950 . S
H1159 C1183 0.950 . S
H1160 C1184 0.950 . S
H1161 C1185 0.951 . S
H1162 C1187 0.951 . S
H1163 C1189 0.950 . S
H1164 C1190 0.950 . S
H1165 C1192 0.950 . S
H1166 C1195 0.950 . S
H1167 C1196 0.950 . S
H1168 C1198 0.950 . S
H1169 C1199 0.950 . S
C1170 H1152 0.951 . S
C1170 C1171 1.366 . S
C1170 C1172 1.388 . S
C1171 C1170 1.366 . S
C1171 C1175 1.385 . S
C1172 H1153 0.951 . S
C1172 C1170 1.388 . S
C1172 C1173 1.366 . S
C1173 C1172 1.366 . S
C1173 C1174 1.414 . S
C1173 C1176 1.499 . S
C1174 H1154 0.950 . S
C1174 C1173 1.414 . S
C1174 C1175 1.374 . S
C1175 H1155 0.950 . S
C1175 C1171 1.385 . S
C1175 C1174 1.374 . S
C1176 C1173 1.499 . S
C1176 C1177 1.373 . S
C1176 C1178 1.389 1_554 S
C1177 H1156 0.950 . S
C1177 C1176 1.373 . S
C1177 C1193 1.377 . S
C1178 C1176 1.389 1_556 S
C1178 C1179 1.524 . S
C1178 C1192 1.377 . S
C1179 C1178 1.524 . S
C1179 C1180 1.397 . S
C1179 C1184 1.363 . S
C1180 H1157 0.950 . S
C1180 C1179 1.397 . S
C1180 C1181 1.334 . S
C1181 H1158 0.950 . S
C1181 C1180 1.334 . S
C1181 C1182 1.287 . S
C1182 C1181 1.287 . S
C1182 C1183 1.524 . S
C1182 H1201 0.913 . S
C1183 H1159 0.950 . S
C1183 C1182 1.524 . S
C1183 C1184 1.415 . S
C1184 H1160 0.950 . S
C1184 C1179 1.363 . S
C1184 C1183 1.415 . S
C1185 H1161 0.951 . S
C1185 C1186 1.366 . S
C1185 C1187 1.388 . S
C1186 C1185 1.366 . S
C1186 C1190 1.385 . S
C1187 H1162 0.951 . S
C1187 C1185 1.388 . S
C1187 C1188 1.366 . S
C1188 C1187 1.366 . S
C1188 C1189 1.414 . S
C1188 C1191 1.499 . S
C1189 H1163 0.950 . S
C1189 C1188 1.414 . S
C1189 C1190 1.374 . S
C1190 H1164 0.950 . S
C1190 C1186 1.385 . S
C1190 C1189 1.374 . S
C1191 C1188 1.499 . S
C1191 C1192 1.373 . S
C1191 C1193 1.389 1_556 S
C1192 H1165 0.950 . S
C1192 C1178 1.377 . S
C1192 C1191 1.373 . S
C1193 C1177 1.377 . S
C1193 C1191 1.389 1_554 S
C1193 C1194 1.524 . S
C1194 C1193 1.524 . S
C1194 C1195 1.397 . S
C1194 C1199 1.363 . S
C1195 H1166 0.950 . S
C1195 C1194 1.397 . S
C1195 C1196 1.334 . S
C1196 H1167 0.950 . S
C1196 C1195 1.334 . S
C1196 C1197 1.287 . S
C1197 C1196 1.287 . S
C1197 C1198 1.524 . S
C1197 H1200 0.999 . S
C1198 H1168 0.950 . S
C1198 C1197 1.524 . S
C1198 C1199 1.415 . S
C1199 H1169 0.950 . S
C1199 C1194 1.363 . S
C1199 C1198 1.415 . S
H1200 C1197 0.999 . S
H1201 C1182 0.913 . S
H1202 C1220 0.951 1_554 S
H1203 C1222 0.951 . S
H1204 C1224 0.950 . S
H1205 C1225 0.950 . S
H1206 C1227 0.950 . S
H1207 C1230 0.950 . S
H1208 C1231 0.950 . S
H1209 C1233 0.950 . S
H1210 C1234 0.950 . S
H1211 C1235 0.951 1_556 S
H1212 C1237 0.951 . S
H1213 C1239 0.950 . S
H1214 C1240 0.950 . S
H1215 C1242 0.950 . S
H1216 C1245 0.950 . S
H1217 C1246 0.950 . S
H1218 C1248 0.950 . S
H1219 C1249 0.950 . S
C1220 H1202 0.951 1_556 S
C1220 C1221 1.366 . S
C1220 C1222 1.388 1_556 S
C1221 C1220 1.366 . S
C1221 C1225 1.385 . S
C1222 H1203 0.951 . S
C1222 C1220 1.388 1_554 S
C1222 C1223 1.366 1_554 S
C1223 C1222 1.366 1_556 S
C1223 C1224 1.414 . S
C1223 C1226 1.499 . S
C1224 H1204 0.950 . S
C1224 C1223 1.414 . S
C1224 C1225 1.374 . S
C1225 H1205 0.950 . S
C1225 C1221 1.385 . S
C1225 C1224 1.374 . S
C1226 C1223 1.499 . S
C1226 C1227 1.373 . S
C1226 C1228 1.389 1_556 S
C1227 H1206 0.950 . S
C1227 C1226 1.373 . S
C1227 C1243 1.377 1_545 S
C1228 C1226 1.389 1_554 S
C1228 C1229 1.524 . S
C1228 C1242 1.377 1_545 S
C1229 C1228 1.524 . S
C1229 C1230 1.397 1_554 S
C1229 C1234 1.363 . S
C1230 H1207 0.950 . S
C1230 C1229 1.397 1_556 S
C1230 C1231 1.334 . S
C1231 H1208 0.950 . S
C1231 C1230 1.334 . S
C1231 C1232 1.287 1_556 S
C1232 C1231 1.287 1_554 S
C1232 C1233 1.524 . S
C1232 H1251 0.913 . S
C1233 H1209 0.950 . S
C1233 C1232 1.524 . S
C1233 C1234 1.415 . S
C1234 H1210 0.950 . S
C1234 C1229 1.363 . S
C1234 C1233 1.415 . S
C1235 H1211 0.951 1_554 S
C1235 C1236 1.366 . S
C1235 C1237 1.388 1_554 S
C1236 C1235 1.366 . S
C1236 C1240 1.385 . S
C1237 H1212 0.951 . S
C1237 C1235 1.388 1_556 S
C1237 C1238 1.366 1_556 S
C1238 C1237 1.366 1_554 S
C1238 C1239 1.414 . S
C1238 C1241 1.499 . S
C1239 H1213 0.950 . S
C1239 C1238 1.414 . S
C1239 C1240 1.374 . S
C1240 H1214 0.950 . S
C1240 C1236 1.385 . S
C1240 C1239 1.374 . S
C1241 C1238 1.499 . S
C1241 C1242 1.373 . S
C1241 C1243 1.389 1_554 S
C1242 H1215 0.950 . S
C1242 C1228 1.377 1_565 S
C1242 C1241 1.373 . S
C1243 C1227 1.377 1_565 S
C1243 C1241 1.389 1_556 S
C1243 C1244 1.524 . S
C1244 C1243 1.524 . S
C1244 C1245 1.397 1_556 S
C1244 C1249 1.363 . S
C1245 H1216 0.950 . S
C1245 C1244 1.397 1_554 S
C1245 C1246 1.334 . S
C1246 H1217 0.950 . S
C1246 C1245 1.334 . S
C1246 C1247 1.287 1_554 S
C1247 C1246 1.287 1_556 S
C1247 C1248 1.524 . S
C1247 H1250 0.999 . S
C1248 H1218 0.950 . S
C1248 C1247 1.524 . S
C1248 C1249 1.415 . S
C1249 H1219 0.950 . S
C1249 C1244 1.363 . S
C1249 C1248 1.415 . S
H1250 C1247 0.999 . S
H1251 C1232 0.913 . S
H1252 C1270 0.951 . S
H1253 C1272 0.951 . S
H1254 C1274 0.950 . S
H1255 C1275 0.950 . S
H1256 C1277 0.950 . S
H1257 C1280 0.950 . S
H1258 C1281 0.950 . S
H1259 C1283 0.950 . S
H1260 C1284 0.950 . S
H1261 C1285 0.951 . S
H1262 C1287 0.951 . S
H1263 C1289 0.950 . S
H1264 C1290 0.950 . S
H1265 C1292 0.950 . S
H1266 C1295 0.950 . S
H1267 C1296 0.950 . S
H1268 C1298 0.950 . S
H1269 C1299 0.950 . S
C1270 H1252 0.951 . S
C1270 C1271 1.366 . S
C1270 C1272 1.388 . S
C1271 C1270 1.366 . S
C1271 C1275 1.385 . S
C1272 H1253 0.951 . S
C1272 C1270 1.388 . S
C1272 C1273 1.366 . S
C1273 C1272 1.366 . S
C1273 C1274 1.414 . S
C1273 C1276 1.499 . S
C1274 H1254 0.950 . S
C1274 C1273 1.414 . S
C1274 C1275 1.374 . S
C1275 H1255 0.950 . S
C1275 C1271 1.385 . S
C1275 C1274 1.374 . S
C1276 C1273 1.499 . S
C1276 C1277 1.373 1_556 S
C1276 C1278 1.389 . S
C1277 H1256 0.950 . S
C1277 C1276 1.373 1_554 S
C1277 C1293 1.377 1_655 S
C1278 C1276 1.389 . S
C1278 C1279 1.524 . S
C1278 C1292 1.377 1_655 S
C1279 C1278 1.524 . S
C1279 C1280 1.397 . S
C1279 C1284 1.363 . S
C1280 H1257 0.950 . S
C1280 C1279 1.397 . S
C1280 C1281 1.334 . S
C1281 H1258 0.950 . S
C1281 C1280 1.334 . S
C1281 C1282 1.287 . S
C1282 C1281 1.287 . S
C1282 C1283 1.524 . S
C1282 H1301 0.913 . S
C1283 H1259 0.950 . S
C1283 C1282 1.524 . S
C1283 C1284 1.415 . S
C1284 H1260 0.950 . S
C1284 C1279 1.363 . S
C1284 C1283 1.415 . S
C1285 H1261 0.951 . S
C1285 C1286 1.366 . S
C1285 C1287 1.388 . S
C1286 C1285 1.366 . S
C1286 C1290 1.385 . S
C1287 H1262 0.951 . S
C1287 C1285 1.388 . S
C1287 C1288 1.366 . S
C1288 C1287 1.366 . S
C1288 C1289 1.414 . S
C1288 C1291 1.499 . S
C1289 H1263 0.950 . S
C1289 C1288 1.414 . S
C1289 C1290 1.374 . S
C1290 H1264 0.950 . S
C1290 C1286 1.385 . S
C1290 C1289 1.374 . S
C1291 C1288 1.499 . S
C1291 C1292 1.373 1_554 S
C1291 C1293 1.389 . S
C1292 H1265 0.950 . S
C1292 C1278 1.377 1_455 S
C1292 C1291 1.373 1_556 S
C1293 C1277 1.377 1_455 S
C1293 C1291 1.389 . S
C1293 C1294 1.524 . S
C1294 C1293 1.524 . S
C1294 C1295 1.397 . S
C1294 C1299 1.363 . S
C1295 H1266 0.950 . S
C1295 C1294 1.397 . S
C1295 C1296 1.334 . S
C1296 H1267 0.950 . S
C1296 C1295 1.334 . S
C1296 C1297 1.287 . S
C1297 C1296 1.287 . S
C1297 C1298 1.524 . S
C1297 H1300 0.999 . S
C1298 H1268 0.950 . S
C1298 C1297 1.524 . S
C1298 C1299 1.415 . S
C1299 H1269 0.950 . S
C1299 C1294 1.363 . S
C1299 C1298 1.415 . S
H1300 C1297 0.999 . S
H1301 C1282 0.913 . S
H1302 C1320 0.951 . S
H1303 C1322 0.951 . S
H1304 C1324 0.950 . S
H1305 C1325 0.950 1_554 S
H1306 C1327 0.950 . S
H1307 C1330 0.950 . S
H1308 C1331 0.950 . S
H1309 C1333 0.950 . S
H1310 C1334 0.950 . S
H1311 C1335 0.951 . S
H1312 C1337 0.951 . S
H1313 C1339 0.950 . S
H1314 C1340 0.950 1_556 S
H1315 C1342 0.950 . S
H1316 C1345 0.950 . S
H1317 C1346 0.950 . S
H1318 C1348 0.950 . S
H1319 C1349 0.950 . S
C1320 H1302 0.951 . S
C1320 C1321 1.366 . S
C1320 C1322 1.388 . S
C1321 C1320 1.366 . S
C1321 C1325 1.385 . S
C1322 H1303 0.951 . S
C1322 C1320 1.388 . S
C1322 C1323 1.366 . S
C1323 C1322 1.366 . S
C1323 C1324 1.414 1_556 S
C1323 C1326 1.499 . S
C1324 H1304 0.950 . S
C1324 C1323 1.414 1_554 S
C1324 C1325 1.374 1_554 S
C1325 H1305 0.950 1_556 S
C1325 C1321 1.385 . S
C1325 C1324 1.374 1_556 S
C1326 C1323 1.499 . S
C1326 C1327 1.373 1_556 S
C1326 C1328 1.389 . S
C1327 H1306 0.950 . S
C1327 C1326 1.373 1_554 S
C1327 C1343 1.377 . S
C1328 C1326 1.389 . S
C1328 C1329 1.524 . S
C1328 C1342 1.377 . S
C1329 C1328 1.524 . S
C1329 C1330 1.397 . S
C1329 C1334 1.363 . S
C1330 H1307 0.950 . S
C1330 C1329 1.397 . S
C1330 C1331 1.334 . S
C1331 H1308 0.950 . S
C1331 C1330 1.334 . S
C1331 C1332 1.287 . S
C1332 C1331 1.287 . S
C1332 C1333 1.524 . S
C1332 H1351 0.913 . S
C1333 H1309 0.950 . S
C1333 C1332 1.524 . S
C1333 C1334 1.415 . S
C1334 H1310 0.950 . S
C1334 C1329 1.363 . S
C1334 C1333 1.415 . S
C1335 H1311 0.951 . S
C1335 C1336 1.366 . S
C1335 C1337 1.388 . S
C1336 C1335 1.366 . S
C1336 C1340 1.385 . S
C1337 H1312 0.951 . S
C1337 C1335 1.388 . S
C1337 C1338 1.366 . S
C1338 C1337 1.366 . S
C1338 C1339 1.414 1_554 S
C1338 C1341 1.499 . S
C1339 H1313 0.950 . S
C1339 C1338 1.414 1_556 S
C1339 C1340 1.374 1_556 S
C1340 H1314 0.950 1_554 S
C1340 C1336 1.385 . S
C1340 C1339 1.374 1_554 S
C1341 C1338 1.499 . S
C1341 C1342 1.373 1_554 S
C1341 C1343 1.389 . S
C1342 H1315 0.950 . S
C1342 C1328 1.377 . S
C1342 C1341 1.373 1_556 S
C1343 C1327 1.377 . S
C1343 C1341 1.389 . S
C1343 C1344 1.524 . S
C1344 C1343 1.524 . S
C1344 C1345 1.397 . S
C1344 C1349 1.363 . S
C1345 H1316 0.950 . S
C1345 C1344 1.397 . S
C1345 C1346 1.334 . S
C1346 H1317 0.950 . S
C1346 C1345 1.334 . S
C1346 C1347 1.287 . S
C1347 C1346 1.287 . S
C1347 C1348 1.524 . S
C1347 H1350 0.999 . S
C1348 H1318 0.950 . S
C1348 C1347 1.524 . S
C1348 C1349 1.415 . S
C1349 H1319 0.950 . S
C1349 C1344 1.363 . S
C1349 C1348 1.415 . S
H1350 C1347 0.999 . S
H1351 C1332 0.913 . S
H1352 C1370 0.951 . S
H1353 C1372 0.951 . S
H1354 C1374 0.950 1_556 S
H1355 C1375 0.950 . S
H1356 C1377 0.950 . S
H1357 C1380 0.950 . S
H1358 C1381 0.950 . S
H1359 C1383 0.950 . S
H1360 C1384 0.950 1_545 S
H1361 C1385 0.951 . S
H1362 C1387 0.951 . S
H1363 C1389 0.950 1_554 S
H1364 C1390 0.950 . S
H1365 C1392 0.950 . S
H1366 C1395 0.950 . S
H1367 C1396 0.950 . S
H1368 C1398 0.950 . S
H1369 C1399 0.950 1_565 S
C1370 H1352 0.951 . S
C1370 C1371 1.366 . S
C1370 C1372 1.388 . S
C1371 C1370 1.366 . S
C1371 C1375 1.385 . S
C1372 H1353 0.951 . S
C1372 C1370 1.388 . S
C1372 C1373 1.366 . S
C1373 C1372 1.366 . S
C1373 C1374 1.414 . S
C1373 C1376 1.499 . S
C1374 H1354 0.950 1_554 S
C1374 C1373 1.414 . S
C1374 C1375 1.374 . S
C1375 H1355 0.950 . S
C1375 C1371 1.385 . S
C1375 C1374 1.374 . S
C1376 C1373 1.499 . S
C1376 C1377 1.373 1_554 S
C1376 C1378 1.389 . S
C1377 H1356 0.950 . S
C1377 C1376 1.373 1_556 S
C1377 C1393 1.377 1_565 S
C1378 C1376 1.389 . S
C1378 C1379 1.524 . S
C1378 C1392 1.377 1_565 S
C1379 C1378 1.524 . S
C1379 C1380 1.397 . S
C1379 C1384 1.363 . S
C1380 H1357 0.950 . S
C1380 C1379 1.397 . S
C1380 C1381 1.334 . S
C1381 H1358 0.950 . S
C1381 C1380 1.334 . S
C1381 C1382 1.287 . S
C1382 C1381 1.287 . S
C1382 C1383 1.524 . S
C1382 H1401 0.913 . S
C1383 H1359 0.950 . S
C1383 C1382 1.524 . S
C1383 C1384 1.415 . S
C1384 H1360 0.950 1_565 S
C1384 C1379 1.363 . S
C1384 C1383 1.415 . S
C1385 H1361 0.951 . S
C1385 C1386 1.366 . S
C1385 C1387 1.388 . S
C1386 C1385 1.366 . S
C1386 C1390 1.385 . S
C1387 H1362 0.951 . S
C1387 C1385 1.388 . S
C1387 C1388 1.366 . S
C1388 C1387 1.366 . S
C1388 C1389 1.414 . S
C1388 C1391 1.499 . S
C1389 H1363 0.950 1_556 S
C1389 C1388 1.414 . S
C1389 C1390 1.374 . S
C1390 H1364 0.950 . S
C1390 C1386 1.385 . S
C1390 C1389 1.374 . S
C1391 C1388 1.499 . S
C1391 C1392 1.373 1_556 S
C1391 C1393 1.389 . S
C1392 H1365 0.950 . S
C1392 C1378 1.377 1_545 S
C1392 C1391 1.373 1_554 S
C1393 C1377 1.377 1_545 S
C1393 C1391 1.389 . S
C1393 C1394 1.524 . S
C1394 C1393 1.524 . S
C1394 C1395 1.397 . S
C1394 C1399 1.363 . S
C1395 H1366 0.950 . S
C1395 C1394 1.397 . S
C1395 C1396 1.334 . S
C1396 H1367 0.950 . S
C1396 C1395 1.334 . S
C1396 C1397 1.287 . S
C1397 C1396 1.287 . S
C1397 C1398 1.524 . S
C1397 H1400 0.999 . S
C1398 H1368 0.950 . S
C1398 C1397 1.524 . S
C1398 C1399 1.415 . S
C1399 H1369 0.950 1_545 S
C1399 C1394 1.363 . S
C1399 C1398 1.415 . S
H1400 C1397 0.999 . S
H1401 C1382 0.913 . S
H1402 C1420 0.951 . S
H1403 C1422 0.951 . S
H1404 C1424 0.950 1_554 S
H1405 C1425 0.950 . S
H1406 C1427 0.950 . S
H1407 C1430 0.950 . S
H1408 C1431 0.950 . S
H1409 C1433 0.950 . S
H1410 C1434 0.950 1_455 S
H1411 C1435 0.951 . S
H1412 C1437 0.951 . S
H1413 C1439 0.950 1_556 S
H1414 C1440 0.950 . S
H1415 C1442 0.950 . S
H1416 C1445 0.950 . S
H1417 C1446 0.950 . S
H1418 C1448 0.950 . S
H1419 C1449 0.950 1_655 S
C1420 H1402 0.951 . S
C1420 C1421 1.366 . S
C1420 C1422 1.388 . S
C1421 C1420 1.366 . S
C1421 C1425 1.385 . S
C1422 H1403 0.951 . S
C1422 C1420 1.388 . S
C1422 C1423 1.366 . S
C1423 C1422 1.366 . S
C1423 C1424 1.414 . S
C1423 C1426 1.499 . S
C1424 H1404 0.950 1_556 S
C1424 C1423 1.414 . S
C1424 C1425 1.374 . S
C1425 H1405 0.950 . S
C1425 C1421 1.385 . S
C1425 C1424 1.374 . S
C1426 C1423 1.499 . S
C1426 C1427 1.373 1_556 S
C1426 C1428 1.389 . S
C1427 H1406 0.950 . S
C1427 C1426 1.373 1_554 S
C1427 C1443 1.377 1_655 S
C1428 C1426 1.389 . S
C1428 C1429 1.524 . S
C1428 C1442 1.377 1_655 S
C1429 C1428 1.524 . S
C1429 C1430 1.397 . S
C1429 C1434 1.363 . S
C1430 H1407 0.950 . S
C1430 C1429 1.397 . S
C1430 C1431 1.334 . S
C1431 H1408 0.950 . S
C1431 C1430 1.334 . S
C1431 C1432 1.287 . S
C1432 C1431 1.287 . S
C1432 C1433 1.524 . S
C1432 H1451 0.913 . S
C1433 H1409 0.950 . S
C1433 C1432 1.524 . S
C1433 C1434 1.415 . S
C1434 H1410 0.950 1_655 S
C1434 C1429 1.363 . S
C1434 C1433 1.415 . S
C1435 H1411 0.951 . S
C1435 C1436 1.366 . S
C1435 C1437 1.388 . S
C1436 C1435 1.366 . S
C1436 C1440 1.385 . S
C1437 H1412 0.951 . S
C1437 C1435 1.388 . S
C1437 C1438 1.366 . S
C1438 C1437 1.366 . S
C1438 C1439 1.414 . S
C1438 C1441 1.499 . S
C1439 H1413 0.950 1_554 S
C1439 C1438 1.414 . S
C1439 C1440 1.374 . S
C1440 H1414 0.950 . S
C1440 C1436 1.385 . S
C1440 C1439 1.374 . S
C1441 C1438 1.499 . S
C1441 C1442 1.373 1_554 S
C1441 C1443 1.389 . S
C1442 H1415 0.950 . S
C1442 C1428 1.377 1_455 S
C1442 C1441 1.373 1_556 S
C1443 C1427 1.377 1_455 S
C1443 C1441 1.389 . S
C1443 C1444 1.524 . S
C1444 C1443 1.524 . S
C1444 C1445 1.397 . S
C1444 C1449 1.363 . S
C1445 H1416 0.950 . S
C1445 C1444 1.397 . S
C1445 C1446 1.334 . S
C1446 H1417 0.950 . S
C1446 C1445 1.334 . S
C1446 C1447 1.287 . S
C1447 C1446 1.287 . S
C1447 C1448 1.524 . S
C1447 H1450 0.999 . S
C1448 H1418 0.950 . S
C1448 C1447 1.524 . S
C1448 C1449 1.415 . S
C1449 H1419 0.950 1_455 S
C1449 C1444 1.363 . S
C1449 C1448 1.415 . S
H1450 C1447 0.999 . S
H1451 C1432 0.913 . S
H1452 C1470 0.951 . S
H1453 C1472 0.951 . S
H1454 C1474 0.950 . S
H1455 C1475 0.950 . S
H1456 C1477 0.950 . S
H1457 C1480 0.950 . S
H1458 C1481 0.950 . S
H1459 C1483 0.950 . S
H1460 C1484 0.950 . S
H1461 C1485 0.951 . S
H1462 C1487 0.951 . S
H1463 C1489 0.950 . S
H1464 C1490 0.950 . S
H1465 C1492 0.950 . S
H1466 C1495 0.950 . S
H1467 C1496 0.950 . S
H1468 C1498 0.950 . S
H1469 C1499 0.950 . S
C1470 H1452 0.951 . S
C1470 C1471 1.366 . S
C1470 C1472 1.388 . S
C1471 C1470 1.366 . S
C1471 C1475 1.385 . S
C1472 H1453 0.951 . S
C1472 C1470 1.388 . S
C1472 C1473 1.366 . S
C1473 C1472 1.366 . S
C1473 C1474 1.414 . S
C1473 C1476 1.499 . S
C1474 H1454 0.950 . S
C1474 C1473 1.414 . S
C1474 C1475 1.374 . S
C1475 H1455 0.950 . S
C1475 C1471 1.385 . S
C1475 C1474 1.374 . S
C1476 C1473 1.499 . S
C1476 C1477 1.373 . S
C1476 C1478 1.389 . S
C1477 H1456 0.950 . S
C1477 C1476 1.373 . S
C1477 C1493 1.377 . S
C1478 C1476 1.389 . S
C1478 C1479 1.524 . S
C1478 C1492 1.377 . S
C1479 C1478 1.524 . S
C1479 C1480 1.397 . S
C1479 C1484 1.363 . S
C1480 H1457 0.950 . S
C1480 C1479 1.397 . S
C1480 C1481 1.334 . S
C1481 H1458 0.950 . S
C1481 C1480 1.334 . S
C1481 C1482 1.287 . S
C1482 C1481 1.287 . S
C1482 C1483 1.524 . S
C1482 H1501 0.913 . S
C1483 H1459 0.950 . S
C1483 C1482 1.524 . S
C1483 C1484 1.415 . S
C1484 H1460 0.950 . S
C1484 C1479 1.363 . S
C1484 C1483 1.415 . S
C1485 H1461 0.951 . S
C1485 C1486 1.366 . S
C1485 C1487 1.388 . S
C1486 C1485 1.366 . S
C1486 C1490 1.385 . S
C1487 H1462 0.951 . S
C1487 C1485 1.388 . S
C1487 C1488 1.366 . S
C1488 C1487 1.366 . S
C1488 C1489 1.414 . S
C1488 C1491 1.499 . S
C1489 H1463 0.950 . S
C1489 C1488 1.414 . S
C1489 C1490 1.374 . S
C1490 H1464 0.950 . S
C1490 C1486 1.385 . S
C1490 C1489 1.374 . S
C1491 C1488 1.499 . S
C1491 C1492 1.373 . S
C1491 C1493 1.389 . S
C1492 H1465 0.950 . S
C1492 C1478 1.377 . S
C1492 C1491 1.373 . S
C1493 C1477 1.377 . S
C1493 C1491 1.389 . S
C1493 C1494 1.524 . S
C1494 C1493 1.524 . S
C1494 C1495 1.397 . S
C1494 C1499 1.363 . S
C1495 H1466 0.950 . S
C1495 C1494 1.397 . S
C1495 C1496 1.334 . S
C1496 H1467 0.950 . S
C1496 C1495 1.334 . S
C1496 C1497 1.287 . S
C1497 C1496 1.287 . S
C1497 C1498 1.524 . S
C1497 H1500 0.999 . S
C1498 H1468 0.950 . S
C1498 C1497 1.524 . S
C1498 C1499 1.415 . S
C1499 H1469 0.950 . S
C1499 C1494 1.363 . S
C1499 C1498 1.415 . S
H1500 C1497 0.999 . S
H1501 C1482 0.913 . S
H1502 C1520 0.951 . S
H1503 C1522 0.951 . S
H1504 C1524 0.950 . S
H1505 C1525 0.950 . S
H1506 C1527 0.950 . S
H1507 C1530 0.950 . S
H1508 C1531 0.950 . S
H1509 C1533 0.950 . S
H1510 C1534 0.950 . S
H1511 C1535 0.951 . S
H1512 C1537 0.951 . S
H1513 C1539 0.950 . S
H1514 C1540 0.950 . S
H1515 C1542 0.950 . S
H1516 C1545 0.950 . S
H1517 C1546 0.950 . S
H1518 C1548 0.950 . S
H1519 C1549 0.950 . S
C1520 H1502 0.951 . S
C1520 C1521 1.366 . S
C1520 C1522 1.388 . S
C1521 C1520 1.366 . S
C1521 C1525 1.385 . S
C1522 H1503 0.951 . S
C1522 C1520 1.388 . S
C1522 C1523 1.366 . S
C1523 C1522 1.366 . S
C1523 C1524 1.414 . S
C1523 C1526 1.499 . S
C1524 H1504 0.950 . S
C1524 C1523 1.414 . S
C1524 C1525 1.374 . S
C1525 H1505 0.950 . S
C1525 C1521 1.385 . S
C1525 C1524 1.374 . S
C1526 C1523 1.499 . S
C1526 C1527 1.373 . S
C1526 C1528 1.389 . S
C1527 H1506 0.950 . S
C1527 C1526 1.373 . S
C1527 C1543 1.377 . S
C1528 C1526 1.389 . S
C1528 C1529 1.524 . S
C1528 C1542 1.377 . S
C1529 C1528 1.524 . S
C1529 C1530 1.397 . S
C1529 C1534 1.363 . S
C1530 H1507 0.950 . S
C1530 C1529 1.397 . S
C1530 C1531 1.334 . S
C1531 H1508 0.950 . S
C1531 C1530 1.334 . S
C1531 C1532 1.287 . S
C1532 C1531 1.287 . S
C1532 C1533 1.524 . S
C1532 H1551 0.913 . S
C1533 H1509 0.950 . S
C1533 C1532 1.524 . S
C1533 C1534 1.415 . S
C1534 H1510 0.950 . S
C1534 C1529 1.363 . S
C1534 C1533 1.415 . S
C1535 H1511 0.951 . S
C1535 C1536 1.366 . S
C1535 C1537 1.388 . S
C1536 C1535 1.366 . S
C1536 C1540 1.385 . S
C1537 H1512 0.951 . S
C1537 C1535 1.388 . S
C1537 C1538 1.366 . S
C1538 C1537 1.366 . S
C1538 C1539 1.414 . S
C1538 C1541 1.499 . S
C1539 H1513 0.950 . S
C1539 C1538 1.414 . S
C1539 C1540 1.374 . S
C1540 H1514 0.950 . S
C1540 C1536 1.385 . S
C1540 C1539 1.374 . S
C1541 C1538 1.499 . S
C1541 C1542 1.373 . S
C1541 C1543 1.389 . S
C1542 H1515 0.950 . S
C1542 C1528 1.377 . S
C1542 C1541 1.373 . S
C1543 C1527 1.377 . S
C1543 C1541 1.389 . S
C1543 C1544 1.524 . S
C1544 C1543 1.524 . S
C1544 C1545 1.397 . S
C1544 C1549 1.363 . S
C1545 H1516 0.950 . S
C1545 C1544 1.397 . S
C1545 C1546 1.334 . S
C1546 H1517 0.950 . S
C1546 C1545 1.334 . S
C1546 C1547 1.287 . S
C1547 C1546 1.287 . S
C1547 C1548 1.524 . S
C1547 H1550 0.999 . S
C1548 H1518 0.950 . S
C1548 C1547 1.524 . S
C1548 C1549 1.415 . S
C1549 H1519 0.950 . S
C1549 C1544 1.363 . S
C1549 C1548 1.415 . S
H1550 C1547 0.999 . S
H1551 C1532 0.913 . S
H1552 C1570 0.951 . S
H1553 C1572 0.951 . S
H1554 C1574 0.950 . S
H1555 C1575 0.950 . S
H1556 C1577 0.950 . S
H1557 C1580 0.950 . S
H1558 C1581 0.950 . S
H1559 C1583 0.950 . S
H1560 C1584 0.950 . S
H1561 C1585 0.951 . S
H1562 C1587 0.951 . S
H1563 C1589 0.950 . S
H1564 C1590 0.950 . S
H1565 C1592 0.950 . S
H1566 C1595 0.950 . S
H1567 C1596 0.950 . S
H1568 C1598 0.950 . S
H1569 C1599 0.950 . S
C1570 H1552 0.951 . S
C1570 C1571 1.366 . S
C1570 C1572 1.388 . S
C1571 C1570 1.366 . S
C1571 C1575 1.385 . S
C1572 H1553 0.951 . S
C1572 C1570 1.388 . S
C1572 C1573 1.366 . S
C1573 C1572 1.366 . S
C1573 C1574 1.414 . S
C1573 C1576 1.499 . S
C1574 H1554 0.950 . S
C1574 C1573 1.414 . S
C1574 C1575 1.374 . S
C1575 H1555 0.950 . S
C1575 C1571 1.385 . S
C1575 C1574 1.374 . S
C1576 C1573 1.499 . S
C1576 C1577 1.373 . S
C1576 C1578 1.389 . S
C1577 H1556 0.950 . S
C1577 C1576 1.373 . S
C1577 C1593 1.377 . S
C1578 C1576 1.389 . S
C1578 C1579 1.524 . S
C1578 C1592 1.377 . S
C1579 C1578 1.524 . S
C1579 C1580 1.397 . S
C1579 C1584 1.363 . S
C1580 H1557 0.950 . S
C1580 C1579 1.397 . S
C1580 C1581 1.334 . S
C1581 H1558 0.950 . S
C1581 C1580 1.334 . S
C1581 C1582 1.287 . S
C1582 C1581 1.287 . S
C1582 C1583 1.524 . S
C1582 H1601 0.913 . S
C1583 H1559 0.950 . S
C1583 C1582 1.524 . S
C1583 C1584 1.415 . S
C1584 H1560 0.950 . S
C1584 C1579 1.363 . S
C1584 C1583 1.415 . S
C1585 H1561 0.951 . S
C1585 C1586 1.366 . S
C1585 C1587 1.388 . S
C1586 C1585 1.366 . S
C1586 C1590 1.385 . S
C1587 H1562 0.951 . S
C1587 C1585 1.388 . S
C1587 C1588 1.366 . S
C1588 C1587 1.366 . S
C1588 C1589 1.414 . S
C1588 C1591 1.499 . S
C1589 H1563 0.950 . S
C1589 C1588 1.414 . S
C1589 C1590 1.374 . S
C1590 H1564 0.950 . S
C1590 C1586 1.385 . S
C1590 C1589 1.374 . S
C1591 C1588 1.499 . S
C1591 C1592 1.373 . S
C1591 C1593 1.389 . S
C1592 H1565 0.950 . S
C1592 C1578 1.377 . S
C1592 C1591 1.373 . S
C1593 C1577 1.377 . S
C1593 C1591 1.389 . S
C1593 C1594 1.524 . S
C1594 C1593 1.524 . S
C1594 C1595 1.397 . S
C1594 C1599 1.363 . S
C1595 H1566 0.950 . S
C1595 C1594 1.397 . S
C1595 C1596 1.334 . S
C1596 H1567 0.950 . S
C1596 C1595 1.334 . S
C1596 C1597 1.287 . S
C1597 C1596 1.287 . S
C1597 C1598 1.524 . S
C1597 H1600 0.999 . S
C1598 H1568 0.950 . S
C1598 C1597 1.524 . S
C1598 C1599 1.415 . S
C1599 H1569 0.950 . S
C1599 C1594 1.363 . S
C1599 C1598 1.415 . S
H1600 C1597 0.999 . S
H1601 C1582 0.913 . S
H1602 C1620 0.951 . S
H1603 C1622 0.951 . S
H1604 C1624 0.950 . S
H1605 C1625 0.950 . S
H1606 C1627 0.950 . S
H1607 C1630 0.950 . S
H1608 C1631 0.950 . S
H1609 C1633 0.950 . S
H1610 C1634 0.950 . S
H1611 C1635 0.951 . S
H1612 C1637 0.951 . S
H1613 C1639 0.950 . S
H1614 C1640 0.950 . S
H1615 C1642 0.950 . S
H1616 C1645 0.950 . S
H1617 C1646 0.950 . S
H1618 C1648 0.950 . S
H1619 C1649 0.950 . S
C1620 H1602 0.951 . S
C1620 C1621 1.366 . S
C1620 C1622 1.388 . S
C1621 C1620 1.366 . S
C1621 C1625 1.385 . S
C1622 H1603 0.951 . S
C1622 C1620 1.388 . S
C1622 C1623 1.366 . S
C1623 C1622 1.366 . S
C1623 C1624 1.414 . S
C1623 C1626 1.499 . S
C1624 H1604 0.950 . S
C1624 C1623 1.414 . S
C1624 C1625 1.374 . S
C1625 H1605 0.950 . S
C1625 C1621 1.385 . S
C1625 C1624 1.374 . S
C1626 C1623 1.499 . S
C1626 C1627 1.373 . S
C1626 C1628 1.389 . S
C1627 H1606 0.950 . S
C1627 C1626 1.373 . S
C1627 C1643 1.377 . S
C1628 C1626 1.389 . S
C1628 C1629 1.524 . S
C1628 C1642 1.377 . S
C1629 C1628 1.524 . S
C1629 C1630 1.397 . S
C1629 C1634 1.363 . S
C1630 H1607 0.950 . S
C1630 C1629 1.397 . S
C1630 C1631 1.334 . S
C1631 H1608 0.950 . S
C1631 C1630 1.334 . S
C1631 C1632 1.287 . S
C1632 C1631 1.287 . S
C1632 C1633 1.524 . S
C1632 H1651 0.913 . S
C1633 H1609 0.950 . S
C1633 C1632 1.524 . S
C1633 C1634 1.415 . S
C1634 H1610 0.950 . S
C1634 C1629 1.363 . S
C1634 C1633 1.415 . S
C1635 H1611 0.951 . S
C1635 C1636 1.366 . S
C1635 C1637 1.388 . S
C1636 C1635 1.366 . S
C1636 C1640 1.385 . S
C1637 H1612 0.951 . S
C1637 C1635 1.388 . S
C1637 C1638 1.366 . S
C1638 C1637 1.366 . S
C1638 C1639 1.414 . S
C1638 C1641 1.499 . S
C1639 H1613 0.950 . S
C1639 C1638 1.414 . S
C1639 C1640 1.374 . S
C1640 H1614 0.950 . S
C1640 C1636 1.385 . S
C1640 C1639 1.374 . S
C1641 C1638 1.499 . S
C1641 C1642 1.373 . S
C1641 C1643 1.389 . S
C1642 H1615 0.950 . S
C1642 C1628 1.377 . S
C1642 C1641 1.373 . S
C1643 C1627 1.377 . S
C1643 C1641 1.389 . S
C1643 C1644 1.524 . S
C1644 C1643 1.524 . S
C1644 C1645 1.397 . S
C1644 C1649 1.363 . S
C1645 H1616 0.950 . S
C1645 C1644 1.397 . S
C1645 C1646 1.334 . S
C1646 H1617 0.950 . S
C1646 C1645 1.334 . S
C1646 C1647 1.287 . S
C1647 C1646 1.287 . S
C1647 C1648 1.524 . S
C1647 H1650 0.999 . S
C1648 H1618 0.950 . S
C1648 C1647 1.524 . S
C1648 C1649 1.415 . S
C1649 H1619 0.950 . S
C1649 C1644 1.363 . S
C1649 C1648 1.415 . S
H1650 C1647 0.999 . S
H1651 C1632 0.913 . S
H1652 C1670 0.951 . S
H1653 C1672 0.951 . S
H1654 C1674 0.950 . S
H1655 C1675 0.950 . S
H1656 C1677 0.950 . S
H1657 C1680 0.950 . S
H1658 C1681 0.950 . S
H1659 C1683 0.950 . S
H1660 C1684 0.950 . S
H1661 C1685 0.951 . S
H1662 C1687 0.951 . S
H1663 C1689 0.950 . S
H1664 C1690 0.950 . S
H1665 C1692 0.950 . S
H1666 C1695 0.950 . S
H1667 C1696 0.950 . S
H1668 C1698 0.950 . S
H1669 C1699 0.950 . S
C1670 H1652 0.951 . S
C1670 C1671 1.366 . S
C1670 C1672 1.388 . S
C1671 C1670 1.366 . S
C1671 C1675 1.385 . S
C1672 H1653 0.951 . S
C1672 C1670 1.388 . S
C1672 C1673 1.366 . S
C1673 C1672 1.366 . S
C1673 C1674 1.414 . S
C1673 C1676 1.499 . S
C1674 H1654 0.950 . S
C1674 C1673 1.414 . S
C1674 C1675 1.374 . S
C1675 H1655 0.950 . S
C1675 C1671 1.385 . S
C1675 C1674 1.374 . S
C1676 C1673 1.499 . S
C1676 C1677 1.373 . S
C1676 C1678 1.389 . S
C1677 H1656 0.950 . S
C1677 C1676 1.373 . S
C1677 C1693 1.377 . S
C1678 C1676 1.389 . S
C1678 C1679 1.524 . S
C1678 C1692 1.377 . S
C1679 C1678 1.524 . S
C1679 C1680 1.397 . S
C1679 C1684 1.363 . S
C1680 H1657 0.950 . S
C1680 C1679 1.397 . S
C1680 C1681 1.334 . S
C1681 H1658 0.950 . S
C1681 C1680 1.334 . S
C1681 C1682 1.287 . S
C1682 C1681 1.287 . S
C1682 C1683 1.524 . S
C1682 H1701 0.913 . S
C1683 H1659 0.950 . S
C1683 C1682 1.524 . S
C1683 C1684 1.415 . S
C1684 H1660 0.950 . S
C1684 C1679 1.363 . S
C1684 C1683 1.415 . S
C1685 H1661 0.951 . S
C1685 C1686 1.366 . S
C1685 C1687 1.388 . S
C1686 C1685 1.366 . S
C1686 C1690 1.385 . S
C1687 H1662 0.951 . S
C1687 C1685 1.388 . S
C1687 C1688 1.366 . S
C1688 C1687 1.366 . S
C1688 C1689 1.414 . S
C1688 C1691 1.499 . S
C1689 H1663 0.950 . S
C1689 C1688 1.414 . S
C1689 C1690 1.374 . S
C1690 H1664 0.950 . S
C1690 C1686 1.385 . S
C1690 C1689 1.374 . S
C1691 C1688 1.499 . S
C1691 C1692 1.373 . S
C1691 C1693 1.389 . S
C1692 H1665 0.950 . S
C1692 C1678 1.377 . S
C1692 C1691 1.373 . S
C1693 C1677 1.377 . S
C1693 C1691 1.389 . S
C1693 C1694 1.524 . S
C1694 C1693 1.524 . S
C1694 C1695 1.397 . S
C1694 C1699 1.363 . S
C1695 H1666 0.950 . S
C1695 C1694 1.397 . S
C1695 C1696 1.334 . S
C1696 H1667 0.950 . S
C1696 C1695 1.334 . S
C1696 C1697 1.287 . S
C1697 C1696 1.287 . S
C1697 C1698 1.524 . S
C1697 H1700 0.999 . S
C1698 H1668 0.950 . S
C1698 C1697 1.524 . S
C1698 C1699 1.415 . S
C1699 H1669 0.950 . S
C1699 C1694 1.363 . S
C1699 C1698 1.415 . S
H1700 C1697 0.999 . S
H1701 C1682 0.913 . S
H1702 C1720 0.951 . S
H1703 C1722 0.951 . S
H1704 C1724 0.950 . S
H1705 C1725 0.950 . S
H1706 C1727 0.950 . S
H1707 C1730 0.950 . S
H1708 C1731 0.950 . S
H1709 C1733 0.950 . S
H1710 C1734 0.950 . S
H1711 C1735 0.951 . S
H1712 C1737 0.951 . S
H1713 C1739 0.950 . S
H1714 C1740 0.950 . S
H1715 C1742 0.950 . S
H1716 C1745 0.950 . S
H1717 C1746 0.950 . S
H1718 C1748 0.950 . S
H1719 C1749 0.950 . S
C1720 H1702 0.951 . S
C1720 C1721 1.366 . S
C1720 C1722 1.388 . S
C1721 C1720 1.366 . S
C1721 C1725 1.385 . S
C1722 H1703 0.951 . S
C1722 C1720 1.388 . S
C1722 C1723 1.366 . S
C1723 C1722 1.366 . S
C1723 C1724 1.414 . S
C1723 C1726 1.499 . S
C1724 H1704 0.950 . S
C1724 C1723 1.414 . S
C1724 C1725 1.374 . S
C1725 H1705 0.950 . S
C1725 C1721 1.385 . S
C1725 C1724 1.374 . S
C1726 C1723 1.499 . S
C1726 C1727 1.373 . S
C1726 C1728 1.389 . S
C1727 H1706 0.950 . S
C1727 C1726 1.373 . S
C1727 C1743 1.377 . S
C1728 C1726 1.389 . S
C1728 C1729 1.524 . S
C1728 C1742 1.377 . S
C1729 C1728 1.524 . S
C1729 C1730 1.397 . S
C1729 C1734 1.363 . S
C1730 H1707 0.950 . S
C1730 C1729 1.397 . S
C1730 C1731 1.334 . S
C1731 H1708 0.950 . S
C1731 C1730 1.334 . S
C1731 C1732 1.287 . S
C1732 C1731 1.287 . S
C1732 C1733 1.524 . S
C1732 H1751 0.913 . S
C1733 H1709 0.950 . S
C1733 C1732 1.524 . S
C1733 C1734 1.415 . S
C1734 H1710 0.950 . S
C1734 C1729 1.363 . S
C1734 C1733 1.415 . S
C1735 H1711 0.951 . S
C1735 C1736 1.366 . S
C1735 C1737 1.388 . S
C1736 C1735 1.366 . S
C1736 C1740 1.385 . S
C1737 H1712 0.951 . S
C1737 C1735 1.388 . S
C1737 C1738 1.366 . S
C1738 C1737 1.366 . S
C1738 C1739 1.414 . S
C1738 C1741 1.499 . S
C1739 H1713 0.950 . S
C1739 C1738 1.414 . S
C1739 C1740 1.374 . S
C1740 H1714 0.950 . S
C1740 C1736 1.385 . S
C1740 C1739 1.374 . S
C1741 C1738 1.499 . S
C1741 C1742 1.373 . S
C1741 C1743 1.389 . S
C1742 H1715 0.950 . S
C1742 C1728 1.377 . S
C1742 C1741 1.373 . S
C1743 C1727 1.377 . S
C1743 C1741 1.389 . S
C1743 C1744 1.524 . S
C1744 C1743 1.524 . S
C1744 C1745 1.397 . S
C1744 C1749 1.363 . S
C1745 H1716 0.950 . S
C1745 C1744 1.397 . S
C1745 C1746 1.334 . S
C1746 H1717 0.950 . S
C1746 C1745 1.334 . S
C1746 C1747 1.287 . S
C1747 C1746 1.287 . S
C1747 C1748 1.524 . S
C1747 H1750 0.999 . S
C1748 H1718 0.950 . S
C1748 C1747 1.524 . S
C1748 C1749 1.415 . S
C1749 H1719 0.950 . S
C1749 C1744 1.363 . S
C1749 C1748 1.415 . S
H1750 C1747 0.999 . S
H1751 C1732 0.913 . S
H1752 C1770 0.951 . S
H1753 C1772 0.951 . S
H1754 C1774 0.950 . S
H1755 C1775 0.950 . S
H1756 C1777 0.950 . S
H1757 C1780 0.950 . S
H1758 C1781 0.950 . S
H1759 C1783 0.950 . S
H1760 C1784 0.950 . S
H1761 C1785 0.951 . S
H1762 C1787 0.951 . S
H1763 C1789 0.950 . S
H1764 C1790 0.950 . S
H1765 C1792 0.950 . S
H1766 C1795 0.950 . S
H1767 C1796 0.950 . S
H1768 C1798 0.950 . S
H1769 C1799 0.950 . S
C1770 H1752 0.951 . S
C1770 C1771 1.366 . S
C1770 C1772 1.388 . S
C1771 C1770 1.366 . S
C1771 C1775 1.385 . S
C1772 H1753 0.951 . S
C1772 C1770 1.388 . S
C1772 C1773 1.366 . S
C1773 C1772 1.366 . S
C1773 C1774 1.414 . S
C1773 C1776 1.499 . S
C1774 H1754 0.950 . S
C1774 C1773 1.414 . S
C1774 C1775 1.374 . S
C1775 H1755 0.950 . S
C1775 C1771 1.385 . S
C1775 C1774 1.374 . S
C1776 C1773 1.499 . S
C1776 C1777 1.373 . S
C1776 C1778 1.389 . S
C1777 H1756 0.950 . S
C1777 C1776 1.373 . S
C1777 C1793 1.377 . S
C1778 C1776 1.389 . S
C1778 C1779 1.524 . S
C1778 C1792 1.377 . S
C1779 C1778 1.524 . S
C1779 C1780 1.397 . S
C1779 C1784 1.363 . S
C1780 H1757 0.950 . S
C1780 C1779 1.397 . S
C1780 C1781 1.334 . S
C1781 H1758 0.950 . S
C1781 C1780 1.334 . S
C1781 C1782 1.287 . S
C1782 C1781 1.287 . S
C1782 C1783 1.524 . S
C1782 H1801 0.913 . S
C1783 H1759 0.950 . S
C1783 C1782 1.524 . S
C1783 C1784 1.415 . S
C1784 H1760 0.950 . S
C1784 C1779 1.363 . S
C1784 C1783 1.415 . S
C1785 H1761 0.951 . S
C1785 C1786 1.366 . S
C1785 C1787 1.388 . S
C1786 C1785 1.366 . S
C1786 C1790 1.385 . S
C1787 H1762 0.951 . S
C1787 C1785 1.388 . S
C1787 C1788 1.366 . S
C1788 C1787 1.366 . S
C1788 C1789 1.414 . S
C1788 C1791 1.499 . S
C1789 H1763 0.950 . S
C1789 C1788 1.414 . S
C1789 C1790 1.374 . S
C1790 H1764 0.950 . S
C1790 C1786 1.385 . S
C1790 C1789 1.374 . S
C1791 C1788 1.499 . S
C1791 C1792 1.373 . S
C1791 C1793 1.389 . S
C1792 H1765 0.950 . S
C1792 C1778 1.377 . S
C1792 C1791 1.373 . S
C1793 C1777 1.377 . S
C1793 C1791 1.389 . S
C1793 C1794 1.524 . S
C1794 C1793 1.524 . S
C1794 C1795 1.397 . S
C1794 C1799 1.363 . S
C1795 H1766 0.950 . S
C1795 C1794 1.397 . S
C1795 C1796 1.334 . S
C1796 H1767 0.950 . S
C1796 C1795 1.334 . S
C1796 C1797 1.287 . S
C1797 C1796 1.287 . S
C1797 C1798 1.524 . S
C1797 H1800 0.999 . S
C1798 H1768 0.950 . S
C1798 C1797 1.524 . S
C1798 C1799 1.415 . S
C1799 H1769 0.950 . S
C1799 C1794 1.363 . S
C1799 C1798 1.415 . S
H1800 C1797 0.999 . S
H1801 C1782 0.913 . S
H1802 C1820 0.951 . S
H1803 C1822 0.951 . S
H1804 C1824 0.950 . S
H1805 C1825 0.950 . S
H1806 C1827 0.950 . S
H1807 C1830 0.950 . S
H1808 C1831 0.950 . S
H1809 C1833 0.950 . S
H1810 C1834 0.950 . S
H1811 C1835 0.951 . S
H1812 C1837 0.951 . S
H1813 C1839 0.950 . S
H1814 C1840 0.950 . S
H1815 C1842 0.950 . S
H1816 C1845 0.950 . S
H1817 C1846 0.950 . S
H1818 C1848 0.950 . S
H1819 C1849 0.950 . S
C1820 H1802 0.951 . S
C1820 C1821 1.366 . S
C1820 C1822 1.388 . S
C1821 C1820 1.366 . S
C1821 C1825 1.385 . S
C1822 H1803 0.951 . S
C1822 C1820 1.388 . S
C1822 C1823 1.366 . S
C1823 C1822 1.366 . S
C1823 C1824 1.414 . S
C1823 C1826 1.499 . S
C1824 H1804 0.950 . S
C1824 C1823 1.414 . S
C1824 C1825 1.374 . S
C1825 H1805 0.950 . S
C1825 C1821 1.385 . S
C1825 C1824 1.374 . S
C1826 C1823 1.499 . S
C1826 C1827 1.373 . S
C1826 C1828 1.389 . S
C1827 H1806 0.950 . S
C1827 C1826 1.373 . S
C1827 C1843 1.377 . S
C1828 C1826 1.389 . S
C1828 C1829 1.524 . S
C1828 C1842 1.377 . S
C1829 C1828 1.524 . S
C1829 C1830 1.397 . S
C1829 C1834 1.363 . S
C1830 H1807 0.950 . S
C1830 C1829 1.397 . S
C1830 C1831 1.334 . S
C1831 H1808 0.950 . S
C1831 C1830 1.334 . S
C1831 C1832 1.287 . S
C1832 C1831 1.287 . S
C1832 C1833 1.524 . S
C1832 H1851 0.913 . S
C1833 H1809 0.950 . S
C1833 C1832 1.524 . S
C1833 C1834 1.415 . S
C1834 H1810 0.950 . S
C1834 C1829 1.363 . S
C1834 C1833 1.415 . S
C1835 H1811 0.951 . S
C1835 C1836 1.366 . S
C1835 C1837 1.388 . S
C1836 C1835 1.366 . S
C1836 C1840 1.385 . S
C1837 H1812 0.951 . S
C1837 C1835 1.388 . S
C1837 C1838 1.366 . S
C1838 C1837 1.366 . S
C1838 C1839 1.414 . S
C1838 C1841 1.499 . S
C1839 H1813 0.950 . S
C1839 C1838 1.414 . S
C1839 C1840 1.374 . S
C1840 H1814 0.950 . S
C1840 C1836 1.385 . S
C1840 C1839 1.374 . S
C1841 C1838 1.499 . S
C1841 C1842 1.373 . S
C1841 C1843 1.389 . S
C1842 H1815 0.950 . S
C1842 C1828 1.377 . S
C1842 C1841 1.373 . S
C1843 C1827 1.377 . S
C1843 C1841 1.389 . S
C1843 C1844 1.524 . S
C1844 C1843 1.524 . S
C1844 C1845 1.397 . S
C1844 C1849 1.363 . S
C1845 H1816 0.950 . S
C1845 C1844 1.397 . S
C1845 C1846 1.334 . S
C1846 H1817 0.950 . S
C1846 C1845 1.334 . S
C1846 C1847 1.287 . S
C1847 C1846 1.287 . S
C1847 C1848 1.524 . S
C1847 H1850 0.999 . S
C1848 H1818 0.950 . S
C1848 C1847 1.524 . S
C1848 C1849 1.415 . S
C1849 H1819 0.950 . S
C1849 C1844 1.363 . S
C1849 C1848 1.415 . S
H1850 C1847 0.999 . S
H1851 C1832 0.913 . S
H1852 C1870 0.951 . S
H1853 C1872 0.951 . S
H1854 C1874 0.950 . S
H1855 C1875 0.950 . S
H1856 C1877 0.950 . S
H1857 C1880 0.950 . S
H1858 C1881 0.950 . S
H1859 C1883 0.950 . S
H1860 C1884 0.950 . S
H1861 C1885 0.951 . S
H1862 C1887 0.951 . S
H1863 C1889 0.950 . S
H1864 C1890 0.950 . S
H1865 C1892 0.950 . S
H1866 C1895 0.950 . S
H1867 C1896 0.950 . S
H1868 C1898 0.950 . S
H1869 C1899 0.950 . S
C1870 H1852 0.951 . S
C1870 C1871 1.366 . S
C1870 C1872 1.388 . S
C1871 C1870 1.366 . S
C1871 C1875 1.385 . S
C1872 H1853 0.951 . S
C1872 C1870 1.388 . S
C1872 C1873 1.366 . S
C1873 C1872 1.366 . S
C1873 C1874 1.414 . S
C1873 C1876 1.499 . S
C1874 H1854 0.950 . S
C1874 C1873 1.414 . S
C1874 C1875 1.374 . S
C1875 H1855 0.950 . S
C1875 C1871 1.385 . S
C1875 C1874 1.374 . S
C1876 C1873 1.499 . S
C1876 C1877 1.373 . S
C1876 C1878 1.389 . S
C1877 H1856 0.950 . S
C1877 C1876 1.373 . S
C1877 C1893 1.377 . S
C1878 C1876 1.389 . S
C1878 C1879 1.524 . S
C1878 C1892 1.377 . S
C1879 C1878 1.524 . S
C1879 C1880 1.397 . S
C1879 C1884 1.363 . S
C1880 H1857 0.950 . S
C1880 C1879 1.397 . S
C1880 C1881 1.334 . S
C1881 H1858 0.950 . S
C1881 C1880 1.334 . S
C1881 C1882 1.287 . S
C1882 C1881 1.287 . S
C1882 C1883 1.524 . S
C1882 H1901 0.913 . S
C1883 H1859 0.950 . S
C1883 C1882 1.524 . S
C1883 C1884 1.415 . S
C1884 H1860 0.950 . S
C1884 C1879 1.363 . S
C1884 C1883 1.415 . S
C1885 H1861 0.951 . S
C1885 C1886 1.366 . S
C1885 C1887 1.388 . S
C1886 C1885 1.366 . S
C1886 C1890 1.385 . S
C1887 H1862 0.951 . S
C1887 C1885 1.388 . S
C1887 C1888 1.366 . S
C1888 C1887 1.366 . S
C1888 C1889 1.414 . S
C1888 C1891 1.499 . S
C1889 H1863 0.950 . S
C1889 C1888 1.414 . S
C1889 C1890 1.374 . S
C1890 H1864 0.950 . S
C1890 C1886 1.385 . S
C1890 C1889 1.374 . S
C1891 C1888 1.499 . S
C1891 C1892 1.373 . S
C1891 C1893 1.389 . S
C1892 H1865 0.950 . S
C1892 C1878 1.377 . S
C1892 C1891 1.373 . S
C1893 C1877 1.377 . S
C1893 C1891 1.389 . S
C1893 C1894 1.524 . S
C1894 C1893 1.524 . S
C1894 C1895 1.397 . S
C1894 C1899 1.363 . S
C1895 H1866 0.950 . S
C1895 C1894 1.397 . S
C1895 C1896 1.334 . S
C1896 H1867 0.950 . S
C1896 C1895 1.334 . S
C1896 C1897 1.287 . S
C1897 C1896 1.287 . S
C1897 C1898 1.524 . S
C1897 H1900 0.999 . S
C1898 H1868 0.950 . S
C1898 C1897 1.524 . S
C1898 C1899 1.415 . S
C1899 H1869 0.950 . S
C1899 C1894 1.363 . S
C1899 C1898 1.415 . S
H1900 C1897 0.999 . S
H1901 C1882 0.913 . S
H1902 C1920 0.951 . S
H1903 C1922 0.951 . S
H1904 C1924 0.950 . S
H1905 C1925 0.950 . S
H1906 C1927 0.950 . S
H1907 C1930 0.950 . S
H1908 C1931 0.950 . S
H1909 C1933 0.950 . S
H1910 C1934 0.950 . S
H1911 C1935 0.951 . S
H1912 C1937 0.951 . S
H1913 C1939 0.950 . S
H1914 C1940 0.950 . S
H1915 C1942 0.950 . S
H1916 C1945 0.950 . S
H1917 C1946 0.950 . S
H1918 C1948 0.950 . S
H1919 C1949 0.950 . S
C1920 H1902 0.951 . S
C1920 C1921 1.366 . S
C1920 C1922 1.388 . S
C1921 C1920 1.366 . S
C1921 C1925 1.385 . S
C1922 H1903 0.951 . S
C1922 C1920 1.388 . S
C1922 C1923 1.366 . S
C1923 C1922 1.366 . S
C1923 C1924 1.414 . S
C1923 C1926 1.499 . S
C1924 H1904 0.950 . S
C1924 C1923 1.414 . S
C1924 C1925 1.374 . S
C1925 H1905 0.950 . S
C1925 C1921 1.385 . S
C1925 C1924 1.374 . S
C1926 C1923 1.499 . S
C1926 C1927 1.373 . S
C1926 C1928 1.389 . S
C1927 H1906 0.950 . S
C1927 C1926 1.373 . S
C1927 C1943 1.377 . S
C1928 C1926 1.389 . S
C1928 C1929 1.524 . S
C1928 C1942 1.377 . S
C1929 C1928 1.524 . S
C1929 C1930 1.397 . S
C1929 C1934 1.363 . S
C1930 H1907 0.950 . S
C1930 C1929 1.397 . S
C1930 C1931 1.334 . S
C1931 H1908 0.950 . S
C1931 C1930 1.334 . S
C1931 C1932 1.287 . S
C1932 C1931 1.287 . S
C1932 C1933 1.524 . S
C1932 H1951 0.913 . S
C1933 H1909 0.950 . S
C1933 C1932 1.524 . S
C1933 C1934 1.415 . S
C1934 H1910 0.950 . S
C1934 C1929 1.363 . S
C1934 C1933 1.415 . S
C1935 H1911 0.951 . S
C1935 C1936 1.366 . S
C1935 C1937 1.388 . S
C1936 C1935 1.366 . S
C1936 C1940 1.385 . S
C1937 H1912 0.951 . S
C1937 C1935 1.388 . S
C1937 C1938 1.366 . S
C1938 C1937 1.366 . S
C1938 C1939 1.414 . S
C1938 C1941 1.499 . S
C1939 H1913 0.950 . S
C1939 C1938 1.414 . S
C1939 C1940 1.374 . S
C1940 H1914 0.950 . S
C1940 C1936 1.385 . S
C1940 C1939 1.374 . S
C1941 C1938 1.499 . S
C1941 C1942 1.373 . S
C1941 C1943 1.389 . S
C1942 H1915 0.950 . S
C1942 C1928 1.377 . S
C1942 C1941 1.373 . S
C1943 C1927 1.377 . S
C1943 C1941 1.389 . S
C1943 C1944 1.524 . S
C1944 C1943 1.524 . S
C1944 C1945 1.397 . S
C1944 C1949 1.363 . S
C1945 H1916 0.950 . S
C1945 C1944 1.397 . S
C1945 C1946 1.334 . S
C1946 H1917 0.950 . S
C1946 C1945 1.334 . S
C1946 C1947 1.287 . S
C1947 C1946 1.287 . S
C1947 C1948 1.524 . S
C1947 H1950 0.999 . S
C1948 H1918 0.950 . S
C1948 C1947 1.524 . S
C1948 C1949 1.415 . S
C1949 H1919 0.950 . S
C1949 C1944 1.363 . S
C1949 C1948 1.415 . S
H1950 C1947 0.999 . S
H1951 C1932 0.913 . S
H1952 C1970 0.951 . S
H1953 C1972 0.951 . S
H1954 C1974 0.950 . S
H1955 C1975 0.950 . S
H1956 C1977 0.950 . S
H1957 C1980 0.950 . S
H1958 C1981 0.950 . S
H1959 C1983 0.950 . S
H1960 C1984 0.950 . S
H1961 C1985 0.951 . S
H1962 C1987 0.951 . S
H1963 C1989 0.950 . S
H1964 C1990 0.950 . S
H1965 C1992 0.950 . S
H1966 C1995 0.950 . S
H1967 C1996 0.950 . S
H1968 C1998 0.950 . S
H1969 C1999 0.950 . S
C1970 H1952 0.951 . S
C1970 C1971 1.366 . S
C1970 C1972 1.388 . S
C1971 C1970 1.366 . S
C1971 C1975 1.385 . S
C1972 H1953 0.951 . S
C1972 C1970 1.388 . S
C1972 C1973 1.366 . S
C1973 C1972 1.366 . S
C1973 C1974 1.414 . S
C1973 C1976 1.499 . S
C1974 H1954 0.950 . S
C1974 C1973 1.414 . S
C1974 C1975 1.374 . S
C1975 H1955 0.950 . S
C1975 C1971 1.385 . S
C1975 C1974 1.374 . S
C1976 C1973 1.499 . S
C1976 C1977 1.373 . S
C1976 C1978 1.389 . S
C1977 H1956 0.950 . S
C1977 C1976 1.373 . S
C1977 C1993 1.377 . S
C1978 C1976 1.389 . S
C1978 C1979 1.524 . S
C1978 C1992 1.377 . S
C1979 C1978 1.524 . S
C1979 C1980 1.397 . S
C1979 C1984 1.363 . S
C1980 H1957 0.950 . S
C1980 C1979 1.397 . S
C1980 C1981 1.334 . S
C1981 H1958 0.950 . S
C1981 C1980 1.334 . S
C1981 C1982 1.287 . S
C1982 C1981 1.287 . S
C1982 C1983 1.524 . S
C1982 H2001 0.913 . S
C1983 H1959 0.950 . S
C1983 C1982 1.524 . S
C1983 C1984 1.415 . S
C1984 H1960 0.950 . S
C1984 C1979 1.363 . S
C1984 C1983 1.415 . S
C1985 H1961 0.951 . S
C1985 C1986 1.366 . S
C1985 C1987 1.388 . S
C1986 C1985 1.366 . S
C1986 C1990 1.385 . S
C1987 H1962 0.951 . S
C1987 C1985 1.388 . S
C1987 C1988 1.366 . S
C1988 C1987 1.366 . S
C1988 C1989 1.414 . S
C1988 C1991 1.499 . S
C1989 H1963 0.950 . S
C1989 C1988 1.414 . S
C1989 C1990 1.374 . S
C1990 H1964 0.950 . S
C1990 C1986 1.385 . S
C1990 C1989 1.374 . S
C1991 C1988 1.499 . S
C1991 C1992 1.373 . S
C1991 C1993 1.389 . S
C1992 H1965 0.950 . S
C1992 C1978 1.377 . S
C1992 C1991 1.373 . S
C1993 C1977 1.377 . S
C1993 C1991 1.389 . S
C1993 C1994 1.524 . S
C1994 C1993 1.524 . S
C1994 C1995 1.397 . S
C1994 C1999 1.363 . S
C1995 H1966 0.950 . S
C1995 C1994 1.397 . S
C1995 C1996 1.334 . S
C1996 H1967 0.950 . S
C1996 C1995 1.334 . S
C1996 C1997 1.287 . S
C1997 C1996 1.287 . S
C1997 C1998 1.524 . S
C1997 H2000 0.999 . S
C1998 H1968 0.950 . S
C1998 C1997 1.524 . S
C1998 C1999 1.415 . S
C1999 H1969 0.950 . S
C1999 C1994 1.363 . S
C1999 C1998 1.415 . S
H2000 C1997 0.999 . S
H2001 C1982 0.913 . S
H2002 C2020 0.951 . S
H2003 C2022 0.951 . S
H2004 C2024 0.950 . S
H2005 C2025 0.950 . S
H2006 C2027 0.950 . S
H2007 C2030 0.950 . S
H2008 C2031 0.950 . S
H2009 C2033 0.950 . S
H2010 C2034 0.950 . S
H2011 C2035 0.951 . S
H2012 C2037 0.951 . S
H2013 C2039 0.950 . S
H2014 C2040 0.950 . S
H2015 C2042 0.950 . S
H2016 C2045 0.950 . S
H2017 C2046 0.950 . S
H2018 C2048 0.950 . S
H2019 C2049 0.950 . S
C2020 H2002 0.951 . S
C2020 C2021 1.366 . S
C2020 C2022 1.388 . S
C2021 C2020 1.366 . S
C2021 C2025 1.385 . S
C2022 H2003 0.951 . S
C2022 C2020 1.388 . S
C2022 C2023 1.366 . S
C2023 C2022 1.366 . S
C2023 C2024 1.414 . S
C2023 C2026 1.499 . S
C2024 H2004 0.950 . S
C2024 C2023 1.414 . S
C2024 C2025 1.374 . S
C2025 H2005 0.950 . S
C2025 C2021 1.385 . S
C2025 C2024 1.374 . S
C2026 C2023 1.499 . S
C2026 C2027 1.373 . S
C2026 C2028 1.389 . S
C2027 H2006 0.950 . S
C2027 C2026 1.373 . S
C2027 C2043 1.377 . S
C2028 C2026 1.389 . S
C2028 C2029 1.524 . S
C2028 C2042 1.377 . S
C2029 C2028 1.524 . S
C2029 C2030 1.397 . S
C2029 C2034 1.363 . S
C2030 H2007 0.950 . S
C2030 C2029 1.397 . S
C2030 C2031 1.334 . S
C2031 H2008 0.950 . S
C2031 C2030 1.334 . S
C2031 C2032 1.287 . S
C2032 C2031 1.287 . S
C2032 C2033 1.524 . S
C2032 H2051 0.913 . S
C2033 H2009 0.950 . S
C2033 C2032 1.524 . S
C2033 C2034 1.415 . S
C2034 H2010 0.950 . S
C2034 C2029 1.363 . S
C2034 C2033 1.415 . S
C2035 H2011 0.951 . S
C2035 C2036 1.366 . S
C2035 C2037 1.388 . S
C2036 C2035 1.366 . S
C2036 C2040 1.385 . S
C2037 H2012 0.951 . S
C2037 C2035 1.388 . S
C2037 C2038 1.366 . S
C2038 C2037 1.366 . S
C2038 C2039 1.414 . S
C2038 C2041 1.499 . S
C2039 H2013 0.950 . S
C2039 C2038 1.414 . S
C2039 C2040 1.374 . S
C2040 H2014 0.950 . S
C2040 C2036 1.385 . S
C2040 C2039 1.374 . S
C2041 C2038 1.499 . S
C2041 C2042 1.373 . S
C2041 C2043 1.389 . S
C2042 H2015 0.950 . S
C2042 C2028 1.377 . S
C2042 C2041 1.373 . S
C2043 C2027 1.377 . S
C2043 C2041 1.389 . S
C2043 C2044 1.524 . S
C2044 C2043 1.524 . S
C2044 C2045 1.397 . S
C2044 C2049 1.363 . S
C2045 H2016 0.950 . S
C2045 C2044 1.397 . S
C2045 C2046 1.334 . S
C2046 H2017 0.950 . S
C2046 C2045 1.334 . S
C2046 C2047 1.287 . S
C2047 C2046 1.287 . S
C2047 C2048 1.524 . S
C2047 H2050 0.999 . S
C2048 H2018 0.950 . S
C2048 C2047 1.524 . S
C2048 C2049 1.415 . S
C2049 H2019 0.950 . S
C2049 C2044 1.363 . S
C2049 C2048 1.415 . S
H2050 C2047 0.999 . S
H2051 C2032 0.913 . S
C271 C249 1.741 . S
C286 C11 1.740 . S
C321 C221 1.741 . S
C336 C25 1.740 . S
C371 C235 1.740 . S
C386 C39 1.741 . S
C421 C109 1.740 . S
C436 C53 1.741 . S
C471 C123 1.741 . S
C486 C67 1.740 . S
C521 C81 1.740 . S
C536 C95 1.741 . S
C571 C137 1.740 . S
C586 C193 1.741 . S
C621 C151 1.741 . S
C636 C207 1.741 . S
C671 C165 1.740 . S
C686 C179 1.741 . S
C721 C8 0.956 . S
C736 C246 0.956 . S
C771 C218 0.955 . S
C786 C22 0.956 . S
C821 C36 0.956 . S
C836 C232 0.956 . S
C871 C106 0.954 . S
C886 C50 0.955 . S
C921 C64 0.956 . S
C936 C120 0.956 . S
C971 C78 0.955 . S
C986 C92 0.954 . S
C1021 C134 0.955 . S
C1036 C190 0.954 . S
C1071 C204 0.955 . S
C1086 C148 0.954 . S
C1121 C176 0.955 . S
C1136 C162 0.956 . S
C1171 C13 1.407 . S
C1186 C55 1.407 . S
C1221 C69 1.407 . S
C1236 C27 1.406 . S
C1271 C83 1.406 . S
C1286 C41 1.405 . S
C1321 C77 1.464 . S
C1336 C21 1.464 . S
C1371 C35 1.464 . S
C1386 C49 1.464 . S
C1421 C63 1.464 . S
C1436 C7 1.464 . S
C1471 C97 1.406 . S
C1486 C139 1.407 . S
C1521 C153 1.407 . S
C1536 C111 1.406 . S
C1571 C167 1.407 . S
C1586 C125 1.407 . S
C1621 C161 1.464 . S
C1636 C105 1.464 . S
C1671 C119 1.464 . S
C1686 C133 1.464 . S
C1721 C147 1.464 . S
C1736 C91 1.464 . S
C1771 C223 1.407 . S
C1786 C181 1.407 . S
C1821 C237 1.407 . S
C1836 C195 1.407 . S
C1871 C209 1.407 . S
C1886 C251 1.406 . S
C1921 C245 1.464 . S
C1936 C189 1.464 . S
C1971 C203 1.464 . S
C1986 C217 1.464 . S
C2021 C231 1.464 . S
C2036 C175 1.464 . S
