# Generated by pormake.
# Topology qtz-e, (6)-cn, num edge types: 1
# Building blocks:
#     Node 0, Type 0, BuildingBlock: BETFEN_clean_sbu_0, # of connection points: 6
#     Node 1, Type 0, BuildingBlock: BETFEN_clean_sbu_0, # of connection points: 6
#     Node 2, Type 0, BuildingBlock: BETFEN_clean_sbu_0, # of connection points: 6
#     Node 3, Type 0, BuildingBlock: BETFEN_clean_sbu_0, # of connection points: 6
#     Node 4, Type 0, BuildingBlock: BETFEN_clean_sbu_0, # of connection points: 6
#     Node 5, Type 0, BuildingBlock: BETFEN_clean_sbu_0, # of connection points: 6
#     Edge 6, Type (0, 0), BuildingBlock: EYOCIG_clean_linker_4, # of connection points: 2
#     Edge 7, Type (0, 0), BuildingBlock: EYOCIG_clean_linker_4, # of connection points: 2
#     Edge 8, Type (0, 0), BuildingBlock: EYOCIG_clean_linker_4, # of connection points: 2
#     Edge 9, Type (0, 0), BuildingBlock: EYOCIG_clean_linker_4, # of connection points: 2
#     Edge 10, Type (0, 0), BuildingBlock: EYOCIG_clean_linker_4, # of connection points: 2
#     Edge 11, Type (0, 0), BuildingBlock: EYOCIG_clean_linker_4, # of connection points: 2
#     Edge 12, Type (0, 0), BuildingBlock: EYOCIG_clean_linker_4, # of connection points: 2
#     Edge 13, Type (0, 0), BuildingBlock: EYOCIG_clean_linker_4, # of connection points: 2
#     Edge 14, Type (0, 0), BuildingBlock: EYOCIG_clean_linker_4, # of connection points: 2
#     Edge 15, Type (0, 0), BuildingBlock: EYOCIG_clean_linker_4, # of connection points: 2
#     Edge 16, Type (0, 0), BuildingBlock: EYOCIG_clean_linker_4, # of connection points: 2
#     Edge 17, Type (0, 0), BuildingBlock: EYOCIG_clean_linker_4, # of connection points: 2
#     Edge 18, Type (0, 0), BuildingBlock: EYOCIG_clean_linker_4, # of connection points: 2
#     Edge 19, Type (0, 0), BuildingBlock: EYOCIG_clean_linker_4, # of connection points: 2
#     Edge 20, Type (0, 0), BuildingBlock: EYOCIG_clean_linker_4, # of connection points: 2
#     Edge 21, Type (0, 0), BuildingBlock: EYOCIG_clean_linker_4, # of connection points: 2
#     Edge 22, Type (0, 0), BuildingBlock: EYOCIG_clean_linker_4, # of connection points: 2
#     Edge 23, Type (0, 0), BuildingBlock: EYOCIG_clean_linker_4, # of connection points: 2
# Relax obj value: 0.212
# Max RMSD: 0.222
# Mean RMSD: 0.222
data_MOF--net-qtz-e--node1-BETFEN_clean_sbu_0--edge1-EYOCIG_clean_linker_4
_symmetry_space_group_name_H-M    P1
_symmetry_Int_Tables_number       1
_symmetry_cell_setting            triclinic
loop_
_symmetry_equiv_pos_as_xyz
'x, y, z'
_cell_length_a     20.326652
_cell_length_b     20.326223
_cell_length_c     44.516444
_cell_angle_alpha  89.98829
_cell_angle_beta   90.013485
_cell_angle_gamma 119.99232
loop_
_atom_site_label
_atom_site_type_symbol
_atom_site_fract_x
_atom_site_fract_y
_atom_site_fract_z
_atom_type_partial_charge
Pr0 Pr 0.33868 0.48849 0.0972 0.0
Pr1 Pr 0.24466 0.33337 0.13141 0.0
C2 C 0.43378 0.60547 0.06215 0.0
C3 C 0.43059 0.62868 0.03102 0.0
C4 C 0.37658 0.6493 1.02252 0.0
C5 C 0.37271 0.66919 0.99288 0.0
C6 C 0.42243 0.66857 0.97139 0.0
C7 C 0.47646 0.64826 0.97955 0.0
C8 C 0.48061 0.6285 1.00928 0.0
C9 C 0.18925 0.44885 0.1083 0.0
C10 C 0.26739 0.32866 0.0575 0.0
C11 C 0.14138 0.20795 0.16085 0.0
C12 C 0.11447 0.18738 0.19249 0.0
C13 C 0.13332 0.14084 0.20961 0.0
C14 C 0.10583 0.11969 0.23906 0.0
C15 C 0.05884 0.14449 0.25182 0.0
C16 C 0.04048 0.19132 0.23501 0.0
C17 C 0.06787 0.21254 0.20569 0.0
C18 C 0.40088 0.41041 0.1425 0.0
C19 C 0.30797 0.49333 0.16772 0.0
O20 O 0.43944 0.54456 0.06551 0.0
O21 O 0.38748 0.60945 0.08143 0.0
O22 O 0.21038 0.40217 0.10094 0.0
O23 O 0.24435 0.51838 0.10694 0.0
O24 O 0.24609 0.28809 0.08261 0.0
O25 O 0.29699 0.40306 0.05709 0.0
O26 O 0.12493 0.2551 0.14724 0.0
O27 O 0.20935 0.21989 0.15413 0.0
O28 O 0.37061 0.40484 0.11727 0.0
O29 O 0.35074 0.37135 0.16281 0.0
O30 O 0.36219 0.52648 0.14743 0.0
O31 O 0.24886 0.42494 0.16391 0.0
H32 H 0.33703 0.64989 0.03866 0.0
H33 H 0.331 0.68522 0.98676 0.0
H34 H 0.51549 0.64796 0.96304 0.0
H35 H 0.52261 0.6128 1.01527 0.0
H36 H 0.16882 0.12032 0.20015 0.0
H37 H 0.12076 0.08352 0.25175 0.0
H38 H 0.00437 0.21115 0.24449 0.0
H39 H 0.05187 0.24831 0.19335 0.0
Pr40 Pr 0.62871 0.13339 0.54502 0.0
Pr41 Pr 0.7225 0.07247 0.51089 0.0
C42 C 0.53341 0.15482 0.5801 0.0
C43 C 0.53663 0.18113 0.61124 0.0
C44 C 0.59066 0.25572 0.61975 0.0
C45 C 0.59448 0.27944 0.64938 0.0
C46 C 0.54471 0.22911 0.67086 0.0
C47 C 0.49073 0.15477 0.6627 0.0
C48 C 0.48663 0.1309 0.63297 0.0
C49 C 0.77799 0.24348 0.53388 0.0
C50 C 0.70004 0.0451 0.58478 0.0
C51 C 0.82548 0.04962 0.48161 0.0
C52 C 0.85275 0.05622 0.45003 0.0
C53 C 0.83454 0.99096 0.43294 0.0
C54 C 0.86235 0.99753 0.40354 0.0
C55 C 0.90899 0.0694 0.39079 0.0
C56 C 0.92669 0.13446 0.40756 0.0
C57 C 0.89898 0.12807 0.43683 0.0
C58 C 0.56634 0.99335 0.49972 0.0
C59 C 0.65958 0.16929 0.47452 0.0
O60 O 0.52797 0.08837 0.57672 0.0
O61 O 0.57955 0.20521 0.56081 0.0
O62 O 0.75713 0.17574 0.5413 0.0
O63 O 0.72268 0.25764 0.53516 0.0
O64 O 0.72081 0.02543 0.55965 0.0
O65 O 0.67088 0.09028 0.58518 0.0
O66 O 0.84229 0.11313 0.49535 0.0
O67 O 0.75718 0.99392 0.4881 0.0
O68 O 0.59649 0.01773 0.52499 0.0
O69 O 0.61658 0.00492 0.47938 0.0
O70 O 0.60531 0.14814 0.49479 0.0
O71 O 0.71868 0.15998 0.47835 0.0
H72 H 0.63025 0.29587 0.60362 0.0
H73 H 0.63617 0.33717 0.6555 0.0
H74 H 0.45168 0.11543 0.67921 0.0
H75 H 0.44464 0.0732 0.62698 0.0
H76 H 0.7993 0.93488 0.4424 0.0
H77 H 0.84791 0.94653 0.39088 0.0
H78 H 0.96252 0.19046 0.39809 0.0
H79 H 0.91443 0.17974 0.44915 0.0
Pr80 Pr 0.47937 0.8341 0.76391 0.0
Pr81 Pr 0.63374 0.8947 0.79814 0.0
C82 C 0.36294 0.8131 0.72872 0.0
C83 C 0.3399 0.78674 0.69759 0.0
C84 C 0.31949 0.71218 0.68909 0.0
C85 C 0.29951 0.68839 0.65947 0.0
C86 C 0.29985 0.73863 0.63798 0.0
C87 C 0.32014 0.81296 0.64613 0.0
C88 C 0.33998 0.8369 0.67585 0.0
C89 C 0.51812 0.72371 0.7751 0.0
C90 C 0.63897 0.92224 0.72426 0.0
C91 C 0.75969 0.91794 0.82748 0.0
C92 C 0.78042 0.91133 0.85905 0.0
C93 C 0.82729 0.97659 0.87617 0.0
C94 C 0.84858 0.97002 0.90557 0.0
C95 C 0.82359 0.89815 0.91827 0.0
C96 C 0.77643 0.83308 0.90146 0.0
C97 C 0.75506 0.83948 0.8722 0.0
C98 C 0.55677 0.97386 0.80931 0.0
C99 C 0.47385 0.79781 0.83438 0.0
O100 O 0.42413 0.87941 0.73209 0.0
O101 O 0.35839 0.76268 0.74808 0.0
O102 O 0.5652 0.79142 0.76771 0.0
O103 O 0.44873 0.70976 0.77377 0.0
O104 O 0.67928 0.94201 0.74943 0.0
O105 O 0.56469 0.8769 0.7238 0.0
O106 O 0.71321 0.85442 0.81369 0.0
O107 O 0.74678 0.97347 0.82102 0.0
O108 O 0.56271 0.9497 0.78402 0.0
O109 O 0.59513 0.96194 0.82969 0.0
O110 O 0.44091 0.81915 0.81409 0.0
O111 O 0.54226 0.80709 0.83062 0.0
H112 H 0.31909 0.6721 0.70523 0.0
H113 H 0.28356 0.63067 0.65336 0.0
H114 H 0.32029 0.85224 0.62962 0.0
H115 H 0.3556 0.89457 0.68184 0.0
H116 H 0.84794 0.03268 0.86674 0.0
H117 H 0.88498 0.02101 0.91826 0.0
H118 H 0.75645 0.77708 0.9109 0.0
H119 H 0.71901 0.78781 0.85985 0.0
Pr120 Pr 0.8339 0.47859 0.2116 0.0
Pr121 Pr 0.89493 0.63308 0.17738 0.0
C122 C 0.81252 0.36199 0.24677 0.0
C123 C 0.78624 0.33899 0.27791 0.0
C124 C 0.71171 0.31862 0.28644 0.0
C125 C 0.68799 0.29868 0.31607 0.0
C126 C 0.73826 0.29903 0.33754 0.0
C127 C 0.81256 0.31925 0.32936 0.0
C128 C 0.83643 0.33905 0.29963 0.0
C129 C 0.72381 0.51775 0.20037 0.0
C130 C 0.9224 0.63819 0.25128 0.0
C131 C 0.91826 0.75901 0.14799 0.0
C132 C 0.91171 0.77973 0.11641 0.0
C133 C 0.97699 0.82626 0.09925 0.0
C134 C 0.97048 0.84755 0.06985 0.0
C135 C 0.89863 0.82289 0.05718 0.0
C136 C 0.83354 0.77608 0.07402 0.0
C137 C 0.83987 0.75472 0.1033 0.0
C138 C 0.97383 0.5558 0.16627 0.0
C139 C 0.79783 0.47327 0.14111 0.0
O140 O 0.87896 0.42301 0.24337 0.0
O141 O 0.76212 0.35768 0.22746 0.0
O142 O 0.79155 0.56468 0.20777 0.0
O143 O 0.70966 0.4483 0.20171 0.0
O144 O 0.94219 0.67854 0.22612 0.0
O145 O 0.87697 0.56392 0.25173 0.0
O146 O 0.85471 0.71255 0.16177 0.0
O147 O 0.97376 0.74609 0.15449 0.0
O148 O 0.9496 0.56178 0.19154 0.0
O149 O 0.96214 0.5943 0.14588 0.0
O150 O 0.81898 0.44019 0.16141 0.0
O151 O 0.80726 0.54173 0.14488 0.0
H152 H 0.6716 0.31821 0.27032 0.0
H153 H 0.63029 0.28277 0.3222 0.0
H154 H 0.85186 0.31939 0.34586 0.0
H155 H 0.89408 0.35462 0.29363 0.0
H156 H 0.03306 0.84665 0.10865 0.0
H157 H 0.0215 0.88369 0.05712 0.0
H158 H 0.77756 0.75637 0.06461 0.0
H159 H 0.78819 0.71894 0.11567 0.0
Pr160 Pr 0.13379 0.62843 0.43059 0.0
Pr161 Pr 0.07275 0.72229 0.46473 0.0
C162 C 0.15539 0.53321 0.39552 0.0
C163 C 0.18158 0.53635 0.36437 0.0
C164 C 0.2561 0.59042 0.35579 0.0
C165 C 0.27968 0.59414 0.32614 0.0
C166 C 0.22929 0.54422 0.3047 0.0
C167 C 0.15502 0.49018 0.31294 0.0
C168 C 0.13129 0.48618 0.34268 0.0
C169 C 0.24374 0.77778 0.44171 0.0
C170 C 0.04534 0.69964 0.39082 0.0
C171 C 0.05009 0.82529 0.49412 0.0
C172 C 0.0565 0.85233 0.52573 0.0
C173 C 0.99115 0.83345 0.54287 0.0
C174 C 0.99755 0.86106 0.57231 0.0
C175 C 0.06935 0.90817 0.58503 0.0
C176 C 0.13451 0.92656 0.56821 0.0
C177 C 0.12828 0.89906 0.5389 0.0
C178 C 0.99371 0.56614 0.4759 0.0
C179 C 0.16963 0.65934 0.50109 0.0
O180 O 0.08886 0.52757 0.39894 0.0
O181 O 0.20581 0.57953 0.41477 0.0
O182 O 0.17597 0.75681 0.43431 0.0
O183 O 0.25801 0.72255 0.4404 0.0
O184 O 0.02584 0.72067 0.41593 0.0
O185 O 0.09038 0.67033 0.39043 0.0
O186 O 0.11366 0.84201 0.48045 0.0
O187 O 0.99428 0.75713 0.48749 0.0
O188 O 0.01816 0.59629 0.45064 0.0
O189 O 0.00509 0.61635 0.49622 0.0
O190 O 0.14852 0.60506 0.48082 0.0
O191 O 0.16028 0.7184 0.49725 0.0
H192 H 0.2963 0.63011 0.37188 0.0
H193 H 0.33735 0.63587 0.31996 0.0
H194 H 0.11564 0.45101 0.29647 0.0
H195 H 0.07366 0.44415 0.34873 0.0
H196 H 0.93511 0.79784 0.53345 0.0
H197 H 0.94649 0.8461 0.58501 0.0
H198 H 0.19045 0.96277 0.57765 0.0
H199 H 0.18001 0.91506 0.52654 0.0
Pr200 Pr 0.4884 0.33844 0.87832 0.0
Pr201 Pr 0.33369 0.24441 0.84415 0.0
C202 C 0.60508 0.43385 0.91341 0.0
C203 C 0.62823 0.43058 0.94453 0.0
C204 C 0.64882 0.37653 0.95301 0.0
C205 C 0.66875 0.37264 0.98264 0.0
C206 C 0.66818 0.42235 1.00415 0.0
C207 C 0.6478 0.47635 0.99602 0.0
C208 C 0.62801 0.48053 0.9663 0.0
C209 C 0.44936 0.18917 0.86726 0.0
C210 C 0.32879 0.26709 0.91803 0.0
C211 C 0.2079 0.14137 0.81485 0.0
C212 C 0.18721 0.11416 0.78326 0.0
C213 C 0.14012 0.13236 0.76619 0.0
C214 C 0.11889 0.10462 0.73677 0.0
C215 C 0.14416 0.05804 0.72401 0.0
C216 C 0.19155 0.04033 0.74076 0.0
C217 C 0.21286 0.06797 0.77005 0.0
C218 C 0.41058 0.40053 0.83292 0.0
C219 C 0.49351 0.30747 0.80784 0.0
O220 O 0.54394 0.4391 0.91007 0.0
O221 O 0.60944 0.38786 0.89407 0.0
O222 O 0.40243 0.21001 0.87462 0.0
O223 O 0.51879 0.2445 0.86856 0.0
O224 O 0.28833 0.24618 0.8929 0.0
O225 O 0.40312 0.29631 0.91846 0.0
O226 O 0.25468 0.12462 0.82858 0.0
O227 O 0.22041 0.20964 0.82137 0.0
O228 O 0.40486 0.37046 0.85821 0.0
O229 O 0.37195 0.35023 0.8126 0.0
O230 O 0.52656 0.36179 0.8281 0.0
O231 O 0.42515 0.24833 0.81166 0.0
H232 H 0.64938 0.33698 0.93686 0.0
H233 H 0.6848 0.33093 0.98874 0.0
H234 H 0.6475 0.51535 1.01255 0.0
H235 H 0.61228 0.52252 0.96033 0.0
H236 H 0.11925 0.16756 0.77566 0.0
H237 H 0.08231 0.11906 0.72412 0.0
H238 H 0.21176 0.00454 0.73128 0.0
H239 H 0.2491 0.05252 0.78235 0.0
C240 C 0.27736 0.5507 0.24928 0.0
C241 C 0.25506 0.54743 0.27451 0.0
C242 C 0.30057 0.54637 0.22003 0.0
C243 C 0.31193 0.53009 0.19543 0.0
C244 C 0.54667 0.30022 0.75554 0.0
C245 C 0.53029 0.31147 0.78014 0.0
C246 C 0.55117 0.27719 0.72627 0.0
C247 C 0.548 0.25499 0.70104 0.0
C248 C 0.4158 0.70988 0.91594 0.0
C249 C 0.41901 0.69101 0.9412 0.0
C250 C 0.42038 0.73732 0.88665 0.0
C251 C 0.43693 0.76499 0.86206 0.0
C252 C 0.66696 0.22969 0.42219 0.0
C253 C 0.65563 0.20207 0.4468 0.0
C254 C 0.69009 0.25725 0.39293 0.0
C255 C 0.71235 0.27635 0.3677 0.0
C256 C 0.25789 0.69019 0.58263 0.0
C257 C 0.27708 0.71263 0.60783 0.0
C258 C 0.2302 0.66688 0.55339 0.0
C259 C 0.20251 0.65546 0.5288 0.0
C260 C 0.73728 0.42009 0.08882 0.0
C261 C 0.76495 0.43644 0.11342 0.0
C262 C 0.70976 0.41568 0.05956 0.0
C263 C 0.69075 0.41895 0.03432 0.0
C264 C 0.54436 0.49585 0.15838 0.0
C265 C 0.48022 0.45876 0.14907 0.0
C266 C 0.61614 0.52668 0.17243 0.0
C267 C 0.67193 0.53543 0.18551 0.0
C268 C 0.93558 0.42267 0.49182 0.0
C269 C 0.96265 0.48679 0.4825 0.0
C270 C 0.89459 0.35095 0.50591 0.0
C271 C 0.84753 0.29525 0.519 0.0
C272 C 0.44043 0.0727 0.83927 0.0
C273 C 0.43167 0.11968 0.85236 0.0
C274 C 0.47133 0.03187 0.8252 0.0
C275 C 0.50847 0.0049 0.81589 0.0
C276 C 0.52675 0.61579 0.80296 0.0
C277 C 0.53562 0.67166 0.78992 0.0
C278 C 0.49587 0.54399 0.817 0.0
C279 C 0.45881 0.47986 0.82631 0.0
C280 C 0.07277 0.43948 0.13642 0.0
C281 C 0.11979 0.43089 0.12328 0.0
C282 C 0.03186 0.47031 0.15048 0.0
C283 C 0.00486 0.50747 0.15975 0.0
C284 C 0.35112 0.89431 0.46974 0.0
C285 C 0.29543 0.84729 0.45663 0.0
C286 C 0.42286 0.93524 0.48382 0.0
C287 C 0.48699 0.96228 0.49313 0.0
C288 C 0.2739 0.26273 0.97238 0.0
C289 C 0.29261 0.26181 0.9466 0.0
C290 C 0.2629 0.27376 1.00314 0.0
C291 C 0.26201 0.29248 0.02893 0.0
C292 C 0.96743 0.08833 0.33588 0.0
C293 C 0.93973 0.07729 0.36076 0.0
C294 C 0.0008 0.10503 0.3068 0.0
C295 C 0.02836 0.12167 0.28189 0.0
C296 C 0.69387 0.97279 0.66991 0.0
C297 C 0.6752 0.95319 0.69571 0.0
C298 C 0.70472 0.99477 0.63915 0.0
C299 C 0.70546 0.01433 0.61336 0.0
C300 C 0.86312 0.8792 0.97318 0.0
C301 C 0.84644 0.89025 0.9483 0.0
C302 C 0.87982 0.86246 1.00225 0.0
C303 C 0.89081 0.84576 0.02713 0.0
C304 C 0.99496 0.70406 0.33642 0.0
C305 C 0.01453 0.70497 0.36222 0.0
C306 C 0.97298 0.69308 0.30564 0.0
C307 C 0.95336 0.67438 0.27985 0.0
C308 C 0.10467 0.99969 0.66907 0.0
C309 C 0.12132 0.02735 0.69396 0.0
C310 C 0.08802 0.96632 0.63999 0.0
C311 C 0.07707 0.93872 0.61509 0.0
loop_
_geom_bond_atom_site_label_1
_geom_bond_atom_site_label_2
_geom_bond_distance
_geom_bond_site_symmetry_2
_ccdc_geom_bond_type
Pr0 C2 2.880 . S
Pr0 O20 2.562 . S
Pr0 O21 2.490 . S
Pr0 O22 2.695 . S
Pr0 O23 2.512 . S
Pr0 O25 2.437 . S
Pr0 O28 2.436 . S
Pr0 O30 2.438 . S
Pr1 C11 2.880 . S
Pr1 O22 2.436 . S
Pr1 O24 2.438 . S
Pr1 O26 2.562 . S
Pr1 O27 2.490 . S
Pr1 O28 2.695 . S
Pr1 O29 2.512 . S
Pr1 O31 2.437 . S
C2 Pr0 2.880 . S
C2 C3 1.491 1_554 S
C2 O20 1.254 . S
C2 O21 1.225 . S
C3 C2 1.491 1_556 S
C3 C4 1.392 . S
C3 C8 1.356 . S
C4 C3 1.392 . S
C4 C5 1.368 . S
C4 H32 0.929 . S
C5 C4 1.368 . S
C5 C6 1.386 . S
C5 H33 0.929 . S
C6 C5 1.386 . S
C6 C7 1.373 . S
C7 C6 1.373 . S
C7 C8 1.409 . S
C7 H34 0.931 . S
C8 C3 1.356 . S
C8 C7 1.409 . S
C8 H35 0.930 . S
C9 O22 1.270 . S
C9 O23 1.248 . S
C10 O24 1.267 . S
C10 O25 1.278 . S
C11 Pr1 2.880 . S
C11 C12 1.491 . S
C11 O26 1.254 . S
C11 O27 1.225 . S
C12 C11 1.491 . S
C12 C13 1.392 . S
C12 C17 1.356 . S
C13 C12 1.392 . S
C13 C14 1.368 . S
C13 H36 0.929 . S
C14 C13 1.368 . S
C14 C15 1.386 . S
C14 H37 0.929 . S
C15 C14 1.386 . S
C15 C16 1.373 . S
C16 C15 1.373 . S
C16 C17 1.409 . S
C16 H38 0.931 . S
C17 C12 1.356 . S
C17 C16 1.409 . S
C17 H39 0.930 . S
C18 O28 1.270 . S
C18 O29 1.248 . S
C19 O30 1.267 . S
C19 O31 1.278 . S
O20 Pr0 2.562 . S
O20 C2 1.254 . S
O21 Pr0 2.490 . S
O21 C2 1.225 . S
O22 Pr0 2.695 . S
O22 Pr1 2.436 . S
O22 C9 1.270 . S
O23 Pr0 2.512 . S
O23 C9 1.248 . S
O24 Pr1 2.438 . S
O24 C10 1.267 . S
O25 Pr0 2.437 . S
O25 C10 1.278 . S
O26 Pr1 2.562 . S
O26 C11 1.254 . S
O27 Pr1 2.490 . S
O27 C11 1.225 . S
O28 Pr0 2.436 . S
O28 Pr1 2.695 . S
O28 C18 1.270 . S
O29 Pr1 2.512 . S
O29 C18 1.248 . S
O30 Pr0 2.438 . S
O30 C19 1.267 . S
O31 Pr1 2.437 . S
O31 C19 1.278 . S
H32 C4 0.929 . S
H33 C5 0.929 . S
H34 C7 0.931 . S
H35 C8 0.930 . S
H36 C13 0.929 . S
H37 C14 0.929 . S
H38 C16 0.931 . S
H39 C17 0.930 . S
Pr40 C42 2.880 . S
Pr40 O60 2.562 . S
Pr40 O61 2.490 . S
Pr40 O62 2.695 . S
Pr40 O63 2.512 . S
Pr40 O65 2.437 . S
Pr40 O68 2.436 . S
Pr40 O70 2.438 . S
Pr41 C51 2.880 . S
Pr41 O62 2.436 . S
Pr41 O64 2.440 . S
Pr41 O66 2.562 . S
Pr41 O67 2.490 1_545 S
Pr41 O68 2.695 . S
Pr41 O69 2.512 1_545 S
Pr41 O71 2.437 . S
C42 Pr40 2.880 . S
C42 C43 1.491 . S
C42 O60 1.254 . S
C42 O61 1.225 . S
C43 C42 1.491 . S
C43 C44 1.392 . S
C43 C48 1.356 . S
C44 C43 1.392 . S
C44 C45 1.368 . S
C44 H72 0.929 . S
C45 C44 1.368 . S
C45 C46 1.386 . S
C45 H73 0.929 . S
C46 C45 1.386 . S
C46 C47 1.373 . S
C47 C46 1.373 . S
C47 C48 1.409 . S
C47 H74 0.931 . S
C48 C43 1.356 . S
C48 C47 1.409 . S
C48 H75 0.930 . S
C49 O62 1.270 . S
C49 O63 1.248 . S
C50 O64 1.277 . S
C50 O65 1.278 . S
C51 Pr41 2.880 . S
C51 C52 1.491 . S
C51 O66 1.254 . S
C51 O67 1.225 1_545 S
C52 C51 1.491 . S
C52 C53 1.392 1_545 S
C52 C57 1.356 . S
C53 C52 1.392 1_565 S
C53 C54 1.368 . S
C53 H76 0.929 . S
C54 C53 1.368 . S
C54 C55 1.386 1_565 S
C54 H77 0.929 . S
C55 C54 1.386 1_545 S
C55 C56 1.373 . S
C56 C55 1.373 . S
C56 C57 1.409 . S
C56 H78 0.931 . S
C57 C52 1.356 . S
C57 C56 1.409 . S
C57 H79 0.930 . S
C58 O68 1.270 1_565 S
C58 O69 1.248 . S
C59 O70 1.267 . S
C59 O71 1.278 . S
O60 Pr40 2.562 . S
O60 C42 1.254 . S
O61 Pr40 2.490 . S
O61 C42 1.225 . S
O62 Pr40 2.695 . S
O62 Pr41 2.436 . S
O62 C49 1.270 . S
O63 Pr40 2.512 . S
O63 C49 1.248 . S
O64 Pr41 2.440 . S
O64 C50 1.277 . S
O65 Pr40 2.437 . S
O65 C50 1.278 . S
O66 Pr41 2.562 . S
O66 C51 1.254 . S
O67 Pr41 2.490 1_565 S
O67 C51 1.225 1_565 S
O68 Pr40 2.436 . S
O68 Pr41 2.695 . S
O68 C58 1.270 1_545 S
O69 Pr41 2.512 1_565 S
O69 C58 1.248 . S
O70 Pr40 2.438 . S
O70 C59 1.267 . S
O71 Pr41 2.437 . S
O71 C59 1.278 . S
H72 C44 0.929 . S
H73 C45 0.929 . S
H74 C47 0.931 . S
H75 C48 0.930 . S
H76 C53 0.929 . S
H77 C54 0.929 . S
H78 C56 0.931 . S
H79 C57 0.930 . S
Pr80 C82 2.880 . S
Pr80 O100 2.562 . S
Pr80 O101 2.490 . S
Pr80 O102 2.695 . S
Pr80 O103 2.512 . S
Pr80 O105 2.437 . S
Pr80 O108 2.436 . S
Pr80 O110 2.438 . S
Pr81 C91 2.880 . S
Pr81 O102 2.436 . S
Pr81 O104 2.438 . S
Pr81 O106 2.562 . S
Pr81 O107 2.490 . S
Pr81 O108 2.695 . S
Pr81 O109 2.512 1_565 S
Pr81 O111 2.437 . S
C82 Pr80 2.880 . S
C82 C83 1.491 . S
C82 O100 1.254 . S
C82 O101 1.225 . S
C83 C82 1.491 . S
C83 C84 1.392 . S
C83 C88 1.356 . S
C84 C83 1.392 . S
C84 C85 1.368 . S
C84 H112 0.929 . S
C85 C84 1.368 . S
C85 C86 1.386 . S
C85 H113 0.929 . S
C86 C85 1.386 . S
C86 C87 1.373 . S
C87 C86 1.373 . S
C87 C88 1.409 . S
C87 H114 0.931 . S
C88 C83 1.356 . S
C88 C87 1.409 . S
C88 H115 0.930 . S
C89 O102 1.270 . S
C89 O103 1.248 . S
C90 O104 1.267 . S
C90 O105 1.278 . S
C91 Pr81 2.880 . S
C91 C92 1.491 . S
C91 O106 1.254 . S
C91 O107 1.225 . S
C92 C91 1.491 . S
C92 C93 1.392 1_565 S
C92 C97 1.356 . S
C93 C92 1.392 1_545 S
C93 C94 1.368 . S
C93 H116 0.929 . S
C94 C93 1.368 . S
C94 C95 1.386 1_545 S
C94 H117 0.929 . S
C95 C94 1.386 1_565 S
C95 C96 1.373 . S
C96 C95 1.373 . S
C96 C97 1.409 . S
C96 H118 0.931 . S
C97 C92 1.356 . S
C97 C96 1.409 . S
C97 H119 0.930 . S
C98 O108 1.270 1_545 S
C98 O109 1.248 . S
C99 O110 1.267 . S
C99 O111 1.278 . S
O100 Pr80 2.562 . S
O100 C82 1.254 . S
O101 Pr80 2.490 . S
O101 C82 1.225 . S
O102 Pr80 2.695 . S
O102 Pr81 2.436 . S
O102 C89 1.270 . S
O103 Pr80 2.512 . S
O103 C89 1.248 . S
O104 Pr81 2.438 . S
O104 C90 1.267 . S
O105 Pr80 2.437 . S
O105 C90 1.278 . S
O106 Pr81 2.562 . S
O106 C91 1.254 . S
O107 Pr81 2.490 . S
O107 C91 1.225 . S
O108 Pr80 2.436 . S
O108 Pr81 2.695 . S
O108 C98 1.270 1_565 S
O109 Pr81 2.512 1_545 S
O109 C98 1.248 . S
O110 Pr80 2.438 . S
O110 C99 1.267 . S
O111 Pr81 2.437 . S
O111 C99 1.278 . S
H112 C84 0.929 . S
H113 C85 0.929 . S
H114 C87 0.931 . S
H115 C88 0.930 . S
H116 C93 0.929 . S
H117 C94 0.929 . S
H118 C96 0.931 . S
H119 C97 0.930 . S
Pr120 C122 2.880 . S
Pr120 O140 2.562 . S
Pr120 O141 2.490 . S
Pr120 O142 2.695 . S
Pr120 O143 2.512 . S
Pr120 O145 2.437 . S
Pr120 O148 2.436 . S
Pr120 O150 2.438 . S
Pr121 C131 2.880 . S
Pr121 O142 2.436 . S
Pr121 O144 2.438 . S
Pr121 O146 2.562 . S
Pr121 O147 2.490 . S
Pr121 O148 2.695 . S
Pr121 O149 2.512 1_655 S
Pr121 O151 2.437 . S
C122 Pr120 2.880 . S
C122 C123 1.491 . S
C122 O140 1.254 . S
C122 O141 1.225 . S
C123 C122 1.491 . S
C123 C124 1.392 . S
C123 C128 1.356 . S
C124 C123 1.392 . S
C124 C125 1.368 . S
C124 H152 0.929 . S
C125 C124 1.368 . S
C125 C126 1.386 . S
C125 H153 0.929 . S
C126 C125 1.386 . S
C126 C127 1.373 . S
C127 C126 1.373 . S
C127 C128 1.409 . S
C127 H154 0.931 . S
C128 C123 1.356 . S
C128 C127 1.409 . S
C128 H155 0.930 . S
C129 O142 1.270 . S
C129 O143 1.248 . S
C130 O144 1.267 . S
C130 O145 1.278 . S
C131 Pr121 2.880 . S
C131 C132 1.491 . S
C131 O146 1.254 . S
C131 O147 1.225 . S
C132 C131 1.491 . S
C132 C133 1.392 1_655 S
C132 C137 1.356 . S
C133 C132 1.392 1_455 S
C133 C134 1.368 . S
C133 H156 0.929 . S
C134 C133 1.368 . S
C134 C135 1.386 1_455 S
C134 H157 0.929 . S
C135 C134 1.386 1_655 S
C135 C136 1.373 . S
C136 C135 1.373 . S
C136 C137 1.409 . S
C136 H158 0.931 . S
C137 C132 1.356 . S
C137 C136 1.409 . S
C137 H159 0.930 . S
C138 O148 1.270 1_455 S
C138 O149 1.248 . S
C139 O150 1.267 . S
C139 O151 1.278 . S
O140 Pr120 2.562 . S
O140 C122 1.254 . S
O141 Pr120 2.490 . S
O141 C122 1.225 . S
O142 Pr120 2.695 . S
O142 Pr121 2.436 . S
O142 C129 1.270 . S
O143 Pr120 2.512 . S
O143 C129 1.248 . S
O144 Pr121 2.438 . S
O144 C130 1.267 . S
O145 Pr120 2.437 . S
O145 C130 1.278 . S
O146 Pr121 2.562 . S
O146 C131 1.254 . S
O147 Pr121 2.490 . S
O147 C131 1.225 . S
O148 Pr120 2.436 . S
O148 Pr121 2.695 . S
O148 C138 1.270 1_655 S
O149 Pr121 2.512 1_455 S
O149 C138 1.248 . S
O150 Pr120 2.438 . S
O150 C139 1.267 . S
O151 Pr121 2.437 . S
O151 C139 1.278 . S
H152 C124 0.929 . S
H153 C125 0.929 . S
H154 C127 0.931 . S
H155 C128 0.930 . S
H156 C133 0.929 . S
H157 C134 0.929 . S
H158 C136 0.931 . S
H159 C137 0.930 . S
Pr160 C162 2.880 . S
Pr160 O180 2.562 . S
Pr160 O181 2.490 . S
Pr160 O182 2.695 . S
Pr160 O183 2.512 . S
Pr160 O185 2.437 . S
Pr160 O188 2.436 . S
Pr160 O190 2.438 . S
Pr161 C171 2.880 . S
Pr161 O182 2.436 . S
Pr161 O184 2.440 . S
Pr161 O186 2.562 . S
Pr161 O187 2.490 1_455 S
Pr161 O188 2.695 . S
Pr161 O189 2.512 1_455 S
Pr161 O191 2.437 . S
C162 Pr160 2.880 . S
C162 C163 1.491 . S
C162 O180 1.254 . S
C162 O181 1.225 . S
C163 C162 1.491 . S
C163 C164 1.392 . S
C163 C168 1.356 . S
C164 C163 1.392 . S
C164 C165 1.368 . S
C164 H192 0.929 . S
C165 C164 1.368 . S
C165 C166 1.386 . S
C165 H193 0.929 . S
C166 C165 1.386 . S
C166 C167 1.373 . S
C167 C166 1.373 . S
C167 C168 1.409 . S
C167 H194 0.931 . S
C168 C163 1.356 . S
C168 C167 1.409 . S
C168 H195 0.930 . S
C169 O182 1.270 . S
C169 O183 1.248 . S
C170 O184 1.277 . S
C170 O185 1.278 . S
C171 Pr161 2.880 . S
C171 C172 1.491 . S
C171 O186 1.254 . S
C171 O187 1.225 1_455 S
C172 C171 1.491 . S
C172 C173 1.392 1_455 S
C172 C177 1.356 . S
C173 C172 1.392 1_655 S
C173 C174 1.368 . S
C173 H196 0.929 . S
C174 C173 1.368 . S
C174 C175 1.386 1_655 S
C174 H197 0.929 . S
C175 C174 1.386 1_455 S
C175 C176 1.373 . S
C176 C175 1.373 . S
C176 C177 1.409 . S
C176 H198 0.931 . S
C177 C172 1.356 . S
C177 C176 1.409 . S
C177 H199 0.930 . S
C178 O188 1.270 1_655 S
C178 O189 1.248 . S
C179 O190 1.267 . S
C179 O191 1.278 . S
O180 Pr160 2.562 . S
O180 C162 1.254 . S
O181 Pr160 2.490 . S
O181 C162 1.225 . S
O182 Pr160 2.695 . S
O182 Pr161 2.436 . S
O182 C169 1.270 . S
O183 Pr160 2.512 . S
O183 C169 1.248 . S
O184 Pr161 2.440 . S
O184 C170 1.277 . S
O185 Pr160 2.437 . S
O185 C170 1.278 . S
O186 Pr161 2.562 . S
O186 C171 1.254 . S
O187 Pr161 2.490 1_655 S
O187 C171 1.225 1_655 S
O188 Pr160 2.436 . S
O188 Pr161 2.695 . S
O188 C178 1.270 1_455 S
O189 Pr161 2.512 1_655 S
O189 C178 1.248 . S
O190 Pr160 2.438 . S
O190 C179 1.267 . S
O191 Pr161 2.437 . S
O191 C179 1.278 . S
H192 C164 0.929 . S
H193 C165 0.929 . S
H194 C167 0.931 . S
H195 C168 0.930 . S
H196 C173 0.929 . S
H197 C174 0.929 . S
H198 C176 0.931 . S
H199 C177 0.930 . S
Pr200 C202 2.880 . S
Pr200 O220 2.562 . S
Pr200 O221 2.490 . S
Pr200 O222 2.695 . S
Pr200 O223 2.512 . S
Pr200 O225 2.437 . S
Pr200 O228 2.436 . S
Pr200 O230 2.438 . S
Pr201 C211 2.880 . S
Pr201 O222 2.436 . S
Pr201 O224 2.438 . S
Pr201 O226 2.562 . S
Pr201 O227 2.490 . S
Pr201 O228 2.695 . S
Pr201 O229 2.512 . S
Pr201 O231 2.437 . S
C202 Pr200 2.880 . S
C202 C203 1.491 . S
C202 O220 1.254 . S
C202 O221 1.225 . S
C203 C202 1.491 . S
C203 C204 1.392 . S
C203 C208 1.356 . S
C204 C203 1.392 . S
C204 C205 1.368 . S
C204 H232 0.929 . S
C205 C204 1.368 . S
C205 C206 1.386 . S
C205 H233 0.929 . S
C206 C205 1.386 . S
C206 C207 1.373 . S
C207 C206 1.373 . S
C207 C208 1.409 . S
C207 H234 0.931 . S
C208 C203 1.356 . S
C208 C207 1.409 . S
C208 H235 0.930 . S
C209 O222 1.270 . S
C209 O223 1.248 . S
C210 O224 1.267 . S
C210 O225 1.278 . S
C211 Pr201 2.880 . S
C211 C212 1.491 . S
C211 O226 1.254 . S
C211 O227 1.225 . S
C212 C211 1.491 . S
C212 C213 1.392 . S
C212 C217 1.356 . S
C213 C212 1.392 . S
C213 C214 1.368 . S
C213 H236 0.929 . S
C214 C213 1.368 . S
C214 C215 1.386 . S
C214 H237 0.929 . S
C215 C214 1.386 . S
C215 C216 1.373 . S
C216 C215 1.373 . S
C216 C217 1.409 . S
C216 H238 0.931 . S
C217 C212 1.356 . S
C217 C216 1.409 . S
C217 H239 0.930 . S
C218 O228 1.270 . S
C218 O229 1.248 . S
C219 O230 1.267 . S
C219 O231 1.278 . S
O220 Pr200 2.562 . S
O220 C202 1.254 . S
O221 Pr200 2.490 . S
O221 C202 1.225 . S
O222 Pr200 2.695 . S
O222 Pr201 2.436 . S
O222 C209 1.270 . S
O223 Pr200 2.512 . S
O223 C209 1.248 . S
O224 Pr201 2.438 . S
O224 C210 1.267 . S
O225 Pr200 2.437 . S
O225 C210 1.278 . S
O226 Pr201 2.562 . S
O226 C211 1.254 . S
O227 Pr201 2.490 . S
O227 C211 1.225 . S
O228 Pr200 2.436 . S
O228 Pr201 2.695 . S
O228 C218 1.270 . S
O229 Pr201 2.512 . S
O229 C218 1.248 . S
O230 Pr200 2.438 . S
O230 C219 1.267 . S
O231 Pr201 2.437 . S
O231 C219 1.278 . S
H232 C204 0.929 . S
H233 C205 0.929 . S
H234 C207 0.931 . S
H235 C208 0.930 . S
H236 C213 0.929 . S
H237 C214 0.929 . S
H238 C216 0.931 . S
H239 C217 0.930 . S
C240 C241 1.170 . S
C240 C242 1.380 . S
C241 C240 1.170 . S
C242 C240 1.380 . S
C242 C243 1.170 . S
C243 C242 1.170 . S
C244 C245 1.170 . S
C244 C246 1.380 . S
C245 C244 1.170 . S
C246 C244 1.380 . S
C246 C247 1.170 . S
C247 C246 1.170 . S
C248 C249 1.170 . S
C248 C250 1.380 . S
C249 C248 1.170 . S
C250 C248 1.380 . S
C250 C251 1.170 . S
C251 C250 1.170 . S
C252 C253 1.170 . S
C252 C254 1.380 . S
C253 C252 1.170 . S
C254 C252 1.380 . S
C254 C255 1.170 . S
C255 C254 1.170 . S
C256 C257 1.170 . S
C256 C258 1.380 . S
C257 C256 1.170 . S
C258 C256 1.380 . S
C258 C259 1.170 . S
C259 C258 1.170 . S
C260 C261 1.170 . S
C260 C262 1.380 . S
C261 C260 1.170 . S
C262 C260 1.380 . S
C262 C263 1.170 . S
C263 C262 1.170 . S
C264 C265 1.170 . S
C264 C266 1.380 . S
C265 C264 1.170 . S
C266 C264 1.380 . S
C266 C267 1.170 . S
C267 C266 1.170 . S
C268 C269 1.170 . S
C268 C270 1.380 . S
C269 C268 1.170 . S
C270 C268 1.380 . S
C270 C271 1.170 . S
C271 C270 1.170 . S
C272 C273 1.170 . S
C272 C274 1.380 . S
C273 C272 1.170 . S
C274 C272 1.380 . S
C274 C275 1.170 . S
C275 C274 1.170 . S
C276 C277 1.170 . S
C276 C278 1.380 . S
C277 C276 1.170 . S
C278 C276 1.380 . S
C278 C279 1.170 . S
C279 C278 1.170 . S
C280 C281 1.170 . S
C280 C282 1.380 . S
C281 C280 1.170 . S
C282 C280 1.380 . S
C282 C283 1.170 . S
C283 C282 1.170 . S
C284 C285 1.170 . S
C284 C286 1.380 . S
C285 C284 1.170 . S
C286 C284 1.380 . S
C286 C287 1.170 . S
C287 C286 1.170 . S
C288 C289 1.170 . S
C288 C290 1.380 . S
C289 C288 1.170 . S
C290 C288 1.380 . S
C290 C291 1.170 1_556 S
C291 C290 1.170 1_554 S
C292 C293 1.170 . S
C292 C294 1.380 1_655 S
C293 C292 1.170 . S
C294 C292 1.380 1_455 S
C294 C295 1.170 . S
C295 C294 1.170 . S
C296 C297 1.170 . S
C296 C298 1.380 . S
C297 C296 1.170 . S
C298 C296 1.380 . S
C298 C299 1.170 . S
C299 C298 1.170 . S
C300 C301 1.170 . S
C300 C302 1.380 . S
C301 C300 1.170 . S
C302 C300 1.380 . S
C302 C303 1.170 . S
C303 C302 1.170 . S
C304 C305 1.170 . S
C304 C306 1.380 . S
C305 C304 1.170 . S
C306 C304 1.380 . S
C306 C307 1.170 . S
C307 C306 1.170 . S
C308 C309 1.170 . S
C308 C310 1.380 1_545 S
C309 C308 1.170 . S
C310 C308 1.380 1_565 S
C310 C311 1.170 . S
C311 C310 1.170 . S
C241 C166 1.672 . S
C243 C19 1.689 . S
C245 C219 1.689 . S
C247 C46 1.672 . S
C249 C6 1.641 . S
C251 C99 1.710 . S
C253 C59 1.686 . S
C255 C126 1.673 . S
C257 C86 1.664 . S
C259 C179 1.683 . S
C261 C139 1.706 . S
C263 C206 1.653 1_554 S
C265 C18 1.795 . S
C267 C129 1.519 . S
C269 C178 1.795 . S
C271 C49 1.518 . S
C273 C209 1.530 . S
C275 C98 1.781 . S
C277 C89 1.578 . S
C279 C218 1.766 . S
C281 C9 1.572 . S
C283 C138 1.771 . S
C285 C169 1.518 . S
C287 C58 1.794 . S
C289 C210 1.827 . S
C291 C10 1.817 . S
C293 C55 0.939 . S
C295 C15 0.949 . S
C297 C90 1.814 . S
C299 C50 1.830 1_565 S
C301 C95 0.971 . S
C303 C135 0.978 1_556 S
C305 C170 1.820 1_655 S
C307 C130 1.830 . S
C309 C215 0.944 . S
C311 C175 0.956 . S
