# Generated by pormake.
# Topology uol, (4)-cn, num edge types: 1
# Building blocks:
#     Node 0, Type 0, BuildingBlock: TATPOV_clean_sbu_0, # of connection points: 4
#     Node 1, Type 0, BuildingBlock: TATPOV_clean_sbu_0, # of connection points: 4
#     Node 2, Type 0, BuildingBlock: TATPOV_clean_sbu_0, # of connection points: 4
#     Node 3, Type 0, BuildingBlock: TATPOV_clean_sbu_0, # of connection points: 4
#     Node 4, Type 0, BuildingBlock: TATPOV_clean_sbu_0, # of connection points: 4
#     Node 5, Type 0, BuildingBlock: TATPOV_clean_sbu_0, # of connection points: 4
#     Node 6, Type 0, BuildingBlock: TATPOV_clean_sbu_0, # of connection points: 4
#     Node 7, Type 0, BuildingBlock: TATPOV_clean_sbu_0, # of connection points: 4
#     Node 8, Type 0, BuildingBlock: TATPOV_clean_sbu_0, # of connection points: 4
#     Node 9, Type 0, BuildingBlock: TATPOV_clean_sbu_0, # of connection points: 4
#     Node 10, Type 0, BuildingBlock: TATPOV_clean_sbu_0, # of connection points: 4
#     Node 11, Type 0, BuildingBlock: TATPOV_clean_sbu_0, # of connection points: 4
#     Edge 12, Type (0, 0), BuildingBlock: EZIPEK_clean_linker_0, # of connection points: 2
#     Edge 13, Type (0, 0), BuildingBlock: EZIPEK_clean_linker_0, # of connection points: 2
#     Edge 14, Type (0, 0), BuildingBlock: EZIPEK_clean_linker_0, # of connection points: 2
#     Edge 15, Type (0, 0), BuildingBlock: EZIPEK_clean_linker_0, # of connection points: 2
#     Edge 16, Type (0, 0), BuildingBlock: EZIPEK_clean_linker_0, # of connection points: 2
#     Edge 17, Type (0, 0), BuildingBlock: EZIPEK_clean_linker_0, # of connection points: 2
#     Edge 18, Type (0, 0), BuildingBlock: EZIPEK_clean_linker_0, # of connection points: 2
#     Edge 19, Type (0, 0), BuildingBlock: EZIPEK_clean_linker_0, # of connection points: 2
#     Edge 20, Type (0, 0), BuildingBlock: EZIPEK_clean_linker_0, # of connection points: 2
#     Edge 21, Type (0, 0), BuildingBlock: EZIPEK_clean_linker_0, # of connection points: 2
#     Edge 22, Type (0, 0), BuildingBlock: EZIPEK_clean_linker_0, # of connection points: 2
#     Edge 23, Type (0, 0), BuildingBlock: EZIPEK_clean_linker_0, # of connection points: 2
#     Edge 24, Type (0, 0), BuildingBlock: EZIPEK_clean_linker_0, # of connection points: 2
#     Edge 25, Type (0, 0), BuildingBlock: EZIPEK_clean_linker_0, # of connection points: 2
#     Edge 26, Type (0, 0), BuildingBlock: EZIPEK_clean_linker_0, # of connection points: 2
#     Edge 27, Type (0, 0), BuildingBlock: EZIPEK_clean_linker_0, # of connection points: 2
#     Edge 28, Type (0, 0), BuildingBlock: EZIPEK_clean_linker_0, # of connection points: 2
#     Edge 29, Type (0, 0), BuildingBlock: EZIPEK_clean_linker_0, # of connection points: 2
#     Edge 30, Type (0, 0), BuildingBlock: EZIPEK_clean_linker_0, # of connection points: 2
#     Edge 31, Type (0, 0), BuildingBlock: EZIPEK_clean_linker_0, # of connection points: 2
#     Edge 32, Type (0, 0), BuildingBlock: EZIPEK_clean_linker_0, # of connection points: 2
#     Edge 33, Type (0, 0), BuildingBlock: EZIPEK_clean_linker_0, # of connection points: 2
#     Edge 34, Type (0, 0), BuildingBlock: EZIPEK_clean_linker_0, # of connection points: 2
#     Edge 35, Type (0, 0), BuildingBlock: EZIPEK_clean_linker_0, # of connection points: 2
# Relax obj value: 0.209
# Max RMSD: 0.264
# Mean RMSD: 0.264
data_MOF--net-uol--node1-TATPOV_clean_sbu_0--edge1-EZIPEK_clean_linker_0
_symmetry_space_group_name_H-M    P1
_symmetry_Int_Tables_number       1
_symmetry_cell_setting            triclinic
loop_
_symmetry_equiv_pos_as_xyz
'x, y, z'
_cell_length_a     24.066164
_cell_length_b     24.064595
_cell_length_c     45.399547
_cell_angle_alpha  89.985522
_cell_angle_beta   90.004383
_cell_angle_gamma 120.0014
loop_
_atom_site_label
_atom_site_type_symbol
_atom_site_fract_x
_atom_site_fract_y
_atom_site_fract_z
_atom_type_partial_charge
Zn0 Zn 0.13325 0.2521 0.07664 0.0
Zn1 Zn 0.17532 0.37625 0.07335 0.0
O2 O 0.19301 0.35518 0.03106 0.0
O3 O 0.16164 0.25248 0.03542 0.0
O4 O 0.20065 0.46943 0.07165 0.0
O5 O 0.04318 0.23147 0.08558 0.0
O6 O 0.08076 0.33517 0.08664 0.0
C7 C 0.18593 0.30319 0.02012 0.0
C8 C 0.23256 0.32536 0.11854 0.0
O9 O 0.23302 0.37308 0.10615 0.0
O10 O 0.19431 0.26871 0.11004 0.0
C11 C 0.25774 0.51554 0.07462 0.0
O12 O 0.30528 0.50399 0.07774 0.0
C13 C 0.03399 0.27823 0.08988 0.0
Zn14 Zn 0.88635 0.12715 0.23636 0.0
Zn15 Zn 0.81067 0.17812 0.24415 0.0
O16 O 0.84161 0.20244 0.20122 0.0
O17 O 0.90458 0.16125 0.19491 0.0
O18 O 0.74735 0.20857 0.24938 0.0
O19 O 0.81316 0.03809 0.24536 0.0
O20 O 0.7545 0.08219 0.25436 0.0
C21 C 0.87959 0.19303 0.1852 0.0
C22 C 0.92822 0.22269 0.28299 0.0
O23 O 0.88013 0.22785 0.27521 0.0
O24 O 0.94087 0.18373 0.26999 0.0
C25 C 0.75169 0.25819 0.23731 0.0
O26 O 0.8016 0.29536 0.22088 0.0
C27 C 0.76009 0.0323 0.25333 0.0
Zn28 Zn 0.75424 0.884 0.39793 0.0
Zn29 Zn 0.63389 0.80829 0.40719 0.0
O30 O 0.63983 0.834 0.36289 0.0
O31 O 0.74167 0.90725 0.3575 0.0
O32 O 0.54264 0.73748 0.41222 0.0
O33 O 0.77936 0.81624 0.4039 0.0
O34 O 0.68565 0.76918 0.42557 0.0
C35 C 0.68557 0.87594 0.34716 0.0
C36 C 0.69602 0.92311 0.44467 0.0
O37 O 0.64292 0.87815 0.43495 0.0
O38 O 0.74869 0.93327 0.43358 0.0
C39 C 0.49476 0.74569 0.40912 0.0
O40 O 0.50373 0.80269 0.40239 0.0
C41 C 0.74092 0.77513 0.42199 0.0
Zn42 Zn 0.84409 0.7357 0.58246 0.0
Zn43 Zn 0.809 0.61249 0.57851 0.0
O44 O 0.79481 0.63274 0.53554 0.0
O45 O 0.82667 0.73569 0.53943 0.0
O46 O 0.78954 0.52102 0.57799 0.0
O47 O 0.93063 0.7582 0.59835 0.0
O48 O 0.90228 0.65653 0.5934 0.0
C49 C 0.8045 0.68521 0.52402 0.0
C50 C 0.74094 0.65788 0.62127 0.0
O51 O 0.74708 0.61246 0.61029 0.0
O52 O 0.775 0.71477 0.61206 0.0
C53 C 0.73441 0.47132 0.57612 0.0
O54 O 0.68313 0.47694 0.57331 0.0
C55 C 0.94286 0.7132 0.60157 0.0
Zn56 Zn 0.13241 0.90298 0.73456 0.0
Zn57 Zn 0.20231 0.84692 0.74521 0.0
O58 O 0.16563 0.81321 0.70388 0.0
O59 O 0.10876 0.86009 0.69489 0.0
O60 O 0.26219 0.81324 0.75241 0.0
O61 O 0.20905 0.99162 0.74016 0.0
O62 O 0.26299 0.94355 0.75135 0.0
C63 C 0.12835 0.82228 0.68721 0.0
C64 C 0.08898 0.81585 0.78478 0.0
O65 O 0.13494 0.80652 0.77785 0.0
O66 O 0.07825 0.85428 0.77006 0.0
C67 C 0.24851 0.75555 0.74847 0.0
O68 O 0.19087 0.71231 0.73964 0.0
C69 C 0.26101 0.99516 0.74835 0.0
Zn70 Zn 0.25951 0.11637 0.89375 0.0
Zn71 Zn 0.37817 0.19357 0.90586 0.0
O72 O 0.37773 0.17782 0.86077 0.0
O73 O 0.27807 0.10156 0.85277 0.0
O74 O 0.46812 0.26448 0.91349 0.0
O75 O 0.2316 0.18139 0.90145 0.0
O76 O 0.32338 0.22861 0.92488 0.0
C77 C 0.33453 0.13747 0.84356 0.0
C78 C 0.3151 0.07231 0.9394 0.0
O79 O 0.36835 0.1192 0.93091 0.0
O80 O 0.2629 0.06268 0.92796 0.0
C81 C 0.51731 0.26131 0.90599 0.0
O82 O 0.51052 0.20927 0.89325 0.0
C83 C 0.26776 0.22131 0.92052 0.0
Zn84 Zn 0.72736 0.82938 0.7672 0.0
Zn85 Zn 0.61018 0.79485 0.75794 0.0
O86 O 0.61534 0.78124 0.80301 0.0
O87 O 0.71262 0.79541 0.808 0.0
O88 O 0.5207 0.77903 0.75277 0.0
O89 O 0.75766 0.92357 0.76122 0.0
O90 O 0.66539 0.88455 0.73873 0.0
C91 C 0.65859 0.78027 0.81885 0.0
C92 C 0.66428 0.7306 0.72204 0.0
O93 O 0.61338 0.72742 0.732 0.0
O94 O 0.71858 0.77174 0.73226 0.0
C95 C 0.47276 0.734 0.76594 0.0
O96 O 0.48042 0.6946 0.78325 0.0
C97 C 0.72203 0.93105 0.74319 0.0
Zn98 Zn 0.86928 0.76695 0.9327 0.0
Zn99 Zn 0.8037 0.63989 0.92184 0.0
O100 O 0.83602 0.64441 0.96426 0.0
O101 O 0.89005 0.74839 0.9732 0.0
O102 O 0.74526 0.54571 0.9145 0.0
O103 O 0.79083 0.77512 0.92512 0.0
O104 O 0.7414 0.67308 0.91394 0.0
C105 C 0.87071 0.69123 0.98124 0.0
C106 C 0.91896 0.72597 0.88382 0.0
O107 O 0.87425 0.6697 0.89045 0.0
O108 O 0.92652 0.77433 0.89828 0.0
C109 C 0.74866 0.50023 0.92693 0.0
O110 O 0.79594 0.5128 0.94513 0.0
C111 C 0.74062 0.7254 0.91639 0.0
Zn112 Zn 0.13223 0.89111 0.08351 0.0
Zn113 Zn 0.17779 0.81168 0.08643 0.0
O114 O 0.19726 0.85177 0.12847 0.0
O115 O 0.16319 0.92103 0.12426 0.0
O116 O 0.2049 0.74506 0.0876 0.0
O117 O 0.04235 0.8195 0.07621 0.0
O118 O 0.0825 0.75555 0.07494 0.0
C119 C 0.18937 0.89621 0.13938 0.0
C120 C 0.22905 0.91816 0.04018 0.0
O121 O 0.23188 0.87221 0.05266 0.0
O122 O 0.19023 0.93542 0.04916 0.0
C123 C 0.26022 0.75487 0.08068 0.0
O124 O 0.30596 0.81273 0.07348 0.0
C125 C 0.03448 0.76392 0.0724 0.0
Zn126 Zn 0.26359 0.15991 0.2641 0.0
Zn127 Zn 0.38202 0.20049 0.25275 0.0
O128 O 0.38024 0.21617 0.29776 0.0
O129 O 0.28058 0.19359 0.30497 0.0
O130 O 0.47172 0.21814 0.24599 0.0
O131 O 0.23531 0.06671 0.25692 0.0
O132 O 0.32724 0.11073 0.23369 0.0
C133 C 0.3367 0.21384 0.31456 0.0
C134 C 0.32102 0.25953 0.21851 0.0
O135 O 0.37392 0.26554 0.22732 0.0
O136 O 0.26842 0.21708 0.22968 0.0
C137 C 0.52102 0.26943 0.25439 0.0
O138 O 0.51455 0.31458 0.26745 0.0
C139 C 0.27156 0.06254 0.23804 0.0
Zn140 Zn 0.1335 0.24293 0.42505 0.0
Zn141 Zn 0.20586 0.36905 0.42397 0.0
O142 O 0.17117 0.35335 0.46688 0.0
O143 O 0.10822 0.24837 0.46626 0.0
O144 O 0.26956 0.46336 0.42229 0.0
O145 O 0.20769 0.22892 0.4168 0.0
O146 O 0.26487 0.33323 0.41241 0.0
C147 C 0.13098 0.30142 0.47967 0.0
C148 C 0.09355 0.30222 0.38127 0.0
O149 O 0.13894 0.35433 0.39184 0.0
O150 O 0.08197 0.24851 0.39146 0.0
C151 C 0.25795 0.50922 0.42391 0.0
O152 O 0.19897 0.49747 0.42779 0.0
C153 C 0.26095 0.27849 0.41121 0.0
Zn154 Zn 0.86514 0.10374 0.59499 0.0
Zn155 Zn 0.82369 0.17784 0.59078 0.0
O156 O 0.80746 0.14734 0.63517 0.0
O157 O 0.82443 0.06578 0.63275 0.0
O158 O 0.80313 0.24921 0.58892 0.0
O159 O 0.95882 0.17178 0.59484 0.0
O160 O 0.91477 0.21945 0.57188 0.0
C161 C 0.80612 0.09858 0.64712 0.0
C162 C 0.77273 0.07075 0.54849 0.0
O163 O 0.76187 0.11124 0.56145 0.0
O164 O 0.81773 0.06189 0.55716 0.0
C165 C 0.7461 0.23937 0.58909 0.0
O166 O 0.69746 0.18067 0.59159 0.0
C167 C 0.96387 0.21374 0.57675 0.0
C168 C 0.27684 0.67096 0.10496 0.0
C169 C 0.27079 0.69954 0.07873 0.0
C170 C 0.26426 0.61098 0.04932 0.0
C171 C 0.26944 0.58196 0.07559 0.0
N172 N 0.29162 0.58777 0.12763 0.0
N173 N 0.26983 0.70426 0.0257 0.0
C174 C 0.27961 0.61334 0.10318 0.0
C175 C 0.26838 0.67201 0.05078 0.0
N176 N 0.27787 0.69805 0.1316 0.0
N177 N 0.2535 0.57909 0.02312 0.0
H178 H 0.27054 0.74794 0.02595 0.0
H179 H 0.27465 0.69033 0.00461 0.0
H180 H 0.25391 0.53611 0.02103 0.0
H181 H 0.24143 0.59331 0.00365 0.0
H182 H 0.27443 0.67614 0.1518 0.0
H183 H 0.27935 0.74198 0.13357 0.0
H184 H 0.30577 0.61114 0.14784 0.0
H185 H 0.29162 0.54445 0.12736 0.0
C186 C 0.65967 0.2668 0.21644 0.0
C187 C 0.69846 0.27161 0.24095 0.0
C188 C 0.6231 0.27991 0.27444 0.0
C189 C 0.58524 0.27687 0.24985 0.0
N190 N 0.57482 0.28317 0.19735 0.0
N191 N 0.72598 0.29791 0.29205 0.0
C192 C 0.60595 0.27533 0.22078 0.0
C193 C 0.68294 0.28305 0.26959 0.0
N194 N 0.67187 0.25047 0.18933 0.0
N195 N 0.60036 0.27607 0.30242 0.0
H196 H 0.77047 0.30102 0.28912 0.0
H197 H 0.72035 0.31307 0.31275 0.0
H198 H 0.55666 0.27343 0.30701 0.0
H199 H 0.62235 0.27042 0.32103 0.0
H200 H 0.64078 0.23876 0.17149 0.0
H201 H 0.71064 0.24367 0.18513 0.0
H202 H 0.59145 0.28894 0.17576 0.0
H203 H 0.5356 0.29013 0.19981 0.0
C204 C 0.38487 0.66579 0.39048 0.0
C205 C 0.42931 0.69103 0.41414 0.0
C206 C 0.35653 0.60109 0.44567 0.0
C207 C 0.31224 0.57574 0.42201 0.0
N208 N 0.27689 0.58931 0.37427 0.0
N209 N 0.45178 0.69235 0.46594 0.0
C210 C 0.32388 0.61022 0.39524 0.0
C211 C 0.41335 0.66153 0.4423 0.0
N212 N 0.40247 0.69245 0.36304 0.0
N213 N 0.34483 0.56656 0.47112 0.0
H214 H 0.49322 0.73721 0.46427 0.0
H215 H 0.43988 0.67655 0.48758 0.0
H216 H 0.30182 0.52414 0.47508 0.0
H217 H 0.37868 0.57814 0.48774 0.0
H218 H 0.37537 0.67193 0.34415 0.0
H219 H 0.44665 0.73307 0.35862 0.0
H220 H 0.27974 0.6157 0.35559 0.0
H221 H 0.23248 0.54767 0.37668 0.0
C222 C 0.74524 0.39288 0.60808 0.0
C223 C 0.72845 0.4076 0.58038 0.0
C224 C 0.7107 0.30529 0.56034 0.0
C225 C 0.73517 0.29454 0.58689 0.0
N226 N 0.77773 0.32776 0.63587 0.0
N227 N 0.69852 0.38108 0.52951 0.0
C228 C 0.75283 0.33819 0.61077 0.0
C229 C 0.71114 0.36425 0.55642 0.0
N230 N 0.7519 0.43029 0.63202 0.0
N231 N 0.68764 0.25939 0.53881 0.0
H232 H 0.69743 0.42335 0.52597 0.0
H233 H 0.69303 0.35546 0.51023 0.0
H234 H 0.68954 0.21713 0.54023 0.0
H235 H 0.66275 0.26094 0.52038 0.0
H236 H 0.75786 0.41892 0.65347 0.0
H237 H 0.74581 0.47023 0.63088 0.0
H238 H 0.79916 0.36158 0.65257 0.0
H239 H 0.77998 0.28611 0.63948 0.0
C240 C 0.38322 0.74656 0.78664 0.0
C241 C 0.40928 0.72881 0.76283 0.0
C242 C 0.32499 0.72117 0.72997 0.0
C243 C 0.29855 0.7383 0.75387 0.0
N244 N 0.29215 0.75195 0.80608 0.0
N245 N 0.39796 0.68497 0.71409 0.0
C246 C 0.32445 0.74606 0.78261 0.0
C247 C 0.37777 0.71146 0.73518 0.0
N248 N 0.41629 0.76718 0.81257 0.0
N249 N 0.30213 0.71777 0.70206 0.0
H250 H 0.43656 0.67732 0.71731 0.0
H251 H 0.37317 0.66532 0.69456 0.0
H252 H 0.26326 0.7241 0.69731 0.0
H253 H 0.32432 0.71307 0.6833 0.0
H254 H 0.4037 0.7881 0.82943 0.0
H255 H 0.45922 0.76767 0.81654 0.0
H256 H 0.30514 0.75152 0.82792 0.0
H257 H 0.2486 0.75116 0.80383 0.0
C258 C 0.62269 0.35153 0.88783 0.0
C259 C 0.58185 0.3168 0.91168 0.0
C260 C 0.65393 0.39973 0.94629 0.0
C261 C 0.69561 0.43372 0.92255 0.0
N262 N 0.72811 0.43534 0.87225 0.0
N263 N 0.56606 0.29881 0.96398 0.0
C264 C 0.68264 0.40734 0.89377 0.0
C265 C 0.59996 0.33808 0.94107 0.0
N266 N 0.60273 0.33347 0.85946 0.0
N267 N 0.6635 0.42777 0.97342 0.0
H268 H 0.5266 0.25303 0.96088 0.0
H269 H 0.58067 0.30891 0.98587 0.0
H270 H 0.70217 0.47298 0.9783 0.0
H271 H 0.63035 0.40844 0.99053 0.0
H272 H 0.6271 0.36119 0.8412 0.0
H273 H 0.5591 0.29306 0.85408 0.0
H274 H 0.72423 0.41494 0.85158 0.0
H275 H 0.77268 0.47608 0.87603 0.0
C276 C 0.28516 0.33181 0.19728 0.0
C277 C 0.31881 0.29794 0.19352 0.0
C278 C 0.32084 0.31432 0.14021 0.0
C279 C 0.27482 0.33387 0.14375 0.0
N280 N 0.21509 0.36575 0.17524 0.0
N281 N 0.37003 0.25696 0.16112 0.0
C282 C 0.25875 0.34561 0.1722 0.0
C283 C 0.33882 0.2908 0.16497 0.0
N284 N 0.27823 0.35002 0.22491 0.0
N285 N 0.34608 0.31722 0.11292 0.0
H286 H 0.3845 0.23874 0.17842 0.0
H287 H 0.37829 0.24337 0.14055 0.0
H288 H 0.33305 0.3344 0.09459 0.0
H289 H 0.38402 0.30899 0.10908 0.0
H290 H 0.25854 0.37914 0.2291 0.0
H291 H 0.29796 0.34078 0.24347 0.0
H292 H 0.19519 0.36749 0.19534 0.0
H293 H 0.19658 0.37829 0.15729 0.0
C294 C 0.94384 0.24816 0.33715 0.0
C295 C 0.9692 0.26007 0.30811 0.0
C296 C 0.07886 0.31687 0.32762 0.0
C297 C 0.05342 0.30222 0.35658 0.0
N298 N 0.96448 0.27294 0.38924 0.0
N299 N 0.05819 0.32139 0.27555 0.0
C300 C 0.98663 0.27447 0.36137 0.0
C301 C 0.03603 0.29995 0.30335 0.0
N302 N 0.87969 0.20796 0.34177 0.0
N303 N 0.14334 0.34299 0.32322 0.0
H304 H 0.02746 0.31005 0.25751 0.0
H305 H 0.10575 0.35501 0.27084 0.0
H306 H 0.17629 0.35748 0.34046 0.0
H307 H 0.16393 0.34727 0.30257 0.0
H308 H 0.85977 0.19126 0.3625 0.0
H309 H 0.84643 0.18767 0.32475 0.0
H310 H 0.91684 0.25853 0.39403 0.0
H311 H 0.99534 0.29232 0.40725 0.0
C312 C 0.69554 0.96786 0.52471 0.0
C313 C 0.73542 0.0351 0.5224 0.0
C314 C 0.72648 0.02766 0.46865 0.0
C315 C 0.69789 0.96015 0.47098 0.0
N316 N 0.65541 0.86459 0.50113 0.0
N317 N 0.7883 0.1309 0.49275 0.0
C318 C 0.68093 0.92957 0.49896 0.0
C319 C 0.74959 0.06581 0.49452 0.0
N320 N 0.67232 0.94095 0.55167 0.0
N321 N 0.73142 0.05488 0.44165 0.0
H322 H 0.8044 0.16043 0.51128 0.0
H323 H 0.80698 0.15544 0.47307 0.0
H324 H 0.71431 0.02752 0.42247 0.0
H325 H 0.74686 0.10332 0.43855 0.0
H326 H 0.63828 0.89278 0.55469 0.0
H327 H 0.68263 0.96852 0.57079 0.0
H328 H 0.64963 0.84078 0.52102 0.0
H329 H 0.64356 0.83439 0.48293 0.0
C330 C 0.65363 0.66858 0.64417 0.0
C331 C 0.69892 0.64785 0.64689 0.0
C332 C 0.69375 0.65357 0.70058 0.0
C333 C 0.66203 0.68941 0.69724 0.0
N334 N 0.60939 0.73009 0.6656 0.0
N335 N 0.75969 0.61571 0.6777 0.0
C336 C 0.63942 0.69503 0.66907 0.0
C337 C 0.71686 0.63702 0.67516 0.0
N338 N 0.62594 0.66444 0.6174 0.0
N339 N 0.70213 0.63617 0.72815 0.0
H340 H 0.7758 0.6008 0.65972 0.0
H341 H 0.78127 0.61519 0.6975 0.0
H342 H 0.68488 0.64749 0.74697 0.0
H343 H 0.72024 0.60559 0.7321 0.0
H344 H 0.58855 0.67379 0.61417 0.0
H345 H 0.63646 0.6452 0.59902 0.0
H346 H 0.59928 0.74241 0.64511 0.0
H347 H 0.59773 0.7504 0.68305 0.0
C348 C 0.02914 0.76746 0.86344 0.0
C349 C 0.96201 0.73661 0.85852 0.0
C350 C 0.98032 0.74133 0.80525 0.0
C351 C 0.04697 0.78196 0.81018 0.0
N352 N 0.13557 0.8376 0.84393 0.0
N353 N 0.87281 0.69799 0.82464 0.0
C354 C 0.07187 0.79535 0.83928 0.0
C355 C 0.93715 0.72356 0.82939 0.0
N356 N 0.05184 0.76939 0.89125 0.0
N357 N 0.95852 0.7192 0.77748 0.0
H358 H 0.83931 0.68432 0.8416 0.0
H359 H 0.85303 0.69474 0.80387 0.0
H360 H 0.98918 0.73087 0.7594 0.0
H361 H 0.91127 0.68449 0.77289 0.0
H362 H 0.02153 0.74861 0.90931 0.0
H363 H 0.09996 0.78584 0.89594 0.0
H364 H 0.15498 0.85509 0.86466 0.0
H365 H 0.16859 0.85902 0.82689 0.0
C366 C 0.31555 0.01781 0.01785 0.0
C367 C 0.26973 0.95213 0.01456 0.0
C368 C 0.27809 0.96401 0.96095 0.0
C369 C 0.31205 0.03161 0.96454 0.0
N370 N 0.36295 0.12411 0.99683 0.0
N371 N 0.20883 0.86021 0.98341 0.0
C372 C 0.33245 0.05905 0.99304 0.0
C373 C 0.25254 0.92407 0.98618 0.0
N374 N 0.34174 0.04057 0.04495 0.0
N375 N 0.27019 0.9385 0.93335 0.0
H376 H 0.19104 0.82938 0.00147 0.0
H377 H 0.18815 0.83834 0.96345 0.0
H378 H 0.2893 0.96716 0.91465 0.0
H379 H 0.25026 0.88963 0.92925 0.0
H380 H 0.37971 0.08688 0.04852 0.0
H381 H 0.32956 0.01066 0.06336 0.0
H382 H 0.37143 0.14598 0.01741 0.0
H383 H 0.37618 0.15674 0.97956 0.0
C384 C 0.15706 0.24474 0.97299 0.0
C385 C 0.20273 0.29831 0.98913 0.0
C386 C 0.2834 0.31446 0.95202 0.0
C387 C 0.24213 0.25144 0.94111 0.0
N388 N 0.14072 0.15111 0.94704 0.0
N389 N 0.3117 0.38571 0.99403 0.0
C390 C 0.17857 0.21529 0.95259 0.0
C391 C 0.26646 0.33462 0.9784 0.0
N392 N 0.09316 0.22014 0.97834 0.0
N393 N 0.33829 0.35502 0.93714 0.0
H394 H 0.3011 0.40277 0.01306 0.0
H395 H 0.36044 0.40881 0.98896 0.0
H396 H 0.35052 0.34246 0.91717 0.0
H397 H 0.36753 0.40306 0.94288 0.0
H398 H 0.05754 0.18369 0.96558 0.0
H399 H 0.07649 0.24137 0.99335 0.0
H400 H 0.0965 0.12299 0.9573 0.0
H401 H 0.15587 0.12349 0.93576 0.0
C402 C 0.8832 0.1785 0.13104 0.0
C403 C 0.89761 0.22072 0.15529 0.0
C404 C 0.97375 0.31046 0.12476 0.0
C405 C 0.97307 0.26545 0.10455 0.0
N406 N 0.90808 0.16478 0.08039 0.0
N407 N 0.95127 0.32867 0.17471 0.0
C408 C 0.92078 0.20183 0.10499 0.0
C409 C 0.93983 0.28768 0.15173 0.0
N410 N 0.83598 0.11584 0.13379 0.0
N411 N 0.00525 0.37414 0.11782 0.0
H412 H 0.92634 0.31405 0.19457 0.0
H413 H 0.98763 0.37654 0.17456 0.0
H414 H 0.02483 0.39045 0.09695 0.0
H415 H 0.00422 0.40909 0.13095 0.0
H416 H 0.826 0.08057 0.11811 0.0
H417 H 0.80634 0.09912 0.15231 0.0
H418 H 0.86982 0.11819 0.07834 0.0
H419 H 0.93408 0.18359 0.06095 0.0
C420 C 0.66473 0.97048 0.28685 0.0
C421 C 0.71078 0.97078 0.26736 0.0
C422 C 0.70491 0.879 0.29324 0.0
C423 C 0.6748 0.89175 0.31702 0.0
N424 N 0.61657 0.94184 0.33546 0.0
N425 N 0.74382 0.90395 0.24273 0.0
C426 C 0.64991 0.93369 0.31317 0.0
C427 C 0.72056 0.91748 0.26745 0.0
N428 N 0.63434 0.00363 0.27968 0.0
N429 N 0.72183 0.83294 0.2963 0.0
H430 H 0.75126 0.93 0.22329 0.0
H431 H 0.74945 0.86402 0.24049 0.0
H432 H 0.70805 0.80265 0.31462 0.0
H433 H 0.75009 0.82551 0.28126 0.0
H434 H 0.59748 0.00246 0.29216 0.0
H435 H 0.64063 0.02553 0.25915 0.0
H436 H 0.60419 0.97757 0.33552 0.0
H437 H 0.60319 0.91386 0.35451 0.0
C438 C 0.73081 0.65684 0.47978 0.0
C439 C 0.79302 0.69087 0.49232 0.0
C440 C 0.82562 0.77533 0.45564 0.0
C441 C 0.76316 0.74198 0.44268 0.0
N442 N 0.66532 0.64065 0.43647 0.0
N443 N 0.90484 0.76535 0.48441 0.0
C444 C 0.71873 0.67904 0.45274 0.0
C445 C 0.84227 0.7436 0.4771 0.0
N446 N 0.68242 0.60604 0.49433 0.0
N447 N 0.86686 0.83911 0.45048 0.0
H448 H 0.91774 0.74253 0.50035 0.0
H449 H 0.94313 0.80091 0.47244 0.0
H450 H 0.85584 0.86863 0.43813 0.0
H451 H 0.90998 0.86531 0.46185 0.0
H452 H 0.63453 0.58464 0.48787 0.0
H453 H 0.68965 0.58746 0.51374 0.0
H454 H 0.63382 0.59271 0.44163 0.0
H455 H 0.65667 0.65481 0.41605 0.0
C456 C 0.10715 0.8138 0.63317 0.0
C457 C 0.09948 0.78281 0.66057 0.0
C458 C 0.99652 0.69316 0.64491 0.0
C459 C 0.00136 0.72673 0.61827 0.0
N460 N 0.06936 0.80618 0.58289 0.0
N461 N 0.05174 0.68334 0.6875 0.0
C462 C 0.0599 0.7827 0.61095 0.0
C463 C 0.04962 0.71875 0.66447 0.0
N464 N 0.15805 0.87414 0.62913 0.0
N465 N 0.93983 0.64077 0.65317 0.0
H466 H 0.08999 0.70098 0.70223 0.0
H467 H 0.01944 0.63446 0.68994 0.0
H468 H 0.89881 0.61931 0.64019 0.0
H469 H 0.93183 0.62076 0.67418 0.0
H470 H 0.16288 0.90283 0.61104 0.0
H471 H 0.1947 0.89604 0.6447 0.0
H472 H 0.11259 0.84436 0.57548 0.0
H473 H 0.03536 0.78312 0.5663 0.0
C474 C 0.37485 0.08898 0.80692 0.0
C475 C 0.34872 0.12914 0.81279 0.0
C476 C 0.30335 0.10975 0.76324 0.0
C477 C 0.31278 0.05641 0.76141 0.0
N478 N 0.38856 0.02149 0.77108 0.0
N479 N 0.30157 0.19022 0.79501 0.0
C480 C 0.35945 0.05494 0.7798 0.0
C481 C 0.31883 0.14495 0.79001 0.0
N482 N 0.40956 0.0796 0.82811 0.0
N483 N 0.27968 0.12575 0.73943 0.0
H484 H 0.31493 0.21773 0.81424 0.0
H485 H 0.27364 0.1997 0.78064 0.0
H486 H 0.27177 0.10151 0.71941 0.0
H487 H 0.274 0.16584 0.73857 0.0
H488 H 0.42357 0.04519 0.82663 0.0
H489 H 0.42296 0.10576 0.84771 0.0
H490 H 0.42555 0.02093 0.78271 0.0
H491 H 0.37997 1.00017 0.75029 0.0
C492 C 0.67746 0.80943 0.8718 0.0
C493 C 0.64755 0.76112 0.85009 0.0
C494 C 0.64159 0.68092 0.88487 0.0
C495 C 0.68775 0.73174 0.90236 0.0
N496 N 0.71752 0.83539 0.9221 0.0
N497 N 0.58923 0.64932 0.83711 0.0
C498 C 0.69481 0.79338 0.89908 0.0
C499 C 0.62398 0.69587 0.85737 0.0
N500 N 0.69298 0.87094 0.86534 0.0
N501 N 0.61487 0.61938 0.89486 0.0
H502 H 0.57426 0.65959 0.81728 0.0
H503 H 0.57674 0.60146 0.83958 0.0
H504 H 0.62477 0.60925 0.91595 0.0
H505 H 0.57844 0.57997 0.88392 0.0
H506 H 0.72107 0.91009 0.87883 0.0
H507 H 0.67827 0.88253 0.84577 0.0
H508 H 0.72118 0.88034 0.92186 0.0
H509 H 0.72626 0.82165 0.94262 0.0
C510 C 0.87746 0.70517 0.03569 0.0
C511 C 0.89214 0.68086 0.01022 0.0
C512 C 0.9739 0.67111 0.03796 0.0
C513 C 0.97286 0.71363 0.05912 0.0
N514 N 0.90832 0.74654 0.08572 0.0
N515 N 0.94976 0.63348 0.98765 0.0
C516 C 0.91866 0.72183 0.06061 0.0
C517 C 0.93759 0.65967 0.01176 0.0
N518 N 0.8259 0.71445 0.03521 0.0
N519 N 0.00849 0.64132 0.04318 0.0
H520 H 0.92344 0.62306 0.96821 0.0
H521 H 0.98812 0.625 0.98649 0.0
H522 H 0.03037 0.6449 0.06348 0.0
H523 H 0.00796 0.60667 0.02925 0.0
H524 H 0.81304 0.73432 0.05238 0.0
H525 H 0.7944 0.70016 0.01734 0.0
H526 H 0.87072 0.75551 0.08878 0.0
H527 H 0.93698 0.75519 0.10437 0.0
C528 C 0.16098 0.92595 0.18657 0.0
C529 C 0.20684 0.91878 0.17021 0.0
C530 C 0.28793 0.98513 0.20679 0.0
C531 C 0.24616 0.00625 0.21775 0.0
N532 N 0.14359 0.00295 0.21211 0.0
N533 N 0.31635 0.94235 0.16476 0.0
C534 C 0.18221 0.97748 0.20662 0.0
C535 C 0.27093 0.94752 0.18058 0.0
N536 N 0.0971 0.88543 0.18172 0.0
N537 N 0.34328 0.00045 0.22148 0.0
H538 H 0.30573 0.91437 0.14584 0.0
H539 H 0.36518 0.96886 0.16958 0.0
H540 H 0.35549 0.02539 0.24141 0.0
H541 H 0.37295 0.98221 0.21567 0.0
H542 H 0.0615 0.88586 0.19466 0.0
H543 H 0.08064 0.8471 0.16697 0.0
H544 H 0.09894 0.98567 0.2021 0.0
H545 H 0.15835 0.04609 0.223 0.0
C546 C 0.32129 0.19001 0.36804 0.0
C547 C 0.35 0.23617 0.34535 0.0
C548 C 0.35839 0.31977 0.37863 0.0
C549 C 0.31282 0.27074 0.39706 0.0
N550 N 0.28141 0.16818 0.41849 0.0
N551 N 0.40732 0.34672 0.33008 0.0
C552 C 0.30483 0.20853 0.39489 0.0
C553 C 0.37406 0.30211 0.35132 0.0
N554 N 0.30601 0.12808 0.36286 0.0
N555 N 0.38686 0.38216 0.38756 0.0
H556 H 0.42106 0.33475 0.31036 0.0
H557 H 0.41956 0.39468 0.33163 0.0
H558 H 0.37941 0.39443 0.40865 0.0
H559 H 0.42305 0.42018 0.3758 0.0
H560 H 0.27911 0.09017 0.37716 0.0
H561 H 0.32011 0.11488 0.34356 0.0
H562 H 0.27659 0.12276 0.41916 0.0
H563 H 0.27241 0.18353 0.43854 0.0
C564 C 0.10872 0.2506 0.52841 0.0
C565 C 0.1105 0.29946 0.51065 0.0
C566 C 0.03896 0.30934 0.54587 0.0
C567 C 0.02205 0.248 0.55765 0.0
N568 N 0.03705 0.15463 0.55434 0.0
N569 N 0.07805 0.37845 0.50299 0.0
C570 C 0.05686 0.21744 0.54806 0.0
C571 C 0.07693 0.3309 0.5198 0.0
N572 N 0.15419 0.23308 0.52488 0.0
N573 N 0.01924 0.34695 0.5596 0.0
H574 H 0.10661 0.39678 0.48429 0.0
H575 H 0.04808 0.39733 0.50692 0.0
H576 H 0.9944 0.33388 0.57956 0.0
H577 H 0.03406 0.39384 0.55305 0.0
H578 H 0.15758 0.20039 0.53879 0.0
H579 H 0.19228 0.25686 0.51012 0.0
H580 H 0.05925 0.13075 0.54541 0.0
H581 H 0.9941 0.123 0.56458 0.0
C582 C 0.70724 0.01204 0.71382 0.0
C583 C 0.74859 0.98984 0.72432 0.0
C584 C 0.83511 0.07389 0.69497 0.0
C585 C 0.78968 0.0812 0.67846 0.0
N586 N 0.68143 0.05983 0.67272 0.0
N587 N 0.85262 0.99563 0.71917 0.0
C588 C 0.72548 0.05209 0.68837 0.0
C589 C 0.81346 0.02066 0.71407 0.0
N590 N 0.65129 0.9955 0.72822 0.0
N591 N 0.89897 0.11498 0.69045 0.0
H592 H 0.83797 0.95137 0.7289 0.0
H593 H 0.89811 0.01479 0.70982 0.0
H594 H 0.91515 0.15357 0.67584 0.0
H595 H 0.93454 0.11455 0.70341 0.0
H596 H 0.62168 0.01395 0.72262 0.0
H597 H 0.63848 0.96929 0.7478 0.0
H598 H 0.63232 0.03361 0.67695 0.0
H599 H 0.69422 0.09069 0.65468 0.0
loop_
_geom_bond_atom_site_label_1
_geom_bond_atom_site_label_2
_geom_bond_distance
_geom_bond_site_symmetry_2
_ccdc_geom_bond_type
Zn0 O3 2.031 . S
Zn0 O5 2.049 . S
Zn0 O10 2.067 . S
Zn1 O2 1.962 . S
Zn1 O4 1.986 . S
Zn1 O6 1.996 . S
Zn1 O9 1.943 . S
O2 Zn1 1.962 . S
O2 C7 1.254 . S
O3 Zn0 2.031 . S
O3 C7 1.269 . S
O4 Zn1 1.986 . S
O4 C11 1.262 . S
O5 Zn0 2.049 . S
O5 C13 1.260 . S
O6 Zn1 1.996 . S
O6 C13 1.257 . S
C7 O2 1.254 . S
C7 O3 1.269 . S
C8 O9 1.249 . S
C8 O10 1.270 . S
O9 Zn1 1.943 . S
O9 C8 1.249 . S
O10 Zn0 2.067 . S
O10 C8 1.270 . S
C11 O4 1.262 . S
C11 O12 1.232 . S
O12 C11 1.232 . S
C13 O5 1.260 . S
C13 O6 1.257 . S
Zn14 O17 2.031 . S
Zn14 O19 2.049 . S
Zn14 O24 2.067 . S
Zn15 O16 1.962 . S
Zn15 O18 1.986 . S
Zn15 O20 1.996 . S
Zn15 O23 1.943 . S
O16 Zn15 1.962 . S
O16 C21 1.254 . S
O17 Zn14 2.031 . S
O17 C21 1.269 . S
O18 Zn15 1.986 . S
O18 C25 1.262 . S
O19 Zn14 2.049 . S
O19 C27 1.260 . S
O20 Zn15 1.996 . S
O20 C27 1.257 . S
C21 O16 1.254 . S
C21 O17 1.269 . S
C22 O23 1.249 . S
C22 O24 1.270 . S
O23 Zn15 1.943 . S
O23 C22 1.249 . S
O24 Zn14 2.067 . S
O24 C22 1.270 . S
C25 O18 1.262 . S
C25 O26 1.232 . S
O26 C25 1.232 . S
C27 O19 1.260 . S
C27 O20 1.257 . S
Zn28 O31 2.031 . S
Zn28 O33 2.049 . S
Zn28 O38 2.067 . S
Zn29 O30 1.962 . S
Zn29 O32 1.986 . S
Zn29 O34 1.996 . S
Zn29 O37 1.943 . S
O30 Zn29 1.962 . S
O30 C35 1.254 . S
O31 Zn28 2.031 . S
O31 C35 1.269 . S
O32 Zn29 1.986 . S
O32 C39 1.262 . S
O33 Zn28 2.049 . S
O33 C41 1.260 . S
O34 Zn29 1.996 . S
O34 C41 1.257 . S
C35 O30 1.254 . S
C35 O31 1.269 . S
C36 O37 1.249 . S
C36 O38 1.270 . S
O37 Zn29 1.943 . S
O37 C36 1.249 . S
O38 Zn28 2.067 . S
O38 C36 1.270 . S
C39 O32 1.262 . S
C39 O40 1.232 . S
O40 C39 1.232 . S
C41 O33 1.260 . S
C41 O34 1.257 . S
Zn42 O45 2.031 . S
Zn42 O47 2.049 . S
Zn42 O52 2.067 . S
Zn43 O44 1.962 . S
Zn43 O46 1.986 . S
Zn43 O48 1.996 . S
Zn43 O51 1.943 . S
O44 Zn43 1.962 . S
O44 C49 1.254 . S
O45 Zn42 2.031 . S
O45 C49 1.269 . S
O46 Zn43 1.986 . S
O46 C53 1.262 . S
O47 Zn42 2.049 . S
O47 C55 1.260 . S
O48 Zn43 1.996 . S
O48 C55 1.257 . S
C49 O44 1.254 . S
C49 O45 1.269 . S
C50 O51 1.249 . S
C50 O52 1.270 . S
O51 Zn43 1.943 . S
O51 C50 1.249 . S
O52 Zn42 2.067 . S
O52 C50 1.270 . S
C53 O46 1.262 . S
C53 O54 1.232 . S
O54 C53 1.232 . S
C55 O47 1.260 . S
C55 O48 1.257 . S
Zn56 O59 2.031 . S
Zn56 O61 2.049 . S
Zn56 O66 2.067 . S
Zn57 O58 1.962 . S
Zn57 O60 1.986 . S
Zn57 O62 1.996 . S
Zn57 O65 1.943 . S
O58 Zn57 1.962 . S
O58 C63 1.254 . S
O59 Zn56 2.031 . S
O59 C63 1.269 . S
O60 Zn57 1.986 . S
O60 C67 1.262 . S
O61 Zn56 2.049 . S
O61 C69 1.260 . S
O62 Zn57 1.996 . S
O62 C69 1.257 . S
C63 O58 1.254 . S
C63 O59 1.269 . S
C64 O65 1.249 . S
C64 O66 1.270 . S
O65 Zn57 1.943 . S
O65 C64 1.249 . S
O66 Zn56 2.067 . S
O66 C64 1.270 . S
C67 O60 1.262 . S
C67 O68 1.232 . S
O68 C67 1.232 . S
C69 O61 1.260 . S
C69 O62 1.257 . S
Zn70 O73 2.031 . S
Zn70 O75 2.049 . S
Zn70 O80 2.067 . S
Zn71 O72 1.962 . S
Zn71 O74 1.986 . S
Zn71 O76 1.996 . S
Zn71 O79 1.943 . S
O72 Zn71 1.962 . S
O72 C77 1.254 . S
O73 Zn70 2.031 . S
O73 C77 1.269 . S
O74 Zn71 1.986 . S
O74 C81 1.262 . S
O75 Zn70 2.049 . S
O75 C83 1.260 . S
O76 Zn71 1.996 . S
O76 C83 1.257 . S
C77 O72 1.254 . S
C77 O73 1.269 . S
C78 O79 1.249 . S
C78 O80 1.270 . S
O79 Zn71 1.943 . S
O79 C78 1.249 . S
O80 Zn70 2.067 . S
O80 C78 1.270 . S
C81 O74 1.262 . S
C81 O82 1.232 . S
O82 C81 1.232 . S
C83 O75 1.260 . S
C83 O76 1.257 . S
Zn84 O87 2.031 . S
Zn84 O89 2.049 . S
Zn84 O94 2.067 . S
Zn85 O86 1.962 . S
Zn85 O88 1.986 . S
Zn85 O90 1.996 . S
Zn85 O93 1.943 . S
O86 Zn85 1.962 . S
O86 C91 1.254 . S
O87 Zn84 2.031 . S
O87 C91 1.269 . S
O88 Zn85 1.986 . S
O88 C95 1.262 . S
O89 Zn84 2.049 . S
O89 C97 1.260 . S
O90 Zn85 1.996 . S
O90 C97 1.257 . S
C91 O86 1.254 . S
C91 O87 1.269 . S
C92 O93 1.249 . S
C92 O94 1.270 . S
O93 Zn85 1.943 . S
O93 C92 1.249 . S
O94 Zn84 2.067 . S
O94 C92 1.270 . S
C95 O88 1.262 . S
C95 O96 1.232 . S
O96 C95 1.232 . S
C97 O89 1.260 . S
C97 O90 1.257 . S
Zn98 O101 2.031 . S
Zn98 O103 2.049 . S
Zn98 O108 2.067 . S
Zn99 O100 1.962 . S
Zn99 O102 1.986 . S
Zn99 O104 1.996 . S
Zn99 O107 1.943 . S
O100 Zn99 1.962 . S
O100 C105 1.254 . S
O101 Zn98 2.031 . S
O101 C105 1.269 . S
O102 Zn99 1.986 . S
O102 C109 1.262 . S
O103 Zn98 2.049 . S
O103 C111 1.260 . S
O104 Zn99 1.996 . S
O104 C111 1.257 . S
C105 O100 1.254 . S
C105 O101 1.269 . S
C106 O107 1.249 . S
C106 O108 1.270 . S
O107 Zn99 1.943 . S
O107 C106 1.249 . S
O108 Zn98 2.067 . S
O108 C106 1.270 . S
C109 O102 1.262 . S
C109 O110 1.232 . S
O110 C109 1.232 . S
C111 O103 1.260 . S
C111 O104 1.257 . S
Zn112 O115 2.031 . S
Zn112 O117 2.049 . S
Zn112 O122 2.067 . S
Zn113 O114 1.962 . S
Zn113 O116 1.986 . S
Zn113 O118 1.996 . S
Zn113 O121 1.943 . S
O114 Zn113 1.962 . S
O114 C119 1.254 . S
O115 Zn112 2.031 . S
O115 C119 1.269 . S
O116 Zn113 1.986 . S
O116 C123 1.262 . S
O117 Zn112 2.049 . S
O117 C125 1.260 . S
O118 Zn113 1.996 . S
O118 C125 1.257 . S
C119 O114 1.254 . S
C119 O115 1.269 . S
C120 O121 1.249 . S
C120 O122 1.270 . S
O121 Zn113 1.943 . S
O121 C120 1.249 . S
O122 Zn112 2.067 . S
O122 C120 1.270 . S
C123 O116 1.262 . S
C123 O124 1.232 . S
O124 C123 1.232 . S
C125 O117 1.260 . S
C125 O118 1.257 . S
Zn126 O129 2.031 . S
Zn126 O131 2.049 . S
Zn126 O136 2.067 . S
Zn127 O128 1.962 . S
Zn127 O130 1.986 . S
Zn127 O132 1.996 . S
Zn127 O135 1.943 . S
O128 Zn127 1.962 . S
O128 C133 1.254 . S
O129 Zn126 2.031 . S
O129 C133 1.269 . S
O130 Zn127 1.986 . S
O130 C137 1.262 . S
O131 Zn126 2.049 . S
O131 C139 1.260 . S
O132 Zn127 1.996 . S
O132 C139 1.257 . S
C133 O128 1.254 . S
C133 O129 1.269 . S
C134 O135 1.249 . S
C134 O136 1.270 . S
O135 Zn127 1.943 . S
O135 C134 1.249 . S
O136 Zn126 2.067 . S
O136 C134 1.270 . S
C137 O130 1.262 . S
C137 O138 1.232 . S
O138 C137 1.232 . S
C139 O131 1.260 . S
C139 O132 1.257 . S
Zn140 O143 2.031 . S
Zn140 O145 2.049 . S
Zn140 O150 2.067 . S
Zn141 O142 1.962 . S
Zn141 O144 1.986 . S
Zn141 O146 1.996 . S
Zn141 O149 1.943 . S
O142 Zn141 1.962 . S
O142 C147 1.254 . S
O143 Zn140 2.031 . S
O143 C147 1.269 . S
O144 Zn141 1.986 . S
O144 C151 1.262 . S
O145 Zn140 2.049 . S
O145 C153 1.260 . S
O146 Zn141 1.996 . S
O146 C153 1.257 . S
C147 O142 1.254 . S
C147 O143 1.269 . S
C148 O149 1.249 . S
C148 O150 1.270 . S
O149 Zn141 1.943 . S
O149 C148 1.249 . S
O150 Zn140 2.067 . S
O150 C148 1.270 . S
C151 O144 1.262 . S
C151 O152 1.232 . S
O152 C151 1.232 . S
C153 O145 1.260 . S
C153 O146 1.257 . S
Zn154 O157 2.031 . S
Zn154 O159 2.049 . S
Zn154 O164 2.067 . S
Zn155 O156 1.962 . S
Zn155 O158 1.986 . S
Zn155 O160 1.996 . S
Zn155 O163 1.943 . S
O156 Zn155 1.962 . S
O156 C161 1.254 . S
O157 Zn154 2.031 . S
O157 C161 1.269 . S
O158 Zn155 1.986 . S
O158 C165 1.262 . S
O159 Zn154 2.049 . S
O159 C167 1.260 . S
O160 Zn155 1.996 . S
O160 C167 1.257 . S
C161 O156 1.254 . S
C161 O157 1.269 . S
C162 O163 1.249 . S
C162 O164 1.270 . S
O163 Zn155 1.943 . S
O163 C162 1.249 . S
O164 Zn154 2.067 . S
O164 C162 1.270 . S
C165 O158 1.262 . S
C165 O166 1.232 . S
O166 C165 1.232 . S
C167 O159 1.260 . S
C167 O160 1.257 . S
C168 C169 1.363 . S
C168 C174 1.379 . S
C168 N176 1.356 . S
C169 C168 1.363 . S
C169 C175 1.363 . S
C170 C171 1.363 . S
C170 C175 1.379 . S
C170 N177 1.356 . S
C171 C170 1.363 . S
C171 C174 1.363 . S
N172 C174 1.356 . S
N172 H184 0.984 . S
N172 H185 0.985 . S
N173 C175 1.356 . S
N173 H178 0.984 . S
N173 H179 0.985 . S
C174 C168 1.379 . S
C174 C171 1.363 . S
C174 N172 1.356 . S
C175 C169 1.363 . S
C175 C170 1.379 . S
C175 N173 1.356 . S
N176 C168 1.356 . S
N176 H182 0.984 . S
N176 H183 0.984 . S
N177 C170 1.356 . S
N177 H180 0.984 . S
N177 H181 0.985 . S
H178 N173 0.984 . S
H179 N173 0.985 . S
H180 N177 0.984 . S
H181 N177 0.985 . S
H182 N176 0.984 . S
H183 N176 0.984 . S
H184 N172 0.984 . S
H185 N172 0.985 . S
C186 C187 1.363 . S
C186 C192 1.379 . S
C186 N194 1.356 . S
C187 C186 1.363 . S
C187 C193 1.363 . S
C188 C189 1.363 . S
C188 C193 1.379 . S
C188 N195 1.356 . S
C189 C188 1.363 . S
C189 C192 1.363 . S
N190 C192 1.356 . S
N190 H202 0.984 . S
N190 H203 0.985 . S
N191 C193 1.356 . S
N191 H196 0.984 . S
N191 H197 0.985 . S
C192 C186 1.379 . S
C192 C189 1.363 . S
C192 N190 1.356 . S
C193 C187 1.363 . S
C193 C188 1.379 . S
C193 N191 1.356 . S
N194 C186 1.356 . S
N194 H200 0.984 . S
N194 H201 0.984 . S
N195 C188 1.356 . S
N195 H198 0.984 . S
N195 H199 0.985 . S
H196 N191 0.984 . S
H197 N191 0.985 . S
H198 N195 0.984 . S
H199 N195 0.985 . S
H200 N194 0.984 . S
H201 N194 0.984 . S
H202 N190 0.984 . S
H203 N190 0.985 . S
C204 C205 1.363 . S
C204 C210 1.379 . S
C204 N212 1.356 . S
C205 C204 1.363 . S
C205 C211 1.363 . S
C206 C207 1.363 . S
C206 C211 1.379 . S
C206 N213 1.356 . S
C207 C206 1.363 . S
C207 C210 1.363 . S
N208 C210 1.356 . S
N208 H220 0.984 . S
N208 H221 0.985 . S
N209 C211 1.356 . S
N209 H214 0.984 . S
N209 H215 0.985 . S
C210 C204 1.379 . S
C210 C207 1.363 . S
C210 N208 1.356 . S
C211 C205 1.363 . S
C211 C206 1.379 . S
C211 N209 1.356 . S
N212 C204 1.356 . S
N212 H218 0.984 . S
N212 H219 0.984 . S
N213 C206 1.356 . S
N213 H216 0.984 . S
N213 H217 0.985 . S
H214 N209 0.984 . S
H215 N209 0.985 . S
H216 N213 0.984 . S
H217 N213 0.985 . S
H218 N212 0.984 . S
H219 N212 0.984 . S
H220 N208 0.984 . S
H221 N208 0.985 . S
C222 C223 1.363 . S
C222 C228 1.379 . S
C222 N230 1.356 . S
C223 C222 1.363 . S
C223 C229 1.363 . S
C224 C225 1.363 . S
C224 C229 1.379 . S
C224 N231 1.356 . S
C225 C224 1.363 . S
C225 C228 1.363 . S
N226 C228 1.356 . S
N226 H238 0.984 . S
N226 H239 0.985 . S
N227 C229 1.356 . S
N227 H232 0.984 . S
N227 H233 0.985 . S
C228 C222 1.379 . S
C228 C225 1.363 . S
C228 N226 1.356 . S
C229 C223 1.363 . S
C229 C224 1.379 . S
C229 N227 1.356 . S
N230 C222 1.356 . S
N230 H236 0.984 . S
N230 H237 0.984 . S
N231 C224 1.356 . S
N231 H234 0.984 . S
N231 H235 0.985 . S
H232 N227 0.984 . S
H233 N227 0.985 . S
H234 N231 0.984 . S
H235 N231 0.985 . S
H236 N230 0.984 . S
H237 N230 0.984 . S
H238 N226 0.984 . S
H239 N226 0.985 . S
C240 C241 1.363 . S
C240 C246 1.379 . S
C240 N248 1.356 . S
C241 C240 1.363 . S
C241 C247 1.363 . S
C242 C243 1.363 . S
C242 C247 1.379 . S
C242 N249 1.356 . S
C243 C242 1.363 . S
C243 C246 1.363 . S
N244 C246 1.356 . S
N244 H256 0.984 . S
N244 H257 0.985 . S
N245 C247 1.356 . S
N245 H250 0.984 . S
N245 H251 0.985 . S
C246 C240 1.379 . S
C246 C243 1.363 . S
C246 N244 1.356 . S
C247 C241 1.363 . S
C247 C242 1.379 . S
C247 N245 1.356 . S
N248 C240 1.356 . S
N248 H254 0.984 . S
N248 H255 0.984 . S
N249 C242 1.356 . S
N249 H252 0.984 . S
N249 H253 0.985 . S
H250 N245 0.984 . S
H251 N245 0.985 . S
H252 N249 0.984 . S
H253 N249 0.985 . S
H254 N248 0.984 . S
H255 N248 0.984 . S
H256 N244 0.984 . S
H257 N244 0.985 . S
C258 C259 1.363 . S
C258 C264 1.379 . S
C258 N266 1.356 . S
C259 C258 1.363 . S
C259 C265 1.363 . S
C260 C261 1.363 . S
C260 C265 1.379 . S
C260 N267 1.356 . S
C261 C260 1.363 . S
C261 C264 1.363 . S
N262 C264 1.356 . S
N262 H274 0.984 . S
N262 H275 0.985 . S
N263 C265 1.356 . S
N263 H268 0.984 . S
N263 H269 0.985 . S
C264 C258 1.379 . S
C264 C261 1.363 . S
C264 N262 1.356 . S
C265 C259 1.363 . S
C265 C260 1.379 . S
C265 N263 1.356 . S
N266 C258 1.356 . S
N266 H272 0.984 . S
N266 H273 0.984 . S
N267 C260 1.356 . S
N267 H270 0.984 . S
N267 H271 0.985 . S
H268 N263 0.984 . S
H269 N263 0.985 . S
H270 N267 0.984 . S
H271 N267 0.985 . S
H272 N266 0.984 . S
H273 N266 0.984 . S
H274 N262 0.984 . S
H275 N262 0.985 . S
C276 C277 1.363 . S
C276 C282 1.379 . S
C276 N284 1.356 . S
C277 C276 1.363 . S
C277 C283 1.363 . S
C278 C279 1.363 . S
C278 C283 1.379 . S
C278 N285 1.356 . S
C279 C278 1.363 . S
C279 C282 1.363 . S
N280 C282 1.356 . S
N280 H292 0.984 . S
N280 H293 0.985 . S
N281 C283 1.356 . S
N281 H286 0.984 . S
N281 H287 0.985 . S
C282 C276 1.379 . S
C282 C279 1.363 . S
C282 N280 1.356 . S
C283 C277 1.363 . S
C283 C278 1.379 . S
C283 N281 1.356 . S
N284 C276 1.356 . S
N284 H290 0.984 . S
N284 H291 0.984 . S
N285 C278 1.356 . S
N285 H288 0.984 . S
N285 H289 0.985 . S
H286 N281 0.984 . S
H287 N281 0.985 . S
H288 N285 0.984 . S
H289 N285 0.985 . S
H290 N284 0.984 . S
H291 N284 0.984 . S
H292 N280 0.984 . S
H293 N280 0.985 . S
C294 C295 1.363 . S
C294 C300 1.379 1_655 S
C294 N302 1.356 . S
C295 C294 1.363 . S
C295 C301 1.363 . S
C296 C297 1.363 . S
C296 C301 1.379 1_455 S
C296 N303 1.356 . S
C297 C296 1.363 . S
C297 C300 1.363 . S
N298 C300 1.356 . S
N298 H310 0.984 1_455 S
N298 H311 0.985 . S
N299 C301 1.356 . S
N299 H304 0.984 . S
N299 H305 0.985 1_655 S
C300 C294 1.379 1_455 S
C300 C297 1.363 . S
C300 N298 1.356 . S
C301 C295 1.363 . S
C301 C296 1.379 1_655 S
C301 N299 1.356 . S
N302 C294 1.356 . S
N302 H308 0.984 . S
N302 H309 0.984 . S
N303 C296 1.356 . S
N303 H306 0.984 . S
N303 H307 0.985 . S
H304 N299 0.984 . S
H305 N299 0.985 1_455 S
H306 N303 0.984 . S
H307 N303 0.985 . S
H308 N302 0.984 . S
H309 N302 0.984 . S
H310 N298 0.984 1_655 S
H311 N298 0.985 . S
C312 C313 1.363 . S
C312 C318 1.379 1_545 S
C312 N320 1.356 . S
C313 C312 1.363 . S
C313 C319 1.363 . S
C314 C315 1.363 . S
C314 C319 1.379 1_565 S
C314 N321 1.356 . S
C315 C314 1.363 . S
C315 C318 1.363 . S
N316 C318 1.356 . S
N316 H328 0.984 . S
N316 H329 0.985 . S
N317 C319 1.356 . S
N317 H322 0.984 . S
N317 H323 0.985 . S
C318 C312 1.379 1_565 S
C318 C315 1.363 . S
C318 N316 1.356 . S
C319 C313 1.363 . S
C319 C314 1.379 1_545 S
C319 N317 1.356 . S
N320 C312 1.356 . S
N320 H326 0.984 1_545 S
N320 H327 0.984 . S
N321 C314 1.356 . S
N321 H324 0.984 . S
N321 H325 0.985 1_565 S
H322 N317 0.984 . S
H323 N317 0.985 . S
H324 N321 0.984 . S
H325 N321 0.985 1_545 S
H326 N320 0.984 1_565 S
H327 N320 0.984 . S
H328 N316 0.984 . S
H329 N316 0.985 . S
C330 C331 1.363 . S
C330 C336 1.379 . S
C330 N338 1.356 . S
C331 C330 1.363 . S
C331 C337 1.363 . S
C332 C333 1.363 . S
C332 C337 1.379 . S
C332 N339 1.356 . S
C333 C332 1.363 . S
C333 C336 1.363 . S
N334 C336 1.356 . S
N334 H346 0.984 . S
N334 H347 0.985 . S
N335 C337 1.356 . S
N335 H340 0.984 . S
N335 H341 0.985 . S
C336 C330 1.379 . S
C336 C333 1.363 . S
C336 N334 1.356 . S
C337 C331 1.363 . S
C337 C332 1.379 . S
C337 N335 1.356 . S
N338 C330 1.356 . S
N338 H344 0.984 . S
N338 H345 0.984 . S
N339 C332 1.356 . S
N339 H342 0.984 . S
N339 H343 0.985 . S
H340 N335 0.984 . S
H341 N335 0.985 . S
H342 N339 0.984 . S
H343 N339 0.985 . S
H344 N338 0.984 . S
H345 N338 0.984 . S
H346 N334 0.984 . S
H347 N334 0.985 . S
C348 C349 1.363 . S
C348 C354 1.379 1_655 S
C348 N356 1.356 . S
C349 C348 1.363 . S
C349 C355 1.363 . S
C350 C351 1.363 . S
C350 C355 1.379 1_455 S
C350 N357 1.356 . S
C351 C350 1.363 . S
C351 C354 1.363 . S
N352 C354 1.356 . S
N352 H364 0.984 . S
N352 H365 0.985 . S
N353 C355 1.356 . S
N353 H358 0.984 . S
N353 H359 0.985 . S
C354 C348 1.379 1_455 S
C354 C351 1.363 . S
C354 N352 1.356 . S
C355 C349 1.363 . S
C355 C350 1.379 1_655 S
C355 N353 1.356 . S
N356 C348 1.356 . S
N356 H362 0.984 . S
N356 H363 0.984 . S
N357 C350 1.356 . S
N357 H360 0.984 . S
N357 H361 0.985 . S
H358 N353 0.984 . S
H359 N353 0.985 . S
H360 N357 0.984 . S
H361 N357 0.985 . S
H362 N356 0.984 . S
H363 N356 0.984 . S
H364 N352 0.984 . S
H365 N352 0.985 . S
C366 C367 1.371 . S
C366 C372 1.372 1_565 S
C366 N374 1.358 . S
C367 C366 1.371 . S
C367 C373 1.363 1_554 S
C368 C369 1.371 . S
C368 C373 1.371 1_545 S
C368 N375 1.358 . S
C369 C368 1.371 . S
C369 C372 1.363 1_556 S
N370 C372 1.356 . S
N370 H382 0.984 . S
N370 H383 0.985 . S
N371 C373 1.356 . S
N371 H376 0.984 . S
N371 H377 0.985 . S
C372 C366 1.372 1_545 S
C372 C369 1.363 1_554 S
C372 N370 1.356 . S
C373 C367 1.363 1_556 S
C373 C368 1.371 1_565 S
C373 N371 1.356 . S
N374 C366 1.358 . S
N374 H380 0.984 1_565 S
N374 H381 0.984 . S
N375 C368 1.358 . S
N375 H378 0.984 . S
N375 H379 0.985 1_545 S
H376 N371 0.984 . S
H377 N371 0.985 . S
H378 N375 0.984 . S
H379 N375 0.985 1_565 S
H380 N374 0.984 1_545 S
H381 N374 0.984 . S
H382 N370 0.984 . S
H383 N370 0.985 . S
C384 C385 1.363 . S
C384 C390 1.379 . S
C384 N392 1.356 . S
C385 C384 1.363 . S
C385 C391 1.363 . S
C386 C387 1.363 . S
C386 C391 1.379 1_556 S
C386 N393 1.356 . S
C387 C386 1.363 . S
C387 C390 1.363 1_556 S
N388 C390 1.356 . S
N388 H400 0.984 . S
N388 H401 0.985 1_554 S
N389 C391 1.356 . S
N389 H394 0.984 . S
N389 H395 0.985 1_554 S
C390 C384 1.379 . S
C390 C387 1.363 1_554 S
C390 N388 1.356 . S
C391 C385 1.363 . S
C391 C386 1.379 1_554 S
C391 N389 1.356 . S
N392 C384 1.356 . S
N392 H398 0.984 . S
N392 H399 0.984 . S
N393 C386 1.356 . S
N393 H396 0.984 . S
N393 H397 0.985 . S
H394 N389 0.984 . S
H395 N389 0.985 1_556 S
H396 N393 0.984 . S
H397 N393 0.985 . S
H398 N392 0.984 . S
H399 N392 0.984 . S
H400 N388 0.984 . S
H401 N388 0.985 1_556 S
C402 C403 1.363 . S
C402 C408 1.379 . S
C402 N410 1.356 . S
C403 C402 1.363 . S
C403 C409 1.363 . S
C404 C405 1.363 1_655 S
C404 C409 1.379 . S
C404 N411 1.356 1_655 S
C405 C404 1.363 1_455 S
C405 C408 1.363 1_455 S
N406 C408 1.356 1_455 S
N406 H418 0.984 . S
N406 H419 0.985 . S
N407 C409 1.356 . S
N407 H412 0.984 . S
N407 H413 0.985 . S
C408 C402 1.379 . S
C408 C405 1.363 1_655 S
C408 N406 1.356 1_655 S
C409 C403 1.363 . S
C409 C404 1.379 . S
C409 N407 1.356 . S
N410 C402 1.356 . S
N410 H416 0.984 . S
N410 H417 0.984 . S
N411 C404 1.356 1_455 S
N411 H414 0.984 . S
N411 H415 0.985 . S
H412 N407 0.984 . S
H413 N407 0.985 . S
H414 N411 0.984 . S
H415 N411 0.985 . S
H416 N410 0.984 . S
H417 N410 0.984 . S
H418 N406 0.984 . S
H419 N406 0.985 . S
C420 C421 1.363 . S
C420 C426 1.379 1_545 S
C420 N428 1.356 . S
C421 C420 1.363 . S
C421 C427 1.363 1_545 S
C422 C423 1.363 . S
C422 C427 1.379 . S
C422 N429 1.356 . S
C423 C422 1.363 . S
C423 C426 1.363 . S
N424 C426 1.356 . S
N424 H436 0.984 1_565 S
N424 H437 0.985 . S
N425 C427 1.356 . S
N425 H430 0.984 . S
N425 H431 0.985 . S
C426 C420 1.379 1_565 S
C426 C423 1.363 . S
C426 N424 1.356 . S
C427 C421 1.363 1_565 S
C427 C422 1.379 . S
C427 N425 1.356 . S
N428 C420 1.356 . S
N428 H434 0.984 . S
N428 H435 0.984 . S
N429 C422 1.356 . S
N429 H432 0.984 . S
N429 H433 0.985 . S
H430 N425 0.984 . S
H431 N425 0.985 . S
H432 N429 0.984 . S
H433 N429 0.985 . S
H434 N428 0.984 . S
H435 N428 0.984 . S
H436 N424 0.984 1_545 S
H437 N424 0.985 . S
C438 C439 1.363 . S
C438 C444 1.379 . S
C438 N446 1.356 . S
C439 C438 1.363 . S
C439 C445 1.363 . S
C440 C441 1.363 . S
C440 C445 1.379 . S
C440 N447 1.356 . S
C441 C440 1.363 . S
C441 C444 1.363 . S
N442 C444 1.356 . S
N442 H454 0.984 . S
N442 H455 0.985 . S
N443 C445 1.356 . S
N443 H448 0.984 . S
N443 H449 0.985 . S
C444 C438 1.379 . S
C444 C441 1.363 . S
C444 N442 1.356 . S
C445 C439 1.363 . S
C445 C440 1.379 . S
C445 N443 1.356 . S
N446 C438 1.356 . S
N446 H452 0.984 . S
N446 H453 0.984 . S
N447 C440 1.356 . S
N447 H450 0.984 . S
N447 H451 0.985 . S
H448 N443 0.984 . S
H449 N443 0.985 . S
H450 N447 0.984 . S
H451 N447 0.985 . S
H452 N446 0.984 . S
H453 N446 0.984 . S
H454 N442 0.984 . S
H455 N442 0.985 . S
C456 C457 1.363 . S
C456 C462 1.379 . S
C456 N464 1.356 . S
C457 C456 1.363 . S
C457 C463 1.363 . S
C458 C459 1.363 1_455 S
C458 C463 1.379 . S
C458 N465 1.356 1_455 S
C459 C458 1.363 1_655 S
C459 C462 1.363 1_655 S
N460 C462 1.356 1_655 S
N460 H472 0.984 . S
N460 H473 0.985 . S
N461 C463 1.356 . S
N461 H466 0.984 . S
N461 H467 0.985 . S
C462 C456 1.379 . S
C462 C459 1.363 1_455 S
C462 N460 1.356 1_455 S
C463 C457 1.363 . S
C463 C458 1.379 . S
C463 N461 1.356 . S
N464 C456 1.356 . S
N464 H470 0.984 . S
N464 H471 0.984 . S
N465 C458 1.356 1_655 S
N465 H468 0.984 . S
N465 H469 0.985 . S
H466 N461 0.984 . S
H467 N461 0.985 . S
H468 N465 0.984 . S
H469 N465 0.985 . S
H470 N464 0.984 . S
H471 N464 0.984 . S
H472 N460 0.984 . S
H473 N460 0.985 . S
C474 C475 1.363 . S
C474 C480 1.379 1_545 S
C474 N482 1.356 . S
C475 C474 1.363 . S
C475 C481 1.363 . S
C476 C477 1.363 1_545 S
C476 C481 1.379 . S
C476 N483 1.356 . S
C477 C476 1.363 1_565 S
C477 C480 1.363 . S
N478 C480 1.356 . S
N478 H490 0.984 . S
N478 H491 0.985 . S
N479 C481 1.356 . S
N479 H484 0.984 . S
N479 H485 0.985 . S
C480 C474 1.379 1_565 S
C480 C477 1.363 . S
C480 N478 1.356 . S
C481 C475 1.363 . S
C481 C476 1.379 . S
C481 N479 1.356 . S
N482 C474 1.356 . S
N482 H488 0.984 . S
N482 H489 0.984 . S
N483 C476 1.356 . S
N483 H486 0.984 1_545 S
N483 H487 0.985 . S
H484 N479 0.984 . S
H485 N479 0.985 . S
H486 N483 0.984 1_565 S
H487 N483 0.985 . S
H488 N482 0.984 . S
H489 N482 0.984 . S
H490 N478 0.984 . S
H491 N478 0.985 . S
C492 C493 1.363 . S
C492 C498 1.379 . S
C492 N500 1.356 . S
C493 C492 1.363 . S
C493 C499 1.363 . S
C494 C495 1.363 . S
C494 C499 1.379 . S
C494 N501 1.356 . S
C495 C494 1.363 . S
C495 C498 1.363 . S
N496 C498 1.356 . S
N496 H508 0.984 . S
N496 H509 0.985 . S
N497 C499 1.356 . S
N497 H502 0.984 . S
N497 H503 0.985 . S
C498 C492 1.379 . S
C498 C495 1.363 . S
C498 N496 1.356 . S
C499 C493 1.363 . S
C499 C494 1.379 . S
C499 N497 1.356 . S
N500 C492 1.356 . S
N500 H506 0.984 . S
N500 H507 0.984 . S
N501 C494 1.356 . S
N501 H504 0.984 . S
N501 H505 0.985 . S
H502 N497 0.984 . S
H503 N497 0.985 . S
H504 N501 0.984 . S
H505 N501 0.985 . S
H506 N500 0.984 . S
H507 N500 0.984 . S
H508 N496 0.984 . S
H509 N496 0.985 . S
C510 C511 1.363 . S
C510 C516 1.379 1_655 S
C510 N518 1.356 . S
C511 C510 1.363 . S
C511 C517 1.363 . S
C512 C513 1.363 1_655 S
C512 C517 1.379 1_554 S
C512 N519 1.356 . S
C513 C512 1.363 1_455 S
C513 C516 1.363 1_554 S
N514 C516 1.356 . S
N514 H526 0.984 . S
N514 H527 0.985 1_556 S
N515 C517 1.356 . S
N515 H520 0.984 . S
N515 H521 0.985 . S
C516 C510 1.379 1_455 S
C516 C513 1.363 1_556 S
C516 N514 1.356 . S
C517 C511 1.363 . S
C517 C512 1.379 1_556 S
C517 N515 1.356 . S
N518 C510 1.356 . S
N518 H524 0.984 1_655 S
N518 H525 0.984 . S
N519 C512 1.356 . S
N519 H522 0.984 . S
N519 H523 0.985 . S
H520 N515 0.984 . S
H521 N515 0.985 . S
H522 N519 0.984 . S
H523 N519 0.985 . S
H524 N518 0.984 1_455 S
H525 N518 0.984 . S
H526 N514 0.984 . S
H527 N514 0.985 1_554 S
C528 C529 1.363 . S
C528 C534 1.379 1_565 S
C528 N536 1.356 . S
C529 C528 1.363 . S
C529 C535 1.363 . S
C530 C531 1.363 1_565 S
C530 C535 1.379 . S
C530 N537 1.356 . S
C531 C530 1.363 1_545 S
C531 C534 1.363 . S
N532 C534 1.356 . S
N532 H544 0.984 . S
N532 H545 0.985 . S
N533 C535 1.356 . S
N533 H538 0.984 . S
N533 H539 0.985 . S
C534 C528 1.379 1_545 S
C534 C531 1.363 . S
C534 N532 1.356 . S
C535 C529 1.363 . S
C535 C530 1.379 . S
C535 N533 1.356 . S
N536 C528 1.356 . S
N536 H542 0.984 1_565 S
N536 H543 0.984 . S
N537 C530 1.356 . S
N537 H540 0.984 . S
N537 H541 0.985 . S
H538 N533 0.984 . S
H539 N533 0.985 . S
H540 N537 0.984 . S
H541 N537 0.985 . S
H542 N536 0.984 1_545 S
H543 N536 0.984 . S
H544 N532 0.984 . S
H545 N532 0.985 . S
C546 C547 1.363 . S
C546 C552 1.379 . S
C546 N554 1.356 . S
C547 C546 1.363 . S
C547 C553 1.363 . S
C548 C549 1.363 . S
C548 C553 1.379 . S
C548 N555 1.356 . S
C549 C548 1.363 . S
C549 C552 1.363 . S
N550 C552 1.356 . S
N550 H562 0.984 . S
N550 H563 0.985 . S
N551 C553 1.356 . S
N551 H556 0.984 . S
N551 H557 0.985 . S
C552 C546 1.379 . S
C552 C549 1.363 . S
C552 N550 1.356 . S
C553 C547 1.363 . S
C553 C548 1.379 . S
C553 N551 1.356 . S
N554 C546 1.356 . S
N554 H560 0.984 . S
N554 H561 0.984 . S
N555 C548 1.356 . S
N555 H558 0.984 . S
N555 H559 0.985 . S
H556 N551 0.984 . S
H557 N551 0.985 . S
H558 N555 0.984 . S
H559 N555 0.985 . S
H560 N554 0.984 . S
H561 N554 0.984 . S
H562 N550 0.984 . S
H563 N550 0.985 . S
C564 C565 1.363 . S
C564 C570 1.379 1_455 S
C564 N572 1.356 . S
C565 C564 1.363 . S
C565 C571 1.363 . S
C566 C567 1.363 1_455 S
C566 C571 1.379 . S
C566 N573 1.356 . S
C567 C566 1.363 1_655 S
C567 C570 1.363 . S
N568 C570 1.356 . S
N568 H580 0.984 . S
N568 H581 0.985 . S
N569 C571 1.356 . S
N569 H574 0.984 . S
N569 H575 0.985 . S
C570 C564 1.379 1_655 S
C570 C567 1.363 . S
C570 N568 1.356 . S
C571 C565 1.363 . S
C571 C566 1.379 . S
C571 N569 1.356 . S
N572 C564 1.356 . S
N572 H578 0.984 . S
N572 H579 0.984 . S
N573 C566 1.356 . S
N573 H576 0.984 1_455 S
N573 H577 0.985 . S
H574 N569 0.984 . S
H575 N569 0.985 . S
H576 N573 0.984 1_655 S
H577 N573 0.985 . S
H578 N572 0.984 . S
H579 N572 0.984 . S
H580 N568 0.984 . S
H581 N568 0.985 . S
C582 C583 1.363 1_545 S
C582 C588 1.379 . S
C582 N590 1.356 . S
C583 C582 1.363 1_565 S
C583 C589 1.363 . S
C584 C585 1.363 . S
C584 C589 1.379 1_545 S
C584 N591 1.356 . S
C585 C584 1.363 . S
C585 C588 1.363 . S
N586 C588 1.356 . S
N586 H598 0.984 . S
N586 H599 0.985 . S
N587 C589 1.356 . S
N587 H592 0.984 . S
N587 H593 0.985 . S
C588 C582 1.379 . S
C588 C585 1.363 . S
C588 N586 1.356 . S
C589 C583 1.363 . S
C589 C584 1.379 1_565 S
C589 N587 1.356 . S
N590 C582 1.356 . S
N590 H596 0.984 . S
N590 H597 0.984 . S
N591 C584 1.356 . S
N591 H594 0.984 . S
N591 H595 0.985 1_545 S
H592 N587 0.984 . S
H593 N587 0.985 . S
H594 N591 0.984 . S
H595 N591 0.985 1_565 S
H596 N590 0.984 . S
H597 N590 0.984 . S
H598 N586 0.984 . S
H599 N586 0.985 . S
C169 C123 1.342 . S
C171 C11 1.342 . S
C187 C25 1.342 . S
C189 C137 1.342 . S
C205 C39 1.342 . S
C207 C151 1.342 . S
C223 C53 1.342 . S
C225 C165 1.342 . S
C241 C95 1.342 . S
C243 C67 1.342 . S
C259 C81 1.342 . S
C261 C109 1.342 . S
C277 C134 0.993 . S
C279 C8 0.993 . S
C295 C22 0.993 . S
C297 C148 0.993 . S
C313 C162 0.993 . S
C315 C36 0.993 . S
C331 C50 0.993 . S
C333 C92 0.993 . S
C349 C106 0.993 . S
C351 C64 0.993 . S
C367 C120 0.993 . S
C369 C78 0.993 . S
C385 C7 1.392 . S
C387 C83 1.287 . S
C403 C21 1.392 . S
C405 C13 1.287 . S
C421 C27 1.287 . S
C423 C35 1.392 . S
C439 C49 1.392 . S
C441 C41 1.287 . S
C457 C63 1.392 . S
C459 C55 1.287 . S
C475 C77 1.392 . S
C477 C69 1.287 . S
C493 C91 1.392 . S
C495 C111 1.286 . S
C511 C105 1.392 . S
C513 C125 1.287 . S
C529 C119 1.392 . S
C531 C139 1.286 . S
C547 C133 1.392 . S
C549 C153 1.287 . S
C565 C147 1.392 . S
C567 C167 1.287 . S
C583 C97 1.287 . S
C585 C161 1.392 . S
