# Generated by pormake.
# Topology ukv, (4)-cn, num edge types: 1
# Building blocks:
#     Node 0, Type 0, BuildingBlock: QUQFOY_clean_sbu_1, # of connection points: 4
#     Node 1, Type 0, BuildingBlock: QUQFOY_clean_sbu_1, # of connection points: 4
#     Node 2, Type 0, BuildingBlock: QUQFOY_clean_sbu_1, # of connection points: 4
#     Node 3, Type 0, BuildingBlock: QUQFOY_clean_sbu_1, # of connection points: 4
#     Node 4, Type 0, BuildingBlock: QUQFOY_clean_sbu_1, # of connection points: 4
#     Node 5, Type 0, BuildingBlock: QUQFOY_clean_sbu_1, # of connection points: 4
#     Node 6, Type 0, BuildingBlock: QUQFOY_clean_sbu_1, # of connection points: 4
#     Node 7, Type 0, BuildingBlock: QUQFOY_clean_sbu_1, # of connection points: 4
#     Node 8, Type 0, BuildingBlock: QUQFOY_clean_sbu_1, # of connection points: 4
#     Node 9, Type 0, BuildingBlock: QUQFOY_clean_sbu_1, # of connection points: 4
#     Node 10, Type 0, BuildingBlock: QUQFOY_clean_sbu_1, # of connection points: 4
#     Node 11, Type 0, BuildingBlock: QUQFOY_clean_sbu_1, # of connection points: 4
#     Node 12, Type 0, BuildingBlock: QUQFOY_clean_sbu_1, # of connection points: 4
#     Node 13, Type 0, BuildingBlock: QUQFOY_clean_sbu_1, # of connection points: 4
#     Node 14, Type 0, BuildingBlock: QUQFOY_clean_sbu_1, # of connection points: 4
#     Node 15, Type 0, BuildingBlock: QUQFOY_clean_sbu_1, # of connection points: 4
#     Node 16, Type 0, BuildingBlock: QUQFOY_clean_sbu_1, # of connection points: 4
#     Node 17, Type 0, BuildingBlock: QUQFOY_clean_sbu_1, # of connection points: 4
#     Node 18, Type 0, BuildingBlock: QUQFOY_clean_sbu_1, # of connection points: 4
#     Node 19, Type 0, BuildingBlock: QUQFOY_clean_sbu_1, # of connection points: 4
#     Node 20, Type 0, BuildingBlock: QUQFOY_clean_sbu_1, # of connection points: 4
#     Node 21, Type 0, BuildingBlock: QUQFOY_clean_sbu_1, # of connection points: 4
#     Node 22, Type 0, BuildingBlock: QUQFOY_clean_sbu_1, # of connection points: 4
#     Node 23, Type 0, BuildingBlock: QUQFOY_clean_sbu_1, # of connection points: 4
#     Node 24, Type 0, BuildingBlock: QUQFOY_clean_sbu_1, # of connection points: 4
#     Node 25, Type 0, BuildingBlock: QUQFOY_clean_sbu_1, # of connection points: 4
#     Node 26, Type 0, BuildingBlock: QUQFOY_clean_sbu_1, # of connection points: 4
#     Node 27, Type 0, BuildingBlock: QUQFOY_clean_sbu_1, # of connection points: 4
#     Node 28, Type 0, BuildingBlock: QUQFOY_clean_sbu_1, # of connection points: 4
#     Node 29, Type 0, BuildingBlock: QUQFOY_clean_sbu_1, # of connection points: 4
#     Node 30, Type 0, BuildingBlock: QUQFOY_clean_sbu_1, # of connection points: 4
#     Node 31, Type 0, BuildingBlock: QUQFOY_clean_sbu_1, # of connection points: 4
#     Node 32, Type 0, BuildingBlock: QUQFOY_clean_sbu_1, # of connection points: 4
#     Node 33, Type 0, BuildingBlock: QUQFOY_clean_sbu_1, # of connection points: 4
#     Node 34, Type 0, BuildingBlock: QUQFOY_clean_sbu_1, # of connection points: 4
#     Node 35, Type 0, BuildingBlock: QUQFOY_clean_sbu_1, # of connection points: 4
#     Edge 36, Type (0, 0), BuildingBlock: KIFKEQ_clean_linker_1, # of connection points: 2
#     Edge 37, Type (0, 0), BuildingBlock: KIFKEQ_clean_linker_1, # of connection points: 2
#     Edge 38, Type (0, 0), BuildingBlock: KIFKEQ_clean_linker_1, # of connection points: 2
#     Edge 39, Type (0, 0), BuildingBlock: KIFKEQ_clean_linker_1, # of connection points: 2
#     Edge 40, Type (0, 0), BuildingBlock: KIFKEQ_clean_linker_1, # of connection points: 2
#     Edge 41, Type (0, 0), BuildingBlock: KIFKEQ_clean_linker_1, # of connection points: 2
#     Edge 42, Type (0, 0), BuildingBlock: KIFKEQ_clean_linker_1, # of connection points: 2
#     Edge 43, Type (0, 0), BuildingBlock: KIFKEQ_clean_linker_1, # of connection points: 2
#     Edge 44, Type (0, 0), BuildingBlock: KIFKEQ_clean_linker_1, # of connection points: 2
#     Edge 45, Type (0, 0), BuildingBlock: KIFKEQ_clean_linker_1, # of connection points: 2
#     Edge 46, Type (0, 0), BuildingBlock: KIFKEQ_clean_linker_1, # of connection points: 2
#     Edge 47, Type (0, 0), BuildingBlock: KIFKEQ_clean_linker_1, # of connection points: 2
#     Edge 48, Type (0, 0), BuildingBlock: KIFKEQ_clean_linker_1, # of connection points: 2
#     Edge 49, Type (0, 0), BuildingBlock: KIFKEQ_clean_linker_1, # of connection points: 2
#     Edge 50, Type (0, 0), BuildingBlock: KIFKEQ_clean_linker_1, # of connection points: 2
#     Edge 51, Type (0, 0), BuildingBlock: KIFKEQ_clean_linker_1, # of connection points: 2
#     Edge 52, Type (0, 0), BuildingBlock: KIFKEQ_clean_linker_1, # of connection points: 2
#     Edge 53, Type (0, 0), BuildingBlock: KIFKEQ_clean_linker_1, # of connection points: 2
#     Edge 54, Type (0, 0), BuildingBlock: KIFKEQ_clean_linker_1, # of connection points: 2
#     Edge 55, Type (0, 0), BuildingBlock: KIFKEQ_clean_linker_1, # of connection points: 2
#     Edge 56, Type (0, 0), BuildingBlock: KIFKEQ_clean_linker_1, # of connection points: 2
#     Edge 57, Type (0, 0), BuildingBlock: KIFKEQ_clean_linker_1, # of connection points: 2
#     Edge 58, Type (0, 0), BuildingBlock: KIFKEQ_clean_linker_1, # of connection points: 2
#     Edge 59, Type (0, 0), BuildingBlock: KIFKEQ_clean_linker_1, # of connection points: 2
#     Edge 60, Type (0, 0), BuildingBlock: KIFKEQ_clean_linker_1, # of connection points: 2
#     Edge 61, Type (0, 0), BuildingBlock: KIFKEQ_clean_linker_1, # of connection points: 2
#     Edge 62, Type (0, 0), BuildingBlock: KIFKEQ_clean_linker_1, # of connection points: 2
#     Edge 63, Type (0, 0), BuildingBlock: KIFKEQ_clean_linker_1, # of connection points: 2
#     Edge 64, Type (0, 0), BuildingBlock: KIFKEQ_clean_linker_1, # of connection points: 2
#     Edge 65, Type (0, 0), BuildingBlock: KIFKEQ_clean_linker_1, # of connection points: 2
#     Edge 66, Type (0, 0), BuildingBlock: KIFKEQ_clean_linker_1, # of connection points: 2
#     Edge 67, Type (0, 0), BuildingBlock: KIFKEQ_clean_linker_1, # of connection points: 2
#     Edge 68, Type (0, 0), BuildingBlock: KIFKEQ_clean_linker_1, # of connection points: 2
#     Edge 69, Type (0, 0), BuildingBlock: KIFKEQ_clean_linker_1, # of connection points: 2
#     Edge 70, Type (0, 0), BuildingBlock: KIFKEQ_clean_linker_1, # of connection points: 2
#     Edge 71, Type (0, 0), BuildingBlock: KIFKEQ_clean_linker_1, # of connection points: 2
#     Edge 72, Type (0, 0), BuildingBlock: KIFKEQ_clean_linker_1, # of connection points: 2
#     Edge 73, Type (0, 0), BuildingBlock: KIFKEQ_clean_linker_1, # of connection points: 2
#     Edge 74, Type (0, 0), BuildingBlock: KIFKEQ_clean_linker_1, # of connection points: 2
#     Edge 75, Type (0, 0), BuildingBlock: KIFKEQ_clean_linker_1, # of connection points: 2
#     Edge 76, Type (0, 0), BuildingBlock: KIFKEQ_clean_linker_1, # of connection points: 2
#     Edge 77, Type (0, 0), BuildingBlock: KIFKEQ_clean_linker_1, # of connection points: 2
#     Edge 78, Type (0, 0), BuildingBlock: KIFKEQ_clean_linker_1, # of connection points: 2
#     Edge 79, Type (0, 0), BuildingBlock: KIFKEQ_clean_linker_1, # of connection points: 2
#     Edge 80, Type (0, 0), BuildingBlock: KIFKEQ_clean_linker_1, # of connection points: 2
#     Edge 81, Type (0, 0), BuildingBlock: KIFKEQ_clean_linker_1, # of connection points: 2
#     Edge 82, Type (0, 0), BuildingBlock: KIFKEQ_clean_linker_1, # of connection points: 2
#     Edge 83, Type (0, 0), BuildingBlock: KIFKEQ_clean_linker_1, # of connection points: 2
#     Edge 84, Type (0, 0), BuildingBlock: KIFKEQ_clean_linker_1, # of connection points: 2
#     Edge 85, Type (0, 0), BuildingBlock: KIFKEQ_clean_linker_1, # of connection points: 2
#     Edge 86, Type (0, 0), BuildingBlock: KIFKEQ_clean_linker_1, # of connection points: 2
#     Edge 87, Type (0, 0), BuildingBlock: KIFKEQ_clean_linker_1, # of connection points: 2
#     Edge 88, Type (0, 0), BuildingBlock: KIFKEQ_clean_linker_1, # of connection points: 2
#     Edge 89, Type (0, 0), BuildingBlock: KIFKEQ_clean_linker_1, # of connection points: 2
#     Edge 90, Type (0, 0), BuildingBlock: KIFKEQ_clean_linker_1, # of connection points: 2
#     Edge 91, Type (0, 0), BuildingBlock: KIFKEQ_clean_linker_1, # of connection points: 2
#     Edge 92, Type (0, 0), BuildingBlock: KIFKEQ_clean_linker_1, # of connection points: 2
#     Edge 93, Type (0, 0), BuildingBlock: KIFKEQ_clean_linker_1, # of connection points: 2
#     Edge 94, Type (0, 0), BuildingBlock: KIFKEQ_clean_linker_1, # of connection points: 2
#     Edge 95, Type (0, 0), BuildingBlock: KIFKEQ_clean_linker_1, # of connection points: 2
#     Edge 96, Type (0, 0), BuildingBlock: KIFKEQ_clean_linker_1, # of connection points: 2
#     Edge 97, Type (0, 0), BuildingBlock: KIFKEQ_clean_linker_1, # of connection points: 2
#     Edge 98, Type (0, 0), BuildingBlock: KIFKEQ_clean_linker_1, # of connection points: 2
#     Edge 99, Type (0, 0), BuildingBlock: KIFKEQ_clean_linker_1, # of connection points: 2
#     Edge 100, Type (0, 0), BuildingBlock: KIFKEQ_clean_linker_1, # of connection points: 2
#     Edge 101, Type (0, 0), BuildingBlock: KIFKEQ_clean_linker_1, # of connection points: 2
#     Edge 102, Type (0, 0), BuildingBlock: KIFKEQ_clean_linker_1, # of connection points: 2
#     Edge 103, Type (0, 0), BuildingBlock: KIFKEQ_clean_linker_1, # of connection points: 2
#     Edge 104, Type (0, 0), BuildingBlock: KIFKEQ_clean_linker_1, # of connection points: 2
#     Edge 105, Type (0, 0), BuildingBlock: KIFKEQ_clean_linker_1, # of connection points: 2
#     Edge 106, Type (0, 0), BuildingBlock: KIFKEQ_clean_linker_1, # of connection points: 2
#     Edge 107, Type (0, 0), BuildingBlock: KIFKEQ_clean_linker_1, # of connection points: 2
# Relax obj value: 0.148
# Max RMSD: 0.532
# Mean RMSD: 0.391
data_MOF--net-ukv--node1-QUQFOY_clean_sbu_1--edge1-KIFKEQ_clean_linker_1
_symmetry_space_group_name_H-M    P1
_symmetry_Int_Tables_number       1
_symmetry_cell_setting            triclinic
loop_
_symmetry_equiv_pos_as_xyz
'x, y, z'
_cell_length_a     74.856686
_cell_length_b     80.984275
_cell_length_c     22.902091
_cell_angle_alpha  89.44444
_cell_angle_beta   89.191419
_cell_angle_gamma 120.76121
loop_
_atom_site_label
_atom_site_type_symbol
_atom_site_fract_x
_atom_site_fract_y
_atom_site_fract_z
_atom_type_partial_charge
O0 O 0.34424 0.10252 0.16414 0.0
Cd1 Cd 0.32156 0.10546 0.12721 0.0
Cd2 Cd 0.373 0.13472 0.19066 0.0
O3 O 0.37685 0.11373 0.1509 0.0
O4 O 0.30106 0.08293 0.08175 0.0
O5 O 0.29459 0.08938 0.17088 0.0
C6 C 0.28904 0.07762 0.12777 0.0
C7 C 0.37682 0.14241 0.28847 0.0
C8 C 0.35848 0.10169 0.13618 0.0
C9 C 0.34988 0.14896 0.10205 0.0
O10 O 0.36407 0.14952 0.13411 0.0
O11 O 0.33215 0.13354 0.09595 0.0
O12 O 0.39238 0.15137 0.25201 0.0
O13 O 0.35944 0.12851 0.26947 0.0
O14 O 0.91531 0.2344 0.14904 0.0
Cd15 Cd 0.92033 0.21027 0.13967 0.0
Cd16 Cd 0.88653 0.21338 0.1977 0.0
O17 O 0.91468 0.23449 0.15014 0.0
O18 O 0.94875 0.2186 0.10678 0.0
O19 O 0.93933 0.20933 0.19909 0.0
C20 C 0.95382 0.21643 0.15886 0.0
C21 C 0.87902 0.21156 0.29627 0.0
C22 C 0.91976 0.24911 0.11755 0.0
C23 C 0.87497 0.18037 0.11412 0.0
O24 O 0.86929 0.18905 0.1493 0.0
O25 O 0.89426 0.18596 0.10535 0.0
O26 O 0.87096 0.21826 0.26033 0.0
O27 O 0.89205 0.20691 0.2761 0.0
O28 O 0.73275 0.67043 0.1268 0.0
Cd29 Cd 0.7591 0.67965 0.17452 0.0
Cd30 Cd 0.73534 0.64081 0.2023 0.0
O31 O 0.71146 0.64037 0.15608 0.0
O32 O 0.7726 0.70817 0.16247 0.0
O33 O 0.76069 0.69374 0.2482 0.0
C34 C 0.76843 0.70926 0.21654 0.0
C35 C 0.73759 0.63554 0.30095 0.0
C36 C 0.71516 0.65502 0.12527 0.0
C37 C 0.77545 0.65491 0.13289 0.0
O38 O 0.75811 0.64089 0.15102 0.0
O39 O 0.7801 0.67215 0.14224 0.0
O40 O 0.72852 0.62118 0.2662 0.0
O41 O 0.74363 0.65257 0.28032 0.0
O42 O 0.11479 0.32746 0.40177 0.0
Cd43 Cd 0.12793 0.31919 0.3381 0.0
Cd44 Cd 0.14502 0.35745 0.31476 0.0
O45 O 0.12388 0.35712 0.37526 0.0
O46 O 0.1079 0.2906 0.33303 0.0
O47 O 0.11254 0.31126 0.26252 0.0
C48 C 0.10214 0.29394 0.28358 0.0
C49 C 0.15122 0.36538 0.21595 0.0
C50 C 0.11403 0.3426 0.4097 0.0
C51 C 0.17257 0.34383 0.36584 0.0
O52 O 0.16935 0.35739 0.35343 0.0
O53 O 0.15844 0.32638 0.35746 0.0
O54 O 0.15838 0.37875 0.25438 0.0
O55 O 0.13878 0.34789 0.23371 0.0
O56 O 0.67312 0.76216 0.44003 0.0
Cd57 Cd 0.68471 0.7865 0.39004 0.0
Cd58 Cd 0.64338 0.76697 0.36223 0.0
O59 O 0.64161 0.74345 0.40624 0.0
O60 O 0.7153 0.79637 0.39565 0.0
O61 O 0.69795 0.78535 0.31429 0.0
C62 C 0.7148 0.79091 0.34264 0.0
C63 C 0.64338 0.77376 0.26356 0.0
C64 C 0.65638 0.74601 0.43911 0.0
C65 C 0.65875 0.80289 0.43145 0.0
O66 O 0.64319 0.78717 0.41522 0.0
O67 O 0.67726 0.80654 0.42086 0.0
O68 O 0.62591 0.76314 0.29147 0.0
O69 O 0.66041 0.77888 0.29049 0.0
O70 O 0.24861 0.93281 0.33858 0.0
Cd71 Cd 0.22325 0.91822 0.28688 0.0
Cd72 Cd 0.24639 0.90199 0.26001 0.0
O73 O 0.27031 0.92382 0.30641 0.0
O74 O 0.21125 0.93548 0.28525 0.0
O75 O 0.22604 0.93067 0.20844 0.0
C76 C 0.21825 0.94006 0.23214 0.0
C77 C 0.24361 0.89335 0.16285 0.0
C78 C 0.26629 0.93416 0.33938 0.0
C79 C 0.20619 0.87814 0.32947 0.0
O80 O 0.22371 0.88084 0.31231 0.0
O81 O 0.20123 0.89075 0.31851 0.0
O82 O 0.25275 0.8879 0.19918 0.0
O83 O 0.23817 0.90527 0.18064 0.0
O84 O 0.68427 0.91335 0.92958 0.0
Cd85 Cd 0.69603 0.90093 0.87596 0.0
Cd86 Cd 0.65407 0.87987 0.85627 0.0
O87 O 0.65102 0.89914 0.90828 0.0
O88 O 0.72632 0.92025 0.88349 0.0
O89 O 0.70978 0.91585 0.80097 0.0
C90 C 0.72637 0.92591 0.83072 0.0
C91 C 0.64551 0.87325 0.75905 0.0
C92 C 0.66655 0.91167 0.93632 0.0
C93 C 0.67356 0.85963 0.91637 0.0
O94 O 0.65717 0.85933 0.90085 0.0
O95 O 0.6914 0.87458 0.90669 0.0
O96 O 0.63131 0.86567 0.79978 0.0
O97 O 0.66429 0.88574 0.77355 0.0
O98 O 0.0963 0.76982 0.79884 0.0
Cd99 Cd 0.09351 0.79184 0.82897 0.0
Cd100 Cd 0.13418 0.78508 0.774 0.0
O101 O 0.11606 0.75856 0.81597 0.0
O102 O 0.06487 0.78524 0.85517 0.0
O103 O 0.07887 0.79835 0.76854 0.0
C104 C 0.06277 0.79053 0.80347 0.0
C105 C 0.14368 0.7915 0.67649 0.0
C106 C 0.1001 0.75921 0.83094 0.0
C107 C 0.13968 0.81764 0.86265 0.0
O108 O 0.1452 0.80828 0.82967 0.0
O109 O 0.1207 0.8135 0.86806 0.0
O110 O 0.15511 0.78877 0.71266 0.0
O111 O 0.12626 0.78942 0.69558 0.0
O112 O 0.27452 0.34689 0.82441 0.0
Cd113 Cd 0.24752 0.32567 0.86105 0.0
Cd114 Cd 0.26758 0.37327 0.79857 0.0
O115 O 0.29406 0.37703 0.83907 0.0
O116 O 0.24914 0.30473 0.90278 0.0
O117 O 0.23598 0.30172 0.81461 0.0
C118 C 0.24178 0.29469 0.85628 0.0
C119 C 0.26401 0.37611 0.69915 0.0
C120 C 0.28932 0.36005 0.85267 0.0
C121 C 0.22845 0.35101 0.88783 0.0
O122 O 0.24199 0.36486 0.85523 0.0
O123 O 0.22793 0.33498 0.89358 0.0
O124 O 0.26948 0.39062 0.73276 0.0
O125 O 0.26134 0.36031 0.72196 0.0
O126 O 0.88839 0.66282 0.66499 0.0
Cd127 Cd 0.88782 0.68637 0.63744 0.0
Cd128 Cd 0.85123 0.63887 0.69083 0.0
O129 O 0.87155 0.63287 0.64612 0.0
O130 O 0.91517 0.7092 0.61154 0.0
O131 O 0.90073 0.70621 0.69925 0.0
C132 C 0.91659 0.71552 0.66397 0.0
C133 C 0.84235 0.63413 0.7889 0.0
C134 C 0.88641 0.6495 0.63222 0.0
C135 C 0.841 0.66477 0.60703 0.0
O136 O 0.83735 0.65016 0.63838 0.0
O137 O 0.85922 0.67984 0.60138 0.0
O138 O 0.83182 0.62067 0.75212 0.0
O139 O 0.85862 0.64981 0.76988 0.0
O140 O 0.33547 0.24204 0.61057 0.0
Cd141 Cd 0.32646 0.2193 0.66702 0.0
Cd142 Cd 0.36878 0.24153 0.68604 0.0
O143 O 0.36798 0.2625 0.6348 0.0
O144 O 0.29576 0.20886 0.67988 0.0
O145 O 0.31931 0.22384 0.74704 0.0
C146 C 0.3004 0.21665 0.73062 0.0
C147 C 0.37677 0.24171 0.78389 0.0
C148 C 0.35197 0.25839 0.60511 0.0
C149 C 0.35225 0.20303 0.62717 0.0
O150 O 0.36752 0.21937 0.6401 0.0
O151 O 0.33364 0.19878 0.63926 0.0
O152 O 0.3915 0.24923 0.74457 0.0
O153 O 0.35803 0.23575 0.76779 0.0
O154 O 0.77621 0.07633 0.61556 0.0
Cd155 Cd 0.79929 0.08872 0.67516 0.0
Cd156 Cd 0.77471 0.10283 0.70173 0.0
O157 O 0.75226 0.08246 0.64764 0.0
O158 O 0.81098 0.07134 0.66928 0.0
O159 O 0.79467 0.07287 0.74829 0.0
C160 C 0.80256 0.06431 0.7199 0.0
C161 C 0.77598 0.10891 0.80067 0.0
C162 C 0.75825 0.07421 0.61187 0.0
C163 C 0.81624 0.12957 0.64336 0.0
O164 O 0.79789 0.12564 0.65589 0.0
O165 O 0.8217 0.11728 0.65413 0.0
O166 O 0.76672 0.11464 0.76571 0.0
O167 O 0.78232 0.09791 0.78034 0.0
O168 O 0.93107 0.38481 0.33139 0.0
Cd169 Cd 0.89949 0.37043 0.34837 0.0
Cd170 Cd 0.9106 0.40283 0.41389 0.0
O171 O 0.94028 0.40859 0.39282 0.0
O172 O 0.88908 0.34258 0.33624 0.0
O173 O 0.88879 0.35453 0.42254 0.0
C174 C 0.88549 0.33993 0.39187 0.0
C175 C 0.90414 0.41528 0.49851 0.0
C176 C 0.94509 0.4 0.35502 0.0
C177 C 0.88492 0.39586 0.30458 0.0
O178 O 0.89522 0.40638 0.34647 0.0
O179 O 0.88324 0.37956 0.29758 0.0
O180 O 0.91661 0.42621 0.45751 0.0
O181 O 0.89641 0.397 0.49401 0.0
O182 O 0.56048 0.56992 0.41291 0.0
Cd183 Cd 0.5472 0.54532 0.46259 0.0
Cd184 Cd 0.52566 0.56216 0.49454 0.0
O185 O 0.55081 0.58769 0.46104 0.0
O186 O 0.56862 0.53764 0.45104 0.0
O187 O 0.56338 0.5479 0.53487 0.0
C188 C 0.5747 0.5435 0.50322 0.0
C189 C 0.51469 0.55164 0.59002 0.0
C190 C 0.56223 0.58607 0.42251 0.0
C191 C 0.50379 0.52734 0.42244 0.0
O192 O 0.50571 0.54345 0.43441 0.0
O193 O 0.5177 0.52359 0.43789 0.0
O194 O 0.50818 0.5616 0.56292 0.0
O195 O 0.52875 0.54931 0.56468 0.0
O196 O 0.40795 0.01012 0.52086 0.0
Cd197 Cd 0.43325 0.02875 0.47212 0.0
Cd198 Cd 0.4168 0.98506 0.55219 0.0
O199 O 0.38855 0.97957 0.51854 0.0
O200 O 0.43064 0.0489 0.42858 0.0
O201 O 0.44793 0.05429 0.51084 0.0
C202 C 0.44033 0.06027 0.47102 0.0
C203 C 0.42844 0.99172 0.64772 0.0
C204 C 0.39267 0.99576 0.49811 0.0
C205 C 0.44974 1.00103 0.44622 0.0
O206 O 0.43896 0.98925 0.48783 0.0
O207 O 0.44942 0.01644 0.43464 0.0
O208 O 0.41924 0.97424 0.62948 0.0
O209 O 0.42947 0.00489 0.61303 0.0
O210 O 0.72787 0.65718 0.72651 0.0
Cd211 Cd 0.7447 0.65091 0.66877 0.0
Cd212 Cd 0.76001 0.68913 0.64697 0.0
O213 O 0.73631 0.68675 0.70134 0.0
O214 O 0.72755 0.6221 0.67065 0.0
O215 O 0.73041 0.63966 0.59288 0.0
C216 C 0.72139 0.62306 0.61908 0.0
C217 C 0.76577 0.69654 0.5479 0.0
C218 C 0.72553 0.67154 0.73236 0.0
C219 C 0.78867 0.67767 0.70251 0.0
O220 O 0.78478 0.69077 0.68937 0.0
O221 O 0.77527 0.66008 0.69314 0.0
O222 O 0.77206 0.7101 0.58555 0.0
O223 O 0.75489 0.67893 0.56654 0.0
O224 O 0.34527 0.11244 0.72093 0.0
Cd225 Cd 0.3538 0.13421 0.66096 0.0
Cd226 Cd 0.31131 0.11099 0.6432 0.0
O227 O 0.31245 0.09145 0.70096 0.0
O228 O 0.38465 0.14495 0.64786 0.0
O229 O 0.36106 0.12912 0.58162 0.0
C230 C 0.38004 0.13675 0.59772 0.0
C231 C 0.30374 0.10865 0.54401 0.0
C232 C 0.32874 0.09633 0.73027 0.0
C233 C 0.32721 0.15022 0.69672 0.0
O234 O 0.31209 0.13376 0.68406 0.0
O235 O 0.34594 0.15453 0.68602 0.0
O236 O 0.28885 0.10185 0.58288 0.0
O237 O 0.32242 0.11525 0.56163 0.0
O238 O 0.91741 0.23066 0.7069 0.0
Cd239 Cd 0.89455 0.21224 0.65167 0.0
Cd240 Cd 0.92499 0.20302 0.63654 0.0
O241 O 0.94398 0.22683 0.6856 0.0
O242 O 0.87568 0.22311 0.64576 0.0
O243 O 0.89454 0.22268 0.57166 0.0
C244 C 0.88208 0.22786 0.59229 0.0
C245 C 0.92643 0.19667 0.53893 0.0
C246 C 0.93621 0.23523 0.714 0.0
C247 C 0.88471 0.17362 0.69626 0.0
O248 O 0.90373 0.17955 0.68494 0.0
O249 O 0.87685 0.18374 0.68139 0.0
O250 O 0.93697 0.19326 0.57638 0.0
O251 O 0.91691 0.20531 0.55651 0.0
O252 O 0.3477 0.2454 0.21104 0.0
Cd253 Cd 0.35539 0.23024 0.15541 0.0
Cd254 Cd 0.31273 0.21416 0.13845 0.0
O255 O 0.31523 0.23631 0.18952 0.0
O256 O 0.38631 0.24824 0.14192 0.0
O257 O 0.36292 0.24139 0.07442 0.0
C258 C 0.38184 0.25184 0.09083 0.0
C259 C 0.30545 0.20892 0.03981 0.0
C260 C 0.33174 0.24695 0.21753 0.0
C261 C 0.32761 0.18949 0.1968 0.0
O262 O 0.3129 0.19229 0.18377 0.0
O263 O 0.34649 0.20229 0.18444 0.0
O264 O 0.29036 0.2023 0.07801 0.0
O265 O 0.32417 0.21935 0.05775 0.0
O266 O 0.77729 0.08094 0.17537 0.0
Cd267 Cd 0.77873 0.10404 0.21366 0.0
Cd268 Cd 0.81424 0.09077 0.14851 0.0
O269 O 0.79277 0.06528 0.19106 0.0
O270 O 0.75302 0.09835 0.25788 0.0
O271 O 0.76212 0.11322 0.17118 0.0
C272 C 0.7484 0.10523 0.21318 0.0
C273 C 0.82378 0.09408 0.0507 0.0
C274 C 0.77776 0.06768 0.20391 0.0
C275 C 0.82611 0.12568 0.23592 0.0
O276 O 0.82904 0.11481 0.20179 0.0
O277 O 0.80809 0.12354 0.24578 0.0
O278 O 0.83384 0.09042 0.08921 0.0
O279 O 0.80783 0.09509 0.06786 0.0
O280 O 0.87288 0.6641 0.2156 0.0
Cd281 Cd 0.849 0.65745 0.1602 0.0
Cd282 Cd 0.87511 0.6966 0.13838 0.0
O283 O 0.89588 0.69452 0.19319 0.0
O284 O 0.83425 0.62846 0.15361 0.0
O285 O 0.85192 0.64868 0.08113 0.0
C286 C 0.84186 0.63125 0.10108 0.0
C287 C 0.87715 0.70239 0.03796 0.0
C288 C 0.89047 0.67917 0.2227 0.0
C289 C 0.83376 0.6838 0.19811 0.0
O290 O 0.85165 0.69757 0.18261 0.0
O291 O 0.82863 0.66641 0.1884 0.0
O292 O 0.88561 0.71661 0.0734 0.0
O293 O 0.86898 0.68521 0.0595 0.0
O294 O 0.59038 0.00711 0.96834 0.0
Cd295 Cd 0.57737 0.01743 0.02643 0.0
Cd296 Cd 0.55332 0.97845 0.03793 0.0
O297 O 0.57541 0.97606 0.98898 0.0
O298 O 0.5997 0.04536 0.02585 0.0
O299 O 0.59118 0.0267 0.10443 0.0
C300 C 0.60349 0.04305 0.07907 0.0
C301 C 0.54455 0.97461 0.13734 0.0
C302 C 0.5887 0.9909 0.95966 0.0
C303 C 0.53513 0.99938 0.97736 0.0
O304 O 0.53471 0.98363 0.98509 0.0
O305 O 0.54967 0.01496 0.99837 0.0
O306 O 0.53566 0.96005 0.10319 0.0
O307 O 0.55949 0.99064 0.11583 0.0
O308 O 0.91738 0.54329 0.82729 0.0
Cd309 Cd 0.88642 0.52416 0.84703 0.0
Cd310 Cd 0.90301 0.50656 0.91082 0.0
O311 O 0.93075 0.53124 0.88769 0.0
O312 O 0.87146 0.53853 0.83734 0.0
O313 O 0.87438 0.52717 0.9227 0.0
C314 C 0.86817 0.53695 0.89318 0.0
C315 C 0.89937 0.48908 0.99687 0.0
C316 C 0.93311 0.54379 0.84953 0.0
C317 C 0.8777 0.48656 0.8038 0.0
O318 O 0.8894 0.48761 0.84482 0.0
O319 O 0.87303 0.49951 0.79703 0.0
O320 O 0.91263 0.49163 0.95633 0.0
O321 O 0.88917 0.49788 0.99108 0.0
O322 O 0.4036 0.40352 0.98902 0.0
Cd323 Cd 0.43038 0.40908 0.94744 0.0
Cd324 Cd 0.408 0.43572 0.00652 0.0
O325 O 0.38106 0.41196 0.97741 0.0
O326 O 0.42898 0.38646 0.90877 0.0
O327 O 0.44462 0.39794 0.99272 0.0
C328 C 0.43804 0.38465 0.95395 0.0
C329 C 0.4146 0.44756 0.10015 0.0
C330 C 0.38778 0.40111 0.96209 0.0
C331 C 0.44366 0.45034 0.90592 0.0
O332 O 0.43039 0.45075 0.94087 0.0
O333 O 0.44644 0.43596 0.90401 0.0
O334 O 0.40596 0.45327 0.06285 0.0
O335 O 0.41853 0.43437 0.08484 0.0
O336 O 0.66222 0.76222 0.82289 0.0
Cd337 Cd 0.65591 0.77804 0.87909 0.0
Cd338 Cd 0.69726 0.79163 0.89981 0.0
O339 O 0.69311 0.76823 0.85118 0.0
O340 O 0.62497 0.76116 0.89368 0.0
O341 O 0.64858 0.76652 0.95931 0.0
C342 C 0.62948 0.75682 0.94365 0.0
C343 C 0.70596 0.79857 0.99776 0.0
C344 C 0.67704 0.75889 0.82013 0.0
C345 C 0.68568 0.81815 0.83801 0.0
O346 O 0.69945 0.81407 0.85118 0.0
O347 O 0.66654 0.8064 0.8511 0.0
O348 O 0.72036 0.80314 0.95833 0.0
O349 O 0.68688 0.78898 0.98188 0.0
O350 O 0.24653 0.91893 0.73667 0.0
Cd351 Cd 0.22882 0.89689 0.7951 0.0
Cd352 Cd 0.21524 0.92189 0.81314 0.0
O353 O 0.24045 0.94186 0.76247 0.0
O354 O 0.24564 0.88396 0.79749 0.0
O355 O 0.24243 0.89934 0.87219 0.0
C356 C 0.25157 0.89114 0.84854 0.0
C357 C 0.20887 0.92278 0.91232 0.0
C358 C 0.2504 0.93609 0.73154 0.0
C359 C 0.18627 0.88414 0.75521 0.0
O360 O 0.19125 0.90135 0.76561 0.0
O361 O 0.19811 0.87786 0.77041 0.0
O362 O 0.20326 0.93123 0.87492 0.0
O363 O 0.219 0.91486 0.8934 0.0
O364 O 0.1241 0.33262 0.85719 0.0
Cd365 Cd 0.15384 0.35324 0.84023 0.0
Cd366 Cd 0.1249 0.30315 0.87598 0.0
O367 O 0.1009 0.30425 0.83353 0.0
O368 O 0.15942 0.37988 0.82502 0.0
O369 O 0.16524 0.36992 0.90941 0.0
C370 C 0.16476 0.38325 0.87909 0.0
C371 C 0.12689 0.29947 0.97577 0.0
C372 C 0.10914 0.32216 0.82427 0.0
C373 C 0.16737 0.32501 0.79881 0.0
O374 O 0.1513 0.3107 0.82328 0.0
O375 O 0.17122 0.34235 0.8025 0.0
O376 O 0.12002 0.28479 0.94216 0.0
O377 O 0.13185 0.31595 0.95278 0.0
O378 O 0.4134 0.99558 0.07615 0.0
Cd379 Cd 0.42518 0.98385 0.01951 0.0
Cd380 Cd 0.45022 0.02271 1.00388 0.0
O381 O 0.42886 0.02642 0.05214 0.0
O382 O 0.40278 0.95615 0.02916 0.0
O383 O 0.40889 0.97231 0.9461 0.0
C384 C 0.39724 0.95685 0.97667 0.0
C385 C 0.4589 0.02604 0.90432 0.0
C386 C 0.41547 0.01202 0.0828 0.0
C387 C 0.46773 1.00141 0.06586 0.0
O388 O 0.4686 0.01734 0.0574 0.0
O389 O 0.4528 0.98589 0.04588 0.0
O390 O 0.46811 0.04065 0.93815 0.0
O391 O 0.44368 0.01018 0.92617 0.0
O392 O 0.09884 0.4749 0.16591 0.0
Cd393 Cd 0.12928 0.49417 0.14143 0.0
Cd394 Cd 0.11196 0.51052 0.07909 0.0
O395 O 0.08467 0.48564 0.10368 0.0
O396 O 0.14542 0.48074 0.14286 0.0
O397 O 0.13835 0.49109 0.06138 0.0
C398 C 0.14623 0.48195 0.08647 0.0
C399 C 0.11535 0.5273 0.99192 0.0
C400 C 0.0828 0.47373 0.14346 0.0
C401 C 0.13797 0.53178 0.18317 0.0
O402 O 0.12542 0.53001 0.14381 0.0
O403 O 0.14336 0.5193 0.18909 0.0
O404 O 0.10189 0.52473 0.03189 0.0
O405 O 0.12581 0.5188 0.99889 0.0
O406 O 0.60325 0.6016 0.02818 0.0
Cd407 Cd 0.5771 0.59719 0.07098 0.0
Cd408 Cd 0.59658 0.56812 0.01162 0.0
O409 O 0.62399 0.59117 0.04183 0.0
O410 O 0.57974 0.62007 0.11119 0.0
O411 O 0.56351 0.6094 0.0276 0.0
C412 C 0.57069 0.62247 0.06707 0.0
C413 C 0.59015 0.55676 0.91722 0.0
C414 C 0.61866 0.60318 0.05538 0.0
C415 C 0.56116 0.5551 0.11156 0.0
O416 O 0.57339 0.5534 0.07572 0.0
O417 O 0.56041 0.57055 0.11521 0.0
O418 O 0.59845 0.55063 0.95432 0.0
O419 O 0.58651 0.57006 0.93339 0.0
O420 O 0.08492 0.63245 0.65811 0.0
Cd421 Cd 0.11643 0.64618 0.63976 0.0
Cd422 Cd 0.10477 0.61392 0.57597 0.0
O423 O 0.07519 0.60818 0.59843 0.0
O424 O 0.12777 0.67432 0.64819 0.0
O425 O 0.12739 0.66102 0.56384 0.0
C426 C 0.13141 0.6762 0.5925 0.0
C427 C 0.11117 0.60197 0.49031 0.0
C428 C 0.07067 0.61707 0.63588 0.0
C429 C 0.13071 0.62066 0.68419 0.0
O430 O 0.1203 0.61013 0.64245 0.0
O431 O 0.13247 0.63699 0.69115 0.0
O432 O 0.09873 0.59081 0.53099 0.0
O433 O 0.11885 0.62021 0.49572 0.0
O434 O 0.44386 0.43617 0.58983 0.0
Cd435 Cd 0.45949 0.46128 0.54191 0.0
Cd436 Cd 0.48025 0.44273 0.51937 0.0
O437 O 0.45451 0.41767 0.55144 0.0
O438 O 0.43884 0.46998 0.54994 0.0
O439 O 0.44523 0.46027 0.4667 0.0
C440 C 0.43366 0.46475 0.49683 0.0
C441 C 0.49257 0.45315 0.42477 0.0
C442 C 0.44215 0.41983 0.58483 0.0
C443 C 0.50121 0.4774 0.59305 0.0
O444 O 0.49882 0.46102 0.58251 0.0
O445 O 0.48864 0.48217 0.57266 0.0
O446 O 0.49836 0.44288 0.45332 0.0
O447 O 0.47863 0.45601 0.44826 0.0
O448 O 0.59668 0.99193 0.51702 0.0
Cd449 Cd 0.57071 0.97234 0.56175 0.0
Cd450 Cd 0.5872 0.01662 0.48871 0.0
O451 O 0.61583 0.02246 0.5199 0.0
O452 O 0.57399 0.95267 0.60595 0.0
O453 O 0.55789 0.94705 0.52151 0.0
C454 C 0.56552 0.94144 0.56232 0.0
C455 C 0.5744 0.00903 0.39429 0.0
C456 C 0.61162 0.00631 0.54083 0.0
C457 C 0.55397 0.99966 0.59301 0.0
O458 O 0.56597 0.01265 0.55554 0.0
O459 O 0.55311 0.98344 0.59846 0.0
O460 O 0.5837 0.02665 0.41132 0.0
O461 O 0.57372 0.99615 0.42955 0.0
O462 O 0.27555 0.34826 0.2725 0.0
Cd463 Cd 0.26158 0.35634 0.33429 0.0
Cd464 Cd 0.24555 0.3183 0.35948 0.0
O465 O 0.26671 0.31866 0.29882 0.0
O466 O 0.27996 0.38507 0.32947 0.0
O467 O 0.27783 0.36788 0.40744 0.0
C468 C 0.2869 0.38428 0.38 0.0
C469 C 0.24029 0.31101 0.45886 0.0
C470 C 0.27669 0.33331 0.265 0.0
C471 C 0.21695 0.33064 0.3083 0.0
O472 O 0.22055 0.31736 0.32149 0.0
O473 O 0.2309 0.34822 0.31517 0.0
O474 O 0.23316 0.29743 0.42114 0.0
O475 O 0.25219 0.32851 0.44006 0.0
O476 O 0.66919 0.90065 0.32739 0.0
Cd477 Cd 0.6631 0.87813 0.38208 0.0
Cd478 Cd 0.70482 0.9036 0.39672 0.0
O479 O 0.7003 0.92381 0.35358 0.0
O480 O 0.63184 0.86474 0.39273 0.0
O481 O 0.65388 0.88056 0.46238 0.0
C482 C 0.6351 0.87209 0.44407 0.0
C483 C 0.71169 0.90178 0.49487 0.0
C484 C 0.68391 0.91806 0.32403 0.0
C485 C 0.69249 0.86736 0.33097 0.0
O486 O 0.70638 0.88462 0.34112 0.0
O487 O 0.67392 0.86034 0.35113 0.0
O488 O 0.72686 0.91174 0.45808 0.0
O489 O 0.69297 0.89384 0.47626 0.0
O490 O 0.11271 0.78896 0.25067 0.0
Cd491 Cd 0.13465 0.80652 0.30858 0.0
Cd492 Cd 0.10471 0.81683 0.32263 0.0
O493 O 0.0869 0.79439 0.26658 0.0
O494 O 0.1524 0.79455 0.32041 0.0
O495 O 0.13188 0.79537 0.38882 0.0
C496 C 0.14415 0.78949 0.37217 0.0
C497 C 0.09964 0.81949 0.42208 0.0
C498 C 0.09451 0.78552 0.23997 0.0
C499 C 0.14607 0.84632 0.26796 0.0
O500 O 0.12735 0.84136 0.28034 0.0
O501 O 0.15289 0.83513 0.28035 0.0
O502 O 0.09063 0.82444 0.3837 0.0
O503 O 0.11019 0.81194 0.40376 0.0
H504 H 0.20302 0.96269 0.26921 0.0
H505 H 0.24 0.95787 0.13157 0.0
H506 H 0.21427 0.99531 0.23583 0.0
H507 H 0.25208 0.99066 0.09997 0.0
H508 H 0.26686 0.05932 0.22736 0.0
H509 H 0.24464 0.02497 0.24396 0.0
H510 H 0.24897 0.01555 0.06007 0.0
H511 H 0.27215 0.05001 0.04422 0.0
C512 C 0.21325 0.96846 0.23112 0.0
C513 C 0.22081 0.95773 0.2036 0.0
C514 C 0.21993 0.9873 0.21231 0.0
C515 C 0.23456 0.996 0.16595 0.0
C516 C 0.24076 0.98463 0.13558 0.0
C517 C 0.23387 0.96571 0.15391 0.0
C518 C 0.26269 0.04999 0.19015 0.0
C519 C 0.27149 0.05746 0.13456 0.0
C520 C 0.24979 0.03015 0.19961 0.0
C521 C 0.24511 0.01721 0.15356 0.0
C522 C 0.2526 0.0249 0.09701 0.0
C523 C 0.26573 0.04475 0.08771 0.0
H524 H 0.98757 0.23151 0.08369 0.0
H525 H 0.97046 0.21844 0.26635 0.0
H526 H 0.02424 0.24731 0.10809 0.0
H527 H 0.00707 0.23471 0.29103 0.0
H528 H 0.08468 0.2976 0.18366 0.0
H529 H 0.04946 0.27642 0.1507 0.0
H530 H 0.03939 0.2357 0.28908 0.0
H531 H 0.0745 0.25726 0.32314 0.0
C532 C 0.99161 0.23181 0.12906 0.0
C533 C 0.97599 0.22372 0.17304 0.0
C534 C 0.0127 0.24105 0.14315 0.0
C535 C 0.01882 0.24254 0.20168 0.0
C536 C 1.00312 0.23372 0.2454 0.0
C537 C 0.98202 0.22441 0.23127 0.0
C538 C 0.07511 0.28397 0.20648 0.0
C539 C 0.08244 0.27926 0.25645 0.0
C540 C 0.05483 0.27172 0.1874 0.0
C541 C 0.04129 0.25434 0.21756 0.0
C542 C 0.04911 0.24912 0.26542 0.0
C543 C 0.06939 0.26141 0.28461 0.0
H544 H 0.71932 0.7812 0.23163 0.0
H545 H 0.74615 0.79096 0.40266 0.0
H546 H 0.73878 0.76591 0.20234 0.0
H547 H 0.76567 0.77569 0.3732 0.0
H548 H 0.75894 0.71579 0.32675 0.0
H549 H 0.75238 0.74113 0.35556 0.0
H550 H 0.77239 0.76762 0.18413 0.0
H551 H 0.77897 0.74226 0.15522 0.0
C552 C 0.72989 0.78066 0.26238 0.0
C553 C 0.73097 0.78711 0.3197 0.0
C554 C 0.7411 0.7719 0.24556 0.0
C555 C 0.75354 0.76929 0.28578 0.0
C556 C 0.75598 0.77721 0.3415 0.0
C557 C 0.74492 0.78614 0.35816 0.0
C558 C 0.76254 0.72731 0.29572 0.0
C559 C 0.76927 0.72683 0.23849 0.0
C560 C 0.75881 0.7419 0.31228 0.0
C561 C 0.76161 0.75629 0.27186 0.0
C562 C 0.7698 0.7566 0.21601 0.0
C563 C 0.77369 0.7421 0.19961 0.0
H564 H 0.75952 0.95266 0.89168 0.0
H565 H 0.73119 0.94303 0.72279 0.0
H566 H 0.78258 0.9865 0.86577 0.0
H567 H 0.75447 0.97696 0.69682 0.0
H568 H 0.78851 0.04681 0.8274 0.0
H569 H 0.77435 0.01287 0.85181 0.0
H570 H 0.79188 1.00392 0.67993 0.0
H571 H 0.80625 0.0379 0.65558 0.0
C572 C 0.75854 0.95761 0.84841 0.0
C573 C 0.74334 0.94509 0.80947 0.0
C574 C 0.77169 0.97708 0.8338 0.0
C575 C 0.7702 0.98449 0.77957 0.0
C576 C 0.75608 0.9717 0.73891 0.0
C577 C 0.74271 0.95223 0.75379 0.0
C578 C 0.78988 0.03774 0.79537 0.0
C579 C 0.79848 0.04511 0.73951 0.0
C580 C 0.78176 0.01826 0.80934 0.0
C581 C 0.78179 0.00564 0.76755 0.0
C582 C 0.79142 0.01322 0.71283 0.0
C583 C 0.79984 0.03276 0.69915 0.0
H584 H 0.02855 0.78425 0.86756 0.0
H585 H 0.04945 0.78382 0.69151 0.0
H586 H 0.99306 0.7706 0.83419 0.0
H587 H 0.01401 0.76874 0.65848 0.0
H588 H 0.94917 0.74431 0.60028 0.0
H589 H 0.98403 0.76676 0.63373 0.0
H590 H 0.96505 0.74274 0.80887 0.0
H591 H 0.93005 0.72165 0.77583 0.0
C592 C 0.02554 0.78134 0.82155 0.0
C593 C 0.04183 0.78515 0.78224 0.0
C594 C 1.00506 0.77321 0.80229 0.0
C595 C 1.00016 0.76803 0.74341 0.0
C596 C 0.01678 0.77264 0.70387 0.0
C597 C 0.0373 0.78129 0.72289 0.0
C598 C 0.95241 0.74424 0.6462 0.0
C599 C 0.93682 0.73121 0.68534 0.0
C600 C 0.97257 0.75695 0.6655 0.0
C601 C 0.9779 0.75658 0.72422 0.0
C602 C 0.96189 0.74396 0.76361 0.0
C603 C 0.94163 0.73167 0.74457 0.0
H604 H 0.26013 0.20577 0.70521 0.0
H605 H 0.30819 0.23748 0.82967 0.0
H606 H 0.24013 0.21941 0.74501 0.0
H607 H 0.28873 0.25145 0.86808 0.0
H608 H 0.25197 0.2756 0.93614 0.0
H609 H 0.26059 0.25091 0.91657 0.0
H610 H 0.24398 0.25016 0.73618 0.0
H611 H 0.23461 0.27417 0.75644 0.0
C612 C 0.2662 0.21525 0.74201 0.0
C613 C 0.28587 0.22063 0.76383 0.0
C614 C 0.25483 0.22326 0.76449 0.0
C615 C 0.26293 0.2369 0.8091 0.0
C616 C 0.28179 0.24094 0.83411 0.0
C617 C 0.29306 0.23289 0.81188 0.0
C618 C 0.24963 0.26977 0.89268 0.0
C619 C 0.24279 0.27702 0.84772 0.0
C620 C 0.25475 0.2557 0.88128 0.0
C621 C 0.25339 0.24868 0.82447 0.0
C622 C 0.24511 0.25499 0.7806 0.0
C623 C 0.2398 0.26891 0.79215 0.0
H624 H 0.89562 0.24237 0.48171 0.0
H625 H 0.85805 0.24285 0.6258 0.0
H626 H 0.89256 0.26744 0.43196 0.0
H627 H 0.85466 0.26778 0.57548 0.0
H628 H 0.88193 0.33089 0.50874 0.0
H629 H 0.87728 0.30155 0.55404 0.0
H630 H 0.87096 0.27694 0.38361 0.0
H631 H 0.87613 0.30647 0.33832 0.0
C632 C 0.88628 0.2475 0.5022 0.0
C633 C 0.87721 0.24066 0.55796 0.0
C634 C 0.88447 0.26189 0.47354 0.0
C635 C 0.87352 0.26985 0.49988 0.0
C636 C 0.86353 0.26227 0.55434 0.0
C637 C 0.86533 0.24784 0.583 0.0
C638 C 0.87922 0.31912 0.48097 0.0
C639 C 0.87957 0.32113 0.41986 0.0
C640 C 0.87645 0.30221 0.50697 0.0
C641 C 0.8739 0.28686 0.47252 0.0
C642 C 0.87325 0.28856 0.41151 0.0
C643 C 0.87608 0.30548 0.38553 0.0
H644 H 0.59129 0.5537 0.6121 0.0
H645 H 0.60647 0.54605 0.43561 0.0
H646 H 0.62789 0.56914 0.63667 0.0
H647 H 0.64319 0.56173 0.46018 0.0
H648 H 0.7043 0.61994 0.51151 0.0
H649 H 0.66898 0.59629 0.48314 0.0
H650 H 0.65908 0.56555 0.64668 0.0
H651 H 0.69435 0.58908 0.67503 0.0
C652 C 0.60232 0.5548 0.57896 0.0
C653 C 0.59586 0.54861 0.52187 0.0
C654 C 0.62337 0.56369 0.59304 0.0
C655 C 0.63853 0.56685 0.5502 0.0
C656 C 0.63194 0.55969 0.494 0.0
C657 C 0.61084 0.55053 0.48013 0.0
C658 C 0.6948 0.60785 0.54074 0.0
C659 C 0.70216 0.60653 0.59575 0.0
C660 C 0.67453 0.59426 0.52445 0.0
C661 C 0.66109 0.57915 0.56301 0.0
C662 C 0.66893 0.57715 0.61633 0.0
C663 C 0.68925 0.59059 0.63233 0.0
H664 H 0.37252 0.11584 0.49905 0.0
H665 H 0.42053 0.14818 0.62302 0.0
H666 H 0.39245 0.10243 0.46023 0.0
H667 H 0.4411 0.13522 0.58252 0.0
H668 H 0.44896 0.08182 0.56905 0.0
H669 H 0.43909 0.10545 0.58982 0.0
H670 H 0.42017 0.10307 0.41109 0.0
H671 H 0.42913 0.07863 0.39134 0.0
C672 C 0.38773 0.12067 0.5167 0.0
C673 C 0.39477 0.13295 0.5647 0.0
C674 C 0.3993 0.11296 0.49416 0.0
C675 C 0.41837 0.1174 0.51867 0.0
C676 C 0.42626 0.13104 0.56338 0.0
C677 C 0.41456 0.13867 0.58626 0.0
C678 C 0.44319 0.08668 0.53373 0.0
C679 C 0.43957 0.0781 0.47875 0.0
C680 C 0.43756 0.10037 0.54559 0.0
C681 C 0.42839 0.10604 0.50253 0.0
C682 C 0.4266 0.09872 0.44596 0.0
C683 C 0.43195 0.08481 0.43436 0.0
H684 H 0.42141 0.27995 0.1192 0.0
H685 H 0.37494 0.26459 0.98784 0.0
H686 H 0.44101 0.3125 0.07773 0.0
H687 H 0.39388 0.297 0.94795 0.0
H688 H 0.44538 0.3718 0.05648 0.0
H689 H 0.43672 0.33923 0.08063 0.0
H690 H 0.42159 0.32345 0.90046 0.0
H691 H 0.42935 0.35592 0.87712 0.0
C692 C 0.41563 0.28335 0.08059 0.0
C693 C 0.39648 0.26965 0.05725 0.0
C694 C 0.42674 0.30213 0.05718 0.0
C695 C 0.41891 0.30768 0.01008 0.0
C696 C 0.40064 0.29344 0.98385 0.0
C697 C 0.38965 0.2747 0.00696 0.0
C698 C 0.4407 0.36152 0.02168 0.0
C699 C 0.43783 0.36644 0.96501 0.0
C700 C 0.43578 0.34274 0.03549 0.0
C701 C 0.42807 0.32842 0.99279 0.0
C702 C 0.42692 0.33386 0.93496 0.0
C703 C 0.43158 0.35258 0.92136 0.0
H704 H 0.73486 0.12343 0.14009 0.0
H705 H 0.71324 0.0776 0.26893 0.0
H706 H 0.69898 0.11296 0.11652 0.0
H707 H 0.67765 0.06617 0.24282 0.0
H708 H 0.61316 0.04677 0.19519 0.0
H709 H 0.64747 0.06632 0.23674 0.0
H710 H 0.67291 0.08963 0.06437 0.0
H711 H 0.63855 0.07127 0.0245 0.0
C712 C 0.72241 0.11123 0.16382 0.0
C713 C 0.72691 0.10132 0.20618 0.0
C714 C 0.70176 0.10501 0.14983 0.0
C715 C 0.68509 0.08835 0.17661 0.0
C716 C 0.68974 0.07916 0.22139 0.0
C717 C 0.71032 0.08568 0.23636 0.0
C718 C 0.62605 0.05652 0.16667 0.0
C719 C 0.62314 0.05739 0.10653 0.0
C720 C 0.64586 0.06759 0.1903 0.0
C721 C 0.66338 0.07941 0.15408 0.0
C722 C 0.66006 0.08103 0.09437 0.0
C723 C 0.64021 0.07035 0.07114 0.0
H724 H 0.86306 0.63445 1.00005 0.0
H725 H 0.82028 0.59241 0.1266 0.0
H726 H 0.86509 0.60949 0.94824 0.0
H727 H 0.82284 0.56724 0.07519 0.0
H728 H 0.86099 0.53836 0.01054 0.0
H729 H 0.85084 0.55926 0.05865 0.0
H730 H 0.84507 0.58035 0.89032 0.0
H731 H 0.85532 0.55965 0.8423 0.0
C732 C 0.85355 0.61977 0.01591 0.0
C733 C 0.84113 0.61543 0.06685 0.0
C734 C 0.85485 0.60542 0.9863 0.0
C735 C 0.84409 0.58632 0.00739 0.0
C736 C 0.8314 0.58184 0.05795 0.0
C737 C 0.82986 0.59623 0.08721 0.0
C738 C 0.85721 0.54721 0.98378 0.0
C739 C 0.85917 0.54744 0.92254 0.0
C740 C 0.8513 0.55914 0.01137 0.0
C741 C 0.84733 0.57162 0.97834 0.0
C742 C 0.84831 0.57112 0.91708 0.0
C743 C 0.85411 0.55917 0.88954 0.0
H744 H 0.58964 0.72963 0.91448 0.0
H745 H 0.63594 0.74284 0.04495 0.0
H746 H 0.56951 0.69672 0.9529 0.0
H747 H 0.61647 0.71005 0.08167 0.0
H748 H 0.58001 0.65051 0.14691 0.0
H749 H 0.58844 0.68339 0.12734 0.0
H750 H 0.57324 0.6697 0.94604 0.0
H751 H 0.5639 0.63671 0.96648 0.0
C752 C 0.59527 0.72568 0.95229 0.0
C753 C 0.61454 0.73887 0.97616 0.0
C754 C 0.58385 0.70669 0.97391 0.0
C755 C 0.59148 0.70043 0.01971 0.0
C756 C 0.60987 0.71416 0.04669 0.0
C757 C 0.62117 0.73311 0.02538 0.0
C758 C 0.57792 0.65441 0.10323 0.0
C759 C 0.57143 0.641 0.05816 0.0
C760 C 0.58296 0.67336 0.0918 0.0
C761 C 0.58197 0.67949 0.03477 0.0
C762 C 0.57407 0.66565 0.99065 0.0
C763 C 0.56875 0.64663 1.0023 0.0
H764 H 0.36591 0.9273 0.0405 0.0
H765 H 0.38145 0.95266 0.86682 0.0
H766 H 0.32982 0.90659 0.01255 0.0
H767 H 0.34533 0.93175 0.83882 0.0
H768 H 0.26691 0.9034 0.95754 0.0
H769 H 0.30241 0.91507 0.98859 0.0
H770 H 0.31619 0.89715 0.82563 0.0
H771 H 0.28061 0.88525 0.79475 0.0
C772 C 0.36177 0.92813 0.9959 0.0
C773 C 0.3766 0.94174 0.95594 0.0
C774 C 0.34103 0.91633 0.98008 0.0
C775 C 0.33467 0.91761 0.92366 0.0
C776 C 0.34976 0.93031 0.88255 0.0
C777 C 0.37047 0.94233 0.8986 0.0
C778 C 0.27728 0.90137 0.92911 0.0
C779 C 0.2709 0.89346 0.87356 0.0
C780 C 0.29767 0.90809 0.94687 0.0
C781 C 0.3122 0.90727 0.90918 0.0
C782 C 0.30542 0.89819 0.85531 0.0
C783 C 0.28495 0.8912 0.8379 0.0
H784 H 0.16625 0.39036 0.99555 0.0
H785 H 0.16973 0.41598 0.82659 0.0
H786 H 0.16531 0.41654 0.04268 0.0
H787 H 0.1699 0.44294 0.87371 0.0
H788 H 0.1386 0.47122 0.97257 0.0
H789 H 0.14685 0.44977 0.92098 0.0
H790 H 0.18084 0.44822 0.07008 0.0
H791 H 0.17149 0.46883 0.12261 0.0
C792 C 0.16741 0.40188 0.96845 0.0
C793 C 0.16791 0.40096 0.90728 0.0
C794 C 0.16697 0.41707 0.99556 0.0
C795 C 0.16734 0.43197 0.96227 0.0
C796 C 0.16907 0.43157 0.90099 0.0
C797 C 0.16919 0.41618 0.87385 0.0
C798 C 0.14809 0.46652 0.99397 0.0
C799 C 0.15422 0.47159 0.05188 0.0
C800 C 0.15295 0.45423 0.96422 0.0
C801 C 0.16438 0.44694 0.9913 0.0
C802 C 0.17155 0.45304 0.04811 0.0
C803 C 0.16636 0.46503 0.07819 0.0
H804 H 0.13921 0.68489 0.47528 0.0
H805 H 0.13906 0.70983 0.64105 0.0
H806 H 0.14605 0.71439 0.42494 0.0
H807 H 0.14605 0.73928 0.5908 0.0
H808 H 0.1231 0.77156 0.47295 0.0
H809 H 0.12424 0.74648 0.52847 0.0
H810 H 0.17093 0.74962 0.40842 0.0
H811 H 0.17018 0.77534 0.35318 0.0
C812 C 0.141 0.69677 0.50106 0.0
C813 C 0.13839 0.6949 0.56219 0.0
C814 C 0.14503 0.71372 0.47221 0.0
C815 C 0.14642 0.72914 0.50382 0.0
C816 C 0.14478 0.72758 0.5651 0.0
C817 C 0.14086 0.7107 0.59391 0.0
C818 C 0.13416 0.76744 0.45934 0.0
C819 C 0.1468 0.77574 0.40909 0.0
C820 C 0.13473 0.75292 0.49112 0.0
C821 C 0.14769 0.74602 0.47296 0.0
C822 C 0.16068 0.75455 0.42333 0.0
C823 C 0.16032 0.76933 0.39188 0.0
H824 H 0.40156 0.46302 0.56051 0.0
H825 H 0.41814 0.45442 0.38682 0.0
H826 H 0.36508 0.44697 0.5339 0.0
H827 H 0.38162 0.43847 0.36012 0.0
H828 H 0.30457 0.38838 0.48709 0.0
H829 H 0.34 0.41225 0.51387 0.0
H830 H 0.34985 0.44094 0.3465 0.0
H831 H 0.31442 0.41716 0.31975 0.0
C832 C 0.39755 0.45824 0.51607 0.0
C833 C 0.41283 0.45992 0.47589 0.0
C834 C 0.37656 0.44885 0.50105 0.0
C835 C 0.37035 0.44116 0.44521 0.0
C836 C 0.38583 0.44425 0.40352 0.0
C837 C 0.40681 0.45343 0.41878 0.0
C838 C 0.31411 0.40004 0.45654 0.0
C839 C 0.30663 0.40077 0.40117 0.0
C840 C 0.33443 0.41377 0.47192 0.0
C841 C 0.34786 0.42844 0.43208 0.0
C842 C 0.34001 0.42973 0.37792 0.0
C843 C 0.31961 0.41615 0.36283 0.0
H844 H 0.55999 0.92098 0.46314 0.0
H845 H 0.57706 0.92378 0.64356 0.0
H846 H 0.5722 0.89893 0.4439 0.0
H847 H 0.58837 0.90089 0.62523 0.0
H848 H 0.63957 0.89158 0.54441 0.0
H849 H 0.61758 0.90321 0.58029 0.0
H850 H 0.57197 0.86999 0.45107 0.0
H851 H 0.59462 0.85885 0.41361 0.0
C852 C 0.56566 0.91635 0.49929 0.0
C853 C 0.56777 0.92437 0.55473 0.0
C854 C 0.57265 0.90356 0.4883 0.0
C855 C 0.58171 0.89826 0.53269 0.0
C856 C 0.58206 0.905 0.58943 0.0
C857 C 0.57535 0.918 0.60018 0.0
C858 C 0.62458 0.88623 0.52465 0.0
C859 C 0.61903 0.87441 0.47562 0.0
C860 C 0.61182 0.89293 0.54543 0.0
C861 C 0.593 0.88789 0.51811 0.0
C862 C 0.58657 0.87463 0.47238 0.0
C863 C 0.59946 0.86803 0.45127 0.0
H864 H 0.35997 0.24406 0.88752 0.0
H865 H 0.40024 0.22615 0.81193 0.0
H866 H 0.35449 0.22381 0.9743 0.0
H867 H 0.39537 0.20654 0.89931 0.0
H868 H 0.38864 0.17995 0.08101 0.0
H869 H 0.39889 0.20696 0.01389 0.0
H870 H 0.33452 0.18535 0.97501 0.0
H871 H 0.32404 0.15785 0.04176 0.0
C872 C 0.36813 0.23626 0.89039 0.0
C873 C 0.38011 0.23628 0.8427 0.0
C874 C 0.36493 0.22467 0.93979 0.0
C875 C 0.37406 0.21329 0.94283 0.0
C876 C 0.38803 0.2151 0.89801 0.0
C877 C 0.39101 0.2265 0.84825 0.0
C878 C 0.37653 0.18098 0.05894 0.0
C879 C 0.35545 0.16653 0.06654 0.0
C880 C 0.38251 0.19649 0.02034 0.0
C881 C 0.36755 0.19821 0.98918 0.0
C882 C 0.34638 0.1844 0.99886 0.0
C883 C 0.34038 0.16861 0.03679 0.0
H884 H 0.79999 0.1469 0.81633 0.0
H885 H 0.77125 0.09254 0.90976 0.0
H886 H 0.82292 0.1624 0.89822 0.0
H887 H 0.79266 0.10862 0.99471 0.0
H888 H 0.83359 0.15621 0.13998 0.0
H889 H 0.80586 0.13793 0.07058 0.0
H890 H 0.85191 0.15435 0.93228 0.0
H891 H 0.87962 0.17213 1.00159 0.0
C892 C 0.79788 0.13846 0.8556 0.0
C893 C 0.78404 0.11851 0.85667 0.0
C894 C 0.81117 0.14729 0.90216 0.0
C895 C 0.81015 0.13649 0.95178 0.0
C896 C 0.79429 0.11708 0.9561 0.0
C897 C 0.78183 0.10795 0.90796 0.0
C898 C 0.8378 0.15547 0.09504 0.0
C899 C 0.85882 0.16568 0.07624 0.0
C900 C 0.82192 0.1451 0.05537 0.0
C901 C 0.82674 0.14518 0.99588 0.0
C902 C 0.84776 0.15439 0.97778 0.0
C903 C 0.86365 0.16436 0.01762 0.0
H904 H 0.80262 0.61148 0.83158 0.0
H905 H 0.86453 0.65398 0.88285 0.0
H906 H 0.78863 0.61523 0.92426 0.0
H907 H 0.85035 0.65809 0.97463 0.0
H908 H 0.81056 0.68052 0.06965 0.0
H909 H 0.82836 0.67286 0.99397 0.0
H910 H 0.78858 0.61238 0.03412 0.0
H911 H 0.77065 0.61989 0.10941 0.0
C912 C 0.81331 0.62127 0.86325 0.0
C913 C 0.83463 0.63281 0.84948 0.0
C914 C 0.80528 0.62349 0.91624 0.0
C915 C 0.81843 0.63732 0.95618 0.0
C916 C 0.83987 0.64775 0.94402 0.0
C917 C 0.84795 0.64533 0.89163 0.0
C918 C 0.80586 0.66562 0.06318 0.0
C919 C 0.78893 0.65083 0.09499 0.0
C920 C 0.81611 0.66123 0.01994 0.0
C921 C 0.80964 0.64199 0.00762 0.0
C922 C 0.79362 0.6273 0.04191 0.0
C923 C 0.78344 0.63166 0.08524 0.0
H924 H 0.24332 0.39288 0.65593 0.0
H925 H 0.27129 0.35991 0.60494 0.0
H926 H 0.22566 0.3861 0.56241 0.0
H927 H 0.25355 0.35321 0.51106 0.0
H928 H 0.18174 0.32051 0.43229 0.0
H929 H 0.20975 0.33147 0.50313 0.0
H930 H 0.23451 0.39002 0.44396 0.0
H931 H 0.20718 0.37928 0.37247 0.0
C932 C 0.24621 0.3847 0.62394 0.0
C933 C 0.25829 0.37655 0.63793 0.0
C934 C 0.23601 0.38072 0.57062 0.0
C935 C 0.23782 0.36861 0.53043 0.0
C936 C 0.25142 0.36199 0.54224 0.0
C937 C 0.26162 0.36595 0.59556 0.0
C938 C 0.19355 0.33561 0.43301 0.0
C939 C 0.19193 0.34903 0.39747 0.0
C940 C 0.20956 0.34188 0.47353 0.0
C941 C 0.22403 0.36162 0.47941 0.0
C942 C 0.2234 0.37478 0.4407 0.0
C943 C 0.20769 0.36854 0.39981 0.0
H944 H 0.62124 0.79873 0.4623 0.0
H945 H 0.68739 0.83719 0.48006 0.0
H946 H 0.61442 0.81779 0.53066 0.0
H947 H 0.68039 0.8561 0.54915 0.0
H948 H 0.66386 0.89207 0.65627 0.0
H949 H 0.66511 0.87689 0.56556 0.0
H950 H 0.61934 0.82146 0.63764 0.0
H951 H 0.61821 0.83655 0.7281 0.0
C952 C 0.63437 0.81139 0.48016 0.0
C953 C 0.65491 0.81621 0.46638 0.0
C954 C 0.6304 0.82229 0.51947 0.0
C955 C 0.64684 0.83835 0.54577 0.0
C956 C 0.66738 0.8439 0.52923 0.0
C957 C 0.6714 0.83296 0.48997 0.0
C958 C 0.65377 0.87669 0.65203 0.0
C959 C 0.64137 0.86543 0.69955 0.0
C960 C 0.65454 0.86802 0.60029 0.0
C961 C 0.64277 0.84798 0.59486 0.0
C962 C 0.62866 0.83696 0.64026 0.0
C963 C 0.62793 0.84562 0.6921 0.0
H964 H 0.17092 0.86962 0.39385 0.0
H965 H 0.21199 0.84824 0.35352 0.0
H966 H 0.15421 0.845 0.47143 0.0
H967 H 0.19556 0.82407 0.43111 0.0
H968 H 0.18391 0.8107 0.63527 0.0
H969 H 0.19677 0.82871 0.54278 0.0
H970 H 0.13389 0.80814 0.49115 0.0
H971 H 0.12082 0.7893 0.58238 0.0
C972 C 0.17614 0.85951 0.4007 0.0
C973 C 0.19308 0.86119 0.36818 0.0
C974 C 0.1666 0.84543 0.44511 0.0
C975 C 0.17399 0.83296 0.45803 0.0
C976 C 0.18991 0.83379 0.42293 0.0
C977 C 0.19923 0.84763 0.3783 0.0
C978 C 0.17278 0.80959 0.60351 0.0
C979 C 0.15134 0.79904 0.61663 0.0
C980 C 0.18014 0.81998 0.55072 0.0
C981 C 0.1662 0.8201 0.51045 0.0
C982 C 0.14484 0.80864 0.52222 0.0
C983 C 0.13744 0.79792 0.57429 0.0
H984 H 0.64122 0.82239 0.9214 0.0
H985 H 0.7 0.86108 0.99994 0.0
H986 H 0.63283 0.79908 1.00134 0.0
H987 H 0.69134 0.83803 0.08023 0.0
H988 H 0.65348 0.81028 0.24918 0.0
H989 H 0.66235 0.82903 0.15819 0.0
H990 H 0.64405 0.77773 0.06041 0.0
H991 H 0.63603 0.75899 0.15256 0.0
C992 C 0.65257 0.82571 0.95494 0.0
C993 C 0.67117 0.84371 0.95472 0.0
C994 C 0.64774 0.81235 1.00067 0.0
C995 C 0.66123 0.81692 0.04766 0.0
C996 C 0.68054 0.83422 0.04495 0.0
C997 C 0.68557 0.84739 0.99866 0.0
C998 C 0.65129 0.80302 0.20813 0.0
C999 C 0.64439 0.78335 0.20761 0.0
C1000 C 0.65644 0.81373 0.15612 0.0
C1001 C 0.65441 0.80491 0.10215 0.0
C1002 C 0.64602 0.78489 0.10136 0.0
C1003 C 0.64127 0.77417 0.15388 0.0
H1004 H 0.18074 0.84145 0.83506 0.0
H1005 H 0.13574 0.82591 0.97607 0.0
H1006 H 0.20892 0.86051 0.90207 0.0
H1007 H 0.16408 0.84466 0.0434 0.0
H1008 H 0.24562 0.90803 0.05318 0.0
H1009 H 0.22099 0.89095 0.97494 0.0
H1010 H 0.19511 0.83813 0.07545 0.0
H1011 H 0.22009 0.85495 0.15234 0.0
C1012 C 0.17685 0.84245 0.88013 0.0
C1013 C 0.15599 0.83224 0.90025 0.0
C1014 C 0.193 0.85329 0.91842 0.0
C1015 C 0.18868 0.85375 0.97797 0.0
C1016 C 0.16781 0.84428 0.99772 0.0
C1017 C 0.15159 0.83378 0.9591 0.0
C1018 C 0.23521 0.89263 0.05725 0.0
C1019 C 0.23475 0.8828 0.10857 0.0
C1020 C 0.22103 0.88293 0.01289 0.0
C1021 C 0.20582 0.8634 0.02003 0.0
C1022 C 0.20645 0.85328 0.06935 0.0
C1023 C 0.22101 0.86283 0.1128 0.0
H1024 H 0.2315 0.38555 0.90921 0.0
H1025 H 0.19352 0.32486 0.95104 0.0
H1026 H 0.21133 0.39229 0.97938 0.0
H1027 H 0.17336 0.3318 0.02107 0.0
H1028 H 0.13178 0.34813 0.11534 0.0
H1029 H 0.14905 0.34656 0.0253 0.0
H1030 H 0.20847 0.38846 0.09299 0.0
H1031 H 0.1913 0.3903 0.1822 0.0
C1032 C 0.21864 0.37358 0.93254 0.0
C1033 C 0.21428 0.35463 0.92467 0.0
C1034 C 0.20718 0.37752 0.97297 0.0
C1035 C 0.19081 0.36258 0.00569 0.0
C1036 C 0.18574 0.34356 0.99587 0.0
C1037 C 0.19739 0.33961 0.95603 0.0
C1038 C 0.14847 0.35738 0.11012 0.0
C1039 C 0.16024 0.36905 0.15603 0.0
C1040 C 0.15833 0.35627 0.05914 0.0
C1041 C 0.18009 0.36679 0.05328 0.0
C1042 C 0.19166 0.38005 0.0965 0.0
C1043 C 0.1818 0.38121 0.14743 0.0
H1044 H 0.73227 0.64688 0.40908 0.0
H1045 H 0.76231 0.62095 0.31837 0.0
H1046 H 0.75586 0.65403 0.49136 0.0
H1047 H 0.78635 0.62888 0.39888 0.0
H1048 H 0.8433 0.67787 0.49513 0.0
H1049 H 0.81438 0.66757 0.42805 0.0
H1050 H 0.77062 0.63582 0.56837 0.0
H1051 H 0.79955 0.64564 0.63527 0.0
C1052 C 0.74346 0.64219 0.40769 0.0
C1053 C 0.74561 0.63351 0.35744 0.0
C1054 C 0.75704 0.64644 0.45432 0.0
C1055 C 0.77329 0.64259 0.45035 0.0
C1056 C 0.77415 0.63229 0.40248 0.0
C1057 C 0.76018 0.62747 0.35688 0.0
C1058 C 0.82752 0.6691 0.51204 0.0
C1059 C 0.82372 0.66255 0.57044 0.0
C1060 C 0.811 0.66302 0.47354 0.0
C1061 C 0.79035 0.65059 0.49296 0.0
C1062 C 0.7864 0.64523 0.55227 0.0
C1063 C 0.80295 0.65094 0.59047 0.0
H1064 H 0.39991 0.1791 0.32683 0.0
H1065 H 0.35597 0.12119 0.38556 0.0
H1066 H 0.39525 0.19133 0.4195 0.0
H1067 H 0.35116 0.13355 0.47795 0.0
H1068 H 0.32474 0.17044 0.56825 0.0
H1069 H 0.33361 0.15388 0.4947 0.0
H1070 H 0.39867 0.1903 0.5313 0.0
H1071 H 0.39002 0.20677 0.60475 0.0
C1072 C 0.38969 0.16895 0.3602 0.0
C1073 C 0.37791 0.14922 0.34864 0.0
C1074 C 0.38695 0.17595 0.41317 0.0
C1075 C 0.37241 0.16334 0.45544 0.0
C1076 C 0.362 0.14354 0.44558 0.0
C1077 C 0.3648 0.13652 0.39286 0.0
C1078 C 0.34088 0.17461 0.56166 0.0
C1079 C 0.35666 0.19018 0.59173 0.0
C1080 C 0.34595 0.16508 0.51966 0.0
C1081 C 0.36686 0.17101 0.5068 0.0
C1082 C 0.38247 0.18565 0.53967 0.0
C1083 C 0.37744 0.19504 0.58185 0.0
H1084 H 0.80898 0.15863 0.61885 0.0
H1085 H 0.85396 0.14107 0.5887 0.0
H1086 H 0.82608 0.18368 0.54392 0.0
H1087 H 0.87115 0.16645 0.51423 0.0
H1088 H 0.9025 0.21695 0.39087 0.0
H1089 H 0.88989 0.20066 0.48573 0.0
H1090 H 0.82681 0.18044 0.43597 0.0
H1091 H 0.8394 0.19574 0.33963 0.0
C1092 C 0.82278 0.16032 0.5971 0.0
C1093 C 0.82978 0.14745 0.60879 0.0
C1094 C 0.83251 0.17468 0.55396 0.0
C1095 C 0.84965 0.17672 0.52202 0.0
C1096 C 0.8579 0.16513 0.53775 0.0
C1097 C 0.84802 0.15056 0.58047 0.0
C1098 C 0.88596 0.20908 0.40063 0.0
C1099 C 0.8719 0.20705 0.35773 0.0
C1100 C 0.87878 0.19995 0.45506 0.0
C1101 C 0.85744 0.18919 0.46853 0.0
C1102 C 0.84342 0.18876 0.42731 0.0
C1103 C 0.8506 0.19758 0.3722 0.0
H1104 H 0.88019 0.38839 0.18768 0.0
H1105 H 0.87567 0.42393 0.31952 0.0
H1106 H 0.88008 0.40974 0.11161 0.0
H1107 H 0.87587 0.44533 0.24388 0.0
H1108 H 0.86984 0.47734 0.08529 0.0
H1109 H 0.86033 0.45146 0.15757 0.0
H1110 H 0.90862 0.4427 0.08706 0.0
H1111 H 0.91799 0.46824 0.01538 0.0
C1112 C 0.87842 0.40034 0.20037 0.0
C1113 C 0.87822 0.40463 0.2595 0.0
C1114 C 0.87863 0.41272 0.15689 0.0
C1115 C 0.87848 0.42948 0.17186 0.0
C1116 C 0.87606 0.4326 0.23086 0.0
C1117 C 0.87598 0.42032 0.27422 0.0
C1118 C 0.8785 0.46997 0.08565 0.0
C1119 C 0.89471 0.4749 0.04469 0.0
C1120 C 0.87297 0.45508 0.12675 0.0
C1121 C 0.88345 0.44477 0.12726 0.0
C1122 C 0.89985 0.44997 0.08685 0.0
C1123 C 0.90542 0.46484 0.04623 0.0
H1124 H 0.47515 0.53334 0.36812 0.0
H1125 H 0.49121 0.49013 0.39935 0.0
H1126 H 0.44836 0.51222 0.30183 0.0
H1127 H 0.46521 0.46915 0.33065 0.0
H1128 H 0.41844 0.43243 0.20322 0.0
H1129 H 0.43447 0.44962 0.29197 0.0
H1130 H 0.44524 0.50241 0.20932 0.0
H1131 H 0.42756 0.48473 0.12358 0.0
C1132 C 0.47303 0.51928 0.36056 0.0
C1133 C 0.48594 0.51362 0.38714 0.0
C1134 C 0.45773 0.50715 0.32183 0.0
C1135 C 0.4551 0.48913 0.30794 0.0
C1136 C 0.46695 0.48299 0.33846 0.0
C1137 C 0.48211 0.49508 0.37752 0.0
C1138 C 0.42385 0.44764 0.20496 0.0
C1139 C 0.42182 0.45726 0.15656 0.0
C1140 C 0.43331 0.45764 0.25567 0.0
C1141 C 0.44169 0.47768 0.25842 0.0
C1142 C 0.4388 0.48703 0.21032 0.0
C1143 C 0.42874 0.47689 0.1605 0.0
H1144 H 0.56718 0.99857 0.23699 0.0
H1145 H 0.49996 0.95348 0.16524 0.0
H1146 H 0.53177 0.00719 0.35487 0.0
H1147 H 0.47703 0.95917 0.24242 0.0
H1148 H 0.44803 0.99561 0.32856 0.0
H1149 H 0.4689 0.98625 0.26905 0.0
H1150 H 0.50174 0.98644 0.42266 0.0
H1151 H 0.48009 0.99469 0.48238 0.0
C1152 C 0.55031 0.99162 0.24347 0.0
C1153 C 0.53499 0.97475 0.19399 0.0
C1154 C 0.52765 0.99728 0.31853 0.0
C1155 C 0.50188 0.98311 0.30476 0.0
C1156 C 0.49364 0.96748 0.24848 0.0
C1157 C 0.5085 0.96358 0.19912 0.0
C1158 C 0.45973 0.99362 0.34934 0.0
C1159 C 0.4628 0.99622 0.40972 0.0
C1160 C 0.47151 0.9881 0.31549 0.0
C1161 C 0.4871 0.98583 0.34114 0.0
C1162 C 0.48994 0.98823 0.40164 0.0
C1163 C 0.47767 0.99305 0.43576 0.0
H1164 H 0.80021 0.65427 0.75825 0.0
H1165 H 0.82065 0.71395 0.72272 0.0
H1166 H 0.82788 0.66424 0.82911 0.0
H1167 H 0.84811 0.7237 0.7933 0.0
H1168 H 0.88419 0.68714 0.94051 0.0
H1169 H 0.86797 0.68376 0.84518 0.0
H1170 H 0.84364 0.71896 0.90415 0.0
H1171 H 0.86036 0.72287 0.99797 0.0
C1172 C 0.81089 0.66947 0.76425 0.0
C1173 C 0.8079 0.68325 0.73544 0.0
C1174 C 0.82682 0.67519 0.80469 0.0
C1175 C 0.84006 0.69476 0.8171 0.0
C1176 C 0.83802 0.70853 0.78517 0.0
C1177 C 0.82224 0.70287 0.74462 0.0
C1178 C 0.87593 0.69464 0.93213 0.0
C1179 C 0.87331 0.7051 0.97654 0.0
C1180 C 0.86646 0.69249 0.87811 0.0
C1181 C 0.854 0.70053 0.86806 0.0
C1182 C 0.8531 0.71252 0.91059 0.0
C1183 C 0.86276 0.71486 0.96426 0.0
H1184 H 0.35425 0.18236 0.75757 0.0
H1185 H 0.28927 0.1465 0.71709 0.0
H1186 H 0.34493 0.19819 0.83199 0.0
H1187 H 0.28016 0.16249 0.79139 0.0
H1188 H 0.27944 0.173 0.99911 0.0
H1189 H 0.28273 0.16107 0.904 0.0
H1190 H 0.32817 0.2188 0.84861 0.0
H1191 H 0.32504 0.23074 0.94341 0.0
C1192 C 0.33809 0.17823 0.76326 0.0
C1193 C 0.32253 0.16297 0.73176 0.0
C1194 C 0.33275 0.18736 0.80581 0.0
C1195 C 0.31181 0.1815 0.81774 0.0
C1196 C 0.29639 0.16715 0.78364 0.0
C1197 C 0.30169 0.15807 0.74092 0.0
C1198 C 0.2895 0.18322 0.96565 0.0
C1199 C 0.3022 0.20276 0.9786 0.0
C1200 C 0.29148 0.1764 0.91132 0.0
C1201 C 0.30615 0.18904 0.86931 0.0
C1202 C 0.31717 0.20876 0.88053 0.0
C1203 C 0.31523 0.21558 0.93458 0.0
H1204 H 0.84471 0.1575 0.74069 0.0
H1205 H 0.8978 0.14986 0.7368 0.0
H1206 H 0.82849 0.13252 0.81679 0.0
H1207 H 0.88172 0.1254 0.81368 0.0
H1208 H 0.86396 0.11555 0.0141 0.0
H1209 H 0.87681 0.12998 0.91744 0.0
H1210 H 0.81422 0.09901 0.85316 0.0
H1211 H 0.80139 0.08451 0.9507 0.0
C1212 C 0.85274 0.15029 0.75515 0.0
C1213 C 0.87277 0.15602 0.7334 0.0
C1214 C 0.84342 0.13597 0.79885 0.0
C1215 C 0.85406 0.1274 0.82245 0.0
C1216 C 0.87332 0.13204 0.79735 0.0
C1217 C 0.8825 0.14608 0.75313 0.0
C1218 C 0.85304 0.11138 0.97889 0.0
C1219 C 0.83166 0.09925 0.98989 0.0
C1220 C 0.86038 0.11963 0.9234 0.0
C1221 C 0.84648 0.11582 0.87768 0.0
C1222 C 0.82524 0.10249 0.88773 0.0
C1223 C 0.81792 0.09421 0.94338 0.0
H1224 H 0.35393 0.18035 0.25325 0.0
H1225 H 0.28887 0.15938 0.22442 0.0
H1226 H 0.34403 0.15533 0.3287 0.0
H1227 H 0.27924 0.13467 0.29964 0.0
H1228 H 0.28101 0.12386 0.50581 0.0
H1229 H 0.28484 0.13945 0.41073 0.0
H1230 H 0.32349 0.11782 0.34867 0.0
H1231 H 0.3201 0.10257 0.44484 0.0
C1232 C 0.33759 0.17016 0.26175 0.0
C1233 C 0.32226 0.17214 0.23319 0.0
C1234 C 0.33191 0.15578 0.30487 0.0
C1235 C 0.31086 0.14313 0.32032 0.0
C1236 C 0.29557 0.14431 0.28912 0.0
C1237 C 0.30118 0.15852 0.24587 0.0
C1238 C 0.2897 0.12183 0.47124 0.0
C1239 C 0.30048 0.11223 0.48277 0.0
C1240 C 0.29202 0.13087 0.41687 0.0
C1241 C 0.30503 0.13032 0.37294 0.0
C1242 C 0.31399 0.11899 0.38254 0.0
C1243 C 0.31181 0.11008 0.43712 0.0
H1244 H 0.93348 0.21218 0.42792 0.0
H1245 H 0.90457 0.15856 0.52529 0.0
H1246 H 0.9126 0.19538 0.34278 0.0
H1247 H 0.88246 0.14226 0.44263 0.0
H1248 H 0.82523 0.13746 0.34648 0.0
H1249 H 0.85465 0.15446 0.41101 0.0
H1250 H 0.89711 0.16214 0.26988 0.0
H1251 H 0.86752 0.14449 0.2051 0.0
C1252 C 0.92323 0.19673 0.4303 0.0
C1253 C 0.9205 0.18663 0.48299 0.0
C1254 C 0.91112 0.18718 0.38199 0.0
C1255 C 0.89533 0.16779 0.38739 0.0
C1256 C 0.89428 0.15733 0.43786 0.0
C1257 C 0.90706 0.16663 0.48493 0.0
C1258 C 0.84082 0.14307 0.32875 0.0
C1259 C 0.84402 0.13947 0.27085 0.0
C1260 C 0.85765 0.15263 0.36586 0.0
C1261 C 0.87806 0.15921 0.34561 0.0
C1262 C 0.88149 0.15696 0.28663 0.0
C1263 C 0.86457 0.14694 0.2497 0.0
H1264 H 0.74379 0.67963 0.45092 0.0
H1265 H 0.80483 0.72222 0.50717 0.0
H1266 H 0.75821 0.6799 0.35445 0.0
H1267 H 0.81943 0.72213 0.4109 0.0
H1268 H 0.83923 0.71918 0.22364 0.0
H1269 H 0.82107 0.7265 0.29952 0.0
H1270 H 0.78097 0.66614 0.33542 0.0
H1271 H 0.7983 0.65844 0.25923 0.0
C1272 C 0.76021 0.68939 0.442 0.0
C1273 C 0.77324 0.70067 0.4865 0.0
C1274 C 0.76851 0.68948 0.3869 0.0
C1275 C 0.79003 0.70065 0.37533 0.0
C1276 C 0.80278 0.71336 0.41825 0.0
C1277 C 0.79442 0.71342 0.47339 0.0
C1278 C 0.82611 0.70736 0.24667 0.0
C1279 C 0.82028 0.68815 0.23526 0.0
C1280 C 0.81581 0.71162 0.29033 0.0
C1281 C 0.79938 0.69676 0.32319 0.0
C1282 C 0.79302 0.6777 0.30964 0.0
C1283 C 0.80316 0.67336 0.26616 0.0
H1284 H 0.52166 0.98138 0.87425 0.0
H1285 H 0.51271 0.01694 0.99576 0.0
H1286 H 0.49687 0.98251 0.80844 0.0
H1287 H 0.48524 0.01495 0.93597 0.0
H1288 H 0.45949 0.03081 0.66914 0.0
H1289 H 0.49116 0.04529 0.74364 0.0
H1290 H 0.45164 0.96792 0.82452 0.0
H1291 H 0.42614 0.96489 0.73798 0.0
C1292 C 0.51421 0.9893 0.88706 0.0
C1293 C 0.51944 0.9995 0.93941 0.0
C1294 C 0.49999 0.98991 0.84942 0.0
C1295 C 0.49032 1.00034 0.86378 0.0
C1296 C 0.49374 0.00845 0.91984 0.0
C1297 C 0.50918 0.0092 0.95526 0.0
C1298 C 0.45959 0.02104 0.70149 0.0
C1299 C 0.44098 0.99731 0.70109 0.0
C1300 C 0.47961 0.02994 0.74855 0.0
C1301 C 0.47682 1.00245 0.81807 0.0
C1302 C 0.45496 0.98087 0.80102 0.0
C1303 C 0.43881 0.97925 0.74641 0.0
H1304 H 0.91719 0.453 0.51351 0.0
H1305 H 0.87593 0.39653 0.58885 0.0
H1306 H 0.90484 0.46702 0.58483 0.0
H1307 H 0.8634 0.41074 0.66077 0.0
H1308 H 0.87447 0.45187 0.82015 0.0
H1309 H 0.87746 0.43233 0.74506 0.0
H1310 H 0.87356 0.46837 0.61173 0.0
H1311 H 0.87087 0.48819 0.68727 0.0
C1312 C 0.90549 0.44354 0.54544 0.0
C1313 C 0.89762 0.42362 0.54559 0.0
C1314 C 0.89818 0.45158 0.58587 0.0
C1315 C 0.88285 0.43997 0.62779 0.0
C1316 C 0.87517 0.42005 0.62879 0.0
C1317 C 0.88242 0.41194 0.58787 0.0
C1318 C 0.87359 0.45528 0.77479 0.0
C1319 C 0.87273 0.47173 0.75953 0.0
C1320 C 0.87527 0.44403 0.73174 0.0
C1321 C 0.87621 0.44905 0.67249 0.0
C1322 C 0.87329 0.46439 0.65717 0.0
C1323 C 0.87148 0.47561 0.70036 0.0
H1324 H 0.53322 0.54797 0.68503 0.0
H1325 H 0.4732 0.53074 0.61668 0.0
H1326 H 0.51682 0.52399 0.76516 0.0
H1327 H 0.4565 0.50718 0.69692 0.0
H1328 H 0.43416 0.47772 0.87742 0.0
H1329 H 0.45155 0.50414 0.80669 0.0
H1330 H 0.49644 0.48722 0.7684 0.0
H1331 H 0.47888 0.46042 0.839 0.0
C1332 C 0.51652 0.5391 0.68796 0.0
C1333 C 0.50457 0.54089 0.64477 0.0
C1334 C 0.50711 0.52543 0.73334 0.0
C1335 C 0.48538 0.51345 0.73677 0.0
C1336 C 0.47329 0.51619 0.69554 0.0
C1337 C 0.48281 0.52977 0.64988 0.0
C1338 C 0.44782 0.47961 0.85429 0.0
C1339 C 0.45511 0.46686 0.86413 0.0
C1340 C 0.45771 0.49474 0.81344 0.0
C1341 C 0.47536 0.49776 0.78184 0.0
C1342 C 0.48295 0.48531 0.79235 0.0
C1343 C 0.47283 0.46991 0.83263 0.0
H1344 H 0.69859 0.90902 0.59786 0.0
H1345 H 0.73154 0.88301 0.52522 0.0
H1346 H 0.69557 0.89305 0.69248 0.0
H1347 H 0.72789 0.86655 0.61874 0.0
H1348 H 0.66121 0.83049 0.78697 0.0
H1349 H 0.67217 0.85574 0.71184 0.0
H1350 H 0.73586 0.87045 0.729 0.0
H1351 H 0.72519 0.84539 0.80376 0.0
C1352 C 0.70564 0.90029 0.60272 0.0
C1353 C 0.71519 0.89712 0.55448 0.0
C1354 C 0.70365 0.89097 0.65641 0.0
C1355 C 0.71087 0.87811 0.66239 0.0
C1356 C 0.72209 0.87634 0.61549 0.0
C1357 C 0.7243 0.88583 0.56202 0.0
C1358 C 0.6776 0.83939 0.77582 0.0
C1359 C 0.69222 0.83565 0.80104 0.0
C1360 C 0.68389 0.85394 0.73299 0.0
C1361 C 0.70486 0.86503 0.71443 0.0
C1362 C 0.71959 0.86205 0.74203 0.0
C1363 C 0.71338 0.84765 0.78503 0.0
H1364 H 0.15689 0.84522 0.75921 0.0
H1365 H 0.17544 0.89791 0.66406 0.0
H1366 H 0.12792 0.82787 0.69368 0.0
H1367 H 0.14847 0.88095 0.59553 0.0
H1368 H 0.10342 0.85245 0.4644 0.0
H1369 H 0.11784 0.86653 0.55762 0.0
H1370 H 0.11467 0.81381 0.61191 0.0
H1371 H 0.09919 0.79961 0.51952 0.0
C1372 C 0.15479 0.85302 0.72396 0.0
C1373 C 0.16835 0.8729 0.71695 0.0
C1374 C 0.13819 0.84309 0.68567 0.0
C1375 C 0.13525 0.85271 0.63797 0.0
C1376 C 0.14911 0.8727 0.63193 0.0
C1377 C 0.16505 0.88259 0.67117 0.0
C1378 C 0.10532 0.84373 0.49705 0.0
C1379 C 0.10123 0.82528 0.48375 0.0
C1380 C 0.1142 0.85197 0.55036 0.0
C1381 C 0.11969 0.8421 0.59095 0.0
C1382 C 0.11221 0.82251 0.58099 0.0
C1383 C 0.10316 0.81423 0.52787 0.0
H1384 H 0.16205 0.28982 0.77165 0.0
H1385 H 0.20305 0.35069 0.73781 0.0
H1386 H 0.18129 0.28279 0.69895 0.0
H1387 H 0.22181 0.34338 0.66461 0.0
H1388 H 0.26089 0.32764 0.55899 0.0
H1389 H 0.24481 0.32825 0.65257 0.0
H1390 H 0.18438 0.2876 0.58735 0.0
H1391 H 0.20045 0.28653 0.49497 0.0
C1392 C 0.17534 0.30175 0.74954 0.0
C1393 C 0.18086 0.32088 0.76056 0.0
C1394 C 0.18632 0.29765 0.70773 0.0
C1395 C 0.20322 0.31256 0.67638 0.0
C1396 C 0.20926 0.33165 0.68914 0.0
C1397 C 0.1983 0.3358 0.73074 0.0
C1398 C 0.24425 0.31841 0.5655 0.0
C1399 C 0.23189 0.30729 0.51956 0.0
C1400 C 0.23504 0.31891 0.61867 0.0
C1401 C 0.21331 0.30849 0.62653 0.0
C1402 C 0.20116 0.29587 0.58263 0.0
C1403 C 0.21039 0.29521 0.52973 0.0
H1404 H 0.54401 0.96955 0.37252 0.0
H1405 H 0.57573 0.03544 0.30487 0.0
H1406 H 0.51233 0.95452 0.29754 0.0
H1407 H 0.5501 0.03197 0.21857 0.0
H1408 H 0.48172 0.01943 0.16877 0.0
H1409 H 0.50612 0.01754 0.23463 0.0
H1410 H 0.5166 0.9845 0.10646 0.0
H1411 H 0.48934 0.98312 0.04709 0.0
C1412 C 0.54359 0.97919 0.34032 0.0
C1413 C 0.56168 1.00309 0.3412 0.0
C1414 C 0.52359 0.96994 0.29298 0.0
C1415 C 0.52565 0.9973 0.22418 0.0
C1416 C 0.54709 0.01907 0.24176 0.0
C1417 C 0.56332 0.02098 0.29629 0.0
C1418 C 0.48884 0.01123 0.15583 0.0
C1419 C 0.48332 1.00101 0.10353 0.0
C1420 C 0.50286 0.01022 0.19336 0.0
C1421 C 0.51201 0.99934 0.17893 0.0
C1422 C 0.50833 0.9912 0.1229 0.0
C1423 C 0.49307 0.99086 0.08761 0.0
H1424 H 0.09893 0.56446 0.47473 0.0
H1425 H 0.13885 0.62119 0.39921 0.0
H1426 H 0.11159 0.55096 0.40255 0.0
H1427 H 0.15165 0.60748 0.32626 0.0
H1428 H 0.14006 0.56596 0.16657 0.0
H1429 H 0.13716 0.58548 0.24199 0.0
H1430 H 0.14366 0.55074 0.3746 0.0
H1431 H 0.14633 0.53099 0.2988 0.0
C1432 C 0.11039 0.57409 0.44256 0.0
C1433 C 0.11781 0.59392 0.44263 0.0
C1434 C 0.11788 0.56635 0.40164 0.0
C1435 C 0.13293 0.57819 0.3594 0.0
C1436 C 0.14013 0.59801 0.35855 0.0
C1437 C 0.13271 0.60583 0.40003 0.0
C1438 C 0.14156 0.56287 0.21179 0.0
C1439 C 0.14313 0.54678 0.22689 0.0
C1440 C 0.13993 0.5741 0.25501 0.0
C1441 C 0.13971 0.56938 0.31422 0.0
C1442 C 0.14337 0.55447 0.32921 0.0
C1443 C 0.14516 0.5433 0.28585 0.0
H1444 H 0.52952 0.48591 0.4251 0.0
H1445 H 0.48135 0.44745 0.31014 0.0
H1446 H 0.54498 0.5102 0.3466 0.0
H1447 H 0.49704 0.47166 0.23065 0.0
H1448 H 0.54754 0.51713 0.09584 0.0
H1449 H 0.5313 0.49092 0.16835 0.0
H1450 H 0.53123 0.53003 0.29486 0.0
H1451 H 0.54732 0.55631 0.22212 0.0
C1452 C 0.52273 0.48242 0.38223 0.0
C1453 C 0.50442 0.46481 0.3732 0.0
C1454 C 0.53134 0.49642 0.33766 0.0
C1455 C 0.52201 0.49293 0.28282 0.0
C1456 C 0.50454 0.47473 0.27252 0.0
C1457 C 0.49568 0.46082 0.31764 0.0
C1458 C 0.5438 0.5201 0.13889 0.0
C1459 C 0.54875 0.53883 0.15322 0.0
C1460 C 0.53448 0.50507 0.18032 0.0
C1461 C 0.53026 0.50849 0.23737 0.0
C1462 C 0.53459 0.52706 0.25133 0.0
C1463 C 0.54359 0.54205 0.20954 0.0
H1464 H 0.14001 0.59264 0.66912 0.0
H1465 H 0.1353 0.62805 0.80107 0.0
H1466 H 0.13959 0.5711 0.74472 0.0
H1467 H 0.13515 0.60654 0.87705 0.0
H1468 H 0.09644 0.54778 0.97142 0.0
H1469 H 0.10613 0.57338 0.89971 0.0
H1470 H 0.15501 0.56498 0.83215 0.0
H1471 H 0.14523 0.53906 0.90454 0.0
C1472 C 0.13963 0.59619 0.71444 0.0
C1473 C 0.13739 0.61188 0.72922 0.0
C1474 C 0.13942 0.58384 0.75776 0.0
C1475 C 0.13684 0.58688 0.81671 0.0
C1476 C 0.13672 0.60365 0.83178 0.0
C1477 C 0.13708 0.61611 0.78836 0.0
C1478 C 0.1092 0.55126 0.94118 0.0
C1479 C 0.12003 0.54132 0.94364 0.0
C1480 C 0.11495 0.56616 0.90058 0.0
C1481 C 0.13162 0.57149 0.86109 0.0
C1482 C 0.14217 0.56126 0.86233 0.0
C1483 C 0.13648 0.54635 0.90346 0.0
H1484 H 0.58893 0.52437 0.87747 0.0
H1485 H 0.57538 0.56824 0.82694 0.0
H1486 H 0.57189 0.50642 0.7905 0.0
H1487 H 0.55835 0.55043 0.74093 0.0
H1488 H 0.52832 0.51616 0.58237 0.0
H1489 H 0.55564 0.53671 0.65024 0.0
H1490 H 0.53765 0.48723 0.76266 0.0
H1491 H 0.51188 0.46686 0.69275 0.0
C1492 C 0.58256 0.53032 0.84739 0.0
C1493 C 0.58313 0.54755 0.8598 0.0
C1494 C 0.57258 0.51993 0.79766 0.0
C1495 C 0.56293 0.5265 0.75915 0.0
C1496 C 0.56514 0.54457 0.76938 0.0
C1497 C 0.57497 0.55488 0.81916 0.0
C1498 C 0.53048 0.50983 0.62149 0.0
C1499 C 0.51785 0.49007 0.63293 0.0
C1500 C 0.5461 0.52153 0.66039 0.0
C1501 C 0.54882 0.51381 0.71269 0.0
C1502 C 0.53643 0.49384 0.72279 0.0
C1503 C 0.52139 0.48212 0.683 0.0
H1504 H 0.5618 0.03473 0.63083 0.0
H1505 H 0.51617 0.97411 0.64284 0.0
H1506 H 0.53946 0.04167 0.69266 0.0
H1507 H 0.49377 0.98106 0.70288 0.0
H1508 H 0.43585 1.00227 0.80508 0.0
H1509 H 0.47019 0.99234 0.68719 0.0
H1510 H 0.52586 0.03962 0.79903 0.0
H1511 H 0.50358 0.04634 0.8759 0.0
C1512 C 0.54699 0.02289 0.64658 0.0
C1513 C 0.54069 1.00384 0.63169 0.0
C1514 C 0.5343 0.02689 0.68226 0.0
C1515 C 0.51482 0.01197 0.70239 0.0
C1516 C 0.50861 0.99296 0.68764 0.0
C1517 C 0.52149 0.98891 0.65343 0.0
C1518 C 0.45266 0.0088 0.79856 0.0
C1519 C 0.46833 0.02561 0.84763 0.0
C1520 C 0.47465 1.00222 0.72372 0.0
C1521 C 0.50049 0.01587 0.73708 0.0
C1522 C 0.50925 0.03179 0.79276 0.0
C1523 C 0.4948 0.03627 0.84218 0.0
H1524 H 0.11952 0.31585 0.06897 0.0
H1525 H 0.14542 0.28095 0.0207 0.0
H1526 H 0.13641 0.32176 0.16393 0.0
H1527 H 0.16224 0.28689 0.11535 0.0
H1528 H 0.20678 0.35356 0.24404 0.0
H1529 H 0.17846 0.34238 0.17447 0.0
H1530 H 0.15517 0.28379 0.23103 0.0
H1531 H 0.18294 0.29477 0.30123 0.0
C1532 C 0.12847 0.30915 0.07932 0.0
C1533 C 0.1316 0.29832 0.0374 0.0
C1534 C 0.13815 0.31261 0.1333 0.0
C1535 C 0.15101 0.30525 0.14616 0.0
C1536 C 0.15242 0.29281 0.10644 0.0
C1537 C 0.14273 0.28933 0.05243 0.0
C1538 C 0.19525 0.33837 0.243 0.0
C1539 C 0.19741 0.32505 0.27737 0.0
C1540 C 0.17902 0.33198 0.20326 0.0
C1541 C 0.16487 0.3122 0.19696 0.0
C1542 C 0.16603 0.29907 0.23462 0.0
C1543 C 0.18198 0.30543 0.27475 0.0
H1544 H 0.73785 0.83345 0.03086 0.0
H1545 H 0.68453 0.78153 0.09881 0.0
H1546 H 0.73938 0.84973 0.1212 0.0
H1547 H 0.68611 0.79747 0.18922 0.0
H1548 H 0.68437 0.83049 0.34139 0.0
H1549 H 0.6945 0.81344 0.27346 0.0
H1550 H 0.72123 0.863 0.15648 0.0
H1551 H 0.713 0.88024 0.22743 0.0
C1552 C 0.7268 0.82536 0.06588 0.0
C1553 C 0.71071 0.80639 0.05731 0.0
C1554 C 0.72742 0.83477 0.11754 0.0
C1555 C 0.71194 0.8254 0.16171 0.0
C1556 C 0.69773 0.8056 0.15585 0.0
C1557 C 0.69686 0.79631 0.10387 0.0
C1558 C 0.69274 0.83763 0.30158 0.0
C1559 C 0.69788 0.85655 0.28974 0.0
C1560 C 0.69852 0.82791 0.26219 0.0
C1561 C 0.70876 0.8366 0.20859 0.0
C1562 C 0.71394 0.85572 0.19741 0.0
C1563 C 0.70889 0.86561 0.2378 0.0
H1564 H 0.2321 0.9285 0.00816 0.0
H1565 H 0.16975 0.90995 0.9548 0.0
H1566 H 0.21904 0.91574 0.10643 0.0
H1567 H 0.15646 0.89651 0.05272 0.0
H1568 H 0.18327 0.85776 0.2121 0.0
H1569 H 0.19956 0.88197 0.13498 0.0
H1570 H 0.15407 0.89878 0.16023 0.0
H1571 H 0.13713 0.87415 0.23729 0.0
C1572 C 0.21565 0.92212 0.01811 0.0
C1573 C 0.2019 0.91999 0.97404 0.0
C1574 C 0.20813 0.91471 0.07432 0.0
C1575 C 0.18666 0.90468 0.08737 0.0
C1576 C 0.1731 0.90417 0.04446 0.0
C1577 C 0.18069 0.91185 0.9883 0.0
C1578 C 0.177 0.86692 0.20265 0.0
C1579 C 0.15875 0.86382 0.23083 0.0
C1580 C 0.18652 0.88095 0.15851 0.0
C1581 C 0.17828 0.89236 0.14132 0.0
C1582 C 0.16077 0.89013 0.17195 0.0
C1583 C 0.15114 0.87605 0.21633 0.0
H1584 H 0.29913 0.08032 0.81731 0.0
H1585 H 0.35878 0.08917 0.76222 0.0
H1586 H 0.30606 0.07527 0.91797 0.0
H1587 H 0.36559 0.08378 0.86225 0.0
H1588 H 0.325 0.06855 0.09925 0.0
H1589 H 0.31514 0.05926 0.99769 0.0
H1590 H 0.37383 0.10779 0.93826 0.0
H1591 H 0.38327 0.11716 0.03879 0.0
C1592 C 0.31318 0.08009 0.82616 0.0
C1593 C 0.32849 0.08528 0.7822 0.0
C1594 C 0.31724 0.07732 0.88394 0.0
C1595 C 0.33664 0.07964 0.89827 0.0
C1596 C 0.35072 0.08233 0.8528 0.0
C1597 C 0.34672 0.0852 0.7954 0.0
C1598 C 0.3358 0.07705 0.06418 0.0
C1599 C 0.3546 0.09384 0.07664 0.0
C1600 C 0.3302 0.0717 0.00623 0.0
C1601 C 0.34361 0.08284 0.95983 0.0
C1602 C 0.36319 0.09874 0.97285 0.0
C1603 C 0.36863 0.10417 0.03058 0.0
H1604 H 0.92002 0.22194 0.04749 0.0
H1605 H 0.94218 0.28259 0.05533 0.0
H1606 H 0.93523 0.22622 0.95133 0.0
H1607 H 0.95653 0.2868 0.95519 0.0
H1608 H 0.93175 0.26394 0.75849 0.0
H1609 H 0.93645 0.27322 0.86039 0.0
H1610 H 0.96838 0.24212 0.88809 0.0
H1611 H 0.9636 0.23276 0.78584 0.0
C1612 C 0.92911 0.23641 0.03009 0.0
C1613 C 0.9308 0.2521 0.06069 0.0
C1614 C 0.9377 0.23886 0.97417 0.0
C1615 C 0.94756 0.25694 0.94603 0.0
C1616 C 0.94935 0.27275 0.97629 0.0
C1617 C 0.9411 0.27034 0.03334 0.0
C1618 C 0.94068 0.25988 0.78561 0.0
C1619 C 0.94689 0.24726 0.76462 0.0
C1620 C 0.94344 0.26526 0.84405 0.0
C1621 C 0.95232 0.258 0.88248 0.0
C1622 C 0.96122 0.24771 0.85944 0.0
C1623 C 0.95861 0.24245 0.80075 0.0
H1624 H 0.68819 0.64144 0.76837 0.0
H1625 H 0.73426 0.69958 0.81079 0.0
H1626 H 0.67371 0.63588 0.86746 0.0
H1627 H 0.7207 0.69393 0.91047 0.0
H1628 H 0.70633 0.68218 0.09066 0.0
H1629 H 0.69817 0.68635 0.99096 0.0
H1630 H 0.68737 0.62994 0.95038 0.0
H1631 H 0.6945 0.62561 0.05047 0.0
C1632 C 0.69473 0.65326 0.79849 0.0
C1633 C 0.7125 0.67087 0.78231 0.0
C1634 C 0.6866 0.65001 0.85554 0.0
C1635 C 0.6964 0.66417 0.89796 0.0
C1636 C 0.71259 0.68258 0.87947 0.0
C1637 C 0.72047 0.68593 0.82201 0.0
C1638 C 0.70108 0.67029 0.06104 0.0
C1639 C 0.70139 0.6537 0.07784 0.0
C1640 C 0.69671 0.67278 1.00358 0.0
C1641 C 0.69299 0.65888 0.96159 0.0
C1642 C 0.69028 0.64111 0.98096 0.0
C1643 C 0.6943 0.63851 0.03878 0.0
H1644 H 0.13839 0.35106 0.75256 0.0
H1645 H 0.07303 0.30858 0.76603 0.0
H1646 H 0.13403 0.35957 0.6549 0.0
H1647 H 0.0683 0.31748 0.66763 0.0
H1648 H 0.08156 0.31356 0.4696 0.0
H1649 H 0.07664 0.31171 0.57451 0.0
H1650 H 0.12156 0.37249 0.58468 0.0
H1651 H 0.12707 0.37403 0.47883 0.0
C1652 C 0.1229 0.34401 0.73569 0.0
C1653 C 0.10607 0.32916 0.76743 0.0
C1654 C 0.12033 0.34896 0.67913 0.0
C1655 C 0.10078 0.33925 0.65275 0.0
C1656 C 0.08367 0.3251 0.68595 0.0
C1657 C 0.08634 0.32 0.74239 0.0
C1658 C 0.08979 0.32671 0.49397 0.0
C1659 C 0.105 0.34384 0.46615 0.0
C1660 C 0.08695 0.32568 0.55451 0.0
C1661 C 0.09919 0.34183 0.5887 0.0
C1662 C 0.11234 0.35961 0.5599 0.0
C1663 C 0.11525 0.36061 0.49905 0.0
H1664 H 0.62463 0.72851 0.51855 0.0
H1665 H 0.68321 0.73429 0.46746 0.0
H1666 H 0.62975 0.72203 0.61863 0.0
H1667 H 0.68822 0.72715 0.56747 0.0
H1668 H 0.70641 0.76492 0.73761 0.0
H1669 H 0.69867 0.75045 0.64184 0.0
H1670 H 0.63636 0.70872 0.70237 0.0
H1671 H 0.64407 0.72384 0.79752 0.0
C1672 C 0.63792 0.72706 0.52798 0.0
C1673 C 0.65366 0.73219 0.48564 0.0
C1674 C 0.64102 0.72347 0.58576 0.0
C1675 C 0.65984 0.72477 0.60175 0.0
C1676 C 0.67387 0.72664 0.55711 0.0
C1677 C 0.67085 0.73042 0.49956 0.0
C1678 C 0.69145 0.75206 0.73127 0.0
C1679 C 0.67577 0.74565 0.77449 0.0
C1680 C 0.68689 0.7437 0.67613 0.0
C1681 C 0.66661 0.72868 0.66365 0.0
C1682 C 0.65193 0.72057 0.70986 0.0
C1683 C 0.65641 0.72909 0.7646 0.0
H1684 H 0.28444 0.92176 0.41573 0.0
H1685 H 0.27651 0.96969 0.37566 0.0
H1686 H 0.29025 0.93111 0.517 0.0
H1687 H 0.28347 0.9799 0.4767 0.0
H1688 H 0.2871 0.9394 0.69937 0.0
H1689 H 0.30319 0.94831 0.60207 0.0
H1690 H 0.25959 0.96592 0.55417 0.0
H1691 H 0.24449 0.95798 0.65223 0.0
C1692 C 0.28531 0.93505 0.42787 0.0
C1693 C 0.27971 0.94482 0.38823 0.0
C1694 C 0.28855 0.94046 0.48638 0.0
C1695 C 0.28656 0.95594 0.50593 0.0
C1696 C 0.28435 0.9675 0.46384 0.0
C1697 C 0.2807 0.96185 0.40564 0.0
C1698 C 0.28168 0.94605 0.66862 0.0
C1699 C 0.26443 0.94783 0.6829 0.0
C1700 C 0.29073 0.95095 0.61259 0.0
C1701 C 0.28232 0.95725 0.56923 0.0
C1702 C 0.26665 0.96117 0.58597 0.0
C1703 C 0.25789 0.95662 0.64247 0.0
H1704 H 0.69355 0.94825 0.96848 0.0
H1705 H 0.63488 0.89792 0.01679 0.0
H1706 H 0.69717 0.95988 0.06786 0.0
H1707 H 0.63874 0.90893 0.11644 0.0
H1708 H 0.65035 0.9206 0.29572 0.0
H1709 H 0.64351 0.92806 0.19816 0.0
H1710 H 0.70722 0.94773 0.14661 0.0
H1711 H 0.71405 0.94104 0.24463 0.0
C1712 C 0.68099 0.94008 0.9999 0.0
C1713 C 0.6641 0.92204 0.98539 0.0
C1714 C 0.68317 0.94663 0.05706 0.0
C1715 C 0.66868 0.93506 0.10094 0.0
C1716 C 0.65032 0.91831 0.08419 0.0
C1717 C 0.648 0.91192 0.02673 0.0
C1718 C 0.66313 0.9275 0.26419 0.0
C1719 C 0.68265 0.93002 0.27726 0.0
C1720 C 0.65916 0.93155 0.20805 0.0
C1721 C 0.67454 0.93784 0.16367 0.0
C1722 C 0.69488 0.94288 0.1793 0.0
C1723 C 0.69892 0.9391 0.23581 0.0
H1724 H 0.07354 0.79172 0.15413 0.0
H1725 H 0.09411 0.75316 0.20907 0.0
H1726 H 0.06951 0.77967 0.05486 0.0
H1727 H 0.08958 0.74072 0.11055 0.0
H1728 H 0.06358 0.75357 0.87696 0.0
H1729 H 0.05499 0.75432 0.98029 0.0
H1730 H 0.11255 0.758 0.02787 0.0
H1731 H 0.12114 0.7576 0.92547 0.0
C1732 C 0.07615 0.77997 0.14568 0.0
C1733 C 0.08433 0.7735 0.18903 0.0
C1734 C 0.07395 0.7731 0.08868 0.0
C1735 C 0.07977 0.75958 0.07447 0.0
C1736 C 0.08549 0.75148 0.11973 0.0
C1737 C 0.08785 0.75845 0.17632 0.0
C1738 C 0.07431 0.75452 0.90978 0.0
C1739 C 0.09325 0.75605 0.89311 0.0
C1740 C 0.06935 0.75482 0.96882 0.0
C1741 C 0.08311 0.75632 0.01241 0.0
C1742 C 0.10143 0.75658 0.99564 0.0
C1743 C 0.10642 0.75641 0.93675 0.0
H1744 H 0.31409 0.36065 0.22057 0.0
H1745 H 0.26076 0.30541 0.18333 0.0
H1746 H 0.32326 0.36634 0.1168 0.0
H1747 H 0.26946 0.31126 0.07909 0.0
H1748 H 0.30177 0.38314 0.94784 0.0
H1749 H 0.30479 0.37438 0.04731 0.0
H1750 H 0.29146 0.31856 0.99018 0.0
H1751 H 0.2888 0.32765 0.88957 0.0
C1752 C 0.30488 0.34934 0.1903 0.0
C1753 C 0.28669 0.33262 0.20987 0.0
C1754 C 0.30994 0.35271 0.13074 0.0
C1755 C 0.29673 0.33955 0.08944 0.0
C1756 C 0.27998 0.32175 0.10963 0.0
C1757 C 0.27503 0.31828 0.16952 0.0
C1758 C 0.29992 0.36915 0.95615 0.0
C1759 C 0.29441 0.35584 0.91121 0.0
C1760 C 0.30176 0.36412 0.01332 0.0
C1761 C 0.29822 0.34567 0.02704 0.0
C1762 C 0.29397 0.33277 0.98135 0.0
C1763 C 0.2923 0.33791 0.92391 0.0
H1764 H 0.90829 0.7063 0.30627 0.0
H1765 H 0.89747 0.65082 0.25561 0.0
H1766 H 0.91354 0.69958 0.40677 0.0
H1767 H 0.90329 0.64426 0.35542 0.0
H1768 H 0.92096 0.68157 0.58845 0.0
H1769 H 0.93013 0.6912 0.48541 0.0
H1770 H 0.87829 0.63648 0.43485 0.0
H1771 H 0.86908 0.62719 0.53683 0.0
C1772 C 0.90822 0.69314 0.31594 0.0
C1773 C 0.90229 0.679 0.27343 0.0
C1774 C 0.91109 0.68921 0.37368 0.0
C1775 C 0.90822 0.67113 0.38942 0.0
C1776 C 0.90505 0.6581 0.34502 0.0
C1777 C 0.90199 0.66195 0.28768 0.0
C1778 C 0.91158 0.6717 0.55505 0.0
C1779 C 0.89397 0.65391 0.57068 0.0
C1780 C 0.91691 0.67713 0.49618 0.0
C1781 C 0.90492 0.66467 0.45179 0.0
C1782 C 0.88809 0.64637 0.46773 0.0
C1783 C 0.88271 0.64105 0.5264 0.0
H1784 H 0.32216 0.26614 0.57411 0.0
H1785 H 0.38291 0.27683 0.52344 0.0
H1786 H 0.31667 0.27328 0.47461 0.0
H1787 H 0.37727 0.28314 0.42366 0.0
H1788 H 0.30159 0.2386 0.29983 0.0
H1789 H 0.30808 0.25171 0.39727 0.0
H1790 H 0.36992 0.29614 0.34154 0.0
H1791 H 0.36353 0.28231 0.24461 0.0
C1792 C 0.33472 0.27087 0.5421 0.0
C1793 C 0.35284 0.27067 0.55603 0.0
C1794 C 0.33148 0.27472 0.48488 0.0
C1795 C 0.34614 0.27807 0.44038 0.0
C1796 C 0.36552 0.28057 0.4564 0.0
C1797 C 0.36887 0.27701 0.51392 0.0
C1798 C 0.31617 0.2517 0.30769 0.0
C1799 C 0.33218 0.25923 0.26522 0.0
C1800 C 0.32 0.2593 0.36382 0.0
C1801 C 0.33985 0.27471 0.37805 0.0
C1802 C 0.35472 0.28393 0.33274 0.0
C1803 C 0.35099 0.27614 0.27699 0.0
H1804 H 0.75005 0.0399 0.5715 0.0
H1805 H 0.74296 0.08828 0.53064 0.0
H1806 H 0.74786 0.03223 0.46823 0.0
H1807 H 0.74096 0.08076 0.42687 0.0
H1808 H 0.7918 0.05842 0.30121 0.0
H1809 H 0.77772 0.05356 0.40036 0.0
H1810 H 0.72632 0.05843 0.33871 0.0
H1811 H 0.74019 0.06262 0.23825 0.0
C1812 C 0.74685 0.04825 0.54067 0.0
C1813 C 0.74674 0.06471 0.55896 0.0
C1814 C 0.74588 0.04402 0.48143 0.0
C1815 C 0.74483 0.0562 0.43933 0.0
C1816 C 0.7418 0.07111 0.45828 0.0
C1817 C 0.74274 0.07533 0.51785 0.0
C1818 C 0.77723 0.05797 0.30842 0.0
C1819 C 0.76741 0.0615 0.26225 0.0
C1820 C 0.76908 0.05512 0.36535 0.0
C1821 C 0.75096 0.05576 0.37751 0.0
C1822 C 0.74043 0.05808 0.33079 0.0
C1823 C 0.74844 0.06062 0.27353 0.0
H1824 H 0.96321 0.38326 0.29381 0.0
H1825 H 0.97564 0.43763 0.36206 0.0
H1826 H 0.99687 0.39966 0.24146 0.0
H1827 H 0.00894 0.45391 0.30878 0.0
H1828 H 0.04761 0.47565 0.13587 0.0
H1829 H 0.0151 0.45671 0.19151 0.0
H1830 H 0.03829 0.42241 0.26652 0.0
H1831 H 0.07119 0.44165 0.21172 0.0
C1832 C 0.97325 0.39863 0.29841 0.0
C1833 C 0.96673 0.40916 0.33196 0.0
C1834 C 0.99245 0.40797 0.26843 0.0
C1835 C 1.00526 0.42803 0.27058 0.0
C1836 C 0.99919 0.43844 0.30602 0.0
C1837 C 0.98021 0.42908 0.33688 0.0
C1838 C 0.04572 0.46389 0.16341 0.0
C1839 C 0.06202 0.46019 0.16949 0.0
C1840 C 0.02718 0.45318 0.19564 0.0
C1841 C 0.02439 0.43832 0.23373 0.0
C1842 C 0.04016 0.43387 0.23753 0.0
C1843 C 0.05892 0.44485 0.20613 0.0
H1844 H 0.62259 0.586 0.15351 0.0
H1845 H 0.62119 0.63598 0.09356 0.0
H1846 H 0.6165 0.59213 0.25332 0.0
H1847 H 0.61455 0.64196 0.19421 0.0
H1848 H 0.60352 0.6013 0.42663 0.0
H1849 H 0.62673 0.6144 0.34119 0.0
H1850 H 0.5792 0.61839 0.24871 0.0
H1851 H 0.55599 0.60518 0.3344 0.0
C1852 C 0.62181 0.59876 0.16197 0.0
C1853 C 0.62179 0.61026 0.11575 0.0
C1854 C 0.61832 0.60231 0.21931 0.0
C1855 C 0.6147 0.61737 0.23142 0.0
C1856 C 0.61708 0.63015 0.186 0.0
C1857 C 0.62084 0.62671 0.12857 0.0
C1858 C 0.59856 0.60616 0.38932 0.0
C1859 C 0.57805 0.60235 0.38701 0.0
C1860 C 0.61177 0.61346 0.34021 0.0
C1861 C 0.60465 0.6171 0.28805 0.0
C1862 C 0.58516 0.61583 0.28846 0.0
C1863 C 0.57188 0.6084 0.33769 0.0
H1864 H 0.43064 0.04129 0.16096 0.0
H1865 H 0.3767 0.98642 0.12336 0.0
H1866 H 0.41886 0.03762 0.26305 0.0
H1867 H 0.36494 0.98275 0.22497 0.0
H1868 H 0.3909 0.02534 0.4473 0.0
H1869 H 0.39132 0.03194 0.34228 0.0
H1870 H 0.38335 0.97637 0.30582 0.0
H1871 H 0.38366 0.97016 0.40998 0.0
C1872 C 0.41573 0.02896 0.17372 0.0
C1873 C 0.40469 0.01407 0.13437 0.0
C1874 C 0.40903 0.02676 0.23236 0.0
C1875 C 0.39122 0.00965 0.25224 0.0
C1876 C 0.37892 0.9959 0.21116 0.0
C1877 C 0.38556 0.99811 0.15283 0.0
C1878 C 0.38902 0.0145 0.41661 0.0
C1879 C 0.38779 0.99748 0.43666 0.0
C1880 C 0.3892 0.01825 0.35667 0.0
C1881 C 0.38754 0.00476 0.31576 0.0
C1882 C 0.38451 0.98703 0.33622 0.0
C1883 C 0.38466 0.98343 0.39601 0.0
H1884 H 0.62646 0.018 0.91594 0.0
H1885 H 0.57459 0.96142 0.88227 0.0
H1886 H 0.63783 0.02154 0.81402 0.0
H1887 H 0.58591 0.96501 0.77981 0.0
H1888 H 0.61909 0.0319 0.6278 0.0
H1889 H 0.61919 0.02632 0.73237 0.0
H1890 H 0.61283 0.97112 0.70012 0.0
H1891 H 0.61342 0.97709 0.59458 0.0
C1892 C 0.61796 0.00599 0.88723 0.0
C1893 C 0.59951 0.9895 0.90698 0.0
C1894 C 0.62437 0.0081 0.8287 0.0
C1895 C 0.61248 0.99377 0.78855 0.0
C1896 C 0.59541 0.97633 0.80968 0.0
C1897 C 0.58898 0.9742 0.86854 0.0
C1898 C 0.61832 0.01882 0.6428 0.0
C1899 C 0.61576 0.0047 0.6031 0.0
C1900 C 0.61837 0.01559 0.70287 0.0
C1901 C 0.61583 0.99817 0.72467 0.0
C1902 C 0.61455 0.98456 0.68475 0.0
C1903 C 0.61479 0.98793 0.62451 0.0
H1904 H 0.05318 0.63399 0.69929 0.0
H1905 H 0.03983 0.57949 0.62982 0.0
H1906 H 0.01984 0.61777 0.75326 0.0
H1907 H 0.00686 0.5634 0.6846 0.0
H1908 H 0.96782 0.54096 0.8556 0.0
H1909 H 1.00046 0.55985 0.80047 0.0
H1910 H 0.97867 0.59592 0.73069 0.0
H1911 H 0.94567 0.57678 0.785 0.0
C1912 C 0.04302 0.61863 0.6948 0.0
C1913 C 0.04919 0.60803 0.66033 0.0
C1914 C 0.02399 0.60939 0.72574 0.0
C1915 C 0.011 0.58934 0.72367 0.0
C1916 C 0.01675 0.57886 0.68745 0.0
C1917 C 0.03555 0.58811 0.65568 0.0
C1918 C 0.97007 0.55311 0.82939 0.0
C1919 C 0.9541 0.55732 0.82456 0.0
C1920 C 0.98868 0.5638 0.79742 0.0
C1921 C 0.9919 0.57914 0.76083 0.0
C1922 C 0.9765 0.58411 0.75849 0.0
C1923 C 0.95767 0.57317 0.78963 0.0
H1924 H 0.44859 0.39983 0.66968 0.0
H1925 H 0.4011 0.40685 0.58937 0.0
H1926 H 0.42687 0.38697 0.75818 0.0
H1927 H 0.37915 0.39366 0.67708 0.0
H1928 H 0.38794 0.36991 0.91992 0.0
H1929 H 0.3944 0.36508 0.81788 0.0
H1930 H 0.38852 0.41344 0.76535 0.0
H1931 H 0.38249 0.41833 0.86641 0.0
C1932 C 0.43296 0.39744 0.66963 0.0
C1933 C 0.42649 0.40433 0.62301 0.0
C1934 C 0.42052 0.39018 0.72046 0.0
C1935 C 0.40147 0.38973 0.72503 0.0
C1936 C 0.39388 0.39414 0.67519 0.0
C1937 C 0.40634 0.40148 0.62474 0.0
C1938 C 0.38752 0.37914 0.88606 0.0
C1939 C 0.38528 0.39477 0.90099 0.0
C1940 C 0.39119 0.37637 0.82783 0.0
C1941 C 0.39225 0.38901 0.78361 0.0
C1942 C 0.38767 0.40333 0.79816 0.0
C1943 C 0.38422 0.40618 0.85627 0.0
loop_
_geom_bond_atom_site_label_1
_geom_bond_atom_site_label_2
_geom_bond_distance
_geom_bond_site_symmetry_2
_ccdc_geom_bond_type
O0 Cd1 2.223 . S
O0 C8 1.315 . S
Cd1 O0 2.223 . S
Cd1 O4 2.297 . S
Cd1 O5 2.439 . S
Cd1 O11 2.240 . S
Cd2 O3 2.240 . S
Cd2 O10 2.223 . S
Cd2 O12 2.297 . S
Cd2 O13 2.439 . S
O3 Cd2 2.240 . S
O3 C8 1.279 . S
O4 Cd1 2.297 . S
O4 C6 1.247 . S
O5 Cd1 2.439 . S
O5 C6 1.208 . S
C6 O4 1.247 . S
C6 O5 1.208 . S
C7 O12 1.247 . S
C7 O13 1.208 . S
C8 O0 1.315 . S
C8 O3 1.279 . S
C9 O10 1.315 . S
C9 O11 1.279 . S
O10 Cd2 2.223 . S
O10 C9 1.315 . S
O11 Cd1 2.240 . S
O11 C9 1.279 . S
O12 Cd2 2.297 . S
O12 C7 1.247 . S
O13 Cd2 2.439 . S
O13 C7 1.208 . S
O14 Cd15 2.223 . S
O14 C22 1.315 . S
Cd15 O14 2.223 . S
Cd15 O18 2.297 . S
Cd15 O19 2.439 . S
Cd15 O25 2.240 . S
Cd16 O17 2.240 . S
Cd16 O24 2.223 . S
Cd16 O26 2.297 . S
Cd16 O27 2.439 . S
O17 Cd16 2.240 . S
O17 C22 1.279 . S
O18 Cd15 2.297 . S
O18 C20 1.247 . S
O19 Cd15 2.439 . S
O19 C20 1.208 . S
C20 O18 1.247 . S
C20 O19 1.208 . S
C21 O26 1.247 . S
C21 O27 1.208 . S
C22 O14 1.315 . S
C22 O17 1.279 . S
C23 O24 1.315 . S
C23 O25 1.279 . S
O24 Cd16 2.223 . S
O24 C23 1.315 . S
O25 Cd15 2.240 . S
O25 C23 1.279 . S
O26 Cd16 2.297 . S
O26 C21 1.247 . S
O27 Cd16 2.439 . S
O27 C21 1.208 . S
O28 Cd29 2.223 . S
O28 C36 1.315 . S
Cd29 O28 2.223 . S
Cd29 O32 2.297 . S
Cd29 O33 2.439 . S
Cd29 O39 2.240 . S
Cd30 O31 2.240 . S
Cd30 O38 2.223 . S
Cd30 O40 2.297 . S
Cd30 O41 2.439 . S
O31 Cd30 2.240 . S
O31 C36 1.279 . S
O32 Cd29 2.297 . S
O32 C34 1.247 . S
O33 Cd29 2.439 . S
O33 C34 1.208 . S
C34 O32 1.247 . S
C34 O33 1.208 . S
C35 O40 1.247 . S
C35 O41 1.208 . S
C36 O28 1.315 . S
C36 O31 1.279 . S
C37 O38 1.315 . S
C37 O39 1.279 . S
O38 Cd30 2.223 . S
O38 C37 1.315 . S
O39 Cd29 2.240 . S
O39 C37 1.279 . S
O40 Cd30 2.297 . S
O40 C35 1.247 . S
O41 Cd30 2.439 . S
O41 C35 1.208 . S
O42 Cd43 2.223 . S
O42 C50 1.315 . S
Cd43 O42 2.223 . S
Cd43 O46 2.297 . S
Cd43 O47 2.439 . S
Cd43 O53 2.240 . S
Cd44 O45 2.240 . S
Cd44 O52 2.223 . S
Cd44 O54 2.297 . S
Cd44 O55 2.439 . S
O45 Cd44 2.240 . S
O45 C50 1.279 . S
O46 Cd43 2.297 . S
O46 C48 1.247 . S
O47 Cd43 2.439 . S
O47 C48 1.208 . S
C48 O46 1.247 . S
C48 O47 1.208 . S
C49 O54 1.247 . S
C49 O55 1.208 . S
C50 O42 1.315 . S
C50 O45 1.279 . S
C51 O52 1.315 . S
C51 O53 1.279 . S
O52 Cd44 2.223 . S
O52 C51 1.315 . S
O53 Cd43 2.240 . S
O53 C51 1.279 . S
O54 Cd44 2.297 . S
O54 C49 1.247 . S
O55 Cd44 2.439 . S
O55 C49 1.208 . S
O56 Cd57 2.223 . S
O56 C64 1.315 . S
Cd57 O56 2.223 . S
Cd57 O60 2.297 . S
Cd57 O61 2.439 . S
Cd57 O67 2.240 . S
Cd58 O59 2.240 . S
Cd58 O66 2.223 . S
Cd58 O68 2.297 . S
Cd58 O69 2.439 . S
O59 Cd58 2.240 . S
O59 C64 1.279 . S
O60 Cd57 2.297 . S
O60 C62 1.247 . S
O61 Cd57 2.439 . S
O61 C62 1.208 . S
C62 O60 1.247 . S
C62 O61 1.208 . S
C63 O68 1.247 . S
C63 O69 1.208 . S
C64 O56 1.315 . S
C64 O59 1.279 . S
C65 O66 1.315 . S
C65 O67 1.279 . S
O66 Cd58 2.223 . S
O66 C65 1.315 . S
O67 Cd57 2.240 . S
O67 C65 1.279 . S
O68 Cd58 2.297 . S
O68 C63 1.247 . S
O69 Cd58 2.439 . S
O69 C63 1.208 . S
O70 Cd71 2.223 . S
O70 C78 1.315 . S
Cd71 O70 2.223 . S
Cd71 O74 2.297 . S
Cd71 O75 2.439 . S
Cd71 O81 2.240 . S
Cd72 O73 2.240 . S
Cd72 O80 2.223 . S
Cd72 O82 2.297 . S
Cd72 O83 2.439 . S
O73 Cd72 2.240 . S
O73 C78 1.279 . S
O74 Cd71 2.297 . S
O74 C76 1.247 . S
O75 Cd71 2.439 . S
O75 C76 1.208 . S
C76 O74 1.247 . S
C76 O75 1.208 . S
C77 O82 1.247 . S
C77 O83 1.208 . S
C78 O70 1.315 . S
C78 O73 1.279 . S
C79 O80 1.315 . S
C79 O81 1.279 . S
O80 Cd72 2.223 . S
O80 C79 1.315 . S
O81 Cd71 2.240 . S
O81 C79 1.279 . S
O82 Cd72 2.297 . S
O82 C77 1.247 . S
O83 Cd72 2.439 . S
O83 C77 1.208 . S
O84 Cd85 2.223 . S
O84 C92 1.315 . S
Cd85 O84 2.223 . S
Cd85 O88 2.297 . S
Cd85 O89 2.439 . S
Cd85 O95 2.240 . S
Cd86 O87 2.240 . S
Cd86 O94 2.223 . S
Cd86 O96 2.297 . S
Cd86 O97 2.439 . S
O87 Cd86 2.240 . S
O87 C92 1.279 . S
O88 Cd85 2.297 . S
O88 C90 1.247 . S
O89 Cd85 2.439 . S
O89 C90 1.208 . S
C90 O88 1.247 . S
C90 O89 1.208 . S
C91 O96 1.247 . S
C91 O97 1.208 . S
C92 O84 1.315 . S
C92 O87 1.279 . S
C93 O94 1.315 . S
C93 O95 1.279 . S
O94 Cd86 2.223 . S
O94 C93 1.315 . S
O95 Cd85 2.240 . S
O95 C93 1.279 . S
O96 Cd86 2.297 . S
O96 C91 1.247 . S
O97 Cd86 2.439 . S
O97 C91 1.208 . S
O98 Cd99 2.223 . S
O98 C106 1.315 . S
Cd99 O98 2.223 . S
Cd99 O102 2.297 . S
Cd99 O103 2.439 . S
Cd99 O109 2.240 . S
Cd100 O101 2.240 . S
Cd100 O108 2.223 . S
Cd100 O110 2.297 . S
Cd100 O111 2.439 . S
O101 Cd100 2.240 . S
O101 C106 1.279 . S
O102 Cd99 2.297 . S
O102 C104 1.247 . S
O103 Cd99 2.439 . S
O103 C104 1.208 . S
C104 O102 1.247 . S
C104 O103 1.208 . S
C105 O110 1.247 . S
C105 O111 1.208 . S
C106 O98 1.315 . S
C106 O101 1.279 . S
C107 O108 1.315 . S
C107 O109 1.279 . S
O108 Cd100 2.223 . S
O108 C107 1.315 . S
O109 Cd99 2.240 . S
O109 C107 1.279 . S
O110 Cd100 2.297 . S
O110 C105 1.247 . S
O111 Cd100 2.439 . S
O111 C105 1.208 . S
O112 Cd113 2.223 . S
O112 C120 1.315 . S
Cd113 O112 2.223 . S
Cd113 O116 2.297 . S
Cd113 O117 2.439 . S
Cd113 O123 2.240 . S
Cd114 O115 2.240 . S
Cd114 O122 2.223 . S
Cd114 O124 2.297 . S
Cd114 O125 2.439 . S
O115 Cd114 2.240 . S
O115 C120 1.279 . S
O116 Cd113 2.297 . S
O116 C118 1.247 . S
O117 Cd113 2.439 . S
O117 C118 1.208 . S
C118 O116 1.247 . S
C118 O117 1.208 . S
C119 O124 1.247 . S
C119 O125 1.208 . S
C120 O112 1.315 . S
C120 O115 1.279 . S
C121 O122 1.315 . S
C121 O123 1.279 . S
O122 Cd114 2.223 . S
O122 C121 1.315 . S
O123 Cd113 2.240 . S
O123 C121 1.279 . S
O124 Cd114 2.297 . S
O124 C119 1.247 . S
O125 Cd114 2.439 . S
O125 C119 1.208 . S
O126 Cd127 2.223 . S
O126 C134 1.315 . S
Cd127 O126 2.223 . S
Cd127 O130 2.297 . S
Cd127 O131 2.439 . S
Cd127 O137 2.240 . S
Cd128 O129 2.240 . S
Cd128 O136 2.223 . S
Cd128 O138 2.297 . S
Cd128 O139 2.439 . S
O129 Cd128 2.240 . S
O129 C134 1.279 . S
O130 Cd127 2.297 . S
O130 C132 1.247 . S
O131 Cd127 2.439 . S
O131 C132 1.208 . S
C132 O130 1.247 . S
C132 O131 1.208 . S
C133 O138 1.247 . S
C133 O139 1.208 . S
C134 O126 1.315 . S
C134 O129 1.279 . S
C135 O136 1.315 . S
C135 O137 1.279 . S
O136 Cd128 2.223 . S
O136 C135 1.315 . S
O137 Cd127 2.240 . S
O137 C135 1.279 . S
O138 Cd128 2.297 . S
O138 C133 1.247 . S
O139 Cd128 2.439 . S
O139 C133 1.208 . S
O140 Cd141 2.223 . S
O140 C148 1.315 . S
Cd141 O140 2.223 . S
Cd141 O144 2.297 . S
Cd141 O145 2.439 . S
Cd141 O151 2.240 . S
Cd142 O143 2.240 . S
Cd142 O150 2.223 . S
Cd142 O152 2.297 . S
Cd142 O153 2.439 . S
O143 Cd142 2.240 . S
O143 C148 1.279 . S
O144 Cd141 2.297 . S
O144 C146 1.247 . S
O145 Cd141 2.439 . S
O145 C146 1.208 . S
C146 O144 1.247 . S
C146 O145 1.208 . S
C147 O152 1.247 . S
C147 O153 1.208 . S
C148 O140 1.315 . S
C148 O143 1.279 . S
C149 O150 1.315 . S
C149 O151 1.279 . S
O150 Cd142 2.223 . S
O150 C149 1.315 . S
O151 Cd141 2.240 . S
O151 C149 1.279 . S
O152 Cd142 2.297 . S
O152 C147 1.247 . S
O153 Cd142 2.439 . S
O153 C147 1.208 . S
O154 Cd155 2.223 . S
O154 C162 1.315 . S
Cd155 O154 2.223 . S
Cd155 O158 2.297 . S
Cd155 O159 2.439 . S
Cd155 O165 2.240 . S
Cd156 O157 2.240 . S
Cd156 O164 2.223 . S
Cd156 O166 2.297 . S
Cd156 O167 2.439 . S
O157 Cd156 2.240 . S
O157 C162 1.279 . S
O158 Cd155 2.297 . S
O158 C160 1.247 . S
O159 Cd155 2.439 . S
O159 C160 1.208 . S
C160 O158 1.247 . S
C160 O159 1.208 . S
C161 O166 1.247 . S
C161 O167 1.208 . S
C162 O154 1.315 . S
C162 O157 1.279 . S
C163 O164 1.315 . S
C163 O165 1.279 . S
O164 Cd156 2.223 . S
O164 C163 1.315 . S
O165 Cd155 2.240 . S
O165 C163 1.279 . S
O166 Cd156 2.297 . S
O166 C161 1.247 . S
O167 Cd156 2.439 . S
O167 C161 1.208 . S
O168 Cd169 2.223 . S
O168 C176 1.315 . S
Cd169 O168 2.223 . S
Cd169 O172 2.297 . S
Cd169 O173 2.439 . S
Cd169 O179 2.240 . S
Cd170 O171 2.240 . S
Cd170 O178 2.223 . S
Cd170 O180 2.297 . S
Cd170 O181 2.439 . S
O171 Cd170 2.240 . S
O171 C176 1.279 . S
O172 Cd169 2.297 . S
O172 C174 1.247 . S
O173 Cd169 2.439 . S
O173 C174 1.208 . S
C174 O172 1.247 . S
C174 O173 1.208 . S
C175 O180 1.247 . S
C175 O181 1.208 . S
C176 O168 1.315 . S
C176 O171 1.279 . S
C177 O178 1.315 . S
C177 O179 1.279 . S
O178 Cd170 2.223 . S
O178 C177 1.315 . S
O179 Cd169 2.240 . S
O179 C177 1.279 . S
O180 Cd170 2.297 . S
O180 C175 1.247 . S
O181 Cd170 2.439 . S
O181 C175 1.208 . S
O182 Cd183 2.223 . S
O182 C190 1.315 . S
Cd183 O182 2.223 . S
Cd183 O186 2.297 . S
Cd183 O187 2.439 . S
Cd183 O193 2.240 . S
Cd184 O185 2.240 . S
Cd184 O192 2.223 . S
Cd184 O194 2.297 . S
Cd184 O195 2.439 . S
O185 Cd184 2.240 . S
O185 C190 1.279 . S
O186 Cd183 2.297 . S
O186 C188 1.247 . S
O187 Cd183 2.439 . S
O187 C188 1.208 . S
C188 O186 1.247 . S
C188 O187 1.208 . S
C189 O194 1.247 . S
C189 O195 1.208 . S
C190 O182 1.315 . S
C190 O185 1.279 . S
C191 O192 1.315 . S
C191 O193 1.279 . S
O192 Cd184 2.223 . S
O192 C191 1.315 . S
O193 Cd183 2.240 . S
O193 C191 1.279 . S
O194 Cd184 2.297 . S
O194 C189 1.247 . S
O195 Cd184 2.439 . S
O195 C189 1.208 . S
O196 Cd197 2.223 . S
O196 C204 1.315 1_545 S
Cd197 O196 2.223 . S
Cd197 O200 2.297 . S
Cd197 O201 2.439 . S
Cd197 O207 2.240 . S
Cd198 O199 2.240 . S
Cd198 O206 2.223 . S
Cd198 O208 2.297 . S
Cd198 O209 2.439 . S
O199 Cd198 2.240 . S
O199 C204 1.279 . S
O200 Cd197 2.297 . S
O200 C202 1.247 . S
O201 Cd197 2.439 . S
O201 C202 1.208 . S
C202 O200 1.247 . S
C202 O201 1.208 . S
C203 O208 1.247 . S
C203 O209 1.208 . S
C204 O196 1.315 1_565 S
C204 O199 1.279 . S
C205 O206 1.315 1_545 S
C205 O207 1.279 . S
O206 Cd198 2.223 . S
O206 C205 1.315 1_565 S
O207 Cd197 2.240 . S
O207 C205 1.279 . S
O208 Cd198 2.297 . S
O208 C203 1.247 . S
O209 Cd198 2.439 . S
O209 C203 1.208 . S
O210 Cd211 2.223 . S
O210 C218 1.315 . S
Cd211 O210 2.223 . S
Cd211 O214 2.297 . S
Cd211 O215 2.439 . S
Cd211 O221 2.240 . S
Cd212 O213 2.240 . S
Cd212 O220 2.223 . S
Cd212 O222 2.297 . S
Cd212 O223 2.439 . S
O213 Cd212 2.240 . S
O213 C218 1.279 . S
O214 Cd211 2.297 . S
O214 C216 1.247 . S
O215 Cd211 2.439 . S
O215 C216 1.208 . S
C216 O214 1.247 . S
C216 O215 1.208 . S
C217 O222 1.247 . S
C217 O223 1.208 . S
C218 O210 1.315 . S
C218 O213 1.279 . S
C219 O220 1.315 . S
C219 O221 1.279 . S
O220 Cd212 2.223 . S
O220 C219 1.315 . S
O221 Cd211 2.240 . S
O221 C219 1.279 . S
O222 Cd212 2.297 . S
O222 C217 1.247 . S
O223 Cd212 2.439 . S
O223 C217 1.208 . S
O224 Cd225 2.223 . S
O224 C232 1.315 . S
Cd225 O224 2.223 . S
Cd225 O228 2.297 . S
Cd225 O229 2.439 . S
Cd225 O235 2.240 . S
Cd226 O227 2.240 . S
Cd226 O234 2.223 . S
Cd226 O236 2.297 . S
Cd226 O237 2.439 . S
O227 Cd226 2.240 . S
O227 C232 1.279 . S
O228 Cd225 2.297 . S
O228 C230 1.247 . S
O229 Cd225 2.439 . S
O229 C230 1.208 . S
C230 O228 1.247 . S
C230 O229 1.208 . S
C231 O236 1.247 . S
C231 O237 1.208 . S
C232 O224 1.315 . S
C232 O227 1.279 . S
C233 O234 1.315 . S
C233 O235 1.279 . S
O234 Cd226 2.223 . S
O234 C233 1.315 . S
O235 Cd225 2.240 . S
O235 C233 1.279 . S
O236 Cd226 2.297 . S
O236 C231 1.247 . S
O237 Cd226 2.439 . S
O237 C231 1.208 . S
O238 Cd239 2.223 . S
O238 C246 1.315 . S
Cd239 O238 2.223 . S
Cd239 O242 2.297 . S
Cd239 O243 2.439 . S
Cd239 O249 2.240 . S
Cd240 O241 2.240 . S
Cd240 O248 2.223 . S
Cd240 O250 2.297 . S
Cd240 O251 2.439 . S
O241 Cd240 2.240 . S
O241 C246 1.279 . S
O242 Cd239 2.297 . S
O242 C244 1.247 . S
O243 Cd239 2.439 . S
O243 C244 1.208 . S
C244 O242 1.247 . S
C244 O243 1.208 . S
C245 O250 1.247 . S
C245 O251 1.208 . S
C246 O238 1.315 . S
C246 O241 1.279 . S
C247 O248 1.315 . S
C247 O249 1.279 . S
O248 Cd240 2.223 . S
O248 C247 1.315 . S
O249 Cd239 2.240 . S
O249 C247 1.279 . S
O250 Cd240 2.297 . S
O250 C245 1.247 . S
O251 Cd240 2.439 . S
O251 C245 1.208 . S
O252 Cd253 2.223 . S
O252 C260 1.315 . S
Cd253 O252 2.223 . S
Cd253 O256 2.297 . S
Cd253 O257 2.439 . S
Cd253 O263 2.240 . S
Cd254 O255 2.240 . S
Cd254 O262 2.223 . S
Cd254 O264 2.297 . S
Cd254 O265 2.439 . S
O255 Cd254 2.240 . S
O255 C260 1.279 . S
O256 Cd253 2.297 . S
O256 C258 1.247 . S
O257 Cd253 2.439 . S
O257 C258 1.208 . S
C258 O256 1.247 . S
C258 O257 1.208 . S
C259 O264 1.247 . S
C259 O265 1.208 . S
C260 O252 1.315 . S
C260 O255 1.279 . S
C261 O262 1.315 . S
C261 O263 1.279 . S
O262 Cd254 2.223 . S
O262 C261 1.315 . S
O263 Cd253 2.240 . S
O263 C261 1.279 . S
O264 Cd254 2.297 . S
O264 C259 1.247 . S
O265 Cd254 2.439 . S
O265 C259 1.208 . S
O266 Cd267 2.223 . S
O266 C274 1.315 . S
Cd267 O266 2.223 . S
Cd267 O270 2.297 . S
Cd267 O271 2.439 . S
Cd267 O277 2.240 . S
Cd268 O269 2.240 . S
Cd268 O276 2.223 . S
Cd268 O278 2.297 . S
Cd268 O279 2.439 . S
O269 Cd268 2.240 . S
O269 C274 1.279 . S
O270 Cd267 2.297 . S
O270 C272 1.247 . S
O271 Cd267 2.439 . S
O271 C272 1.208 . S
C272 O270 1.247 . S
C272 O271 1.208 . S
C273 O278 1.247 . S
C273 O279 1.208 . S
C274 O266 1.315 . S
C274 O269 1.279 . S
C275 O276 1.315 . S
C275 O277 1.279 . S
O276 Cd268 2.223 . S
O276 C275 1.315 . S
O277 Cd267 2.240 . S
O277 C275 1.279 . S
O278 Cd268 2.297 . S
O278 C273 1.247 . S
O279 Cd268 2.439 . S
O279 C273 1.208 . S
O280 Cd281 2.223 . S
O280 C288 1.315 . S
Cd281 O280 2.223 . S
Cd281 O284 2.297 . S
Cd281 O285 2.439 . S
Cd281 O291 2.240 . S
Cd282 O283 2.240 . S
Cd282 O290 2.223 . S
Cd282 O292 2.297 . S
Cd282 O293 2.439 . S
O283 Cd282 2.240 . S
O283 C288 1.279 . S
O284 Cd281 2.297 . S
O284 C286 1.247 . S
O285 Cd281 2.439 . S
O285 C286 1.208 . S
C286 O284 1.247 . S
C286 O285 1.208 . S
C287 O292 1.247 . S
C287 O293 1.208 . S
C288 O280 1.315 . S
C288 O283 1.279 . S
C289 O290 1.315 . S
C289 O291 1.279 . S
O290 Cd282 2.223 . S
O290 C289 1.315 . S
O291 Cd281 2.240 . S
O291 C289 1.279 . S
O292 Cd282 2.297 . S
O292 C287 1.247 . S
O293 Cd282 2.439 . S
O293 C287 1.208 . S
O294 Cd295 2.223 . S
O294 C302 1.315 1_545 S
Cd295 O294 2.223 . S
Cd295 O298 2.297 . S
Cd295 O299 2.439 1_556 S
Cd295 O305 2.240 . S
Cd296 O297 2.240 1_554 S
Cd296 O304 2.223 1_554 S
Cd296 O306 2.297 . S
Cd296 O307 2.439 . S
O297 Cd296 2.240 1_556 S
O297 C302 1.279 . S
O298 Cd295 2.297 . S
O298 C300 1.247 1_556 S
O299 Cd295 2.439 1_554 S
O299 C300 1.208 . S
C300 O298 1.247 1_554 S
C300 O299 1.208 . S
C301 O306 1.247 . S
C301 O307 1.208 . S
C302 O294 1.315 1_565 S
C302 O297 1.279 . S
C303 O304 1.315 1_545 S
C303 O305 1.279 . S
O304 Cd296 2.223 1_556 S
O304 C303 1.315 1_565 S
O305 Cd295 2.240 . S
O305 C303 1.279 . S
O306 Cd296 2.297 . S
O306 C301 1.247 . S
O307 Cd296 2.439 . S
O307 C301 1.208 . S
O308 Cd309 2.223 . S
O308 C316 1.315 . S
Cd309 O308 2.223 . S
Cd309 O312 2.297 . S
Cd309 O313 2.439 . S
Cd309 O319 2.240 . S
Cd310 O311 2.240 . S
Cd310 O318 2.223 . S
Cd310 O320 2.297 1_556 S
Cd310 O321 2.439 1_556 S
O311 Cd310 2.240 . S
O311 C316 1.279 . S
O312 Cd309 2.297 . S
O312 C314 1.247 . S
O313 Cd309 2.439 . S
O313 C314 1.208 . S
C314 O312 1.247 . S
C314 O313 1.208 . S
C315 O320 1.247 . S
C315 O321 1.208 . S
C316 O308 1.315 . S
C316 O311 1.279 . S
C317 O318 1.315 . S
C317 O319 1.279 . S
O318 Cd310 2.223 . S
O318 C317 1.315 . S
O319 Cd309 2.240 . S
O319 C317 1.279 . S
O320 Cd310 2.297 1_554 S
O320 C315 1.247 . S
O321 Cd310 2.439 1_554 S
O321 C315 1.208 . S
O322 Cd323 2.223 . S
O322 C330 1.315 . S
Cd323 O322 2.223 . S
Cd323 O326 2.297 . S
Cd323 O327 2.439 1_556 S
Cd323 O333 2.240 . S
Cd324 O325 2.240 . S
Cd324 O332 2.223 . S
Cd324 O334 2.297 1_556 S
Cd324 O335 2.439 1_556 S
O325 Cd324 2.240 . S
O325 C330 1.279 . S
O326 Cd323 2.297 . S
O326 C328 1.247 1_556 S
O327 Cd323 2.439 1_554 S
O327 C328 1.208 . S
C328 O326 1.247 1_554 S
C328 O327 1.208 . S
C329 O334 1.247 . S
C329 O335 1.208 . S
C330 O322 1.315 . S
C330 O325 1.279 . S
C331 O332 1.315 . S
C331 O333 1.279 . S
O332 Cd324 2.223 . S
O332 C331 1.315 . S
O333 Cd323 2.240 . S
O333 C331 1.279 . S
O334 Cd324 2.297 1_554 S
O334 C329 1.247 . S
O335 Cd324 2.439 1_554 S
O335 C329 1.208 . S
O336 Cd337 2.223 . S
O336 C344 1.315 . S
Cd337 O336 2.223 . S
Cd337 O340 2.297 . S
Cd337 O341 2.439 . S
Cd337 O347 2.240 . S
Cd338 O339 2.240 . S
Cd338 O346 2.223 . S
Cd338 O348 2.297 . S
Cd338 O349 2.439 . S
O339 Cd338 2.240 . S
O339 C344 1.279 . S
O340 Cd337 2.297 . S
O340 C342 1.247 . S
O341 Cd337 2.439 . S
O341 C342 1.208 . S
C342 O340 1.247 . S
C342 O341 1.208 . S
C343 O348 1.247 . S
C343 O349 1.208 . S
C344 O336 1.315 . S
C344 O339 1.279 . S
C345 O346 1.315 . S
C345 O347 1.279 . S
O346 Cd338 2.223 . S
O346 C345 1.315 . S
O347 Cd337 2.240 . S
O347 C345 1.279 . S
O348 Cd338 2.297 . S
O348 C343 1.247 . S
O349 Cd338 2.439 . S
O349 C343 1.208 . S
O350 Cd351 2.223 . S
O350 C358 1.315 . S
Cd351 O350 2.223 . S
Cd351 O354 2.297 . S
Cd351 O355 2.439 . S
Cd351 O361 2.240 . S
Cd352 O353 2.240 . S
Cd352 O360 2.223 . S
Cd352 O362 2.297 . S
Cd352 O363 2.439 . S
O353 Cd352 2.240 . S
O353 C358 1.279 . S
O354 Cd351 2.297 . S
O354 C356 1.247 . S
O355 Cd351 2.439 . S
O355 C356 1.208 . S
C356 O354 1.247 . S
C356 O355 1.208 . S
C357 O362 1.247 . S
C357 O363 1.208 . S
C358 O350 1.315 . S
C358 O353 1.279 . S
C359 O360 1.315 . S
C359 O361 1.279 . S
O360 Cd352 2.223 . S
O360 C359 1.315 . S
O361 Cd351 2.240 . S
O361 C359 1.279 . S
O362 Cd352 2.297 . S
O362 C357 1.247 . S
O363 Cd352 2.439 . S
O363 C357 1.208 . S
O364 Cd365 2.223 . S
O364 C372 1.315 . S
Cd365 O364 2.223 . S
Cd365 O368 2.297 . S
Cd365 O369 2.439 . S
Cd365 O375 2.240 . S
Cd366 O367 2.240 . S
Cd366 O374 2.223 . S
Cd366 O376 2.297 . S
Cd366 O377 2.439 . S
O367 Cd366 2.240 . S
O367 C372 1.279 . S
O368 Cd365 2.297 . S
O368 C370 1.247 . S
O369 Cd365 2.439 . S
O369 C370 1.208 . S
C370 O368 1.247 . S
C370 O369 1.208 . S
C371 O376 1.247 . S
C371 O377 1.208 . S
C372 O364 1.315 . S
C372 O367 1.279 . S
C373 O374 1.315 . S
C373 O375 1.279 . S
O374 Cd366 2.223 . S
O374 C373 1.315 . S
O375 Cd365 2.240 . S
O375 C373 1.279 . S
O376 Cd366 2.297 . S
O376 C371 1.247 . S
O377 Cd366 2.439 . S
O377 C371 1.208 . S
O378 Cd379 2.223 . S
O378 C386 1.315 1_565 S
Cd379 O378 2.223 . S
Cd379 O382 2.297 . S
Cd379 O383 2.439 1_554 S
Cd379 O389 2.240 . S
Cd380 O381 2.240 1_556 S
Cd380 O388 2.223 1_556 S
Cd380 O390 2.297 . S
Cd380 O391 2.439 . S
O381 Cd380 2.240 1_554 S
O381 C386 1.279 . S
O382 Cd379 2.297 . S
O382 C384 1.247 1_554 S
O383 Cd379 2.439 1_556 S
O383 C384 1.208 . S
C384 O382 1.247 1_556 S
C384 O383 1.208 . S
C385 O390 1.247 . S
C385 O391 1.208 . S
C386 O378 1.315 1_545 S
C386 O381 1.279 . S
C387 O388 1.315 1_565 S
C387 O389 1.279 . S
O388 Cd380 2.223 1_554 S
O388 C387 1.315 1_545 S
O389 Cd379 2.240 . S
O389 C387 1.279 . S
O390 Cd380 2.297 . S
O390 C385 1.247 . S
O391 Cd380 2.439 . S
O391 C385 1.208 . S
O392 Cd393 2.223 . S
O392 C400 1.315 . S
Cd393 O392 2.223 . S
Cd393 O396 2.297 . S
Cd393 O397 2.439 . S
Cd393 O403 2.240 . S
Cd394 O395 2.240 . S
Cd394 O402 2.223 . S
Cd394 O404 2.297 1_554 S
Cd394 O405 2.439 1_554 S
O395 Cd394 2.240 . S
O395 C400 1.279 . S
O396 Cd393 2.297 . S
O396 C398 1.247 . S
O397 Cd393 2.439 . S
O397 C398 1.208 . S
C398 O396 1.247 . S
C398 O397 1.208 . S
C399 O404 1.247 . S
C399 O405 1.208 . S
C400 O392 1.315 . S
C400 O395 1.279 . S
C401 O402 1.315 . S
C401 O403 1.279 . S
O402 Cd394 2.223 . S
O402 C401 1.315 . S
O403 Cd393 2.240 . S
O403 C401 1.279 . S
O404 Cd394 2.297 1_556 S
O404 C399 1.247 . S
O405 Cd394 2.439 1_556 S
O405 C399 1.208 . S
O406 Cd407 2.223 . S
O406 C414 1.315 . S
Cd407 O406 2.223 . S
Cd407 O410 2.297 . S
Cd407 O411 2.439 1_554 S
Cd407 O417 2.240 . S
Cd408 O409 2.240 . S
Cd408 O416 2.223 . S
Cd408 O418 2.297 1_554 S
Cd408 O419 2.439 1_554 S
O409 Cd408 2.240 . S
O409 C414 1.279 . S
O410 Cd407 2.297 . S
O410 C412 1.247 1_554 S
O411 Cd407 2.439 1_556 S
O411 C412 1.208 . S
C412 O410 1.247 1_556 S
C412 O411 1.208 . S
C413 O418 1.247 . S
C413 O419 1.208 . S
C414 O406 1.315 . S
C414 O409 1.279 . S
C415 O416 1.315 . S
C415 O417 1.279 . S
O416 Cd408 2.223 . S
O416 C415 1.315 . S
O417 Cd407 2.240 . S
O417 C415 1.279 . S
O418 Cd408 2.297 1_556 S
O418 C413 1.247 . S
O419 Cd408 2.439 1_556 S
O419 C413 1.208 . S
O420 Cd421 2.223 . S
O420 C428 1.315 . S
Cd421 O420 2.223 . S
Cd421 O424 2.297 . S
Cd421 O425 2.439 . S
Cd421 O431 2.240 . S
Cd422 O423 2.240 . S
Cd422 O430 2.223 . S
Cd422 O432 2.297 . S
Cd422 O433 2.439 . S
O423 Cd422 2.240 . S
O423 C428 1.279 . S
O424 Cd421 2.297 . S
O424 C426 1.247 . S
O425 Cd421 2.439 . S
O425 C426 1.208 . S
C426 O424 1.247 . S
C426 O425 1.208 . S
C427 O432 1.247 . S
C427 O433 1.208 . S
C428 O420 1.315 . S
C428 O423 1.279 . S
C429 O430 1.315 . S
C429 O431 1.279 . S
O430 Cd422 2.223 . S
O430 C429 1.315 . S
O431 Cd421 2.240 . S
O431 C429 1.279 . S
O432 Cd422 2.297 . S
O432 C427 1.247 . S
O433 Cd422 2.439 . S
O433 C427 1.208 . S
O434 Cd435 2.223 . S
O434 C442 1.315 . S
Cd435 O434 2.223 . S
Cd435 O438 2.297 . S
Cd435 O439 2.439 . S
Cd435 O445 2.240 . S
Cd436 O437 2.240 . S
Cd436 O444 2.223 . S
Cd436 O446 2.297 . S
Cd436 O447 2.439 . S
O437 Cd436 2.240 . S
O437 C442 1.279 . S
O438 Cd435 2.297 . S
O438 C440 1.247 . S
O439 Cd435 2.439 . S
O439 C440 1.208 . S
C440 O438 1.247 . S
C440 O439 1.208 . S
C441 O446 1.247 . S
C441 O447 1.208 . S
C442 O434 1.315 . S
C442 O437 1.279 . S
C443 O444 1.315 . S
C443 O445 1.279 . S
O444 Cd436 2.223 . S
O444 C443 1.315 . S
O445 Cd435 2.240 . S
O445 C443 1.279 . S
O446 Cd436 2.297 . S
O446 C441 1.247 . S
O447 Cd436 2.439 . S
O447 C441 1.208 . S
O448 Cd449 2.223 . S
O448 C456 1.315 1_565 S
Cd449 O448 2.223 . S
Cd449 O452 2.297 . S
Cd449 O453 2.439 . S
Cd449 O459 2.240 . S
Cd450 O451 2.240 . S
Cd450 O458 2.223 . S
Cd450 O460 2.297 . S
Cd450 O461 2.439 . S
O451 Cd450 2.240 . S
O451 C456 1.279 . S
O452 Cd449 2.297 . S
O452 C454 1.247 . S
O453 Cd449 2.439 . S
O453 C454 1.208 . S
C454 O452 1.247 . S
C454 O453 1.208 . S
C455 O460 1.247 . S
C455 O461 1.208 . S
C456 O448 1.315 1_545 S
C456 O451 1.279 . S
C457 O458 1.315 1_565 S
C457 O459 1.279 . S
O458 Cd450 2.223 . S
O458 C457 1.315 1_545 S
O459 Cd449 2.240 . S
O459 C457 1.279 . S
O460 Cd450 2.297 . S
O460 C455 1.247 . S
O461 Cd450 2.439 . S
O461 C455 1.208 . S
O462 Cd463 2.223 . S
O462 C470 1.315 . S
Cd463 O462 2.223 . S
Cd463 O466 2.297 . S
Cd463 O467 2.439 . S
Cd463 O473 2.240 . S
Cd464 O465 2.240 . S
Cd464 O472 2.223 . S
Cd464 O474 2.297 . S
Cd464 O475 2.439 . S
O465 Cd464 2.240 . S
O465 C470 1.279 . S
O466 Cd463 2.297 . S
O466 C468 1.247 . S
O467 Cd463 2.439 . S
O467 C468 1.208 . S
C468 O466 1.247 . S
C468 O467 1.208 . S
C469 O474 1.247 . S
C469 O475 1.208 . S
C470 O462 1.315 . S
C470 O465 1.279 . S
C471 O472 1.315 . S
C471 O473 1.279 . S
O472 Cd464 2.223 . S
O472 C471 1.315 . S
O473 Cd463 2.240 . S
O473 C471 1.279 . S
O474 Cd464 2.297 . S
O474 C469 1.247 . S
O475 Cd464 2.439 . S
O475 C469 1.208 . S
O476 Cd477 2.223 . S
O476 C484 1.315 . S
Cd477 O476 2.223 . S
Cd477 O480 2.297 . S
Cd477 O481 2.439 . S
Cd477 O487 2.240 . S
Cd478 O479 2.240 . S
Cd478 O486 2.223 . S
Cd478 O488 2.297 . S
Cd478 O489 2.439 . S
O479 Cd478 2.240 . S
O479 C484 1.279 . S
O480 Cd477 2.297 . S
O480 C482 1.247 . S
O481 Cd477 2.439 . S
O481 C482 1.208 . S
C482 O480 1.247 . S
C482 O481 1.208 . S
C483 O488 1.247 . S
C483 O489 1.208 . S
C484 O476 1.315 . S
C484 O479 1.279 . S
C485 O486 1.315 . S
C485 O487 1.279 . S
O486 Cd478 2.223 . S
O486 C485 1.315 . S
O487 Cd477 2.240 . S
O487 C485 1.279 . S
O488 Cd478 2.297 . S
O488 C483 1.247 . S
O489 Cd478 2.439 . S
O489 C483 1.208 . S
O490 Cd491 2.223 . S
O490 C498 1.315 . S
Cd491 O490 2.223 . S
Cd491 O494 2.297 . S
Cd491 O495 2.439 . S
Cd491 O501 2.240 . S
Cd492 O493 2.240 . S
Cd492 O500 2.223 . S
Cd492 O502 2.297 . S
Cd492 O503 2.439 . S
O493 Cd492 2.240 . S
O493 C498 1.279 . S
O494 Cd491 2.297 . S
O494 C496 1.247 . S
O495 Cd491 2.439 . S
O495 C496 1.208 . S
C496 O494 1.247 . S
C496 O495 1.208 . S
C497 O502 1.247 . S
C497 O503 1.208 . S
C498 O490 1.315 . S
C498 O493 1.279 . S
C499 O500 1.315 . S
C499 O501 1.279 . S
O500 Cd492 2.223 . S
O500 C499 1.315 . S
O501 Cd491 2.240 . S
O501 C499 1.279 . S
O502 Cd492 2.297 . S
O502 C497 1.247 . S
O503 Cd492 2.439 . S
O503 C497 1.208 . S
H504 C512 0.950 . S
H505 C517 0.950 . S
H506 C514 0.950 1_545 S
H507 C516 0.950 1_545 S
H508 C518 0.950 . S
H509 C520 0.950 . S
H510 C522 0.950 . S
H511 C523 0.950 . S
C512 H504 0.950 . S
C512 C513 1.386 . S
C512 C514 1.391 . S
C513 C512 1.386 . S
C513 C517 1.393 . S
C514 H506 0.950 1_565 S
C514 C512 1.391 . S
C514 C515 1.400 1_565 S
C515 C514 1.400 1_545 S
C515 C516 1.398 1_545 S
C515 C521 1.491 . S
C516 H507 0.950 1_565 S
C516 C515 1.398 1_565 S
C516 C517 1.391 . S
C517 H505 0.950 . S
C517 C513 1.393 . S
C517 C516 1.391 . S
C518 H508 0.950 . S
C518 C519 1.386 . S
C518 C520 1.391 . S
C519 C518 1.386 . S
C519 C523 1.393 . S
C520 H509 0.950 . S
C520 C518 1.391 . S
C520 C521 1.400 . S
C521 C515 1.491 . S
C521 C520 1.400 . S
C521 C522 1.398 . S
C522 H510 0.950 . S
C522 C521 1.398 . S
C522 C523 1.391 . S
C523 H511 0.950 . S
C523 C519 1.393 . S
C523 C522 1.391 . S
H524 C532 0.950 . S
H525 C537 0.950 . S
H526 C534 0.950 1_455 S
H527 C536 0.950 . S
H528 C538 0.950 . S
H529 C540 0.950 . S
H530 C542 0.950 . S
H531 C543 0.950 . S
C532 H524 0.950 . S
C532 C533 1.386 . S
C532 C534 1.391 . S
C533 C532 1.386 . S
C533 C537 1.393 . S
C534 H526 0.950 1_655 S
C534 C532 1.391 . S
C534 C535 1.400 1_655 S
C535 C534 1.400 1_455 S
C535 C536 1.398 1_455 S
C535 C541 1.491 . S
C536 H527 0.950 . S
C536 C535 1.398 1_655 S
C536 C537 1.391 . S
C537 H525 0.950 . S
C537 C533 1.393 . S
C537 C536 1.391 . S
C538 H528 0.950 . S
C538 C539 1.386 . S
C538 C540 1.391 . S
C539 C538 1.386 . S
C539 C543 1.393 . S
C540 H529 0.950 . S
C540 C538 1.391 . S
C540 C541 1.400 . S
C541 C535 1.491 . S
C541 C540 1.400 . S
C541 C542 1.398 . S
C542 H530 0.950 . S
C542 C541 1.398 . S
C542 C543 1.391 . S
C543 H531 0.950 . S
C543 C539 1.393 . S
C543 C542 1.391 . S
H544 C552 0.950 . S
H545 C557 0.950 . S
H546 C554 0.950 . S
H547 C556 0.950 . S
H548 C558 0.950 . S
H549 C560 0.950 . S
H550 C562 0.950 . S
H551 C563 0.950 . S
C552 H544 0.950 . S
C552 C553 1.386 . S
C552 C554 1.391 . S
C553 C552 1.386 . S
C553 C557 1.393 . S
C554 H546 0.950 . S
C554 C552 1.391 . S
C554 C555 1.400 . S
C555 C554 1.400 . S
C555 C556 1.398 . S
C555 C561 1.491 . S
C556 H547 0.950 . S
C556 C555 1.398 . S
C556 C557 1.391 . S
C557 H545 0.950 . S
C557 C553 1.393 . S
C557 C556 1.391 . S
C558 H548 0.950 . S
C558 C559 1.386 . S
C558 C560 1.391 . S
C559 C558 1.386 . S
C559 C563 1.393 . S
C560 H549 0.950 . S
C560 C558 1.391 . S
C560 C561 1.400 . S
C561 C555 1.491 . S
C561 C560 1.400 . S
C561 C562 1.398 . S
C562 H550 0.950 . S
C562 C561 1.398 . S
C562 C563 1.391 . S
C563 H551 0.950 . S
C563 C559 1.393 . S
C563 C562 1.391 . S
H564 C572 0.950 . S
H565 C577 0.950 . S
H566 C574 0.950 . S
H567 C576 0.950 . S
H568 C578 0.950 . S
H569 C580 0.948 . S
H570 C582 0.950 1_565 S
H571 C583 0.950 . S
C572 H564 0.950 . S
C572 C573 1.386 . S
C572 C574 1.391 . S
C573 C572 1.386 . S
C573 C577 1.393 . S
C574 H566 0.950 . S
C574 C572 1.391 . S
C574 C575 1.400 . S
C575 C574 1.400 . S
C575 C576 1.398 . S
C575 C581 1.491 . S
C576 H567 0.950 . S
C576 C575 1.398 . S
C576 C577 1.391 . S
C577 H565 0.950 . S
C577 C573 1.393 . S
C577 C576 1.391 . S
C578 H568 0.950 . S
C578 C579 1.386 . S
C578 C580 1.391 . S
C579 C578 1.386 . S
C579 C583 1.393 . S
C580 H569 0.948 . S
C580 C578 1.391 . S
C580 C581 1.400 1_545 S
C581 C575 1.491 . S
C581 C580 1.400 1_565 S
C581 C582 1.398 1_565 S
C582 H570 0.950 1_545 S
C582 C581 1.398 1_545 S
C582 C583 1.391 . S
C583 H571 0.950 . S
C583 C579 1.393 . S
C583 C582 1.391 . S
H584 C592 0.950 . S
H585 C597 0.950 . S
H586 C594 0.950 1_655 S
H587 C596 0.950 . S
H588 C598 0.950 . S
H589 C600 0.950 . S
H590 C602 0.950 . S
H591 C603 0.950 . S
C592 H584 0.950 . S
C592 C593 1.386 . S
C592 C594 1.391 . S
C593 C592 1.386 . S
C593 C597 1.393 . S
C594 H586 0.950 1_455 S
C594 C592 1.391 . S
C594 C595 1.400 1_455 S
C595 C594 1.400 1_655 S
C595 C596 1.398 1_655 S
C595 C601 1.491 . S
C596 H587 0.950 . S
C596 C595 1.398 1_455 S
C596 C597 1.391 . S
C597 H585 0.950 . S
C597 C593 1.393 . S
C597 C596 1.391 . S
C598 H588 0.950 . S
C598 C599 1.386 . S
C598 C600 1.391 . S
C599 C598 1.386 . S
C599 C603 1.393 . S
C600 H589 0.950 . S
C600 C598 1.391 . S
C600 C601 1.400 . S
C601 C595 1.491 . S
C601 C600 1.400 . S
C601 C602 1.398 . S
C602 H590 0.950 . S
C602 C601 1.398 . S
C602 C603 1.391 . S
C603 H591 0.950 . S
C603 C599 1.393 . S
C603 C602 1.391 . S
H604 C612 0.950 . S
H605 C617 0.950 . S
H606 C614 0.950 . S
H607 C616 0.950 . S
H608 C618 0.950 . S
H609 C620 0.950 . S
H610 C622 0.950 . S
H611 C623 0.950 . S
C612 H604 0.950 . S
C612 C613 1.386 . S
C612 C614 1.391 . S
C613 C612 1.386 . S
C613 C617 1.393 . S
C614 H606 0.950 . S
C614 C612 1.391 . S
C614 C615 1.400 . S
C615 C614 1.400 . S
C615 C616 1.398 . S
C615 C621 1.491 . S
C616 H607 0.950 . S
C616 C615 1.398 . S
C616 C617 1.391 . S
C617 H605 0.950 . S
C617 C613 1.393 . S
C617 C616 1.391 . S
C618 H608 0.950 . S
C618 C619 1.386 . S
C618 C620 1.391 . S
C619 C618 1.386 . S
C619 C623 1.393 . S
C620 H609 0.950 . S
C620 C618 1.391 . S
C620 C621 1.400 . S
C621 C615 1.491 . S
C621 C620 1.400 . S
C621 C622 1.398 . S
C622 H610 0.950 . S
C622 C621 1.398 . S
C622 C623 1.391 . S
C623 H611 0.950 . S
C623 C619 1.393 . S
C623 C622 1.391 . S
H624 C632 0.950 . S
H625 C637 0.950 . S
H626 C634 0.950 . S
H627 C636 0.950 . S
H628 C638 0.950 . S
H629 C640 0.950 . S
H630 C642 0.950 . S
H631 C643 0.950 . S
C632 H624 0.950 . S
C632 C633 1.386 . S
C632 C634 1.391 . S
C633 C632 1.386 . S
C633 C637 1.393 . S
C634 H626 0.950 . S
C634 C632 1.391 . S
C634 C635 1.400 . S
C635 C634 1.400 . S
C635 C636 1.398 . S
C635 C641 1.491 . S
C636 H627 0.950 . S
C636 C635 1.398 . S
C636 C637 1.391 . S
C637 H625 0.950 . S
C637 C633 1.393 . S
C637 C636 1.391 . S
C638 H628 0.950 . S
C638 C639 1.386 . S
C638 C640 1.391 . S
C639 C638 1.386 . S
C639 C643 1.393 . S
C640 H629 0.950 . S
C640 C638 1.391 . S
C640 C641 1.400 . S
C641 C635 1.491 . S
C641 C640 1.400 . S
C641 C642 1.398 . S
C642 H630 0.950 . S
C642 C641 1.398 . S
C642 C643 1.391 . S
C643 H631 0.950 . S
C643 C639 1.393 . S
C643 C642 1.391 . S
H644 C652 0.950 . S
H645 C657 0.950 . S
H646 C654 0.950 . S
H647 C656 0.950 . S
H648 C658 0.950 . S
H649 C660 0.950 . S
H650 C662 0.950 . S
H651 C663 0.950 . S
C652 H644 0.950 . S
C652 C653 1.386 . S
C652 C654 1.391 . S
C653 C652 1.386 . S
C653 C657 1.393 . S
C654 H646 0.950 . S
C654 C652 1.391 . S
C654 C655 1.400 . S
C655 C654 1.400 . S
C655 C656 1.398 . S
C655 C661 1.491 . S
C656 H647 0.950 . S
C656 C655 1.398 . S
C656 C657 1.391 . S
C657 H645 0.950 . S
C657 C653 1.393 . S
C657 C656 1.391 . S
C658 H648 0.950 . S
C658 C659 1.386 . S
C658 C660 1.391 . S
C659 C658 1.386 . S
C659 C663 1.393 . S
C660 H649 0.950 . S
C660 C658 1.391 . S
C660 C661 1.400 . S
C661 C655 1.491 . S
C661 C660 1.400 . S
C661 C662 1.398 . S
C662 H650 0.950 . S
C662 C661 1.398 . S
C662 C663 1.391 . S
C663 H651 0.950 . S
C663 C659 1.393 . S
C663 C662 1.391 . S
H664 C672 0.950 . S
H665 C677 0.950 . S
H666 C674 0.950 . S
H667 C676 0.950 . S
H668 C678 0.950 . S
H669 C680 0.950 . S
H670 C682 0.950 . S
H671 C683 0.950 . S
C672 H664 0.950 . S
C672 C673 1.386 . S
C672 C674 1.391 . S
C673 C672 1.386 . S
C673 C677 1.393 . S
C674 H666 0.950 . S
C674 C672 1.391 . S
C674 C675 1.400 . S
C675 C674 1.400 . S
C675 C676 1.398 . S
C675 C681 1.491 . S
C676 H667 0.950 . S
C676 C675 1.398 . S
C676 C677 1.391 . S
C677 H665 0.950 . S
C677 C673 1.393 . S
C677 C676 1.391 . S
C678 H668 0.950 . S
C678 C679 1.386 . S
C678 C680 1.391 . S
C679 C678 1.386 . S
C679 C683 1.393 . S
C680 H669 0.950 . S
C680 C678 1.391 . S
C680 C681 1.400 . S
C681 C675 1.491 . S
C681 C680 1.400 . S
C681 C682 1.398 . S
C682 H670 0.950 . S
C682 C681 1.398 . S
C682 C683 1.391 . S
C683 H671 0.950 . S
C683 C679 1.393 . S
C683 C682 1.391 . S
H684 C692 0.950 . S
H685 C697 0.950 . S
H686 C694 0.950 . S
H687 C696 0.950 . S
H688 C698 0.950 . S
H689 C700 0.950 . S
H690 C702 0.950 . S
H691 C703 0.950 . S
C692 H684 0.950 . S
C692 C693 1.386 . S
C692 C694 1.391 . S
C693 C692 1.386 . S
C693 C697 1.393 . S
C694 H686 0.950 . S
C694 C692 1.391 . S
C694 C695 1.400 . S
C695 C694 1.400 . S
C695 C696 1.398 . S
C695 C701 1.491 . S
C696 H687 0.950 . S
C696 C695 1.398 . S
C696 C697 1.391 . S
C697 H685 0.950 . S
C697 C693 1.393 . S
C697 C696 1.391 . S
C698 H688 0.950 . S
C698 C699 1.386 . S
C698 C700 1.391 . S
C699 C698 1.386 . S
C699 C703 1.393 . S
C700 H689 0.950 . S
C700 C698 1.391 . S
C700 C701 1.400 . S
C701 C695 1.491 . S
C701 C700 1.400 . S
C701 C702 1.398 . S
C702 H690 0.950 . S
C702 C701 1.398 . S
C702 C703 1.391 . S
C703 H691 0.950 . S
C703 C699 1.393 . S
C703 C702 1.391 . S
H704 C712 0.950 . S
H705 C717 0.950 . S
H706 C714 0.950 . S
H707 C716 0.950 . S
H708 C718 0.950 . S
H709 C720 0.950 . S
H710 C722 0.950 . S
H711 C723 0.950 1_556 S
C712 H704 0.950 . S
C712 C713 1.386 . S
C712 C714 1.391 . S
C713 C712 1.386 . S
C713 C717 1.393 . S
C714 H706 0.950 . S
C714 C712 1.391 . S
C714 C715 1.400 . S
C715 C714 1.400 . S
C715 C716 1.398 . S
C715 C721 1.491 . S
C716 H707 0.950 . S
C716 C715 1.398 . S
C716 C717 1.391 . S
C717 H705 0.950 . S
C717 C713 1.393 . S
C717 C716 1.391 . S
C718 H708 0.950 . S
C718 C719 1.386 . S
C718 C720 1.391 . S
C719 C718 1.386 . S
C719 C723 1.393 . S
C720 H709 0.950 . S
C720 C718 1.391 . S
C720 C721 1.400 . S
C721 C715 1.491 . S
C721 C720 1.400 . S
C721 C722 1.398 . S
C722 H710 0.950 . S
C722 C721 1.398 . S
C722 C723 1.391 . S
C723 H711 0.950 1_554 S
C723 C719 1.393 . S
C723 C722 1.391 . S
H724 C732 0.950 . S
H725 C737 0.950 . S
H726 C734 0.950 1_556 S
H727 C736 0.950 . S
H728 C738 0.950 . S
H729 C740 0.950 . S
H730 C742 0.950 . S
H731 C743 0.950 . S
C732 H724 0.950 . S
C732 C733 1.386 . S
C732 C734 1.391 . S
C733 C732 1.386 . S
C733 C737 1.393 . S
C734 H726 0.950 1_554 S
C734 C732 1.391 . S
C734 C735 1.400 . S
C735 C734 1.400 . S
C735 C736 1.398 . S
C735 C741 1.491 . S
C736 H727 0.950 . S
C736 C735 1.398 . S
C736 C737 1.391 . S
C737 H725 0.950 . S
C737 C733 1.393 . S
C737 C736 1.391 . S
C738 H728 0.950 . S
C738 C739 1.386 1_554 S
C738 C740 1.391 . S
C739 C738 1.386 1_556 S
C739 C743 1.393 . S
C740 H729 0.950 . S
C740 C738 1.391 . S
C740 C741 1.400 . S
C741 C735 1.491 . S
C741 C740 1.400 . S
C741 C742 1.398 1_554 S
C742 H730 0.950 . S
C742 C741 1.398 1_556 S
C742 C743 1.391 . S
C743 H731 0.950 . S
C743 C739 1.393 . S
C743 C742 1.391 . S
H744 C752 0.950 . S
H745 C757 0.950 . S
H746 C754 0.950 . S
H747 C756 0.950 . S
H748 C758 0.950 . S
H749 C760 0.950 . S
H750 C762 0.950 . S
H751 C763 0.950 . S
C752 H744 0.950 . S
C752 C753 1.386 . S
C752 C754 1.391 . S
C753 C752 1.386 . S
C753 C757 1.393 . S
C754 H746 0.950 . S
C754 C752 1.391 . S
C754 C755 1.400 . S
C755 C754 1.400 . S
C755 C756 1.398 . S
C755 C761 1.491 . S
C756 H747 0.950 . S
C756 C755 1.398 . S
C756 C757 1.391 . S
C757 H745 0.950 . S
C757 C753 1.393 . S
C757 C756 1.391 . S
C758 H748 0.950 . S
C758 C759 1.386 . S
C758 C760 1.391 . S
C759 C758 1.386 . S
C759 C763 1.393 . S
C760 H749 0.950 . S
C760 C758 1.391 . S
C760 C761 1.400 . S
C761 C755 1.491 . S
C761 C760 1.400 . S
C761 C762 1.398 . S
C762 H750 0.950 . S
C762 C761 1.398 . S
C762 C763 1.391 . S
C763 H751 0.950 . S
C763 C759 1.393 . S
C763 C762 1.391 . S
H764 C772 0.950 . S
H765 C777 0.950 1_554 S
H766 C774 0.950 . S
H767 C776 0.950 . S
H768 C778 0.950 . S
H769 C780 0.950 . S
H770 C782 0.950 . S
H771 C783 0.950 . S
C772 H764 0.950 . S
C772 C773 1.386 . S
C772 C774 1.391 . S
C773 C772 1.386 . S
C773 C777 1.393 . S
C774 H766 0.950 . S
C774 C772 1.391 . S
C774 C775 1.400 . S
C775 C774 1.400 . S
C775 C776 1.398 . S
C775 C781 1.491 . S
C776 H767 0.950 . S
C776 C775 1.398 . S
C776 C777 1.391 . S
C777 H765 0.950 1_556 S
C777 C773 1.393 . S
C777 C776 1.391 . S
C778 H768 0.950 . S
C778 C779 1.386 . S
C778 C780 1.391 . S
C779 C778 1.386 . S
C779 C783 1.393 . S
C780 H769 0.950 . S
C780 C778 1.391 . S
C780 C781 1.400 . S
C781 C775 1.491 . S
C781 C780 1.400 . S
C781 C782 1.398 . S
C782 H770 0.950 . S
C782 C781 1.398 . S
C782 C783 1.391 . S
C783 H771 0.950 . S
C783 C779 1.393 . S
C783 C782 1.391 . S
H784 C792 0.950 1_554 S
H785 C797 0.950 . S
H786 C794 0.950 . S
H787 C796 0.950 . S
H788 C798 0.950 . S
H789 C800 0.950 . S
H790 C802 0.950 . S
H791 C803 0.950 . S
C792 H784 0.950 1_556 S
C792 C793 1.386 . S
C792 C794 1.391 1_556 S
C793 C792 1.386 . S
C793 C797 1.393 . S
C794 H786 0.950 . S
C794 C792 1.391 1_554 S
C794 C795 1.400 1_554 S
C795 C794 1.400 1_556 S
C795 C796 1.398 . S
C795 C801 1.491 . S
C796 H787 0.950 . S
C796 C795 1.398 . S
C796 C797 1.391 . S
C797 H785 0.950 . S
C797 C793 1.393 . S
C797 C796 1.391 . S
C798 H788 0.950 . S
C798 C799 1.386 1_556 S
C798 C800 1.391 . S
C799 C798 1.386 1_554 S
C799 C803 1.393 . S
C800 H789 0.950 . S
C800 C798 1.391 . S
C800 C801 1.400 . S
C801 C795 1.491 . S
C801 C800 1.400 . S
C801 C802 1.398 1_556 S
C802 H790 0.950 . S
C802 C801 1.398 1_554 S
C802 C803 1.391 . S
C803 H791 0.950 . S
C803 C799 1.393 . S
C803 C802 1.391 . S
H804 C812 0.950 . S
H805 C817 0.950 . S
H806 C814 0.950 . S
H807 C816 0.950 . S
H808 C818 0.950 . S
H809 C820 0.950 . S
H810 C822 0.950 . S
H811 C823 0.950 . S
C812 H804 0.950 . S
C812 C813 1.386 . S
C812 C814 1.391 . S
C813 C812 1.386 . S
C813 C817 1.393 . S
C814 H806 0.950 . S
C814 C812 1.391 . S
C814 C815 1.400 . S
C815 C814 1.400 . S
C815 C816 1.398 . S
C815 C821 1.491 . S
C816 H807 0.950 . S
C816 C815 1.398 . S
C816 C817 1.391 . S
C817 H805 0.950 . S
C817 C813 1.393 . S
C817 C816 1.391 . S
C818 H808 0.950 . S
C818 C819 1.386 . S
C818 C820 1.391 . S
C819 C818 1.386 . S
C819 C823 1.393 . S
C820 H809 0.950 . S
C820 C818 1.391 . S
C820 C821 1.400 . S
C821 C815 1.491 . S
C821 C820 1.400 . S
C821 C822 1.398 . S
C822 H810 0.950 . S
C822 C821 1.398 . S
C822 C823 1.391 . S
C823 H811 0.950 . S
C823 C819 1.393 . S
C823 C822 1.391 . S
H824 C832 0.950 . S
H825 C837 0.950 . S
H826 C834 0.950 . S
H827 C836 0.950 . S
H828 C838 0.950 . S
H829 C840 0.950 . S
H830 C842 0.950 . S
H831 C843 0.950 . S
C832 H824 0.950 . S
C832 C833 1.386 . S
C832 C834 1.391 . S
C833 C832 1.386 . S
C833 C837 1.393 . S
C834 H826 0.950 . S
C834 C832 1.391 . S
C834 C835 1.400 . S
C835 C834 1.400 . S
C835 C836 1.398 . S
C835 C841 1.491 . S
C836 H827 0.950 . S
C836 C835 1.398 . S
C836 C837 1.391 . S
C837 H825 0.950 . S
C837 C833 1.393 . S
C837 C836 1.391 . S
C838 H828 0.950 . S
C838 C839 1.386 . S
C838 C840 1.391 . S
C839 C838 1.386 . S
C839 C843 1.393 . S
C840 H829 0.950 . S
C840 C838 1.391 . S
C840 C841 1.400 . S
C841 C835 1.491 . S
C841 C840 1.400 . S
C841 C842 1.398 . S
C842 H830 0.950 . S
C842 C841 1.398 . S
C842 C843 1.391 . S
C843 H831 0.950 . S
C843 C839 1.393 . S
C843 C842 1.391 . S
H844 C852 0.950 . S
H845 C857 0.950 . S
H846 C854 0.950 . S
H847 C856 0.950 . S
H848 C858 0.950 . S
H849 C860 0.950 . S
H850 C862 0.950 . S
H851 C863 0.950 . S
C852 H844 0.950 . S
C852 C853 1.386 . S
C852 C854 1.391 . S
C853 C852 1.386 . S
C853 C857 1.393 . S
C854 H846 0.950 . S
C854 C852 1.391 . S
C854 C855 1.400 . S
C855 C854 1.400 . S
C855 C856 1.398 . S
C855 C861 1.491 . S
C856 H847 0.950 . S
C856 C855 1.398 . S
C856 C857 1.391 . S
C857 H845 0.950 . S
C857 C853 1.393 . S
C857 C856 1.391 . S
C858 H848 0.950 . S
C858 C859 1.386 . S
C858 C860 1.391 . S
C859 C858 1.386 . S
C859 C863 1.393 . S
C860 H849 0.950 . S
C860 C858 1.391 . S
C860 C861 1.400 . S
C861 C855 1.491 . S
C861 C860 1.400 . S
C861 C862 1.398 . S
C862 H850 0.950 . S
C862 C861 1.398 . S
C862 C863 1.391 . S
C863 H851 0.950 . S
C863 C859 1.393 . S
C863 C862 1.391 . S
H864 C872 0.950 . S
H865 C877 0.950 . S
H866 C874 0.950 . S
H867 C876 0.950 . S
H868 C878 0.950 1_554 S
H869 C880 0.950 . S
H870 C882 0.950 . S
H871 C883 0.950 . S
C872 H864 0.950 . S
C872 C873 1.386 . S
C872 C874 1.391 . S
C873 C872 1.386 . S
C873 C877 1.393 . S
C874 H866 0.950 . S
C874 C872 1.391 . S
C874 C875 1.400 . S
C875 C874 1.400 . S
C875 C876 1.398 . S
C875 C881 1.491 . S
C876 H867 0.950 . S
C876 C875 1.398 . S
C876 C877 1.391 . S
C877 H865 0.950 . S
C877 C873 1.393 . S
C877 C876 1.391 . S
C878 H868 0.950 1_556 S
C878 C879 1.386 1_556 S
C878 C880 1.391 . S
C879 C878 1.386 1_554 S
C879 C883 1.393 . S
C880 H869 0.950 . S
C880 C878 1.391 . S
C880 C881 1.400 . S
C881 C875 1.491 . S
C881 C880 1.400 . S
C881 C882 1.398 . S
C882 H870 0.950 . S
C882 C881 1.398 . S
C882 C883 1.391 1_556 S
C883 H871 0.950 . S
C883 C879 1.393 . S
C883 C882 1.391 1_554 S
H884 C892 0.950 . S
H885 C897 0.950 . S
H886 C894 0.950 . S
H887 C896 0.950 . S
H888 C898 0.950 . S
H889 C900 0.950 . S
H890 C902 0.950 . S
H891 C903 0.950 . S
C892 H884 0.950 . S
C892 C893 1.386 . S
C892 C894 1.391 . S
C893 C892 1.386 . S
C893 C897 1.393 . S
C894 H886 0.950 . S
C894 C892 1.391 . S
C894 C895 1.400 . S
C895 C894 1.400 . S
C895 C896 1.398 . S
C895 C901 1.491 . S
C896 H887 0.950 . S
C896 C895 1.398 . S
C896 C897 1.391 . S
C897 H885 0.950 . S
C897 C893 1.393 . S
C897 C896 1.391 . S
C898 H888 0.950 . S
C898 C899 1.386 . S
C898 C900 1.391 . S
C899 C898 1.386 . S
C899 C903 1.393 . S
C900 H889 0.950 . S
C900 C898 1.391 . S
C900 C901 1.400 1_554 S
C901 C895 1.491 . S
C901 C900 1.400 1_556 S
C901 C902 1.398 . S
C902 H890 0.950 . S
C902 C901 1.398 . S
C902 C903 1.391 1_556 S
C903 H891 0.950 . S
C903 C899 1.393 . S
C903 C902 1.391 1_554 S
H904 C912 0.950 . S
H905 C917 0.950 . S
H906 C914 0.950 . S
H907 C916 0.950 . S
H908 C918 0.950 . S
H909 C920 0.950 . S
H910 C922 0.950 . S
H911 C923 0.950 . S
C912 H904 0.950 . S
C912 C913 1.386 . S
C912 C914 1.391 . S
C913 C912 1.386 . S
C913 C917 1.393 . S
C914 H906 0.950 . S
C914 C912 1.391 . S
C914 C915 1.400 . S
C915 C914 1.400 . S
C915 C916 1.398 . S
C915 C921 1.491 . S
C916 H907 0.950 . S
C916 C915 1.398 . S
C916 C917 1.391 . S
C917 H905 0.950 . S
C917 C913 1.393 . S
C917 C916 1.391 . S
C918 H908 0.950 . S
C918 C919 1.386 . S
C918 C920 1.391 1_554 S
C919 C918 1.386 . S
C919 C923 1.393 . S
C920 H909 0.950 . S
C920 C918 1.391 1_556 S
C920 C921 1.400 . S
C921 C915 1.491 . S
C921 C920 1.400 . S
C921 C922 1.398 . S
C922 H910 0.950 . S
C922 C921 1.398 . S
C922 C923 1.391 1_556 S
C923 H911 0.950 . S
C923 C919 1.393 . S
C923 C922 1.391 1_554 S
H924 C932 0.950 . S
H925 C937 0.950 . S
H926 C934 0.950 . S
H927 C936 0.950 . S
H928 C938 0.950 . S
H929 C940 0.950 . S
H930 C942 0.950 . S
H931 C943 0.950 . S
C932 H924 0.950 . S
C932 C933 1.386 . S
C932 C934 1.391 . S
C933 C932 1.386 . S
C933 C937 1.393 . S
C934 H926 0.950 . S
C934 C932 1.391 . S
C934 C935 1.400 . S
C935 C934 1.400 . S
C935 C936 1.398 . S
C935 C941 1.491 . S
C936 H927 0.950 . S
C936 C935 1.398 . S
C936 C937 1.391 . S
C937 H925 0.950 . S
C937 C933 1.393 . S
C937 C936 1.391 . S
C938 H928 0.950 . S
C938 C939 1.386 . S
C938 C940 1.391 . S
C939 C938 1.386 . S
C939 C943 1.393 . S
C940 H929 0.950 . S
C940 C938 1.391 . S
C940 C941 1.400 . S
C941 C935 1.491 . S
C941 C940 1.400 . S
C941 C942 1.398 . S
C942 H930 0.950 . S
C942 C941 1.398 . S
C942 C943 1.391 . S
C943 H931 0.950 . S
C943 C939 1.393 . S
C943 C942 1.391 . S
H944 C952 0.950 . S
H945 C957 0.950 . S
H946 C954 0.950 . S
H947 C956 0.950 . S
H948 C958 0.950 . S
H949 C960 0.950 . S
H950 C962 0.950 . S
H951 C963 0.950 . S
C952 H944 0.950 . S
C952 C953 1.386 . S
C952 C954 1.391 . S
C953 C952 1.386 . S
C953 C957 1.393 . S
C954 H946 0.950 . S
C954 C952 1.391 . S
C954 C955 1.400 . S
C955 C954 1.400 . S
C955 C956 1.398 . S
C955 C961 1.491 . S
C956 H947 0.950 . S
C956 C955 1.398 . S
C956 C957 1.391 . S
C957 H945 0.950 . S
C957 C953 1.393 . S
C957 C956 1.391 . S
C958 H948 0.950 . S
C958 C959 1.386 . S
C958 C960 1.391 . S
C959 C958 1.386 . S
C959 C963 1.393 . S
C960 H949 0.950 . S
C960 C958 1.391 . S
C960 C961 1.400 . S
C961 C955 1.491 . S
C961 C960 1.400 . S
C961 C962 1.398 . S
C962 H950 0.950 . S
C962 C961 1.398 . S
C962 C963 1.391 . S
C963 H951 0.950 . S
C963 C959 1.393 . S
C963 C962 1.391 . S
H964 C972 0.950 . S
H965 C977 0.950 . S
H966 C974 0.950 . S
H967 C976 0.950 . S
H968 C978 0.950 . S
H969 C980 0.950 . S
H970 C982 0.950 . S
H971 C983 0.950 . S
C972 H964 0.950 . S
C972 C973 1.386 . S
C972 C974 1.391 . S
C973 C972 1.386 . S
C973 C977 1.393 . S
C974 H966 0.950 . S
C974 C972 1.391 . S
C974 C975 1.400 . S
C975 C974 1.400 . S
C975 C976 1.398 . S
C975 C981 1.491 . S
C976 H967 0.950 . S
C976 C975 1.398 . S
C976 C977 1.391 . S
C977 H965 0.950 . S
C977 C973 1.393 . S
C977 C976 1.391 . S
C978 H968 0.950 . S
C978 C979 1.386 . S
C978 C980 1.391 . S
C979 C978 1.386 . S
C979 C983 1.393 . S
C980 H969 0.950 . S
C980 C978 1.391 . S
C980 C981 1.400 . S
C981 C975 1.491 . S
C981 C980 1.400 . S
C981 C982 1.398 . S
C982 H970 0.950 . S
C982 C981 1.398 . S
C982 C983 1.391 . S
C983 H971 0.950 . S
C983 C979 1.393 . S
C983 C982 1.391 . S
H984 C992 0.950 . S
H985 C997 0.950 . S
H986 C994 0.950 . S
H987 C996 0.950 . S
H988 C998 0.950 . S
H989 C1000 0.950 . S
H990 C1002 0.950 . S
H991 C1003 0.950 . S
C992 H984 0.950 . S
C992 C993 1.386 1_554 S
C992 C994 1.391 . S
C993 C992 1.386 1_556 S
C993 C997 1.393 . S
C994 H986 0.950 . S
C994 C992 1.391 . S
C994 C995 1.400 . S
C995 C994 1.400 . S
C995 C996 1.398 . S
C995 C1001 1.491 . S
C996 H987 0.950 . S
C996 C995 1.398 . S
C996 C997 1.391 1_554 S
C997 H985 0.950 . S
C997 C993 1.393 . S
C997 C996 1.391 1_556 S
C998 H988 0.950 . S
C998 C999 1.386 . S
C998 C1000 1.391 . S
C999 C998 1.386 . S
C999 C1003 1.393 . S
C1000 H989 0.950 . S
C1000 C998 1.391 . S
C1000 C1001 1.400 . S
C1001 C995 1.491 . S
C1001 C1000 1.400 . S
C1001 C1002 1.398 . S
C1002 H990 0.950 . S
C1002 C1001 1.398 . S
C1002 C1003 1.391 . S
C1003 H991 0.950 . S
C1003 C999 1.393 . S
C1003 C1002 1.391 . S
H1004 C1012 0.950 . S
H1005 C1017 0.950 . S
H1006 C1014 0.950 . S
H1007 C1016 0.950 . S
H1008 C1018 0.950 . S
H1009 C1020 0.950 . S
H1010 C1022 0.950 . S
H1011 C1023 0.950 . S
C1012 H1004 0.950 . S
C1012 C1013 1.386 . S
C1012 C1014 1.391 . S
C1013 C1012 1.386 . S
C1013 C1017 1.393 . S
C1014 H1006 0.950 . S
C1014 C1012 1.391 . S
C1014 C1015 1.400 1_556 S
C1015 C1014 1.400 1_554 S
C1015 C1016 1.398 . S
C1015 C1021 1.491 . S
C1016 H1007 0.950 . S
C1016 C1015 1.398 . S
C1016 C1017 1.391 1_554 S
C1017 H1005 0.950 . S
C1017 C1013 1.393 . S
C1017 C1016 1.391 1_556 S
C1018 H1008 0.950 . S
C1018 C1019 1.386 . S
C1018 C1020 1.391 . S
C1019 C1018 1.386 . S
C1019 C1023 1.393 . S
C1020 H1009 0.950 . S
C1020 C1018 1.391 . S
C1020 C1021 1.400 . S
C1021 C1015 1.491 . S
C1021 C1020 1.400 . S
C1021 C1022 1.398 . S
C1022 H1010 0.950 . S
C1022 C1021 1.398 . S
C1022 C1023 1.391 . S
C1023 H1011 0.950 . S
C1023 C1019 1.393 . S
C1023 C1022 1.391 . S
H1024 C1032 0.950 . S
H1025 C1037 0.950 . S
H1026 C1034 0.950 . S
H1027 C1036 0.950 . S
H1028 C1038 0.950 . S
H1029 C1040 0.950 . S
H1030 C1042 0.950 . S
H1031 C1043 0.950 . S
C1032 H1024 0.950 . S
C1032 C1033 1.386 . S
C1032 C1034 1.391 1_556 S
C1033 C1032 1.386 . S
C1033 C1037 1.393 . S
C1034 H1026 0.950 . S
C1034 C1032 1.391 1_554 S
C1034 C1035 1.400 . S
C1035 C1034 1.400 . S
C1035 C1036 1.398 . S
C1035 C1041 1.491 . S
C1036 H1027 0.950 . S
C1036 C1035 1.398 . S
C1036 C1037 1.391 1_554 S
C1037 H1025 0.950 . S
C1037 C1033 1.393 . S
C1037 C1036 1.391 1_556 S
C1038 H1028 0.950 . S
C1038 C1039 1.386 . S
C1038 C1040 1.391 . S
C1039 C1038 1.386 . S
C1039 C1043 1.393 . S
C1040 H1029 0.950 . S
C1040 C1038 1.391 . S
C1040 C1041 1.400 . S
C1041 C1035 1.491 . S
C1041 C1040 1.400 . S
C1041 C1042 1.398 . S
C1042 H1030 0.950 . S
C1042 C1041 1.398 . S
C1042 C1043 1.391 . S
C1043 H1031 0.950 . S
C1043 C1039 1.393 . S
C1043 C1042 1.391 . S
H1044 C1052 0.950 . S
H1045 C1057 0.950 . S
H1046 C1054 0.950 . S
H1047 C1056 0.950 . S
H1048 C1058 0.950 . S
H1049 C1060 0.950 . S
H1050 C1062 0.950 . S
H1051 C1063 0.950 . S
C1052 H1044 0.950 . S
C1052 C1053 1.386 . S
C1052 C1054 1.391 . S
C1053 C1052 1.386 . S
C1053 C1057 1.393 . S
C1054 H1046 0.950 . S
C1054 C1052 1.391 . S
C1054 C1055 1.400 . S
C1055 C1054 1.400 . S
C1055 C1056 1.398 . S
C1055 C1061 1.491 . S
C1056 H1047 0.950 . S
C1056 C1055 1.398 . S
C1056 C1057 1.391 . S
C1057 H1045 0.950 . S
C1057 C1053 1.393 . S
C1057 C1056 1.391 . S
C1058 H1048 0.950 . S
C1058 C1059 1.386 . S
C1058 C1060 1.391 . S
C1059 C1058 1.386 . S
C1059 C1063 1.393 . S
C1060 H1049 0.950 . S
C1060 C1058 1.391 . S
C1060 C1061 1.400 . S
C1061 C1055 1.491 . S
C1061 C1060 1.400 . S
C1061 C1062 1.398 . S
C1062 H1050 0.950 . S
C1062 C1061 1.398 . S
C1062 C1063 1.391 . S
C1063 H1051 0.950 . S
C1063 C1059 1.393 . S
C1063 C1062 1.391 . S
H1064 C1072 0.950 . S
H1065 C1077 0.950 . S
H1066 C1074 0.950 . S
H1067 C1076 0.950 . S
H1068 C1078 0.950 . S
H1069 C1080 0.950 . S
H1070 C1082 0.950 . S
H1071 C1083 0.950 . S
C1072 H1064 0.950 . S
C1072 C1073 1.386 . S
C1072 C1074 1.391 . S
C1073 C1072 1.386 . S
C1073 C1077 1.393 . S
C1074 H1066 0.950 . S
C1074 C1072 1.391 . S
C1074 C1075 1.400 . S
C1075 C1074 1.400 . S
C1075 C1076 1.398 . S
C1075 C1081 1.491 . S
C1076 H1067 0.950 . S
C1076 C1075 1.398 . S
C1076 C1077 1.391 . S
C1077 H1065 0.950 . S
C1077 C1073 1.393 . S
C1077 C1076 1.391 . S
C1078 H1068 0.950 . S
C1078 C1079 1.386 . S
C1078 C1080 1.391 . S
C1079 C1078 1.386 . S
C1079 C1083 1.393 . S
C1080 H1069 0.950 . S
C1080 C1078 1.391 . S
C1080 C1081 1.400 . S
C1081 C1075 1.491 . S
C1081 C1080 1.400 . S
C1081 C1082 1.398 . S
C1082 H1070 0.950 . S
C1082 C1081 1.398 . S
C1082 C1083 1.391 . S
C1083 H1071 0.950 . S
C1083 C1079 1.393 . S
C1083 C1082 1.391 . S
H1084 C1092 0.950 . S
H1085 C1097 0.950 . S
H1086 C1094 0.950 . S
H1087 C1096 0.950 . S
H1088 C1098 0.950 . S
H1089 C1100 0.950 . S
H1090 C1102 0.950 . S
H1091 C1103 0.950 . S
C1092 H1084 0.950 . S
C1092 C1093 1.386 . S
C1092 C1094 1.391 . S
C1093 C1092 1.386 . S
C1093 C1097 1.393 . S
C1094 H1086 0.950 . S
C1094 C1092 1.391 . S
C1094 C1095 1.400 . S
C1095 C1094 1.400 . S
C1095 C1096 1.398 . S
C1095 C1101 1.491 . S
C1096 H1087 0.950 . S
C1096 C1095 1.398 . S
C1096 C1097 1.391 . S
C1097 H1085 0.950 . S
C1097 C1093 1.393 . S
C1097 C1096 1.391 . S
C1098 H1088 0.950 . S
C1098 C1099 1.386 . S
C1098 C1100 1.391 . S
C1099 C1098 1.386 . S
C1099 C1103 1.393 . S
C1100 H1089 0.950 . S
C1100 C1098 1.391 . S
C1100 C1101 1.400 . S
C1101 C1095 1.491 . S
C1101 C1100 1.400 . S
C1101 C1102 1.398 . S
C1102 H1090 0.950 . S
C1102 C1101 1.398 . S
C1102 C1103 1.391 . S
C1103 H1091 0.950 . S
C1103 C1099 1.393 . S
C1103 C1102 1.391 . S
H1104 C1112 0.950 . S
H1105 C1117 0.950 . S
H1106 C1114 0.950 . S
H1107 C1116 0.950 . S
H1108 C1118 0.950 . S
H1109 C1120 0.950 . S
H1110 C1122 0.950 . S
H1111 C1123 0.950 . S
C1112 H1104 0.950 . S
C1112 C1113 1.386 . S
C1112 C1114 1.391 . S
C1113 C1112 1.386 . S
C1113 C1117 1.393 . S
C1114 H1106 0.950 . S
C1114 C1112 1.391 . S
C1114 C1115 1.400 . S
C1115 C1114 1.400 . S
C1115 C1116 1.398 . S
C1115 C1121 1.491 . S
C1116 H1107 0.950 . S
C1116 C1115 1.398 . S
C1116 C1117 1.391 . S
C1117 H1105 0.950 . S
C1117 C1113 1.393 . S
C1117 C1116 1.391 . S
C1118 H1108 0.950 . S
C1118 C1119 1.386 . S
C1118 C1120 1.391 . S
C1119 C1118 1.386 . S
C1119 C1123 1.393 . S
C1120 H1109 0.950 . S
C1120 C1118 1.391 . S
C1120 C1121 1.400 . S
C1121 C1115 1.491 . S
C1121 C1120 1.400 . S
C1121 C1122 1.398 . S
C1122 H1110 0.950 . S
C1122 C1121 1.398 . S
C1122 C1123 1.391 . S
C1123 H1111 0.950 . S
C1123 C1119 1.393 . S
C1123 C1122 1.391 . S
H1124 C1132 0.950 . S
H1125 C1137 0.950 . S
H1126 C1134 0.950 . S
H1127 C1136 0.950 . S
H1128 C1138 0.950 . S
H1129 C1140 0.950 . S
H1130 C1142 0.950 . S
H1131 C1143 0.950 . S
C1132 H1124 0.950 . S
C1132 C1133 1.386 . S
C1132 C1134 1.391 . S
C1133 C1132 1.386 . S
C1133 C1137 1.393 . S
C1134 H1126 0.950 . S
C1134 C1132 1.391 . S
C1134 C1135 1.400 . S
C1135 C1134 1.400 . S
C1135 C1136 1.398 . S
C1135 C1141 1.491 . S
C1136 H1127 0.950 . S
C1136 C1135 1.398 . S
C1136 C1137 1.391 . S
C1137 H1125 0.950 . S
C1137 C1133 1.393 . S
C1137 C1136 1.391 . S
C1138 H1128 0.950 . S
C1138 C1139 1.386 . S
C1138 C1140 1.391 . S
C1139 C1138 1.386 . S
C1139 C1143 1.393 . S
C1140 H1129 0.950 . S
C1140 C1138 1.391 . S
C1140 C1141 1.400 . S
C1141 C1135 1.491 . S
C1141 C1140 1.400 . S
C1141 C1142 1.398 . S
C1142 H1130 0.950 . S
C1142 C1141 1.398 . S
C1142 C1143 1.391 . S
C1143 H1131 0.950 . S
C1143 C1139 1.393 . S
C1143 C1142 1.391 . S
H1144 C1152 0.950 . S
H1145 C1157 0.950 . S
H1146 C1154 0.950 1_545 S
H1147 C1156 0.950 . S
H1148 C1158 0.932 . S
H1149 C1160 0.950 . S
H1150 C1162 0.950 . S
H1151 C1163 0.950 . S
C1152 H1144 0.950 . S
C1152 C1153 1.386 . S
C1152 C1154 1.391 . S
C1153 C1152 1.386 . S
C1153 C1157 1.393 . S
C1154 H1146 0.950 1_565 S
C1154 C1152 1.391 . S
C1154 C1155 1.400 . S
C1155 C1154 1.400 . S
C1155 C1156 1.398 . S
C1155 C1161 1.496 . S
C1156 H1147 0.950 . S
C1156 C1155 1.398 . S
C1156 C1157 1.391 . S
C1157 H1145 0.950 . S
C1157 C1153 1.393 . S
C1157 C1156 1.391 . S
C1158 H1148 0.932 . S
C1158 C1159 1.386 . S
C1158 C1160 1.391 1_545 S
C1159 C1158 1.386 . S
C1159 C1163 1.393 . S
C1160 H1149 0.950 . S
C1160 C1158 1.391 1_565 S
C1160 C1161 1.396 . S
C1161 C1155 1.496 . S
C1161 C1160 1.396 . S
C1161 C1162 1.398 1_565 S
C1162 H1150 0.950 . S
C1162 C1161 1.398 1_545 S
C1162 C1163 1.391 . S
C1163 H1151 0.950 . S
C1163 C1159 1.393 . S
C1163 C1162 1.391 . S
H1164 C1172 0.950 . S
H1165 C1177 0.950 . S
H1166 C1174 0.950 . S
H1167 C1176 0.950 . S
H1168 C1178 0.950 . S
H1169 C1180 0.950 . S
H1170 C1182 0.950 . S
H1171 C1183 0.950 1_554 S
C1172 H1164 0.950 . S
C1172 C1173 1.386 . S
C1172 C1174 1.391 . S
C1173 C1172 1.386 . S
C1173 C1177 1.393 . S
C1174 H1166 0.950 . S
C1174 C1172 1.391 . S
C1174 C1175 1.400 . S
C1175 C1174 1.400 . S
C1175 C1176 1.398 . S
C1175 C1181 1.491 . S
C1176 H1167 0.950 . S
C1176 C1175 1.398 . S
C1176 C1177 1.391 . S
C1177 H1165 0.950 . S
C1177 C1173 1.393 . S
C1177 C1176 1.391 . S
C1178 H1168 0.950 . S
C1178 C1179 1.386 . S
C1178 C1180 1.391 . S
C1179 C1178 1.386 . S
C1179 C1183 1.393 . S
C1180 H1169 0.950 . S
C1180 C1178 1.391 . S
C1180 C1181 1.400 . S
C1181 C1175 1.491 . S
C1181 C1180 1.400 . S
C1181 C1182 1.398 . S
C1182 H1170 0.950 . S
C1182 C1181 1.398 . S
C1182 C1183 1.391 . S
C1183 H1171 0.950 1_556 S
C1183 C1179 1.393 . S
C1183 C1182 1.391 . S
H1184 C1192 0.950 . S
H1185 C1197 0.950 . S
H1186 C1194 0.950 . S
H1187 C1196 0.950 . S
H1188 C1198 0.950 . S
H1189 C1200 0.950 . S
H1190 C1202 0.950 . S
H1191 C1203 0.950 . S
C1192 H1184 0.950 . S
C1192 C1193 1.386 . S
C1192 C1194 1.391 . S
C1193 C1192 1.386 . S
C1193 C1197 1.393 . S
C1194 H1186 0.950 . S
C1194 C1192 1.391 . S
C1194 C1195 1.400 . S
C1195 C1194 1.400 . S
C1195 C1196 1.398 . S
C1195 C1201 1.491 . S
C1196 H1187 0.950 . S
C1196 C1195 1.398 . S
C1196 C1197 1.391 . S
C1197 H1185 0.950 . S
C1197 C1193 1.393 . S
C1197 C1196 1.391 . S
C1198 H1188 0.950 . S
C1198 C1199 1.386 . S
C1198 C1200 1.391 1_554 S
C1199 C1198 1.386 . S
C1199 C1203 1.393 1_554 S
C1200 H1189 0.950 . S
C1200 C1198 1.391 1_556 S
C1200 C1201 1.400 . S
C1201 C1195 1.491 . S
C1201 C1200 1.400 . S
C1201 C1202 1.398 . S
C1202 H1190 0.950 . S
C1202 C1201 1.398 . S
C1202 C1203 1.391 . S
C1203 H1191 0.950 . S
C1203 C1199 1.393 1_556 S
C1203 C1202 1.391 . S
H1204 C1212 0.950 . S
H1205 C1217 0.950 . S
H1206 C1214 0.950 . S
H1207 C1216 0.950 . S
H1208 C1218 0.950 1_554 S
H1209 C1220 0.950 . S
H1210 C1222 0.950 . S
H1211 C1223 0.950 . S
C1212 H1204 0.950 . S
C1212 C1213 1.386 . S
C1212 C1214 1.391 . S
C1213 C1212 1.386 . S
C1213 C1217 1.393 . S
C1214 H1206 0.950 . S
C1214 C1212 1.391 . S
C1214 C1215 1.400 . S
C1215 C1214 1.400 . S
C1215 C1216 1.398 . S
C1215 C1221 1.491 . S
C1216 H1207 0.950 . S
C1216 C1215 1.398 . S
C1216 C1217 1.391 . S
C1217 H1205 0.950 . S
C1217 C1213 1.393 . S
C1217 C1216 1.391 . S
C1218 H1208 0.950 1_556 S
C1218 C1219 1.386 . S
C1218 C1220 1.391 . S
C1219 C1218 1.386 . S
C1219 C1223 1.393 . S
C1220 H1209 0.950 . S
C1220 C1218 1.391 . S
C1220 C1221 1.400 . S
C1221 C1215 1.491 . S
C1221 C1220 1.400 . S
C1221 C1222 1.398 . S
C1222 H1210 0.950 . S
C1222 C1221 1.398 . S
C1222 C1223 1.391 . S
C1223 H1211 0.950 . S
C1223 C1219 1.393 . S
C1223 C1222 1.391 . S
H1224 C1232 0.950 . S
H1225 C1237 0.950 . S
H1226 C1234 0.950 . S
H1227 C1236 0.950 . S
H1228 C1238 0.950 . S
H1229 C1240 0.950 . S
H1230 C1242 0.950 . S
H1231 C1243 0.950 . S
C1232 H1224 0.950 . S
C1232 C1233 1.386 . S
C1232 C1234 1.391 . S
C1233 C1232 1.386 . S
C1233 C1237 1.393 . S
C1234 H1226 0.950 . S
C1234 C1232 1.391 . S
C1234 C1235 1.400 . S
C1235 C1234 1.400 . S
C1235 C1236 1.398 . S
C1235 C1241 1.491 . S
C1236 H1227 0.950 . S
C1236 C1235 1.398 . S
C1236 C1237 1.391 . S
C1237 H1225 0.950 . S
C1237 C1233 1.393 . S
C1237 C1236 1.391 . S
C1238 H1228 0.950 . S
C1238 C1239 1.386 . S
C1238 C1240 1.391 . S
C1239 C1238 1.386 . S
C1239 C1243 1.393 . S
C1240 H1229 0.950 . S
C1240 C1238 1.391 . S
C1240 C1241 1.400 . S
C1241 C1235 1.491 . S
C1241 C1240 1.400 . S
C1241 C1242 1.398 . S
C1242 H1230 0.950 . S
C1242 C1241 1.398 . S
C1242 C1243 1.391 . S
C1243 H1231 0.950 . S
C1243 C1239 1.393 . S
C1243 C1242 1.391 . S
H1244 C1252 0.950 . S
H1245 C1257 0.950 . S
H1246 C1254 0.950 . S
H1247 C1256 0.950 . S
H1248 C1258 0.950 . S
H1249 C1260 0.950 . S
H1250 C1262 0.950 . S
H1251 C1263 0.950 . S
C1252 H1244 0.950 . S
C1252 C1253 1.386 . S
C1252 C1254 1.391 . S
C1253 C1252 1.386 . S
C1253 C1257 1.393 . S
C1254 H1246 0.950 . S
C1254 C1252 1.391 . S
C1254 C1255 1.400 . S
C1255 C1254 1.400 . S
C1255 C1256 1.398 . S
C1255 C1261 1.491 . S
C1256 H1247 0.950 . S
C1256 C1255 1.398 . S
C1256 C1257 1.391 . S
C1257 H1245 0.950 . S
C1257 C1253 1.393 . S
C1257 C1256 1.391 . S
C1258 H1248 0.950 . S
C1258 C1259 1.386 . S
C1258 C1260 1.391 . S
C1259 C1258 1.386 . S
C1259 C1263 1.393 . S
C1260 H1249 0.950 . S
C1260 C1258 1.391 . S
C1260 C1261 1.400 . S
C1261 C1255 1.491 . S
C1261 C1260 1.400 . S
C1261 C1262 1.398 . S
C1262 H1250 0.950 . S
C1262 C1261 1.398 . S
C1262 C1263 1.391 . S
C1263 H1251 0.950 . S
C1263 C1259 1.393 . S
C1263 C1262 1.391 . S
H1264 C1272 0.950 . S
H1265 C1277 0.950 . S
H1266 C1274 0.950 . S
H1267 C1276 0.950 . S
H1268 C1278 0.950 . S
H1269 C1280 0.950 . S
H1270 C1282 0.950 . S
H1271 C1283 0.950 . S
C1272 H1264 0.950 . S
C1272 C1273 1.386 . S
C1272 C1274 1.391 . S
C1273 C1272 1.386 . S
C1273 C1277 1.393 . S
C1274 H1266 0.950 . S
C1274 C1272 1.391 . S
C1274 C1275 1.400 . S
C1275 C1274 1.400 . S
C1275 C1276 1.398 . S
C1275 C1281 1.491 . S
C1276 H1267 0.950 . S
C1276 C1275 1.398 . S
C1276 C1277 1.391 . S
C1277 H1265 0.950 . S
C1277 C1273 1.393 . S
C1277 C1276 1.391 . S
C1278 H1268 0.950 . S
C1278 C1279 1.386 . S
C1278 C1280 1.391 . S
C1279 C1278 1.386 . S
C1279 C1283 1.393 . S
C1280 H1269 0.950 . S
C1280 C1278 1.391 . S
C1280 C1281 1.400 . S
C1281 C1275 1.491 . S
C1281 C1280 1.400 . S
C1281 C1282 1.398 . S
C1282 H1270 0.950 . S
C1282 C1281 1.398 . S
C1282 C1283 1.391 . S
C1283 H1271 0.950 . S
C1283 C1279 1.393 . S
C1283 C1282 1.391 . S
H1284 C1292 0.950 . S
H1285 C1297 0.950 . S
H1286 C1294 0.950 . S
H1287 C1296 0.950 . S
H1288 C1298 0.950 . S
H1289 C1300 0.950 . S
H1290 C1302 0.950 . S
H1291 C1303 0.950 . S
C1292 H1284 0.950 . S
C1292 C1293 1.386 1_565 S
C1292 C1294 1.391 . S
C1293 C1292 1.386 1_545 S
C1293 C1297 1.393 . S
C1294 H1286 0.950 . S
C1294 C1292 1.391 . S
C1294 C1295 1.400 1_565 S
C1295 C1294 1.400 1_545 S
C1295 C1296 1.398 . S
C1295 C1301 1.491 1_545 S
C1296 H1287 0.950 . S
C1296 C1295 1.398 . S
C1296 C1297 1.391 . S
C1297 H1285 0.950 . S
C1297 C1293 1.393 . S
C1297 C1296 1.391 . S
C1298 H1288 0.950 . S
C1298 C1299 1.386 1_545 S
C1298 C1300 1.391 . S
C1299 C1298 1.386 1_565 S
C1299 C1303 1.393 . S
C1300 H1289 0.950 . S
C1300 C1298 1.391 . S
C1300 C1301 1.400 1_545 S
C1301 C1295 1.491 1_565 S
C1301 C1300 1.400 1_565 S
C1301 C1302 1.398 . S
C1302 H1290 0.950 . S
C1302 C1301 1.398 . S
C1302 C1303 1.391 . S
C1303 H1291 0.950 . S
C1303 C1299 1.393 . S
C1303 C1302 1.391 . S
H1304 C1312 0.950 . S
H1305 C1317 0.950 . S
H1306 C1314 0.950 . S
H1307 C1316 0.950 . S
H1308 C1318 0.950 . S
H1309 C1320 0.950 . S
H1310 C1322 0.950 . S
H1311 C1323 0.950 . S
C1312 H1304 0.950 . S
C1312 C1313 1.386 . S
C1312 C1314 1.391 . S
C1313 C1312 1.386 . S
C1313 C1317 1.393 . S
C1314 H1306 0.950 . S
C1314 C1312 1.391 . S
C1314 C1315 1.400 . S
C1315 C1314 1.400 . S
C1315 C1316 1.398 . S
C1315 C1321 1.491 . S
C1316 H1307 0.950 . S
C1316 C1315 1.398 . S
C1316 C1317 1.391 . S
C1317 H1305 0.950 . S
C1317 C1313 1.393 . S
C1317 C1316 1.391 . S
C1318 H1308 0.950 . S
C1318 C1319 1.386 . S
C1318 C1320 1.391 . S
C1319 C1318 1.386 . S
C1319 C1323 1.393 . S
C1320 H1309 0.950 . S
C1320 C1318 1.391 . S
C1320 C1321 1.400 . S
C1321 C1315 1.491 . S
C1321 C1320 1.400 . S
C1321 C1322 1.398 . S
C1322 H1310 0.950 . S
C1322 C1321 1.398 . S
C1322 C1323 1.391 . S
C1323 H1311 0.950 . S
C1323 C1319 1.393 . S
C1323 C1322 1.391 . S
H1324 C1332 0.950 . S
H1325 C1337 0.950 . S
H1326 C1334 0.950 . S
H1327 C1336 0.950 . S
H1328 C1338 0.950 . S
H1329 C1340 0.950 . S
H1330 C1342 0.950 . S
H1331 C1343 0.950 . S
C1332 H1324 0.950 . S
C1332 C1333 1.386 . S
C1332 C1334 1.391 . S
C1333 C1332 1.386 . S
C1333 C1337 1.393 . S
C1334 H1326 0.950 . S
C1334 C1332 1.391 . S
C1334 C1335 1.400 . S
C1335 C1334 1.400 . S
C1335 C1336 1.398 . S
C1335 C1341 1.491 . S
C1336 H1327 0.950 . S
C1336 C1335 1.398 . S
C1336 C1337 1.391 . S
C1337 H1325 0.950 . S
C1337 C1333 1.393 . S
C1337 C1336 1.391 . S
C1338 H1328 0.950 . S
C1338 C1339 1.386 . S
C1338 C1340 1.391 . S
C1339 C1338 1.386 . S
C1339 C1343 1.393 . S
C1340 H1329 0.950 . S
C1340 C1338 1.391 . S
C1340 C1341 1.400 . S
C1341 C1335 1.491 . S
C1341 C1340 1.400 . S
C1341 C1342 1.398 . S
C1342 H1330 0.950 . S
C1342 C1341 1.398 . S
C1342 C1343 1.391 . S
C1343 H1331 0.950 . S
C1343 C1339 1.393 . S
C1343 C1342 1.391 . S
H1344 C1352 0.950 . S
H1345 C1357 0.950 . S
H1346 C1354 0.950 . S
H1347 C1356 0.950 . S
H1348 C1358 0.950 . S
H1349 C1360 0.950 . S
H1350 C1362 0.950 . S
H1351 C1363 0.950 . S
C1352 H1344 0.950 . S
C1352 C1353 1.386 . S
C1352 C1354 1.391 . S
C1353 C1352 1.386 . S
C1353 C1357 1.393 . S
C1354 H1346 0.950 . S
C1354 C1352 1.391 . S
C1354 C1355 1.400 . S
C1355 C1354 1.400 . S
C1355 C1356 1.398 . S
C1355 C1361 1.491 . S
C1356 H1347 0.950 . S
C1356 C1355 1.398 . S
C1356 C1357 1.391 . S
C1357 H1345 0.950 . S
C1357 C1353 1.393 . S
C1357 C1356 1.391 . S
C1358 H1348 0.950 . S
C1358 C1359 1.386 . S
C1358 C1360 1.391 . S
C1359 C1358 1.386 . S
C1359 C1363 1.393 . S
C1360 H1349 0.950 . S
C1360 C1358 1.391 . S
C1360 C1361 1.400 . S
C1361 C1355 1.491 . S
C1361 C1360 1.400 . S
C1361 C1362 1.398 . S
C1362 H1350 0.950 . S
C1362 C1361 1.398 . S
C1362 C1363 1.391 . S
C1363 H1351 0.950 . S
C1363 C1359 1.393 . S
C1363 C1362 1.391 . S
H1364 C1372 0.950 . S
H1365 C1377 0.950 . S
H1366 C1374 0.950 . S
H1367 C1376 0.950 . S
H1368 C1378 0.950 . S
H1369 C1380 0.950 . S
H1370 C1382 0.950 . S
H1371 C1383 0.950 . S
C1372 H1364 0.950 . S
C1372 C1373 1.386 . S
C1372 C1374 1.391 . S
C1373 C1372 1.386 . S
C1373 C1377 1.393 . S
C1374 H1366 0.950 . S
C1374 C1372 1.391 . S
C1374 C1375 1.400 . S
C1375 C1374 1.400 . S
C1375 C1376 1.398 . S
C1375 C1381 1.491 . S
C1376 H1367 0.950 . S
C1376 C1375 1.398 . S
C1376 C1377 1.391 . S
C1377 H1365 0.950 . S
C1377 C1373 1.393 . S
C1377 C1376 1.391 . S
C1378 H1368 0.950 . S
C1378 C1379 1.386 . S
C1378 C1380 1.391 . S
C1379 C1378 1.386 . S
C1379 C1383 1.393 . S
C1380 H1369 0.950 . S
C1380 C1378 1.391 . S
C1380 C1381 1.400 . S
C1381 C1375 1.491 . S
C1381 C1380 1.400 . S
C1381 C1382 1.398 . S
C1382 H1370 0.950 . S
C1382 C1381 1.398 . S
C1382 C1383 1.391 . S
C1383 H1371 0.950 . S
C1383 C1379 1.393 . S
C1383 C1382 1.391 . S
H1384 C1392 0.950 . S
H1385 C1397 0.950 . S
H1386 C1394 0.950 . S
H1387 C1396 0.950 . S
H1388 C1398 0.950 . S
H1389 C1400 0.950 . S
H1390 C1402 0.950 . S
H1391 C1403 0.950 . S
C1392 H1384 0.950 . S
C1392 C1393 1.386 . S
C1392 C1394 1.391 . S
C1393 C1392 1.386 . S
C1393 C1397 1.393 . S
C1394 H1386 0.950 . S
C1394 C1392 1.391 . S
C1394 C1395 1.400 . S
C1395 C1394 1.400 . S
C1395 C1396 1.398 . S
C1395 C1401 1.491 . S
C1396 H1387 0.950 . S
C1396 C1395 1.398 . S
C1396 C1397 1.391 . S
C1397 H1385 0.950 . S
C1397 C1393 1.393 . S
C1397 C1396 1.391 . S
C1398 H1388 0.950 . S
C1398 C1399 1.386 . S
C1398 C1400 1.391 . S
C1399 C1398 1.386 . S
C1399 C1403 1.393 . S
C1400 H1389 0.950 . S
C1400 C1398 1.391 . S
C1400 C1401 1.400 . S
C1401 C1395 1.491 . S
C1401 C1400 1.400 . S
C1401 C1402 1.398 . S
C1402 H1390 0.950 . S
C1402 C1401 1.398 . S
C1402 C1403 1.391 . S
C1403 H1391 0.950 . S
C1403 C1399 1.393 . S
C1403 C1402 1.391 . S
H1404 C1412 0.950 . S
H1405 C1417 0.950 . S
H1406 C1414 0.950 . S
H1407 C1416 0.950 . S
H1408 C1418 0.950 . S
H1409 C1420 0.950 . S
H1410 C1422 0.950 . S
H1411 C1423 0.950 . S
C1412 H1404 0.950 . S
C1412 C1413 1.386 1_565 S
C1412 C1414 1.391 . S
C1413 C1412 1.386 1_545 S
C1413 C1417 1.393 . S
C1414 H1406 0.950 . S
C1414 C1412 1.391 . S
C1414 C1415 1.400 1_565 S
C1415 C1414 1.400 1_545 S
C1415 C1416 1.398 . S
C1415 C1421 1.491 1_545 S
C1416 H1407 0.950 . S
C1416 C1415 1.398 . S
C1416 C1417 1.391 . S
C1417 H1405 0.950 . S
C1417 C1413 1.393 . S
C1417 C1416 1.391 . S
C1418 H1408 0.950 . S
C1418 C1419 1.386 1_545 S
C1418 C1420 1.391 . S
C1419 C1418 1.386 1_565 S
C1419 C1423 1.393 . S
C1420 H1409 0.950 . S
C1420 C1418 1.391 . S
C1420 C1421 1.400 1_545 S
C1421 C1415 1.491 1_565 S
C1421 C1420 1.400 1_565 S
C1421 C1422 1.398 . S
C1422 H1410 0.950 . S
C1422 C1421 1.398 . S
C1422 C1423 1.391 . S
C1423 H1411 0.950 . S
C1423 C1419 1.393 . S
C1423 C1422 1.391 . S
H1424 C1432 0.950 . S
H1425 C1437 0.950 . S
H1426 C1434 0.950 . S
H1427 C1436 0.950 . S
H1428 C1438 0.950 . S
H1429 C1440 0.950 . S
H1430 C1442 0.950 . S
H1431 C1443 0.950 . S
C1432 H1424 0.950 . S
C1432 C1433 1.386 . S
C1432 C1434 1.391 . S
C1433 C1432 1.386 . S
C1433 C1437 1.393 . S
C1434 H1426 0.950 . S
C1434 C1432 1.391 . S
C1434 C1435 1.400 . S
C1435 C1434 1.400 . S
C1435 C1436 1.398 . S
C1435 C1441 1.491 . S
C1436 H1427 0.950 . S
C1436 C1435 1.398 . S
C1436 C1437 1.391 . S
C1437 H1425 0.950 . S
C1437 C1433 1.393 . S
C1437 C1436 1.391 . S
C1438 H1428 0.950 . S
C1438 C1439 1.386 . S
C1438 C1440 1.391 . S
C1439 C1438 1.386 . S
C1439 C1443 1.393 . S
C1440 H1429 0.950 . S
C1440 C1438 1.391 . S
C1440 C1441 1.400 . S
C1441 C1435 1.491 . S
C1441 C1440 1.400 . S
C1441 C1442 1.398 . S
C1442 H1430 0.950 . S
C1442 C1441 1.398 . S
C1442 C1443 1.391 . S
C1443 H1431 0.950 . S
C1443 C1439 1.393 . S
C1443 C1442 1.391 . S
H1444 C1452 0.950 . S
H1445 C1457 0.950 . S
H1446 C1454 0.950 . S
H1447 C1456 0.950 . S
H1448 C1458 0.950 . S
H1449 C1460 0.950 . S
H1450 C1462 0.950 . S
H1451 C1463 0.950 . S
C1452 H1444 0.950 . S
C1452 C1453 1.386 . S
C1452 C1454 1.391 . S
C1453 C1452 1.386 . S
C1453 C1457 1.393 . S
C1454 H1446 0.950 . S
C1454 C1452 1.391 . S
C1454 C1455 1.400 . S
C1455 C1454 1.400 . S
C1455 C1456 1.398 . S
C1455 C1461 1.491 . S
C1456 H1447 0.950 . S
C1456 C1455 1.398 . S
C1456 C1457 1.391 . S
C1457 H1445 0.950 . S
C1457 C1453 1.393 . S
C1457 C1456 1.391 . S
C1458 H1448 0.950 . S
C1458 C1459 1.386 . S
C1458 C1460 1.391 . S
C1459 C1458 1.386 . S
C1459 C1463 1.393 . S
C1460 H1449 0.950 . S
C1460 C1458 1.391 . S
C1460 C1461 1.400 . S
C1461 C1455 1.491 . S
C1461 C1460 1.400 . S
C1461 C1462 1.398 . S
C1462 H1450 0.950 . S
C1462 C1461 1.398 . S
C1462 C1463 1.391 . S
C1463 H1451 0.950 . S
C1463 C1459 1.393 . S
C1463 C1462 1.391 . S
H1464 C1472 0.950 . S
H1465 C1477 0.950 . S
H1466 C1474 0.950 . S
H1467 C1476 0.950 . S
H1468 C1478 0.950 . S
H1469 C1480 0.950 . S
H1470 C1482 0.950 . S
H1471 C1483 0.950 . S
C1472 H1464 0.950 . S
C1472 C1473 1.386 . S
C1472 C1474 1.391 . S
C1473 C1472 1.386 . S
C1473 C1477 1.393 . S
C1474 H1466 0.950 . S
C1474 C1472 1.391 . S
C1474 C1475 1.400 . S
C1475 C1474 1.400 . S
C1475 C1476 1.398 . S
C1475 C1481 1.491 . S
C1476 H1467 0.950 . S
C1476 C1475 1.398 . S
C1476 C1477 1.391 . S
C1477 H1465 0.950 . S
C1477 C1473 1.393 . S
C1477 C1476 1.391 . S
C1478 H1468 0.950 . S
C1478 C1479 1.386 . S
C1478 C1480 1.391 . S
C1479 C1478 1.386 . S
C1479 C1483 1.393 . S
C1480 H1469 0.950 . S
C1480 C1478 1.391 . S
C1480 C1481 1.400 . S
C1481 C1475 1.491 . S
C1481 C1480 1.400 . S
C1481 C1482 1.398 . S
C1482 H1470 0.950 . S
C1482 C1481 1.398 . S
C1482 C1483 1.391 . S
C1483 H1471 0.950 . S
C1483 C1479 1.393 . S
C1483 C1482 1.391 . S
H1484 C1492 0.950 . S
H1485 C1497 0.950 . S
H1486 C1494 0.950 . S
H1487 C1496 0.950 . S
H1488 C1498 0.950 . S
H1489 C1500 0.950 . S
H1490 C1502 0.950 . S
H1491 C1503 0.950 . S
C1492 H1484 0.950 . S
C1492 C1493 1.386 . S
C1492 C1494 1.391 . S
C1493 C1492 1.386 . S
C1493 C1497 1.393 . S
C1494 H1486 0.950 . S
C1494 C1492 1.391 . S
C1494 C1495 1.400 . S
C1495 C1494 1.400 . S
C1495 C1496 1.398 . S
C1495 C1501 1.491 . S
C1496 H1487 0.950 . S
C1496 C1495 1.398 . S
C1496 C1497 1.391 . S
C1497 H1485 0.950 . S
C1497 C1493 1.393 . S
C1497 C1496 1.391 . S
C1498 H1488 0.950 . S
C1498 C1499 1.386 . S
C1498 C1500 1.391 . S
C1499 C1498 1.386 . S
C1499 C1503 1.393 . S
C1500 H1489 0.950 . S
C1500 C1498 1.391 . S
C1500 C1501 1.400 . S
C1501 C1495 1.491 . S
C1501 C1500 1.400 . S
C1501 C1502 1.398 . S
C1502 H1490 0.950 . S
C1502 C1501 1.398 . S
C1502 C1503 1.391 . S
C1503 H1491 0.950 . S
C1503 C1499 1.393 . S
C1503 C1502 1.391 . S
H1504 C1512 0.950 . S
H1505 C1517 0.950 . S
H1506 C1514 0.950 . S
H1507 C1516 0.950 . S
H1508 C1518 0.950 . S
H1509 C1520 0.950 . S
H1510 C1522 0.950 . S
H1511 C1523 0.950 . S
C1512 H1504 0.950 . S
C1512 C1513 1.386 1_545 S
C1512 C1514 1.391 . S
C1513 C1512 1.386 1_565 S
C1513 C1517 1.393 . S
C1514 H1506 0.950 . S
C1514 C1512 1.391 . S
C1514 C1515 1.399 1_545 S
C1515 C1514 1.399 1_565 S
C1515 C1516 1.400 . S
C1515 C1521 1.489 1_565 S
C1516 H1507 0.950 . S
C1516 C1515 1.400 . S
C1516 C1517 1.391 . S
C1517 H1505 0.950 . S
C1517 C1513 1.393 . S
C1517 C1516 1.391 . S
C1518 H1508 0.950 . S
C1518 C1519 1.386 1_565 S
C1518 C1520 1.391 . S
C1519 C1518 1.386 1_545 S
C1519 C1523 1.393 . S
C1520 H1509 0.950 . S
C1520 C1518 1.391 . S
C1520 C1521 1.400 1_565 S
C1521 C1515 1.489 1_545 S
C1521 C1520 1.400 1_545 S
C1521 C1522 1.398 . S
C1522 H1510 0.950 . S
C1522 C1521 1.398 . S
C1522 C1523 1.391 . S
C1523 H1511 0.950 . S
C1523 C1519 1.393 . S
C1523 C1522 1.391 . S
H1524 C1532 0.950 . S
H1525 C1537 0.950 1_556 S
H1526 C1534 0.950 . S
H1527 C1536 0.950 . S
H1528 C1538 0.950 . S
H1529 C1540 0.950 . S
H1530 C1542 0.950 . S
H1531 C1543 0.950 . S
C1532 H1524 0.950 . S
C1532 C1533 1.386 . S
C1532 C1534 1.391 . S
C1533 C1532 1.386 . S
C1533 C1537 1.393 . S
C1534 H1526 0.950 . S
C1534 C1532 1.391 . S
C1534 C1535 1.400 . S
C1535 C1534 1.400 . S
C1535 C1536 1.398 . S
C1535 C1541 1.491 . S
C1536 H1527 0.950 . S
C1536 C1535 1.398 . S
C1536 C1537 1.391 . S
C1537 H1525 0.950 1_554 S
C1537 C1533 1.393 . S
C1537 C1536 1.391 . S
C1538 H1528 0.950 . S
C1538 C1539 1.386 . S
C1538 C1540 1.391 . S
C1539 C1538 1.386 . S
C1539 C1543 1.393 . S
C1540 H1529 0.950 . S
C1540 C1538 1.391 . S
C1540 C1541 1.400 . S
C1541 C1535 1.491 . S
C1541 C1540 1.400 . S
C1541 C1542 1.398 . S
C1542 H1530 0.950 . S
C1542 C1541 1.398 . S
C1542 C1543 1.391 . S
C1543 H1531 0.950 . S
C1543 C1539 1.393 . S
C1543 C1542 1.391 . S
H1544 C1552 0.950 . S
H1545 C1557 0.950 . S
H1546 C1554 0.950 . S
H1547 C1556 0.950 . S
H1548 C1558 0.950 . S
H1549 C1560 0.950 . S
H1550 C1562 0.950 . S
H1551 C1563 0.950 . S
C1552 H1544 0.950 . S
C1552 C1553 1.386 1_554 S
C1552 C1554 1.391 . S
C1553 C1552 1.386 1_556 S
C1553 C1557 1.393 . S
C1554 H1546 0.950 . S
C1554 C1552 1.391 . S
C1554 C1555 1.400 . S
C1555 C1554 1.400 . S
C1555 C1556 1.398 . S
C1555 C1561 1.491 . S
C1556 H1547 0.950 . S
C1556 C1555 1.398 . S
C1556 C1557 1.391 1_554 S
C1557 H1545 0.950 . S
C1557 C1553 1.393 . S
C1557 C1556 1.391 1_556 S
C1558 H1548 0.950 . S
C1558 C1559 1.386 . S
C1558 C1560 1.391 . S
C1559 C1558 1.386 . S
C1559 C1563 1.393 . S
C1560 H1549 0.950 . S
C1560 C1558 1.391 . S
C1560 C1561 1.400 . S
C1561 C1555 1.491 . S
C1561 C1560 1.400 . S
C1561 C1562 1.398 . S
C1562 H1550 0.950 . S
C1562 C1561 1.398 . S
C1562 C1563 1.391 . S
C1563 H1551 0.950 . S
C1563 C1559 1.393 . S
C1563 C1562 1.391 . S
H1564 C1572 0.950 . S
H1565 C1577 0.950 . S
H1566 C1574 0.950 . S
H1567 C1576 0.950 . S
H1568 C1578 0.950 . S
H1569 C1580 0.950 . S
H1570 C1582 0.950 . S
H1571 C1583 0.950 . S
C1572 H1564 0.950 . S
C1572 C1573 1.386 . S
C1572 C1574 1.391 . S
C1573 C1572 1.386 . S
C1573 C1577 1.393 1_554 S
C1574 H1566 0.950 . S
C1574 C1572 1.391 . S
C1574 C1575 1.400 . S
C1575 C1574 1.400 . S
C1575 C1576 1.398 . S
C1575 C1581 1.491 . S
C1576 H1567 0.950 . S
C1576 C1575 1.398 . S
C1576 C1577 1.391 1_554 S
C1577 H1565 0.950 . S
C1577 C1573 1.393 1_556 S
C1577 C1576 1.391 1_556 S
C1578 H1568 0.950 . S
C1578 C1579 1.386 . S
C1578 C1580 1.391 . S
C1579 C1578 1.386 . S
C1579 C1583 1.393 . S
C1580 H1569 0.950 . S
C1580 C1578 1.391 . S
C1580 C1581 1.400 . S
C1581 C1575 1.491 . S
C1581 C1580 1.400 . S
C1581 C1582 1.398 . S
C1582 H1570 0.950 . S
C1582 C1581 1.398 . S
C1582 C1583 1.391 . S
C1583 H1571 0.950 . S
C1583 C1579 1.393 . S
C1583 C1582 1.391 . S
H1584 C1592 0.950 . S
H1585 C1597 0.950 . S
H1586 C1594 0.950 . S
H1587 C1596 0.950 . S
H1588 C1598 0.950 . S
H1589 C1600 0.950 . S
H1590 C1602 0.950 . S
H1591 C1603 0.950 1_554 S
C1592 H1584 0.950 . S
C1592 C1593 1.386 . S
C1592 C1594 1.391 . S
C1593 C1592 1.386 . S
C1593 C1597 1.393 . S
C1594 H1586 0.950 . S
C1594 C1592 1.391 . S
C1594 C1595 1.400 . S
C1595 C1594 1.400 . S
C1595 C1596 1.398 . S
C1595 C1601 1.491 . S
C1596 H1587 0.950 . S
C1596 C1595 1.398 . S
C1596 C1597 1.391 . S
C1597 H1585 0.950 . S
C1597 C1593 1.393 . S
C1597 C1596 1.391 . S
C1598 H1588 0.950 . S
C1598 C1599 1.386 . S
C1598 C1600 1.391 . S
C1599 C1598 1.386 . S
C1599 C1603 1.393 . S
C1600 H1589 0.950 . S
C1600 C1598 1.391 . S
C1600 C1601 1.400 . S
C1601 C1595 1.491 . S
C1601 C1600 1.400 . S
C1601 C1602 1.398 . S
C1602 H1590 0.950 . S
C1602 C1601 1.398 . S
C1602 C1603 1.391 . S
C1603 H1591 0.950 1_556 S
C1603 C1599 1.393 . S
C1603 C1602 1.391 . S
H1604 C1612 0.950 . S
H1605 C1617 0.950 . S
H1606 C1614 0.950 . S
H1607 C1616 0.950 . S
H1608 C1618 0.950 . S
H1609 C1620 0.950 . S
H1610 C1622 0.950 . S
H1611 C1623 0.950 . S
C1612 H1604 0.950 . S
C1612 C1613 1.386 . S
C1612 C1614 1.391 1_554 S
C1613 C1612 1.386 . S
C1613 C1617 1.393 1_554 S
C1614 H1606 0.950 . S
C1614 C1612 1.391 1_556 S
C1614 C1615 1.400 . S
C1615 C1614 1.400 . S
C1615 C1616 1.398 . S
C1615 C1621 1.491 . S
C1616 H1607 0.950 . S
C1616 C1615 1.398 . S
C1616 C1617 1.391 . S
C1617 H1605 0.950 . S
C1617 C1613 1.393 1_556 S
C1617 C1616 1.391 . S
C1618 H1608 0.950 . S
C1618 C1619 1.386 . S
C1618 C1620 1.391 . S
C1619 C1618 1.386 . S
C1619 C1623 1.393 . S
C1620 H1609 0.950 . S
C1620 C1618 1.391 . S
C1620 C1621 1.400 . S
C1621 C1615 1.491 . S
C1621 C1620 1.400 . S
C1621 C1622 1.398 . S
C1622 H1610 0.950 . S
C1622 C1621 1.398 . S
C1622 C1623 1.391 . S
C1623 H1611 0.950 . S
C1623 C1619 1.393 . S
C1623 C1622 1.391 . S
H1624 C1632 0.950 . S
H1625 C1637 0.950 . S
H1626 C1634 0.950 . S
H1627 C1636 0.950 . S
H1628 C1638 0.950 . S
H1629 C1640 0.950 1_554 S
H1630 C1642 0.950 . S
H1631 C1643 0.950 . S
C1632 H1624 0.950 . S
C1632 C1633 1.386 . S
C1632 C1634 1.391 . S
C1633 C1632 1.386 . S
C1633 C1637 1.393 . S
C1634 H1626 0.950 . S
C1634 C1632 1.391 . S
C1634 C1635 1.400 . S
C1635 C1634 1.400 . S
C1635 C1636 1.398 . S
C1635 C1641 1.491 . S
C1636 H1627 0.950 . S
C1636 C1635 1.398 . S
C1636 C1637 1.391 . S
C1637 H1625 0.950 . S
C1637 C1633 1.393 . S
C1637 C1636 1.391 . S
C1638 H1628 0.950 . S
C1638 C1639 1.386 1_554 S
C1638 C1640 1.391 1_554 S
C1639 C1638 1.386 1_556 S
C1639 C1643 1.393 . S
C1640 H1629 0.950 1_556 S
C1640 C1638 1.391 1_556 S
C1640 C1641 1.400 . S
C1641 C1635 1.491 . S
C1641 C1640 1.400 . S
C1641 C1642 1.398 . S
C1642 H1630 0.950 . S
C1642 C1641 1.398 . S
C1642 C1643 1.391 . S
C1643 H1631 0.950 . S
C1643 C1639 1.393 . S
C1643 C1642 1.391 . S
H1644 C1652 0.950 . S
H1645 C1657 0.950 . S
H1646 C1654 0.950 . S
H1647 C1656 0.950 . S
H1648 C1658 0.950 . S
H1649 C1660 0.950 . S
H1650 C1662 0.950 . S
H1651 C1663 0.950 . S
C1652 H1644 0.950 . S
C1652 C1653 1.386 . S
C1652 C1654 1.391 . S
C1653 C1652 1.386 . S
C1653 C1657 1.393 . S
C1654 H1646 0.950 . S
C1654 C1652 1.391 . S
C1654 C1655 1.400 . S
C1655 C1654 1.400 . S
C1655 C1656 1.398 . S
C1655 C1661 1.491 . S
C1656 H1647 0.950 . S
C1656 C1655 1.398 . S
C1656 C1657 1.391 . S
C1657 H1645 0.950 . S
C1657 C1653 1.393 . S
C1657 C1656 1.391 . S
C1658 H1648 0.950 . S
C1658 C1659 1.386 . S
C1658 C1660 1.391 . S
C1659 C1658 1.386 . S
C1659 C1663 1.393 . S
C1660 H1649 0.950 . S
C1660 C1658 1.391 . S
C1660 C1661 1.400 . S
C1661 C1655 1.491 . S
C1661 C1660 1.400 . S
C1661 C1662 1.398 . S
C1662 H1650 0.950 . S
C1662 C1661 1.398 . S
C1662 C1663 1.391 . S
C1663 H1651 0.950 . S
C1663 C1659 1.393 . S
C1663 C1662 1.391 . S
H1664 C1672 0.950 . S
H1665 C1677 0.950 . S
H1666 C1674 0.950 . S
H1667 C1676 0.950 . S
H1668 C1678 0.950 . S
H1669 C1680 0.950 . S
H1670 C1682 0.950 . S
H1671 C1683 0.950 . S
C1672 H1664 0.950 . S
C1672 C1673 1.386 . S
C1672 C1674 1.391 . S
C1673 C1672 1.386 . S
C1673 C1677 1.393 . S
C1674 H1666 0.950 . S
C1674 C1672 1.391 . S
C1674 C1675 1.400 . S
C1675 C1674 1.400 . S
C1675 C1676 1.398 . S
C1675 C1681 1.491 . S
C1676 H1667 0.950 . S
C1676 C1675 1.398 . S
C1676 C1677 1.391 . S
C1677 H1665 0.950 . S
C1677 C1673 1.393 . S
C1677 C1676 1.391 . S
C1678 H1668 0.950 . S
C1678 C1679 1.386 . S
C1678 C1680 1.391 . S
C1679 C1678 1.386 . S
C1679 C1683 1.393 . S
C1680 H1669 0.950 . S
C1680 C1678 1.391 . S
C1680 C1681 1.400 . S
C1681 C1675 1.491 . S
C1681 C1680 1.400 . S
C1681 C1682 1.398 . S
C1682 H1670 0.950 . S
C1682 C1681 1.398 . S
C1682 C1683 1.391 . S
C1683 H1671 0.950 . S
C1683 C1679 1.393 . S
C1683 C1682 1.391 . S
H1684 C1692 0.950 . S
H1685 C1697 0.950 . S
H1686 C1694 0.950 . S
H1687 C1696 0.950 . S
H1688 C1698 0.950 . S
H1689 C1700 0.950 . S
H1690 C1702 0.950 . S
H1691 C1703 0.950 . S
C1692 H1684 0.950 . S
C1692 C1693 1.386 . S
C1692 C1694 1.391 . S
C1693 C1692 1.386 . S
C1693 C1697 1.393 . S
C1694 H1686 0.950 . S
C1694 C1692 1.391 . S
C1694 C1695 1.400 . S
C1695 C1694 1.400 . S
C1695 C1696 1.398 . S
C1695 C1701 1.491 . S
C1696 H1687 0.950 . S
C1696 C1695 1.398 . S
C1696 C1697 1.391 . S
C1697 H1685 0.950 . S
C1697 C1693 1.393 . S
C1697 C1696 1.391 . S
C1698 H1688 0.950 . S
C1698 C1699 1.386 . S
C1698 C1700 1.391 . S
C1699 C1698 1.386 . S
C1699 C1703 1.393 . S
C1700 H1689 0.950 . S
C1700 C1698 1.391 . S
C1700 C1701 1.400 . S
C1701 C1695 1.491 . S
C1701 C1700 1.400 . S
C1701 C1702 1.398 . S
C1702 H1690 0.950 . S
C1702 C1701 1.398 . S
C1702 C1703 1.391 . S
C1703 H1691 0.950 . S
C1703 C1699 1.393 . S
C1703 C1702 1.391 . S
H1704 C1712 0.950 . S
H1705 C1717 0.950 . S
H1706 C1714 0.950 1_556 S
H1707 C1716 0.950 . S
H1708 C1718 0.950 . S
H1709 C1720 0.950 . S
H1710 C1722 0.950 . S
H1711 C1723 0.950 . S
C1712 H1704 0.950 . S
C1712 C1713 1.386 1_556 S
C1712 C1714 1.391 1_556 S
C1713 C1712 1.386 1_554 S
C1713 C1717 1.393 . S
C1714 H1706 0.950 1_554 S
C1714 C1712 1.391 1_554 S
C1714 C1715 1.400 . S
C1715 C1714 1.400 . S
C1715 C1716 1.398 . S
C1715 C1721 1.491 . S
C1716 H1707 0.950 . S
C1716 C1715 1.398 . S
C1716 C1717 1.391 . S
C1717 H1705 0.950 . S
C1717 C1713 1.393 . S
C1717 C1716 1.391 . S
C1718 H1708 0.950 . S
C1718 C1719 1.386 . S
C1718 C1720 1.391 . S
C1719 C1718 1.386 . S
C1719 C1723 1.393 . S
C1720 H1709 0.950 . S
C1720 C1718 1.391 . S
C1720 C1721 1.400 . S
C1721 C1715 1.491 . S
C1721 C1720 1.400 . S
C1721 C1722 1.398 . S
C1722 H1710 0.950 . S
C1722 C1721 1.398 . S
C1722 C1723 1.391 . S
C1723 H1711 0.950 . S
C1723 C1719 1.393 . S
C1723 C1722 1.391 . S
H1724 C1732 0.950 . S
H1725 C1737 0.950 . S
H1726 C1734 0.950 . S
H1727 C1736 0.950 . S
H1728 C1738 0.950 . S
H1729 C1740 0.950 . S
H1730 C1742 0.950 . S
H1731 C1743 0.950 . S
C1732 H1724 0.950 . S
C1732 C1733 1.386 . S
C1732 C1734 1.391 . S
C1733 C1732 1.386 . S
C1733 C1737 1.393 . S
C1734 H1726 0.950 . S
C1734 C1732 1.391 . S
C1734 C1735 1.400 . S
C1735 C1734 1.400 . S
C1735 C1736 1.398 . S
C1735 C1741 1.491 . S
C1736 H1727 0.950 . S
C1736 C1735 1.398 . S
C1736 C1737 1.391 . S
C1737 H1725 0.950 . S
C1737 C1733 1.393 . S
C1737 C1736 1.391 . S
C1738 H1728 0.950 . S
C1738 C1739 1.386 1_554 S
C1738 C1740 1.391 . S
C1739 C1738 1.386 1_556 S
C1739 C1743 1.393 . S
C1740 H1729 0.950 . S
C1740 C1738 1.391 . S
C1740 C1741 1.400 . S
C1741 C1735 1.491 . S
C1741 C1740 1.400 . S
C1741 C1742 1.398 . S
C1742 H1730 0.950 . S
C1742 C1741 1.398 . S
C1742 C1743 1.391 1_554 S
C1743 H1731 0.950 . S
C1743 C1739 1.393 . S
C1743 C1742 1.391 1_556 S
H1744 C1752 0.950 . S
H1745 C1757 0.950 . S
H1746 C1754 0.950 . S
H1747 C1756 0.950 . S
H1748 C1758 0.950 . S
H1749 C1760 0.950 . S
H1750 C1762 0.950 . S
H1751 C1763 0.950 . S
C1752 H1744 0.950 . S
C1752 C1753 1.386 . S
C1752 C1754 1.391 . S
C1753 C1752 1.386 . S
C1753 C1757 1.393 . S
C1754 H1746 0.950 . S
C1754 C1752 1.391 . S
C1754 C1755 1.400 . S
C1755 C1754 1.400 . S
C1755 C1756 1.398 . S
C1755 C1761 1.491 . S
C1756 H1747 0.950 . S
C1756 C1755 1.398 . S
C1756 C1757 1.391 . S
C1757 H1745 0.950 . S
C1757 C1753 1.393 . S
C1757 C1756 1.391 . S
C1758 H1748 0.950 . S
C1758 C1759 1.386 1_556 S
C1758 C1760 1.391 1_556 S
C1759 C1758 1.386 1_554 S
C1759 C1763 1.393 . S
C1760 H1749 0.950 . S
C1760 C1758 1.391 1_554 S
C1760 C1761 1.400 . S
C1761 C1755 1.491 . S
C1761 C1760 1.400 . S
C1761 C1762 1.398 . S
C1762 H1750 0.950 . S
C1762 C1761 1.398 . S
C1762 C1763 1.391 . S
C1763 H1751 0.950 . S
C1763 C1759 1.393 . S
C1763 C1762 1.391 . S
H1764 C1772 0.950 . S
H1765 C1777 0.950 . S
H1766 C1774 0.950 . S
H1767 C1776 0.950 . S
H1768 C1778 0.950 . S
H1769 C1780 0.950 . S
H1770 C1782 0.950 . S
H1771 C1783 0.950 . S
C1772 H1764 0.950 . S
C1772 C1773 1.386 . S
C1772 C1774 1.391 . S
C1773 C1772 1.386 . S
C1773 C1777 1.393 . S
C1774 H1766 0.950 . S
C1774 C1772 1.391 . S
C1774 C1775 1.400 . S
C1775 C1774 1.400 . S
C1775 C1776 1.398 . S
C1775 C1781 1.491 . S
C1776 H1767 0.950 . S
C1776 C1775 1.398 . S
C1776 C1777 1.391 . S
C1777 H1765 0.950 . S
C1777 C1773 1.393 . S
C1777 C1776 1.391 . S
C1778 H1768 0.950 . S
C1778 C1779 1.386 . S
C1778 C1780 1.391 . S
C1779 C1778 1.386 . S
C1779 C1783 1.393 . S
C1780 H1769 0.950 . S
C1780 C1778 1.391 . S
C1780 C1781 1.400 . S
C1781 C1775 1.491 . S
C1781 C1780 1.400 . S
C1781 C1782 1.398 . S
C1782 H1770 0.950 . S
C1782 C1781 1.398 . S
C1782 C1783 1.391 . S
C1783 H1771 0.950 . S
C1783 C1779 1.393 . S
C1783 C1782 1.391 . S
H1784 C1792 0.950 . S
H1785 C1797 0.950 . S
H1786 C1794 0.950 . S
H1787 C1796 0.950 . S
H1788 C1798 0.950 . S
H1789 C1800 0.950 . S
H1790 C1802 0.950 . S
H1791 C1803 0.950 . S
C1792 H1784 0.950 . S
C1792 C1793 1.386 . S
C1792 C1794 1.391 . S
C1793 C1792 1.386 . S
C1793 C1797 1.393 . S
C1794 H1786 0.950 . S
C1794 C1792 1.391 . S
C1794 C1795 1.400 . S
C1795 C1794 1.400 . S
C1795 C1796 1.398 . S
C1795 C1801 1.491 . S
C1796 H1787 0.950 . S
C1796 C1795 1.398 . S
C1796 C1797 1.391 . S
C1797 H1785 0.950 . S
C1797 C1793 1.393 . S
C1797 C1796 1.391 . S
C1798 H1788 0.950 . S
C1798 C1799 1.386 . S
C1798 C1800 1.391 . S
C1799 C1798 1.386 . S
C1799 C1803 1.393 . S
C1800 H1789 0.950 . S
C1800 C1798 1.391 . S
C1800 C1801 1.400 . S
C1801 C1795 1.491 . S
C1801 C1800 1.400 . S
C1801 C1802 1.398 . S
C1802 H1790 0.950 . S
C1802 C1801 1.398 . S
C1802 C1803 1.391 . S
C1803 H1791 0.950 . S
C1803 C1799 1.393 . S
C1803 C1802 1.391 . S
H1804 C1812 0.950 . S
H1805 C1817 0.950 . S
H1806 C1814 0.950 . S
H1807 C1816 0.950 . S
H1808 C1818 0.950 . S
H1809 C1820 0.950 . S
H1810 C1822 0.950 . S
H1811 C1823 0.950 . S
C1812 H1804 0.950 . S
C1812 C1813 1.386 . S
C1812 C1814 1.391 . S
C1813 C1812 1.386 . S
C1813 C1817 1.393 . S
C1814 H1806 0.950 . S
C1814 C1812 1.391 . S
C1814 C1815 1.400 . S
C1815 C1814 1.400 . S
C1815 C1816 1.398 . S
C1815 C1821 1.491 . S
C1816 H1807 0.950 . S
C1816 C1815 1.398 . S
C1816 C1817 1.391 . S
C1817 H1805 0.950 . S
C1817 C1813 1.393 . S
C1817 C1816 1.391 . S
C1818 H1808 0.950 . S
C1818 C1819 1.386 . S
C1818 C1820 1.391 . S
C1819 C1818 1.386 . S
C1819 C1823 1.393 . S
C1820 H1809 0.950 . S
C1820 C1818 1.391 . S
C1820 C1821 1.400 . S
C1821 C1815 1.491 . S
C1821 C1820 1.400 . S
C1821 C1822 1.398 . S
C1822 H1810 0.950 . S
C1822 C1821 1.398 . S
C1822 C1823 1.391 . S
C1823 H1811 0.950 . S
C1823 C1819 1.393 . S
C1823 C1822 1.391 . S
H1824 C1832 0.950 . S
H1825 C1837 0.950 . S
H1826 C1834 0.950 . S
H1827 C1836 0.950 . S
H1828 C1838 0.950 . S
H1829 C1840 0.950 . S
H1830 C1842 0.950 . S
H1831 C1843 0.950 . S
C1832 H1824 0.950 . S
C1832 C1833 1.386 . S
C1832 C1834 1.391 . S
C1833 C1832 1.386 . S
C1833 C1837 1.393 . S
C1834 H1826 0.950 . S
C1834 C1832 1.391 . S
C1834 C1835 1.404 . S
C1835 C1834 1.404 . S
C1835 C1836 1.440 . S
C1835 C1841 1.449 1_655 S
C1836 H1827 0.950 . S
C1836 C1835 1.440 . S
C1836 C1837 1.391 . S
C1837 H1825 0.950 . S
C1837 C1833 1.393 . S
C1837 C1836 1.391 . S
C1838 H1828 0.950 . S
C1838 C1839 1.386 . S
C1838 C1840 1.391 . S
C1839 C1838 1.386 . S
C1839 C1843 1.393 . S
C1840 H1829 0.950 . S
C1840 C1838 1.391 . S
C1840 C1841 1.400 . S
C1841 C1835 1.449 1_455 S
C1841 C1840 1.400 . S
C1841 C1842 1.398 . S
C1842 H1830 0.950 . S
C1842 C1841 1.398 . S
C1842 C1843 1.391 . S
C1843 H1831 0.950 . S
C1843 C1839 1.393 . S
C1843 C1842 1.391 . S
H1844 C1852 0.950 . S
H1845 C1857 0.950 . S
H1846 C1854 0.950 . S
H1847 C1856 0.950 . S
H1848 C1858 0.950 . S
H1849 C1860 0.950 . S
H1850 C1862 0.950 . S
H1851 C1863 0.950 . S
C1852 H1844 0.950 . S
C1852 C1853 1.386 . S
C1852 C1854 1.391 . S
C1853 C1852 1.386 . S
C1853 C1857 1.393 . S
C1854 H1846 0.950 . S
C1854 C1852 1.391 . S
C1854 C1855 1.400 . S
C1855 C1854 1.400 . S
C1855 C1856 1.398 . S
C1855 C1861 1.491 . S
C1856 H1847 0.950 . S
C1856 C1855 1.398 . S
C1856 C1857 1.391 . S
C1857 H1845 0.950 . S
C1857 C1853 1.393 . S
C1857 C1856 1.391 . S
C1858 H1848 0.950 . S
C1858 C1859 1.386 . S
C1858 C1860 1.391 . S
C1859 C1858 1.386 . S
C1859 C1863 1.393 . S
C1860 H1849 0.950 . S
C1860 C1858 1.391 . S
C1860 C1861 1.400 . S
C1861 C1855 1.491 . S
C1861 C1860 1.400 . S
C1861 C1862 1.398 . S
C1862 H1850 0.950 . S
C1862 C1861 1.398 . S
C1862 C1863 1.391 . S
C1863 H1851 0.950 . S
C1863 C1859 1.393 . S
C1863 C1862 1.391 . S
H1864 C1872 0.950 . S
H1865 C1877 0.950 . S
H1866 C1874 0.950 1_565 S
H1867 C1876 0.950 . S
H1868 C1878 0.950 . S
H1869 C1880 0.929 1_545 S
H1870 C1882 0.950 . S
H1871 C1883 0.950 . S
C1872 H1864 0.950 . S
C1872 C1873 1.386 . S
C1872 C1874 1.391 . S
C1873 C1872 1.386 . S
C1873 C1877 1.393 . S
C1874 H1866 0.950 1_545 S
C1874 C1872 1.391 . S
C1874 C1875 1.400 . S
C1875 C1874 1.400 . S
C1875 C1876 1.398 . S
C1875 C1881 1.491 1_545 S
C1876 H1867 0.950 . S
C1876 C1875 1.398 . S
C1876 C1877 1.391 . S
C1877 H1865 0.950 . S
C1877 C1873 1.393 . S
C1877 C1876 1.391 . S
C1878 H1868 0.950 . S
C1878 C1879 1.386 . S
C1878 C1880 1.391 . S
C1879 C1878 1.386 . S
C1879 C1883 1.393 . S
C1880 H1869 0.929 1_565 S
C1880 C1878 1.391 . S
C1880 C1881 1.400 . S
C1881 C1875 1.491 1_565 S
C1881 C1880 1.400 . S
C1881 C1882 1.398 . S
C1882 H1870 0.950 . S
C1882 C1881 1.398 . S
C1882 C1883 1.391 . S
C1883 H1871 0.950 . S
C1883 C1879 1.393 . S
C1883 C1882 1.391 . S
H1884 C1892 0.950 . S
H1885 C1897 0.950 . S
H1886 C1894 0.950 . S
H1887 C1896 0.918 1_545 S
H1888 C1898 0.950 . S
H1889 C1900 0.950 . S
H1890 C1902 0.949 . S
H1891 C1903 0.950 . S
C1892 H1884 0.950 . S
C1892 C1893 1.386 . S
C1892 C1894 1.391 . S
C1893 C1892 1.386 . S
C1893 C1897 1.393 . S
C1894 H1886 0.950 . S
C1894 C1892 1.391 . S
C1894 C1895 1.400 . S
C1895 C1894 1.400 . S
C1895 C1896 1.398 . S
C1895 C1901 1.491 1_565 S
C1896 H1887 0.918 1_565 S
C1896 C1895 1.398 . S
C1896 C1897 1.391 . S
C1897 H1885 0.950 . S
C1897 C1893 1.393 . S
C1897 C1896 1.391 . S
C1898 H1888 0.950 . S
C1898 C1899 1.386 . S
C1898 C1900 1.391 . S
C1899 C1898 1.386 . S
C1899 C1903 1.393 . S
C1900 H1889 0.950 . S
C1900 C1898 1.391 . S
C1900 C1901 1.400 . S
C1901 C1895 1.491 1_545 S
C1901 C1900 1.400 . S
C1901 C1902 1.398 . S
C1902 H1890 0.949 . S
C1902 C1901 1.398 . S
C1902 C1903 1.391 . S
C1903 H1891 0.950 . S
C1903 C1899 1.393 . S
C1903 C1902 1.391 . S
H1904 C1912 0.950 . S
H1905 C1917 0.950 . S
H1906 C1914 0.950 . S
H1907 C1916 0.950 . S
H1908 C1918 0.950 . S
H1909 C1920 0.950 . S
H1910 C1922 0.950 . S
H1911 C1923 0.950 . S
C1912 H1904 0.950 . S
C1912 C1913 1.386 . S
C1912 C1914 1.391 . S
C1913 C1912 1.386 . S
C1913 C1917 1.393 . S
C1914 H1906 0.950 . S
C1914 C1912 1.391 . S
C1914 C1915 1.400 . S
C1915 C1914 1.400 . S
C1915 C1916 1.417 . S
C1915 C1921 1.473 1_455 S
C1916 H1907 0.950 . S
C1916 C1915 1.417 . S
C1916 C1917 1.391 . S
C1917 H1905 0.950 . S
C1917 C1913 1.393 . S
C1917 C1916 1.391 . S
C1918 H1908 0.950 . S
C1918 C1919 1.386 . S
C1918 C1920 1.391 . S
C1919 C1918 1.386 . S
C1919 C1923 1.393 . S
C1920 H1909 0.950 . S
C1920 C1918 1.391 . S
C1920 C1921 1.400 . S
C1921 C1915 1.473 1_655 S
C1921 C1920 1.400 . S
C1921 C1922 1.398 . S
C1922 H1910 0.950 . S
C1922 C1921 1.398 . S
C1922 C1923 1.391 . S
C1923 H1911 0.950 . S
C1923 C1919 1.393 . S
C1923 C1922 1.391 . S
H1924 C1932 0.950 . S
H1925 C1937 0.950 . S
H1926 C1934 0.950 . S
H1927 C1936 0.950 . S
H1928 C1938 0.950 . S
H1929 C1940 0.950 . S
H1930 C1942 0.950 . S
H1931 C1943 0.950 . S
C1932 H1924 0.950 . S
C1932 C1933 1.386 . S
C1932 C1934 1.391 . S
C1933 C1932 1.386 . S
C1933 C1937 1.393 . S
C1934 H1926 0.950 . S
C1934 C1932 1.391 . S
C1934 C1935 1.400 . S
C1935 C1934 1.400 . S
C1935 C1936 1.398 . S
C1935 C1941 1.491 . S
C1936 H1927 0.950 . S
C1936 C1935 1.398 . S
C1936 C1937 1.391 . S
C1937 H1925 0.950 . S
C1937 C1933 1.393 . S
C1937 C1936 1.391 . S
C1938 H1928 0.950 . S
C1938 C1939 1.386 . S
C1938 C1940 1.391 . S
C1939 C1938 1.386 . S
C1939 C1943 1.393 . S
C1940 H1929 0.950 . S
C1940 C1938 1.391 . S
C1940 C1941 1.400 . S
C1941 C1935 1.491 . S
C1941 C1940 1.400 . S
C1941 C1942 1.398 . S
C1942 H1930 0.950 . S
C1942 C1941 1.398 . S
C1942 C1943 1.391 . S
C1943 H1931 0.950 . S
C1943 C1939 1.393 . S
C1943 C1942 1.391 . S
C513 C76 1.599 . S
C519 C6 1.592 . S
C533 C20 1.610 . S
C539 C48 1.602 . S
C553 C62 1.410 . S
C559 C34 1.418 . S
C573 C90 1.610 . S
C579 C160 1.615 . S
C593 C104 1.620 . S
C599 C132 1.622 . S
C613 C146 1.413 . S
C619 C118 1.417 . S
C633 C244 1.411 . S
C639 C174 1.459 . S
C653 C188 1.502 . S
C659 C216 1.505 . S
C673 C230 1.410 . S
C679 C202 1.430 . S
C693 C258 1.572 . S
C699 C328 1.566 . S
C713 C272 1.356 . S
C719 C300 1.396 . S
C733 C286 1.469 . S
C739 C314 1.505 . S
C753 C342 1.555 . S
C759 C412 1.550 . S
C773 C384 1.392 . S
C779 C356 1.357 . S
C793 C370 1.462 . S
C799 C398 1.504 . S
C813 C426 1.467 . S
C819 C496 1.420 . S
C833 C440 1.514 . S
C839 C468 1.496 . S
C853 C454 1.432 . S
C859 C482 1.398 . S
C873 C147 2.153 . S
C879 C9 2.099 . S
C893 C161 2.046 . S
C899 C23 1.973 . S
C913 C133 2.009 . S
C919 C37 1.942 . S
C933 C119 2.134 . S
C939 C51 2.080 . S
C953 C65 2.013 . S
C959 C91 2.069 . S
C973 C79 1.882 . S
C979 C105 1.986 . S
C993 C93 2.092 . S
C999 C63 2.150 . S
C1013 C107 1.978 . S
C1019 C77 2.036 . S
C1033 C121 1.938 . S
C1039 C49 1.990 . S
C1053 C35 2.135 . S
C1059 C135 2.094 . S
C1073 C7 2.056 . S
C1079 C149 2.004 . S
C1093 C163 1.867 . S
C1099 C21 1.983 . S
C1113 C177 1.369 . S
C1119 C315 1.346 . S
C1133 C191 2.132 . S
C1139 C329 2.176 . S
C1153 C301 1.706 . S
C1159 C205 1.598 . S
C1173 C219 1.883 . S
C1179 C287 1.911 1_556 S
C1193 C233 2.134 . S
C1199 C259 2.142 . S
C1213 C247 2.083 . S
C1219 C273 2.050 1_556 S
C1233 C261 1.963 . S
C1239 C231 2.059 . S
C1253 C245 1.973 . S
C1259 C275 1.985 . S
C1273 C217 2.228 . S
C1279 C289 2.261 . S
C1293 C303 1.432 . S
C1299 C203 1.523 . S
C1313 C175 1.328 . S
C1319 C317 1.308 . S
C1333 C189 2.223 . S
C1339 C331 2.137 . S
C1353 C483 2.044 . S
C1359 C345 1.950 . S
C1373 C359 1.967 . S
C1379 C497 1.957 . S
C1393 C373 2.256 . S
C1399 C469 2.225 . S
C1413 C455 1.524 . S
C1419 C387 1.425 . S
C1433 C427 1.343 . S
C1439 C401 1.327 . S
C1453 C441 2.222 . S
C1459 C415 2.149 . S
C1473 C429 1.375 . S
C1479 C399 1.359 . S
C1493 C413 2.167 . S
C1499 C443 2.141 . S
C1513 C457 1.614 . S
C1519 C385 1.707 . S
C1533 C371 1.914 1_554 S
C1539 C471 1.886 . S
C1553 C343 2.150 . S
C1559 C485 2.147 . S
C1573 C357 2.065 1_554 S
C1579 C499 2.095 . S
C1593 C232 1.756 . S
C1599 C8 1.751 1_556 S
C1613 C22 1.656 . S
C1619 C246 1.619 . S
C1633 C218 1.986 . S
C1639 C36 2.044 1_556 S
C1653 C372 1.611 . S
C1659 C50 1.629 . S
C1673 C64 2.012 . S
C1679 C344 1.999 . S
C1693 C78 1.801 . S
C1699 C358 1.740 . S
C1713 C92 1.746 1_554 S
C1719 C484 1.729 . S
C1733 C498 1.576 . S
C1739 C106 1.640 . S
C1753 C470 2.008 . S
C1759 C120 2.046 1_554 S
C1773 C288 1.578 . S
C1779 C134 1.592 . S
C1793 C148 2.024 . S
C1799 C260 2.026 . S
C1813 C162 1.811 . S
C1819 C274 1.739 . S
C1833 C176 1.218 . S
C1839 C400 1.218 . S
C1853 C414 2.108 . S
C1859 C190 2.104 . S
C1873 C386 0.820 . S
C1879 C204 0.826 . S
C1893 C302 0.816 . S
C1899 C456 0.825 . S
C1913 C428 1.227 . S
C1919 C316 1.229 . S
C1933 C442 2.070 . S
C1939 C330 2.089 . S
