# Generated by pormake.
# Topology rob, (6)-cn, num edge types: 1
# Building blocks:
#     Node 0, Type 0, BuildingBlock: FUNLAD_clean_sbu_0, # of connection points: 6
#     Node 1, Type 0, BuildingBlock: FUNLAD_clean_sbu_0, # of connection points: 6
#     Node 2, Type 0, BuildingBlock: FUNLAD_clean_sbu_0, # of connection points: 6
#     Node 3, Type 0, BuildingBlock: FUNLAD_clean_sbu_0, # of connection points: 6
#     Edge 4, Type (0, 0), BuildingBlock: AJUNOK_clean_linker_0, # of connection points: 2
#     Edge 5, Type (0, 0), BuildingBlock: AJUNOK_clean_linker_0, # of connection points: 2
#     Edge 6, Type (0, 0), BuildingBlock: AJUNOK_clean_linker_0, # of connection points: 2
#     Edge 7, Type (0, 0), BuildingBlock: AJUNOK_clean_linker_0, # of connection points: 2
#     Edge 8, Type (0, 0), BuildingBlock: AJUNOK_clean_linker_0, # of connection points: 2
#     Edge 9, Type (0, 0), BuildingBlock: AJUNOK_clean_linker_0, # of connection points: 2
#     Edge 10, Type (0, 0), BuildingBlock: AJUNOK_clean_linker_0, # of connection points: 2
#     Edge 11, Type (0, 0), BuildingBlock: AJUNOK_clean_linker_0, # of connection points: 2
#     Edge 12, Type (0, 0), BuildingBlock: AJUNOK_clean_linker_0, # of connection points: 2
#     Edge 13, Type (0, 0), BuildingBlock: AJUNOK_clean_linker_0, # of connection points: 2
#     Edge 14, Type (0, 0), BuildingBlock: AJUNOK_clean_linker_0, # of connection points: 2
#     Edge 15, Type (0, 0), BuildingBlock: AJUNOK_clean_linker_0, # of connection points: 2
# Relax obj value: 0.104
# Max RMSD: 0.146
# Mean RMSD: 0.146
data_MOF--net-rob--node1-FUNLAD_clean_sbu_0--edge1-AJUNOK_clean_linker_0
_symmetry_space_group_name_H-M    P1
_symmetry_Int_Tables_number       1
_symmetry_cell_setting            triclinic
loop_
_symmetry_equiv_pos_as_xyz
'x, y, z'
_cell_length_a     12.048602
_cell_length_b     33.192983
_cell_length_c     17.181327
_cell_angle_alpha  93.027652
_cell_angle_beta   90.216593
_cell_angle_gamma 89.992002
loop_
_atom_site_label
_atom_site_type_symbol
_atom_site_fract_x
_atom_site_fract_y
_atom_site_fract_z
_atom_type_partial_charge
C0 C 0.30507 0.26118 0.83976 0.0
N1 N 0.31303 0.36601 0.98634 0.0
C2 C 0.41788 0.37245 0.96056 0.0
C3 C 0.46206 0.41135 0.96305 0.0
C4 C 0.39779 0.44392 -0.00754 0.0
C5 C 0.28897 0.4366 0.01698 0.0
C6 C 0.24811 0.39715 0.01365 0.0
Zn7 Zn 0.25638 0.30809 0.98844 0.0
C8 C 0.03505 0.29645 0.9255 0.0
N9 N 0.15532 0.18516 -0.00773 0.0
C10 C 0.22105 0.15423 0.96496 0.0
C11 C 0.05023 0.17841 0.01724 0.0
C12 C 0.00667 0.1394 0.01389 0.0
C13 C 0.07194 0.10706 0.98465 0.0
C14 C 0.18092 0.11469 0.96097 0.0
Zn15 Zn 0.21148 0.24317 -0.00942 0.0
O16 O 0.31224 0.2959 0.87423 0.0
C17 C 0.4331 0.25486 0.0532 0.0
O18 O 0.26862 0.23174 0.87624 0.0
H19 H -0.00049 0.20341 0.03889 0.0
H20 H 0.46795 0.34728 0.93887 0.0
H21 H 0.30415 0.1603 0.94508 0.0
O22 O 0.40891 0.29054 0.03582 0.0
O23 O 0.36447 0.22658 0.03729 0.0
H24 H 0.16511 0.39133 0.03402 0.0
O25 O 0.15589 0.25531 0.10501 0.0
O26 O 0.19833 0.31959 0.10242 0.0
O27 O 0.05864 0.26082 0.94371 0.0
O28 O 0.10394 0.32464 0.94128 0.0
C29 C 0.16202 0.29017 0.13906 0.0
H30 H 0.54557 0.4159 0.9421 0.0
H31 H 0.23695 0.461 0.04001 0.0
H32 H 0.92289 0.13455 0.03404 0.0
H33 H 0.23361 0.09044 0.9381 0.0
C34 C 0.80586 0.75853 0.84212 0.0
N35 N 0.81341 0.86587 0.98124 0.0
C36 C 0.91807 0.87181 0.95457 0.0
C37 C 0.96067 0.91078 0.95134 0.0
C38 C 0.89462 0.94394 0.97517 0.0
C39 C 0.78672 0.93702 0.00199 0.0
C40 C 0.74756 0.89751 0.00462 0.0
Zn41 Zn 0.75688 0.80816 0.98851 0.0
C42 C 0.53481 0.79555 0.92665 0.0
N43 N 0.65536 0.68556 0.00038 0.0
C44 C 0.72133 0.65424 0.97547 0.0
C45 C 0.55116 0.67918 0.02746 0.0
C46 C 0.50922 0.64004 0.02957 0.0
C47 C 0.57537 0.60719 0.004 0.0
C48 C 0.68275 0.61461 0.97673 0.0
Zn49 Zn 0.71129 0.74338 -0.0064 0.0
O50 O 0.81229 0.79372 0.8747 0.0
C51 C 0.93334 0.756 0.05556 0.0
O52 O 0.76885 0.72965 0.87992 0.0
H53 H 0.50002 0.70452 0.04681 0.0
H54 H 0.96904 0.84623 0.93628 0.0
H55 H 0.80354 0.66002 0.95359 0.0
O56 O 0.9097 0.79148 0.03663 0.0
O57 O 0.86413 0.72775 0.04112 0.0
H58 H 0.66495 0.89208 0.02615 0.0
O59 O 0.65583 0.75785 0.10753 0.0
O60 O 0.69914 0.82195 0.10211 0.0
O61 O 0.55832 0.76006 0.9456 0.0
O62 O 0.60415 0.82377 0.94098 0.0
C63 C 0.66206 0.79308 0.13998 0.0
H64 H 0.04427 0.91497 0.93023 0.0
H65 H 0.73404 0.96183 0.02221 0.0
H66 H 0.426 0.63549 0.05108 0.0
H67 H 0.73548 0.59011 0.95508 0.0
C68 C 0.30401 0.79145 0.64113 0.0
N69 N 0.31666 0.68617 0.49609 0.0
C70 C 0.42153 0.68013 0.52278 0.0
C71 C 0.46661 0.64135 0.52098 0.0
C72 C 0.40328 0.60852 0.49119 0.0
C73 C 0.2944 0.61547 0.46581 0.0
C74 C 0.25258 0.65476 0.46862 0.0
Zn75 Zn 0.25767 0.74376 0.49283 0.0
C76 C 0.03687 0.75433 0.55574 0.0
N77 N 0.15084 0.86607 0.48688 0.0
C78 C 0.21379 0.89725 0.51683 0.0
C79 C 0.04683 0.87235 0.45881 0.0
C80 C 0.00159 0.91113 0.46147 0.0
C81 C 0.06366 0.94365 0.49393 0.0
C82 C 0.17156 0.93648 0.52098 0.0
Zn83 Zn 0.20984 0.80842 0.48969 0.0
O84 O 0.31296 0.75668 0.60723 0.0
C85 C 0.43056 0.79782 0.42651 0.0
O86 O 0.26748 0.8207 0.60399 0.0
H87 H -0.00194 0.84711 0.43552 0.0
H88 H 0.47087 0.70552 0.54465 0.0
H89 H 0.29639 0.89161 0.53857 0.0
O90 O 0.40917 0.76212 0.44536 0.0
O91 O 0.36103 0.82569 0.44273 0.0
H92 H 0.16949 0.66026 0.44763 0.0
O93 O 0.15475 0.79546 0.37515 0.0
O94 O 0.19986 0.73138 0.37869 0.0
O95 O 0.05817 0.79004 0.5369 0.0
O96 O 0.10667 0.72653 0.53981 0.0
C97 C 0.16349 0.76062 0.34142 0.0
H98 H 0.55009 0.63709 0.54267 0.0
H99 H 0.24303 0.59089 0.44246 0.0
H100 H 0.91807 0.91553 0.43996 0.0
H101 H 0.22273 0.96096 0.54498 0.0
C102 C 0.80197 0.29244 0.63933 0.0
N103 N 0.80666 0.18515 0.49975 0.0
C104 C 0.90869 0.17826 0.53061 0.0
C105 C 0.94881 0.13894 0.53414 0.0
C106 C 0.88337 0.10644 0.50552 0.0
C107 C 0.77819 0.11434 0.47442 0.0
C108 C 0.74104 0.15414 0.47238 0.0
Zn109 Zn 0.75378 0.2433 0.49197 0.0
C110 C 0.53173 0.25727 0.55202 0.0
N111 N 0.65814 0.36645 0.47926 0.0
C112 C 0.72476 0.39734 0.50578 0.0
C113 C 0.55491 0.37347 0.45055 0.0
C114 C 0.51432 0.4128 0.44891 0.0
C115 C 0.5808 0.4452 0.47669 0.0
C116 C 0.6875 0.43716 0.50507 0.0
Zn117 Zn 0.71086 0.30828 0.48657 0.0
O118 O 0.80835 0.25735 0.60639 0.0
C119 C 0.93258 0.29437 0.42617 0.0
O120 O 0.76637 0.32152 0.60126 0.0
H121 H 0.50332 0.34846 0.42981 0.0
H122 H 0.95977 0.20336 0.55159 0.0
H123 H 0.80627 0.39105 0.52877 0.0
O124 O 0.90803 0.25897 0.44525 0.0
O125 O 0.86482 0.32294 0.44124 0.0
H126 H 0.66019 0.1603 0.44817 0.0
O127 O 0.65786 0.29445 0.37174 0.0
O128 O 0.69713 0.23 0.37753 0.0
O129 O 0.55624 0.29253 0.53224 0.0
O130 O 0.60002 0.22872 0.53815 0.0
C131 C 0.66402 0.2593 0.33903 0.0
H132 H 0.0312 0.13408 0.55729 0.0
H133 H 0.72538 0.08999 0.45189 0.0
H134 H 0.43168 0.41786 0.42635 0.0
H135 H 0.74051 0.46131 0.52825 0.0
C136 C 0.42632 0.55667 0.9702 0.0
C137 C 0.53103 0.56548 0.00345 0.0
C138 C 0.38354 0.51734 0.96729 0.0
C139 C 0.44397 0.4854 -0.00255 0.0
H140 H 0.37785 0.58023 0.94502 0.0
H141 H 0.30335 0.51178 0.94007 0.0
S142 S 0.71725 0.49326 0.09733 0.0
N143 N 0.69089 0.53955 0.0716 0.0
N144 N 0.61049 0.46561 0.06612 0.0
C145 C 0.54776 0.49393 0.03225 0.0
C146 C 0.59128 0.53396 0.03524 0.0
C147 C 0.38959 0.53494 0.515 0.0
C148 C 0.45032 0.56715 0.48641 0.0
C149 C 0.43222 0.49561 0.51122 0.0
C150 C 0.53713 0.48703 0.47867 0.0
H151 H 0.30907 0.54027 0.54144 0.0
H152 H 0.38333 0.47181 0.535 0.0
S153 S 0.72485 0.56003 0.38951 0.0
N154 N 0.61783 0.58748 0.42037 0.0
N155 N 0.69801 0.51349 0.41342 0.0
C156 C 0.598 0.51883 0.44881 0.0
C157 C 0.55459 0.55889 0.45263 0.0
C158 C 0.08581 0.03392 0.01179 0.0
C159 C 0.02667 0.0655 0.97928 0.0
C160 C 0.04299 0.99461 0.00946 0.0
C161 C 0.9396 0.98549 0.97446 0.0
H162 H 0.16476 0.0398 0.04056 0.0
H163 H 0.09017 0.97132 0.0366 0.0
S164 S 0.7583 0.05654 0.87336 0.0
N165 N 0.86366 0.08452 0.90597 0.0
N166 N 0.78315 1.01058 0.90155 0.0
C167 C 0.88107 1.01658 0.93993 0.0
C168 C 0.92463 0.05659 0.94233 0.0
C169 C 0.92407 0.04012 0.43562 0.0
C170 C 0.92656 0.06459 0.505 0.0
C171 C 0.96798 1.00097 0.4327 0.0
C172 C 0.01606 0.9849 0.49903 0.0
H173 H 0.8898 0.0516 0.38277 0.0
H174 H 0.966 0.98339 0.37775 0.0
S175 S 0.03256 0.03516 0.69686 0.0
N176 N 0.97397 0.06903 0.64284 0.0
N177 N 0.05657 0.99539 0.6374 0.0
C178 C 0.01681 1.00872 0.56923 0.0
C179 C 0.97206 0.04858 0.5722 0.0
C180 C 0.56917 0.21877 0.23256 0.0
C181 C 0.63073 0.25302 0.25711 0.0
C182 C 0.51579 0.21685 0.15992 0.0
C183 C 0.52296 0.24915 0.11011 0.0
H184 H 0.55453 0.19495 0.27204 0.0
H185 H 0.46019 0.19178 0.14645 0.0
S186 S 0.70308 0.33944 0.139 0.0
N187 N 0.71661 0.31543 0.22028 0.0
N188 N 0.61765 0.3117 0.08313 0.0
C189 C 0.59737 0.28073 0.12986 0.0
C190 C 0.65053 0.28284 0.20394 0.0
C191 C 0.63577 0.76809 0.2718 0.0
C192 C 0.6256 0.79971 0.22114 0.0
C193 C 0.58416 0.77017 0.34445 0.0
C194 C 0.51819 0.80358 0.36815 0.0
H195 H 0.67931 0.74063 0.2536 0.0
H196 H 0.58814 0.74383 0.37904 0.0
S197 S 0.48464 0.89764 0.26246 0.0
N198 N 0.56119 0.86804 0.20404 0.0
N199 N 0.46154 0.87191 0.34046 0.0
C200 C 0.51804 0.83733 0.32163 0.0
C201 C 0.572 0.83531 0.24777 0.0
C202 C 0.4506 0.83368 0.82077 0.0
C203 C 0.4447 0.80105 0.86991 0.0
C204 C 0.3974 0.83186 0.74814 0.0
C205 C 0.33727 0.7974 0.72297 0.0
H206 H 0.5051 0.85901 0.83476 0.0
H207 H 0.41108 0.85597 0.70914 0.0
S208 S 0.26715 0.7102 0.8395 0.0
N209 N 0.35177 0.73801 0.89588 0.0
N210 N 0.25315 0.73447 0.75858 0.0
C211 C 0.31832 0.76724 0.77552 0.0
C212 C 0.37128 0.76924 0.84965 0.0
C213 C 0.3863 0.28766 0.63788 0.0
C214 C 0.44242 0.25273 0.60954 0.0
C215 C 0.33668 0.28931 0.71113 0.0
C216 C 0.33895 0.25584 0.75778 0.0
H217 H 0.38939 0.3152 0.60677 0.0
H218 H 0.30132 0.31771 0.73298 0.0
S219 S 0.44697 0.15393 0.70136 0.0
N220 N 0.47728 0.18141 0.62695 0.0
N221 N 0.38149 0.18449 0.76473 0.0
C222 C 0.38083 0.21912 0.7259 0.0
C223 C 0.43274 0.21751 0.65136 0.0
C224 C 0.01705 0.7181 0.16191 0.0
C225 C 0.02327 0.75059 0.11247 0.0
C226 C 0.07002 0.72008 0.23462 0.0
C227 C 0.1302 0.75456 0.2596 0.0
H228 H 0.9625 0.69276 0.14806 0.0
H229 H 0.05615 0.69606 0.27382 0.0
S230 S 0.20096 0.84144 0.14237 0.0
N231 N 0.11647 0.81352 0.08609 0.0
N232 N 0.2146 0.81736 0.22356 0.0
C233 C 0.14939 0.78459 0.2068 0.0
C234 C 0.09669 0.78242 0.13258 0.0
C235 C 0.08065 0.26471 0.34156 0.0
C236 C 0.02124 0.29921 0.36828 0.0
C237 C 0.13122 0.26291 0.26859 0.0
C238 C 0.12647 0.29582 0.2206 0.0
H239 H 0.07986 0.23755 0.37389 0.0
H240 H 0.16952 0.2348 0.24804 0.0
S241 S 0.00596 0.39649 0.27131 0.0
N242 N 0.97842 0.36961 0.34706 0.0
N243 N 0.07567 0.36619 0.20985 0.0
C244 C 0.08016 0.33219 0.25052 0.0
C245 C 0.02745 0.33397 0.32477 0.0
C246 C 0.83098 0.26605 0.76987 0.0
C247 C 0.83693 0.29862 0.72115 0.0
C248 C 0.88291 0.26782 0.84263 0.0
C249 C 0.94507 0.30191 0.86834 0.0
H250 H 0.79103 0.2381 0.74991 0.0
H251 H 0.88277 0.24081 0.87542 0.0
S252 S 0.96233 0.39873 0.77016 0.0
N253 N 0.8902 0.36866 0.70933 0.0
N254 N -0.00953 0.37193 0.84609 0.0
C255 C 0.93948 0.33655 0.82445 0.0
C256 C 0.88516 0.33484 0.75044 0.0
C257 C 0.88336 0.7819 0.63789 0.0
C258 C 0.94899 0.74847 0.61383 0.0
C259 C 0.83185 0.78382 0.71056 0.0
C260 C 0.84183 0.75204 0.76085 0.0
H261 H 0.87966 0.80836 0.60363 0.0
H262 H 0.78867 0.81131 0.72911 0.0
S263 S 0.98115 0.65392 0.71814 0.0
N264 N 0.00456 0.67989 0.6405 0.0
N265 N 0.90518 0.68349 0.77702 0.0
C266 C 0.89482 0.7164 0.73374 0.0
C267 C 0.94865 0.71453 0.65984 0.0
loop_
_geom_bond_atom_site_label_1
_geom_bond_atom_site_label_2
_geom_bond_distance
_geom_bond_site_symmetry_2
_ccdc_geom_bond_type
C0 O16 1.251 . S
C0 O18 1.254 . S
N1 C2 1.333 1_554 S
N1 C6 1.307 . S
N1 Zn7 2.020 . S
C2 N1 1.333 1_556 S
C2 C3 1.379 . S
C2 H20 0.952 . S
C3 C2 1.379 . S
C3 C4 1.390 1_556 S
C3 H30 0.949 . S
C4 C3 1.390 1_554 S
C4 C5 1.357 . S
C5 C4 1.357 . S
C5 C6 1.370 . S
C5 H31 0.950 . S
C6 N1 1.307 . S
C6 C5 1.370 . S
C6 H24 0.948 . S
Zn7 N1 2.020 . S
Zn7 O16 2.039 1_554 S
Zn7 O22 2.034 . S
Zn7 O26 2.025 . S
Zn7 O28 2.024 1_554 S
C8 O27 1.246 . S
C8 O28 1.249 . S
N9 C10 1.307 . S
N9 C11 1.333 1_556 S
N9 Zn15 2.020 . S
C10 N9 1.307 . S
C10 C14 1.370 . S
C10 H21 0.948 . S
C11 N9 1.333 1_554 S
C11 C12 1.379 . S
C11 H19 0.952 . S
C12 C11 1.379 . S
C12 C13 1.390 1_554 S
C12 H32 0.949 1_455 S
C13 C12 1.390 1_556 S
C13 C14 1.357 . S
C14 C10 1.370 . S
C14 C13 1.357 . S
C14 H33 0.950 . S
Zn15 N9 2.020 . S
Zn15 O18 2.025 . S
Zn15 O23 2.024 1_556 S
Zn15 O25 2.039 1_556 S
Zn15 O27 2.034 . S
O16 C0 1.251 . S
O16 Zn7 2.039 1_556 S
C17 O22 1.246 . S
C17 O23 1.249 . S
O18 C0 1.254 . S
O18 Zn15 2.025 . S
H19 C11 0.952 . S
H20 C2 0.952 . S
H21 C10 0.948 . S
O22 Zn7 2.034 . S
O22 C17 1.246 . S
O23 Zn15 2.024 1_554 S
O23 C17 1.249 . S
H24 C6 0.948 . S
O25 Zn15 2.039 1_554 S
O25 C29 1.251 . S
O26 Zn7 2.025 . S
O26 C29 1.254 . S
O27 C8 1.246 . S
O27 Zn15 2.034 . S
O28 Zn7 2.024 1_556 S
O28 C8 1.249 . S
C29 O25 1.251 . S
C29 O26 1.254 . S
H30 C3 0.949 . S
H31 C5 0.950 . S
H32 C12 0.949 1_655 S
H33 C14 0.950 . S
C34 O50 1.251 . S
C34 O52 1.254 . S
N35 C36 1.333 1_554 S
N35 C40 1.307 . S
N35 Zn41 2.020 . S
C36 N35 1.333 1_556 S
C36 C37 1.379 . S
C36 H54 0.952 . S
C37 C36 1.379 . S
C37 C38 1.390 1_556 S
C37 H64 0.949 1_655 S
C38 C37 1.390 1_554 S
C38 C39 1.357 . S
C39 C38 1.357 . S
C39 C40 1.370 . S
C39 H65 0.950 . S
C40 N35 1.307 . S
C40 C39 1.370 . S
C40 H58 0.948 . S
Zn41 N35 2.020 . S
Zn41 O50 2.039 1_554 S
Zn41 O56 2.034 . S
Zn41 O60 2.025 . S
Zn41 O62 2.024 1_554 S
C42 O61 1.246 . S
C42 O62 1.249 . S
N43 C44 1.307 . S
N43 C45 1.333 1_556 S
N43 Zn49 2.020 . S
C44 N43 1.307 . S
C44 C48 1.370 . S
C44 H55 0.948 . S
C45 N43 1.333 1_554 S
C45 C46 1.379 . S
C45 H53 0.952 . S
C46 C45 1.379 . S
C46 C47 1.390 1_554 S
C46 H66 0.949 . S
C47 C46 1.390 1_556 S
C47 C48 1.357 . S
C48 C44 1.370 . S
C48 C47 1.357 . S
C48 H67 0.950 . S
Zn49 N43 2.020 . S
Zn49 O52 2.025 . S
Zn49 O57 2.024 1_556 S
Zn49 O59 2.039 1_556 S
Zn49 O61 2.034 . S
O50 C34 1.251 . S
O50 Zn41 2.039 1_556 S
C51 O56 1.246 . S
C51 O57 1.249 . S
O52 C34 1.254 . S
O52 Zn49 2.025 . S
H53 C45 0.952 . S
H54 C36 0.952 . S
H55 C44 0.948 . S
O56 Zn41 2.034 . S
O56 C51 1.246 . S
O57 Zn49 2.024 1_554 S
O57 C51 1.249 . S
H58 C40 0.948 . S
O59 Zn49 2.039 1_554 S
O59 C63 1.251 . S
O60 Zn41 2.025 . S
O60 C63 1.254 . S
O61 C42 1.246 . S
O61 Zn49 2.034 . S
O62 Zn41 2.024 1_556 S
O62 C42 1.249 . S
C63 O59 1.251 . S
C63 O60 1.254 . S
H64 C37 0.949 1_455 S
H65 C39 0.950 . S
H66 C46 0.949 . S
H67 C48 0.950 . S
C68 O84 1.251 . S
C68 O86 1.254 . S
N69 C70 1.333 . S
N69 C74 1.307 . S
N69 Zn75 2.020 . S
C70 N69 1.333 . S
C70 C71 1.379 . S
C70 H88 0.952 . S
C71 C70 1.379 . S
C71 C72 1.390 . S
C71 H98 0.949 . S
C72 C71 1.390 . S
C72 C73 1.357 . S
C73 C72 1.357 . S
C73 C74 1.370 . S
C73 H99 0.950 . S
C74 N69 1.307 . S
C74 C73 1.370 . S
C74 H92 0.948 . S
Zn75 N69 2.020 . S
Zn75 O84 2.039 . S
Zn75 O90 2.034 . S
Zn75 O94 2.025 . S
Zn75 O96 2.024 . S
C76 O95 1.246 . S
C76 O96 1.249 . S
N77 C78 1.307 . S
N77 C79 1.333 . S
N77 Zn83 2.020 . S
C78 N77 1.307 . S
C78 C82 1.370 . S
C78 H89 0.948 . S
C79 N77 1.333 . S
C79 C80 1.379 . S
C79 H87 0.952 . S
C80 C79 1.379 . S
C80 C81 1.390 . S
C80 H100 0.949 1_455 S
C81 C80 1.390 . S
C81 C82 1.357 . S
C82 C78 1.370 . S
C82 C81 1.357 . S
C82 H101 0.950 . S
Zn83 N77 2.020 . S
Zn83 O86 2.025 . S
Zn83 O91 2.024 . S
Zn83 O93 2.039 . S
Zn83 O95 2.034 . S
O84 C68 1.251 . S
O84 Zn75 2.039 . S
C85 O90 1.246 . S
C85 O91 1.249 . S
O86 C68 1.254 . S
O86 Zn83 2.025 . S
H87 C79 0.952 . S
H88 C70 0.952 . S
H89 C78 0.948 . S
O90 Zn75 2.034 . S
O90 C85 1.246 . S
O91 Zn83 2.024 . S
O91 C85 1.249 . S
H92 C74 0.948 . S
O93 Zn83 2.039 . S
O93 C97 1.251 . S
O94 Zn75 2.025 . S
O94 C97 1.254 . S
O95 C76 1.246 . S
O95 Zn83 2.034 . S
O96 Zn75 2.024 . S
O96 C76 1.249 . S
C97 O93 1.251 . S
C97 O94 1.254 . S
H98 C71 0.949 . S
H99 C73 0.950 . S
H100 C80 0.949 1_655 S
H101 C82 0.950 . S
C102 O118 1.251 . S
C102 O120 1.254 . S
N103 C104 1.333 . S
N103 C108 1.307 . S
N103 Zn109 2.020 . S
C104 N103 1.333 . S
C104 C105 1.379 . S
C104 H122 0.952 . S
C105 C104 1.379 . S
C105 C106 1.390 . S
C105 H132 0.949 1_655 S
C106 C105 1.390 . S
C106 C107 1.357 . S
C107 C106 1.357 . S
C107 C108 1.370 . S
C107 H133 0.950 . S
C108 N103 1.307 . S
C108 C107 1.370 . S
C108 H126 0.948 . S
Zn109 N103 2.020 . S
Zn109 O118 2.039 . S
Zn109 O124 2.034 . S
Zn109 O128 2.025 . S
Zn109 O130 2.024 . S
C110 O129 1.246 . S
C110 O130 1.249 . S
N111 C112 1.307 . S
N111 C113 1.333 . S
N111 Zn117 2.020 . S
C112 N111 1.307 . S
C112 C116 1.370 . S
C112 H123 0.948 . S
C113 N111 1.333 . S
C113 C114 1.379 . S
C113 H121 0.952 . S
C114 C113 1.379 . S
C114 C115 1.390 . S
C114 H134 0.949 . S
C115 C114 1.390 . S
C115 C116 1.357 . S
C116 C112 1.370 . S
C116 C115 1.357 . S
C116 H135 0.950 . S
Zn117 N111 2.020 . S
Zn117 O120 2.025 . S
Zn117 O125 2.024 . S
Zn117 O127 2.039 . S
Zn117 O129 2.034 . S
O118 C102 1.251 . S
O118 Zn109 2.039 . S
C119 O124 1.246 . S
C119 O125 1.249 . S
O120 C102 1.254 . S
O120 Zn117 2.025 . S
H121 C113 0.952 . S
H122 C104 0.952 . S
H123 C112 0.948 . S
O124 Zn109 2.034 . S
O124 C119 1.246 . S
O125 Zn117 2.024 . S
O125 C119 1.249 . S
H126 C108 0.948 . S
O127 Zn117 2.039 . S
O127 C131 1.251 . S
O128 Zn109 2.025 . S
O128 C131 1.254 . S
O129 C110 1.246 . S
O129 Zn117 2.034 . S
O130 Zn109 2.024 . S
O130 C110 1.249 . S
C131 O127 1.251 . S
C131 O128 1.254 . S
H132 C105 0.949 1_455 S
H133 C107 0.950 . S
H134 C114 0.949 . S
H135 C116 0.950 . S
C136 C137 1.366 1_556 S
C136 C138 1.419 . S
C136 H140 0.930 . S
C137 C136 1.366 1_554 S
C137 C146 1.432 . S
C138 C136 1.419 . S
C138 C139 1.359 1_556 S
C138 H141 0.929 . S
C139 C138 1.359 1_554 S
C139 C145 1.432 . S
H140 C136 0.930 . S
H141 C138 0.929 . S
S142 N143 1.613 . S
S142 N144 1.610 . S
N143 S142 1.613 . S
N143 C146 1.350 . S
N144 S142 1.610 . S
N144 C145 1.351 . S
C145 C139 1.432 . S
C145 N144 1.351 . S
C145 C146 1.434 . S
C146 C137 1.432 . S
C146 N143 1.350 . S
C146 C145 1.434 . S
C147 C148 1.369 . S
C147 C149 1.419 . S
C147 H151 0.930 . S
C148 C147 1.369 . S
C148 C157 1.429 . S
C149 C147 1.419 . S
C149 C150 1.363 . S
C149 H152 0.929 . S
C150 C149 1.363 . S
C150 C156 1.428 . S
H151 C147 0.930 . S
H152 C149 0.929 . S
S153 N154 1.613 . S
S153 N155 1.610 . S
N154 S153 1.613 . S
N154 C157 1.350 . S
N155 S153 1.610 . S
N155 C156 1.351 . S
C156 C150 1.428 . S
C156 N155 1.351 . S
C156 C157 1.434 . S
C157 C148 1.429 . S
C157 N154 1.350 . S
C157 C156 1.434 . S
C158 C159 1.359 1_554 S
C158 C160 1.419 1_445 S
C158 H162 0.930 . S
C159 C158 1.359 1_556 S
C159 C168 1.439 . S
C160 C158 1.419 1_665 S
C160 C161 1.357 1_554 S
C160 H163 0.929 . S
C161 C160 1.357 1_556 S
C161 C167 1.434 . S
H162 C158 0.930 . S
H163 C160 0.929 . S
S164 N165 1.613 1_655 S
S164 N166 1.610 1_545 S
N165 S164 1.613 1_455 S
N165 C168 1.350 . S
N166 S164 1.610 1_565 S
N166 C167 1.351 . S
C167 C161 1.434 . S
C167 N166 1.351 . S
C167 C168 1.434 1_665 S
C168 C159 1.439 . S
C168 N165 1.350 . S
C168 C167 1.434 1_445 S
C169 C170 1.369 . S
C169 C171 1.419 1_645 S
C169 H173 0.930 . S
C170 C169 1.369 . S
C170 C179 1.429 . S
C171 C169 1.419 1_465 S
C171 C172 1.363 . S
C171 H174 0.929 . S
C172 C171 1.363 . S
C172 C178 1.428 . S
H173 C169 0.930 . S
H174 C171 0.929 . S
S175 N176 1.617 . S
S175 N177 1.607 1_645 S
N176 S175 1.617 . S
N176 C179 1.350 . S
N177 S175 1.607 1_465 S
N177 C178 1.351 . S
C178 C172 1.428 . S
C178 N177 1.351 . S
C178 C179 1.434 1_465 S
C179 C170 1.429 . S
C179 N176 1.350 . S
C179 C178 1.434 1_645 S
C180 C181 1.369 . S
C180 C182 1.419 . S
C180 H184 0.930 . S
C181 C180 1.369 . S
C181 C190 1.429 . S
C182 C180 1.419 . S
C182 C183 1.363 . S
C182 H185 0.929 . S
C183 C182 1.363 . S
C183 C189 1.428 . S
H184 C180 0.930 . S
H185 C182 0.929 . S
S186 N187 1.613 . S
S186 N188 1.610 . S
N187 S186 1.613 . S
N187 C190 1.350 . S
N188 S186 1.610 . S
N188 C189 1.351 . S
C189 C183 1.428 . S
C189 N188 1.351 . S
C189 C190 1.434 . S
C190 C181 1.429 . S
C190 N187 1.350 . S
C190 C189 1.434 . S
C191 C192 1.369 . S
C191 C193 1.419 . S
C191 H195 0.930 . S
C192 C191 1.369 . S
C192 C201 1.429 . S
C193 C191 1.419 . S
C193 C194 1.363 . S
C193 H196 0.929 . S
C194 C193 1.363 . S
C194 C200 1.428 . S
H195 C191 0.930 . S
H196 C193 0.929 . S
S197 N198 1.613 . S
S197 N199 1.610 . S
N198 S197 1.613 . S
N198 C201 1.350 . S
N199 S197 1.610 . S
N199 C200 1.351 . S
C200 C194 1.428 . S
C200 N199 1.351 . S
C200 C201 1.434 . S
C201 C192 1.429 . S
C201 N198 1.350 . S
C201 C200 1.434 . S
C202 C203 1.369 . S
C202 C204 1.419 . S
C202 H206 0.930 . S
C203 C202 1.369 . S
C203 C212 1.429 . S
C204 C202 1.419 . S
C204 C205 1.363 . S
C204 H207 0.929 . S
C205 C204 1.363 . S
C205 C211 1.428 . S
H206 C202 0.930 . S
H207 C204 0.929 . S
S208 N209 1.613 . S
S208 N210 1.610 . S
N209 S208 1.613 . S
N209 C212 1.350 . S
N210 S208 1.610 . S
N210 C211 1.351 . S
C211 C205 1.428 . S
C211 N210 1.351 . S
C211 C212 1.434 . S
C212 C203 1.429 . S
C212 N209 1.350 . S
C212 C211 1.434 . S
C213 C214 1.369 . S
C213 C215 1.419 . S
C213 H217 0.930 . S
C214 C213 1.369 . S
C214 C223 1.429 . S
C215 C213 1.419 . S
C215 C216 1.363 . S
C215 H218 0.929 . S
C216 C215 1.363 . S
C216 C222 1.428 . S
H217 C213 0.930 . S
H218 C215 0.929 . S
S219 N220 1.613 . S
S219 N221 1.610 . S
N220 S219 1.613 . S
N220 C223 1.350 . S
N221 S219 1.610 . S
N221 C222 1.351 . S
C222 C216 1.428 . S
C222 N221 1.351 . S
C222 C223 1.434 . S
C223 C214 1.429 . S
C223 N220 1.350 . S
C223 C222 1.434 . S
C224 C225 1.369 . S
C224 C226 1.419 1_655 S
C224 H228 0.930 . S
C225 C224 1.369 . S
C225 C234 1.429 . S
C226 C224 1.419 1_455 S
C226 C227 1.363 . S
C226 H229 0.929 . S
C227 C226 1.363 . S
C227 C233 1.428 . S
H228 C224 0.930 . S
H229 C226 0.929 . S
S230 N231 1.613 . S
S230 N232 1.610 1_655 S
N231 S230 1.613 . S
N231 C234 1.350 . S
N232 S230 1.610 1_455 S
N232 C233 1.351 . S
C233 C227 1.428 . S
C233 N232 1.351 . S
C233 C234 1.434 1_455 S
C234 C225 1.429 . S
C234 N231 1.350 . S
C234 C233 1.434 1_655 S
C235 C236 1.369 . S
C235 C237 1.419 . S
C235 H239 0.930 . S
C236 C235 1.369 . S
C236 C245 1.429 1_655 S
C237 C235 1.419 . S
C237 C238 1.363 1_655 S
C237 H240 0.929 . S
C238 C237 1.363 1_455 S
C238 C244 1.428 . S
H239 C235 0.930 . S
H240 C237 0.929 . S
S241 N242 1.613 . S
S241 N243 1.610 . S
N242 S241 1.613 . S
N242 C245 1.350 . S
N243 S241 1.610 . S
N243 C244 1.351 . S
C244 C238 1.428 . S
C244 N243 1.351 . S
C244 C245 1.434 . S
C245 C236 1.429 1_455 S
C245 N242 1.350 . S
C245 C244 1.434 . S
C246 C247 1.369 . S
C246 C248 1.419 . S
C246 H250 0.930 . S
C247 C246 1.369 . S
C247 C256 1.429 1_655 S
C248 C246 1.419 . S
C248 C249 1.363 1_655 S
C248 H251 0.929 . S
C249 C248 1.363 1_455 S
C249 C255 1.428 . S
H250 C246 0.930 . S
H251 C248 0.929 . S
S252 N253 1.613 . S
S252 N254 1.610 . S
N253 S252 1.613 . S
N253 C256 1.350 . S
N254 S252 1.610 . S
N254 C255 1.351 . S
C255 C249 1.428 . S
C255 N254 1.351 . S
C255 C256 1.434 . S
C256 C247 1.429 1_455 S
C256 N253 1.350 . S
C256 C255 1.434 . S
C257 C258 1.369 . S
C257 C259 1.419 1_455 S
C257 H261 0.930 . S
C258 C257 1.369 . S
C258 C267 1.429 . S
C259 C257 1.419 1_655 S
C259 C260 1.363 . S
C259 H262 0.929 . S
C260 C259 1.363 . S
C260 C266 1.428 . S
H261 C257 0.930 . S
H262 C259 0.929 . S
S263 N264 1.613 . S
S263 N265 1.610 1_455 S
N264 S263 1.613 . S
N264 C267 1.350 . S
N265 S263 1.610 1_655 S
N265 C266 1.351 . S
C266 C260 1.428 . S
C266 N265 1.351 . S
C266 C267 1.434 1_655 S
C267 C258 1.429 . S
C267 N264 1.350 . S
C267 C266 1.434 1_455 S
C137 C47 1.648 1_554 S
C139 C4 1.644 . S
C148 C72 1.642 . S
C150 C115 1.648 . S
C159 C13 1.644 . S
C161 C38 1.646 1_556 S
C170 C106 1.645 . S
C172 C81 1.646 . S
C181 C131 1.175 . S
C183 C17 1.183 . S
C192 C63 1.179 . S
C194 C85 1.182 . S
C203 C42 1.184 . S
C205 C68 1.174 . S
C214 C110 1.185 . S
C216 C0 1.173 . S
C225 C51 1.183 . S
C227 C97 1.174 . S
C236 C119 1.184 . S
C238 C29 1.176 . S
C247 C102 1.179 . S
C249 C8 1.181 . S
C258 C76 1.184 . S
C260 C34 1.176 . S
