# Generated by pormake.
# Topology msp, (4)-cn, num edge types: 1
# Building blocks:
#     Node 0, Type 0, BuildingBlock: ESEHIV_clean_sbu_0, # of connection points: 4
#     Node 1, Type 0, BuildingBlock: ESEHIV_clean_sbu_0, # of connection points: 4
#     Node 2, Type 0, BuildingBlock: ESEHIV_clean_sbu_0, # of connection points: 4
#     Node 3, Type 0, BuildingBlock: ESEHIV_clean_sbu_0, # of connection points: 4
#     Node 4, Type 0, BuildingBlock: ESEHIV_clean_sbu_0, # of connection points: 4
#     Node 5, Type 0, BuildingBlock: ESEHIV_clean_sbu_0, # of connection points: 4
#     Node 6, Type 0, BuildingBlock: ESEHIV_clean_sbu_0, # of connection points: 4
#     Node 7, Type 0, BuildingBlock: ESEHIV_clean_sbu_0, # of connection points: 4
#     Edge 8, Type (0, 0), BuildingBlock: OJICUG_clean_linker_0, # of connection points: 2
#     Edge 9, Type (0, 0), BuildingBlock: OJICUG_clean_linker_0, # of connection points: 2
#     Edge 10, Type (0, 0), BuildingBlock: OJICUG_clean_linker_0, # of connection points: 2
#     Edge 11, Type (0, 0), BuildingBlock: OJICUG_clean_linker_0, # of connection points: 2
#     Edge 12, Type (0, 0), BuildingBlock: OJICUG_clean_linker_0, # of connection points: 2
#     Edge 13, Type (0, 0), BuildingBlock: OJICUG_clean_linker_0, # of connection points: 2
#     Edge 14, Type (0, 0), BuildingBlock: OJICUG_clean_linker_0, # of connection points: 2
#     Edge 15, Type (0, 0), BuildingBlock: OJICUG_clean_linker_0, # of connection points: 2
#     Edge 16, Type (0, 0), BuildingBlock: OJICUG_clean_linker_0, # of connection points: 2
#     Edge 17, Type (0, 0), BuildingBlock: OJICUG_clean_linker_0, # of connection points: 2
#     Edge 18, Type (0, 0), BuildingBlock: OJICUG_clean_linker_0, # of connection points: 2
#     Edge 19, Type (0, 0), BuildingBlock: OJICUG_clean_linker_0, # of connection points: 2
#     Edge 20, Type (0, 0), BuildingBlock: OJICUG_clean_linker_0, # of connection points: 2
#     Edge 21, Type (0, 0), BuildingBlock: OJICUG_clean_linker_0, # of connection points: 2
#     Edge 22, Type (0, 0), BuildingBlock: OJICUG_clean_linker_0, # of connection points: 2
#     Edge 23, Type (0, 0), BuildingBlock: OJICUG_clean_linker_0, # of connection points: 2
# Relax obj value: 0.062
# Max RMSD: 0.182
# Mean RMSD: 0.158
data_MOF--net-msp--node1-ESEHIV_clean_sbu_0--edge1-OJICUG_clean_linker_0
_symmetry_space_group_name_H-M    P1
_symmetry_Int_Tables_number       1
_symmetry_cell_setting            triclinic
loop_
_symmetry_equiv_pos_as_xyz
'x, y, z'
_cell_length_a     16.941446
_cell_length_b     17.325343
_cell_length_c     36.290587
_cell_angle_alpha  90.151226
_cell_angle_beta   99.075878
_cell_angle_gamma 89.886405
loop_
_atom_site_label
_atom_site_type_symbol
_atom_site_fract_x
_atom_site_fract_y
_atom_site_fract_z
_atom_type_partial_charge
Cu0 Cu 0.9659 0.26942 0.40188 0.0
N1 N 0.03129 0.19819 0.43124 0.0
N2 N 0.13098 0.15481 0.47411 0.0
C3 C 0.08764 0.21673 0.46039 0.0
C4 C 0.09995 0.0945 0.45311 0.0
C5 C 0.03877 0.12156 0.42649 0.0
O6 O 0.93371 0.34724 0.43525 0.0
C7 C 0.09623 0.30209 0.36257 0.0
O8 O 0.14304 0.28492 0.39385 0.0
H9 H 0.0983 0.27512 0.47058 0.0
H10 H 1.00431 0.08819 0.40439 0.0
N11 N 0.87236 0.22383 0.37724 0.0
N12 N 0.76227 0.2084 0.33487 0.0
C13 C 0.82557 0.25396 0.34722 0.0
C14 C 0.83735 0.15708 0.38438 0.0
C15 C 0.76959 0.14721 0.35817 0.0
C16 C 0.97564 0.40361 0.44974 0.0
O17 O 0.04512 0.41744 0.43937 0.0
H18 H 0.8385 0.30789 0.33443 0.0
H19 H 0.85919 0.11852 0.40711 0.0
O20 O 1.02104 0.30671 0.36218 0.0
H21 H 0.12235 0.03588 0.45566 0.0
H22 H 0.72826 0.09934 0.35677 0.0
Cu23 Cu 0.56206 0.29058 0.65859 0.0
N24 N 0.50037 0.21312 0.63221 0.0
N25 N 0.40395 0.16298 0.58947 0.0
C26 C 0.44377 0.22739 0.60263 0.0
C27 C 0.43773 0.10558 0.61185 0.0
C28 C 0.49714 0.13674 0.63821 0.0
O29 O 0.571 0.36856 0.6211 0.0
C30 C 0.43468 0.32023 0.69976 0.0
O31 O 0.38723 0.30791 0.66804 0.0
H32 H 0.43033 0.28501 0.59208 0.0
H33 H 0.53431 0.10617 0.66046 0.0
N34 N 0.66325 0.25443 0.67948 0.0
N35 N 0.7757 0.2404 0.7205 0.0
C36 C 0.70827 0.28215 0.71066 0.0
C37 C 0.70363 0.19332 0.66906 0.0
C38 C 0.77297 0.1844 0.69437 0.0
C39 C 0.6261 0.41811 0.62063 0.0
O40 O 0.68058 0.42791 0.65028 0.0
H41 H 0.69051 0.33047 0.72648 0.0
H42 H 0.68334 0.15698 0.64518 0.0
O43 O 0.50991 0.32275 0.70015 0.0
H44 H 0.42071 0.0454 0.60967 0.0
H45 H 0.81776 0.14003 0.69362 0.0
Cu46 Cu 0.90192 0.71546 0.65958 0.0
N47 N 0.81464 0.72188 0.68522 0.0
N48 N 0.73706 0.75094 0.7278 0.0
C49 C 0.81151 0.75406 0.71884 0.0
C50 C 0.6921 0.71494 0.69879 0.0
C51 C 0.74006 0.69704 0.67269 0.0
O52 O 1.00022 0.70976 0.69526 0.0
C53 C 0.83636 0.83789 0.61223 0.0
O54 O 0.77952 0.83949 0.63295 0.0
H55 H 0.86243 0.78017 0.73608 0.0
H56 H 0.72172 0.66903 0.6461 0.0
N57 N 0.89457 0.62461 0.63146 0.0
N58 N 0.90042 0.54374 0.58382 0.0
C59 C 0.91268 0.61659 0.59679 0.0
C60 C 0.87046 0.5545 0.6409 0.0
C61 C 0.87391 0.50447 0.61154 0.0
C62 C 0.03167 0.76556 0.71517 0.0
O63 O 0.99943 0.83459 0.71053 0.0
H64 H 0.93368 0.66351 0.58126 0.0
H65 H 0.85152 0.54086 0.66723 0.0
O66 O 0.89886 0.79758 0.62276 0.0
H67 H 0.62923 0.70139 0.69677 0.0
H68 H 0.85887 0.44373 0.61083 0.0
Cu69 Cu 0.68443 0.71808 0.40616 0.0
N70 N 0.77071 0.72016 0.37988 0.0
N71 N 0.84885 0.74886 0.33767 0.0
C72 C 0.77593 0.75747 0.34781 0.0
C73 C 0.89063 0.70398 0.36426 0.0
C74 C 0.84224 0.68622 0.39017 0.0
O75 O 0.58543 0.71633 0.37069 0.0
C76 C 0.7578 0.83581 0.45423 0.0
O77 O 0.81531 0.8316 0.43394 0.0
H78 H 0.72774 0.79112 0.33255 0.0
H79 H 0.85815 0.65156 0.41499 0.0
N80 N 0.68838 0.6269 0.43364 0.0
N81 N 0.67808 0.54546 0.4803 0.0
C82 C 0.67813 0.62003 0.46959 0.0
C83 C 0.69592 0.55442 0.4213 0.0
C84 C 0.68945 0.50399 0.45001 0.0
C85 C 0.55488 0.77319 0.35133 0.0
O86 O 0.58826 0.84155 0.3566 0.0
H87 H 0.66771 0.66854 0.48708 0.0
H88 H 0.70375 0.53937 0.39315 0.0
O89 O 0.69238 0.80028 0.44335 0.0
H90 H 0.95142 0.68426 0.36465 0.0
H91 H 0.69209 0.44164 0.44862 0.0
Cu92 Cu 0.49256 0.77172 0.90297 0.0
N93 N 0.56088 0.70115 0.931 0.0
N94 N 0.66134 0.65959 0.97404 0.0
C95 C 0.60943 0.71756 0.96312 0.0
C96 C 0.64362 0.60399 0.94787 0.0
C97 C 0.58194 0.62995 0.92129 0.0
O98 O 0.45601 0.84429 0.93751 0.0
C99 C 0.62219 0.81221 0.86514 0.0
O100 O 0.66856 0.79356 0.89634 0.0
H101 H 0.60857 0.77243 0.9773 0.0
H102 H 0.55708 0.60071 0.89572 0.0
N103 N 0.40198 0.72348 0.87709 0.0
N104 N 0.29222 0.70712 0.83462 0.0
C105 C 0.35158 0.75571 0.84888 0.0
C106 C 0.37368 0.65202 0.88105 0.0
C107 C 0.30603 0.64166 0.85481 0.0
C108 C 0.4945 0.90136 0.95343 0.0
O109 O 0.56376 0.92027 0.94411 0.0
H110 H 0.35941 0.81334 0.83862 0.0
H111 H 0.40035 0.61039 0.90148 0.0
O112 O 0.54684 0.81544 0.86445 0.0
H113 H 0.67574 0.55019 0.9468 0.0
H114 H 0.26942 0.59024 0.85121 0.0
Cu115 Cu 0.09308 0.78398 0.16318 0.0
N116 N 1.02569 0.71118 0.13623 0.0
N117 N 0.92556 0.66565 0.09411 0.0
C118 C 0.97551 0.72542 0.10434 0.0
C119 C 0.94619 0.61124 0.12051 0.0
C120 C 1.00766 0.63966 0.14653 0.0
O121 O 0.12255 0.85793 0.12757 0.0
C122 C 0.96479 0.82262 0.20223 0.0
O123 O 0.91782 0.80699 0.17075 0.0
H124 H 0.974 0.77988 0.08977 0.0
H125 H 0.03466 0.61167 0.17205 0.0
N126 N 0.18666 0.73811 0.18763 0.0
N127 N 0.29668 0.72112 0.22989 0.0
C128 C 0.23612 0.7693 0.21655 0.0
C129 C 0.21691 0.66788 0.18228 0.0
C130 C 0.28472 0.65716 0.20836 0.0
C131 C 0.08144 0.91565 0.11404 0.0
O132 O 1.01581 0.93404 0.12709 0.0
H133 H 0.22648 0.82552 0.22815 0.0
H134 H 0.19104 0.62708 0.1612 0.0
O135 O 0.04008 0.8252 0.20277 0.0
H136 H 0.91637 0.55645 0.12207 0.0
H137 H 0.32245 0.60635 0.21108 0.0
Cu138 Cu 0.37741 0.20836 0.15735 0.0
N139 N 0.2899 0.21081 0.18295 0.0
N140 N 0.21162 0.23757 0.22552 0.0
C141 C 0.28544 0.24425 0.21615 0.0
C142 C 0.16841 0.198 0.19719 0.0
C143 C 0.21682 0.18148 0.17107 0.0
O144 O 0.47539 0.20619 0.19341 0.0
C145 C 0.30638 0.32907 0.11022 0.0
O146 O 0.2501 0.328 0.13126 0.0
H147 H 0.33495 0.27381 0.23279 0.0
H148 H 0.19985 0.15088 0.145 0.0
N149 N 0.37504 0.11722 0.12969 0.0
N150 N 0.39326 0.03502 0.08404 0.0
C151 C 0.40271 0.10814 0.0971 0.0
C152 C 0.34698 0.04776 0.13766 0.0
C153 C 0.35794 -0.003 0.10957 0.0
C154 C 0.50673 0.26293 0.21266 0.0
O155 O 0.47488 0.33194 0.20702 0.0
H156 H 0.42866 0.15467 0.08322 0.0
H157 H 0.32088 0.03486 0.16228 0.0
O158 O 0.37031 0.29044 0.12023 0.0
H159 H 0.10653 0.18102 0.1957 0.0
H160 H 0.34235 0.93642 0.10856 0.0
Cu161 Cu 0.14961 0.22396 0.90286 0.0
N162 N 0.23776 0.22576 0.87777 0.0
N163 N 0.31722 0.25173 0.83573 0.0
C164 C 0.24365 0.2606 0.84516 0.0
C165 C 0.35877 0.20932 0.86342 0.0
C166 C 0.30958 0.19324 0.88921 0.0
O167 O 0.05272 0.22464 0.86598 0.0
C168 C 0.22266 0.34006 0.95216 0.0
O169 O 0.2793 0.33896 0.93131 0.0
H170 H 0.19528 0.29246 0.82894 0.0
H171 H 0.32507 0.16049 0.91467 0.0
N172 N 0.15105 0.13187 0.92952 0.0
N173 N 0.14284 0.04954 0.9762 0.0
C174 C 0.13504 0.12361 0.96453 0.0
C175 C 0.16953 0.06087 0.91854 0.0
C176 C 0.16463 0.00999 0.94724 0.0
C177 C 1.0224 0.28312 0.84781 0.0
O178 O 0.05387 0.35162 0.85563 0.0
H179 H 0.11926 0.17132 0.98127 0.0
H180 H 0.18563 0.04721 0.89158 0.0
O181 O 0.15741 0.30447 0.94096 0.0
H182 H 0.41989 0.18994 0.86462 0.0
H183 H 0.17531 0.94844 0.94652 0.0
C184 C 0.99529 0.50894 0.49823 0.0
C185 C 0.95106 0.44563 0.48186 0.0
H186 H 1.01368 0.58998 0.54352 0.0
C187 C 0.88643 0.41878 0.49833 0.0
H188 H 0.04528 0.53123 0.48626 0.0
C189 C 0.86906 0.45181 0.53134 0.0
C190 C 0.91494 0.51337 0.5484 0.0
H191 H 0.85066 0.37041 0.48645 0.0
H192 H 0.8201 0.42863 0.54372 0.0
C193 C 0.97707 0.54277 0.53101 0.0
C194 C 0.69047 0.55488 0.54917 0.0
C195 C 0.66269 0.51589 0.51558 0.0
H196 H 0.70079 0.55419 0.60895 0.0
C197 C 0.61964 0.44706 0.51688 0.0
H198 H 0.72409 0.60792 0.54898 0.0
C199 C 0.6055 0.4172 0.55094 0.0
C200 C 0.63536 0.45467 0.58467 0.0
H201 H 0.59649 0.41639 0.49145 0.0
H202 H 0.57294 0.36341 0.55086 0.0
C203 C 0.67751 0.52409 0.58343 0.0
C204 C 0.476 0.03986 0.03317 0.0
C205 C 0.41684 0.00372 0.05036 0.0
H206 H 0.54723 0.03599 0.98922 0.0
C207 C 0.38203 0.93543 0.03439 0.0
H208 H 0.50512 0.09191 0.04482 0.0
C209 C 0.40527 0.90415 1.00224 0.0
C210 C 0.46552 0.93923 0.98555 0.0
H211 H 0.33686 0.90558 0.04677 0.0
H212 H 0.37731 0.85107 0.99108 0.0
C213 C 0.50044 0.00767 1.00129 0.0
C214 C 0.06485 0.02378 0.06716 0.0
C215 C 0.10173 0.95419 0.08026 0.0
H216 H 0.04906 0.10895 1.02389 0.0
C217 C 0.15451 0.91838 0.05923 0.0
H218 H 1.02379 0.05278 0.08266 0.0
C219 C 0.16787 0.94978 1.02533 0.0
C220 C 0.13045 0.01881 1.01187 0.0
H221 H 0.18382 0.86455 0.06832 0.0
H222 H 0.20732 0.91953 1.00954 0.0
C223 C 0.07956 0.05608 0.03349 0.0
C224 C 0.59928 0.17379 0.25347 0.0
C225 C 0.57499 0.24948 0.24313 0.0
H226 H 0.67769 0.10151 0.29063 0.0
C227 C 0.61464 0.31153 0.26309 0.0
H228 H 0.57014 0.12452 0.23878 0.0
C229 C 0.67664 0.29814 0.29284 0.0
C230 C 0.69985 0.22239 0.30358 0.0
H231 H 0.59745 0.37052 0.25595 0.0
H232 H 0.70517 0.34713 0.30798 0.0
C233 C 0.66061 0.16045 0.28342 0.0
C234 C 0.85488 0.32562 0.76743 0.0
C235 C 0.83616 0.25133 0.75291 0.0
H236 H 0.92858 0.39417 0.80856 0.0
C237 C 0.87759 0.18775 0.77055 0.0
H238 H 0.82436 0.37578 0.75432 0.0
C239 C 0.93654 0.19809 0.80179 0.0
C240 C 0.95642 0.27244 0.81596 0.0
H241 H 0.86391 0.12976 0.76037 0.0
H242 H 0.96746 0.14768 0.81448 0.0
C243 C 0.91475 0.33612 0.79843 0.0
C244 C 0.13734 0.81211 0.76703 0.0
C245 C 0.1008 0.75116 0.74506 0.0
H246 H 0.22622 0.84593 0.81286 0.0
C247 C 0.12921 0.6756 0.75279 0.0
H248 H 0.11688 0.87097 0.76196 0.0
C249 C 0.19182 0.66124 0.78204 0.0
C250 C 0.22804 0.72208 0.80419 0.0
H251 H 0.10257 0.62716 0.73647 0.0
H252 H 0.21228 0.60244 0.78708 0.0
C253 C 0.20033 0.79777 0.79616 0.0
C254 C 0.45788 0.68538 0.31197 0.0
C255 C 0.48589 0.76053 0.32111 0.0
H256 H 0.37593 0.61402 0.27604 0.0
C257 C 0.44932 0.82271 0.3001 0.0
H258 H 0.48451 0.63603 0.32751 0.0
C259 C 0.38684 0.80992 0.27049 0.0
C260 C 0.35986 0.73461 0.26096 0.0
H261 H 0.46942 0.88131 0.30627 0.0
H262 H 0.36086 0.85894 0.25453 0.0
C263 C 0.39594 0.67259 0.28222 0.0
C264 C 0.10366 0.28133 0.25928 0.0
C265 C 0.18473 0.26386 0.25923 0.0
H266 H 1.01234 0.30899 0.29169 0.0
C267 C 0.23803 0.26849 0.29303 0.0
H268 H 0.06138 0.27992 0.23361 0.0
C269 C 0.21001 0.28548 0.32644 0.0
C270 C 0.12813 0.29867 0.32675 0.0
H271 H 0.30078 0.2553 0.29398 0.0
H272 H 0.25212 0.28502 0.35221 0.0
C273 C 0.07572 0.29879 0.29259 0.0
C274 C 0.32052 0.30431 0.73562 0.0
C275 C 0.4028 0.31487 0.73549 0.0
H276 H 0.22876 0.27553 0.76761 0.0
C277 C 0.45527 0.31119 0.76958 0.0
H278 H 0.27839 0.30676 0.70988 0.0
C279 C 0.42676 0.29291 0.8026 0.0
C280 C 0.3451 0.27839 0.80241 0.0
H281 H 0.51896 0.31928 0.77061 0.0
H282 H 0.469 0.28871 0.8282 0.0
C283 C 0.29196 0.28649 0.76874 0.0
C284 C 0.73608 0.7948 0.82918 0.0
C285 C 0.65465 0.81055 0.82946 0.0
H286 H 0.82613 0.76292 0.79664 0.0
C287 C 0.60278 0.81429 0.7952 0.0
H288 H 0.77778 0.79152 0.85503 0.0
C289 C 0.63056 0.79759 0.76177 0.0
C290 C 0.71091 0.77712 0.76171 0.0
H291 H 0.53979 0.82664 0.79426 0.0
H292 H 0.58856 0.79893 0.73601 0.0
C293 C 0.76393 0.77841 0.79567 0.0
C294 C 0.85075 0.80675 0.23817 0.0
C295 C 0.93295 0.81783 0.23799 0.0
H296 H 0.75948 0.7758 0.2701 0.0
C297 C 0.9856 0.81366 0.27202 0.0
H298 H 0.80848 0.8096 0.21249 0.0
C299 C 0.95749 0.79369 0.30492 0.0
C300 C 0.87604 0.77813 0.30468 0.0
H301 H 0.04924 0.82209 0.27304 0.0
H302 H 0.99989 0.78864 0.33043 0.0
C303 C 0.82256 0.7874 0.2712 0.0
C304 C 0.31974 0.22039 0.53413 0.0
C305 C 0.33679 0.15865 0.55934 0.0
H306 H 0.24153 0.26741 0.48755 0.0
C307 C 0.2856 0.09408 0.55503 0.0
H308 H 0.35825 0.27031 0.53554 0.0
C309 C 0.21868 0.0922 0.5268 0.0
C310 C 0.20085 0.15514 0.50255 0.0
H311 H 0.29599 0.04551 0.57382 0.0
H312 H 0.17976 0.04236 0.52448 0.0
C313 C 0.25253 0.21886 0.50639 0.0
C314 C 0.73705 0.86607 0.55523 0.0
C315 C 0.81734 0.86039 0.57245 0.0
H316 H 0.65483 0.86283 0.50393 0.0
C317 C 0.87767 0.86246 0.55002 0.0
H318 H 0.68897 0.86488 0.57167 0.0
C319 C 0.85797 0.8627 0.51113 0.0
C320 C 0.77752 0.85925 0.49392 0.0
H321 H 0.94004 0.85874 0.56246 0.0
H322 H 0.90601 0.85901 0.49473 0.0
C323 C 0.71731 0.86475 0.51633 0.0
C324 C 0.82711 0.59315 0.04902 0.0
C325 C 0.85912 0.66373 0.06369 0.0
H326 H 0.73884 0.53634 1.00942 0.0
C327 C 0.82419 0.73265 0.04848 0.0
H328 H 0.85265 0.53891 0.05982 0.0
C329 C 0.75949 0.73118 1.01939 0.0
C330 C 0.72742 0.66072 1.00464 0.0
H331 H 0.84602 0.78819 0.05925 0.0
H332 H 0.73552 0.78566 1.00821 0.0
C333 C 0.76215 0.59166 1.01985 0.0
C334 C 0.20536 0.36025 0.05418 0.0
C335 C 0.28603 0.35383 0.07078 0.0
H336 H 0.12165 0.36104 1.00331 0.0
C337 C 0.34545 0.35823 0.04791 0.0
H338 H 0.15793 0.35736 0.07095 0.0
C339 C 0.32449 0.36183 1.00909 0.0
C340 C 0.24367 0.35949 0.99233 0.0
H341 H 0.40808 0.354 0.05984 0.0
H342 H 0.37187 0.36004 0.99226 0.0
C343 C 0.18437 0.36228 1.01533 0.0
loop_
_geom_bond_atom_site_label_1
_geom_bond_atom_site_label_2
_geom_bond_distance
_geom_bond_site_symmetry_2
_ccdc_geom_bond_type
Cu0 N1 1.999 1_655 S
Cu0 O6 1.974 . S
Cu0 N11 1.985 . S
Cu0 O20 1.959 1_655 S
N1 Cu0 1.999 1_455 S
N1 C3 1.263 . S
N1 C5 1.389 . S
N2 C3 1.358 . S
N2 C4 1.400 . S
C3 N1 1.263 . S
C3 N2 1.358 . S
C3 H9 0.930 . S
C4 N2 1.400 . S
C4 C5 1.351 . S
C4 H21 0.930 . S
C5 N1 1.389 . S
C5 C4 1.351 . S
C5 H10 0.930 . S
O6 Cu0 1.974 . S
O6 C16 1.282 . S
C7 O8 1.261 . S
C7 O20 1.251 . S
O8 C7 1.261 . S
H9 C3 0.930 . S
H10 C5 0.930 . S
N11 Cu0 1.985 . S
N11 C13 1.335 . S
N11 C14 1.390 . S
N12 C13 1.345 . S
N12 C15 1.336 . S
C13 N11 1.335 . S
C13 N12 1.345 . S
C13 H18 0.930 . S
C14 N11 1.390 . S
C14 C15 1.346 . S
C14 H19 0.930 . S
C15 N12 1.336 . S
C15 C14 1.346 . S
C15 H22 0.929 . S
C16 O6 1.282 . S
C16 O17 1.216 . S
O17 C16 1.216 . S
H18 C13 0.930 . S
H19 C14 0.930 . S
O20 Cu0 1.959 1_455 S
O20 C7 1.251 . S
H21 C4 0.930 . S
H22 C15 0.929 . S
Cu23 N24 1.999 . S
Cu23 O29 1.974 . S
Cu23 N34 1.985 . S
Cu23 O43 1.959 . S
N24 Cu23 1.999 . S
N24 C26 1.263 . S
N24 C28 1.389 . S
N25 C26 1.358 . S
N25 C27 1.400 . S
C26 N24 1.263 . S
C26 N25 1.358 . S
C26 H32 0.930 . S
C27 N25 1.400 . S
C27 C28 1.351 . S
C27 H44 0.930 . S
C28 N24 1.389 . S
C28 C27 1.351 . S
C28 H33 0.930 . S
O29 Cu23 1.974 . S
O29 C39 1.282 . S
C30 O31 1.261 . S
C30 O43 1.251 . S
O31 C30 1.261 . S
H32 C26 0.930 . S
H33 C28 0.930 . S
N34 Cu23 1.985 . S
N34 C36 1.335 . S
N34 C37 1.390 . S
N35 C36 1.345 . S
N35 C38 1.336 . S
C36 N34 1.335 . S
C36 N35 1.345 . S
C36 H41 0.930 . S
C37 N34 1.390 . S
C37 C38 1.346 . S
C37 H42 0.930 . S
C38 N35 1.336 . S
C38 C37 1.346 . S
C38 H45 0.929 . S
C39 O29 1.282 . S
C39 O40 1.216 . S
O40 C39 1.216 . S
H41 C36 0.930 . S
H42 C37 0.930 . S
O43 Cu23 1.959 . S
O43 C30 1.251 . S
H44 C27 0.930 . S
H45 C38 0.929 . S
Cu46 N47 1.999 . S
Cu46 O52 1.974 . S
Cu46 N57 1.985 . S
Cu46 O66 1.959 . S
N47 Cu46 1.999 . S
N47 C49 1.263 . S
N47 C51 1.389 . S
N48 C49 1.358 . S
N48 C50 1.400 . S
C49 N47 1.263 . S
C49 N48 1.358 . S
C49 H55 0.930 . S
C50 N48 1.400 . S
C50 C51 1.351 . S
C50 H67 0.930 . S
C51 N47 1.389 . S
C51 C50 1.351 . S
C51 H56 0.930 . S
O52 Cu46 1.974 . S
O52 C62 1.282 1_655 S
C53 O54 1.261 . S
C53 O66 1.251 . S
O54 C53 1.261 . S
H55 C49 0.930 . S
H56 C51 0.930 . S
N57 Cu46 1.985 . S
N57 C59 1.335 . S
N57 C60 1.390 1_655 S
N58 C59 1.345 1_455 S
N58 C61 1.336 . S
C59 N57 1.335 . S
C59 N58 1.345 1_655 S
C59 H64 0.930 . S
C60 N57 1.390 1_455 S
C60 C61 1.346 . S
C60 H65 0.930 . S
C61 N58 1.336 . S
C61 C60 1.346 . S
C61 H68 0.929 . S
C62 O52 1.282 1_455 S
C62 O63 1.216 . S
O63 C62 1.216 . S
H64 C59 0.930 . S
H65 C60 0.930 . S
O66 Cu46 1.959 . S
O66 C53 1.251 . S
H67 C50 0.930 . S
H68 C61 0.929 . S
Cu69 N70 1.999 . S
Cu69 O75 1.974 . S
Cu69 N80 1.985 . S
Cu69 O89 1.959 . S
N70 Cu69 1.999 . S
N70 C72 1.263 . S
N70 C74 1.389 . S
N71 C72 1.358 . S
N71 C73 1.400 . S
C72 N70 1.263 . S
C72 N71 1.358 . S
C72 H78 0.930 . S
C73 N71 1.400 . S
C73 C74 1.351 . S
C73 H90 0.930 . S
C74 N70 1.389 . S
C74 C73 1.351 . S
C74 H79 0.930 . S
O75 Cu69 1.974 . S
O75 C85 1.282 . S
C76 O77 1.261 . S
C76 O89 1.251 . S
O77 C76 1.261 . S
H78 C72 0.930 . S
H79 C74 0.930 . S
N80 Cu69 1.985 . S
N80 C82 1.335 . S
N80 C83 1.390 . S
N81 C82 1.345 . S
N81 C84 1.336 . S
C82 N80 1.335 . S
C82 N81 1.345 . S
C82 H87 0.930 . S
C83 N80 1.390 . S
C83 C84 1.346 . S
C83 H88 0.930 . S
C84 N81 1.336 . S
C84 C83 1.346 . S
C84 H91 0.929 . S
C85 O75 1.282 . S
C85 O86 1.216 . S
O86 C85 1.216 . S
H87 C82 0.930 . S
H88 C83 0.930 . S
O89 Cu69 1.959 . S
O89 C76 1.251 . S
H90 C73 0.930 . S
H91 C84 0.929 . S
Cu92 N93 1.999 . S
Cu92 O98 1.974 . S
Cu92 N103 1.985 . S
Cu92 O112 1.959 . S
N93 Cu92 1.999 . S
N93 C95 1.263 . S
N93 C97 1.389 . S
N94 C95 1.358 . S
N94 C96 1.400 . S
C95 N93 1.263 . S
C95 N94 1.358 . S
C95 H101 0.930 . S
C96 N94 1.400 . S
C96 C97 1.351 . S
C96 H113 0.930 . S
C97 N93 1.389 . S
C97 C96 1.351 . S
C97 H102 0.930 . S
O98 Cu92 1.974 . S
O98 C108 1.282 . S
C99 O100 1.261 . S
C99 O112 1.251 . S
O100 C99 1.261 . S
H101 C95 0.930 . S
H102 C97 0.930 . S
N103 Cu92 1.985 . S
N103 C105 1.335 . S
N103 C106 1.390 . S
N104 C105 1.345 . S
N104 C107 1.336 . S
C105 N103 1.335 . S
C105 N104 1.345 . S
C105 H110 0.930 . S
C106 N103 1.390 . S
C106 C107 1.346 . S
C106 H111 0.930 . S
C107 N104 1.336 . S
C107 C106 1.346 . S
C107 H114 0.929 . S
C108 O98 1.282 . S
C108 O109 1.216 . S
O109 C108 1.216 . S
H110 C105 0.930 . S
H111 C106 0.930 . S
O112 Cu92 1.959 . S
O112 C99 1.251 . S
H113 C96 0.930 . S
H114 C107 0.929 . S
Cu115 N116 1.999 1_455 S
Cu115 O121 1.974 . S
Cu115 N126 1.985 . S
Cu115 O135 1.959 1_455 S
N116 Cu115 1.999 1_655 S
N116 C118 1.263 . S
N116 C120 1.389 . S
N117 C118 1.358 . S
N117 C119 1.400 . S
C118 N116 1.263 . S
C118 N117 1.358 . S
C118 H124 0.930 . S
C119 N117 1.400 . S
C119 C120 1.351 . S
C119 H136 0.930 . S
C120 N116 1.389 . S
C120 C119 1.351 . S
C120 H125 0.930 . S
O121 Cu115 1.974 . S
O121 C131 1.282 . S
C122 O123 1.261 . S
C122 O135 1.251 . S
O123 C122 1.261 . S
H124 C118 0.930 . S
H125 C120 0.930 . S
N126 Cu115 1.985 . S
N126 C128 1.335 . S
N126 C129 1.390 . S
N127 C128 1.345 . S
N127 C130 1.336 . S
C128 N126 1.335 . S
C128 N127 1.345 . S
C128 H133 0.930 . S
C129 N126 1.390 . S
C129 C130 1.346 . S
C129 H134 0.930 . S
C130 N127 1.336 . S
C130 C129 1.346 . S
C130 H137 0.929 . S
C131 O121 1.282 . S
C131 O132 1.216 . S
O132 C131 1.216 . S
H133 C128 0.930 . S
H134 C129 0.930 . S
O135 Cu115 1.959 1_655 S
O135 C122 1.251 . S
H136 C119 0.930 . S
H137 C130 0.929 . S
Cu138 N139 1.999 . S
Cu138 O144 1.974 . S
Cu138 N149 1.985 . S
Cu138 O158 1.959 . S
N139 Cu138 1.999 . S
N139 C141 1.263 . S
N139 C143 1.389 . S
N140 C141 1.358 . S
N140 C142 1.400 . S
C141 N139 1.263 . S
C141 N140 1.358 . S
C141 H147 0.930 . S
C142 N140 1.400 . S
C142 C143 1.351 . S
C142 H159 0.930 . S
C143 N139 1.389 . S
C143 C142 1.351 . S
C143 H148 0.930 . S
O144 Cu138 1.974 . S
O144 C154 1.282 . S
C145 O146 1.261 . S
C145 O158 1.251 . S
O146 C145 1.261 . S
H147 C141 0.930 . S
H148 C143 0.930 . S
N149 Cu138 1.985 . S
N149 C151 1.335 . S
N149 C152 1.390 . S
N150 C151 1.345 . S
N150 C153 1.336 . S
C151 N149 1.335 . S
C151 N150 1.345 . S
C151 H156 0.930 . S
C152 N149 1.390 . S
C152 C153 1.346 . S
C152 H157 0.930 . S
C153 N150 1.336 . S
C153 C152 1.346 . S
C153 H160 0.929 . S
C154 O144 1.282 . S
C154 O155 1.216 . S
O155 C154 1.216 . S
H156 C151 0.930 . S
H157 C152 0.930 . S
O158 Cu138 1.959 . S
O158 C145 1.251 . S
H159 C142 0.930 . S
H160 C153 0.929 . S
Cu161 N162 1.999 . S
Cu161 O167 1.974 . S
Cu161 N172 1.985 . S
Cu161 O181 1.959 . S
N162 Cu161 1.999 . S
N162 C164 1.263 . S
N162 C166 1.389 . S
N163 C164 1.358 . S
N163 C165 1.400 . S
C164 N162 1.263 . S
C164 N163 1.358 . S
C164 H170 0.930 . S
C165 N163 1.400 . S
C165 C166 1.351 . S
C165 H182 0.930 . S
C166 N162 1.389 . S
C166 C165 1.351 . S
C166 H171 0.930 . S
O167 Cu161 1.974 . S
O167 C177 1.282 1_455 S
C168 O169 1.261 . S
C168 O181 1.251 . S
O169 C168 1.261 . S
H170 C164 0.930 . S
H171 C166 0.930 . S
N172 Cu161 1.985 . S
N172 C174 1.335 . S
N172 C175 1.390 1_455 S
N173 C174 1.345 1_655 S
N173 C176 1.336 . S
C174 N172 1.335 . S
C174 N173 1.345 1_455 S
C174 H179 0.930 . S
C175 N172 1.390 1_655 S
C175 C176 1.346 . S
C175 H180 0.930 . S
C176 N173 1.336 . S
C176 C175 1.346 . S
C176 H183 0.929 . S
C177 O167 1.282 1_655 S
C177 O178 1.216 . S
O178 C177 1.216 . S
H179 C174 0.930 . S
H180 C175 0.930 . S
O181 Cu161 1.959 . S
O181 C168 1.251 . S
H182 C165 0.930 . S
H183 C176 0.929 . S
C184 C185 1.387 1_455 S
C184 H188 0.950 . S
C184 C193 1.390 . S
C185 C184 1.387 1_655 S
C185 C187 1.387 . S
H186 C193 0.950 . S
C187 C185 1.387 . S
C187 C189 1.390 . S
C187 H191 0.950 . S
H188 C184 0.950 . S
C189 C187 1.390 . S
C189 C190 1.387 . S
C189 H192 0.950 . S
C190 C189 1.387 . S
C190 C193 1.387 1_655 S
H191 C187 0.950 . S
H192 C189 0.950 . S
C193 C184 1.390 . S
C193 H186 0.950 . S
C193 C190 1.387 1_455 S
C194 C195 1.387 . S
C194 H198 0.950 . S
C194 C203 1.390 . S
C195 C194 1.387 . S
C195 C197 1.387 . S
H196 C203 0.950 . S
C197 C195 1.387 . S
C197 C199 1.390 . S
C197 H201 0.950 . S
H198 C194 0.950 . S
C199 C197 1.390 . S
C199 C200 1.387 . S
C199 H202 0.950 . S
C200 C199 1.387 . S
C200 C203 1.387 . S
H201 C197 0.950 . S
H202 C199 0.950 . S
C203 C194 1.390 . S
C203 H196 0.950 . S
C203 C200 1.387 . S
C204 C205 1.387 . S
C204 H208 0.950 . S
C204 C213 1.390 1_545 S
C205 C204 1.387 . S
C205 C207 1.387 . S
H206 C213 0.950 . S
C207 C205 1.387 . S
C207 C209 1.390 1_545 S
C207 H211 0.950 1_556 S
H208 C204 0.950 . S
C209 C207 1.390 1_565 S
C209 C210 1.387 . S
C209 H212 0.950 . S
C210 C209 1.387 . S
C210 C213 1.387 . S
H211 C207 0.950 1_554 S
H212 C209 0.950 . S
C213 C204 1.390 1_565 S
C213 H206 0.950 . S
C213 C210 1.387 . S
C214 C215 1.387 1_655 S
C214 H218 0.950 . S
C214 C223 1.390 1_565 S
C215 C214 1.387 1_455 S
C215 C217 1.387 . S
H216 C223 0.950 . S
C217 C215 1.387 . S
C217 C219 1.390 1_554 S
C217 H221 0.950 . S
H218 C214 0.950 . S
C219 C217 1.390 1_556 S
C219 C220 1.387 1_566 S
C219 H222 0.950 . S
C220 C219 1.387 1_544 S
C220 C223 1.387 1_455 S
H221 C217 0.950 . S
H222 C219 0.950 . S
C223 C214 1.390 1_545 S
C223 H216 0.950 . S
C223 C220 1.387 1_655 S
C224 C225 1.387 . S
C224 H228 0.950 . S
C224 C233 1.390 . S
C225 C224 1.387 . S
C225 C227 1.387 . S
H226 C233 0.950 . S
C227 C225 1.387 . S
C227 C229 1.390 . S
C227 H231 0.950 . S
H228 C224 0.950 . S
C229 C227 1.390 . S
C229 C230 1.387 . S
C229 H232 0.950 . S
C230 C229 1.387 . S
C230 C233 1.387 . S
H231 C227 0.950 . S
H232 C229 0.950 . S
C233 C224 1.390 . S
C233 H226 0.950 . S
C233 C230 1.387 . S
C234 C235 1.387 . S
C234 H238 0.950 . S
C234 C243 1.390 . S
C235 C234 1.387 . S
C235 C237 1.387 . S
H236 C243 0.950 . S
C237 C235 1.387 . S
C237 C239 1.390 . S
C237 H241 0.950 . S
H238 C234 0.950 . S
C239 C237 1.390 . S
C239 C240 1.387 . S
C239 H242 0.950 . S
C240 C239 1.387 . S
C240 C243 1.387 . S
H241 C237 0.950 . S
H242 C239 0.950 . S
C243 C234 1.390 . S
C243 H236 0.950 . S
C243 C240 1.387 . S
C244 C245 1.387 . S
C244 H248 0.950 . S
C244 C253 1.390 . S
C245 C244 1.387 . S
C245 C247 1.387 . S
H246 C253 0.950 . S
C247 C245 1.387 . S
C247 C249 1.390 . S
C247 H251 0.950 . S
H248 C244 0.950 . S
C249 C247 1.390 . S
C249 C250 1.387 . S
C249 H252 0.950 . S
C250 C249 1.387 . S
C250 C253 1.387 . S
H251 C247 0.950 . S
H252 C249 0.950 . S
C253 C244 1.390 . S
C253 H246 0.950 . S
C253 C250 1.387 . S
C254 C255 1.387 . S
C254 H258 0.950 . S
C254 C263 1.390 . S
C255 C254 1.387 . S
C255 C257 1.387 . S
H256 C263 0.950 . S
C257 C255 1.387 . S
C257 C259 1.390 . S
C257 H261 0.950 . S
H258 C254 0.950 . S
C259 C257 1.390 . S
C259 C260 1.387 . S
C259 H262 0.950 . S
C260 C259 1.387 . S
C260 C263 1.387 . S
H261 C257 0.950 . S
H262 C259 0.950 . S
C263 C254 1.390 . S
C263 H256 0.950 . S
C263 C260 1.387 . S
C264 C265 1.387 . S
C264 H268 0.950 . S
C264 C273 1.390 . S
C265 C264 1.387 . S
C265 C267 1.387 . S
H266 C273 0.950 . S
C267 C265 1.387 . S
C267 C269 1.390 . S
C267 H271 0.950 . S
H268 C264 0.950 . S
C269 C267 1.390 . S
C269 C270 1.387 . S
C269 H272 0.950 . S
C270 C269 1.387 . S
C270 C273 1.387 . S
H271 C267 0.950 . S
H272 C269 0.950 . S
C273 C264 1.390 . S
C273 H266 0.950 . S
C273 C270 1.387 . S
C274 C275 1.387 . S
C274 H278 0.950 . S
C274 C283 1.390 . S
C275 C274 1.387 . S
C275 C277 1.387 . S
H276 C283 0.950 . S
C277 C275 1.387 . S
C277 C279 1.390 . S
C277 H281 0.950 . S
H278 C274 0.950 . S
C279 C277 1.390 . S
C279 C280 1.387 . S
C279 H282 0.950 . S
C280 C279 1.387 . S
C280 C283 1.387 . S
H281 C277 0.950 . S
H282 C279 0.950 . S
C283 C274 1.390 . S
C283 H276 0.950 . S
C283 C280 1.387 . S
C284 C285 1.387 . S
C284 H288 0.950 . S
C284 C293 1.390 . S
C285 C284 1.387 . S
C285 C287 1.387 . S
H286 C293 0.950 . S
C287 C285 1.387 . S
C287 C289 1.390 . S
C287 H291 0.950 . S
H288 C284 0.950 . S
C289 C287 1.390 . S
C289 C290 1.387 . S
C289 H292 0.950 . S
C290 C289 1.387 . S
C290 C293 1.387 . S
H291 C287 0.950 . S
H292 C289 0.950 . S
C293 C284 1.390 . S
C293 H286 0.950 . S
C293 C290 1.387 . S
C294 C295 1.387 . S
C294 H298 0.950 . S
C294 C303 1.390 . S
C295 C294 1.387 . S
C295 C297 1.387 . S
H296 C303 0.950 . S
C297 C295 1.387 . S
C297 C299 1.390 . S
C297 H301 0.950 . S
H298 C294 0.950 . S
C299 C297 1.390 . S
C299 C300 1.387 . S
C299 H302 0.950 . S
C300 C299 1.387 . S
C300 C303 1.387 . S
H301 C297 0.950 . S
H302 C299 0.950 . S
C303 C294 1.390 . S
C303 H296 0.950 . S
C303 C300 1.387 . S
C304 C305 1.387 . S
C304 H308 0.950 . S
C304 C313 1.390 . S
C305 C304 1.387 . S
C305 C307 1.387 . S
H306 C313 0.950 . S
C307 C305 1.387 . S
C307 C309 1.390 . S
C307 H311 0.950 . S
H308 C304 0.950 . S
C309 C307 1.390 . S
C309 C310 1.387 . S
C309 H312 0.950 . S
C310 C309 1.387 . S
C310 C313 1.387 . S
H311 C307 0.950 . S
H312 C309 0.950 . S
C313 C304 1.390 . S
C313 H306 0.950 . S
C313 C310 1.387 . S
C314 C315 1.387 . S
C314 H318 0.950 . S
C314 C323 1.390 . S
C315 C314 1.387 . S
C315 C317 1.387 . S
H316 C323 0.950 . S
C317 C315 1.387 . S
C317 C319 1.390 . S
C317 H321 0.950 . S
H318 C314 0.950 . S
C319 C317 1.390 . S
C319 C320 1.387 . S
C319 H322 0.950 . S
C320 C319 1.387 . S
C320 C323 1.387 . S
H321 C317 0.950 . S
H322 C319 0.950 . S
C323 C314 1.390 . S
C323 H316 0.950 . S
C323 C320 1.387 . S
C324 C325 1.387 . S
C324 H328 0.950 . S
C324 C333 1.390 1_554 S
C325 C324 1.387 . S
C325 C327 1.387 . S
H326 C333 0.950 . S
C327 C325 1.387 . S
C327 C329 1.390 1_554 S
C327 H331 0.950 . S
H328 C324 0.950 . S
C329 C327 1.390 1_556 S
C329 C330 1.387 . S
C329 H332 0.950 . S
C330 C329 1.387 . S
C330 C333 1.387 . S
H331 C327 0.950 . S
H332 C329 0.950 . S
C333 C324 1.390 1_556 S
C333 H326 0.950 . S
C333 C330 1.387 . S
C334 C335 1.387 . S
C334 H338 0.950 . S
C334 C343 1.390 1_554 S
C335 C334 1.387 . S
C335 C337 1.387 . S
H336 C343 0.950 . S
C337 C335 1.387 . S
C337 C339 1.390 1_554 S
C337 H341 0.950 . S
H338 C334 0.950 . S
C339 C337 1.390 1_556 S
C339 C340 1.387 . S
C339 H342 0.950 . S
C340 C339 1.387 . S
C340 C343 1.387 . S
H341 C337 0.950 . S
H342 C339 0.950 . S
C343 C334 1.390 1_556 S
C343 H336 0.950 . S
C343 C340 1.387 . S
C185 C16 1.731 . S
C190 N58 1.851 1_655 S
C195 N81 1.850 . S
C200 C39 1.730 . S
C205 N150 1.852 1_556 S
C210 C108 1.732 . S
C215 C131 1.732 . S
C220 N173 1.851 1_454 S
C225 C154 1.761 . S
C230 N12 1.738 . S
C235 N35 1.736 . S
C240 C177 1.759 . S
C245 C62 1.759 . S
C250 N104 1.736 . S
C255 C85 1.761 . S
C260 N127 1.738 . S
C265 N140 1.770 . S
C270 C7 1.932 . S
C275 C30 1.930 . S
C280 N163 1.768 . S
C285 C99 1.931 . S
C290 N48 1.770 . S
C295 C122 1.931 . S
C300 N71 1.769 . S
C305 N25 1.038 . S
C310 N2 1.038 . S
C315 C53 0.832 . S
C320 C76 0.832 . S
C325 N117 1.036 . S
C330 N94 1.036 . S
C335 C145 0.832 . S
C340 C168 0.832 . S
