# Generated by pormake.
# Topology sol, (6)-cn, num edge types: 1
# Building blocks:
#     Node 0, Type 0, BuildingBlock: OJICUG_clean_sbu_0, # of connection points: 6
#     Node 1, Type 0, BuildingBlock: OJICUG_clean_sbu_0, # of connection points: 6
#     Node 2, Type 0, BuildingBlock: OJICUG_clean_sbu_0, # of connection points: 6
#     Node 3, Type 0, BuildingBlock: OJICUG_clean_sbu_0, # of connection points: 6
#     Node 4, Type 0, BuildingBlock: OJICUG_clean_sbu_0, # of connection points: 6
#     Node 5, Type 0, BuildingBlock: OJICUG_clean_sbu_0, # of connection points: 6
#     Node 6, Type 0, BuildingBlock: OJICUG_clean_sbu_0, # of connection points: 6
#     Node 7, Type 0, BuildingBlock: OJICUG_clean_sbu_0, # of connection points: 6
#     Edge 8, Type (0, 0), BuildingBlock: UVAHIK_clean_linker_0, # of connection points: 2
#     Edge 9, Type (0, 0), BuildingBlock: UVAHIK_clean_linker_0, # of connection points: 2
#     Edge 10, Type (0, 0), BuildingBlock: UVAHIK_clean_linker_0, # of connection points: 2
#     Edge 11, Type (0, 0), BuildingBlock: UVAHIK_clean_linker_0, # of connection points: 2
#     Edge 12, Type (0, 0), BuildingBlock: UVAHIK_clean_linker_0, # of connection points: 2
#     Edge 13, Type (0, 0), BuildingBlock: UVAHIK_clean_linker_0, # of connection points: 2
#     Edge 14, Type (0, 0), BuildingBlock: UVAHIK_clean_linker_0, # of connection points: 2
#     Edge 15, Type (0, 0), BuildingBlock: UVAHIK_clean_linker_0, # of connection points: 2
#     Edge 16, Type (0, 0), BuildingBlock: UVAHIK_clean_linker_0, # of connection points: 2
#     Edge 17, Type (0, 0), BuildingBlock: UVAHIK_clean_linker_0, # of connection points: 2
#     Edge 18, Type (0, 0), BuildingBlock: UVAHIK_clean_linker_0, # of connection points: 2
#     Edge 19, Type (0, 0), BuildingBlock: UVAHIK_clean_linker_0, # of connection points: 2
#     Edge 20, Type (0, 0), BuildingBlock: UVAHIK_clean_linker_0, # of connection points: 2
#     Edge 21, Type (0, 0), BuildingBlock: UVAHIK_clean_linker_0, # of connection points: 2
#     Edge 22, Type (0, 0), BuildingBlock: UVAHIK_clean_linker_0, # of connection points: 2
#     Edge 23, Type (0, 0), BuildingBlock: UVAHIK_clean_linker_0, # of connection points: 2
#     Edge 24, Type (0, 0), BuildingBlock: UVAHIK_clean_linker_0, # of connection points: 2
#     Edge 25, Type (0, 0), BuildingBlock: UVAHIK_clean_linker_0, # of connection points: 2
#     Edge 26, Type (0, 0), BuildingBlock: UVAHIK_clean_linker_0, # of connection points: 2
#     Edge 27, Type (0, 0), BuildingBlock: UVAHIK_clean_linker_0, # of connection points: 2
#     Edge 28, Type (0, 0), BuildingBlock: UVAHIK_clean_linker_0, # of connection points: 2
#     Edge 29, Type (0, 0), BuildingBlock: UVAHIK_clean_linker_0, # of connection points: 2
#     Edge 30, Type (0, 0), BuildingBlock: UVAHIK_clean_linker_0, # of connection points: 2
#     Edge 31, Type (0, 0), BuildingBlock: UVAHIK_clean_linker_0, # of connection points: 2
# Relax obj value: 0.163
# Max RMSD: 0.156
# Mean RMSD: 0.156
data_MOF--net-sol--node1-OJICUG_clean_sbu_0--edge1-UVAHIK_clean_linker_0
_symmetry_space_group_name_H-M    P1
_symmetry_Int_Tables_number       1
_symmetry_cell_setting            triclinic
loop_
_symmetry_equiv_pos_as_xyz
'x, y, z'
_cell_length_a     43.931737
_cell_length_b     35.534802
_cell_length_c     38.612715
_cell_angle_alpha  89.965108
_cell_angle_beta   89.955948
_cell_angle_gamma 89.955725
loop_
_atom_site_label
_atom_site_type_symbol
_atom_site_fract_x
_atom_site_fract_y
_atom_site_fract_z
_atom_type_partial_charge
Sc0 Sc 0.19735 0.22787 0.0648 0.0
Sc1 Sc 0.12026 0.21717 0.0431 0.0
Sc2 Sc 0.15588 0.15319 0.10016 0.0
O3 O 0.15784 0.1991 0.06917 0.0
C4 C 0.22016 0.14373 0.06184 0.0
C5 C 0.17124 0.22979 0.98694 0.0
C6 C 0.1116 0.12759 0.03957 0.0
C7 C 0.15008 0.29403 0.06815 0.0
C8 C 0.2002 0.20474 0.14472 0.0
C9 C 0.09431 0.19749 0.11797 0.0
O10 O 0.2225 0.17788 0.05237 0.0
O11 O 0.14446 0.2184 0.9941 0.0
O12 O 0.13131 0.12015 0.06266 0.0
O13 O 0.17506 0.2794 0.07764 0.0
O14 O 0.1796 0.17984 0.14237 0.0
O15 O 0.09379 0.21752 0.09053 0.0
O16 O 0.20964 0.22313 0.11866 0.0
O17 O 0.12969 0.27618 0.05165 0.0
O18 O 0.1142 0.17211 0.12344 0.0
O19 O 0.19094 0.23692 0.01016 0.0
O20 O 0.19804 0.13122 0.07986 0.0
O21 O 0.10488 0.16108 0.03087 0.0
Sc22 Sc 0.34095 0.33041 0.6006 0.0
Sc23 Sc 0.37603 0.26721 0.54253 0.0
Sc24 Sc 0.29883 0.25626 0.56451 0.0
O25 O 0.33856 0.28487 0.56906 0.0
C26 C 0.29675 0.27747 0.64479 0.0
C27 C 0.40208 0.28514 0.61771 0.0
C28 C 0.34581 0.18923 0.56474 0.0
C29 C 0.3857 0.35653 0.54028 0.0
C30 C 0.27644 0.34117 0.56373 0.0
C31 C 0.32449 0.25644 0.48637 0.0
O32 O 0.31646 0.30347 0.64223 0.0
O33 O 0.40285 0.2662 0.58966 0.0
O34 O 0.32054 0.20321 0.57418 0.0
O35 O 0.36656 0.364 0.56402 0.0
O36 O 0.27342 0.30693 0.55482 0.0
O37 O 0.35162 0.26637 0.49368 0.0
O38 O 0.29932 0.35358 0.58042 0.0
O39 O 0.39141 0.32313 0.53063 0.0
O40 O 0.30447 0.24999 0.50945 0.0
O41 O 0.38204 0.31013 0.62387 0.0
O42 O 0.28782 0.25853 0.61886 0.0
O43 O 0.36667 0.20845 0.55046 0.0
Sc44 Sc 0.65945 0.32747 0.93178 0.0
Sc45 Sc 0.6216 0.25999 0.9831 0.0
Sc46 Sc 0.70076 0.25306 0.96821 0.0
O47 O 0.66059 0.28036 0.96123 0.0
C48 C 0.70884 0.2793 0.88983 0.0
C49 C 0.60163 0.28095 0.90584 0.0
C50 C 0.65516 0.18537 0.95835 0.0
C51 C 0.60913 0.34849 0.98817 0.0
C52 C 0.71936 0.33868 0.97736 0.0
C53 C 0.66931 0.24791 0.04352 0.0
O54 O 0.68902 0.30515 0.89231 0.0
O55 O 0.59841 0.26187 0.93362 0.0
O56 O 0.68082 0.2008 0.95362 0.0
O57 O 0.62916 0.35713 0.96586 0.0
O58 O 0.72416 0.30382 0.98242 0.0
O59 O 0.64245 0.25648 0.03388 0.0
O60 O 0.69703 0.35138 0.95982 0.0
O61 O 0.60398 0.31468 0.99706 0.0
O62 O 0.69131 0.24374 0.02238 0.0
O63 O 0.622 0.3061 0.90207 0.0
O64 O 0.71573 0.25819 0.91516 0.0
O65 O 0.63252 0.20197 0.97191 0.0
Sc66 Sc 0.83472 0.15746 0.42922 0.0
Sc67 Sc 0.87191 0.22234 0.48345 0.0
Sc68 Sc 0.79253 0.22947 0.46827 0.0
O69 O 0.83312 0.20314 0.46047 0.0
C70 C 0.78628 0.20929 0.38883 0.0
C71 C 0.89228 0.20543 0.40524 0.0
C72 C 0.83766 0.29936 0.46711 0.0
C73 C 0.88533 0.13412 0.48466 0.0
C74 C 0.77388 0.14271 0.47047 0.0
C75 C 0.8224 0.22864 0.54411 0.0
O76 O 0.8038 0.18103 0.3918 0.0
O77 O 0.89617 0.2219 0.43431 0.0
O78 O 0.81155 0.28461 0.46375 0.0
O79 O 0.86632 0.12678 0.46091 0.0
O80 O 0.76804 0.17747 0.47433 0.0
O81 O 0.84998 0.2248 0.53411 0.0
O82 O 0.79822 0.13052 0.45661 0.0
O83 O 0.88916 0.16718 0.49632 0.0
O84 O 0.80002 0.23049 0.52323 0.0
O85 O 0.87114 0.18167 0.39988 0.0
O86 O 0.78097 0.2316 0.41384 0.0
O87 O 0.86146 0.28056 0.47387 0.0
Sc88 Sc 0.80122 0.75341 0.93599 0.0
Sc89 Sc 0.88 0.75194 0.95572 0.0
Sc90 Sc 0.8527 0.80525 0.88527 0.0
O91 O 0.84461 0.77025 0.9258 0.0
C92 C 0.80135 0.75121 0.8535 0.0
C93 C 0.83861 0.67863 0.953 0.0
C94 C 0.90661 0.74569 0.87915 0.0
C95 C 0.82801 0.76829 0.01199 0.0
C96 C 0.79135 0.83935 0.91498 0.0
C97 C 0.90055 0.8366 0.94063 0.0
O98 O 0.79103 0.73958 0.88241 0.0
O99 O 0.86396 0.69503 0.95728 0.0
O100 O 0.88848 0.76997 0.86672 0.0
O101 O 0.80626 0.76553 0.99037 0.0
O102 O 0.81658 0.84289 0.89918 0.0
O103 O 0.90098 0.80651 0.95839 0.0
O104 O 0.78281 0.80893 0.92925 0.0
O105 O 0.8559 0.76441 0.00346 0.0
O106 O 0.88405 0.84042 0.9138 0.0
O107 O 0.81437 0.69595 0.94467 0.0
O108 O 0.82293 0.77484 0.85126 0.0
O109 O 0.90731 0.73661 0.91104 0.0
Sc110 Sc 0.70279 0.73015 0.43319 0.0
Sc111 Sc 0.62513 0.71989 0.45417 0.0
Sc112 Sc 0.65881 0.66283 0.38978 0.0
O113 O 0.66226 0.70408 0.42592 0.0
C114 C 0.70526 0.71939 0.35188 0.0
C115 C 0.65783 0.799 0.44365 0.0
C116 C 0.60144 0.71581 0.37597 0.0
C117 C 0.67768 0.71758 0.51089 0.0
C118 C 0.7221 0.64364 0.42408 0.0
C119 C 0.61083 0.63235 0.44552 0.0
O120 O 0.7116 0.73848 0.37872 0.0
O121 O 0.63567 0.77864 0.453 0.0
O122 O 0.62122 0.69163 0.36671 0.0
O123 O 0.69828 0.72463 0.48853 0.0
O124 O 0.69732 0.63296 0.41011 0.0
O125 O 0.60789 0.66394 0.46033 0.0
O126 O 0.7273 0.67757 0.43282 0.0
O127 O 0.64967 0.7135 0.50283 0.0
O128 O 0.62878 0.62741 0.42011 0.0
O129 O 0.6832 0.78556 0.43396 0.0
O130 O 0.68776 0.69098 0.35282 0.0
O131 O 0.59893 0.72823 0.4069 0.0
Sc132 Sc 0.34172 0.67937 0.09946 0.0
Sc133 Sc 0.37233 0.72461 0.02603 0.0
Sc134 Sc 0.29316 0.72942 0.04384 0.0
O135 O 0.33571 0.71102 0.05627 0.0
C136 C 0.27924 0.64667 0.07086 0.0
C137 C 0.38855 0.63999 0.04747 0.0
C138 C 0.3208 0.70824 0.96939 0.0
C139 C 0.39873 0.73454 0.10247 0.0
C140 C 0.29237 0.73881 0.12607 0.0
C141 C 0.33397 0.80064 0.02443 0.0
O142 O 0.3036 0.644 0.08836 0.0
O143 O 0.391 0.66855 0.0278 0.0
O144 O 0.29903 0.71424 0.99042 0.0
O145 O 0.37945 0.71237 0.11589 0.0
O146 O 0.2821 0.747 0.09619 0.0
O147 O 0.3586 0.78233 0.02099 0.0
O148 O 0.3138 0.7154 0.13074 0.0
O149 O 0.39978 0.74158 0.07015 0.0
O150 O 0.30889 0.78548 0.03314 0.0
O151 O 0.3711 0.63943 0.07377 0.0
O152 O 0.27247 0.67532 0.05273 0.0
O153 O 0.3487 0.71012 0.97834 0.0
Sc154 Sc 0.20826 0.75592 0.54234 0.0
Sc155 Sc 0.12913 0.7631 0.52571 0.0
Sc156 Sc 0.16282 0.8165 0.59207 0.0
O157 O 0.1667 0.77849 0.55325 0.0
C158 C 0.21071 0.75748 0.62419 0.0
C159 C 0.16519 0.68547 0.52828 0.0
C160 C 0.10616 0.76204 0.60426 0.0
C161 C 0.18022 0.77364 0.46728 0.0
C162 C 0.22491 0.84162 0.55813 0.0
C163 C 0.11363 0.8497 0.53951 0.0
O164 O 0.21811 0.74177 0.5958 0.0
O165 O 0.14102 0.70454 0.52467 0.0
O166 O 0.126 0.78556 0.6145 0.0
O167 O 0.20228 0.76816 0.48813 0.0
O168 O 0.19978 0.84988 0.57259 0.0
O169 O 0.11072 0.81922 0.52272 0.0
O170 O 0.23158 0.80871 0.54784 0.0
O171 O 0.15235 0.77282 0.47676 0.0
O172 O 0.13193 0.853 0.56473 0.0
O173 O 0.19081 0.70016 0.53506 0.0
O174 O 0.19249 0.78521 0.62574 0.0
O175 O 0.10367 0.7516 0.57277 0.0
C176 C 0.05156 0.2354 0.14426 0.0
C177 C 0.07208 0.20503 0.14605 0.0
C178 C 0.03225 0.24348 0.1722 0.0
C179 C 0.98196 0.23688 0.22735 0.0
H180 H 0.0136 0.22381 0.3204 0.0
C181 C 0.90608 0.19997 0.34266 0.0
C182 C 0.91271 0.21432 0.37577 0.0
C183 C 0.92524 0.20719 0.3147 0.0
C184 C 0.00447 0.22828 0.29468 0.0
H185 H 0.08773 0.15887 0.1785 0.0
H186 H 0.05411 0.17269 0.22648 0.0
H187 H 0.04817 0.22116 0.2711 0.0
H188 H 0.94446 0.24848 0.40508 0.0
H189 H 0.97821 0.261 0.35592 0.0
H190 H 0.93817 0.24341 0.25094 0.0
C191 C 0.05332 0.19077 0.2039 0.0
C192 C 0.02422 0.22631 0.26639 0.0
C193 C 0.07243 0.18264 0.17612 0.0
C194 C 0.93877 0.23682 0.38 0.0
C195 C 0.95811 0.24394 0.35188 0.0
C196 C 0.96219 0.23885 0.25566 0.0
C197 C 0.03325 0.22147 0.20247 0.0
C198 C 0.01302 0.22935 0.23239 0.0
C199 C 0.95161 0.22896 0.31898 0.0
C200 C 0.9731 0.23337 0.28956 0.0
H201 H 0.05074 0.25329 0.12156 0.0
H202 H 0.01696 0.26732 0.17038 0.0
H203 H 0.97266 0.23936 0.20147 0.0
H204 H 0.88615 0.18271 0.33823 0.0
H205 H 0.91983 0.19465 0.2899 0.0
C206 C 0.44766 0.25027 0.64131 0.0
C207 C 0.42421 0.27686 0.64565 0.0
C208 C 0.46745 0.24197 0.66873 0.0
C209 C 0.51646 0.25236 0.72509 0.0
H210 H 0.48335 0.24802 0.81824 0.0
C211 C 0.58586 0.29254 0.84454 0.0
C212 C 0.58169 0.27286 0.87582 0.0
C213 C 0.56777 0.28477 0.81582 0.0
C214 C 0.49301 0.24845 0.79242 0.0
H215 H 0.40339 0.31559 0.68234 0.0
H216 H 0.43772 0.30134 0.72939 0.0
H217 H 0.44902 0.24831 0.76874 0.0
H218 H 0.55535 0.22906 0.90109 0.0
H219 H 0.52353 0.21564 0.8507 0.0
H220 H 0.56046 0.25332 0.74886 0.0
C221 C 0.44063 0.28648 0.70511 0.0
C222 C 0.47334 0.24899 0.76408 0.0
C223 C 0.42111 0.29493 0.67787 0.0
C224 C 0.55905 0.24495 0.87752 0.0
C225 C 0.54084 0.23722 0.84866 0.0
C226 C 0.53617 0.25185 0.75347 0.0
C227 C 0.46388 0.25981 0.70098 0.0
C228 C 0.48483 0.2523 0.73022 0.0
C229 C 0.54502 0.25712 0.81753 0.0
C230 C 0.52459 0.25118 0.78746 0.0
H231 H 0.45064 0.23578 0.61687 0.0
H232 H 0.48529 0.22133 0.66487 0.0
H233 H 0.52595 0.25493 0.6993 0.0
H234 H 0.60308 0.31418 0.84213 0.0
H235 H 0.57117 0.30116 0.79247 0.0
C236 C 0.91461 0.71316 0.8234 0.0
C237 C 0.92692 0.72694 0.85439 0.0
C238 C 0.93362 0.70233 0.7963 0.0
C239 C 0.97476 0.71826 0.73636 0.0
H240 H 0.05761 0.68182 0.74433 0.0
C241 C 0.09387 0.74839 0.66603 0.0
C242 C 0.08584 0.74569 0.63086 0.0
C243 C 0.07455 0.73476 0.69171 0.0
C244 C 0.03442 0.69181 0.74169 0.0
H245 H 0.96841 0.73815 0.8826 0.0
H246 H 0.00201 0.72064 0.83463 0.0
H247 H 0.02318 0.6767 0.79388 0.0
H248 H 0.05174 0.72507 0.59502 0.0
H249 H 0.01751 0.70161 0.64029 0.0
H250 H 0.98622 0.73457 0.68471 0.0
C251 C 0.97769 0.71721 0.83142 0.0
C252 C 0.01477 0.689 0.77008 0.0
C253 C 0.95855 0.72736 0.8589 0.0
C254 C 0.05844 0.7278 0.62189 0.0
C255 C 0.03889 0.7144 0.64776 0.0
C256 C 0.99432 0.72087 0.70802 0.0
C257 C 0.96535 0.70603 0.79933 0.0
C258 C 0.98495 0.7032 0.76804 0.0
C259 C 0.04661 0.71823 0.68295 0.0
C260 C 0.02461 0.70877 0.71072 0.0
H261 H 0.89017 0.7123 0.8196 0.0
H262 H 0.92337 0.69285 0.77235 0.0
H263 H 0.95217 0.73015 0.7339 0.0
H264 H 0.11501 0.76154 0.67389 0.0
H265 H 0.08098 0.73862 0.71856 0.0
C266 C 0.55197 0.74166 0.35321 0.0
C267 C 0.58263 0.73209 0.34814 0.0
C268 C 0.53423 0.75372 0.32512 0.0
C269 C 0.50339 0.79003 0.26235 0.0
H270 H 0.51752 0.73146 0.17911 0.0
C271 C 0.45101 0.75888 0.11614 0.0
C272 C 0.42088 0.75184 0.12631 0.0
C273 C 0.47291 0.76836 0.141 0.0
C274 C 0.5137 0.74885 0.20173 0.0
H275 H 0.61958 0.73086 0.31085 0.0
H276 H 0.58917 0.75292 0.26255 0.0
H277 H 0.55136 0.72426 0.22809 0.0
H278 H 0.38927 0.75288 0.16952 0.0
H279 H 0.4272 0.76913 0.21255 0.0
H280 H 0.46463 0.81312 0.23614 0.0
C281 C 0.5783 0.74969 0.28755 0.0
C282 C 0.5331 0.74464 0.23 0.0
C283 C 0.59574 0.73709 0.31527 0.0
C284 C 0.41249 0.75761 0.16104 0.0
C285 C 0.43418 0.76735 0.18568 0.0
C286 C 0.48384 0.79414 0.234 0.0
C287 C 0.54711 0.75695 0.29178 0.0
C288 C 0.52788 0.76459 0.26091 0.0
C289 C 0.46485 0.77133 0.17623 0.0
C290 C 0.48841 0.7729 0.20368 0.0
H291 H 0.54145 0.73823 0.3784 0.0
H292 H 0.51021 0.75891 0.32924 0.0
H293 H 0.49903 0.80625 0.28556 0.0
H294 H 0.45801 0.75477 0.0895 0.0
H295 H 0.49638 0.77169 0.13294 0.0
C296 C 0.0958 0.05966 0.03839 0.0
C297 C 0.0936 0.0962 0.02454 0.0
C298 C 0.07596 0.03128 0.02755 0.0
C299 C 0.02202 0.00344 0.95875 0.0
H300 H 0.98433 0.94535 0.0322 0.0
C301 C 0.92122 0.90222 0.93296 0.0
C302 C 0.92135 0.86766 0.95077 0.0
C303 C 0.94206 0.93054 0.9415 0.0
C304 C 0.99488 0.96093 0.01129 0.0
H305 H 0.06968 0.13082 0.987 0.0
H306 H 0.03523 0.0812 0.96807 0.0
H307 H 0.02253 -0.00759 0.04646 0.0
H308 H 0.94357 0.8361 0.9918 0.0
H309 H 0.97996 0.88496 0.00617 0.0
H310 H 0.99453 0.97172 0.92352 0.0
C311 C 0.0523 0.0746 0.98737 0.0
C312 C 0.01681 0.98793 0.01949 0.0
C313 C 0.07202 0.10308 0.99835 0.0
C314 C 0.94259 0.86237 0.9776 0.0
C315 C 0.96346 0.89055 0.986 0.0
C316 C 1.00017 0.97623 0.95049 0.0
C317 C 0.05357 0.03863 1.00245 0.0
C318 C 0.03069 0.00946 0.99334 0.0
C319 C 0.96359 0.92495 0.96799 0.0
C320 C 0.98636 0.95456 0.97667 0.0
H321 H 0.11216 0.05322 0.05851 0.0
H322 H 0.07783 0.00366 0.03925 0.0
H323 H 0.03246 0.0194 0.938 0.0
H324 H 0.90515 0.90737 0.91223 0.0
H325 H 0.94118 0.95688 0.92743 0.0
C326 C 0.58812 0.5678 0.43734 0.0
C327 C 0.59026 0.60134 0.45654 0.0
C328 C 0.5659 0.54089 0.4454 0.0
C329 C 0.49081 0.53296 0.4879 0.0
H330 H 0.50707 0.42578 0.48677 0.0
C331 C 0.40613 0.42263 0.54195 0.0
C332 C 0.40466 0.3873 0.52563 0.0
C333 C 0.42754 0.44946 0.53136 0.0
C334 C 0.50198 0.4556 0.48668 0.0
H335 H 0.5715 0.63181 0.50043 0.0
H336 H 0.53322 0.58492 0.51449 0.0
H337 H 0.54796 0.4699 0.47359 0.0
H338 H 0.42336 0.35353 0.48387 0.0
H339 H 0.46008 0.40049 0.46503 0.0
H340 H 0.44485 0.51876 0.50095 0.0
C341 C 0.54827 0.57975 0.49278 0.0
C342 C 0.52549 0.48088 0.47921 0.0
C343 C 0.57045 0.60653 0.48482 0.0
C344 C 0.42401 0.38027 0.4973 0.0
C345 C 0.44529 0.40711 0.48665 0.0
C346 C 0.46728 0.50769 0.49525 0.0
C347 C 0.5453 0.54697 0.47276 0.0
C348 C 0.52024 0.51988 0.47999 0.0
C349 C 0.44789 0.44167 0.50409 0.0
C350 C 0.47258 0.46867 0.49492 0.0
H351 H 0.60291 0.56285 0.41535 0.0
H352 H 0.56415 0.51596 0.4294 0.0
H353 H 0.48584 0.56282 0.48809 0.0
H354 H 0.3917 0.429 0.56394 0.0
H355 H 0.42898 0.47566 0.54555 0.0
C356 C 0.43302 0.61016 0.01734 0.0
C357 C 0.40892 0.60731 0.04122 0.0
C358 C 0.45443 0.58129 0.01423 0.0
C359 C 0.46826 0.48096 0.03027 0.0
H360 H 0.55317 0.51078 0.0296 0.0
C361 C 0.56498 0.3707 0.02445 0.0
C362 C 0.58901 0.37883 1.00153 0.0
C363 C 0.5437 0.39846 0.03326 0.0
C364 C 0.52959 0.50193 0.02944 0.0
H365 H 0.38782 0.57089 0.07948 0.0
H366 H 0.42511 0.52021 0.07359 0.0
H367 H 0.51365 0.55854 0.03509 0.0
H368 H 0.61008 0.42317 0.9711 0.0
H369 H 0.57296 0.47097 0.9859 0.0
H370 H 0.48409 0.42446 0.02363 0.0
C371 C 0.42741 0.54502 0.05749 0.0
C372 C 0.50695 0.52933 0.0326 0.0
C373 C 0.4061 0.57411 0.06088 0.0
C374 C 0.59194 0.41577 0.98885 0.0
C375 C 0.57065 0.44338 0.99751 0.0
C376 C 0.49092 0.45352 0.02678 0.0
C377 C 0.45215 0.54869 0.03465 0.0
C378 C 0.47604 0.5192 0.03264 0.0
C379 C 0.54592 0.43495 0.01932 0.0
C380 C 0.52189 0.46371 0.0259 0.0
H381 H 0.43597 0.63522 1.00172 0.0
H382 H 0.47298 0.58462 0.99599 0.0
H383 H 0.44461 0.47237 0.03005 0.0
H384 H 0.56206 0.34263 0.03486 0.0
H385 H 0.52526 0.39115 0.05064 0.0
C386 C 0.93064 0.11125 0.51862 0.0
C387 C 0.90622 0.10364 0.49609 0.0
C388 C 0.95299 0.08398 0.52493 0.0
C389 C 0.98756 0.00155 0.4831 0.0
H390 H 0.02335 0.98235 0.57311 0.0
C391 C 0.06888 0.87686 0.50772 0.0
C392 C 0.09286 0.88154 0.53144 0.0
C393 C 0.04714 0.90515 0.50309 0.0
C394 C 0.01393 0.98778 0.54768 0.0
H395 H 0.88534 0.06037 0.46428 0.0
H396 H 0.92411 0.01305 0.47549 0.0
H397 H 0.98232 0.02837 0.56764 0.0
H398 H 0.11341 0.92057 0.56778 0.0
H399 H 0.07586 0.97018 0.55909 0.0
H400 H 0.0192 0.96138 0.46296 0.0
C401 C 0.92626 0.04033 0.48774 0.0
C402 C 0.99033 0.01404 0.54461 0.0
C403 C 0.9039 0.06745 0.48154 0.0
C404 C 0.09518 0.91585 0.54942 0.0
C405 C 0.07347 0.94422 0.54468 0.0
C406 C 0.01123 0.97549 0.48611 0.0
C407 C 0.95146 0.04859 0.50876 0.0
C408 C 0.9767 0.02097 0.51232 0.0
C409 C 0.04888 0.93897 0.52189 0.0
C410 C 0.02459 0.96803 0.51847 0.0
H411 H 0.9332 0.13876 0.53031 0.0
H412 H 0.97216 0.0912 0.54123 0.0
H413 H 0.97797 0.00683 0.45772 0.0
H414 H 0.06623 0.85081 0.4935 0.0
H415 H 0.02836 0.8999 0.4856 0.0
C416 C 0.36127 0.86239 0.0212 0.0
C417 C 0.33432 0.84141 0.01759 0.0
C418 C 0.36086 0.90144 0.01679 0.0
C419 C 0.34047 0.98053 0.03892 0.0
H420 H 0.28808 0.0294 0.97167 0.0
C421 C 0.25073 0.08636 0.07371 0.0
C422 C 0.24466 0.11743 0.05239 0.0
C423 C 0.27318 0.06059 0.06462 0.0
C424 C 0.30353 0.01663 0.99012 0.0
H425 H 0.28638 0.84428 0.00449 0.0
H426 H 0.2857 0.91214 0.99672 0.0
H427 H 0.30723 0.9661 0.96024 0.0
H428 H 0.25776 0.14664 0.00534 0.0
H429 H 0.29651 0.10023 0.98862 0.0
H430 H 0.33455 0.02975 0.07015 0.0
C431 C 0.30712 0.89857 0.00287 0.0
C432 C 0.31431 0.98037 0.98367 0.0
C433 C 0.3074 0.85979 0.00783 0.0
C434 C 0.26201 0.12282 0.02217 0.0
C435 C 0.28417 0.09648 0.01268 0.0
C436 C 0.3295 0.01667 0.04547 0.0
C437 C 0.33366 0.91985 0.00799 0.0
C438 C 0.33129 0.96125 0.00898 0.0
C439 C 0.28973 0.06503 0.03376 0.0
C440 C 0.30945 0.03397 0.02205 0.0
H441 H 0.38237 0.84885 0.02864 0.0
H442 H 0.38154 0.91735 0.0211 0.0
H443 H 0.35351 0.96639 0.05886 0.0
H444 H 0.23793 0.08177 0.09733 0.0
H445 H 0.27662 0.03618 0.08099 0.0
C446 C 0.18983 0.62493 0.51238 0.0
C447 C 0.16376 0.64444 0.52328 0.0
C448 C 0.18911 0.58605 0.5084 0.0
C449 C 0.17906 0.50444 0.4906 0.0
H450 H 0.16368 0.45678 0.57923 0.0
C451 C 0.23264 0.36207 0.52681 0.0
C452 C 0.25169 0.36767 0.5556 0.0
C453 C 0.21009 0.38846 0.51871 0.0
C454 C 0.16732 0.46938 0.55401 0.0
H455 H 0.11623 0.63886 0.53767 0.0
H456 H 0.1154 0.57006 0.53196 0.0
H457 H 0.14492 0.52041 0.56863 0.0
H458 H 0.26103 0.4038 0.59957 0.0
H459 H 0.22176 0.44948 0.58564 0.0
H460 H 0.20382 0.45471 0.47715 0.0
C461 C 0.13612 0.58522 0.52593 0.0
C462 C 0.15646 0.50567 0.54787 0.0
C463 C 0.13667 0.6244 0.5293 0.0
C464 C 0.24695 0.39903 0.57698 0.0
C465 C 0.22414 0.42487 0.5693 0.0
C466 C 0.18973 0.46805 0.49665 0.0
C467 C 0.16245 0.56576 0.51568 0.0
C468 C 0.16404 0.52432 0.517 0.0
C469 C 0.20585 0.4202 0.53982 0.0
C470 C 0.18567 0.45133 0.52926 0.0
H471 H 0.21092 0.63968 0.50718 0.0
H472 H 0.20991 0.57166 0.50113 0.0
H473 H 0.18485 0.51823 0.46644 0.0
H474 H 0.23582 0.338 0.50998 0.0
H475 H 0.1964 0.38453 0.49568 0.0
C476 C 0.73115 0.402 1.00063 0.0
C477 C 0.74118 0.36594 0.99143 0.0
C478 C 0.75203 0.42961 0.00982 0.0
C479 C 0.82539 0.45954 0.9838 0.0
H480 H 0.80557 0.54107 0.04659 0.0
C481 C 0.86278 0.61597 0.96511 0.0
C482 C 0.83647 0.6384 0.96201 0.0
C483 C 0.86066 0.57894 0.97719 0.0
C484 C 0.81193 0.51826 0.02943 0.0
H485 H 0.78059 0.32954 0.98639 0.0
H486 H 0.8175 0.37869 1.00142 0.0
H487 H 0.78461 0.47847 0.057 0.0
H488 H 0.7874 0.6395 0.96882 0.0
H489 H 0.78386 0.5753 0.98995 0.0
H490 H 0.85063 0.50029 0.95463 0.0
C491 C 0.79342 0.38522 1.00199 0.0
C492 C 0.80001 0.48254 0.03539 0.0
C493 C 0.77236 0.35726 0.9934 0.0
C494 C 0.80807 0.62298 0.9707 0.0
C495 C 0.80607 0.58642 0.98328 0.0
C496 C 0.83744 0.49533 0.97791 0.0
C497 C 0.7834 0.42184 0.00949 0.0
C498 C 0.80489 0.45365 0.01124 0.0
C499 C 0.83232 0.56429 0.98702 0.0
C500 C 0.82903 0.52536 0.99942 0.0
H501 H 0.7072 0.40924 0.99962 0.0
H502 H 0.74367 0.45776 0.01493 0.0
H503 H 0.82945 0.43773 0.96475 0.0
H504 H 0.88498 0.62714 0.95855 0.0
H505 H 0.88108 0.56202 0.97945 0.0
C506 C 0.75875 0.0789 0.49052 0.0
C507 C 0.75037 0.11523 0.48003 0.0
C508 C 0.73668 0.05116 0.49468 0.0
C509 C 0.67099 0.02117 0.45157 0.0
H510 H 0.67014 0.94337 0.52205 0.0
C511 C 0.63513 0.85563 0.47177 0.0
C512 C 0.65464 0.84008 0.44665 0.0
C513 C 0.63517 0.89431 0.47799 0.0
C514 C 0.66942 0.96524 0.5025 0.0
H515 H 0.71241 0.15183 0.46737 0.0
H516 H 0.67379 0.1025 0.47326 0.0
H517 H 0.69281 0.0046 0.53498 0.0
H518 H 0.68769 0.85277 0.40662 0.0
H519 H 0.68728 0.92052 0.41703 0.0
H520 H 0.65042 0.98051 0.41799 0.0
C521 C 0.69735 0.09593 0.47895 0.0
C522 C 0.68242 0.0001 0.50988 0.0
C523 C 0.7194 0.12397 0.47559 0.0
C524 C 0.67263 0.86404 0.42629 0.0
C525 C 0.67216 0.90275 0.43201 0.0
C526 C 0.65847 0.98609 0.44401 0.0
C527 C 0.70598 0.05914 0.48772 0.0
C528 C 0.68452 0.02764 0.48396 0.0
C529 C 0.65412 0.918 0.45858 0.0
C530 C 0.65888 0.9574 0.46895 0.0
H531 H 0.78247 0.0716 0.4943 0.0
H532 H 0.74388 0.02281 0.50101 0.0
H533 H 0.67261 0.04195 0.4311 0.0
H534 H 0.62107 0.83773 0.4879 0.0
H535 H 0.62126 0.90557 0.49872 0.0
C536 C 0.64602 0.11764 0.9706 0.0
C537 C 0.65204 0.14647 0.9468 0.0
C538 C 0.65159 0.08021 0.96139 0.0
C539 C 0.70772 0.03528 0.90818 0.0
H540 H 0.67076 0.9413 0.93692 0.0
C541 C 0.7709 0.8974 0.88772 0.0
C542 C 0.77027 0.87147 0.91509 0.0
C543 C 0.75076 0.92762 0.88723 0.0
C544 C 0.68137 0.96739 0.92891 0.0
H545 H 0.66473 0.1596 0.89401 0.0
H546 H 0.67352 0.09426 0.87751 0.0
H547 H 0.64217 0.00029 0.94285 0.0
H548 H 0.74781 0.85612 0.96307 0.0
H549 H 0.71355 0.91028 0.96324 0.0
H550 H 0.74738 0.00362 0.89611 0.0
C551 C 0.66532 0.1003 0.90339 0.0
C552 C 0.66494 0.00097 0.9321 0.0
C553 C 0.66028 0.13755 0.91275 0.0
C554 C 0.74879 0.8759 0.94173 0.0
C555 C 0.72898 0.90664 0.94161 0.0
C556 C 0.72413 0.00206 0.90535 0.0
C557 C 0.66296 0.07161 0.92826 0.0
C558 C 0.67811 0.0352 0.92186 0.0
C559 C 0.73002 0.93308 0.91452 0.0
C560 C 0.7113 0.96773 0.91583 0.0
H561 H 0.63972 0.12424 0.99705 0.0
H562 H 0.64968 0.05858 0.98105 0.0
H563 H 0.71884 0.06137 0.90104 0.0
H564 H 0.78676 0.89413 0.86643 0.0
H565 H 0.75165 0.94692 0.86554 0.0
C566 C 0.74628 0.58212 0.40979 0.0
C567 C 0.74659 0.61571 0.42889 0.0
C568 C 0.76948 0.55579 0.41378 0.0
C569 C 0.8188 0.51919 0.47887 0.0
H570 H 0.84647 0.45721 0.40234 0.0
C571 C 0.86543 0.35883 0.45214 0.0
C572 C 0.83971 0.34057 0.46581 0.0
C573 C 0.86624 0.39818 0.45027 0.0
C574 C 0.83984 0.47478 0.424 0.0
H575 H 0.77177 0.64842 0.46672 0.0
H576 H 0.81201 0.60145 0.47448 0.0
H577 H 0.825 0.51944 0.3908 0.0
H578 H 0.79558 0.34863 0.48989 0.0
H579 H 0.79725 0.4169 0.48722 0.0
H580 H 0.83107 0.47311 0.51175 0.0
C581 C 0.79395 0.596 0.45608 0.0
C582 C 0.82733 0.51017 0.4174 0.0
C583 C 0.77088 0.62269 0.45173 0.0
C584 C 0.8155 0.36204 0.47884 0.0
C585 C 0.81664 0.40107 0.47777 0.0
C586 C 0.83107 0.48371 0.48543 0.0
C587 C 0.79335 0.56227 0.4372 0.0
C588 C 0.81504 0.53159 0.44462 0.0
C589 C 0.84178 0.41947 0.46311 0.0
C590 C 0.83992 0.46043 0.45784 0.0
H591 H 0.72808 0.57607 0.39172 0.0
H592 H 0.76811 0.52964 0.39944 0.0
H593 H 0.80949 0.53515 0.50031 0.0
H594 H 0.88438 0.3427 0.44202 0.0
H595 H 0.88566 0.41193 0.43848 0.0
C596 C 0.15431 0.34874 0.10719 0.0
C597 C 0.14604 0.33425 0.07482 0.0
C598 C 0.15822 0.38728 0.11149 0.0
C599 C 0.15494 0.48106 0.06902 0.0
H600 H 0.23602 0.48875 0.10802 0.0
C601 C 0.23733 0.60678 0.04655 0.0
C602 C 0.25707 0.61589 0.07387 0.0
C603 C 0.21755 0.5761 0.04958 0.0
C604 C 0.21311 0.48748 0.09773 0.0
H605 H 0.13246 0.34812 0.02247 0.0
H606 H 0.14065 0.41583 0.02947 0.0
H607 H 0.20966 0.42935 0.11001 0.0
H608 H 0.26991 0.60247 0.12668 0.0
H609 H 0.23497 0.55004 0.13236 0.0
H610 H 0.15919 0.53957 0.05595 0.0
C611 C 0.14342 0.39761 0.05175 0.0
C612 C 0.19792 0.45332 0.09894 0.0
C613 C 0.13885 0.35893 0.04767 0.0
C614 C 0.25552 0.59537 0.10486 0.0
C615 C 0.23548 0.56537 0.10811 0.0
C616 C 0.17022 0.51563 0.06796 0.0
C617 C 0.15483 0.41177 0.08316 0.0
C618 C 0.16875 0.4496 0.08453 0.0
C619 C 0.21699 0.5546 0.08018 0.0
C620 C 0.19955 0.51904 0.08223 0.0
H621 H 0.15955 0.33004 0.12857 0.0
H622 H 0.16628 0.3976 0.13623 0.0
H623 H 0.13252 0.47884 0.05754 0.0
H624 H 0.23797 0.62248 0.0225 0.0
H625 H 0.20368 0.56833 0.02754 0.0
C626 C 0.27899 0.86287 0.55664 0.0
C627 C 0.2478 0.87137 0.55399 0.0
C628 C 0.30064 0.89158 0.5551 0.0
C629 C 0.31583 0.98447 0.52287 0.0
H630 H 0.35095 0.01113 0.61172 0.0
C631 C 0.36824 0.12891 0.54368 0.0
C632 C 0.34995 0.14826 0.56769 0.0
C633 C 0.3677 0.08967 0.54234 0.0
C634 C 0.34199 0.00349 0.58655 0.0
H635 H 0.21475 0.91588 0.54623 0.0
H636 H 0.25275 0.96595 0.54241 0.0
H637 H 0.32567 0.95011 0.6046 0.0
H638 H 0.31923 0.142 0.61127 0.0
H639 H 0.31863 0.07345 0.60924 0.0
H640 H 0.33039 0.03856 0.50529 0.0
C641 C 0.2603 0.93718 0.54608 0.0
C642 C 0.32766 0.96873 0.58248 0.0
C643 C 0.23864 0.9087 0.5485 0.0
C644 C 0.33327 0.12775 0.59228 0.0
C645 C 0.3332 0.08856 0.59135 0.0
C646 C 0.33062 0.01887 0.52672 0.0
C647 C 0.29134 0.92885 0.54986 0.0
C648 C 0.31328 0.95991 0.55111 0.0
C649 C 0.3494 0.06931 0.56548 0.0
C650 C 0.34246 0.02938 0.55908 0.0
H651 H 0.28655 0.83425 0.5611 0.0
H652 H 0.32453 0.88483 0.55833 0.0
H653 H 0.3047 0.97806 0.49854 0.0
H654 H 0.38136 0.14407 0.52443 0.0
H655 H 0.38029 0.07531 0.52214 0.0
C656 C 0.16478 0.21785 0.9228 0.0
C657 C 0.1809 0.23443 0.95031 0.0
C658 C 0.17586 0.22034 0.88875 0.0
C659 C 0.24791 0.23801 0.8411 0.0
H660 H 0.19568 0.25667 0.76207 0.0
C661 C 0.29528 0.28595 0.70934 0.0
C662 C 0.28314 0.26951 0.67926 0.0
C663 C 0.28209 0.27918 0.74169 0.0
C664 C 0.2105 0.25102 0.78387 0.0
H665 H 0.2205 0.26822 0.96319 0.0
H666 H 0.23922 0.27307 0.90442 0.0
H667 H 0.1732 0.24975 0.81975 0.0
H668 H 0.24744 0.23295 0.65981 0.0
H669 H 0.22442 0.22128 0.71639 0.0
H670 H 0.28521 0.23993 0.8055 0.0
C671 C 0.21858 0.25717 0.90902 0.0
C672 C 0.19762 0.247 0.81689 0.0
C673 C 0.20767 0.25456 0.94282 0.0
C674 C 0.25746 0.24604 0.68241 0.0
C675 C 0.24411 0.23952 0.71479 0.0
C676 C 0.26073 0.24221 0.80825 0.0
C677 C 0.20321 0.23953 0.8816 0.0
C678 C 0.21625 0.24108 0.846 0.0
C679 C 0.2563 0.25599 0.7448 0.0
C680 C 0.24226 0.24931 0.77931 0.0
H681 H 0.14411 0.20212 0.92768 0.0
H682 H 0.16348 0.20638 0.86821 0.0
H683 H 0.2629 0.23251 0.86278 0.0
H684 H 0.315 0.30417 0.70795 0.0
H685 H 0.29183 0.29263 0.76428 0.0
C686 C 0.20298 0.1944 0.20899 0.0
C687 C 0.21445 0.21179 0.17899 0.0
C688 C 0.21713 0.19977 0.24102 0.0
C689 C 0.27054 0.26218 0.28829 0.0
H690 H 0.27536 0.17683 0.35067 0.0
C691 C 0.33253 0.26612 0.42213 0.0
C692 C 0.31527 0.25136 0.44968 0.0
C693 C 0.3228 0.26148 0.38777 0.0
C694 C 0.27413 0.20096 0.33356 0.0
H695 H 0.24974 0.24892 0.15942 0.0
H696 H 0.27461 0.2578 0.2152 0.0
H697 H 0.25307 0.16881 0.29345 0.0
H698 H 0.27448 0.21969 0.4625 0.0
H699 H 0.25791 0.21154 0.40313 0.0
H700 H 0.29168 0.29422 0.32877 0.0
C701 C 0.25443 0.24037 0.21402 0.0
C702 C 0.26121 0.19643 0.30081 0.0
C703 C 0.2402 0.23513 0.18196 0.0
C704 C 0.28836 0.23158 0.44205 0.0
C705 C 0.27891 0.22662 0.40793 0.0
C706 C 0.28367 0.26665 0.32109 0.0
C707 C 0.24323 0.22249 0.24391 0.0
C708 C 0.25869 0.22712 0.27798 0.0
C709 C 0.29594 0.24149 0.38038 0.0
C710 C 0.28506 0.23622 0.34429 0.0
H711 H 0.18308 0.17649 0.20781 0.0
H712 H 0.20746 0.18619 0.2636 0.0
H713 H 0.26881 0.28648 0.27148 0.0
H714 H 0.35331 0.28157 0.42712 0.0
H715 H 0.33641 0.27315 0.36699 0.0
C716 C 0.78108 0.19512 0.32563 0.0
C717 C 0.77133 0.21556 0.35478 0.0
C718 C 0.76648 0.19919 0.29378 0.0
C719 C 0.7158 0.26158 0.24305 0.0
H720 H 0.7073 0.17192 0.18663 0.0
C721 C 0.658 0.25995 0.10664 0.0
C722 C 0.67596 0.2428 0.0809 0.0
C723 C 0.66594 0.25667 0.14173 0.0
C724 C 0.70949 0.19721 0.20209 0.0
H725 H 0.73871 0.25697 0.37292 0.0
H726 H 0.71284 0.26374 0.31711 0.0
H727 H 0.72809 0.16681 0.24486 0.0
H728 H 0.71579 0.20794 0.07195 0.0
H729 H 0.72917 0.20179 0.13275 0.0
H730 H 0.69718 0.29186 0.1998 0.0
C731 C 0.73206 0.24476 0.31899 0.0
C732 C 0.72156 0.19436 0.23541 0.0
C733 C 0.74685 0.24081 0.35101 0.0
C734 C 0.70149 0.22163 0.09105 0.0
C735 C 0.70909 0.2179 0.12594 0.0
C736 C 0.70346 0.26439 0.20966 0.0
C737 C 0.7415 0.22361 0.29008 0.0
C738 C 0.72567 0.2266 0.25602 0.0
C739 C 0.69159 0.23557 0.15168 0.0
C740 C 0.7009 0.23233 0.18855 0.0
H741 H 0.80009 0.17577 0.32732 0.0
H742 H 0.77495 0.1832 0.27193 0.0
H743 H 0.71874 0.28702 0.2581 0.0
H744 H 0.63828 0.2766 0.09964 0.0
H745 H 0.652 0.27049 0.16107 0.0
C746 C 0.83539 0.22027 0.6075 0.0
C747 C 0.8155 0.2332 0.58153 0.0
C748 C 0.82795 0.22492 0.64265 0.0
C749 C 0.78263 0.28468 0.70037 0.0
H750 H 0.77844 0.19944 0.76289 0.0
C751 C 0.7137 0.29237 0.82623 0.0
C752 C 0.72431 0.27366 0.85596 0.0
C753 C 0.72809 0.28742 0.79429 0.0
C754 C 0.77999 0.22371 0.74602 0.0
H755 H 0.7725 0.26171 0.57225 0.0
H756 H 0.76005 0.27026 0.63296 0.0
H757 H 0.79908 0.19108 0.70447 0.0
H758 H 0.75855 0.23489 0.87518 0.0
H759 H 0.78406 0.22681 0.81945 0.0
H760 H 0.76368 0.31747 0.74141 0.0
C761 C 0.78122 0.25634 0.62631 0.0
C762 C 0.7918 0.21885 0.71256 0.0
C763 C 0.78831 0.25116 0.59147 0.0
C764 C 0.7497 0.2497 0.85283 0.0
C765 C 0.76427 0.24493 0.82081 0.0
C766 C 0.77117 0.28964 0.73379 0.0
C767 C 0.80088 0.24333 0.65229 0.0
C768 C 0.79249 0.24912 0.68916 0.0
C769 C 0.75371 0.26386 0.79112 0.0
C770 C 0.76889 0.25904 0.75679 0.0
H771 H 0.85646 0.20626 0.60068 0.0
H772 H 0.84351 0.21464 0.66225 0.0
H773 H 0.78332 0.30862 0.683 0.0
H774 H 0.69403 0.31072 0.82748 0.0
H775 H 0.71878 0.30177 0.77193 0.0
C776 C 0.79065 0.78535 0.05859 0.0
C777 C 0.82 0.77324 0.04909 0.0
C778 C 0.78155 0.78531 0.09329 0.0
C779 C 0.79611 0.73429 0.17338 0.0
H780 H 0.74487 0.81064 0.21543 0.0
C781 C 0.71936 0.70366 0.29068 0.0
C782 C 0.71965 0.72947 0.31829 0.0
C783 C 0.73388 0.71206 0.25943 0.0
C784 C 0.75938 0.78925 0.20413 0.0
H785 H 0.86324 0.75318 0.06899 0.0
H786 H 0.84718 0.75281 0.12963 0.0
H787 H 0.76732 0.82187 0.15821 0.0
H788 H 0.73503 0.78482 0.33427 0.0
H789 H 0.76 0.79973 0.27916 0.0
H790 H 0.78757 0.70126 0.21877 0.0
C791 C 0.83123 0.76224 0.11007 0.0
C792 C 0.77207 0.79557 0.17134 0.0
C793 C 0.84048 0.76269 0.07535 0.0
C794 C 0.73442 0.76425 0.31359 0.0
C795 C 0.74863 0.77286 0.28203 0.0
C796 C 0.78314 0.7278 0.2059 0.0
C797 C 0.80146 0.77282 0.11933 0.0
C798 C 0.7903 0.76796 0.15544 0.0
C799 C 0.74877 0.74665 0.25477 0.0
C800 C 0.7643 0.75497 0.22143 0.0
H801 H 0.77432 0.79385 0.03907 0.0
H802 H 0.75841 0.79339 0.09953 0.0
H803 H 0.80979 0.71231 0.16172 0.0
H804 H 0.70829 0.67658 0.2933 0.0
H805 H 0.73325 0.6915 0.23874 0.0
C806 C 0.80373 0.74109 0.78964 0.0
C807 C 0.78705 0.73877 0.82063 0.0
C808 C 0.78969 0.73488 0.75778 0.0
C809 C 0.72116 0.69733 0.71364 0.0
H810 H 0.7459 0.76876 0.64306 0.0
C811 C 0.66619 0.71129 0.57504 0.0
C812 C 0.68733 0.71522 0.54781 0.0
C813 C 0.67595 0.71171 0.60972 0.0
C814 C 0.73884 0.74844 0.66238 0.0
H815 H 0.74279 0.72609 0.84251 0.0
H816 H 0.71796 0.71566 0.78641 0.0
H817 H 0.76745 0.77309 0.70077 0.0
H818 H 0.73554 0.7209 0.5361 0.0
H819 H 0.75215 0.7217 0.59582 0.0
H820 H 0.69233 0.67291 0.67463 0.0
C821 C 0.74205 0.72209 0.78695 0.0
C822 C 0.75129 0.75081 0.6955 0.0
C823 C 0.75626 0.72805 0.81908 0.0
C824 C 0.71842 0.7183 0.55615 0.0
C825 C 0.72804 0.71889 0.59053 0.0
C826 C 0.70852 0.69504 0.68027 0.0
C827 C 0.75845 0.72657 0.75587 0.0
C828 C 0.74321 0.72481 0.72139 0.0
C829 C 0.70696 0.71633 0.61775 0.0
C830 C 0.71778 0.72012 0.65411 0.0
H831 H 0.82762 0.74865 0.7899 0.0
H832 H 0.80328 0.73743 0.73447 0.0
H833 H 0.7144 0.6769 0.73299 0.0
H834 H 0.6421 0.7087 0.56962 0.0
H835 H 0.65918 0.70966 0.63021 0.0
C836 C 0.20622 0.74725 0.68773 0.0
C837 C 0.22351 0.74368 0.65731 0.0
C838 C 0.21874 0.73838 0.71986 0.0
C839 C 0.2839 0.69198 0.76461 0.0
H840 H 0.25878 0.75892 0.83864 0.0
C841 C 0.33505 0.70227 0.90609 0.0
C842 C 0.31274 0.70241 0.93234 0.0
C843 C 0.32653 0.70268 0.87102 0.0
C844 C 0.26594 0.73992 0.81825 0.0
H845 H 0.26717 0.72656 0.63655 0.0
H846 H 0.28963 0.71204 0.69319 0.0
H847 H 0.23975 0.76917 0.78041 0.0
H848 H 0.26398 0.70029 0.94191 0.0
H849 H 0.24949 0.70158 0.88131 0.0
H850 H 0.31081 0.66346 0.80317 0.0
C851 C 0.26613 0.72117 0.69205 0.0
C852 C 0.25487 0.74558 0.78484 0.0
C853 C 0.25333 0.72953 0.65961 0.0
C854 C 0.28189 0.70068 0.92262 0.0
C855 C 0.27348 0.70145 0.88783 0.0
C856 C 0.29537 0.68662 0.79822 0.0
C857 C 0.24918 0.72641 0.72268 0.0
C858 C 0.26305 0.7212 0.75767 0.0
C859 C 0.29562 0.70355 0.86172 0.0
C860 C 0.28592 0.71013 0.82544 0.0
H861 H 0.18297 0.75742 0.68674 0.0
H862 H 0.20457 0.74152 0.74264 0.0
H863 H 0.2907 0.67264 0.74437 0.0
H864 H 0.35901 0.70349 0.91257 0.0
H865 H 0.34403 0.70428 0.85129 0.0
C866 C 0.2184 0.7831 0.41985 0.0
C867 C 0.18777 0.78023 0.43021 0.0
C868 C 0.2261 0.7872 0.38501 0.0
C869 C 0.19741 0.76809 0.29731 0.0
H870 H 0.26893 0.82534 0.27097 0.0
C871 C 0.2471 0.76513 0.15785 0.0
C872 C 0.27813 0.75544 0.1573 0.0
C873 C 0.23304 0.77585 0.18896 0.0
C874 C 0.24883 0.80937 0.27789 0.0
H875 H 0.14115 0.78041 0.41168 0.0
H876 H 0.1547 0.78787 0.35057 0.0
H877 H 0.24915 0.83022 0.32982 0.0
H878 H 0.31911 0.75141 0.18838 0.0
H879 H 0.29484 0.77066 0.24219 0.0
H880 H 0.19762 0.74668 0.24539 0.0
C881 C 0.17274 0.78653 0.36963 0.0
C882 C 0.23754 0.81202 0.31164 0.0
C883 C 0.16497 0.78244 0.40469 0.0
C884 C 0.29512 0.75855 0.18799 0.0
C885 C 0.28125 0.76981 0.2188 0.0
C886 C 0.20861 0.76566 0.26341 0.0
C887 C 0.20344 0.78869 0.35937 0.0
C888 C 0.21232 0.79044 0.32213 0.0
C889 C 0.24994 0.7778 0.21984 0.0
C890 C 0.23501 0.78536 0.25368 0.0
H891 H 0.23667 0.78156 0.43862 0.0
H892 H 0.24999 0.78805 0.37813 0.0
H893 H 0.17809 0.75088 0.3045 0.0
H894 H 0.2334 0.76281 0.13464 0.0
H895 H 0.20889 0.78201 0.18901 0.0
loop_
_geom_bond_atom_site_label_1
_geom_bond_atom_site_label_2
_geom_bond_distance
_geom_bond_site_symmetry_2
_ccdc_geom_bond_type
Sc0 O3 2.025 . S
Sc0 O10 2.105 . S
Sc0 O13 2.105 . S
Sc0 O16 2.105 . S
Sc0 O19 2.105 . S
Sc1 O3 2.025 . S
Sc1 O11 2.105 . S
Sc1 O15 2.105 . S
Sc1 O17 2.105 . S
Sc1 O21 2.105 . S
Sc2 O3 2.025 . S
Sc2 O12 2.105 . S
Sc2 O14 2.105 . S
Sc2 O18 2.105 . S
Sc2 O20 2.105 . S
O3 Sc0 2.025 . S
O3 Sc1 2.025 . S
O3 Sc2 2.025 . S
C4 O10 1.268 . S
C4 O20 1.268 . S
C5 O11 1.268 . S
C5 O19 1.268 . S
C6 O12 1.268 . S
C6 O21 1.268 . S
C7 O13 1.268 . S
C7 O17 1.268 . S
C8 O14 1.268 . S
C8 O16 1.268 . S
C9 O15 1.268 . S
C9 O18 1.268 . S
O10 Sc0 2.105 . S
O10 C4 1.268 . S
O11 Sc1 2.105 . S
O11 C5 1.268 . S
O12 Sc2 2.105 . S
O12 C6 1.268 . S
O13 Sc0 2.105 . S
O13 C7 1.268 . S
O14 Sc2 2.105 . S
O14 C8 1.268 . S
O15 Sc1 2.105 . S
O15 C9 1.268 . S
O16 Sc0 2.105 . S
O16 C8 1.268 . S
O17 Sc1 2.105 . S
O17 C7 1.268 . S
O18 Sc2 2.105 . S
O18 C9 1.268 . S
O19 Sc0 2.105 . S
O19 C5 1.268 . S
O20 Sc2 2.105 . S
O20 C4 1.268 . S
O21 Sc1 2.105 . S
O21 C6 1.268 . S
Sc22 O25 2.025 . S
Sc22 O32 2.105 . S
Sc22 O35 2.105 . S
Sc22 O38 2.105 . S
Sc22 O41 2.105 . S
Sc23 O25 2.025 . S
Sc23 O33 2.105 . S
Sc23 O37 2.105 . S
Sc23 O39 2.105 . S
Sc23 O43 2.105 . S
Sc24 O25 2.025 . S
Sc24 O34 2.105 . S
Sc24 O36 2.105 . S
Sc24 O40 2.105 . S
Sc24 O42 2.105 . S
O25 Sc22 2.025 . S
O25 Sc23 2.025 . S
O25 Sc24 2.025 . S
C26 O32 1.268 . S
C26 O42 1.268 . S
C27 O33 1.268 . S
C27 O41 1.268 . S
C28 O34 1.268 . S
C28 O43 1.268 . S
C29 O35 1.268 . S
C29 O39 1.268 . S
C30 O36 1.268 . S
C30 O38 1.268 . S
C31 O37 1.268 . S
C31 O40 1.268 . S
O32 Sc22 2.105 . S
O32 C26 1.268 . S
O33 Sc23 2.105 . S
O33 C27 1.268 . S
O34 Sc24 2.105 . S
O34 C28 1.268 . S
O35 Sc22 2.105 . S
O35 C29 1.268 . S
O36 Sc24 2.105 . S
O36 C30 1.268 . S
O37 Sc23 2.105 . S
O37 C31 1.268 . S
O38 Sc22 2.105 . S
O38 C30 1.268 . S
O39 Sc23 2.105 . S
O39 C29 1.268 . S
O40 Sc24 2.105 . S
O40 C31 1.268 . S
O41 Sc22 2.105 . S
O41 C27 1.268 . S
O42 Sc24 2.105 . S
O42 C26 1.268 . S
O43 Sc23 2.105 . S
O43 C28 1.268 . S
Sc44 O47 2.025 . S
Sc44 O54 2.105 . S
Sc44 O57 2.105 . S
Sc44 O60 2.105 . S
Sc44 O63 2.105 . S
Sc45 O47 2.025 . S
Sc45 O55 2.105 . S
Sc45 O59 2.105 . S
Sc45 O61 2.105 . S
Sc45 O65 2.105 . S
Sc46 O47 2.025 . S
Sc46 O56 2.105 . S
Sc46 O58 2.105 . S
Sc46 O62 2.105 . S
Sc46 O64 2.105 . S
O47 Sc44 2.025 . S
O47 Sc45 2.025 . S
O47 Sc46 2.025 . S
C48 O54 1.268 . S
C48 O64 1.268 . S
C49 O55 1.268 . S
C49 O63 1.268 . S
C50 O56 1.268 . S
C50 O65 1.268 . S
C51 O57 1.268 . S
C51 O61 1.268 . S
C52 O58 1.268 . S
C52 O60 1.268 . S
C53 O59 1.268 . S
C53 O62 1.268 . S
O54 Sc44 2.105 . S
O54 C48 1.268 . S
O55 Sc45 2.105 . S
O55 C49 1.268 . S
O56 Sc46 2.105 . S
O56 C50 1.268 . S
O57 Sc44 2.105 . S
O57 C51 1.268 . S
O58 Sc46 2.105 . S
O58 C52 1.268 . S
O59 Sc45 2.105 . S
O59 C53 1.268 . S
O60 Sc44 2.105 . S
O60 C52 1.268 . S
O61 Sc45 2.105 . S
O61 C51 1.268 . S
O62 Sc46 2.105 . S
O62 C53 1.268 . S
O63 Sc44 2.105 . S
O63 C49 1.268 . S
O64 Sc46 2.105 . S
O64 C48 1.268 . S
O65 Sc45 2.105 . S
O65 C50 1.268 . S
Sc66 O69 2.025 . S
Sc66 O76 2.105 . S
Sc66 O79 2.105 . S
Sc66 O82 2.105 . S
Sc66 O85 2.105 . S
Sc67 O69 2.025 . S
Sc67 O77 2.105 . S
Sc67 O81 2.105 . S
Sc67 O83 2.105 . S
Sc67 O87 2.105 . S
Sc68 O69 2.025 . S
Sc68 O78 2.105 . S
Sc68 O80 2.105 . S
Sc68 O84 2.105 . S
Sc68 O86 2.105 . S
O69 Sc66 2.025 . S
O69 Sc67 2.025 . S
O69 Sc68 2.025 . S
C70 O76 1.268 . S
C70 O86 1.268 . S
C71 O77 1.268 . S
C71 O85 1.268 . S
C72 O78 1.268 . S
C72 O87 1.268 . S
C73 O79 1.268 . S
C73 O83 1.268 . S
C74 O80 1.268 . S
C74 O82 1.268 . S
C75 O81 1.268 . S
C75 O84 1.268 . S
O76 Sc66 2.105 . S
O76 C70 1.268 . S
O77 Sc67 2.105 . S
O77 C71 1.268 . S
O78 Sc68 2.105 . S
O78 C72 1.268 . S
O79 Sc66 2.105 . S
O79 C73 1.268 . S
O80 Sc68 2.105 . S
O80 C74 1.268 . S
O81 Sc67 2.105 . S
O81 C75 1.268 . S
O82 Sc66 2.105 . S
O82 C74 1.268 . S
O83 Sc67 2.105 . S
O83 C73 1.268 . S
O84 Sc68 2.105 . S
O84 C75 1.268 . S
O85 Sc66 2.105 . S
O85 C71 1.268 . S
O86 Sc68 2.105 . S
O86 C70 1.268 . S
O87 Sc67 2.105 . S
O87 C72 1.268 . S
Sc88 O91 2.025 . S
Sc88 O98 2.105 . S
Sc88 O101 2.105 . S
Sc88 O104 2.105 . S
Sc88 O107 2.105 . S
Sc89 O91 2.025 . S
Sc89 O99 2.105 . S
Sc89 O103 2.105 . S
Sc89 O105 2.105 . S
Sc89 O109 2.105 . S
Sc90 O91 2.025 . S
Sc90 O100 2.105 . S
Sc90 O102 2.105 . S
Sc90 O106 2.105 . S
Sc90 O108 2.105 . S
O91 Sc88 2.025 . S
O91 Sc89 2.025 . S
O91 Sc90 2.025 . S
C92 O98 1.268 . S
C92 O108 1.268 . S
C93 O99 1.268 . S
C93 O107 1.268 . S
C94 O100 1.268 . S
C94 O109 1.268 . S
C95 O101 1.268 . S
C95 O105 1.268 . S
C96 O102 1.268 . S
C96 O104 1.268 . S
C97 O103 1.268 . S
C97 O106 1.268 . S
O98 Sc88 2.105 . S
O98 C92 1.268 . S
O99 Sc89 2.105 . S
O99 C93 1.268 . S
O100 Sc90 2.105 . S
O100 C94 1.268 . S
O101 Sc88 2.105 . S
O101 C95 1.268 . S
O102 Sc90 2.105 . S
O102 C96 1.268 . S
O103 Sc89 2.105 . S
O103 C97 1.268 . S
O104 Sc88 2.105 . S
O104 C96 1.268 . S
O105 Sc89 2.105 . S
O105 C95 1.268 . S
O106 Sc90 2.105 . S
O106 C97 1.268 . S
O107 Sc88 2.105 . S
O107 C93 1.268 . S
O108 Sc90 2.105 . S
O108 C92 1.268 . S
O109 Sc89 2.105 . S
O109 C94 1.268 . S
Sc110 O113 2.025 . S
Sc110 O120 2.105 . S
Sc110 O123 2.105 . S
Sc110 O126 2.105 . S
Sc110 O129 2.105 . S
Sc111 O113 2.025 . S
Sc111 O121 2.105 . S
Sc111 O125 2.105 . S
Sc111 O127 2.105 . S
Sc111 O131 2.105 . S
Sc112 O113 2.025 . S
Sc112 O122 2.105 . S
Sc112 O124 2.105 . S
Sc112 O128 2.105 . S
Sc112 O130 2.105 . S
O113 Sc110 2.025 . S
O113 Sc111 2.025 . S
O113 Sc112 2.025 . S
C114 O120 1.268 . S
C114 O130 1.268 . S
C115 O121 1.268 . S
C115 O129 1.268 . S
C116 O122 1.268 . S
C116 O131 1.268 . S
C117 O123 1.268 . S
C117 O127 1.268 . S
C118 O124 1.268 . S
C118 O126 1.268 . S
C119 O125 1.268 . S
C119 O128 1.268 . S
O120 Sc110 2.105 . S
O120 C114 1.268 . S
O121 Sc111 2.105 . S
O121 C115 1.268 . S
O122 Sc112 2.105 . S
O122 C116 1.268 . S
O123 Sc110 2.105 . S
O123 C117 1.268 . S
O124 Sc112 2.105 . S
O124 C118 1.268 . S
O125 Sc111 2.105 . S
O125 C119 1.268 . S
O126 Sc110 2.105 . S
O126 C118 1.268 . S
O127 Sc111 2.105 . S
O127 C117 1.268 . S
O128 Sc112 2.105 . S
O128 C119 1.268 . S
O129 Sc110 2.105 . S
O129 C115 1.268 . S
O130 Sc112 2.105 . S
O130 C114 1.268 . S
O131 Sc111 2.105 . S
O131 C116 1.268 . S
Sc132 O135 2.025 . S
Sc132 O142 2.105 . S
Sc132 O145 2.105 . S
Sc132 O148 2.105 . S
Sc132 O151 2.105 . S
Sc133 O135 2.025 . S
Sc133 O143 2.105 . S
Sc133 O147 2.105 . S
Sc133 O149 2.105 . S
Sc133 O153 2.105 . S
Sc134 O135 2.025 . S
Sc134 O144 2.105 . S
Sc134 O146 2.105 . S
Sc134 O150 2.105 . S
Sc134 O152 2.105 . S
O135 Sc132 2.025 . S
O135 Sc133 2.025 . S
O135 Sc134 2.025 . S
C136 O142 1.268 . S
C136 O152 1.268 . S
C137 O143 1.268 . S
C137 O151 1.268 . S
C138 O144 1.268 . S
C138 O153 1.268 . S
C139 O145 1.268 . S
C139 O149 1.268 . S
C140 O146 1.268 . S
C140 O148 1.268 . S
C141 O147 1.268 . S
C141 O150 1.268 . S
O142 Sc132 2.105 . S
O142 C136 1.268 . S
O143 Sc133 2.105 . S
O143 C137 1.268 . S
O144 Sc134 2.105 . S
O144 C138 1.268 . S
O145 Sc132 2.105 . S
O145 C139 1.268 . S
O146 Sc134 2.105 . S
O146 C140 1.268 . S
O147 Sc133 2.105 . S
O147 C141 1.268 . S
O148 Sc132 2.105 . S
O148 C140 1.268 . S
O149 Sc133 2.105 . S
O149 C139 1.268 . S
O150 Sc134 2.105 . S
O150 C141 1.268 . S
O151 Sc132 2.105 . S
O151 C137 1.268 . S
O152 Sc134 2.105 . S
O152 C136 1.268 . S
O153 Sc133 2.105 . S
O153 C138 1.268 . S
Sc154 O157 2.025 . S
Sc154 O164 2.105 . S
Sc154 O167 2.105 . S
Sc154 O170 2.105 . S
Sc154 O173 2.105 . S
Sc155 O157 2.025 . S
Sc155 O165 2.105 . S
Sc155 O169 2.105 . S
Sc155 O171 2.105 . S
Sc155 O175 2.105 . S
Sc156 O157 2.025 . S
Sc156 O166 2.105 . S
Sc156 O168 2.105 . S
Sc156 O172 2.105 . S
Sc156 O174 2.105 . S
O157 Sc154 2.025 . S
O157 Sc155 2.025 . S
O157 Sc156 2.025 . S
C158 O164 1.268 . S
C158 O174 1.268 . S
C159 O165 1.268 . S
C159 O173 1.268 . S
C160 O166 1.268 . S
C160 O175 1.268 . S
C161 O167 1.268 . S
C161 O171 1.268 . S
C162 O168 1.268 . S
C162 O170 1.268 . S
C163 O169 1.268 . S
C163 O172 1.268 . S
O164 Sc154 2.105 . S
O164 C158 1.268 . S
O165 Sc155 2.105 . S
O165 C159 1.268 . S
O166 Sc156 2.105 . S
O166 C160 1.268 . S
O167 Sc154 2.105 . S
O167 C161 1.268 . S
O168 Sc156 2.105 . S
O168 C162 1.268 . S
O169 Sc155 2.105 . S
O169 C163 1.268 . S
O170 Sc154 2.105 . S
O170 C162 1.268 . S
O171 Sc155 2.105 . S
O171 C161 1.268 . S
O172 Sc156 2.105 . S
O172 C163 1.268 . S
O173 Sc154 2.105 . S
O173 C159 1.268 . S
O174 Sc156 2.105 . S
O174 C158 1.268 . S
O175 Sc155 2.105 . S
O175 C160 1.268 . S
C176 C177 1.349 . S
C176 C178 1.327 . S
C176 H201 0.950 . S
C177 C176 1.349 . S
C177 C193 1.349 . S
C178 C176 1.327 . S
C178 C197 1.429 . S
C178 H202 0.950 . S
C179 C196 1.574 1_455 S
C179 C198 1.368 . S
C179 H203 0.949 . S
H180 C184 0.949 . S
C181 C182 1.349 . S
C181 C183 1.327 . S
C181 H204 0.950 . S
C182 C181 1.349 . S
C182 C194 1.349 . S
C183 C181 1.327 . S
C183 C199 1.429 . S
C183 H205 0.950 . S
C184 H180 0.949 . S
C184 C192 1.574 1_655 S
C184 C200 1.368 . S
H185 C193 0.950 . S
H186 C191 0.950 . S
H187 C192 0.949 . S
H188 C194 0.950 . S
H189 C195 0.950 . S
H190 C196 0.949 . S
C191 H186 0.950 . S
C191 C193 1.327 . S
C191 C197 1.429 . S
C192 C184 1.574 1_455 S
C192 H187 0.949 . S
C192 C198 1.368 . S
C193 C177 1.349 . S
C193 H185 0.950 . S
C193 C191 1.327 . S
C194 C182 1.349 . S
C194 H188 0.950 . S
C194 C195 1.327 . S
C195 H189 0.950 . S
C195 C194 1.327 . S
C195 C199 1.429 . S
C196 C179 1.574 1_655 S
C196 H190 0.949 . S
C196 C200 1.368 . S
C197 C178 1.429 . S
C197 C191 1.429 . S
C197 C198 1.523 . S
C198 C179 1.368 . S
C198 C192 1.368 . S
C198 C197 1.523 . S
C199 C183 1.429 . S
C199 C195 1.429 . S
C199 C200 1.523 . S
C200 C184 1.368 . S
C200 C196 1.368 . S
C200 C199 1.523 . S
H201 C176 0.950 . S
H202 C178 0.950 . S
H203 C179 0.949 . S
H204 C181 0.950 . S
H205 C183 0.950 . S
C206 C207 1.349 . S
C206 C208 1.327 . S
C206 H231 0.950 . S
C207 C206 1.349 . S
C207 C223 1.349 . S
C208 C206 1.327 . S
C208 C227 1.429 . S
C208 H232 0.950 . S
C209 C226 1.574 . S
C209 C228 1.368 . S
C209 H233 0.949 . S
H210 C214 0.949 . S
C211 C212 1.349 . S
C211 C213 1.327 . S
C211 H234 0.950 . S
C212 C211 1.349 . S
C212 C224 1.349 . S
C213 C211 1.327 . S
C213 C229 1.429 . S
C213 H235 0.950 . S
C214 H210 0.949 . S
C214 C222 1.574 . S
C214 C230 1.368 . S
H215 C223 0.950 . S
H216 C221 0.950 . S
H217 C222 0.949 . S
H218 C224 0.950 . S
H219 C225 0.950 . S
H220 C226 0.949 . S
C221 H216 0.950 . S
C221 C223 1.327 . S
C221 C227 1.429 . S
C222 C214 1.574 . S
C222 H217 0.949 . S
C222 C228 1.368 . S
C223 C207 1.349 . S
C223 H215 0.950 . S
C223 C221 1.327 . S
C224 C212 1.349 . S
C224 H218 0.950 . S
C224 C225 1.327 . S
C225 H219 0.950 . S
C225 C224 1.327 . S
C225 C229 1.429 . S
C226 C209 1.574 . S
C226 H220 0.949 . S
C226 C230 1.368 . S
C227 C208 1.429 . S
C227 C221 1.429 . S
C227 C228 1.523 . S
C228 C209 1.368 . S
C228 C222 1.368 . S
C228 C227 1.523 . S
C229 C213 1.429 . S
C229 C225 1.429 . S
C229 C230 1.523 . S
C230 C214 1.368 . S
C230 C226 1.368 . S
C230 C229 1.523 . S
H231 C206 0.950 . S
H232 C208 0.950 . S
H233 C209 0.949 . S
H234 C211 0.950 . S
H235 C213 0.950 . S
C236 C237 1.349 . S
C236 C238 1.327 . S
C236 H261 0.950 . S
C237 C236 1.349 . S
C237 C253 1.349 . S
C238 C236 1.327 . S
C238 C257 1.429 . S
C238 H262 0.950 . S
C239 C256 1.574 1_655 S
C239 C258 1.368 . S
C239 H263 0.949 . S
H240 C244 0.949 . S
C241 C242 1.349 . S
C241 C243 1.327 . S
C241 H264 0.950 . S
C242 C241 1.349 . S
C242 C254 1.349 . S
C243 C241 1.327 . S
C243 C259 1.429 . S
C243 H265 0.950 . S
C244 H240 0.949 . S
C244 C252 1.574 1_455 S
C244 C260 1.368 . S
H245 C253 0.950 . S
H246 C251 0.950 . S
H247 C252 0.949 . S
H248 C254 0.950 . S
H249 C255 0.950 . S
H250 C256 0.949 . S
C251 H246 0.950 . S
C251 C253 1.327 . S
C251 C257 1.429 . S
C252 C244 1.574 1_655 S
C252 H247 0.949 . S
C252 C258 1.368 . S
C253 C237 1.349 . S
C253 H245 0.950 . S
C253 C251 1.327 . S
C254 C242 1.349 . S
C254 H248 0.950 . S
C254 C255 1.327 . S
C255 H249 0.950 . S
C255 C254 1.327 . S
C255 C259 1.429 . S
C256 C239 1.574 1_455 S
C256 H250 0.949 . S
C256 C260 1.368 . S
C257 C238 1.429 . S
C257 C251 1.429 . S
C257 C258 1.523 . S
C258 C239 1.368 . S
C258 C252 1.368 . S
C258 C257 1.523 . S
C259 C243 1.429 . S
C259 C255 1.429 . S
C259 C260 1.523 . S
C260 C244 1.368 . S
C260 C256 1.368 . S
C260 C259 1.523 . S
H261 C236 0.950 . S
H262 C238 0.950 . S
H263 C239 0.949 . S
H264 C241 0.950 . S
H265 C243 0.950 . S
C266 C267 1.349 . S
C266 C268 1.327 . S
C266 H291 0.950 . S
C267 C266 1.349 . S
C267 C283 1.349 . S
C268 C266 1.327 . S
C268 C287 1.429 . S
C268 H292 0.950 . S
C269 C286 1.574 . S
C269 C288 1.368 . S
C269 H293 0.949 . S
H270 C274 0.949 . S
C271 C272 1.349 . S
C271 C273 1.327 . S
C271 H294 0.950 . S
C272 C271 1.349 . S
C272 C284 1.349 . S
C273 C271 1.327 . S
C273 C289 1.429 . S
C273 H295 0.950 . S
C274 H270 0.949 . S
C274 C282 1.574 . S
C274 C290 1.368 . S
H275 C283 0.950 . S
H276 C281 0.950 . S
H277 C282 0.949 . S
H278 C284 0.950 . S
H279 C285 0.950 . S
H280 C286 0.949 . S
C281 H276 0.950 . S
C281 C283 1.327 . S
C281 C287 1.429 . S
C282 C274 1.574 . S
C282 H277 0.949 . S
C282 C288 1.368 . S
C283 C267 1.349 . S
C283 H275 0.950 . S
C283 C281 1.327 . S
C284 C272 1.349 . S
C284 H278 0.950 . S
C284 C285 1.327 . S
C285 H279 0.950 . S
C285 C284 1.327 . S
C285 C289 1.429 . S
C286 C269 1.574 . S
C286 H280 0.949 . S
C286 C290 1.368 . S
C287 C268 1.429 . S
C287 C281 1.429 . S
C287 C288 1.523 . S
C288 C269 1.368 . S
C288 C282 1.368 . S
C288 C287 1.523 . S
C289 C273 1.429 . S
C289 C285 1.429 . S
C289 C290 1.523 . S
C290 C274 1.368 . S
C290 C286 1.368 . S
C290 C289 1.523 . S
H291 C266 0.950 . S
H292 C268 0.950 . S
H293 C269 0.949 . S
H294 C271 0.950 . S
H295 C273 0.950 . S
C296 C297 1.349 . S
C296 C298 1.327 . S
C296 H321 0.950 . S
C297 C296 1.349 . S
C297 C313 1.349 . S
C298 C296 1.327 . S
C298 C317 1.429 . S
C298 H322 0.950 . S
C299 C316 1.574 1_545 S
C299 C318 1.368 1_556 S
C299 H323 0.949 . S
H300 C304 0.949 . S
C301 C302 1.349 . S
C301 C303 1.327 . S
C301 H324 0.950 . S
C302 C301 1.349 . S
C302 C314 1.349 . S
C303 C301 1.327 . S
C303 C319 1.429 . S
C303 H325 0.950 . S
C304 H300 0.949 . S
C304 C312 1.574 1_565 S
C304 C320 1.368 1_554 S
H305 C313 0.950 1_556 S
H306 C311 0.950 1_556 S
H307 C312 0.949 . S
H308 C314 0.950 1_554 S
H309 C315 0.950 1_554 S
H310 C316 0.949 . S
C311 H306 0.950 1_554 S
C311 C313 1.327 . S
C311 C317 1.429 . S
C312 C304 1.574 1_545 S
C312 H307 0.949 . S
C312 C318 1.368 1_655 S
C313 C297 1.349 . S
C313 H305 0.950 1_554 S
C313 C311 1.327 . S
C314 C302 1.349 . S
C314 H308 0.950 1_556 S
C314 C315 1.327 . S
C315 H309 0.950 1_556 S
C315 C314 1.327 . S
C315 C319 1.429 . S
C316 C299 1.574 1_565 S
C316 H310 0.949 . S
C316 C320 1.368 1_455 S
C317 C298 1.429 . S
C317 C311 1.429 . S
C317 C318 1.523 . S
C318 C299 1.368 1_554 S
C318 C312 1.368 1_455 S
C318 C317 1.523 . S
C319 C303 1.429 . S
C319 C315 1.429 . S
C319 C320 1.523 . S
C320 C304 1.368 1_556 S
C320 C316 1.368 1_655 S
C320 C319 1.523 . S
H321 C296 0.950 . S
H322 C298 0.950 . S
H323 C299 0.949 . S
H324 C301 0.950 . S
H325 C303 0.950 . S
C326 C327 1.349 . S
C326 C328 1.327 . S
C326 H351 0.950 . S
C327 C326 1.349 . S
C327 C343 1.349 . S
C328 C326 1.327 . S
C328 C347 1.429 . S
C328 H352 0.950 . S
C329 C346 1.574 . S
C329 C348 1.368 . S
C329 H353 0.949 . S
H330 C334 0.949 . S
C331 C332 1.349 . S
C331 C333 1.327 . S
C331 H354 0.950 . S
C332 C331 1.349 . S
C332 C344 1.349 . S
C333 C331 1.327 . S
C333 C349 1.429 . S
C333 H355 0.950 . S
C334 H330 0.949 . S
C334 C342 1.574 . S
C334 C350 1.368 . S
H335 C343 0.950 . S
H336 C341 0.950 . S
H337 C342 0.949 . S
H338 C344 0.950 . S
H339 C345 0.950 . S
H340 C346 0.949 . S
C341 H336 0.950 . S
C341 C343 1.327 . S
C341 C347 1.429 . S
C342 C334 1.574 . S
C342 H337 0.949 . S
C342 C348 1.368 . S
C343 C327 1.349 . S
C343 H335 0.950 . S
C343 C341 1.327 . S
C344 C332 1.349 . S
C344 H338 0.950 . S
C344 C345 1.327 . S
C345 H339 0.950 . S
C345 C344 1.327 . S
C345 C349 1.429 . S
C346 C329 1.574 . S
C346 H340 0.949 . S
C346 C350 1.368 . S
C347 C328 1.429 . S
C347 C341 1.429 . S
C347 C348 1.523 . S
C348 C329 1.368 . S
C348 C342 1.368 . S
C348 C347 1.523 . S
C349 C333 1.429 . S
C349 C345 1.429 . S
C349 C350 1.523 . S
C350 C334 1.368 . S
C350 C346 1.368 . S
C350 C349 1.523 . S
H351 C326 0.950 . S
H352 C328 0.950 . S
H353 C329 0.949 . S
H354 C331 0.950 . S
H355 C333 0.950 . S
C356 C357 1.349 . S
C356 C358 1.327 . S
C356 H381 0.950 . S
C357 C356 1.349 . S
C357 C373 1.349 . S
C358 C356 1.327 . S
C358 C377 1.429 . S
C358 H382 0.950 . S
C359 C376 1.569 1_554 S
C359 C378 1.372 . S
C359 H383 0.950 . S
H360 C364 0.950 . S
C361 C362 1.349 . S
C361 C363 1.327 . S
C361 H384 0.950 . S
C362 C361 1.349 . S
C362 C374 1.349 . S
C363 C361 1.327 . S
C363 C379 1.429 . S
C363 H385 0.950 . S
C364 H360 0.950 . S
C364 C372 1.569 1_556 S
C364 C380 1.372 . S
H365 C373 0.950 . S
H366 C371 0.950 . S
H367 C372 0.949 . S
H368 C374 0.950 . S
H369 C375 0.950 . S
H370 C376 0.949 . S
C371 H366 0.950 . S
C371 C373 1.327 . S
C371 C377 1.429 . S
C372 C364 1.569 1_554 S
C372 H367 0.949 . S
C372 C378 1.368 . S
C373 C357 1.349 . S
C373 H365 0.950 . S
C373 C371 1.327 . S
C374 C362 1.349 . S
C374 H368 0.950 . S
C374 C375 1.327 . S
C375 H369 0.950 . S
C375 C374 1.327 . S
C375 C379 1.429 . S
C376 C359 1.569 1_556 S
C376 H370 0.949 . S
C376 C380 1.368 . S
C377 C358 1.429 . S
C377 C371 1.429 . S
C377 C378 1.523 . S
C378 C359 1.372 . S
C378 C372 1.368 . S
C378 C377 1.523 . S
C379 C363 1.429 . S
C379 C375 1.429 . S
C379 C380 1.523 . S
C380 C364 1.372 . S
C380 C376 1.368 . S
C380 C379 1.523 . S
H381 C356 0.950 . S
H382 C358 0.950 . S
H383 C359 0.950 . S
H384 C361 0.950 . S
H385 C363 0.950 . S
C386 C387 1.349 . S
C386 C388 1.327 . S
C386 H411 0.950 . S
C387 C386 1.349 . S
C387 C403 1.349 . S
C388 C386 1.327 . S
C388 C407 1.429 . S
C388 H412 0.950 . S
C389 C406 1.574 1_645 S
C389 C408 1.368 . S
C389 H413 0.949 . S
H390 C394 0.949 . S
C391 C392 1.349 . S
C391 C393 1.327 . S
C391 H414 0.950 . S
C392 C391 1.349 . S
C392 C404 1.349 . S
C393 C391 1.327 . S
C393 C409 1.429 . S
C393 H415 0.950 . S
C394 H390 0.949 . S
C394 C402 1.574 1_465 S
C394 C410 1.368 . S
H395 C403 0.950 . S
H396 C401 0.950 . S
H397 C402 0.949 . S
H398 C404 0.950 . S
H399 C405 0.950 . S
H400 C406 0.949 . S
C401 H396 0.950 . S
C401 C403 1.327 . S
C401 C407 1.429 . S
C402 C394 1.574 1_645 S
C402 H397 0.949 . S
C402 C408 1.368 . S
C403 C387 1.349 . S
C403 H395 0.950 . S
C403 C401 1.327 . S
C404 C392 1.349 . S
C404 H398 0.950 . S
C404 C405 1.327 . S
C405 H399 0.950 . S
C405 C404 1.327 . S
C405 C409 1.429 . S
C406 C389 1.574 1_465 S
C406 H400 0.949 . S
C406 C410 1.368 . S
C407 C388 1.429 . S
C407 C401 1.429 . S
C407 C408 1.523 . S
C408 C389 1.368 . S
C408 C402 1.368 . S
C408 C407 1.523 . S
C409 C393 1.429 . S
C409 C405 1.429 . S
C409 C410 1.523 . S
C410 C394 1.368 . S
C410 C406 1.368 . S
C410 C409 1.523 . S
H411 C386 0.950 . S
H412 C388 0.950 . S
H413 C389 0.949 . S
H414 C391 0.950 . S
H415 C393 0.950 . S
C416 C417 1.349 . S
C416 C418 1.327 . S
C416 H441 0.950 . S
C417 C416 1.349 . S
C417 C433 1.349 . S
C418 C416 1.327 . S
C418 C437 1.429 . S
C418 H442 0.950 . S
C419 C436 1.574 . S
C419 C438 1.368 . S
C419 H443 0.949 . S
H420 C424 0.966 . S
C421 C422 1.349 . S
C421 C423 1.327 . S
C421 H444 0.950 . S
C422 C421 1.349 . S
C422 C434 1.349 . S
C423 C421 1.327 . S
C423 C439 1.429 . S
C423 H445 0.950 . S
C424 H420 0.966 . S
C424 C432 1.553 1_545 S
C424 C440 1.371 . S
H425 C433 0.950 . S
H426 C431 0.950 . S
H427 C432 0.949 . S
H428 C434 0.950 . S
H429 C435 0.950 . S
H430 C436 0.949 . S
C431 H426 0.950 . S
C431 C433 1.327 . S
C431 C437 1.429 . S
C432 C424 1.553 1_565 S
C432 H427 0.949 . S
C432 C438 1.368 . S
C433 C417 1.349 . S
C433 H425 0.950 . S
C433 C431 1.327 . S
C434 C422 1.349 . S
C434 H428 0.950 . S
C434 C435 1.327 . S
C435 H429 0.950 . S
C435 C434 1.327 . S
C435 C439 1.429 . S
C436 C419 1.574 . S
C436 H430 0.949 . S
C436 C440 1.368 1_565 S
C437 C418 1.429 . S
C437 C431 1.429 . S
C437 C438 1.523 . S
C438 C419 1.368 . S
C438 C432 1.368 . S
C438 C437 1.523 . S
C439 C423 1.429 . S
C439 C435 1.429 . S
C439 C440 1.523 . S
C440 C424 1.371 . S
C440 C436 1.368 1_545 S
C440 C439 1.523 . S
H441 C416 0.950 . S
H442 C418 0.950 . S
H443 C419 0.949 . S
H444 C421 0.950 . S
H445 C423 0.950 . S
C446 C447 1.349 . S
C446 C448 1.327 . S
C446 H471 0.950 . S
C447 C446 1.349 . S
C447 C463 1.349 . S
C448 C446 1.327 . S
C448 C467 1.429 . S
C448 H472 0.950 . S
C449 C466 1.574 . S
C449 C468 1.368 . S
C449 H473 0.949 . S
H450 C454 0.949 . S
C451 C452 1.349 . S
C451 C453 1.327 . S
C451 H474 0.950 . S
C452 C451 1.349 . S
C452 C464 1.349 . S
C453 C451 1.327 . S
C453 C469 1.429 . S
C453 H475 0.950 . S
C454 H450 0.949 . S
C454 C462 1.574 . S
C454 C470 1.368 . S
H455 C463 0.950 . S
H456 C461 0.950 . S
H457 C462 0.949 . S
H458 C464 0.950 . S
H459 C465 0.950 . S
H460 C466 0.949 . S
C461 H456 0.950 . S
C461 C463 1.327 . S
C461 C467 1.429 . S
C462 C454 1.574 . S
C462 H457 0.949 . S
C462 C468 1.368 . S
C463 C447 1.349 . S
C463 H455 0.950 . S
C463 C461 1.327 . S
C464 C452 1.349 . S
C464 H458 0.950 . S
C464 C465 1.327 . S
C465 H459 0.950 . S
C465 C464 1.327 . S
C465 C469 1.429 . S
C466 C449 1.574 . S
C466 H460 0.949 . S
C466 C470 1.368 . S
C467 C448 1.429 . S
C467 C461 1.429 . S
C467 C468 1.523 . S
C468 C449 1.368 . S
C468 C462 1.368 . S
C468 C467 1.523 . S
C469 C453 1.429 . S
C469 C465 1.429 . S
C469 C470 1.523 . S
C470 C454 1.368 . S
C470 C466 1.368 . S
C470 C469 1.523 . S
H471 C446 0.950 . S
H472 C448 0.950 . S
H473 C449 0.949 . S
H474 C451 0.950 . S
H475 C453 0.950 . S
C476 C477 1.349 . S
C476 C478 1.327 . S
C476 H501 0.950 . S
C477 C476 1.349 . S
C477 C493 1.349 . S
C478 C476 1.327 . S
C478 C497 1.429 . S
C478 H502 0.950 . S
C479 C496 1.574 . S
C479 C498 1.368 . S
C479 H503 0.949 . S
H480 C484 0.949 . S
C481 C482 1.349 . S
C481 C483 1.327 . S
C481 H504 0.950 . S
C482 C481 1.349 . S
C482 C494 1.349 . S
C483 C481 1.327 . S
C483 C499 1.429 . S
C483 H505 0.950 . S
C484 H480 0.949 . S
C484 C492 1.574 . S
C484 C500 1.368 . S
H485 C493 0.950 . S
H486 C491 0.950 . S
H487 C492 0.949 . S
H488 C494 0.950 . S
H489 C495 0.950 . S
H490 C496 0.949 . S
C491 H486 0.950 . S
C491 C493 1.327 . S
C491 C497 1.429 . S
C492 C484 1.574 . S
C492 H487 0.949 . S
C492 C498 1.368 . S
C493 C477 1.349 . S
C493 H485 0.950 . S
C493 C491 1.327 . S
C494 C482 1.349 . S
C494 H488 0.950 . S
C494 C495 1.327 . S
C495 H489 0.950 . S
C495 C494 1.327 . S
C495 C499 1.429 . S
C496 C479 1.574 . S
C496 H490 0.949 . S
C496 C500 1.368 . S
C497 C478 1.429 . S
C497 C491 1.429 . S
C497 C498 1.523 . S
C498 C479 1.368 . S
C498 C492 1.368 . S
C498 C497 1.523 . S
C499 C483 1.429 . S
C499 C495 1.429 . S
C499 C500 1.523 . S
C500 C484 1.368 . S
C500 C496 1.368 . S
C500 C499 1.523 . S
H501 C476 0.950 . S
H502 C478 0.950 . S
H503 C479 0.949 . S
H504 C481 0.950 . S
H505 C483 0.950 . S
C506 C507 1.349 . S
C506 C508 1.327 . S
C506 H531 0.950 . S
C507 C506 1.349 . S
C507 C523 1.349 . S
C508 C506 1.327 . S
C508 C527 1.429 . S
C508 H532 0.950 . S
C509 C526 1.574 . S
C509 C528 1.368 1_565 S
C509 H533 0.949 . S
H510 C514 0.949 . S
C511 C512 1.349 . S
C511 C513 1.327 . S
C511 H534 0.950 . S
C512 C511 1.349 . S
C512 C524 1.349 . S
C513 C511 1.327 . S
C513 C529 1.429 . S
C513 H535 0.950 . S
C514 H510 0.949 . S
C514 C522 1.564 1_565 S
C514 C530 1.368 . S
H515 C523 0.950 . S
H516 C521 0.950 . S
H517 C522 0.956 . S
H518 C524 0.950 . S
H519 C525 0.950 . S
H520 C526 0.949 . S
C521 H516 0.950 . S
C521 C523 1.327 . S
C521 C527 1.429 . S
C522 C514 1.564 1_545 S
C522 H517 0.956 . S
C522 C528 1.370 . S
C523 C507 1.349 . S
C523 H515 0.950 . S
C523 C521 1.327 . S
C524 C512 1.349 . S
C524 H518 0.950 . S
C524 C525 1.327 . S
C525 H519 0.950 . S
C525 C524 1.327 . S
C525 C529 1.429 . S
C526 C509 1.574 . S
C526 H520 0.949 . S
C526 C530 1.368 . S
C527 C508 1.429 . S
C527 C521 1.429 . S
C527 C528 1.523 . S
C528 C509 1.368 1_545 S
C528 C522 1.370 . S
C528 C527 1.523 . S
C529 C513 1.429 . S
C529 C525 1.429 . S
C529 C530 1.523 . S
C530 C514 1.368 . S
C530 C526 1.368 . S
C530 C529 1.523 . S
H531 C506 0.950 . S
H532 C508 0.950 . S
H533 C509 0.949 . S
H534 C511 0.950 . S
H535 C513 0.950 . S
C536 C537 1.349 . S
C536 C538 1.327 . S
C536 H561 0.950 . S
C537 C536 1.349 . S
C537 C553 1.349 . S
C538 C536 1.327 . S
C538 C557 1.429 . S
C538 H562 0.950 . S
C539 C556 1.574 . S
C539 C558 1.368 . S
C539 H563 0.949 . S
H540 C544 0.965 . S
C541 C542 1.349 . S
C541 C543 1.327 . S
C541 H564 0.950 . S
C542 C541 1.349 . S
C542 C554 1.349 . S
C543 C541 1.327 . S
C543 C559 1.429 . S
C543 H565 0.950 . S
C544 H540 0.965 . S
C544 C552 1.553 1_565 S
C544 C560 1.371 . S
H545 C553 0.950 . S
H546 C551 0.950 . S
H547 C552 0.949 . S
H548 C554 0.950 . S
H549 C555 0.950 . S
H550 C556 0.949 . S
C551 H546 0.950 . S
C551 C553 1.327 . S
C551 C557 1.429 . S
C552 C544 1.553 1_545 S
C552 H547 0.949 . S
C552 C558 1.368 . S
C553 C537 1.349 . S
C553 H545 0.950 . S
C553 C551 1.327 . S
C554 C542 1.349 . S
C554 H548 0.950 . S
C554 C555 1.327 . S
C555 H549 0.950 . S
C555 C554 1.327 . S
C555 C559 1.429 . S
C556 C539 1.574 . S
C556 H550 0.949 . S
C556 C560 1.368 1_545 S
C557 C538 1.429 . S
C557 C551 1.429 . S
C557 C558 1.523 . S
C558 C539 1.368 . S
C558 C552 1.368 . S
C558 C557 1.523 . S
C559 C543 1.429 . S
C559 C555 1.429 . S
C559 C560 1.523 . S
C560 C544 1.371 . S
C560 C556 1.368 1_565 S
C560 C559 1.523 . S
H561 C536 0.950 . S
H562 C538 0.950 . S
H563 C539 0.949 . S
H564 C541 0.950 . S
H565 C543 0.950 . S
C566 C567 1.349 . S
C566 C568 1.327 . S
C566 H591 0.950 . S
C567 C566 1.349 . S
C567 C583 1.349 . S
C568 C566 1.327 . S
C568 C587 1.429 . S
C568 H592 0.950 . S
C569 C586 1.574 . S
C569 C588 1.368 . S
C569 H593 0.949 . S
H570 C574 0.949 . S
C571 C572 1.349 . S
C571 C573 1.327 . S
C571 H594 0.950 . S
C572 C571 1.349 . S
C572 C584 1.349 . S
C573 C571 1.327 . S
C573 C589 1.429 . S
C573 H595 0.950 . S
C574 H570 0.949 . S
C574 C582 1.574 . S
C574 C590 1.368 . S
H575 C583 0.950 . S
H576 C581 0.950 . S
H577 C582 0.949 . S
H578 C584 0.950 . S
H579 C585 0.950 . S
H580 C586 0.949 . S
C581 H576 0.950 . S
C581 C583 1.327 . S
C581 C587 1.429 . S
C582 C574 1.574 . S
C582 H577 0.949 . S
C582 C588 1.368 . S
C583 C567 1.349 . S
C583 H575 0.950 . S
C583 C581 1.327 . S
C584 C572 1.349 . S
C584 H578 0.950 . S
C584 C585 1.327 . S
C585 H579 0.950 . S
C585 C584 1.327 . S
C585 C589 1.429 . S
C586 C569 1.574 . S
C586 H580 0.949 . S
C586 C590 1.368 . S
C587 C568 1.429 . S
C587 C581 1.429 . S
C587 C588 1.523 . S
C588 C569 1.368 . S
C588 C582 1.368 . S
C588 C587 1.523 . S
C589 C573 1.429 . S
C589 C585 1.429 . S
C589 C590 1.523 . S
C590 C574 1.368 . S
C590 C586 1.368 . S
C590 C589 1.523 . S
H591 C566 0.950 . S
H592 C568 0.950 . S
H593 C569 0.949 . S
H594 C571 0.950 . S
H595 C573 0.950 . S
C596 C597 1.349 . S
C596 C598 1.327 . S
C596 H621 0.950 . S
C597 C596 1.349 . S
C597 C613 1.349 . S
C598 C596 1.327 . S
C598 C617 1.429 . S
C598 H622 0.950 . S
C599 C616 1.574 . S
C599 C618 1.368 . S
C599 H623 0.949 . S
H600 C604 0.949 . S
C601 C602 1.349 . S
C601 C603 1.327 . S
C601 H624 0.950 . S
C602 C601 1.349 . S
C602 C614 1.349 . S
C603 C601 1.327 . S
C603 C619 1.429 . S
C603 H625 0.950 . S
C604 H600 0.949 . S
C604 C612 1.574 . S
C604 C620 1.368 . S
H605 C613 0.950 . S
H606 C611 0.950 . S
H607 C612 0.949 . S
H608 C614 0.950 . S
H609 C615 0.950 . S
H610 C616 0.949 . S
C611 H606 0.950 . S
C611 C613 1.327 . S
C611 C617 1.429 . S
C612 C604 1.574 . S
C612 H607 0.949 . S
C612 C618 1.368 . S
C613 C597 1.349 . S
C613 H605 0.950 . S
C613 C611 1.327 . S
C614 C602 1.349 . S
C614 H608 0.950 . S
C614 C615 1.327 . S
C615 H609 0.950 . S
C615 C614 1.327 . S
C615 C619 1.429 . S
C616 C599 1.574 . S
C616 H610 0.949 . S
C616 C620 1.368 . S
C617 C598 1.429 . S
C617 C611 1.429 . S
C617 C618 1.523 . S
C618 C599 1.368 . S
C618 C612 1.368 . S
C618 C617 1.523 . S
C619 C603 1.429 . S
C619 C615 1.429 . S
C619 C620 1.523 . S
C620 C604 1.368 . S
C620 C616 1.368 . S
C620 C619 1.523 . S
H621 C596 0.950 . S
H622 C598 0.950 . S
H623 C599 0.949 . S
H624 C601 0.950 . S
H625 C603 0.950 . S
C626 C627 1.349 . S
C626 C628 1.327 . S
C626 H651 0.950 . S
C627 C626 1.349 . S
C627 C643 1.349 . S
C628 C626 1.327 . S
C628 C647 1.429 . S
C628 H652 0.950 . S
C629 C646 1.574 . S
C629 C648 1.368 1_545 S
C629 H653 0.949 . S
H630 C634 0.949 . S
C631 C632 1.349 . S
C631 C633 1.327 . S
C631 H654 0.950 . S
C632 C631 1.349 . S
C632 C644 1.349 . S
C633 C631 1.327 . S
C633 C649 1.429 . S
C633 H655 0.950 . S
C634 H630 0.949 . S
C634 C642 1.574 1_545 S
C634 C650 1.368 . S
H635 C643 0.950 . S
H636 C641 0.950 . S
H637 C642 0.949 . S
H638 C644 0.950 . S
H639 C645 0.950 . S
H640 C646 0.949 . S
C641 H636 0.950 . S
C641 C643 1.327 . S
C641 C647 1.429 . S
C642 C634 1.574 1_565 S
C642 H637 0.949 . S
C642 C648 1.368 . S
C643 C627 1.349 . S
C643 H635 0.950 . S
C643 C641 1.327 . S
C644 C632 1.349 . S
C644 H638 0.950 . S
C644 C645 1.327 . S
C645 H639 0.950 . S
C645 C644 1.327 . S
C645 C649 1.429 . S
C646 C629 1.574 . S
C646 H640 0.949 . S
C646 C650 1.368 . S
C647 C628 1.429 . S
C647 C641 1.429 . S
C647 C648 1.523 . S
C648 C629 1.368 1_565 S
C648 C642 1.368 . S
C648 C647 1.523 . S
C649 C633 1.429 . S
C649 C645 1.429 . S
C649 C650 1.523 . S
C650 C634 1.368 . S
C650 C646 1.368 . S
C650 C649 1.523 . S
H651 C626 0.950 . S
H652 C628 0.950 . S
H653 C629 0.949 . S
H654 C631 0.950 . S
H655 C633 0.950 . S
C656 C657 1.349 . S
C656 C658 1.327 . S
C656 H681 0.950 . S
C657 C656 1.349 . S
C657 C673 1.349 . S
C658 C656 1.327 . S
C658 C677 1.429 . S
C658 H682 0.950 . S
C659 C676 1.574 . S
C659 C678 1.368 . S
C659 H683 0.949 . S
H660 C664 0.949 . S
C661 C662 1.349 . S
C661 C663 1.327 . S
C661 H684 0.950 . S
C662 C661 1.349 . S
C662 C674 1.349 . S
C663 C661 1.327 . S
C663 C679 1.429 . S
C663 H685 0.950 . S
C664 H660 0.949 . S
C664 C672 1.574 . S
C664 C680 1.368 . S
H665 C673 0.950 . S
H666 C671 0.950 . S
H667 C672 0.949 . S
H668 C674 0.950 . S
H669 C675 0.950 . S
H670 C676 0.949 . S
C671 H666 0.950 . S
C671 C673 1.327 . S
C671 C677 1.429 . S
C672 C664 1.574 . S
C672 H667 0.949 . S
C672 C678 1.368 . S
C673 C657 1.349 . S
C673 H665 0.950 . S
C673 C671 1.327 . S
C674 C662 1.349 . S
C674 H668 0.950 . S
C674 C675 1.327 . S
C675 H669 0.950 . S
C675 C674 1.327 . S
C675 C679 1.429 . S
C676 C659 1.574 . S
C676 H670 0.949 . S
C676 C680 1.368 . S
C677 C658 1.429 . S
C677 C671 1.429 . S
C677 C678 1.523 . S
C678 C659 1.368 . S
C678 C672 1.368 . S
C678 C677 1.523 . S
C679 C663 1.429 . S
C679 C675 1.429 . S
C679 C680 1.523 . S
C680 C664 1.368 . S
C680 C676 1.368 . S
C680 C679 1.523 . S
H681 C656 0.950 . S
H682 C658 0.950 . S
H683 C659 0.949 . S
H684 C661 0.950 . S
H685 C663 0.950 . S
C686 C687 1.349 . S
C686 C688 1.327 . S
C686 H711 0.950 . S
C687 C686 1.349 . S
C687 C703 1.349 . S
C688 C686 1.327 . S
C688 C707 1.429 . S
C688 H712 0.950 . S
C689 C706 1.574 . S
C689 C708 1.368 . S
C689 H713 0.949 . S
H690 C694 0.949 . S
C691 C692 1.349 . S
C691 C693 1.327 . S
C691 H714 0.950 . S
C692 C691 1.349 . S
C692 C704 1.349 . S
C693 C691 1.327 . S
C693 C709 1.429 . S
C693 H715 0.950 . S
C694 H690 0.949 . S
C694 C702 1.574 . S
C694 C710 1.368 . S
H695 C703 0.950 . S
H696 C701 0.950 . S
H697 C702 0.949 . S
H698 C704 0.950 . S
H699 C705 0.950 . S
H700 C706 0.949 . S
C701 H696 0.950 . S
C701 C703 1.327 . S
C701 C707 1.429 . S
C702 C694 1.574 . S
C702 H697 0.949 . S
C702 C708 1.368 . S
C703 C687 1.349 . S
C703 H695 0.950 . S
C703 C701 1.327 . S
C704 C692 1.349 . S
C704 H698 0.950 . S
C704 C705 1.327 . S
C705 H699 0.950 . S
C705 C704 1.327 . S
C705 C709 1.429 . S
C706 C689 1.574 . S
C706 H700 0.949 . S
C706 C710 1.368 . S
C707 C688 1.429 . S
C707 C701 1.429 . S
C707 C708 1.523 . S
C708 C689 1.368 . S
C708 C702 1.368 . S
C708 C707 1.523 . S
C709 C693 1.429 . S
C709 C705 1.429 . S
C709 C710 1.523 . S
C710 C694 1.368 . S
C710 C706 1.368 . S
C710 C709 1.523 . S
H711 C686 0.950 . S
H712 C688 0.950 . S
H713 C689 0.949 . S
H714 C691 0.950 . S
H715 C693 0.950 . S
C716 C717 1.349 . S
C716 C718 1.327 . S
C716 H741 0.950 . S
C717 C716 1.349 . S
C717 C733 1.349 . S
C718 C716 1.327 . S
C718 C737 1.429 . S
C718 H742 0.950 . S
C719 C736 1.574 . S
C719 C738 1.368 . S
C719 H743 0.949 . S
H720 C724 0.949 . S
C721 C722 1.349 . S
C721 C723 1.327 . S
C721 H744 0.950 . S
C722 C721 1.349 . S
C722 C734 1.349 . S
C723 C721 1.327 . S
C723 C739 1.429 . S
C723 H745 0.950 . S
C724 H720 0.949 . S
C724 C732 1.574 . S
C724 C740 1.368 . S
H725 C733 0.950 . S
H726 C731 0.950 . S
H727 C732 0.949 . S
H728 C734 0.950 . S
H729 C735 0.950 . S
H730 C736 0.949 . S
C731 H726 0.950 . S
C731 C733 1.327 . S
C731 C737 1.429 . S
C732 C724 1.574 . S
C732 H727 0.949 . S
C732 C738 1.368 . S
C733 C717 1.349 . S
C733 H725 0.950 . S
C733 C731 1.327 . S
C734 C722 1.349 . S
C734 H728 0.950 . S
C734 C735 1.327 . S
C735 H729 0.950 . S
C735 C734 1.327 . S
C735 C739 1.429 . S
C736 C719 1.574 . S
C736 H730 0.949 . S
C736 C740 1.368 . S
C737 C718 1.429 . S
C737 C731 1.429 . S
C737 C738 1.523 . S
C738 C719 1.368 . S
C738 C732 1.368 . S
C738 C737 1.523 . S
C739 C723 1.429 . S
C739 C735 1.429 . S
C739 C740 1.523 . S
C740 C724 1.368 . S
C740 C736 1.368 . S
C740 C739 1.523 . S
H741 C716 0.950 . S
H742 C718 0.950 . S
H743 C719 0.949 . S
H744 C721 0.950 . S
H745 C723 0.950 . S
C746 C747 1.349 . S
C746 C748 1.327 . S
C746 H771 0.950 . S
C747 C746 1.349 . S
C747 C763 1.349 . S
C748 C746 1.327 . S
C748 C767 1.429 . S
C748 H772 0.950 . S
C749 C766 1.574 . S
C749 C768 1.368 . S
C749 H773 0.949 . S
H750 C754 0.949 . S
C751 C752 1.349 . S
C751 C753 1.327 . S
C751 H774 0.950 . S
C752 C751 1.349 . S
C752 C764 1.349 . S
C753 C751 1.327 . S
C753 C769 1.429 . S
C753 H775 0.950 . S
C754 H750 0.949 . S
C754 C762 1.574 . S
C754 C770 1.368 . S
H755 C763 0.950 . S
H756 C761 0.950 . S
H757 C762 0.949 . S
H758 C764 0.950 . S
H759 C765 0.950 . S
H760 C766 0.949 . S
C761 H756 0.950 . S
C761 C763 1.327 . S
C761 C767 1.429 . S
C762 C754 1.574 . S
C762 H757 0.949 . S
C762 C768 1.368 . S
C763 C747 1.349 . S
C763 H755 0.950 . S
C763 C761 1.327 . S
C764 C752 1.349 . S
C764 H758 0.950 . S
C764 C765 1.327 . S
C765 H759 0.950 . S
C765 C764 1.327 . S
C765 C769 1.429 . S
C766 C749 1.574 . S
C766 H760 0.949 . S
C766 C770 1.368 . S
C767 C748 1.429 . S
C767 C761 1.429 . S
C767 C768 1.523 . S
C768 C749 1.368 . S
C768 C762 1.368 . S
C768 C767 1.523 . S
C769 C753 1.429 . S
C769 C765 1.429 . S
C769 C770 1.523 . S
C770 C754 1.368 . S
C770 C766 1.368 . S
C770 C769 1.523 . S
H771 C746 0.950 . S
H772 C748 0.950 . S
H773 C749 0.949 . S
H774 C751 0.950 . S
H775 C753 0.950 . S
C776 C777 1.349 . S
C776 C778 1.327 . S
C776 H801 0.950 . S
C777 C776 1.349 . S
C777 C793 1.349 . S
C778 C776 1.327 . S
C778 C797 1.429 . S
C778 H802 0.950 . S
C779 C796 1.574 . S
C779 C798 1.368 . S
C779 H803 0.949 . S
H780 C784 0.949 . S
C781 C782 1.349 . S
C781 C783 1.327 . S
C781 H804 0.950 . S
C782 C781 1.349 . S
C782 C794 1.349 . S
C783 C781 1.327 . S
C783 C799 1.429 . S
C783 H805 0.950 . S
C784 H780 0.949 . S
C784 C792 1.574 . S
C784 C800 1.368 . S
H785 C793 0.950 . S
H786 C791 0.950 . S
H787 C792 0.949 . S
H788 C794 0.950 . S
H789 C795 0.950 . S
H790 C796 0.949 . S
C791 H786 0.950 . S
C791 C793 1.327 . S
C791 C797 1.429 . S
C792 C784 1.574 . S
C792 H787 0.949 . S
C792 C798 1.368 . S
C793 C777 1.349 . S
C793 H785 0.950 . S
C793 C791 1.327 . S
C794 C782 1.349 . S
C794 H788 0.950 . S
C794 C795 1.327 . S
C795 H789 0.950 . S
C795 C794 1.327 . S
C795 C799 1.429 . S
C796 C779 1.574 . S
C796 H790 0.949 . S
C796 C800 1.368 . S
C797 C778 1.429 . S
C797 C791 1.429 . S
C797 C798 1.523 . S
C798 C779 1.368 . S
C798 C792 1.368 . S
C798 C797 1.523 . S
C799 C783 1.429 . S
C799 C795 1.429 . S
C799 C800 1.523 . S
C800 C784 1.368 . S
C800 C796 1.368 . S
C800 C799 1.523 . S
H801 C776 0.950 . S
H802 C778 0.950 . S
H803 C779 0.949 . S
H804 C781 0.950 . S
H805 C783 0.950 . S
C806 C807 1.349 . S
C806 C808 1.327 . S
C806 H831 0.950 . S
C807 C806 1.349 . S
C807 C823 1.349 . S
C808 C806 1.327 . S
C808 C827 1.429 . S
C808 H832 0.950 . S
C809 C826 1.574 . S
C809 C828 1.368 . S
C809 H833 0.949 . S
H810 C814 0.949 . S
C811 C812 1.349 . S
C811 C813 1.327 . S
C811 H834 0.950 . S
C812 C811 1.349 . S
C812 C824 1.349 . S
C813 C811 1.327 . S
C813 C829 1.429 . S
C813 H835 0.950 . S
C814 H810 0.949 . S
C814 C822 1.574 . S
C814 C830 1.368 . S
H815 C823 0.950 . S
H816 C821 0.950 . S
H817 C822 0.949 . S
H818 C824 0.950 . S
H819 C825 0.950 . S
H820 C826 0.949 . S
C821 H816 0.950 . S
C821 C823 1.327 . S
C821 C827 1.429 . S
C822 C814 1.574 . S
C822 H817 0.949 . S
C822 C828 1.368 . S
C823 C807 1.349 . S
C823 H815 0.950 . S
C823 C821 1.327 . S
C824 C812 1.349 . S
C824 H818 0.950 . S
C824 C825 1.327 . S
C825 H819 0.950 . S
C825 C824 1.327 . S
C825 C829 1.429 . S
C826 C809 1.574 . S
C826 H820 0.949 . S
C826 C830 1.368 . S
C827 C808 1.429 . S
C827 C821 1.429 . S
C827 C828 1.523 . S
C828 C809 1.368 . S
C828 C822 1.368 . S
C828 C827 1.523 . S
C829 C813 1.429 . S
C829 C825 1.429 . S
C829 C830 1.523 . S
C830 C814 1.368 . S
C830 C826 1.368 . S
C830 C829 1.523 . S
H831 C806 0.950 . S
H832 C808 0.950 . S
H833 C809 0.949 . S
H834 C811 0.950 . S
H835 C813 0.950 . S
C836 C837 1.349 . S
C836 C838 1.327 . S
C836 H861 0.950 . S
C837 C836 1.349 . S
C837 C853 1.349 . S
C838 C836 1.327 . S
C838 C857 1.429 . S
C838 H862 0.950 . S
C839 C856 1.574 . S
C839 C858 1.368 . S
C839 H863 0.949 . S
H840 C844 0.949 . S
C841 C842 1.349 . S
C841 C843 1.327 . S
C841 H864 0.950 . S
C842 C841 1.349 . S
C842 C854 1.349 . S
C843 C841 1.327 . S
C843 C859 1.429 . S
C843 H865 0.950 . S
C844 H840 0.949 . S
C844 C852 1.574 . S
C844 C860 1.368 . S
H845 C853 0.950 . S
H846 C851 0.950 . S
H847 C852 0.949 . S
H848 C854 0.950 . S
H849 C855 0.950 . S
H850 C856 0.949 . S
C851 H846 0.950 . S
C851 C853 1.327 . S
C851 C857 1.429 . S
C852 C844 1.574 . S
C852 H847 0.949 . S
C852 C858 1.368 . S
C853 C837 1.349 . S
C853 H845 0.950 . S
C853 C851 1.327 . S
C854 C842 1.349 . S
C854 H848 0.950 . S
C854 C855 1.327 . S
C855 H849 0.950 . S
C855 C854 1.327 . S
C855 C859 1.429 . S
C856 C839 1.574 . S
C856 H850 0.949 . S
C856 C860 1.368 . S
C857 C838 1.429 . S
C857 C851 1.429 . S
C857 C858 1.523 . S
C858 C839 1.368 . S
C858 C852 1.368 . S
C858 C857 1.523 . S
C859 C843 1.429 . S
C859 C855 1.429 . S
C859 C860 1.523 . S
C860 C844 1.368 . S
C860 C856 1.368 . S
C860 C859 1.523 . S
H861 C836 0.950 . S
H862 C838 0.950 . S
H863 C839 0.949 . S
H864 C841 0.950 . S
H865 C843 0.950 . S
C866 C867 1.349 . S
C866 C868 1.327 . S
C866 H891 0.950 . S
C867 C866 1.349 . S
C867 C883 1.349 . S
C868 C866 1.327 . S
C868 C887 1.429 . S
C868 H892 0.950 . S
C869 C886 1.574 . S
C869 C888 1.368 . S
C869 H893 0.949 . S
H870 C874 0.949 . S
C871 C872 1.349 . S
C871 C873 1.327 . S
C871 H894 0.950 . S
C872 C871 1.349 . S
C872 C884 1.349 . S
C873 C871 1.327 . S
C873 C889 1.429 . S
C873 H895 0.950 . S
C874 H870 0.949 . S
C874 C882 1.574 . S
C874 C890 1.368 . S
H875 C883 0.950 . S
H876 C881 0.950 . S
H877 C882 0.949 . S
H878 C884 0.950 . S
H879 C885 0.950 . S
H880 C886 0.949 . S
C881 H876 0.950 . S
C881 C883 1.327 . S
C881 C887 1.429 . S
C882 C874 1.574 . S
C882 H877 0.949 . S
C882 C888 1.368 . S
C883 C867 1.349 . S
C883 H875 0.950 . S
C883 C881 1.327 . S
C884 C872 1.349 . S
C884 H878 0.950 . S
C884 C885 1.327 . S
C885 H879 0.950 . S
C885 C884 1.327 . S
C885 C889 1.429 . S
C886 C869 1.574 . S
C886 H880 0.949 . S
C886 C890 1.368 . S
C887 C868 1.429 . S
C887 C881 1.429 . S
C887 C888 1.523 . S
C888 C869 1.368 . S
C888 C882 1.368 . S
C888 C887 1.523 . S
C889 C873 1.429 . S
C889 C885 1.429 . S
C889 C890 1.523 . S
C890 C874 1.368 . S
C890 C886 1.368 . S
C890 C889 1.523 . S
H891 C866 0.950 . S
H892 C868 0.950 . S
H893 C869 0.949 . S
H894 C871 0.950 . S
H895 C873 0.950 . S
C177 C9 0.510 . S
C182 C71 0.510 . S
C207 C27 0.510 . S
C212 C49 0.510 . S
C237 C94 0.510 . S
C242 C160 0.510 . S
C267 C116 0.510 . S
C272 C139 0.510 . S
C297 C6 2.090 . S
C302 C97 2.090 . S
C327 C119 2.090 . S
C332 C29 2.090 . S
C357 C137 2.090 . S
C362 C51 2.090 . S
C387 C73 2.090 . S
C392 C163 2.090 . S
C417 C141 0.804 . S
C422 C4 0.807 . S
C447 C159 0.804 . S
C452 C30 0.807 . S
C477 C52 0.807 . S
C482 C93 0.804 . S
C507 C74 0.807 . S
C512 C115 0.804 . S
C537 C50 0.804 . S
C542 C96 0.807 . S
C567 C118 0.807 . S
C572 C72 0.804 . S
C597 C7 0.804 . S
C602 C136 0.807 . S
C627 C162 0.807 . S
C632 C28 0.804 . S
C657 C5 1.671 1_556 S
C662 C26 1.696 . S
C687 C8 1.696 . S
C692 C31 1.671 . S
C717 C70 1.696 . S
C722 C53 1.671 1_554 S
C747 C75 1.671 . S
C752 C48 1.696 . S
C777 C95 1.671 1_554 S
C782 C114 1.696 . S
C807 C92 1.696 . S
C812 C117 1.671 . S
C837 C158 1.696 . S
C842 C138 1.671 1_556 S
C867 C161 1.671 . S
C872 C140 1.696 . S
