# Generated by pormake.
# Topology umh, (4)-cn, num edge types: 1
# Building blocks:
#     Node 0, Type 0, BuildingBlock: ESEHIV_clean_sbu_0, # of connection points: 4
#     Node 1, Type 0, BuildingBlock: ESEHIV_clean_sbu_0, # of connection points: 4
#     Node 2, Type 0, BuildingBlock: ESEHIV_clean_sbu_0, # of connection points: 4
#     Node 3, Type 0, BuildingBlock: ESEHIV_clean_sbu_0, # of connection points: 4
#     Node 4, Type 0, BuildingBlock: ESEHIV_clean_sbu_0, # of connection points: 4
#     Node 5, Type 0, BuildingBlock: ESEHIV_clean_sbu_0, # of connection points: 4
#     Node 6, Type 0, BuildingBlock: ESEHIV_clean_sbu_0, # of connection points: 4
#     Node 7, Type 0, BuildingBlock: ESEHIV_clean_sbu_0, # of connection points: 4
#     Node 8, Type 0, BuildingBlock: ESEHIV_clean_sbu_0, # of connection points: 4
#     Node 9, Type 0, BuildingBlock: ESEHIV_clean_sbu_0, # of connection points: 4
#     Node 10, Type 0, BuildingBlock: ESEHIV_clean_sbu_0, # of connection points: 4
#     Node 11, Type 0, BuildingBlock: ESEHIV_clean_sbu_0, # of connection points: 4
#     Node 12, Type 0, BuildingBlock: ESEHIV_clean_sbu_0, # of connection points: 4
#     Node 13, Type 0, BuildingBlock: ESEHIV_clean_sbu_0, # of connection points: 4
#     Node 14, Type 0, BuildingBlock: ESEHIV_clean_sbu_0, # of connection points: 4
#     Node 15, Type 0, BuildingBlock: ESEHIV_clean_sbu_0, # of connection points: 4
#     Edge 16, Type (0, 0), BuildingBlock: XIVTED_clean_linker_0, # of connection points: 2
#     Edge 17, Type (0, 0), BuildingBlock: XIVTED_clean_linker_0, # of connection points: 2
#     Edge 18, Type (0, 0), BuildingBlock: XIVTED_clean_linker_0, # of connection points: 2
#     Edge 19, Type (0, 0), BuildingBlock: XIVTED_clean_linker_0, # of connection points: 2
#     Edge 20, Type (0, 0), BuildingBlock: XIVTED_clean_linker_0, # of connection points: 2
#     Edge 21, Type (0, 0), BuildingBlock: XIVTED_clean_linker_0, # of connection points: 2
#     Edge 22, Type (0, 0), BuildingBlock: XIVTED_clean_linker_0, # of connection points: 2
#     Edge 23, Type (0, 0), BuildingBlock: XIVTED_clean_linker_0, # of connection points: 2
#     Edge 24, Type (0, 0), BuildingBlock: XIVTED_clean_linker_0, # of connection points: 2
#     Edge 25, Type (0, 0), BuildingBlock: XIVTED_clean_linker_0, # of connection points: 2
#     Edge 26, Type (0, 0), BuildingBlock: XIVTED_clean_linker_0, # of connection points: 2
#     Edge 27, Type (0, 0), BuildingBlock: XIVTED_clean_linker_0, # of connection points: 2
#     Edge 28, Type (0, 0), BuildingBlock: XIVTED_clean_linker_0, # of connection points: 2
#     Edge 29, Type (0, 0), BuildingBlock: XIVTED_clean_linker_0, # of connection points: 2
#     Edge 30, Type (0, 0), BuildingBlock: XIVTED_clean_linker_0, # of connection points: 2
#     Edge 31, Type (0, 0), BuildingBlock: XIVTED_clean_linker_0, # of connection points: 2
#     Edge 32, Type (0, 0), BuildingBlock: XIVTED_clean_linker_0, # of connection points: 2
#     Edge 33, Type (0, 0), BuildingBlock: XIVTED_clean_linker_0, # of connection points: 2
#     Edge 34, Type (0, 0), BuildingBlock: XIVTED_clean_linker_0, # of connection points: 2
#     Edge 35, Type (0, 0), BuildingBlock: XIVTED_clean_linker_0, # of connection points: 2
#     Edge 36, Type (0, 0), BuildingBlock: XIVTED_clean_linker_0, # of connection points: 2
#     Edge 37, Type (0, 0), BuildingBlock: XIVTED_clean_linker_0, # of connection points: 2
#     Edge 38, Type (0, 0), BuildingBlock: XIVTED_clean_linker_0, # of connection points: 2
#     Edge 39, Type (0, 0), BuildingBlock: XIVTED_clean_linker_0, # of connection points: 2
#     Edge 40, Type (0, 0), BuildingBlock: XIVTED_clean_linker_0, # of connection points: 2
#     Edge 41, Type (0, 0), BuildingBlock: XIVTED_clean_linker_0, # of connection points: 2
#     Edge 42, Type (0, 0), BuildingBlock: XIVTED_clean_linker_0, # of connection points: 2
#     Edge 43, Type (0, 0), BuildingBlock: XIVTED_clean_linker_0, # of connection points: 2
#     Edge 44, Type (0, 0), BuildingBlock: XIVTED_clean_linker_0, # of connection points: 2
#     Edge 45, Type (0, 0), BuildingBlock: XIVTED_clean_linker_0, # of connection points: 2
#     Edge 46, Type (0, 0), BuildingBlock: XIVTED_clean_linker_0, # of connection points: 2
#     Edge 47, Type (0, 0), BuildingBlock: XIVTED_clean_linker_0, # of connection points: 2
# Relax obj value: 0.058
# Max RMSD: 0.084
# Mean RMSD: 0.084
data_MOF--net-umh--node1-ESEHIV_clean_sbu_0--edge1-XIVTED_clean_linker_0
_symmetry_space_group_name_H-M    P1
_symmetry_Int_Tables_number       1
_symmetry_cell_setting            triclinic
loop_
_symmetry_equiv_pos_as_xyz
'x, y, z'
_cell_length_a     46.89118
_cell_length_b     47.022828
_cell_length_c     52.078797
_cell_angle_alpha  89.772334
_cell_angle_beta   89.583455
_cell_angle_gamma 90.483409
loop_
_atom_site_label
_atom_site_type_symbol
_atom_site_fract_x
_atom_site_fract_y
_atom_site_fract_z
_atom_type_partial_charge
Cu0 Cu 0.38547 0.14327 0.15749 0.0
N1 N 0.35452 0.16247 0.14341 0.0
N2 N 0.32959 0.20022 0.13015 0.0
C3 C 0.35392 0.19098 0.14101 0.0
C4 C 0.31418 0.17631 0.12567 0.0
C5 C 0.32962 0.15307 0.13387 0.0
O6 O 0.37925 0.1424 0.19465 0.0
C7 C 0.43752 0.15573 0.13104 0.0
O8 O 0.44435 0.12893 0.13412 0.0
H9 H 0.37102 0.20463 0.14758 0.0
H10 H 0.32312 0.13098 0.13295 0.0
N11 N 0.38881 0.10593 0.14511 0.0
N12 N 0.4065 0.06216 0.1399 0.0
C13 C 0.40568 0.08555 0.15493 0.0
C14 C 0.37827 0.09497 0.1233 0.0
C15 C 0.38902 0.06797 0.1201 0.0
C16 C 0.35924 0.12576 0.2022 0.0
O17 O 0.34598 0.11029 0.18496 0.0
H18 H 0.41807 0.08842 0.17219 0.0
H19 H 0.36485 0.10632 0.11 0.0
O20 O 0.41757 0.16604 0.14477 0.0
H21 H 0.29334 0.17551 0.11692 0.0
H22 H 0.38551 0.05436 0.10368 0.0
Cu23 Cu 0.465 0.3573 0.65863 0.0
N24 N 0.45132 0.32268 0.6459 0.0
N25 N 0.41579 0.29314 0.63471 0.0
C26 C 0.42387 0.31509 0.64967 0.0
C27 C 0.43937 0.28646 0.62099 0.0
C28 C 0.46129 0.30478 0.62791 0.0
O29 O 0.45534 0.35581 0.69532 0.0
C30 C 0.45585 0.38372 0.61349 0.0
O31 O 0.4774 0.36683 0.60875 0.0
H32 H 0.4095 0.32717 0.66168 0.0
H33 H 0.48225 0.30615 0.61918 0.0
N34 N 0.50451 0.36426 0.65503 0.0
N35 N 0.54506 0.38978 0.65136 0.0
C36 C 0.51665 0.39034 0.65604 0.0
C37 C 0.52596 0.3464 0.64955 0.0
C38 C 0.55095 0.36205 0.64731 0.0
C39 C 0.46977 0.33703 0.70718 0.0
O40 O 0.48931 0.32318 0.6942 0.0
H41 H 0.50452 0.40947 0.65931 0.0
H42 H 0.52356 0.32369 0.64706 0.0
O43 O 0.44606 0.38479 0.63644 0.0
H44 H 0.44045 0.27034 0.60625 0.0
H45 H 0.5718 0.35354 0.64301 0.0
Cu46 Cu 0.20659 0.45046 0.14681 0.0
N47 N 0.23915 0.43729 0.12977 0.0
N48 N 0.26805 0.40205 0.11751 0.0
C49 C 0.24163 0.40928 0.12529 0.0
C50 C 0.28298 0.42677 0.11695 0.0
C51 C 0.26504 0.44856 0.12451 0.0
O52 O 0.21487 0.44302 0.18315 0.0
C53 C 0.17508 0.43807 0.1059 0.0
O54 O 0.19212 0.45892 0.09853 0.0
H55 H 0.22475 0.39415 0.1297 0.0
H56 H 0.27098 0.47058 0.12743 0.0
N57 N 0.19726 0.48918 0.14273 0.0
N58 N 0.16911 0.52745 0.14163 0.0
C59 C 0.17058 0.49917 0.14586 0.0
C60 C 0.21328 0.51198 0.13602 0.0
C61 C 0.19599 0.53568 0.13558 0.0
C62 C 0.23513 0.4591 0.1909 0.0
O63 O 0.24501 0.47859 0.17499 0.0
H64 H 0.15258 0.48586 0.15134 0.0
H65 H 0.23585 0.51144 0.13169 0.0
O66 O 0.17639 0.42953 0.1292 0.0
H67 H 0.30546 0.42885 0.1124 0.0
H68 H 0.20258 0.55718 0.13078 0.0
Cu69 Cu 0.14612 0.192 0.64587 0.0
N70 N 0.1689 0.21633 0.62579 0.0
N71 N 0.21095 0.23645 0.6152 0.0
C72 C 0.1935 0.22764 0.63447 0.0
C73 C 0.19655 0.23059 0.59345 0.0
C74 C 0.17078 0.21797 0.60003 0.0
O75 O 0.14379 0.20887 0.67998 0.0
C76 C 0.15929 0.13655 0.62916 0.0
O77 O 0.13207 0.12989 0.62878 0.0
H78 H 0.19966 0.22659 0.65444 0.0
H79 H 0.1559 0.20821 0.58691 0.0
N80 N 0.10878 0.18702 0.63334 0.0
N81 N 0.06412 0.1699 0.62966 0.0
C82 C 0.08844 0.16976 0.64351 0.0
C83 C 0.09668 0.19905 0.61267 0.0
C84 C 0.06926 0.18851 0.61032 0.0
C85 C 0.13189 0.23314 0.68065 0.0
O86 O 0.12228 0.24392 0.65909 0.0
H87 H 0.09169 0.15704 0.66058 0.0
H88 H 0.10708 0.21423 0.60002 0.0
O89 O 0.16753 0.15681 0.64356 0.0
H90 H 0.20468 0.23355 0.57412 0.0
H91 H 0.05459 0.19362 0.59507 0.0
Cu92 Cu 0.34123 0.45665 0.40468 0.0
N93 N 0.303 0.44904 0.41228 0.0
N94 N 0.26843 0.41581 0.41311 0.0
C95 C 0.29563 0.42235 0.41913 0.0
C96 C 0.25786 0.43983 0.4027 0.0
C97 C 0.27937 0.46022 0.4019 0.0
O98 O 0.34447 0.4395 0.37069 0.0
C99 C 0.35572 0.4487 0.45454 0.0
O100 O 0.33543 0.46774 0.45611 0.0
H101 H 0.31111 0.40696 0.4255 0.0
H102 H 0.27881 0.48015 0.39149 0.0
N103 N 0.35278 0.495 0.40384 0.0
N104 N 0.38413 0.53135 0.40224 0.0
C105 C 0.38041 0.50297 0.40508 0.0
C106 C 0.33821 0.51923 0.40042 0.0
C107 C 0.3575 0.54171 0.39949 0.0
C108 C 0.35146 0.45379 0.35078 0.0
O109 O 0.36493 0.47816 0.35356 0.0
H110 H 0.39751 0.48792 0.40756 0.0
H111 H 0.31536 0.52042 0.3981 0.0
O112 O 0.36278 0.43943 0.4324 0.0
H113 H 0.23727 0.44148 0.39357 0.0
H114 H 0.35235 0.56379 0.39613 0.0
Cu115 Cu 0.09214 0.32313 0.90081 0.0
N116 N 0.10515 0.28629 0.90681 0.0
N117 N 0.13867 0.25266 0.90826 0.0
C118 C 0.13217 0.27934 0.90092 0.0
C119 C 0.11454 0.24231 0.91934 0.0
C120 C 0.09382 0.26313 0.91837 0.0
O121 O 0.1072 0.33099 0.86644 0.0
C122 C 0.10019 0.33847 0.9508 0.0
O123 O 0.08309 0.31635 0.95334 0.0
H124 H 0.14716 0.29426 0.89232 0.0
H125 H 0.07242 0.26173 0.92618 0.0
N126 N 0.05248 0.32805 0.90212 0.0
N127 N 1.01111 0.3516 0.90381 0.0
C128 C 0.03987 0.35369 0.90324 0.0
C129 C 0.03101 0.30891 0.90204 0.0
C130 C 1.00546 0.32337 0.90315 0.0
C131 C 0.09123 0.33125 0.84674 0.0
O132 O 0.06351 0.33315 0.84984 0.0
H133 H 0.05174 0.37351 0.90379 0.0
H134 H 0.03369 0.28613 0.901 0.0
O135 O 0.10775 0.3463 0.92825 0.0
H136 H 0.11208 0.22136 0.9278 0.0
H137 H 0.98438 0.31382 0.90299 0.0
Cu138 Cu 0.20416 0.13065 0.39803 0.0
N139 N 0.19277 0.16893 0.39763 0.0
N140 N 0.19359 0.21668 0.3987 0.0
C141 C 0.20923 0.19261 0.39771 0.0
C142 C 0.16617 0.20764 0.39912 0.0
C143 C 0.16576 0.17833 0.3985 0.0
O144 O 0.2354 0.12474 0.37362 0.0
C145 C 0.2249 0.13477 0.44941 0.0
O146 O 0.23691 0.15858 0.44148 0.0
H147 H 0.23222 0.19216 0.39783 0.0
H148 H 0.14703 0.16475 0.39899 0.0
N149 N 0.17387 0.10804 0.38629 0.0
N150 N 0.1429 0.07194 0.38087 0.0
C151 C 0.1642 0.08279 0.39545 0.0
C152 C 0.15838 0.11327 0.36523 0.0
C153 C 0.13932 0.09121 0.36185 0.0
C154 C 0.2602 0.13605 0.37314 0.0
O155 O 0.26823 0.15272 0.39195 0.0
H156 H 0.17275 0.0726 0.41235 0.0
H157 H 0.16119 0.13165 0.35288 0.0
O158 O 0.2118 0.11918 0.43332 0.0
H159 H 0.14761 0.22112 0.39982 0.0
H160 H 0.12455 0.08927 0.34609 0.0
Cu161 Cu 0.42269 0.17985 0.89747 0.0
N162 N 0.38359 0.17155 0.90127 0.0
N163 N 0.33595 0.1738 0.90471 0.0
C164 C 0.36029 0.18791 0.89822 0.0
C165 C 0.34435 0.14758 0.91186 0.0
C166 C 0.37356 0.1463 0.90973 0.0
O167 O 0.43048 0.21014 0.87235 0.0
C168 C 0.42596 0.20322 0.94754 0.0
O169 O 0.4031 0.2171 0.9405 0.0
H170 H 0.36112 0.20986 0.89209 0.0
H171 H 0.38675 0.12826 0.91438 0.0
N172 N 0.43993 0.14706 0.88445 0.0
N173 N 0.46736 0.10874 0.87858 0.0
C174 C 0.46141 0.13121 0.89391 0.0
C175 C 0.43222 0.13434 0.86249 0.0
C176 C 0.44899 0.11084 0.85881 0.0
C177 C 0.42041 0.23521 0.87105 0.0
O178 O 0.40274 0.24412 0.88889 0.0
H179 H 0.47215 0.13587 0.91175 0.0
H180 H 0.41551 0.14177 0.84999 0.0
O181 O 0.43842 0.18729 0.93132 0.0
H182 H 0.3304 0.13044 0.91818 0.0
H183 H 0.44797 0.09669 0.84251 0.0
Cu184 Cu 0.6934 0.9198 0.89428 0.0
N185 N 0.68634 0.88061 0.89361 0.0
N186 N 0.69355 0.83395 0.89881 0.0
C187 C 0.70504 0.86035 0.90028 0.0
C188 C 0.66645 0.83788 0.89099 0.0
C189 C 0.66208 0.86668 0.88781 0.0
O190 O 0.72687 0.92791 0.87241 0.0
C191 C 0.6967 0.94957 0.94402 0.0
O192 O 0.68913 0.97353 0.9331 0.0
H193 H 0.72654 0.86505 0.9065 0.0
H194 H 0.64256 0.87678 0.88183 0.0
N195 N 0.66168 0.93901 0.8809 0.0
N196 N 0.62251 0.96521 0.87496 0.0
C197 C 0.64201 0.95597 0.89208 0.0
C198 C 0.6542 0.93759 0.85605 0.0
C199 C 0.63017 0.95358 0.85234 0.0
C200 C 0.73114 0.91302 0.8523 0.0
O201 O 0.71301 0.89252 0.84684 0.0
H202 H 0.64152 0.96097 0.91232 0.0
H203 H 0.66553 0.92567 0.84156 0.0
O204 O 0.70014 0.92736 0.93049 0.0
H205 H 0.65097 0.82116 0.88753 0.0
H206 H 0.61941 0.95677 0.83425 0.0
Cu207 Cu 0.6282 0.69972 0.40155 0.0
N208 N 0.66715 0.69019 0.40108 0.0
N209 N 0.715 0.69304 0.40008 0.0
C210 C 0.69017 0.70687 0.39614 0.0
C211 C 0.70717 0.66655 0.40756 0.0
C212 C 0.67781 0.66491 0.40818 0.0
O213 O 0.62025 0.72999 0.37692 0.0
C214 C 0.63301 0.72172 0.45231 0.0
O215 O 0.65704 0.73301 0.44388 0.0
H216 H 0.68879 0.72899 0.3907 0.0
H217 H 0.66505 0.64669 0.41399 0.0
N218 N 0.60645 0.66797 0.39163 0.0
N219 N 0.57058 0.63636 0.38791 0.0
C220 C 0.57985 0.6605 0.39942 0.0
C221 C 0.61419 0.64805 0.37457 0.0
C222 C 0.59225 0.62857 0.37227 0.0
C223 C 0.63071 0.75508 0.37634 0.0
O224 O 0.6479 0.7635 0.39464 0.0
H225 H 0.5677 0.67244 0.41337 0.0
H226 H 0.63436 0.64786 0.36435 0.0
O227 O 0.61702 0.70841 0.43669 0.0
H228 H 0.72156 0.64953 0.41244 0.0
H229 H 0.59214 0.61037 0.35963 0.0
Cu230 Cu 0.85191 0.59713 0.90422 0.0
N231 N 0.82064 0.61351 0.9208 0.0
N232 N 0.78933 0.64809 0.92873 0.0
C233 C 0.81208 0.63989 0.91472 0.0
C234 C 0.78324 0.62584 0.94437 0.0
C235 C 0.80279 0.60453 0.93956 0.0
O236 O 0.84471 0.60422 0.86786 0.0
C237 C 0.89659 0.60893 0.93851 0.0
O238 O 0.88972 0.5837 0.94759 0.0
H239 H 0.82226 0.65267 0.8999 0.0
H240 H 0.80397 0.58418 0.94919 0.0
N241 N 0.85516 0.55763 0.90955 0.0
N242 N 0.87389 0.51379 0.91092 0.0
C243 C 0.87875 0.54176 0.90602 0.0
C244 C 0.83455 0.53906 0.91654 0.0
C245 C 0.84597 0.51216 0.91746 0.0
C246 C 0.82021 0.59581 0.86034 0.0
O247 O 0.8039 0.58155 0.87657 0.0
H248 H 0.89912 0.55077 0.90027 0.0
H249 H 0.81259 0.54458 0.92029 0.0
O250 O 0.88441 0.61797 0.91828 0.0
H251 H 0.76623 0.62518 0.95853 0.0
H252 H 0.8343 0.49287 0.92216 0.0
Cu253 Cu 0.9562 0.85056 0.38974 0.0
N254 N 0.94427 0.81278 0.39439 0.0
N255 N 0.9115 0.7778 0.39611 0.0
C256 C 0.91652 0.80576 0.39213 0.0
C257 C 0.93736 0.76668 0.40123 0.0
C258 C 0.95761 0.78833 0.40002 0.0
O259 O 0.94649 0.85841 0.35396 0.0
C260 C 0.9437 0.86249 0.43911 0.0
O261 O 0.96089 0.84064 0.44059 0.0
H262 H 0.90023 0.82126 0.38802 0.0
H263 H 0.98029 0.78632 0.40304 0.0
N264 N 0.995 0.85953 0.39389 0.0
N265 N 0.03303 0.88881 0.39457 0.0
C266 C 1.00523 0.88572 0.38848 0.0
C267 C 1.01708 0.84527 0.40393 0.0
C268 C 0.04061 0.86331 0.40435 0.0
C269 C 0.96393 0.84737 0.33797 0.0
O270 O 0.98665 0.83467 0.34693 0.0
H271 H 0.99197 0.90252 0.38104 0.0
H272 H 1.01605 0.82365 0.411 0.0
O273 O 0.93711 0.87182 0.41686 0.0
H274 H 0.94144 0.7445 0.40527 0.0
H275 H 0.06154 0.85805 0.41148 0.0
Cu276 Cu 0.69357 0.64342 0.64994 0.0
N277 N 0.71937 0.66596 0.63103 0.0
N278 N 0.73949 0.70796 0.62056 0.0
C279 C 0.72913 0.69121 0.63968 0.0
C280 C 0.73625 0.69246 0.59898 0.0
C281 C 0.72363 0.66674 0.60546 0.0
O282 O 0.70675 0.64251 0.68536 0.0
C283 C 0.63865 0.65482 0.62976 0.0
O284 O 0.63441 0.62727 0.62822 0.0
H285 H 0.72589 0.69824 0.65924 0.0
H286 H 0.71565 0.65105 0.59214 0.0
N287 N 0.69019 0.60556 0.63849 0.0
N288 N 0.67319 0.56085 0.63545 0.0
C289 C 0.67256 0.58557 0.64869 0.0
C290 C 0.70305 0.59283 0.61849 0.0
C291 C 0.6926 0.56538 0.61653 0.0
C292 C 0.73295 0.63644 0.68863 0.0
O293 O 0.74897 0.63153 0.66834 0.0
H294 H 0.65902 0.58949 0.66518 0.0
H295 H 0.71857 0.60286 0.6059 0.0
O296 O 0.6584 0.6642 0.64419 0.0
H297 H 0.74106 0.69977 0.57969 0.0
H298 H 0.69823 0.55033 0.60171 0.0
Cu299 Cu 0.93318 0.70189 0.14811 0.0
N300 N 0.89545 0.69242 0.15685 0.0
N301 N 0.84783 0.6961 0.15803 0.0
C302 C 0.87212 0.70234 0.14494 0.0
C303 C 0.8563 0.68093 0.17866 0.0
C304 C 0.88566 0.67877 0.17792 0.0
O305 O 0.94265 0.73801 0.16481 0.0
C306 C 0.95714 0.7026 0.09659 0.0
O307 O 0.98247 0.70379 0.10716 0.0
H308 H 0.87322 0.71534 0.12776 0.0
H309 H 0.89899 0.66936 0.19246 0.0
N310 N 0.95844 0.675 0.16185 0.0
N311 N 0.99572 0.64609 0.1674 0.0
C312 C 0.97754 0.65772 0.15028 0.0
C313 C 0.96453 0.67367 0.18703 0.0
C314 C 0.98742 0.656 0.19051 0.0
C315 C 0.9244 0.7567 0.17128 0.0
O316 O 0.89808 0.75435 0.16313 0.0
H317 H 0.97925 0.65499 0.12972 0.0
H318 H 0.95398 0.68603 0.20171 0.0
O319 O 0.9349 0.70303 0.11072 0.0
H320 H 0.84254 0.67355 0.19411 0.0
H321 H 0.99783 0.65157 0.20856 0.0
Cu322 Cu 0.86116 0.96131 0.65223 0.0
N323 N 0.82471 0.9487 0.64319 0.0
N324 N 0.7936 0.9135 0.6349 0.0
C325 C 0.81671 0.9217 0.64834 0.0
C326 C 0.78652 0.93655 0.62079 0.0
C327 C 0.80581 0.95827 0.62593 0.0
O328 O 0.86484 0.94779 0.68772 0.0
C329 C 0.88197 0.95499 0.60379 0.0
O330 O 0.86509 0.977 0.60163 0.0
H331 H 0.82941 0.90748 0.65988 0.0
H332 H 0.80723 0.97863 0.61626 0.0
N333 N 0.86804 1.00074 0.65027 0.0
N334 N 0.89377 0.04113 0.64776 0.0
C335 C 0.89434 1.01254 0.65053 0.0
C336 C 0.85 1.02257 0.64722 0.0
C337 C 0.86582 0.04751 0.64564 0.0
C338 C 0.85968 0.96459 0.70637 0.0
O339 O 0.85797 0.99198 0.70175 0.0
H340 H 0.91358 1.00012 0.65205 0.0
H341 H 0.82706 1.02049 0.64601 0.0
O342 O 0.8853 0.94394 0.62602 0.0
H343 H 0.7696 0.93726 0.60679 0.0
H344 H 0.85731 0.06866 0.64322 0.0
Cu345 Cu 0.6176 0.86403 0.15846 0.0
N346 N 0.62885 0.82703 0.15018 0.0
N347 N 0.65912 0.79087 0.14506 0.0
C348 C 0.65626 0.81931 0.14718 0.0
C349 C 0.63232 0.78024 0.14683 0.0
C350 C 0.61369 0.80261 0.15001 0.0
O351 O 0.62038 0.8656 0.19583 0.0
C352 C 0.64337 0.88425 0.11506 0.0
O353 O 0.62822 0.86283 0.1063 0.0
H354 H 0.6739 0.83427 0.14801 0.0
H355 H 0.5909 0.80106 0.15311 0.0
N356 N 0.58024 0.87239 0.14842 0.0
N357 N 0.54035 0.89765 0.14278 0.0
C358 C 0.56597 0.89622 0.15454 0.0
C359 C 0.5632 0.85813 0.1322 0.0
C360 C 0.53861 0.87356 0.12875 0.0
C361 C 0.60085 0.85195 0.20794 0.0
O362 O 0.57964 0.84109 0.19475 0.0
H363 H 0.57458 0.91231 0.16715 0.0
H364 H 0.56865 0.83837 0.1229 0.0
O365 O 0.64255 0.88979 0.139 0.0
H366 H 0.62663 0.75789 0.14646 0.0
H367 H 0.52131 0.86783 0.11611 0.0
H368 H 0.40433 0.23495 0.98706 0.0
H369 H 0.47589 0.1385 0.0944 0.0
H370 H 0.46674 0.17042 0.97069 0.0
H371 H 0.41563 0.20503 0.11085 0.0
H372 H 0.47895 0.15523 0.05001 0.0
H373 H 0.41377 0.2293 0.03285 0.0
C374 C 0.4203 0.21983 0.99305 0.0
C375 C 0.43449 0.20288 0.97495 0.0
C376 C 0.46542 0.16649 0.06342 0.0
C377 C 0.44527 0.19614 0.02754 0.0
C378 C 0.46377 0.15702 0.08887 0.0
C379 C 0.44513 0.17004 0.10639 0.0
C380 C 0.44816 0.18905 0.05531 0.0
C381 C 0.43011 0.19409 0.09804 0.0
C382 C 0.42568 0.21662 1.01925 0.0
C383 C 0.45511 0.18381 0.98392 0.0
N384 N 0.43159 0.20249 0.07303 0.0
N385 N 0.4596 0.18071 1.00956 0.0
H386 H 0.33823 0.45732 0.50392 0.0
H387 H 0.4779 0.39065 0.56564 0.0
H388 H 0.40585 0.41918 0.45957 0.0
H389 H 0.40234 0.40812 0.61051 0.0
H390 H 0.45366 0.40684 0.52729 0.0
H391 H 0.36274 0.44406 0.54335 0.0
C392 C 0.35825 0.44609 0.50244 0.0
C393 C 0.37004 0.43935 0.47834 0.0
C394 C 0.44234 0.40728 0.54548 0.0
C395 C 0.39832 0.42438 0.52356 0.0
C396 C 0.45621 0.39816 0.56751 0.0
C397 C 0.44205 0.39779 0.59138 0.0
C398 C 0.414 0.41629 0.54715 0.0
C399 C 0.41407 0.40807 0.59253 0.0
C400 C 0.37219 0.43854 0.52502 0.0
C401 C 0.39594 0.42471 0.47769 0.0
N402 N 0.40086 0.41678 0.57064 0.0
N403 N 0.40928 0.41785 0.49998 0.0
H404 H 0.12687 0.39057 0.95402 0.0
H405 H 0.15268 0.38331 0.10548 0.0
H406 H 0.09551 0.3208 1.00067 0.0
H407 H 0.15951 0.4602 0.06025 0.0
H408 H 0.13251 0.35887 0.06787 0.0
H409 H 0.14156 0.4152 0.99313 0.0
C410 C 0.12314 0.38041 0.97246 0.0
C411 C 0.10992 0.35363 0.97406 0.0
C412 C 0.13815 0.38119 0.06639 0.0
C413 C 0.12665 0.38163 1.01894 0.0
C414 C 0.14942 0.39515 0.08788 0.0
C415 C 0.15799 0.42373 0.08592 0.0
C416 C 0.13575 0.39596 0.04292 0.0
C417 C 0.15355 0.43803 0.06256 0.0
C418 C 0.13137 0.39452 0.99481 0.0
C419 C 0.10554 0.3415 0.99853 0.0
N420 N 0.14307 0.42397 0.04198 0.0
N421 N 0.114 0.3555 1.02 0.0
H422 H 0.209 0.16206 0.61199 0.0
H423 H 0.19565 0.09115 0.47332 0.0
H424 H 0.14919 0.09499 0.59364 0.0
H425 H 0.24805 0.16479 0.48935 0.0
H426 H 0.18571 0.08608 0.51925 0.0
H427 H 0.23075 0.15685 0.56952 0.0
C428 C 0.20083 0.14575 0.59931 0.0
C429 C 0.17689 0.1292 0.60633 0.0
C430 C 0.19968 0.10314 0.51276 0.0
C431 C 0.20164 0.12332 0.55747 0.0
C432 C 0.20544 0.10601 0.4865 0.0
C433 C 0.22243 0.12868 0.47735 0.0
C434 C 0.21092 0.12307 0.53008 0.0
C435 C 0.2346 0.14717 0.49544 0.0
C436 C 0.21318 0.14293 0.57495 0.0
C437 C 0.16736 0.10845 0.58898 0.0
N438 N 0.22836 0.14415 0.52087 0.0
N439 N 0.17951 0.10635 0.56529 0.0
H440 H 0.68823 0.86462 0.08814 0.0
H441 H 0.67259 0.98433 0.98061 0.0
H442 H 0.63688 0.93918 0.09868 0.0
H443 H 0.72148 0.90757 0.97213 0.0
H444 H 0.66672 0.97365 0.02656 0.0
H445 H 0.70863 0.88566 0.04913 0.0
C446 C 0.68198 0.8859 0.08258 0.0
C447 C 0.66117 0.90038 0.09665 0.0
C448 C 0.67914 0.95943 1.0147 0.0
C449 C 0.68331 0.92417 0.05133 0.0
C450 C 0.6826 0.96558 0.98848 0.0
C451 C 0.69721 0.94661 0.9724 0.0
C452 C 0.69048 0.93421 0.02486 0.0
C453 C 0.70968 0.92261 0.98367 0.0
C454 C 0.69339 0.89784 0.06017 0.0
C455 C 0.65326 0.92761 0.08846 0.0
N456 N 0.70578 0.91699 1.00905 0.0
N457 N 0.66398 0.93848 0.06603 0.0
H458 H 0.59495 0.64412 0.59656 0.0
H459 H 0.66263 0.74716 0.49134 0.0
H460 H 0.66097 0.70585 0.61284 0.0
H461 H 0.59034 0.69209 0.47729 0.0
H462 H 0.65757 0.73766 0.5373 0.0
H463 H 0.58764 0.66686 0.55491 0.0
C464 C 0.60743 0.66289 0.59165 0.0
C465 C 0.62884 0.67281 0.60814 0.0
C466 C 0.64252 0.728 0.52423 0.0
C467 C 0.62105 0.69862 0.56013 0.0
C468 C 0.6454 0.73342 0.49792 0.0
C469 C 0.62715 0.72008 0.48033 0.0
C470 C 0.6214 0.70887 0.53305 0.0
C471 C 0.60509 0.70265 0.49008 0.0
C472 C 0.60334 0.67581 0.56778 0.0
C473 C 0.64428 0.69732 0.60077 0.0
N474 N 0.60312 0.69722 0.51571 0.0
N475 N 0.64046 0.70902 0.57712 0.0
H476 H 0.88781 0.66565 0.94658 0.0
H477 H 0.99445 0.67387 0.06567 0.0
H478 H 0.94129 0.59598 0.96941 0.0
H479 H 0.91251 0.71487 0.06502 0.0
H480 H 0.98509 0.65554 1.02242 0.0
H481 H 0.90729 0.69408 0.98199 0.0
C482 C 0.90434 0.65669 0.95849 0.0
C483 C 0.91296 0.62843 0.95515 0.0
C484 C 0.96946 0.66902 0.03161 0.0
C485 C 0.93519 0.6607 0.99548 0.0
C486 C 0.97482 0.67961 0.05619 0.0
C487 C 0.95411 0.69574 0.06901 0.0
C488 C 0.94349 0.6751 1.0196 0.0
C489 C 0.92893 0.70232 0.05589 0.0
C490 C 0.91521 0.6728 0.97879 0.0
C491 C 0.93406 0.61767 0.97141 0.0
N492 N 0.92427 0.6919 0.03193 0.0
N493 N 0.94438 0.63376 0.99096 0.0
H494 H 0.94978 0.84216 0.4877 0.0
H495 H 0.88142 0.9777 0.5557 0.0
H496 H 0.91557 0.91342 0.44586 0.0
H497 H 0.90898 0.9034 0.59734 0.0
H498 H 0.89607 0.95551 0.51569 0.0
H499 H 0.93646 0.86485 0.52787 0.0
C500 C 0.93936 0.86262 0.48691 0.0
C501 C 0.93383 0.87594 0.46326 0.0
C502 C 0.89904 0.94404 0.53352 0.0
C503 C 0.9186 0.90218 0.50956 0.0
C504 C 0.89076 0.95672 0.5565 0.0
C505 C 0.89386 0.94234 0.58003 0.0
C506 C 0.91059 0.91666 0.53389 0.0
C507 C 0.90623 0.91529 0.57971 0.0
C508 C 0.93178 0.87556 0.50996 0.0
C509 C 0.92018 0.90235 0.46359 0.0
N510 N 0.91404 0.90327 0.55697 0.0
N511 N 0.91312 0.91466 0.4864 0.0
H512 H 0.23729 0.35557 0.10361 0.0
H513 H 0.36486 0.24672 0.12713 0.0
H514 H 0.32204 0.38239 0.12494 0.0
H515 H 0.2764 0.22131 0.12147 0.0
H516 H 0.35094 0.29611 0.12116 0.0
H517 H 0.25287 0.30622 0.10429 0.0
C518 C 0.25923 0.35112 0.10837 0.0
C519 C 0.27824 0.37328 0.1146 0.0
C520 C 0.3346 0.2797 0.12117 0.0
C521 C 0.29636 0.3165 0.11521 0.0
C522 C 0.34249 0.25136 0.12475 0.0
C523 C 0.32178 0.22949 0.12518 0.0
C524 C 0.30578 0.28644 0.11776 0.0
C525 C 0.29322 0.23716 0.12123 0.0
C526 C 0.26813 0.32287 0.1087 0.0
C527 C 0.30663 0.36612 0.11997 0.0
N528 N 0.28611 0.26492 0.11779 0.0
N529 N 0.31476 0.33835 0.12034 0.0
H530 H 0.39202 0.26845 0.59244 0.0
H531 H 0.23571 0.262 0.65616 0.0
H532 H 0.37312 0.29376 0.67021 0.0
H533 H 0.25403 0.23124 0.5799 0.0
H534 H 0.28601 0.27434 0.66113 0.0
H535 H 0.34195 0.25441 0.5872 0.0
C536 C 0.3775 0.27079 0.60851 0.0
C537 C 0.38692 0.28252 0.63178 0.0
C538 C 0.27907 0.26492 0.64327 0.0
C539 C 0.32933 0.26685 0.62576 0.0
C540 C 0.25027 0.2578 0.64044 0.0
C541 C 0.24043 0.24545 0.61761 0.0
C542 C 0.29842 0.25972 0.62312 0.0
C543 C 0.26041 0.24097 0.59776 0.0
C544 C 0.34881 0.26297 0.60543 0.0
C545 C 0.36686 0.28531 0.6518 0.0
N546 N 0.2884 0.24803 0.601 0.0
N547 N 0.33914 0.27766 0.6483 0.0
H548 H 0.21267 0.39975 0.41752 0.0
H549 H 0.24664 0.23664 0.38593 0.0
H550 H 0.29696 0.3669 0.40367 0.0
H551 H 0.16458 0.26389 0.41438 0.0
H552 H 0.26419 0.28526 0.38948 0.0
H553 H 0.19328 0.35112 0.4135 0.0
C554 C 0.22706 0.38236 0.41374 0.0
C555 C 0.25651 0.38743 0.41135 0.0
C556 C 0.24232 0.28061 0.39497 0.0
C557 C 0.2346 0.33193 0.40647 0.0
C558 C 0.23225 0.25268 0.39305 0.0
C559 C 0.20402 0.24576 0.40002 0.0
C560 C 0.2241 0.3021 0.4038 0.0
C561 C 0.18639 0.26799 0.40857 0.0
C562 C 0.21604 0.35464 0.4115 0.0
C563 C 0.27423 0.36408 0.40634 0.0
N564 N 0.19672 0.29509 0.41023 0.0
N565 N 0.26302 0.33751 0.40402 0.0
H566 H 0.29156 0.15556 0.93458 0.0
H567 H 0.18062 0.26479 0.8735 0.0
H568 H 0.31409 0.21656 0.87558 0.0
H569 H 0.16039 0.21029 0.93808 0.0
H570 H 0.22861 0.24529 0.87228 0.0
H571 H 0.24281 0.17327 0.93443 0.0
C572 C 0.28627 0.17256 0.92144 0.0
C573 C 0.3071 0.18447 0.90497 0.0
C574 C 0.2137 0.23754 0.88671 0.0
C575 C 0.25103 0.2051 0.90489 0.0
C576 C 0.18623 0.24876 0.88751 0.0
C577 C 0.16636 0.23947 0.90615 0.0
C578 C 0.22155 0.21671 0.90463 0.0
C579 C 0.17483 0.21807 0.92332 0.0
C580 C 0.25838 0.18278 0.92149 0.0
C581 C 0.29892 0.20686 0.88876 0.0
N582 N 0.20179 0.20753 0.92221 0.0
N583 N 0.27156 0.21638 0.88908 0.0
H584 H 0.75028 0.82298 0.89644 0.0
H585 H 0.73333 0.65927 0.93829 0.0
H586 H 0.66879 0.78379 0.91365 0.0
H587 H 0.81271 0.69879 0.91487 0.0
H588 H 0.70934 0.70504 0.93225 0.0
H589 H 0.77353 0.77802 0.90572 0.0
C590 C 0.73724 0.805 0.90235 0.0
C591 C 0.70747 0.80731 0.90428 0.0
C592 C 0.73203 0.70365 0.92848 0.0
C593 C 0.73408 0.75534 0.91476 0.0
C594 C 0.74574 0.67758 0.93209 0.0
C595 C 0.77503 0.67509 0.92685 0.0
C596 C 0.74779 0.72742 0.91976 0.0
C597 C 0.79003 0.69951 0.91867 0.0
C598 C 0.75055 0.77919 0.90752 0.0
C599 C 0.69174 0.78297 0.91163 0.0
N600 N 0.77627 0.72454 0.91536 0.0
N601 N 0.70522 0.75803 0.91662 0.0
H602 H 0.73339 0.73879 0.37203 0.0
H603 H 0.89511 0.72907 0.42099 0.0
H604 H 0.76276 0.67374 0.42397 0.0
H605 H 0.86469 0.79387 0.36937 0.0
H606 H 0.84746 0.70718 0.42107 0.0
H607 H 0.78175 0.7584 0.37005 0.0
C608 C 0.74991 0.72863 0.38309 0.0
C609 C 0.74374 0.70452 0.39823 0.0
C610 C 0.85126 0.72617 0.40969 0.0
C611 C 0.79957 0.72686 0.39588 0.0
C612 C 0.87855 0.7386 0.40954 0.0
C613 C 0.884 0.76357 0.39536 0.0
C614 C 0.82921 0.73872 0.3955 0.0
C615 C 0.86149 0.77502 0.38102 0.0
C616 C 0.77764 0.73978 0.38184 0.0
C617 C 0.76636 0.69211 0.4118 0.0
N618 N 0.8352 0.7626 0.38152 0.0
N619 N 0.79315 0.70344 0.41036 0.0
H620 H 0.76814 0.88824 0.59377 0.0
H621 H 0.76104 0.73498 0.66224 0.0
H622 H 0.79457 0.87249 0.67165 0.0
H623 H 0.73621 0.74925 0.58366 0.0
H624 H 0.77227 0.78558 0.66617 0.0
H625 H 0.75434 0.83804 0.59005 0.0
C626 C 0.77072 0.87437 0.6102 0.0
C627 C 0.78271 0.88468 0.63304 0.0
C628 C 0.7644 0.77767 0.64803 0.0
C629 C 0.76731 0.82696 0.62878 0.0
C630 C 0.75791 0.74872 0.6458 0.0
C631 C 0.74762 0.73765 0.62259 0.0
C632 C 0.76056 0.79595 0.62694 0.0
C633 C 0.74439 0.7566 0.60184 0.0
C634 C 0.76306 0.84561 0.60799 0.0
C635 C 0.78583 0.86548 0.65356 0.0
N636 N 0.75075 0.78476 0.60453 0.0
N637 N 0.77829 0.83765 0.65092 0.0
H638 H 0.79678 0.67411 0.1741 0.0
H639 H 0.70931 0.80896 0.12435 0.0
H640 H 0.83425 0.74433 0.13182 0.0
H641 H 0.66968 0.73751 0.1631 0.0
H642 H 0.75489 0.78431 0.12536 0.0
H643 H 0.74977 0.69563 0.16887 0.0
C644 C 0.79518 0.69396 0.16364 0.0
C645 C 0.81968 0.70736 0.15344 0.0
C646 C 0.73623 0.7739 0.13355 0.0
C647 C 0.76582 0.73215 0.14733 0.0
C648 C 0.71018 0.78806 0.13307 0.0
C649 C 0.68561 0.77543 0.14384 0.0
C650 C 0.73793 0.74688 0.14503 0.0
C651 C 0.68798 0.74802 0.15445 0.0
C652 C 0.76829 0.70619 0.16057 0.0
C653 C 0.81612 0.73293 0.13979 0.0
N654 N 0.7137 0.73477 0.15496 0.0
N655 N 0.78982 0.74451 0.13729 0.0
H656 H 0.30923 0.16547 0.35971 0.0
H657 H 0.32216 0.08758 0.22357 0.0
H658 H 0.25317 0.09841 0.33374 0.0
H659 H 0.37248 0.16174 0.24255 0.0
H660 H 0.30121 0.08813 0.26634 0.0
H661 H 0.33667 0.16143 0.31955 0.0
C662 C 0.30285 0.14969 0.34573 0.0
C663 C 0.27872 0.13234 0.35011 0.0
C664 C 0.31691 0.10427 0.26132 0.0
C665 C 0.31003 0.12767 0.30413 0.0
C666 C 0.32898 0.10396 0.2368 0.0
C667 C 0.34898 0.12482 0.22927 0.0
C668 C 0.32469 0.12566 0.2787 0.0
C669 C 0.35709 0.14529 0.24748 0.0
C670 C 0.31848 0.1475 0.32277 0.0
C671 C 0.27146 0.11237 0.33123 0.0
N672 N 0.34475 0.14533 0.27132 0.0
N673 N 0.28695 0.11068 0.30914 0.0
H674 H 0.50463 0.30727 0.73832 0.0
H675 H 0.39344 0.28356 0.8539 0.0
H676 H 0.42133 0.34554 0.73732 0.0
H677 H 0.46486 0.22917 0.83739 0.0
H678 H 0.40584 0.31234 0.81577 0.0
H679 H 0.49331 0.28555 0.77954 0.0
C680 C 0.48395 0.31137 0.7469 0.0
C681 C 0.46378 0.32805 0.7341 0.0
C682 C 0.41879 0.29417 0.82063 0.0
C683 C 0.45052 0.30277 0.78167 0.0
C684 C 0.41183 0.27779 0.84242 0.0
C685 C 0.4281 0.25382 0.84886 0.0
C686 C 0.44246 0.28678 0.80545 0.0
C687 C 0.45159 0.24731 0.83318 0.0
C688 C 0.47748 0.2988 0.77048 0.0
C689 C 0.43751 0.33282 0.74647 0.0
N690 N 0.45804 0.26367 0.81235 0.0
N691 N 0.4315 0.32 0.76953 0.0
H692 H 0.23024 0.41544 0.22735 0.0
H693 H 0.36491 0.47657 0.30409 0.0
H694 H 0.27502 0.49413 0.21096 0.0
H695 H 0.30609 0.41771 0.34055 0.0
H696 H 0.33639 0.47472 0.26529 0.0
H697 H 0.26035 0.40938 0.26584 0.0
C698 C 0.24611 0.43148 0.23188 0.0
C699 C 0.25012 0.45526 0.21574 0.0
C700 C 0.32977 0.46196 0.28167 0.0
C701 C 0.28486 0.44811 0.25903 0.0
C702 C 0.34624 0.46284 0.30381 0.0
C703 C 0.33781 0.44752 0.32575 0.0
C704 C 0.30447 0.44573 0.28128 0.0
C705 C 0.3134 0.42992 0.32408 0.0
C706 C 0.26335 0.42793 0.2537 0.0
C707 C 0.27114 0.47529 0.22251 0.0
N708 N 0.29735 0.42974 0.3023 0.0
N709 N 0.28768 0.47115 0.24337 0.0
H710 H 0.10117 0.28135 0.68789 0.0
H711 H 0.13938 0.30022 0.83644 0.0
H712 H 0.15497 0.22253 0.72848 0.0
H713 H 0.06789 0.34016 0.79961 0.0
H714 H 0.15188 0.27758 0.79552 0.0
H715 H 0.09497 0.30837 0.72725 0.0
C716 C 0.11178 0.27408 0.70508 0.0
C717 C 0.1285 0.24944 0.70484 0.0
C718 C 0.1337 0.2916 0.79637 0.0
C719 C 0.12154 0.28067 0.75022 0.0
C720 C 0.12673 0.3048 0.81963 0.0
C721 C 0.10252 0.32214 0.82144 0.0
C722 C 0.11654 0.29605 0.77474 0.0
C723 C 0.08668 0.32693 0.79911 0.0
C724 C 0.10818 0.28959 0.72761 0.0
C725 C 0.14173 0.24125 0.72782 0.0
N726 N 0.09391 0.31391 0.77677 0.0
N727 N 0.13796 0.25684 0.74961 0.0
H728 H 0.7676 0.9595 0.85066 0.0
H729 H 0.84136 0.91037 0.71861 0.0
H730 H 0.74962 0.88003 0.81266 0.0
H731 H 0.85192 0.9941 0.75097 0.0
H732 H 0.81429 0.89596 0.75696 0.0
H733 H 0.8044 0.96985 0.81805 0.0
C734 C 0.77155 0.94411 0.83565 0.0
C735 C 0.75524 0.919 0.83429 0.0
C736 C 0.82288 0.91739 0.75583 0.0
C737 C 0.79735 0.93065 0.79693 0.0
C738 C 0.83859 0.92555 0.734 0.0
C739 C 0.84877 0.95358 0.73141 0.0
C740 C 0.81732 0.93736 0.77527 0.0
C741 C 0.84427 0.97234 0.752 0.0
C742 C 0.79253 0.95004 0.817 0.0
C743 C 0.76139 0.89982 0.81438 0.0
N744 N 0.82867 0.96401 0.77288 0.0
N745 N 0.78176 0.9061 0.79649 0.0
H746 H 0.66135 0.80182 0.35955 0.0
H747 H 0.56053 0.82677 0.23834 0.0
H748 H 0.58719 0.75075 0.34198 0.0
H749 H 0.64708 0.85863 0.24028 0.0
H750 H 0.56653 0.80686 0.2811 0.0
H751 H 0.65316 0.82992 0.32041 0.0
C752 C 0.64317 0.79673 0.34765 0.0
C753 C 0.62497 0.77381 0.354 0.0
C754 C 0.58419 0.81838 0.27232 0.0
C755 C 0.61545 0.80594 0.30942 0.0
C756 C 0.58077 0.8299 0.24787 0.0
C757 C 0.60346 0.84415 0.23548 0.0
C758 C 0.6105 0.82107 0.28474 0.0
C759 C 0.62905 0.84772 0.24904 0.0
C760 C 0.63862 0.81269 0.32529 0.0
C761 C 0.60187 0.76808 0.33779 0.0
N762 N 0.63198 0.83603 0.2729 0.0
N763 N 0.5978 0.78401 0.31633 0.0
H764 H 0.84844 0.61802 0.81784 0.0
H765 H 0.70525 0.63252 0.73529 0.0
H766 H 0.76501 0.592 0.84504 0.0
H767 H 0.78935 0.63406 0.70107 0.0
H768 H 0.72695 0.62468 0.77739 0.0
H769 H 0.82726 0.63053 0.77623 0.0
C770 C 0.82575 0.61496 0.8151 0.0
C771 C 0.80855 0.60371 0.8349 0.0
C772 C 0.74064 0.62685 0.76065 0.0
C773 C 0.78417 0.61831 0.78765 0.0
C774 C 0.72825 0.63144 0.73665 0.0
C775 C 0.74546 0.63373 0.71459 0.0
C776 C 0.77047 0.62483 0.76268 0.0
C777 C 0.77521 0.63216 0.71752 0.0
C778 C 0.81367 0.62208 0.79138 0.0
C779 C 0.77921 0.60032 0.8303 0.0
N780 N 0.78676 0.62779 0.74108 0.0
N781 N 0.76799 0.60763 0.80726 0.0
H782 H 0.91174 0.84834 0.31358 0.0
H783 H 0.9768 0.77001 0.19134 0.0
H784 H 1.0018 0.83803 0.29944 0.0
H785 H 0.88761 0.79088 0.19804 0.0
H786 H 0.98652 0.79924 0.22896 0.0
H787 H 0.90231 0.83233 0.26951 0.0
C788 C 0.92953 0.84343 0.30103 0.0
C789 C 0.95756 0.84422 0.31028 0.0
C790 C 0.96485 0.79777 0.22204 0.0
C791 C 0.947 0.82544 0.26015 0.0
C792 C 0.9593 0.78105 0.20049 0.0
C793 C 0.93132 0.77774 0.19157 0.0
C794 C 0.94221 0.81103 0.23509 0.0
C795 C 0.90952 0.79269 0.20425 0.0
C796 C 0.92416 0.83409 0.27594 0.0
C797 C 0.97981 0.83737 0.29324 0.0
N798 N 0.91535 0.80833 0.22556 0.0
N799 N 0.97404 0.82796 0.26922 0.0
H800 H 0.45786 0.05987 0.16387 0.0
H801 H 0.48442 0.89649 0.12833 0.0
H802 H 0.39773 1.00873 0.12153 0.0
H803 H 0.54917 0.9521 0.15949 0.0
H804 H 0.45107 0.93602 0.12877 0.0
H805 H 0.48981 1.0192 0.16603 0.0
C806 C 0.45117 0.04002 0.15527 0.0
C807 C 0.42496 0.03782 0.14249 0.0
C808 C 0.47258 0.93951 0.13555 0.0
C809 C 0.46179 0.99104 0.14465 0.0
C810 C 0.4918 0.91691 0.13521 0.0
C811 C 0.51997 0.92069 0.14376 0.0
C812 C 0.4814 0.96623 0.14463 0.0
C813 C 0.52779 0.94778 0.1529 0.0
C814 C 0.46958 1.01682 0.15634 0.0
C815 C 0.4178 1.01155 0.13134 0.0
N816 N 0.50868 0.9694 0.15305 0.0
N817 N 0.43608 0.98924 0.13268 0.0
H818 H 0.62215 0.55725 0.66094 0.0
H819 H 0.59687 0.39273 0.62708 0.0
H820 H 0.68282 0.50681 0.61863 0.0
H821 H 0.53826 0.44241 0.67239 0.0
H822 H 0.62886 0.4339 0.62432 0.0
H823 H 0.59168 0.51528 0.66588 0.0
C824 C 0.62931 0.53738 0.65286 0.0
C825 C 0.65531 0.53583 0.63931 0.0
C826 C 0.60901 0.43578 0.6349 0.0
C827 C 0.61996 0.48738 0.64465 0.0
C828 C 0.59071 0.41215 0.63662 0.0
C829 C 0.56458 0.41387 0.64996 0.0
C830 C 0.6013 0.46152 0.64658 0.0
C831 C 0.55785 0.43997 0.66158 0.0
C832 C 0.6117 0.51335 0.65557 0.0
C833 C 0.66292 0.50932 0.62896 0.0
N834 N 0.576 0.46266 0.65959 0.0
N835 N 0.64537 0.48626 0.63181 0.0
H836 H 0.11478 0.51307 0.12908 0.0
H837 H 0.04685 0.65153 0.19056 0.0
H838 H 0.16613 0.58188 0.15844 0.0
H839 H 1.00268 0.60381 0.13242 0.0
H840 H 0.08953 0.62315 0.18281 0.0
H841 H 0.0722 0.54279 0.13371 0.0
C842 C 0.11707 0.53442 0.13653 0.0
C843 C 0.14404 0.54502 0.14345 0.0
C844 C 0.07056 0.6189 0.17166 0.0
C845 C 0.09544 0.579 0.14898 0.0
C846 C 0.04614 0.63496 0.1762 0.0
C847 C 1.02114 0.62989 0.1622 0.0
C848 C 0.06996 0.59714 0.15331 0.0
C849 C 1.02155 0.60841 0.14355 0.0
C850 C 0.09282 0.55141 0.13899 0.0
C851 C 0.14582 0.57296 0.15273 0.0
N852 N 0.04549 0.59258 0.13982 0.0
N853 N 0.12185 0.58885 0.15548 0.0
H854 H 0.94677 0.03286 0.6674 0.0
H855 H 1.01023 0.18031 0.61287 0.0
H856 H 0.8967 0.09372 0.62543 0.0
H857 H 0.05968 0.11929 0.65526 0.0
H858 H 0.96826 0.14957 0.61802 0.0
H859 H 0.98794 0.06474 0.66388 0.0
C860 C 0.94437 0.05285 0.65734 0.0
C861 C 0.91807 0.06039 0.64656 0.0
C862 C 0.98828 0.14295 0.62627 0.0
C863 C 0.96543 0.09739 0.64266 0.0
C864 C 1.01236 0.16047 0.62323 0.0
C865 C 0.03876 0.15249 0.63357 0.0
C866 C 0.99044 0.11708 0.6397 0.0
C867 C 0.03988 0.12662 0.64717 0.0
C868 C 0.96794 0.07119 0.65547 0.0
C869 C 0.91635 0.08698 0.63421 0.0
N870 N 1.01618 0.10987 0.64973 0.0
N871 N 0.93968 0.10441 0.63252 0.0
H872 H 0.51989 0.65871 0.40402 0.0
H873 H 0.43603 0.5103 0.38882 0.0
H874 H 0.55875 0.58047 0.37941 0.0
H875 H 0.39424 0.5877 0.41166 0.0
H876 H 0.48116 0.536 0.38642 0.0
H877 H 0.47403 0.63353 0.40821 0.0
C878 C 0.5189 0.63626 0.39963 0.0
C879 C 0.54339 0.62182 0.3912 0.0
C880 C 0.46218 0.54745 0.39202 0.0
C881 C 0.49076 0.59285 0.3958 0.0
C882 C 0.43627 0.53267 0.39358 0.0
C883 C 0.41106 0.54669 0.40066 0.0
C884 C 0.46323 0.57665 0.39756 0.0
C885 C 0.41297 0.57597 0.40597 0.0
C886 C 0.49263 0.62191 0.4019 0.0
C887 C 0.54055 0.59272 0.38556 0.0
N888 N 0.43856 0.58994 0.40436 0.0
N889 N 0.51485 0.5793 0.38796 0.0
H890 H 0.95685 0.35034 0.92282 0.0
H891 H 0.92595 0.5132 0.88676 0.0
H892 H 1.01894 0.40596 0.88669 0.0
H893 H 0.86849 0.46065 0.93198 0.0
H894 H 0.95942 0.47379 0.88498 0.0
H895 H 0.92322 0.38982 0.9243 0.0
C896 C 0.96341 0.37078 0.91508 0.0
C897 C 0.9909 0.37472 0.90467 0.0
C898 C 0.93946 0.47091 0.89529 0.0
C899 C 0.9524 0.42026 0.90642 0.0
C900 C 0.92027 0.49355 0.89643 0.0
C901 C 0.89407 0.49056 0.90955 0.0
C902 C 0.93252 0.44489 0.90725 0.0
C903 C 0.88808 0.46414 0.92133 0.0
C904 C 0.94422 0.39341 0.91607 0.0
C905 C 0.9982 0.40191 0.89521 0.0
N906 N 0.90706 0.44245 0.91987 0.0
N907 N 0.9791 0.42354 0.89626 0.0
H908 H 1.02398 0.93338 0.36231 0.0
H909 H 0.15888 1.025 0.40845 0.0
H910 H 0.08142 0.90346 0.42071 0.0
H911 H 0.09149 0.05722 0.36065 0.0
H912 H 0.13292 0.97965 0.41204 0.0
H913 H 0.05087 0.97768 0.35978 0.0
C914 C 0.04215 0.93609 0.37476 0.0
C915 C 0.05008 0.91454 0.39201 0.0
C916 C 0.12389 0.99672 0.40078 0.0
C917 C 0.08155 0.96566 0.38889 0.0
C918 C 0.13864 1.02274 0.39881 0.0
C919 C 0.1276 0.04518 0.38404 0.0
C920 C 0.09793 0.993 0.38784 0.0
C921 C 0.10131 0.04061 0.37183 0.0
C922 C 0.05765 0.96149 0.37321 0.0
C923 C 0.07447 0.9193 0.40707 0.0
N924 N 0.08753 1.01517 0.37395 0.0
N925 N 0.08928 0.94435 0.40521 0.0
H926 H 0.57141 0.96281 0.8515 0.0
H927 H 0.51709 0.11206 0.90568 0.0
H928 H 0.619 1.01037 0.90755 0.0
H929 H 0.4667 0.05525 0.85916 0.0
H930 H 0.55429 0.07561 0.90802 0.0
H931 H 0.53269 0.99678 0.85512 0.0
C932 C 0.57365 0.98043 0.86466 0.0
C933 C 0.59858 0.98385 0.87909 0.0
C934 C 0.53498 0.07115 0.89743 0.0
C935 C 0.55412 1.02325 0.88334 0.0
C936 C 0.51368 0.09192 0.89616 0.0
C937 C 0.48877 0.087 0.88188 0.0
C938 C 0.53137 0.04527 0.88433 0.0
C939 C 0.4857 0.06045 0.86986 0.0
C940 C 0.55145 0.99984 0.86681 0.0
C941 C 0.6001 1.0069 0.89615 0.0
N942 N 0.50671 0.04081 0.87124 0.0
N943 N 0.5783 1.02593 0.89762 0.0
loop_
_geom_bond_atom_site_label_1
_geom_bond_atom_site_label_2
_geom_bond_distance
_geom_bond_site_symmetry_2
_ccdc_geom_bond_type
Cu0 N1 1.999 . S
Cu0 O6 1.974 . S
Cu0 N11 1.985 . S
Cu0 O20 1.959 . S
N1 Cu0 1.999 . S
N1 C3 1.263 . S
N1 C5 1.389 . S
N2 C3 1.358 . S
N2 C4 1.400 . S
C3 N1 1.263 . S
C3 N2 1.358 . S
C3 H9 0.930 . S
C4 N2 1.400 . S
C4 C5 1.351 . S
C4 H21 0.930 . S
C5 N1 1.389 . S
C5 C4 1.351 . S
C5 H10 0.930 . S
O6 Cu0 1.974 . S
O6 C16 1.282 . S
C7 O8 1.261 . S
C7 O20 1.251 . S
O8 C7 1.261 . S
H9 C3 0.930 . S
H10 C5 0.930 . S
N11 Cu0 1.985 . S
N11 C13 1.335 . S
N11 C14 1.390 . S
N12 C13 1.345 . S
N12 C15 1.336 . S
C13 N11 1.335 . S
C13 N12 1.345 . S
C13 H18 0.930 . S
C14 N11 1.390 . S
C14 C15 1.346 . S
C14 H19 0.930 . S
C15 N12 1.336 . S
C15 C14 1.346 . S
C15 H22 0.929 . S
C16 O6 1.282 . S
C16 O17 1.216 . S
O17 C16 1.216 . S
H18 C13 0.930 . S
H19 C14 0.930 . S
O20 Cu0 1.959 . S
O20 C7 1.251 . S
H21 C4 0.930 . S
H22 C15 0.929 . S
Cu23 N24 1.999 . S
Cu23 O29 1.974 . S
Cu23 N34 1.985 . S
Cu23 O43 1.959 . S
N24 Cu23 1.999 . S
N24 C26 1.263 . S
N24 C28 1.389 . S
N25 C26 1.358 . S
N25 C27 1.400 . S
C26 N24 1.263 . S
C26 N25 1.358 . S
C26 H32 0.930 . S
C27 N25 1.400 . S
C27 C28 1.351 . S
C27 H44 0.930 . S
C28 N24 1.389 . S
C28 C27 1.351 . S
C28 H33 0.930 . S
O29 Cu23 1.974 . S
O29 C39 1.282 . S
C30 O31 1.261 . S
C30 O43 1.251 . S
O31 C30 1.261 . S
H32 C26 0.930 . S
H33 C28 0.930 . S
N34 Cu23 1.985 . S
N34 C36 1.335 . S
N34 C37 1.390 . S
N35 C36 1.345 . S
N35 C38 1.336 . S
C36 N34 1.335 . S
C36 N35 1.345 . S
C36 H41 0.930 . S
C37 N34 1.390 . S
C37 C38 1.346 . S
C37 H42 0.930 . S
C38 N35 1.336 . S
C38 C37 1.346 . S
C38 H45 0.929 . S
C39 O29 1.282 . S
C39 O40 1.216 . S
O40 C39 1.216 . S
H41 C36 0.930 . S
H42 C37 0.930 . S
O43 Cu23 1.959 . S
O43 C30 1.251 . S
H44 C27 0.930 . S
H45 C38 0.929 . S
Cu46 N47 1.999 . S
Cu46 O52 1.974 . S
Cu46 N57 1.985 . S
Cu46 O66 1.959 . S
N47 Cu46 1.999 . S
N47 C49 1.263 . S
N47 C51 1.389 . S
N48 C49 1.358 . S
N48 C50 1.400 . S
C49 N47 1.263 . S
C49 N48 1.358 . S
C49 H55 0.930 . S
C50 N48 1.400 . S
C50 C51 1.351 . S
C50 H67 0.930 . S
C51 N47 1.389 . S
C51 C50 1.351 . S
C51 H56 0.930 . S
O52 Cu46 1.974 . S
O52 C62 1.282 . S
C53 O54 1.261 . S
C53 O66 1.251 . S
O54 C53 1.261 . S
H55 C49 0.930 . S
H56 C51 0.930 . S
N57 Cu46 1.985 . S
N57 C59 1.335 . S
N57 C60 1.390 . S
N58 C59 1.345 . S
N58 C61 1.336 . S
C59 N57 1.335 . S
C59 N58 1.345 . S
C59 H64 0.930 . S
C60 N57 1.390 . S
C60 C61 1.346 . S
C60 H65 0.930 . S
C61 N58 1.336 . S
C61 C60 1.346 . S
C61 H68 0.929 . S
C62 O52 1.282 . S
C62 O63 1.216 . S
O63 C62 1.216 . S
H64 C59 0.930 . S
H65 C60 0.930 . S
O66 Cu46 1.959 . S
O66 C53 1.251 . S
H67 C50 0.930 . S
H68 C61 0.929 . S
Cu69 N70 1.999 . S
Cu69 O75 1.974 . S
Cu69 N80 1.985 . S
Cu69 O89 1.959 . S
N70 Cu69 1.999 . S
N70 C72 1.263 . S
N70 C74 1.389 . S
N71 C72 1.358 . S
N71 C73 1.400 . S
C72 N70 1.263 . S
C72 N71 1.358 . S
C72 H78 0.930 . S
C73 N71 1.400 . S
C73 C74 1.351 . S
C73 H90 0.930 . S
C74 N70 1.389 . S
C74 C73 1.351 . S
C74 H79 0.930 . S
O75 Cu69 1.974 . S
O75 C85 1.282 . S
C76 O77 1.261 . S
C76 O89 1.251 . S
O77 C76 1.261 . S
H78 C72 0.930 . S
H79 C74 0.930 . S
N80 Cu69 1.985 . S
N80 C82 1.335 . S
N80 C83 1.390 . S
N81 C82 1.345 . S
N81 C84 1.336 . S
C82 N80 1.335 . S
C82 N81 1.345 . S
C82 H87 0.930 . S
C83 N80 1.390 . S
C83 C84 1.346 . S
C83 H88 0.930 . S
C84 N81 1.336 . S
C84 C83 1.346 . S
C84 H91 0.929 . S
C85 O75 1.282 . S
C85 O86 1.216 . S
O86 C85 1.216 . S
H87 C82 0.930 . S
H88 C83 0.930 . S
O89 Cu69 1.959 . S
O89 C76 1.251 . S
H90 C73 0.930 . S
H91 C84 0.929 . S
Cu92 N93 1.999 . S
Cu92 O98 1.974 . S
Cu92 N103 1.985 . S
Cu92 O112 1.959 . S
N93 Cu92 1.999 . S
N93 C95 1.263 . S
N93 C97 1.389 . S
N94 C95 1.358 . S
N94 C96 1.400 . S
C95 N93 1.263 . S
C95 N94 1.358 . S
C95 H101 0.930 . S
C96 N94 1.400 . S
C96 C97 1.351 . S
C96 H113 0.930 . S
C97 N93 1.389 . S
C97 C96 1.351 . S
C97 H102 0.930 . S
O98 Cu92 1.974 . S
O98 C108 1.282 . S
C99 O100 1.261 . S
C99 O112 1.251 . S
O100 C99 1.261 . S
H101 C95 0.930 . S
H102 C97 0.930 . S
N103 Cu92 1.985 . S
N103 C105 1.335 . S
N103 C106 1.390 . S
N104 C105 1.345 . S
N104 C107 1.336 . S
C105 N103 1.335 . S
C105 N104 1.345 . S
C105 H110 0.930 . S
C106 N103 1.390 . S
C106 C107 1.346 . S
C106 H111 0.930 . S
C107 N104 1.336 . S
C107 C106 1.346 . S
C107 H114 0.929 . S
C108 O98 1.282 . S
C108 O109 1.216 . S
O109 C108 1.216 . S
H110 C105 0.930 . S
H111 C106 0.930 . S
O112 Cu92 1.959 . S
O112 C99 1.251 . S
H113 C96 0.930 . S
H114 C107 0.929 . S
Cu115 N116 1.999 . S
Cu115 O121 1.974 . S
Cu115 N126 1.985 . S
Cu115 O135 1.959 . S
N116 Cu115 1.999 . S
N116 C118 1.263 . S
N116 C120 1.389 . S
N117 C118 1.358 . S
N117 C119 1.400 . S
C118 N116 1.263 . S
C118 N117 1.358 . S
C118 H124 0.930 . S
C119 N117 1.400 . S
C119 C120 1.351 . S
C119 H136 0.930 . S
C120 N116 1.389 . S
C120 C119 1.351 . S
C120 H125 0.930 . S
O121 Cu115 1.974 . S
O121 C131 1.282 . S
C122 O123 1.261 . S
C122 O135 1.251 . S
O123 C122 1.261 . S
H124 C118 0.930 . S
H125 C120 0.930 . S
N126 Cu115 1.985 . S
N126 C128 1.335 . S
N126 C129 1.390 . S
N127 C128 1.345 . S
N127 C130 1.336 . S
C128 N126 1.335 . S
C128 N127 1.345 . S
C128 H133 0.930 . S
C129 N126 1.390 . S
C129 C130 1.346 . S
C129 H134 0.930 . S
C130 N127 1.336 . S
C130 C129 1.346 . S
C130 H137 0.929 . S
C131 O121 1.282 . S
C131 O132 1.216 . S
O132 C131 1.216 . S
H133 C128 0.930 . S
H134 C129 0.930 . S
O135 Cu115 1.959 . S
O135 C122 1.251 . S
H136 C119 0.930 . S
H137 C130 0.929 . S
Cu138 N139 1.999 . S
Cu138 O144 1.974 . S
Cu138 N149 1.985 . S
Cu138 O158 1.959 . S
N139 Cu138 1.999 . S
N139 C141 1.263 . S
N139 C143 1.389 . S
N140 C141 1.358 . S
N140 C142 1.400 . S
C141 N139 1.263 . S
C141 N140 1.358 . S
C141 H147 0.930 . S
C142 N140 1.400 . S
C142 C143 1.351 . S
C142 H159 0.930 . S
C143 N139 1.389 . S
C143 C142 1.351 . S
C143 H148 0.930 . S
O144 Cu138 1.974 . S
O144 C154 1.282 . S
C145 O146 1.261 . S
C145 O158 1.251 . S
O146 C145 1.261 . S
H147 C141 0.930 . S
H148 C143 0.930 . S
N149 Cu138 1.985 . S
N149 C151 1.335 . S
N149 C152 1.390 . S
N150 C151 1.345 . S
N150 C153 1.336 . S
C151 N149 1.335 . S
C151 N150 1.345 . S
C151 H156 0.930 . S
C152 N149 1.390 . S
C152 C153 1.346 . S
C152 H157 0.930 . S
C153 N150 1.336 . S
C153 C152 1.346 . S
C153 H160 0.929 . S
C154 O144 1.282 . S
C154 O155 1.216 . S
O155 C154 1.216 . S
H156 C151 0.930 . S
H157 C152 0.930 . S
O158 Cu138 1.959 . S
O158 C145 1.251 . S
H159 C142 0.930 . S
H160 C153 0.929 . S
Cu161 N162 1.999 . S
Cu161 O167 1.974 . S
Cu161 N172 1.985 . S
Cu161 O181 1.959 . S
N162 Cu161 1.999 . S
N162 C164 1.263 . S
N162 C166 1.389 . S
N163 C164 1.358 . S
N163 C165 1.400 . S
C164 N162 1.263 . S
C164 N163 1.358 . S
C164 H170 0.930 . S
C165 N163 1.400 . S
C165 C166 1.351 . S
C165 H182 0.930 . S
C166 N162 1.389 . S
C166 C165 1.351 . S
C166 H171 0.930 . S
O167 Cu161 1.974 . S
O167 C177 1.282 . S
C168 O169 1.261 . S
C168 O181 1.251 . S
O169 C168 1.261 . S
H170 C164 0.930 . S
H171 C166 0.930 . S
N172 Cu161 1.985 . S
N172 C174 1.335 . S
N172 C175 1.390 . S
N173 C174 1.345 . S
N173 C176 1.336 . S
C174 N172 1.335 . S
C174 N173 1.345 . S
C174 H179 0.930 . S
C175 N172 1.390 . S
C175 C176 1.346 . S
C175 H180 0.930 . S
C176 N173 1.336 . S
C176 C175 1.346 . S
C176 H183 0.929 . S
C177 O167 1.282 . S
C177 O178 1.216 . S
O178 C177 1.216 . S
H179 C174 0.930 . S
H180 C175 0.930 . S
O181 Cu161 1.959 . S
O181 C168 1.251 . S
H182 C165 0.930 . S
H183 C176 0.929 . S
Cu184 N185 1.999 . S
Cu184 O190 1.974 . S
Cu184 N195 1.985 . S
Cu184 O204 1.959 . S
N185 Cu184 1.999 . S
N185 C187 1.263 . S
N185 C189 1.389 . S
N186 C187 1.358 . S
N186 C188 1.400 . S
C187 N185 1.263 . S
C187 N186 1.358 . S
C187 H193 0.930 . S
C188 N186 1.400 . S
C188 C189 1.351 . S
C188 H205 0.930 . S
C189 N185 1.389 . S
C189 C188 1.351 . S
C189 H194 0.930 . S
O190 Cu184 1.974 . S
O190 C200 1.282 . S
C191 O192 1.261 . S
C191 O204 1.251 . S
O192 C191 1.261 . S
H193 C187 0.930 . S
H194 C189 0.930 . S
N195 Cu184 1.985 . S
N195 C197 1.335 . S
N195 C198 1.390 . S
N196 C197 1.345 . S
N196 C199 1.336 . S
C197 N195 1.335 . S
C197 N196 1.345 . S
C197 H202 0.930 . S
C198 N195 1.390 . S
C198 C199 1.346 . S
C198 H203 0.930 . S
C199 N196 1.336 . S
C199 C198 1.346 . S
C199 H206 0.929 . S
C200 O190 1.282 . S
C200 O201 1.216 . S
O201 C200 1.216 . S
H202 C197 0.930 . S
H203 C198 0.930 . S
O204 Cu184 1.959 . S
O204 C191 1.251 . S
H205 C188 0.930 . S
H206 C199 0.929 . S
Cu207 N208 1.999 . S
Cu207 O213 1.974 . S
Cu207 N218 1.985 . S
Cu207 O227 1.959 . S
N208 Cu207 1.999 . S
N208 C210 1.263 . S
N208 C212 1.389 . S
N209 C210 1.358 . S
N209 C211 1.400 . S
C210 N208 1.263 . S
C210 N209 1.358 . S
C210 H216 0.930 . S
C211 N209 1.400 . S
C211 C212 1.351 . S
C211 H228 0.930 . S
C212 N208 1.389 . S
C212 C211 1.351 . S
C212 H217 0.930 . S
O213 Cu207 1.974 . S
O213 C223 1.282 . S
C214 O215 1.261 . S
C214 O227 1.251 . S
O215 C214 1.261 . S
H216 C210 0.930 . S
H217 C212 0.930 . S
N218 Cu207 1.985 . S
N218 C220 1.335 . S
N218 C221 1.390 . S
N219 C220 1.345 . S
N219 C222 1.336 . S
C220 N218 1.335 . S
C220 N219 1.345 . S
C220 H225 0.930 . S
C221 N218 1.390 . S
C221 C222 1.346 . S
C221 H226 0.930 . S
C222 N219 1.336 . S
C222 C221 1.346 . S
C222 H229 0.929 . S
C223 O213 1.282 . S
C223 O224 1.216 . S
O224 C223 1.216 . S
H225 C220 0.930 . S
H226 C221 0.930 . S
O227 Cu207 1.959 . S
O227 C214 1.251 . S
H228 C211 0.930 . S
H229 C222 0.929 . S
Cu230 N231 1.999 . S
Cu230 O236 1.974 . S
Cu230 N241 1.985 . S
Cu230 O250 1.959 . S
N231 Cu230 1.999 . S
N231 C233 1.263 . S
N231 C235 1.389 . S
N232 C233 1.358 . S
N232 C234 1.400 . S
C233 N231 1.263 . S
C233 N232 1.358 . S
C233 H239 0.930 . S
C234 N232 1.400 . S
C234 C235 1.351 . S
C234 H251 0.930 . S
C235 N231 1.389 . S
C235 C234 1.351 . S
C235 H240 0.930 . S
O236 Cu230 1.974 . S
O236 C246 1.282 . S
C237 O238 1.261 . S
C237 O250 1.251 . S
O238 C237 1.261 . S
H239 C233 0.930 . S
H240 C235 0.930 . S
N241 Cu230 1.985 . S
N241 C243 1.335 . S
N241 C244 1.390 . S
N242 C243 1.345 . S
N242 C245 1.336 . S
C243 N241 1.335 . S
C243 N242 1.345 . S
C243 H248 0.930 . S
C244 N241 1.390 . S
C244 C245 1.346 . S
C244 H249 0.930 . S
C245 N242 1.336 . S
C245 C244 1.346 . S
C245 H252 0.929 . S
C246 O236 1.282 . S
C246 O247 1.216 . S
O247 C246 1.216 . S
H248 C243 0.930 . S
H249 C244 0.930 . S
O250 Cu230 1.959 . S
O250 C237 1.251 . S
H251 C234 0.930 . S
H252 C245 0.929 . S
Cu253 N254 1.999 . S
Cu253 O259 1.974 . S
Cu253 N264 1.985 . S
Cu253 O273 1.959 . S
N254 Cu253 1.999 . S
N254 C256 1.263 . S
N254 C258 1.389 . S
N255 C256 1.358 . S
N255 C257 1.400 . S
C256 N254 1.263 . S
C256 N255 1.358 . S
C256 H262 0.930 . S
C257 N255 1.400 . S
C257 C258 1.351 . S
C257 H274 0.930 . S
C258 N254 1.389 . S
C258 C257 1.351 . S
C258 H263 0.930 . S
O259 Cu253 1.974 . S
O259 C269 1.282 . S
C260 O261 1.261 . S
C260 O273 1.251 . S
O261 C260 1.261 . S
H262 C256 0.930 . S
H263 C258 0.930 . S
N264 Cu253 1.985 . S
N264 C266 1.335 . S
N264 C267 1.390 . S
N265 C266 1.345 . S
N265 C268 1.336 . S
C266 N264 1.335 . S
C266 N265 1.345 . S
C266 H271 0.930 . S
C267 N264 1.390 . S
C267 C268 1.346 . S
C267 H272 0.930 . S
C268 N265 1.336 . S
C268 C267 1.346 . S
C268 H275 0.929 . S
C269 O259 1.282 . S
C269 O270 1.216 . S
O270 C269 1.216 . S
H271 C266 0.930 . S
H272 C267 0.930 . S
O273 Cu253 1.959 . S
O273 C260 1.251 . S
H274 C257 0.930 . S
H275 C268 0.929 . S
Cu276 N277 1.999 . S
Cu276 O282 1.974 . S
Cu276 N287 1.985 . S
Cu276 O296 1.959 . S
N277 Cu276 1.999 . S
N277 C279 1.263 . S
N277 C281 1.389 . S
N278 C279 1.358 . S
N278 C280 1.400 . S
C279 N277 1.263 . S
C279 N278 1.358 . S
C279 H285 0.930 . S
C280 N278 1.400 . S
C280 C281 1.351 . S
C280 H297 0.930 . S
C281 N277 1.389 . S
C281 C280 1.351 . S
C281 H286 0.930 . S
O282 Cu276 1.974 . S
O282 C292 1.282 . S
C283 O284 1.261 . S
C283 O296 1.251 . S
O284 C283 1.261 . S
H285 C279 0.930 . S
H286 C281 0.930 . S
N287 Cu276 1.985 . S
N287 C289 1.335 . S
N287 C290 1.390 . S
N288 C289 1.345 . S
N288 C291 1.336 . S
C289 N287 1.335 . S
C289 N288 1.345 . S
C289 H294 0.930 . S
C290 N287 1.390 . S
C290 C291 1.346 . S
C290 H295 0.930 . S
C291 N288 1.336 . S
C291 C290 1.346 . S
C291 H298 0.929 . S
C292 O282 1.282 . S
C292 O293 1.216 . S
O293 C292 1.216 . S
H294 C289 0.930 . S
H295 C290 0.930 . S
O296 Cu276 1.959 . S
O296 C283 1.251 . S
H297 C280 0.930 . S
H298 C291 0.929 . S
Cu299 N300 1.999 . S
Cu299 O305 1.974 . S
Cu299 N310 1.985 . S
Cu299 O319 1.959 . S
N300 Cu299 1.999 . S
N300 C302 1.263 . S
N300 C304 1.389 . S
N301 C302 1.358 . S
N301 C303 1.400 . S
C302 N300 1.263 . S
C302 N301 1.358 . S
C302 H308 0.930 . S
C303 N301 1.400 . S
C303 C304 1.351 . S
C303 H320 0.930 . S
C304 N300 1.389 . S
C304 C303 1.351 . S
C304 H309 0.930 . S
O305 Cu299 1.974 . S
O305 C315 1.282 . S
C306 O307 1.261 . S
C306 O319 1.251 . S
O307 C306 1.261 . S
H308 C302 0.930 . S
H309 C304 0.930 . S
N310 Cu299 1.985 . S
N310 C312 1.335 . S
N310 C313 1.390 . S
N311 C312 1.345 . S
N311 C314 1.336 . S
C312 N310 1.335 . S
C312 N311 1.345 . S
C312 H317 0.930 . S
C313 N310 1.390 . S
C313 C314 1.346 . S
C313 H318 0.930 . S
C314 N311 1.336 . S
C314 C313 1.346 . S
C314 H321 0.929 . S
C315 O305 1.282 . S
C315 O316 1.216 . S
O316 C315 1.216 . S
H317 C312 0.930 . S
H318 C313 0.930 . S
O319 Cu299 1.959 . S
O319 C306 1.251 . S
H320 C303 0.930 . S
H321 C314 0.929 . S
Cu322 N323 1.999 . S
Cu322 O328 1.974 . S
Cu322 N333 1.985 . S
Cu322 O342 1.959 . S
N323 Cu322 1.999 . S
N323 C325 1.263 . S
N323 C327 1.389 . S
N324 C325 1.358 . S
N324 C326 1.400 . S
C325 N323 1.263 . S
C325 N324 1.358 . S
C325 H331 0.930 . S
C326 N324 1.400 . S
C326 C327 1.351 . S
C326 H343 0.930 . S
C327 N323 1.389 . S
C327 C326 1.351 . S
C327 H332 0.930 . S
O328 Cu322 1.974 . S
O328 C338 1.282 . S
C329 O330 1.261 . S
C329 O342 1.251 . S
O330 C329 1.261 . S
H331 C325 0.930 . S
H332 C327 0.930 . S
N333 Cu322 1.985 . S
N333 C335 1.335 . S
N333 C336 1.390 . S
N334 C335 1.345 . S
N334 C337 1.336 . S
C335 N333 1.335 . S
C335 N334 1.345 . S
C335 H340 0.930 . S
C336 N333 1.390 . S
C336 C337 1.346 . S
C336 H341 0.930 . S
C337 N334 1.336 . S
C337 C336 1.346 . S
C337 H344 0.929 . S
C338 O328 1.282 . S
C338 O339 1.216 . S
O339 C338 1.216 . S
H340 C335 0.930 . S
H341 C336 0.930 . S
O342 Cu322 1.959 . S
O342 C329 1.251 . S
H343 C326 0.930 . S
H344 C337 0.929 . S
Cu345 N346 1.999 . S
Cu345 O351 1.974 . S
Cu345 N356 1.985 . S
Cu345 O365 1.959 . S
N346 Cu345 1.999 . S
N346 C348 1.263 . S
N346 C350 1.389 . S
N347 C348 1.358 . S
N347 C349 1.400 . S
C348 N346 1.263 . S
C348 N347 1.358 . S
C348 H354 0.930 . S
C349 N347 1.400 . S
C349 C350 1.351 . S
C349 H366 0.930 . S
C350 N346 1.389 . S
C350 C349 1.351 . S
C350 H355 0.930 . S
O351 Cu345 1.974 . S
O351 C361 1.282 . S
C352 O353 1.261 . S
C352 O365 1.251 . S
O353 C352 1.261 . S
H354 C348 0.930 . S
H355 C350 0.930 . S
N356 Cu345 1.985 . S
N356 C358 1.335 . S
N356 C359 1.390 . S
N357 C358 1.345 . S
N357 C360 1.336 . S
C358 N356 1.335 . S
C358 N357 1.345 . S
C358 H363 0.930 . S
C359 N356 1.390 . S
C359 C360 1.346 . S
C359 H364 0.930 . S
C360 N357 1.336 . S
C360 C359 1.346 . S
C360 H367 0.929 . S
C361 O351 1.282 . S
C361 O362 1.216 . S
O362 C361 1.216 . S
H363 C358 0.930 . S
H364 C359 0.930 . S
O365 Cu345 1.959 . S
O365 C352 1.251 . S
H366 C349 0.930 . S
H367 C360 0.929 . S
H368 C374 0.930 . S
H369 C378 0.930 . S
H370 C383 0.929 . S
H371 C381 0.929 . S
H372 C376 0.929 . S
H373 C382 0.929 . S
C374 H368 0.930 . S
C374 C375 1.367 . S
C374 C382 1.378 . S
C375 C374 1.367 . S
C375 C383 1.433 . S
C376 H372 0.929 . S
C376 C378 1.378 . S
C376 C380 1.350 . S
C377 C380 1.463 1_556 S
C377 C382 1.350 . S
C377 N385 1.427 . S
C378 H369 0.930 . S
C378 C376 1.378 . S
C378 C379 1.367 . S
C379 C378 1.367 . S
C379 C381 1.433 . S
C380 C376 1.350 . S
C380 C377 1.463 1_554 S
C380 N384 1.427 . S
C381 H371 0.929 . S
C381 C379 1.433 . S
C381 N384 1.384 . S
C382 H373 0.929 . S
C382 C374 1.378 . S
C382 C377 1.350 . S
C383 H370 0.929 . S
C383 C375 1.433 . S
C383 N385 1.384 . S
N384 C380 1.427 . S
N384 C381 1.384 . S
N385 C377 1.427 . S
N385 C383 1.384 . S
H386 C392 0.930 . S
H387 C396 0.930 . S
H388 C401 0.929 . S
H389 C399 0.929 . S
H390 C394 0.929 . S
H391 C400 0.929 . S
C392 H386 0.930 . S
C392 C393 1.367 . S
C392 C400 1.378 . S
C393 C392 1.367 . S
C393 C401 1.433 . S
C394 H390 0.929 . S
C394 C396 1.378 . S
C394 C398 1.350 . S
C395 C398 1.463 . S
C395 C400 1.350 . S
C395 N403 1.427 . S
C396 H387 0.930 . S
C396 C394 1.378 . S
C396 C397 1.367 . S
C397 C396 1.367 . S
C397 C399 1.433 . S
C398 C394 1.350 . S
C398 C395 1.463 . S
C398 N402 1.427 . S
C399 H389 0.929 . S
C399 C397 1.433 . S
C399 N402 1.384 . S
C400 H391 0.929 . S
C400 C392 1.378 . S
C400 C395 1.350 . S
C401 H388 0.929 . S
C401 C393 1.433 . S
C401 N403 1.384 . S
N402 C398 1.427 . S
N402 C399 1.384 . S
N403 C395 1.427 . S
N403 C401 1.384 . S
H404 C410 0.930 . S
H405 C414 0.930 . S
H406 C419 0.929 . S
H407 C417 0.929 . S
H408 C412 0.929 . S
H409 C418 0.929 . S
C410 H404 0.930 . S
C410 C411 1.367 . S
C410 C418 1.378 . S
C411 C410 1.367 . S
C411 C419 1.433 . S
C412 H408 0.929 . S
C412 C414 1.378 . S
C412 C416 1.350 . S
C413 C416 1.463 1_556 S
C413 C418 1.350 . S
C413 N421 1.427 . S
C414 H405 0.930 . S
C414 C412 1.378 . S
C414 C415 1.367 . S
C415 C414 1.367 . S
C415 C417 1.433 . S
C416 C412 1.350 . S
C416 C413 1.463 1_554 S
C416 N420 1.427 . S
C417 H407 0.929 . S
C417 C415 1.433 . S
C417 N420 1.384 . S
C418 H409 0.929 . S
C418 C410 1.378 . S
C418 C413 1.350 . S
C419 H406 0.929 . S
C419 C411 1.433 . S
C419 N421 1.384 . S
N420 C416 1.427 . S
N420 C417 1.384 . S
N421 C413 1.427 . S
N421 C419 1.384 . S
H422 C428 0.930 . S
H423 C432 0.930 . S
H424 C437 0.929 . S
H425 C435 0.929 . S
H426 C430 0.929 . S
H427 C436 0.929 . S
C428 H422 0.930 . S
C428 C429 1.367 . S
C428 C436 1.378 . S
C429 C428 1.367 . S
C429 C437 1.433 . S
C430 H426 0.929 . S
C430 C432 1.378 . S
C430 C434 1.350 . S
C431 C434 1.463 . S
C431 C436 1.350 . S
C431 N439 1.427 . S
C432 H423 0.930 . S
C432 C430 1.378 . S
C432 C433 1.367 . S
C433 C432 1.367 . S
C433 C435 1.433 . S
C434 C430 1.350 . S
C434 C431 1.463 . S
C434 N438 1.427 . S
C435 H425 0.929 . S
C435 C433 1.433 . S
C435 N438 1.384 . S
C436 H427 0.929 . S
C436 C428 1.378 . S
C436 C431 1.350 . S
C437 H424 0.929 . S
C437 C429 1.433 . S
C437 N439 1.384 . S
N438 C434 1.427 . S
N438 C435 1.384 . S
N439 C431 1.427 . S
N439 C437 1.384 . S
H440 C446 0.930 . S
H441 C450 0.930 . S
H442 C455 0.929 . S
H443 C453 0.929 . S
H444 C448 0.929 . S
H445 C454 0.929 . S
C446 H440 0.930 . S
C446 C447 1.367 . S
C446 C454 1.378 . S
C447 C446 1.367 . S
C447 C455 1.433 . S
C448 H444 0.929 . S
C448 C450 1.378 . S
C448 C452 1.350 . S
C449 C452 1.463 1_554 S
C449 C454 1.350 . S
C449 N457 1.427 . S
C450 H441 0.930 . S
C450 C448 1.378 . S
C450 C451 1.367 . S
C451 C450 1.367 . S
C451 C453 1.433 . S
C452 C448 1.350 . S
C452 C449 1.463 1_556 S
C452 N456 1.427 . S
C453 H443 0.929 . S
C453 C451 1.433 . S
C453 N456 1.384 . S
C454 H445 0.929 . S
C454 C446 1.378 . S
C454 C449 1.350 . S
C455 H442 0.929 . S
C455 C447 1.433 . S
C455 N457 1.384 . S
N456 C452 1.427 . S
N456 C453 1.384 . S
N457 C449 1.427 . S
N457 C455 1.384 . S
H458 C464 0.930 . S
H459 C468 0.930 . S
H460 C473 0.929 . S
H461 C471 0.929 . S
H462 C466 0.929 . S
H463 C472 0.929 . S
C464 H458 0.930 . S
C464 C465 1.367 . S
C464 C472 1.378 . S
C465 C464 1.367 . S
C465 C473 1.433 . S
C466 H462 0.929 . S
C466 C468 1.378 . S
C466 C470 1.350 . S
C467 C470 1.463 . S
C467 C472 1.350 . S
C467 N475 1.427 . S
C468 H459 0.930 . S
C468 C466 1.378 . S
C468 C469 1.367 . S
C469 C468 1.367 . S
C469 C471 1.433 . S
C470 C466 1.350 . S
C470 C467 1.463 . S
C470 N474 1.427 . S
C471 H461 0.929 . S
C471 C469 1.433 . S
C471 N474 1.384 . S
C472 H463 0.929 . S
C472 C464 1.378 . S
C472 C467 1.350 . S
C473 H460 0.929 . S
C473 C465 1.433 . S
C473 N475 1.384 . S
N474 C470 1.427 . S
N474 C471 1.384 . S
N475 C467 1.427 . S
N475 C473 1.384 . S
H476 C482 0.930 . S
H477 C486 0.930 . S
H478 C491 0.929 . S
H479 C489 0.929 . S
H480 C484 0.929 . S
H481 C490 0.929 . S
C482 H476 0.930 . S
C482 C483 1.367 . S
C482 C490 1.378 . S
C483 C482 1.367 . S
C483 C491 1.433 . S
C484 H480 0.929 . S
C484 C486 1.378 . S
C484 C488 1.350 . S
C485 C488 1.463 1_556 S
C485 C490 1.350 . S
C485 N493 1.427 . S
C486 H477 0.930 . S
C486 C484 1.378 . S
C486 C487 1.367 . S
C487 C486 1.367 . S
C487 C489 1.433 . S
C488 C484 1.350 . S
C488 C485 1.463 1_554 S
C488 N492 1.427 . S
C489 H479 0.929 . S
C489 C487 1.433 . S
C489 N492 1.384 . S
C490 H481 0.929 . S
C490 C482 1.378 . S
C490 C485 1.350 . S
C491 H478 0.929 . S
C491 C483 1.433 . S
C491 N493 1.384 . S
N492 C488 1.427 . S
N492 C489 1.384 . S
N493 C485 1.427 . S
N493 C491 1.384 . S
H494 C500 0.930 . S
H495 C504 0.930 . S
H496 C509 0.929 . S
H497 C507 0.929 . S
H498 C502 0.929 . S
H499 C508 0.929 . S
C500 H494 0.930 . S
C500 C501 1.367 . S
C500 C508 1.378 . S
C501 C500 1.367 . S
C501 C509 1.433 . S
C502 H498 0.929 . S
C502 C504 1.378 . S
C502 C506 1.350 . S
C503 C506 1.463 . S
C503 C508 1.350 . S
C503 N511 1.427 . S
C504 H495 0.930 . S
C504 C502 1.378 . S
C504 C505 1.367 . S
C505 C504 1.367 . S
C505 C507 1.433 . S
C506 C502 1.350 . S
C506 C503 1.463 . S
C506 N510 1.427 . S
C507 H497 0.929 . S
C507 C505 1.433 . S
C507 N510 1.384 . S
C508 H499 0.929 . S
C508 C500 1.378 . S
C508 C503 1.350 . S
C509 H496 0.929 . S
C509 C501 1.433 . S
C509 N511 1.384 . S
N510 C506 1.427 . S
N510 C507 1.384 . S
N511 C503 1.427 . S
N511 C509 1.384 . S
H512 C518 0.930 . S
H513 C522 0.930 . S
H514 C527 0.929 . S
H515 C525 0.929 . S
H516 C520 0.929 . S
H517 C526 0.929 . S
C518 H512 0.930 . S
C518 C519 1.367 . S
C518 C526 1.378 . S
C519 C518 1.367 . S
C519 C527 1.433 . S
C520 H516 0.929 . S
C520 C522 1.378 . S
C520 C524 1.350 . S
C521 C524 1.463 . S
C521 C526 1.350 . S
C521 N529 1.427 . S
C522 H513 0.930 . S
C522 C520 1.378 . S
C522 C523 1.367 . S
C523 C522 1.367 . S
C523 C525 1.433 . S
C524 C520 1.350 . S
C524 C521 1.463 . S
C524 N528 1.427 . S
C525 H515 0.929 . S
C525 C523 1.433 . S
C525 N528 1.384 . S
C526 H517 0.929 . S
C526 C518 1.378 . S
C526 C521 1.350 . S
C527 H514 0.929 . S
C527 C519 1.433 . S
C527 N529 1.384 . S
N528 C524 1.427 . S
N528 C525 1.384 . S
N529 C521 1.427 . S
N529 C527 1.384 . S
H530 C536 0.930 . S
H531 C540 0.930 . S
H532 C545 0.929 . S
H533 C543 0.929 . S
H534 C538 0.929 . S
H535 C544 0.929 . S
C536 H530 0.930 . S
C536 C537 1.367 . S
C536 C544 1.378 . S
C537 C536 1.367 . S
C537 C545 1.433 . S
C538 H534 0.929 . S
C538 C540 1.378 . S
C538 C542 1.350 . S
C539 C542 1.463 . S
C539 C544 1.350 . S
C539 N547 1.427 . S
C540 H531 0.930 . S
C540 C538 1.378 . S
C540 C541 1.367 . S
C541 C540 1.367 . S
C541 C543 1.433 . S
C542 C538 1.350 . S
C542 C539 1.463 . S
C542 N546 1.427 . S
C543 H533 0.929 . S
C543 C541 1.433 . S
C543 N546 1.384 . S
C544 H535 0.929 . S
C544 C536 1.378 . S
C544 C539 1.350 . S
C545 H532 0.929 . S
C545 C537 1.433 . S
C545 N547 1.384 . S
N546 C542 1.427 . S
N546 C543 1.384 . S
N547 C539 1.427 . S
N547 C545 1.384 . S
H548 C554 0.930 . S
H549 C558 0.930 . S
H550 C563 0.929 . S
H551 C561 0.929 . S
H552 C556 0.929 . S
H553 C562 0.929 . S
C554 H548 0.930 . S
C554 C555 1.367 . S
C554 C562 1.378 . S
C555 C554 1.367 . S
C555 C563 1.433 . S
C556 H552 0.929 . S
C556 C558 1.378 . S
C556 C560 1.350 . S
C557 C560 1.463 . S
C557 C562 1.350 . S
C557 N565 1.427 . S
C558 H549 0.930 . S
C558 C556 1.378 . S
C558 C559 1.367 . S
C559 C558 1.367 . S
C559 C561 1.433 . S
C560 C556 1.350 . S
C560 C557 1.463 . S
C560 N564 1.427 . S
C561 H551 0.929 . S
C561 C559 1.433 . S
C561 N564 1.384 . S
C562 H553 0.929 . S
C562 C554 1.378 . S
C562 C557 1.350 . S
C563 H550 0.929 . S
C563 C555 1.433 . S
C563 N565 1.384 . S
N564 C560 1.427 . S
N564 C561 1.384 . S
N565 C557 1.427 . S
N565 C563 1.384 . S
H566 C572 0.930 . S
H567 C576 0.930 . S
H568 C581 0.929 . S
H569 C579 0.929 . S
H570 C574 0.929 . S
H571 C580 0.929 . S
C572 H566 0.930 . S
C572 C573 1.367 . S
C572 C580 1.378 . S
C573 C572 1.367 . S
C573 C581 1.433 . S
C574 H570 0.929 . S
C574 C576 1.378 . S
C574 C578 1.350 . S
C575 C578 1.463 . S
C575 C580 1.350 . S
C575 N583 1.427 . S
C576 H567 0.930 . S
C576 C574 1.378 . S
C576 C577 1.367 . S
C577 C576 1.367 . S
C577 C579 1.433 . S
C578 C574 1.350 . S
C578 C575 1.463 . S
C578 N582 1.427 . S
C579 H569 0.929 . S
C579 C577 1.433 . S
C579 N582 1.384 . S
C580 H571 0.929 . S
C580 C572 1.378 . S
C580 C575 1.350 . S
C581 H568 0.929 . S
C581 C573 1.433 . S
C581 N583 1.384 . S
N582 C578 1.427 . S
N582 C579 1.384 . S
N583 C575 1.427 . S
N583 C581 1.384 . S
H584 C590 0.930 . S
H585 C594 0.930 . S
H586 C599 0.929 . S
H587 C597 0.929 . S
H588 C592 0.929 . S
H589 C598 0.929 . S
C590 H584 0.930 . S
C590 C591 1.367 . S
C590 C598 1.378 . S
C591 C590 1.367 . S
C591 C599 1.433 . S
C592 H588 0.929 . S
C592 C594 1.378 . S
C592 C596 1.350 . S
C593 C596 1.463 . S
C593 C598 1.350 . S
C593 N601 1.427 . S
C594 H585 0.930 . S
C594 C592 1.378 . S
C594 C595 1.367 . S
C595 C594 1.367 . S
C595 C597 1.433 . S
C596 C592 1.350 . S
C596 C593 1.463 . S
C596 N600 1.427 . S
C597 H587 0.929 . S
C597 C595 1.433 . S
C597 N600 1.384 . S
C598 H589 0.929 . S
C598 C590 1.378 . S
C598 C593 1.350 . S
C599 H586 0.929 . S
C599 C591 1.433 . S
C599 N601 1.384 . S
N600 C596 1.427 . S
N600 C597 1.384 . S
N601 C593 1.427 . S
N601 C599 1.384 . S
H602 C608 0.930 . S
H603 C612 0.930 . S
H604 C617 0.929 . S
H605 C615 0.929 . S
H606 C610 0.929 . S
H607 C616 0.929 . S
C608 H602 0.930 . S
C608 C609 1.367 . S
C608 C616 1.378 . S
C609 C608 1.367 . S
C609 C617 1.433 . S
C610 H606 0.929 . S
C610 C612 1.378 . S
C610 C614 1.350 . S
C611 C614 1.463 . S
C611 C616 1.350 . S
C611 N619 1.427 . S
C612 H603 0.930 . S
C612 C610 1.378 . S
C612 C613 1.367 . S
C613 C612 1.367 . S
C613 C615 1.433 . S
C614 C610 1.350 . S
C614 C611 1.463 . S
C614 N618 1.427 . S
C615 H605 0.929 . S
C615 C613 1.433 . S
C615 N618 1.384 . S
C616 H607 0.929 . S
C616 C608 1.378 . S
C616 C611 1.350 . S
C617 H604 0.929 . S
C617 C609 1.433 . S
C617 N619 1.384 . S
N618 C614 1.427 . S
N618 C615 1.384 . S
N619 C611 1.427 . S
N619 C617 1.384 . S
H620 C626 0.930 . S
H621 C630 0.930 . S
H622 C635 0.929 . S
H623 C633 0.929 . S
H624 C628 0.929 . S
H625 C634 0.929 . S
C626 H620 0.930 . S
C626 C627 1.367 . S
C626 C634 1.378 . S
C627 C626 1.367 . S
C627 C635 1.433 . S
C628 H624 0.929 . S
C628 C630 1.378 . S
C628 C632 1.350 . S
C629 C632 1.463 . S
C629 C634 1.350 . S
C629 N637 1.427 . S
C630 H621 0.930 . S
C630 C628 1.378 . S
C630 C631 1.367 . S
C631 C630 1.367 . S
C631 C633 1.433 . S
C632 C628 1.350 . S
C632 C629 1.463 . S
C632 N636 1.427 . S
C633 H623 0.929 . S
C633 C631 1.433 . S
C633 N636 1.384 . S
C634 H625 0.929 . S
C634 C626 1.378 . S
C634 C629 1.350 . S
C635 H622 0.929 . S
C635 C627 1.433 . S
C635 N637 1.384 . S
N636 C632 1.427 . S
N636 C633 1.384 . S
N637 C629 1.427 . S
N637 C635 1.384 . S
H638 C644 0.930 . S
H639 C648 0.930 . S
H640 C653 0.929 . S
H641 C651 0.929 . S
H642 C646 0.929 . S
H643 C652 0.929 . S
C644 H638 0.930 . S
C644 C645 1.367 . S
C644 C652 1.378 . S
C645 C644 1.367 . S
C645 C653 1.433 . S
C646 H642 0.929 . S
C646 C648 1.378 . S
C646 C650 1.350 . S
C647 C650 1.463 . S
C647 C652 1.350 . S
C647 N655 1.427 . S
C648 H639 0.930 . S
C648 C646 1.378 . S
C648 C649 1.367 . S
C649 C648 1.367 . S
C649 C651 1.433 . S
C650 C646 1.350 . S
C650 C647 1.463 . S
C650 N654 1.427 . S
C651 H641 0.929 . S
C651 C649 1.433 . S
C651 N654 1.384 . S
C652 H643 0.929 . S
C652 C644 1.378 . S
C652 C647 1.350 . S
C653 H640 0.929 . S
C653 C645 1.433 . S
C653 N655 1.384 . S
N654 C650 1.427 . S
N654 C651 1.384 . S
N655 C647 1.427 . S
N655 C653 1.384 . S
H656 C662 0.930 . S
H657 C666 0.930 . S
H658 C671 0.929 . S
H659 C669 0.929 . S
H660 C664 0.929 . S
H661 C670 0.929 . S
C662 H656 0.930 . S
C662 C663 1.367 . S
C662 C670 1.378 . S
C663 C662 1.367 . S
C663 C671 1.433 . S
C664 H660 0.929 . S
C664 C666 1.378 . S
C664 C668 1.350 . S
C665 C668 1.463 . S
C665 C670 1.350 . S
C665 N673 1.427 . S
C666 H657 0.930 . S
C666 C664 1.378 . S
C666 C667 1.367 . S
C667 C666 1.367 . S
C667 C669 1.433 . S
C668 C664 1.350 . S
C668 C665 1.463 . S
C668 N672 1.427 . S
C669 H659 0.929 . S
C669 C667 1.433 . S
C669 N672 1.384 . S
C670 H661 0.929 . S
C670 C662 1.378 . S
C670 C665 1.350 . S
C671 H658 0.929 . S
C671 C663 1.433 . S
C671 N673 1.384 . S
N672 C668 1.427 . S
N672 C669 1.384 . S
N673 C665 1.427 . S
N673 C671 1.384 . S
H674 C680 0.930 . S
H675 C684 0.930 . S
H676 C689 0.929 . S
H677 C687 0.929 . S
H678 C682 0.929 . S
H679 C688 0.929 . S
C680 H674 0.930 . S
C680 C681 1.367 . S
C680 C688 1.378 . S
C681 C680 1.367 . S
C681 C689 1.433 . S
C682 H678 0.929 . S
C682 C684 1.378 . S
C682 C686 1.350 . S
C683 C686 1.463 . S
C683 C688 1.350 . S
C683 N691 1.427 . S
C684 H675 0.930 . S
C684 C682 1.378 . S
C684 C685 1.367 . S
C685 C684 1.367 . S
C685 C687 1.433 . S
C686 C682 1.350 . S
C686 C683 1.463 . S
C686 N690 1.427 . S
C687 H677 0.929 . S
C687 C685 1.433 . S
C687 N690 1.384 . S
C688 H679 0.929 . S
C688 C680 1.378 . S
C688 C683 1.350 . S
C689 H676 0.929 . S
C689 C681 1.433 . S
C689 N691 1.384 . S
N690 C686 1.427 . S
N690 C687 1.384 . S
N691 C683 1.427 . S
N691 C689 1.384 . S
H692 C698 0.930 . S
H693 C702 0.930 . S
H694 C707 0.929 . S
H695 C705 0.929 . S
H696 C700 0.929 . S
H697 C706 0.929 . S
C698 H692 0.930 . S
C698 C699 1.367 . S
C698 C706 1.378 . S
C699 C698 1.367 . S
C699 C707 1.433 . S
C700 H696 0.929 . S
C700 C702 1.378 . S
C700 C704 1.350 . S
C701 C704 1.463 . S
C701 C706 1.350 . S
C701 N709 1.427 . S
C702 H693 0.930 . S
C702 C700 1.378 . S
C702 C703 1.367 . S
C703 C702 1.367 . S
C703 C705 1.433 . S
C704 C700 1.350 . S
C704 C701 1.463 . S
C704 N708 1.427 . S
C705 H695 0.929 . S
C705 C703 1.433 . S
C705 N708 1.384 . S
C706 H697 0.929 . S
C706 C698 1.378 . S
C706 C701 1.350 . S
C707 H694 0.929 . S
C707 C699 1.433 . S
C707 N709 1.384 . S
N708 C704 1.427 . S
N708 C705 1.384 . S
N709 C701 1.427 . S
N709 C707 1.384 . S
H710 C716 0.930 . S
H711 C720 0.930 . S
H712 C725 0.929 . S
H713 C723 0.929 . S
H714 C718 0.929 . S
H715 C724 0.929 . S
C716 H710 0.930 . S
C716 C717 1.367 . S
C716 C724 1.378 . S
C717 C716 1.367 . S
C717 C725 1.433 . S
C718 H714 0.929 . S
C718 C720 1.378 . S
C718 C722 1.350 . S
C719 C722 1.463 . S
C719 C724 1.350 . S
C719 N727 1.427 . S
C720 H711 0.930 . S
C720 C718 1.378 . S
C720 C721 1.367 . S
C721 C720 1.367 . S
C721 C723 1.433 . S
C722 C718 1.350 . S
C722 C719 1.463 . S
C722 N726 1.427 . S
C723 H713 0.929 . S
C723 C721 1.433 . S
C723 N726 1.384 . S
C724 H715 0.929 . S
C724 C716 1.378 . S
C724 C719 1.350 . S
C725 H712 0.929 . S
C725 C717 1.433 . S
C725 N727 1.384 . S
N726 C722 1.427 . S
N726 C723 1.384 . S
N727 C719 1.427 . S
N727 C725 1.384 . S
H728 C734 0.930 . S
H729 C738 0.930 . S
H730 C743 0.929 . S
H731 C741 0.929 . S
H732 C736 0.929 . S
H733 C742 0.929 . S
C734 H728 0.930 . S
C734 C735 1.367 . S
C734 C742 1.378 . S
C735 C734 1.367 . S
C735 C743 1.433 . S
C736 H732 0.929 . S
C736 C738 1.378 . S
C736 C740 1.350 . S
C737 C740 1.463 . S
C737 C742 1.350 . S
C737 N745 1.427 . S
C738 H729 0.930 . S
C738 C736 1.378 . S
C738 C739 1.367 . S
C739 C738 1.367 . S
C739 C741 1.433 . S
C740 C736 1.350 . S
C740 C737 1.463 . S
C740 N744 1.427 . S
C741 H731 0.929 . S
C741 C739 1.433 . S
C741 N744 1.384 . S
C742 H733 0.929 . S
C742 C734 1.378 . S
C742 C737 1.350 . S
C743 H730 0.929 . S
C743 C735 1.433 . S
C743 N745 1.384 . S
N744 C740 1.427 . S
N744 C741 1.384 . S
N745 C737 1.427 . S
N745 C743 1.384 . S
H746 C752 0.930 . S
H747 C756 0.930 . S
H748 C761 0.929 . S
H749 C759 0.929 . S
H750 C754 0.929 . S
H751 C760 0.929 . S
C752 H746 0.930 . S
C752 C753 1.367 . S
C752 C760 1.378 . S
C753 C752 1.367 . S
C753 C761 1.433 . S
C754 H750 0.929 . S
C754 C756 1.378 . S
C754 C758 1.350 . S
C755 C758 1.463 . S
C755 C760 1.350 . S
C755 N763 1.427 . S
C756 H747 0.930 . S
C756 C754 1.378 . S
C756 C757 1.367 . S
C757 C756 1.367 . S
C757 C759 1.433 . S
C758 C754 1.350 . S
C758 C755 1.463 . S
C758 N762 1.427 . S
C759 H749 0.929 . S
C759 C757 1.433 . S
C759 N762 1.384 . S
C760 H751 0.929 . S
C760 C752 1.378 . S
C760 C755 1.350 . S
C761 H748 0.929 . S
C761 C753 1.433 . S
C761 N763 1.384 . S
N762 C758 1.427 . S
N762 C759 1.384 . S
N763 C755 1.427 . S
N763 C761 1.384 . S
H764 C770 0.930 . S
H765 C774 0.930 . S
H766 C779 0.929 . S
H767 C777 0.929 . S
H768 C772 0.929 . S
H769 C778 0.929 . S
C770 H764 0.930 . S
C770 C771 1.367 . S
C770 C778 1.378 . S
C771 C770 1.367 . S
C771 C779 1.433 . S
C772 H768 0.929 . S
C772 C774 1.378 . S
C772 C776 1.350 . S
C773 C776 1.463 . S
C773 C778 1.350 . S
C773 N781 1.427 . S
C774 H765 0.930 . S
C774 C772 1.378 . S
C774 C775 1.367 . S
C775 C774 1.367 . S
C775 C777 1.433 . S
C776 C772 1.350 . S
C776 C773 1.463 . S
C776 N780 1.427 . S
C777 H767 0.929 . S
C777 C775 1.433 . S
C777 N780 1.384 . S
C778 H769 0.929 . S
C778 C770 1.378 . S
C778 C773 1.350 . S
C779 H766 0.929 . S
C779 C771 1.433 . S
C779 N781 1.384 . S
N780 C776 1.427 . S
N780 C777 1.384 . S
N781 C773 1.427 . S
N781 C779 1.384 . S
H782 C788 0.930 . S
H783 C792 0.930 . S
H784 C797 0.929 . S
H785 C795 0.929 . S
H786 C790 0.929 . S
H787 C796 0.929 . S
C788 H782 0.930 . S
C788 C789 1.367 . S
C788 C796 1.378 . S
C789 C788 1.367 . S
C789 C797 1.433 . S
C790 H786 0.929 . S
C790 C792 1.378 . S
C790 C794 1.350 . S
C791 C794 1.463 . S
C791 C796 1.350 . S
C791 N799 1.427 . S
C792 H783 0.930 . S
C792 C790 1.378 . S
C792 C793 1.367 . S
C793 C792 1.367 . S
C793 C795 1.433 . S
C794 C790 1.350 . S
C794 C791 1.463 . S
C794 N798 1.427 . S
C795 H785 0.929 . S
C795 C793 1.433 . S
C795 N798 1.384 . S
C796 H787 0.929 . S
C796 C788 1.378 . S
C796 C791 1.350 . S
C797 H784 0.929 . S
C797 C789 1.433 . S
C797 N799 1.384 . S
N798 C794 1.427 . S
N798 C795 1.384 . S
N799 C791 1.427 . S
N799 C797 1.384 . S
H800 C806 0.930 . S
H801 C810 0.930 . S
H802 C815 0.929 . S
H803 C813 0.929 . S
H804 C808 0.929 . S
H805 C814 0.929 . S
C806 H800 0.930 . S
C806 C807 1.367 . S
C806 C814 1.378 1_545 S
C807 C806 1.367 . S
C807 C815 1.433 . S
C808 H804 0.929 . S
C808 C810 1.378 . S
C808 C812 1.350 . S
C809 C812 1.463 . S
C809 C814 1.350 . S
C809 N817 1.427 . S
C810 H801 0.930 . S
C810 C808 1.378 . S
C810 C811 1.367 . S
C811 C810 1.367 . S
C811 C813 1.433 . S
C812 C808 1.350 . S
C812 C809 1.463 . S
C812 N816 1.427 . S
C813 H803 0.929 . S
C813 C811 1.433 . S
C813 N816 1.384 . S
C814 H805 0.929 . S
C814 C806 1.378 1_565 S
C814 C809 1.350 . S
C815 H802 0.929 . S
C815 C807 1.433 . S
C815 N817 1.384 1_545 S
N816 C812 1.427 . S
N816 C813 1.384 . S
N817 C809 1.427 . S
N817 C815 1.384 1_565 S
H818 C824 0.930 . S
H819 C828 0.930 . S
H820 C833 0.929 . S
H821 C831 0.929 . S
H822 C826 0.929 . S
H823 C832 0.929 . S
C824 H818 0.930 . S
C824 C825 1.367 . S
C824 C832 1.378 . S
C825 C824 1.367 . S
C825 C833 1.433 . S
C826 H822 0.929 . S
C826 C828 1.378 . S
C826 C830 1.350 . S
C827 C830 1.463 . S
C827 C832 1.350 . S
C827 N835 1.427 . S
C828 H819 0.930 . S
C828 C826 1.378 . S
C828 C829 1.367 . S
C829 C828 1.367 . S
C829 C831 1.433 . S
C830 C826 1.350 . S
C830 C827 1.463 . S
C830 N834 1.427 . S
C831 H821 0.929 . S
C831 C829 1.433 . S
C831 N834 1.384 . S
C832 H823 0.929 . S
C832 C824 1.378 . S
C832 C827 1.350 . S
C833 H820 0.929 . S
C833 C825 1.433 . S
C833 N835 1.384 . S
N834 C830 1.427 . S
N834 C831 1.384 . S
N835 C827 1.427 . S
N835 C833 1.384 . S
H836 C842 0.930 . S
H837 C846 0.930 . S
H838 C851 0.929 . S
H839 C849 0.929 . S
H840 C844 0.929 . S
H841 C850 0.929 . S
C842 H836 0.930 . S
C842 C843 1.367 . S
C842 C850 1.378 . S
C843 C842 1.367 . S
C843 C851 1.433 . S
C844 H840 0.929 . S
C844 C846 1.378 . S
C844 C848 1.350 . S
C845 C848 1.463 . S
C845 C850 1.350 . S
C845 N853 1.427 . S
C846 H837 0.930 . S
C846 C844 1.378 . S
C846 C847 1.367 1_455 S
C847 C846 1.367 1_655 S
C847 C849 1.433 . S
C848 C844 1.350 . S
C848 C845 1.463 . S
C848 N852 1.427 . S
C849 H839 0.929 . S
C849 C847 1.433 . S
C849 N852 1.384 1_655 S
C850 H841 0.929 . S
C850 C842 1.378 . S
C850 C845 1.350 . S
C851 H838 0.929 . S
C851 C843 1.433 . S
C851 N853 1.384 . S
N852 C848 1.427 . S
N852 C849 1.384 1_455 S
N853 C845 1.427 . S
N853 C851 1.384 . S
H854 C860 0.930 . S
H855 C864 0.930 . S
H856 C869 0.929 . S
H857 C867 0.929 . S
H858 C862 0.929 . S
H859 C868 0.929 . S
C860 H854 0.930 . S
C860 C861 1.367 . S
C860 C868 1.378 1_565 S
C861 C860 1.367 . S
C861 C869 1.433 1_565 S
C862 H858 0.929 . S
C862 C864 1.378 . S
C862 C866 1.350 . S
C863 C866 1.463 . S
C863 C868 1.350 . S
C863 N871 1.427 . S
C864 H855 0.930 . S
C864 C862 1.378 . S
C864 C865 1.367 1_655 S
C865 C864 1.367 1_455 S
C865 C867 1.433 . S
C866 C862 1.350 . S
C866 C863 1.463 . S
C866 N870 1.427 . S
C867 H857 0.929 . S
C867 C865 1.433 . S
C867 N870 1.384 1_455 S
C868 H859 0.929 . S
C868 C860 1.378 1_545 S
C868 C863 1.350 . S
C869 H856 0.929 . S
C869 C861 1.433 1_545 S
C869 N871 1.384 . S
N870 C866 1.427 . S
N870 C867 1.384 1_655 S
N871 C863 1.427 . S
N871 C869 1.384 . S
H872 C878 0.930 . S
H873 C882 0.930 . S
H874 C887 0.929 . S
H875 C885 0.929 . S
H876 C880 0.929 . S
H877 C886 0.929 . S
C878 H872 0.930 . S
C878 C879 1.367 . S
C878 C886 1.378 . S
C879 C878 1.367 . S
C879 C887 1.433 . S
C880 H876 0.929 . S
C880 C882 1.378 . S
C880 C884 1.350 . S
C881 C884 1.463 . S
C881 C886 1.350 . S
C881 N889 1.427 . S
C882 H873 0.930 . S
C882 C880 1.378 . S
C882 C883 1.367 . S
C883 C882 1.367 . S
C883 C885 1.433 . S
C884 C880 1.350 . S
C884 C881 1.463 . S
C884 N888 1.427 . S
C885 H875 0.929 . S
C885 C883 1.433 . S
C885 N888 1.384 . S
C886 H877 0.929 . S
C886 C878 1.378 . S
C886 C881 1.350 . S
C887 H874 0.929 . S
C887 C879 1.433 . S
C887 N889 1.384 . S
N888 C884 1.427 . S
N888 C885 1.384 . S
N889 C881 1.427 . S
N889 C887 1.384 . S
H890 C896 0.930 . S
H891 C900 0.930 . S
H892 C905 0.929 . S
H893 C903 0.929 . S
H894 C898 0.929 . S
H895 C904 0.929 . S
C896 H890 0.930 . S
C896 C897 1.367 1_655 S
C896 C904 1.378 . S
C897 C896 1.367 1_455 S
C897 C905 1.433 . S
C898 H894 0.929 . S
C898 C900 1.378 . S
C898 C902 1.350 . S
C899 C902 1.463 . S
C899 C904 1.350 . S
C899 N907 1.427 . S
C900 H891 0.930 . S
C900 C898 1.378 . S
C900 C901 1.367 . S
C901 C900 1.367 . S
C901 C903 1.433 . S
C902 C898 1.350 . S
C902 C899 1.463 . S
C902 N906 1.427 . S
C903 H893 0.929 . S
C903 C901 1.433 . S
C903 N906 1.384 . S
C904 H895 0.929 . S
C904 C896 1.378 . S
C904 C899 1.350 . S
C905 H892 0.929 . S
C905 C897 1.433 . S
C905 N907 1.384 1_455 S
N906 C902 1.427 . S
N906 C903 1.384 . S
N907 C899 1.427 . S
N907 C905 1.384 1_655 S
H908 C914 0.930 . S
H909 C918 0.930 . S
H910 C923 0.929 . S
H911 C921 0.929 . S
H912 C916 0.929 . S
H913 C922 0.929 . S
C914 H908 0.930 . S
C914 C915 1.367 . S
C914 C922 1.378 1_655 S
C915 C914 1.367 . S
C915 C923 1.433 1_655 S
C916 H912 0.929 . S
C916 C918 1.378 . S
C916 C920 1.350 . S
C917 C920 1.463 . S
C917 C922 1.350 . S
C917 N925 1.427 . S
C918 H909 0.930 . S
C918 C916 1.378 . S
C918 C919 1.367 1_565 S
C919 C918 1.367 1_545 S
C919 C921 1.433 . S
C920 C916 1.350 . S
C920 C917 1.463 . S
C920 N924 1.427 . S
C921 H911 0.929 . S
C921 C919 1.433 . S
C921 N924 1.384 1_545 S
C922 H913 0.929 . S
C922 C914 1.378 1_455 S
C922 C917 1.350 . S
C923 H910 0.929 . S
C923 C915 1.433 1_455 S
C923 N925 1.384 . S
N924 C920 1.427 . S
N924 C921 1.384 1_565 S
N925 C917 1.427 . S
N925 C923 1.384 . S
H926 C932 0.930 . S
H927 C936 0.930 . S
H928 C941 0.929 . S
H929 C939 0.929 . S
H930 C934 0.929 . S
H931 C940 0.929 . S
C932 H926 0.930 . S
C932 C933 1.367 . S
C932 C940 1.378 1_565 S
C933 C932 1.367 . S
C933 C941 1.433 1_565 S
C934 H930 0.929 . S
C934 C936 1.378 . S
C934 C938 1.350 . S
C935 C938 1.463 . S
C935 C940 1.350 . S
C935 N943 1.427 . S
C936 H927 0.930 . S
C936 C934 1.378 . S
C936 C937 1.367 . S
C937 C936 1.367 . S
C937 C939 1.433 . S
C938 C934 1.350 . S
C938 C935 1.463 . S
C938 N942 1.427 . S
C939 H929 0.929 . S
C939 C937 1.433 . S
C939 N942 1.384 . S
C940 H931 0.929 . S
C940 C932 1.378 1_545 S
C940 C935 1.350 . S
C941 H928 0.929 . S
C941 C933 1.433 1_545 S
C941 N943 1.384 . S
N942 C938 1.427 . S
N942 C939 1.384 . S
N943 C935 1.427 . S
N943 C941 1.384 . S
C375 C168 1.656 . S
C379 C7 1.660 . S
C393 C99 1.654 . S
C397 C30 1.662 . S
C411 C122 1.661 . S
C415 C53 1.656 . S
C429 C76 1.654 . S
C433 C145 1.663 . S
C447 C352 1.656 . S
C451 C191 1.660 . S
C465 C283 1.662 . S
C469 C214 1.654 . S
C483 C237 1.656 . S
C487 C306 1.660 . S
C501 C260 1.658 . S
C505 C329 1.658 . S
C519 N48 1.289 . S
C523 N2 1.292 . S
C537 N25 1.302 . S
C541 N71 1.307 . S
C555 N94 1.303 . S
C559 N140 1.308 . S
C573 N163 1.293 . S
C577 N117 1.299 . S
C591 N186 1.305 . S
C595 N232 1.299 . S
C609 N209 1.303 . S
C613 N255 1.296 . S
C627 N324 1.290 . S
C631 N278 1.294 . S
C645 N301 1.291 . S
C649 N347 1.296 . S
C663 C154 1.632 . S
C667 C16 1.634 . S
C681 C39 1.632 . S
C685 C177 1.633 . S
C699 C62 1.636 . S
C703 C108 1.633 . S
C717 C85 1.632 . S
C721 C131 1.633 . S
C735 C200 1.636 . S
C739 C338 1.639 . S
C753 C223 1.634 . S
C757 C361 1.632 . S
C771 C246 1.640 . S
C775 C292 1.637 . S
C789 C269 1.640 . S
C793 C315 1.641 . S
C807 N12 1.467 . S
C811 N357 1.457 . S
C825 N288 1.466 . S
C829 N35 1.458 . S
C843 N58 1.468 . S
C847 N311 1.456 . S
C861 N334 1.468 . S
C865 N81 1.456 . S
C879 N219 1.463 . S
C883 N104 1.461 . S
C897 N127 1.464 . S
C901 N242 1.460 . S
C915 N265 1.459 . S
C919 N150 1.465 . S
C933 N196 1.459 . S
C937 N173 1.465 . S
