# Generated by pormake.
# Topology fnc, (5)-cn, num edge types: 1
# Building blocks:
#     Node 0, Type 0, BuildingBlock: XOMCOT_clean_sbu_0, # of connection points: 5
#     Node 1, Type 0, BuildingBlock: XOMCOT_clean_sbu_0, # of connection points: 5
#     Node 2, Type 0, BuildingBlock: XOMCOT_clean_sbu_0, # of connection points: 5
#     Node 3, Type 0, BuildingBlock: XOMCOT_clean_sbu_0, # of connection points: 5
#     Node 4, Type 0, BuildingBlock: XOMCOT_clean_sbu_0, # of connection points: 5
#     Node 5, Type 0, BuildingBlock: XOMCOT_clean_sbu_0, # of connection points: 5
#     Node 6, Type 0, BuildingBlock: XOMCOT_clean_sbu_0, # of connection points: 5
#     Node 7, Type 0, BuildingBlock: XOMCOT_clean_sbu_0, # of connection points: 5
#     Node 8, Type 0, BuildingBlock: XOMCOT_clean_sbu_0, # of connection points: 5
#     Node 9, Type 0, BuildingBlock: XOMCOT_clean_sbu_0, # of connection points: 5
#     Node 10, Type 0, BuildingBlock: XOMCOT_clean_sbu_0, # of connection points: 5
#     Node 11, Type 0, BuildingBlock: XOMCOT_clean_sbu_0, # of connection points: 5
#     Node 12, Type 0, BuildingBlock: XOMCOT_clean_sbu_0, # of connection points: 5
#     Node 13, Type 0, BuildingBlock: XOMCOT_clean_sbu_0, # of connection points: 5
#     Node 14, Type 0, BuildingBlock: XOMCOT_clean_sbu_0, # of connection points: 5
#     Node 15, Type 0, BuildingBlock: XOMCOT_clean_sbu_0, # of connection points: 5
#     Node 16, Type 0, BuildingBlock: XOMCOT_clean_sbu_0, # of connection points: 5
#     Node 17, Type 0, BuildingBlock: XOMCOT_clean_sbu_0, # of connection points: 5
#     Edge 18, Type (0, 0), BuildingBlock: XIVTED_clean_linker_0, # of connection points: 2
#     Edge 19, Type (0, 0), BuildingBlock: XIVTED_clean_linker_0, # of connection points: 2
#     Edge 20, Type (0, 0), BuildingBlock: XIVTED_clean_linker_0, # of connection points: 2
#     Edge 21, Type (0, 0), BuildingBlock: XIVTED_clean_linker_0, # of connection points: 2
#     Edge 22, Type (0, 0), BuildingBlock: XIVTED_clean_linker_0, # of connection points: 2
#     Edge 23, Type (0, 0), BuildingBlock: XIVTED_clean_linker_0, # of connection points: 2
#     Edge 24, Type (0, 0), BuildingBlock: XIVTED_clean_linker_0, # of connection points: 2
#     Edge 25, Type (0, 0), BuildingBlock: XIVTED_clean_linker_0, # of connection points: 2
#     Edge 26, Type (0, 0), BuildingBlock: XIVTED_clean_linker_0, # of connection points: 2
#     Edge 27, Type (0, 0), BuildingBlock: XIVTED_clean_linker_0, # of connection points: 2
#     Edge 28, Type (0, 0), BuildingBlock: XIVTED_clean_linker_0, # of connection points: 2
#     Edge 29, Type (0, 0), BuildingBlock: XIVTED_clean_linker_0, # of connection points: 2
#     Edge 30, Type (0, 0), BuildingBlock: XIVTED_clean_linker_0, # of connection points: 2
#     Edge 31, Type (0, 0), BuildingBlock: XIVTED_clean_linker_0, # of connection points: 2
#     Edge 32, Type (0, 0), BuildingBlock: XIVTED_clean_linker_0, # of connection points: 2
#     Edge 33, Type (0, 0), BuildingBlock: XIVTED_clean_linker_0, # of connection points: 2
#     Edge 34, Type (0, 0), BuildingBlock: XIVTED_clean_linker_0, # of connection points: 2
#     Edge 35, Type (0, 0), BuildingBlock: XIVTED_clean_linker_0, # of connection points: 2
#     Edge 36, Type (0, 0), BuildingBlock: XIVTED_clean_linker_0, # of connection points: 2
#     Edge 37, Type (0, 0), BuildingBlock: XIVTED_clean_linker_0, # of connection points: 2
#     Edge 38, Type (0, 0), BuildingBlock: XIVTED_clean_linker_0, # of connection points: 2
#     Edge 39, Type (0, 0), BuildingBlock: XIVTED_clean_linker_0, # of connection points: 2
#     Edge 40, Type (0, 0), BuildingBlock: XIVTED_clean_linker_0, # of connection points: 2
#     Edge 41, Type (0, 0), BuildingBlock: XIVTED_clean_linker_0, # of connection points: 2
#     Edge 42, Type (0, 0), BuildingBlock: XIVTED_clean_linker_0, # of connection points: 2
#     Edge 43, Type (0, 0), BuildingBlock: XIVTED_clean_linker_0, # of connection points: 2
#     Edge 44, Type (0, 0), BuildingBlock: XIVTED_clean_linker_0, # of connection points: 2
#     Edge 45, Type (0, 0), BuildingBlock: XIVTED_clean_linker_0, # of connection points: 2
#     Edge 46, Type (0, 0), BuildingBlock: XIVTED_clean_linker_0, # of connection points: 2
#     Edge 47, Type (0, 0), BuildingBlock: XIVTED_clean_linker_0, # of connection points: 2
#     Edge 48, Type (0, 0), BuildingBlock: XIVTED_clean_linker_0, # of connection points: 2
#     Edge 49, Type (0, 0), BuildingBlock: XIVTED_clean_linker_0, # of connection points: 2
#     Edge 50, Type (0, 0), BuildingBlock: XIVTED_clean_linker_0, # of connection points: 2
#     Edge 51, Type (0, 0), BuildingBlock: XIVTED_clean_linker_0, # of connection points: 2
#     Edge 52, Type (0, 0), BuildingBlock: XIVTED_clean_linker_0, # of connection points: 2
#     Edge 53, Type (0, 0), BuildingBlock: XIVTED_clean_linker_0, # of connection points: 2
#     Edge 54, Type (0, 0), BuildingBlock: XIVTED_clean_linker_0, # of connection points: 2
#     Edge 55, Type (0, 0), BuildingBlock: XIVTED_clean_linker_0, # of connection points: 2
#     Edge 56, Type (0, 0), BuildingBlock: XIVTED_clean_linker_0, # of connection points: 2
#     Edge 57, Type (0, 0), BuildingBlock: XIVTED_clean_linker_0, # of connection points: 2
#     Edge 58, Type (0, 0), BuildingBlock: XIVTED_clean_linker_0, # of connection points: 2
#     Edge 59, Type (0, 0), BuildingBlock: XIVTED_clean_linker_0, # of connection points: 2
#     Edge 60, Type (0, 0), BuildingBlock: XIVTED_clean_linker_0, # of connection points: 2
#     Edge 61, Type (0, 0), BuildingBlock: XIVTED_clean_linker_0, # of connection points: 2
#     Edge 62, Type (0, 0), BuildingBlock: XIVTED_clean_linker_0, # of connection points: 2
# Relax obj value: 0.190
# Max RMSD: 0.311
# Mean RMSD: 0.298
data_MOF--net-fnc--node1-XOMCOT_clean_sbu_0--edge1-XIVTED_clean_linker_0
_symmetry_space_group_name_H-M    P1
_symmetry_Int_Tables_number       1
_symmetry_cell_setting            triclinic
loop_
_symmetry_equiv_pos_as_xyz
'x, y, z'
_cell_length_a     92.040722
_cell_length_b     102.71018
_cell_length_c     17.722303
_cell_angle_alpha  90.722497
_cell_angle_beta   91.034934
_cell_angle_gamma 121.88152
loop_
_atom_site_label
_atom_site_type_symbol
_atom_site_fract_x
_atom_site_fract_y
_atom_site_fract_z
_atom_type_partial_charge
Co0 Co 0.02252 0.46457 0.06614 0.0
C1 C 0.02663 0.46733 0.90076 0.0
C2 C 0.04175 0.45933 0.95168 0.0
C3 C 0.04335 0.45929 0.87465 0.0
N4 N 0.03137 0.46446 0.96803 0.0
N5 N 0.03375 0.46422 0.84265 0.0
H6 H 0.01778 0.47118 0.89445 0.0
H7 H 0.04711 0.45515 0.99236 0.0
C8 C 0.05468 0.4767 0.16337 0.0
O9 O 0.05244 0.48725 0.19354 0.0
N10 N 0.01323 0.46408 0.16537 0.0
C11 C -0.00059 0.4649 0.18094 0.0
C12 C -0.00301 0.46383 0.25752 0.0
C13 C 0.01823 0.4615 0.23292 0.0
N14 N 0.00897 0.46184 0.29036 0.0
C15 C 0.02208 0.49205 0.062 0.0
C16 C 0.05628 0.51183 0.03235 0.0
C17 C 0.04547 0.51755 0.03675 0.0
C18 C 0.0282 0.50746 0.05171 0.0
C19 C 0.04952 0.49617 0.04226 0.0
N20 N 0.03272 0.48659 0.05983 0.0
H21 H 0.00858 0.48445 0.06836 0.0
H22 H 0.05772 0.4917 0.03432 0.0
H23 H 0.9912 0.4658 0.13987 0.0
H24 H 0.02806 0.45886 0.24021 0.0
O25 O 0.00077 0.45816 0.01826 0.0
O26 O 0.00865 0.44243 0.06 0.0
O27 O 0.04388 0.467 0.11438 0.0
C28 C -0.00276 0.44421 0.02501 0.0
H29 H 0.05029 0.45514 0.84436 0.0
H30 H 0.98723 0.46462 0.28656 0.0
H31 H 0.06962 0.51927 0.01886 0.0
H32 H 0.01938 0.51141 0.05443 0.0
Co33 Co 0.61729 0.67761 0.01952 0.0
C34 C 0.61917 0.67684 0.18552 0.0
C35 C 0.64382 0.68599 0.13707 0.0
C36 C 0.6458 0.68664 0.21443 0.0
N37 N 0.62713 0.67978 0.11924 0.0
N38 N 0.6303 0.68094 0.24492 0.0
H39 H 0.60561 0.67233 0.18986 0.0
H40 H 0.65392 0.69016 0.09678 0.0
C41 C 0.63322 0.66264 0.93397 0.0
O42 O 0.61847 0.65258 0.90101 0.0
N43 N 0.6077 0.67591 0.91835 0.0
C44 C 0.59223 0.67361 0.89907 0.0
C45 C 0.59087 0.67399 0.82191 0.0
C46 C 0.61585 0.67855 0.85238 0.0
N47 N 0.6057 0.677 0.79255 0.0
C48 C 0.58375 0.65168 0.04187 0.0
C49 C 0.5932 0.63067 0.06785 0.0
C50 C 0.57575 0.6256 0.06317 0.0
C51 C 0.57113 0.63642 0.05232 0.0
C52 C 0.60544 0.64613 0.05693 0.0
N53 N 0.60057 0.65621 0.03886 0.0
H54 H 0.57992 0.65989 0.03781 0.0
H55 H 0.61882 0.64995 0.06318 0.0
H56 H 0.58275 0.67248 0.93767 0.0
H57 H 0.62899 0.68164 0.84806 0.0
O58 O 0.60491 0.68659 0.05702 0.0
O59 O 0.63092 0.69954 0.01003 0.0
O60 O 0.63441 0.67285 0.97997 0.0
C61 C 0.61834 0.69975 0.04124 0.0
H62 H 0.6578 0.69111 0.24556 0.0
H63 H 0.57999 0.67263 0.79012 0.0
H64 H 0.59736 0.62276 0.07856 0.0
H65 H 0.55786 0.63316 0.05275 0.0
Co66 Co 0.43472 0.08884 0.09132 0.0
C67 C 0.43268 0.08665 0.92528 0.0
C68 C 0.40853 0.07066 0.97332 0.0
C69 C 0.40657 0.06942 0.89583 0.0
N70 N 0.4249 0.08141 0.99143 0.0
N71 N 0.42176 0.07951 0.86563 0.0
H72 H 0.44593 0.09581 0.92131 0.0
H73 H 0.39864 0.06436 0.01357 0.0
C74 C 0.42218 0.05945 0.1757 0.0
O75 O 0.4374 0.06487 0.20736 0.0
N76 N 0.44429 0.09649 0.19269 0.0
C77 C 0.45957 0.10905 0.21275 0.0
C78 C 0.46082 0.11077 0.29008 0.0
C79 C 0.43613 0.09131 0.25841 0.0
N80 N 0.44611 0.09953 0.31884 0.0
C81 C 0.46939 0.09748 0.06371 0.0
C82 C 0.46248 0.06803 0.0428 0.0
C83 C 0.47958 0.0802 0.04999 0.0
C84 C 0.48296 0.09517 0.05691 0.0
C85 C 0.44935 0.07091 0.04978 0.0
N86 N 0.45295 0.08534 0.06712 0.0
H87 H 0.47215 0.10905 0.06689 0.0
H88 H 0.43627 0.06144 0.04275 0.0
H89 H 0.46898 0.11699 0.1747 0.0
H90 H 0.42311 0.08171 0.26198 0.0
O91 O 0.44467 0.10971 0.05757 0.0
O92 O 0.41907 0.09546 0.10734 0.0
O93 O 0.41957 0.06743 0.12904 0.0
C94 C 0.43043 0.10836 0.07822 0.0
H95 H 0.39483 0.06167 0.86438 0.0
H96 H 0.47157 0.11989 0.3224 0.0
H97 H 0.45927 0.05636 0.03303 0.0
H98 H 0.49595 0.10499 0.05988 0.0
Co99 Co 0.07079 0.67048 0.99125 0.0
C100 C 0.06793 0.66885 0.15672 0.0
C101 C 0.04739 0.66986 0.10384 0.0
C102 C 0.04586 0.67005 0.18095 0.0
N103 N 0.06117 0.66905 0.08891 0.0
N104 N 0.05884 0.6695 0.21415 0.0
H105 H 0.07946 0.66856 0.16365 0.0
H106 H 0.03939 0.67087 0.06185 0.0
C107 C 0.03948 0.64984 0.89216 0.0
O108 O 0.04726 0.64364 0.86016 0.0
N109 N 0.08057 0.67243 0.89231 0.0
C110 C 0.09537 0.67349 0.87492 0.0
C111 C 0.09751 0.67517 0.79829 0.0
C112 C 0.0745 0.67439 0.82618 0.0
N113 N 0.08427 0.67558 0.76748 0.0
C114 C 0.08352 0.65059 0.01519 0.0
C115 C 0.0519 0.62385 0.02375 0.0
C116 C 0.06658 0.62298 0.02146 0.0
C117 C 0.08261 0.63663 0.02038 0.0
C118 C 0.05345 0.63806 0.01876 0.0
N119 N 0.06901 0.65104 0.00799 0.0
H120 H 0.09593 0.66101 0.01721 0.0
H121 H 0.04206 0.63855 0.02284 0.0
H122 H 0.10441 0.67353 0.91443 0.0
H123 H 0.06322 0.6751 0.82117 0.0
O124 O 0.09337 0.6843 0.03535 0.0
O125 O 0.07621 0.6912 0.98507 0.0
O126 O 0.04703 0.66019 0.9441 0.0
C127 C 0.09059 0.69518 0.0199 0.0
H128 H 0.03636 0.6712 0.2102 0.0
H129 H 0.10794 0.67581 0.76776 0.0
H130 H 0.03932 0.61364 0.02891 0.0
H131 H 0.09432 0.63653 0.02145 0.0
Co132 Co 0.4468 0.46024 0.09518 0.0
C133 C 0.44625 0.46353 0.92947 0.0
C134 C 0.42149 0.4548 0.97596 0.0
C135 C 0.41993 0.45485 0.89866 0.0
N136 N 0.438 0.46036 0.99531 0.0
N137 N 0.43547 0.46023 0.86944 0.0
H138 H 0.45972 0.46765 0.92555 0.0
H139 H 0.41109 0.45017 0.01476 0.0
C140 C 0.42791 0.47145 0.18774 0.0
O141 O 0.44219 0.48185 0.22293 0.0
N142 N 0.45532 0.45948 0.19608 0.0
C143 C 0.47016 0.46039 0.21421 0.0
C144 C 0.47133 0.45927 0.29106 0.0
C145 C 0.44725 0.45679 0.26238 0.0
N146 N 0.45696 0.45716 0.32152 0.0
C147 C 0.47938 0.48829 0.10076 0.0
C148 C 0.46765 0.50761 0.0722 0.0
C149 C 0.48519 0.51394 0.08663 0.0
C150 C 0.49102 0.50402 0.09946 0.0
C151 C 0.4564 0.49172 0.074 0.0
N152 N 0.46223 0.48234 0.0922 0.0
H153 H 0.48429 0.48091 0.10658 0.0
H154 H 0.44298 0.48696 0.06096 0.0
H155 H 0.47951 0.46149 0.17469 0.0
H156 H 0.4343 0.45411 0.26759 0.0
O157 O 0.46136 0.45426 0.05018 0.0
O158 O 0.43487 0.43818 0.08726 0.0
O159 O 0.42787 0.46214 0.13904 0.0
C160 C 0.4485 0.44023 0.05479 0.0
H161 H 0.40807 0.45038 0.86629 0.0
H162 H 0.48208 0.46017 0.32194 0.0
H163 H 0.46262 0.51484 0.06027 0.0
H164 H 0.50455 0.50833 0.10679 0.0
Co165 Co 0.61431 0.04407 0.07061 0.0
C166 C 0.61594 0.04698 0.23721 0.0
C167 C 0.64045 0.06184 0.18913 0.0
C168 C 0.64241 0.06314 0.26655 0.0
N169 N 0.62385 0.0518 0.17088 0.0
N170 N 0.62701 0.05375 0.2968 0.0
H171 H 0.60245 0.03847 0.24152 0.0
H172 H 0.65057 0.06733 0.14913 0.0
C173 C 0.63177 0.07301 0.97844 0.0
O174 O 0.61747 0.06915 0.94155 0.0
N175 N 0.60498 0.03608 0.96911 0.0
C176 C 0.58895 0.02472 0.94871 0.0
C177 C 0.58786 0.02252 0.87162 0.0
C178 C 0.61361 0.04001 0.90399 0.0
N179 N 0.60334 0.03225 0.84332 0.0
C180 C 0.58108 0.03915 0.09326 0.0
C181 C 0.59093 0.06962 0.10079 0.0
C182 C 0.57343 0.05831 0.09939 0.0
C183 C 0.56861 0.04288 0.09809 0.0
C184 C 0.60299 0.06532 0.09616 0.0
N185 N 0.59791 0.05026 0.08651 0.0
H186 H 0.57711 0.02724 0.09489 0.0
H187 H 0.61639 0.07416 0.10037 0.0
H188 H 0.57868 0.0181 0.98645 0.0
H189 H 0.62718 0.0483 0.901 0.0
O190 O 0.60154 0.02351 0.10937 0.0
O191 O 0.62767 0.03478 0.0639 0.0
O192 O 0.632 0.06452 0.02984 0.0
C193 C 0.61499 0.02291 0.09502 0.0
H194 H 0.65441 0.06994 0.29799 0.0
H195 H 0.57641 0.01452 0.83901 0.0
H196 H 0.59527 0.08167 0.10567 0.0
H197 H 0.55528 0.03371 0.09892 0.0
Co198 Co 0.69493 0.80589 0.44401 0.0
C199 C 0.69182 0.80334 0.60883 0.0
C200 C 0.67622 0.78129 0.55355 0.0
C201 C 0.67493 0.77945 0.63073 0.0
N202 N 0.6868 0.79629 0.54017 0.0
N203 N 0.68478 0.79334 0.66552 0.0
H204 H 0.7009 0.81552 0.61679 0.0
H205 H 0.67013 0.77232 0.51041 0.0
C206 C 0.66417 0.79292 0.3417 0.0
O207 O 0.66925 0.80704 0.32335 0.0
N208 N 0.70345 0.81537 0.34655 0.0
C209 C 0.71408 0.83026 0.33051 0.0
C210 C 0.71605 0.83156 0.25357 0.0
C211 C 0.69991 0.80781 0.27902 0.0
N212 N 0.70692 0.81743 0.22081 0.0
C213 C 0.69836 0.83455 0.48515 0.0
C214 C 0.66372 0.82302 0.49736 0.0
C215 C 0.67531 0.83881 0.5052 0.0
C216 C 0.69286 0.84454 0.50189 0.0
C217 C 0.66984 0.81343 0.4824 0.0
N218 N 0.68682 0.81939 0.46976 0.0
H219 H 0.7119 0.839 0.48535 0.0
H220 H 0.66082 0.8012 0.4803 0.0
H221 H 0.72028 0.83968 0.37088 0.0
H222 H 0.69184 0.79548 0.27262 0.0
O223 O 0.71778 0.81767 0.48842 0.0
O224 O 0.70636 0.79491 0.43012 0.0
O225 O 0.67239 0.79041 0.39259 0.0
C226 C 0.71929 0.80627 0.4671 0.0
H227 H 0.66733 0.76867 0.65881 0.0
H228 H 0.72372 0.84218 0.22439 0.0
H229 H 0.65011 0.81817 0.50272 0.0
H230 H 0.70223 0.85667 0.51011 0.0
Co231 Co 0.28533 0.99378 0.45864 0.0
C232 C 0.28767 0.99332 0.62528 0.0
C233 C 0.31247 0.00609 0.5767 0.0
C234 C 0.31453 0.00721 0.65411 0.0
N235 N 0.29565 -0.00269 0.55872 0.0
N236 N 0.29893 -0.00076 0.68474 0.0
H237 H 0.2739 0.98653 0.62985 0.0
H238 H 0.32252 0.01185 0.53654 0.0
C239 C 0.30854 0.98829 0.36167 0.0
O240 O 0.29541 0.97712 0.32318 0.0
N241 N 0.27509 0.99062 0.35759 0.0
C242 C 0.25839 0.9819 0.33652 0.0
C243 C 0.25677 0.98269 0.25965 0.0
C244 C 0.28327 -0.0029 0.29323 0.0
N245 N 0.27245 0.99211 0.23221 0.0
C246 C 0.25672 0.96425 0.48964 0.0
C247 C 0.27296 0.94807 0.48494 0.0
C248 C 0.2553 0.94021 0.49564 0.0
C249 C 0.2473 0.94854 0.50003 0.0
C250 C 0.28207 0.96402 0.47682 0.0
N251 N 0.2737 0.97175 0.47386 0.0
H252 H 0.25013 0.97029 0.494 0.0
H253 H 0.29579 0.96999 0.47379 0.0
H254 H 0.24793 0.97538 0.37354 0.0
H255 H 0.29693 0.00514 0.29095 0.0
O256 O 0.26826 -0.0028 0.49842 0.0
O257 O 0.29312 0.01533 0.45464 0.0
O258 O 0.30631 0.99522 0.41635 0.0
C259 C 0.27886 0.01164 0.48662 0.0
H260 H 0.32657 0.01398 0.68527 0.0
H261 H 0.24498 0.97637 0.22636 0.0
H262 H 0.27964 0.94199 0.48356 0.0
H263 H 0.23368 0.94288 0.50915 0.0
Co264 Co 0.09111 0.39629 0.44784 0.0
C265 C 0.08922 0.39702 0.6138 0.0
C266 C 0.08047 0.41049 0.56128 0.0
C267 C 0.07915 0.41126 0.63833 0.0
N268 N 0.08684 0.40161 0.54623 0.0
N269 N 0.08467 0.4028 0.67133 0.0
H270 H 0.09394 0.38942 0.62042 0.0
H271 H 0.07702 0.416 0.51919 0.0
C272 C 0.11036 0.4266 0.36836 0.0
O273 O 0.12012 0.42272 0.33404 0.0
N274 N 0.09501 0.39077 0.34809 0.0
C275 C 0.10112 0.38176 0.33035 0.0
C276 C 0.10114 0.38038 0.25315 0.0
C277 C 0.09076 0.3942 0.28097 0.0
N278 N 0.09477 0.3883 0.22193 0.0
C279 C 0.11602 0.38975 0.50227 0.0
C280 C 0.14306 0.4197 0.52141 0.0
C281 C 0.14598 0.40777 0.5323 0.0
C282 C 0.13206 0.39263 0.52474 0.0
C283 C 0.1267 0.41628 0.49965 0.0
N284 N 0.11369 0.40146 0.48514 0.0
H285 H 0.1055 0.37799 0.49723 0.0
H286 H 0.12464 0.42564 0.49534 0.0
H287 H 0.10491 0.37614 0.36973 0.0
H288 H 0.08518 0.40116 0.2757 0.0
O289 O 0.07767 0.37475 0.47258 0.0
O290 O 0.06753 0.38781 0.41822 0.0
O291 O 0.09945 0.41778 0.41589 0.0
C292 C 0.0646 0.37491 0.44447 0.0
H293 H 0.07468 0.41774 0.66767 0.0
H294 H 0.10525 0.37375 0.22255 0.0
H295 H 0.15331 0.43156 0.52985 0.0
H296 H 0.13363 0.38302 0.53366 0.0
Co297 Co 0.70405 0.98583 0.40658 0.0
C298 C 0.70095 0.98588 0.57428 0.0
C299 C 0.69169 -0.00129 0.52005 0.0
C300 C 0.69109 0.00031 0.59709 0.0
N301 N 0.69749 0.98934 0.50542 0.0
N302 N 0.69699 0.99227 0.63117 0.0
H303 H 0.7069 0.97939 0.58337 0.0
H304 H 0.68874 0.00451 0.47758 0.0
C305 C 0.66778 0.97792 0.37902 0.0
O306 O 0.66317 0.97136 0.44473 0.0
N307 N 0.71077 0.98283 0.30844 0.0
C308 C 0.71852 0.97518 0.29162 0.0
C309 C 0.72011 0.97508 0.21437 0.0
C310 C 0.70784 0.98736 0.24174 0.0
N311 N 0.71332 0.9827 0.18295 0.0
C312 C 0.69999 0.95896 0.47244 0.0
C313 C 0.67032 0.93773 0.39427 0.0
C314 C 0.67699 0.93269 0.45049 0.0
C315 C 0.69225 0.94352 0.48843 0.0
C316 C 0.67856 0.95339 0.37997 0.0
N317 N 0.69262 0.96389 0.42232 0.0
H318 H 0.71217 0.96689 0.49964 0.0
H319 H 0.67377 0.95691 0.33366 0.0
H320 H 0.72242 0.96979 0.33245 0.0
H321 H 0.70181 0.99394 0.23656 0.0
O322 O 0.72638 0.99232 0.4493 0.0
O323 O 0.71897 0.00767 0.39813 0.0
O324 O 0.68311 0.9838 0.35725 0.0
C325 C 0.73049 0.00616 0.43344 0.0
H326 H 0.68737 0.00744 0.62566 0.0
H327 H 0.72541 0.96942 0.18377 0.0
H328 H 0.65894 0.92969 0.36129 0.0
H329 H 0.69852 0.94008 0.52866 0.0
Co330 Co 0.0959 0.79613 0.36152 0.0
C331 C 0.09707 0.79407 0.52935 0.0
C332 C 0.08951 0.77277 0.47312 0.0
C333 C 0.08856 0.77058 0.5499 0.0
N334 N 0.09528 0.78762 0.46005 0.0
N335 N 0.09326 0.784 0.58521 0.0
H336 H 0.10039 0.80569 0.53929 0.0
H337 H 0.08565 0.76397 0.42964 0.0
C338 C 0.1159 0.78073 0.33878 0.0
O339 O 0.12278 0.78467 0.40722 0.0
N340 N 0.09605 0.80419 0.26351 0.0
C341 C 0.09925 0.81825 0.24812 0.0
C342 C 0.09892 0.81952 0.1708 0.0
C343 C 0.09373 0.79707 0.19587 0.0
N344 N 0.09549 0.8062 0.13793 0.0
C345 C 0.12095 0.82493 0.43414 0.0
C346 C 0.14878 0.82859 0.35822 0.0
C347 C 0.15155 0.8392 0.41577 0.0
C348 C 0.13728 0.83746 0.45264 0.0
C349 C 0.13225 0.81636 0.34123 0.0
N350 N 0.11872 0.81398 0.38273 0.0
H351 H 0.11007 0.82423 0.46019 0.0
H352 H 0.13046 0.809 0.2935 0.0
H353 H 0.10196 0.82704 0.29012 0.0
H354 H 0.0908 0.78543 0.18938 0.0
O355 O 0.08183 0.80348 0.40014 0.0
O356 O 0.07219 0.78068 0.34521 0.0
O357 O 0.10542 0.7844 0.31474 0.0
C358 C 0.06884 0.79014 0.37801 0.0
H359 H 0.08399 0.75978 0.5773 0.0
H360 H 0.10147 0.82964 0.14128 0.0
H361 H 0.15927 0.82965 0.32639 0.0
H362 H 0.13864 0.84586 0.4943 0.0
Co363 Co 0.29271 0.39414 0.43871 0.0
C364 C 0.29544 0.39494 0.60551 0.0
C365 C 0.32007 0.40783 0.55551 0.0
C366 C 0.32239 0.40859 0.63278 0.0
N367 N 0.30319 0.39936 0.53867 0.0
N368 N 0.3069 0.40048 0.66426 0.0
H369 H 0.28171 0.38788 0.61082 0.0
H370 H 0.33002 0.41294 0.51442 0.0
C371 C 0.31085 0.42413 0.35595 0.0
O372 O 0.29693 0.42062 0.31686 0.0
N373 N 0.28244 0.38873 0.33738 0.0
C374 C 0.26571 0.3809 0.31631 0.0
C375 C 0.26428 0.37907 0.23899 0.0
C376 C 0.29088 0.39113 0.27236 0.0
N377 N 0.28011 0.38558 0.21127 0.0
C378 C 0.26068 0.38878 0.48821 0.0
C379 C 0.27001 0.41903 0.50499 0.0
C380 C 0.25304 0.40741 0.51786 0.0
C381 C 0.24856 0.39213 0.5106 0.0
C382 C 0.28182 0.41514 0.48314 0.0
N383 N 0.27686 0.40015 0.47099 0.0
H384 H 0.25685 0.3769 0.48355 0.0
H385 H 0.29494 0.42428 0.47749 0.0
H386 H 0.2551 0.37652 0.3535 0.0
H387 H 0.30467 0.39685 0.27005 0.0
O388 O 0.27987 0.37268 0.46478 0.0
O389 O 0.30551 0.38478 0.41438 0.0
O390 O 0.31052 0.41534 0.40699 0.0
C391 C 0.29284 0.3722 0.4405 0.0
H392 H 0.3346 0.41441 0.66315 0.0
H393 H 0.25244 0.37356 0.20576 0.0
H394 H 0.27416 0.431 0.51255 0.0
H395 H 0.23564 0.38275 0.52027 0.0
Co396 Co 0.32287 0.1234 0.82713 0.0
C397 C 0.32718 0.12673 0.66076 0.0
C398 C 0.34422 0.12108 0.7131 0.0
C399 C 0.34572 0.12074 0.63608 0.0
N400 N 0.33287 0.12519 0.72896 0.0
N401 N 0.33489 0.12419 0.6032 0.0
H402 H 0.31693 0.12876 0.65267 0.0
H403 H 0.35027 0.11767 0.75453 0.0
C404 C 0.36088 0.14252 0.85908 0.0
O405 O 0.36299 0.15032 0.79777 0.0
N406 N 0.31285 0.12119 0.92444 0.0
C407 C 0.2994 0.12245 0.94061 0.0
C408 C 0.29754 0.12176 0.01774 0.0
C409 C 0.31891 0.11966 0.9914 0.0
N410 N 0.30988 0.12009 0.0497 0.0
C411 C 0.31509 0.14522 0.77246 0.0
C412 C 0.33752 0.16922 0.8684 0.0
C413 C 0.32755 0.17152 0.8159 0.0
C414 C 0.31597 0.15916 0.76853 0.0
C415 C 0.336 0.155 0.87124 0.0
N416 N 0.3256 0.14346 0.82074 0.0
H417 H 0.30545 0.13571 0.73828 0.0
H418 H 0.34292 0.15327 0.91565 0.0
H419 H 0.29189 0.12429 0.89949 0.0
H420 H 0.32985 0.11846 0.99727 0.0
O421 O 0.30043 0.11099 0.7795 0.0
O422 O 0.31607 0.1022 0.82674 0.0
O423 O 0.34595 0.13202 0.87858 0.0
C424 C 0.30228 0.09944 0.79041 0.0
H425 H 0.35335 0.11724 0.60658 0.0
H426 H 0.28824 0.12305 0.04794 0.0
H427 H 0.34647 0.17829 0.90717 0.0
H428 H 0.30735 0.16009 0.72976 0.0
Co429 Co 0.93012 0.33388 0.65178 0.0
C430 C 0.93093 0.33126 0.81766 0.0
C431 C 0.95464 0.33663 0.76949 0.0
C432 C 0.9564 0.3369 0.8469 0.0
N433 N 0.93867 0.33307 0.75123 0.0
N434 N 0.94153 0.33366 0.87736 0.0
H435 H 0.91812 0.32906 0.82203 0.0
H436 H 0.9646 0.3395 0.72967 0.0
C437 C 0.94508 0.31938 0.55552 0.0
O438 O 0.93037 0.31037 0.51949 0.0
N439 N 0.92187 0.33526 0.55141 0.0
C440 C 0.9074 0.33503 0.53362 0.0
C441 C 0.90632 0.33626 0.45679 0.0
C442 C 0.92989 0.33773 0.48504 0.0
N443 N 0.9204 0.33779 0.42605 0.0
C444 C 0.8956 0.30808 0.65543 0.0
C445 C 0.90397 0.28614 0.67449 0.0
C446 C 0.88671 0.28145 0.66469 0.0
C447 C 0.88256 0.29267 0.65716 0.0
C448 C 0.91658 0.30169 0.67274 0.0
N449 N 0.91238 0.31235 0.65835 0.0
H450 H 0.89213 0.31654 0.65291 0.0
H451 H 0.92977 0.30514 0.68283 0.0
H452 H 0.89837 0.33449 0.57333 0.0
H453 H 0.94245 0.33948 0.47959 0.0
O454 O 0.91843 0.34287 0.69745 0.0
O455 O 0.94498 0.35581 0.65572 0.0
O456 O 0.94665 0.32898 0.60643 0.0
C457 C 0.93267 0.35597 0.68985 0.0
H458 H 0.96793 0.33965 0.87806 0.0
H459 H 0.89604 0.33627 0.4262 0.0
H460 H 0.90768 0.27788 0.68403 0.0
H461 H 0.86937 0.28959 0.65157 0.0
Co462 Co 0.77041 0.73297 0.69589 0.0
C463 C 0.7685 0.73086 0.52944 0.0
C464 C 0.74364 0.71772 0.57725 0.0
C465 C 0.74166 0.71694 0.49986 0.0
N466 N 0.76045 0.72637 0.59555 0.0
N467 N 0.75729 0.72526 0.46983 0.0
H468 H 0.78222 0.73833 0.52537 0.0
H469 H 0.73348 0.71284 0.61732 0.0
C470 C 0.75007 0.70395 0.78647 0.0
O471 O 0.76349 0.7068 0.82775 0.0
N472 N 0.78018 0.73982 0.79741 0.0
C473 C 0.79681 0.74879 0.81917 0.0
C474 C 0.79792 0.75096 0.89627 0.0
C475 C 0.77143 0.73727 0.86153 0.0
N476 N 0.78196 0.74359 0.92303 0.0
C477 C 0.80206 0.73548 0.66328 0.0
C478 C 0.79033 0.70457 0.66169 0.0
C479 C 0.80792 0.71519 0.65589 0.0
C480 C 0.81364 0.73081 0.65457 0.0
C481 C 0.77912 0.70978 0.66986 0.0
N482 N 0.78522 0.72513 0.67598 0.0
H483 H 0.80679 0.74756 0.66096 0.0
H484 H 0.7656 0.7014 0.67055 0.0
H485 H 0.80754 0.75369 0.7825 0.0
H486 H 0.75761 0.73083 0.86308 0.0
O487 O 0.78474 0.75365 0.66036 0.0
O488 O 0.75889 0.74395 0.707 0.0
O489 O 0.75138 0.71284 0.73385 0.0
C490 C 0.7722 0.75545 0.67706 0.0
H491 H 0.72959 0.71125 0.4684 0.0
H492 H 0.80966 0.75719 0.93005 0.0
H493 H 0.78526 0.69235 0.65945 0.0
H494 H 0.82707 0.73946 0.64896 0.0
Co495 Co 0.37772 0.33023 0.69475 0.0
C496 C 0.37477 0.32968 0.86071 0.0
C497 C 0.36017 0.33799 0.80755 0.0
C498 C 0.3591 0.33891 0.88471 0.0
N499 N 0.36993 0.33216 0.79266 0.0
N500 N 0.36836 0.33375 0.91822 0.0
H501 H 0.38308 0.32527 0.86773 0.0
H502 H 0.35472 0.34186 0.76545 0.0
C503 C 0.34628 0.31758 0.59301 0.0
O504 O 0.3498 0.3081 0.5598 0.0
N505 N 0.38581 0.32875 0.59582 0.0
C506 C 0.39551 0.32297 0.57747 0.0
C507 C 0.39799 0.3241 0.5009 0.0
C508 C 0.38323 0.33393 0.53013 0.0
N509 N 0.39012 0.33086 0.47084 0.0
C510 C 0.37876 0.30363 0.72939 0.0
C511 C 0.34382 0.2834 0.73632 0.0
C512 C 0.35481 0.27806 0.74851 0.0
C513 C 0.37248 0.28839 0.74643 0.0
C514 C 0.35069 0.29884 0.72098 0.0
N515 N 0.36793 0.30856 0.71291 0.0
H516 H 0.39241 0.31152 0.73155 0.0
H517 H 0.34209 0.30296 0.71799 0.0
H518 H 0.40064 0.3183 0.61608 0.0
H519 H 0.37624 0.33968 0.52577 0.0
O520 O 0.40023 0.33822 0.73931 0.0
O521 O 0.39089 0.35224 0.68875 0.0
O522 O 0.35582 0.3266 0.647 0.0
C523 C 0.40297 0.35172 0.72523 0.0
H524 H 0.35259 0.34363 0.91372 0.0
H525 H 0.40471 0.31985 0.46966 0.0
H526 H 0.3301 0.27581 0.74073 0.0
H527 H 0.38137 0.28472 0.75763 0.0
Co528 Co 0.77206 0.1161 0.74084 0.0
C529 C 0.76967 0.11581 0.57476 0.0
C530 C 0.74489 0.10249 0.623 0.0
C531 C 0.74288 0.10131 0.54555 0.0
N532 N 0.76166 0.11162 0.64098 0.0
N533 N 0.75849 0.10966 0.51524 0.0
H534 H 0.78344 0.12277 0.57056 0.0
H535 H 0.73485 0.09679 0.66331 0.0
C536 C 0.75031 0.12513 0.82606 0.0
O537 O 0.76386 0.13659 0.86091 0.0
N538 N 0.78234 0.12016 0.84206 0.0
C539 C 0.79907 0.12691 0.86197 0.0
C540 C 0.80069 0.12688 0.93917 0.0
C541 C 0.77402 0.11541 0.90767 0.0
N542 N 0.78494 0.11975 0.96799 0.0
C543 C 0.80174 0.1451 0.70956 0.0
C544 C 0.78541 0.16086 0.68512 0.0
C545 C 0.80328 0.16871 0.68158 0.0
C546 C 0.81138 0.16056 0.69265 0.0
C547 C 0.77621 0.14527 0.70163 0.0
N548 N 0.78449 0.13781 0.71839 0.0
H549 H 0.80821 0.13895 0.71351 0.0
H550 H 0.76242 0.13921 0.69909 0.0
H551 H 0.8095 0.13107 0.8239 0.0
H552 H 0.76023 0.109 0.91126 0.0
O553 O 0.78833 0.11119 0.70518 0.0
O554 O 0.76318 0.09456 0.75286 0.0
O555 O 0.75176 0.11639 0.77899 0.0
C556 C 0.77711 0.0971 0.7215 0.0
H557 H 0.73084 0.09474 0.51421 0.0
H558 H 0.81258 0.13144 0.97137 0.0
H559 H 0.77861 0.16663 0.6737 0.0
H560 H 0.82513 0.16608 0.68885 0.0
Co561 Co 0.95157 0.69154 0.66961 0.0
C562 C 0.95333 0.69412 0.83599 0.0
C563 C 0.97598 0.71257 0.78738 0.0
C564 C 0.97785 0.71417 0.86488 0.0
N565 N 0.96058 0.70005 0.76954 0.0
N566 N 0.96363 0.70253 0.89539 0.0
H567 H 0.94083 0.6838 0.8405 0.0
H568 H 0.98537 0.71981 0.74701 0.0
C569 C 0.95964 0.71944 0.58149 0.0
O570 O 0.94401 0.71211 0.55202 0.0
N571 N 0.94294 0.68284 0.56824 0.0
C572 C 0.92928 0.6689 0.54852 0.0
C573 C 0.92846 0.66697 0.47127 0.0
C574 C 0.95077 0.68872 0.50245 0.0
N575 N 0.94194 0.67952 0.44217 0.0
C576 C 0.91554 0.67964 0.68842 0.0
C577 C 0.9193 0.70787 0.71346 0.0
C578 C 0.90282 0.69497 0.70105 0.0
C579 C 0.90096 0.68058 0.69221 0.0
C580 C 0.93345 0.70637 0.70952 0.0
N581 N 0.9315 0.6926 0.69019 0.0
H582 H 0.91396 0.66852 0.68351 0.0
H583 H 0.94605 0.71643 0.71946 0.0
H584 H 0.92082 0.66027 0.58692 0.0
H585 H 0.96299 0.69934 0.4988 0.0
O586 O 0.94418 0.67132 0.70672 0.0
O587 O 0.96942 0.68741 0.65761 0.0
O588 O 0.96424 0.71291 0.62878 0.0
C589 C 0.95926 0.67429 0.68807 0.0
H590 H 0.98908 0.72295 0.89622 0.0
H591 H 0.91868 0.65703 0.43929 0.0
H592 H 0.92127 0.7191 0.72453 0.0
H593 H 0.88843 0.67022 0.6854 0.0
H594 H 0.05519 0.46892 0.72915 0.0
H595 H 0.98633 0.45427 0.40337 0.0
H596 H 0.00474 0.45975 0.7737 0.0
H597 H 0.0387 0.46847 0.36124 0.0
H598 H 0.99237 0.45514 0.53868 0.0
H599 H 0.04896 0.46782 0.59383 0.0
C600 C 0.0428 0.46668 0.71042 0.0
C601 C 0.03049 0.46444 0.76291 0.0
C602 C 0.00252 0.45803 0.49975 0.0
C603 C 0.02322 0.46315 0.60776 0.0
C604 C -0.00091 0.45757 0.4223 0.0
C605 C 0.01201 0.46132 0.37028 0.0
C606 C 0.01898 0.46225 0.52574 0.0
C607 C 0.02824 0.46528 0.39868 0.0
C608 C 0.03925 0.4661 0.63312 0.0
C609 C 0.0147 0.46175 0.73538 0.0
N610 N 0.03126 0.46567 0.4743 0.0
N611 N 0.01149 0.46111 0.65972 0.0
H612 H 0.63703 0.69322 0.72992 0.0
H613 H 0.59968 0.66248 0.31033 0.0
H614 H 0.58328 0.66274 0.67458 0.0
H615 H 0.65238 0.69765 0.36153 0.0
H616 H 0.59364 0.66166 0.44421 0.0
H617 H 0.6432 0.69409 0.59582 0.0
C618 C 0.62653 0.68668 0.6897 0.0
C619 C 0.6096 0.67792 0.71365 0.0
C620 C 0.60653 0.66956 0.42608 0.0
C621 C 0.61655 0.6789 0.55997 0.0
C622 C 0.60998 0.67009 0.34944 0.0
C623 C 0.62658 0.68016 0.32412 0.0
C624 C 0.61977 0.67914 0.47811 0.0
C625 C 0.63945 0.68955 0.3781 0.0
C626 C 0.63005 0.68724 0.61306 0.0
C627 C 0.59649 0.66982 0.65871 0.0
N628 N 0.63577 0.6888 0.45241 0.0
N629 N 0.60024 0.67047 0.58458 0.0
H630 H 0.45279 0.09233 0.80046 0.0
H631 H 0.41464 0.08476 0.38123 0.0
H632 H 0.39912 0.07332 0.74908 0.0
H633 H 0.46864 0.10762 0.43711 0.0
H634 H 0.40852 0.07965 0.51497 0.0
H635 H 0.4587 0.09741 0.66697 0.0
C636 C 0.44224 0.08929 0.76138 0.0
C637 C 0.42542 0.0824 0.78656 0.0
C638 C 0.42171 0.08582 0.49792 0.0
C639 C 0.4321 0.08804 0.63283 0.0
C640 C 0.42522 0.08868 0.42143 0.0
C641 C 0.4422 0.09669 0.39765 0.0
C642 C 0.43528 0.09092 0.55109 0.0
C643 C 0.45537 0.10163 0.45271 0.0
C644 C 0.44562 0.09213 0.68491 0.0
C645 C 0.41226 0.07847 0.73256 0.0
N646 N 0.45163 0.09864 0.52665 0.0
N647 N 0.41588 0.08135 0.65838 0.0
H648 H 0.0533 0.66575 0.69931 0.0
H649 H 0.09009 0.68064 0.28235 0.0
H650 H 0.10682 0.68595 0.65307 0.0
H651 H 0.03671 0.66106 0.32907 0.0
H652 H 0.09651 0.68285 0.41787 0.0
H653 H 0.04711 0.66466 0.5643 0.0
C654 C 0.0638 0.67011 0.66106 0.0
C655 C 0.08062 0.67589 0.6881 0.0
C656 C 0.08338 0.67807 0.3985 0.0
C657 C 0.07355 0.67447 0.53257 0.0
C658 C 0.07968 0.67668 0.32097 0.0
C659 C 0.0628 0.6706 0.29402 0.0
C660 C 0.07012 0.67331 0.44971 0.0
C661 C 0.04992 0.66595 0.34711 0.0
C662 C 0.06022 0.66938 0.58368 0.0
C663 C 0.09363 0.68118 0.63513 0.0
N664 N 0.05384 0.66738 0.42228 0.0
N665 N 0.08981 0.6803 0.56005 0.0
H666 H 0.47099 0.44995 0.43814 0.0
H667 H 0.41941 0.46465 0.75233 0.0
H668 H 0.43491 0.46362 0.38755 0.0
H669 H 0.4595 0.45612 0.80581 0.0
H670 H 0.42426 0.4634 0.61811 0.0
H671 H 0.4662 0.45109 0.5725 0.0
C672 C 0.46206 0.45319 0.455 0.0
C673 C 0.45338 0.45672 0.40088 0.0
C674 C 0.43206 0.46185 0.6591 0.0
C675 C 0.44776 0.45796 0.55522 0.0
C676 C 0.42926 0.46254 0.73576 0.0
C677 C 0.43907 0.4605 0.79041 0.0
C678 C 0.44471 0.45901 0.63655 0.0
C679 C 0.45179 0.45795 0.76571 0.0
C680 C 0.45931 0.4538 0.53192 0.0
C681 C 0.44176 0.4606 0.42665 0.0
N682 N 0.45419 0.45721 0.69059 0.0
N683 N 0.43933 0.46114 0.50178 0.0
H684 H 0.58717 0.0121 0.7251 0.0
H685 H 0.64466 0.07302 0.41562 0.0
H686 H 0.62892 0.05812 0.78029 0.0
H687 H 0.60172 0.02764 0.35958 0.0
H688 H 0.63958 0.06749 0.54942 0.0
H689 H 0.59289 0.01725 0.59136 0.0
C690 C 0.59755 0.02329 0.70929 0.0
C691 C 0.6075 0.03471 0.76447 0.0
C692 C 0.63125 0.05874 0.50792 0.0
C693 C 0.61418 0.04068 0.61078 0.0
C694 C 0.63418 0.06187 0.43138 0.0
C695 C 0.62362 0.05078 0.37599 0.0
C696 C 0.61766 0.04438 0.52967 0.0
C697 C 0.61006 0.03661 0.40005 0.0
C698 C 0.60084 0.02621 0.63273 0.0
C699 C 0.62099 0.04891 0.74017 0.0
N700 N 0.6075 0.03381 0.47501 0.0
N701 N 0.62387 0.0515 0.66526 0.0
H702 H 0.69604 0.82078 0.73753 0.0
H703 H 0.69431 0.78933 0.15132 0.0
H704 H 0.6803 0.77383 0.77874 0.0
H705 H 0.71237 0.83663 0.10499 0.0
H706 H 0.68848 0.78318 0.01633 0.0
H707 H 0.70163 0.82654 0.87253 0.0
C708 C 0.69383 0.81167 0.77466 0.0
C709 C 0.68774 0.79678 0.74593 0.0
C710 C 0.69379 0.79492 0.03584 0.0
C711 C 0.69398 0.80332 0.90198 0.0
C712 C 0.6971 0.79846 0.11327 0.0
C713 C 0.70398 0.8136 0.14061 0.0
C714 C 0.69734 0.80656 0.9849 0.0
C715 C 0.70736 0.82487 0.08745 0.0
C716 C 0.69695 0.81496 0.85213 0.0
C717 C 0.68482 0.78543 0.79782 0.0
N718 N 0.704 0.82112 0.0126 0.0
N719 N 0.68799 0.78894 0.8731 0.0
H720 H 0.31978 0.00231 0.80321 0.0
H721 H 0.25208 0.99048 0.11474 0.0
H722 H 0.26975 0.99427 0.74869 0.0
H723 H 0.3025 -0.00059 0.1688 0.0
H724 H 0.25854 0.99244 0.98079 0.0
H725 H 0.31385 0.00174 0.93716 0.0
C726 C 0.30755 0.00048 0.81925 0.0
C727 C 0.29526 -0.00165 0.76416 0.0
C728 C 0.26822 0.99404 0.02193 0.0
C729 C 0.28832 -0.00242 0.91825 0.0
C730 C 0.26453 0.99288 0.09857 0.0
C731 C 0.27671 0.99469 0.15347 0.0
C732 C 0.28423 -0.00303 0.99957 0.0
C733 C 0.29274 -0.00195 0.12885 0.0
C734 C 0.30415 0.0001 0.89595 0.0
C735 C 0.27954 -0.00423 0.78879 0.0
N736 N 0.29598 -0.00102 0.05383 0.0
N737 N 0.27654 0.99548 0.86389 0.0
H738 H 0.06617 0.40521 0.78282 0.0
H739 H 0.11287 0.38601 0.10875 0.0
H740 H 0.1056 0.39538 0.74324 0.0
H741 H 0.07337 0.39558 0.15213 0.0
H742 H 0.11012 0.38931 0.97473 0.0
H743 H 0.06853 0.40185 0.91782 0.0
C744 C 0.07538 0.40241 0.80235 0.0
C745 C 0.08571 0.4006 0.75117 0.0
C746 C 0.10202 0.39067 0.01342 0.0
C747 C 0.08837 0.39659 0.90607 0.0
C748 C 0.1035 0.38868 0.09024 0.0
C749 C 0.09324 0.39038 0.14229 0.0
C750 C 0.0902 0.39443 0.98778 0.0
C751 C 0.08162 0.39424 0.11445 0.0
C752 C 0.07665 0.40042 0.87955 0.0
C753 C 0.09721 0.39672 0.78007 0.0
N754 N 0.0804 0.3961 0.03913 0.0
N755 N 0.09824 0.39488 0.85541 0.0
H756 H 0.73216 0.9818 0.06853 0.0
H757 H 0.67973 0.99546 0.74566 0.0
H758 H 0.69046 0.9883 0.11401 0.0
H759 H 0.72021 0.98727 0.70092 0.0
H760 H 0.68408 0.99379 0.88094 0.0
H761 H 0.72842 0.98445 0.93411 0.0
C762 C 0.72218 0.98373 0.0505 0.0
C763 C 0.71159 0.98476 0.1033 0.0
C764 C 0.69201 0.99235 0.8415 0.0
C765 C 0.70732 0.98796 0.94854 0.0
C766 C 0.68959 0.99338 0.76414 0.0
C767 C 0.69954 0.99143 0.71137 0.0
C768 C 0.70453 0.98939 0.86667 0.0
C769 C 0.712 0.98859 0.73899 0.0
C770 C 0.7201 0.98532 0.9735 0.0
C771 C 0.69906 0.98756 0.07599 0.0
N772 N 0.71413 0.98766 0.8145 0.0
N773 N 0.69726 0.98902 1.00069 0.0
H774 H 0.09734 0.76878 0.70004 0.0
H775 H 0.08875 0.81964 0.02242 0.0
H776 H 0.08903 0.80557 0.65457 0.0
H777 H 0.10019 0.78479 0.06941 0.0
H778 H 0.08801 0.8141 0.88769 0.0
H779 H 0.09738 0.77376 0.83546 0.0
C780 C 0.09545 0.77786 0.71838 0.0
C781 C 0.09325 0.78679 0.66543 0.0
C782 C 0.09067 0.80764 0.92745 0.0
C783 C 0.09338 0.79264 0.82083 0.0
C784 C 0.09117 0.81086 1.00464 0.0
C785 C 0.09458 0.80272 0.05793 0.0
C786 C 0.09358 0.79618 0.9028 0.0
C787 C 0.09732 0.79127 0.03091 0.0
C788 C 0.09556 0.78075 0.79582 0.0
C789 C 0.09105 0.79853 0.69288 0.0
N790 N 0.09679 0.78837 0.9554 0.0
N791 N 0.09116 0.80109 0.76845 0.0
H792 H 0.32728 0.41853 0.78214 0.0
H793 H 0.26052 0.36672 0.09424 0.0
H794 H 0.2786 0.3772 0.7293 0.0
H795 H 0.30954 0.40757 0.14792 0.0
H796 H 0.26721 0.37009 0.96065 0.0
H797 H 0.32134 0.41441 0.91615 0.0
C798 C 0.31538 0.40853 0.7985 0.0
C799 C 0.30344 0.3982 0.74383 0.0
C800 C 0.27654 0.3783 1.0016 0.0
C801 C 0.29646 0.39349 0.89798 0.0
C802 C 0.27269 0.37642 0.07802 0.0
C803 C 0.28443 0.38692 0.13264 0.0
C804 C 0.29225 0.39083 0.97918 0.0
C805 C 0.30015 0.39912 0.10807 0.0
C806 C 0.31196 0.40623 0.87526 0.0
C807 C 0.28811 0.38559 0.76897 0.0
N808 N 0.30356 0.40077 0.0332 0.0
N809 N 0.28507 0.3836 0.84407 0.0
H810 H 0.30473 0.11731 0.53577 0.0
H811 H 0.34028 0.12769 0.11771 0.0
H812 H 0.35615 0.12944 0.48772 0.0
H813 H 0.28793 0.11272 0.16518 0.0
H814 H 0.34632 0.12842 0.25263 0.0
H815 H 0.29849 0.11603 0.40048 0.0
C816 C 0.31478 0.11985 0.49691 0.0
C817 C 0.33104 0.12358 0.5234 0.0
C818 C 0.3335 0.12494 0.23354 0.0
C819 C 0.32389 0.12192 0.36784 0.0
C820 C 0.32998 0.12441 0.15618 0.0
C821 C 0.31353 0.12012 0.12944 0.0
C822 C 0.3205 0.12119 0.28501 0.0
C823 C 0.30085 0.11628 0.18283 0.0
C824 C 0.31115 0.11899 0.41947 0.0
C825 C 0.3434 0.12641 0.46994 0.0
N826 N 0.30461 0.11693 0.25789 0.0
N827 N 0.33959 0.12556 0.39484 0.0
H828 H 0.95143 0.34949 0.36117 0.0
H829 H 0.91057 0.32062 0.94406 0.0
H830 H 0.89728 0.32646 0.30838 0.0
H831 H 0.96498 0.34801 0.99325 0.0
H832 H 0.90544 0.32216 0.07761 0.0
H833 H 0.95664 0.3485 0.22714 0.0
C834 C 0.94062 0.34424 0.32164 0.0
C835 C 0.92387 0.33808 0.34659 0.0
C836 C 0.9185 0.32783 0.05909 0.0
C837 C 0.92978 0.33692 0.19244 0.0
C838 C 0.92146 0.327 0.98257 0.0
C839 C 0.93825 0.33416 0.95663 0.0
C840 C 0.93243 0.33586 0.11052 0.0
C841 C 0.95181 0.34208 0.01009 0.0
C842 C 0.94362 0.34373 0.24489 0.0
C843 C 0.91042 0.33156 0.29208 0.0
N844 N 0.94859 0.3427 0.08422 0.0
N845 N 0.91366 0.33111 0.21785 0.0
H846 H 0.75304 0.72022 0.98317 0.0
H847 H 0.78488 0.75005 0.40946 0.0
H848 H 0.80042 0.76232 0.04266 0.0
H849 H 0.73802 0.70754 0.34934 0.0
H850 H 0.79048 0.7551 0.27547 0.0
H851 H 0.74665 0.71604 0.11684 0.0
C852 C 0.76202 0.72869 0.02413 0.0
C853 C 0.77736 0.74162 1.00133 0.0
C854 C 0.77896 0.74467 0.2916 0.0
C855 C 0.77021 0.73677 0.15508 0.0
C856 C 0.77582 0.74171 0.36823 0.0
C857 C 0.76097 0.72831 0.39095 0.0
C858 C 0.76718 0.73414 0.23709 0.0
C859 C 0.74954 0.71809 0.33464 0.0
C860 C 0.75842 0.72623 0.10066 0.0
C861 C 0.78858 0.75208 0.05746 0.0
N862 N 0.7529 0.7212 0.26047 0.0
N863 N 0.78482 0.7494 0.13161 0.0
H864 H 0.34864 0.33287 0.03304 0.0
H865 H 0.41063 0.33296 0.35675 0.0
H866 H 0.39545 0.33444 0.98788 0.0
H867 H 0.36482 0.33312 0.40206 0.0
H868 H 0.40556 0.33396 0.22187 0.0
H869 H 0.35455 0.33331 0.16816 0.0
C870 C 0.3602 0.33337 0.05132 0.0
C871 C 0.37154 0.33361 0.99843 0.0
C872 C 0.39663 0.33382 0.2613 0.0
C873 C 0.37835 0.334 0.15399 0.0
C874 C 0.39949 0.3332 0.33855 0.0
C875 C 0.38806 0.33281 0.39138 0.0
C876 C 0.38219 0.33402 0.23612 0.0
C877 C 0.37403 0.33346 0.36392 0.0
C878 C 0.36355 0.33357 0.12873 0.0
C879 C 0.3862 0.33402 0.02608 0.0
N880 N 0.37145 0.33393 0.28836 0.0
N881 N 0.38917 0.33421 0.10176 0.0
H882 H 0.78695 0.13256 0.45008 0.0
H883 H 0.75534 0.0977 0.03032 0.0
H884 H 0.73906 0.0903 0.39873 0.0
H885 H 0.80507 0.13754 0.08635 0.0
H886 H 0.74866 0.09514 0.16433 0.0
H887 H 0.79346 0.13481 0.31642 0.0
C888 C 0.77783 0.1237 0.41095 0.0
C889 C 0.76242 0.11121 0.43614 0.0
C890 C 0.76105 0.10441 0.14723 0.0
C891 C 0.76974 0.11382 0.28228 0.0
C892 C 0.76484 0.10593 0.07062 0.0
C893 C 0.78083 0.11783 0.04683 0.0
C894 C 0.77329 0.11493 0.20045 0.0
C895 C 0.7927 0.12805 0.10195 0.0
C896 C 0.78152 0.12504 0.3344 0.0
C897 C 0.75099 0.10024 0.38215 0.0
N898 N 0.78868 0.12638 0.17597 0.0
N899 N 0.75488 0.1018 0.30788 0.0
H900 H 0.93118 0.65881 0.32475 0.0
H901 H 0.97701 0.72306 0.0133 0.0
H902 H 0.96126 0.70737 0.37803 0.0
H903 H 0.94335 0.67484 0.9593 0.0
H904 H 0.97232 0.71749 0.14735 0.0
H905 H 0.93641 0.6644 0.19122 0.0
C906 C 0.93886 0.67065 0.30862 0.0
C907 C 0.94573 0.68262 0.36325 0.0
C908 C 0.96594 0.70812 0.1062 0.0
C909 C 0.95189 0.68912 0.20964 0.0
C910 C 0.96868 0.71129 0.02955 0.0
C911 C 0.96058 0.69941 0.97468 0.0
C912 C 0.95507 0.69293 0.12851 0.0
C913 C 0.9497 0.68439 0.99932 0.0
C914 C 0.94189 0.67384 0.23213 0.0
C915 C 0.95584 0.69774 0.33842 0.0
N916 N 0.94731 0.68158 0.07431 0.0
N917 N 0.95857 0.70055 0.26357 0.0
H918 H 0.04393 0.59797 0.93569 0.0
H919 H 0.07333 0.54315 0.10203 0.0
H920 H 0.0859 0.61379 0.09742 0.0
H921 H 0.03141 0.52874 0.94191 0.0
H922 H 0.08042 0.56974 0.09215 0.0
H923 H 0.04098 0.57301 0.93015 0.0
C924 C 0.05247 0.59614 0.97043 0.0
C925 C 0.06503 0.6079 0.01782 0.0
C926 C 0.06979 0.56076 0.05862 0.0
C927 C 0.06187 0.57933 0.01119 0.0
C928 C 0.06584 0.54566 0.0639 0.0
C929 C 0.05165 0.53381 0.02347 0.0
C930 C 0.05948 0.56391 0.01241 0.0
C931 C 0.04228 0.53755 0.97499 0.0
C932 C 0.05088 0.58192 0.9668 0.0
C933 C 0.07604 0.60502 0.06012 0.0
N934 N 0.04627 0.55224 0.9713 0.0
N935 N 0.07413 0.59095 0.05626 0.0
H936 H 0.48604 0.5349 0.98929 0.0
H937 H 0.57472 0.60473 0.16182 0.0
H938 H 0.51264 0.53117 0.18296 0.0
H939 H 0.54623 0.60911 0.97829 0.0
H940 H 0.55214 0.57767 0.17032 0.0
H941 H 0.50772 0.56226 0.98575 0.0
C942 C 0.49633 0.53986 0.03154 0.0
C943 C 0.49758 0.53072 0.08622 0.0
C944 C 0.55082 0.58457 0.12831 0.0
C945 C 0.52258 0.56196 0.08186 0.0
C946 C 0.56375 0.59998 0.12314 0.0
C947 C 0.56233 0.60917 0.06937 0.0
C948 C 0.53641 0.57832 0.07906 0.0
C949 C 0.54774 0.60248 0.02125 0.0
C950 C 0.50878 0.55547 0.0292 0.0
C951 C 0.51134 0.53774 0.139 0.0
N952 N 0.53537 0.58746 0.02714 0.0
N953 N 0.52333 0.55292 0.13532 0.0
H954 H 0.54329 0.04496 0.17476 0.0
H955 H 0.51123 0.09623 0.98586 0.0
H956 H 0.57338 0.08095 0.01939 0.0
H957 H 0.48014 0.05751 0.12571 0.0
H958 H 0.53468 0.09168 1.00111 0.0
H959 H 0.5206 0.0504 0.16206 0.0
C960 C 0.54513 0.05402 0.13796 0.0
C961 C 0.56022 0.06243 0.09764 0.0
C962 C 0.5227 0.08416 0.02822 0.0
C963 C 0.53428 0.0688 0.08307 0.0
C964 C 0.50933 0.08678 0.01968 0.0
C965 C 0.49367 0.0772 0.05432 0.0
C966 C 0.52042 0.07195 0.0721 0.0
C967 C 0.49188 0.06503 0.09696 0.0
C968 C 0.53218 0.05715 0.13085 0.0
C969 C 0.56202 0.07425 0.05199 0.0
N970 N 0.50509 0.06279 0.10477 0.0
N971 N 0.54917 0.07704 0.04565 0.0
H972 H 0.68445 0.8612 0.61292 0.0
H973 H 0.66305 0.90842 0.34861 0.0
H974 H 0.65281 0.84069 0.41177 0.0
H975 H 0.67343 0.91939 0.58711 0.0
H976 H 0.65631 0.8825 0.37295 0.0
H977 H 0.67833 0.88165 0.60934 0.0
C978 C 0.67594 0.8609 0.5689 0.0
C979 C 0.66924 0.84944 0.51215 0.0
C980 C 0.65968 0.89048 0.42018 0.0
C981 C 0.66246 0.8728 0.50659 0.0
C982 C 0.66347 0.90528 0.40633 0.0
C983 C 0.66925 0.9162 0.46571 0.0
C984 C 0.66196 0.88672 0.49356 0.0
C985 C 0.66959 0.91146 0.53935 0.0
C986 C 0.67238 0.87249 0.56693 0.0
C987 C 0.65822 0.84941 0.45641 0.0
N988 N 0.6664 0.89717 0.55102 0.0
N989 N 0.65546 0.86114 0.45396 0.0
H990 H 0.16528 0.85227 0.55545 0.0
H991 H 0.25262 0.91969 0.3891 0.0
H992 H 0.17795 0.85607 0.31996 0.0
H993 H 0.2332 0.92269 0.60387 0.0
H994 H 0.22922 0.89277 0.37573 0.0
H995 H 0.19358 0.8749 0.58446 0.0
C996 C 0.17399 0.85781 0.50984 0.0
C997 C 0.16909 0.85233 0.43497 0.0
C998 C 0.23031 0.89923 0.42656 0.0
C999 C 0.20162 0.87801 0.46818 0.0
C1000 C 0.24375 0.9145 0.43453 0.0
C1001 C 0.24465 0.92334 0.4973 0.0
C1002 C 0.21783 0.89286 0.48195 0.0
C1003 C 0.23278 0.9162 0.55434 0.0
C1004 C 0.19019 0.87064 0.5266 0.0
C1005 C 0.18113 0.85976 0.37857 0.0
N1006 N 0.2197 0.90141 0.54489 0.0
N1007 N 0.19677 0.87228 0.39627 0.0
H1008 H 0.24799 0.42901 0.4548 0.0
H1009 H 0.156 0.39374 0.63303 0.0
H1010 H 0.22781 0.39383 0.62157 0.0
H1011 H 0.17574 0.4288 0.46569 0.0
H1012 H 0.18395 0.3964 0.64325 0.0
H1013 H 0.22362 0.43204 0.47227 0.0
C1014 C 0.2386 0.42212 0.4961 0.0
C1015 C 0.2398 0.41098 0.53595 0.0
C1016 C 0.18225 0.40366 0.60491 0.0
C1017 C 0.21176 0.41423 0.55546 0.0
C1018 C 0.16628 0.4021 0.59891 0.0
C1019 C 0.16347 0.41091 0.54766 0.0
C1020 C 0.19552 0.41401 0.55885 0.0
C1021 C 0.17734 0.42178 0.50597 0.0
C1022 C 0.22463 0.42378 0.50571 0.0
C1023 C 0.22719 0.40231 0.58838 0.0
N1024 N 0.1927 0.42288 0.51171 0.0
N1025 N 0.21362 0.404 0.59601 0.0
H1026 H 0.33117 0.25307 0.66483 0.0
H1027 H 0.33399 0.19241 0.93067 0.0
H1028 H 0.36319 0.26633 0.86669 0.0
H1029 H 0.3247 0.18524 0.6893 0.0
H1030 H 0.33858 0.21797 0.91862 0.0
H1031 H 0.32211 0.22623 0.68501 0.0
C1032 C 0.33607 0.25026 0.7139 0.0
C1033 C 0.348 0.26181 0.76396 0.0
C1034 C 0.33542 0.2107 0.86857 0.0
C1035 C 0.33772 0.23141 0.78744 0.0
C1036 C 0.33294 0.19615 0.87514 0.0
C1037 C 0.32916 0.18665 0.81073 0.0
C1038 C 0.33386 0.21569 0.79737 0.0
C1039 C 0.32741 0.19203 0.74069 0.0
C1040 C 0.331 0.23503 0.72512 0.0
C1041 C 0.3541 0.25769 0.82654 0.0
N1042 N 0.3298 0.20621 0.73587 0.0
N1043 N 0.34888 0.24278 0.83658 0.0
H1044 H 0.85551 0.26727 0.73188 0.0
H1045 H 0.83002 0.18357 0.58671 0.0
H1046 H 0.88707 0.25816 0.59088 0.0
H1047 H 0.80013 0.19159 0.7439 0.0
H1048 H 0.84932 0.2112 0.57624 0.0
H1049 H 0.8335 0.23989 0.72672 0.0
C1050 C 0.85776 0.25952 0.69948 0.0
C1051 C 0.87318 0.26496 0.66215 0.0
C1052 C 0.83849 0.20695 0.61268 0.0
C1053 C 0.84813 0.2337 0.65617 0.0
C1054 C 0.82748 0.19118 0.61874 0.0
C1055 C 0.81361 0.18532 0.66707 0.0
C1056 C 0.83565 0.21696 0.65545 0.0
C1057 C 0.81068 0.19566 0.70598 0.0
C1058 C 0.84522 0.2439 0.69674 0.0
C1059 C 0.87549 0.25442 0.62154 0.0
N1060 N 0.82173 0.21102 0.69993 0.0
N1061 N 0.86312 0.23929 0.61976 0.0
H1062 H 0.836 0.72624 0.56779 0.0
H1063 H 0.8707 0.6772 0.75959 0.0
H1064 H 0.80842 0.69298 0.73836 0.0
H1065 H 0.9009 0.71663 0.62257 0.0
H1066 H 0.84633 0.68053 0.74229 0.0
H1067 H 0.85836 0.72032 0.57566 0.0
C1068 C 0.83462 0.71764 0.60677 0.0
C1069 C 0.82042 0.71024 0.65322 0.0
C1070 C 0.85831 0.68844 0.71613 0.0
C1071 C 0.84601 0.70335 0.66238 0.0
C1072 C 0.87218 0.68652 0.72584 0.0
C1073 C 0.88789 0.69675 0.69309 0.0
C1074 C 0.86014 0.70054 0.67266 0.0
C1075 C 0.88914 0.70865 0.65003 0.0
C1076 C 0.84739 0.71425 0.61119 0.0
C1077 C 0.81913 0.69893 0.70136 0.0
N1078 N 0.87547 0.7102 0.64106 0.0
N1079 N 0.83184 0.6959 0.70516 0.0
H1080 H 0.10192 0.4438 0.45261 0.0
H1081 H 0.07332 0.48773 0.29675 0.0
H1082 H 0.11599 0.4389 0.22807 0.0
H1083 H 0.06734 0.4608 0.09652 0.0
H1084 H 0.093 0.48086 0.3507 0.0
H1085 H 0.09319 0.46085 0.40506 0.0
C1086 C 0.10369 0.44675 0.39359 0.0
C1087 C 0.10959 0.43989 0.34405 0.0
C1088 C 0.08738 0.47646 0.29497 0.0
C1089 C 0.09956 0.45939 0.28877 0.0
C1090 C 0.07627 0.48051 0.26384 0.0
C1091 C 0.06838 0.47454 0.19273 0.0
C1092 C 0.09055 0.46638 0.25453 0.0
C1093 C 0.07282 0.46537 0.15223 0.0
C1094 C 0.09879 0.45658 0.36641 0.0
C1095 C 0.11157 0.44401 0.26814 0.0
N1096 N 0.08349 0.46148 0.18394 0.0
N1097 N 0.10615 0.45321 0.2424 0.0
H1098 H 0.65786 0.79383 0.19167 0.0
H1099 H 0.64097 0.72871 0.99437 0.0
H1100 H 0.64335 0.76287 0.37705 0.0
H1101 H 0.60067 0.70359 0.15157 0.0
H1102 H 0.64797 0.75266 0.0584 0.0
H1103 H 0.64248 0.77175 0.10407 0.0
C1104 C 0.65104 0.7824 0.21412 0.0
C1105 C 0.65196 0.78009 0.29152 0.0
C1106 C 0.63721 0.74195 0.07725 0.0
C1107 C 0.63467 0.75497 0.19198 0.0
C1108 C 0.63331 0.72829 0.04108 0.0
C1109 C 0.62031 0.71421 0.06811 0.0
C1110 C 0.62825 0.74141 0.14166 0.0
C1111 C 0.61079 0.71424 0.12897 0.0
C1112 C 0.64246 0.76984 0.16403 0.0
C1113 C 0.64305 0.76507 0.31762 0.0
N1114 N 0.61525 0.72764 0.16507 0.0
N1115 N 0.63482 0.75304 0.26777 0.0
H1116 H 0.41884 0.04414 0.30645 0.0
H1117 H 0.33779 0.00345 0.44859 0.0
H1118 H 0.3914 0.04173 0.10149 0.0
H1119 H 0.31949 0.98693 0.22062 0.0
H1120 H 0.36702 0.01743 0.40508 0.0
H1121 H 0.39226 0.02273 0.35492 0.0
C1122 C 0.40728 0.03898 0.27129 0.0
C1123 C 0.40723 0.04493 0.20059 0.0
C1124 C 0.35674 0.01037 0.3647 0.0
C1125 C 0.37674 0.02078 0.25625 0.0
C1126 C 0.33998 0.0025 0.3895 0.0
C1127 C 0.3262 0.99416 0.33797 0.0
C1128 C 0.35975 0.01005 0.28747 0.0
C1129 C 0.32976 0.99324 0.26217 0.0
C1130 C 0.39206 0.02688 0.29934 0.0
C1131 C 0.39193 0.03772 0.15706 0.0
N1132 N 0.34619 0.0014 0.23887 0.0
N1133 N 0.37727 0.02613 0.18588 0.0
H1134 H 0.41005 0.11458 0.15906 0.0
H1135 H 0.393 0.15228 0.80871 0.0
H1136 H 0.44068 0.12811 0.9607 0.0
H1137 H 0.36243 0.13683 0.00728 0.0
H1138 H 0.41499 0.14973 0.87487 0.0
H1139 H 0.39742 0.12907 0.11743 0.0
C1140 C 0.41436 0.1209 0.10737 0.0
C1141 C 0.42619 0.12001 0.06259 0.0
C1142 C 0.40363 0.14722 0.90446 0.0
C1143 C 0.41143 0.13623 0.0131 0.0
C1144 C 0.39112 0.14873 0.86684 0.0
C1145 C 0.37575 0.14443 0.9022 0.0
C1146 C 0.40067 0.14141 0.97774 0.0
C1147 C 0.37394 0.13992 0.97745 0.0
C1148 C 0.40713 0.12915 0.08342 0.0
C1149 C 0.43151 0.12851 0.99656 0.0
N1150 N 0.38613 0.13834 0.01231 0.0
N1151 N 0.42377 0.136 0.97273 0.0
H1152 H 0.97962 0.44623 0.90583 0.0
H1153 H 0.95279 0.38574 0.6496 0.0
H1154 H 0.98189 0.41335 0.04695 0.0
H1155 H 0.9217 0.35722 0.82906 0.0
H1156 H 0.96429 0.40823 0.73491 0.0
H1157 H 0.95917 0.42523 0.82084 0.0
C1158 C 0.97547 0.43455 0.92004 0.0
C1159 C 0.98255 0.43147 0.98306 0.0
C1160 C 0.95453 0.39711 0.75472 0.0
C1161 C 0.95926 0.4076 0.88646 0.0
C1162 C 0.948 0.38433 0.70622 0.0
C1163 C 0.93623 0.36973 0.73246 0.0
C1164 C 0.94962 0.3951 0.83032 0.0
C1165 C 0.93061 0.36836 0.80665 0.0
C1166 C 0.96392 0.42265 0.87126 0.0
C1167 C 0.97683 0.41618 0.99851 0.0
N1168 N 0.93776 0.38087 0.85394 0.0
N1169 N 0.96551 0.40475 0.95016 0.0
H1170 H 0.72252 0.68786 0.69108 0.0
H1171 H 0.6393 0.65027 0.80888 0.0
H1172 H 0.73793 0.69264 0.92599 0.0
H1173 H 0.66322 0.67605 0.01583 0.0
H1174 H 0.66701 0.65466 0.77136 0.0
H1175 H 0.6927 0.67275 0.72585 0.0
C1176 C 0.71958 0.68532 0.75 0.0
C1177 C 0.73267 0.69164 0.80587 0.0
C1178 C 0.66621 0.65938 0.8249 0.0
C1179 C 0.69844 0.67426 0.84655 0.0
C1180 C 0.65034 0.65673 0.84665 0.0
C1181 C 0.64906 0.66315 0.91461 0.0
C1182 C 0.68083 0.66854 0.87156 0.0
C1183 C 0.66372 0.67125 0.96196 0.0
C1184 C 0.70249 0.67656 0.76991 0.0
C1185 C 0.7282 0.68798 0.88123 0.0
N1186 N 0.679 0.67383 0.93922 0.0
N1187 N 0.71142 0.67984 0.89957 0.0
H1188 H 0.01473 0.65099 0.9679 0.0
H1189 H 0.98136 0.66983 0.60952 0.0
H1190 H 0.02678 0.64194 0.74685 0.0
H1191 H 0.95212 0.65658 0.81204 0.0
H1192 H -0.00325 0.65794 0.65557 0.0
H1193 H 0.99037 0.65122 0.91233 0.0
C1194 C 0.01202 0.64876 0.90778 0.0
C1195 C 0.02289 0.64669 0.86161 0.0
C1196 C 0.98667 0.65726 0.68915 0.0
C1197 C 0.99531 0.64723 0.79755 0.0
C1198 C 0.97792 0.66407 0.66296 0.0
C1199 C 0.96557 0.66422 0.7074 0.0
C1200 C 0.9834 0.65101 0.76134 0.0
C1201 C 0.96155 0.65664 0.77615 0.0
C1202 C -0.00191 0.64883 0.87614 0.0
C1203 C 0.01876 0.6437 0.78425 0.0
N1204 N 0.97076 0.65065 0.80202 0.0
N1205 N 0.00552 0.64445 0.75424 0.0
H1206 H 0.46682 0.44255 0.93164 0.0
H1207 H 0.41842 0.38144 0.68167 0.0
H1208 H 0.42901 0.40949 0.07996 0.0
H1209 H 0.41811 0.35317 0.86032 0.0
H1210 H 0.43567 0.40417 0.76386 0.0
H1211 H 0.46155 0.42153 0.84552 0.0
C1212 C 0.45777 0.43084 0.94716 0.0
C1213 C 0.44818 0.42768 0.01251 0.0
C1214 C 0.43235 0.39304 0.78397 0.0
C1215 C 0.44219 0.40381 0.91477 0.0
C1216 C 0.42249 0.3801 0.73724 0.0
C1217 C 0.41693 0.36549 0.76438 0.0
C1218 C 0.43613 0.3912 0.85876 0.0
C1219 C 0.42231 0.36428 0.83715 0.0
C1220 C 0.45471 0.41893 0.89775 0.0
C1221 C 0.43653 0.41236 0.02971 0.0
N1222 N 0.43118 0.37695 0.88284 0.0
N1223 N 0.43379 0.40094 0.98077 0.0
H1224 H 0.72215 0.11063 0.73252 0.0
H1225 H 0.64012 0.08566 0.83833 0.0
H1226 H 0.73903 0.13196 0.95411 0.0
H1227 H 0.66134 0.08939 0.06228 0.0
H1228 H 0.66914 0.10268 0.79336 0.0
H1229 H 0.69282 0.10203 0.76319 0.0
C1230 C 0.71968 0.11373 0.78734 0.0
C1231 C 0.733 0.12187 0.84122 0.0
C1232 C 0.66744 0.09981 0.85238 0.0
C1233 C 0.69935 0.11227 0.87657 0.0
C1234 C 0.65086 0.09027 0.87823 0.0
C1235 C 0.6484 0.08582 0.95368 0.0
C1236 C 0.68156 0.10485 0.90253 0.0
C1237 C 0.66273 0.09223 1.00319 0.0
C1238 C 0.7029 0.10899 0.80452 0.0
C1239 C 0.72911 0.12569 0.91104 0.0
N1240 N 0.67871 0.10128 0.9766 0.0
N1241 N 0.71256 0.12057 0.92732 0.0
H1242 H 0.6691 0.98092 0.22693 0.0
H1243 H 0.59895 0.00389 0.21229 0.0
H1244 H 0.63848 0.97712 0.41665 0.0
H1245 H 0.63624 0.01428 0.0421 0.0
H1246 H 0.60776 0.98785 0.27474 0.0
H1247 H 0.65165 0.98675 0.1467 0.0
C1248 C 0.65858 0.98119 0.25157 0.0
C1249 C 0.65547 0.97891 0.32889 0.0
C1250 C 0.61373 0.99337 0.22282 0.0
C1251 C 0.63546 0.98569 0.23734 0.0
C1252 C 0.60863 0.00242 0.18689 0.0
C1253 C 0.61706 0.01052 0.12258 0.0
C1254 C 0.62724 0.99242 0.19366 0.0
C1255 C 0.62959 0.00836 0.09218 0.0
C1256 C 0.64858 0.98448 0.20565 0.0
C1257 C 0.6414 0.97898 0.35742 0.0
N1258 N 0.63443 -0.00036 0.12845 0.0
N1259 N 0.63206 0.98263 0.31183 0.0
H1260 H 0.09258 0.72098 0.9711 0.0
H1261 H 0.12116 0.78501 0.18917 0.0
H1262 H 0.11313 0.7048 0.14054 0.0
H1263 H 0.12025 0.75694 0.36999 0.0
H1264 H 0.12237 0.76768 0.09821 0.0
H1265 H 0.10512 0.74523 0.03992 0.0
C1266 C 0.10024 0.72277 0.02178 0.0
C1267 C 0.10173 0.71088 0.05055 0.0
C1268 C 0.12181 0.76517 0.15755 0.0
C1269 C 0.11634 0.73878 0.13045 0.0
C1270 C 0.12133 0.77518 0.20954 0.0
C1271 C 0.12019 0.77212 0.28673 0.0
C1272 C 0.1205 0.7517 0.18291 0.0
C1273 C 0.12091 0.75953 0.31067 0.0
C1274 C 0.10758 0.73673 0.06115 0.0
C1275 C 0.11173 0.71374 0.1165 0.0
N1276 N 0.12063 0.74954 0.25865 0.0
N1277 N 0.11834 0.7273 0.1553 0.0
H1278 H 0.39905 0.46027 0.09944 0.0
H1279 H 0.33949 0.44078 0.44527 0.0
H1280 H 0.41909 0.4776 0.32466 0.0
H1281 H 0.32091 0.43558 0.21497 0.0
H1282 H 0.3688 0.45674 0.40282 0.0
H1283 H 0.37065 0.45332 0.13933 0.0
C1284 C 0.39748 0.46272 0.15722 0.0
C1285 C 0.41136 0.46928 0.20917 0.0
C1286 C 0.35833 0.45242 0.36166 0.0
C1287 C 0.37885 0.46128 0.25552 0.0
C1288 C 0.34159 0.44333 0.38589 0.0
C1289 C 0.3278 0.43676 0.33339 0.0
C1290 C 0.36131 0.45467 0.28415 0.0
C1291 C 0.33119 0.44044 0.25725 0.0
C1292 C 0.38128 0.45886 0.17988 0.0
C1293 C 0.40869 0.47249 0.28296 0.0
N1294 N 0.34766 0.44889 0.23464 0.0
N1295 N 0.39266 0.46819 0.30437 0.0
H1296 H 0.73729 0.81697 0.60021 0.0
H1297 H 0.78434 0.77099 0.54739 0.0
H1298 H 0.7334 0.79219 0.39495 0.0
H1299 H 0.75813 0.76952 0.74929 0.0
H1300 H 0.777 0.78879 0.49328 0.0
H1301 H 0.75641 0.80947 0.65533 0.0
C1302 C 0.74095 0.81041 0.56592 0.0
C1303 C 0.73373 0.80504 0.49332 0.0
C1304 C 0.77336 0.78491 0.5503 0.0
C1305 C 0.75555 0.79668 0.5553 0.0
C1306 C 0.77761 0.77488 0.58131 0.0
C1307 C 0.7717 0.7688 0.65255 0.0
C1308 C 0.76352 0.78908 0.59177 0.0
C1309 C 0.76278 0.77394 0.69394 0.0
C1310 C 0.75175 0.80609 0.59748 0.0
C1311 C 0.73865 0.79641 0.4514 0.0
N1312 N 0.75885 0.78374 0.66272 0.0
N1313 N 0.74921 0.79239 0.48322 0.0
H1314 H 0.2568 0.00758 0.59691 0.0
H1315 H 0.29196 0.07088 0.83891 0.0
H1316 H 0.29503 0.04221 0.45548 0.0
H1317 H 0.28962 0.09518 0.64706 0.0
H1318 H 0.28036 0.04767 0.75878 0.0
H1319 H 0.25671 0.02772 0.6717 0.0
C1320 C 0.26484 0.01938 0.58031 0.0
C1321 C 0.27613 0.0233 0.52056 0.0
C1322 C 0.28185 0.05795 0.73494 0.0
C1323 C 0.27599 0.0462 0.6056 0.0
C1324 C 0.28846 0.07114 0.7805 0.0
C1325 C 0.29152 0.08479 0.74941 0.0
C1326 C 0.27889 0.05867 0.65752 0.0
C1327 C 0.28715 0.08474 0.6731 0.0
C1328 C 0.26483 0.03082 0.62331 0.0
C1329 C 0.2863 0.03876 0.50168 0.0
N1330 N 0.28151 0.07195 0.62895 0.0
N1331 N 0.28607 0.04972 0.54455 0.0
H1332 H 0.0516 0.35159 0.54457 0.0
H1333 H 0.95508 0.3207 0.41042 0.0
H1334 H 0.03753 0.36825 0.35185 0.0
H1335 H 0.97111 0.32196 0.64183 0.0
H1336 H 0.98437 0.32977 0.37141 0.0
H1337 H 0.02117 0.33252 0.56247 0.0
C1338 C 0.04214 0.35095 0.50494 0.0
C1339 C 0.04697 0.3616 0.44739 0.0
C1340 C 0.98131 0.32763 0.43044 0.0
C1341 C 0.0124 0.33989 0.46702 0.0
C1342 C 0.96462 0.32235 0.45255 0.0
C1343 C 0.96085 0.32071 0.52934 0.0
C1344 C 0.99409 0.33105 0.48559 0.0
C1345 C 0.97366 0.32322 0.58209 0.0
C1346 C 0.02482 0.34014 0.5153 0.0
C1347 C 0.03425 0.36036 0.39763 0.0
N1348 N 0.98979 0.32841 0.55934 0.0
N1349 N 0.01751 0.34979 0.40894 0.0
H1350 H 0.33511 0.31512 0.44654 0.0
H1351 H 0.27841 0.35045 0.54784 0.0
H1352 H 0.326 0.3241 0.67363 0.0
H1353 H 0.3108 0.3636 0.35516 0.0
H1354 H 0.28612 0.33155 0.57824 0.0
H1355 H 0.31643 0.32376 0.39835 0.0
C1356 C 0.32879 0.31849 0.48617 0.0
C1357 C 0.33227 0.31921 0.56393 0.0
C1358 C 0.29115 0.33832 0.52823 0.0
C1359 C 0.31086 0.32874 0.50974 0.0
C1360 C 0.28672 0.34902 0.51071 0.0
C1361 C 0.29421 0.35868 0.4496 0.0
C1362 C 0.30287 0.33716 0.48347 0.0
C1363 C 0.30497 0.35647 0.40341 0.0
C1364 C 0.31822 0.32344 0.45873 0.0
C1365 C 0.3238 0.32363 0.61315 0.0
N1366 N 0.30913 0.34601 0.42166 0.0
N1367 N 0.31356 0.32836 0.5852 0.0
H1368 H 0.79738 0.09799 0.60898 0.0
H1369 H 0.74895 0.0351 0.37993 0.0
H1370 H 0.75943 0.06719 0.76377 0.0
H1371 H 0.74542 0.00772 0.56936 0.0
H1372 H 0.76814 0.05828 0.45557 0.0
H1373 H 0.79323 0.07583 0.53588 0.0
C1374 C 0.78858 0.08658 0.62902 0.0
C1375 C 0.77842 0.08435 0.6915 0.0
C1376 C 0.76376 0.0472 0.47961 0.0
C1377 C 0.77363 0.05916 0.60819 0.0
C1378 C 0.75276 0.034 0.43654 0.0
C1379 C 0.74565 0.01958 0.4687 0.0
C1380 C 0.76714 0.04589 0.55587 0.0
C1381 C 0.75077 0.01869 0.54253 0.0
C1382 C 0.78616 0.07398 0.58693 0.0
C1383 C 0.76727 0.06935 0.71508 0.0
N1384 N 0.76076 0.03172 0.58468 0.0
N1385 N 0.76499 0.05727 0.6727 0.0
H1386 H 0.96001 0.73118 0.44301 0.0
H1387 H 0.04004 0.77079 0.29539 0.0
H1388 H 0.98972 0.74117 0.65037 0.0
H1389 H 0.05752 0.79694 0.50501 0.0
H1390 H 0.01083 0.7572 0.34012 0.0
H1391 H 0.98488 0.75284 0.38506 0.0
C1392 C 0.97164 0.73812 0.47678 0.0
C1393 C 0.97298 0.7342 0.55099 0.0
C1394 C 0.02088 0.76631 0.37539 0.0
C1395 C 0.00144 0.75871 0.48497 0.0
C1396 C 0.03758 0.77399 0.34998 0.0
C1397 C 0.05111 0.78494 0.39673 0.0
C1398 C 0.01778 0.76937 0.44888 0.0
C1399 C 0.04736 0.78863 0.46719 0.0
C1400 C 0.98587 0.75037 0.44346 0.0
C1401 C 0.98831 0.74362 0.5924 0.0
N1402 N 0.03106 0.78053 0.49209 0.0
N1403 N 0.00201 0.75535 0.55857 0.0
loop_
_geom_bond_atom_site_label_1
_geom_bond_atom_site_label_2
_geom_bond_distance
_geom_bond_site_symmetry_2
_ccdc_geom_bond_type
Co0 N4 2.148 1_554 S
Co0 N10 2.128 . S
Co0 N20 2.194 . S
Co0 O25 2.390 1_554 S
Co0 O26 2.155 . S
Co0 O27 2.096 . S
C1 N4 1.301 . S
C1 N5 1.328 . S
C1 H6 0.930 . S
C2 C3 1.333 . S
C2 N4 1.317 . S
C2 H7 0.930 . S
C3 C2 1.333 . S
C3 N5 1.350 . S
C3 H29 0.931 . S
N4 Co0 2.148 1_556 S
N4 C1 1.301 . S
N4 C2 1.317 . S
N5 C1 1.328 . S
N5 C3 1.350 . S
H6 C1 0.930 . S
H7 C2 0.930 . S
C8 O9 1.224 . S
C8 O27 1.247 . S
O9 C8 1.224 . S
N10 Co0 2.128 . S
N10 C11 1.355 . S
N10 C13 1.311 . S
C11 N10 1.355 . S
C11 C12 1.363 . S
C11 H23 0.929 . S
C12 C11 1.363 . S
C12 N14 1.375 . S
C12 H30 0.931 1_455 S
C13 N10 1.311 . S
C13 N14 1.347 . S
C13 H24 0.929 . S
N14 C12 1.375 . S
N14 C13 1.347 . S
C15 C18 1.365 . S
C15 N20 1.328 . S
C15 H21 0.929 1_554 S
C16 C17 1.362 . S
C16 C19 1.378 . S
C16 H31 0.929 . S
C17 C16 1.362 . S
C17 C18 1.366 . S
C18 C15 1.365 . S
C18 C17 1.366 . S
C18 H32 0.930 1_554 S
C19 C16 1.378 . S
C19 N20 1.315 . S
C19 H22 0.930 . S
N20 Co0 2.194 . S
N20 C15 1.328 . S
N20 C19 1.315 . S
H21 C15 0.929 1_556 S
H22 C19 0.930 . S
H23 C11 0.929 . S
H24 C13 0.929 . S
O25 Co0 2.390 1_556 S
O25 C28 1.265 1_455 S
O26 Co0 2.155 . S
O26 C28 1.240 1_454 S
O27 Co0 2.096 . S
O27 C8 1.247 . S
C28 O25 1.265 1_655 S
C28 O26 1.240 1_656 S
H29 C3 0.931 . S
H30 C12 0.931 1_655 S
H31 C16 0.929 . S
H32 C18 0.930 1_556 S
Co33 N37 2.148 . S
Co33 N43 2.128 1_554 S
Co33 N53 2.194 . S
Co33 O58 2.351 . S
Co33 O59 2.155 . S
Co33 O60 2.096 . S
C34 N37 1.301 . S
C34 N38 1.328 . S
C34 H39 0.930 . S
C35 C36 1.333 . S
C35 N37 1.317 . S
C35 H40 0.930 . S
C36 C35 1.333 . S
C36 N38 1.350 . S
C36 H62 0.931 . S
N37 Co33 2.148 . S
N37 C34 1.301 . S
N37 C35 1.317 . S
N38 C34 1.328 . S
N38 C36 1.350 . S
H39 C34 0.930 . S
H40 C35 0.930 . S
C41 O42 1.224 . S
C41 O60 1.247 1_556 S
O42 C41 1.224 . S
N43 Co33 2.128 1_556 S
N43 C44 1.355 . S
N43 C46 1.311 . S
C44 N43 1.355 . S
C44 C45 1.363 . S
C44 H56 0.929 . S
C45 C44 1.363 . S
C45 N47 1.375 . S
C45 H63 0.931 . S
C46 N43 1.311 . S
C46 N47 1.347 . S
C46 H57 0.929 . S
N47 C45 1.375 . S
N47 C46 1.347 . S
C48 C51 1.365 . S
C48 N53 1.328 . S
C48 H54 0.929 . S
C49 C50 1.362 . S
C49 C52 1.378 . S
C49 H64 0.935 . S
C50 C49 1.362 . S
C50 C51 1.366 . S
C51 C48 1.365 . S
C51 C50 1.366 . S
C51 H65 0.930 . S
C52 C49 1.378 . S
C52 N53 1.315 . S
C52 H55 0.930 . S
N53 Co33 2.194 . S
N53 C48 1.328 . S
N53 C52 1.315 . S
H54 C48 0.929 . S
H55 C52 0.930 . S
H56 C44 0.929 . S
H57 C46 0.929 . S
O58 Co33 2.351 . S
O58 C61 1.244 . S
O59 Co33 2.155 . S
O59 C61 1.240 . S
O60 Co33 2.096 . S
O60 C41 1.247 1_554 S
C61 O58 1.244 . S
C61 O59 1.240 . S
H62 C36 0.931 . S
H63 C45 0.931 . S
H64 C49 0.935 . S
H65 C51 0.930 . S
Co66 N70 2.148 1_554 S
Co66 N76 2.128 . S
Co66 N86 2.194 . S
Co66 O91 2.351 . S
Co66 O92 2.155 . S
Co66 O93 2.096 . S
C67 N70 1.301 . S
C67 N71 1.328 . S
C67 H72 0.930 . S
C68 C69 1.333 . S
C68 N70 1.317 . S
C68 H73 0.930 . S
C69 C68 1.333 . S
C69 N71 1.350 . S
C69 H95 0.931 . S
N70 Co66 2.148 1_556 S
N70 C67 1.301 . S
N70 C68 1.317 . S
N71 C67 1.328 . S
N71 C69 1.350 . S
H72 C67 0.930 . S
H73 C68 0.930 . S
C74 O75 1.224 . S
C74 O93 1.247 . S
O75 C74 1.224 . S
N76 Co66 2.128 . S
N76 C77 1.355 . S
N76 C79 1.311 . S
C77 N76 1.355 . S
C77 C78 1.363 . S
C77 H89 0.929 . S
C78 C77 1.363 . S
C78 N80 1.375 . S
C78 H96 0.931 . S
C79 N76 1.311 . S
C79 N80 1.347 . S
C79 H90 0.929 . S
N80 C78 1.375 . S
N80 C79 1.347 . S
C81 C84 1.365 . S
C81 N86 1.328 . S
C81 H87 0.929 . S
C82 C83 1.362 . S
C82 C85 1.378 . S
C82 H97 0.929 . S
C83 C82 1.362 . S
C83 C84 1.366 . S
C84 C81 1.365 . S
C84 C83 1.366 . S
C84 H98 0.930 . S
C85 C82 1.378 . S
C85 N86 1.315 . S
C85 H88 0.930 . S
N86 Co66 2.194 . S
N86 C81 1.328 . S
N86 C85 1.315 . S
H87 C81 0.929 . S
H88 C85 0.930 . S
H89 C77 0.929 . S
H90 C79 0.929 . S
O91 Co66 2.351 . S
O91 C94 1.244 . S
O92 Co66 2.155 . S
O92 C94 1.240 . S
O93 Co66 2.096 . S
O93 C74 1.247 . S
C94 O91 1.244 . S
C94 O92 1.240 . S
H95 C69 0.931 . S
H96 C78 0.931 . S
H97 C82 0.929 . S
H98 C84 0.930 . S
Co99 N103 2.148 . S
Co99 N109 2.128 1_554 S
Co99 N119 2.194 . S
Co99 O124 2.351 . S
Co99 O125 2.155 . S
Co99 O126 2.096 1_554 S
C100 N103 1.301 . S
C100 N104 1.328 . S
C100 H105 0.930 . S
C101 C102 1.333 . S
C101 N103 1.317 . S
C101 H106 0.930 . S
C102 C101 1.333 . S
C102 N104 1.350 . S
C102 H128 0.931 . S
N103 Co99 2.148 . S
N103 C100 1.301 . S
N103 C101 1.317 . S
N104 C100 1.328 . S
N104 C102 1.350 . S
H105 C100 0.930 . S
H106 C101 0.930 . S
C107 O108 1.224 . S
C107 O126 1.247 . S
O108 C107 1.224 . S
N109 Co99 2.128 1_556 S
N109 C110 1.355 . S
N109 C112 1.311 . S
C110 N109 1.355 . S
C110 C111 1.363 . S
C110 H122 0.929 . S
C111 C110 1.363 . S
C111 N113 1.375 . S
C111 H129 0.931 . S
C112 N109 1.311 . S
C112 N113 1.347 . S
C112 H123 0.929 . S
N113 C111 1.375 . S
N113 C112 1.347 . S
C114 C117 1.365 . S
C114 N119 1.328 . S
C114 H120 0.929 . S
C115 C116 1.362 . S
C115 C118 1.378 . S
C115 H130 0.929 1_554 S
C116 C115 1.362 . S
C116 C117 1.366 . S
C117 C114 1.365 . S
C117 C116 1.366 . S
C117 H131 0.930 . S
C118 C115 1.378 . S
C118 N119 1.315 . S
C118 H121 0.930 1_554 S
N119 Co99 2.194 . S
N119 C114 1.328 . S
N119 C118 1.315 . S
H120 C114 0.929 . S
H121 C118 0.930 1_556 S
H122 C110 0.929 . S
H123 C112 0.929 . S
O124 Co99 2.351 . S
O124 C127 1.244 . S
O125 Co99 2.155 . S
O125 C127 1.240 . S
O126 Co99 2.096 1_556 S
O126 C107 1.247 . S
C127 O124 1.244 . S
C127 O125 1.240 . S
H128 C102 0.931 . S
H129 C111 0.931 . S
H130 C115 0.929 1_556 S
H131 C117 0.930 . S
Co132 N136 2.148 1_554 S
Co132 N142 2.128 . S
Co132 N152 2.194 . S
Co132 O157 2.351 . S
Co132 O158 2.155 . S
Co132 O159 2.096 . S
C133 N136 1.301 . S
C133 N137 1.328 . S
C133 H138 0.930 . S
C134 C135 1.333 . S
C134 N136 1.317 . S
C134 H139 0.930 . S
C135 C134 1.333 . S
C135 N137 1.350 . S
C135 H161 0.931 . S
N136 Co132 2.148 1_556 S
N136 C133 1.301 . S
N136 C134 1.317 . S
N137 C133 1.328 . S
N137 C135 1.350 . S
H138 C133 0.930 . S
H139 C134 0.930 . S
C140 O141 1.224 . S
C140 O159 1.247 . S
O141 C140 1.224 . S
N142 Co132 2.128 . S
N142 C143 1.355 . S
N142 C145 1.311 . S
C143 N142 1.355 . S
C143 C144 1.363 . S
C143 H155 0.929 . S
C144 C143 1.363 . S
C144 N146 1.375 . S
C144 H162 0.931 . S
C145 N142 1.311 . S
C145 N146 1.347 . S
C145 H156 0.929 . S
N146 C144 1.375 . S
N146 C145 1.347 . S
C147 C150 1.365 . S
C147 N152 1.328 . S
C147 H153 0.927 1_554 S
C148 C149 1.362 . S
C148 C151 1.378 . S
C148 H163 0.929 . S
C149 C148 1.362 . S
C149 C150 1.366 . S
C150 C147 1.365 . S
C150 C149 1.366 . S
C150 H164 0.930 . S
C151 C148 1.378 . S
C151 N152 1.315 . S
C151 H154 0.930 . S
N152 Co132 2.194 . S
N152 C147 1.328 . S
N152 C151 1.315 . S
H153 C147 0.927 1_556 S
H154 C151 0.930 . S
H155 C143 0.929 . S
H156 C145 0.929 . S
O157 Co132 2.351 . S
O157 C160 1.244 . S
O158 Co132 2.155 . S
O158 C160 1.240 . S
O159 Co132 2.096 . S
O159 C140 1.247 . S
C160 O157 1.244 . S
C160 O158 1.240 . S
H161 C135 0.931 . S
H162 C144 0.931 . S
H163 C148 0.929 . S
H164 C150 0.930 . S
Co165 N169 2.148 . S
Co165 N175 2.128 1_554 S
Co165 N185 2.194 . S
Co165 O190 2.351 . S
Co165 O191 2.155 . S
Co165 O192 2.096 . S
C166 N169 1.301 . S
C166 N170 1.328 . S
C166 H171 0.930 . S
C167 C168 1.333 . S
C167 N169 1.317 . S
C167 H172 0.930 . S
C168 C167 1.333 . S
C168 N170 1.350 . S
C168 H194 0.931 . S
N169 Co165 2.148 . S
N169 C166 1.301 . S
N169 C167 1.317 . S
N170 C166 1.328 . S
N170 C168 1.350 . S
H171 C166 0.930 . S
H172 C167 0.930 . S
C173 O174 1.224 . S
C173 O192 1.247 1_556 S
O174 C173 1.224 . S
N175 Co165 2.128 1_556 S
N175 C176 1.355 . S
N175 C178 1.311 . S
C176 N175 1.355 . S
C176 C177 1.363 . S
C176 H188 0.929 . S
C177 C176 1.363 . S
C177 N179 1.375 . S
C177 H195 0.931 . S
C178 N175 1.311 . S
C178 N179 1.347 . S
C178 H189 0.929 . S
N179 C177 1.375 . S
N179 C178 1.347 . S
C180 C183 1.365 . S
C180 N185 1.328 . S
C180 H186 0.929 . S
C181 C182 1.362 . S
C181 C184 1.378 . S
C181 H196 0.929 . S
C182 C181 1.362 . S
C182 C183 1.366 . S
C183 C180 1.365 . S
C183 C182 1.366 . S
C183 H197 0.930 . S
C184 C181 1.378 . S
C184 N185 1.315 . S
C184 H187 0.930 . S
N185 Co165 2.194 . S
N185 C180 1.328 . S
N185 C184 1.315 . S
H186 C180 0.929 . S
H187 C184 0.930 . S
H188 C176 0.929 . S
H189 C178 0.929 . S
O190 Co165 2.351 . S
O190 C193 1.244 . S
O191 Co165 2.155 . S
O191 C193 1.240 . S
O192 Co165 2.096 . S
O192 C173 1.247 1_554 S
C193 O190 1.244 . S
C193 O191 1.240 . S
H194 C168 0.931 . S
H195 C177 0.931 . S
H196 C181 0.929 . S
H197 C183 0.930 . S
Co198 N202 2.148 . S
Co198 N208 2.128 . S
Co198 N218 2.194 . S
Co198 O223 2.351 . S
Co198 O224 2.155 . S
Co198 O225 2.096 . S
C199 N202 1.301 . S
C199 N203 1.328 . S
C199 H204 0.930 . S
C200 C201 1.333 . S
C200 N202 1.317 . S
C200 H205 0.930 . S
C201 C200 1.333 . S
C201 N203 1.350 . S
C201 H227 0.931 . S
N202 Co198 2.148 . S
N202 C199 1.301 . S
N202 C200 1.317 . S
N203 C199 1.328 . S
N203 C201 1.350 . S
H204 C199 0.930 . S
H205 C200 0.930 . S
C206 O207 1.224 . S
C206 O225 1.247 . S
O207 C206 1.224 . S
N208 Co198 2.128 . S
N208 C209 1.355 . S
N208 C211 1.311 . S
C209 N208 1.355 . S
C209 C210 1.363 . S
C209 H221 0.929 . S
C210 C209 1.363 . S
C210 N212 1.375 . S
C210 H228 0.931 . S
C211 N208 1.311 . S
C211 N212 1.347 . S
C211 H222 0.929 . S
N212 C210 1.375 . S
N212 C211 1.347 . S
C213 C216 1.365 . S
C213 N218 1.328 . S
C213 H219 0.929 . S
C214 C215 1.362 . S
C214 C217 1.378 . S
C214 H229 0.929 . S
C215 C214 1.362 . S
C215 C216 1.366 . S
C216 C213 1.365 . S
C216 C215 1.366 . S
C216 H230 0.930 . S
C217 C214 1.378 . S
C217 N218 1.315 . S
C217 H220 0.930 . S
N218 Co198 2.194 . S
N218 C213 1.328 . S
N218 C217 1.315 . S
H219 C213 0.929 . S
H220 C217 0.930 . S
H221 C209 0.929 . S
H222 C211 0.929 . S
O223 Co198 2.351 . S
O223 C226 1.244 . S
O224 Co198 2.155 . S
O224 C226 1.240 . S
O225 Co198 2.096 . S
O225 C206 1.247 . S
C226 O223 1.244 . S
C226 O224 1.240 . S
H227 C201 0.931 . S
H228 C210 0.931 . S
H229 C214 0.929 . S
H230 C216 0.930 . S
Co231 N235 2.148 . S
Co231 N241 2.128 . S
Co231 N251 2.194 1_545 S
Co231 O256 2.351 . S
Co231 O257 2.155 . S
Co231 O258 2.096 . S
C232 N235 1.301 . S
C232 N236 1.328 . S
C232 H237 0.911 . S
C233 C234 1.333 . S
C233 N235 1.317 . S
C233 H238 0.930 . S
C234 C233 1.333 . S
C234 N236 1.350 . S
C234 H260 0.931 . S
N235 Co231 2.148 . S
N235 C232 1.301 . S
N235 C233 1.317 . S
N236 C232 1.328 . S
N236 C234 1.350 . S
H237 C232 0.911 . S
H238 C233 0.930 . S
C239 O240 1.224 1_545 S
C239 O258 1.247 . S
O240 C239 1.224 1_565 S
N241 Co231 2.128 . S
N241 C242 1.354 . S
N241 C244 1.311 . S
C242 N241 1.354 . S
C242 C243 1.359 . S
C242 H254 0.929 1_545 S
C243 C242 1.359 . S
C243 N245 1.372 . S
C243 H261 0.940 1_545 S
C244 N241 1.311 . S
C244 N245 1.347 . S
C244 H255 0.929 . S
N245 C243 1.372 . S
N245 C244 1.347 . S
C246 C249 1.365 . S
C246 N251 1.328 . S
C246 H252 0.929 . S
C247 C248 1.362 . S
C247 C250 1.378 . S
C247 H262 0.929 . S
C248 C247 1.362 . S
C248 C249 1.366 . S
C249 C246 1.365 . S
C249 C248 1.366 . S
C249 H263 0.930 . S
C250 C247 1.378 . S
C250 N251 1.315 . S
C250 H253 0.930 . S
N251 Co231 2.194 1_565 S
N251 C246 1.328 . S
N251 C250 1.315 . S
H252 C246 0.929 . S
H253 C250 0.930 . S
H254 C242 0.929 1_565 S
H255 C244 0.929 . S
O256 Co231 2.351 . S
O256 C259 1.244 . S
O257 Co231 2.155 . S
O257 C259 1.240 . S
O258 Co231 2.096 . S
O258 C239 1.247 . S
C259 O256 1.244 . S
C259 O257 1.240 . S
H260 C234 0.931 . S
H261 C243 0.940 1_565 S
H262 C247 0.929 . S
H263 C249 0.930 . S
Co264 N268 2.148 . S
Co264 N274 2.128 . S
Co264 N284 2.194 . S
Co264 O289 2.351 . S
Co264 O290 2.155 . S
Co264 O291 2.096 . S
C265 N268 1.301 . S
C265 N269 1.328 . S
C265 H270 0.930 . S
C266 C267 1.333 . S
C266 N268 1.317 . S
C266 H271 0.930 . S
C267 C266 1.333 . S
C267 N269 1.350 . S
C267 H293 0.931 . S
N268 Co264 2.148 . S
N268 C265 1.301 . S
N268 C266 1.317 . S
N269 C265 1.328 . S
N269 C267 1.350 . S
H270 C265 0.930 . S
H271 C266 0.930 . S
C272 O273 1.224 . S
C272 O291 1.247 . S
O273 C272 1.224 . S
N274 Co264 2.128 . S
N274 C275 1.355 . S
N274 C277 1.311 . S
C275 N274 1.355 . S
C275 C276 1.363 . S
C275 H287 0.929 . S
C276 C275 1.363 . S
C276 N278 1.375 . S
C276 H294 0.931 . S
C277 N274 1.311 . S
C277 N278 1.347 . S
C277 H288 0.929 . S
N278 C276 1.375 . S
N278 C277 1.347 . S
C279 C282 1.365 . S
C279 N284 1.328 . S
C279 H285 0.929 . S
C280 C281 1.362 . S
C280 C283 1.378 . S
C280 H295 0.929 . S
C281 C280 1.362 . S
C281 C282 1.366 . S
C282 C279 1.365 . S
C282 C281 1.366 . S
C282 H296 0.930 . S
C283 C280 1.378 . S
C283 N284 1.315 . S
C283 H286 0.930 . S
N284 Co264 2.194 . S
N284 C279 1.328 . S
N284 C283 1.315 . S
H285 C279 0.929 . S
H286 C283 0.930 . S
H287 C275 0.929 . S
H288 C277 0.929 . S
O289 Co264 2.351 . S
O289 C292 1.244 . S
O290 Co264 2.155 . S
O290 C292 1.240 . S
O291 Co264 2.096 . S
O291 C272 1.247 . S
C292 O289 1.244 . S
C292 O290 1.240 . S
H293 C267 0.931 . S
H294 C276 0.931 . S
H295 C280 0.929 . S
H296 C282 0.930 . S
Co297 N301 2.148 . S
Co297 N307 2.128 . S
Co297 N317 2.194 . S
Co297 O322 2.351 1_565 S
Co297 O323 2.155 1_565 S
Co297 O324 2.096 1_565 S
C298 N301 1.301 . S
C298 N302 1.328 . S
C298 H303 0.930 . S
C299 C300 1.333 . S
C299 N301 1.317 . S
C299 H304 0.930 . S
C300 C299 1.333 . S
C300 N302 1.350 . S
C300 H326 0.931 . S
N301 Co297 2.148 . S
N301 C298 1.301 . S
N301 C299 1.317 . S
N302 C298 1.328 . S
N302 C300 1.350 . S
H303 C298 0.930 . S
H304 C299 0.930 . S
C305 O306 1.224 . S
C305 O324 1.247 1_565 S
O306 C305 1.224 . S
N307 Co297 2.128 . S
N307 C308 1.355 . S
N307 C310 1.288 1_565 S
C308 N307 1.355 . S
C308 C309 1.363 . S
C308 H320 0.929 . S
C309 C308 1.363 . S
C309 N311 1.408 . S
C309 H327 0.931 . S
C310 N307 1.288 1_545 S
C310 N311 1.313 1_545 S
C310 H321 0.969 . S
N311 C309 1.408 . S
N311 C310 1.313 1_565 S
C312 C315 1.365 . S
C312 N317 1.328 . S
C312 H318 0.929 . S
C313 C314 1.362 . S
C313 C316 1.378 . S
C313 H328 0.929 . S
C314 C313 1.362 . S
C314 C315 1.366 . S
C315 C312 1.365 . S
C315 C314 1.366 . S
C315 H329 0.930 . S
C316 C313 1.378 . S
C316 N317 1.315 . S
C316 H319 0.930 . S
N317 Co297 2.194 . S
N317 C312 1.328 . S
N317 C316 1.315 . S
H318 C312 0.929 . S
H319 C316 0.930 . S
H320 C308 0.929 . S
H321 C310 0.969 . S
O322 Co297 2.351 1_545 S
O322 C325 1.244 . S
O323 Co297 2.155 1_545 S
O323 C325 1.240 . S
O324 Co297 2.096 1_545 S
O324 C305 1.247 1_545 S
C325 O322 1.244 . S
C325 O323 1.240 . S
H326 C300 0.931 . S
H327 C309 0.931 . S
H328 C313 0.929 . S
H329 C315 0.930 . S
Co330 N334 2.148 . S
Co330 N340 2.128 . S
Co330 N350 2.194 . S
Co330 O355 2.351 . S
Co330 O356 2.155 . S
Co330 O357 2.096 . S
C331 N334 1.301 . S
C331 N335 1.328 . S
C331 H336 0.930 . S
C332 C333 1.333 . S
C332 N334 1.317 . S
C332 H337 0.930 . S
C333 C332 1.333 . S
C333 N335 1.350 . S
C333 H359 0.931 . S
N334 Co330 2.148 . S
N334 C331 1.301 . S
N334 C332 1.317 . S
N335 C331 1.328 . S
N335 C333 1.350 . S
H336 C331 0.930 . S
H337 C332 0.930 . S
C338 O339 1.224 . S
C338 O357 1.247 . S
O339 C338 1.224 . S
N340 Co330 2.128 . S
N340 C341 1.355 . S
N340 C343 1.311 . S
C341 N340 1.355 . S
C341 C342 1.363 . S
C341 H353 0.929 . S
C342 C341 1.363 . S
C342 N344 1.375 . S
C342 H360 0.931 . S
C343 N340 1.311 . S
C343 N344 1.347 . S
C343 H354 0.929 . S
N344 C342 1.375 . S
N344 C343 1.347 . S
C345 C348 1.365 . S
C345 N350 1.328 . S
C345 H351 0.929 . S
C346 C347 1.362 . S
C346 C349 1.378 . S
C346 H361 0.929 . S
C347 C346 1.362 . S
C347 C348 1.366 . S
C348 C345 1.365 . S
C348 C347 1.366 . S
C348 H362 0.930 . S
C349 C346 1.378 . S
C349 N350 1.315 . S
C349 H352 0.930 . S
N350 Co330 2.194 . S
N350 C345 1.328 . S
N350 C349 1.315 . S
H351 C345 0.929 . S
H352 C349 0.930 . S
H353 C341 0.929 . S
H354 C343 0.929 . S
O355 Co330 2.351 . S
O355 C358 1.244 . S
O356 Co330 2.155 . S
O356 C358 1.240 . S
O357 Co330 2.096 . S
O357 C338 1.247 . S
C358 O355 1.244 . S
C358 O356 1.240 . S
H359 C333 0.931 . S
H360 C342 0.931 . S
H361 C346 0.929 . S
H362 C348 0.930 . S
Co363 N367 2.148 . S
Co363 N373 2.128 . S
Co363 N383 2.194 . S
Co363 O388 2.351 . S
Co363 O389 2.155 . S
Co363 O390 2.096 . S
C364 N367 1.301 . S
C364 N368 1.328 . S
C364 H369 0.930 . S
C365 C366 1.333 . S
C365 N367 1.317 . S
C365 H370 0.930 . S
C366 C365 1.333 . S
C366 N368 1.350 . S
C366 H392 0.931 . S
N367 Co363 2.148 . S
N367 C364 1.301 . S
N367 C365 1.317 . S
N368 C364 1.328 . S
N368 C366 1.350 . S
H369 C364 0.930 . S
H370 C365 0.930 . S
C371 O372 1.224 . S
C371 O390 1.247 . S
O372 C371 1.224 . S
N373 Co363 2.128 . S
N373 C374 1.355 . S
N373 C376 1.311 . S
C374 N373 1.355 . S
C374 C375 1.363 . S
C374 H386 0.929 . S
C375 C374 1.363 . S
C375 N377 1.375 . S
C375 H393 0.931 . S
C376 N373 1.311 . S
C376 N377 1.347 . S
C376 H387 0.929 . S
N377 C375 1.375 . S
N377 C376 1.347 . S
C378 C381 1.365 . S
C378 N383 1.328 . S
C378 H384 0.929 . S
C379 C380 1.362 . S
C379 C382 1.378 . S
C379 H394 0.929 . S
C380 C379 1.362 . S
C380 C381 1.366 . S
C381 C378 1.365 . S
C381 C380 1.366 . S
C381 H395 0.930 . S
C382 C379 1.378 . S
C382 N383 1.315 . S
C382 H385 0.930 . S
N383 Co363 2.194 . S
N383 C378 1.328 . S
N383 C382 1.315 . S
H384 C378 0.929 . S
H385 C382 0.930 . S
H386 C374 0.929 . S
H387 C376 0.929 . S
O388 Co363 2.351 . S
O388 C391 1.244 . S
O389 Co363 2.155 . S
O389 C391 1.240 . S
O390 Co363 2.096 . S
O390 C371 1.247 . S
C391 O388 1.244 . S
C391 O389 1.240 . S
H392 C366 0.931 . S
H393 C375 0.931 . S
H394 C379 0.929 . S
H395 C381 0.930 . S
Co396 N400 2.148 . S
Co396 N406 2.128 . S
Co396 N416 2.194 . S
Co396 O421 2.351 . S
Co396 O422 2.155 . S
Co396 O423 2.096 . S
C397 N400 1.301 . S
C397 N401 1.328 . S
C397 H402 0.930 . S
C398 C399 1.333 . S
C398 N400 1.317 . S
C398 H403 0.930 . S
C399 C398 1.333 . S
C399 N401 1.350 . S
C399 H425 0.931 . S
N400 Co396 2.148 . S
N400 C397 1.301 . S
N400 C398 1.317 . S
N401 C397 1.328 . S
N401 C399 1.350 . S
H402 C397 0.930 . S
H403 C398 0.930 . S
C404 O405 1.224 . S
C404 O423 1.247 . S
O405 C404 1.224 . S
N406 Co396 2.128 . S
N406 C407 1.355 . S
N406 C409 1.311 . S
C407 N406 1.355 . S
C407 C408 1.363 . S
C407 H419 0.929 . S
C408 C407 1.363 . S
C408 N410 1.375 . S
C408 H426 0.931 . S
C409 N406 1.311 . S
C409 N410 1.347 . S
C409 H420 0.929 . S
N410 C408 1.375 . S
N410 C409 1.347 . S
C411 C414 1.365 . S
C411 N416 1.328 . S
C411 H417 0.929 . S
C412 C413 1.362 . S
C412 C415 1.378 . S
C412 H427 0.929 . S
C413 C412 1.362 . S
C413 C414 1.366 . S
C414 C411 1.365 . S
C414 C413 1.366 . S
C414 H428 0.930 . S
C415 C412 1.378 . S
C415 N416 1.315 . S
C415 H418 0.930 . S
N416 Co396 2.194 . S
N416 C411 1.328 . S
N416 C415 1.315 . S
H417 C411 0.929 . S
H418 C415 0.930 . S
H419 C407 0.929 . S
H420 C409 0.929 . S
O421 Co396 2.351 . S
O421 C424 1.244 . S
O422 Co396 2.155 . S
O422 C424 1.240 . S
O423 Co396 2.096 . S
O423 C404 1.247 . S
C424 O421 1.244 . S
C424 O422 1.240 . S
H425 C399 0.931 . S
H426 C408 0.931 . S
H427 C412 0.929 . S
H428 C414 0.930 . S
Co429 N433 2.148 . S
Co429 N439 2.128 . S
Co429 N449 2.194 . S
Co429 O454 2.351 . S
Co429 O455 2.155 . S
Co429 O456 2.096 . S
C430 N433 1.301 . S
C430 N434 1.328 . S
C430 H435 0.930 . S
C431 C432 1.333 . S
C431 N433 1.317 . S
C431 H436 0.930 . S
C432 C431 1.333 . S
C432 N434 1.350 . S
C432 H458 0.931 . S
N433 Co429 2.148 . S
N433 C430 1.301 . S
N433 C431 1.317 . S
N434 C430 1.328 . S
N434 C432 1.350 . S
H435 C430 0.930 . S
H436 C431 0.930 . S
C437 O438 1.224 . S
C437 O456 1.247 . S
O438 C437 1.224 . S
N439 Co429 2.128 . S
N439 C440 1.355 . S
N439 C442 1.311 . S
C440 N439 1.355 . S
C440 C441 1.363 . S
C440 H452 0.929 . S
C441 C440 1.363 . S
C441 N443 1.375 . S
C441 H459 0.931 . S
C442 N439 1.311 . S
C442 N443 1.347 . S
C442 H453 0.929 . S
N443 C441 1.375 . S
N443 C442 1.347 . S
C444 C447 1.365 . S
C444 N449 1.328 . S
C444 H450 0.929 . S
C445 C446 1.362 . S
C445 C448 1.378 . S
C445 H460 0.929 . S
C446 C445 1.362 . S
C446 C447 1.366 . S
C447 C444 1.365 . S
C447 C446 1.366 . S
C447 H461 0.930 . S
C448 C445 1.378 . S
C448 N449 1.315 . S
C448 H451 0.930 . S
N449 Co429 2.194 . S
N449 C444 1.328 . S
N449 C448 1.315 . S
H450 C444 0.929 . S
H451 C448 0.930 . S
H452 C440 0.929 . S
H453 C442 0.929 . S
O454 Co429 2.351 . S
O454 C457 1.244 . S
O455 Co429 2.155 . S
O455 C457 1.240 . S
O456 Co429 2.096 . S
O456 C437 1.247 . S
C457 O454 1.244 . S
C457 O455 1.240 . S
H458 C432 0.931 . S
H459 C441 0.931 . S
H460 C445 0.929 . S
H461 C447 0.930 . S
Co462 N466 2.148 . S
Co462 N472 2.128 . S
Co462 N482 2.194 . S
Co462 O487 2.351 . S
Co462 O488 2.155 . S
Co462 O489 2.096 . S
C463 N466 1.301 . S
C463 N467 1.328 . S
C463 H468 0.930 . S
C464 C465 1.333 . S
C464 N466 1.317 . S
C464 H469 0.930 . S
C465 C464 1.333 . S
C465 N467 1.350 . S
C465 H491 0.931 . S
N466 Co462 2.148 . S
N466 C463 1.301 . S
N466 C464 1.317 . S
N467 C463 1.328 . S
N467 C465 1.350 . S
H468 C463 0.930 . S
H469 C464 0.930 . S
C470 O471 1.224 . S
C470 O489 1.247 . S
O471 C470 1.224 . S
N472 Co462 2.128 . S
N472 C473 1.355 . S
N472 C475 1.311 . S
C473 N472 1.355 . S
C473 C474 1.363 . S
C473 H485 0.929 . S
C474 C473 1.363 . S
C474 N476 1.375 . S
C474 H492 0.931 . S
C475 N472 1.311 . S
C475 N476 1.347 . S
C475 H486 0.929 . S
N476 C474 1.375 . S
N476 C475 1.347 . S
C477 C480 1.365 . S
C477 N482 1.328 . S
C477 H483 0.929 . S
C478 C479 1.362 . S
C478 C481 1.378 . S
C478 H493 0.929 . S
C479 C478 1.362 . S
C479 C480 1.366 . S
C480 C477 1.365 . S
C480 C479 1.366 . S
C480 H494 0.930 . S
C481 C478 1.378 . S
C481 N482 1.315 . S
C481 H484 0.930 . S
N482 Co462 2.194 . S
N482 C477 1.328 . S
N482 C481 1.315 . S
H483 C477 0.929 . S
H484 C481 0.930 . S
H485 C473 0.929 . S
H486 C475 0.929 . S
O487 Co462 2.351 . S
O487 C490 1.244 . S
O488 Co462 2.155 . S
O488 C490 1.240 . S
O489 Co462 2.096 . S
O489 C470 1.247 . S
C490 O487 1.244 . S
C490 O488 1.240 . S
H491 C465 0.931 . S
H492 C474 0.931 . S
H493 C478 0.929 . S
H494 C480 0.930 . S
Co495 N499 2.148 . S
Co495 N505 2.128 . S
Co495 N515 2.194 . S
Co495 O520 2.351 . S
Co495 O521 2.155 . S
Co495 O522 2.096 . S
C496 N499 1.301 . S
C496 N500 1.328 . S
C496 H501 0.930 . S
C497 C498 1.333 . S
C497 N499 1.317 . S
C497 H502 0.930 . S
C498 C497 1.333 . S
C498 N500 1.350 . S
C498 H524 0.931 . S
N499 Co495 2.148 . S
N499 C496 1.301 . S
N499 C497 1.317 . S
N500 C496 1.328 . S
N500 C498 1.350 . S
H501 C496 0.930 . S
H502 C497 0.930 . S
C503 O504 1.224 . S
C503 O522 1.247 . S
O504 C503 1.224 . S
N505 Co495 2.128 . S
N505 C506 1.355 . S
N505 C508 1.311 . S
C506 N505 1.355 . S
C506 C507 1.363 . S
C506 H518 0.929 . S
C507 C506 1.363 . S
C507 N509 1.375 . S
C507 H525 0.931 . S
C508 N505 1.311 . S
C508 N509 1.347 . S
C508 H519 0.929 . S
N509 C507 1.375 . S
N509 C508 1.347 . S
C510 C513 1.365 . S
C510 N515 1.328 . S
C510 H516 0.929 . S
C511 C512 1.362 . S
C511 C514 1.378 . S
C511 H526 0.929 . S
C512 C511 1.362 . S
C512 C513 1.366 . S
C513 C510 1.365 . S
C513 C512 1.366 . S
C513 H527 0.930 . S
C514 C511 1.378 . S
C514 N515 1.315 . S
C514 H517 0.930 . S
N515 Co495 2.194 . S
N515 C510 1.328 . S
N515 C514 1.315 . S
H516 C510 0.929 . S
H517 C514 0.930 . S
H518 C506 0.929 . S
H519 C508 0.929 . S
O520 Co495 2.351 . S
O520 C523 1.244 . S
O521 Co495 2.155 . S
O521 C523 1.240 . S
O522 Co495 2.096 . S
O522 C503 1.247 . S
C523 O520 1.244 . S
C523 O521 1.240 . S
H524 C498 0.931 . S
H525 C507 0.931 . S
H526 C511 0.929 . S
H527 C513 0.930 . S
Co528 N532 2.148 . S
Co528 N538 2.128 . S
Co528 N548 2.194 . S
Co528 O553 2.351 . S
Co528 O554 2.155 . S
Co528 O555 2.096 . S
C529 N532 1.301 . S
C529 N533 1.328 . S
C529 H534 0.930 . S
C530 C531 1.333 . S
C530 N532 1.317 . S
C530 H535 0.930 . S
C531 C530 1.333 . S
C531 N533 1.350 . S
C531 H557 0.931 . S
N532 Co528 2.148 . S
N532 C529 1.301 . S
N532 C530 1.317 . S
N533 C529 1.328 . S
N533 C531 1.350 . S
H534 C529 0.930 . S
H535 C530 0.930 . S
C536 O537 1.224 . S
C536 O555 1.247 . S
O537 C536 1.224 . S
N538 Co528 2.128 . S
N538 C539 1.355 . S
N538 C541 1.311 . S
C539 N538 1.355 . S
C539 C540 1.363 . S
C539 H551 0.929 . S
C540 C539 1.363 . S
C540 N542 1.375 . S
C540 H558 0.931 . S
C541 N538 1.311 . S
C541 N542 1.347 . S
C541 H552 0.929 . S
N542 C540 1.375 . S
N542 C541 1.347 . S
C543 C546 1.365 . S
C543 N548 1.328 . S
C543 H549 0.929 . S
C544 C545 1.362 . S
C544 C547 1.378 . S
C544 H559 0.929 . S
C545 C544 1.362 . S
C545 C546 1.366 . S
C546 C543 1.365 . S
C546 C545 1.366 . S
C546 H560 0.930 . S
C547 C544 1.378 . S
C547 N548 1.315 . S
C547 H550 0.930 . S
N548 Co528 2.194 . S
N548 C543 1.328 . S
N548 C547 1.315 . S
H549 C543 0.929 . S
H550 C547 0.930 . S
H551 C539 0.929 . S
H552 C541 0.929 . S
O553 Co528 2.351 . S
O553 C556 1.244 . S
O554 Co528 2.155 . S
O554 C556 1.240 . S
O555 Co528 2.096 . S
O555 C536 1.247 . S
C556 O553 1.244 . S
C556 O554 1.240 . S
H557 C531 0.931 . S
H558 C540 0.931 . S
H559 C544 0.929 . S
H560 C546 0.930 . S
Co561 N565 2.148 . S
Co561 N571 2.128 . S
Co561 N581 2.194 . S
Co561 O586 2.351 . S
Co561 O587 2.155 . S
Co561 O588 2.096 . S
C562 N565 1.301 . S
C562 N566 1.328 . S
C562 H567 0.930 . S
C563 C564 1.333 . S
C563 N565 1.317 . S
C563 H568 0.930 . S
C564 C563 1.333 . S
C564 N566 1.350 . S
C564 H590 0.931 . S
N565 Co561 2.148 . S
N565 C562 1.301 . S
N565 C563 1.317 . S
N566 C562 1.328 . S
N566 C564 1.350 . S
H567 C562 0.930 . S
H568 C563 0.930 . S
C569 O570 1.224 . S
C569 O588 1.247 . S
O570 C569 1.224 . S
N571 Co561 2.128 . S
N571 C572 1.355 . S
N571 C574 1.311 . S
C572 N571 1.355 . S
C572 C573 1.363 . S
C572 H584 0.929 . S
C573 C572 1.363 . S
C573 N575 1.375 . S
C573 H591 0.931 . S
C574 N571 1.311 . S
C574 N575 1.347 . S
C574 H585 0.929 . S
N575 C573 1.375 . S
N575 C574 1.347 . S
C576 C579 1.365 . S
C576 N581 1.328 . S
C576 H582 0.929 . S
C577 C578 1.362 . S
C577 C580 1.378 . S
C577 H592 0.929 . S
C578 C577 1.362 . S
C578 C579 1.366 . S
C579 C576 1.365 . S
C579 C578 1.366 . S
C579 H593 0.930 . S
C580 C577 1.378 . S
C580 N581 1.315 . S
C580 H583 0.930 . S
N581 Co561 2.194 . S
N581 C576 1.328 . S
N581 C580 1.315 . S
H582 C576 0.929 . S
H583 C580 0.930 . S
H584 C572 0.929 . S
H585 C574 0.929 . S
O586 Co561 2.351 . S
O586 C589 1.244 . S
O587 Co561 2.155 . S
O587 C589 1.240 . S
O588 Co561 2.096 . S
O588 C569 1.247 . S
C589 O586 1.244 . S
C589 O587 1.240 . S
H590 C564 0.931 . S
H591 C573 0.931 . S
H592 C577 0.929 . S
H593 C579 0.930 . S
H594 C600 0.930 . S
H595 C604 0.930 1_655 S
H596 C609 0.929 . S
H597 C607 0.929 . S
H598 C602 0.929 . S
H599 C608 0.929 . S
C600 H594 0.930 . S
C600 C601 1.367 . S
C600 C608 1.378 . S
C601 C600 1.367 . S
C601 C609 1.433 . S
C602 H598 0.929 . S
C602 C604 1.378 . S
C602 C606 1.350 . S
C603 C606 1.463 . S
C603 C608 1.350 . S
C603 N611 1.427 . S
C604 H595 0.930 1_455 S
C604 C602 1.378 . S
C604 C605 1.367 . S
C605 C604 1.367 . S
C605 C607 1.433 . S
C606 C602 1.350 . S
C606 C603 1.463 . S
C606 N610 1.427 . S
C607 H597 0.929 . S
C607 C605 1.433 . S
C607 N610 1.384 . S
C608 H599 0.929 . S
C608 C600 1.378 . S
C608 C603 1.350 . S
C609 H596 0.929 . S
C609 C601 1.433 . S
C609 N611 1.384 . S
N610 C606 1.427 . S
N610 C607 1.384 . S
N611 C603 1.427 . S
N611 C609 1.384 . S
H612 C618 0.930 . S
H613 C622 0.930 . S
H614 C627 0.929 . S
H615 C625 0.929 . S
H616 C620 0.929 . S
H617 C626 0.929 . S
C618 H612 0.930 . S
C618 C619 1.367 . S
C618 C626 1.378 . S
C619 C618 1.367 . S
C619 C627 1.433 . S
C620 H616 0.929 . S
C620 C622 1.378 . S
C620 C624 1.350 . S
C621 C624 1.463 . S
C621 C626 1.350 . S
C621 N629 1.427 . S
C622 H613 0.930 . S
C622 C620 1.378 . S
C622 C623 1.367 . S
C623 C622 1.367 . S
C623 C625 1.433 . S
C624 C620 1.350 . S
C624 C621 1.463 . S
C624 N628 1.427 . S
C625 H615 0.929 . S
C625 C623 1.433 . S
C625 N628 1.384 . S
C626 H617 0.929 . S
C626 C618 1.378 . S
C626 C621 1.350 . S
C627 H614 0.929 . S
C627 C619 1.433 . S
C627 N629 1.384 . S
N628 C624 1.427 . S
N628 C625 1.384 . S
N629 C621 1.427 . S
N629 C627 1.384 . S
H630 C636 0.930 . S
H631 C640 0.930 . S
H632 C645 0.929 . S
H633 C643 0.929 . S
H634 C638 0.929 . S
H635 C644 0.929 . S
C636 H630 0.930 . S
C636 C637 1.367 . S
C636 C644 1.378 . S
C637 C636 1.367 . S
C637 C645 1.433 . S
C638 H634 0.929 . S
C638 C640 1.378 . S
C638 C642 1.350 . S
C639 C642 1.463 . S
C639 C644 1.350 . S
C639 N647 1.427 . S
C640 H631 0.930 . S
C640 C638 1.378 . S
C640 C641 1.367 . S
C641 C640 1.367 . S
C641 C643 1.433 . S
C642 C638 1.350 . S
C642 C639 1.463 . S
C642 N646 1.427 . S
C643 H633 0.929 . S
C643 C641 1.433 . S
C643 N646 1.384 . S
C644 H635 0.929 . S
C644 C636 1.378 . S
C644 C639 1.350 . S
C645 H632 0.929 . S
C645 C637 1.433 . S
C645 N647 1.384 . S
N646 C642 1.427 . S
N646 C643 1.384 . S
N647 C639 1.427 . S
N647 C645 1.384 . S
H648 C654 0.930 . S
H649 C658 0.930 . S
H650 C663 0.929 . S
H651 C661 0.929 . S
H652 C656 0.929 . S
H653 C662 0.929 . S
C654 H648 0.930 . S
C654 C655 1.367 . S
C654 C662 1.378 . S
C655 C654 1.367 . S
C655 C663 1.433 . S
C656 H652 0.929 . S
C656 C658 1.378 . S
C656 C660 1.350 . S
C657 C660 1.463 . S
C657 C662 1.350 . S
C657 N665 1.427 . S
C658 H649 0.930 . S
C658 C656 1.378 . S
C658 C659 1.367 . S
C659 C658 1.367 . S
C659 C661 1.433 . S
C660 C656 1.350 . S
C660 C657 1.463 . S
C660 N664 1.427 . S
C661 H651 0.929 . S
C661 C659 1.433 . S
C661 N664 1.384 . S
C662 H653 0.929 . S
C662 C654 1.378 . S
C662 C657 1.350 . S
C663 H650 0.929 . S
C663 C655 1.433 . S
C663 N665 1.384 . S
N664 C660 1.427 . S
N664 C661 1.384 . S
N665 C657 1.427 . S
N665 C663 1.384 . S
H666 C672 0.930 . S
H667 C676 0.930 . S
H668 C681 0.929 . S
H669 C679 0.929 . S
H670 C674 0.929 . S
H671 C680 0.929 . S
C672 H666 0.930 . S
C672 C673 1.367 . S
C672 C680 1.378 . S
C673 C672 1.367 . S
C673 C681 1.433 . S
C674 H670 0.929 . S
C674 C676 1.378 . S
C674 C678 1.350 . S
C675 C678 1.463 . S
C675 C680 1.350 . S
C675 N683 1.427 . S
C676 H667 0.930 . S
C676 C674 1.378 . S
C676 C677 1.367 . S
C677 C676 1.367 . S
C677 C679 1.433 . S
C678 C674 1.350 . S
C678 C675 1.463 . S
C678 N682 1.427 . S
C679 H669 0.929 . S
C679 C677 1.433 . S
C679 N682 1.384 . S
C680 H671 0.929 . S
C680 C672 1.378 . S
C680 C675 1.350 . S
C681 H668 0.929 . S
C681 C673 1.433 . S
C681 N683 1.384 . S
N682 C678 1.427 . S
N682 C679 1.384 . S
N683 C675 1.427 . S
N683 C681 1.384 . S
H684 C690 0.930 . S
H685 C694 0.930 . S
H686 C699 0.929 . S
H687 C697 0.929 . S
H688 C692 0.929 . S
H689 C698 0.929 . S
C690 H684 0.930 . S
C690 C691 1.367 . S
C690 C698 1.378 . S
C691 C690 1.367 . S
C691 C699 1.433 . S
C692 H688 0.929 . S
C692 C694 1.378 . S
C692 C696 1.350 . S
C693 C696 1.463 . S
C693 C698 1.350 . S
C693 N701 1.427 . S
C694 H685 0.930 . S
C694 C692 1.378 . S
C694 C695 1.367 . S
C695 C694 1.367 . S
C695 C697 1.433 . S
C696 C692 1.350 . S
C696 C693 1.463 . S
C696 N700 1.427 . S
C697 H687 0.929 . S
C697 C695 1.433 . S
C697 N700 1.384 . S
C698 H689 0.929 . S
C698 C690 1.378 . S
C698 C693 1.350 . S
C699 H686 0.929 . S
C699 C691 1.433 . S
C699 N701 1.384 . S
N700 C696 1.427 . S
N700 C697 1.384 . S
N701 C693 1.427 . S
N701 C699 1.384 . S
H702 C708 0.930 . S
H703 C712 0.930 . S
H704 C717 0.929 . S
H705 C715 0.929 . S
H706 C710 0.929 . S
H707 C716 0.929 . S
C708 H702 0.930 . S
C708 C709 1.367 . S
C708 C716 1.378 . S
C709 C708 1.367 . S
C709 C717 1.433 . S
C710 H706 0.929 . S
C710 C712 1.378 1_556 S
C710 C714 1.350 . S
C711 C714 1.463 . S
C711 C716 1.350 . S
C711 N719 1.427 . S
C712 H703 0.930 . S
C712 C710 1.378 1_554 S
C712 C713 1.367 . S
C713 C712 1.367 . S
C713 C715 1.433 . S
C714 C710 1.350 . S
C714 C711 1.463 . S
C714 N718 1.427 . S
C715 H705 0.929 . S
C715 C713 1.433 . S
C715 N718 1.384 1_554 S
C716 H707 0.929 . S
C716 C708 1.378 . S
C716 C711 1.350 . S
C717 H704 0.929 . S
C717 C709 1.433 . S
C717 N719 1.384 . S
N718 C714 1.427 . S
N718 C715 1.384 1_556 S
N719 C711 1.427 . S
N719 C717 1.384 . S
H720 C726 0.930 . S
H721 C730 0.930 . S
H722 C735 0.929 . S
H723 C733 0.929 . S
H724 C728 0.929 . S
H725 C734 0.929 . S
C726 H720 0.930 . S
C726 C727 1.314 1_565 S
C726 C734 1.378 . S
C727 C726 1.314 1_545 S
C727 C735 1.501 . S
C728 H724 0.929 . S
C728 C730 1.378 1_556 S
C728 C732 1.350 . S
C729 C732 1.463 . S
C729 C734 1.350 1_545 S
C729 N737 1.427 . S
C730 H721 0.930 . S
C730 C728 1.378 1_554 S
C730 C731 1.367 . S
C731 C730 1.367 . S
C731 C733 1.433 1_545 S
C732 C728 1.350 . S
C732 C729 1.463 . S
C732 N736 1.427 1_546 S
C733 H723 0.929 . S
C733 C731 1.433 1_565 S
C733 N736 1.384 . S
C734 H725 0.929 . S
C734 C726 1.378 . S
C734 C729 1.350 1_565 S
C735 H722 0.929 . S
C735 C727 1.501 . S
C735 N737 1.384 . S
N736 C732 1.427 1_564 S
N736 C733 1.384 . S
N737 C729 1.427 . S
N737 C735 1.384 . S
H738 C744 0.930 . S
H739 C748 0.930 . S
H740 C753 0.929 . S
H741 C751 0.929 . S
H742 C746 0.929 . S
H743 C752 0.929 . S
C744 H738 0.930 . S
C744 C745 1.367 . S
C744 C752 1.378 . S
C745 C744 1.367 . S
C745 C753 1.433 . S
C746 H742 0.929 . S
C746 C748 1.378 1_556 S
C746 C750 1.350 . S
C747 C750 1.463 . S
C747 C752 1.350 . S
C747 N755 1.427 . S
C748 H739 0.930 . S
C748 C746 1.378 1_554 S
C748 C749 1.367 . S
C749 C748 1.367 . S
C749 C751 1.433 . S
C750 C746 1.350 . S
C750 C747 1.463 . S
C750 N754 1.427 . S
C751 H741 0.929 . S
C751 C749 1.433 . S
C751 N754 1.384 1_554 S
C752 H743 0.929 . S
C752 C744 1.378 . S
C752 C747 1.350 . S
C753 H740 0.929 . S
C753 C745 1.433 . S
C753 N755 1.384 . S
N754 C750 1.427 . S
N754 C751 1.384 1_556 S
N755 C747 1.427 . S
N755 C753 1.384 . S
H756 C762 0.930 . S
H757 C766 0.930 . S
H758 C771 0.929 . S
H759 C769 0.929 . S
H760 C764 0.929 . S
H761 C770 0.929 . S
C762 H756 0.930 . S
C762 C763 1.339 1_545 S
C762 C770 1.378 1_554 S
C763 C762 1.339 1_565 S
C763 C771 1.462 . S
C764 H760 0.929 . S
C764 C766 1.378 . S
C764 C768 1.350 . S
C765 C768 1.463 . S
C765 C770 1.350 1_565 S
C765 N773 1.427 . S
C766 H757 0.930 . S
C766 C764 1.378 . S
C766 C767 1.367 . S
C767 C766 1.367 . S
C767 C769 1.433 1_565 S
C768 C764 1.350 . S
C768 C765 1.463 . S
C768 N772 1.427 1_565 S
C769 H759 0.929 . S
C769 C767 1.433 1_545 S
C769 N772 1.384 . S
C770 H761 0.929 . S
C770 C762 1.378 1_556 S
C770 C765 1.350 1_545 S
C771 H758 0.929 . S
C771 C763 1.462 . S
C771 N773 1.384 1_554 S
N772 C768 1.427 1_545 S
N772 C769 1.384 . S
N773 C765 1.427 . S
N773 C771 1.384 1_556 S
H774 C780 0.930 . S
H775 C784 0.930 . S
H776 C789 0.929 . S
H777 C787 0.929 . S
H778 C782 0.929 . S
H779 C788 0.929 . S
C780 H774 0.930 . S
C780 C781 1.367 . S
C780 C788 1.378 . S
C781 C780 1.367 . S
C781 C789 1.433 . S
C782 H778 0.929 . S
C782 C784 1.378 1_556 S
C782 C786 1.350 . S
C783 C786 1.463 . S
C783 C788 1.350 . S
C783 N791 1.427 . S
C784 H775 0.930 . S
C784 C782 1.378 1_554 S
C784 C785 1.367 . S
C785 C784 1.367 . S
C785 C787 1.433 . S
C786 C782 1.350 . S
C786 C783 1.463 . S
C786 N790 1.427 . S
C787 H777 0.929 . S
C787 C785 1.433 . S
C787 N790 1.384 1_554 S
C788 H779 0.929 . S
C788 C780 1.378 . S
C788 C783 1.350 . S
C789 H776 0.929 . S
C789 C781 1.433 . S
C789 N791 1.384 . S
N790 C786 1.427 . S
N790 C787 1.384 1_556 S
N791 C783 1.427 . S
N791 C789 1.384 . S
H792 C798 0.930 . S
H793 C802 0.930 . S
H794 C807 0.929 . S
H795 C805 0.929 . S
H796 C800 0.929 . S
H797 C806 0.929 . S
C798 H792 0.930 . S
C798 C799 1.367 . S
C798 C806 1.378 . S
C799 C798 1.367 . S
C799 C807 1.433 . S
C800 H796 0.929 . S
C800 C802 1.378 1_556 S
C800 C804 1.350 . S
C801 C804 1.463 . S
C801 C806 1.350 . S
C801 N809 1.427 . S
C802 H793 0.930 . S
C802 C800 1.378 1_554 S
C802 C803 1.367 . S
C803 C802 1.367 . S
C803 C805 1.433 . S
C804 C800 1.350 . S
C804 C801 1.463 . S
C804 N808 1.427 . S
C805 H795 0.929 . S
C805 C803 1.433 . S
C805 N808 1.384 1_554 S
C806 H797 0.929 . S
C806 C798 1.378 . S
C806 C801 1.350 . S
C807 H794 0.929 . S
C807 C799 1.433 . S
C807 N809 1.384 . S
N808 C804 1.427 . S
N808 C805 1.384 1_556 S
N809 C801 1.427 . S
N809 C807 1.384 . S
H810 C816 0.930 . S
H811 C820 0.930 . S
H812 C825 0.929 . S
H813 C823 0.929 . S
H814 C818 0.929 . S
H815 C824 0.929 . S
C816 H810 0.930 . S
C816 C817 1.367 . S
C816 C824 1.378 . S
C817 C816 1.367 . S
C817 C825 1.433 . S
C818 H814 0.929 . S
C818 C820 1.378 . S
C818 C822 1.350 . S
C819 C822 1.463 . S
C819 C824 1.350 . S
C819 N827 1.427 . S
C820 H811 0.930 . S
C820 C818 1.378 . S
C820 C821 1.367 . S
C821 C820 1.367 . S
C821 C823 1.433 . S
C822 C818 1.350 . S
C822 C819 1.463 . S
C822 N826 1.427 . S
C823 H813 0.929 . S
C823 C821 1.433 . S
C823 N826 1.384 . S
C824 H815 0.929 . S
C824 C816 1.378 . S
C824 C819 1.350 . S
C825 H812 0.929 . S
C825 C817 1.433 . S
C825 N827 1.384 . S
N826 C822 1.427 . S
N826 C823 1.384 . S
N827 C819 1.427 . S
N827 C825 1.384 . S
H828 C834 0.930 . S
H829 C838 0.930 . S
H830 C843 0.929 . S
H831 C841 0.929 . S
H832 C836 0.929 . S
H833 C842 0.929 . S
C834 H828 0.930 . S
C834 C835 1.367 . S
C834 C842 1.378 . S
C835 C834 1.367 . S
C835 C843 1.433 . S
C836 H832 0.929 . S
C836 C838 1.378 . S
C836 C840 1.350 . S
C837 C840 1.463 . S
C837 C842 1.350 . S
C837 N845 1.427 . S
C838 H829 0.930 . S
C838 C836 1.378 . S
C838 C839 1.367 . S
C839 C838 1.367 . S
C839 C841 1.433 . S
C840 C836 1.350 . S
C840 C837 1.463 . S
C840 N844 1.427 . S
C841 H831 0.929 . S
C841 C839 1.433 . S
C841 N844 1.384 . S
C842 H833 0.929 . S
C842 C834 1.378 . S
C842 C837 1.350 . S
C843 H830 0.929 . S
C843 C835 1.433 . S
C843 N845 1.384 . S
N844 C840 1.427 . S
N844 C841 1.384 . S
N845 C837 1.427 . S
N845 C843 1.384 . S
H846 C852 0.930 . S
H847 C856 0.930 . S
H848 C861 0.929 . S
H849 C859 0.929 . S
H850 C854 0.929 . S
H851 C860 0.929 . S
C852 H846 0.930 . S
C852 C853 1.367 . S
C852 C860 1.378 . S
C853 C852 1.367 . S
C853 C861 1.433 . S
C854 H850 0.929 . S
C854 C856 1.378 . S
C854 C858 1.350 . S
C855 C858 1.463 . S
C855 C860 1.350 . S
C855 N863 1.427 . S
C856 H847 0.930 . S
C856 C854 1.378 . S
C856 C857 1.367 . S
C857 C856 1.367 . S
C857 C859 1.433 . S
C858 C854 1.350 . S
C858 C855 1.463 . S
C858 N862 1.427 . S
C859 H849 0.929 . S
C859 C857 1.433 . S
C859 N862 1.384 . S
C860 H851 0.929 . S
C860 C852 1.378 . S
C860 C855 1.350 . S
C861 H848 0.929 . S
C861 C853 1.433 . S
C861 N863 1.384 . S
N862 C858 1.427 . S
N862 C859 1.384 . S
N863 C855 1.427 . S
N863 C861 1.384 . S
H864 C870 0.930 . S
H865 C874 0.930 . S
H866 C879 0.929 . S
H867 C877 0.929 . S
H868 C872 0.929 . S
H869 C878 0.929 . S
C870 H864 0.930 . S
C870 C871 1.367 . S
C870 C878 1.378 . S
C871 C870 1.367 . S
C871 C879 1.433 . S
C872 H868 0.929 . S
C872 C874 1.378 . S
C872 C876 1.350 . S
C873 C876 1.463 . S
C873 C878 1.350 . S
C873 N881 1.427 . S
C874 H865 0.930 . S
C874 C872 1.378 . S
C874 C875 1.367 . S
C875 C874 1.367 . S
C875 C877 1.433 . S
C876 C872 1.350 . S
C876 C873 1.463 . S
C876 N880 1.427 . S
C877 H867 0.929 . S
C877 C875 1.433 . S
C877 N880 1.384 . S
C878 H869 0.929 . S
C878 C870 1.378 . S
C878 C873 1.350 . S
C879 H866 0.929 . S
C879 C871 1.433 . S
C879 N881 1.384 . S
N880 C876 1.427 . S
N880 C877 1.384 . S
N881 C873 1.427 . S
N881 C879 1.384 . S
H882 C888 0.930 . S
H883 C892 0.930 . S
H884 C897 0.929 . S
H885 C895 0.929 . S
H886 C890 0.929 . S
H887 C896 0.929 . S
C888 H882 0.930 . S
C888 C889 1.367 . S
C888 C896 1.378 . S
C889 C888 1.367 . S
C889 C897 1.433 . S
C890 H886 0.929 . S
C890 C892 1.378 . S
C890 C894 1.350 . S
C891 C894 1.463 . S
C891 C896 1.350 . S
C891 N899 1.427 . S
C892 H883 0.930 . S
C892 C890 1.378 . S
C892 C893 1.367 . S
C893 C892 1.367 . S
C893 C895 1.433 . S
C894 C890 1.350 . S
C894 C891 1.463 . S
C894 N898 1.427 . S
C895 H885 0.929 . S
C895 C893 1.433 . S
C895 N898 1.384 . S
C896 H887 0.929 . S
C896 C888 1.378 . S
C896 C891 1.350 . S
C897 H884 0.929 . S
C897 C889 1.433 . S
C897 N899 1.384 . S
N898 C894 1.427 . S
N898 C895 1.384 . S
N899 C891 1.427 . S
N899 C897 1.384 . S
H900 C906 0.930 . S
H901 C910 0.930 . S
H902 C915 0.929 . S
H903 C913 0.929 1_556 S
H904 C908 0.929 . S
H905 C914 0.929 . S
C906 H900 0.930 . S
C906 C907 1.367 . S
C906 C914 1.378 . S
C907 C906 1.367 . S
C907 C915 1.433 . S
C908 H904 0.929 . S
C908 C910 1.378 . S
C908 C912 1.350 . S
C909 C912 1.463 . S
C909 C914 1.350 . S
C909 N917 1.427 . S
C910 H901 0.930 . S
C910 C908 1.378 . S
C910 C911 1.367 . S
C911 C910 1.367 . S
C911 C913 1.433 . S
C912 C908 1.350 . S
C912 C909 1.463 . S
C912 N916 1.427 . S
C913 H903 0.929 1_554 S
C913 C911 1.433 . S
C913 N916 1.384 . S
C914 H905 0.929 . S
C914 C906 1.378 . S
C914 C909 1.350 . S
C915 H902 0.929 . S
C915 C907 1.433 . S
C915 N917 1.384 . S
N916 C912 1.427 . S
N916 C913 1.384 . S
N917 C909 1.427 . S
N917 C915 1.384 . S
H918 C924 0.930 . S
H919 C928 0.930 . S
H920 C933 0.929 . S
H921 C931 0.929 . S
H922 C926 0.929 . S
H923 C932 0.929 . S
C924 H918 0.930 . S
C924 C925 1.367 1_556 S
C924 C932 1.378 . S
C925 C924 1.367 1_554 S
C925 C933 1.433 . S
C926 H922 0.929 . S
C926 C928 1.378 . S
C926 C930 1.350 . S
C927 C930 1.463 . S
C927 C932 1.350 1_554 S
C927 N935 1.427 . S
C928 H919 0.930 . S
C928 C926 1.378 . S
C928 C929 1.367 . S
C929 C928 1.367 . S
C929 C931 1.433 1_554 S
C930 C926 1.350 . S
C930 C927 1.463 . S
C930 N934 1.427 1_554 S
C931 H921 0.929 . S
C931 C929 1.433 1_556 S
C931 N934 1.384 . S
C932 H923 0.929 . S
C932 C924 1.378 . S
C932 C927 1.350 1_556 S
C933 H920 0.929 . S
C933 C925 1.433 . S
C933 N935 1.384 . S
N934 C930 1.427 1_556 S
N934 C931 1.384 . S
N935 C927 1.427 . S
N935 C933 1.384 . S
H936 C942 0.930 1_556 S
H937 C946 0.930 . S
H938 C951 0.929 . S
H939 C949 0.929 1_556 S
H940 C944 0.929 . S
H941 C950 0.929 1_556 S
C942 H936 0.930 1_554 S
C942 C943 1.367 . S
C942 C950 1.378 . S
C943 C942 1.367 . S
C943 C951 1.433 . S
C944 H940 0.929 . S
C944 C946 1.378 . S
C944 C948 1.350 . S
C945 C948 1.463 . S
C945 C950 1.350 . S
C945 N953 1.427 . S
C946 H937 0.930 . S
C946 C944 1.378 . S
C946 C947 1.367 . S
C947 C946 1.367 . S
C947 C949 1.433 . S
C948 C944 1.350 . S
C948 C945 1.463 . S
C948 N952 1.427 . S
C949 H939 0.929 1_554 S
C949 C947 1.433 . S
C949 N952 1.384 . S
C950 H941 0.929 1_554 S
C950 C942 1.378 . S
C950 C945 1.350 . S
C951 H938 0.929 . S
C951 C943 1.433 . S
C951 N953 1.384 . S
N952 C948 1.427 . S
N952 C949 1.384 . S
N953 C945 1.427 . S
N953 C951 1.384 . S
H954 C960 0.930 . S
H955 C964 0.930 . S
H956 C969 0.929 1_556 S
H957 C967 0.929 . S
H958 C962 0.929 . S
H959 C968 0.929 . S
C960 H954 0.930 . S
C960 C961 1.367 . S
C960 C968 1.378 . S
C961 C960 1.367 . S
C961 C969 1.433 . S
C962 H958 0.929 . S
C962 C964 1.378 . S
C962 C966 1.350 . S
C963 C966 1.463 . S
C963 C968 1.350 . S
C963 N971 1.427 . S
C964 H955 0.930 . S
C964 C962 1.378 . S
C964 C965 1.367 . S
C965 C964 1.367 . S
C965 C967 1.433 . S
C966 C962 1.350 . S
C966 C963 1.463 . S
C966 N970 1.427 . S
C967 H957 0.929 . S
C967 C965 1.433 . S
C967 N970 1.384 . S
C968 H959 0.929 . S
C968 C960 1.378 . S
C968 C963 1.350 . S
C969 H956 0.929 1_554 S
C969 C961 1.433 . S
C969 N971 1.384 . S
N970 C966 1.427 . S
N970 C967 1.384 . S
N971 C963 1.427 . S
N971 C969 1.384 . S
H972 C978 0.930 . S
H973 C982 0.930 . S
H974 C987 0.929 . S
H975 C985 0.929 . S
H976 C980 0.929 . S
H977 C986 0.929 . S
C978 H972 0.930 . S
C978 C979 1.367 . S
C978 C986 1.378 . S
C979 C978 1.367 . S
C979 C987 1.433 . S
C980 H976 0.929 . S
C980 C982 1.378 . S
C980 C984 1.350 . S
C981 C984 1.463 . S
C981 C986 1.350 . S
C981 N989 1.427 . S
C982 H973 0.930 . S
C982 C980 1.378 . S
C982 C983 1.367 . S
C983 C982 1.367 . S
C983 C985 1.433 . S
C984 C980 1.350 . S
C984 C981 1.463 . S
C984 N988 1.427 . S
C985 H975 0.929 . S
C985 C983 1.433 . S
C985 N988 1.384 . S
C986 H977 0.929 . S
C986 C978 1.378 . S
C986 C981 1.350 . S
C987 H974 0.929 . S
C987 C979 1.433 . S
C987 N989 1.384 . S
N988 C984 1.427 . S
N988 C985 1.384 . S
N989 C981 1.427 . S
N989 C987 1.384 . S
H990 C996 0.930 . S
H991 C1000 0.930 . S
H992 C1005 0.929 . S
H993 C1003 0.929 . S
H994 C998 0.929 . S
H995 C1004 0.929 . S
C996 H990 0.930 . S
C996 C997 1.367 . S
C996 C1004 1.378 . S
C997 C996 1.367 . S
C997 C1005 1.433 . S
C998 H994 0.929 . S
C998 C1000 1.378 . S
C998 C1002 1.350 . S
C999 C1002 1.463 . S
C999 C1004 1.350 . S
C999 N1007 1.427 . S
C1000 H991 0.930 . S
C1000 C998 1.378 . S
C1000 C1001 1.367 . S
C1001 C1000 1.367 . S
C1001 C1003 1.433 . S
C1002 C998 1.350 . S
C1002 C999 1.463 . S
C1002 N1006 1.427 . S
C1003 H993 0.929 . S
C1003 C1001 1.433 . S
C1003 N1006 1.384 . S
C1004 H995 0.929 . S
C1004 C996 1.378 . S
C1004 C999 1.350 . S
C1005 H992 0.929 . S
C1005 C997 1.433 . S
C1005 N1007 1.384 . S
N1006 C1002 1.427 . S
N1006 C1003 1.384 . S
N1007 C999 1.427 . S
N1007 C1005 1.384 . S
H1008 C1014 0.930 . S
H1009 C1018 0.930 . S
H1010 C1023 0.929 . S
H1011 C1021 0.929 . S
H1012 C1016 0.929 . S
H1013 C1022 0.929 . S
C1014 H1008 0.930 . S
C1014 C1015 1.367 . S
C1014 C1022 1.378 . S
C1015 C1014 1.367 . S
C1015 C1023 1.433 . S
C1016 H1012 0.929 . S
C1016 C1018 1.378 . S
C1016 C1020 1.350 . S
C1017 C1020 1.463 . S
C1017 C1022 1.350 . S
C1017 N1025 1.427 . S
C1018 H1009 0.930 . S
C1018 C1016 1.378 . S
C1018 C1019 1.367 . S
C1019 C1018 1.367 . S
C1019 C1021 1.433 . S
C1020 C1016 1.350 . S
C1020 C1017 1.463 . S
C1020 N1024 1.427 . S
C1021 H1011 0.929 . S
C1021 C1019 1.433 . S
C1021 N1024 1.384 . S
C1022 H1013 0.929 . S
C1022 C1014 1.378 . S
C1022 C1017 1.350 . S
C1023 H1010 0.929 . S
C1023 C1015 1.433 . S
C1023 N1025 1.384 . S
N1024 C1020 1.427 . S
N1024 C1021 1.384 . S
N1025 C1017 1.427 . S
N1025 C1023 1.384 . S
H1026 C1032 0.930 . S
H1027 C1036 0.930 . S
H1028 C1041 0.929 . S
H1029 C1039 0.929 . S
H1030 C1034 0.929 . S
H1031 C1040 0.929 . S
C1032 H1026 0.930 . S
C1032 C1033 1.367 . S
C1032 C1040 1.378 . S
C1033 C1032 1.367 . S
C1033 C1041 1.433 . S
C1034 H1030 0.929 . S
C1034 C1036 1.378 . S
C1034 C1038 1.350 . S
C1035 C1038 1.463 . S
C1035 C1040 1.350 . S
C1035 N1043 1.427 . S
C1036 H1027 0.930 . S
C1036 C1034 1.378 . S
C1036 C1037 1.367 . S
C1037 C1036 1.367 . S
C1037 C1039 1.433 . S
C1038 C1034 1.350 . S
C1038 C1035 1.463 . S
C1038 N1042 1.427 . S
C1039 H1029 0.929 . S
C1039 C1037 1.433 . S
C1039 N1042 1.384 . S
C1040 H1031 0.929 . S
C1040 C1032 1.378 . S
C1040 C1035 1.350 . S
C1041 H1028 0.929 . S
C1041 C1033 1.433 . S
C1041 N1043 1.384 . S
N1042 C1038 1.427 . S
N1042 C1039 1.384 . S
N1043 C1035 1.427 . S
N1043 C1041 1.384 . S
H1044 C1050 0.930 . S
H1045 C1054 0.930 . S
H1046 C1059 0.929 . S
H1047 C1057 0.929 . S
H1048 C1052 0.929 . S
H1049 C1058 0.929 . S
C1050 H1044 0.930 . S
C1050 C1051 1.367 . S
C1050 C1058 1.378 . S
C1051 C1050 1.367 . S
C1051 C1059 1.433 . S
C1052 H1048 0.929 . S
C1052 C1054 1.378 . S
C1052 C1056 1.350 . S
C1053 C1056 1.463 . S
C1053 C1058 1.350 . S
C1053 N1061 1.427 . S
C1054 H1045 0.930 . S
C1054 C1052 1.378 . S
C1054 C1055 1.367 . S
C1055 C1054 1.367 . S
C1055 C1057 1.433 . S
C1056 C1052 1.350 . S
C1056 C1053 1.463 . S
C1056 N1060 1.427 . S
C1057 H1047 0.929 . S
C1057 C1055 1.433 . S
C1057 N1060 1.384 . S
C1058 H1049 0.929 . S
C1058 C1050 1.378 . S
C1058 C1053 1.350 . S
C1059 H1046 0.929 . S
C1059 C1051 1.433 . S
C1059 N1061 1.384 . S
N1060 C1056 1.427 . S
N1060 C1057 1.384 . S
N1061 C1053 1.427 . S
N1061 C1059 1.384 . S
H1062 C1068 0.930 . S
H1063 C1072 0.930 . S
H1064 C1077 0.929 . S
H1065 C1075 0.929 . S
H1066 C1070 0.929 . S
H1067 C1076 0.929 . S
C1068 H1062 0.930 . S
C1068 C1069 1.367 . S
C1068 C1076 1.378 . S
C1069 C1068 1.367 . S
C1069 C1077 1.433 . S
C1070 H1066 0.929 . S
C1070 C1072 1.378 . S
C1070 C1074 1.350 . S
C1071 C1074 1.463 . S
C1071 C1076 1.350 . S
C1071 N1079 1.427 . S
C1072 H1063 0.930 . S
C1072 C1070 1.378 . S
C1072 C1073 1.367 . S
C1073 C1072 1.367 . S
C1073 C1075 1.433 . S
C1074 C1070 1.350 . S
C1074 C1071 1.463 . S
C1074 N1078 1.427 . S
C1075 H1065 0.929 . S
C1075 C1073 1.433 . S
C1075 N1078 1.384 . S
C1076 H1067 0.929 . S
C1076 C1068 1.378 . S
C1076 C1071 1.350 . S
C1077 H1064 0.929 . S
C1077 C1069 1.433 . S
C1077 N1079 1.384 . S
N1078 C1074 1.427 . S
N1078 C1075 1.384 . S
N1079 C1071 1.427 . S
N1079 C1077 1.384 . S
H1080 C1086 0.930 . S
H1081 C1090 0.930 . S
H1082 C1095 0.929 . S
H1083 C1093 0.929 . S
H1084 C1088 0.929 . S
H1085 C1094 0.929 . S
C1086 H1080 0.930 . S
C1086 C1087 1.367 . S
C1086 C1094 1.378 . S
C1087 C1086 1.367 . S
C1087 C1095 1.433 . S
C1088 H1084 0.929 . S
C1088 C1090 1.378 . S
C1088 C1092 1.350 . S
C1089 C1092 1.463 . S
C1089 C1094 1.350 . S
C1089 N1097 1.427 . S
C1090 H1081 0.930 . S
C1090 C1088 1.378 . S
C1090 C1091 1.367 . S
C1091 C1090 1.367 . S
C1091 C1093 1.433 . S
C1092 C1088 1.350 . S
C1092 C1089 1.463 . S
C1092 N1096 1.427 . S
C1093 H1083 0.929 . S
C1093 C1091 1.433 . S
C1093 N1096 1.384 . S
C1094 H1085 0.929 . S
C1094 C1086 1.378 . S
C1094 C1089 1.350 . S
C1095 H1082 0.929 . S
C1095 C1087 1.433 . S
C1095 N1097 1.384 . S
N1096 C1092 1.427 . S
N1096 C1093 1.384 . S
N1097 C1089 1.427 . S
N1097 C1095 1.384 . S
H1098 C1104 0.930 . S
H1099 C1108 0.930 . S
H1100 C1113 0.929 . S
H1101 C1111 0.929 . S
H1102 C1106 0.929 . S
H1103 C1112 0.929 . S
C1104 H1098 0.930 . S
C1104 C1105 1.367 . S
C1104 C1112 1.378 . S
C1105 C1104 1.367 . S
C1105 C1113 1.433 . S
C1106 H1102 0.929 . S
C1106 C1108 1.378 . S
C1106 C1110 1.350 . S
C1107 C1110 1.463 . S
C1107 C1112 1.350 . S
C1107 N1115 1.427 . S
C1108 H1099 0.930 . S
C1108 C1106 1.378 . S
C1108 C1109 1.367 . S
C1109 C1108 1.367 . S
C1109 C1111 1.433 . S
C1110 C1106 1.350 . S
C1110 C1107 1.463 . S
C1110 N1114 1.427 . S
C1111 H1101 0.929 . S
C1111 C1109 1.433 . S
C1111 N1114 1.384 . S
C1112 H1103 0.929 . S
C1112 C1104 1.378 . S
C1112 C1107 1.350 . S
C1113 H1100 0.929 . S
C1113 C1105 1.433 . S
C1113 N1115 1.384 . S
N1114 C1110 1.427 . S
N1114 C1111 1.384 . S
N1115 C1107 1.427 . S
N1115 C1113 1.384 . S
H1116 C1122 0.930 . S
H1117 C1126 0.930 . S
H1118 C1131 0.929 . S
H1119 C1129 0.909 1_565 S
H1120 C1124 0.929 . S
H1121 C1130 0.929 . S
C1122 H1116 0.930 . S
C1122 C1123 1.367 . S
C1122 C1130 1.378 . S
C1123 C1122 1.367 . S
C1123 C1131 1.433 . S
C1124 H1120 0.929 . S
C1124 C1126 1.378 . S
C1124 C1128 1.350 . S
C1125 C1128 1.463 . S
C1125 C1130 1.350 . S
C1125 N1133 1.427 . S
C1126 H1117 0.930 . S
C1126 C1124 1.378 . S
C1126 C1127 1.367 . S
C1127 C1126 1.367 . S
C1127 C1129 1.453 . S
C1128 C1124 1.350 . S
C1128 C1125 1.463 . S
C1128 N1132 1.427 . S
C1129 H1119 0.909 1_545 S
C1129 C1127 1.453 . S
C1129 N1132 1.386 . S
C1130 H1121 0.929 . S
C1130 C1122 1.378 . S
C1130 C1125 1.350 . S
C1131 H1118 0.929 . S
C1131 C1123 1.433 . S
C1131 N1133 1.384 . S
N1132 C1128 1.427 . S
N1132 C1129 1.386 . S
N1133 C1125 1.427 . S
N1133 C1131 1.384 . S
H1134 C1140 0.930 . S
H1135 C1144 0.930 . S
H1136 C1149 0.929 . S
H1137 C1147 0.929 . S
H1138 C1142 0.929 . S
H1139 C1148 0.929 . S
C1140 H1134 0.930 . S
C1140 C1141 1.367 . S
C1140 C1148 1.378 . S
C1141 C1140 1.367 . S
C1141 C1149 1.433 1_554 S
C1142 H1138 0.929 . S
C1142 C1144 1.378 . S
C1142 C1146 1.350 . S
C1143 C1146 1.463 . S
C1143 C1148 1.350 1_556 S
C1143 N1151 1.427 . S
C1144 H1135 0.930 . S
C1144 C1142 1.378 . S
C1144 C1145 1.367 . S
C1145 C1144 1.367 . S
C1145 C1147 1.433 . S
C1146 C1142 1.350 . S
C1146 C1143 1.463 . S
C1146 N1150 1.427 . S
C1147 H1137 0.929 . S
C1147 C1145 1.433 . S
C1147 N1150 1.384 . S
C1148 H1139 0.929 . S
C1148 C1140 1.378 . S
C1148 C1143 1.350 1_554 S
C1149 H1136 0.929 . S
C1149 C1141 1.433 1_556 S
C1149 N1151 1.384 . S
N1150 C1146 1.427 . S
N1150 C1147 1.384 . S
N1151 C1143 1.427 . S
N1151 C1149 1.384 . S
H1152 C1158 0.930 . S
H1153 C1162 0.930 . S
H1154 C1167 0.929 1_455 S
H1155 C1165 0.929 . S
H1156 C1160 0.929 . S
H1157 C1166 0.929 . S
C1158 H1152 0.930 . S
C1158 C1159 1.367 1_554 S
C1158 C1166 1.378 1_554 S
C1159 C1158 1.367 1_556 S
C1159 C1167 1.433 . S
C1160 H1156 0.929 . S
C1160 C1162 1.378 . S
C1160 C1164 1.350 . S
C1161 C1164 1.463 . S
C1161 C1166 1.350 . S
C1161 N1169 1.427 . S
C1162 H1153 0.930 . S
C1162 C1160 1.378 . S
C1162 C1163 1.367 . S
C1163 C1162 1.367 . S
C1163 C1165 1.433 . S
C1164 C1160 1.350 . S
C1164 C1161 1.463 . S
C1164 N1168 1.427 . S
C1165 H1155 0.929 . S
C1165 C1163 1.433 . S
C1165 N1168 1.384 . S
C1166 H1157 0.929 . S
C1166 C1158 1.378 1_556 S
C1166 C1161 1.350 . S
C1167 H1154 0.929 1_655 S
C1167 C1159 1.433 . S
C1167 N1169 1.384 . S
N1168 C1164 1.427 . S
N1168 C1165 1.384 . S
N1169 C1161 1.427 . S
N1169 C1167 1.384 . S
H1170 C1176 0.930 . S
H1171 C1180 0.930 . S
H1172 C1185 0.929 . S
H1173 C1183 0.929 1_554 S
H1174 C1178 0.929 . S
H1175 C1184 0.929 . S
C1176 H1170 0.930 . S
C1176 C1177 1.367 . S
C1176 C1184 1.378 . S
C1177 C1176 1.367 . S
C1177 C1185 1.433 . S
C1178 H1174 0.929 . S
C1178 C1180 1.378 . S
C1178 C1182 1.350 . S
C1179 C1182 1.463 . S
C1179 C1184 1.350 . S
C1179 N1187 1.427 . S
C1180 H1171 0.930 . S
C1180 C1178 1.378 . S
C1180 C1181 1.367 . S
C1181 C1180 1.367 . S
C1181 C1183 1.433 . S
C1182 C1178 1.350 . S
C1182 C1179 1.463 . S
C1182 N1186 1.427 . S
C1183 H1173 0.929 1_556 S
C1183 C1181 1.433 . S
C1183 N1186 1.384 . S
C1184 H1175 0.929 . S
C1184 C1176 1.378 . S
C1184 C1179 1.350 . S
C1185 H1172 0.929 . S
C1185 C1177 1.433 . S
C1185 N1187 1.384 . S
N1186 C1182 1.427 . S
N1186 C1183 1.384 . S
N1187 C1179 1.427 . S
N1187 C1185 1.384 . S
H1188 C1194 0.930 . S
H1189 C1198 0.930 . S
H1190 C1203 0.929 . S
H1191 C1201 0.929 . S
H1192 C1196 0.929 . S
H1193 C1202 0.929 . S
C1194 H1188 0.930 . S
C1194 C1195 1.367 . S
C1194 C1202 1.378 . S
C1195 C1194 1.367 . S
C1195 C1203 1.433 1_455 S
C1196 H1192 0.929 . S
C1196 C1198 1.378 . S
C1196 C1200 1.350 . S
C1197 C1200 1.463 . S
C1197 C1202 1.350 1_655 S
C1197 N1205 1.427 . S
C1198 H1189 0.930 . S
C1198 C1196 1.378 . S
C1198 C1199 1.367 . S
C1199 C1198 1.367 . S
C1199 C1201 1.433 . S
C1200 C1196 1.350 . S
C1200 C1197 1.463 . S
C1200 N1204 1.427 . S
C1201 H1191 0.929 . S
C1201 C1199 1.433 . S
C1201 N1204 1.384 . S
C1202 H1193 0.929 . S
C1202 C1194 1.378 . S
C1202 C1197 1.350 1_455 S
C1203 H1190 0.929 . S
C1203 C1195 1.433 1_655 S
C1203 N1205 1.384 . S
N1204 C1200 1.427 . S
N1204 C1201 1.384 . S
N1205 C1197 1.427 . S
N1205 C1203 1.384 . S
H1206 C1212 0.930 . S
H1207 C1216 0.930 . S
H1208 C1221 0.929 . S
H1209 C1219 0.929 . S
H1210 C1214 0.929 . S
H1211 C1220 0.929 . S
C1212 H1206 0.930 . S
C1212 C1213 1.367 . S
C1212 C1220 1.378 . S
C1213 C1212 1.367 . S
C1213 C1221 1.433 1_556 S
C1214 H1210 0.929 . S
C1214 C1216 1.378 . S
C1214 C1218 1.350 . S
C1215 C1218 1.463 . S
C1215 C1220 1.350 . S
C1215 N1223 1.427 . S
C1216 H1207 0.930 . S
C1216 C1214 1.378 . S
C1216 C1217 1.367 . S
C1217 C1216 1.367 . S
C1217 C1219 1.433 . S
C1218 C1214 1.350 . S
C1218 C1215 1.463 . S
C1218 N1222 1.427 . S
C1219 H1209 0.929 . S
C1219 C1217 1.433 . S
C1219 N1222 1.384 . S
C1220 H1211 0.929 . S
C1220 C1212 1.378 . S
C1220 C1215 1.350 . S
C1221 H1208 0.929 . S
C1221 C1213 1.433 1_554 S
C1221 N1223 1.384 1_554 S
N1222 C1218 1.427 . S
N1222 C1219 1.384 . S
N1223 C1215 1.427 . S
N1223 C1221 1.384 1_556 S
H1224 C1230 0.930 . S
H1225 C1234 0.930 1_554 S
H1226 C1239 0.929 . S
H1227 C1237 0.929 . S
H1228 C1232 0.929 . S
H1229 C1238 0.929 . S
C1230 H1224 0.930 . S
C1230 C1231 1.367 . S
C1230 C1238 1.378 . S
C1231 C1230 1.367 . S
C1231 C1239 1.433 . S
C1232 H1228 0.929 . S
C1232 C1234 1.378 . S
C1232 C1236 1.350 . S
C1233 C1236 1.463 . S
C1233 C1238 1.350 . S
C1233 N1241 1.427 . S
C1234 H1225 0.930 1_556 S
C1234 C1232 1.378 . S
C1234 C1235 1.367 . S
C1235 C1234 1.367 . S
C1235 C1237 1.433 . S
C1236 C1232 1.350 . S
C1236 C1233 1.463 . S
C1236 N1240 1.427 . S
C1237 H1227 0.929 . S
C1237 C1235 1.433 . S
C1237 N1240 1.384 . S
C1238 H1229 0.929 . S
C1238 C1230 1.378 . S
C1238 C1233 1.350 . S
C1239 H1226 0.929 . S
C1239 C1231 1.433 . S
C1239 N1241 1.384 . S
N1240 C1236 1.427 . S
N1240 C1237 1.384 . S
N1241 C1233 1.427 . S
N1241 C1239 1.384 . S
H1242 C1248 0.930 . S
H1243 C1252 0.930 . S
H1244 C1257 0.929 1_545 S
H1245 C1255 0.929 . S
H1246 C1250 0.929 . S
H1247 C1256 0.929 . S
C1248 H1242 0.930 . S
C1248 C1249 1.367 . S
C1248 C1256 1.378 . S
C1249 C1248 1.367 . S
C1249 C1257 1.433 . S
C1250 H1246 0.929 . S
C1250 C1252 1.378 . S
C1250 C1254 1.350 . S
C1251 C1254 1.463 1_565 S
C1251 C1256 1.349 . S
C1251 N1259 1.427 1_565 S
C1252 H1243 0.930 . S
C1252 C1250 1.378 . S
C1252 C1253 1.367 . S
C1253 C1252 1.367 . S
C1253 C1255 1.433 . S
C1254 C1250 1.350 . S
C1254 C1251 1.463 1_545 S
C1254 N1258 1.427 . S
C1255 H1245 0.929 . S
C1255 C1253 1.433 . S
C1255 N1258 1.384 . S
C1256 H1247 0.929 . S
C1256 C1248 1.378 . S
C1256 C1251 1.349 . S
C1257 H1244 0.929 1_565 S
C1257 C1249 1.433 . S
C1257 N1259 1.384 1_565 S
N1258 C1254 1.427 . S
N1258 C1255 1.384 . S
N1259 C1251 1.427 1_545 S
N1259 C1257 1.384 1_545 S
H1260 C1266 0.930 . S
H1261 C1270 0.930 . S
H1262 C1275 0.929 . S
H1263 C1273 0.929 . S
H1264 C1268 0.929 . S
H1265 C1274 0.929 . S
C1266 H1260 0.930 . S
C1266 C1267 1.367 . S
C1266 C1274 1.378 . S
C1267 C1266 1.367 . S
C1267 C1275 1.433 . S
C1268 H1264 0.929 . S
C1268 C1270 1.378 . S
C1268 C1272 1.350 . S
C1269 C1272 1.463 . S
C1269 C1274 1.350 . S
C1269 N1277 1.427 . S
C1270 H1261 0.930 . S
C1270 C1268 1.378 . S
C1270 C1271 1.367 . S
C1271 C1270 1.367 . S
C1271 C1273 1.433 . S
C1272 C1268 1.350 . S
C1272 C1269 1.463 . S
C1272 N1276 1.427 . S
C1273 H1263 0.929 . S
C1273 C1271 1.433 . S
C1273 N1276 1.384 . S
C1274 H1265 0.929 . S
C1274 C1266 1.378 . S
C1274 C1269 1.350 . S
C1275 H1262 0.929 . S
C1275 C1267 1.433 . S
C1275 N1277 1.384 . S
N1276 C1272 1.427 . S
N1276 C1273 1.384 . S
N1277 C1269 1.427 . S
N1277 C1275 1.384 . S
H1278 C1284 0.930 . S
H1279 C1288 0.930 . S
H1280 C1293 0.929 . S
H1281 C1291 0.929 . S
H1282 C1286 0.929 . S
H1283 C1292 0.929 . S
C1284 H1278 0.930 . S
C1284 C1285 1.367 . S
C1284 C1292 1.378 . S
C1285 C1284 1.367 . S
C1285 C1293 1.433 . S
C1286 H1282 0.929 . S
C1286 C1288 1.378 . S
C1286 C1290 1.350 . S
C1287 C1290 1.463 . S
C1287 C1292 1.350 . S
C1287 N1295 1.427 . S
C1288 H1279 0.930 . S
C1288 C1286 1.378 . S
C1288 C1289 1.367 . S
C1289 C1288 1.367 . S
C1289 C1291 1.433 . S
C1290 C1286 1.350 . S
C1290 C1287 1.463 . S
C1290 N1294 1.427 . S
C1291 H1281 0.929 . S
C1291 C1289 1.433 . S
C1291 N1294 1.384 . S
C1292 H1283 0.929 . S
C1292 C1284 1.378 . S
C1292 C1287 1.350 . S
C1293 H1280 0.929 . S
C1293 C1285 1.433 . S
C1293 N1295 1.384 . S
N1294 C1290 1.427 . S
N1294 C1291 1.384 . S
N1295 C1287 1.427 . S
N1295 C1293 1.384 . S
H1296 C1302 0.930 . S
H1297 C1306 0.930 . S
H1298 C1311 0.929 . S
H1299 C1309 0.929 . S
H1300 C1304 0.929 . S
H1301 C1310 0.929 . S
C1302 H1296 0.930 . S
C1302 C1303 1.367 . S
C1302 C1310 1.378 . S
C1303 C1302 1.367 . S
C1303 C1311 1.433 . S
C1304 H1300 0.929 . S
C1304 C1306 1.378 . S
C1304 C1308 1.350 . S
C1305 C1308 1.463 . S
C1305 C1310 1.350 . S
C1305 N1313 1.427 . S
C1306 H1297 0.930 . S
C1306 C1304 1.378 . S
C1306 C1307 1.367 . S
C1307 C1306 1.367 . S
C1307 C1309 1.433 . S
C1308 C1304 1.350 . S
C1308 C1305 1.463 . S
C1308 N1312 1.427 . S
C1309 H1299 0.929 . S
C1309 C1307 1.433 . S
C1309 N1312 1.384 . S
C1310 H1301 0.929 . S
C1310 C1302 1.378 . S
C1310 C1305 1.350 . S
C1311 H1298 0.929 . S
C1311 C1303 1.433 . S
C1311 N1313 1.384 . S
N1312 C1308 1.427 . S
N1312 C1309 1.384 . S
N1313 C1305 1.427 . S
N1313 C1311 1.384 . S
H1314 C1320 0.930 . S
H1315 C1324 0.930 . S
H1316 C1329 0.929 . S
H1317 C1327 0.929 . S
H1318 C1322 0.929 . S
H1319 C1328 0.929 . S
C1320 H1314 0.930 . S
C1320 C1321 1.367 . S
C1320 C1328 1.378 . S
C1321 C1320 1.367 . S
C1321 C1329 1.433 . S
C1322 H1318 0.929 . S
C1322 C1324 1.378 . S
C1322 C1326 1.350 . S
C1323 C1326 1.463 . S
C1323 C1328 1.350 . S
C1323 N1331 1.427 . S
C1324 H1315 0.930 . S
C1324 C1322 1.378 . S
C1324 C1325 1.367 . S
C1325 C1324 1.367 . S
C1325 C1327 1.433 . S
C1326 C1322 1.350 . S
C1326 C1323 1.463 . S
C1326 N1330 1.427 . S
C1327 H1317 0.929 . S
C1327 C1325 1.433 . S
C1327 N1330 1.384 . S
C1328 H1319 0.929 . S
C1328 C1320 1.378 . S
C1328 C1323 1.350 . S
C1329 H1316 0.929 . S
C1329 C1321 1.433 . S
C1329 N1331 1.384 . S
N1330 C1326 1.427 . S
N1330 C1327 1.384 . S
N1331 C1323 1.427 . S
N1331 C1329 1.384 . S
H1332 C1338 0.930 . S
H1333 C1342 0.930 . S
H1334 C1347 0.929 . S
H1335 C1345 0.929 . S
H1336 C1340 0.929 . S
H1337 C1346 0.929 . S
C1338 H1332 0.930 . S
C1338 C1339 1.367 . S
C1338 C1346 1.378 . S
C1339 C1338 1.367 . S
C1339 C1347 1.433 . S
C1340 H1336 0.929 . S
C1340 C1342 1.378 1_455 S
C1340 C1344 1.350 . S
C1341 C1344 1.463 . S
C1341 C1346 1.350 . S
C1341 N1349 1.427 . S
C1342 H1333 0.930 . S
C1342 C1340 1.378 1_655 S
C1342 C1343 1.367 . S
C1343 C1342 1.367 . S
C1343 C1345 1.440 . S
C1344 C1340 1.350 . S
C1344 C1341 1.463 . S
C1344 N1348 1.427 . S
C1345 H1335 0.929 . S
C1345 C1343 1.440 . S
C1345 N1348 1.377 1_655 S
C1346 H1337 0.929 . S
C1346 C1338 1.378 . S
C1346 C1341 1.350 . S
C1347 H1334 0.929 . S
C1347 C1339 1.433 . S
C1347 N1349 1.384 . S
N1348 C1344 1.427 . S
N1348 C1345 1.377 1_455 S
N1349 C1341 1.427 . S
N1349 C1347 1.384 . S
H1350 C1356 0.930 . S
H1351 C1360 0.930 . S
H1352 C1365 0.929 . S
H1353 C1363 0.929 . S
H1354 C1358 0.929 . S
H1355 C1364 0.929 . S
C1356 H1350 0.930 . S
C1356 C1357 1.367 . S
C1356 C1364 1.378 . S
C1357 C1356 1.367 . S
C1357 C1365 1.433 . S
C1358 H1354 0.929 . S
C1358 C1360 1.378 . S
C1358 C1362 1.350 . S
C1359 C1362 1.463 . S
C1359 C1364 1.350 . S
C1359 N1367 1.427 . S
C1360 H1351 0.930 . S
C1360 C1358 1.378 . S
C1360 C1361 1.367 . S
C1361 C1360 1.367 . S
C1361 C1363 1.433 . S
C1362 C1358 1.350 . S
C1362 C1359 1.463 . S
C1362 N1366 1.427 . S
C1363 H1353 0.929 . S
C1363 C1361 1.433 . S
C1363 N1366 1.384 . S
C1364 H1355 0.929 . S
C1364 C1356 1.378 . S
C1364 C1359 1.350 . S
C1365 H1352 0.929 . S
C1365 C1357 1.433 . S
C1365 N1367 1.384 . S
N1366 C1362 1.427 . S
N1366 C1363 1.384 . S
N1367 C1359 1.427 . S
N1367 C1365 1.384 . S
H1368 C1374 0.930 . S
H1369 C1378 0.930 . S
H1370 C1383 0.929 . S
H1371 C1381 0.929 . S
H1372 C1376 0.929 . S
H1373 C1382 0.929 . S
C1374 H1368 0.930 . S
C1374 C1375 1.367 . S
C1374 C1382 1.378 . S
C1375 C1374 1.367 . S
C1375 C1383 1.433 . S
C1376 H1372 0.929 . S
C1376 C1378 1.378 . S
C1376 C1380 1.350 . S
C1377 C1380 1.463 . S
C1377 C1382 1.350 . S
C1377 N1385 1.427 . S
C1378 H1369 0.930 . S
C1378 C1376 1.378 . S
C1378 C1379 1.367 . S
C1379 C1378 1.367 . S
C1379 C1381 1.433 . S
C1380 C1376 1.350 . S
C1380 C1377 1.463 . S
C1380 N1384 1.427 . S
C1381 H1371 0.929 . S
C1381 C1379 1.433 . S
C1381 N1384 1.384 . S
C1382 H1373 0.929 . S
C1382 C1374 1.378 . S
C1382 C1377 1.350 . S
C1383 H1370 0.929 . S
C1383 C1375 1.433 . S
C1383 N1385 1.384 . S
N1384 C1380 1.427 . S
N1384 C1381 1.384 . S
N1385 C1377 1.427 . S
N1385 C1383 1.384 . S
H1386 C1392 0.930 . S
H1387 C1396 0.930 . S
H1388 C1401 0.929 . S
H1389 C1399 0.929 . S
H1390 C1394 0.929 . S
H1391 C1400 0.929 . S
C1392 H1386 0.930 . S
C1392 C1393 1.367 . S
C1392 C1400 1.378 1_655 S
C1393 C1392 1.367 . S
C1393 C1401 1.433 . S
C1394 H1390 0.929 . S
C1394 C1396 1.378 . S
C1394 C1398 1.350 . S
C1395 C1398 1.463 . S
C1395 C1400 1.350 . S
C1395 N1403 1.427 . S
C1396 H1387 0.930 . S
C1396 C1394 1.378 . S
C1396 C1397 1.367 . S
C1397 C1396 1.367 . S
C1397 C1399 1.433 . S
C1398 C1394 1.350 . S
C1398 C1395 1.463 . S
C1398 N1402 1.427 . S
C1399 H1389 0.929 . S
C1399 C1397 1.433 . S
C1399 N1402 1.384 . S
C1400 H1391 0.929 . S
C1400 C1392 1.378 1_455 S
C1400 C1395 1.350 . S
C1401 H1388 0.929 . S
C1401 C1393 1.433 . S
C1401 N1403 1.384 1_655 S
N1402 C1398 1.427 . S
N1402 C1399 1.384 . S
N1403 C1395 1.427 . S
N1403 C1401 1.384 1_455 S
C601 N5 1.506 . S
C605 N14 1.502 . S
C619 N47 1.517 . S
C623 N38 1.520 . S
C637 N71 1.520 . S
C641 N80 1.518 . S
C655 N113 1.501 . S
C659 N104 1.505 . S
C673 N146 1.511 . S
C677 N137 1.514 . S
C691 N179 1.516 . S
C695 N170 1.520 . S
C709 N203 1.499 . S
C713 N212 1.495 . S
C727 N236 1.505 . S
C731 N245 1.504 . S
C745 N269 1.514 . S
C749 N278 1.509 . S
C763 N311 1.494 . S
C767 N302 1.498 . S
C781 N335 1.505 . S
C785 N344 1.500 . S
C799 N368 1.519 . S
C803 N377 1.515 . S
C817 N401 1.496 . S
C821 N410 1.492 1_554 S
C835 N443 1.503 . S
C839 N434 1.505 1_554 S
C853 N476 1.504 1_554 S
C857 N467 1.508 . S
C871 N500 1.494 1_554 S
C875 N509 1.489 . S
C889 N533 1.510 . S
C893 N542 1.508 1_554 S
C907 N575 1.504 . S
C911 N566 1.508 1_554 S
C925 C116 1.257 . S
C929 C17 1.260 . S
C943 C149 1.272 . S
C947 C50 1.270 . S
C961 C182 1.272 . S
C965 C83 1.271 . S
C979 C215 1.214 . S
C983 C314 1.217 . S
C997 C347 1.224 . S
C1001 C248 1.225 . S
C1015 C380 1.220 . S
C1019 C281 1.222 . S
C1033 C512 1.244 . S
C1037 C413 1.243 . S
C1051 C446 1.278 . S
C1055 C545 1.280 . S
C1069 C479 1.273 . S
C1073 C578 1.268 . S
C1087 C272 0.795 . S
C1091 C8 0.822 . S
C1105 C206 0.843 . S
C1109 C61 0.811 . S
C1123 C74 0.865 . S
C1127 C239 0.847 . S
C1141 C94 0.851 . S
C1145 C404 0.860 . S
C1159 C28 0.830 . S
C1163 C457 0.805 . S
C1177 C470 0.861 . S
C1181 C41 0.877 . S
C1195 C107 0.905 . S
C1199 C589 0.892 . S
C1213 C160 0.805 1_556 S
C1217 C523 0.783 . S
C1231 C536 0.865 . S
C1235 C173 0.879 . S
C1249 C305 0.828 . S
C1253 C193 0.815 . S
C1267 C127 0.790 . S
C1271 C338 0.811 . S
C1285 C140 0.870 . S
C1289 C371 0.867 . S
C1303 C226 0.779 . S
C1307 C490 0.759 . S
C1321 C259 0.786 . S
C1325 C424 0.766 . S
C1339 C292 0.838 . S
C1343 C437 0.836 . S
C1357 C503 0.812 . S
C1361 C391 0.786 . S
C1375 C556 0.782 . S
C1379 C325 0.772 . S
C1393 C569 0.829 . S
C1397 C358 0.807 . S
