# Generated by pormake.
# Topology rob, (6)-cn, num edge types: 1
# Building blocks:
#     Node 0, Type 0, BuildingBlock: MIFKUJ_clean_sbu_0, # of connection points: 6
#     Node 1, Type 0, BuildingBlock: MIFKUJ_clean_sbu_0, # of connection points: 6
#     Node 2, Type 0, BuildingBlock: MIFKUJ_clean_sbu_0, # of connection points: 6
#     Node 3, Type 0, BuildingBlock: MIFKUJ_clean_sbu_0, # of connection points: 6
#     Edge 4, Type (0, 0), BuildingBlock: ZUJKAS_clean_linker_0, # of connection points: 2
#     Edge 5, Type (0, 0), BuildingBlock: ZUJKAS_clean_linker_0, # of connection points: 2
#     Edge 6, Type (0, 0), BuildingBlock: ZUJKAS_clean_linker_0, # of connection points: 2
#     Edge 7, Type (0, 0), BuildingBlock: ZUJKAS_clean_linker_0, # of connection points: 2
#     Edge 8, Type (0, 0), BuildingBlock: ZUJKAS_clean_linker_0, # of connection points: 2
#     Edge 9, Type (0, 0), BuildingBlock: ZUJKAS_clean_linker_0, # of connection points: 2
#     Edge 10, Type (0, 0), BuildingBlock: ZUJKAS_clean_linker_0, # of connection points: 2
#     Edge 11, Type (0, 0), BuildingBlock: ZUJKAS_clean_linker_0, # of connection points: 2
#     Edge 12, Type (0, 0), BuildingBlock: ZUJKAS_clean_linker_0, # of connection points: 2
#     Edge 13, Type (0, 0), BuildingBlock: ZUJKAS_clean_linker_0, # of connection points: 2
#     Edge 14, Type (0, 0), BuildingBlock: ZUJKAS_clean_linker_0, # of connection points: 2
#     Edge 15, Type (0, 0), BuildingBlock: ZUJKAS_clean_linker_0, # of connection points: 2
# Relax obj value: 0.067
# Max RMSD: 0.156
# Mean RMSD: 0.156
data_MOF--net-rob--node1-MIFKUJ_clean_sbu_0--edge1-ZUJKAS_clean_linker_0
_symmetry_space_group_name_H-M    P1
_symmetry_Int_Tables_number       1
_symmetry_cell_setting            triclinic
loop_
_symmetry_equiv_pos_as_xyz
'x, y, z'
_cell_length_a     20.043508
_cell_length_b     31.867623
_cell_length_c     38.144671
_cell_angle_alpha  90.160977
_cell_angle_beta   84.491928
_cell_angle_gamma 89.879466
loop_
_atom_site_label
_atom_site_type_symbol
_atom_site_fract_x
_atom_site_fract_y
_atom_site_fract_z
_atom_type_partial_charge
Zn0 Zn 0.18538 0.25724 0.00715 0.0
Zn1 Zn 0.2616 0.22405 0.06896 0.0
C2 C 0.28917 0.26886 0.95469 0.0
O3 O 0.26303 0.30657 0.95925 0.0
C4 C 0.15446 0.21075 0.1199 0.0
O5 O 0.17908 0.17275 0.11463 0.0
O6 O 0.12388 0.27577 0.97116 0.0
O7 O 0.14182 0.20719 0.03131 0.0
O8 O 0.23714 0.17577 0.03844 0.0
C9 C 0.11492 0.24677 0.9491 0.0
O10 O 0.13932 0.20927 0.95448 0.0
O11 O 0.2671 0.23965 0.97527 0.0
C12 C 0.34169 0.23155 0.12446 0.0
O13 O 0.32158 0.27033 0.12028 0.0
O14 O 0.32453 0.20341 0.10341 0.0
O15 O 0.30442 0.27521 0.04586 0.0
O16 O 0.21039 0.30672 0.03584 0.0
O17 O 0.18006 0.24066 0.10118 0.0
C18 C 0.17606 0.17372 0.03224 0.0
C19 C 0.27172 0.30872 0.04158 0.0
Zn20 Zn 0.71819 0.75084 0.94574 0.0
Zn21 Zn 0.78517 0.71564 0.01201 0.0
C22 C 0.82661 0.75165 0.89464 0.0
O23 O 0.81067 0.79153 0.89846 0.0
C24 C 0.67549 0.71933 0.063 0.0
O25 O 0.68768 0.67885 0.06056 0.0
O26 O 0.66106 0.77619 0.91033 0.0
O27 O 0.66277 0.7061 0.97163 0.0
O28 O 0.74707 0.66756 0.9862 0.0
C29 C 0.63114 0.75029 0.89184 0.0
O30 O 0.63488 0.71005 0.89883 0.0
O31 O 0.79436 0.72496 0.91433 0.0
C32 C 0.86021 0.72171 0.06932 0.0
O33 O 0.8458 0.76095 0.06262 0.0
O34 O 0.84171 0.6932 0.04895 0.0
O35 O 0.84143 0.75844 0.98458 0.0
O36 O 0.75541 0.79759 0.97381 0.0
O37 O 0.70967 0.74404 0.04225 0.0
C38 C 0.68636 0.67067 0.97948 0.0
C39 C 0.81616 0.79444 0.98045 0.0
Zn40 Zn 0.29901 0.75784 0.5097 0.0
Zn41 Zn 0.22036 0.72034 0.44829 0.0
C42 C 0.20756 0.75854 0.56876 0.0
O43 O 0.22455 0.79813 0.56438 0.0
C44 C 0.32459 0.72298 0.39443 0.0
O45 O 0.31289 0.68258 0.39792 0.0
O46 O 0.36363 0.78412 0.54094 0.0
O47 O 0.34972 0.71278 0.4812 0.0
O48 O 0.26191 0.67357 0.47386 0.0
C49 C 0.39805 0.75859 0.55744 0.0
O50 O 0.39499 0.71835 0.55018 0.0
O51 O 0.23124 0.73188 0.54594 0.0
C52 C 0.13059 0.72379 0.39684 0.0
O53 O 0.14001 0.76361 0.40389 0.0
O54 O 0.15893 0.69621 0.41441 0.0
O55 O 0.16651 0.76273 0.47765 0.0
O56 O 0.25208 0.80375 0.48528 0.0
O57 O 0.29184 0.74835 0.41541 0.0
C58 C 0.32367 0.67677 0.47838 0.0
C59 C 0.18967 0.79896 0.48305 0.0
Zn60 Zn 0.76785 0.24642 0.56675 0.0
Zn61 Zn 0.68174 0.21284 0.50924 0.0
C62 C 0.66752 0.2601 0.62149 0.0
O63 O 0.69243 0.29788 0.61595 0.0
C64 C 0.77884 0.20105 0.45302 0.0
O65 O 0.75339 0.16332 0.45804 0.0
O66 O 0.8351 0.26761 0.5986 0.0
O67 O 0.80782 0.19519 0.54249 0.0
O68 O 0.7119 0.16366 0.53673 0.0
C69 C 0.85687 0.2398 0.61848 0.0
O70 O 0.83857 0.20062 0.61461 0.0
O71 O 0.69 0.23024 0.60153 0.0
C72 C 0.59821 0.223 0.45606 0.0
O73 O 0.62031 0.26112 0.46112 0.0
O74 O 0.61448 0.19383 0.47632 0.0
O75 O 0.64223 0.26354 0.53487 0.0
O76 O 0.73989 0.29399 0.53697 0.0
O77 O 0.75885 0.23018 0.47438 0.0
C78 C 0.77424 0.16169 0.54029 0.0
C79 C 0.67762 0.29661 0.53356 0.0
H80 H 0.71503 0.59276 1.00417 0.0
H81 H 0.63781 0.53391 0.01536 0.0
H82 H 0.47807 0.60744 0.9783 0.0
H83 H 0.55482 0.66629 0.96666 0.0
H84 H 0.51592 0.53517 0.06094 0.0
H85 H 0.47359 0.49641 0.92253 0.0
H86 H 0.54323 0.52802 0.93364 0.0
H87 H 0.46073 0.55043 0.93509 0.0
C88 C 0.66367 0.59629 0.99803 0.0
C89 C 0.64112 0.63417 0.98442 0.0
C90 C 0.61963 0.56271 1.00456 0.0
C91 C 0.55256 0.56631 0.99734 0.0
C92 C 0.52995 0.60389 0.98353 0.0
H93 H 0.22593 0.38447 0.01969 0.0
H94 H 0.2894 0.44994 0.01165 0.0
C95 C 0.57387 0.63751 0.97704 0.0
C96 C 0.50579 0.53113 1.00533 0.0
H97 H 0.4094 0.45915 0.96731 0.0
C98 C 0.49255 0.51851 0.04051 0.0
C99 C 0.47507 0.50985 0.97859 0.0
C100 C 0.48909 0.52153 0.94028 0.0
C101 C 0.44947 0.48487 0.04969 0.0
C102 C 0.41994 0.46299 0.02287 0.0
C103 C 0.43207 0.47616 0.98778 0.0
C104 C 0.37977 0.42467 0.03031 0.0
C105 C 0.43571 0.47315 0.088 0.0
C106 C 0.40971 0.38899 0.04349 0.0
C107 C 0.37381 0.35167 0.04807 0.0
C108 C 0.30732 0.34929 0.03937 0.0
C109 C 0.27695 0.38536 0.02679 0.0
C110 C 0.31311 0.42271 0.0221 0.0
H111 H 0.44582 0.49974 0.10562 0.0
H112 H 0.38293 0.46297 0.09414 0.0
H113 H 0.46895 0.44671 0.09388 0.0
H114 H 0.46152 0.38967 0.04935 0.0
H115 H 0.39868 0.32446 0.0578 0.0
H116 H 0.45744 0.67288 0.48656 0.0
H117 H 0.52563 0.61006 0.49214 0.0
H118 H 0.35311 0.5323 0.48082 0.0
H119 H 0.28452 0.59487 0.47482 0.0
H120 H 0.50413 0.54877 0.54392 0.0
H121 H 0.49757 0.48052 0.4104 0.0
H122 H 0.4748 0.53437 0.42056 0.0
H123 H 0.4161 0.49281 0.43176 0.0
C124 C 0.43404 0.64242 0.48494 0.0
C125 C 0.36552 0.63883 0.48024 0.0
C126 C 0.47313 0.60661 0.48813 0.0
C127 C 0.44453 0.56667 0.48641 0.0
C128 C 0.37635 0.56291 0.48147 0.0
H129 H 0.54726 0.31176 0.52284 0.0
H130 H 0.49569 0.37907 0.51116 0.0
C131 C 0.33717 0.59869 0.47827 0.0
C132 C 0.48495 0.5289 0.49182 0.0
H133 H 0.53578 0.43549 0.45433 0.0
C134 C 0.51183 0.52417 0.52423 0.0
C135 C 0.49485 0.49707 0.46597 0.0
C136 C 0.46988 0.50151 0.43008 0.0
C137 C 0.54621 0.48754 0.53203 0.0
C138 C 0.55445 0.45524 0.50653 0.0
C139 C 0.52902 0.46039 0.47381 0.0
C140 C 0.58652 0.41496 0.5139 0.0
C141 C 0.57129 0.48296 0.56789 0.0
C142 C 0.65474 0.41305 0.51915 0.0
C143 C 0.68448 0.37459 0.5259 0.0
C144 C 0.64636 0.33754 0.52735 0.0
C145 C 0.57799 0.33972 0.52202 0.0
C146 C 0.54844 0.37809 0.51523 0.0
H147 H 0.54982 0.50722 0.58671 0.0
H148 H 0.55875 0.45146 0.579 0.0
H149 H 0.62665 0.4862 0.56538 0.0
H150 H 0.68502 0.44122 0.51773 0.0
H151 H 0.73732 0.37389 0.52974 0.0
H152 H 0.0495 0.16007 0.01444 0.0
H153 H -0.00367 0.09296 1.00425 0.0
H154 H 0.17688 0.02784 0.02543 0.0
H155 H 0.23074 0.09508 0.03605 0.0
H156 H 0.04104 0.0299 0.95374 0.0
H157 H 0.02642 0.9723 0.09193 0.0
H158 H 0.04115 0.02674 0.08073 0.0
H159 H 0.10759 -0.01098 0.07297 0.0
C160 C 0.07799 0.13153 0.01712 0.0
C161 C 0.14428 0.13288 0.02626 0.0
C162 C 0.04752 0.09324 0.01117 0.0
C163 C 0.08252 0.05558 0.01444 0.0
C164 C 0.14883 0.05665 0.02329 0.0
H165 H 0.94565 0.79813 0.9968 0.0
H166 H 0.01387 0.86068 1.00283 0.0
C167 C 0.17954 0.09505 0.0292 0.0
C168 C 0.04914 0.01535 0.00826 0.0
H169 H 0.98606 0.92725 0.04968 0.0
C170 C 0.02917 0.00733 0.97463 0.0
C171 C 0.03406 -0.01391 0.03563 0.0
C172 C 0.05286 -0.00611 0.07246 0.0
C173 C -0.00595 0.97072 0.96764 0.0
C174 C 0.97754 0.94194 0.99522 0.0
C175 C -0.00124 0.94954 0.02866 0.0
C176 C 0.93682 0.90419 0.99021 0.0
C177 C 0.97535 0.96304 0.93078 0.0
C178 C 0.87074 0.90808 0.98135 0.0
C179 C 0.83153 0.87241 0.97784 0.0
C180 C 0.85773 0.83228 0.98335 0.0
C181 C 0.92401 0.82857 0.99225 0.0
C182 C 0.96309 0.86424 0.99575 0.0
H183 H 0.00701 0.98165 0.91102 0.0
H184 H 0.98029 0.92929 0.92363 0.0
H185 H 0.92238 0.97249 0.9293 0.0
H186 H 0.84916 0.93876 0.97767 0.0
H187 H 0.78062 0.87633 0.97111 0.0
H188 H 0.72481 0.08438 0.52461 0.0
H189 H 0.78692 0.01795 0.5188 0.0
H190 H 0.96497 0.08088 0.54636 0.0
H191 H 0.90365 0.14694 0.55261 0.0
H192 H 0.90113 0.00367 0.47172 0.0
H193 H 0.95636 0.97712 0.6095 0.0
H194 H 0.89206 0.013 0.59807 0.0
H195 H 0.97858 0.02877 0.59384 0.0
C196 C 0.77692 0.08389 0.52993 0.0
C197 C 0.80935 0.12088 0.53904 0.0
C198 C 0.81225 0.046 0.52656 0.0
C199 C 0.88015 0.04452 0.53265 0.0
C200 C 0.91222 0.08123 0.54229 0.0
H201 H 0.21845 0.87906 0.50285 0.0
H202 H 0.13955 0.93732 0.51456 0.0
C203 C 0.87715 0.11902 0.54556 0.0
C204 C 0.91938 0.00552 0.52641 0.0
H205 H 0.02312 0.93845 0.56492 0.0
C206 C 0.92707 -0.01105 0.49215 0.0
C207 C 0.95318 -0.01334 0.55319 0.0
C208 C 0.94419 0.00204 0.5908 0.0
C209 C 0.97004 0.95493 0.48358 0.0
C210 C 0.00532 0.93686 0.51014 0.0
C211 C -0.00371 0.95272 0.54461 0.0
C212 C 0.05268 0.90178 0.50258 0.0
C213 C 0.97928 0.93957 0.44596 0.0
C214 C 0.0296 0.86265 0.49216 0.0
C215 C 0.0744 0.82943 0.48538 0.0
C216 C 0.14305 0.83474 0.48908 0.0
C217 C 0.16598 0.87405 0.49957 0.0
C218 C 0.12103 0.90727 0.50639 0.0
H219 H 0.96003 0.96249 0.42745 0.0
H220 H 0.03302 0.93333 0.43766 0.0
H221 H 0.95147 0.90975 0.44381 0.0
H222 H 0.97683 0.85771 0.48962 0.0
H223 H 0.05505 0.7995 0.47746 0.0
H224 H 0.54981 0.27964 0.41183 0.0
H225 H 0.50896 0.26627 0.3547 0.0
H226 H 0.53006 0.13308 0.36978 0.0
H227 H 0.57152 0.14614 0.42744 0.0
H228 H 0.59387 0.21556 0.29928 0.0
H229 H 0.33502 0.15551 0.33475 0.0
H230 H 0.37542 0.18952 0.36422 0.0
H231 H 0.4035 0.13642 0.35777 0.0
C232 C 0.54494 0.24741 0.40336 0.0
C233 C 0.56422 0.21394 0.42413 0.0
C234 C 0.52163 0.23987 0.37067 0.0
C235 C 0.51671 0.19877 0.3581 0.0
C236 C 0.53322 0.16503 0.37923 0.0
H237 H 0.36297 0.15356 0.15196 0.0
H238 H 0.41298 0.13777 0.2068 0.0
C239 C 0.55673 0.17256 0.41213 0.0
C240 C 0.49859 0.19219 0.32184 0.0
H241 H 0.36629 0.16999 0.27496 0.0
C242 C 0.54453 0.2049 0.29384 0.0
C243 C 0.43452 0.17789 0.31493 0.0
C244 C 0.38383 0.16404 0.34436 0.0
C245 C 0.52687 0.20563 0.25917 0.0
C246 C 0.4612 0.1941 0.2525 0.0
C247 C 0.41657 0.17891 0.2802 0.0
C248 C 0.43554 0.20249 0.21806 0.0
C249 C 0.57807 0.21992 0.2301 0.0
C250 C 0.4318 0.24402 0.20634 0.0
C251 C 0.40328 0.2531 0.1753 0.0
C252 C 0.37772 0.22083 0.15531 0.0
C253 C 0.38273 0.17906 0.16666 0.0
C254 C 0.41099 0.17 0.198 0.0
H255 H 0.62998 0.2146 0.23709 0.0
H256 H 0.57168 0.20334 0.205 0.0
H257 H 0.57177 0.25408 0.22584 0.0
H258 H 0.44932 0.26964 0.22175 0.0
H259 H 0.40007 0.2856 0.16737 0.0
H260 H 0.67298 0.79805 0.09257 0.0
H261 H 0.61166 0.81957 0.14867 0.0
H262 H 0.51734 0.69809 0.15759 0.0
H263 H 0.57802 0.67644 0.10193 0.0
H264 H 0.43063 0.77089 0.17767 0.0
H265 H 0.66894 0.76497 0.24199 0.0
H266 H 0.66592 0.79651 0.20307 0.0
H267 H 0.66143 0.74048 0.19983 0.0
C268 C 0.63798 0.77632 0.10613 0.0
C269 C 0.63061 0.73543 0.09305 0.0
C270 C 0.60338 0.78857 0.13822 0.0
C271 C 0.56067 0.7602 0.15737 0.0
C272 C 0.5502 0.72039 0.14321 0.0
H273 H 0.41899 0.67816 0.35459 0.0
H274 H 0.47937 0.69855 0.2987 0.0
C275 C 0.58502 0.70804 0.11144 0.0
C276 C 0.53074 0.76986 0.19349 0.0
H277 H 0.56873 0.76951 0.27886 0.0
C278 C 0.4607 0.77176 0.19983 0.0
C279 C 0.57039 0.77057 0.22223 0.0
C280 C 0.64586 0.76787 0.21676 0.0
C281 C 0.42902 0.77204 0.23431 0.0
C282 C 0.46861 0.77053 0.26305 0.0
C283 C 0.53871 0.77099 0.2567 0.0
C284 C 0.43832 0.7614 0.29914 0.0
C285 C 0.35347 0.77091 0.23979 0.0
C286 C 0.39685 0.79053 0.31846 0.0
C287 C 0.36235 0.77899 0.3507 0.0
C288 C 0.36858 0.73805 0.36376 0.0
C289 C 0.41278 0.70981 0.3451 0.0
C290 C 0.44748 0.72144 0.3132 0.0
H291 H 0.33026 0.76854 0.21456 0.0
H292 H 0.33669 0.74381 0.25662 0.0
H293 H 0.33473 0.79993 0.25359 0.0
H294 H 0.38962 0.82165 0.30811 0.0
H295 H 0.32853 0.80138 0.36449 0.0
H296 H 0.64419 0.82615 0.85797 0.0
H297 H 0.60233 0.84491 0.80164 0.0
H298 H 0.5068 0.72409 0.79787 0.0
H299 H 0.54812 0.70517 0.85383 0.0
H300 H 0.63417 0.79951 0.73803 0.0
H301 H 0.35982 0.80633 0.77299 0.0
H302 H 0.41941 0.81008 0.80554 0.0
H303 H 0.39738 0.75969 0.78871 0.0
C304 C 0.61311 0.80394 0.84546 0.0
C305 C 0.59943 0.76416 0.86034 0.0
C306 C 0.58945 0.81466 0.81327 0.0
C307 C 0.55085 0.78607 0.7958 0.0
C308 C 0.53545 0.74692 0.8112 0.0
H309 H 0.49257 0.7161 0.58977 0.0
H310 H 0.53466 0.73264 0.64614 0.0
C311 C 0.55947 0.73607 0.84312 0.0
C312 C 0.53136 0.79509 0.76007 0.0
H313 H 0.39666 0.79462 0.71173 0.0
C314 C 0.58219 0.79934 0.73232 0.0
C315 C 0.46357 0.79535 0.75269 0.0
C316 C 0.40685 0.79304 0.78161 0.0
C317 C 0.56709 0.80097 0.69714 0.0
C318 C 0.49955 0.79796 0.68963 0.0
C319 C 0.44851 0.79661 0.71751 0.0
C320 C 0.48108 0.79154 0.65329 0.0
C321 C 0.62364 0.80466 0.66826 0.0
C322 C 0.4373 0.81934 0.63843 0.0
C323 C 0.41332 0.81003 0.60599 0.0
C324 C 0.43184 0.77236 0.5883 0.0
C325 C 0.47749 0.74539 0.60272 0.0
C326 C 0.50189 0.75491 0.63486 0.0
H327 H 0.66848 0.81946 0.67805 0.0
H328 H 0.6382 0.77283 0.65839 0.0
H329 H 0.60822 0.82335 0.64585 0.0
H330 H 0.42022 0.8476 0.65241 0.0
H331 H 0.3777 0.83124 0.59572 0.0
H332 H 0.59993 0.31826 0.66341 0.0
H333 H 0.53164 0.30659 0.71894 0.0
H334 H 0.55947 0.17296 0.70676 0.0
H335 H 0.62855 0.18435 0.65086 0.0
H336 H 0.41194 0.25565 0.73401 0.0
H337 H 0.62906 0.20313 0.80405 0.0
H338 H 0.64009 0.23123 0.76287 0.0
H339 H 0.61504 0.17723 0.7634 0.0
C340 C 0.59114 0.28632 0.6723 0.0
C341 C 0.62001 0.25224 0.65286 0.0
C342 C 0.55202 0.27973 0.70403 0.0
C343 C 0.54133 0.23899 0.7171 0.0
C344 C 0.56794 0.20468 0.69724 0.0
H345 H 0.33232 0.19204 0.9282 0.0
H346 H 0.39331 0.17814 0.87028 0.0
C347 C 0.60695 0.21124 0.66526 0.0
C348 C 0.50401 0.23328 0.75214 0.0
H349 H 0.52622 0.21308 0.83818 0.0
C350 C 0.43656 0.24568 0.75671 0.0
C351 C 0.5364 0.22021 0.78163 0.0
C352 C 0.60924 0.20734 0.77807 0.0
C353 C 0.40125 0.24684 0.79025 0.0
C354 C 0.43466 0.23594 0.81994 0.0
C355 C 0.50102 0.22146 0.81526 0.0
C356 C 0.40331 0.24362 0.85606 0.0
C357 C 0.32893 0.26084 0.79385 0.0
C358 C 0.39127 0.28498 0.86752 0.0
C359 C 0.35713 0.29302 0.90042 0.0
C360 C 0.33429 0.2598 0.92256 0.0
C361 C 0.34935 0.2183 0.91175 0.0
C362 C 0.38386 0.21028 0.87869 0.0
H363 H 0.30602 0.25776 0.76858 0.0
H364 H 0.29895 0.24233 0.81434 0.0
H365 H 0.32616 0.29434 0.80191 0.0
H366 H 0.40695 0.31111 0.85059 0.0
H367 H 0.34684 0.32535 0.908 0.0
H368 H 0.90161 0.77655 0.11741 0.0
H369 H 0.94308 0.76075 0.1739 0.0
H370 H 0.92948 0.62828 0.15281 0.0
H371 H 0.88718 0.64375 0.09576 0.0
H372 H 0.86375 0.70099 0.22843 0.0
H373 H 0.12869 0.6583 0.18439 0.0
H374 H 0.08249 0.69372 0.15875 0.0
H375 H 0.06089 0.63922 0.16082 0.0
C376 C 0.90785 0.74398 0.12448 0.0
C377 C 0.89093 0.71138 0.10204 0.0
C378 C 0.93149 0.73506 0.15684 0.0
C379 C 0.9392 0.69344 0.16741 0.0
C380 C 0.92399 0.66063 0.14491 0.0
H381 H 0.12398 0.64681 0.36458 0.0
H382 H 0.07057 0.63063 0.31079 0.0
C383 C 0.89997 0.66953 0.11239 0.0
C384 C 0.9609 0.68522 0.20271 0.0
H385 H 0.10088 0.66883 0.24516 0.0
C386 C 0.91526 0.69313 0.23221 0.0
C387 C 0.02787 0.67464 0.20741 0.0
C388 C 0.07827 0.66592 0.17631 0.0
C389 C 0.93575 0.69278 0.26635 0.0
C390 C 0.00395 0.68525 0.27094 0.0
C391 C 0.04866 0.67471 0.24158 0.0
C392 C 0.03133 0.69329 0.30508 0.0
C393 C 0.88454 0.70165 0.2971 0.0
C394 C 0.02692 0.73378 0.31964 0.0
C395 C 0.05726 0.74308 0.35012 0.0
C396 C 0.09307 0.71213 0.36669 0.0
C397 C 0.09634 0.67125 0.35255 0.0
C398 C 0.06608 0.66199 0.32181 0.0
H399 H 0.83344 0.69244 0.29105 0.0
H400 H 0.89677 0.68478 0.32111 0.0
H401 H 0.88371 0.73583 0.30278 0.0
H402 H 0.00168 0.75866 0.30677 0.0
H403 H 0.0539 0.7749 0.36021 0.0
H404 H 0.83272 0.14465 0.40469 0.0
H405 H 0.89158 0.15907 0.34709 0.0
H406 H 0.88008 0.29192 0.36857 0.0
H407 H 0.82087 0.27779 0.42671 0.0
H408 H 0.83447 0.21085 0.29441 0.0
H409 H 0.08078 0.26875 0.33113 0.0
H410 H 0.02579 0.23738 0.36075 0.0
H411 H 0.00559 0.29123 0.35323 0.0
C412 C 0.84339 0.17697 0.39748 0.0
C413 C 0.82198 0.2101 0.42027 0.0
C414 C 0.87689 0.18513 0.36448 0.0
C415 C 0.89007 0.2265 0.35364 0.0
C416 C 0.87081 0.25974 0.37666 0.0
H417 H 0.11754 0.28625 0.15082 0.0
H418 H 0.04484 0.29722 0.20567 0.0
C419 C 0.8371 0.2516 0.40983 0.0
C420 C 0.9211 0.23422 0.31748 0.0
H421 H 0.06853 0.26103 0.2708 0.0
C422 C 0.88535 0.22235 0.28917 0.0
C423 C 0.98711 0.24965 0.31082 0.0
C424 C 0.02756 0.26238 0.34046 0.0
C425 C 0.9149 0.22388 0.25437 0.0
C426 C 0.98229 0.23693 0.24783 0.0
C427 C 0.01685 0.251 0.27595 0.0
C428 C 0.02013 0.23155 0.21281 0.0
C429 C 0.87419 0.21062 0.22497 0.0
C430 C 0.02976 0.1911 0.19862 0.0
C431 C 0.07115 0.18475 0.16754 0.0
C432 C 0.10397 0.21873 0.15004 0.0
C433 C 0.09255 0.25949 0.1636 0.0
C434 C 0.05131 0.2658 0.19495 0.0
H435 H 0.81964 0.21487 0.2325 0.0
H436 H 0.88851 0.22868 0.20056 0.0
H437 H 0.88326 0.17683 0.2192 0.0
H438 H 0.00722 0.16415 0.21231 0.0
H439 H 0.07895 0.15298 0.15781 0.0
H440 H 0.92361 0.18732 0.65904 0.0
H441 H 0.97412 0.2044 0.71297 0.0
H442 H 0.9263 0.33512 0.70027 0.0
H443 H 0.87507 0.31825 0.64599 0.0
H444 H 0.07974 0.26391 0.72603 0.0
H445 H 0.8316 0.30057 0.79885 0.0
H446 H 0.83869 0.27172 0.75786 0.0
H447 H 0.85422 0.32712 0.75784 0.0
C448 C 0.92441 0.2198 0.66743 0.0
C449 C 0.89491 0.2514 0.6484 0.0
C450 C 0.95342 0.2295 0.69823 0.0
C451 C 0.95314 0.27089 0.71077 0.0
C452 C 0.92627 0.3029 0.69115 0.0
H453 H 0.0716 0.3224 0.92464 0.0
H454 H 0.03458 0.3365 0.86614 0.0
C455 C 0.89746 0.29324 0.66008 0.0
C456 C 0.97819 0.2794 0.74532 0.0
H457 H 0.92418 0.29606 0.83193 0.0
C458 C 0.04605 0.27175 0.7491 0.0
C459 C 0.93404 0.28976 0.7753 0.0
C460 C 0.86044 0.29763 0.77259 0.0
C461 C 0.07035 0.27226 0.78237 0.0
C462 C 0.02532 0.27991 0.81257 0.0
C463 C 0.95838 0.29014 0.80864 0.0
C464 C 0.04504 0.27211 0.84835 0.0
C465 C 0.14358 0.26317 0.7851 0.0
C466 C 0.06094 0.23113 0.85789 0.0
C467 C 0.08133 0.22295 0.89109 0.0
C468 C 0.08628 0.25562 0.91555 0.0
C469 C 0.06825 0.29658 0.90638 0.0
C470 C 0.04741 0.30472 0.873 0.0
H471 H 0.17438 0.27002 0.75999 0.0
H472 H 0.16293 0.28188 0.80654 0.0
H473 H 0.14988 0.22943 0.79114 0.0
H474 H 0.05812 0.20543 0.83944 0.0
H475 H 0.09447 0.19101 0.89726 0.0
H476 H 0.15768 0.80899 0.6225 0.0
H477 H 0.10082 0.78845 0.67904 0.0
H478 H 0.11016 0.65858 0.64707 0.0
H479 H 0.16833 0.67886 0.58983 0.0
H480 H 0.97618 0.69605 0.68205 0.0
H481 H 0.19842 0.71956 0.75597 0.0
H482 H 0.18453 0.76043 0.72507 0.0
H483 H 0.20492 0.70837 0.70925 0.0
C484 C 0.14755 0.77601 0.62721 0.0
C485 C 0.16789 0.74552 0.60166 0.0
C486 C 0.11524 0.76435 0.65966 0.0
C487 C 0.1023 0.72203 0.66731 0.0
C488 C 0.12033 0.69141 0.64162 0.0
H489 H 0.84933 0.67259 0.86672 0.0
H490 H 0.92171 0.65412 0.81315 0.0
C491 C 0.1533 0.70306 0.60898 0.0
C492 C 0.06967 0.71088 0.70244 0.0
H493 H 0.09096 0.72254 0.78957 0.0
C494 C 0.00142 0.70054 0.70568 0.0
C495 C 0.10309 0.7168 0.73304 0.0
C496 C 0.17698 0.72655 0.73082 0.0
C497 C 0.96429 0.69948 0.73887 0.0
C498 C -0.00319 0.70846 0.76937 0.0
C499 C 0.06616 0.71569 0.76616 0.0
C500 C 0.95835 0.71731 0.80373 0.0
C501 C 0.88969 0.69205 0.74086 0.0
C502 C 0.95702 0.7585 0.81678 0.0
C503 C 0.91619 0.76905 0.84717 0.0
C504 C 0.87596 0.73856 0.86532 0.0
C505 C 0.87973 0.69677 0.85325 0.0
C506 C 0.92063 0.68623 0.82257 0.0
H507 H 0.87113 0.69018 0.71437 0.0
H508 H 0.87752 0.66212 0.7548 0.0
H509 H 0.86236 0.71762 0.75602 0.0
H510 H 0.98589 0.78294 0.80269 0.0
H511 H 0.91485 0.80145 0.85589 0.0
loop_
_geom_bond_atom_site_label_1
_geom_bond_atom_site_label_2
_geom_bond_distance
_geom_bond_site_symmetry_2
_ccdc_geom_bond_type
Zn0 O6 1.969 . S
Zn0 O7 1.965 . S
Zn0 O11 2.024 . S
Zn0 O16 1.969 . S
Zn1 O8 1.969 . S
Zn1 O14 1.969 . S
Zn1 O15 1.965 . S
Zn1 O17 2.024 . S
C2 O3 1.229 . S
C2 O11 1.058 . S
O3 C2 1.229 . S
C4 O5 1.229 . S
C4 O17 1.058 . S
O5 C4 1.229 . S
O6 Zn0 1.969 . S
O6 C9 1.267 . S
O7 Zn0 1.965 . S
O7 C18 1.260 1_556 S
O8 Zn1 1.969 . S
O8 C18 1.258 . S
C9 O6 1.267 . S
C9 O10 1.228 . S
O10 C9 1.228 . S
O11 Zn0 2.024 . S
O11 C2 1.058 . S
C12 O13 1.228 . S
C12 O14 1.267 . S
O13 C12 1.228 . S
O14 Zn1 1.969 . S
O14 C12 1.267 . S
O15 Zn1 1.965 . S
O15 C19 1.250 1_554 S
O16 Zn0 1.969 . S
O16 C19 1.273 . S
O17 Zn1 2.024 . S
O17 C4 1.058 . S
C18 O7 1.260 1_554 S
C18 O8 1.258 . S
C19 O15 1.250 1_556 S
C19 O16 1.273 . S
Zn20 O26 1.969 . S
Zn20 O27 1.965 . S
Zn20 O31 2.024 . S
Zn20 O36 1.969 . S
Zn21 O28 1.969 . S
Zn21 O34 1.969 . S
Zn21 O35 1.965 . S
Zn21 O37 2.024 . S
C22 O23 1.229 . S
C22 O31 1.058 . S
O23 C22 1.229 . S
C24 O25 1.229 . S
C24 O37 1.058 . S
O25 C24 1.229 . S
O26 Zn20 1.969 . S
O26 C29 1.267 . S
O27 Zn20 1.965 . S
O27 C38 1.260 1_556 S
O28 Zn21 1.969 . S
O28 C38 1.258 . S
C29 O26 1.267 . S
C29 O30 1.228 . S
O30 C29 1.228 . S
O31 Zn20 2.024 . S
O31 C22 1.058 . S
C32 O33 1.228 . S
C32 O34 1.267 . S
O33 C32 1.228 . S
O34 Zn21 1.969 . S
O34 C32 1.267 . S
O35 Zn21 1.965 . S
O35 C39 1.250 1_554 S
O36 Zn20 1.969 . S
O36 C39 1.273 . S
O37 Zn21 2.024 . S
O37 C24 1.058 . S
C38 O27 1.260 1_554 S
C38 O28 1.258 . S
C39 O35 1.250 1_556 S
C39 O36 1.273 . S
Zn40 O46 1.969 . S
Zn40 O47 1.965 . S
Zn40 O51 2.024 . S
Zn40 O56 1.969 . S
Zn41 O48 1.969 . S
Zn41 O54 1.969 . S
Zn41 O55 1.965 . S
Zn41 O57 2.024 . S
C42 O43 1.229 . S
C42 O51 1.058 . S
O43 C42 1.229 . S
C44 O45 1.229 . S
C44 O57 1.058 . S
O45 C44 1.229 . S
O46 Zn40 1.969 . S
O46 C49 1.267 . S
O47 Zn40 1.965 . S
O47 C58 1.260 . S
O48 Zn41 1.969 . S
O48 C58 1.258 . S
C49 O46 1.267 . S
C49 O50 1.228 . S
O50 C49 1.228 . S
O51 Zn40 2.024 . S
O51 C42 1.058 . S
C52 O53 1.228 . S
C52 O54 1.267 . S
O53 C52 1.228 . S
O54 Zn41 1.969 . S
O54 C52 1.267 . S
O55 Zn41 1.965 . S
O55 C59 1.260 . S
O56 Zn40 1.969 . S
O56 C59 1.258 . S
O57 Zn41 2.024 . S
O57 C44 1.058 . S
C58 O47 1.260 . S
C58 O48 1.258 . S
C59 O55 1.260 . S
C59 O56 1.258 . S
Zn60 O66 1.969 . S
Zn60 O67 1.965 . S
Zn60 O71 2.024 . S
Zn60 O76 1.969 . S
Zn61 O68 1.969 . S
Zn61 O74 1.969 . S
Zn61 O75 1.965 . S
Zn61 O77 2.024 . S
C62 O63 1.229 . S
C62 O71 1.058 . S
O63 C62 1.229 . S
C64 O65 1.229 . S
C64 O77 1.058 . S
O65 C64 1.229 . S
O66 Zn60 1.969 . S
O66 C69 1.267 . S
O67 Zn60 1.965 . S
O67 C78 1.260 . S
O68 Zn61 1.969 . S
O68 C78 1.258 . S
C69 O66 1.267 . S
C69 O70 1.228 . S
O70 C69 1.228 . S
O71 Zn60 2.024 . S
O71 C62 1.058 . S
C72 O73 1.228 . S
C72 O74 1.267 . S
O73 C72 1.228 . S
O74 Zn61 1.969 . S
O74 C72 1.267 . S
O75 Zn61 1.965 . S
O75 C79 1.260 . S
O76 Zn60 1.969 . S
O76 C79 1.258 . S
O77 Zn61 2.024 . S
O77 C64 1.058 . S
C78 O67 1.260 . S
C78 O68 1.258 . S
C79 O75 1.260 . S
C79 O76 1.258 . S
H80 C88 0.929 . S
H81 C90 0.930 . S
H82 C92 0.930 . S
H83 C95 0.929 . S
H84 C98 0.930 . S
H85 C100 0.960 . S
H86 C100 0.960 . S
H87 C100 0.960 . S
C88 H80 0.929 . S
C88 C89 1.373 1_554 S
C88 C90 1.384 . S
C89 C88 1.373 1_556 S
C89 C95 1.394 . S
C90 H81 0.930 . S
C90 C88 1.384 . S
C90 C91 1.372 . S
C91 C90 1.372 . S
C91 C92 1.400 1_554 S
C91 C96 1.490 . S
C92 H82 0.930 . S
C92 C91 1.400 1_556 S
C92 C95 1.386 . S
H93 C109 0.930 . S
H94 C110 0.931 . S
C95 H83 0.929 . S
C95 C89 1.394 . S
C95 C92 1.386 . S
C96 C91 1.490 . S
C96 C98 1.395 . S
C96 C99 1.403 1_554 S
H97 C103 0.930 . S
C98 H84 0.930 . S
C98 C96 1.395 . S
C98 C101 1.403 . S
C99 C96 1.403 1_556 S
C99 C100 1.524 . S
C99 C103 1.400 . S
C100 H85 0.960 . S
C100 H86 0.960 . S
C100 H87 0.960 . S
C100 C99 1.524 . S
C101 C98 1.403 . S
C101 C102 1.392 . S
C101 C105 1.495 . S
C102 C101 1.392 . S
C102 C103 1.385 1_554 S
C102 C104 1.478 . S
C103 H97 0.930 . S
C103 C99 1.400 . S
C103 C102 1.385 1_556 S
C104 C102 1.478 . S
C104 C106 1.381 . S
C104 C110 1.383 1_554 S
C105 C101 1.495 . S
C105 H111 0.959 . S
C105 H112 0.961 . S
C105 H113 0.960 . S
C106 C104 1.381 . S
C106 C107 1.394 . S
C106 H114 0.930 . S
C107 C106 1.394 . S
C107 C108 1.383 . S
C107 H115 0.929 . S
C108 C107 1.383 . S
C108 C109 1.377 1_554 S
C109 H93 0.930 . S
C109 C108 1.377 1_556 S
C109 C110 1.379 . S
C110 H94 0.931 . S
C110 C104 1.383 1_556 S
C110 C109 1.379 . S
H111 C105 0.959 . S
H112 C105 0.961 . S
H113 C105 0.960 . S
H114 C106 0.930 . S
H115 C107 0.929 . S
H116 C124 0.929 . S
H117 C126 0.930 . S
H118 C128 0.930 . S
H119 C131 0.929 . S
H120 C134 0.930 . S
H121 C136 0.960 . S
H122 C136 0.960 . S
H123 C136 0.960 . S
C124 H116 0.929 . S
C124 C125 1.377 . S
C124 C126 1.384 . S
C125 C124 1.377 . S
C125 C131 1.390 . S
C126 H117 0.930 . S
C126 C124 1.384 . S
C126 C127 1.372 . S
C127 C126 1.372 . S
C127 C128 1.400 . S
C127 C132 1.490 . S
C128 H118 0.930 . S
C128 C127 1.400 . S
C128 C131 1.386 . S
H129 C145 0.930 . S
H130 C146 0.931 . S
C131 H119 0.929 . S
C131 C125 1.390 . S
C131 C128 1.386 . S
C132 C127 1.490 . S
C132 C134 1.395 . S
C132 C135 1.403 . S
H133 C139 0.930 . S
C134 H120 0.930 . S
C134 C132 1.395 . S
C134 C137 1.403 . S
C135 C132 1.403 . S
C135 C136 1.524 . S
C135 C139 1.400 . S
C136 H121 0.960 . S
C136 H122 0.960 . S
C136 H123 0.960 . S
C136 C135 1.524 . S
C137 C134 1.403 . S
C137 C138 1.392 . S
C137 C141 1.495 . S
C138 C137 1.392 . S
C138 C139 1.385 . S
C138 C140 1.478 . S
C139 H133 0.930 . S
C139 C135 1.400 . S
C139 C138 1.385 . S
C140 C138 1.478 . S
C140 C142 1.381 . S
C140 C146 1.383 . S
C141 C137 1.495 . S
C141 H147 0.959 . S
C141 H148 0.961 . S
C141 H149 0.960 . S
C142 C140 1.381 . S
C142 C143 1.394 . S
C142 H150 0.930 . S
C143 C142 1.394 . S
C143 C144 1.383 . S
C143 H151 0.929 . S
C144 C143 1.383 . S
C144 C145 1.377 . S
C145 H129 0.930 . S
C145 C144 1.377 . S
C145 C146 1.379 . S
C146 H130 0.931 . S
C146 C140 1.383 . S
C146 C145 1.379 . S
H147 C141 0.959 . S
H148 C141 0.961 . S
H149 C141 0.960 . S
H150 C142 0.930 . S
H151 C143 0.929 . S
H152 C160 0.929 . S
H153 C162 0.930 . S
H154 C164 0.930 . S
H155 C167 0.929 . S
H156 C170 0.930 . S
H157 C172 0.960 . S
H158 C172 0.960 . S
H159 C172 0.960 1_556 S
C160 H152 0.929 . S
C160 C161 1.379 1_554 S
C160 C162 1.384 . S
C161 C160 1.379 1_556 S
C161 C167 1.388 . S
C162 H153 0.930 . S
C162 C160 1.384 . S
C162 C163 1.372 . S
C163 C162 1.372 . S
C163 C164 1.400 1_554 S
C163 C168 1.490 . S
C164 H154 0.930 . S
C164 C163 1.400 1_556 S
C164 C167 1.386 . S
H165 C181 0.930 . S
H166 C182 0.931 . S
C167 H155 0.929 . S
C167 C161 1.388 . S
C167 C164 1.386 . S
C168 C163 1.490 . S
C168 C170 1.395 1_455 S
C168 C171 1.403 1_545 S
H169 C175 0.930 . S
C170 H156 0.930 . S
C170 C168 1.395 1_655 S
C170 C173 1.403 . S
C171 C168 1.403 1_565 S
C171 C172 1.524 . S
C171 C175 1.400 . S
C172 H157 0.960 . S
C172 H158 0.960 . S
C172 H159 0.960 1_554 S
C172 C171 1.524 . S
C173 C170 1.403 . S
C173 C174 1.392 1_545 S
C173 C177 1.495 1_554 S
C174 C173 1.392 1_565 S
C174 C175 1.385 1_655 S
C174 C176 1.478 . S
C175 H169 0.930 . S
C175 C171 1.400 . S
C175 C174 1.385 1_455 S
C176 C174 1.478 . S
C176 C178 1.381 . S
C176 C182 1.383 1_554 S
C177 C173 1.495 1_556 S
C177 H183 0.959 . S
C177 H184 0.961 . S
C177 H185 0.960 1_556 S
C178 C176 1.381 . S
C178 C179 1.394 . S
C178 H186 0.930 . S
C179 C178 1.394 . S
C179 C180 1.383 . S
C179 H187 0.929 . S
C180 C179 1.383 . S
C180 C181 1.377 1_554 S
C181 H165 0.930 . S
C181 C180 1.377 1_556 S
C181 C182 1.379 . S
C182 H166 0.931 . S
C182 C176 1.383 1_556 S
C182 C181 1.379 . S
H183 C177 0.959 . S
H184 C177 0.961 . S
H185 C177 0.960 1_554 S
H186 C178 0.930 . S
H187 C179 0.929 . S
H188 C196 0.929 . S
H189 C198 0.930 . S
H190 C200 0.930 . S
H191 C203 0.929 . S
H192 C206 0.930 . S
H193 C208 0.960 . S
H194 C208 0.960 . S
H195 C208 0.960 . S
C196 H188 0.929 . S
C196 C197 1.377 . S
C196 C198 1.384 . S
C197 C196 1.377 . S
C197 C203 1.390 . S
C198 H189 0.930 . S
C198 C196 1.384 . S
C198 C199 1.372 . S
C199 C198 1.372 . S
C199 C200 1.400 . S
C199 C204 1.490 . S
C200 H190 0.930 . S
C200 C199 1.400 . S
C200 C203 1.386 . S
H201 C217 0.930 . S
H202 C218 0.931 . S
C203 H191 0.929 . S
C203 C197 1.390 . S
C203 C200 1.386 . S
C204 C199 1.490 . S
C204 C206 1.395 1_545 S
C204 C207 1.403 1_655 S
H205 C211 0.930 . S
C206 H192 0.930 . S
C206 C204 1.395 1_565 S
C206 C209 1.403 . S
C207 C204 1.403 1_455 S
C207 C208 1.524 . S
C207 C211 1.400 1_545 S
C208 H193 0.960 . S
C208 H194 0.960 . S
C208 H195 0.960 . S
C208 C207 1.524 . S
C209 C206 1.403 . S
C209 C210 1.392 1_655 S
C209 C213 1.495 . S
C210 C209 1.392 1_455 S
C210 C211 1.385 . S
C210 C212 1.478 . S
C211 H205 0.930 . S
C211 C207 1.400 1_565 S
C211 C210 1.385 . S
C212 C210 1.478 . S
C212 C214 1.381 . S
C212 C218 1.383 . S
C213 C209 1.495 . S
C213 H219 0.959 . S
C213 H220 0.961 . S
C213 H221 0.960 . S
C214 C212 1.381 . S
C214 C215 1.394 . S
C214 H222 0.930 . S
C215 C214 1.394 . S
C215 C216 1.383 . S
C215 H223 0.929 . S
C216 C215 1.383 . S
C216 C217 1.377 . S
C217 H201 0.930 . S
C217 C216 1.377 . S
C217 C218 1.379 . S
C218 H202 0.931 . S
C218 C212 1.383 . S
C218 C217 1.379 . S
H219 C213 0.959 . S
H220 C213 0.961 . S
H221 C213 0.960 . S
H222 C214 0.930 . S
H223 C215 0.929 . S
H224 C232 0.929 . S
H225 C234 0.930 . S
H226 C236 0.930 . S
H227 C239 0.929 . S
H228 C242 0.930 . S
H229 C244 0.960 . S
H230 C244 0.960 . S
H231 C244 0.960 . S
C232 H224 0.929 . S
C232 C233 1.377 . S
C232 C234 1.384 . S
C233 C232 1.377 . S
C233 C239 1.390 . S
C234 H225 0.930 . S
C234 C232 1.384 . S
C234 C235 1.372 . S
C235 C234 1.372 . S
C235 C236 1.400 . S
C235 C240 1.490 . S
C236 H226 0.930 . S
C236 C235 1.400 . S
C236 C239 1.386 . S
H237 C253 0.930 . S
H238 C254 0.931 . S
C239 H227 0.929 . S
C239 C233 1.390 . S
C239 C236 1.386 . S
C240 C235 1.490 . S
C240 C242 1.395 . S
C240 C243 1.403 . S
H241 C247 0.930 . S
C242 H228 0.930 . S
C242 C240 1.395 . S
C242 C245 1.403 . S
C243 C240 1.403 . S
C243 C244 1.524 . S
C243 C247 1.400 . S
C244 H229 0.960 . S
C244 H230 0.960 . S
C244 H231 0.960 . S
C244 C243 1.524 . S
C245 C242 1.403 . S
C245 C246 1.392 . S
C245 C249 1.495 . S
C246 C245 1.392 . S
C246 C247 1.385 . S
C246 C248 1.478 . S
C247 H241 0.930 . S
C247 C243 1.400 . S
C247 C246 1.385 . S
C248 C246 1.478 . S
C248 C250 1.381 . S
C248 C254 1.383 . S
C249 C245 1.495 . S
C249 H255 0.959 . S
C249 H256 0.961 . S
C249 H257 0.960 . S
C250 C248 1.381 . S
C250 C251 1.394 . S
C250 H258 0.930 . S
C251 C250 1.394 . S
C251 C252 1.383 . S
C251 H259 0.929 . S
C252 C251 1.383 . S
C252 C253 1.377 . S
C253 H237 0.930 . S
C253 C252 1.377 . S
C253 C254 1.379 . S
C254 H238 0.931 . S
C254 C248 1.383 . S
C254 C253 1.379 . S
H255 C249 0.959 . S
H256 C249 0.961 . S
H257 C249 0.960 . S
H258 C250 0.930 . S
H259 C251 0.929 . S
H260 C268 0.929 . S
H261 C270 0.930 . S
H262 C272 0.930 . S
H263 C275 0.929 . S
H264 C278 0.930 . S
H265 C280 0.960 . S
H266 C280 0.960 . S
H267 C280 0.960 . S
C268 H260 0.929 . S
C268 C269 1.377 . S
C268 C270 1.384 . S
C269 C268 1.377 . S
C269 C275 1.390 . S
C270 H261 0.930 . S
C270 C268 1.384 . S
C270 C271 1.372 . S
C271 C270 1.372 . S
C271 C272 1.400 . S
C271 C276 1.490 . S
C272 H262 0.930 . S
C272 C271 1.400 . S
C272 C275 1.386 . S
H273 C289 0.930 . S
H274 C290 0.931 . S
C275 H263 0.929 . S
C275 C269 1.390 . S
C275 C272 1.386 . S
C276 C271 1.490 . S
C276 C278 1.395 . S
C276 C279 1.403 . S
H277 C283 0.930 . S
C278 H264 0.930 . S
C278 C276 1.395 . S
C278 C281 1.403 . S
C279 C276 1.403 . S
C279 C280 1.524 . S
C279 C283 1.400 . S
C280 H265 0.960 . S
C280 H266 0.960 . S
C280 H267 0.960 . S
C280 C279 1.524 . S
C281 C278 1.403 . S
C281 C282 1.392 . S
C281 C285 1.495 . S
C282 C281 1.392 . S
C282 C283 1.385 . S
C282 C284 1.478 . S
C283 H277 0.930 . S
C283 C279 1.400 . S
C283 C282 1.385 . S
C284 C282 1.478 . S
C284 C286 1.381 . S
C284 C290 1.383 . S
C285 C281 1.495 . S
C285 H291 0.959 . S
C285 H292 0.961 . S
C285 H293 0.960 . S
C286 C284 1.381 . S
C286 C287 1.394 . S
C286 H294 0.930 . S
C287 C286 1.394 . S
C287 C288 1.383 . S
C287 H295 0.929 . S
C288 C287 1.383 . S
C288 C289 1.377 . S
C289 H273 0.930 . S
C289 C288 1.377 . S
C289 C290 1.379 . S
C290 H274 0.931 . S
C290 C284 1.383 . S
C290 C289 1.379 . S
H291 C285 0.959 . S
H292 C285 0.961 . S
H293 C285 0.960 . S
H294 C286 0.930 . S
H295 C287 0.929 . S
H296 C304 0.929 . S
H297 C306 0.930 . S
H298 C308 0.930 . S
H299 C311 0.929 . S
H300 C314 0.930 . S
H301 C316 0.960 . S
H302 C316 0.960 . S
H303 C316 0.960 . S
C304 H296 0.929 . S
C304 C305 1.377 . S
C304 C306 1.384 . S
C305 C304 1.377 . S
C305 C311 1.390 . S
C306 H297 0.930 . S
C306 C304 1.384 . S
C306 C307 1.372 . S
C307 C306 1.372 . S
C307 C308 1.400 . S
C307 C312 1.490 . S
C308 H298 0.930 . S
C308 C307 1.400 . S
C308 C311 1.386 . S
H309 C325 0.930 . S
H310 C326 0.931 . S
C311 H299 0.929 . S
C311 C305 1.390 . S
C311 C308 1.386 . S
C312 C307 1.490 . S
C312 C314 1.395 . S
C312 C315 1.403 . S
H313 C319 0.930 . S
C314 H300 0.930 . S
C314 C312 1.395 . S
C314 C317 1.403 . S
C315 C312 1.403 . S
C315 C316 1.524 . S
C315 C319 1.400 . S
C316 H301 0.960 . S
C316 H302 0.960 . S
C316 H303 0.960 . S
C316 C315 1.524 . S
C317 C314 1.403 . S
C317 C318 1.392 . S
C317 C321 1.495 . S
C318 C317 1.392 . S
C318 C319 1.385 . S
C318 C320 1.478 . S
C319 H313 0.930 . S
C319 C315 1.400 . S
C319 C318 1.385 . S
C320 C318 1.478 . S
C320 C322 1.381 . S
C320 C326 1.383 . S
C321 C317 1.495 . S
C321 H327 0.959 . S
C321 H328 0.961 . S
C321 H329 0.960 . S
C322 C320 1.381 . S
C322 C323 1.394 . S
C322 H330 0.930 . S
C323 C322 1.394 . S
C323 C324 1.383 . S
C323 H331 0.929 . S
C324 C323 1.383 . S
C324 C325 1.377 . S
C325 H309 0.930 . S
C325 C324 1.377 . S
C325 C326 1.379 . S
C326 H310 0.931 . S
C326 C320 1.383 . S
C326 C325 1.379 . S
H327 C321 0.959 . S
H328 C321 0.961 . S
H329 C321 0.960 . S
H330 C322 0.930 . S
H331 C323 0.929 . S
H332 C340 0.929 . S
H333 C342 0.930 . S
H334 C344 0.930 . S
H335 C347 0.929 . S
H336 C350 0.930 . S
H337 C352 0.960 . S
H338 C352 0.960 . S
H339 C352 0.960 . S
C340 H332 0.929 . S
C340 C341 1.377 . S
C340 C342 1.384 . S
C341 C340 1.377 . S
C341 C347 1.390 . S
C342 H333 0.930 . S
C342 C340 1.384 . S
C342 C343 1.372 . S
C343 C342 1.372 . S
C343 C344 1.400 . S
C343 C348 1.490 . S
C344 H334 0.930 . S
C344 C343 1.400 . S
C344 C347 1.386 . S
H345 C361 0.930 . S
H346 C362 0.931 . S
C347 H335 0.929 . S
C347 C341 1.390 . S
C347 C344 1.386 . S
C348 C343 1.490 . S
C348 C350 1.395 . S
C348 C351 1.403 . S
H349 C355 0.930 . S
C350 H336 0.930 . S
C350 C348 1.395 . S
C350 C353 1.403 . S
C351 C348 1.403 . S
C351 C352 1.524 . S
C351 C355 1.400 . S
C352 H337 0.960 . S
C352 H338 0.960 . S
C352 H339 0.960 . S
C352 C351 1.524 . S
C353 C350 1.403 . S
C353 C354 1.392 . S
C353 C357 1.495 . S
C354 C353 1.392 . S
C354 C355 1.385 . S
C354 C356 1.478 . S
C355 H349 0.930 . S
C355 C351 1.400 . S
C355 C354 1.385 . S
C356 C354 1.478 . S
C356 C358 1.381 . S
C356 C362 1.383 . S
C357 C353 1.495 . S
C357 H363 0.959 . S
C357 H364 0.961 . S
C357 H365 0.960 . S
C358 C356 1.381 . S
C358 C359 1.394 . S
C358 H366 0.930 . S
C359 C358 1.394 . S
C359 C360 1.383 . S
C359 H367 0.929 . S
C360 C359 1.383 . S
C360 C361 1.377 . S
C361 H345 0.930 . S
C361 C360 1.377 . S
C361 C362 1.379 . S
C362 H346 0.931 . S
C362 C356 1.383 . S
C362 C361 1.379 . S
H363 C357 0.959 . S
H364 C357 0.961 . S
H365 C357 0.960 . S
H366 C358 0.930 . S
H367 C359 0.929 . S
H368 C376 0.929 . S
H369 C378 0.930 1_455 S
H370 C380 0.930 . S
H371 C383 0.929 . S
H372 C386 0.930 . S
H373 C388 0.960 1_455 S
H374 C388 0.960 1_455 S
H375 C388 0.960 . S
C376 H368 0.929 . S
C376 C377 1.377 . S
C376 C378 1.384 . S
C377 C376 1.377 . S
C377 C383 1.390 . S
C378 H369 0.930 1_655 S
C378 C376 1.384 . S
C378 C379 1.372 . S
C379 C378 1.372 . S
C379 C380 1.400 . S
C379 C384 1.490 . S
C380 H370 0.930 . S
C380 C379 1.400 . S
C380 C383 1.386 . S
H381 C397 0.930 . S
H382 C398 0.931 1_655 S
C383 H371 0.929 . S
C383 C377 1.390 . S
C383 C380 1.386 . S
C384 C379 1.490 . S
C384 C386 1.395 . S
C384 C387 1.403 . S
H385 C391 0.930 . S
C386 H372 0.930 . S
C386 C384 1.395 . S
C386 C389 1.403 1_655 S
C387 C384 1.403 . S
C387 C388 1.524 . S
C387 C391 1.400 1_655 S
C388 H373 0.960 1_655 S
C388 H374 0.960 1_655 S
C388 H375 0.960 . S
C388 C387 1.524 . S
C389 C386 1.403 1_455 S
C389 C390 1.392 . S
C389 C393 1.495 . S
C390 C389 1.392 . S
C390 C391 1.385 . S
C390 C392 1.478 . S
C391 H385 0.930 . S
C391 C387 1.400 1_455 S
C391 C390 1.385 . S
C392 C390 1.478 . S
C392 C394 1.381 . S
C392 C398 1.383 . S
C393 C389 1.495 . S
C393 H399 0.959 1_455 S
C393 H400 0.961 1_455 S
C393 H401 0.960 . S
C394 C392 1.381 . S
C394 C395 1.394 . S
C394 H402 0.930 . S
C395 C394 1.394 . S
C395 C396 1.383 . S
C395 H403 0.929 . S
C396 C395 1.383 . S
C396 C397 1.377 . S
C397 H381 0.930 . S
C397 C396 1.377 . S
C397 C398 1.379 . S
C398 H382 0.931 1_455 S
C398 C392 1.383 . S
C398 C397 1.379 . S
H399 C393 0.959 1_655 S
H400 C393 0.961 1_655 S
H401 C393 0.960 . S
H402 C394 0.930 . S
H403 C395 0.929 . S
H404 C412 0.929 . S
H405 C414 0.930 1_455 S
H406 C416 0.930 . S
H407 C419 0.929 . S
H408 C422 0.930 . S
H409 C424 0.960 1_455 S
H410 C424 0.960 1_455 S
H411 C424 0.960 . S
C412 H404 0.929 . S
C412 C413 1.377 . S
C412 C414 1.384 . S
C413 C412 1.377 . S
C413 C419 1.390 . S
C414 H405 0.930 1_655 S
C414 C412 1.384 . S
C414 C415 1.372 . S
C415 C414 1.372 . S
C415 C416 1.400 . S
C415 C420 1.490 . S
C416 H406 0.930 . S
C416 C415 1.400 . S
C416 C419 1.386 . S
H417 C433 0.930 . S
H418 C434 0.931 1_655 S
C419 H407 0.929 . S
C419 C413 1.390 . S
C419 C416 1.386 . S
C420 C415 1.490 . S
C420 C422 1.395 . S
C420 C423 1.403 . S
H421 C427 0.930 . S
C422 H408 0.930 . S
C422 C420 1.395 . S
C422 C425 1.403 1_655 S
C423 C420 1.403 . S
C423 C424 1.524 . S
C423 C427 1.400 1_655 S
C424 H409 0.960 1_655 S
C424 H410 0.960 1_655 S
C424 H411 0.960 . S
C424 C423 1.524 . S
C425 C422 1.403 1_455 S
C425 C426 1.392 . S
C425 C429 1.495 . S
C426 C425 1.392 . S
C426 C427 1.385 . S
C426 C428 1.478 . S
C427 H421 0.930 . S
C427 C423 1.400 1_455 S
C427 C426 1.385 . S
C428 C426 1.478 . S
C428 C430 1.381 . S
C428 C434 1.383 . S
C429 C425 1.495 . S
C429 H435 0.959 . S
C429 H436 0.961 1_455 S
C429 H437 0.960 . S
C430 C428 1.381 . S
C430 C431 1.394 . S
C430 H438 0.930 . S
C431 C430 1.394 . S
C431 C432 1.383 . S
C431 H439 0.929 . S
C432 C431 1.383 . S
C432 C433 1.377 . S
C433 H417 0.930 . S
C433 C432 1.377 . S
C433 C434 1.379 . S
C434 H418 0.931 1_455 S
C434 C428 1.383 . S
C434 C433 1.379 . S
H435 C429 0.959 . S
H436 C429 0.961 1_655 S
H437 C429 0.960 . S
H438 C430 0.930 . S
H439 C431 0.929 . S
H440 C448 0.929 . S
H441 C450 0.930 1_455 S
H442 C452 0.930 . S
H443 C455 0.929 . S
H444 C458 0.930 . S
H445 C460 0.960 . S
H446 C460 0.960 . S
H447 C460 0.960 . S
C448 H440 0.929 . S
C448 C449 1.377 . S
C448 C450 1.384 . S
C449 C448 1.377 . S
C449 C455 1.390 . S
C450 H441 0.930 1_655 S
C450 C448 1.384 . S
C450 C451 1.372 . S
C451 C450 1.372 . S
C451 C452 1.400 . S
C451 C456 1.490 . S
C452 H442 0.930 . S
C452 C451 1.400 . S
C452 C455 1.386 . S
H453 C469 0.930 . S
H454 C470 0.931 . S
C455 H443 0.929 . S
C455 C449 1.390 . S
C455 C452 1.386 . S
C456 C451 1.490 . S
C456 C458 1.395 1_655 S
C456 C459 1.403 . S
H457 C463 0.930 . S
C458 H444 0.930 . S
C458 C456 1.395 1_455 S
C458 C461 1.403 . S
C459 C456 1.403 . S
C459 C460 1.524 . S
C459 C463 1.400 . S
C460 H445 0.960 . S
C460 H446 0.960 . S
C460 H447 0.960 . S
C460 C459 1.524 . S
C461 C458 1.403 . S
C461 C462 1.392 . S
C461 C465 1.495 . S
C462 C461 1.392 . S
C462 C463 1.385 1_455 S
C462 C464 1.478 . S
C463 H457 0.930 . S
C463 C459 1.400 . S
C463 C462 1.385 1_655 S
C464 C462 1.478 . S
C464 C466 1.381 . S
C464 C470 1.383 . S
C465 C461 1.495 . S
C465 H471 0.959 . S
C465 H472 0.961 . S
C465 H473 0.960 . S
C466 C464 1.381 . S
C466 C467 1.394 . S
C466 H474 0.930 . S
C467 C466 1.394 . S
C467 C468 1.383 . S
C467 H475 0.929 . S
C468 C467 1.383 . S
C468 C469 1.377 . S
C469 H453 0.930 . S
C469 C468 1.377 . S
C469 C470 1.379 . S
C470 H454 0.931 . S
C470 C464 1.383 . S
C470 C469 1.379 . S
H471 C465 0.959 . S
H472 C465 0.961 . S
H473 C465 0.960 . S
H474 C466 0.930 . S
H475 C467 0.929 . S
H476 C484 0.929 . S
H477 C486 0.930 1_655 S
H478 C488 0.930 . S
H479 C491 0.929 . S
H480 C494 0.930 . S
H481 C496 0.960 . S
H482 C496 0.960 . S
H483 C496 0.960 . S
C484 H476 0.929 . S
C484 C485 1.377 . S
C484 C486 1.384 . S
C485 C484 1.377 . S
C485 C491 1.390 . S
C486 H477 0.930 1_455 S
C486 C484 1.384 . S
C486 C487 1.372 . S
C487 C486 1.372 . S
C487 C488 1.400 . S
C487 C492 1.490 . S
C488 H478 0.930 . S
C488 C487 1.400 . S
C488 C491 1.386 . S
H489 C505 0.930 . S
H490 C506 0.931 1_455 S
C491 H479 0.929 . S
C491 C485 1.390 . S
C491 C488 1.386 . S
C492 C487 1.490 . S
C492 C494 1.395 1_455 S
C492 C495 1.403 . S
H493 C499 0.930 . S
C494 H480 0.930 . S
C494 C492 1.395 1_655 S
C494 C497 1.403 . S
C495 C492 1.403 . S
C495 C496 1.524 . S
C495 C499 1.400 . S
C496 H481 0.960 . S
C496 H482 0.960 . S
C496 H483 0.960 . S
C496 C495 1.524 . S
C497 C494 1.403 . S
C497 C498 1.392 . S
C497 C501 1.495 . S
C498 C497 1.392 . S
C498 C499 1.385 1_655 S
C498 C500 1.478 . S
C499 H493 0.930 . S
C499 C495 1.400 . S
C499 C498 1.385 1_455 S
C500 C498 1.478 . S
C500 C502 1.381 . S
C500 C506 1.383 . S
C501 C497 1.495 . S
C501 H507 0.959 . S
C501 H508 0.961 . S
C501 H509 0.960 . S
C502 C500 1.381 . S
C502 C503 1.394 . S
C502 H510 0.930 . S
C503 C502 1.394 . S
C503 C504 1.383 . S
C503 H511 0.929 . S
C504 C503 1.383 . S
C504 C505 1.377 . S
C505 H489 0.930 . S
C505 C504 1.377 . S
C505 C506 1.379 . S
C506 H490 0.931 1_655 S
C506 C500 1.383 . S
C506 C505 1.379 . S
H507 C501 0.959 . S
H508 C501 0.961 . S
H509 C501 0.960 . S
H510 C502 0.930 . S
H511 C503 0.929 . S
C89 C38 1.489 1_556 S
C108 C19 1.505 1_554 S
C125 C58 1.486 . S
C144 C79 1.495 . S
C161 C18 1.487 1_556 S
C180 C39 1.497 1_554 S
C197 C78 1.490 . S
C216 C59 1.467 . S
C233 C72 1.217 . S
C252 C12 1.179 . S
C269 C24 0.910 . S
C288 C44 0.843 . S
C305 C29 1.217 . S
C324 C49 1.244 . S
C341 C62 0.892 . S
C360 C2 0.840 . S
C377 C32 1.216 . S
C396 C52 1.189 . S
C413 C64 0.918 . S
C432 C4 0.877 . S
C449 C69 1.203 . S
C468 C9 1.187 . S
C485 C42 0.906 . S
C504 C22 0.917 . S
