# Generated by pormake.
# Topology vcr, (7)-cn, num edge types: 1
# Building blocks:
#     Node 0, Type 0, BuildingBlock: HICVOG_clean_sbu_0, # of connection points: 7
#     Node 1, Type 0, BuildingBlock: HICVOG_clean_sbu_0, # of connection points: 7
#     Node 2, Type 0, BuildingBlock: HICVOG_clean_sbu_0, # of connection points: 7
#     Node 3, Type 0, BuildingBlock: HICVOG_clean_sbu_0, # of connection points: 7
#     Node 4, Type 0, BuildingBlock: HICVOG_clean_sbu_0, # of connection points: 7
#     Node 5, Type 0, BuildingBlock: HICVOG_clean_sbu_0, # of connection points: 7
#     Node 6, Type 0, BuildingBlock: HICVOG_clean_sbu_0, # of connection points: 7
#     Node 7, Type 0, BuildingBlock: HICVOG_clean_sbu_0, # of connection points: 7
#     Edge 8, Type (0, 0), BuildingBlock: KIFKEQ_clean_linker_1, # of connection points: 2
#     Edge 9, Type (0, 0), BuildingBlock: KIFKEQ_clean_linker_1, # of connection points: 2
#     Edge 10, Type (0, 0), BuildingBlock: KIFKEQ_clean_linker_1, # of connection points: 2
#     Edge 11, Type (0, 0), BuildingBlock: KIFKEQ_clean_linker_1, # of connection points: 2
#     Edge 12, Type (0, 0), BuildingBlock: KIFKEQ_clean_linker_1, # of connection points: 2
#     Edge 13, Type (0, 0), BuildingBlock: KIFKEQ_clean_linker_1, # of connection points: 2
#     Edge 14, Type (0, 0), BuildingBlock: KIFKEQ_clean_linker_1, # of connection points: 2
#     Edge 15, Type (0, 0), BuildingBlock: KIFKEQ_clean_linker_1, # of connection points: 2
#     Edge 16, Type (0, 0), BuildingBlock: KIFKEQ_clean_linker_1, # of connection points: 2
#     Edge 17, Type (0, 0), BuildingBlock: KIFKEQ_clean_linker_1, # of connection points: 2
#     Edge 18, Type (0, 0), BuildingBlock: KIFKEQ_clean_linker_1, # of connection points: 2
#     Edge 19, Type (0, 0), BuildingBlock: KIFKEQ_clean_linker_1, # of connection points: 2
#     Edge 20, Type (0, 0), BuildingBlock: KIFKEQ_clean_linker_1, # of connection points: 2
#     Edge 21, Type (0, 0), BuildingBlock: KIFKEQ_clean_linker_1, # of connection points: 2
#     Edge 22, Type (0, 0), BuildingBlock: KIFKEQ_clean_linker_1, # of connection points: 2
#     Edge 23, Type (0, 0), BuildingBlock: KIFKEQ_clean_linker_1, # of connection points: 2
#     Edge 24, Type (0, 0), BuildingBlock: KIFKEQ_clean_linker_1, # of connection points: 2
#     Edge 25, Type (0, 0), BuildingBlock: KIFKEQ_clean_linker_1, # of connection points: 2
#     Edge 26, Type (0, 0), BuildingBlock: KIFKEQ_clean_linker_1, # of connection points: 2
#     Edge 27, Type (0, 0), BuildingBlock: KIFKEQ_clean_linker_1, # of connection points: 2
#     Edge 28, Type (0, 0), BuildingBlock: KIFKEQ_clean_linker_1, # of connection points: 2
#     Edge 29, Type (0, 0), BuildingBlock: KIFKEQ_clean_linker_1, # of connection points: 2
#     Edge 30, Type (0, 0), BuildingBlock: KIFKEQ_clean_linker_1, # of connection points: 2
#     Edge 31, Type (0, 0), BuildingBlock: KIFKEQ_clean_linker_1, # of connection points: 2
#     Edge 32, Type (0, 0), BuildingBlock: KIFKEQ_clean_linker_1, # of connection points: 2
#     Edge 33, Type (0, 0), BuildingBlock: KIFKEQ_clean_linker_1, # of connection points: 2
#     Edge 34, Type (0, 0), BuildingBlock: KIFKEQ_clean_linker_1, # of connection points: 2
#     Edge 35, Type (0, 0), BuildingBlock: KIFKEQ_clean_linker_1, # of connection points: 2
# Relax obj value: 0.299
# Max RMSD: 0.264
# Mean RMSD: 0.264
data_MOF--net-vcr--node1-HICVOG_clean_sbu_0--edge1-KIFKEQ_clean_linker_1
_symmetry_space_group_name_H-M    P1
_symmetry_Int_Tables_number       1
_symmetry_cell_setting            triclinic
loop_
_symmetry_equiv_pos_as_xyz
'x, y, z'
_cell_length_a     35.353375
_cell_length_b     50.727457
_cell_length_c     19.773208
_cell_angle_alpha  89.950256
_cell_angle_beta   90.023248
_cell_angle_gamma 89.977457
loop_
_atom_site_label
_atom_site_type_symbol
_atom_site_fract_x
_atom_site_fract_y
_atom_site_fract_z
_atom_type_partial_charge
Zn0 Zn 0.15965 0.12769 0.16211 0.0
C1 C 0.09535 0.09131 0.02393 0.0
N2 N 0.12427 0.07421 0.02192 0.0
C3 C 0.15079 0.08583 0.05987 0.0
N4 N 0.13868 0.10901 0.08525 0.0
N5 N 0.10405 0.11263 0.06177 0.0
C6 C 1.00542 0.1371 0.02944 0.0
O7 O 0.01041 0.12748 0.09048 0.0
O8 O 0.21712 0.12715 0.1523 0.0
Zn9 Zn 0.08688 0.14733 0.03752 0.0
N10 N 0.14375 0.10862 0.24325 0.0
C11 C 0.1115 0.07164 0.28984 0.0
C12 C 0.12525 0.08539 0.23432 0.0
C13 C 0.14781 0.1192 0.30628 0.0
N14 N 0.11555 0.08208 0.35238 0.0
C15 C 0.13304 0.10564 0.36294 0.0
O16 O 0.08906 0.17436 0.11278 0.0
C17 C 0.11298 0.1806 0.15833 0.0
O18 O 0.14033 0.16539 0.17447 0.0
H19 H 0.12015 0.07781 0.18444 0.0
H20 H 0.16102 0.13831 0.31132 0.0
C21 C 0.11698 0.1533 0.9021 0.0
C22 C 0.14435 0.16122 0.85432 0.0
C23 C 0.17982 0.1811 0.94268 0.0
C24 C 0.15278 0.17316 0.98955 0.0
N25 N 0.12185 0.15952 0.96854 0.0
N26 N 0.17507 0.1749 0.87653 0.0
H27 H 0.0927 0.14165 0.88745 0.0
C28 C 0.23702 0.14785 0.14445 0.0
O29 O 0.22032 0.17098 0.14617 0.0
O30 O 0.03368 0.1465 0.99769 0.0
H31 H 0.15677 0.17751 0.04245 0.0
H32 H 0.09693 0.05308 0.28321 0.0
H33 H 0.20463 0.19189 0.95879 0.0
Zn34 Zn 0.42727 0.89911 0.04016 0.0
C35 C 0.3579 0.95645 0.04479 0.0
N36 N 0.3841 0.96728 0.00443 0.0
C37 C 0.41535 0.95317 0.01723 0.0
N38 N 0.40804 0.93367 0.06178 0.0
N39 N 0.37243 0.93625 0.08116 0.0
C40 C 0.28267 0.90713 0.09593 0.0
O41 O 0.30704 0.89793 0.05178 0.0
O42 O 0.48111 0.90105 0.0049 0.0
Zn43 Zn 0.35234 0.9185 0.16055 0.0
N44 N 0.39608 0.88542 0.96685 0.0
C45 C 0.34714 0.85621 0.93249 0.0
C46 C 0.37043 0.86646 0.98264 0.0
C47 C 0.39959 0.89449 0.90218 0.0
N48 N 0.35051 0.86524 0.86824 0.0
C49 C 0.37605 0.88416 0.85075 0.0
O50 O 0.37231 0.88123 0.17541 0.0
C51 C 0.40001 0.8661 0.16097 0.0
O52 O 0.4244 0.87228 0.11615 0.0
H53 H 0.3678 0.85944 0.03395 0.0
H54 H 0.42081 0.90924 0.89156 0.0
C55 C 0.36408 0.92878 0.30406 0.0
C56 C 0.3766 0.94373 0.35999 0.0
C57 C 0.39553 0.97784 0.2849 0.0
C58 C 0.38366 0.96286 0.22997 0.0
N59 N 0.3676 0.93882 0.24031 0.0
N60 N 0.39173 0.96799 0.34826 0.0
H61 H 0.35152 0.90951 0.31082 0.0
C62 C 0.50837 0.91259 0.03458 0.0
O63 O 0.50236 0.92425 0.09288 0.0
O64 O 0.29513 0.91677 0.15096 0.0
H65 H 0.38698 0.97054 0.17939 0.0
H66 H 0.32647 0.8412 0.94446 0.0
H67 H 0.40792 0.99711 0.27726 0.0
Zn68 Zn 0.15877 0.41921 0.3406 0.0
C69 C 0.09627 0.45565 0.48127 0.0
N70 N 0.12549 0.4725 0.48251 0.0
C71 C 0.15141 0.46075 0.44352 0.0
N72 N 0.13869 0.43771 0.41839 0.0
N73 N 0.10424 0.43433 0.44289 0.0
C74 C 1.00421 0.41137 0.47216 0.0
O75 O 0.00938 0.42098 0.41116 0.0
O76 O 0.21615 0.41882 0.34861 0.0
Zn77 Zn 0.08556 0.3998 0.46524 0.0
N78 N 0.14359 0.43893 0.26024 0.0
C79 C 0.1134 0.47674 0.21337 0.0
C80 C 0.12505 0.46217 0.26919 0.0
C81 C 0.14963 0.42916 0.19694 0.0
N82 N 0.11963 0.46715 0.15045 0.0
C83 C 0.13709 0.44357 0.14012 0.0
O84 O 0.08763 0.37282 0.3895 0.0
C85 C 0.1115 0.36663 0.3438 0.0
O86 O 0.13881 0.38185 0.32774 0.0
H87 H 0.11881 0.46929 0.31918 0.0
H88 H 0.16399 0.41045 0.19125 0.0
C89 C 0.11465 0.39416 0.60114 0.0
C90 C 0.14063 0.38524 0.6504 0.0
C91 C 0.17347 0.3616 0.56477 0.0
C92 C 0.14803 0.37074 0.51647 0.0
N93 N 0.11904 0.38669 0.53546 0.0
N94 N 0.16922 0.36905 0.63016 0.0
H95 H 0.09111 0.40676 0.61415 0.0
C96 C 0.23471 0.39845 0.36632 0.0
O97 O 0.21645 0.37627 0.37676 0.0
O98 O 0.03223 0.40154 0.50377 0.0
H99 H 0.15156 0.36527 0.46415 0.0
H100 H 0.09898 0.49538 0.21997 0.0
H101 H 0.19663 0.34885 0.55038 0.0
Zn102 Zn 0.42597 0.6483 0.47583 0.0
C103 C 0.35996 0.58642 0.45374 0.0
N104 N 0.38628 0.57488 0.49252 0.0
C105 C 0.41446 0.59257 0.49348 0.0
N106 N 0.40546 0.6141 0.45673 0.0
N107 N 0.37148 0.61015 0.43077 0.0
C108 C 0.27591 0.64926 0.37854 0.0
O109 O 0.29444 0.67111 0.39159 0.0
O110 O 0.48011 0.64495 0.50952 0.0
Zn111 Zn 0.35175 0.6286 0.35229 0.0
N112 N 0.39482 0.66273 0.54777 0.0
C113 C 0.3435 0.69046 0.57902 0.0
C114 C 0.36758 0.68032 0.52994 0.0
C115 C 0.39876 0.65461 0.6131 0.0
N116 N 0.34726 0.68235 0.644 0.0
C117 C 0.37408 0.66455 0.6632 0.0
O118 O 0.37169 0.66595 0.33881 0.0
C119 C 0.39938 0.68101 0.35371 0.0
O120 O 0.42358 0.67478 0.39886 0.0
H121 H 0.36431 0.68631 0.4779 0.0
H122 H 0.4209 0.64068 0.62508 0.0
C123 C 0.36141 0.61867 0.20884 0.0
C124 C 0.37447 0.60446 0.15213 0.0
C125 C 0.39879 0.57152 0.22556 0.0
C126 C 0.38674 0.58595 0.28129 0.0
N127 N 0.36752 0.60892 0.27221 0.0
N128 N 0.39245 0.58107 0.16257 0.0
H129 H 0.34668 0.63723 0.20298 0.0
C130 C 0.50713 0.64087 0.46837 0.0
O131 O 0.49942 0.63859 0.40363 0.0
O132 O 0.2943 0.62906 0.35909 0.0
H133 H 0.39329 0.57894 0.3313 0.0
H134 H 0.32173 0.70451 0.56555 0.0
H135 H 0.41369 0.55307 0.23228 0.0
Zn136 Zn 0.85332 0.91809 0.84363 0.0
C137 C 0.90271 0.95332 1.00194 0.0
N138 N 0.87022 0.96696 0.00412 0.0
C139 C 0.84915 0.95555 0.95612 0.0
N140 N 0.86788 0.93577 0.92531 0.0
N141 N 0.90127 0.93396 0.95509 0.0
C142 C 0.00725 0.90764 0.95763 0.0
O143 O 0.99902 0.90651 0.89288 0.0
O144 O 0.79594 0.91816 0.84238 0.0
Zn145 Zn 0.92635 0.90072 0.97015 0.0
N146 N 0.87465 0.93756 0.76787 0.0
C147 C 0.9114 0.97352 0.72698 0.0
C148 C 0.89569 0.95947 0.78055 0.0
C149 C 0.86993 0.92856 0.70359 0.0
N150 N 0.90642 0.96471 0.66286 0.0
C151 C 0.88642 0.9424 0.64933 0.0
O152 O 0.92497 0.87394 0.89344 0.0
C153 C 0.90082 0.86658 0.84939 0.0
O154 O 0.87235 0.88075 0.8338 0.0
H155 H 0.89989 0.96622 0.83181 0.0
H156 H 0.85342 0.91091 0.69516 0.0
C157 C 0.90291 0.89334 0.10826 0.0
C158 C 0.88027 0.88262 0.16033 0.0
C159 C 0.85106 0.85453 0.07929 0.0
C160 C 0.87308 0.86548 0.02829 0.0
N161 N 0.89862 0.88455 0.04369 0.0
N162 N 0.85508 0.86336 0.14356 0.0
H163 H 0.92363 0.90851 0.11776 0.0
C164 C 0.77841 0.9003 0.8749 0.0
O165 O 0.79788 0.88104 0.90255 0.0
O166 O 0.98057 0.90605 1.00054 0.0
H167 H 0.86948 0.859 0.97673 0.0
H168 H 0.92769 0.9912 0.73627 0.0
H169 H 0.8306 0.83932 0.06786 0.0
Zn170 Zn 0.58773 0.14823 0.96799 0.0
C171 C 0.65216 0.08536 0.93243 0.0
N172 N 0.62938 0.07369 0.97721 0.0
C173 C 0.60241 0.09187 0.98723 0.0
N174 N 0.6083 0.1137 0.94931 0.0
N175 N 0.63972 0.10945 0.9146 0.0
C176 C 0.73483 0.14882 0.86865 0.0
O177 O 0.71624 0.17042 0.88406 0.0
O178 O 0.53472 0.14597 0.00792 0.0
Zn179 Zn 0.65902 0.12881 0.83823 0.0
N180 N 0.62092 0.16309 0.03588 0.0
C181 C 0.67297 0.19072 0.06348 0.0
C182 C 0.64756 0.18081 0.0162 0.0
C183 C 0.61878 0.1547 0.10113 0.0
N184 N 0.67105 0.18227 0.12846 0.0
C185 C 0.64479 0.16436 0.14929 0.0
O186 O 0.6386 0.16587 0.82688 0.0
C187 C 0.61101 0.18073 0.84334 0.0
O188 O 0.58777 0.17439 0.88994 0.0
H189 H 0.64932 0.18706 0.96413 0.0
H190 H 0.59696 0.14074 0.11445 0.0
C191 C 0.65294 0.11863 0.69471 0.0
C192 C 0.63997 0.10497 0.63718 0.0
C193 C 0.60889 0.07425 0.70856 0.0
C194 C 0.62073 0.08829 0.7651 0.0
N195 N 0.64338 0.10977 0.75747 0.0
N196 N 0.61866 0.0829 0.64615 0.0
H197 H 0.67018 0.13616 0.68992 0.0
C198 C 0.50547 0.14222 0.97168 0.0
O199 O 0.50938 0.13936 0.90602 0.0
O200 O 0.71656 0.12909 0.84597 0.0
H201 H 0.61142 0.08216 0.81455 0.0
H202 H 0.69432 0.20485 0.04859 0.0
H203 H 0.59138 0.05689 0.71412 0.0
Zn204 Zn 0.85184 0.62939 0.6734 0.0
C205 C 0.90578 0.59182 0.52226 0.0
N206 N 0.87759 0.57451 0.53162 0.0
C207 C 0.85586 0.58648 0.57745 0.0
N208 N 0.87008 0.60992 0.59654 0.0
N209 N 0.90154 0.61351 0.56142 0.0
C210 C 0.00633 0.64006 0.54132 0.0
O211 O 1.00231 0.6363 0.60666 0.0
O212 O 0.79458 0.63146 0.66504 0.0
Zn213 Zn 0.92409 0.64767 0.54372 0.0
N214 N 0.86653 0.60987 0.75401 0.0
C215 C 0.89982 0.57366 0.80247 0.0
C216 C 0.88854 0.58808 0.74611 0.0
C217 C 0.85714 0.61868 0.81686 0.0
N218 N 0.89021 0.58227 0.865 0.0
C219 C 0.86959 0.60464 0.87423 0.0
O220 O 0.92464 0.67371 0.62197 0.0
C221 C 0.90147 0.68042 0.66828 0.0
O222 O 0.87343 0.66598 0.6846 0.0
H223 H 0.89772 0.582 0.69653 0.0
H224 H 0.84047 0.63647 0.82184 0.0
C225 C 0.89279 0.65401 0.41056 0.0
C226 C 0.86864 0.66516 0.36128 0.0
C227 C 0.84636 0.69554 0.44386 0.0
C228 C 0.87015 0.68436 0.49202 0.0
N229 N 0.89277 0.6638 0.47462 0.0
N230 N 0.84617 0.68572 0.38013 0.0
H231 H 0.9117 0.63792 0.39912 0.0
C232 C 0.78166 0.64429 0.61475 0.0
O233 O 0.80571 0.6562 0.57441 0.0
O234 O 0.97727 0.64466 0.50525 0.0
H235 H 0.87022 0.69191 0.54301 0.0
H236 H 0.91678 0.55605 0.7967 0.0
H237 H 0.82806 0.71184 0.45701 0.0
Zn238 Zn 0.65795 0.41794 0.66036 0.0
C239 C 0.60575 0.45354 0.50479 0.0
N240 N 0.63813 0.46723 0.50129 0.0
C241 C 0.65993 0.45597 0.54845 0.0
N242 N 0.64179 0.43606 0.57989 0.0
N243 N 0.60799 0.43409 0.55155 0.0
C244 C 0.50407 0.40803 0.53107 0.0
O245 O 0.50833 0.41268 0.59596 0.0
O246 O 0.71556 0.41833 0.65913 0.0
Zn247 Zn 0.5863 0.39989 0.53301 0.0
N248 N 0.63747 0.43699 0.73764 0.0
C249 C 0.60061 0.47255 0.78039 0.0
C250 C 0.61573 0.45868 0.72606 0.0
C251 C 0.64351 0.42803 0.80167 0.0
N252 N 0.60691 0.4638 0.84422 0.0
C253 C 0.62768 0.44172 0.85677 0.0
O254 O 0.58716 0.37297 0.60947 0.0
C255 C 0.61114 0.36597 0.65424 0.0
O256 O 0.63911 0.38051 0.67033 0.0
H257 H 0.61053 0.46542 0.67506 0.0
H258 H 0.66058 0.41057 0.80927 0.0
C259 C 0.61348 0.39329 0.39732 0.0
C260 C 0.63857 0.38407 0.3471 0.0
C261 C 0.67082 0.35907 0.43112 0.0
C262 C 0.64631 0.36858 0.48039 0.0
N263 N 0.61807 0.38538 0.46258 0.0
N264 N 0.66646 0.36705 0.3661 0.0
H265 H 0.59051 0.40657 0.38565 0.0
C266 C 0.73443 0.39913 0.63517 0.0
O267 O 0.71645 0.37764 0.61671 0.0
O268 O 0.53294 0.40261 0.49532 0.0
H269 H 0.65004 0.3628 0.5325 0.0
H270 H 0.58376 0.49005 0.77194 0.0
H271 H 0.69343 0.34566 0.44447 0.0
H272 H 0.44233 0.11793 0.92261 0.0
H273 H 0.48244 0.16435 0.09091 0.0
H274 H 0.37864 0.11794 0.97109 0.0
H275 H 0.41843 0.16482 0.13859 0.0
H276 H 0.28813 0.18808 0.13173 0.0
H277 H 0.35412 0.18528 0.09567 0.0
H278 H 0.34457 0.10069 0.08154 0.0
H279 H 0.27895 0.10332 0.12003 0.0
C280 C 0.43754 0.12811 0.96997 0.0
C281 C 0.46734 0.14127 0.00277 0.0
C282 C 0.40115 0.12797 0.99789 0.0
C283 C 0.3936 0.14144 0.05849 0.0
C284 C 0.42345 0.15439 0.09165 0.0
C285 C 0.46005 0.15404 0.06449 0.0
C286 C 0.30014 0.16883 0.1217 0.0
C287 C 0.27796 0.14593 0.12785 0.0
C288 C 0.33799 0.16726 0.10122 0.0
C289 C 0.35437 0.1428 0.08534 0.0
C290 C 0.33253 0.11984 0.09278 0.0
C291 C 0.29491 0.12136 0.11466 0.0
H292 H 0.24789 0.8832 0.98975 0.0
H293 H 0.22505 0.93226 0.1635 0.0
H294 H 0.18147 0.88471 0.95863 0.0
H295 H 0.15822 0.93424 0.13137 0.0
H296 H 0.03502 0.90657 0.08726 0.0
H297 H 0.10121 0.90724 0.12278 0.0
H298 H 0.1358 0.9152 0.91423 0.0
H299 H 0.06994 0.91389 0.87873 0.0
C300 C 0.22867 0.89437 0.02133 0.0
C301 C 0.2418 0.90755 0.07923 0.0
C302 C 0.19054 0.89541 0.00314 0.0
C303 C 0.16445 0.90978 0.0421 0.0
C304 C 0.17747 0.92279 0.10053 0.0
C305 C 0.21576 0.92169 0.1189 0.0
C306 C 0.05677 0.90857 0.04904 0.0
C307 C 0.04717 0.90988 0.98005 0.0
C308 C 0.09473 0.9091 0.06946 0.0
C309 C 0.12392 0.91099 0.02135 0.0
C310 C 0.11414 0.91315 0.95259 0.0
C311 C 0.07629 0.91255 0.93221 0.0
H312 H 0.47957 0.38026 0.42121 0.0
H313 H 0.44226 0.43601 0.57202 0.0
H314 H 0.41521 0.37834 0.37519 0.0
H315 H 0.37821 0.43464 0.52453 0.0
H316 H 0.28011 0.4423 0.36347 0.0
H317 H 0.34599 0.44583 0.40045 0.0
H318 H 0.34926 0.36192 0.43522 0.0
H319 H 0.28285 0.35847 0.40174 0.0
C320 C 0.45774 0.39233 0.44395 0.0
C321 C 0.46584 0.40817 0.50045 0.0
C322 C 0.42097 0.39116 0.41775 0.0
C323 C 0.39188 0.40634 0.44638 0.0
C324 C 0.40023 0.42284 0.50143 0.0
C325 C 0.43676 0.4235 0.52874 0.0
C326 C 0.2947 0.42464 0.37958 0.0
C327 C 0.27586 0.40022 0.3811 0.0
C328 C 0.33246 0.42667 0.40038 0.0
C329 C 0.35253 0.40416 0.42096 0.0
C330 C 0.33436 0.37956 0.41947 0.0
C331 C 0.29634 0.37763 0.40035 0.0
H332 H 0.06818 0.61231 0.58318 0.0
H333 H 0.03063 0.66719 0.43019 0.0
H334 H 0.13224 0.61354 0.53569 0.0
H335 H 0.09504 0.66903 0.38422 0.0
H336 H 0.22789 0.68919 0.41455 0.0
H337 H 0.16133 0.68576 0.44707 0.0
H338 H 0.16414 0.60207 0.40947 0.0
H339 H 0.23019 0.6056 0.3734 0.0
C340 C 0.07363 0.62459 0.5394 0.0
C341 C 0.04449 0.63972 0.5105 0.0
C342 C 0.11016 0.62518 0.51211 0.0
C343 C 0.11845 0.64142 0.45648 0.0
C344 C 0.0893 0.65639 0.4272 0.0
C345 C 0.05252 0.65526 0.45337 0.0
C346 C 0.21427 0.67009 0.41231 0.0
C347 C 0.23467 0.64755 0.39254 0.0
C348 C 0.17616 0.66817 0.43086 0.0
C349 C 0.15783 0.64363 0.4313 0.0
C350 C 0.17781 0.62118 0.41016 0.0
C351 C 0.21565 0.6232 0.38988 0.0
H352 H 0.72999 0.86116 0.91204 0.0
H353 H 0.73419 0.94468 0.87002 0.0
H354 H 0.66365 0.86529 0.9447 0.0
H355 H 0.66782 0.94885 0.90389 0.0
H356 H 0.5681 0.94491 0.06392 0.0
H357 H 0.63228 0.9429 0.01771 0.0
H358 H 0.59966 0.87733 0.89159 0.0
H359 H 0.53545 0.87947 0.93705 0.0
C360 C 0.71664 0.88036 0.90918 0.0
C361 C 0.73732 0.90257 0.88833 0.0
C362 C 0.67863 0.8827 0.92769 0.0
C363 C 0.66059 0.90739 0.92695 0.0
C364 C 0.68107 0.92959 0.90525 0.0
C365 C 0.71897 0.92716 0.88545 0.0
C366 C 0.57459 0.93015 0.02611 0.0
C367 C 0.54678 0.91222 0.00453 0.0
C368 C 0.61124 0.92913 0.99932 0.0
C369 C 0.62097 0.9099 0.95122 0.0
C370 C 0.59301 0.89224 0.92894 0.0
C371 C 0.55624 0.89353 0.95484 0.0
H372 H 0.7802 0.10488 0.86351 0.0
H373 H 0.78301 0.18833 0.90657 0.0
H374 H 0.8464 0.10111 0.89824 0.0
H375 H 0.84947 0.18461 0.93907 0.0
H376 H 0.97885 0.16975 0.9299 0.0
H377 H 0.91437 0.17218 0.88481 0.0
H378 H 0.8811 0.10768 0.01414 0.0
H379 H 0.94532 0.10552 0.06017 0.0
C380 C 0.7949 0.12243 0.88 0.0
C381 C 0.77603 0.14684 0.88315 0.0
C382 C 0.83284 0.12025 0.89983 0.0
C383 C 0.85305 0.14255 0.92159 0.0
C384 C 0.83466 0.16711 0.92221 0.0
C385 C 0.79654 0.1692 0.90376 0.0
C386 C 0.95782 0.156 0.9484 0.0
C387 C 0.96708 0.13758 0.99896 0.0
C388 C 0.92091 0.15747 0.92278 0.0
C389 C 0.89271 0.14015 0.94605 0.0
C390 C 0.9023 0.12118 0.99501 0.0
C391 C 0.93898 0.12007 0.02164 0.0
H392 H 0.72399 0.61767 0.67875 0.0
H393 H 0.74665 0.67008 0.51125 0.0
H394 H 0.65733 0.61569 0.64527 0.0
H395 H 0.68042 0.66828 0.47849 0.0
H396 H 0.57111 0.63609 0.39202 0.0
H397 H 0.63661 0.63622 0.43003 0.0
H398 H 0.59931 0.64335 0.63713 0.0
H399 H 0.53344 0.64294 0.59909 0.0
C400 C 0.71473 0.62896 0.63526 0.0
C401 C 0.74071 0.64404 0.59773 0.0
C402 C 0.67652 0.62785 0.61614 0.0
C403 C 0.66355 0.64167 0.55887 0.0
C404 C 0.68951 0.65702 0.52213 0.0
C405 C 0.72752 0.6582 0.54128 0.0
C406 C 0.57676 0.63759 0.44572 0.0
C407 C 0.54694 0.63972 0.49241 0.0
C408 C 0.61439 0.63781 0.46751 0.0
C409 C 0.62328 0.64007 0.53661 0.0
C410 C 0.59347 0.64147 0.58358 0.0
C411 C 0.55571 0.64138 0.56172 0.0
H412 H 0.77609 0.44457 0.62505 0.0
H413 H 0.78546 0.35983 0.61192 0.0
H414 H 0.84236 0.44887 0.59094 0.0
H415 H 0.85167 0.36416 0.57863 0.0
H416 H 0.97896 0.38181 0.57884 0.0
H417 H 0.91487 0.37994 0.62513 0.0
H418 H 0.87882 0.43908 0.48187 0.0
H419 H 0.94281 0.44084 0.43511 0.0
C420 C 0.7924 0.42686 0.61588 0.0
C421 C 0.77548 0.40184 0.62119 0.0
C422 C 0.83027 0.42934 0.5959 0.0
C423 C 0.85221 0.40685 0.58202 0.0
C424 C 0.83561 0.38184 0.58951 0.0
C425 C 0.79763 0.37937 0.60834 0.0
C426 C 0.95743 0.39454 0.55748 0.0
C427 C 0.96591 0.41131 0.5029 0.0
C428 C 0.92071 0.39338 0.58385 0.0
C429 C 0.89178 0.4093 0.55702 0.0
C430 C 0.90055 0.42669 0.50389 0.0
C431 C 0.93714 0.42755 0.47681 0.0
H432 H 0.05337 0.3308 0.35059 0.0
H433 H 0.16545 0.34166 0.26792 0.0
H434 H 0.05254 0.28566 0.30738 0.0
H435 H 0.16451 0.29659 0.22515 0.0
H436 H 0.16688 0.20604 0.23349 0.0
H437 H 0.16516 0.25108 0.2766 0.0
H438 H 0.05255 0.26094 0.19612 0.0
H439 H 0.05416 0.21587 0.15261 0.0
C440 C 0.0777 0.32368 0.32281 0.0
C441 C 0.10948 0.33994 0.31285 0.0
C442 C 0.07717 0.29781 0.29795 0.0
C443 C 0.10858 0.28748 0.26335 0.0
C444 C 0.14007 0.30385 0.25242 0.0
C445 C 0.14044 0.32979 0.27648 0.0
C446 C 0.14159 0.21768 0.22538 0.0
C447 C 0.11068 0.20727 0.18937 0.0
C448 C 0.14075 0.24359 0.24966 0.0
C449 C 0.10883 0.25965 0.23932 0.0
C450 C 0.07749 0.24903 0.2051 0.0
C451 C 0.07849 0.22322 0.18003 0.0
H452 H 0.34543 0.70608 0.27779 0.0
H453 H 0.45816 0.71637 0.35818 0.0
H454 H 0.34698 0.75089 0.23309 0.0
H455 H 0.45959 0.76126 0.3131 0.0
H456 H 0.4584 0.8304 0.15608 0.0
H457 H 0.45952 0.78553 0.20126 0.0
H458 H 0.34734 0.79658 0.28245 0.0
H459 H 0.3461 0.84138 0.23766 0.0
C460 C 0.3707 0.71777 0.28547 0.0
C461 C 0.40165 0.70755 0.32178 0.0
C462 C 0.37143 0.74356 0.26029 0.0
C463 C 0.40329 0.75971 0.27002 0.0
C464 C 0.43469 0.74928 0.30457 0.0
C465 C 0.4338 0.72357 0.33053 0.0
C466 C 0.43407 0.82336 0.18402 0.0
C467 C 0.40213 0.83958 0.19304 0.0
C468 C 0.43478 0.79766 0.21004 0.0
C469 C 0.4034 0.78742 0.24493 0.0
C470 C 0.37176 0.80376 0.25497 0.0
C471 C 0.3712 0.82954 0.22972 0.0
H472 H 0.8476 0.84003 0.77605 0.0
H473 H 0.96095 0.8322 0.85576 0.0
H474 H 0.85032 0.79489 0.73469 0.0
H475 H 0.96355 0.78683 0.81359 0.0
H476 H 0.95989 0.71601 0.65669 0.0
H477 H 0.96201 0.76122 0.70002 0.0
H478 H 0.8527 0.75017 0.79281 0.0
H479 H 0.85048 0.70519 0.75036 0.0
C480 C 0.87327 0.82881 0.78428 0.0
C481 C 0.90402 0.83979 0.81955 0.0
C482 C 0.87468 0.80285 0.76093 0.0
C483 C 0.907 0.78726 0.77149 0.0
C484 C 0.93829 0.79842 0.80468 0.0
C485 C 0.93673 0.82436 0.82893 0.0
C486 C 0.93649 0.72313 0.68695 0.0
C487 C 0.90494 0.70693 0.6997 0.0
C488 C 0.93778 0.74899 0.71183 0.0
C489 C 0.90733 0.75929 0.74912 0.0
C490 C 0.87634 0.74289 0.76338 0.0
C491 C 0.87523 0.71702 0.73935 0.0
H492 H 0.66307 0.20535 0.76305 0.0
H493 H 0.5524 0.21629 0.85169 0.0
H494 H 0.66095 0.25008 0.71841 0.0
H495 H 0.55039 0.2612 0.80629 0.0
H496 H 0.55176 0.33099 0.64769 0.0
H497 H 0.5496 0.28589 0.69191 0.0
H498 H 0.66213 0.29531 0.77299 0.0
H499 H 0.66439 0.34019 0.72955 0.0
C500 C 0.63809 0.21716 0.77252 0.0
C501 C 0.60795 0.20717 0.81129 0.0
C502 C 0.63703 0.24288 0.74726 0.0
C503 C 0.60566 0.25922 0.75938 0.0
C504 C 0.5749 0.24903 0.79605 0.0
C505 C 0.57614 0.22333 0.82216 0.0
C506 C 0.57593 0.32351 0.67538 0.0
C507 C 0.60829 0.33926 0.68484 0.0
C508 C 0.57462 0.29771 0.70083 0.0
C509 C 0.60583 0.28701 0.73533 0.0
C510 C 0.63784 0.3029 0.74579 0.0
C511 C 0.63898 0.32872 0.72124 0.0
H512 H 0.31747 0.96419 0.16343 0.0
H513 H 0.31773 0.98154 0.94981 0.0
H514 H 0.26903 0.99785 0.18112 0.0
H515 H 0.26997 1.01534 0.96753 0.0
H516 H 0.22405 0.09389 0.02579 0.0
H517 H 0.27392 0.06028 0.03007 0.0
H518 H 0.19969 1.00874 0.14217 0.0
H519 H 0.14995 0.04186 0.13619 0.0
C520 C 0.30664 0.97458 0.12012 0.0
C521 C 0.32166 0.97027 0.05536 0.0
C522 C 0.27921 0.99411 0.13036 0.0
C523 C 0.26693 1.00977 0.07599 0.0
C524 C 0.27993 1.00412 0.01066 0.0
C525 C 0.30682 0.9845 1.00047 0.0
C526 C 0.21918 0.07588 0.05398 0.0
C527 C 0.18376 0.07077 0.08259 0.0
C528 C 0.24735 0.05653 0.05562 0.0
C529 C 0.24035 0.0319 0.08605 0.0
C530 C 0.20591 0.02764 0.11917 0.0
C531 C 0.17763 0.04677 0.11649 0.0
H532 H 0.22621 0.45096 0.46289 0.0
H533 H 0.1478 0.5062 0.37424 0.0
H534 H 0.27753 0.48286 0.44745 0.0
H535 H 0.19883 0.53781 0.3574 0.0
H536 H 0.28451 0.59548 0.46655 0.0
H537 H 0.23406 0.5634 0.44554 0.0
H538 H 0.31607 0.50879 0.3644 0.0
H539 H 0.36619 0.54063 0.38653 0.0
C540 C 0.22044 0.46938 0.43706 0.0
C541 C 0.18356 0.47588 0.41775 0.0
C542 C 0.24961 0.48771 0.42858 0.0
C543 C 0.24205 0.5128 0.40114 0.0
C544 C 0.2054 0.51867 0.37873 0.0
C545 C 0.17638 0.50044 0.38747 0.0
C546 C 0.29128 0.57711 0.44141 0.0
C547 C 0.32879 0.57077 0.42611 0.0
C548 C 0.2626 0.55868 0.42976 0.0
C549 C 0.27125 0.53365 0.40308 0.0
C550 C 0.30865 0.52788 0.38502 0.0
C551 C 0.33718 0.54622 0.39692 0.0
H552 H 0.72667 0.09218 0.95482 0.0
H553 H 0.64591 0.04341 0.84984 0.0
H554 H 0.77417 0.05729 0.94358 0.0
H555 H 0.69348 1.00881 0.83757 0.0
H556 H 0.82605 0.9684 0.82698 0.0
H557 H 0.77923 1.00228 0.799 0.0
H558 H 0.74754 1.00679 0.00919 0.0
H559 H 0.794 0.97292 0.03703 0.0
C560 C 0.71992 0.07477 0.92546 0.0
C561 C 0.68319 0.07073 0.90134 0.0
C562 C 0.74682 0.05475 0.91968 0.0
C563 C 0.73713 0.03059 0.88966 0.0
C564 C 0.70156 0.02749 0.85982 0.0
C565 C 0.67456 0.04739 0.86628 0.0
C566 C 0.80827 0.97588 0.86665 0.0
C567 C 0.81373 0.96807 0.93414 0.0
C568 C 0.78177 0.99543 0.85072 0.0
C569 C 0.76087 1.00739 0.90243 0.0
C570 C 0.76403 0.99803 0.96885 0.0
C571 C 0.79019 0.97849 0.98453 0.0
H572 H 0.71242 0.47627 0.4663 0.0
H573 H 0.68522 0.46709 0.67756 0.0
H574 H 0.7574 0.51089 0.49496 0.0
H575 H 0.73075 0.5016 0.70642 0.0
H576 H 0.85969 0.54546 0.66369 0.0
H577 H 0.81176 0.51111 0.67363 0.0
H578 H 0.73411 0.55911 0.55883 0.0
H579 H 0.78204 0.59362 0.54951 0.0
C580 C 0.71695 0.48102 0.51912 0.0
C581 C 0.6951 0.46903 0.56972 0.0
C582 C 0.74222 0.50103 0.53533 0.0
C583 C 0.74632 0.50928 0.60253 0.0
C584 C 0.72735 0.49573 0.65411 0.0
C585 C 0.70161 0.47578 0.63763 0.0
C586 C 0.8315 0.5495 0.64502 0.0
C587 C 0.82396 0.5726 0.60806 0.0
C588 C 0.80429 0.52969 0.65 0.0
C589 C 0.76964 0.53259 0.61669 0.0
C590 C 0.76077 0.55666 0.58519 0.0
C591 C 0.78787 0.57656 0.58078 0.0
H592 H 0.05243 0.07938 0.13104 0.0
H593 H 0.05703 0.07388 0.91385 0.0
H594 H 0.00982 0.04209 0.13535 0.0
H595 H 0.01171 0.03763 0.91674 0.0
H596 H 0.96919 0.95666 0.93286 0.0
H597 H 0.01346 0.9931 0.94183 0.0
H598 H 0.95383 1.02111 0.1189 0.0
H599 H 0.91235 0.9832 0.11328 0.0
C600 C 0.04227 0.07119 0.0838 0.0
C601 C 0.05749 0.0797 0.022 0.0
C602 C 0.01815 0.04945 0.08619 0.0
C603 C 0.00809 0.03608 0.02652 0.0
C604 C 0.02005 0.04663 0.96406 0.0
C605 C 0.045 0.06799 0.96194 0.0
C606 C 0.96724 0.96959 0.97625 0.0
C607 C 0.93756 0.96693 0.02276 0.0
C608 C 0.99169 0.99118 0.97999 0.0
C609 C 0.98632 1.01089 0.02933 0.0
C610 C 0.95898 1.00663 0.07985 0.0
C611 C 0.93527 0.98467 0.07708 0.0
H612 H 0.53551 0.09142 0.9218 0.0
H613 H 0.59022 0.06836 0.10718 0.0
H614 H 0.48974 0.05616 0.93555 0.0
H615 H 0.54719 0.03142 0.11813 0.0
H616 H 0.45251 0.97005 0.12784 0.0
H617 H 0.49107 1.00953 0.1327 0.0
H618 H 0.49514 1.01131 0.91398 0.0
H619 H 0.45397 0.97276 0.91004 0.0
C620 C 0.53624 0.07987 0.96782 0.0
C621 C 0.566 0.0829 0.01397 0.0
C622 C 0.51107 0.05879 0.97426 0.0
C623 C 0.51588 0.03999 0.02608 0.0
C624 C 0.54261 0.04518 0.0771 0.0
C625 C 0.56707 0.06668 0.07149 0.0
C626 C 0.46293 0.97832 0.08088 0.0
C627 C 0.45078 0.96818 0.01847 0.0
C628 C 0.4847 1.00125 0.08358 0.0
C629 C 0.49536 1.0143 0.02376 0.0
C630 C 0.48618 1.00254 0.96125 0.0
C631 C 0.46364 0.97993 0.95868 0.0
H632 H 0.05313 0.46904 0.3755 0.0
H633 H 0.05887 0.47252 0.59287 0.0
H634 H 0.01229 0.50736 0.37386 0.0
H635 H 0.01515 0.50971 0.59267 0.0
H636 H 0.97316 0.58996 0.58623 0.0
H637 H 0.01808 0.55427 0.57122 0.0
H638 H 0.95764 0.52968 0.39163 0.0
H639 H 0.91583 0.56722 0.40328 0.0
C640 C 0.04355 0.47705 0.42333 0.0
C641 C 0.05868 0.46766 0.48442 0.0
C642 C 0.02049 0.49938 0.42247 0.0
C643 C 0.01131 0.51246 0.48301 0.0
C644 C 0.02295 0.50102 0.54469 0.0
C645 C 0.04692 0.47909 0.54528 0.0
C646 C 0.97162 0.57832 0.54049 0.0
C647 C 0.94153 0.58171 0.4952 0.0
C648 C 0.99624 0.55694 0.53346 0.0
C649 C 0.99047 0.5381 0.48211 0.0
C650 C 0.96309 0.54344 0.43225 0.0
C651 C 0.93929 0.56529 0.43825 0.0
H652 H 0.45069 0.57365 0.60447 0.0
H653 H 0.46114 0.58435 0.38926 0.0
H654 H 0.49622 0.53767 0.60017 0.0
H655 H 0.50298 0.5469 0.3826 0.0
H656 H 0.5943 0.48405 0.39527 0.0
H657 H 0.55463 0.52276 0.39433 0.0
H658 H 0.49745 0.49445 0.57403 0.0
H659 H 0.54114 0.45767 0.57926 0.0
C660 C 0.46399 0.5689 0.55664 0.0
C661 C 0.45287 0.58191 0.49743 0.0
C662 C 0.489 0.54757 0.55344 0.0
C663 C 0.50219 0.53818 0.49051 0.0
C664 C 0.4938 0.55311 0.43224 0.0
C665 C 0.47002 0.57503 0.436 0.0
C666 C 0.57231 0.48571 0.43324 0.0
C667 C 0.57073 0.46769 0.48709 0.0
C668 C 0.54953 0.50818 0.43315 0.0
C669 C 0.52336 0.51265 0.48561 0.0
C670 C 0.51841 0.49263 0.53447 0.0
C671 C 0.54233 0.47067 0.53593 0.0
H672 H 0.08027 0.15457 0.77608 0.0
H673 H 0.20238 0.1533 0.76642 0.0
H674 H 0.07717 0.14361 0.65634 0.0
H675 H 0.19926 0.14196 0.64707 0.0
H676 H 0.18224 0.14243 0.41965 0.0
H677 H 0.18327 0.15789 0.53623 0.0
H678 H 0.08891 0.10705 0.58353 0.0
H679 H 0.08658 0.09256 0.46711 0.0
C680 C 0.10647 0.1516 0.74881 0.0
C681 C 0.1416 0.15444 0.78134 0.0
C682 C 0.1047 0.1454 0.67992 0.0
C683 C 0.13798 0.14179 0.6419 0.0
C684 C 0.17305 0.14497 0.67433 0.0
C685 C 0.17482 0.15131 0.74302 0.0
C686 C 0.16119 0.1349 0.45432 0.0
C687 C 0.13415 0.11628 0.43321 0.0
C688 C 0.16212 0.14355 0.52165 0.0
C689 C 0.13615 0.13374 0.56948 0.0
C690 C 0.10898 0.11538 0.5481 0.0
C691 C 0.10797 0.10682 0.48112 0.0
H692 H 0.38299 0.89269 0.4079 0.0
H693 H 0.36681 0.97311 0.47346 0.0
H694 H 0.38442 0.8783 0.52552 0.0
H695 H 0.36734 0.95872 0.59075 0.0
H696 H 0.4073 0.92986 0.79496 0.0
H697 H 0.40804 0.94293 0.67696 0.0
H698 H 0.34692 0.87221 0.62368 0.0
H699 H 0.34792 0.85831 0.74085 0.0
C700 C 0.37895 0.90725 0.44723 0.0
C701 C 0.37448 0.93407 0.43101 0.0
C702 C 0.37989 0.89901 0.51492 0.0
C703 C 0.3762 0.91734 0.56807 0.0
C704 C 0.37111 0.94407 0.55154 0.0
C705 C 0.37048 0.95231 0.48407 0.0
C706 C 0.39466 0.91671 0.7584 0.0
C707 C 0.37789 0.89275 0.77839 0.0
C708 C 0.39456 0.92448 0.69034 0.0
C709 C 0.37743 0.9087 0.64036 0.0
C710 C 0.36088 0.88475 0.66027 0.0
C711 C 0.36116 0.8769 0.72804 0.0
H712 H 0.14716 0.47302 0.02699 0.0
H713 H 0.13459 0.39233 0.09328 0.0
H714 H 0.14781 0.45849 0.90988 0.0
H715 H 0.13448 0.37778 0.97573 0.0
H716 H 0.1714 0.35952 0.75829 0.0
H717 H 0.1725 0.37294 0.87615 0.0
H718 H 0.10571 0.44161 0.82644 0.0
H719 H 0.10622 0.42907 0.70818 0.0
C720 C 0.14466 0.45213 0.01655 0.0
C721 C 0.14108 0.43386 0.06965 0.0
C722 C 0.1447 0.44381 0.94927 0.0
C723 C 0.14076 0.41698 0.93309 0.0
C724 C 0.13798 0.39858 0.98626 0.0
C725 C 0.1382 0.40691 0.05381 0.0
C726 C 0.15689 0.37752 0.77226 0.0
C727 C 0.13848 0.393 0.72306 0.0
C728 C 0.15729 0.38509 0.84021 0.0
C729 C 0.13928 0.40839 0.86103 0.0
C730 C 0.12035 0.4237 0.81217 0.0
C731 C 0.12009 0.4162 0.74408 0.0
H732 H 0.40643 0.61961 0.72033 0.0
H733 H 0.34403 0.69024 0.77166 0.0
H734 H 0.40608 0.60656 0.83818 0.0
H735 H 0.3419 0.67627 0.88889 0.0
H736 H 0.37771 0.65572 0.10589 0.0
H737 H 0.37864 0.67052 0.98856 0.0
H738 H 0.36422 0.59005 0.92163 0.0
H739 H 0.36428 0.57527 0.03866 0.0
C740 C 0.39295 0.63259 0.75632 0.0
C741 C 0.37563 0.65628 0.73567 0.0
C742 C 0.39217 0.62479 0.82423 0.0
C743 C 0.37376 0.64025 0.87333 0.0
C744 C 0.35675 0.66398 0.85286 0.0
C745 C 0.35773 0.67188 0.78516 0.0
C746 C 0.37404 0.64125 0.0662 0.0
C747 C 0.37069 0.6143 0.08172 0.0
C748 C 0.37471 0.64973 0.99875 0.0
C749 C 0.37185 0.63148 0.94531 0.0
C750 C 0.36742 0.60463 0.96119 0.0
C751 C 0.36709 0.59617 0.02841 0.0
H752 H 0.91542 0.92717 0.21571 0.0
H753 H 0.84856 0.85881 0.27026 0.0
H754 H 0.91701 0.94041 0.33291 0.0
H755 H 0.8483 0.8732 0.38679 0.0
H756 H 0.88669 0.89153 0.60159 0.0
H757 H 0.88625 0.87721 0.48413 0.0
H758 H 0.87891 0.95845 0.41899 0.0
H759 H 0.88065 0.9727 0.53649 0.0
C760 C 0.90122 0.91472 0.25201 0.0
C761 C 0.88226 0.89151 0.23235 0.0
C762 C 0.90164 0.92269 0.31975 0.0
C763 C 0.88274 0.90794 0.36969 0.0
C764 C 0.86373 0.88487 0.35015 0.0
C765 C 0.86362 0.87674 0.28271 0.0
C766 C 0.88443 0.9063 0.56222 0.0
C767 C 0.88335 0.93326 0.57836 0.0
C768 C 0.88423 0.8981 0.4947 0.0
C769 C 0.88261 0.91664 0.44172 0.0
C770 C 0.88095 0.94359 0.45817 0.0
C771 C 0.88163 0.95178 0.52561 0.0
H772 H 0.65228 0.07504 0.52581 0.0
H773 H 0.64149 0.156 0.59034 0.0
H774 H 0.65566 0.08939 0.4085 0.0
H775 H 0.64363 0.17041 0.4728 0.0
H776 H 0.67766 0.18931 0.25635 0.0
H777 H 0.68082 0.17519 0.37351 0.0
H778 H 0.61471 0.10618 0.32448 0.0
H779 H 0.61351 0.11923 0.20694 0.0
C780 C 0.6509 0.09595 0.51485 0.0
C781 C 0.64685 0.11437 0.56734 0.0
C782 C 0.65246 0.10418 0.44754 0.0
C783 C 0.6494 0.13105 0.43087 0.0
C784 C 0.64651 0.14958 0.48365 0.0
C785 C 0.64539 0.14133 0.55119 0.0
C786 C 0.66386 0.17104 0.27024 0.0
C787 C 0.6449 0.15573 0.22144 0.0
C788 C 0.66545 0.16306 0.33784 0.0
C789 C 0.64801 0.13956 0.35875 0.0
C790 C 0.62894 0.12425 0.31019 0.0
C791 C 0.62762 0.13209 0.24244 0.0
H792 H 0.85631 0.57472 0.98552 0.0
H793 H 0.86977 0.65556 0.92141 0.0
H794 H 0.85318 0.58898 0.10293 0.0
H795 H 0.86794 0.66985 0.03889 0.0
H796 H 0.83554 0.6899 0.25387 0.0
H797 H 0.83105 0.67534 0.13757 0.0
H798 H 0.89397 0.60497 0.18783 0.0
H799 H 0.8965 0.61847 0.30473 0.0
C800 C 0.85832 0.59559 0.99659 0.0
C801 C 0.863 0.61401 0.94418 0.0
C802 C 0.8569 0.60376 0.06396 0.0
C803 C 0.86075 0.63056 0.08075 0.0
C804 C 0.86436 0.64908 0.02802 0.0
C805 C 0.86532 0.64091 0.96047 0.0
C806 C 0.84832 0.6712 0.24064 0.0
C807 C 0.86687 0.65572 0.28974 0.0
C808 C 0.84597 0.66296 0.17339 0.0
C809 C 0.86229 0.63903 0.15289 0.0
C810 C 0.88065 0.62341 0.20176 0.0
C811 C 0.88269 0.6315 0.26926 0.0
H812 H 0.602 0.42755 0.29042 0.0
H813 H 0.6709 0.35997 0.23829 0.0
H814 H 0.59965 0.44014 0.17261 0.0
H815 H 0.67047 0.37373 0.12085 0.0
H816 H 0.62998 0.3909 0.90538 0.0
H817 H 0.63202 0.37688 0.02319 0.0
H818 H 0.63747 0.45837 0.08635 0.0
H819 H 0.63423 0.4723 0.96871 0.0
C820 C 0.6164 0.41512 0.25432 0.0
C821 C 0.63615 0.39233 0.27473 0.0
C822 C 0.61561 0.42272 0.18633 0.0
C823 C 0.63496 0.40803 0.13688 0.0
C824 C 0.65474 0.38534 0.15717 0.0
C825 C 0.65525 0.37758 0.22498 0.0
C826 C 0.63221 0.40579 0.94437 0.0
C827 C 0.6322 0.43273 0.92767 0.0
C828 C 0.63331 0.39776 0.01208 0.0
C829 C 0.63472 0.41647 0.06462 0.0
C830 C 0.63555 0.44339 0.04754 0.0
C831 C 0.63401 0.45139 0.98001 0.0
loop_
_geom_bond_atom_site_label_1
_geom_bond_atom_site_label_2
_geom_bond_distance
_geom_bond_site_symmetry_2
_ccdc_geom_bond_type
Zn0 N4 2.020 . S
Zn0 O8 2.019 . S
Zn0 N10 2.119 . S
Zn0 O18 1.975 . S
C1 N2 1.334 . S
C1 N5 1.336 . S
N2 C1 1.334 . S
N2 C3 1.334 . S
C3 N2 1.334 . S
C3 N4 1.336 . S
N4 Zn0 2.020 . S
N4 C3 1.336 . S
N4 N5 1.354 . S
N5 C1 1.336 . S
N5 N4 1.354 . S
N5 Zn9 2.020 . S
C6 O7 1.244 . S
C6 O30 1.257 . S
O7 C6 1.244 . S
O8 Zn0 2.019 . S
O8 C28 1.257 . S
Zn9 N5 2.020 . S
Zn9 O16 1.975 . S
Zn9 N25 2.119 1_554 S
Zn9 O30 2.019 . S
N10 Zn0 2.119 . S
N10 C12 1.334 . S
N10 C13 1.328 . S
C11 C12 1.391 . S
C11 N14 1.329 . S
C11 H32 0.930 . S
C12 N10 1.334 . S
C12 C11 1.391 . S
C12 H19 0.930 . S
C13 N10 1.328 . S
C13 C15 1.392 . S
C13 H20 0.930 . S
N14 C11 1.329 . S
N14 C15 1.331 . S
C15 C13 1.392 . S
C15 N14 1.331 . S
O16 Zn9 1.975 . S
O16 C17 1.252 . S
C17 O16 1.252 . S
C17 O18 1.252 . S
O18 Zn0 1.975 . S
O18 C17 1.252 . S
H19 C12 0.930 . S
H20 C13 0.930 . S
C21 C22 1.392 . S
C21 N25 1.328 . S
C21 H27 0.930 . S
C22 C21 1.392 . S
C22 N26 1.331 . S
C23 C24 1.391 . S
C23 N26 1.329 . S
C23 H33 0.930 . S
C24 C23 1.391 . S
C24 N25 1.334 . S
C24 H31 0.930 . S
N25 Zn9 2.119 1_556 S
N25 C21 1.328 . S
N25 C24 1.334 . S
N26 C22 1.331 . S
N26 C23 1.329 . S
H27 C21 0.930 . S
C28 O8 1.257 . S
C28 O29 1.244 . S
O29 C28 1.244 . S
O30 C6 1.257 . S
O30 Zn9 2.019 . S
H31 C24 0.930 . S
H32 C11 0.930 . S
H33 C23 0.930 . S
Zn34 N38 2.020 . S
Zn34 O42 2.019 . S
Zn34 N44 2.119 1_554 S
Zn34 O52 1.975 . S
C35 N36 1.334 . S
C35 N39 1.336 . S
N36 C35 1.334 . S
N36 C37 1.334 . S
C37 N36 1.334 . S
C37 N38 1.336 . S
N38 Zn34 2.020 . S
N38 C37 1.336 . S
N38 N39 1.354 . S
N39 C35 1.336 . S
N39 N38 1.354 . S
N39 Zn43 2.020 . S
C40 O41 1.244 . S
C40 O64 1.257 . S
O41 C40 1.244 . S
O42 Zn34 2.019 . S
O42 C62 1.257 . S
Zn43 N39 2.020 . S
Zn43 O50 1.975 . S
Zn43 N59 2.119 . S
Zn43 O64 2.019 . S
N44 Zn34 2.119 1_556 S
N44 C46 1.334 . S
N44 C47 1.328 . S
C45 C46 1.391 . S
C45 N48 1.329 . S
C45 H66 0.930 . S
C46 N44 1.334 . S
C46 C45 1.391 . S
C46 H53 0.930 . S
C47 N44 1.328 . S
C47 C49 1.392 . S
C47 H54 0.930 . S
N48 C45 1.329 . S
N48 C49 1.331 . S
C49 C47 1.392 . S
C49 N48 1.331 . S
O50 Zn43 1.975 . S
O50 C51 1.252 . S
C51 O50 1.252 . S
C51 O52 1.252 . S
O52 Zn34 1.975 . S
O52 C51 1.252 . S
H53 C46 0.930 . S
H54 C47 0.930 . S
C55 C56 1.392 . S
C55 N59 1.328 . S
C55 H61 0.930 . S
C56 C55 1.392 . S
C56 N60 1.331 . S
C57 C58 1.391 . S
C57 N60 1.329 . S
C57 H67 0.930 . S
C58 C57 1.391 . S
C58 N59 1.334 . S
C58 H65 0.930 . S
N59 Zn43 2.119 . S
N59 C55 1.328 . S
N59 C58 1.334 . S
N60 C56 1.331 . S
N60 C57 1.329 . S
H61 C55 0.930 . S
C62 O42 1.257 . S
C62 O63 1.244 . S
O63 C62 1.244 . S
O64 C40 1.257 . S
O64 Zn43 2.019 . S
H65 C58 0.930 . S
H66 C45 0.930 . S
H67 C57 0.930 . S
Zn68 N72 2.020 . S
Zn68 O76 2.019 . S
Zn68 N78 2.119 . S
Zn68 O86 1.975 . S
C69 N70 1.334 . S
C69 N73 1.336 . S
N70 C69 1.334 . S
N70 C71 1.334 . S
C71 N70 1.334 . S
C71 N72 1.336 . S
N72 Zn68 2.020 . S
N72 C71 1.336 . S
N72 N73 1.354 . S
N73 C69 1.336 . S
N73 N72 1.354 . S
N73 Zn77 2.020 . S
C74 O75 1.244 . S
C74 O98 1.257 . S
O75 C74 1.244 . S
O76 Zn68 2.019 . S
O76 C96 1.257 . S
Zn77 N73 2.020 . S
Zn77 O84 1.975 . S
Zn77 N93 2.119 . S
Zn77 O98 2.019 . S
N78 Zn68 2.119 . S
N78 C80 1.334 . S
N78 C81 1.328 . S
C79 C80 1.391 . S
C79 N82 1.329 . S
C79 H100 0.930 . S
C80 N78 1.334 . S
C80 C79 1.391 . S
C80 H87 0.930 . S
C81 N78 1.328 . S
C81 C83 1.392 . S
C81 H88 0.930 . S
N82 C79 1.329 . S
N82 C83 1.331 . S
C83 C81 1.392 . S
C83 N82 1.331 . S
O84 Zn77 1.975 . S
O84 C85 1.252 . S
C85 O84 1.252 . S
C85 O86 1.252 . S
O86 Zn68 1.975 . S
O86 C85 1.252 . S
H87 C80 0.930 . S
H88 C81 0.930 . S
C89 C90 1.392 . S
C89 N93 1.328 . S
C89 H95 0.930 . S
C90 C89 1.392 . S
C90 N94 1.331 . S
C91 C92 1.391 . S
C91 N94 1.329 . S
C91 H101 0.930 . S
C92 C91 1.391 . S
C92 N93 1.334 . S
C92 H99 0.930 . S
N93 Zn77 2.119 . S
N93 C89 1.328 . S
N93 C92 1.334 . S
N94 C90 1.331 . S
N94 C91 1.329 . S
H95 C89 0.930 . S
C96 O76 1.257 . S
C96 O97 1.244 . S
O97 C96 1.244 . S
O98 C74 1.257 . S
O98 Zn77 2.019 . S
H99 C92 0.930 . S
H100 C79 0.930 . S
H101 C91 0.930 . S
Zn102 N106 2.020 . S
Zn102 O110 2.019 . S
Zn102 N112 2.119 . S
Zn102 O120 1.975 . S
C103 N104 1.334 . S
C103 N107 1.336 . S
N104 C103 1.334 . S
N104 C105 1.334 . S
C105 N104 1.334 . S
C105 N106 1.336 . S
N106 Zn102 2.020 . S
N106 C105 1.336 . S
N106 N107 1.354 . S
N107 C103 1.336 . S
N107 N106 1.354 . S
N107 Zn111 2.020 . S
C108 O109 1.244 . S
C108 O132 1.257 . S
O109 C108 1.244 . S
O110 Zn102 2.019 . S
O110 C130 1.257 . S
Zn111 N107 2.020 . S
Zn111 O118 1.975 . S
Zn111 N127 2.119 . S
Zn111 O132 2.019 . S
N112 Zn102 2.119 . S
N112 C114 1.334 . S
N112 C115 1.328 . S
C113 C114 1.391 . S
C113 N116 1.329 . S
C113 H134 0.930 . S
C114 N112 1.334 . S
C114 C113 1.391 . S
C114 H121 0.930 . S
C115 N112 1.328 . S
C115 C117 1.392 . S
C115 H122 0.930 . S
N116 C113 1.329 . S
N116 C117 1.331 . S
C117 C115 1.392 . S
C117 N116 1.331 . S
O118 Zn111 1.975 . S
O118 C119 1.252 . S
C119 O118 1.252 . S
C119 O120 1.252 . S
O120 Zn102 1.975 . S
O120 C119 1.252 . S
H121 C114 0.930 . S
H122 C115 0.930 . S
C123 C124 1.392 . S
C123 N127 1.328 . S
C123 H129 0.930 . S
C124 C123 1.392 . S
C124 N128 1.331 . S
C125 C126 1.391 . S
C125 N128 1.329 . S
C125 H135 0.930 . S
C126 C125 1.391 . S
C126 N127 1.334 . S
C126 H133 0.930 . S
N127 Zn111 2.119 . S
N127 C123 1.328 . S
N127 C126 1.334 . S
N128 C124 1.331 . S
N128 C125 1.329 . S
H129 C123 0.930 . S
C130 O110 1.257 . S
C130 O131 1.244 . S
O131 C130 1.244 . S
O132 C108 1.257 . S
O132 Zn111 2.019 . S
H133 C126 0.930 . S
H134 C113 0.930 . S
H135 C125 0.930 . S
Zn136 N140 2.020 . S
Zn136 O144 2.019 . S
Zn136 N146 2.119 . S
Zn136 O154 1.975 . S
C137 N138 1.334 . S
C137 N141 1.336 . S
N138 C137 1.334 . S
N138 C139 1.334 . S
C139 N138 1.334 . S
C139 N140 1.336 . S
N140 Zn136 2.020 . S
N140 C139 1.336 . S
N140 N141 1.354 . S
N141 C137 1.336 . S
N141 N140 1.354 . S
N141 Zn145 2.020 . S
C142 O143 1.244 . S
C142 O166 1.257 . S
O143 C142 1.244 . S
O144 Zn136 2.019 . S
O144 C164 1.257 . S
Zn145 N141 2.020 . S
Zn145 O152 1.975 . S
Zn145 N161 2.119 1_556 S
Zn145 O166 2.019 . S
N146 Zn136 2.119 . S
N146 C148 1.334 . S
N146 C149 1.328 . S
C147 C148 1.391 . S
C147 N150 1.329 . S
C147 H168 0.930 . S
C148 N146 1.334 . S
C148 C147 1.391 . S
C148 H155 0.930 . S
C149 N146 1.328 . S
C149 C151 1.392 . S
C149 H156 0.930 . S
N150 C147 1.329 . S
N150 C151 1.331 . S
C151 C149 1.392 . S
C151 N150 1.331 . S
O152 Zn145 1.975 . S
O152 C153 1.252 . S
C153 O152 1.252 . S
C153 O154 1.252 . S
O154 Zn136 1.975 . S
O154 C153 1.252 . S
H155 C148 0.930 . S
H156 C149 0.930 . S
C157 C158 1.392 . S
C157 N161 1.328 . S
C157 H163 0.930 . S
C158 C157 1.392 . S
C158 N162 1.331 . S
C159 C160 1.391 . S
C159 N162 1.329 . S
C159 H169 0.930 . S
C160 C159 1.391 . S
C160 N161 1.334 . S
C160 H167 0.930 . S
N161 Zn145 2.119 1_554 S
N161 C157 1.328 . S
N161 C160 1.334 . S
N162 C158 1.331 . S
N162 C159 1.329 . S
H163 C157 0.930 . S
C164 O144 1.257 . S
C164 O165 1.244 . S
O165 C164 1.244 . S
O166 C142 1.257 . S
O166 Zn145 2.019 . S
H167 C160 0.930 . S
H168 C147 0.930 . S
H169 C159 0.930 . S
Zn170 N174 2.020 . S
Zn170 O178 2.019 . S
Zn170 N180 2.119 1_556 S
Zn170 O188 1.975 . S
C171 N172 1.334 . S
C171 N175 1.336 . S
N172 C171 1.334 . S
N172 C173 1.334 . S
C173 N172 1.334 . S
C173 N174 1.336 . S
N174 Zn170 2.020 . S
N174 C173 1.336 . S
N174 N175 1.354 . S
N175 C171 1.336 . S
N175 N174 1.354 . S
N175 Zn179 2.020 . S
C176 O177 1.244 . S
C176 O200 1.257 . S
O177 C176 1.244 . S
O178 Zn170 2.019 . S
O178 C198 1.257 . S
Zn179 N175 2.020 . S
Zn179 O186 1.975 . S
Zn179 N195 2.119 . S
Zn179 O200 2.019 . S
N180 Zn170 2.119 1_554 S
N180 C182 1.334 . S
N180 C183 1.328 . S
C181 C182 1.391 . S
C181 N184 1.329 . S
C181 H202 0.930 . S
C182 N180 1.334 . S
C182 C181 1.391 . S
C182 H189 0.930 . S
C183 N180 1.328 . S
C183 C185 1.392 . S
C183 H190 0.930 . S
N184 C181 1.329 . S
N184 C185 1.331 . S
C185 C183 1.392 . S
C185 N184 1.331 . S
O186 Zn179 1.975 . S
O186 C187 1.252 . S
C187 O186 1.252 . S
C187 O188 1.252 . S
O188 Zn170 1.975 . S
O188 C187 1.252 . S
H189 C182 0.930 . S
H190 C183 0.930 . S
C191 C192 1.392 . S
C191 N195 1.328 . S
C191 H197 0.930 . S
C192 C191 1.392 . S
C192 N196 1.331 . S
C193 C194 1.391 . S
C193 N196 1.329 . S
C193 H203 0.930 . S
C194 C193 1.391 . S
C194 N195 1.334 . S
C194 H201 0.930 . S
N195 Zn179 2.119 . S
N195 C191 1.328 . S
N195 C194 1.334 . S
N196 C192 1.331 . S
N196 C193 1.329 . S
H197 C191 0.930 . S
C198 O178 1.257 . S
C198 O199 1.244 . S
O199 C198 1.244 . S
O200 C176 1.257 . S
O200 Zn179 2.019 . S
H201 C194 0.930 . S
H202 C181 0.930 . S
H203 C193 0.930 . S
Zn204 N208 2.020 . S
Zn204 O212 2.019 . S
Zn204 N214 2.119 . S
Zn204 O222 1.975 . S
C205 N206 1.334 . S
C205 N209 1.336 . S
N206 C205 1.334 . S
N206 C207 1.334 . S
C207 N206 1.334 . S
C207 N208 1.336 . S
N208 Zn204 2.020 . S
N208 C207 1.336 . S
N208 N209 1.354 . S
N209 C205 1.336 . S
N209 N208 1.354 . S
N209 Zn213 2.020 . S
C210 O211 1.244 . S
C210 O234 1.257 . S
O211 C210 1.244 . S
O212 Zn204 2.019 . S
O212 C232 1.257 . S
Zn213 N209 2.020 . S
Zn213 O220 1.975 . S
Zn213 N229 2.119 . S
Zn213 O234 2.019 . S
N214 Zn204 2.119 . S
N214 C216 1.334 . S
N214 C217 1.328 . S
C215 C216 1.391 . S
C215 N218 1.329 . S
C215 H236 0.930 . S
C216 N214 1.334 . S
C216 C215 1.391 . S
C216 H223 0.930 . S
C217 N214 1.328 . S
C217 C219 1.392 . S
C217 H224 0.930 . S
N218 C215 1.329 . S
N218 C219 1.331 . S
C219 C217 1.392 . S
C219 N218 1.331 . S
O220 Zn213 1.975 . S
O220 C221 1.252 . S
C221 O220 1.252 . S
C221 O222 1.252 . S
O222 Zn204 1.975 . S
O222 C221 1.252 . S
H223 C216 0.930 . S
H224 C217 0.930 . S
C225 C226 1.392 . S
C225 N229 1.328 . S
C225 H231 0.930 . S
C226 C225 1.392 . S
C226 N230 1.331 . S
C227 C228 1.391 . S
C227 N230 1.329 . S
C227 H237 0.930 . S
C228 C227 1.391 . S
C228 N229 1.334 . S
C228 H235 0.930 . S
N229 Zn213 2.119 . S
N229 C225 1.328 . S
N229 C228 1.334 . S
N230 C226 1.331 . S
N230 C227 1.329 . S
H231 C225 0.930 . S
C232 O212 1.257 . S
C232 O233 1.244 . S
O233 C232 1.244 . S
O234 C210 1.257 . S
O234 Zn213 2.019 . S
H235 C228 0.930 . S
H236 C215 0.930 . S
H237 C227 0.930 . S
Zn238 N242 2.020 . S
Zn238 O246 2.019 . S
Zn238 N248 2.119 . S
Zn238 O256 1.975 . S
C239 N240 1.334 . S
C239 N243 1.336 . S
N240 C239 1.334 . S
N240 C241 1.334 . S
C241 N240 1.334 . S
C241 N242 1.336 . S
N242 Zn238 2.020 . S
N242 C241 1.336 . S
N242 N243 1.354 . S
N243 C239 1.336 . S
N243 N242 1.354 . S
N243 Zn247 2.020 . S
C244 O245 1.244 . S
C244 O268 1.257 . S
O245 C244 1.244 . S
O246 Zn238 2.019 . S
O246 C266 1.257 . S
Zn247 N243 2.020 . S
Zn247 O254 1.975 . S
Zn247 N263 2.119 . S
Zn247 O268 2.019 . S
N248 Zn238 2.119 . S
N248 C250 1.334 . S
N248 C251 1.328 . S
C249 C250 1.391 . S
C249 N252 1.329 . S
C249 H270 0.930 . S
C250 N248 1.334 . S
C250 C249 1.391 . S
C250 H257 0.930 . S
C251 N248 1.328 . S
C251 C253 1.392 . S
C251 H258 0.930 . S
N252 C249 1.329 . S
N252 C253 1.331 . S
C253 C251 1.392 . S
C253 N252 1.331 . S
O254 Zn247 1.975 . S
O254 C255 1.252 . S
C255 O254 1.252 . S
C255 O256 1.252 . S
O256 Zn238 1.975 . S
O256 C255 1.252 . S
H257 C250 0.930 . S
H258 C251 0.930 . S
C259 C260 1.392 . S
C259 N263 1.328 . S
C259 H265 0.930 . S
C260 C259 1.392 . S
C260 N264 1.331 . S
C261 C262 1.391 . S
C261 N264 1.329 . S
C261 H271 0.930 . S
C262 C261 1.391 . S
C262 N263 1.334 . S
C262 H269 0.930 . S
N263 Zn247 2.119 . S
N263 C259 1.328 . S
N263 C262 1.334 . S
N264 C260 1.331 . S
N264 C261 1.329 . S
H265 C259 0.930 . S
C266 O246 1.257 . S
C266 O267 1.244 . S
O267 C266 1.244 . S
O268 C244 1.257 . S
O268 Zn247 2.019 . S
H269 C262 0.930 . S
H270 C249 0.930 . S
H271 C261 0.930 . S
H272 C280 0.950 . S
H273 C285 0.950 1_554 S
H274 C282 0.950 . S
H275 C284 0.950 . S
H276 C286 0.950 . S
H277 C288 0.950 . S
H278 C290 0.950 . S
H279 C291 0.950 . S
C280 H272 0.950 . S
C280 C281 1.386 . S
C280 C282 1.391 . S
C281 C280 1.386 . S
C281 C285 1.393 . S
C282 H274 0.950 . S
C282 C280 1.391 . S
C282 C283 1.400 1_556 S
C283 C282 1.400 1_554 S
C283 C284 1.398 . S
C283 C289 1.491 . S
C284 H275 0.950 . S
C284 C283 1.398 . S
C284 C285 1.391 1_554 S
C285 H273 0.950 1_556 S
C285 C281 1.393 . S
C285 C284 1.391 1_556 S
C286 H276 0.950 . S
C286 C287 1.386 . S
C286 C288 1.391 . S
C287 C286 1.386 . S
C287 C291 1.393 . S
C288 H277 0.950 . S
C288 C286 1.391 . S
C288 C289 1.400 . S
C289 C283 1.491 . S
C289 C288 1.400 . S
C289 C290 1.398 . S
C290 H278 0.950 . S
C290 C289 1.398 . S
C290 C291 1.391 . S
C291 H279 0.950 . S
C291 C287 1.393 . S
C291 C290 1.391 . S
H292 C300 0.950 . S
H293 C305 0.950 . S
H294 C302 0.950 1_556 S
H295 C304 0.950 . S
H296 C306 0.950 . S
H297 C308 0.950 . S
H298 C310 0.950 . S
H299 C311 0.950 . S
C300 H292 0.950 . S
C300 C301 1.386 . S
C300 C302 1.391 . S
C301 C300 1.386 . S
C301 C305 1.393 . S
C302 H294 0.950 1_554 S
C302 C300 1.391 . S
C302 C303 1.400 . S
C303 C302 1.400 . S
C303 C304 1.398 . S
C303 C309 1.491 . S
C304 H295 0.950 . S
C304 C303 1.398 . S
C304 C305 1.391 . S
C305 H293 0.950 . S
C305 C301 1.393 . S
C305 C304 1.391 . S
C306 H296 0.950 . S
C306 C307 1.386 1_554 S
C306 C308 1.391 . S
C307 C306 1.386 1_556 S
C307 C311 1.393 . S
C308 H297 0.950 . S
C308 C306 1.391 . S
C308 C309 1.400 . S
C309 C303 1.491 . S
C309 C308 1.400 . S
C309 C310 1.398 1_554 S
C310 H298 0.950 . S
C310 C309 1.398 1_556 S
C310 C311 1.391 . S
C311 H299 0.950 . S
C311 C307 1.393 . S
C311 C310 1.391 . S
H312 C320 0.950 . S
H313 C325 0.950 . S
H314 C322 0.950 . S
H315 C324 0.950 . S
H316 C326 0.950 . S
H317 C328 0.950 . S
H318 C330 0.950 . S
H319 C331 0.950 . S
C320 H312 0.950 . S
C320 C321 1.386 . S
C320 C322 1.391 . S
C321 C320 1.386 . S
C321 C325 1.393 . S
C322 H314 0.950 . S
C322 C320 1.391 . S
C322 C323 1.400 . S
C323 C322 1.400 . S
C323 C324 1.398 . S
C323 C329 1.491 . S
C324 H315 0.950 . S
C324 C323 1.398 . S
C324 C325 1.391 . S
C325 H313 0.950 . S
C325 C321 1.393 . S
C325 C324 1.391 . S
C326 H316 0.950 . S
C326 C327 1.386 . S
C326 C328 1.391 . S
C327 C326 1.386 . S
C327 C331 1.393 . S
C328 H317 0.950 . S
C328 C326 1.391 . S
C328 C329 1.400 . S
C329 C323 1.491 . S
C329 C328 1.400 . S
C329 C330 1.398 . S
C330 H318 0.950 . S
C330 C329 1.398 . S
C330 C331 1.391 . S
C331 H319 0.950 . S
C331 C327 1.393 . S
C331 C330 1.391 . S
H332 C340 0.950 . S
H333 C345 0.950 . S
H334 C342 0.950 . S
H335 C344 0.950 . S
H336 C346 0.950 . S
H337 C348 0.950 . S
H338 C350 0.950 . S
H339 C351 0.950 . S
C340 H332 0.950 . S
C340 C341 1.386 . S
C340 C342 1.391 . S
C341 C340 1.386 . S
C341 C345 1.393 . S
C342 H334 0.950 . S
C342 C340 1.391 . S
C342 C343 1.400 . S
C343 C342 1.400 . S
C343 C344 1.398 . S
C343 C349 1.491 . S
C344 H335 0.950 . S
C344 C343 1.398 . S
C344 C345 1.391 . S
C345 H333 0.950 . S
C345 C341 1.393 . S
C345 C344 1.391 . S
C346 H336 0.950 . S
C346 C347 1.386 . S
C346 C348 1.391 . S
C347 C346 1.386 . S
C347 C351 1.393 . S
C348 H337 0.950 . S
C348 C346 1.391 . S
C348 C349 1.400 . S
C349 C343 1.491 . S
C349 C348 1.400 . S
C349 C350 1.398 . S
C350 H338 0.950 . S
C350 C349 1.398 . S
C350 C351 1.391 . S
C351 H339 0.950 . S
C351 C347 1.393 . S
C351 C350 1.391 . S
H352 C360 0.950 . S
H353 C365 0.950 . S
H354 C362 0.950 . S
H355 C364 0.950 1_554 S
H356 C366 0.950 . S
H357 C368 0.950 . S
H358 C370 0.950 . S
H359 C371 0.950 . S
C360 H352 0.950 . S
C360 C361 1.386 . S
C360 C362 1.391 . S
C361 C360 1.386 . S
C361 C365 1.393 . S
C362 H354 0.950 . S
C362 C360 1.391 . S
C362 C363 1.400 . S
C363 C362 1.400 . S
C363 C364 1.398 . S
C363 C369 1.491 . S
C364 H355 0.950 1_556 S
C364 C363 1.398 . S
C364 C365 1.391 . S
C365 H353 0.950 . S
C365 C361 1.393 . S
C365 C364 1.391 . S
C366 H356 0.950 . S
C366 C367 1.386 . S
C366 C368 1.391 . S
C367 C366 1.386 . S
C367 C371 1.393 1_554 S
C368 H357 0.950 . S
C368 C366 1.391 . S
C368 C369 1.400 1_554 S
C369 C363 1.491 . S
C369 C368 1.400 1_556 S
C369 C370 1.398 . S
C370 H358 0.950 . S
C370 C369 1.398 . S
C370 C371 1.391 . S
C371 H359 0.950 . S
C371 C367 1.393 1_556 S
C371 C370 1.391 . S
H372 C380 0.950 . S
H373 C385 0.950 . S
H374 C382 0.950 . S
H375 C384 0.950 . S
H376 C386 0.950 . S
H377 C388 0.950 . S
H378 C390 0.950 . S
H379 C391 0.950 . S
C380 H372 0.950 . S
C380 C381 1.386 . S
C380 C382 1.391 . S
C381 C380 1.386 . S
C381 C385 1.393 . S
C382 H374 0.950 . S
C382 C380 1.391 . S
C382 C383 1.400 . S
C383 C382 1.400 . S
C383 C384 1.398 . S
C383 C389 1.491 . S
C384 H375 0.950 . S
C384 C383 1.398 . S
C384 C385 1.391 . S
C385 H373 0.950 . S
C385 C381 1.393 . S
C385 C384 1.391 . S
C386 H376 0.950 . S
C386 C387 1.386 1_556 S
C386 C388 1.391 . S
C387 C386 1.386 1_554 S
C387 C391 1.393 . S
C388 H377 0.950 . S
C388 C386 1.391 . S
C388 C389 1.400 . S
C389 C383 1.491 . S
C389 C388 1.400 . S
C389 C390 1.398 1_556 S
C390 H378 0.950 . S
C390 C389 1.398 1_554 S
C390 C391 1.391 . S
C391 H379 0.950 . S
C391 C387 1.393 . S
C391 C390 1.391 . S
H392 C400 0.950 . S
H393 C405 0.950 . S
H394 C402 0.950 . S
H395 C404 0.950 . S
H396 C406 0.950 . S
H397 C408 0.950 . S
H398 C410 0.950 . S
H399 C411 0.950 . S
C400 H392 0.950 . S
C400 C401 1.386 . S
C400 C402 1.391 . S
C401 C400 1.386 . S
C401 C405 1.393 . S
C402 H394 0.950 . S
C402 C400 1.391 . S
C402 C403 1.400 . S
C403 C402 1.400 . S
C403 C404 1.398 . S
C403 C409 1.491 . S
C404 H395 0.950 . S
C404 C403 1.398 . S
C404 C405 1.391 . S
C405 H393 0.950 . S
C405 C401 1.393 . S
C405 C404 1.391 . S
C406 H396 0.950 . S
C406 C407 1.386 . S
C406 C408 1.391 . S
C407 C406 1.386 . S
C407 C411 1.393 . S
C408 H397 0.950 . S
C408 C406 1.391 . S
C408 C409 1.400 . S
C409 C403 1.491 . S
C409 C408 1.400 . S
C409 C410 1.398 . S
C410 H398 0.950 . S
C410 C409 1.398 . S
C410 C411 1.391 . S
C411 H399 0.950 . S
C411 C407 1.393 . S
C411 C410 1.391 . S
H412 C420 0.950 . S
H413 C425 0.950 . S
H414 C422 0.950 . S
H415 C424 0.950 . S
H416 C426 0.950 . S
H417 C428 0.950 . S
H418 C430 0.950 . S
H419 C431 0.950 . S
C420 H412 0.950 . S
C420 C421 1.386 . S
C420 C422 1.391 . S
C421 C420 1.386 . S
C421 C425 1.393 . S
C422 H414 0.950 . S
C422 C420 1.391 . S
C422 C423 1.400 . S
C423 C422 1.400 . S
C423 C424 1.398 . S
C423 C429 1.491 . S
C424 H415 0.950 . S
C424 C423 1.398 . S
C424 C425 1.391 . S
C425 H413 0.950 . S
C425 C421 1.393 . S
C425 C424 1.391 . S
C426 H416 0.950 . S
C426 C427 1.386 . S
C426 C428 1.391 . S
C427 C426 1.386 . S
C427 C431 1.393 . S
C428 H417 0.950 . S
C428 C426 1.391 . S
C428 C429 1.400 . S
C429 C423 1.491 . S
C429 C428 1.400 . S
C429 C430 1.398 . S
C430 H418 0.950 . S
C430 C429 1.398 . S
C430 C431 1.391 . S
C431 H419 0.950 . S
C431 C427 1.393 . S
C431 C430 1.391 . S
H432 C440 0.950 . S
H433 C445 0.950 . S
H434 C442 0.950 . S
H435 C444 0.950 . S
H436 C446 0.950 . S
H437 C448 0.950 . S
H438 C450 0.950 . S
H439 C451 0.950 . S
C440 H432 0.950 . S
C440 C441 1.386 . S
C440 C442 1.391 . S
C441 C440 1.386 . S
C441 C445 1.393 . S
C442 H434 0.950 . S
C442 C440 1.391 . S
C442 C443 1.400 . S
C443 C442 1.400 . S
C443 C444 1.398 . S
C443 C449 1.491 . S
C444 H435 0.950 . S
C444 C443 1.398 . S
C444 C445 1.391 . S
C445 H433 0.950 . S
C445 C441 1.393 . S
C445 C444 1.391 . S
C446 H436 0.950 . S
C446 C447 1.386 . S
C446 C448 1.391 . S
C447 C446 1.386 . S
C447 C451 1.393 . S
C448 H437 0.950 . S
C448 C446 1.391 . S
C448 C449 1.400 . S
C449 C443 1.491 . S
C449 C448 1.400 . S
C449 C450 1.398 . S
C450 H438 0.950 . S
C450 C449 1.398 . S
C450 C451 1.391 . S
C451 H439 0.950 . S
C451 C447 1.393 . S
C451 C450 1.391 . S
H452 C460 0.950 . S
H453 C465 0.950 . S
H454 C462 0.950 . S
H455 C464 0.950 . S
H456 C466 0.950 . S
H457 C468 0.950 . S
H458 C470 0.950 . S
H459 C471 0.950 . S
C460 H452 0.950 . S
C460 C461 1.386 . S
C460 C462 1.391 . S
C461 C460 1.386 . S
C461 C465 1.393 . S
C462 H454 0.950 . S
C462 C460 1.391 . S
C462 C463 1.400 . S
C463 C462 1.400 . S
C463 C464 1.398 . S
C463 C469 1.491 . S
C464 H455 0.950 . S
C464 C463 1.398 . S
C464 C465 1.391 . S
C465 H453 0.950 . S
C465 C461 1.393 . S
C465 C464 1.391 . S
C466 H456 0.950 . S
C466 C467 1.386 . S
C466 C468 1.391 . S
C467 C466 1.386 . S
C467 C471 1.393 . S
C468 H457 0.950 . S
C468 C466 1.391 . S
C468 C469 1.400 . S
C469 C463 1.491 . S
C469 C468 1.400 . S
C469 C470 1.398 . S
C470 H458 0.950 . S
C470 C469 1.398 . S
C470 C471 1.391 . S
C471 H459 0.950 . S
C471 C467 1.393 . S
C471 C470 1.391 . S
H472 C480 0.950 . S
H473 C485 0.950 . S
H474 C482 0.950 . S
H475 C484 0.950 . S
H476 C486 0.950 . S
H477 C488 0.950 . S
H478 C490 0.950 . S
H479 C491 0.950 . S
C480 H472 0.950 . S
C480 C481 1.386 . S
C480 C482 1.391 . S
C481 C480 1.386 . S
C481 C485 1.393 . S
C482 H474 0.950 . S
C482 C480 1.391 . S
C482 C483 1.400 . S
C483 C482 1.400 . S
C483 C484 1.398 . S
C483 C489 1.491 . S
C484 H475 0.950 . S
C484 C483 1.398 . S
C484 C485 1.391 . S
C485 H473 0.950 . S
C485 C481 1.393 . S
C485 C484 1.391 . S
C486 H476 0.950 . S
C486 C487 1.386 . S
C486 C488 1.391 . S
C487 C486 1.386 . S
C487 C491 1.393 . S
C488 H477 0.950 . S
C488 C486 1.391 . S
C488 C489 1.400 . S
C489 C483 1.491 . S
C489 C488 1.400 . S
C489 C490 1.398 . S
C490 H478 0.950 . S
C490 C489 1.398 . S
C490 C491 1.391 . S
C491 H479 0.950 . S
C491 C487 1.393 . S
C491 C490 1.391 . S
H492 C500 0.950 . S
H493 C505 0.950 . S
H494 C502 0.950 . S
H495 C504 0.950 . S
H496 C506 0.950 . S
H497 C508 0.950 . S
H498 C510 0.950 . S
H499 C511 0.950 . S
C500 H492 0.950 . S
C500 C501 1.386 . S
C500 C502 1.391 . S
C501 C500 1.386 . S
C501 C505 1.393 . S
C502 H494 0.950 . S
C502 C500 1.391 . S
C502 C503 1.400 . S
C503 C502 1.400 . S
C503 C504 1.398 . S
C503 C509 1.491 . S
C504 H495 0.950 . S
C504 C503 1.398 . S
C504 C505 1.391 . S
C505 H493 0.950 . S
C505 C501 1.393 . S
C505 C504 1.391 . S
C506 H496 0.950 . S
C506 C507 1.386 . S
C506 C508 1.391 . S
C507 C506 1.386 . S
C507 C511 1.393 . S
C508 H497 0.950 . S
C508 C506 1.391 . S
C508 C509 1.400 . S
C509 C503 1.491 . S
C509 C508 1.400 . S
C509 C510 1.398 . S
C510 H498 0.950 . S
C510 C509 1.398 . S
C510 C511 1.391 . S
C511 H499 0.950 . S
C511 C507 1.393 . S
C511 C510 1.391 . S
H512 C520 0.950 . S
H513 C525 0.950 . S
H514 C522 0.950 . S
H515 C524 0.950 1_545 S
H516 C526 0.950 . S
H517 C528 0.950 . S
H518 C530 0.950 1_565 S
H519 C531 0.950 . S
C520 H512 0.950 . S
C520 C521 1.386 . S
C520 C522 1.391 . S
C521 C520 1.386 . S
C521 C525 1.393 . S
C522 H514 0.950 . S
C522 C520 1.391 . S
C522 C523 1.400 . S
C523 C522 1.400 . S
C523 C524 1.398 . S
C523 C529 1.491 1_565 S
C524 H515 0.950 1_565 S
C524 C523 1.398 . S
C524 C525 1.391 . S
C525 H513 0.950 . S
C525 C521 1.393 . S
C525 C524 1.391 . S
C526 H516 0.950 . S
C526 C527 1.386 . S
C526 C528 1.391 . S
C527 C526 1.386 . S
C527 C531 1.393 . S
C528 H517 0.950 . S
C528 C526 1.391 . S
C528 C529 1.400 . S
C529 C523 1.491 1_545 S
C529 C528 1.400 . S
C529 C530 1.398 . S
C530 H518 0.950 1_545 S
C530 C529 1.398 . S
C530 C531 1.391 . S
C531 H519 0.950 . S
C531 C527 1.393 . S
C531 C530 1.391 . S
H532 C540 0.950 . S
H533 C545 0.950 . S
H534 C542 0.950 . S
H535 C544 0.950 . S
H536 C546 0.950 . S
H537 C548 0.950 . S
H538 C550 0.950 . S
H539 C551 0.950 . S
C540 H532 0.950 . S
C540 C541 1.386 . S
C540 C542 1.391 . S
C541 C540 1.386 . S
C541 C545 1.393 . S
C542 H534 0.950 . S
C542 C540 1.391 . S
C542 C543 1.400 . S
C543 C542 1.400 . S
C543 C544 1.398 . S
C543 C549 1.491 . S
C544 H535 0.950 . S
C544 C543 1.398 . S
C544 C545 1.391 . S
C545 H533 0.950 . S
C545 C541 1.393 . S
C545 C544 1.391 . S
C546 H536 0.950 . S
C546 C547 1.386 . S
C546 C548 1.391 . S
C547 C546 1.386 . S
C547 C551 1.393 . S
C548 H537 0.950 . S
C548 C546 1.391 . S
C548 C549 1.400 . S
C549 C543 1.491 . S
C549 C548 1.400 . S
C549 C550 1.398 . S
C550 H538 0.950 . S
C550 C549 1.398 . S
C550 C551 1.391 . S
C551 H539 0.950 . S
C551 C547 1.393 . S
C551 C550 1.391 . S
H552 C560 0.950 . S
H553 C565 0.950 . S
H554 C562 0.950 . S
H555 C564 0.950 . S
H556 C566 0.950 . S
H557 C568 0.950 . S
H558 C570 0.950 . S
H559 C571 0.950 . S
C560 H552 0.950 . S
C560 C561 1.386 . S
C560 C562 1.391 . S
C561 C560 1.386 . S
C561 C565 1.393 . S
C562 H554 0.950 . S
C562 C560 1.391 . S
C562 C563 1.400 . S
C563 C562 1.400 . S
C563 C564 1.398 . S
C563 C569 1.491 1_545 S
C564 H555 0.950 . S
C564 C563 1.398 . S
C564 C565 1.391 . S
C565 H553 0.950 . S
C565 C561 1.393 . S
C565 C564 1.391 . S
C566 H556 0.950 . S
C566 C567 1.386 . S
C566 C568 1.391 . S
C567 C566 1.386 . S
C567 C571 1.393 . S
C568 H557 0.950 . S
C568 C566 1.391 . S
C568 C569 1.400 . S
C569 C563 1.491 1_565 S
C569 C568 1.400 . S
C569 C570 1.398 . S
C570 H558 0.950 . S
C570 C569 1.398 . S
C570 C571 1.391 . S
C571 H559 0.950 . S
C571 C567 1.393 . S
C571 C570 1.391 . S
H572 C580 0.950 . S
H573 C585 0.950 . S
H574 C582 0.950 . S
H575 C584 0.950 . S
H576 C586 0.950 . S
H577 C588 0.950 . S
H578 C590 0.950 . S
H579 C591 0.950 . S
C580 H572 0.950 . S
C580 C581 1.386 . S
C580 C582 1.391 . S
C581 C580 1.386 . S
C581 C585 1.393 . S
C582 H574 0.950 . S
C582 C580 1.391 . S
C582 C583 1.400 . S
C583 C582 1.400 . S
C583 C584 1.398 . S
C583 C589 1.491 . S
C584 H575 0.950 . S
C584 C583 1.398 . S
C584 C585 1.391 . S
C585 H573 0.950 . S
C585 C581 1.393 . S
C585 C584 1.391 . S
C586 H576 0.950 . S
C586 C587 1.386 . S
C586 C588 1.391 . S
C587 C586 1.386 . S
C587 C591 1.393 . S
C588 H577 0.950 . S
C588 C586 1.391 . S
C588 C589 1.400 . S
C589 C583 1.491 . S
C589 C588 1.400 . S
C589 C590 1.398 . S
C590 H578 0.950 . S
C590 C589 1.398 . S
C590 C591 1.391 . S
C591 H579 0.950 . S
C591 C587 1.393 . S
C591 C590 1.391 . S
H592 C600 0.950 . S
H593 C605 0.950 . S
H594 C602 0.950 1_565 S
H595 C604 0.950 1_655 S
H596 C606 0.950 . S
H597 C608 0.950 1_545 S
H598 C610 0.950 1_455 S
H599 C611 0.950 . S
C600 H592 0.950 . S
C600 C601 1.386 . S
C600 C602 1.391 . S
C601 C600 1.386 . S
C601 C605 1.393 1_554 S
C602 H594 0.950 1_545 S
C602 C600 1.391 . S
C602 C603 1.400 . S
C603 C602 1.400 . S
C603 C604 1.398 1_554 S
C603 C609 1.491 1_444 S
C604 H595 0.950 1_455 S
C604 C603 1.398 1_556 S
C604 C605 1.391 . S
C605 H593 0.950 . S
C605 C601 1.393 1_556 S
C605 C604 1.391 . S
C606 H596 0.950 . S
C606 C607 1.386 . S
C606 C608 1.391 . S
C607 C606 1.386 . S
C607 C611 1.393 1_556 S
C608 H597 0.950 1_565 S
C608 C606 1.391 . S
C608 C609 1.400 . S
C609 C603 1.491 1_666 S
C609 C608 1.400 . S
C609 C610 1.398 1_556 S
C610 H598 0.950 1_655 S
C610 C609 1.398 1_554 S
C610 C611 1.391 . S
C611 H599 0.950 . S
C611 C607 1.393 1_554 S
C611 C610 1.391 . S
H612 C620 0.950 . S
H613 C625 0.950 . S
H614 C622 0.950 . S
H615 C624 0.950 . S
H616 C626 0.950 . S
H617 C628 0.950 . S
H618 C630 0.950 . S
H619 C631 0.950 . S
C620 H612 0.950 . S
C620 C621 1.386 . S
C620 C622 1.391 . S
C621 C620 1.386 . S
C621 C625 1.393 1_556 S
C622 H614 0.950 . S
C622 C620 1.391 . S
C622 C623 1.400 . S
C623 C622 1.400 . S
C623 C624 1.398 1_556 S
C623 C629 1.491 1_546 S
C624 H615 0.950 . S
C624 C623 1.398 1_554 S
C624 C625 1.391 . S
C625 H613 0.950 . S
C625 C621 1.393 1_554 S
C625 C624 1.391 . S
C626 H616 0.950 . S
C626 C627 1.386 . S
C626 C628 1.391 . S
C627 C626 1.386 . S
C627 C631 1.393 1_554 S
C628 H617 0.950 . S
C628 C626 1.391 . S
C628 C629 1.400 . S
C629 C623 1.491 1_564 S
C629 C628 1.400 . S
C629 C630 1.398 1_554 S
C630 H618 0.950 . S
C630 C629 1.398 1_556 S
C630 C631 1.391 . S
C631 H619 0.950 . S
C631 C627 1.393 1_556 S
C631 C630 1.391 . S
H632 C640 0.950 . S
H633 C645 0.950 . S
H634 C642 0.943 1_655 S
H635 C644 0.950 . S
H636 C646 0.950 . S
H637 C648 0.943 1_455 S
H638 C650 0.950 . S
H639 C651 0.950 . S
C640 H632 0.950 . S
C640 C641 1.386 . S
C640 C642 1.396 . S
C641 C640 1.386 . S
C641 C645 1.393 . S
C642 H634 0.943 1_455 S
C642 C640 1.396 . S
C642 C643 1.402 . S
C643 C642 1.402 . S
C643 C644 1.398 . S
C643 C649 1.491 1_455 S
C644 H635 0.950 . S
C644 C643 1.398 . S
C644 C645 1.391 . S
C645 H633 0.950 . S
C645 C641 1.393 . S
C645 C644 1.391 . S
C646 H636 0.950 . S
C646 C647 1.386 . S
C646 C648 1.396 . S
C647 C646 1.386 . S
C647 C651 1.393 . S
C648 H637 0.943 1_655 S
C648 C646 1.396 . S
C648 C649 1.402 . S
C649 C643 1.491 1_655 S
C649 C648 1.402 . S
C649 C650 1.398 . S
C650 H638 0.950 . S
C650 C649 1.398 . S
C650 C651 1.391 . S
C651 H639 0.950 . S
C651 C647 1.393 . S
C651 C650 1.391 . S
H652 C660 0.950 . S
H653 C665 0.950 . S
H654 C662 0.950 . S
H655 C664 0.950 . S
H656 C666 0.950 . S
H657 C668 0.950 . S
H658 C670 0.950 . S
H659 C671 0.950 . S
C660 H652 0.950 . S
C660 C661 1.386 . S
C660 C662 1.391 . S
C661 C660 1.386 . S
C661 C665 1.393 . S
C662 H654 0.950 . S
C662 C660 1.391 . S
C662 C663 1.400 . S
C663 C662 1.400 . S
C663 C664 1.398 . S
C663 C669 1.491 . S
C664 H655 0.950 . S
C664 C663 1.398 . S
C664 C665 1.391 . S
C665 H653 0.950 . S
C665 C661 1.393 . S
C665 C664 1.391 . S
C666 H656 0.950 . S
C666 C667 1.386 . S
C666 C668 1.391 . S
C667 C666 1.386 . S
C667 C671 1.393 . S
C668 H657 0.950 . S
C668 C666 1.391 . S
C668 C669 1.400 . S
C669 C663 1.491 . S
C669 C668 1.400 . S
C669 C670 1.398 . S
C670 H658 0.950 . S
C670 C669 1.398 . S
C670 C671 1.391 . S
C671 H659 0.950 . S
C671 C667 1.393 . S
C671 C670 1.391 . S
H672 C680 0.950 . S
H673 C685 0.950 . S
H674 C682 0.950 . S
H675 C684 0.950 . S
H676 C686 0.950 . S
H677 C688 0.950 . S
H678 C690 0.950 . S
H679 C691 0.950 . S
C680 H672 0.950 . S
C680 C681 1.386 . S
C680 C682 1.391 . S
C681 C680 1.386 . S
C681 C685 1.393 . S
C682 H674 0.950 . S
C682 C680 1.391 . S
C682 C683 1.400 . S
C683 C682 1.400 . S
C683 C684 1.398 . S
C683 C689 1.491 . S
C684 H675 0.950 . S
C684 C683 1.398 . S
C684 C685 1.391 . S
C685 H673 0.950 . S
C685 C681 1.393 . S
C685 C684 1.391 . S
C686 H676 0.950 . S
C686 C687 1.386 . S
C686 C688 1.391 . S
C687 C686 1.386 . S
C687 C691 1.393 . S
C688 H677 0.950 . S
C688 C686 1.391 . S
C688 C689 1.400 . S
C689 C683 1.491 . S
C689 C688 1.400 . S
C689 C690 1.398 . S
C690 H678 0.950 . S
C690 C689 1.398 . S
C690 C691 1.391 . S
C691 H679 0.950 . S
C691 C687 1.393 . S
C691 C690 1.391 . S
H692 C700 0.950 . S
H693 C705 0.950 . S
H694 C702 0.950 . S
H695 C704 0.950 . S
H696 C706 0.950 . S
H697 C708 0.950 . S
H698 C710 0.950 . S
H699 C711 0.950 . S
C700 H692 0.950 . S
C700 C701 1.386 . S
C700 C702 1.391 . S
C701 C700 1.386 . S
C701 C705 1.393 . S
C702 H694 0.950 . S
C702 C700 1.391 . S
C702 C703 1.400 . S
C703 C702 1.400 . S
C703 C704 1.398 . S
C703 C709 1.491 . S
C704 H695 0.950 . S
C704 C703 1.398 . S
C704 C705 1.391 . S
C705 H693 0.950 . S
C705 C701 1.393 . S
C705 C704 1.391 . S
C706 H696 0.950 . S
C706 C707 1.386 . S
C706 C708 1.391 . S
C707 C706 1.386 . S
C707 C711 1.393 . S
C708 H697 0.950 . S
C708 C706 1.391 . S
C708 C709 1.400 . S
C709 C703 1.491 . S
C709 C708 1.400 . S
C709 C710 1.398 . S
C710 H698 0.950 . S
C710 C709 1.398 . S
C710 C711 1.391 . S
C711 H699 0.950 . S
C711 C707 1.393 . S
C711 C710 1.391 . S
H712 C720 0.950 . S
H713 C725 0.950 . S
H714 C722 0.950 . S
H715 C724 0.950 . S
H716 C726 0.950 . S
H717 C728 0.950 . S
H718 C730 0.950 . S
H719 C731 0.950 . S
C720 H712 0.950 . S
C720 C721 1.386 . S
C720 C722 1.391 1_554 S
C721 C720 1.386 . S
C721 C725 1.393 . S
C722 H714 0.950 . S
C722 C720 1.391 1_556 S
C722 C723 1.400 . S
C723 C722 1.400 . S
C723 C724 1.398 . S
C723 C729 1.491 . S
C724 H715 0.950 . S
C724 C723 1.398 . S
C724 C725 1.391 1_556 S
C725 H713 0.950 . S
C725 C721 1.393 . S
C725 C724 1.391 1_554 S
C726 H716 0.950 . S
C726 C727 1.386 . S
C726 C728 1.391 . S
C727 C726 1.386 . S
C727 C731 1.393 . S
C728 H717 0.950 . S
C728 C726 1.391 . S
C728 C729 1.400 . S
C729 C723 1.491 . S
C729 C728 1.400 . S
C729 C730 1.398 . S
C730 H718 0.950 . S
C730 C729 1.398 . S
C730 C731 1.391 . S
C731 H719 0.950 . S
C731 C727 1.393 . S
C731 C730 1.391 . S
H732 C740 0.950 . S
H733 C745 0.950 . S
H734 C742 0.950 . S
H735 C744 0.950 . S
H736 C746 0.950 . S
H737 C748 0.950 . S
H738 C750 0.950 . S
H739 C751 0.950 . S
C740 H732 0.950 . S
C740 C741 1.386 . S
C740 C742 1.391 . S
C741 C740 1.386 . S
C741 C745 1.393 . S
C742 H734 0.950 . S
C742 C740 1.391 . S
C742 C743 1.400 . S
C743 C742 1.400 . S
C743 C744 1.398 . S
C743 C749 1.491 . S
C744 H735 0.950 . S
C744 C743 1.398 . S
C744 C745 1.391 . S
C745 H733 0.950 . S
C745 C741 1.393 . S
C745 C744 1.391 . S
C746 H736 0.950 . S
C746 C747 1.386 . S
C746 C748 1.391 1_554 S
C747 C746 1.386 . S
C747 C751 1.393 . S
C748 H737 0.950 . S
C748 C746 1.391 1_556 S
C748 C749 1.400 . S
C749 C743 1.491 . S
C749 C748 1.400 . S
C749 C750 1.398 . S
C750 H738 0.950 . S
C750 C749 1.398 . S
C750 C751 1.391 1_556 S
C751 H739 0.950 . S
C751 C747 1.393 . S
C751 C750 1.391 1_554 S
H752 C760 0.950 . S
H753 C765 0.950 . S
H754 C762 0.950 . S
H755 C764 0.950 . S
H756 C766 0.950 . S
H757 C768 0.950 . S
H758 C770 0.950 . S
H759 C771 0.950 . S
C760 H752 0.950 . S
C760 C761 1.386 . S
C760 C762 1.391 . S
C761 C760 1.386 . S
C761 C765 1.393 . S
C762 H754 0.950 . S
C762 C760 1.391 . S
C762 C763 1.400 . S
C763 C762 1.400 . S
C763 C764 1.398 . S
C763 C769 1.491 . S
C764 H755 0.950 . S
C764 C763 1.398 . S
C764 C765 1.391 . S
C765 H753 0.950 . S
C765 C761 1.393 . S
C765 C764 1.391 . S
C766 H756 0.950 . S
C766 C767 1.386 . S
C766 C768 1.391 . S
C767 C766 1.386 . S
C767 C771 1.393 . S
C768 H757 0.950 . S
C768 C766 1.391 . S
C768 C769 1.400 . S
C769 C763 1.491 . S
C769 C768 1.400 . S
C769 C770 1.398 . S
C770 H758 0.950 . S
C770 C769 1.398 . S
C770 C771 1.391 . S
C771 H759 0.950 . S
C771 C767 1.393 . S
C771 C770 1.391 . S
H772 C780 0.950 . S
H773 C785 0.950 . S
H774 C782 0.950 . S
H775 C784 0.950 . S
H776 C786 0.950 . S
H777 C788 0.950 . S
H778 C790 0.950 . S
H779 C791 0.950 . S
C780 H772 0.950 . S
C780 C781 1.386 . S
C780 C782 1.391 . S
C781 C780 1.386 . S
C781 C785 1.393 . S
C782 H774 0.950 . S
C782 C780 1.391 . S
C782 C783 1.400 . S
C783 C782 1.400 . S
C783 C784 1.398 . S
C783 C789 1.491 . S
C784 H775 0.950 . S
C784 C783 1.398 . S
C784 C785 1.391 . S
C785 H773 0.950 . S
C785 C781 1.393 . S
C785 C784 1.391 . S
C786 H776 0.950 . S
C786 C787 1.386 . S
C786 C788 1.391 . S
C787 C786 1.386 . S
C787 C791 1.393 . S
C788 H777 0.950 . S
C788 C786 1.391 . S
C788 C789 1.400 . S
C789 C783 1.491 . S
C789 C788 1.400 . S
C789 C790 1.398 . S
C790 H778 0.950 . S
C790 C789 1.398 . S
C790 C791 1.391 . S
C791 H779 0.950 . S
C791 C787 1.393 . S
C791 C790 1.391 . S
H792 C800 0.950 . S
H793 C805 0.950 . S
H794 C802 0.950 . S
H795 C804 0.950 . S
H796 C806 0.950 . S
H797 C808 0.950 . S
H798 C810 0.950 . S
H799 C811 0.950 . S
C800 H792 0.950 . S
C800 C801 1.386 . S
C800 C802 1.391 1_556 S
C801 C800 1.386 . S
C801 C805 1.393 . S
C802 H794 0.950 . S
C802 C800 1.391 1_554 S
C802 C803 1.400 . S
C803 C802 1.400 . S
C803 C804 1.398 . S
C803 C809 1.491 . S
C804 H795 0.950 . S
C804 C803 1.398 . S
C804 C805 1.391 1_554 S
C805 H793 0.950 . S
C805 C801 1.393 . S
C805 C804 1.391 1_556 S
C806 H796 0.950 . S
C806 C807 1.386 . S
C806 C808 1.391 . S
C807 C806 1.386 . S
C807 C811 1.393 . S
C808 H797 0.950 . S
C808 C806 1.391 . S
C808 C809 1.400 . S
C809 C803 1.491 . S
C809 C808 1.400 . S
C809 C810 1.398 . S
C810 H798 0.950 . S
C810 C809 1.398 . S
C810 C811 1.391 . S
C811 H799 0.950 . S
C811 C807 1.393 . S
C811 C810 1.391 . S
H812 C820 0.950 . S
H813 C825 0.950 . S
H814 C822 0.950 . S
H815 C824 0.950 . S
H816 C826 0.950 . S
H817 C828 0.950 . S
H818 C830 0.950 . S
H819 C831 0.950 . S
C820 H812 0.950 . S
C820 C821 1.386 . S
C820 C822 1.391 . S
C821 C820 1.386 . S
C821 C825 1.393 . S
C822 H814 0.950 . S
C822 C820 1.391 . S
C822 C823 1.400 . S
C823 C822 1.400 . S
C823 C824 1.398 . S
C823 C829 1.491 . S
C824 H815 0.950 . S
C824 C823 1.398 . S
C824 C825 1.391 . S
C825 H813 0.950 . S
C825 C821 1.393 . S
C825 C824 1.391 . S
C826 H816 0.950 . S
C826 C827 1.386 . S
C826 C828 1.391 1_556 S
C827 C826 1.386 . S
C827 C831 1.393 . S
C828 H817 0.950 . S
C828 C826 1.391 1_554 S
C828 C829 1.400 . S
C829 C823 1.491 . S
C829 C828 1.400 . S
C829 C830 1.398 . S
C830 H818 0.950 . S
C830 C829 1.398 . S
C830 C831 1.391 1_554 S
C831 H819 0.950 . S
C831 C827 1.393 . S
C831 C830 1.391 1_556 S
C281 C198 1.605 . S
C287 C28 1.581 . S
C301 C40 1.600 . S
C307 C142 1.617 1_455 S
C321 C244 1.622 . S
C327 C96 1.599 . S
C341 C210 1.605 1_455 S
C347 C108 1.583 . S
C361 C164 1.583 . S
C367 C62 1.605 . S
C381 C176 1.600 . S
C387 C6 1.623 1_655 S
C401 C232 1.602 . S
C407 C130 1.621 . S
C421 C266 1.599 . S
C427 C74 1.622 1_655 S
C441 C85 1.777 . S
C447 C17 1.777 . S
C461 C119 1.797 . S
C467 C51 1.797 . S
C481 C153 1.781 . S
C487 C221 1.781 . S
C501 C187 1.779 . S
C507 C255 1.780 . S
C521 C35 1.672 . S
C527 C3 1.660 . S
C541 C71 1.679 . S
C547 C103 1.660 . S
C561 C171 1.661 . S
C567 C139 1.668 . S
C581 C241 1.667 . S
C587 C207 1.661 . S
C601 C1 1.812 . S
C607 C137 1.812 . S
C621 C173 1.797 . S
C627 C37 1.797 . S
C641 C69 1.817 . S
C647 C205 1.817 . S
C661 C105 1.796 . S
C667 C239 1.796 . S
C681 C22 1.385 . S
C687 C15 1.392 . S
C701 C56 1.380 . S
C707 C49 1.374 . S
C721 C83 1.411 . S
C727 C90 1.403 . S
C741 C117 1.390 . S
C747 C124 1.399 . S
C761 C158 1.363 . S
C767 C151 1.370 . S
C781 C192 1.373 . S
C787 C185 1.363 . S
C801 C219 1.367 . S
C807 C226 1.359 . S
C821 C260 1.360 . S
C827 C253 1.370 . S
