# Generated by pormake.
# Topology ske, (6)-cn, num edge types: 1
# Building blocks:
#     Node 0, Type 0, BuildingBlock: KUMBUR_clean_sbu_0, # of connection points: 6
#     Node 1, Type 0, BuildingBlock: KUMBUR_clean_sbu_0, # of connection points: 6
#     Node 2, Type 0, BuildingBlock: KUMBUR_clean_sbu_0, # of connection points: 6
#     Node 3, Type 0, BuildingBlock: KUMBUR_clean_sbu_0, # of connection points: 6
#     Node 4, Type 0, BuildingBlock: KUMBUR_clean_sbu_0, # of connection points: 6
#     Node 5, Type 0, BuildingBlock: KUMBUR_clean_sbu_0, # of connection points: 6
#     Node 6, Type 0, BuildingBlock: KUMBUR_clean_sbu_0, # of connection points: 6
#     Node 7, Type 0, BuildingBlock: KUMBUR_clean_sbu_0, # of connection points: 6
#     Edge 8, Type (0, 0), BuildingBlock: TEMPAE_clean_linker_10, # of connection points: 2
#     Edge 9, Type (0, 0), BuildingBlock: TEMPAE_clean_linker_10, # of connection points: 2
#     Edge 10, Type (0, 0), BuildingBlock: TEMPAE_clean_linker_10, # of connection points: 2
#     Edge 11, Type (0, 0), BuildingBlock: TEMPAE_clean_linker_10, # of connection points: 2
#     Edge 12, Type (0, 0), BuildingBlock: TEMPAE_clean_linker_10, # of connection points: 2
#     Edge 13, Type (0, 0), BuildingBlock: TEMPAE_clean_linker_10, # of connection points: 2
#     Edge 14, Type (0, 0), BuildingBlock: TEMPAE_clean_linker_10, # of connection points: 2
#     Edge 15, Type (0, 0), BuildingBlock: TEMPAE_clean_linker_10, # of connection points: 2
#     Edge 16, Type (0, 0), BuildingBlock: TEMPAE_clean_linker_10, # of connection points: 2
#     Edge 17, Type (0, 0), BuildingBlock: TEMPAE_clean_linker_10, # of connection points: 2
#     Edge 18, Type (0, 0), BuildingBlock: TEMPAE_clean_linker_10, # of connection points: 2
#     Edge 19, Type (0, 0), BuildingBlock: TEMPAE_clean_linker_10, # of connection points: 2
#     Edge 20, Type (0, 0), BuildingBlock: TEMPAE_clean_linker_10, # of connection points: 2
#     Edge 21, Type (0, 0), BuildingBlock: TEMPAE_clean_linker_10, # of connection points: 2
#     Edge 22, Type (0, 0), BuildingBlock: TEMPAE_clean_linker_10, # of connection points: 2
#     Edge 23, Type (0, 0), BuildingBlock: TEMPAE_clean_linker_10, # of connection points: 2
#     Edge 24, Type (0, 0), BuildingBlock: TEMPAE_clean_linker_10, # of connection points: 2
#     Edge 25, Type (0, 0), BuildingBlock: TEMPAE_clean_linker_10, # of connection points: 2
#     Edge 26, Type (0, 0), BuildingBlock: TEMPAE_clean_linker_10, # of connection points: 2
#     Edge 27, Type (0, 0), BuildingBlock: TEMPAE_clean_linker_10, # of connection points: 2
#     Edge 28, Type (0, 0), BuildingBlock: TEMPAE_clean_linker_10, # of connection points: 2
#     Edge 29, Type (0, 0), BuildingBlock: TEMPAE_clean_linker_10, # of connection points: 2
#     Edge 30, Type (0, 0), BuildingBlock: TEMPAE_clean_linker_10, # of connection points: 2
#     Edge 31, Type (0, 0), BuildingBlock: TEMPAE_clean_linker_10, # of connection points: 2
# Relax obj value: 0.116
# Max RMSD: 0.191
# Mean RMSD: 0.186
data_MOF--net-ske--node1-KUMBUR_clean_sbu_0--edge1-TEMPAE_clean_linker_10
_symmetry_space_group_name_H-M    P1
_symmetry_Int_Tables_number       1
_symmetry_cell_setting            triclinic
loop_
_symmetry_equiv_pos_as_xyz
'x, y, z'
_cell_length_a     97.490294
_cell_length_b     30.758704
_cell_length_c     14.656258
_cell_angle_alpha  89.986056
_cell_angle_beta   89.99801
_cell_angle_gamma 116.04891
loop_
_atom_site_label
_atom_site_type_symbol
_atom_site_fract_x
_atom_site_fract_y
_atom_site_fract_z
_atom_type_partial_charge
Tb0 Tb 0.12029 0.21123 0.56336 0.0
C1 C 0.17959 0.36488 0.41619 0.0
C2 C 0.18465 0.33519 0.2738 0.0
C3 C 0.1931 0.42152 0.29503 0.0
C4 C 0.17797 0.32665 0.36135 0.0
C5 C 0.18747 0.4129 0.38474 0.0
C6 C 0.19174 0.38267 0.23964 0.0
C7 C 0.18492 0.44007 0.53555 0.0
N8 N 0.17425 0.35483 0.50295 0.0
C9 C 0.17731 0.3918 0.56382 0.0
C10 C 0.18986 0.45069 0.44533 0.0
Tb11 Tb 0.16108 0.27419 0.54132 0.0
N12 N 0.17122 0.28149 0.39757 0.0
C13 C 0.1722 0.24394 0.35306 0.0
C14 C 0.18485 0.29623 0.22579 0.0
C15 C 0.17906 0.25078 0.26701 0.0
H16 H 0.17347 0.38439 0.63356 0.0
H17 H 0.17989 0.22095 0.23263 0.0
H18 H 0.19671 0.38987 0.17194 0.0
H19 H 0.18691 0.46906 0.58335 0.0
H20 H 0.16762 0.20838 0.38321 0.0
H21 H 0.10616 0.27318 0.87865 0.0
H22 H 0.19005 0.30129 0.15888 0.0
H23 H 0.10915 0.10036 0.4765 0.0
H24 H 0.11957 0.28251 0.73268 0.0
H25 H 0.0921 0.01665 0.52039 0.0
H26 H 0.19903 0.45812 0.26908 0.0
H27 H 0.08827 0.19176 0.93313 0.0
H28 H 0.07547 0.10191 0.90692 0.0
H29 H 0.1958 0.48811 0.42377 0.0
H30 H 0.072 0.03215 0.81099 0.0
N31 N 0.11003 0.20673 0.70553 0.0
C32 C 0.11202 0.24659 0.75581 0.0
C33 C 0.09424 0.19555 0.86908 0.0
C34 C 0.09193 0.15501 0.81635 0.0
C35 C 0.10435 0.24154 0.83864 0.0
C36 C 0.10013 0.16188 0.73407 0.0
H37 H 0.07831 -4e-05 0.66753 0.0
N38 N 0.10581 0.13134 0.59993 0.0
C39 C 0.09368 0.04616 0.56598 0.0
C40 C 0.09808 0.12279 0.67994 0.0
C41 C 0.10338 0.09383 0.54143 0.0
C42 C 0.08594 0.03689 0.64913 0.0
C43 C 0.08791 0.07545 0.70675 0.0
O44 O 0.10353 0.1926 0.46111 0.0
O45 O 0.13947 0.24396 0.46969 0.0
O46 O 0.15111 0.32133 0.49276 0.0
O47 O 0.12881 0.29046 0.57749 0.0
O48 O 0.12148 0.18377 0.42579 0.0
O49 O 0.10428 0.24052 0.56956 0.0
O50 O 0.17958 0.29991 0.63341 0.0
O51 O 0.14197 0.23992 0.63603 0.0
O52 O 0.12971 0.16196 0.6079 0.0
O53 O 0.15241 0.19477 0.52496 0.0
O54 O 0.15975 0.30099 0.67827 0.0
O55 O 0.17577 0.24018 0.54493 0.0
C56 C 0.13481 0.21535 0.40189 0.0
C57 C 0.07969 0.18624 0.5144 0.0
C58 C 0.05404 0.18156 0.53678 0.0
C59 C 0.07 0.20927 0.52505 0.0
C60 C 0.04805 0.13076 0.53754 0.0
C61 C 0.07317 0.13542 0.5148 0.0
C62 C 0.05754 0.10807 0.52689 0.0
C63 C 0.13944 0.32585 0.52989 0.0
C64 C 0.09643 0.21481 0.50082 0.0
C65 C 0.07987 0.06823 0.78921 0.0
C66 C 0.08181 0.10795 0.84369 0.0
C67 C 0.14688 0.26777 0.70478 0.0
C68 C 0.20145 0.29141 0.58422 0.0
C69 C 0.21101 0.27374 0.62677 0.0
C70 C 0.2268 0.29405 0.60611 0.0
C71 C 0.23277 0.33233 0.54292 0.0
C72 C 0.20784 0.32976 0.52206 0.0
C73 C 0.22336 0.34994 0.50145 0.0
C74 C 0.14136 0.15803 0.5683 0.0
C75 C 0.18489 0.27013 0.60494 0.0
H76 H 0.07487 0.24843 0.52446 0.0
H77 H 0.03589 0.10827 0.54434 0.0
H78 H 0.08009 0.11647 0.50446 0.0
H79 H 0.05273 0.06895 0.52677 0.0
H80 H 0.20616 0.24408 0.67492 0.0
H81 H 0.24483 0.34934 0.52658 0.0
H82 H 0.2009 0.34447 0.48982 0.0
H83 H 0.22813 0.37964 0.45346 0.0
Tb84 Tb 0.9085 0.28231 0.5661 0.0
C85 C 0.84941 0.129 0.41826 0.0
C86 C 0.84422 0.15919 0.2768 0.0
C87 C 0.83607 0.07288 0.29613 0.0
C88 C 0.85088 0.16742 0.36435 0.0
C89 C 0.84171 0.08113 0.38583 0.0
C90 C 0.83727 0.11189 0.24173 0.0
C91 C 0.84446 0.05331 0.53572 0.0
N92 N 0.85477 0.13868 0.50503 0.0
C93 C 0.85187 0.10143 0.56504 0.0
C94 C 0.83952 0.0431 0.44542 0.0
Tb95 Tb 0.86773 0.21917 0.54474 0.0
N96 N 0.85756 0.21241 0.40127 0.0
C97 C 0.85654 0.25009 0.35746 0.0
C98 C 0.84393 0.19826 0.2296 0.0
C99 C 0.84966 0.24353 0.27151 0.0
H100 H 0.85572 0.10857 0.63479 0.0
H101 H 0.84879 0.27345 0.23768 0.0
H102 H 0.8323 0.10494 0.17401 0.0
H103 H 0.84261 0.02412 0.58278 0.0
H104 H 0.8611 0.28554 0.38808 0.0
H105 H 0.92259 0.21986 0.88098 0.0
H106 H 0.83874 0.19344 0.1627 0.0
H107 H 0.91975 0.39328 0.47939 0.0
H108 H 0.90923 0.21076 0.73493 0.0
H109 H 0.93691 0.47688 0.52325 0.0
H110 H 0.83028 0.03641 0.26943 0.0
H111 H 0.94047 0.3012 0.93584 0.0
H112 H 0.95331 0.39107 0.90989 0.0
H113 H 0.83374 0.00579 0.42305 0.0
H114 H 0.95687 0.46096 0.81403 0.0
N115 N 0.91876 0.28658 0.70817 0.0
C116 C 0.91676 0.24665 0.75824 0.0
C117 C 0.93452 0.2975 0.87176 0.0
C118 C 0.93686 0.33813 0.81917 0.0
C119 C 0.92442 0.25156 0.84112 0.0
C120 C 0.92868 0.33138 0.73685 0.0
H121 H 0.95067 0.49335 0.67045 0.0
N122 N 0.92304 0.36213 0.60277 0.0
C123 C 0.93528 0.44732 0.56883 0.0
C124 C 0.93077 0.37055 0.68279 0.0
C125 C 0.92553 0.39971 0.54429 0.0
C126 C 0.94301 0.45646 0.65202 0.0
C127 C 0.94097 0.41783 0.70965 0.0
O128 O 0.92518 0.30093 0.46334 0.0
O129 O 0.88928 0.24975 0.47273 0.0
O130 O 0.87782 0.17271 0.49422 0.0
O131 O 0.90002 0.20298 0.57956 0.0
O132 O 0.90721 0.31003 0.42886 0.0
O133 O 0.92457 0.25323 0.57189 0.0
O134 O 0.84924 0.19251 0.63682 0.0
O135 O 0.88685 0.25347 0.63931 0.0
O136 O 0.89914 0.33171 0.61112 0.0
O137 O 0.87624 0.29868 0.53009 0.0
O138 O 0.86918 0.192 0.6812 0.0
O139 O 0.85283 0.25241 0.54916 0.0
C140 C 0.89386 0.27846 0.40505 0.0
C141 C 0.9491 0.30754 0.51584 0.0
C142 C 0.97479 0.31243 0.53756 0.0
C143 C 0.95882 0.28462 0.52641 0.0
C144 C 0.98075 0.36322 0.53786 0.0
C145 C 0.95559 0.35836 0.51568 0.0
C146 C 0.97123 0.38582 0.52725 0.0
C147 C 0.88943 0.16787 0.53128 0.0
C148 C 0.93234 0.27887 0.50286 0.0
C149 C 0.94899 0.42492 0.79218 0.0
C150 C 0.94699 0.38513 0.84663 0.0
C151 C 0.88201 0.22542 0.70785 0.0
C152 C 0.82721 0.20019 0.58808 0.0
C153 C 0.81759 0.21816 0.62892 0.0
C154 C 0.80178 0.19725 0.60841 0.0
C155 C 0.79587 0.15812 0.54707 0.0
C156 C 0.82086 0.16099 0.52776 0.0
C157 C 0.80534 0.14025 0.50727 0.0
C158 C 0.88734 0.33544 0.57311 0.0
C159 C 0.84377 0.22199 0.60883 0.0
H160 H 0.95397 0.24546 0.52619 0.0
H161 H 0.99291 0.38578 0.54423 0.0
H162 H 0.94866 0.37723 0.50527 0.0
H163 H 0.97603 0.42493 0.52673 0.0
H164 H 0.8224 0.24846 0.67567 0.0
H165 H 0.7838 0.14066 0.53094 0.0
H166 H 0.82784 0.146 0.49695 0.0
H167 H 0.8006 0.10989 0.46074 0.0
Tb168 Tb 0.16019 0.76967 0.52201 0.0
C169 C 0.09985 0.61404 0.39432 0.0
C170 C 0.09432 0.63753 0.24651 0.0
C171 C 0.08485 0.55229 0.28418 0.0
C172 C 0.10149 0.64981 0.33256 0.0
C173 C 0.09135 0.56482 0.37146 0.0
C174 C 0.08631 0.58861 0.22182 0.0
C175 C 0.0956 0.54417 0.52433 0.0
N176 N 0.10629 0.62774 0.47805 0.0
C177 C 0.10388 0.59344 0.54403 0.0
C178 C 0.08941 0.52976 0.43749 0.0
Tb179 Tb 0.11941 0.70992 0.5031 0.0
N180 N 0.10926 0.69663 0.3591 0.0
C181 C 0.10898 0.73272 0.30604 0.0
C182 C 0.09483 0.67468 0.18965 0.0
C183 C 0.10186 0.72237 0.22057 0.0
H184 H 0.10866 0.60353 0.61135 0.0
H185 H 0.10167 0.7511 0.17897 0.0
H186 H 0.08086 0.57849 0.15566 0.0
H187 H 0.09406 0.51733 0.57614 0.0
H188 H 0.11418 0.76967 0.3301 0.0
H189 H 0.17276 0.70724 0.84331 0.0
H190 H 0.08935 0.66681 0.12338 0.0
H191 H 0.17487 0.88206 0.42652 0.0
H192 H 0.16043 0.69734 0.69513 0.0
H193 H 0.19232 0.96408 0.47184 0.0
H194 H 0.07839 0.51468 0.26503 0.0
H195 H 0.1901 0.78868 0.89948 0.0
H196 H 0.20338 0.87788 0.87229 0.0
H197 H 0.08301 0.49157 0.42251 0.0
H198 H 0.20837 0.94747 0.77274 0.0
N199 N 0.16998 0.77316 0.66558 0.0
C200 C 0.16781 0.73346 0.71714 0.0
C201 C 0.18463 0.78477 0.83363 0.0
C202 C 0.18742 0.82514 0.77925 0.0
C203 C 0.17485 0.73877 0.80217 0.0
C204 C 0.17985 0.81824 0.69447 0.0
H205 H 0.20427 0.97986 0.62429 0.0
N206 N 0.17615 0.84947 0.55364 0.0
C207 C 0.18978 0.93445 0.519 0.0
C208 C 0.18292 0.85751 0.63729 0.0
C209 C 0.17984 0.88724 0.49352 0.0
C210 C 0.19646 0.94323 0.60519 0.0
C211 C 0.19328 0.90457 0.66497 0.0
O212 O 0.16876 0.74548 0.41045 0.0
O213 O 0.14087 0.74079 0.42854 0.0
O214 O 0.12918 0.66141 0.45845 0.0
O215 O 0.15056 0.69167 0.55018 0.0
O216 O 0.15904 0.80246 0.39044 0.0
O217 O 0.182 0.77065 0.53108 0.0
O218 O 0.10145 0.69034 0.59754 0.0
O219 O 0.13873 0.7433 0.59624 0.0
O220 O 0.15225 0.82363 0.55801 0.0
O221 O 0.12789 0.78971 0.49214 0.0
O222 O 0.11999 0.68722 0.64459 0.0
O223 O 0.10356 0.73939 0.48814 0.0
C224 C 0.14564 0.77187 0.36415 0.0
C225 C 0.19557 0.78511 0.39229 0.0
C226 C 0.22062 0.79874 0.33124 0.0
C227 C 0.20753 0.77117 0.38448 0.0
C228 C 0.22138 0.84014 0.28596 0.0
C229 C 0.19676 0.82666 0.34653 0.0
C230 C 0.20958 0.85392 0.29385 0.0
C231 C 0.14036 0.65632 0.50079 0.0
C232 C 0.18189 0.75634 0.44795 0.0
C233 C 0.20042 0.91158 0.75046 0.0
C234 C 0.1976 0.87196 0.80709 0.0
C235 C 0.13337 0.71836 0.66817 0.0
C236 C 0.07838 0.68489 0.53363 0.0
C237 C 0.06862 0.70782 0.52728 0.0
C238 C 0.05281 0.68041 0.51015 0.0
C239 C 0.04703 0.62997 0.49944 0.0
C240 C 0.07211 0.63442 0.52314 0.0
C241 C 0.05662 0.60736 0.50561 0.0
C242 C 0.1398 0.82668 0.52942 0.0
C243 C 0.0949 0.71313 0.55389 0.0
H244 H 0.20667 0.73924 0.42025 0.0
H245 H 0.231 0.86158 0.24274 0.0
H246 H 0.18774 0.83795 0.35085 0.0
H247 H 0.21032 0.88574 0.25831 0.0
H248 H 0.07333 0.74671 0.53559 0.0
H249 H 0.03497 0.60759 0.48832 0.0
H250 H 0.07908 0.61545 0.53002 0.0
H251 H 0.05198 0.56847 0.49813 0.0
Tb252 Tb 0.86695 0.71931 0.52162 0.0
C253 C 0.93063 0.86806 0.38627 0.0
C254 C 0.93656 0.83492 0.25035 0.0
C255 C 0.94923 0.92164 0.27757 0.0
C256 C 0.92831 0.82867 0.33226 0.0
C257 C 0.94113 0.91506 0.35971 0.0
C258 C 0.94699 0.88163 0.22318 0.0
C259 C 0.93554 0.94526 0.49992 0.0
N260 N 0.92279 0.86015 0.46582 0.0
C261 C 0.92545 0.89792 0.5241 0.0
C262 C 0.94338 0.95391 0.41721 0.0
Tb263 Tb 0.90771 0.7806 0.50208 0.0
N264 N 0.91811 0.78415 0.36061 0.0
C265 C 0.91589 0.74399 0.3106 0.0
C266 C 0.93401 0.79409 0.19785 0.0
C267 C 0.92362 0.74844 0.22816 0.0
H268 H 0.91958 0.89191 0.58864 0.0
H269 H 0.92162 0.71657 0.18836 0.0
H270 H 0.95337 0.88718 0.16022 0.0
H271 H 0.93732 0.97499 0.54539 0.0
H272 H 0.90812 0.70829 0.33357 0.0
H273 H 0.84883 0.7776 0.8272 0.0
H274 H 0.94002 0.79741 0.1341 0.0
H275 H 0.8536 0.60813 0.43324 0.0
H276 H 0.86088 0.78783 0.67638 0.0
H277 H 0.83989 0.52407 0.48688 0.0
H278 H 0.95734 0.95746 0.25596 0.0
H279 H 0.83847 0.69811 0.90447 0.0
H280 H 0.83142 0.6091 0.89528 0.0
H281 H 0.9513 0.99058 0.39902 0.0
H282 H 0.82861 0.53936 0.80101 0.0
N283 N 0.85692 0.71422 0.66518 0.0
C284 C 0.85618 0.7526 0.70793 0.0
C285 C 0.84356 0.70214 0.83739 0.0
C286 C 0.84352 0.66234 0.79118 0.0
C287 C 0.84945 0.74709 0.79414 0.0
C288 C 0.85006 0.66955 0.70336 0.0
H289 H 0.83135 0.50718 0.64744 0.0
N290 N 0.85331 0.63932 0.56287 0.0
C291 C 0.84216 0.55369 0.53359 0.0
C292 C 0.84813 0.63049 0.65007 0.0
C293 C 0.8499 0.60158 0.50335 0.0
C294 C 0.83741 0.54429 0.62435 0.0
C295 C 0.84011 0.58292 0.68346 0.0
O296 O 0.84863 0.69353 0.42818 0.0
O297 O 0.8862 0.75294 0.42753 0.0
O298 O 0.8989 0.83115 0.456 0.0
O299 O 0.87584 0.79905 0.53541 0.0
O300 O 0.86846 0.69134 0.38624 0.0
O301 O 0.8524 0.7537 0.51529 0.0
O302 O 0.9238 0.79738 0.60781 0.0
O303 O 0.88838 0.7484 0.59471 0.0
O304 O 0.87647 0.67096 0.57067 0.0
O305 O 0.899 0.70127 0.48832 0.0
O306 O 0.90624 0.80896 0.63828 0.0
O307 O 0.92387 0.75186 0.49695 0.0
C308 C 0.88132 0.72455 0.35946 0.0
C309 C 0.8268 0.70313 0.47353 0.0
C310 C 0.80132 0.69654 0.43837 0.0
C311 C 0.81724 0.71741 0.42175 0.0
C312 C 0.79527 0.66207 0.50854 0.0
C313 C 0.82034 0.66843 0.54238 0.0
C314 C 0.80473 0.64825 0.55999 0.0
C315 C 0.88714 0.83553 0.49296 0.0
C316 C 0.8434 0.72379 0.45481 0.0
C317 C 0.83464 0.57559 0.77355 0.0
C318 C 0.83629 0.6153 0.82732 0.0
C319 C 0.8929 0.77731 0.6621 0.0
C320 C 0.94803 0.8056 0.55843 0.0
C321 C 0.95777 0.78324 0.54312 0.0
C322 C 0.97377 0.81142 0.53551 0.0
C323 C 0.97975 0.86205 0.54332 0.0
C324 C 0.9545 0.85625 0.56676 0.0
C325 C 0.97018 0.88412 0.55854 0.0
C326 C 0.88814 0.66598 0.5348 0.0
C327 C 0.93124 0.77636 0.56802 0.0
H328 H 0.82212 0.74389 0.36779 0.0
H329 H 0.78319 0.646 0.52429 0.0
H330 H 0.82733 0.65668 0.58242 0.0
H331 H 0.79991 0.62164 0.61368 0.0
H332 H 0.95292 0.74421 0.53705 0.0
H333 H 0.99194 0.88478 0.53983 0.0
H334 H 0.94752 0.87458 0.58106 0.0
H335 H 0.97498 0.92307 0.56535 0.0
Tb336 Tb 0.6202 0.711 0.06444 0.0
C337 C 0.67979 0.86381 0.91822 0.0
C338 C 0.68491 0.83362 0.77658 0.0
C339 C 0.69347 0.92006 0.79688 0.0
C340 C 0.67815 0.82539 0.8639 0.0
C341 C 0.68774 0.91173 0.88638 0.0
C342 C 0.6921 0.88101 0.74207 0.0
C343 C 0.68497 0.93938 0.03634 0.0
N344 N 0.67433 0.85403 1.00475 0.0
C345 C 0.6773 0.8912 0.06503 0.0
C346 C 0.69006 0.94972 0.94633 0.0
Tb347 Tb 0.66097 0.77351 0.04355 0.0
N348 N 0.67127 0.78032 0.90039 0.0
C349 C 0.6722 0.74253 0.8565 0.0
C350 C 0.68506 0.79443 0.72916 0.0
C351 C 0.67915 0.74906 0.77076 0.0
H352 H 0.67334 0.88403 0.13458 0.0
H353 H 0.67995 0.71904 0.7369 0.0
H354 H 0.69714 0.88799 0.67454 0.0
H355 H 0.6869 0.96852 0.08365 0.0
H356 H 0.66753 0.70702 0.88688 0.0
H357 H 0.60631 0.77494 0.37817 0.0
H358 H 0.69032 0.79925 0.66245 0.0
H359 H 0.60883 0.59971 0.97947 0.0
H360 H 0.6195 0.78338 0.23165 0.0
H361 H 0.59185 0.5162 1.02537 0.0
H362 H 0.69945 0.95658 0.77063 0.0
H363 H 0.5886 0.69382 0.43498 0.0
H364 H 0.57584 0.60379 0.41099 0.0
H365 H 0.69604 0.98707 0.92443 0.0
H366 H 0.57229 0.53343 0.31663 0.0
N367 N 0.61004 0.70743 0.20658 0.0
C368 C 0.61203 0.7476 0.25581 0.0
C369 C 0.59448 0.69723 0.3707 0.0
C370 C 0.59214 0.65635 0.31895 0.0
C371 C 0.60448 0.74305 0.33895 0.0
C372 C 0.60022 0.66273 0.23637 0.0
H373 H 0.57837 0.50039 0.1735 0.0
N374 N 0.60577 0.63134 0.1028 0.0
C375 C 0.59353 0.54598 0.0705 0.0
C376 C 0.59815 0.62329 0.18321 0.0
C377 C 0.60319 0.5935 0.04482 0.0
C378 C 0.58597 0.5372 0.15421 0.0
C379 C 0.58804 0.5761 0.21116 0.0
O380 O 0.60336 0.69123 0.96243 0.0
O381 O 0.63943 0.74348 0.97121 0.0
O382 O 0.65116 0.82072 0.99293 0.0
O383 O 0.62871 0.79052 0.07626 0.0
O384 O 0.62149 0.68319 0.92733 0.0
O385 O 0.60412 0.74008 0.0691 0.0
O386 O 0.67943 0.7994 0.13595 0.0
O387 O 0.64179 0.73957 0.1379 0.0
O388 O 0.62954 0.66156 0.10969 0.0
O389 O 0.6523 0.69406 1.02752 0.0
O390 O 0.65949 0.80091 0.1797 0.0
O391 O 0.67543 0.7388 0.04938 0.0
C392 C 0.63483 0.71478 0.90353 0.0
C393 C 0.57953 0.6859 1.01342 0.0
C394 C 0.55374 0.68134 1.02031 0.0
C395 C 0.56977 0.70899 1.0135 0.0
C396 C 0.54774 0.63089 0.03038 0.0
C397 C 0.57303 0.63526 1.02167 0.0
C398 C 0.55733 0.60817 0.0313 0.0
C399 C 0.63948 0.82566 1.02877 0.0
C400 C 0.59631 0.71402 1.00058 0.0
C401 C 0.58011 0.56939 0.29395 0.0
C402 C 0.58209 0.60945 0.34752 0.0
C403 C 0.64663 0.76769 0.20632 0.0
C404 C 0.70112 0.78927 0.08913 0.0
C405 C 0.71044 0.77135 0.13377 0.0
C406 C 0.72621 0.79045 0.11349 0.0
C407 C 0.73243 0.82779 0.04857 0.0
C408 C 0.70774 0.82671 1.02533 0.0
C409 C 0.72325 0.84572 1.00511 0.0
C410 C 0.6412 0.65742 0.07077 0.0
C411 C 0.68457 0.76893 0.1091 0.0
H412 H 0.57456 0.74792 1.00547 0.0
H413 H 0.53555 0.60888 0.03721 0.0
H414 H 0.57999 0.61616 1.01907 0.0
H415 H 0.55254 0.56922 0.03812 0.0
H416 H 0.70541 0.74239 0.18318 0.0
H417 H 0.74449 0.84378 0.03237 0.0
H418 H 0.70097 0.84155 0.9914 0.0
H419 H 0.72821 0.87469 0.95579 0.0
Tb420 Tb 0.40779 0.78069 0.07749 0.0
C421 C 0.34823 0.62739 0.93158 0.0
C422 C 0.34263 0.65758 0.79137 0.0
C423 C 0.33445 0.57124 0.81039 0.0
C424 C 0.34958 0.66579 0.87812 0.0
C425 C 0.34036 0.5795 0.89947 0.0
C426 C 0.33554 0.61027 0.75642 0.0
C427 C 0.34349 0.5517 0.04857 0.0
N428 N 0.35385 0.63709 1.01778 0.0
C429 C 0.35108 0.59984 0.07757 0.0
C430 C 0.33827 0.54147 0.9588 0.0
Tb431 Tb 0.36704 0.71761 0.05714 0.0
N432 N 0.35635 0.71076 0.91506 0.0
C433 C 0.35508 0.74832 0.87244 0.0
C434 C 0.34221 0.69666 0.74493 0.0
C435 C 0.34802 0.74187 0.78707 0.0
H436 H 0.35515 0.60693 0.1469 0.0
H437 H 0.3472 0.77198 0.75356 0.0
H438 H 0.33036 0.60332 0.68928 0.0
H439 H 0.34173 0.52252 0.09545 0.0
H440 H 0.35964 0.78368 0.90325 0.0
H441 H 0.42183 0.71581 0.3898 0.0
H442 H 0.33687 0.69189 0.6785 0.0
H443 H 0.41934 0.89207 0.99336 0.0
H444 H 0.40891 0.70771 0.24247 0.0
H445 H 0.43577 0.97566 0.04187 0.0
H446 H 0.32853 0.53476 0.78391 0.0
H447 H 0.4387 0.79693 0.45026 0.0
H448 H 0.45056 0.88724 0.43042 0.0
H449 H 0.33235 0.50415 0.93667 0.0
H450 H 0.454 0.95789 0.33715 0.0
N451 N 0.41789 0.78378 0.2197 0.0
C452 C 0.4161 0.74348 0.26784 0.0
C453 C 0.433 0.79367 0.38539 0.0
C454 C 0.43506 0.83475 0.33513 0.0
C455 C 0.42347 0.74784 0.35156 0.0
C456 C 0.42731 0.8285 0.25132 0.0
H457 H 0.44844 0.99122 0.19259 0.0
N458 N 0.42198 0.86021 0.11746 0.0
C459 C 0.43401 0.94575 0.08683 0.0
C460 C 0.42927 0.86811 0.19897 0.0
C461 C 0.42468 0.89822 0.05966 0.0
C462 C 0.44112 0.95439 0.17201 0.0
C463 C 0.439 0.91532 0.2287 0.0
O464 O 0.42488 0.80213 0.97679 0.0
O465 O 0.38856 0.74805 0.98424 0.0
O466 O 0.37698 0.671 1.00515 0.0
O467 O 0.3994 0.70118 0.08857 0.0
O468 O 0.40645 0.80825 0.94017 0.0
O469 O 0.42384 0.75148 0.0806 0.0
O470 O 0.3486 0.69079 0.14967 0.0
O471 O 0.38622 0.75183 0.1515 0.0
O472 O 0.39827 0.82977 0.12236 0.0
O473 O 0.37556 0.79692 0.04003 0.0
O474 O 0.36866 0.69003 0.19288 0.0
O475 O 0.35258 0.7523 0.06572 0.0
C476 C 0.39311 0.77664 0.91626 0.0
C477 C 0.44856 0.80622 1.02776 0.0
C478 C 0.47433 0.81048 0.03214 0.0
C479 C 0.45831 0.78312 1.02391 0.0
C480 C 0.48033 0.86056 0.0475 0.0
C481 C 0.45507 0.85654 0.04134 0.0
C482 C 0.47076 0.88326 0.0523 0.0
C483 C 0.38867 0.66607 0.04088 0.0
C484 C 0.43181 0.77856 1.0135 0.0
C485 C 0.44651 0.9219 0.31295 0.0
C486 C 0.44459 0.88169 0.36593 0.0
C487 C 0.38145 0.72348 0.21973 0.0
C488 C 0.32689 0.70102 0.10363 0.0
C489 C 0.31762 0.72038 0.14421 0.0
C490 C 0.30194 0.7016 0.12179 0.0
C491 C 0.29574 0.66316 0.05927 0.0
C492 C 0.32026 0.66223 0.04255 0.0
C493 C 0.30482 0.64356 1.02041 0.0
C494 C 0.38662 0.83373 0.08306 0.0
C495 C 0.34342 0.7214 0.12431 0.0
H496 H 0.45352 0.74448 1.01179 0.0
H497 H 0.49251 0.88231 0.05551 0.0
H498 H 0.44814 0.87571 0.04192 0.0
H499 H 0.47555 0.92196 0.0632 0.0
H500 H 0.32259 0.75028 0.19175 0.0
H501 H 0.28374 0.6478 0.04129 0.0
H502 H 0.32696 0.64612 1.01212 0.0
H503 H 0.29987 0.61368 0.97298 0.0
Tb504 Tb 0.6609 0.27294 1.01692 0.0
C505 C 0.60036 0.11628 0.88262 0.0
C506 C 0.5944 0.14266 0.73894 0.0
C507 C 0.58528 0.05677 0.7692 0.0
C508 C 0.60179 0.15323 0.82447 0.0
C509 C 0.5919 0.06754 0.85641 0.0
C510 C 0.5865 0.0943 0.71058 0.0
C511 C 0.59625 0.04385 1.00656 0.0
N512 N 0.60688 0.12829 0.96647 0.0
C513 C 0.6045 0.09269 0.02961 0.0
C514 C 0.59005 0.03118 0.91931 0.0
Tb515 Tb 0.62005 0.2099 0.99718 0.0
N516 N 0.60946 0.19945 0.85453 0.0
C517 C 0.60875 0.23637 0.80627 0.0
C518 C 0.5945 0.18082 0.68669 0.0
C519 C 0.6013 0.22768 0.72191 0.0
H520 H 0.60929 0.10147 0.09717 0.0
H521 H 0.60079 0.25718 0.68425 0.0
H522 H 0.5809 0.0855 0.64467 0.0
H523 H 0.59475 0.01599 0.05606 0.0
H524 H 0.61388 0.27277 0.83305 0.0
H525 H 0.67544 0.20842 0.32845 0.0
H526 H 0.58883 0.17426 0.62105 0.0
H527 H 0.67333 0.38438 0.93204 0.0
H528 H 0.66284 0.20031 0.18061 0.0
H529 H 0.68899 0.46796 0.98263 0.0
H530 H 0.57884 0.01957 0.74745 0.0
H531 H 0.69143 0.28953 0.39209 0.0
H532 H 0.70246 0.3799 0.37514 0.0
H533 H 0.58366 0.99331 0.90173 0.0
H534 H 0.7056 0.45059 0.28287 0.0
N535 N 0.67118 0.27633 0.15925 0.0
C536 C 0.66969 0.2361 0.20657 0.0
C537 C 0.68586 0.28627 0.32673 0.0
C538 C 0.68759 0.32734 0.27765 0.0
C539 C 0.67686 0.24046 0.29102 0.0
C540 C 0.68002 0.32105 0.19317 0.0
H541 H 0.70056 0.48381 0.13655 0.0
N542 N 0.67527 0.35245 0.05773 0.0
C543 C 0.68708 0.43809 1.02804 0.0
C544 C 0.68187 0.3606 0.14138 0.0
C545 C 0.67821 0.39045 0.99957 0.0
C546 C 0.69353 0.4469 0.11509 0.0
C547 C 0.69124 0.40789 0.17228 0.0
O548 O 0.67847 0.29614 0.91838 0.0
O549 O 0.64156 0.24074 0.92348 0.0
O550 O 0.62981 0.16203 0.949 0.0
O551 O 0.65214 0.19379 0.03338 0.0
O552 O 0.65929 0.30182 0.88163 0.0
O553 O 0.67549 0.23858 1.01053 0.0
O554 O 0.60245 0.18839 0.09463 0.0
O555 O 0.63932 0.24412 0.09038 0.0
O556 O 0.65144 0.32147 0.06483 0.0
O557 O 0.62844 0.28968 0.985 0.0
O558 O 0.62127 0.18468 0.13568 0.0
O559 O 0.60407 0.23931 0.9901 0.0
C560 C 0.64605 0.27018 0.8567 0.0
C561 C 0.70072 0.28762 0.95869 0.0
C562 C 0.72591 0.29318 0.91762 0.0
C563 C 0.70983 0.27152 0.90647 0.0
C564 C 0.73256 0.32998 0.98309 0.0
C565 C 0.70786 0.32485 1.02214 0.0
C566 C 0.7236 0.34559 0.03473 0.0
C567 C 0.64141 0.15772 0.98766 0.0
C568 C 0.68392 0.26656 0.94574 0.0
C569 C 0.69841 0.41455 0.25769 0.0
C570 C 0.69667 0.37432 0.31005 0.0
C571 C 0.63439 0.21715 0.16043 0.0
C572 C 0.57908 0.18334 0.03579 0.0
C573 C 0.56934 0.20635 1.02849 0.0
C574 C 0.55349 0.1789 1.0123 0.0
C575 C 0.54767 0.12831 1.00385 0.0
C576 C 0.57277 0.13278 1.02672 0.0
C577 C 0.55724 0.10567 1.01054 0.0
C578 C 0.63955 0.32567 0.02974 0.0
C579 C 0.59566 0.2116 0.05504 0.0
H580 H 0.70448 0.24315 0.85632 0.0
H581 H 0.74478 0.34666 0.99482 0.0
H582 H 0.70133 0.3383 0.06173 0.0
H583 H 0.72889 0.37414 0.08453 0.0
H584 H 0.57411 0.24533 0.03515 0.0
H585 H 0.53558 0.10582 0.99384 0.0
H586 H 0.57975 0.11381 0.03353 0.0
H587 H 0.55256 0.06671 1.00436 0.0
Tb588 Tb 0.36702 0.21885 1.02756 0.0
C589 C 0.42772 0.37714 0.89685 0.0
C590 C 0.43347 0.35369 0.74963 0.0
C591 C 0.44286 0.43891 0.78699 0.0
C592 C 0.42616 0.34138 0.83532 0.0
C593 C 0.43623 0.42637 0.87395 0.0
C594 C 0.44151 0.4026 0.72495 0.0
C595 C 0.43167 0.4471 1.02603 0.0
N596 N 0.42113 0.36346 0.98024 0.0
C597 C 0.42337 0.39785 0.04577 0.0
C598 C 0.43804 0.46147 0.93958 0.0
Tb599 Tb 0.40796 0.2812 1.00528 0.0
N600 N 0.41833 0.29454 0.86174 0.0
C601 C 0.41874 0.2585 0.80913 0.0
C602 C 0.43309 0.31657 0.69321 0.0
C603 C 0.42607 0.26893 0.72428 0.0
H604 H 0.41844 0.38792 0.11278 0.0
H605 H 0.42647 0.2403 0.68337 0.0
H606 H 0.44706 0.41272 0.65906 0.0
H607 H 0.43309 0.47398 0.07749 0.0
H608 H 0.41353 0.22155 0.83319 0.0
H609 H 0.35371 0.28341 0.34297 0.0
H610 H 0.43872 0.32448 0.62734 0.0
H611 H 0.35419 0.10757 0.94158 0.0
H612 H 0.36597 0.29144 0.19398 0.0
H613 H 0.338 0.02412 0.99059 0.0
H614 H 0.44935 0.47652 0.76784 0.0
H615 H 0.33717 0.20234 0.40503 0.0
H616 H 0.32497 0.11206 0.38437 0.0
H617 H 0.44445 0.49965 0.92454 0.0
H618 H 0.32124 0.04141 0.29034 0.0
N619 N 0.3571 0.21539 0.17103 0.0
C620 C 0.35894 0.25565 0.21944 0.0
C621 C 0.34265 0.20557 0.33937 0.0
C622 C 0.34041 0.1645 0.28864 0.0
C623 C 0.35196 0.25134 0.30453 0.0
C624 C 0.348 0.17072 0.20424 0.0
H625 H 0.3262 0.00821 0.14386 0.0
N626 N 0.35239 0.13939 0.06769 0.0
C627 C 0.34008 0.05391 0.03653 0.0
C628 C 0.34578 0.1312 0.1513 0.0
C629 C 0.34927 0.1015 1.00897 0.0
C630 C 0.3335 0.04506 0.12321 0.0
C631 C 0.33604 0.08399 0.18112 0.0
O632 O 0.34942 0.19701 0.92934 0.0
O633 O 0.38629 0.25043 0.93334 0.0
O634 O 0.39825 0.3296 0.9593 0.0
O635 O 0.37605 0.298 0.04499 0.0
O636 O 0.36825 0.18988 0.89177 0.0
O637 O 0.35269 0.25412 1.02318 0.0
O638 O 0.42555 0.29967 0.10202 0.0
O639 O 0.38875 0.2473 0.09871 0.0
O640 O 0.37638 0.1697 0.07328 0.0
O641 O 0.39933 0.20129 0.99237 0.0
O642 O 0.40722 0.3048 0.14581 0.0
O643 O 0.42395 0.25218 0.99093 0.0
C644 C 0.38155 0.22099 0.8667 0.0
C645 C 0.32739 0.20653 0.97084 0.0
C646 C 0.30227 0.20071 0.92725 0.0
C647 C 0.31834 0.22168 0.91589 0.0
C648 C 0.29556 0.16544 0.9954 0.0
C649 C 0.32021 0.17099 0.0373 0.0
C650 C 0.30447 0.15081 0.04982 0.0
C651 C 0.38673 0.33401 0.99883 0.0
C652 C 0.34417 0.2269 0.95786 0.0
C653 C 0.32875 0.07737 0.26615 0.0
C654 C 0.33082 0.11759 0.31949 0.0
C655 C 0.39394 0.27312 0.16983 0.0
C656 C 0.44893 0.30651 0.04024 0.0
C657 C 0.45875 0.28391 0.03122 0.0
C658 C 0.47465 0.31189 1.0171 0.0
C659 C 0.48041 0.3626 1.01238 0.0
C660 C 0.45518 0.3572 0.03486 0.0
C661 C 0.47074 0.38485 1.02067 0.0
C662 C 0.38822 0.16537 0.03754 0.0
C663 C 0.43234 0.27769 0.05817 0.0
H664 H 0.32373 0.24884 0.86364 0.0
H665 H 0.28335 0.14931 1.0072 0.0
H666 H 0.32671 0.15852 0.07947 0.0
H667 H 0.29915 0.12354 0.10187 0.0
H668 H 0.45402 0.24483 0.0351 0.0
H669 H 0.49251 0.38547 1.00415 0.0
H670 H 0.44813 0.37583 0.04322 0.0
H671 H 0.47538 0.4239 1.0174 0.0
C672 C 0.23693 0.26889 0.74474 0.0
C673 C 0.23733 0.27671 0.65025 0.0
C674 C 0.24776 0.25692 0.78758 0.0
C675 C 0.25926 0.25231 0.73474 0.0
C676 C 0.25949 0.25907 0.6391 0.0
C677 C 0.24857 0.27113 0.5982 0.0
C678 C 0.24707 0.24991 0.88969 0.0
C679 C 0.27137 0.25392 0.57987 0.0
C680 C 0.29545 0.26331 0.8557 0.0
C681 C 0.29217 0.21462 0.86973 0.0
C682 C 0.28493 0.27618 0.81108 0.0
C683 C 0.27085 0.23951 0.77918 0.0
C684 C 0.26776 0.19035 0.79039 0.0
C685 C 0.27842 0.17858 0.8353 0.0
C686 C 0.28871 0.32902 0.80025 0.0
C687 C 0.25303 0.15004 0.75663 0.0
H688 H 0.22841 0.27358 0.78563 0.0
H689 H 0.24886 0.27644 0.52498 0.0
H690 H 0.24582 0.21317 0.90636 0.0
H691 H 0.25788 0.27626 0.92113 0.0
H692 H 0.23742 0.25457 0.92108 0.0
H693 H 0.26995 0.26006 0.50649 0.0
H694 H 0.28296 0.28019 0.60175 0.0
H695 H 0.27071 0.21719 0.58788 0.0
H696 H 0.30597 0.29134 0.88264 0.0
H697 H 0.27589 0.14085 0.84475 0.0
H698 H 0.28023 0.33715 0.83791 0.0
H699 H 0.288 0.33751 0.72733 0.0
H700 H 0.3003 0.35315 0.82602 0.0
H701 H 0.24321 0.15159 0.79216 0.0
H702 H 0.25257 0.11371 0.76805 0.0
H703 H 0.25161 0.15451 0.68264 0.0
C704 C 0.74978 0.31425 0.82648 0.0
C705 C 0.73609 0.27858 0.86232 0.0
C706 C 0.7605 0.30206 0.78339 0.0
C707 C 0.75752 0.25285 0.77538 0.0
C708 C 0.74349 0.21649 0.80873 0.0
C709 C 0.73292 0.22977 0.85156 0.0
C710 C 0.77517 0.34204 0.74804 0.0
C711 C 0.73982 0.16359 0.80125 0.0
C712 C 0.77986 0.21929 0.59783 0.0
C713 C 0.79119 0.21484 0.65087 0.0
C714 C 0.76887 0.23154 0.63732 0.0
C715 C 0.76915 0.23968 0.73252 0.0
C716 C 0.78073 0.23621 0.78631 0.0
C717 C 0.79163 0.22399 0.74487 0.0
C718 C 0.75689 0.23542 0.57709 0.0
C719 C 0.78148 0.24474 0.88797 0.0
H720 H 0.75223 0.35205 0.83329 0.0
H721 H 0.72244 0.20203 0.87957 0.0
H722 H 0.78505 0.34119 0.78419 0.0
H723 H 0.77655 0.33654 0.67443 0.0
H724 H 0.77558 0.37844 0.75728 0.0
H725 H 0.72827 0.13968 0.82791 0.0
H726 H 0.7405 0.15398 0.72898 0.0
H727 H 0.74838 0.15631 0.83995 0.0
H728 H 0.77953 0.21295 0.52494 0.0
H729 H 0.80022 0.22018 0.78654 0.0
H730 H 0.75748 0.27216 0.58268 0.0
H731 H 0.74534 0.20933 0.60003 0.0
H732 H 0.75826 0.22816 0.50424 0.0
H733 H 0.78265 0.28162 0.90239 0.0
H734 H 0.79119 0.24081 0.92023 0.0
H735 H 0.77071 0.21868 0.9204 0.0
C736 C 0.28256 0.73377 0.10457 0.0
C737 C 0.29177 0.72124 0.16198 0.0
C738 C 0.27158 0.74715 0.14017 0.0
C739 C 0.26956 0.74748 0.23587 0.0
C740 C 0.27907 0.73591 0.29442 0.0
C741 C 0.29015 0.72324 0.25676 0.0
C742 C 0.26194 0.76008 0.07503 0.0
C743 C 0.27722 0.7354 0.39668 0.0
C744 C 0.24859 0.81999 0.31524 0.0
C745 C 0.23336 0.78442 0.31949 0.0
C746 C 0.26056 0.80825 0.29198 0.0
C747 C 0.25734 0.75955 0.27346 0.0
C748 C 0.24215 0.72305 0.2829 0.0
C749 C 0.23035 0.73589 0.30547 0.0
C750 C 0.27654 0.8484 0.28284 0.0
C751 C 0.23822 0.67059 0.2649 0.0
H752 H 0.28383 0.73249 0.03125 0.0
H753 H 0.29713 0.71306 0.30133 0.0
H754 H 0.24975 0.73403 0.08273 0.0
H755 H 0.26292 0.79657 0.09132 0.0
H756 H 0.26531 0.75979 1.00271 0.0
H757 H 0.28596 0.72791 0.43297 0.0
H758 H 0.27801 0.77064 0.42052 0.0
H759 H 0.26573 0.70725 0.4159 0.0
H760 H 0.25114 0.85747 0.32804 0.0
H761 H 0.21867 0.70808 0.3081 0.0
H762 H 0.28009 0.85226 0.21019 0.0
H763 H 0.28473 0.83957 0.3219 0.0
H764 H 0.2774 0.88372 0.30714 0.0
H765 H 0.23965 0.66544 0.19119 0.0
H766 H 0.22629 0.64612 0.2847 0.0
H767 H 0.24609 0.6598 0.30285 0.0
C768 C 0.74734 0.76462 0.10875 0.0
C769 C 0.73645 0.77265 0.15965 0.0
C770 C 0.75801 0.75196 0.15127 0.0
C771 C 0.7579 0.74728 0.24742 0.0
C772 C 0.74675 0.7544 0.29916 0.0
C773 C 0.73613 0.76679 0.25468 0.0
C774 C 0.76951 0.74405 0.09321 0.0
C775 C 0.74622 0.74981 0.40177 0.0
C776 C 0.77667 0.67375 0.35402 0.0
C777 C 0.79078 0.70991 0.38382 0.0
C778 C 0.76597 0.68538 0.30919 0.0
C779 C 0.76936 0.73448 0.29357 0.0
C780 C 0.7837 0.77119 0.32174 0.0
C781 C 0.79426 0.75848 0.36615 0.0
C782 C 0.75094 0.64502 0.27937 0.0
C783 C 0.78778 0.82399 0.30647 0.0
H784 H 0.74756 0.76848 0.03518 0.0
H785 H 0.72787 0.77338 0.29459 0.0
H786 H 0.78125 0.77021 0.11277 0.0
H787 H 0.76858 0.70722 0.10509 0.0
H788 H 0.76794 0.7483 1.01922 0.0
H789 H 0.7368 0.75606 0.43213 0.0
H790 H 0.74473 0.71322 0.42179 0.0
H791 H 0.75719 0.77632 0.43134 0.0
H792 H 0.77396 0.63609 0.36619 0.0
H793 H 0.80505 0.78663 0.38957 0.0
H794 H 0.74939 0.64739 0.20486 0.0
H795 H 0.74138 0.64868 0.31387 0.0
H796 H 0.75016 0.60866 0.2951 0.0
H797 H 0.7871 0.83096 0.23273 0.0
H798 H 0.79944 0.84813 0.33129 0.0
H799 H 0.77946 0.83358 0.34227 0.0
C800 C 0.12887 0.88473 0.48886 0.0
C801 C 0.1395 0.87449 0.53759 0.0
C802 C 0.12891 0.93052 0.49454 0.0
C803 C 0.13977 0.96688 0.55078 0.0
C804 C 0.15038 0.95648 0.60102 0.0
C805 C 0.15012 0.91058 0.59381 0.0
C806 C 0.11749 0.94024 0.43925 0.0
C807 C 0.16209 0.99393 0.66222 0.0
C808 C 0.1502 0.09948 0.50183 0.0
C809 C 0.14138 0.10971 0.56632 0.0
C810 C 0.14971 0.05318 0.4957 0.0
C811 C 0.14024 0.0161 0.55598 0.0
C812 C 0.13143 0.02633 0.62191 0.0
C813 C 0.13211 0.07293 0.62631 0.0
C814 C 0.15921 0.04382 0.42397 0.0
C815 C 0.12126 0.98803 0.68783 0.0
H816 H 0.12065 0.85722 0.44506 0.0
H817 H 0.15827 0.90299 0.63279 0.0
H818 H 0.11064 0.95194 0.4847 0.0
H819 H 0.12358 0.9702 0.3905 0.0
H820 H 0.1096 0.90792 0.40029 0.0
H821 H 0.16941 0.97992 0.69762 0.0
H822 H 0.16953 0.02613 0.62156 0.0
H823 H 0.15629 0.00618 0.71429 0.0
H824 H 0.15732 0.12743 0.45472 0.0
H825 H 0.12533 0.08051 0.67685 0.0
H826 H 0.15171 0.01408 0.37835 0.0
H827 H 0.16726 0.03202 0.45684 0.0
H828 H 0.16586 0.07635 0.38175 0.0
H829 H 0.11278 0.95653 0.64975 0.0
H830 H 0.11503 0.00166 0.73447 0.0
H831 H 0.12819 0.97488 0.72938 0.0
C832 C 0.87728 0.39278 0.51474 0.0
C833 C 0.88712 0.38358 0.57318 0.0
C834 C 0.87757 0.43889 0.51014 0.0
C835 C 0.88796 0.47698 0.56521 0.0
C836 C 0.89777 0.46775 0.62533 0.0
C837 C 0.89715 0.42121 0.62904 0.0
C838 C 0.86688 0.44701 0.44533 0.0
C839 C 0.90902 0.50718 0.68529 0.0
C840 C 0.89828 0.60655 0.48979 0.0
C841 C 0.88871 0.61863 0.54509 0.0
C842 C 0.89831 0.5609 0.49645 0.0
C843 C 0.88853 0.52636 0.55987 0.0
C844 C 0.87908 0.53876 0.61707 0.0
C845 C 0.87937 0.58471 0.60942 0.0
C846 C 0.90863 0.54932 0.4345 0.0
C847 C 0.86845 0.50321 0.68552 0.0
H848 H 0.86947 0.36415 0.47122 0.0
H849 H 0.90464 0.41443 0.67552 0.0
H850 H 0.85968 0.46052 0.48329 0.0
H851 H 0.87356 0.47511 0.39453 0.0
H852 H 0.85929 0.41349 0.40832 0.0
H853 H 0.9159 0.49423 0.72797 0.0
H854 H 0.9169 0.53772 0.64254 0.0
H855 H 0.90287 0.52152 0.73078 0.0
H856 H 0.90558 0.63248 0.44009 0.0
H857 H 0.8722 0.59399 0.65398 0.0
H858 H 0.90166 0.51853 0.38939 0.0
H859 H 0.91609 0.53804 0.47554 0.0
H860 H 0.91595 0.58062 0.39125 0.0
H861 H 0.85987 0.4711 0.64937 0.0
H862 H 0.86234 0.51915 0.72767 0.0
H863 H 0.87494 0.49032 0.73148 0.0
C864 C 0.89775 0.92178 0.43881 0.0
C865 C 0.88723 0.88411 0.49266 0.0
C866 C 0.89874 0.96877 0.44289 0.0
C867 C 0.88876 0.97835 0.50092 0.0
C868 C 0.87785 0.94022 0.55363 0.0
C869 C 0.87723 0.89369 0.54901 0.0
C870 C 0.91056 0.00826 0.38558 0.0
C871 C 0.8669 0.94869 0.61577 0.0
C872 C 0.89917 0.10769 0.57823 0.0
C873 C 0.8901 0.12072 0.52053 0.0
C874 C 0.89905 0.06181 0.57165 0.0
C875 C 0.88961 0.02808 0.50595 0.0
C876 C 0.88073 0.04155 0.44618 0.0
C877 C 0.88119 0.08771 0.4537 0.0
C878 C 0.9088 0.04908 0.63621 0.0
C879 C 0.87046 0.00686 0.37535 0.0
H880 H 0.90534 0.91472 0.3937 0.0
H881 H 0.86903 0.86501 0.5908 0.0
H882 H 0.90489 0.02351 0.33844 0.0
H883 H 0.91827 0.0382 0.4301 0.0
H884 H 0.91758 0.99505 0.34481 0.0
H885 H 0.85892 0.91512 0.65114 0.0
H886 H 0.87337 0.97621 0.66794 0.0
H887 H 0.86012 0.96311 0.57599 0.0
H888 H 0.90615 0.13296 0.62984 0.0
H889 H 0.87442 0.09777 0.40733 0.0
H890 H 0.91633 0.0373 0.59719 0.0
H891 H 0.90139 0.01832 0.68017 0.0
H892 H 0.916 0.07997 0.68063 0.0
H893 H 0.87711 0.99369 0.33138 0.0
H894 H 0.86482 0.02366 0.33136 0.0
H895 H 0.86148 0.97483 0.40959 0.0
C896 C 0.14998 0.59795 0.55969 0.0
C897 C 0.14056 0.60819 0.4996 0.0
C898 C 0.14964 0.55176 0.5626 0.0
C899 C 0.13956 0.51466 0.50455 0.0
C900 C 0.13023 0.525 0.44263 0.0
C901 C 0.13101 0.57172 0.44005 0.0
C902 C 0.15998 0.54256 0.62845 0.0
C903 C 0.11924 0.48652 0.37994 0.0
C904 C 0.14814 0.4074 0.45702 0.0
C905 C 0.13871 0.37294 0.52025 0.0
C906 C 0.1485 0.45345 0.45101 0.0
C907 C 0.1389 0.46521 0.50813 0.0
C908 C 0.1289 0.42998 0.56969 0.0
C909 C 0.12897 0.38436 0.57532 0.0
C910 C 0.15942 0.48987 0.38484 0.0
C911 C 0.11831 0.44078 0.63072 0.0
H912 H 0.15753 0.62585 0.60541 0.0
H913 H 0.12398 0.57948 0.39175 0.0
H914 H 0.15304 0.5139 0.67763 0.0
H915 H 0.1673 0.52932 0.59095 0.0
H916 H 0.16745 0.57553 0.66729 0.0
H917 H 0.11307 0.50071 0.33412 0.0
H918 H 0.12544 0.47107 0.33749 0.0
H919 H 0.11072 0.4565 0.42101 0.0
H920 H 0.1554 0.39857 0.41235 0.0
H921 H 0.12156 0.35795 0.62396 0.0
H922 H 0.16805 0.52096 0.42317 0.0
H923 H 0.15322 0.50422 0.33978 0.0
H924 H 0.16548 0.47417 0.3416 0.0
H925 H 0.12508 0.47061 0.67822 0.0
H926 H 0.11069 0.40878 0.67145 0.0
H927 H 0.11116 0.45311 0.58923 0.0
C928 C 0.65049 0.59906 1.00784 0.0
C929 C 0.64121 0.60897 0.0695 0.0
C930 C 0.64996 0.55267 1.00206 0.0
C931 C 0.63991 0.51504 0.05938 0.0
C932 C 0.63064 0.52496 0.12257 0.0
C933 C 0.63147 0.57176 0.12723 0.0
C934 C 0.66006 0.54381 0.93384 0.0
C935 C 0.61979 0.48606 0.18506 0.0
C936 C 0.62899 0.38452 0.98713 0.0
C937 C 0.63901 0.37311 0.03968 0.0
C938 C 0.62902 0.4303 0.99358 0.0
C939 C 0.6393 0.46559 0.05405 0.0
C940 C 0.64924 0.45391 0.10831 0.0
C941 C 0.64891 0.40792 0.10082 0.0
C942 C 0.61823 0.44121 0.93453 0.0
C943 C 0.66039 0.49024 0.17361 0.0
H944 H 0.65803 0.62735 0.96273 0.0
H945 H 0.62439 0.57909 0.17601 0.0
H946 H 0.6676 0.53079 0.96941 0.0
H947 H 0.65295 0.5151 0.88523 0.0
H948 H 0.6673 0.57689 0.8945 0.0
H949 H 0.61321 0.49941 0.22948 0.0
H950 H 0.61161 0.45519 0.1442 0.0
H951 H 0.62623 0.47205 0.22892 0.0
H952 H 0.62129 0.35798 0.93972 0.0
H953 H 0.65653 0.39938 0.14299 0.0
H954 H 0.62485 0.47151 0.88753 0.0
H955 H 0.6111 0.45293 0.97755 0.0
H956 H 0.61059 0.40945 0.89336 0.0
H957 H 0.66842 0.52257 0.13542 0.0
H958 H 0.66713 0.47519 0.21232 0.0
H959 H 0.6542 0.50258 0.22284 0.0
C960 C 0.37747 0.892 1.01797 0.0
C961 C 0.38659 0.88214 0.08094 0.0
C962 C 0.378 0.93837 1.01133 0.0
C963 C 0.38789 0.97605 0.06911 0.0
C964 C 0.39699 0.96619 0.1336 0.0
C965 C 0.39616 0.9194 0.13911 0.0
C966 C 0.36806 0.94714 0.94177 0.0
C967 C 0.40768 0.00514 0.19661 0.0
C968 C 0.39887 0.10656 0.99612 0.0
C969 C 0.38872 0.11785 0.04757 0.0
C970 C 0.39886 0.06082 1.00317 0.0
C971 C 0.38846 0.02544 0.06306 0.0
C972 C 0.37837 0.03697 0.11609 0.0
C973 C 0.37868 0.08292 0.10809 0.0
C974 C 0.40983 0.05007 0.94546 0.0
C975 C 0.36707 0.00054 0.18071 0.0
H976 H 0.37006 0.86369 0.97248 0.0
H977 H 0.4031 0.9121 0.1889 0.0
H978 H 0.3604 0.96002 0.97625 0.0
H979 H 0.37529 0.97591 0.89356 0.0
H980 H 0.36097 0.91405 0.9021 0.0
H981 H 0.41414 0.99183 0.24207 0.0
H982 H 0.41595 0.03598 0.15611 0.0
H983 H 0.40112 0.01916 0.23941 0.0
H984 H 0.40668 0.13319 0.94924 0.0
H985 H 0.37095 0.09133 0.14944 0.0
H986 H 0.40335 0.01974 0.89824 0.0
H987 H 0.41688 0.03846 0.98944 0.0
H988 H 0.41754 0.08188 0.90462 0.0
H989 H 0.35921 0.96807 0.14224 0.0
H990 H 0.36015 0.0154 0.21812 0.0
H991 H 0.37318 0.98849 0.2311 0.0
C992 C 0.37711 0.39233 0.0585 0.0
C993 C 0.38658 0.38231 0.99842 0.0
C994 C 0.37764 0.43876 0.0632 0.0
C995 C 0.38795 0.47641 1.00692 0.0
C996 C 0.39731 0.46628 0.94479 0.0
C997 C 0.39636 0.41934 0.94054 0.0
C998 C 0.36726 0.44767 0.12928 0.0
C999 C 0.40851 0.50523 0.88376 0.0
C1000 C 0.37991 0.58534 0.96432 0.0
C1001 C 0.38932 0.61889 1.02894 0.0
C1002 C 0.37941 0.53914 0.95615 0.0
C1003 C 0.38881 0.52618 1.01259 0.0
C1004 C 0.39879 0.56051 0.07562 0.0
C1005 C 0.3989 0.60635 0.08328 0.0
C1006 C 0.36853 0.50383 0.88836 0.0
C1007 C 0.40918 0.54846 0.13615 0.0
H1008 H 0.36941 0.36408 0.10312 0.0
H1009 H 0.40347 0.41184 0.89235 0.0
H1010 H 0.3742 0.47552 0.17981 0.0
H1011 H 0.36015 0.46186 0.0923 0.0
H1012 H 0.3596 0.41434 0.16655 0.0
H1013 H 0.41456 0.4911 0.83681 0.0
H1014 H 0.40254 0.52193 0.84258 0.0
H1015 H 0.41713 0.53428 0.92614 0.0
H1016 H 0.37277 0.59499 0.92025 0.0
H1017 H 0.40629 0.63201 0.13303 0.0
H1018 H 0.35979 0.47234 0.92524 0.0
H1019 H 0.37474 0.48989 0.84249 0.0
H1020 H 0.3626 0.52036 0.84605 0.0
H1021 H 0.40224 0.51814 0.18231 0.0
H1022 H 0.4168 0.5798 0.1783 0.0
H1023 H 0.41632 0.53632 0.09414 0.0
C1024 C 0.63188 0.07259 0.92855 0.0
C1025 C 0.64161 0.1095 0.98678 0.0
C1026 C 0.63095 0.02566 0.93261 0.0
C1027 C 0.64026 0.01542 0.99495 0.0
C1028 C 0.65053 0.05298 0.05152 0.0
C1029 C 0.65105 0.0994 0.04694 0.0
C1030 C 0.6198 0.98682 0.87123 0.0
C1031 C 0.66085 0.04395 0.11784 0.0
C1032 C 0.62925 0.88539 0.07106 0.0
C1033 C 0.63886 0.87292 1.01701 0.0
C1034 C 0.62935 0.93124 0.06337 0.0
C1035 C 0.63939 0.96564 1.00061 0.0
C1036 C 0.64885 0.95276 0.94448 0.0
C1037 C 0.64834 0.90656 0.95268 0.0
C1038 C 0.61892 0.94321 0.12359 0.0
C1039 C 0.65978 0.98815 0.87695 0.0
H1040 H 0.6248 0.08018 0.8803 0.0
H1041 H 0.65871 0.12756 0.09181 0.0
H1042 H 0.62578 0.96994 0.83062 0.0
H1043 H 0.61109 0.95787 0.91335 0.0
H1044 H 0.61387 0.0011 0.82374 0.0
H1045 H 0.66849 0.07723 0.15529 0.0
H1046 H 0.65388 0.01606 0.16821 0.0
H1047 H 0.66799 0.02978 0.08104 0.0
H1048 H 0.62181 0.85965 0.12058 0.0
H1049 H 0.65551 0.89697 0.9088 0.0
H1050 H 0.61181 0.95537 0.08135 0.0
H1051 H 0.62582 0.9735 0.16989 0.0
H1052 H 0.61127 0.91182 0.16558 0.0
H1053 H 0.6536 0.00211 0.83085 0.0
H1054 H 0.66574 0.97168 0.83487 0.0
H1055 H 0.66848 0.01962 0.91402 0.0
C1056 C 0.1423 0.19561 0.24816 0.0
C1057 C 0.13844 0.22631 0.30222 0.0
C1058 C 0.14413 0.20141 0.15229 0.0
C1059 C 0.14001 0.23467 0.10558 0.0
C1060 C 0.13478 0.26294 0.16024 0.0
C1061 C 0.13468 0.25981 0.25697 0.0
C1062 C 0.15047 0.17109 0.10312 0.0
C1063 C 0.12868 0.29579 0.11834 0.0
C1064 C 0.1526 0.29399 0.8683 0.0
C1065 C 0.14414 0.25695 0.80613 0.0
C1066 C 0.15202 0.28642 0.96364 0.0
C1067 C 0.14161 0.24134 1.00165 0.0
C1068 C 0.13292 0.20347 0.93891 0.0
C1069 C 0.1349 0.21109 0.84291 0.0
C1070 C 0.16309 0.32737 1.02179 0.0
C1071 C 0.12159 0.15413 0.97118 0.0
H1072 H 0.14436 0.16752 0.28145 0.0
H1073 H 0.13071 0.28168 0.29707 0.0
H1074 H 0.14132 0.13369 0.09573 0.0
H1075 H 0.15524 0.18571 0.03507 0.0
H1076 H 0.15956 0.16801 0.14417 0.0
H1077 H 0.11838 0.29258 0.15599 0.0
H1078 H 0.13736 0.33392 0.1252 0.0
H1079 H 0.12558 0.28775 0.04539 0.0
H1080 H 0.1603 0.32936 0.84212 0.0
H1081 H 0.12908 0.18102 0.79697 0.0
H1082 H 0.16457 0.31579 0.09121 0.0
H1083 H 0.15909 0.35591 1.02724 0.0
H1084 H 0.17449 0.34427 0.98854 0.0
H1085 H 0.12692 0.12891 0.9671 0.0
H1086 H 0.11157 0.13899 0.92544 0.0
H1087 H 0.11755 0.15451 0.04176 0.0
C1088 C 0.88636 0.29785 0.25097 0.0
C1089 C 0.89027 0.26737 0.30537 0.0
C1090 C 0.88454 0.29188 0.15511 0.0
C1091 C 0.88871 0.25864 0.10874 0.0
C1092 C 0.89396 0.23053 0.16374 0.0
C1093 C 0.89406 0.23385 0.26045 0.0
C1094 C 0.87816 0.322 0.10558 0.0
C1095 C 0.90008 0.19765 0.12222 0.0
C1096 C 0.8762 0.19921 0.87147 0.0
C1097 C 0.88468 0.23625 0.80926 0.0
C1098 C 0.87676 0.2068 0.96681 0.0
C1099 C 0.88715 0.2519 1.0048 0.0
C1100 C 0.89586 0.28975 0.94204 0.0
C1101 C 0.89391 0.28211 0.84603 0.0
C1102 C 0.86569 0.16585 1.02501 0.0
C1103 C 0.90718 0.33909 0.97428 0.0
H1104 H 0.88427 0.32592 0.28398 0.0
H1105 H 0.89804 0.21209 0.30079 0.0
H1106 H 0.88727 0.35945 0.09815 0.0
H1107 H 0.87344 0.30729 0.0375 0.0
H1108 H 0.86903 0.32492 0.14637 0.0
H1109 H 0.91039 0.20102 0.15989 0.0
H1110 H 0.89142 0.15951 0.12947 0.0
H1111 H 0.90316 0.20551 0.0492 0.0
H1112 H 0.86852 0.16383 0.84531 0.0
H1113 H 0.89975 0.31217 0.80008 0.0
H1114 H 0.86414 0.17752 0.09422 0.0
H1115 H 0.86975 0.13747 0.03104 0.0
H1116 H 0.85432 0.14873 0.99152 0.0
H1117 H 0.9112 0.33872 0.04491 0.0
H1118 H 0.90186 0.36431 0.97009 0.0
H1119 H 0.91722 0.35421 0.92862 0.0
C1120 C 0.13889 0.7932 0.20928 0.0
C1121 C 0.14284 0.76267 0.2633 0.0
C1122 C 0.13722 0.78766 0.11329 0.0
C1123 C 0.14174 0.7553 0.0666 0.0
C1124 C 0.14732 0.72796 0.12122 0.0
C1125 C 0.14711 0.73035 0.2179 0.0
C1126 C 0.13042 0.81678 0.06434 0.0
C1127 C 0.15399 0.69665 0.07933 0.0
C1128 C 0.12882 0.69348 0.83207 0.0
C1129 C 0.13689 0.73011 0.76839 0.0
C1130 C 0.12966 0.70193 0.92705 0.0
C1131 C 0.13992 0.74773 0.96302 0.0
C1132 C 0.14824 0.78523 0.89872 0.0
C1133 C 0.14608 0.77651 0.80303 0.0
C1134 C 0.11899 0.6611 0.98705 0.0
C1135 C 0.15926 0.83531 0.92913 0.0
H1136 H 0.13645 0.82048 0.24271 0.0
H1137 H 0.15113 0.7086 0.25788 0.0
H1138 H 0.13924 0.85473 0.05781 0.0
H1139 H 0.12588 0.8022 0.99591 0.0
H1140 H 0.12105 0.81821 0.10522 0.0
H1141 H 0.14571 0.65805 0.0864 0.0
H1142 H 0.15702 0.70492 1.00634 0.0
H1143 H 0.16445 0.70138 0.11693 0.0
H1144 H 0.12118 0.65773 0.80728 0.0
H1145 H 0.15158 0.80616 0.75567 0.0
H1146 H 0.11752 0.67316 0.05605 0.0
H1147 H 0.12336 0.63349 0.9935 0.0
H1148 H 0.10753 0.64286 0.95482 0.0
H1149 H 0.15338 0.85902 0.92824 0.0
H1150 H 0.16887 0.85178 0.88066 0.0
H1151 H 0.16391 0.83558 0.99832 0.0
C1152 C 0.88588 0.79749 0.81676 0.0
C1153 C 0.88938 0.76627 0.76187 0.0
C1154 C 0.8841 0.79146 0.9126 0.0
C1155 C 0.88791 0.75728 0.95841 0.0
C1156 C 0.89273 0.72827 0.90289 0.0
C1157 C 0.89278 0.73177 0.80621 0.0
C1158 C 0.87813 0.82249 0.96274 0.0
C1159 C 0.89843 0.69419 0.94379 0.0
C1160 C 0.8935 0.78069 0.22089 0.0
C1161 C 0.88396 0.73519 0.25795 0.0
C1162 C 0.89545 0.78811 0.12484 0.0
C1163 C 0.88642 0.7506 0.06236 0.0
C1164 C 0.87575 0.70599 0.10064 0.0
C1165 C 0.87519 0.69843 0.19599 0.0
C1166 C 0.90713 0.83687 0.09224 0.0
C1167 C 0.86437 0.66558 0.04277 0.0
H1168 H 0.88407 0.82619 0.78415 0.0
H1169 H 0.89644 0.70934 0.76544 0.0
H1170 H 0.8734 0.80797 0.03091 0.0
H1171 H 0.88747 0.85956 0.97008 0.0
H1172 H 0.86909 0.82629 0.92243 0.0
H1173 H 0.90859 0.69657 0.90571 0.0
H1174 H 0.9016 0.70169 1.01677 0.0
H1175 H 0.88949 0.65645 0.93648 0.0
H1176 H 0.8996 0.81061 0.26663 0.0
H1177 H 0.86729 0.66336 0.22234 0.0
H1178 H 0.91096 0.83605 1.02131 0.0
H1179 H 0.91726 0.85091 0.13727 0.0
H1180 H 0.90223 0.8632 0.09712 0.0
H1181 H 0.8629 0.67754 0.97367 0.0
H1182 H 0.85302 0.64936 0.07665 0.0
H1183 H 0.86809 0.63641 0.03648 0.0
C1184 C 0.63477 0.71101 0.34458 0.0
C1185 C 0.64397 0.75689 0.30774 0.0
C1186 C 0.63285 0.70335 0.4406 0.0
C1187 C 0.64155 0.74123 0.50329 0.0
C1188 C 0.65191 0.78635 0.46522 0.0
C1189 C 0.65244 0.79396 0.36988 0.0
C1190 C 0.62159 0.65395 0.47296 0.0
C1191 C 0.66299 0.82729 0.52338 0.0
C1192 C 0.63462 0.75929 0.75884 0.0
C1193 C 0.63845 0.72588 0.80386 0.0
C1194 C 0.63471 0.76257 0.66213 0.0
C1195 C 0.64 0.73452 0.60723 0.0
C1196 C 0.64421 0.70139 0.65369 0.0
C1197 C 0.64239 0.69545 0.74957 0.0
C1198 C 0.62854 0.79528 0.62053 0.0
C1199 C 0.65061 0.67131 0.60424 0.0
H1200 H 0.62895 0.68093 0.29868 0.0
H1201 H 0.6601 0.82935 0.34365 0.0
H1202 H 0.61754 0.6543 0.54352 0.0
H1203 H 0.61157 0.6386 0.42722 0.0
H1204 H 0.62698 0.62891 0.46902 0.0
H1205 H 0.67432 0.84471 0.48949 0.0
H1206 H 0.65886 0.85548 0.53012 0.0
H1207 H 0.66464 0.81551 0.59231 0.0
H1208 H 0.6306 0.78098 0.79912 0.0
H1209 H 0.6445 0.66742 0.78264 0.0
H1210 H 0.62549 0.78745 0.54747 0.0
H1211 H 0.63715 0.83348 0.6279 0.0
H1212 H 0.61819 0.7917 0.65808 0.0
H1213 H 0.64152 0.6338 0.59711 0.0
H1214 H 0.65977 0.66854 0.64494 0.0
H1215 H 0.65529 0.68594 0.53604 0.0
C1216 C 0.39494 0.73479 0.77137 0.0
C1217 C 0.3897 0.76491 0.81649 0.0
C1218 C 0.39483 0.73131 0.67466 0.0
C1219 C 0.38822 0.75569 0.62023 0.0
C1220 C 0.38241 0.7848 0.66641 0.0
C1221 C 0.38435 0.79187 0.76208 0.0
C1222 C 0.40208 0.70179 0.63222 0.0
C1223 C 0.37316 0.80589 0.61643 0.0
C1224 C 0.39344 0.77961 0.3587 0.0
C1225 C 0.38405 0.734 0.32135 0.0
C1226 C 0.39558 0.78663 0.45478 0.0
C1227 C 0.38667 0.74885 0.51672 0.0
C1228 C 0.37621 0.704 0.47875 0.0
C1229 C 0.37555 0.69674 0.38325 0.0
C1230 C 0.40805 0.83365 0.48922 0.0
C1231 C 0.36548 0.6629 0.53791 0.0
H1232 H 0.39997 0.71585 0.81156 0.0
H1233 H 0.38118 0.81769 0.79496 0.0
H1234 H 0.39398 0.66287 0.63624 0.0
H1235 H 0.40534 0.7115 0.55987 0.0
H1236 H 0.41246 0.70665 0.67093 0.0
H1237 H 0.37064 0.83106 0.65996 0.0
H1238 H 0.37889 0.82525 0.5536 0.0
H1239 H 0.36218 0.77584 0.59478 0.0
H1240 H 0.39933 0.80972 0.31308 0.0
H1241 H 0.36785 0.66147 0.35678 0.0
H1242 H 0.41735 0.82643 0.51843 0.0
H1243 H 0.40405 0.84952 0.54485 0.0
H1244 H 0.41286 0.86098 0.43405 0.0
H1245 H 0.37069 0.63805 0.55249 0.0
H1246 H 0.35453 0.64152 0.50192 0.0
H1247 H 0.3629 0.67568 0.60358 0.0
C1248 C 0.6468 0.27378 0.29815 0.0
C1249 C 0.63761 0.22785 0.26145 0.0
C1250 C 0.64906 0.28114 0.39411 0.0
C1251 C 0.64048 0.24318 0.45658 0.0
C1252 C 0.63027 0.19784 0.41924 0.0
C1253 C 0.62949 0.19041 0.32385 0.0
C1254 C 0.6613 0.32884 0.4278 0.0
C1255 C 0.61983 0.15645 0.47895 0.0
C1256 C 0.64859 0.22955 0.71166 0.0
C1257 C 0.64309 0.25914 0.7563 0.0
C1258 C 0.64873 0.22645 0.61493 0.0
C1259 C 0.64203 0.25036 0.55996 0.0
C1260 C 0.63602 0.27906 0.6056 0.0
C1261 C 0.63787 0.28626 0.70123 0.0
C1262 C 0.65634 0.1978 0.57315 0.0
C1263 C 0.62655 0.29924 0.5552 0.0
H1264 H 0.65231 0.30396 0.25216 0.0
H1265 H 0.62193 0.15488 0.29778 0.0
H1266 H 0.65734 0.34386 0.48498 0.0
H1267 H 0.67096 0.32287 0.4548 0.0
H1268 H 0.66558 0.35639 0.37268 0.0
H1269 H 0.60892 0.13414 0.44329 0.0
H1270 H 0.62537 0.13254 0.49379 0.0
H1271 H 0.61712 0.16903 0.54447 0.0
H1272 H 0.65361 0.21077 0.75228 0.0
H1273 H 0.63459 0.31194 0.73361 0.0
H1274 H 0.65941 0.20696 0.50041 0.0
H1275 H 0.64858 0.15863 0.5788 0.0
H1276 H 0.66689 0.2042 0.61146 0.0
H1277 H 0.6235 0.32313 0.59908 0.0
H1278 H 0.61585 0.26863 0.53149 0.0
H1279 H 0.63237 0.31972 0.49354 0.0
C1280 C 0.38174 0.2154 0.30601 0.0
C1281 C 0.39051 0.26187 0.27037 0.0
C1282 C 0.37967 0.20705 0.40183 0.0
C1283 C 0.38773 0.24519 0.46553 0.0
C1284 C 0.39766 0.29115 0.42859 0.0
C1285 C 0.39836 0.29911 0.33339 0.0
C1286 C 0.36911 0.1566 0.43289 0.0
C1287 C 0.40819 0.33263 0.48781 0.0
C1288 C 0.38031 0.2628 0.72035 0.0
C1289 C 0.38476 0.23103 0.76633 0.0
C1290 C 0.38019 0.26508 0.62354 0.0
C1291 C 0.38598 0.23809 0.56937 0.0
C1292 C 0.39064 0.20625 0.61676 0.0
C1293 C 0.38887 0.20075 0.7127 0.0
C1294 C 0.37328 0.29561 0.58106 0.0
C1295 C 0.39762 0.17741 0.56864 0.0
H1296 H 0.37653 0.1853 0.25933 0.0
H1297 H 0.40574 0.33498 0.30789 0.0
H1298 H 0.37535 0.13397 0.43173 0.0
H1299 H 0.36443 0.15592 0.50215 0.0
H1300 H 0.35952 0.13908 0.3847 0.0
H1301 H 0.41955 0.35174 0.4547 0.0
H1302 H 0.40348 0.35939 0.4947 0.0
H1303 H 0.40996 0.32103 0.55664 0.0
H1304 H 0.376 0.28391 0.76003 0.0
H1305 H 0.39128 0.17348 0.7464 0.0
H1306 H 0.37043 0.28741 0.50788 0.0
H1307 H 0.38132 0.33442 0.58874 0.0
H1308 H 0.36267 0.28999 0.61791 0.0
H1309 H 0.38892 0.13928 0.56261 0.0
H1310 H 0.407 0.17635 0.60993 0.0
H1311 H 0.40218 0.1919 0.50017 0.0
C1312 C 0.04452 0.24244 0.48865 0.0
C1313 C 0.04328 0.20421 0.54566 0.0
C1314 C 0.03334 0.25989 0.48962 0.0
C1315 C 0.02057 0.23861 0.54882 0.0
C1316 C 0.01952 0.20104 0.60838 0.0
C1317 C 0.03088 0.1846 0.60647 0.0
C1318 C 0.03501 0.30043 0.4258 0.0
C1319 C 1.0062 0.17744 0.673 0.0
C1320 C 0.99802 0.30966 0.60663 0.0
C1321 C 0.98557 0.28988 0.54623 0.0
C1322 C 1.00941 0.2933 0.60829 0.0
C1323 C 1.00833 0.25565 0.5489 0.0
C1324 C 0.99552 0.23423 0.49007 0.0
C1325 C 0.98432 0.2516 0.48935 0.0
C1326 C 0.02277 0.31705 0.6725 0.0
C1327 C 0.99382 0.19361 0.42642 0.0
H1328 H 0.05394 0.25761 0.44094 0.0
H1329 H 0.02994 0.15568 0.6521 0.0
H1330 H 0.02529 0.2876 0.3773 0.0
H1331 H 0.0347 0.33085 0.46499 0.0
H1332 H 0.04582 0.31423 0.3862 0.0
H1333 H 1.00716 0.1491 0.71583 0.0
H1334 H 1.0054 0.20504 0.71853 0.0
H1335 H 0.99539 0.16068 0.63373 0.0
H1336 H 0.99899 0.33864 0.65212 0.0
H1337 H 0.97485 0.2363 0.44195 0.0
H1338 H 0.03355 0.33375 0.6329 0.0
H1339 H 0.02361 0.28955 0.71815 0.0
H1340 H 0.02184 0.34547 0.7152 0.0
H1341 H 1.00351 0.20639 0.37773 0.0
H1342 H 0.98299 0.17976 0.38703 0.0
H1343 H 0.99414 0.16324 0.46572 0.0
C1344 C 0.9973 0.81147 0.465 0.0
C1345 C 0.98454 0.78917 0.52249 0.0
C1346 C 1.00861 0.79493 0.45989 0.0
C1347 C 1.00713 0.75455 0.51263 0.0
C1348 C 0.99401 0.73066 0.56821 0.0
C1349 C 0.9829 0.74828 0.57261 0.0
C1350 C 0.02234 0.82138 0.3994 0.0
C1351 C 0.99189 0.68711 0.62467 0.0
C1352 C 0.02996 0.68631 0.44249 0.0
C1353 C 0.04199 0.70298 0.50604 0.0
C1354 C 0.01861 0.70277 0.44382 0.0
C1355 C 0.01932 0.73741 0.50951 0.0
C1356 C 0.0317 0.75574 0.57185 0.0
C1357 C 0.04286 0.73827 0.56951 0.0
C1358 C 1.00567 0.68235 0.37586 0.0
C1359 C 0.033 0.79314 0.64227 0.0
H1360 H 0.99856 0.84254 0.42462 0.0
H1361 H 0.97319 0.73102 0.61776 0.0
H1362 H 0.03289 0.83608 0.44127 0.0
H1363 H 0.0234 0.79601 0.34931 0.0
H1364 H 0.02168 0.85173 0.36164 0.0
H1365 H 0.98082 0.67152 0.66171 0.0
H1366 H 0.99245 0.6587 0.58034 0.0
H1367 H 1.00127 0.69743 0.67522 0.0
H1368 H 0.02931 0.65975 0.39196 0.0
H1369 H 0.052 0.75111 0.61939 0.0
H1370 H 1.00518 0.71199 0.33499 0.0
H1371 H 0.99463 0.66403 0.41248 0.0
H1372 H 1.00685 0.65595 0.32858 0.0
H1373 H 0.03297 0.82536 0.60837 0.0
H1374 H 0.04355 0.80489 0.68393 0.0
H1375 H 0.02298 0.77818 0.68852 0.0
C1376 C 0.53027 0.68362 0.95616 0.0
C1377 C 0.54291 0.70357 1.01494 0.0
C1378 C 0.51894 0.70014 0.95608 0.0
C1379 C 0.52011 0.73735 1.01694 0.0
C1380 C 0.53302 0.75838 0.07527 0.0
C1381 C 0.54432 0.74145 0.07313 0.0
C1382 C 0.50559 0.67731 0.89148 0.0
C1383 C 0.53469 0.79799 0.14141 0.0
C1384 C 0.49788 0.80999 0.96524 0.0
C1385 C 0.48515 0.78838 1.02293 0.0
C1386 C 0.50921 0.79348 0.96203 0.0
C1387 C 0.50792 0.75454 1.01856 0.0
C1388 C 0.49492 0.73185 0.07566 0.0
C1389 C 0.48363 0.74884 0.07671 0.0
C1390 C 0.52267 0.81815 0.89882 0.0
C1391 C 0.49313 0.69036 0.13722 0.0
H1392 H 0.52919 0.65455 0.91053 0.0
H1393 H 0.55398 0.75664 0.11924 0.0
H1394 H 0.4948 0.65985 0.93077 0.0
H1395 H 0.50473 0.70552 0.8479 0.0
H1396 H 0.50657 0.64968 0.84669 0.0
H1397 H 0.54539 0.81072 0.18184 0.0
H1398 H 0.53462 0.82925 0.10401 0.0
H1399 H 0.52484 0.7847 0.18907 0.0
H1400 H 0.49905 0.84036 0.92299 0.0
H1401 H 0.4739 0.73234 0.12198 0.0
H1402 H 0.5236 0.79125 0.85196 0.0
H1403 H 0.53339 0.83447 0.93898 0.0
H1404 H 0.52176 0.84703 0.85739 0.0
H1405 H 0.49328 0.66026 0.09622 0.0
H1406 H 0.48235 0.67643 0.17712 0.0
H1407 H 0.50288 0.70224 0.1854 0.0
C1408 C 0.48414 0.25095 0.06604 0.0
C1409 C 0.48553 0.28958 1.0096 0.0
C1410 C 0.49522 0.2331 0.06503 0.0
C1411 C 0.50812 0.25461 1.00688 0.0
C1412 C 0.50941 0.29285 0.94844 0.0
C1413 C 0.49807 0.3094 0.94979 0.0
C1414 C 0.49325 0.19166 0.12725 0.0
C1415 C 0.52293 0.31692 0.88537 0.0
C1416 C 0.54389 0.2388 0.06602 0.0
C1417 C 0.54269 0.20159 1.00633 0.0
C1418 C 0.53284 0.25676 0.06634 0.0
C1419 C 0.52017 0.23683 1.00614 0.0
C1420 C 0.5191 0.20011 0.94439 0.0
C1421 C 0.5304 0.1834 0.94459 0.0
C1422 C 0.53457 0.29656 0.13218 0.0
C1423 C 0.50584 0.17778 0.87899 0.0
H1424 H 0.47462 0.23553 0.11304 0.0
H1425 H 0.49914 0.33847 0.90421 0.0
H1426 H 0.4935 0.16151 0.08684 0.0
H1427 H 0.50287 0.20355 0.17641 0.0
H1428 H 0.48237 0.1778 0.16611 0.0
H1429 H 0.52231 0.34649 0.84467 0.0
H1430 H 0.53365 0.33218 0.92562 0.0
H1431 H 0.5236 0.28989 0.83781 0.0
H1432 H 0.55323 0.25295 0.11447 0.0
H1433 H 0.52949 0.15546 0.89662 0.0
H1434 H 0.52478 0.28343 0.18018 0.0
H1435 H 0.53446 0.32771 0.09451 0.0
H1436 H 0.54531 0.30942 0.17228 0.0
H1437 H 0.49496 0.16141 0.91765 0.0
H1438 H 0.50663 0.14937 0.83553 0.0
H1439 H 0.50534 0.20606 0.83406 0.0
loop_
_geom_bond_atom_site_label_1
_geom_bond_atom_site_label_2
_geom_bond_distance
_geom_bond_site_symmetry_2
_ccdc_geom_bond_type
Tb0 N31 2.660 . S
Tb0 N38 2.600 . S
Tb0 O44 2.546 . S
Tb0 O45 2.610 . S
Tb0 O47 2.320 . S
Tb0 O48 2.552 . S
Tb0 O49 2.413 . S
Tb0 O51 2.362 . S
Tb0 O52 2.421 . S
Tb0 C64 2.833 . S
C1 C4 1.432 . S
C1 C5 1.414 . S
C1 N8 1.359 . S
C2 C4 1.417 . S
C2 C6 1.432 . S
C2 C14 1.410 . S
C3 C5 1.444 . S
C3 C6 1.317 . S
C3 H26 0.929 . S
C4 C1 1.432 . S
C4 C2 1.417 . S
C4 N12 1.360 . S
C5 C1 1.414 . S
C5 C3 1.444 . S
C5 C10 1.385 . S
C6 C2 1.432 . S
C6 C3 1.317 . S
C6 H18 0.930 . S
C7 C9 1.392 . S
C7 C10 1.370 . S
C7 H19 0.931 . S
N8 C1 1.359 . S
N8 C9 1.327 . S
N8 Tb11 2.600 . S
C9 C7 1.392 . S
C9 N8 1.327 . S
C9 H16 0.930 . S
C10 C5 1.385 . S
C10 C7 1.370 . S
C10 H29 0.930 . S
Tb11 N8 2.600 . S
Tb11 N12 2.660 . S
Tb11 O45 2.362 . S
Tb11 O46 2.421 . S
Tb11 O50 2.546 . S
Tb11 O51 2.610 . S
Tb11 O53 2.320 . S
Tb11 O54 2.552 . S
Tb11 O55 2.413 . S
Tb11 C75 2.833 . S
N12 C4 1.360 . S
N12 Tb11 2.660 . S
N12 C13 1.305 . S
C13 N12 1.305 . S
C13 C15 1.407 . S
C13 H20 0.930 . S
C14 C2 1.410 . S
C14 C15 1.345 . S
C14 H22 0.930 . S
C15 C13 1.407 . S
C15 C14 1.345 . S
C15 H17 0.930 . S
H16 C9 0.930 . S
H17 C15 0.930 . S
H18 C6 0.930 . S
H19 C7 0.931 . S
H20 C13 0.930 . S
H21 C35 0.930 . S
H22 C14 0.930 . S
H23 C41 0.930 . S
H24 C32 0.930 . S
H25 C39 0.931 . S
H26 C3 0.929 . S
H27 C33 0.930 . S
H28 C66 0.930 . S
H29 C10 0.930 . S
H30 C65 0.929 . S
N31 Tb0 2.660 . S
N31 C32 1.305 . S
N31 C36 1.360 . S
C32 H24 0.930 . S
C32 N31 1.305 . S
C32 C35 1.407 . S
C33 H27 0.930 . S
C33 C34 1.410 . S
C33 C35 1.345 . S
C34 C33 1.410 . S
C34 C36 1.417 . S
C34 C66 1.432 . S
C35 H21 0.930 . S
C35 C32 1.407 . S
C35 C33 1.345 . S
C36 N31 1.360 . S
C36 C34 1.417 . S
C36 C40 1.432 . S
H37 C42 0.930 . S
N38 Tb0 2.600 . S
N38 C40 1.359 . S
N38 C41 1.327 . S
C39 H25 0.931 . S
C39 C41 1.392 . S
C39 C42 1.370 . S
C40 C36 1.432 . S
C40 N38 1.359 . S
C40 C43 1.414 . S
C41 H23 0.930 . S
C41 N38 1.327 . S
C41 C39 1.392 . S
C42 H37 0.930 . S
C42 C39 1.370 . S
C42 C43 1.385 . S
C43 C40 1.414 . S
C43 C42 1.385 . S
C43 C65 1.444 . S
O44 Tb0 2.546 . S
O44 C64 1.251 . S
O45 Tb0 2.610 . S
O45 Tb11 2.362 . S
O45 C56 1.283 . S
O46 Tb11 2.421 . S
O46 C63 1.262 . S
O47 Tb0 2.320 . S
O47 C63 1.260 . S
O48 Tb0 2.552 . S
O48 C56 1.243 . S
O49 Tb0 2.413 . S
O49 C64 1.256 . S
O50 Tb11 2.546 . S
O50 C75 1.251 . S
O51 Tb0 2.362 . S
O51 Tb11 2.610 . S
O51 C67 1.283 . S
O52 Tb0 2.421 . S
O52 C74 1.262 . S
O53 Tb11 2.320 . S
O53 C74 1.260 . S
O54 Tb11 2.552 . S
O54 C67 1.243 . S
O55 Tb11 2.413 . S
O55 C75 1.256 . S
C56 O45 1.283 . S
C56 O48 1.243 . S
C57 C59 1.382 . S
C57 C61 1.393 . S
C57 C64 1.500 . S
C58 C59 1.400 . S
C58 C60 1.384 . S
C59 C57 1.382 . S
C59 C58 1.400 . S
C59 H76 0.930 . S
C60 C58 1.384 . S
C60 C62 1.392 . S
C60 H77 0.931 . S
C61 C57 1.393 . S
C61 C62 1.401 . S
C61 H78 0.930 . S
C62 C60 1.392 . S
C62 C61 1.401 . S
C62 H79 0.930 . S
C63 O46 1.262 . S
C63 O47 1.260 . S
C64 Tb0 2.833 . S
C64 O44 1.251 . S
C64 O49 1.256 . S
C64 C57 1.500 . S
C65 H30 0.929 . S
C65 C43 1.444 . S
C65 C66 1.317 . S
C66 H28 0.930 . S
C66 C34 1.432 . S
C66 C65 1.317 . S
C67 O51 1.283 . S
C67 O54 1.243 . S
C68 C69 1.382 . S
C68 C72 1.393 . S
C68 C75 1.500 . S
C69 C68 1.382 . S
C69 C70 1.400 . S
C69 H80 0.930 . S
C70 C69 1.400 . S
C70 C71 1.384 . S
C71 C70 1.384 . S
C71 C73 1.392 . S
C71 H81 0.931 . S
C72 C68 1.393 . S
C72 C73 1.401 . S
C72 H82 0.930 . S
C73 C71 1.392 . S
C73 C72 1.401 . S
C73 H83 0.930 . S
C74 O52 1.262 . S
C74 O53 1.260 . S
C75 Tb11 2.833 . S
C75 O50 1.251 . S
C75 O55 1.256 . S
C75 C68 1.500 . S
H76 C59 0.930 . S
H77 C60 0.931 . S
H78 C61 0.930 . S
H79 C62 0.930 . S
H80 C69 0.930 . S
H81 C71 0.931 . S
H82 C72 0.930 . S
H83 C73 0.930 . S
Tb84 N115 2.660 . S
Tb84 N122 2.600 . S
Tb84 O128 2.546 . S
Tb84 O129 2.610 . S
Tb84 O131 2.320 . S
Tb84 O132 2.552 . S
Tb84 O133 2.413 . S
Tb84 O135 2.362 . S
Tb84 O136 2.421 . S
Tb84 C148 2.833 . S
C85 C88 1.432 . S
C85 C89 1.414 . S
C85 N92 1.359 . S
C86 C88 1.417 . S
C86 C90 1.432 . S
C86 C98 1.410 . S
C87 C89 1.444 . S
C87 C90 1.317 . S
C87 H110 0.929 . S
C88 C85 1.432 . S
C88 C86 1.417 . S
C88 N96 1.360 . S
C89 C85 1.414 . S
C89 C87 1.444 . S
C89 C94 1.385 . S
C90 C86 1.432 . S
C90 C87 1.317 . S
C90 H102 0.930 . S
C91 C93 1.392 . S
C91 C94 1.370 . S
C91 H103 0.931 . S
N92 C85 1.359 . S
N92 C93 1.327 . S
N92 Tb95 2.600 . S
C93 C91 1.392 . S
C93 N92 1.327 . S
C93 H100 0.930 . S
C94 C89 1.385 . S
C94 C91 1.370 . S
C94 H113 0.930 . S
Tb95 N92 2.600 . S
Tb95 N96 2.660 . S
Tb95 O129 2.362 . S
Tb95 O130 2.421 . S
Tb95 O134 2.546 . S
Tb95 O135 2.610 . S
Tb95 O137 2.320 . S
Tb95 O138 2.552 . S
Tb95 O139 2.413 . S
Tb95 C159 2.833 . S
N96 C88 1.360 . S
N96 Tb95 2.660 . S
N96 C97 1.305 . S
C97 N96 1.305 . S
C97 C99 1.407 . S
C97 H104 0.930 . S
C98 C86 1.410 . S
C98 C99 1.345 . S
C98 H106 0.930 . S
C99 C97 1.407 . S
C99 C98 1.345 . S
C99 H101 0.930 . S
H100 C93 0.930 . S
H101 C99 0.930 . S
H102 C90 0.930 . S
H103 C91 0.931 . S
H104 C97 0.930 . S
H105 C119 0.930 . S
H106 C98 0.930 . S
H107 C125 0.930 . S
H108 C116 0.930 . S
H109 C123 0.931 . S
H110 C87 0.929 . S
H111 C117 0.930 . S
H112 C150 0.930 . S
H113 C94 0.930 . S
H114 C149 0.929 . S
N115 Tb84 2.660 . S
N115 C116 1.305 . S
N115 C120 1.360 . S
C116 H108 0.930 . S
C116 N115 1.305 . S
C116 C119 1.407 . S
C117 H111 0.930 . S
C117 C118 1.410 . S
C117 C119 1.345 . S
C118 C117 1.410 . S
C118 C120 1.417 . S
C118 C150 1.432 . S
C119 H105 0.930 . S
C119 C116 1.407 . S
C119 C117 1.345 . S
C120 N115 1.360 . S
C120 C118 1.417 . S
C120 C124 1.432 . S
H121 C126 0.930 . S
N122 Tb84 2.600 . S
N122 C124 1.359 . S
N122 C125 1.327 . S
C123 H109 0.931 . S
C123 C125 1.392 . S
C123 C126 1.370 . S
C124 C120 1.432 . S
C124 N122 1.359 . S
C124 C127 1.414 . S
C125 H107 0.930 . S
C125 N122 1.327 . S
C125 C123 1.392 . S
C126 H121 0.930 . S
C126 C123 1.370 . S
C126 C127 1.385 . S
C127 C124 1.414 . S
C127 C126 1.385 . S
C127 C149 1.444 . S
O128 Tb84 2.546 . S
O128 C148 1.251 . S
O129 Tb84 2.610 . S
O129 Tb95 2.362 . S
O129 C140 1.283 . S
O130 Tb95 2.421 . S
O130 C147 1.262 . S
O131 Tb84 2.320 . S
O131 C147 1.260 . S
O132 Tb84 2.552 . S
O132 C140 1.243 . S
O133 Tb84 2.413 . S
O133 C148 1.256 . S
O134 Tb95 2.546 . S
O134 C159 1.251 . S
O135 Tb84 2.362 . S
O135 Tb95 2.610 . S
O135 C151 1.283 . S
O136 Tb84 2.421 . S
O136 C158 1.262 . S
O137 Tb95 2.320 . S
O137 C158 1.260 . S
O138 Tb95 2.552 . S
O138 C151 1.243 . S
O139 Tb95 2.413 . S
O139 C159 1.256 . S
C140 O129 1.283 . S
C140 O132 1.243 . S
C141 C143 1.382 . S
C141 C145 1.393 . S
C141 C148 1.500 . S
C142 C143 1.400 . S
C142 C144 1.384 . S
C143 C141 1.382 . S
C143 C142 1.400 . S
C143 H160 0.930 . S
C144 C142 1.384 . S
C144 C146 1.392 . S
C144 H161 0.931 . S
C145 C141 1.393 . S
C145 C146 1.401 . S
C145 H162 0.930 . S
C146 C144 1.392 . S
C146 C145 1.401 . S
C146 H163 0.930 . S
C147 O130 1.262 . S
C147 O131 1.260 . S
C148 Tb84 2.833 . S
C148 O128 1.251 . S
C148 O133 1.256 . S
C148 C141 1.500 . S
C149 H114 0.929 . S
C149 C127 1.444 . S
C149 C150 1.317 . S
C150 H112 0.930 . S
C150 C118 1.432 . S
C150 C149 1.317 . S
C151 O135 1.283 . S
C151 O138 1.243 . S
C152 C153 1.382 . S
C152 C156 1.393 . S
C152 C159 1.500 . S
C153 C152 1.382 . S
C153 C154 1.400 . S
C153 H164 0.930 . S
C154 C153 1.400 . S
C154 C155 1.384 . S
C155 C154 1.384 . S
C155 C157 1.392 . S
C155 H165 0.931 . S
C156 C152 1.393 . S
C156 C157 1.401 . S
C156 H166 0.930 . S
C157 C155 1.392 . S
C157 C156 1.401 . S
C157 H167 0.930 . S
C158 O136 1.262 . S
C158 O137 1.260 . S
C159 Tb95 2.833 . S
C159 O134 1.251 . S
C159 O139 1.256 . S
C159 C152 1.500 . S
H160 C143 0.930 . S
H161 C144 0.931 . S
H162 C145 0.930 . S
H163 C146 0.930 . S
H164 C153 0.930 . S
H165 C155 0.931 . S
H166 C156 0.930 . S
H167 C157 0.930 . S
Tb168 N199 2.660 . S
Tb168 N206 2.600 . S
Tb168 O212 2.546 . S
Tb168 O213 2.610 . S
Tb168 O215 2.320 . S
Tb168 O216 2.552 . S
Tb168 O217 2.413 . S
Tb168 O219 2.362 . S
Tb168 O220 2.421 . S
Tb168 C232 2.833 . S
C169 C172 1.432 . S
C169 C173 1.414 . S
C169 N176 1.359 . S
C170 C172 1.417 . S
C170 C174 1.432 . S
C170 C182 1.410 . S
C171 C173 1.444 . S
C171 C174 1.317 . S
C171 H194 0.929 . S
C172 C169 1.432 . S
C172 C170 1.417 . S
C172 N180 1.360 . S
C173 C169 1.414 . S
C173 C171 1.444 . S
C173 C178 1.385 . S
C174 C170 1.432 . S
C174 C171 1.317 . S
C174 H186 0.930 . S
C175 C177 1.392 . S
C175 C178 1.370 . S
C175 H187 0.931 . S
N176 C169 1.359 . S
N176 C177 1.327 . S
N176 Tb179 2.600 . S
C177 C175 1.392 . S
C177 N176 1.327 . S
C177 H184 0.930 . S
C178 C173 1.385 . S
C178 C175 1.370 . S
C178 H197 0.930 . S
Tb179 N176 2.600 . S
Tb179 N180 2.660 . S
Tb179 O213 2.362 . S
Tb179 O214 2.421 . S
Tb179 O218 2.546 . S
Tb179 O219 2.610 . S
Tb179 O221 2.320 . S
Tb179 O222 2.552 . S
Tb179 O223 2.413 . S
Tb179 C243 2.833 . S
N180 C172 1.360 . S
N180 Tb179 2.660 . S
N180 C181 1.305 . S
C181 N180 1.305 . S
C181 C183 1.407 . S
C181 H188 0.930 . S
C182 C170 1.410 . S
C182 C183 1.345 . S
C182 H190 0.930 . S
C183 C181 1.407 . S
C183 C182 1.345 . S
C183 H185 0.930 . S
H184 C177 0.930 . S
H185 C183 0.930 . S
H186 C174 0.930 . S
H187 C175 0.931 . S
H188 C181 0.930 . S
H189 C203 0.930 . S
H190 C182 0.930 . S
H191 C209 0.930 . S
H192 C200 0.930 . S
H193 C207 0.931 . S
H194 C171 0.929 . S
H195 C201 0.930 . S
H196 C234 0.930 . S
H197 C178 0.930 . S
H198 C233 0.929 . S
N199 Tb168 2.660 . S
N199 C200 1.305 . S
N199 C204 1.360 . S
C200 H192 0.930 . S
C200 N199 1.305 . S
C200 C203 1.407 . S
C201 H195 0.930 . S
C201 C202 1.410 . S
C201 C203 1.345 . S
C202 C201 1.410 . S
C202 C204 1.417 . S
C202 C234 1.432 . S
C203 H189 0.930 . S
C203 C200 1.407 . S
C203 C201 1.345 . S
C204 N199 1.360 . S
C204 C202 1.417 . S
C204 C208 1.432 . S
H205 C210 0.930 . S
N206 Tb168 2.600 . S
N206 C208 1.359 . S
N206 C209 1.327 . S
C207 H193 0.931 . S
C207 C209 1.392 . S
C207 C210 1.370 . S
C208 C204 1.432 . S
C208 N206 1.359 . S
C208 C211 1.414 . S
C209 H191 0.930 . S
C209 N206 1.327 . S
C209 C207 1.392 . S
C210 H205 0.930 . S
C210 C207 1.370 . S
C210 C211 1.385 . S
C211 C208 1.414 . S
C211 C210 1.385 . S
C211 C233 1.444 . S
O212 Tb168 2.546 . S
O212 C232 1.251 . S
O213 Tb168 2.610 . S
O213 Tb179 2.362 . S
O213 C224 1.283 . S
O214 Tb179 2.421 . S
O214 C231 1.262 . S
O215 Tb168 2.320 . S
O215 C231 1.260 . S
O216 Tb168 2.552 . S
O216 C224 1.243 . S
O217 Tb168 2.413 . S
O217 C232 1.256 . S
O218 Tb179 2.546 . S
O218 C243 1.251 . S
O219 Tb168 2.362 . S
O219 Tb179 2.610 . S
O219 C235 1.283 . S
O220 Tb168 2.421 . S
O220 C242 1.262 . S
O221 Tb179 2.320 . S
O221 C242 1.260 . S
O222 Tb179 2.552 . S
O222 C235 1.243 . S
O223 Tb179 2.413 . S
O223 C243 1.256 . S
C224 O213 1.283 . S
C224 O216 1.243 . S
C225 C227 1.382 . S
C225 C229 1.393 . S
C225 C232 1.500 . S
C226 C227 1.400 . S
C226 C228 1.384 . S
C227 C225 1.382 . S
C227 C226 1.400 . S
C227 H244 0.930 . S
C228 C226 1.384 . S
C228 C230 1.392 . S
C228 H245 0.931 . S
C229 C225 1.393 . S
C229 C230 1.401 . S
C229 H246 0.930 . S
C230 C228 1.392 . S
C230 C229 1.401 . S
C230 H247 0.930 . S
C231 O214 1.262 . S
C231 O215 1.260 . S
C232 Tb168 2.833 . S
C232 O212 1.251 . S
C232 O217 1.256 . S
C232 C225 1.500 . S
C233 H198 0.929 . S
C233 C211 1.444 . S
C233 C234 1.317 . S
C234 H196 0.930 . S
C234 C202 1.432 . S
C234 C233 1.317 . S
C235 O219 1.283 . S
C235 O222 1.243 . S
C236 C237 1.382 . S
C236 C240 1.393 . S
C236 C243 1.500 . S
C237 C236 1.382 . S
C237 C238 1.400 . S
C237 H248 0.930 . S
C238 C237 1.400 . S
C238 C239 1.384 . S
C239 C238 1.384 . S
C239 C241 1.392 . S
C239 H249 0.931 . S
C240 C236 1.393 . S
C240 C241 1.401 . S
C240 H250 0.930 . S
C241 C239 1.392 . S
C241 C240 1.401 . S
C241 H251 0.930 . S
C242 O220 1.262 . S
C242 O221 1.260 . S
C243 Tb179 2.833 . S
C243 O218 1.251 . S
C243 O223 1.256 . S
C243 C236 1.500 . S
H244 C227 0.930 . S
H245 C228 0.931 . S
H246 C229 0.930 . S
H247 C230 0.930 . S
H248 C237 0.930 . S
H249 C239 0.931 . S
H250 C240 0.930 . S
H251 C241 0.930 . S
Tb252 N283 2.660 . S
Tb252 N290 2.600 . S
Tb252 O296 2.546 . S
Tb252 O297 2.610 . S
Tb252 O299 2.320 . S
Tb252 O300 2.552 . S
Tb252 O301 2.413 . S
Tb252 O303 2.362 . S
Tb252 O304 2.421 . S
Tb252 C316 2.833 . S
C253 C256 1.432 . S
C253 C257 1.414 . S
C253 N260 1.359 . S
C254 C256 1.417 . S
C254 C258 1.432 . S
C254 C266 1.410 . S
C255 C257 1.444 . S
C255 C258 1.317 . S
C255 H278 0.929 . S
C256 C253 1.432 . S
C256 C254 1.417 . S
C256 N264 1.360 . S
C257 C253 1.414 . S
C257 C255 1.444 . S
C257 C262 1.385 . S
C258 C254 1.432 . S
C258 C255 1.317 . S
C258 H270 0.930 . S
C259 C261 1.392 . S
C259 C262 1.370 . S
C259 H271 0.931 . S
N260 C253 1.359 . S
N260 C261 1.327 . S
N260 Tb263 2.600 . S
C261 C259 1.392 . S
C261 N260 1.327 . S
C261 H268 0.930 . S
C262 C257 1.385 . S
C262 C259 1.370 . S
C262 H281 0.930 . S
Tb263 N260 2.600 . S
Tb263 N264 2.660 . S
Tb263 O297 2.362 . S
Tb263 O298 2.421 . S
Tb263 O302 2.546 . S
Tb263 O303 2.610 . S
Tb263 O305 2.320 . S
Tb263 O306 2.552 . S
Tb263 O307 2.413 . S
Tb263 C327 2.833 . S
N264 C256 1.360 . S
N264 Tb263 2.660 . S
N264 C265 1.305 . S
C265 N264 1.305 . S
C265 C267 1.407 . S
C265 H272 0.930 . S
C266 C254 1.410 . S
C266 C267 1.345 . S
C266 H274 0.930 . S
C267 C265 1.407 . S
C267 C266 1.345 . S
C267 H269 0.930 . S
H268 C261 0.930 . S
H269 C267 0.930 . S
H270 C258 0.930 . S
H271 C259 0.931 . S
H272 C265 0.930 . S
H273 C287 0.930 . S
H274 C266 0.930 . S
H275 C293 0.930 . S
H276 C284 0.930 . S
H277 C291 0.931 . S
H278 C255 0.929 . S
H279 C285 0.930 . S
H280 C318 0.930 . S
H281 C262 0.930 . S
H282 C317 0.929 . S
N283 Tb252 2.660 . S
N283 C284 1.305 . S
N283 C288 1.360 . S
C284 H276 0.930 . S
C284 N283 1.305 . S
C284 C287 1.407 . S
C285 H279 0.930 . S
C285 C286 1.410 . S
C285 C287 1.345 . S
C286 C285 1.410 . S
C286 C288 1.417 . S
C286 C318 1.432 . S
C287 H273 0.930 . S
C287 C284 1.407 . S
C287 C285 1.345 . S
C288 N283 1.360 . S
C288 C286 1.417 . S
C288 C292 1.432 . S
H289 C294 0.930 . S
N290 Tb252 2.600 . S
N290 C292 1.359 . S
N290 C293 1.327 . S
C291 H277 0.931 . S
C291 C293 1.392 . S
C291 C294 1.370 . S
C292 C288 1.432 . S
C292 N290 1.359 . S
C292 C295 1.414 . S
C293 H275 0.930 . S
C293 N290 1.327 . S
C293 C291 1.392 . S
C294 H289 0.930 . S
C294 C291 1.370 . S
C294 C295 1.385 . S
C295 C292 1.414 . S
C295 C294 1.385 . S
C295 C317 1.444 . S
O296 Tb252 2.546 . S
O296 C316 1.251 . S
O297 Tb252 2.610 . S
O297 Tb263 2.362 . S
O297 C308 1.283 . S
O298 Tb263 2.421 . S
O298 C315 1.262 . S
O299 Tb252 2.320 . S
O299 C315 1.260 . S
O300 Tb252 2.552 . S
O300 C308 1.243 . S
O301 Tb252 2.413 . S
O301 C316 1.256 . S
O302 Tb263 2.546 . S
O302 C327 1.251 . S
O303 Tb252 2.362 . S
O303 Tb263 2.610 . S
O303 C319 1.283 . S
O304 Tb252 2.421 . S
O304 C326 1.262 . S
O305 Tb263 2.320 . S
O305 C326 1.260 . S
O306 Tb263 2.552 . S
O306 C319 1.243 . S
O307 Tb263 2.413 . S
O307 C327 1.256 . S
C308 O297 1.283 . S
C308 O300 1.243 . S
C309 C311 1.382 . S
C309 C313 1.393 . S
C309 C316 1.500 . S
C310 C311 1.400 . S
C310 C312 1.384 . S
C311 C309 1.382 . S
C311 C310 1.400 . S
C311 H328 0.930 . S
C312 C310 1.384 . S
C312 C314 1.392 . S
C312 H329 0.931 . S
C313 C309 1.393 . S
C313 C314 1.401 . S
C313 H330 0.930 . S
C314 C312 1.392 . S
C314 C313 1.401 . S
C314 H331 0.930 . S
C315 O298 1.262 . S
C315 O299 1.260 . S
C316 Tb252 2.833 . S
C316 O296 1.251 . S
C316 O301 1.256 . S
C316 C309 1.500 . S
C317 H282 0.929 . S
C317 C295 1.444 . S
C317 C318 1.317 . S
C318 H280 0.930 . S
C318 C286 1.432 . S
C318 C317 1.317 . S
C319 O303 1.283 . S
C319 O306 1.243 . S
C320 C321 1.382 . S
C320 C324 1.393 . S
C320 C327 1.500 . S
C321 C320 1.382 . S
C321 C322 1.400 . S
C321 H332 0.930 . S
C322 C321 1.400 . S
C322 C323 1.384 . S
C323 C322 1.384 . S
C323 C325 1.392 . S
C323 H333 0.931 . S
C324 C320 1.393 . S
C324 C325 1.401 . S
C324 H334 0.930 . S
C325 C323 1.392 . S
C325 C324 1.401 . S
C325 H335 0.930 . S
C326 O304 1.262 . S
C326 O305 1.260 . S
C327 Tb263 2.833 . S
C327 O302 1.251 . S
C327 O307 1.256 . S
C327 C320 1.500 . S
H328 C311 0.930 . S
H329 C312 0.931 . S
H330 C313 0.930 . S
H331 C314 0.930 . S
H332 C321 0.930 . S
H333 C323 0.931 . S
H334 C324 0.930 . S
H335 C325 0.930 . S
Tb336 N367 2.660 . S
Tb336 N374 2.600 . S
Tb336 O380 2.546 1_554 S
Tb336 O381 2.610 1_554 S
Tb336 O383 2.320 . S
Tb336 O384 2.552 1_554 S
Tb336 O385 2.413 1_554 S
Tb336 O387 2.362 . S
Tb336 O388 2.421 1_554 S
Tb336 C400 2.833 1_554 S
C337 C340 1.432 . S
C337 C341 1.414 . S
C337 N344 1.359 . S
C338 C340 1.417 . S
C338 C342 1.432 . S
C338 C350 1.410 . S
C339 C341 1.444 . S
C339 C342 1.317 . S
C339 H362 0.929 . S
C340 C337 1.432 . S
C340 C338 1.417 . S
C340 N348 1.360 . S
C341 C337 1.414 . S
C341 C339 1.444 . S
C341 C346 1.385 . S
C342 C338 1.432 . S
C342 C339 1.317 . S
C342 H354 0.930 . S
C343 C345 1.392 . S
C343 C346 1.370 . S
C343 H355 0.931 . S
N344 C337 1.359 . S
N344 C345 1.327 . S
N344 Tb347 2.600 . S
C345 C343 1.392 . S
C345 N344 1.327 . S
C345 H352 0.930 . S
C346 C341 1.385 . S
C346 C343 1.370 . S
C346 H365 0.930 . S
Tb347 N344 2.600 . S
Tb347 N348 2.660 . S
Tb347 O381 2.362 . S
Tb347 O382 2.421 1_556 S
Tb347 O386 2.546 1_556 S
Tb347 O387 2.610 1_556 S
Tb347 O389 2.320 . S
Tb347 O390 2.552 1_556 S
Tb347 O391 2.413 1_556 S
Tb347 C411 2.833 1_556 S
N348 C340 1.360 . S
N348 Tb347 2.660 . S
N348 C349 1.305 . S
C349 N348 1.305 . S
C349 C351 1.407 . S
C349 H356 0.930 . S
C350 C338 1.410 . S
C350 C351 1.345 . S
C350 H358 0.930 . S
C351 C349 1.407 . S
C351 C350 1.345 . S
C351 H353 0.930 . S
H352 C345 0.930 . S
H353 C351 0.930 . S
H354 C342 0.930 . S
H355 C343 0.931 . S
H356 C349 0.930 . S
H357 C371 0.930 . S
H358 C350 0.930 . S
H359 C377 0.930 . S
H360 C368 0.930 . S
H361 C375 0.931 . S
H362 C339 0.929 . S
H363 C369 0.930 . S
H364 C402 0.930 . S
H365 C346 0.930 . S
H366 C401 0.929 . S
N367 Tb336 2.660 . S
N367 C368 1.305 . S
N367 C372 1.360 . S
C368 H360 0.930 . S
C368 N367 1.305 . S
C368 C371 1.407 . S
C369 H363 0.930 . S
C369 C370 1.410 . S
C369 C371 1.345 . S
C370 C369 1.410 . S
C370 C372 1.417 . S
C370 C402 1.432 . S
C371 H357 0.930 . S
C371 C368 1.407 . S
C371 C369 1.345 . S
C372 N367 1.360 . S
C372 C370 1.417 . S
C372 C376 1.432 . S
H373 C378 0.930 . S
N374 Tb336 2.600 . S
N374 C376 1.359 . S
N374 C377 1.327 . S
C375 H361 0.931 . S
C375 C377 1.392 . S
C375 C378 1.370 . S
C376 C372 1.432 . S
C376 N374 1.359 . S
C376 C379 1.414 . S
C377 H359 0.930 . S
C377 N374 1.327 . S
C377 C375 1.392 . S
C378 H373 0.930 . S
C378 C375 1.370 . S
C378 C379 1.385 . S
C379 C376 1.414 . S
C379 C378 1.385 . S
C379 C401 1.444 . S
O380 Tb336 2.546 1_556 S
O380 C400 1.251 . S
O381 Tb336 2.610 1_556 S
O381 Tb347 2.362 . S
O381 C392 1.283 . S
O382 Tb347 2.421 1_554 S
O382 C399 1.262 1_554 S
O383 Tb336 2.320 . S
O383 C399 1.260 1_554 S
O384 Tb336 2.552 1_556 S
O384 C392 1.243 . S
O385 Tb336 2.413 1_556 S
O385 C400 1.256 . S
O386 Tb347 2.546 1_554 S
O386 C411 1.251 . S
O387 Tb336 2.362 . S
O387 Tb347 2.610 1_554 S
O387 C403 1.283 . S
O388 Tb336 2.421 1_556 S
O388 C410 1.262 1_556 S
O389 Tb347 2.320 . S
O389 C410 1.260 1_556 S
O390 Tb347 2.552 1_554 S
O390 C403 1.243 . S
O391 Tb347 2.413 1_554 S
O391 C411 1.256 . S
C392 O381 1.283 . S
C392 O384 1.243 . S
C393 C395 1.382 . S
C393 C397 1.393 . S
C393 C400 1.500 . S
C394 C395 1.400 . S
C394 C396 1.384 . S
C395 C393 1.382 . S
C395 C394 1.400 . S
C395 H412 0.930 . S
C396 C394 1.384 . S
C396 C398 1.392 . S
C396 H413 0.931 . S
C397 C393 1.393 . S
C397 C398 1.401 . S
C397 H414 0.930 . S
C398 C396 1.392 . S
C398 C397 1.401 . S
C398 H415 0.930 . S
C399 O382 1.262 1_556 S
C399 O383 1.260 1_556 S
C400 Tb336 2.833 1_556 S
C400 O380 1.251 . S
C400 O385 1.256 . S
C400 C393 1.500 . S
C401 H366 0.929 . S
C401 C379 1.444 . S
C401 C402 1.317 . S
C402 H364 0.930 . S
C402 C370 1.432 . S
C402 C401 1.317 . S
C403 O387 1.283 . S
C403 O390 1.243 . S
C404 C405 1.382 . S
C404 C408 1.393 . S
C404 C411 1.500 . S
C405 C404 1.382 . S
C405 C406 1.400 . S
C405 H416 0.930 . S
C406 C405 1.400 . S
C406 C407 1.384 . S
C407 C406 1.384 . S
C407 C409 1.392 . S
C407 H417 0.931 . S
C408 C404 1.393 . S
C408 C409 1.401 . S
C408 H418 0.930 . S
C409 C407 1.392 . S
C409 C408 1.401 . S
C409 H419 0.930 . S
C410 O388 1.262 1_554 S
C410 O389 1.260 1_554 S
C411 Tb347 2.833 1_554 S
C411 O386 1.251 . S
C411 O391 1.256 . S
C411 C404 1.500 . S
H412 C395 0.930 . S
H413 C396 0.931 . S
H414 C397 0.930 . S
H415 C398 0.930 . S
H416 C405 0.930 . S
H417 C407 0.931 . S
H418 C408 0.930 . S
H419 C409 0.930 . S
Tb420 N451 2.660 . S
Tb420 N458 2.600 . S
Tb420 O464 2.546 1_554 S
Tb420 O465 2.610 1_554 S
Tb420 O467 2.320 . S
Tb420 O468 2.552 1_554 S
Tb420 O469 2.413 1_554 S
Tb420 O471 2.362 . S
Tb420 O472 2.421 1_554 S
Tb420 C484 2.833 1_554 S
C421 C424 1.432 . S
C421 C425 1.414 . S
C421 N428 1.359 . S
C422 C424 1.417 . S
C422 C426 1.432 . S
C422 C434 1.410 . S
C423 C425 1.444 . S
C423 C426 1.317 . S
C423 H446 0.929 . S
C424 C421 1.432 . S
C424 C422 1.417 . S
C424 N432 1.360 . S
C425 C421 1.414 . S
C425 C423 1.444 . S
C425 C430 1.385 . S
C426 C422 1.432 . S
C426 C423 1.317 . S
C426 H438 0.930 . S
C427 C429 1.392 . S
C427 C430 1.370 . S
C427 H439 0.931 . S
N428 C421 1.359 . S
N428 C429 1.327 . S
N428 Tb431 2.600 . S
C429 C427 1.392 . S
C429 N428 1.327 . S
C429 H436 0.930 . S
C430 C425 1.385 . S
C430 C427 1.370 . S
C430 H449 0.930 . S
Tb431 N428 2.600 . S
Tb431 N432 2.660 . S
Tb431 O465 2.362 . S
Tb431 O466 2.421 1_556 S
Tb431 O470 2.546 1_556 S
Tb431 O471 2.610 1_556 S
Tb431 O473 2.320 . S
Tb431 O474 2.552 1_556 S
Tb431 O475 2.413 1_556 S
Tb431 C495 2.833 1_556 S
N432 C424 1.360 . S
N432 Tb431 2.660 . S
N432 C433 1.305 . S
C433 N432 1.305 . S
C433 C435 1.407 . S
C433 H440 0.930 . S
C434 C422 1.410 . S
C434 C435 1.345 . S
C434 H442 0.930 . S
C435 C433 1.407 . S
C435 C434 1.345 . S
C435 H437 0.930 . S
H436 C429 0.930 . S
H437 C435 0.930 . S
H438 C426 0.930 . S
H439 C427 0.931 . S
H440 C433 0.930 . S
H441 C455 0.930 . S
H442 C434 0.930 . S
H443 C461 0.930 . S
H444 C452 0.930 . S
H445 C459 0.931 . S
H446 C423 0.929 . S
H447 C453 0.930 . S
H448 C486 0.930 . S
H449 C430 0.930 . S
H450 C485 0.929 . S
N451 Tb420 2.660 . S
N451 C452 1.305 . S
N451 C456 1.360 . S
C452 H444 0.930 . S
C452 N451 1.305 . S
C452 C455 1.407 . S
C453 H447 0.930 . S
C453 C454 1.410 . S
C453 C455 1.345 . S
C454 C453 1.410 . S
C454 C456 1.417 . S
C454 C486 1.432 . S
C455 H441 0.930 . S
C455 C452 1.407 . S
C455 C453 1.345 . S
C456 N451 1.360 . S
C456 C454 1.417 . S
C456 C460 1.432 . S
H457 C462 0.930 . S
N458 Tb420 2.600 . S
N458 C460 1.359 . S
N458 C461 1.327 . S
C459 H445 0.931 . S
C459 C461 1.392 . S
C459 C462 1.370 . S
C460 C456 1.432 . S
C460 N458 1.359 . S
C460 C463 1.414 . S
C461 H443 0.930 . S
C461 N458 1.327 . S
C461 C459 1.392 . S
C462 H457 0.930 . S
C462 C459 1.370 . S
C462 C463 1.385 . S
C463 C460 1.414 . S
C463 C462 1.385 . S
C463 C485 1.444 . S
O464 Tb420 2.546 1_556 S
O464 C484 1.251 . S
O465 Tb420 2.610 1_556 S
O465 Tb431 2.362 . S
O465 C476 1.283 . S
O466 Tb431 2.421 1_554 S
O466 C483 1.262 1_554 S
O467 Tb420 2.320 . S
O467 C483 1.260 1_554 S
O468 Tb420 2.552 1_556 S
O468 C476 1.243 . S
O469 Tb420 2.413 1_556 S
O469 C484 1.256 . S
O470 Tb431 2.546 1_554 S
O470 C495 1.251 . S
O471 Tb420 2.362 . S
O471 Tb431 2.610 1_554 S
O471 C487 1.283 . S
O472 Tb420 2.421 1_556 S
O472 C494 1.262 1_556 S
O473 Tb431 2.320 . S
O473 C494 1.260 1_556 S
O474 Tb431 2.552 1_554 S
O474 C487 1.243 . S
O475 Tb431 2.413 1_554 S
O475 C495 1.256 . S
C476 O465 1.283 . S
C476 O468 1.243 . S
C477 C479 1.382 . S
C477 C481 1.393 . S
C477 C484 1.500 . S
C478 C479 1.400 . S
C478 C480 1.384 . S
C479 C477 1.382 . S
C479 C478 1.400 . S
C479 H496 0.930 . S
C480 C478 1.384 . S
C480 C482 1.392 . S
C480 H497 0.931 . S
C481 C477 1.393 . S
C481 C482 1.401 . S
C481 H498 0.930 . S
C482 C480 1.392 . S
C482 C481 1.401 . S
C482 H499 0.930 . S
C483 O466 1.262 1_556 S
C483 O467 1.260 1_556 S
C484 Tb420 2.833 1_556 S
C484 O464 1.251 . S
C484 O469 1.256 . S
C484 C477 1.500 . S
C485 H450 0.929 . S
C485 C463 1.444 . S
C485 C486 1.317 . S
C486 H448 0.930 . S
C486 C454 1.432 . S
C486 C485 1.317 . S
C487 O471 1.283 . S
C487 O474 1.243 . S
C488 C489 1.382 . S
C488 C492 1.393 . S
C488 C495 1.500 . S
C489 C488 1.382 . S
C489 C490 1.400 . S
C489 H500 0.930 . S
C490 C489 1.400 . S
C490 C491 1.384 . S
C491 C490 1.384 . S
C491 C493 1.392 . S
C491 H501 0.931 . S
C492 C488 1.393 . S
C492 C493 1.401 . S
C492 H502 0.930 . S
C493 C491 1.392 . S
C493 C492 1.401 . S
C493 H503 0.930 . S
C494 O472 1.262 1_554 S
C494 O473 1.260 1_554 S
C495 Tb431 2.833 1_554 S
C495 O470 1.251 . S
C495 O475 1.256 . S
C495 C488 1.500 . S
H496 C479 0.930 . S
H497 C480 0.931 . S
H498 C481 0.930 . S
H499 C482 0.930 . S
H500 C489 0.930 . S
H501 C491 0.931 . S
H502 C492 0.930 . S
H503 C493 0.930 . S
Tb504 N535 2.660 . S
Tb504 N542 2.600 . S
Tb504 O548 2.546 1_554 S
Tb504 O549 2.610 1_554 S
Tb504 O551 2.320 . S
Tb504 O552 2.552 1_554 S
Tb504 O553 2.413 1_554 S
Tb504 O555 2.362 . S
Tb504 O556 2.421 1_554 S
Tb504 C568 2.833 1_554 S
C505 C508 1.432 . S
C505 C509 1.414 . S
C505 N512 1.359 . S
C506 C508 1.417 . S
C506 C510 1.432 . S
C506 C518 1.410 . S
C507 C509 1.444 . S
C507 C510 1.317 . S
C507 H530 0.929 . S
C508 C505 1.432 . S
C508 C506 1.417 . S
C508 N516 1.360 . S
C509 C505 1.414 . S
C509 C507 1.444 . S
C509 C514 1.385 . S
C510 C506 1.432 . S
C510 C507 1.317 . S
C510 H522 0.930 . S
C511 C513 1.392 . S
C511 C514 1.370 . S
C511 H523 0.931 . S
N512 C505 1.359 . S
N512 C513 1.327 . S
N512 Tb515 2.600 . S
C513 C511 1.392 . S
C513 N512 1.327 . S
C513 H520 0.930 . S
C514 C509 1.385 . S
C514 C511 1.370 . S
C514 H533 0.930 . S
Tb515 N512 2.600 . S
Tb515 N516 2.660 . S
Tb515 O549 2.362 . S
Tb515 O550 2.421 1_556 S
Tb515 O554 2.546 1_556 S
Tb515 O555 2.610 1_556 S
Tb515 O557 2.320 . S
Tb515 O558 2.552 1_556 S
Tb515 O559 2.413 1_556 S
Tb515 C579 2.833 1_556 S
N516 C508 1.360 . S
N516 Tb515 2.660 . S
N516 C517 1.305 . S
C517 N516 1.305 . S
C517 C519 1.407 . S
C517 H524 0.930 . S
C518 C506 1.410 . S
C518 C519 1.345 . S
C518 H526 0.930 . S
C519 C517 1.407 . S
C519 C518 1.345 . S
C519 H521 0.930 . S
H520 C513 0.930 . S
H521 C519 0.930 . S
H522 C510 0.930 . S
H523 C511 0.931 . S
H524 C517 0.930 . S
H525 C539 0.930 . S
H526 C518 0.930 . S
H527 C545 0.930 . S
H528 C536 0.930 . S
H529 C543 0.931 . S
H530 C507 0.929 . S
H531 C537 0.930 . S
H532 C570 0.930 . S
H533 C514 0.930 . S
H534 C569 0.929 . S
N535 Tb504 2.660 . S
N535 C536 1.305 . S
N535 C540 1.360 . S
C536 H528 0.930 . S
C536 N535 1.305 . S
C536 C539 1.407 . S
C537 H531 0.930 . S
C537 C538 1.410 . S
C537 C539 1.345 . S
C538 C537 1.410 . S
C538 C540 1.417 . S
C538 C570 1.432 . S
C539 H525 0.930 . S
C539 C536 1.407 . S
C539 C537 1.345 . S
C540 N535 1.360 . S
C540 C538 1.417 . S
C540 C544 1.432 . S
H541 C546 0.930 . S
N542 Tb504 2.600 . S
N542 C544 1.359 . S
N542 C545 1.327 . S
C543 H529 0.931 . S
C543 C545 1.392 . S
C543 C546 1.370 . S
C544 C540 1.432 . S
C544 N542 1.359 . S
C544 C547 1.414 . S
C545 H527 0.930 . S
C545 N542 1.327 . S
C545 C543 1.392 . S
C546 H541 0.930 . S
C546 C543 1.370 . S
C546 C547 1.385 . S
C547 C544 1.414 . S
C547 C546 1.385 . S
C547 C569 1.444 . S
O548 Tb504 2.546 1_556 S
O548 C568 1.251 . S
O549 Tb504 2.610 1_556 S
O549 Tb515 2.362 . S
O549 C560 1.283 . S
O550 Tb515 2.421 1_554 S
O550 C567 1.262 1_554 S
O551 Tb504 2.320 . S
O551 C567 1.260 1_554 S
O552 Tb504 2.552 1_556 S
O552 C560 1.243 . S
O553 Tb504 2.413 1_556 S
O553 C568 1.256 . S
O554 Tb515 2.546 1_554 S
O554 C579 1.251 . S
O555 Tb504 2.362 . S
O555 Tb515 2.610 1_554 S
O555 C571 1.283 . S
O556 Tb504 2.421 1_556 S
O556 C578 1.262 1_556 S
O557 Tb515 2.320 . S
O557 C578 1.260 1_556 S
O558 Tb515 2.552 1_554 S
O558 C571 1.243 . S
O559 Tb515 2.413 1_554 S
O559 C579 1.256 . S
C560 O549 1.283 . S
C560 O552 1.243 . S
C561 C563 1.382 . S
C561 C565 1.393 . S
C561 C568 1.500 . S
C562 C563 1.400 . S
C562 C564 1.384 . S
C563 C561 1.382 . S
C563 C562 1.400 . S
C563 H580 0.930 . S
C564 C562 1.384 . S
C564 C566 1.392 . S
C564 H581 0.931 . S
C565 C561 1.393 . S
C565 C566 1.401 . S
C565 H582 0.930 . S
C566 C564 1.392 . S
C566 C565 1.401 . S
C566 H583 0.930 . S
C567 O550 1.262 1_556 S
C567 O551 1.260 1_556 S
C568 Tb504 2.833 1_556 S
C568 O548 1.251 . S
C568 O553 1.256 . S
C568 C561 1.500 . S
C569 H534 0.929 . S
C569 C547 1.444 . S
C569 C570 1.317 . S
C570 H532 0.930 . S
C570 C538 1.432 . S
C570 C569 1.317 . S
C571 O555 1.283 . S
C571 O558 1.243 . S
C572 C573 1.382 . S
C572 C576 1.393 . S
C572 C579 1.500 . S
C573 C572 1.382 . S
C573 C574 1.400 . S
C573 H584 0.930 . S
C574 C573 1.400 . S
C574 C575 1.384 . S
C575 C574 1.384 . S
C575 C577 1.392 . S
C575 H585 0.931 . S
C576 C572 1.393 . S
C576 C577 1.401 . S
C576 H586 0.930 . S
C577 C575 1.392 . S
C577 C576 1.401 . S
C577 H587 0.930 . S
C578 O556 1.262 1_554 S
C578 O557 1.260 1_554 S
C579 Tb515 2.833 1_554 S
C579 O554 1.251 . S
C579 O559 1.256 . S
C579 C572 1.500 . S
H580 C563 0.930 . S
H581 C564 0.931 . S
H582 C565 0.930 . S
H583 C566 0.930 . S
H584 C573 0.930 . S
H585 C575 0.931 . S
H586 C576 0.930 . S
H587 C577 0.930 . S
Tb588 N619 2.660 . S
Tb588 N626 2.600 . S
Tb588 O632 2.546 1_554 S
Tb588 O633 2.610 1_554 S
Tb588 O635 2.320 . S
Tb588 O636 2.552 1_554 S
Tb588 O637 2.413 1_554 S
Tb588 O639 2.362 . S
Tb588 O640 2.421 1_554 S
Tb588 C652 2.833 1_554 S
C589 C592 1.432 . S
C589 C593 1.414 . S
C589 N596 1.359 . S
C590 C592 1.417 . S
C590 C594 1.432 . S
C590 C602 1.410 . S
C591 C593 1.444 . S
C591 C594 1.317 . S
C591 H614 0.929 . S
C592 C589 1.432 . S
C592 C590 1.417 . S
C592 N600 1.360 . S
C593 C589 1.414 . S
C593 C591 1.444 . S
C593 C598 1.385 . S
C594 C590 1.432 . S
C594 C591 1.317 . S
C594 H606 0.930 . S
C595 C597 1.392 . S
C595 C598 1.370 . S
C595 H607 0.931 . S
N596 C589 1.359 . S
N596 C597 1.327 . S
N596 Tb599 2.600 . S
C597 C595 1.392 . S
C597 N596 1.327 . S
C597 H604 0.930 . S
C598 C593 1.385 . S
C598 C595 1.370 . S
C598 H617 0.930 . S
Tb599 N596 2.600 . S
Tb599 N600 2.660 . S
Tb599 O633 2.362 . S
Tb599 O634 2.421 1_556 S
Tb599 O638 2.546 1_556 S
Tb599 O639 2.610 1_556 S
Tb599 O641 2.320 . S
Tb599 O642 2.552 1_556 S
Tb599 O643 2.413 1_556 S
Tb599 C663 2.833 1_556 S
N600 C592 1.360 . S
N600 Tb599 2.660 . S
N600 C601 1.305 . S
C601 N600 1.305 . S
C601 C603 1.407 . S
C601 H608 0.930 . S
C602 C590 1.410 . S
C602 C603 1.345 . S
C602 H610 0.930 . S
C603 C601 1.407 . S
C603 C602 1.345 . S
C603 H605 0.930 . S
H604 C597 0.930 . S
H605 C603 0.930 . S
H606 C594 0.930 . S
H607 C595 0.931 . S
H608 C601 0.930 . S
H609 C623 0.930 . S
H610 C602 0.930 . S
H611 C629 0.930 . S
H612 C620 0.930 . S
H613 C627 0.931 . S
H614 C591 0.929 . S
H615 C621 0.930 . S
H616 C654 0.930 . S
H617 C598 0.930 . S
H618 C653 0.929 . S
N619 Tb588 2.660 . S
N619 C620 1.305 . S
N619 C624 1.360 . S
C620 H612 0.930 . S
C620 N619 1.305 . S
C620 C623 1.407 . S
C621 H615 0.930 . S
C621 C622 1.410 . S
C621 C623 1.345 . S
C622 C621 1.410 . S
C622 C624 1.417 . S
C622 C654 1.432 . S
C623 H609 0.930 . S
C623 C620 1.407 . S
C623 C621 1.345 . S
C624 N619 1.360 . S
C624 C622 1.417 . S
C624 C628 1.432 . S
H625 C630 0.930 . S
N626 Tb588 2.600 . S
N626 C628 1.359 . S
N626 C629 1.327 . S
C627 H613 0.931 . S
C627 C629 1.392 . S
C627 C630 1.370 . S
C628 C624 1.432 . S
C628 N626 1.359 . S
C628 C631 1.414 . S
C629 H611 0.930 . S
C629 N626 1.327 . S
C629 C627 1.392 . S
C630 H625 0.930 . S
C630 C627 1.370 . S
C630 C631 1.385 . S
C631 C628 1.414 . S
C631 C630 1.385 . S
C631 C653 1.444 . S
O632 Tb588 2.546 1_556 S
O632 C652 1.251 . S
O633 Tb588 2.610 1_556 S
O633 Tb599 2.362 . S
O633 C644 1.283 . S
O634 Tb599 2.421 1_554 S
O634 C651 1.262 1_554 S
O635 Tb588 2.320 . S
O635 C651 1.260 1_554 S
O636 Tb588 2.552 1_556 S
O636 C644 1.243 . S
O637 Tb588 2.413 1_556 S
O637 C652 1.256 . S
O638 Tb599 2.546 1_554 S
O638 C663 1.251 . S
O639 Tb588 2.362 . S
O639 Tb599 2.610 1_554 S
O639 C655 1.283 . S
O640 Tb588 2.421 1_556 S
O640 C662 1.262 1_556 S
O641 Tb599 2.320 . S
O641 C662 1.260 1_556 S
O642 Tb599 2.552 1_554 S
O642 C655 1.243 . S
O643 Tb599 2.413 1_554 S
O643 C663 1.256 . S
C644 O633 1.283 . S
C644 O636 1.243 . S
C645 C647 1.382 . S
C645 C649 1.393 . S
C645 C652 1.500 . S
C646 C647 1.400 . S
C646 C648 1.384 . S
C647 C645 1.382 . S
C647 C646 1.400 . S
C647 H664 0.930 . S
C648 C646 1.384 . S
C648 C650 1.392 . S
C648 H665 0.931 . S
C649 C645 1.393 . S
C649 C650 1.401 . S
C649 H666 0.930 . S
C650 C648 1.392 . S
C650 C649 1.401 . S
C650 H667 0.930 . S
C651 O634 1.262 1_556 S
C651 O635 1.260 1_556 S
C652 Tb588 2.833 1_556 S
C652 O632 1.251 . S
C652 O637 1.256 . S
C652 C645 1.500 . S
C653 H618 0.929 . S
C653 C631 1.444 . S
C653 C654 1.317 . S
C654 H616 0.930 . S
C654 C622 1.432 . S
C654 C653 1.317 . S
C655 O639 1.283 . S
C655 O642 1.243 . S
C656 C657 1.382 . S
C656 C660 1.393 . S
C656 C663 1.500 . S
C657 C656 1.382 . S
C657 C658 1.400 . S
C657 H668 0.930 . S
C658 C657 1.400 . S
C658 C659 1.384 . S
C659 C658 1.384 . S
C659 C661 1.392 . S
C659 H669 0.931 . S
C660 C656 1.393 . S
C660 C661 1.401 . S
C660 H670 0.930 . S
C661 C659 1.392 . S
C661 C660 1.401 . S
C661 H671 0.930 . S
C662 O640 1.262 1_554 S
C662 O641 1.260 1_554 S
C663 Tb599 2.833 1_554 S
C663 O638 1.251 . S
C663 O643 1.256 . S
C663 C656 1.500 . S
H664 C647 0.930 . S
H665 C648 0.931 . S
H666 C649 0.930 . S
H667 C650 0.930 . S
H668 C657 0.930 . S
H669 C659 0.931 . S
H670 C660 0.930 . S
H671 C661 0.930 . S
C672 C673 1.391 . S
C672 C674 1.394 . S
C672 H688 0.931 . S
C673 C672 1.391 . S
C673 C677 1.376 . S
C674 C672 1.394 . S
C674 C675 1.369 . S
C674 C678 1.531 . S
C675 C674 1.369 . S
C675 C676 1.410 . S
C675 C683 1.503 . S
C676 C675 1.410 . S
C676 C677 1.392 . S
C676 C679 1.511 . S
C677 C673 1.376 . S
C677 C676 1.392 . S
C677 H689 0.929 . S
C678 C674 1.531 . S
C678 H690 0.960 . S
C678 H691 0.962 . S
C678 H692 0.960 . S
C679 C676 1.511 . S
C679 H693 0.961 . S
C679 H694 0.961 . S
C679 H695 0.961 . S
C680 C681 1.370 . S
C680 C682 1.363 . S
C680 H696 0.931 . S
C681 C680 1.370 . S
C681 C685 1.408 . S
C682 C680 1.363 . S
C682 C683 1.370 . S
C682 C686 1.524 . S
C683 C675 1.503 . S
C683 C682 1.370 . S
C683 C684 1.403 . S
C684 C683 1.403 . S
C684 C685 1.404 . S
C684 C687 1.539 . S
C685 C681 1.408 . S
C685 C684 1.404 . S
C685 H697 0.930 . S
C686 C682 1.524 . S
C686 H698 0.956 . S
C686 H699 0.961 . S
C686 H700 0.961 . S
C687 C684 1.539 . S
C687 H701 0.958 . S
C687 H702 0.961 . S
C687 H703 0.960 . S
H688 C672 0.931 . S
H689 C677 0.929 . S
H690 C678 0.960 . S
H691 C678 0.962 . S
H692 C678 0.960 . S
H693 C679 0.961 . S
H694 C679 0.961 . S
H695 C679 0.961 . S
H696 C680 0.931 . S
H697 C685 0.930 . S
H698 C686 0.956 . S
H699 C686 0.961 . S
H700 C686 0.961 . S
H701 C687 0.958 . S
H702 C687 0.961 . S
H703 C687 0.960 . S
C704 C705 1.391 . S
C704 C706 1.394 . S
C704 H720 0.931 . S
C705 C704 1.391 . S
C705 C709 1.376 . S
C706 C704 1.394 . S
C706 C707 1.369 . S
C706 C710 1.531 . S
C707 C706 1.369 . S
C707 C708 1.410 . S
C707 C715 1.503 . S
C708 C707 1.410 . S
C708 C709 1.392 . S
C708 C711 1.511 . S
C709 C705 1.376 . S
C709 C708 1.392 . S
C709 H721 0.929 . S
C710 C706 1.531 . S
C710 H722 0.960 . S
C710 H723 0.962 . S
C710 H724 0.960 . S
C711 C708 1.511 . S
C711 H725 0.961 . S
C711 H726 0.961 . S
C711 H727 0.961 . S
C712 C713 1.370 . S
C712 C714 1.363 . S
C712 H728 0.931 . S
C713 C712 1.370 . S
C713 C717 1.408 . S
C714 C712 1.363 . S
C714 C715 1.370 . S
C714 C718 1.524 . S
C715 C707 1.503 . S
C715 C714 1.370 . S
C715 C716 1.403 . S
C716 C715 1.403 . S
C716 C717 1.404 . S
C716 C719 1.539 . S
C717 C713 1.408 . S
C717 C716 1.404 . S
C717 H729 0.930 . S
C718 C714 1.524 . S
C718 H730 0.956 . S
C718 H731 0.961 . S
C718 H732 0.961 . S
C719 C716 1.539 . S
C719 H733 0.958 . S
C719 H734 0.961 . S
C719 H735 0.960 . S
H720 C704 0.931 . S
H721 C709 0.929 . S
H722 C710 0.960 . S
H723 C710 0.962 . S
H724 C710 0.960 . S
H725 C711 0.961 . S
H726 C711 0.961 . S
H727 C711 0.961 . S
H728 C712 0.931 . S
H729 C717 0.930 . S
H730 C718 0.956 . S
H731 C718 0.961 . S
H732 C718 0.961 . S
H733 C719 0.958 . S
H734 C719 0.961 . S
H735 C719 0.960 . S
C736 C737 1.391 . S
C736 C738 1.394 . S
C736 H752 0.931 . S
C737 C736 1.391 . S
C737 C741 1.376 . S
C738 C736 1.394 . S
C738 C739 1.369 . S
C738 C742 1.531 . S
C739 C738 1.369 . S
C739 C740 1.410 . S
C739 C747 1.503 . S
C740 C739 1.410 . S
C740 C741 1.392 . S
C740 C743 1.511 . S
C741 C737 1.376 . S
C741 C740 1.392 . S
C741 H753 0.929 . S
C742 C738 1.531 . S
C742 H754 0.960 . S
C742 H755 0.962 . S
C742 H756 0.960 . S
C743 C740 1.511 . S
C743 H757 0.961 . S
C743 H758 0.961 . S
C743 H759 0.961 . S
C744 C745 1.370 . S
C744 C746 1.363 . S
C744 H760 0.931 . S
C745 C744 1.370 . S
C745 C749 1.408 . S
C746 C744 1.363 . S
C746 C747 1.370 . S
C746 C750 1.524 . S
C747 C739 1.503 . S
C747 C746 1.370 . S
C747 C748 1.403 . S
C748 C747 1.403 . S
C748 C749 1.404 . S
C748 C751 1.539 . S
C749 C745 1.408 . S
C749 C748 1.404 . S
C749 H761 0.930 . S
C750 C746 1.524 . S
C750 H762 0.956 . S
C750 H763 0.961 . S
C750 H764 0.961 . S
C751 C748 1.539 . S
C751 H765 0.958 . S
C751 H766 0.961 . S
C751 H767 0.960 . S
H752 C736 0.931 . S
H753 C741 0.929 . S
H754 C742 0.960 . S
H755 C742 0.962 . S
H756 C742 0.960 . S
H757 C743 0.961 . S
H758 C743 0.961 . S
H759 C743 0.961 . S
H760 C744 0.931 . S
H761 C749 0.930 . S
H762 C750 0.956 . S
H763 C750 0.961 . S
H764 C750 0.961 . S
H765 C751 0.958 . S
H766 C751 0.961 . S
H767 C751 0.960 . S
C768 C769 1.391 . S
C768 C770 1.394 . S
C768 H784 0.931 . S
C769 C768 1.391 . S
C769 C773 1.376 . S
C770 C768 1.394 . S
C770 C771 1.369 . S
C770 C774 1.531 . S
C771 C770 1.369 . S
C771 C772 1.410 . S
C771 C779 1.503 . S
C772 C771 1.410 . S
C772 C773 1.392 . S
C772 C775 1.511 . S
C773 C769 1.376 . S
C773 C772 1.392 . S
C773 H785 0.929 . S
C774 C770 1.531 . S
C774 H786 0.960 . S
C774 H787 0.962 . S
C774 H788 0.960 . S
C775 C772 1.511 . S
C775 H789 0.961 . S
C775 H790 0.961 . S
C775 H791 0.961 . S
C776 C777 1.370 . S
C776 C778 1.363 . S
C776 H792 0.931 . S
C777 C776 1.370 . S
C777 C781 1.408 . S
C778 C776 1.363 . S
C778 C779 1.370 . S
C778 C782 1.524 . S
C779 C771 1.503 . S
C779 C778 1.370 . S
C779 C780 1.403 . S
C780 C779 1.403 . S
C780 C781 1.404 . S
C780 C783 1.539 . S
C781 C777 1.408 . S
C781 C780 1.404 . S
C781 H793 0.930 . S
C782 C778 1.524 . S
C782 H794 0.956 . S
C782 H795 0.961 . S
C782 H796 0.961 . S
C783 C780 1.539 . S
C783 H797 0.958 . S
C783 H798 0.961 . S
C783 H799 0.960 . S
H784 C768 0.931 . S
H785 C773 0.929 . S
H786 C774 0.960 . S
H787 C774 0.962 . S
H788 C774 0.960 . S
H789 C775 0.961 . S
H790 C775 0.961 . S
H791 C775 0.961 . S
H792 C776 0.931 . S
H793 C781 0.930 . S
H794 C782 0.956 . S
H795 C782 0.961 . S
H796 C782 0.961 . S
H797 C783 0.958 . S
H798 C783 0.961 . S
H799 C783 0.960 . S
C800 C801 1.391 . S
C800 C802 1.394 . S
C800 H816 0.931 . S
C801 C800 1.391 . S
C801 C805 1.376 . S
C802 C800 1.394 . S
C802 C803 1.369 . S
C802 C806 1.531 . S
C803 C802 1.369 . S
C803 C804 1.410 . S
C803 C811 1.503 1_565 S
C804 C803 1.410 . S
C804 C805 1.392 . S
C804 C807 1.511 1_565 S
C805 C801 1.376 . S
C805 C804 1.392 . S
C805 H817 0.929 . S
C806 C802 1.531 . S
C806 H818 0.960 . S
C806 H819 0.962 . S
C806 H820 0.960 . S
C807 C804 1.511 1_545 S
C807 H821 0.961 . S
C807 H822 0.961 . S
C807 H823 0.961 . S
C808 C809 1.370 . S
C808 C810 1.363 . S
C808 H824 0.931 . S
C809 C808 1.370 . S
C809 C813 1.408 . S
C810 C808 1.363 . S
C810 C811 1.370 . S
C810 C814 1.507 1_545 S
C811 C803 1.503 1_545 S
C811 C810 1.370 . S
C811 C812 1.403 . S
C812 C811 1.403 . S
C812 C813 1.404 . S
C812 C815 1.539 . S
C813 C809 1.408 . S
C813 C812 1.404 . S
C813 H825 0.930 . S
C814 C810 1.507 1_565 S
C814 H826 0.968 . S
C814 H827 0.978 . S
C814 H828 0.949 1_565 S
C815 C812 1.539 . S
C815 H829 0.958 . S
C815 H830 0.961 . S
C815 H831 0.960 . S
H816 C800 0.931 . S
H817 C805 0.929 . S
H818 C806 0.960 . S
H819 C806 0.962 . S
H820 C806 0.960 . S
H821 C807 0.961 . S
H822 C807 0.961 . S
H823 C807 0.961 . S
H824 C808 0.931 . S
H825 C813 0.930 . S
H826 C814 0.968 . S
H827 C814 0.978 . S
H828 C814 0.949 1_545 S
H829 C815 0.958 . S
H830 C815 0.961 . S
H831 C815 0.960 . S
C832 C833 1.391 . S
C832 C834 1.394 . S
C832 H848 0.931 . S
C833 C832 1.391 . S
C833 C837 1.376 . S
C834 C832 1.394 . S
C834 C835 1.369 . S
C834 C838 1.531 . S
C835 C834 1.369 . S
C835 C836 1.410 . S
C835 C843 1.503 . S
C836 C835 1.410 . S
C836 C837 1.392 . S
C836 C839 1.511 . S
C837 C833 1.376 . S
C837 C836 1.392 . S
C837 H849 0.929 . S
C838 C834 1.531 . S
C838 H850 0.960 . S
C838 H851 0.962 . S
C838 H852 0.960 . S
C839 C836 1.511 . S
C839 H853 0.961 . S
C839 H854 0.961 . S
C839 H855 0.961 . S
C840 C841 1.370 . S
C840 C842 1.363 . S
C840 H856 0.931 . S
C841 C840 1.370 . S
C841 C845 1.408 . S
C842 C840 1.363 . S
C842 C843 1.370 . S
C842 C846 1.524 . S
C843 C835 1.503 . S
C843 C842 1.370 . S
C843 C844 1.403 . S
C844 C843 1.403 . S
C844 C845 1.404 . S
C844 C847 1.539 . S
C845 C841 1.408 . S
C845 C844 1.404 . S
C845 H857 0.930 . S
C846 C842 1.524 . S
C846 H858 0.956 . S
C846 H859 0.961 . S
C846 H860 0.961 . S
C847 C844 1.539 . S
C847 H861 0.958 . S
C847 H862 0.961 . S
C847 H863 0.960 . S
H848 C832 0.931 . S
H849 C837 0.929 . S
H850 C838 0.960 . S
H851 C838 0.962 . S
H852 C838 0.960 . S
H853 C839 0.961 . S
H854 C839 0.961 . S
H855 C839 0.961 . S
H856 C840 0.931 . S
H857 C845 0.930 . S
H858 C846 0.956 . S
H859 C846 0.961 . S
H860 C846 0.961 . S
H861 C847 0.958 . S
H862 C847 0.961 . S
H863 C847 0.960 . S
C864 C865 1.391 . S
C864 C866 1.394 . S
C864 H880 0.931 . S
C865 C864 1.391 . S
C865 C869 1.376 . S
C866 C864 1.394 . S
C866 C867 1.369 . S
C866 C870 1.531 . S
C867 C866 1.369 . S
C867 C868 1.410 . S
C867 C875 1.503 1_565 S
C868 C867 1.410 . S
C868 C869 1.392 . S
C868 C871 1.511 . S
C869 C865 1.376 . S
C869 C868 1.392 . S
C869 H881 0.929 . S
C870 C866 1.531 . S
C870 H882 0.960 . S
C870 H883 0.962 . S
C870 H884 0.960 . S
C871 C868 1.511 . S
C871 H885 0.961 . S
C871 H886 0.961 1_565 S
C871 H887 0.961 . S
C872 C873 1.370 . S
C872 C874 1.363 . S
C872 H888 0.931 . S
C873 C872 1.370 . S
C873 C877 1.408 . S
C874 C872 1.363 . S
C874 C875 1.370 . S
C874 C878 1.524 . S
C875 C867 1.503 1_545 S
C875 C874 1.370 . S
C875 C876 1.403 . S
C876 C875 1.403 . S
C876 C877 1.404 . S
C876 C879 1.539 1_545 S
C877 C873 1.408 . S
C877 C876 1.404 . S
C877 H889 0.930 . S
C878 C874 1.524 . S
C878 H890 0.956 . S
C878 H891 0.961 . S
C878 H892 0.961 . S
C879 C876 1.539 1_565 S
C879 H893 0.958 . S
C879 H894 0.961 . S
C879 H895 0.960 . S
H880 C864 0.931 . S
H881 C869 0.929 . S
H882 C870 0.960 . S
H883 C870 0.962 . S
H884 C870 0.960 . S
H885 C871 0.961 . S
H886 C871 0.961 1_545 S
H887 C871 0.961 . S
H888 C872 0.931 . S
H889 C877 0.930 . S
H890 C878 0.956 . S
H891 C878 0.961 . S
H892 C878 0.961 . S
H893 C879 0.958 . S
H894 C879 0.961 . S
H895 C879 0.960 . S
C896 C897 1.391 . S
C896 C898 1.394 . S
C896 H912 0.931 . S
C897 C896 1.391 . S
C897 C901 1.376 . S
C898 C896 1.394 . S
C898 C899 1.369 . S
C898 C902 1.531 . S
C899 C898 1.369 . S
C899 C900 1.410 . S
C899 C907 1.503 . S
C900 C899 1.410 . S
C900 C901 1.392 . S
C900 C903 1.511 . S
C901 C897 1.376 . S
C901 C900 1.392 . S
C901 H913 0.929 . S
C902 C898 1.531 . S
C902 H914 0.960 . S
C902 H915 0.962 . S
C902 H916 0.960 . S
C903 C900 1.511 . S
C903 H917 0.961 . S
C903 H918 0.961 . S
C903 H919 0.961 . S
C904 C905 1.370 . S
C904 C906 1.363 . S
C904 H920 0.931 . S
C905 C904 1.370 . S
C905 C909 1.408 . S
C906 C904 1.363 . S
C906 C907 1.370 . S
C906 C910 1.524 . S
C907 C899 1.503 . S
C907 C906 1.370 . S
C907 C908 1.403 . S
C908 C907 1.403 . S
C908 C909 1.404 . S
C908 C911 1.539 . S
C909 C905 1.408 . S
C909 C908 1.404 . S
C909 H921 0.930 . S
C910 C906 1.524 . S
C910 H922 0.956 . S
C910 H923 0.961 . S
C910 H924 0.961 . S
C911 C908 1.539 . S
C911 H925 0.958 . S
C911 H926 0.961 . S
C911 H927 0.960 . S
H912 C896 0.931 . S
H913 C901 0.929 . S
H914 C902 0.960 . S
H915 C902 0.962 . S
H916 C902 0.960 . S
H917 C903 0.961 . S
H918 C903 0.961 . S
H919 C903 0.961 . S
H920 C904 0.931 . S
H921 C909 0.930 . S
H922 C910 0.956 . S
H923 C910 0.961 . S
H924 C910 0.961 . S
H925 C911 0.958 . S
H926 C911 0.961 . S
H927 C911 0.960 . S
C928 C929 1.391 1_556 S
C928 C930 1.394 . S
C928 H944 0.931 . S
C929 C928 1.391 1_554 S
C929 C933 1.376 . S
C930 C928 1.394 . S
C930 C931 1.369 1_556 S
C930 C934 1.531 . S
C931 C930 1.369 1_554 S
C931 C932 1.410 . S
C931 C939 1.503 . S
C932 C931 1.410 . S
C932 C933 1.392 . S
C932 C935 1.511 . S
C933 C929 1.376 . S
C933 C932 1.392 . S
C933 H945 0.929 . S
C934 C930 1.531 . S
C934 H946 0.960 . S
C934 H947 0.962 . S
C934 H948 0.960 . S
C935 C932 1.511 . S
C935 H949 0.961 . S
C935 H950 0.961 . S
C935 H951 0.961 . S
C936 C937 1.370 1_556 S
C936 C938 1.363 . S
C936 H952 0.931 . S
C937 C936 1.370 1_554 S
C937 C941 1.408 . S
C938 C936 1.363 . S
C938 C939 1.370 1_556 S
C938 C942 1.524 . S
C939 C931 1.503 . S
C939 C938 1.370 1_554 S
C939 C940 1.403 . S
C940 C939 1.403 . S
C940 C941 1.404 . S
C940 C943 1.539 . S
C941 C937 1.408 . S
C941 C940 1.404 . S
C941 H953 0.930 . S
C942 C938 1.524 . S
C942 H954 0.956 . S
C942 H955 0.961 . S
C942 H956 0.961 . S
C943 C940 1.539 . S
C943 H957 0.958 . S
C943 H958 0.961 . S
C943 H959 0.960 . S
H944 C928 0.931 . S
H945 C933 0.929 . S
H946 C934 0.960 . S
H947 C934 0.962 . S
H948 C934 0.960 . S
H949 C935 0.961 . S
H950 C935 0.961 . S
H951 C935 0.961 . S
H952 C936 0.931 . S
H953 C941 0.930 . S
H954 C942 0.956 . S
H955 C942 0.961 . S
H956 C942 0.961 . S
H957 C943 0.958 . S
H958 C943 0.961 . S
H959 C943 0.960 . S
C960 C961 1.391 1_556 S
C960 C962 1.394 . S
C960 H976 0.931 . S
C961 C960 1.391 1_554 S
C961 C965 1.376 . S
C962 C960 1.394 . S
C962 C963 1.369 1_556 S
C962 C966 1.531 1_565 S
C963 C962 1.369 1_554 S
C963 C964 1.410 . S
C963 C971 1.503 1_565 S
C964 C963 1.410 . S
C964 C965 1.392 . S
C964 C967 1.511 . S
C965 C961 1.376 . S
C965 C964 1.392 . S
C965 H977 0.929 . S
C966 C962 1.531 1_545 S
C966 H978 0.960 . S
C966 H979 0.962 . S
C966 H980 0.960 1_545 S
C967 C964 1.511 . S
C967 H981 0.961 . S
C967 H982 0.961 . S
C967 H983 0.961 . S
C968 C969 1.370 . S
C968 C970 1.363 . S
C968 H984 0.931 . S
C969 C968 1.370 . S
C969 C973 1.408 1_554 S
C970 C968 1.363 . S
C970 C971 1.370 . S
C970 C974 1.524 . S
C971 C963 1.503 1_545 S
C971 C970 1.370 . S
C971 C972 1.403 1_554 S
C972 C971 1.403 1_556 S
C972 C973 1.404 . S
C972 C975 1.539 1_545 S
C973 C969 1.408 1_556 S
C973 C972 1.404 . S
C973 H985 0.930 . S
C974 C970 1.524 . S
C974 H986 0.956 . S
C974 H987 0.961 . S
C974 H988 0.961 . S
C975 C972 1.539 1_565 S
C975 H989 0.958 . S
C975 H990 0.948 1_565 S
C975 H991 0.960 . S
H976 C960 0.931 . S
H977 C965 0.929 . S
H978 C966 0.960 . S
H979 C966 0.962 . S
H980 C966 0.960 1_565 S
H981 C967 0.961 . S
H982 C967 0.961 . S
H983 C967 0.961 . S
H984 C968 0.931 . S
H985 C973 0.930 . S
H986 C974 0.956 . S
H987 C974 0.961 . S
H988 C974 0.961 . S
H989 C975 0.958 . S
H990 C975 0.948 1_545 S
H991 C975 0.960 . S
C992 C993 1.391 1_554 S
C992 C994 1.394 . S
C992 H1008 0.931 . S
C993 C992 1.391 1_556 S
C993 C997 1.376 . S
C994 C992 1.394 . S
C994 C995 1.369 1_554 S
C994 C998 1.531 . S
C995 C994 1.369 1_556 S
C995 C996 1.410 . S
C995 C1003 1.503 . S
C996 C995 1.410 . S
C996 C997 1.392 . S
C996 C999 1.511 . S
C997 C993 1.376 . S
C997 C996 1.392 . S
C997 H1009 0.929 . S
C998 C994 1.531 . S
C998 H1010 0.960 . S
C998 H1011 0.962 . S
C998 H1012 0.960 . S
C999 C996 1.511 . S
C999 H1013 0.961 . S
C999 H1014 0.961 . S
C999 H1015 0.961 . S
C1000 C1001 1.370 . S
C1000 C1002 1.363 . S
C1000 H1016 0.931 . S
C1001 C1000 1.370 . S
C1001 C1005 1.408 1_556 S
C1002 C1000 1.363 . S
C1002 C1003 1.370 . S
C1002 C1006 1.524 . S
C1003 C995 1.503 . S
C1003 C1002 1.370 . S
C1003 C1004 1.403 1_556 S
C1004 C1003 1.403 1_554 S
C1004 C1005 1.404 . S
C1004 C1007 1.539 . S
C1005 C1001 1.408 1_554 S
C1005 C1004 1.404 . S
C1005 H1017 0.930 . S
C1006 C1002 1.524 . S
C1006 H1018 0.956 . S
C1006 H1019 0.961 . S
C1006 H1020 0.961 . S
C1007 C1004 1.539 . S
C1007 H1021 0.958 . S
C1007 H1022 0.961 . S
C1007 H1023 0.960 . S
H1008 C992 0.931 . S
H1009 C997 0.929 . S
H1010 C998 0.960 . S
H1011 C998 0.962 . S
H1012 C998 0.960 . S
H1013 C999 0.961 . S
H1014 C999 0.961 . S
H1015 C999 0.961 . S
H1016 C1000 0.931 . S
H1017 C1005 0.930 . S
H1018 C1006 0.956 . S
H1019 C1006 0.961 . S
H1020 C1006 0.961 . S
H1021 C1007 0.958 . S
H1022 C1007 0.961 . S
H1023 C1007 0.960 . S
C1024 C1025 1.391 . S
C1024 C1026 1.394 . S
C1024 H1040 0.931 . S
C1025 C1024 1.391 . S
C1025 C1029 1.376 1_556 S
C1026 C1024 1.394 . S
C1026 C1027 1.369 . S
C1026 C1030 1.531 . S
C1027 C1026 1.369 . S
C1027 C1028 1.410 1_556 S
C1027 C1035 1.503 1_545 S
C1028 C1027 1.410 1_554 S
C1028 C1029 1.392 . S
C1028 C1031 1.511 . S
C1029 C1025 1.376 1_554 S
C1029 C1028 1.392 . S
C1029 H1041 0.929 . S
C1030 C1026 1.531 . S
C1030 H1042 0.960 . S
C1030 H1043 0.962 . S
C1030 H1044 0.960 . S
C1031 C1028 1.511 . S
C1031 H1045 0.961 . S
C1031 H1046 0.961 1_545 S
C1031 H1047 0.961 . S
C1032 C1033 1.370 . S
C1032 C1034 1.363 . S
C1032 H1048 0.931 . S
C1033 C1032 1.370 . S
C1033 C1037 1.408 . S
C1034 C1032 1.363 . S
C1034 C1035 1.370 . S
C1034 C1038 1.524 . S
C1035 C1027 1.503 1_565 S
C1035 C1034 1.370 . S
C1035 C1036 1.403 . S
C1036 C1035 1.403 . S
C1036 C1037 1.404 . S
C1036 C1039 1.539 1_566 S
C1037 C1033 1.408 . S
C1037 C1036 1.404 . S
C1037 H1049 0.930 . S
C1038 C1034 1.524 . S
C1038 H1050 0.956 . S
C1038 H1051 0.961 . S
C1038 H1052 0.961 . S
C1039 C1036 1.539 1_544 S
C1039 H1053 0.958 1_554 S
C1039 H1054 0.961 . S
C1039 H1055 0.960 . S
H1040 C1024 0.931 . S
H1041 C1029 0.929 . S
H1042 C1030 0.960 . S
H1043 C1030 0.962 . S
H1044 C1030 0.960 . S
H1045 C1031 0.961 . S
H1046 C1031 0.961 1_565 S
H1047 C1031 0.961 . S
H1048 C1032 0.931 . S
H1049 C1037 0.930 . S
H1050 C1038 0.956 . S
H1051 C1038 0.961 . S
H1052 C1038 0.961 . S
H1053 C1039 0.958 1_556 S
H1054 C1039 0.961 . S
H1055 C1039 0.960 . S
C1056 C1057 1.391 . S
C1056 C1058 1.394 . S
C1056 H1072 0.931 . S
C1057 C1056 1.391 . S
C1057 C1061 1.376 . S
C1058 C1056 1.394 . S
C1058 C1059 1.369 . S
C1058 C1062 1.531 . S
C1059 C1058 1.369 . S
C1059 C1060 1.410 . S
C1059 C1067 1.503 1_554 S
C1060 C1059 1.410 . S
C1060 C1061 1.392 . S
C1060 C1063 1.511 1_554 S
C1061 C1057 1.376 . S
C1061 C1060 1.392 . S
C1061 H1073 0.929 . S
C1062 C1058 1.531 . S
C1062 H1074 0.960 1_554 S
C1062 H1075 0.962 . S
C1062 H1076 0.960 . S
C1063 C1060 1.511 1_556 S
C1063 H1077 0.961 1_556 S
C1063 H1078 0.961 . S
C1063 H1079 0.961 . S
C1064 C1065 1.370 . S
C1064 C1066 1.363 . S
C1064 H1080 0.931 . S
C1065 C1064 1.370 . S
C1065 C1069 1.408 . S
C1066 C1064 1.363 . S
C1066 C1067 1.370 . S
C1066 C1070 1.524 . S
C1067 C1059 1.503 1_556 S
C1067 C1066 1.370 . S
C1067 C1068 1.403 . S
C1068 C1067 1.403 . S
C1068 C1069 1.404 . S
C1068 C1071 1.539 . S
C1069 C1065 1.408 . S
C1069 C1068 1.404 . S
C1069 H1081 0.930 . S
C1070 C1066 1.524 . S
C1070 H1082 0.956 . S
C1070 H1083 0.961 . S
C1070 H1084 0.961 . S
C1071 C1068 1.539 . S
C1071 H1085 0.958 . S
C1071 H1086 0.961 . S
C1071 H1087 0.960 . S
H1072 C1056 0.931 . S
H1073 C1061 0.929 . S
H1074 C1062 0.960 1_556 S
H1075 C1062 0.962 . S
H1076 C1062 0.960 . S
H1077 C1063 0.961 1_554 S
H1078 C1063 0.961 . S
H1079 C1063 0.961 . S
H1080 C1064 0.931 . S
H1081 C1069 0.930 . S
H1082 C1070 0.956 . S
H1083 C1070 0.961 . S
H1084 C1070 0.961 . S
H1085 C1071 0.958 . S
H1086 C1071 0.961 . S
H1087 C1071 0.960 . S
C1088 C1089 1.391 . S
C1088 C1090 1.394 . S
C1088 H1104 0.931 . S
C1089 C1088 1.391 . S
C1089 C1093 1.376 . S
C1090 C1088 1.394 . S
C1090 C1091 1.369 . S
C1090 C1094 1.531 . S
C1091 C1090 1.369 . S
C1091 C1092 1.410 . S
C1091 C1099 1.503 1_554 S
C1092 C1091 1.410 . S
C1092 C1093 1.392 . S
C1092 C1095 1.511 1_554 S
C1093 C1089 1.376 . S
C1093 C1092 1.392 . S
C1093 H1105 0.929 . S
C1094 C1090 1.531 . S
C1094 H1106 0.960 1_554 S
C1094 H1107 0.962 . S
C1094 H1108 0.960 . S
C1095 C1092 1.511 1_556 S
C1095 H1109 0.961 1_556 S
C1095 H1110 0.961 . S
C1095 H1111 0.961 . S
C1096 C1097 1.370 . S
C1096 C1098 1.363 . S
C1096 H1112 0.931 . S
C1097 C1096 1.370 . S
C1097 C1101 1.408 . S
C1098 C1096 1.363 . S
C1098 C1099 1.370 . S
C1098 C1102 1.524 . S
C1099 C1091 1.503 1_556 S
C1099 C1098 1.370 . S
C1099 C1100 1.403 . S
C1100 C1099 1.403 . S
C1100 C1101 1.404 . S
C1100 C1103 1.539 . S
C1101 C1097 1.408 . S
C1101 C1100 1.404 . S
C1101 H1113 0.930 . S
C1102 C1098 1.524 . S
C1102 H1114 0.956 . S
C1102 H1115 0.961 . S
C1102 H1116 0.961 . S
C1103 C1100 1.539 . S
C1103 H1117 0.958 . S
C1103 H1118 0.961 . S
C1103 H1119 0.960 . S
H1104 C1088 0.931 . S
H1105 C1093 0.929 . S
H1106 C1094 0.960 1_556 S
H1107 C1094 0.962 . S
H1108 C1094 0.960 . S
H1109 C1095 0.961 1_554 S
H1110 C1095 0.961 . S
H1111 C1095 0.961 . S
H1112 C1096 0.931 . S
H1113 C1101 0.930 . S
H1114 C1102 0.956 . S
H1115 C1102 0.961 . S
H1116 C1102 0.961 . S
H1117 C1103 0.958 . S
H1118 C1103 0.961 . S
H1119 C1103 0.960 . S
C1120 C1121 1.391 . S
C1120 C1122 1.394 . S
C1120 H1136 0.931 . S
C1121 C1120 1.391 . S
C1121 C1125 1.376 . S
C1122 C1120 1.394 . S
C1122 C1123 1.369 . S
C1122 C1126 1.531 . S
C1123 C1122 1.369 . S
C1123 C1124 1.410 . S
C1123 C1131 1.503 1_554 S
C1124 C1123 1.410 . S
C1124 C1125 1.392 . S
C1124 C1127 1.511 . S
C1125 C1121 1.376 . S
C1125 C1124 1.392 . S
C1125 H1137 0.929 . S
C1126 C1122 1.531 . S
C1126 H1138 0.960 . S
C1126 H1139 0.962 . S
C1126 H1140 0.960 . S
C1127 C1124 1.511 . S
C1127 H1141 0.961 . S
C1127 H1142 0.961 . S
C1127 H1143 0.961 . S
C1128 C1129 1.370 . S
C1128 C1130 1.363 . S
C1128 H1144 0.931 . S
C1129 C1128 1.370 . S
C1129 C1133 1.408 . S
C1130 C1128 1.363 . S
C1130 C1131 1.370 . S
C1130 C1134 1.524 1_556 S
C1131 C1123 1.503 1_556 S
C1131 C1130 1.370 . S
C1131 C1132 1.403 . S
C1132 C1131 1.403 . S
C1132 C1133 1.404 . S
C1132 C1135 1.539 . S
C1133 C1129 1.408 . S
C1133 C1132 1.404 . S
C1133 H1145 0.930 . S
C1134 C1130 1.524 1_554 S
C1134 H1146 0.956 . S
C1134 H1147 0.961 . S
C1134 H1148 0.961 1_554 S
C1135 C1132 1.539 . S
C1135 H1149 0.958 1_556 S
C1135 H1150 0.961 . S
C1135 H1151 0.960 1_556 S
H1136 C1120 0.931 . S
H1137 C1125 0.929 . S
H1138 C1126 0.960 . S
H1139 C1126 0.962 . S
H1140 C1126 0.960 . S
H1141 C1127 0.961 . S
H1142 C1127 0.961 . S
H1143 C1127 0.961 . S
H1144 C1128 0.931 . S
H1145 C1133 0.930 . S
H1146 C1134 0.956 . S
H1147 C1134 0.961 . S
H1148 C1134 0.961 1_556 S
H1149 C1135 0.958 1_554 S
H1150 C1135 0.961 . S
H1151 C1135 0.960 1_554 S
C1152 C1153 1.391 . S
C1152 C1154 1.394 . S
C1152 H1168 0.931 . S
C1153 C1152 1.391 . S
C1153 C1157 1.376 . S
C1154 C1152 1.394 . S
C1154 C1155 1.369 . S
C1154 C1158 1.531 . S
C1155 C1154 1.369 . S
C1155 C1156 1.410 . S
C1155 C1163 1.503 1_556 S
C1156 C1155 1.410 . S
C1156 C1157 1.392 . S
C1156 C1159 1.511 1_556 S
C1157 C1153 1.376 . S
C1157 C1156 1.392 . S
C1157 H1169 0.929 . S
C1158 C1154 1.531 . S
C1158 H1170 0.960 1_556 S
C1158 H1171 0.962 1_556 S
C1158 H1172 0.960 . S
C1159 C1156 1.511 1_554 S
C1159 H1173 0.961 1_554 S
C1159 H1174 0.961 . S
C1159 H1175 0.961 . S
C1160 C1161 1.370 . S
C1160 C1162 1.363 . S
C1160 H1176 0.931 . S
C1161 C1160 1.370 . S
C1161 C1165 1.408 . S
C1162 C1160 1.363 . S
C1162 C1163 1.370 . S
C1162 C1166 1.524 . S
C1163 C1155 1.503 1_554 S
C1163 C1162 1.370 . S
C1163 C1164 1.403 . S
C1164 C1163 1.403 . S
C1164 C1165 1.404 . S
C1164 C1167 1.539 . S
C1165 C1161 1.408 . S
C1165 C1164 1.404 . S
C1165 H1177 0.930 . S
C1166 C1162 1.524 . S
C1166 H1178 0.956 . S
C1166 H1179 0.961 . S
C1166 H1180 0.961 . S
C1167 C1164 1.539 . S
C1167 H1181 0.958 . S
C1167 H1182 0.961 . S
C1167 H1183 0.960 . S
H1168 C1152 0.931 . S
H1169 C1157 0.929 . S
H1170 C1158 0.960 1_554 S
H1171 C1158 0.962 1_554 S
H1172 C1158 0.960 . S
H1173 C1159 0.961 1_556 S
H1174 C1159 0.961 . S
H1175 C1159 0.961 . S
H1176 C1160 0.931 . S
H1177 C1165 0.930 . S
H1178 C1166 0.956 . S
H1179 C1166 0.961 . S
H1180 C1166 0.961 . S
H1181 C1167 0.958 . S
H1182 C1167 0.961 . S
H1183 C1167 0.960 . S
C1184 C1185 1.391 . S
C1184 C1186 1.394 . S
C1184 H1200 0.931 . S
C1185 C1184 1.391 . S
C1185 C1189 1.376 . S
C1186 C1184 1.394 . S
C1186 C1187 1.369 . S
C1186 C1190 1.531 . S
C1187 C1186 1.369 . S
C1187 C1188 1.410 . S
C1187 C1195 1.503 . S
C1188 C1187 1.410 . S
C1188 C1189 1.392 . S
C1188 C1191 1.511 . S
C1189 C1185 1.376 . S
C1189 C1188 1.392 . S
C1189 H1201 0.929 . S
C1190 C1186 1.531 . S
C1190 H1202 0.960 . S
C1190 H1203 0.962 . S
C1190 H1204 0.960 . S
C1191 C1188 1.511 . S
C1191 H1205 0.961 . S
C1191 H1206 0.961 . S
C1191 H1207 0.961 . S
C1192 C1193 1.370 . S
C1192 C1194 1.363 . S
C1192 H1208 0.931 . S
C1193 C1192 1.370 . S
C1193 C1197 1.408 . S
C1194 C1192 1.363 . S
C1194 C1195 1.370 . S
C1194 C1198 1.524 . S
C1195 C1187 1.503 . S
C1195 C1194 1.370 . S
C1195 C1196 1.403 . S
C1196 C1195 1.403 . S
C1196 C1197 1.404 . S
C1196 C1199 1.539 . S
C1197 C1193 1.408 . S
C1197 C1196 1.404 . S
C1197 H1209 0.930 . S
C1198 C1194 1.524 . S
C1198 H1210 0.956 . S
C1198 H1211 0.961 . S
C1198 H1212 0.961 . S
C1199 C1196 1.539 . S
C1199 H1213 0.958 . S
C1199 H1214 0.961 . S
C1199 H1215 0.960 . S
H1200 C1184 0.931 . S
H1201 C1189 0.929 . S
H1202 C1190 0.960 . S
H1203 C1190 0.962 . S
H1204 C1190 0.960 . S
H1205 C1191 0.961 . S
H1206 C1191 0.961 . S
H1207 C1191 0.961 . S
H1208 C1192 0.931 . S
H1209 C1197 0.930 . S
H1210 C1198 0.956 . S
H1211 C1198 0.961 . S
H1212 C1198 0.961 . S
H1213 C1199 0.958 . S
H1214 C1199 0.961 . S
H1215 C1199 0.960 . S
C1216 C1217 1.391 . S
C1216 C1218 1.394 . S
C1216 H1232 0.931 . S
C1217 C1216 1.391 . S
C1217 C1221 1.376 . S
C1218 C1216 1.394 . S
C1218 C1219 1.369 . S
C1218 C1222 1.531 . S
C1219 C1218 1.369 . S
C1219 C1220 1.410 . S
C1219 C1227 1.503 . S
C1220 C1219 1.410 . S
C1220 C1221 1.392 . S
C1220 C1223 1.511 . S
C1221 C1217 1.376 . S
C1221 C1220 1.392 . S
C1221 H1233 0.929 . S
C1222 C1218 1.531 . S
C1222 H1234 0.960 . S
C1222 H1235 0.962 . S
C1222 H1236 0.960 . S
C1223 C1220 1.511 . S
C1223 H1237 0.961 . S
C1223 H1238 0.961 . S
C1223 H1239 0.961 . S
C1224 C1225 1.370 . S
C1224 C1226 1.363 . S
C1224 H1240 0.931 . S
C1225 C1224 1.370 . S
C1225 C1229 1.408 . S
C1226 C1224 1.363 . S
C1226 C1227 1.370 . S
C1226 C1230 1.524 . S
C1227 C1219 1.503 . S
C1227 C1226 1.370 . S
C1227 C1228 1.403 . S
C1228 C1227 1.403 . S
C1228 C1229 1.404 . S
C1228 C1231 1.539 . S
C1229 C1225 1.408 . S
C1229 C1228 1.404 . S
C1229 H1241 0.930 . S
C1230 C1226 1.524 . S
C1230 H1242 0.956 . S
C1230 H1243 0.961 . S
C1230 H1244 0.961 . S
C1231 C1228 1.539 . S
C1231 H1245 0.958 . S
C1231 H1246 0.961 . S
C1231 H1247 0.960 . S
H1232 C1216 0.931 . S
H1233 C1221 0.929 . S
H1234 C1222 0.960 . S
H1235 C1222 0.962 . S
H1236 C1222 0.960 . S
H1237 C1223 0.961 . S
H1238 C1223 0.961 . S
H1239 C1223 0.961 . S
H1240 C1224 0.931 . S
H1241 C1229 0.930 . S
H1242 C1230 0.956 . S
H1243 C1230 0.961 . S
H1244 C1230 0.961 . S
H1245 C1231 0.958 . S
H1246 C1231 0.961 . S
H1247 C1231 0.960 . S
C1248 C1249 1.391 . S
C1248 C1250 1.394 . S
C1248 H1264 0.931 . S
C1249 C1248 1.391 . S
C1249 C1253 1.376 . S
C1250 C1248 1.394 . S
C1250 C1251 1.369 . S
C1250 C1254 1.531 . S
C1251 C1250 1.369 . S
C1251 C1252 1.410 . S
C1251 C1259 1.503 . S
C1252 C1251 1.410 . S
C1252 C1253 1.392 . S
C1252 C1255 1.511 . S
C1253 C1249 1.376 . S
C1253 C1252 1.392 . S
C1253 H1265 0.929 . S
C1254 C1250 1.531 . S
C1254 H1266 0.960 . S
C1254 H1267 0.962 . S
C1254 H1268 0.960 . S
C1255 C1252 1.511 . S
C1255 H1269 0.961 . S
C1255 H1270 0.961 . S
C1255 H1271 0.961 . S
C1256 C1257 1.370 . S
C1256 C1258 1.363 . S
C1256 H1272 0.931 . S
C1257 C1256 1.370 . S
C1257 C1261 1.408 . S
C1258 C1256 1.363 . S
C1258 C1259 1.370 . S
C1258 C1262 1.524 . S
C1259 C1251 1.503 . S
C1259 C1258 1.370 . S
C1259 C1260 1.403 . S
C1260 C1259 1.403 . S
C1260 C1261 1.404 . S
C1260 C1263 1.539 . S
C1261 C1257 1.408 . S
C1261 C1260 1.404 . S
C1261 H1273 0.930 . S
C1262 C1258 1.524 . S
C1262 H1274 0.956 . S
C1262 H1275 0.961 . S
C1262 H1276 0.961 . S
C1263 C1260 1.539 . S
C1263 H1277 0.958 . S
C1263 H1278 0.961 . S
C1263 H1279 0.960 . S
H1264 C1248 0.931 . S
H1265 C1253 0.929 . S
H1266 C1254 0.960 . S
H1267 C1254 0.962 . S
H1268 C1254 0.960 . S
H1269 C1255 0.961 . S
H1270 C1255 0.961 . S
H1271 C1255 0.961 . S
H1272 C1256 0.931 . S
H1273 C1261 0.930 . S
H1274 C1262 0.956 . S
H1275 C1262 0.961 . S
H1276 C1262 0.961 . S
H1277 C1263 0.958 . S
H1278 C1263 0.961 . S
H1279 C1263 0.960 . S
C1280 C1281 1.391 . S
C1280 C1282 1.394 . S
C1280 H1296 0.931 . S
C1281 C1280 1.391 . S
C1281 C1285 1.376 . S
C1282 C1280 1.394 . S
C1282 C1283 1.369 . S
C1282 C1286 1.531 . S
C1283 C1282 1.369 . S
C1283 C1284 1.410 . S
C1283 C1291 1.503 . S
C1284 C1283 1.410 . S
C1284 C1285 1.392 . S
C1284 C1287 1.511 . S
C1285 C1281 1.376 . S
C1285 C1284 1.392 . S
C1285 H1297 0.929 . S
C1286 C1282 1.531 . S
C1286 H1298 0.960 . S
C1286 H1299 0.962 . S
C1286 H1300 0.960 . S
C1287 C1284 1.511 . S
C1287 H1301 0.961 . S
C1287 H1302 0.961 . S
C1287 H1303 0.961 . S
C1288 C1289 1.370 . S
C1288 C1290 1.363 . S
C1288 H1304 0.931 . S
C1289 C1288 1.370 . S
C1289 C1293 1.408 . S
C1290 C1288 1.363 . S
C1290 C1291 1.370 . S
C1290 C1294 1.524 . S
C1291 C1283 1.503 . S
C1291 C1290 1.370 . S
C1291 C1292 1.403 . S
C1292 C1291 1.403 . S
C1292 C1293 1.404 . S
C1292 C1295 1.539 . S
C1293 C1289 1.408 . S
C1293 C1292 1.404 . S
C1293 H1305 0.930 . S
C1294 C1290 1.524 . S
C1294 H1306 0.956 . S
C1294 H1307 0.961 . S
C1294 H1308 0.961 . S
C1295 C1292 1.539 . S
C1295 H1309 0.958 . S
C1295 H1310 0.961 . S
C1295 H1311 0.960 . S
H1296 C1280 0.931 . S
H1297 C1285 0.929 . S
H1298 C1286 0.960 . S
H1299 C1286 0.962 . S
H1300 C1286 0.960 . S
H1301 C1287 0.961 . S
H1302 C1287 0.961 . S
H1303 C1287 0.961 . S
H1304 C1288 0.931 . S
H1305 C1293 0.930 . S
H1306 C1294 0.956 . S
H1307 C1294 0.961 . S
H1308 C1294 0.961 . S
H1309 C1295 0.958 . S
H1310 C1295 0.961 . S
H1311 C1295 0.960 . S
C1312 C1313 1.391 . S
C1312 C1314 1.394 . S
C1312 H1328 0.931 . S
C1313 C1312 1.391 . S
C1313 C1317 1.376 . S
C1314 C1312 1.394 . S
C1314 C1315 1.369 . S
C1314 C1318 1.531 . S
C1315 C1314 1.369 . S
C1315 C1316 1.410 . S
C1315 C1323 1.503 1_455 S
C1316 C1315 1.410 . S
C1316 C1317 1.392 . S
C1316 C1319 1.511 1_455 S
C1317 C1313 1.376 . S
C1317 C1316 1.392 . S
C1317 H1329 0.929 . S
C1318 C1314 1.531 . S
C1318 H1330 0.960 . S
C1318 H1331 0.962 . S
C1318 H1332 0.960 . S
C1319 C1316 1.511 1_655 S
C1319 H1333 0.974 . S
C1319 H1334 0.961 . S
C1319 H1335 0.961 . S
C1320 C1321 1.370 . S
C1320 C1322 1.363 . S
C1320 H1336 0.931 . S
C1321 C1320 1.370 . S
C1321 C1325 1.408 . S
C1322 C1320 1.363 . S
C1322 C1323 1.370 . S
C1322 C1326 1.506 1_655 S
C1323 C1315 1.503 1_655 S
C1323 C1322 1.370 . S
C1323 C1324 1.403 . S
C1324 C1323 1.403 . S
C1324 C1325 1.404 . S
C1324 C1327 1.539 . S
C1325 C1321 1.408 . S
C1325 C1324 1.404 . S
C1325 H1337 0.930 . S
C1326 C1322 1.506 1_455 S
C1326 H1338 0.973 . S
C1326 H1339 0.983 . S
C1326 H1340 0.940 1_455 S
C1327 C1324 1.539 . S
C1327 H1341 0.958 . S
C1327 H1342 0.961 . S
C1327 H1343 0.960 . S
H1328 C1312 0.931 . S
H1329 C1317 0.929 . S
H1330 C1318 0.960 . S
H1331 C1318 0.962 . S
H1332 C1318 0.960 . S
H1333 C1319 0.974 . S
H1334 C1319 0.961 . S
H1335 C1319 0.961 . S
H1336 C1320 0.931 . S
H1337 C1325 0.930 . S
H1338 C1326 0.973 . S
H1339 C1326 0.983 . S
H1340 C1326 0.940 1_655 S
H1341 C1327 0.958 . S
H1342 C1327 0.961 . S
H1343 C1327 0.960 . S
C1344 C1345 1.391 . S
C1344 C1346 1.394 . S
C1344 H1360 0.931 . S
C1345 C1344 1.391 . S
C1345 C1349 1.376 . S
C1346 C1344 1.394 . S
C1346 C1347 1.369 . S
C1346 C1350 1.531 . S
C1347 C1346 1.369 . S
C1347 C1348 1.410 . S
C1347 C1355 1.503 1_655 S
C1348 C1347 1.410 . S
C1348 C1349 1.392 . S
C1348 C1351 1.511 . S
C1349 C1345 1.376 . S
C1349 C1348 1.392 . S
C1349 H1361 0.929 . S
C1350 C1346 1.531 . S
C1350 H1362 0.960 1_655 S
C1350 H1363 0.962 . S
C1350 H1364 0.960 . S
C1351 C1348 1.511 . S
C1351 H1365 0.961 . S
C1351 H1366 0.961 . S
C1351 H1367 0.961 . S
C1352 C1353 1.370 . S
C1352 C1354 1.363 . S
C1352 H1368 0.931 . S
C1353 C1352 1.370 . S
C1353 C1357 1.408 . S
C1354 C1352 1.363 . S
C1354 C1355 1.370 . S
C1354 C1358 1.524 1_455 S
C1355 C1347 1.503 1_455 S
C1355 C1354 1.370 . S
C1355 C1356 1.403 . S
C1356 C1355 1.403 . S
C1356 C1357 1.404 . S
C1356 C1359 1.539 . S
C1357 C1353 1.408 . S
C1357 C1356 1.404 . S
C1357 H1369 0.930 . S
C1358 C1354 1.524 1_655 S
C1358 H1370 0.956 . S
C1358 H1371 0.961 . S
C1358 H1372 0.961 . S
C1359 C1356 1.539 . S
C1359 H1373 0.958 . S
C1359 H1374 0.961 . S
C1359 H1375 0.960 . S
H1360 C1344 0.931 . S
H1361 C1349 0.929 . S
H1362 C1350 0.960 1_455 S
H1363 C1350 0.962 . S
H1364 C1350 0.960 . S
H1365 C1351 0.961 . S
H1366 C1351 0.961 . S
H1367 C1351 0.961 . S
H1368 C1352 0.931 . S
H1369 C1357 0.930 . S
H1370 C1358 0.956 . S
H1371 C1358 0.961 . S
H1372 C1358 0.961 . S
H1373 C1359 0.958 . S
H1374 C1359 0.961 . S
H1375 C1359 0.960 . S
C1376 C1377 1.391 . S
C1376 C1378 1.394 . S
C1376 H1392 0.931 . S
C1377 C1376 1.391 . S
C1377 C1381 1.376 . S
C1378 C1376 1.394 . S
C1378 C1379 1.369 . S
C1378 C1382 1.531 . S
C1379 C1378 1.369 . S
C1379 C1380 1.410 . S
C1379 C1387 1.503 . S
C1380 C1379 1.410 . S
C1380 C1381 1.392 . S
C1380 C1383 1.511 . S
C1381 C1377 1.376 . S
C1381 C1380 1.392 . S
C1381 H1393 0.929 . S
C1382 C1378 1.531 . S
C1382 H1394 0.960 . S
C1382 H1395 0.962 . S
C1382 H1396 0.960 . S
C1383 C1380 1.511 . S
C1383 H1397 0.961 . S
C1383 H1398 0.961 . S
C1383 H1399 0.961 1_556 S
C1384 C1385 1.370 . S
C1384 C1386 1.363 . S
C1384 H1400 0.931 . S
C1385 C1384 1.370 . S
C1385 C1389 1.408 . S
C1386 C1384 1.363 . S
C1386 C1387 1.370 . S
C1386 C1390 1.524 . S
C1387 C1379 1.503 . S
C1387 C1386 1.370 . S
C1387 C1388 1.403 . S
C1388 C1387 1.403 . S
C1388 C1389 1.404 . S
C1388 C1391 1.539 . S
C1389 C1385 1.408 . S
C1389 C1388 1.404 . S
C1389 H1401 0.930 . S
C1390 C1386 1.524 . S
C1390 H1402 0.956 . S
C1390 H1403 0.961 . S
C1390 H1404 0.961 . S
C1391 C1388 1.539 . S
C1391 H1405 0.958 . S
C1391 H1406 0.961 . S
C1391 H1407 0.960 . S
H1392 C1376 0.931 . S
H1393 C1381 0.929 . S
H1394 C1382 0.960 . S
H1395 C1382 0.962 . S
H1396 C1382 0.960 . S
H1397 C1383 0.961 . S
H1398 C1383 0.961 . S
H1399 C1383 0.961 1_554 S
H1400 C1384 0.931 . S
H1401 C1389 0.930 . S
H1402 C1390 0.956 . S
H1403 C1390 0.961 . S
H1404 C1390 0.961 . S
H1405 C1391 0.958 . S
H1406 C1391 0.961 . S
H1407 C1391 0.960 . S
C1408 C1409 1.391 . S
C1408 C1410 1.394 . S
C1408 H1424 0.931 . S
C1409 C1408 1.391 . S
C1409 C1413 1.376 . S
C1410 C1408 1.394 . S
C1410 C1411 1.369 . S
C1410 C1414 1.531 . S
C1411 C1410 1.369 . S
C1411 C1412 1.410 . S
C1411 C1419 1.503 . S
C1412 C1411 1.410 . S
C1412 C1413 1.392 . S
C1412 C1415 1.511 . S
C1413 C1409 1.376 . S
C1413 C1412 1.392 . S
C1413 H1425 0.929 . S
C1414 C1410 1.531 . S
C1414 H1426 0.960 . S
C1414 H1427 0.962 . S
C1414 H1428 0.960 . S
C1415 C1412 1.511 . S
C1415 H1429 0.961 . S
C1415 H1430 0.961 . S
C1415 H1431 0.961 . S
C1416 C1417 1.370 . S
C1416 C1418 1.363 . S
C1416 H1432 0.931 . S
C1417 C1416 1.370 . S
C1417 C1421 1.408 . S
C1418 C1416 1.363 . S
C1418 C1419 1.370 . S
C1418 C1422 1.524 . S
C1419 C1411 1.503 . S
C1419 C1418 1.370 . S
C1419 C1420 1.403 . S
C1420 C1419 1.403 . S
C1420 C1421 1.404 . S
C1420 C1423 1.539 1_554 S
C1421 C1417 1.408 . S
C1421 C1420 1.404 . S
C1421 H1433 0.930 . S
C1422 C1418 1.524 . S
C1422 H1434 0.956 . S
C1422 H1435 0.961 . S
C1422 H1436 0.961 . S
C1423 C1420 1.539 1_556 S
C1423 H1437 0.958 . S
C1423 H1438 0.961 . S
C1423 H1439 0.960 . S
H1424 C1408 0.931 . S
H1425 C1413 0.929 . S
H1426 C1414 0.960 . S
H1427 C1414 0.962 . S
H1428 C1414 0.960 . S
H1429 C1415 0.961 . S
H1430 C1415 0.961 . S
H1431 C1415 0.961 . S
H1432 C1416 0.931 . S
H1433 C1421 0.930 . S
H1434 C1422 0.956 . S
H1435 C1422 0.961 . S
H1436 C1422 0.961 . S
H1437 C1423 0.958 . S
H1438 C1423 0.961 . S
H1439 C1423 0.960 . S
C673 C70 1.505 . S
C681 C646 1.457 . S
C705 C562 1.419 . S
C713 C154 1.490 . S
C737 C490 1.419 . S
C745 C226 1.489 . S
C769 C406 1.432 . S
C777 C310 1.483 . S
C801 C242 1.519 . S
C809 C74 1.560 . S
C833 C158 1.540 . S
C841 C326 1.481 . S
C865 C315 1.552 . S
C873 C147 1.485 . S
C897 C231 1.542 . S
C905 C63 1.496 . S
C929 C410 1.493 . S
C937 C578 1.481 . S
C961 C494 1.449 . S
C969 C662 1.462 . S
C993 C651 1.439 . S
C1001 C483 1.464 . S
C1025 C567 1.468 . S
C1033 C399 1.465 . S
C1057 C56 1.860 . S
C1065 C67 1.889 . S
C1089 C140 1.855 . S
C1097 C151 1.893 . S
C1121 C224 1.856 . S
C1129 C235 1.892 . S
C1153 C319 1.890 . S
C1161 C308 1.876 . S
C1185 C403 1.895 . S
C1193 C392 1.877 . S
C1217 C476 1.901 . S
C1225 C487 1.873 . S
C1249 C571 1.878 . S
C1257 C560 1.884 . S
C1281 C655 1.899 . S
C1289 C644 1.874 . S
C1313 C58 1.743 . S
C1321 C142 1.767 . S
C1345 C322 1.712 . S
C1353 C238 1.767 . S
C1377 C394 1.699 . S
C1385 C478 1.752 . S
C1409 C658 1.732 . S
C1417 C574 1.737 . S
