# Generated by pormake.
# Topology zfq, (5)-cn, num edge types: 1
# Building blocks:
#     Node 0, Type 0, BuildingBlock: BEQFEK_clean_sbu_0, # of connection points: 5
#     Node 1, Type 0, BuildingBlock: BEQFEK_clean_sbu_0, # of connection points: 5
#     Node 2, Type 0, BuildingBlock: BEQFEK_clean_sbu_0, # of connection points: 5
#     Node 3, Type 0, BuildingBlock: BEQFEK_clean_sbu_0, # of connection points: 5
#     Node 4, Type 0, BuildingBlock: BEQFEK_clean_sbu_0, # of connection points: 5
#     Node 5, Type 0, BuildingBlock: BEQFEK_clean_sbu_0, # of connection points: 5
#     Node 6, Type 0, BuildingBlock: BEQFEK_clean_sbu_0, # of connection points: 5
#     Node 7, Type 0, BuildingBlock: BEQFEK_clean_sbu_0, # of connection points: 5
#     Node 8, Type 0, BuildingBlock: BEQFEK_clean_sbu_0, # of connection points: 5
#     Node 9, Type 0, BuildingBlock: BEQFEK_clean_sbu_0, # of connection points: 5
#     Node 10, Type 0, BuildingBlock: BEQFEK_clean_sbu_0, # of connection points: 5
#     Node 11, Type 0, BuildingBlock: BEQFEK_clean_sbu_0, # of connection points: 5
#     Node 12, Type 0, BuildingBlock: BEQFEK_clean_sbu_0, # of connection points: 5
#     Node 13, Type 0, BuildingBlock: BEQFEK_clean_sbu_0, # of connection points: 5
#     Node 14, Type 0, BuildingBlock: BEQFEK_clean_sbu_0, # of connection points: 5
#     Node 15, Type 0, BuildingBlock: BEQFEK_clean_sbu_0, # of connection points: 5
#     Edge 16, Type (0, 0), BuildingBlock: AJUNOK_clean_linker_0, # of connection points: 2
#     Edge 17, Type (0, 0), BuildingBlock: AJUNOK_clean_linker_0, # of connection points: 2
#     Edge 18, Type (0, 0), BuildingBlock: AJUNOK_clean_linker_0, # of connection points: 2
#     Edge 19, Type (0, 0), BuildingBlock: AJUNOK_clean_linker_0, # of connection points: 2
#     Edge 20, Type (0, 0), BuildingBlock: AJUNOK_clean_linker_0, # of connection points: 2
#     Edge 21, Type (0, 0), BuildingBlock: AJUNOK_clean_linker_0, # of connection points: 2
#     Edge 22, Type (0, 0), BuildingBlock: AJUNOK_clean_linker_0, # of connection points: 2
#     Edge 23, Type (0, 0), BuildingBlock: AJUNOK_clean_linker_0, # of connection points: 2
#     Edge 24, Type (0, 0), BuildingBlock: AJUNOK_clean_linker_0, # of connection points: 2
#     Edge 25, Type (0, 0), BuildingBlock: AJUNOK_clean_linker_0, # of connection points: 2
#     Edge 26, Type (0, 0), BuildingBlock: AJUNOK_clean_linker_0, # of connection points: 2
#     Edge 27, Type (0, 0), BuildingBlock: AJUNOK_clean_linker_0, # of connection points: 2
#     Edge 28, Type (0, 0), BuildingBlock: AJUNOK_clean_linker_0, # of connection points: 2
#     Edge 29, Type (0, 0), BuildingBlock: AJUNOK_clean_linker_0, # of connection points: 2
#     Edge 30, Type (0, 0), BuildingBlock: AJUNOK_clean_linker_0, # of connection points: 2
#     Edge 31, Type (0, 0), BuildingBlock: AJUNOK_clean_linker_0, # of connection points: 2
#     Edge 32, Type (0, 0), BuildingBlock: AJUNOK_clean_linker_0, # of connection points: 2
#     Edge 33, Type (0, 0), BuildingBlock: AJUNOK_clean_linker_0, # of connection points: 2
#     Edge 34, Type (0, 0), BuildingBlock: AJUNOK_clean_linker_0, # of connection points: 2
#     Edge 35, Type (0, 0), BuildingBlock: AJUNOK_clean_linker_0, # of connection points: 2
#     Edge 36, Type (0, 0), BuildingBlock: AJUNOK_clean_linker_0, # of connection points: 2
#     Edge 37, Type (0, 0), BuildingBlock: AJUNOK_clean_linker_0, # of connection points: 2
#     Edge 38, Type (0, 0), BuildingBlock: AJUNOK_clean_linker_0, # of connection points: 2
#     Edge 39, Type (0, 0), BuildingBlock: AJUNOK_clean_linker_0, # of connection points: 2
#     Edge 40, Type (0, 0), BuildingBlock: AJUNOK_clean_linker_0, # of connection points: 2
#     Edge 41, Type (0, 0), BuildingBlock: AJUNOK_clean_linker_0, # of connection points: 2
#     Edge 42, Type (0, 0), BuildingBlock: AJUNOK_clean_linker_0, # of connection points: 2
#     Edge 43, Type (0, 0), BuildingBlock: AJUNOK_clean_linker_0, # of connection points: 2
#     Edge 44, Type (0, 0), BuildingBlock: AJUNOK_clean_linker_0, # of connection points: 2
#     Edge 45, Type (0, 0), BuildingBlock: AJUNOK_clean_linker_0, # of connection points: 2
#     Edge 46, Type (0, 0), BuildingBlock: AJUNOK_clean_linker_0, # of connection points: 2
#     Edge 47, Type (0, 0), BuildingBlock: AJUNOK_clean_linker_0, # of connection points: 2
#     Edge 48, Type (0, 0), BuildingBlock: AJUNOK_clean_linker_0, # of connection points: 2
#     Edge 49, Type (0, 0), BuildingBlock: AJUNOK_clean_linker_0, # of connection points: 2
#     Edge 50, Type (0, 0), BuildingBlock: AJUNOK_clean_linker_0, # of connection points: 2
#     Edge 51, Type (0, 0), BuildingBlock: AJUNOK_clean_linker_0, # of connection points: 2
#     Edge 52, Type (0, 0), BuildingBlock: AJUNOK_clean_linker_0, # of connection points: 2
#     Edge 53, Type (0, 0), BuildingBlock: AJUNOK_clean_linker_0, # of connection points: 2
#     Edge 54, Type (0, 0), BuildingBlock: AJUNOK_clean_linker_0, # of connection points: 2
#     Edge 55, Type (0, 0), BuildingBlock: AJUNOK_clean_linker_0, # of connection points: 2
# Relax obj value: 0.105
# Max RMSD: 0.174
# Mean RMSD: 0.174
data_MOF--net-zfq--node1-BEQFEK_clean_sbu_0--edge1-AJUNOK_clean_linker_0
_symmetry_space_group_name_H-M    P1
_symmetry_Int_Tables_number       1
_symmetry_cell_setting            triclinic
loop_
_symmetry_equiv_pos_as_xyz
'x, y, z'
_cell_length_a     21.996976
_cell_length_b     21.979551
_cell_length_c     60.788622
_cell_angle_alpha  90.049134
_cell_angle_beta   89.995245
_cell_angle_gamma 89.917681
loop_
_atom_site_label
_atom_site_type_symbol
_atom_site_fract_x
_atom_site_fract_y
_atom_site_fract_z
_atom_type_partial_charge
Co0 Co 0.17234 0.16397 0.16287 0.0
Co1 Co 0.16866 0.17259 0.1111 0.0
C2 C 0.09503 0.25612 0.13831 0.0
O3 O 0.11536 0.23086 0.1557 0.0
O4 O 0.11511 0.24165 0.11934 0.0
C5 C 0.14758 0.17694 0.20894 0.0
O6 O 0.09285 0.19053 0.20182 0.0
C7 C 0.18693 0.21714 0.06582 0.0
C8 C 0.20004 0.13085 0.04773 0.0
C9 C 0.20003 0.19343 0.04516 0.0
N10 N 0.18055 0.1706 0.07998 0.0
N11 N 0.18771 0.11917 0.069 0.0
C12 C 0.17741 0.28246 0.07193 0.0
H13 H 0.13039 0.28821 0.07818 0.0
H14 H 0.20868 0.29518 0.08548 0.0
H15 H 0.18395 0.31323 0.05768 0.0
C16 C 0.30339 0.16695 0.15459 0.0
N17 N 0.24579 0.16733 0.14725 0.0
N18 N 0.24559 0.17339 0.12574 0.0
C19 C 0.30372 0.17856 0.11875 0.0
C20 C 0.34233 0.17485 0.13687 0.0
C21 C 0.32053 0.15841 0.17823 0.0
H22 H 0.29592 0.11858 0.185 0.0
H23 H 0.30649 0.19911 0.18779 0.0
H24 H 0.37017 0.15112 0.18019 0.0
O25 O 0.12702 0.09081 0.15539 0.0
O26 O 0.11957 0.09946 0.11907 0.0
H27 H 0.30648 0.15344 0.08479 0.0
H28 H 0.37117 0.19776 0.0936 0.0
C29 C 0.32146 0.19151 0.09546 0.0
H30 H 0.2982 0.2334 0.08984 0.0
H31 H 0.18565 0.07609 0.07615 0.0
O32 O 0.18861 0.16394 0.19499 0.0
C33 C 0.10617 0.07256 0.13702 0.0
Co34 Co 0.15833 0.8238 0.8451 0.0
Co35 Co 0.17036 0.82832 0.89691 0.0
C36 C 0.25256 0.90035 0.86856 0.0
O37 O 0.22772 0.87743 0.85156 0.0
O38 O 0.23846 0.88238 0.88785 0.0
C39 C 0.19599 0.8217 0.79957 0.0
O40 O 0.24777 0.84253 0.80723 0.0
C41 C 0.2131 0.81423 0.94336 0.0
C42 C 0.12646 0.79115 0.95966 0.0
C43 C 0.18806 0.79833 0.96363 0.0
N44 N 0.1683 0.81558 0.92822 0.0
N45 N 0.11665 0.80233 0.9382 0.0
C46 C 0.27808 0.82908 0.93846 0.0
H47 H 0.28061 0.86644 0.92628 0.0
H48 H 0.30067 0.78854 0.93125 0.0
H49 H 0.3027 0.84287 0.95359 0.0
C50 C 0.15464 0.69302 0.8536 0.0
N51 N 0.15943 0.75065 0.86072 0.0
N52 N 0.16906 0.7511 0.88204 0.0
C53 C 0.1734 0.69289 0.88906 0.0
C54 C 0.16375 0.65387 0.87123 0.0
C55 C 0.13992 0.67637 0.83031 0.0
H56 H 0.10372 0.70687 0.82398 0.0
H57 H 0.18093 0.68281 0.81994 0.0
H58 H 0.12431 0.62852 0.82896 0.0
O59 O 0.08846 0.87264 0.85314 0.0
O60 O 0.09738 0.87919 0.88941 0.0
H61 H 0.15287 0.67801 0.92297 0.0
H62 H 0.21195 0.62891 0.9123 0.0
C63 C 0.19271 0.67555 0.91181 0.0
H64 H 0.22749 0.70789 0.91783 0.0
H65 H 0.07474 0.79958 0.93022 0.0
O66 O 0.15326 0.80986 0.81295 0.0
C67 C 0.0711 0.89416 0.87147 0.0
Co68 Co 0.82662 0.82285 0.16511 0.0
Co69 Co 0.81841 0.82778 0.11327 0.0
C70 C 0.89389 0.73532 0.13522 0.0
O71 O 0.88033 0.75544 0.15431 0.0
O72 O 0.86695 0.75439 0.11803 0.0
C73 C 0.80019 0.77383 0.20861 0.0
O74 O 0.78485 0.72416 0.19794 0.0
C75 C 0.79491 0.79347 0.06726 0.0
C76 C 0.78032 0.88325 0.05178 0.0
C77 C 0.78073 0.82137 0.04743 0.0
N78 N 0.80186 0.83691 0.08264 0.0
N79 N 0.79373 0.89048 0.07323 0.0
C80 C 0.80473 0.72708 0.07152 0.0
H81 H 0.85254 0.71988 0.07671 0.0
H82 H 0.77519 0.71205 0.08526 0.0
H83 H 0.79608 0.69893 0.05671 0.0
C84 C 0.69206 0.83056 0.15969 0.0
N85 N 0.74883 0.82802 0.15138 0.0
N86 N 0.74544 0.82771 0.12978 0.0
C87 C 0.68647 0.8276 0.12368 0.0
C88 C 0.65045 0.82947 0.14245 0.0
C89 C 0.67782 0.83702 0.18366 0.0
H90 H 0.71077 0.86841 0.19151 0.0
H91 H 0.68171 0.79206 0.19178 0.0
H92 H 0.63096 0.85455 0.18616 0.0
O93 O 0.87583 0.89441 0.15823 0.0
O94 O 0.87449 0.89454 0.12169 0.0
H95 H 0.67625 0.86213 0.09103 0.0
H96 H 0.61602 0.81126 0.09927 0.0
C97 C 0.66545 0.82024 0.1004 0.0
H98 H 0.68995 0.78174 0.09268 0.0
H99 H 0.79634 0.93194 0.08154 0.0
O100 O 0.81919 0.81955 0.19782 0.0
C101 C 0.89464 0.91498 0.1399 0.0
Co102 Co 0.81764 0.17896 0.84646 0.0
Co103 Co 0.81714 0.16677 0.89827 0.0
C104 C 0.7298 0.09844 0.86863 0.0
O105 O 0.74773 0.12551 0.85131 0.0
O106 O 0.75069 0.11212 0.88758 0.0
C107 C 0.82389 0.15766 0.80023 0.0
O108 O 0.82409 0.10086 0.8069 0.0
C109 C 0.76731 0.19224 0.94234 0.0
C110 C 0.84824 0.17871 0.9633 0.0
C111 C 0.78796 0.19704 0.96392 0.0
N112 N 0.81379 0.17355 0.92962 0.0
N113 N 0.86173 0.16472 0.94231 0.0
C114 C 0.70442 0.20315 0.93379 0.0
H115 H 0.69247 0.16738 0.92167 0.0
H116 H 0.70295 0.24741 0.92505 0.0
H117 H 0.67057 0.20329 0.94733 0.0
C118 C 0.8119 0.30946 0.85821 0.0
N119 N 0.81446 0.25018 0.86376 0.0
N120 N 0.81898 0.24539 0.88524 0.0
C121 C 0.82293 0.30165 0.89396 0.0
C122 C 0.8173 0.34433 0.87719 0.0
C123 C 0.80051 0.33168 0.83531 0.0
H124 H 0.77013 0.29964 0.8265 0.0
H125 H 0.77944 0.37755 0.83533 0.0
H126 H 0.8444 0.33387 0.82636 0.0
O127 O 0.88839 0.1263 0.85412 0.0
O128 O 0.89034 0.12095 0.89062 0.0
H129 H 0.85567 0.36129 0.91966 0.0
H130 H 0.79665 0.30926 0.92776 0.0
C131 C 0.83796 0.31437 0.91755 0.0
H132 H 0.87249 0.28142 0.92345 0.0
H133 H 0.90425 0.15083 0.93653 0.0
O134 O 0.82196 0.19972 0.81458 0.0
C135 C 0.91119 0.1055 0.8719 0.0
Co136 Co 0.83408 0.16379 0.66012 0.0
Co137 Co 0.83008 0.15781 0.60824 0.0
C138 C 0.90736 0.24816 0.63331 0.0
O139 O 0.88743 0.23279 0.65218 0.0
O140 O 0.88603 0.22513 0.61566 0.0
C141 C 0.83069 0.20421 0.70564 0.0
O142 O 0.84355 0.25792 0.69743 0.0
C143 C 0.80393 0.20269 0.56362 0.0
C144 C 0.7994 0.1168 0.54477 0.0
C145 C 0.79285 0.17922 0.54281 0.0
N146 N 0.81653 0.15618 0.57724 0.0
N147 N 0.8147 0.10507 0.56578 0.0
C148 C 0.79716 0.26726 0.57102 0.0
H149 H 0.78553 0.269 0.58878 0.0
H150 H 0.76177 0.29103 0.56123 0.0
H151 H 0.84103 0.29119 0.56862 0.0
C152 C 0.7001 0.17196 0.65305 0.0
N153 N 0.75748 0.16537 0.64553 0.0
N154 N 0.75608 0.15979 0.624 0.0
C155 C 0.69785 0.16068 0.6172 0.0
C156 C 0.66028 0.16935 0.63528 0.0
C157 C 0.68477 0.18578 0.6765 0.0
H158 H 0.71311 0.22428 0.68233 0.0
H159 H 0.63603 0.19739 0.6786 0.0
H160 H 0.69593 0.14564 0.6868 0.0
O161 O 0.88446 0.09207 0.65174 0.0
O162 O 0.87786 0.08593 0.61542 0.0
H163 H 0.62869 0.14356 0.59264 0.0
H164 H 0.6886 0.19461 0.58439 0.0
C165 C 0.6782 0.15274 0.59379 0.0
H166 H 0.70337 0.11432 0.58625 0.0
H167 H 0.82194 0.06197 0.57248 0.0
O168 O 0.82361 0.15945 0.69262 0.0
C169 C 0.89956 0.06729 0.63356 0.0
Co170 Co 0.17639 0.16964 0.34935 0.0
Co171 Co 0.15841 0.17093 0.40073 0.0
C172 C 0.25285 0.09269 0.37612 0.0
O173 O 0.2459 0.11722 0.35729 0.0
O174 O 0.22343 0.11152 0.3929 0.0
C175 C 0.20403 0.15982 0.30256 0.0
O176 O 0.2505 0.12628 0.3087 0.0
C177 C 0.20221 0.20033 0.44538 0.0
C178 C 0.11713 0.19564 0.46454 0.0
C179 C 0.17859 0.20875 0.46647 0.0
N180 N 0.15667 0.18385 0.43185 0.0
N181 N 0.10608 0.18058 0.44348 0.0
C182 C 0.26679 0.20648 0.43798 0.0
H183 H 0.27532 0.17759 0.42335 0.0
H184 H 0.27548 0.25439 0.4332 0.0
H185 H 0.29857 0.19363 0.45138 0.0
C186 C 0.18083 0.30285 0.35722 0.0
N187 N 0.17496 0.24517 0.36441 0.0
N188 N 0.16311 0.24582 0.38557 0.0
C189 C 0.15831 0.30394 0.39239 0.0
C190 C 0.16983 0.34246 0.37471 0.0
C191 C 0.20196 0.31865 0.33452 0.0
H192 H 0.16203 0.32129 0.32341 0.0
H193 H 0.23278 0.28264 0.32821 0.0
H194 H 0.22605 0.36297 0.33433 0.0
O195 O 0.10559 0.11775 0.3569 0.0
O196 O 0.08515 0.1266 0.39247 0.0
H197 H 0.10431 0.29097 0.42137 0.0
H198 H 0.12201 0.36946 0.4155 0.0
C199 C 0.13987 0.32222 0.41517 0.0
H200 H 0.1798 0.31931 0.42625 0.0
H201 H 0.06372 0.16929 0.43693 0.0
O202 O 0.16982 0.1831 0.31716 0.0
C203 C 0.07402 0.1036 0.37369 0.0
Co204 Co 0.18778 0.83081 0.65969 0.0
Co205 Co 0.18623 0.81918 0.60796 0.0
C206 C 0.11219 0.7374 0.63479 0.0
O207 O 0.13273 0.76355 0.65193 0.0
O208 O 0.13346 0.74904 0.61574 0.0
C209 C 0.1581 0.81382 0.70469 0.0
O210 O 0.10501 0.80041 0.69611 0.0
C211 C 0.2104 0.77937 0.56226 0.0
C212 C 0.21799 0.86813 0.54545 0.0
C213 C 0.22318 0.80602 0.54204 0.0
N214 N 0.19845 0.82388 0.57687 0.0
N215 N 0.20205 0.87669 0.56659 0.0
C216 C 0.21503 0.71351 0.56822 0.0
H217 H 0.22327 0.70827 0.58614 0.0
H218 H 0.25184 0.691 0.55872 0.0
H219 H 0.17143 0.69074 0.56422 0.0
C220 C 0.31911 0.83148 0.65209 0.0
N221 N 0.26187 0.82906 0.64446 0.0
N222 N 0.26271 0.82182 0.623 0.0
C223 C 0.3213 0.8186 0.61633 0.0
C224 C 0.35903 0.8244 0.63461 0.0
C225 C 0.33497 0.83978 0.67586 0.0
H226 H 0.32201 0.7983 0.68513 0.0
H227 H 0.38426 0.84853 0.67811 0.0
H228 H 0.30861 0.87848 0.68271 0.0
O229 O 0.13976 0.90281 0.65227 0.0
O230 O 0.13361 0.88921 0.61615 0.0
H231 H 0.32141 0.84072 0.58208 0.0
H232 H 0.39081 0.80524 0.59143 0.0
C233 C 0.34067 0.80571 0.59319 0.0
H234 H 0.3228 0.76079 0.5881 0.0
H235 H 0.19599 0.91879 0.57425 0.0
O236 O 0.20127 0.82896 0.69194 0.0
C237 C 0.11775 0.91718 0.63362 0.0
Co238 Co 0.82222 0.82535 0.34741 0.0
Co239 Co 0.82989 0.81793 0.39933 0.0
C240 C 0.73628 0.89418 0.37714 0.0
O241 O 0.7538 0.87807 0.35797 0.0
O242 O 0.7592 0.87083 0.39444 0.0
C243 C 0.77411 0.79797 0.30374 0.0
O244 O 0.72448 0.78166 0.3142 0.0
C245 C 0.79638 0.78948 0.44527 0.0
C246 C 0.887 0.77878 0.46043 0.0
C247 C 0.82535 0.77417 0.4648 0.0
N248 N 0.83905 0.80165 0.43003 0.0
N249 N 0.89307 0.7962 0.43934 0.0
C250 C 0.72966 0.78728 0.44056 0.0
H251 H 0.72139 0.78313 0.42261 0.0
H252 H 0.70824 0.74858 0.44934 0.0
H253 H 0.70826 0.82998 0.4465 0.0
C254 C 0.82986 0.69069 0.353 0.0
N255 N 0.82726 0.74761 0.36126 0.0
N256 N 0.82787 0.74447 0.38287 0.0
C257 C 0.82904 0.68544 0.38901 0.0
C258 C 0.83033 0.6493 0.37028 0.0
C259 C 0.83451 0.67588 0.32902 0.0
H260 H 0.86494 0.70887 0.32074 0.0
H261 H 0.78887 0.67893 0.32139 0.0
H262 H 0.85228 0.62908 0.3265 0.0
O263 O 0.89445 0.87421 0.35413 0.0
O264 O 0.89897 0.87006 0.39059 0.0
H265 H 0.86412 0.68055 0.42177 0.0
H266 H 0.8219 0.61396 0.4136 0.0
C267 C 0.82425 0.66416 0.41234 0.0
H268 H 0.78267 0.6835 0.41985 0.0
H269 H 0.93415 0.80233 0.43106 0.0
O270 O 0.81922 0.81773 0.31469 0.0
C271 C 0.91846 0.89022 0.37226 0.0
Co272 Co 0.68926 0.6601 0.66286 0.0
Co273 Co 0.68518 0.66911 0.611 0.0
C274 C 0.61276 0.75265 0.63761 0.0
O275 O 0.63306 0.72684 0.65489 0.0
O276 O 0.63444 0.74062 0.61865 0.0
C277 C 0.66003 0.66176 0.70829 0.0
O278 O 0.60503 0.65684 0.70008 0.0
C279 C 0.7088 0.70424 0.56475 0.0
C280 C 0.71094 0.61381 0.54888 0.0
C281 C 0.72002 0.67516 0.54485 0.0
N282 N 0.69493 0.66177 0.57988 0.0
N283 N 0.6951 0.608 0.57014 0.0
C284 C 0.71647 0.77039 0.56981 0.0
H285 H 0.71982 0.77781 0.58783 0.0
H286 H 0.75755 0.78849 0.56148 0.0
H287 H 0.67643 0.79569 0.5635 0.0
C288 C 0.82071 0.65888 0.654 0.0
N289 N 0.76282 0.66075 0.64693 0.0
N290 N 0.76221 0.66574 0.62538 0.0
C291 C 0.82024 0.66729 0.61808 0.0
C292 C 0.85928 0.66316 0.63599 0.0
C293 C 0.83854 0.65489 0.67772 0.0
H294 H 0.81376 0.61679 0.68562 0.0
H295 H 0.82509 0.69751 0.68623 0.0
H296 H 0.88821 0.64771 0.67963 0.0
O297 O 0.64035 0.58751 0.65626 0.0
O298 O 0.63262 0.60084 0.62017 0.0
H299 H 0.816 0.6429 0.58403 0.0
H300 H 0.88799 0.67476 0.59227 0.0
C301 C 0.8381 0.67745 0.59462 0.0
H302 H 0.82247 0.7231 0.5894 0.0
H303 H 0.68699 0.567 0.57825 0.0
O304 O 0.70482 0.66382 0.6951 0.0
C305 C 0.61747 0.57313 0.63772 0.0
Co306 Co 0.68238 0.31557 0.34744 0.0
Co307 Co 0.67901 0.32569 0.39903 0.0
C308 C 0.77061 0.39286 0.37132 0.0
O309 O 0.75314 0.36693 0.3537 0.0
O310 O 0.74899 0.378 0.39003 0.0
C311 C 0.68669 0.33878 0.30177 0.0
O312 O 0.69057 0.39497 0.30901 0.0
C313 C 0.71985 0.30031 0.44417 0.0
C314 C 0.63547 0.31578 0.46309 0.0
C315 C 0.69534 0.29713 0.46517 0.0
N316 N 0.67638 0.31995 0.43033 0.0
N317 N 0.62637 0.33016 0.44182 0.0
C318 C 0.78136 0.2793 0.43689 0.0
H319 H 0.78105 0.26844 0.41905 0.0
H320 H 0.79597 0.23893 0.44651 0.0
H321 H 0.81467 0.3163 0.43977 0.0
C322 C 0.68147 0.18438 0.35831 0.0
N323 N 0.68077 0.24338 0.36433 0.0
N324 N 0.67521 0.24719 0.3858 0.0
C325 C 0.66863 0.19058 0.39404 0.0
C326 C 0.67271 0.14849 0.37693 0.0
C327 C 0.69712 0.16351 0.33555 0.0
H328 H 0.73047 0.19507 0.32804 0.0
H329 H 0.7168 0.11702 0.33561 0.0
H330 H 0.65539 0.16377 0.3253 0.0
O331 O 0.61218 0.37092 0.3534 0.0
O332 O 0.60999 0.37534 0.38992 0.0
H333 H 0.63379 0.13167 0.41954 0.0
H334 H 0.69783 0.17807 0.42728 0.0
C335 C 0.65502 0.17714 0.41767 0.0
H336 H 0.62375 0.21203 0.42441 0.0
H337 H 0.58531 0.34454 0.43499 0.0
O338 O 0.68224 0.29592 0.31566 0.0
C339 C 0.59068 0.39269 0.37123 0.0
Co340 Co 0.33335 0.32617 0.6621 0.0
Co341 Co 0.32826 0.33923 0.61041 0.0
C342 C 0.40805 0.24722 0.63449 0.0
O343 O 0.38619 0.25707 0.65357 0.0
O344 O 0.38721 0.27425 0.61755 0.0
C345 C 0.31615 0.2808 0.70649 0.0
O346 O 0.31068 0.22746 0.69694 0.0
C347 C 0.29797 0.29266 0.56635 0.0
C348 C 0.29508 0.37722 0.54675 0.0
C349 C 0.28485 0.31511 0.54547 0.0
N350 N 0.3133 0.33966 0.5794 0.0
N351 N 0.31238 0.38992 0.56749 0.0
C352 C 0.29827 0.22778 0.57382 0.0
H353 H 0.33888 0.21912 0.58414 0.0
H354 H 0.25762 0.21925 0.58418 0.0
H355 H 0.29855 0.19591 0.55966 0.0
C356 C 0.19817 0.31994 0.65491 0.0
N357 N 0.25593 0.32647 0.64768 0.0
N358 N 0.25477 0.33523 0.62628 0.0
C359 C 0.19668 0.33679 0.61939 0.0
C360 C 0.15874 0.32589 0.63713 0.0
C361 C 0.18166 0.30367 0.67803 0.0
H362 H 0.2025 0.33686 0.68952 0.0
H363 H 0.20021 0.25799 0.68189 0.0
H364 H 0.13176 0.30301 0.68056 0.0
O365 O 0.38457 0.39785 0.65395 0.0
O366 O 0.3733 0.4122 0.61802 0.0
H367 H 0.12827 0.36246 0.59555 0.0
H368 H 0.18493 0.30977 0.58582 0.0
C369 C 0.17722 0.3503 0.59629 0.0
H370 H 0.2043 0.38859 0.58966 0.0
H371 H 0.32202 0.43315 0.57368 0.0
O372 O 0.32454 0.32784 0.69471 0.0
C373 C 0.3976 0.42639 0.63629 0.0
Co374 Co 0.32802 0.66649 0.34511 0.0
Co375 Co 0.34308 0.66851 0.39678 0.0
C376 C 0.2473 0.59318 0.3739 0.0
O377 O 0.26056 0.61264 0.35474 0.0
O378 O 0.2743 0.6134 0.39093 0.0
C379 C 0.27522 0.68948 0.30208 0.0
O380 O 0.2241 0.69716 0.31291 0.0
C381 C 0.30405 0.69469 0.44204 0.0
C382 C 0.39124 0.69314 0.46006 0.0
C383 C 0.32946 0.70316 0.46275 0.0
N384 N 0.34879 0.68034 0.42787 0.0
N385 N 0.40067 0.67857 0.43882 0.0
C386 C 0.23963 0.70577 0.43521 0.0
H387 H 0.23765 0.71876 0.41758 0.0
H388 H 0.21848 0.74182 0.44549 0.0
H389 H 0.2133 0.66315 0.43731 0.0
C390 C 0.32399 0.80178 0.35334 0.0
N391 N 0.3297 0.74346 0.36016 0.0
N392 N 0.33835 0.74338 0.38159 0.0
C393 C 0.34008 0.80118 0.38892 0.0
C394 C 0.32997 0.84024 0.37141 0.0
C395 C 0.30874 0.82002 0.33029 0.0
H396 H 0.26129 0.80645 0.32663 0.0
H397 H 0.31292 0.8698 0.32785 0.0
H398 H 0.33929 0.79611 0.31863 0.0
O399 O 0.40271 0.61723 0.35101 0.0
O400 O 0.41417 0.62242 0.38727 0.0
H401 H 0.36454 0.86824 0.41342 0.0
H402 H 0.31155 0.81107 0.42239 0.0
C403 C 0.35252 0.81931 0.41224 0.0
H404 H 0.39051 0.79179 0.4189 0.0
H405 H 0.44274 0.66931 0.43165 0.0
O406 O 0.32361 0.6769 0.31258 0.0
C407 C 0.43119 0.60297 0.36854 0.0
Co408 Co 0.3178 0.67887 0.16274 0.0
Co409 Co 0.32583 0.68016 0.11081 0.0
C410 C 0.39487 0.76812 0.14023 0.0
O411 O 0.36721 0.75133 0.15757 0.0
O412 O 0.38159 0.74611 0.12141 0.0
C413 C 0.29189 0.71742 0.20713 0.0
O414 O 0.28745 0.77152 0.19811 0.0
C415 C 0.29903 0.73057 0.06664 0.0
C416 C 0.31188 0.64921 0.04577 0.0
C417 C 0.29439 0.70974 0.04505 0.0
N418 N 0.31706 0.68396 0.07945 0.0
N419 N 0.32531 0.63575 0.0668 0.0
C420 C 0.2892 0.79386 0.07503 0.0
H421 H 0.32451 0.80512 0.08741 0.0
H422 H 0.2445 0.79658 0.08343 0.0
H423 H 0.29058 0.8275 0.06143 0.0
C424 C 0.18584 0.67916 0.15256 0.0
N425 N 0.24473 0.67913 0.14639 0.0
N426 N 0.24805 0.6767 0.1248 0.0
C427 C 0.19125 0.67251 0.1166 0.0
C428 C 0.14974 0.67504 0.13384 0.0
C429 C 0.16523 0.68803 0.17582 0.0
H430 H 0.18277 0.7321 0.18196 0.0
H431 H 0.11511 0.68838 0.17742 0.0
H432 H 0.18438 0.65138 0.18627 0.0
O433 O 0.37212 0.61069 0.15396 0.0
O434 O 0.373 0.60681 0.11748 0.0
H435 H 0.12957 0.64525 0.0907 0.0
H436 H 0.18209 0.70484 0.08356 0.0
C437 C 0.17685 0.66184 0.09283 0.0
H438 H 0.2088 0.62786 0.08587 0.0
H439 H 0.33885 0.59313 0.07261 0.0
O440 O 0.30348 0.67157 0.19504 0.0
C441 C 0.39118 0.58724 0.13604 0.0
Co442 Co 0.66541 0.66611 0.84944 0.0
Co443 Co 0.6665 0.67949 0.90118 0.0
C444 C 0.75495 0.59953 0.87803 0.0
O445 O 0.73435 0.61338 0.85905 0.0
O446 O 0.73635 0.62619 0.89539 0.0
C447 C 0.70377 0.66703 0.80316 0.0
O448 O 0.7597 0.66246 0.81058 0.0
C449 C 0.70761 0.70767 0.94625 0.0
C450 C 0.62029 0.72942 0.96248 0.0
C451 C 0.68239 0.72687 0.96601 0.0
N452 N 0.66241 0.70044 0.93159 0.0
N453 N 0.61032 0.71286 0.94147 0.0
C454 C 0.77293 0.69376 0.94149 0.0
H455 H 0.77682 0.64626 0.93547 0.0
H456 H 0.7895 0.72405 0.92819 0.0
H457 H 0.80184 0.69896 0.95632 0.0
C458 C 0.66159 0.80028 0.8528 0.0
N459 N 0.66407 0.74475 0.86206 0.0
N460 N 0.66687 0.7507 0.88355 0.0
C461 C 0.66868 0.81042 0.88864 0.0
C462 C 0.66505 0.84407 0.8693 0.0
C463 C 0.65354 0.81066 0.82864 0.0
H464 H 0.61641 0.78124 0.82239 0.0
H465 H 0.69589 0.79758 0.81991 0.0
H466 H 0.64249 0.8589 0.825 0.0
O467 O 0.59456 0.6198 0.85876 0.0
O468 O 0.59565 0.62613 0.89517 0.0
H469 H 0.63815 0.82755 0.92145 0.0
H470 H 0.69179 0.88315 0.91142 0.0
C471 C 0.67965 0.83426 0.91138 0.0
H472 H 0.71732 0.80854 0.91908 0.0
H473 H 0.56805 0.71106 0.93375 0.0
O474 O 0.66014 0.66996 0.81682 0.0
C475 C 0.57341 0.6048 0.87745 0.0
Co476 Co 0.67272 0.34077 0.1624 0.0
Co477 Co 0.66965 0.32992 0.11071 0.0
C478 C 0.59514 0.2488 0.13827 0.0
O479 O 0.61701 0.27316 0.15556 0.0
O480 O 0.61501 0.26224 0.11921 0.0
C481 C 0.68273 0.29832 0.207 0.0
O482 O 0.67443 0.24443 0.19815 0.0
C483 C 0.68323 0.28607 0.06464 0.0
C484 C 0.71042 0.37117 0.04807 0.0
C485 C 0.70086 0.30971 0.04438 0.0
N486 N 0.68322 0.33147 0.07955 0.0
N487 N 0.69888 0.38226 0.06943 0.0
C488 C 0.66541 0.22193 0.06976 0.0
H489 H 0.62434 0.22175 0.08031 0.0
H490 H 0.70269 0.19945 0.079 0.0
H491 H 0.65562 0.1957 0.05458 0.0
C492 C 0.80398 0.34111 0.15447 0.0
N493 N 0.74645 0.33816 0.14715 0.0
N494 N 0.74636 0.3295 0.12577 0.0
C495 C 0.80455 0.32396 0.11889 0.0
C496 C 0.84329 0.33186 0.13688 0.0
C497 C 0.82048 0.35407 0.1779 0.0
H498 H 0.79023 0.39003 0.18458 0.0
H499 H 0.81375 0.3123 0.18785 0.0
H500 H 0.86841 0.36918 0.17942 0.0
O501 O 0.626 0.41197 0.15441 0.0
O502 O 0.61896 0.40317 0.11815 0.0
H503 H 0.82042 0.34505 0.08508 0.0
H504 H 0.86825 0.28483 0.09563 0.0
C505 C 0.82198 0.30488 0.0961 0.0
H506 H 0.78923 0.27074 0.0899 0.0
H507 H 0.70311 0.42429 0.07726 0.0
O508 O 0.6849 0.34468 0.19456 0.0
C509 C 0.60423 0.42942 0.13614 0.0
Co510 Co 0.3337 0.32718 0.84599 0.0
Co511 Co 0.3135 0.3245 0.89746 0.0
C512 C 0.23545 0.40063 0.86993 0.0
O513 O 0.26532 0.38262 0.85315 0.0
O514 O 0.24484 0.37778 0.88889 0.0
C515 C 0.29497 0.29816 0.80178 0.0
O516 O 0.24555 0.27815 0.8115 0.0
C517 C 0.27029 0.30315 0.94347 0.0
C518 C 0.35842 0.28716 0.95992 0.0
C519 C 0.29638 0.28913 0.96369 0.0
N520 N 0.31506 0.30868 0.92846 0.0
N521 N 0.36752 0.29951 0.93852 0.0
C522 C 0.20424 0.31301 0.9387 0.0
H523 H 0.19849 0.3472 0.92551 0.0
H524 H 0.18367 0.26973 0.93302 0.0
H525 H 0.17979 0.32832 0.95369 0.0
C526 C 0.33646 0.19439 0.85263 0.0
N527 N 0.32995 0.25144 0.8603 0.0
N528 N 0.31684 0.24961 0.88139 0.0
C529 C 0.3115 0.19083 0.88755 0.0
C530 C 0.32367 0.15366 0.86948 0.0
C531 C 0.35961 0.17944 0.83008 0.0
H532 H 0.3943 0.21328 0.82504 0.0
H533 H 0.3218 0.18153 0.81808 0.0
H534 H 0.37965 0.13306 0.82963 0.0
O535 O 0.40428 0.37245 0.85573 0.0
O536 O 0.38577 0.37715 0.89162 0.0
H537 H 0.32942 0.1752 0.9216 0.0
H538 H 0.27426 0.12362 0.90991 0.0
C539 C 0.29094 0.17118 0.9099 0.0
H540 H 0.25389 0.20139 0.9156 0.0
H541 H 0.40969 0.30088 0.93066 0.0
O542 O 0.33817 0.31908 0.81342 0.0
C543 C 0.41655 0.39289 0.87479 0.0
C544 C 0.21751 0.15208 0.24025 0.0
C545 C 0.16133 0.17522 0.23288 0.0
C546 C 0.23114 0.14802 0.26273 0.0
C547 C 0.18941 0.16739 0.27884 0.0
H548 H 0.25117 0.13613 0.22857 0.0
H549 H 0.27473 0.12921 0.26748 0.0
S550 S 0.0365 0.2335 0.26831 0.0
N551 N 0.0641 0.21914 0.2436 0.0
N552 N 0.08975 0.21191 0.28577 0.0
C553 C 0.13344 0.19172 0.27171 0.0
C554 C 0.11939 0.19547 0.24879 0.0
C555 C 0.22191 0.8348 0.73795 0.0
C556 C 0.1673 0.8128 0.72889 0.0
C557 C 0.23112 0.83641 0.76076 0.0
C558 C 0.18617 0.81601 0.77548 0.0
H559 H 0.25773 0.85179 0.72739 0.0
H560 H 0.27361 0.85472 0.76684 0.0
S561 S 0.0364 0.75032 0.76018 0.0
N562 N 0.06855 0.76749 0.73647 0.0
N563 N 0.08587 0.7704 0.77925 0.0
C564 C 0.13186 0.79248 0.76663 0.0
C565 C 0.12242 0.79094 0.74339 0.0
C566 C 0.81989 0.82769 0.26764 0.0
C567 C 0.77917 0.7909 0.27952 0.0
C568 C 0.82614 0.82189 0.24477 0.0
C569 C 0.79287 0.77819 0.23287 0.0
H570 H 0.84679 0.86179 0.27604 0.0
H571 H 0.8578 0.85162 0.23638 0.0
S572 S 0.68111 0.66954 0.25626 0.0
N573 N 0.70535 0.70881 0.27769 0.0
N574 N 0.71779 0.69717 0.23478 0.0
C575 C 0.75241 0.74063 0.24457 0.0
C576 C 0.74532 0.74722 0.26785 0.0
C577 C 0.82381 0.135 0.73824 0.0
C578 C 0.8274 0.19458 0.72984 0.0
C579 C 0.8228 0.12385 0.76092 0.0
C580 C 0.82498 0.17173 0.77629 0.0
H581 H 0.82242 0.09627 0.72722 0.0
H582 H 0.82033 0.07702 0.76638 0.0
S583 S 0.83286 0.33652 0.76303 0.0
N584 N 0.83199 0.30243 0.73882 0.0
N585 N 0.82988 0.28145 0.78143 0.0
C586 C 0.82791 0.23169 0.76818 0.0
C587 C 0.82917 0.24309 0.745 0.0
C588 C 0.72923 0.66444 0.74116 0.0
C589 C 0.6698 0.66427 0.73252 0.0
C590 C 0.73974 0.66577 0.76393 0.0
C591 C 0.6913 0.6672 0.77908 0.0
H592 H 0.76819 0.66309 0.73026 0.0
H593 H 0.78636 0.66543 0.76966 0.0
S594 S 0.52676 0.66883 0.76503 0.0
N595 N 0.56168 0.66665 0.74103 0.0
N596 N 0.58129 0.66931 0.78366 0.0
C597 C 0.63157 0.66772 0.77065 0.0
C598 C 0.62088 0.66618 0.74746 0.0
C599 C 0.69049 0.37503 0.26287 0.0
C600 C 0.68712 0.32622 0.27777 0.0
C601 C 0.69 0.36528 0.24013 0.0
C602 C 0.68602 0.30625 0.23123 0.0
H603 H 0.69313 0.42149 0.26875 0.0
H604 H 0.69211 0.40469 0.22947 0.0
S605 S 0.67827 0.16232 0.26309 0.0
N606 N 0.6812 0.21623 0.28197 0.0
N607 N 0.68022 0.19788 0.2392 0.0
C608 C 0.68348 0.2568 0.24591 0.0
C609 C 0.68401 0.26677 0.26915 0.0
C610 C 0.27095 0.24871 0.7657 0.0
C611 C 0.301 0.29477 0.77753 0.0
C612 C 0.27664 0.24411 0.74276 0.0
C613 C 0.31141 0.28627 0.73074 0.0
H614 H 0.24349 0.21539 0.77427 0.0
H615 H 0.25294 0.20771 0.73435 0.0
S616 S 0.39828 0.41605 0.75389 0.0
N617 N 0.36679 0.3834 0.77552 0.0
N618 N 0.37624 0.37571 0.73241 0.0
C619 C 0.34117 0.33293 0.74235 0.0
C620 C 0.33636 0.33688 0.76574 0.0
C621 C 0.31666 0.65995 0.26531 0.0
C622 C 0.27721 0.69652 0.27788 0.0
C623 C 0.31997 0.66601 0.24236 0.0
C624 C 0.28525 0.71006 0.23122 0.0
H625 H 0.34485 0.626 0.27325 0.0
H626 H 0.35101 0.63689 0.23335 0.0
S627 S 0.17532 0.81743 0.25654 0.0
N628 N 0.2022 0.77781 0.27748 0.0
N629 N 0.20988 0.79058 0.23444 0.0
C630 C 0.2458 0.74708 0.24359 0.0
C631 C 0.24135 0.73991 0.2669 0.0
C632 C 0.01622 0.02321 0.11927 0.0
C633 C 0.0567 0.02686 0.13718 0.0
C634 C 0.96316 0.98815 0.12046 0.0
C635 C 0.94825 0.95567 0.13964 0.0
H636 H 0.02444 0.0491 0.10442 0.0
H637 H 0.93337 0.98692 0.10627 0.0
S638 S 0.04262 0.94435 0.19023 0.0
N639 N 0.0807 0.99082 0.17402 0.0
N640 N 0.98107 0.92541 0.17634 0.0
C641 C 0.98935 0.95736 0.15742 0.0
C642 C 0.04356 0.99264 0.15614 0.0
C643 C 0.9808 0.03167 0.89057 0.0
C644 C 0.95517 0.05426 0.87096 0.0
C645 C 0.01596 0.97851 0.89075 0.0
C646 C 0.02697 0.94542 0.87133 0.0
H647 H 0.97324 0.05488 0.90606 0.0
H648 H 0.03536 0.96389 0.90625 0.0
S649 S 0.96962 0.98448 0.81548 0.0
N650 N 0.94322 0.03901 0.83151 0.0
N651 N 0.00849 0.93894 0.83183 0.0
C652 C 0.0013 0.96728 0.85156 0.0
C653 C 0.96592 0.02176 0.85136 0.0
C654 C 0.98283 0.01087 0.65279 0.0
C655 C 0.95212 0.0248 0.63311 0.0
C656 C 0.0377 0.97858 0.65267 0.0
C657 C 0.06439 0.95859 0.63287 0.0
H658 H 0.965 0.02585 0.6685 0.0
H659 H 0.05873 0.96847 0.66836 0.0
S660 S 0.00246 0.98284 0.57666 0.0
N661 N 0.95253 0.01545 0.59314 0.0
N662 N 0.05572 0.95524 0.59295 0.0
C663 C 0.0342 0.97208 0.61303 0.0
C664 C 0.97805 0.00474 0.61315 0.0
C665 C 0.0021 0.03082 0.39142 0.0
C666 C 0.03157 0.05135 0.37227 0.0
C667 C 0.96815 0.97712 0.39146 0.0
C668 C 0.96177 0.94168 0.37231 0.0
H669 H 0.00578 0.05595 0.40671 0.0
H670 H 0.94557 0.96419 0.40659 0.0
S671 S 0.03087 0.97382 0.31784 0.0
N672 N 0.05285 0.03091 0.33357 0.0
N673 N 0.98873 0.93004 0.33374 0.0
C674 C 0.99109 0.96131 0.35303 0.0
C675 C 0.02583 0.01611 0.35296 0.0
C676 C 0.47805 0.48534 0.65617 0.0
C677 C 0.45099 0.46764 0.63619 0.0
C678 C 0.53331 0.51698 0.65657 0.0
C679 C 0.56405 0.53203 0.63699 0.0
H680 H 0.4567 0.47423 0.67172 0.0
H681 H 0.55132 0.53073 0.67239 0.0
S682 S 0.51395 0.49444 0.5802 0.0
N683 N 0.46008 0.4669 0.59619 0.0
N684 N 0.56396 0.52538 0.59701 0.0
C685 C 0.53782 0.51414 0.61688 0.0
C686 C 0.48129 0.48248 0.61645 0.0
C687 C 0.47858 0.51166 0.35066 0.0
C688 C 0.47806 0.55455 0.36792 0.0
C689 C 0.51466 0.45899 0.35182 0.0
C690 C 0.55091 0.44704 0.37037 0.0
H691 H 0.4492 0.51751 0.33652 0.0
H692 H 0.51324 0.42689 0.3383 0.0
S693 S 0.57296 0.54977 0.41837 0.0
N694 N 0.52231 0.58484 0.4029 0.0
N695 N 0.58939 0.48616 0.40524 0.0
C696 C 0.55298 0.49112 0.38723 0.0
C697 C 0.51685 0.54479 0.38594 0.0
C698 C 0.52319 0.48911 0.11674 0.0
C699 C 0.55256 0.47308 0.13647 0.0
C700 C 0.46972 0.52383 0.11682 0.0
C701 C 0.44306 0.54391 0.13664 0.0
H702 H 0.54115 0.47417 0.10105 0.0
H703 H 0.44961 0.53556 0.10112 0.0
S704 S 0.50111 0.51349 0.193 0.0
N705 N 0.55046 0.48001 0.17653 0.0
N706 N 0.44987 0.54423 0.17662 0.0
C707 C 0.47166 0.52783 0.15653 0.0
C708 C 0.52644 0.49299 0.15645 0.0
C709 C 0.47021 0.47962 0.85742 0.0
C710 C 0.45882 0.44497 0.87642 0.0
C711 C 0.50429 0.53293 0.8583 0.0
C712 C 0.52937 0.55392 0.87818 0.0
H713 H 0.45168 0.46629 0.84162 0.0
H714 H 0.5118 0.55729 0.84306 0.0
S715 S 0.5134 0.47968 0.93279 0.0
N716 N 0.47477 0.43548 0.91586 0.0
N717 N 0.5404 0.53559 0.91753 0.0
C718 C 0.5181 0.52005 0.89745 0.0
C719 C 0.48267 0.46559 0.89655 0.0
C720 C 0.21663 0.23257 0.98483 0.0
C721 C 0.26665 0.27241 0.98471 0.0
C722 C 0.19364 0.20918 1.00462 0.0
C723 C 0.21935 0.22535 0.02496 0.0
H724 H 0.19709 0.2167 0.96953 0.0
H725 H 0.15654 0.17685 1.00397 0.0
S726 S 0.351 0.32778 0.03361 0.0
N727 N 0.34072 0.32744 0.0067 0.0
N728 N 0.29792 0.28288 0.04381 0.0
C729 C 0.26851 0.26605 0.02512 0.0
C730 C 0.29209 0.28964 0.005 0.0
C731 C 0.29949 0.73048 0.00476 0.0
C732 C 0.27066 0.74055 0.0251 0.0
C733 C 0.27408 0.75161 0.98501 0.0
C734 C 0.21871 0.78377 0.98481 0.0
H735 H 0.34126 0.70435 1.00402 0.0
H736 H 0.29657 0.73974 0.96977 0.0
S737 S 0.12372 0.82033 0.03357 0.0
N738 N 0.18249 0.78301 0.04373 0.0
N739 N 0.13579 0.82462 0.0068 0.0
C740 C 0.18983 0.79492 0.0051 0.0
C741 C 0.21558 0.77307 0.0252 0.0
C742 C 0.69253 0.72513 0.00678 0.0
C743 C 0.71309 0.74681 0.98636 0.0
C744 C 0.71643 0.74774 0.02652 0.0
C745 C 0.76144 0.79312 0.0265 0.0
H746 H 0.65685 0.69125 0.00749 0.0
H747 H 0.69774 0.73133 0.0419 0.0
S748 S 0.8283 0.86726 0.97741 0.0
N749 N 0.77931 0.81775 0.96727 0.0
N750 N 0.82484 0.85974 1.00442 0.0
C751 C 0.78236 0.81518 0.00619 0.0
C752 C 0.75818 0.79201 0.98609 0.0
C753 C 0.76738 0.19484 1.00424 0.0
C754 C 0.75757 0.2225 0.98368 0.0
C755 C 0.74662 0.22181 0.02378 0.0
C756 C 0.71505 0.27752 0.0235 0.0
H757 H 0.793 0.1528 0.00531 0.0
H758 H 0.75819 0.20024 0.03922 0.0
S759 S 0.67929 0.36985 0.97412 0.0
N760 N 0.71604 0.3101 0.96439 0.0
N761 N 0.67496 0.35948 1.00096 0.0
C762 C 0.70415 0.30524 1.00303 0.0
C763 C 0.72569 0.278 0.98315 0.0
C764 C 0.71484 0.19107 0.51358 0.0
C765 C 0.7693 0.21107 0.52322 0.0
C766 C 0.69111 0.21981 0.4949 0.0
C767 C 0.7218 0.26855 0.48493 0.0
H768 H 0.69004 0.1533 0.52067 0.0
H769 H 0.64882 0.20319 0.48802 0.0
S770 S 0.8665 0.33744 0.50362 0.0
N771 N 0.85349 0.28231 0.52148 0.0
N772 N 0.80921 0.33588 0.48604 0.0
C773 C 0.77653 0.28875 0.49429 0.0
C774 C 0.8002 0.26012 0.51357 0.0
C775 C 0.25643 0.27388 0.48577 0.0
C776 C 0.20874 0.23131 0.48687 0.0
C777 C 0.28185 0.29904 0.50487 0.0
C778 C 0.26034 0.28324 0.52587 0.0
H779 H 0.27289 0.29021 0.47012 0.0
H780 H 0.31798 0.33216 0.50315 0.0
S781 S 0.13235 0.17857 0.53791 0.0
N782 N 0.13968 0.17607 0.51091 0.0
N783 N 0.18498 0.2263 0.5466 0.0
C784 C 0.21189 0.24178 0.52728 0.0
C785 C 0.18663 0.21532 0.50785 0.0
C786 C 0.30197 0.8021 0.51275 0.0
C787 C 0.24878 0.77762 0.52199 0.0
C788 C 0.32774 0.77716 0.4937 0.0
C789 C 0.30063 0.72758 0.48291 0.0
H790 H 0.32427 0.84055 0.52044 0.0
H791 H 0.36885 0.79745 0.4872 0.0
S792 S 0.16071 0.64702 0.50032 0.0
N793 N 0.16943 0.70133 0.51886 0.0
N794 N 0.21823 0.65404 0.48303 0.0
C795 C 0.24736 0.70263 0.49192 0.0
C796 C 0.22135 0.72774 0.51149 0.0
C797 C 0.74801 0.77699 0.49524 0.0
C798 C 0.79838 0.74896 0.48515 0.0
C799 C 0.72297 0.75348 0.51475 0.0
C800 C 0.74703 0.70075 0.52457 0.0
H801 H 0.72835 0.81775 0.48819 0.0
H802 H 0.68408 0.77616 0.52199 0.0
S803 S 0.87852 0.61044 0.50456 0.0
N804 N 0.87131 0.66589 0.48644 0.0
N805 N 0.82416 0.62159 0.52285 0.0
C806 C 0.79719 0.67233 0.51456 0.0
C807 C 0.82301 0.69658 0.49495 0.0
C808 C 0.51332 0.17567 0.12631 0.0
C809 C 0.53305 0.22354 0.13992 0.0
C810 C 0.45156 0.15885 0.12562 0.0
C811 C 0.4077 0.1906 0.13803 0.0
H812 H 0.54557 0.15185 0.11594 0.0
H813 H 0.43785 0.12155 0.11509 0.0
S814 S 0.43479 0.32411 0.17402 0.0
N815 N 0.50286 0.30443 0.16512 0.0
N816 N 0.38753 0.27472 0.16288 0.0
C817 C 0.42681 0.23909 0.15132 0.0
C818 C 0.4893 0.25511 0.15249 0.0
C819 C 0.21076 0.5636 0.85324 0.0
C820 C 0.17347 0.58701 0.86998 0.0
C821 C 0.2252 0.50182 0.85223 0.0
C822 C 0.20471 0.46068 0.86837 0.0
H823 H 0.23139 0.59364 0.84128 0.0
H824 H 0.25649 0.48736 0.83948 0.0
S825 S 0.09942 0.49752 0.91417 0.0
N826 N 0.10997 0.56323 0.90155 0.0
N827 N 0.14063 0.44702 0.90058 0.0
C828 C 0.16502 0.48286 0.88469 0.0
C829 C 0.14882 0.54599 0.88533 0.0
C830 C 0.48033 0.83984 0.13081 0.0
C831 C 0.45724 0.79127 0.14326 0.0
C832 C 0.54271 0.8542 0.13141 0.0
C833 C 0.58392 0.81906 0.14385 0.0
H834 H 0.45035 0.86589 0.12026 0.0
H835 H 0.55918 0.89172 0.12153 0.0
S836 S 0.54664 0.68336 0.17742 0.0
N837 N 0.4806 0.70702 0.16781 0.0
N838 N 0.59737 0.73161 0.16774 0.0
C839 C 0.56114 0.77034 0.15622 0.0
C840 C 0.49792 0.75692 0.15615 0.0
C841 C 0.82411 0.51471 0.86585 0.0
C842 C 0.78099 0.53798 0.88073 0.0
C843 C 0.83822 0.45222 0.86548 0.0
C844 C 0.80819 0.41094 0.87948 0.0
H845 H 0.84548 0.54459 0.85399 0.0
H846 H 0.87119 0.43578 0.85365 0.0
S847 S 0.68755 0.44829 0.91993 0.0
N848 N 0.7076 0.51446 0.90947 0.0
N849 N 0.73121 0.39753 0.90768 0.0
C850 C 0.7653 0.43383 0.89444 0.0
C851 C 0.75238 0.49723 0.89531 0.0
C852 C 0.48953 0.17318 0.64624 0.0
C853 C 0.47031 0.22191 0.63292 0.0
C854 C 0.55113 0.15554 0.6469 0.0
C855 C 0.59531 0.18706 0.63465 0.0
H856 H 0.45695 0.14914 0.65637 0.0
H857 H 0.5644 0.11752 0.65716 0.0
S858 S 0.57004 0.32281 0.59966 0.0
N859 N 0.50169 0.30379 0.6084 0.0
N860 N 0.61663 0.2721 0.61044 0.0
C861 C 0.57685 0.23658 0.62175 0.0
C862 C 0.51455 0.25363 0.62067 0.0
C863 C 0.21492 0.43356 0.39277 0.0
C864 C 0.17969 0.4093 0.37563 0.0
C865 C 0.23108 0.49497 0.39313 0.0
C866 C 0.21434 0.53462 0.37595 0.0
H867 H 0.23302 0.40431 0.40552 0.0
H868 H 0.26097 0.51007 0.4062 0.0
S869 S 0.11405 0.49592 0.32896 0.0
N870 N 0.12097 0.43145 0.3427 0.0
N871 N 0.15499 0.5466 0.3425 0.0
C872 C 0.17615 0.51187 0.35932 0.0
C873 C 0.15818 0.44929 0.35931 0.0
C874 C 0.5308 0.82612 0.62568 0.0
C875 C 0.55006 0.77699 0.63879 0.0
C876 C 0.46888 0.84253 0.62463 0.0
C877 C 0.42451 0.80927 0.6362 0.0
H878 H 0.56354 0.85129 0.616 0.0
H879 H 0.45547 0.88072 0.61447 0.0
S880 S 0.45027 0.67236 0.6705 0.0
N881 N 0.51871 0.69315 0.66243 0.0
N882 N 0.40338 0.72276 0.65971 0.0
C883 C 0.44315 0.75964 0.64898 0.0
C884 C 0.50566 0.74377 0.65044 0.0
C885 C 0.85722 0.5409 0.37995 0.0
C886 C 0.81945 0.58287 0.36892 0.0
C887 C 0.84328 0.4783 0.38024 0.0
C888 C 0.7922 0.45603 0.36895 0.0
H889 H 0.89678 0.55681 0.38885 0.0
H890 H 0.87183 0.44749 0.38955 0.0
S891 S 0.67662 0.5479 0.3392 0.0
N892 N 0.72706 0.59801 0.34781 0.0
N893 N 0.70232 0.48122 0.34748 0.0
C894 C 0.75475 0.49773 0.35772 0.0
C895 C 0.76811 0.56095 0.35785 0.0
C896 C 0.03026 0.66111 0.62534 0.0
C897 C 0.04939 0.71396 0.63639 0.0
C898 C 0.9686 0.6436 0.62559 0.0
C899 C 0.92456 0.67918 0.6365 0.0
H900 H 0.06288 0.63359 0.61642 0.0
H901 H 0.95512 0.6026 0.617 0.0
S902 S 0.95005 0.82572 0.66514 0.0
N903 N 0.01819 0.804 0.65695 0.0
N904 N 0.90341 0.77154 0.65696 0.0
C905 C 0.94306 0.73256 0.6471 0.0
C906 C 0.00522 0.7499 0.64712 0.0
C907 C 0.72808 0.994 0.39582 0.0
C908 C 0.70602 0.95409 0.37952 0.0
C909 C 0.7151 0.05622 0.39523 0.0
C910 C 0.67788 0.08113 0.37877 0.0
H911 H 0.75996 0.97817 0.40815 0.0
H912 H 0.73751 0.08536 0.40707 0.0
S913 S 0.59868 0.99449 0.33489 0.0
N914 N 0.63999 0.94277 0.34779 0.0
N915 N 0.61118 0.05948 0.34781 0.0
C916 C 0.65087 0.04099 0.36356 0.0
C917 C 0.6659 0.97759 0.36369 0.0
C918 C 0.0489 0.33856 0.64816 0.0
C919 C 0.09383 0.30852 0.63573 0.0
C920 C 0.98739 0.32121 0.6467 0.0
C921 C 0.96902 0.2746 0.63226 0.0
H922 H 0.0615 0.37507 0.65923 0.0
H923 H 0.95424 0.34362 0.6571 0.0
S924 S 0.07048 0.17869 0.59768 0.0
N925 N 0.11649 0.22731 0.6099 0.0
N926 N 0.00163 0.1967 0.60625 0.0
C927 C 0.01387 0.24476 0.61967 0.0
C928 C 0.07609 0.26125 0.62163 0.0
C929 C 0.32683 0.0124 0.36323 0.0
C930 C 0.27853 0.03032 0.37702 0.0
C931 C 0.34423 0.95082 0.36154 0.0
C932 C 0.31284 0.9053 0.37316 0.0
H933 H 0.3506 0.046 0.35346 0.0
H934 H 0.38189 0.93866 0.35093 0.0
S935 S 0.17934 0.92703 0.40955 0.0
N936 N 0.19799 0.99632 0.40168 0.0
N937 N 0.22926 0.88154 0.39771 0.0
C938 C 0.26419 0.92251 0.38671 0.0
C939 C 0.24739 0.98476 0.38884 0.0
C940 C 0.97952 0.66428 0.14524 0.0
C941 C 0.95608 0.7114 0.13211 0.0
C942 C 0.04204 0.65032 0.14495 0.0
C943 C 0.08311 0.68464 0.13221 0.0
H944 H 0.94971 0.63921 0.15612 0.0
H945 H 0.05868 0.61383 0.1553 0.0
S946 S 0.04497 0.81574 0.09639 0.0
N947 N 0.97904 0.79275 0.10625 0.0
N948 N 0.09601 0.76911 0.10693 0.0
C949 C 0.05999 0.73156 0.11901 0.0
C950 C 0.99662 0.74442 0.11872 0.0
C951 C 0.64233 0.95278 0.87954 0.0
C952 C 0.67505 0.9104 0.86674 0.0
C953 C 0.65748 0.015 0.8794 0.0
C954 C 0.70436 0.03681 0.86584 0.0
H955 H 0.60647 0.93733 0.89039 0.0
H956 H 0.63373 0.0458 0.89036 0.0
S957 S 0.80514 0.94406 0.82999 0.0
N958 N 0.75792 0.89451 0.841 0.0
N959 N 0.78404 0.01091 0.83969 0.0
C960 C 0.73582 0.99499 0.85244 0.0
C961 C 0.72164 0.9319 0.85309 0.0
C962 C 0.93225 0.28207 0.15468 0.0
C963 C 0.90985 0.32074 0.13818 0.0
C964 C 0.9937 0.26642 0.15568 0.0
C965 C 0.03537 0.28721 0.13979 0.0
H966 H 0.90165 0.26136 0.16644 0.0
H967 H 0.00752 0.23408 0.16816 0.0
S968 S 0.00135 0.39528 0.09464 0.0
N969 N 0.93529 0.38536 0.10707 0.0
N970 N 0.0508 0.35242 0.10803 0.0
C971 C 0.01423 0.32792 0.12368 0.0
C972 C 0.95151 0.34536 0.12305 0.0
C973 C 0.32071 0.98395 0.8825 0.0
C974 C 0.28188 0.96083 0.86609 0.0
C975 C 0.33677 0.04593 0.88296 0.0
C976 C 0.31318 0.08713 0.86741 0.0
H977 H 0.33688 0.95447 0.89553 0.0
H978 H 0.36598 0.06217 0.89605 0.0
S979 S 0.20803 0.0506 0.82156 0.0
N980 N 0.22153 0.9847 0.83353 0.0
N981 N 0.24801 0.10074 0.83557 0.0
C982 C 0.27541 0.06441 0.85073 0.0
C983 C 0.26072 0.00139 0.84977 0.0
loop_
_geom_bond_atom_site_label_1
_geom_bond_atom_site_label_2
_geom_bond_distance
_geom_bond_site_symmetry_2
_ccdc_geom_bond_type
Co0 O3 1.970 . S
Co0 N17 1.989 . S
Co0 O25 1.967 . S
Co0 O32 1.920 . S
Co1 O4 1.966 . S
Co1 N10 2.022 . S
Co1 N18 1.993 . S
Co1 O26 1.941 . S
C2 O3 1.258 . S
C2 O4 1.263 . S
O3 Co0 1.970 . S
O3 C2 1.258 . S
O4 Co1 1.966 . S
O4 C2 1.263 . S
C5 O6 1.235 . S
C5 O32 1.289 . S
O6 C5 1.235 . S
C7 C9 1.400 . S
C7 N10 1.351 . S
C7 C12 1.501 . S
C8 C9 1.387 . S
C8 N11 1.341 . S
C9 C7 1.400 . S
C9 C8 1.387 . S
N10 Co1 2.022 . S
N10 C7 1.351 . S
N10 N11 1.365 . S
N11 C8 1.341 . S
N11 N10 1.365 . S
N11 H31 0.862 . S
C12 C7 1.501 . S
C12 H13 0.961 . S
C12 H14 0.961 . S
C12 H15 0.960 . S
H13 C12 0.961 . S
H14 C12 0.961 . S
H15 C12 0.960 . S
C16 N17 1.342 . S
C16 C20 1.401 . S
C16 C21 1.499 . S
N17 Co0 1.989 . S
N17 C16 1.342 . S
N17 N18 1.388 . S
N18 Co1 1.993 . S
N18 N17 1.388 . S
N18 C19 1.346 . S
C19 N18 1.346 . S
C19 C20 1.396 . S
C19 C29 1.510 . S
C20 C16 1.401 . S
C20 C19 1.396 . S
C21 C16 1.499 . S
C21 H22 0.959 . S
C21 H23 0.960 . S
C21 H24 0.961 . S
H22 C21 0.959 . S
H23 C21 0.960 . S
H24 C21 0.961 . S
O25 Co0 1.967 . S
O25 C33 1.258 . S
O26 Co1 1.941 . S
O26 C33 1.266 . S
H27 C29 0.959 . S
H28 C29 0.961 . S
C29 C19 1.510 . S
C29 H27 0.959 . S
C29 H28 0.961 . S
C29 H30 0.960 . S
H30 C29 0.960 . S
H31 N11 0.862 . S
O32 Co0 1.920 . S
O32 C5 1.289 . S
C33 O25 1.258 . S
C33 O26 1.266 . S
Co34 O37 1.970 . S
Co34 N51 1.989 . S
Co34 O59 1.967 . S
Co34 O66 1.920 . S
Co35 O38 1.966 . S
Co35 N44 2.022 . S
Co35 N52 1.993 . S
Co35 O60 1.941 . S
C36 O37 1.258 . S
C36 O38 1.263 . S
O37 Co34 1.970 . S
O37 C36 1.258 . S
O38 Co35 1.966 . S
O38 C36 1.263 . S
C39 O40 1.235 . S
C39 O66 1.289 . S
O40 C39 1.235 . S
C41 C43 1.400 . S
C41 N44 1.351 . S
C41 C46 1.501 . S
C42 C43 1.387 . S
C42 N45 1.341 . S
C43 C41 1.400 . S
C43 C42 1.387 . S
N44 Co35 2.022 . S
N44 C41 1.351 . S
N44 N45 1.365 . S
N45 C42 1.341 . S
N45 N44 1.365 . S
N45 H65 0.862 . S
C46 C41 1.501 . S
C46 H47 0.961 . S
C46 H48 0.961 . S
C46 H49 0.960 . S
H47 C46 0.961 . S
H48 C46 0.961 . S
H49 C46 0.960 . S
C50 N51 1.342 . S
C50 C54 1.401 . S
C50 C55 1.499 . S
N51 Co34 1.989 . S
N51 C50 1.342 . S
N51 N52 1.388 . S
N52 Co35 1.993 . S
N52 N51 1.388 . S
N52 C53 1.346 . S
C53 N52 1.346 . S
C53 C54 1.396 . S
C53 C63 1.510 . S
C54 C50 1.401 . S
C54 C53 1.396 . S
C55 C50 1.499 . S
C55 H56 0.959 . S
C55 H57 0.960 . S
C55 H58 0.961 . S
H56 C55 0.959 . S
H57 C55 0.960 . S
H58 C55 0.961 . S
O59 Co34 1.967 . S
O59 C67 1.258 . S
O60 Co35 1.941 . S
O60 C67 1.266 . S
H61 C63 0.959 . S
H62 C63 0.961 . S
C63 C53 1.510 . S
C63 H61 0.959 . S
C63 H62 0.961 . S
C63 H64 0.960 . S
H64 C63 0.960 . S
H65 N45 0.862 . S
O66 Co34 1.920 . S
O66 C39 1.289 . S
C67 O59 1.258 . S
C67 O60 1.266 . S
Co68 O71 1.970 . S
Co68 N85 1.989 . S
Co68 O93 1.967 . S
Co68 O100 1.920 . S
Co69 O72 1.966 . S
Co69 N78 2.022 . S
Co69 N86 1.993 . S
Co69 O94 1.941 . S
C70 O71 1.258 . S
C70 O72 1.263 . S
O71 Co68 1.970 . S
O71 C70 1.258 . S
O72 Co69 1.966 . S
O72 C70 1.263 . S
C73 O74 1.235 . S
C73 O100 1.289 . S
O74 C73 1.235 . S
C75 C77 1.400 . S
C75 N78 1.351 . S
C75 C80 1.501 . S
C76 C77 1.387 . S
C76 N79 1.341 . S
C77 C75 1.400 . S
C77 C76 1.387 . S
N78 Co69 2.022 . S
N78 C75 1.351 . S
N78 N79 1.365 . S
N79 C76 1.341 . S
N79 N78 1.365 . S
N79 H99 0.862 . S
C80 C75 1.501 . S
C80 H81 0.961 . S
C80 H82 0.961 . S
C80 H83 0.960 . S
H81 C80 0.961 . S
H82 C80 0.961 . S
H83 C80 0.960 . S
C84 N85 1.342 . S
C84 C88 1.401 . S
C84 C89 1.499 . S
N85 Co68 1.989 . S
N85 C84 1.342 . S
N85 N86 1.388 . S
N86 Co69 1.993 . S
N86 N85 1.388 . S
N86 C87 1.346 . S
C87 N86 1.346 . S
C87 C88 1.396 . S
C87 C97 1.510 . S
C88 C84 1.401 . S
C88 C87 1.396 . S
C89 C84 1.499 . S
C89 H90 0.959 . S
C89 H91 0.960 . S
C89 H92 0.961 . S
H90 C89 0.959 . S
H91 C89 0.960 . S
H92 C89 0.961 . S
O93 Co68 1.967 . S
O93 C101 1.258 . S
O94 Co69 1.941 . S
O94 C101 1.266 . S
H95 C97 0.959 . S
H96 C97 0.961 . S
C97 C87 1.510 . S
C97 H95 0.959 . S
C97 H96 0.961 . S
C97 H98 0.960 . S
H98 C97 0.960 . S
H99 N79 0.862 . S
O100 Co68 1.920 . S
O100 C73 1.289 . S
C101 O93 1.258 . S
C101 O94 1.266 . S
Co102 O105 1.970 . S
Co102 N119 1.989 . S
Co102 O127 1.967 . S
Co102 O134 1.920 . S
Co103 O106 1.966 . S
Co103 N112 2.022 . S
Co103 N120 1.993 . S
Co103 O128 1.941 . S
C104 O105 1.258 . S
C104 O106 1.263 . S
O105 Co102 1.970 . S
O105 C104 1.258 . S
O106 Co103 1.966 . S
O106 C104 1.263 . S
C107 O108 1.235 . S
C107 O134 1.289 . S
O108 C107 1.235 . S
C109 C111 1.400 . S
C109 N112 1.351 . S
C109 C114 1.501 . S
C110 C111 1.387 . S
C110 N113 1.341 . S
C111 C109 1.400 . S
C111 C110 1.387 . S
N112 Co103 2.022 . S
N112 C109 1.351 . S
N112 N113 1.365 . S
N113 C110 1.341 . S
N113 N112 1.365 . S
N113 H133 0.862 . S
C114 C109 1.501 . S
C114 H115 0.961 . S
C114 H116 0.961 . S
C114 H117 0.960 . S
H115 C114 0.961 . S
H116 C114 0.961 . S
H117 C114 0.960 . S
C118 N119 1.342 . S
C118 C122 1.401 . S
C118 C123 1.499 . S
N119 Co102 1.989 . S
N119 C118 1.342 . S
N119 N120 1.388 . S
N120 Co103 1.993 . S
N120 N119 1.388 . S
N120 C121 1.346 . S
C121 N120 1.346 . S
C121 C122 1.396 . S
C121 C131 1.510 . S
C122 C118 1.401 . S
C122 C121 1.396 . S
C123 C118 1.499 . S
C123 H124 0.959 . S
C123 H125 0.960 . S
C123 H126 0.961 . S
H124 C123 0.959 . S
H125 C123 0.960 . S
H126 C123 0.961 . S
O127 Co102 1.967 . S
O127 C135 1.258 . S
O128 Co103 1.941 . S
O128 C135 1.266 . S
H129 C131 0.959 . S
H130 C131 0.961 . S
C131 C121 1.510 . S
C131 H129 0.959 . S
C131 H130 0.961 . S
C131 H132 0.960 . S
H132 C131 0.960 . S
H133 N113 0.862 . S
O134 Co102 1.920 . S
O134 C107 1.289 . S
C135 O127 1.258 . S
C135 O128 1.266 . S
Co136 O139 1.970 . S
Co136 N153 1.989 . S
Co136 O161 1.967 . S
Co136 O168 1.920 . S
Co137 O140 1.966 . S
Co137 N146 2.022 . S
Co137 N154 1.993 . S
Co137 O162 1.941 . S
C138 O139 1.258 . S
C138 O140 1.263 . S
O139 Co136 1.970 . S
O139 C138 1.258 . S
O140 Co137 1.966 . S
O140 C138 1.263 . S
C141 O142 1.235 . S
C141 O168 1.289 . S
O142 C141 1.235 . S
C143 C145 1.400 . S
C143 N146 1.351 . S
C143 C148 1.501 . S
C144 C145 1.387 . S
C144 N147 1.341 . S
C145 C143 1.400 . S
C145 C144 1.387 . S
N146 Co137 2.022 . S
N146 C143 1.351 . S
N146 N147 1.365 . S
N147 C144 1.341 . S
N147 N146 1.365 . S
N147 H167 0.862 . S
C148 C143 1.501 . S
C148 H149 0.961 . S
C148 H150 0.961 . S
C148 H151 0.960 . S
H149 C148 0.961 . S
H150 C148 0.961 . S
H151 C148 0.960 . S
C152 N153 1.342 . S
C152 C156 1.401 . S
C152 C157 1.499 . S
N153 Co136 1.989 . S
N153 C152 1.342 . S
N153 N154 1.388 . S
N154 Co137 1.993 . S
N154 N153 1.388 . S
N154 C155 1.346 . S
C155 N154 1.346 . S
C155 C156 1.396 . S
C155 C165 1.510 . S
C156 C152 1.401 . S
C156 C155 1.396 . S
C157 C152 1.499 . S
C157 H158 0.959 . S
C157 H159 0.960 . S
C157 H160 0.961 . S
H158 C157 0.959 . S
H159 C157 0.960 . S
H160 C157 0.961 . S
O161 Co136 1.967 . S
O161 C169 1.258 . S
O162 Co137 1.941 . S
O162 C169 1.266 . S
H163 C165 0.959 . S
H164 C165 0.961 . S
C165 C155 1.510 . S
C165 H163 0.959 . S
C165 H164 0.961 . S
C165 H166 0.960 . S
H166 C165 0.960 . S
H167 N147 0.862 . S
O168 Co136 1.920 . S
O168 C141 1.289 . S
C169 O161 1.258 . S
C169 O162 1.266 . S
Co170 O173 1.970 . S
Co170 N187 1.989 . S
Co170 O195 1.967 . S
Co170 O202 1.920 . S
Co171 O174 1.966 . S
Co171 N180 2.022 . S
Co171 N188 1.993 . S
Co171 O196 1.941 . S
C172 O173 1.258 . S
C172 O174 1.263 . S
O173 Co170 1.970 . S
O173 C172 1.258 . S
O174 Co171 1.966 . S
O174 C172 1.263 . S
C175 O176 1.235 . S
C175 O202 1.289 . S
O176 C175 1.235 . S
C177 C179 1.400 . S
C177 N180 1.351 . S
C177 C182 1.501 . S
C178 C179 1.387 . S
C178 N181 1.341 . S
C179 C177 1.400 . S
C179 C178 1.387 . S
N180 Co171 2.022 . S
N180 C177 1.351 . S
N180 N181 1.365 . S
N181 C178 1.341 . S
N181 N180 1.365 . S
N181 H201 0.862 . S
C182 C177 1.501 . S
C182 H183 0.961 . S
C182 H184 0.961 . S
C182 H185 0.960 . S
H183 C182 0.961 . S
H184 C182 0.961 . S
H185 C182 0.960 . S
C186 N187 1.342 . S
C186 C190 1.401 . S
C186 C191 1.499 . S
N187 Co170 1.989 . S
N187 C186 1.342 . S
N187 N188 1.388 . S
N188 Co171 1.993 . S
N188 N187 1.388 . S
N188 C189 1.346 . S
C189 N188 1.346 . S
C189 C190 1.396 . S
C189 C199 1.510 . S
C190 C186 1.401 . S
C190 C189 1.396 . S
C191 C186 1.499 . S
C191 H192 0.959 . S
C191 H193 0.960 . S
C191 H194 0.961 . S
H192 C191 0.959 . S
H193 C191 0.960 . S
H194 C191 0.961 . S
O195 Co170 1.967 . S
O195 C203 1.258 . S
O196 Co171 1.941 . S
O196 C203 1.266 . S
H197 C199 0.959 . S
H198 C199 0.961 . S
C199 C189 1.510 . S
C199 H197 0.959 . S
C199 H198 0.961 . S
C199 H200 0.960 . S
H200 C199 0.960 . S
H201 N181 0.862 . S
O202 Co170 1.920 . S
O202 C175 1.289 . S
C203 O195 1.258 . S
C203 O196 1.266 . S
Co204 O207 1.970 . S
Co204 N221 1.989 . S
Co204 O229 1.967 . S
Co204 O236 1.920 . S
Co205 O208 1.966 . S
Co205 N214 2.022 . S
Co205 N222 1.993 . S
Co205 O230 1.941 . S
C206 O207 1.258 . S
C206 O208 1.263 . S
O207 Co204 1.970 . S
O207 C206 1.258 . S
O208 Co205 1.966 . S
O208 C206 1.263 . S
C209 O210 1.235 . S
C209 O236 1.289 . S
O210 C209 1.235 . S
C211 C213 1.400 . S
C211 N214 1.351 . S
C211 C216 1.501 . S
C212 C213 1.387 . S
C212 N215 1.341 . S
C213 C211 1.400 . S
C213 C212 1.387 . S
N214 Co205 2.022 . S
N214 C211 1.351 . S
N214 N215 1.365 . S
N215 C212 1.341 . S
N215 N214 1.365 . S
N215 H235 0.862 . S
C216 C211 1.501 . S
C216 H217 0.961 . S
C216 H218 0.961 . S
C216 H219 0.960 . S
H217 C216 0.961 . S
H218 C216 0.961 . S
H219 C216 0.960 . S
C220 N221 1.342 . S
C220 C224 1.401 . S
C220 C225 1.499 . S
N221 Co204 1.989 . S
N221 C220 1.342 . S
N221 N222 1.388 . S
N222 Co205 1.993 . S
N222 N221 1.388 . S
N222 C223 1.346 . S
C223 N222 1.346 . S
C223 C224 1.396 . S
C223 C233 1.510 . S
C224 C220 1.401 . S
C224 C223 1.396 . S
C225 C220 1.499 . S
C225 H226 0.959 . S
C225 H227 0.960 . S
C225 H228 0.961 . S
H226 C225 0.959 . S
H227 C225 0.960 . S
H228 C225 0.961 . S
O229 Co204 1.967 . S
O229 C237 1.258 . S
O230 Co205 1.941 . S
O230 C237 1.266 . S
H231 C233 0.959 . S
H232 C233 0.961 . S
C233 C223 1.510 . S
C233 H231 0.959 . S
C233 H232 0.961 . S
C233 H234 0.960 . S
H234 C233 0.960 . S
H235 N215 0.862 . S
O236 Co204 1.920 . S
O236 C209 1.289 . S
C237 O229 1.258 . S
C237 O230 1.266 . S
Co238 O241 1.970 . S
Co238 N255 1.989 . S
Co238 O263 1.967 . S
Co238 O270 1.920 . S
Co239 O242 1.966 . S
Co239 N248 2.022 . S
Co239 N256 1.993 . S
Co239 O264 1.941 . S
C240 O241 1.258 . S
C240 O242 1.263 . S
O241 Co238 1.970 . S
O241 C240 1.258 . S
O242 Co239 1.966 . S
O242 C240 1.263 . S
C243 O244 1.235 . S
C243 O270 1.289 . S
O244 C243 1.235 . S
C245 C247 1.400 . S
C245 N248 1.351 . S
C245 C250 1.501 . S
C246 C247 1.387 . S
C246 N249 1.341 . S
C247 C245 1.400 . S
C247 C246 1.387 . S
N248 Co239 2.022 . S
N248 C245 1.351 . S
N248 N249 1.365 . S
N249 C246 1.341 . S
N249 N248 1.365 . S
N249 H269 0.862 . S
C250 C245 1.501 . S
C250 H251 0.961 . S
C250 H252 0.961 . S
C250 H253 0.960 . S
H251 C250 0.961 . S
H252 C250 0.961 . S
H253 C250 0.960 . S
C254 N255 1.342 . S
C254 C258 1.401 . S
C254 C259 1.499 . S
N255 Co238 1.989 . S
N255 C254 1.342 . S
N255 N256 1.388 . S
N256 Co239 1.993 . S
N256 N255 1.388 . S
N256 C257 1.346 . S
C257 N256 1.346 . S
C257 C258 1.396 . S
C257 C267 1.510 . S
C258 C254 1.401 . S
C258 C257 1.396 . S
C259 C254 1.499 . S
C259 H260 0.959 . S
C259 H261 0.960 . S
C259 H262 0.961 . S
H260 C259 0.959 . S
H261 C259 0.960 . S
H262 C259 0.961 . S
O263 Co238 1.967 . S
O263 C271 1.258 . S
O264 Co239 1.941 . S
O264 C271 1.266 . S
H265 C267 0.959 . S
H266 C267 0.961 . S
C267 C257 1.510 . S
C267 H265 0.959 . S
C267 H266 0.961 . S
C267 H268 0.960 . S
H268 C267 0.960 . S
H269 N249 0.862 . S
O270 Co238 1.920 . S
O270 C243 1.289 . S
C271 O263 1.258 . S
C271 O264 1.266 . S
Co272 O275 1.970 . S
Co272 N289 1.989 . S
Co272 O297 1.967 . S
Co272 O304 1.920 . S
Co273 O276 1.966 . S
Co273 N282 2.022 . S
Co273 N290 1.993 . S
Co273 O298 1.941 . S
C274 O275 1.258 . S
C274 O276 1.263 . S
O275 Co272 1.970 . S
O275 C274 1.258 . S
O276 Co273 1.966 . S
O276 C274 1.263 . S
C277 O278 1.235 . S
C277 O304 1.289 . S
O278 C277 1.235 . S
C279 C281 1.400 . S
C279 N282 1.351 . S
C279 C284 1.501 . S
C280 C281 1.387 . S
C280 N283 1.341 . S
C281 C279 1.400 . S
C281 C280 1.387 . S
N282 Co273 2.022 . S
N282 C279 1.351 . S
N282 N283 1.365 . S
N283 C280 1.341 . S
N283 N282 1.365 . S
N283 H303 0.862 . S
C284 C279 1.501 . S
C284 H285 0.961 . S
C284 H286 0.961 . S
C284 H287 0.960 . S
H285 C284 0.961 . S
H286 C284 0.961 . S
H287 C284 0.960 . S
C288 N289 1.342 . S
C288 C292 1.401 . S
C288 C293 1.499 . S
N289 Co272 1.989 . S
N289 C288 1.342 . S
N289 N290 1.388 . S
N290 Co273 1.993 . S
N290 N289 1.388 . S
N290 C291 1.346 . S
C291 N290 1.346 . S
C291 C292 1.396 . S
C291 C301 1.510 . S
C292 C288 1.401 . S
C292 C291 1.396 . S
C293 C288 1.499 . S
C293 H294 0.959 . S
C293 H295 0.960 . S
C293 H296 0.961 . S
H294 C293 0.959 . S
H295 C293 0.960 . S
H296 C293 0.961 . S
O297 Co272 1.967 . S
O297 C305 1.258 . S
O298 Co273 1.941 . S
O298 C305 1.266 . S
H299 C301 0.959 . S
H300 C301 0.961 . S
C301 C291 1.510 . S
C301 H299 0.959 . S
C301 H300 0.961 . S
C301 H302 0.960 . S
H302 C301 0.960 . S
H303 N283 0.862 . S
O304 Co272 1.920 . S
O304 C277 1.289 . S
C305 O297 1.258 . S
C305 O298 1.266 . S
Co306 O309 1.970 . S
Co306 N323 1.989 . S
Co306 O331 1.967 . S
Co306 O338 1.920 . S
Co307 O310 1.966 . S
Co307 N316 2.022 . S
Co307 N324 1.993 . S
Co307 O332 1.941 . S
C308 O309 1.258 . S
C308 O310 1.263 . S
O309 Co306 1.970 . S
O309 C308 1.258 . S
O310 Co307 1.966 . S
O310 C308 1.263 . S
C311 O312 1.235 . S
C311 O338 1.289 . S
O312 C311 1.235 . S
C313 C315 1.400 . S
C313 N316 1.351 . S
C313 C318 1.501 . S
C314 C315 1.387 . S
C314 N317 1.341 . S
C315 C313 1.400 . S
C315 C314 1.387 . S
N316 Co307 2.022 . S
N316 C313 1.351 . S
N316 N317 1.365 . S
N317 C314 1.341 . S
N317 N316 1.365 . S
N317 H337 0.862 . S
C318 C313 1.501 . S
C318 H319 0.961 . S
C318 H320 0.961 . S
C318 H321 0.960 . S
H319 C318 0.961 . S
H320 C318 0.961 . S
H321 C318 0.960 . S
C322 N323 1.342 . S
C322 C326 1.401 . S
C322 C327 1.499 . S
N323 Co306 1.989 . S
N323 C322 1.342 . S
N323 N324 1.388 . S
N324 Co307 1.993 . S
N324 N323 1.388 . S
N324 C325 1.346 . S
C325 N324 1.346 . S
C325 C326 1.396 . S
C325 C335 1.510 . S
C326 C322 1.401 . S
C326 C325 1.396 . S
C327 C322 1.499 . S
C327 H328 0.959 . S
C327 H329 0.960 . S
C327 H330 0.961 . S
H328 C327 0.959 . S
H329 C327 0.960 . S
H330 C327 0.961 . S
O331 Co306 1.967 . S
O331 C339 1.258 . S
O332 Co307 1.941 . S
O332 C339 1.266 . S
H333 C335 0.959 . S
H334 C335 0.961 . S
C335 C325 1.510 . S
C335 H333 0.959 . S
C335 H334 0.961 . S
C335 H336 0.960 . S
H336 C335 0.960 . S
H337 N317 0.862 . S
O338 Co306 1.920 . S
O338 C311 1.289 . S
C339 O331 1.258 . S
C339 O332 1.266 . S
Co340 O343 1.970 . S
Co340 N357 1.989 . S
Co340 O365 1.967 . S
Co340 O372 1.920 . S
Co341 O344 1.966 . S
Co341 N350 2.022 . S
Co341 N358 1.993 . S
Co341 O366 1.941 . S
C342 O343 1.258 . S
C342 O344 1.263 . S
O343 Co340 1.970 . S
O343 C342 1.258 . S
O344 Co341 1.966 . S
O344 C342 1.263 . S
C345 O346 1.235 . S
C345 O372 1.289 . S
O346 C345 1.235 . S
C347 C349 1.400 . S
C347 N350 1.351 . S
C347 C352 1.501 . S
C348 C349 1.387 . S
C348 N351 1.341 . S
C349 C347 1.400 . S
C349 C348 1.387 . S
N350 Co341 2.022 . S
N350 C347 1.351 . S
N350 N351 1.365 . S
N351 C348 1.341 . S
N351 N350 1.365 . S
N351 H371 0.862 . S
C352 C347 1.501 . S
C352 H353 0.961 . S
C352 H354 0.961 . S
C352 H355 0.960 . S
H353 C352 0.961 . S
H354 C352 0.961 . S
H355 C352 0.960 . S
C356 N357 1.342 . S
C356 C360 1.401 . S
C356 C361 1.499 . S
N357 Co340 1.989 . S
N357 C356 1.342 . S
N357 N358 1.388 . S
N358 Co341 1.993 . S
N358 N357 1.388 . S
N358 C359 1.346 . S
C359 N358 1.346 . S
C359 C360 1.396 . S
C359 C369 1.510 . S
C360 C356 1.401 . S
C360 C359 1.396 . S
C361 C356 1.499 . S
C361 H362 0.959 . S
C361 H363 0.960 . S
C361 H364 0.961 . S
H362 C361 0.959 . S
H363 C361 0.960 . S
H364 C361 0.961 . S
O365 Co340 1.967 . S
O365 C373 1.258 . S
O366 Co341 1.941 . S
O366 C373 1.266 . S
H367 C369 0.959 . S
H368 C369 0.961 . S
C369 C359 1.510 . S
C369 H367 0.959 . S
C369 H368 0.961 . S
C369 H370 0.960 . S
H370 C369 0.960 . S
H371 N351 0.862 . S
O372 Co340 1.920 . S
O372 C345 1.289 . S
C373 O365 1.258 . S
C373 O366 1.266 . S
Co374 O377 1.970 . S
Co374 N391 1.989 . S
Co374 O399 1.967 . S
Co374 O406 1.920 . S
Co375 O378 1.966 . S
Co375 N384 2.022 . S
Co375 N392 1.993 . S
Co375 O400 1.941 . S
C376 O377 1.258 . S
C376 O378 1.263 . S
O377 Co374 1.970 . S
O377 C376 1.258 . S
O378 Co375 1.966 . S
O378 C376 1.263 . S
C379 O380 1.235 . S
C379 O406 1.289 . S
O380 C379 1.235 . S
C381 C383 1.400 . S
C381 N384 1.351 . S
C381 C386 1.501 . S
C382 C383 1.387 . S
C382 N385 1.341 . S
C383 C381 1.400 . S
C383 C382 1.387 . S
N384 Co375 2.022 . S
N384 C381 1.351 . S
N384 N385 1.365 . S
N385 C382 1.341 . S
N385 N384 1.365 . S
N385 H405 0.862 . S
C386 C381 1.501 . S
C386 H387 0.961 . S
C386 H388 0.961 . S
C386 H389 0.960 . S
H387 C386 0.961 . S
H388 C386 0.961 . S
H389 C386 0.960 . S
C390 N391 1.342 . S
C390 C394 1.401 . S
C390 C395 1.499 . S
N391 Co374 1.989 . S
N391 C390 1.342 . S
N391 N392 1.388 . S
N392 Co375 1.993 . S
N392 N391 1.388 . S
N392 C393 1.346 . S
C393 N392 1.346 . S
C393 C394 1.396 . S
C393 C403 1.510 . S
C394 C390 1.401 . S
C394 C393 1.396 . S
C395 C390 1.499 . S
C395 H396 0.959 . S
C395 H397 0.960 . S
C395 H398 0.961 . S
H396 C395 0.959 . S
H397 C395 0.960 . S
H398 C395 0.961 . S
O399 Co374 1.967 . S
O399 C407 1.258 . S
O400 Co375 1.941 . S
O400 C407 1.266 . S
H401 C403 0.959 . S
H402 C403 0.961 . S
C403 C393 1.510 . S
C403 H401 0.959 . S
C403 H402 0.961 . S
C403 H404 0.960 . S
H404 C403 0.960 . S
H405 N385 0.862 . S
O406 Co374 1.920 . S
O406 C379 1.289 . S
C407 O399 1.258 . S
C407 O400 1.266 . S
Co408 O411 1.970 . S
Co408 N425 1.989 . S
Co408 O433 1.967 . S
Co408 O440 1.920 . S
Co409 O412 1.966 . S
Co409 N418 2.022 . S
Co409 N426 1.993 . S
Co409 O434 1.941 . S
C410 O411 1.258 . S
C410 O412 1.263 . S
O411 Co408 1.970 . S
O411 C410 1.258 . S
O412 Co409 1.966 . S
O412 C410 1.263 . S
C413 O414 1.235 . S
C413 O440 1.289 . S
O414 C413 1.235 . S
C415 C417 1.400 . S
C415 N418 1.351 . S
C415 C420 1.501 . S
C416 C417 1.387 . S
C416 N419 1.341 . S
C417 C415 1.400 . S
C417 C416 1.387 . S
N418 Co409 2.022 . S
N418 C415 1.351 . S
N418 N419 1.365 . S
N419 C416 1.341 . S
N419 N418 1.365 . S
N419 H439 0.862 . S
C420 C415 1.501 . S
C420 H421 0.961 . S
C420 H422 0.961 . S
C420 H423 0.960 . S
H421 C420 0.961 . S
H422 C420 0.961 . S
H423 C420 0.960 . S
C424 N425 1.342 . S
C424 C428 1.401 . S
C424 C429 1.499 . S
N425 Co408 1.989 . S
N425 C424 1.342 . S
N425 N426 1.388 . S
N426 Co409 1.993 . S
N426 N425 1.388 . S
N426 C427 1.346 . S
C427 N426 1.346 . S
C427 C428 1.396 . S
C427 C437 1.510 . S
C428 C424 1.401 . S
C428 C427 1.396 . S
C429 C424 1.499 . S
C429 H430 0.959 . S
C429 H431 0.960 . S
C429 H432 0.961 . S
H430 C429 0.959 . S
H431 C429 0.960 . S
H432 C429 0.961 . S
O433 Co408 1.967 . S
O433 C441 1.258 . S
O434 Co409 1.941 . S
O434 C441 1.266 . S
H435 C437 0.959 . S
H436 C437 0.961 . S
C437 C427 1.510 . S
C437 H435 0.959 . S
C437 H436 0.961 . S
C437 H438 0.960 . S
H438 C437 0.960 . S
H439 N419 0.862 . S
O440 Co408 1.920 . S
O440 C413 1.289 . S
C441 O433 1.258 . S
C441 O434 1.266 . S
Co442 O445 1.970 . S
Co442 N459 1.989 . S
Co442 O467 1.967 . S
Co442 O474 1.920 . S
Co443 O446 1.966 . S
Co443 N452 2.022 . S
Co443 N460 1.993 . S
Co443 O468 1.941 . S
C444 O445 1.258 . S
C444 O446 1.263 . S
O445 Co442 1.970 . S
O445 C444 1.258 . S
O446 Co443 1.966 . S
O446 C444 1.263 . S
C447 O448 1.235 . S
C447 O474 1.289 . S
O448 C447 1.235 . S
C449 C451 1.400 . S
C449 N452 1.351 . S
C449 C454 1.501 . S
C450 C451 1.387 . S
C450 N453 1.341 . S
C451 C449 1.400 . S
C451 C450 1.387 . S
N452 Co443 2.022 . S
N452 C449 1.351 . S
N452 N453 1.365 . S
N453 C450 1.341 . S
N453 N452 1.365 . S
N453 H473 0.862 . S
C454 C449 1.501 . S
C454 H455 0.961 . S
C454 H456 0.961 . S
C454 H457 0.960 . S
H455 C454 0.961 . S
H456 C454 0.961 . S
H457 C454 0.960 . S
C458 N459 1.342 . S
C458 C462 1.401 . S
C458 C463 1.499 . S
N459 Co442 1.989 . S
N459 C458 1.342 . S
N459 N460 1.388 . S
N460 Co443 1.993 . S
N460 N459 1.388 . S
N460 C461 1.346 . S
C461 N460 1.346 . S
C461 C462 1.396 . S
C461 C471 1.510 . S
C462 C458 1.401 . S
C462 C461 1.396 . S
C463 C458 1.499 . S
C463 H464 0.959 . S
C463 H465 0.960 . S
C463 H466 0.961 . S
H464 C463 0.959 . S
H465 C463 0.960 . S
H466 C463 0.961 . S
O467 Co442 1.967 . S
O467 C475 1.258 . S
O468 Co443 1.941 . S
O468 C475 1.266 . S
H469 C471 0.959 . S
H470 C471 0.961 . S
C471 C461 1.510 . S
C471 H469 0.959 . S
C471 H470 0.961 . S
C471 H472 0.960 . S
H472 C471 0.960 . S
H473 N453 0.862 . S
O474 Co442 1.920 . S
O474 C447 1.289 . S
C475 O467 1.258 . S
C475 O468 1.266 . S
Co476 O479 1.970 . S
Co476 N493 1.989 . S
Co476 O501 1.967 . S
Co476 O508 1.920 . S
Co477 O480 1.966 . S
Co477 N486 2.022 . S
Co477 N494 1.993 . S
Co477 O502 1.941 . S
C478 O479 1.258 . S
C478 O480 1.263 . S
O479 Co476 1.970 . S
O479 C478 1.258 . S
O480 Co477 1.966 . S
O480 C478 1.263 . S
C481 O482 1.235 . S
C481 O508 1.289 . S
O482 C481 1.235 . S
C483 C485 1.400 . S
C483 N486 1.351 . S
C483 C488 1.501 . S
C484 C485 1.387 . S
C484 N487 1.341 . S
C485 C483 1.400 . S
C485 C484 1.387 . S
N486 Co477 2.022 . S
N486 C483 1.351 . S
N486 N487 1.365 . S
N487 C484 1.341 . S
N487 N486 1.365 . S
N487 H507 0.862 . S
C488 C483 1.501 . S
C488 H489 0.961 . S
C488 H490 0.961 . S
C488 H491 0.960 . S
H489 C488 0.961 . S
H490 C488 0.961 . S
H491 C488 0.960 . S
C492 N493 1.342 . S
C492 C496 1.401 . S
C492 C497 1.499 . S
N493 Co476 1.989 . S
N493 C492 1.342 . S
N493 N494 1.388 . S
N494 Co477 1.993 . S
N494 N493 1.388 . S
N494 C495 1.346 . S
C495 N494 1.346 . S
C495 C496 1.396 . S
C495 C505 1.510 . S
C496 C492 1.401 . S
C496 C495 1.396 . S
C497 C492 1.499 . S
C497 H498 0.959 . S
C497 H499 0.960 . S
C497 H500 0.961 . S
H498 C497 0.959 . S
H499 C497 0.960 . S
H500 C497 0.961 . S
O501 Co476 1.967 . S
O501 C509 1.258 . S
O502 Co477 1.941 . S
O502 C509 1.266 . S
H503 C505 0.959 . S
H504 C505 0.961 . S
C505 C495 1.510 . S
C505 H503 0.959 . S
C505 H504 0.961 . S
C505 H506 0.960 . S
H506 C505 0.960 . S
H507 N487 0.862 . S
O508 Co476 1.920 . S
O508 C481 1.289 . S
C509 O501 1.258 . S
C509 O502 1.266 . S
Co510 O513 1.970 . S
Co510 N527 1.989 . S
Co510 O535 1.967 . S
Co510 O542 1.920 . S
Co511 O514 1.966 . S
Co511 N520 2.022 . S
Co511 N528 1.993 . S
Co511 O536 1.941 . S
C512 O513 1.258 . S
C512 O514 1.263 . S
O513 Co510 1.970 . S
O513 C512 1.258 . S
O514 Co511 1.966 . S
O514 C512 1.263 . S
C515 O516 1.235 . S
C515 O542 1.289 . S
O516 C515 1.235 . S
C517 C519 1.400 . S
C517 N520 1.351 . S
C517 C522 1.501 . S
C518 C519 1.387 . S
C518 N521 1.341 . S
C519 C517 1.400 . S
C519 C518 1.387 . S
N520 Co511 2.022 . S
N520 C517 1.351 . S
N520 N521 1.365 . S
N521 C518 1.341 . S
N521 N520 1.365 . S
N521 H541 0.862 . S
C522 C517 1.501 . S
C522 H523 0.961 . S
C522 H524 0.961 . S
C522 H525 0.960 . S
H523 C522 0.961 . S
H524 C522 0.961 . S
H525 C522 0.960 . S
C526 N527 1.342 . S
C526 C530 1.401 . S
C526 C531 1.499 . S
N527 Co510 1.989 . S
N527 C526 1.342 . S
N527 N528 1.388 . S
N528 Co511 1.993 . S
N528 N527 1.388 . S
N528 C529 1.346 . S
C529 N528 1.346 . S
C529 C530 1.396 . S
C529 C539 1.510 . S
C530 C526 1.401 . S
C530 C529 1.396 . S
C531 C526 1.499 . S
C531 H532 0.959 . S
C531 H533 0.960 . S
C531 H534 0.961 . S
H532 C531 0.959 . S
H533 C531 0.960 . S
H534 C531 0.961 . S
O535 Co510 1.967 . S
O535 C543 1.258 . S
O536 Co511 1.941 . S
O536 C543 1.266 . S
H537 C539 0.959 . S
H538 C539 0.961 . S
C539 C529 1.510 . S
C539 H537 0.959 . S
C539 H538 0.961 . S
C539 H540 0.960 . S
H540 C539 0.960 . S
H541 N521 0.862 . S
O542 Co510 1.920 . S
O542 C515 1.289 . S
C543 O535 1.258 . S
C543 O536 1.266 . S
C544 C545 1.369 . S
C544 C546 1.419 . S
C544 H548 0.930 . S
C545 C544 1.369 . S
C545 C554 1.429 . S
C546 C544 1.419 . S
C546 C547 1.363 . S
C546 H549 0.929 . S
C547 C546 1.363 . S
C547 C553 1.428 . S
H548 C544 0.930 . S
H549 C546 0.929 . S
S550 N551 1.613 . S
S550 N552 1.610 . S
N551 S550 1.613 . S
N551 C554 1.350 . S
N552 S550 1.610 . S
N552 C553 1.351 . S
C553 C547 1.428 . S
C553 N552 1.351 . S
C553 C554 1.434 . S
C554 C545 1.429 . S
C554 N551 1.350 . S
C554 C553 1.434 . S
C555 C556 1.369 . S
C555 C557 1.419 . S
C555 H559 0.930 . S
C556 C555 1.369 . S
C556 C565 1.429 . S
C557 C555 1.419 . S
C557 C558 1.363 . S
C557 H560 0.929 . S
C558 C557 1.363 . S
C558 C564 1.428 . S
H559 C555 0.930 . S
H560 C557 0.929 . S
S561 N562 1.613 . S
S561 N563 1.610 . S
N562 S561 1.613 . S
N562 C565 1.350 . S
N563 S561 1.610 . S
N563 C564 1.351 . S
C564 C558 1.428 . S
C564 N563 1.351 . S
C564 C565 1.434 . S
C565 C556 1.429 . S
C565 N562 1.350 . S
C565 C564 1.434 . S
C566 C567 1.369 . S
C566 C568 1.419 . S
C566 H570 0.930 . S
C567 C566 1.369 . S
C567 C576 1.429 . S
C568 C566 1.419 . S
C568 C569 1.363 . S
C568 H571 0.929 . S
C569 C568 1.363 . S
C569 C575 1.428 . S
H570 C566 0.930 . S
H571 C568 0.929 . S
S572 N573 1.613 . S
S572 N574 1.610 . S
N573 S572 1.613 . S
N573 C576 1.350 . S
N574 S572 1.610 . S
N574 C575 1.351 . S
C575 C569 1.428 . S
C575 N574 1.351 . S
C575 C576 1.434 . S
C576 C567 1.429 . S
C576 N573 1.350 . S
C576 C575 1.434 . S
C577 C578 1.369 . S
C577 C579 1.419 . S
C577 H581 0.930 . S
C578 C577 1.369 . S
C578 C587 1.429 . S
C579 C577 1.419 . S
C579 C580 1.363 . S
C579 H582 0.929 . S
C580 C579 1.363 . S
C580 C586 1.428 . S
H581 C577 0.930 . S
H582 C579 0.929 . S
S583 N584 1.613 . S
S583 N585 1.610 . S
N584 S583 1.613 . S
N584 C587 1.350 . S
N585 S583 1.610 . S
N585 C586 1.351 . S
C586 C580 1.428 . S
C586 N585 1.351 . S
C586 C587 1.434 . S
C587 C578 1.429 . S
C587 N584 1.350 . S
C587 C586 1.434 . S
C588 C589 1.369 . S
C588 C590 1.419 . S
C588 H592 0.930 . S
C589 C588 1.369 . S
C589 C598 1.429 . S
C590 C588 1.419 . S
C590 C591 1.363 . S
C590 H593 0.929 . S
C591 C590 1.363 . S
C591 C597 1.428 . S
H592 C588 0.930 . S
H593 C590 0.929 . S
S594 N595 1.613 . S
S594 N596 1.610 . S
N595 S594 1.613 . S
N595 C598 1.350 . S
N596 S594 1.610 . S
N596 C597 1.351 . S
C597 C591 1.428 . S
C597 N596 1.351 . S
C597 C598 1.434 . S
C598 C589 1.429 . S
C598 N595 1.350 . S
C598 C597 1.434 . S
C599 C600 1.369 . S
C599 C601 1.419 . S
C599 H603 0.930 . S
C600 C599 1.369 . S
C600 C609 1.429 . S
C601 C599 1.419 . S
C601 C602 1.363 . S
C601 H604 0.929 . S
C602 C601 1.363 . S
C602 C608 1.428 . S
H603 C599 0.930 . S
H604 C601 0.929 . S
S605 N606 1.613 . S
S605 N607 1.610 . S
N606 S605 1.613 . S
N606 C609 1.350 . S
N607 S605 1.610 . S
N607 C608 1.351 . S
C608 C602 1.428 . S
C608 N607 1.351 . S
C608 C609 1.434 . S
C609 C600 1.429 . S
C609 N606 1.350 . S
C609 C608 1.434 . S
C610 C611 1.369 . S
C610 C612 1.419 . S
C610 H614 0.930 . S
C611 C610 1.369 . S
C611 C620 1.429 . S
C612 C610 1.419 . S
C612 C613 1.363 . S
C612 H615 0.929 . S
C613 C612 1.363 . S
C613 C619 1.428 . S
H614 C610 0.930 . S
H615 C612 0.929 . S
S616 N617 1.613 . S
S616 N618 1.610 . S
N617 S616 1.613 . S
N617 C620 1.350 . S
N618 S616 1.610 . S
N618 C619 1.351 . S
C619 C613 1.428 . S
C619 N618 1.351 . S
C619 C620 1.434 . S
C620 C611 1.429 . S
C620 N617 1.350 . S
C620 C619 1.434 . S
C621 C622 1.369 . S
C621 C623 1.419 . S
C621 H625 0.930 . S
C622 C621 1.369 . S
C622 C631 1.429 . S
C623 C621 1.419 . S
C623 C624 1.363 . S
C623 H626 0.929 . S
C624 C623 1.363 . S
C624 C630 1.428 . S
H625 C621 0.930 . S
H626 C623 0.929 . S
S627 N628 1.613 . S
S627 N629 1.610 . S
N628 S627 1.613 . S
N628 C631 1.350 . S
N629 S627 1.610 . S
N629 C630 1.351 . S
C630 C624 1.428 . S
C630 N629 1.351 . S
C630 C631 1.434 . S
C631 C622 1.429 . S
C631 N628 1.350 . S
C631 C630 1.434 . S
C632 C633 1.369 1_655 S
C632 C634 1.419 . S
C632 H636 0.930 . S
C633 C632 1.369 1_455 S
C633 C642 1.429 1_545 S
C634 C632 1.419 . S
C634 C635 1.363 1_545 S
C634 H637 0.929 . S
C635 C634 1.363 1_565 S
C635 C641 1.428 1_655 S
H636 C632 0.930 . S
H637 C634 0.929 . S
S638 N639 1.613 . S
S638 N640 1.610 . S
N639 S638 1.613 . S
N639 C642 1.350 . S
N640 S638 1.610 . S
N640 C641 1.351 . S
C641 C635 1.428 1_455 S
C641 N640 1.351 . S
C641 C642 1.434 . S
C642 C633 1.429 1_565 S
C642 N639 1.350 . S
C642 C641 1.434 . S
C643 C644 1.369 1_455 S
C643 C645 1.419 1_545 S
C643 H647 0.930 . S
C644 C643 1.369 1_655 S
C644 C653 1.429 . S
C645 C643 1.419 1_565 S
C645 C646 1.363 . S
C645 H648 0.929 . S
C646 C645 1.363 . S
C646 C652 1.428 1_455 S
H647 C643 0.930 . S
H648 C645 0.929 . S
S649 N650 1.613 1_565 S
S649 N651 1.610 . S
N650 S649 1.613 1_545 S
N650 C653 1.350 . S
N651 S649 1.610 . S
N651 C652 1.351 . S
C652 C646 1.428 1_655 S
C652 N651 1.351 . S
C652 C653 1.434 1_565 S
C653 C644 1.429 . S
C653 N650 1.350 . S
C653 C652 1.434 1_545 S
C654 C655 1.369 1_455 S
C654 C656 1.419 . S
C654 H658 0.930 . S
C655 C654 1.369 1_655 S
C655 C664 1.429 1_545 S
C656 C654 1.419 . S
C656 C657 1.363 1_545 S
C656 H659 0.929 . S
C657 C656 1.363 1_565 S
C657 C663 1.428 1_455 S
H658 C654 0.930 . S
H659 C656 0.929 . S
S660 N661 1.613 . S
S660 N662 1.610 . S
N661 S660 1.613 . S
N661 C664 1.350 . S
N662 S660 1.610 . S
N662 C663 1.351 . S
C663 C657 1.428 1_655 S
C663 N662 1.351 . S
C663 C664 1.434 . S
C664 C655 1.429 1_565 S
C664 N661 1.350 . S
C664 C663 1.434 . S
C665 C666 1.369 1_655 S
C665 C667 1.419 1_545 S
C665 H669 0.930 . S
C666 C665 1.369 1_455 S
C666 C675 1.429 . S
C667 C665 1.419 1_565 S
C667 C668 1.363 . S
C667 H670 0.929 . S
C668 C667 1.363 . S
C668 C674 1.428 1_655 S
H669 C665 0.930 . S
H670 C667 0.929 . S
S671 N672 1.613 1_565 S
S671 N673 1.610 . S
N672 S671 1.613 1_545 S
N672 C675 1.350 . S
N673 S671 1.610 . S
N673 C674 1.351 . S
C674 C668 1.428 1_455 S
C674 N673 1.351 . S
C674 C675 1.434 1_565 S
C675 C666 1.429 . S
C675 N672 1.350 . S
C675 C674 1.434 1_545 S
C676 C677 1.369 . S
C676 C678 1.419 . S
C676 H680 0.930 . S
C677 C676 1.369 . S
C677 C686 1.429 . S
C678 C676 1.419 . S
C678 C679 1.363 . S
C678 H681 0.929 . S
C679 C678 1.363 . S
C679 C685 1.428 . S
H680 C676 0.930 . S
H681 C678 0.929 . S
S682 N683 1.613 . S
S682 N684 1.610 . S
N683 S682 1.613 . S
N683 C686 1.350 . S
N684 S682 1.610 . S
N684 C685 1.351 . S
C685 C679 1.428 . S
C685 N684 1.351 . S
C685 C686 1.434 . S
C686 C677 1.429 . S
C686 N683 1.350 . S
C686 C685 1.434 . S
C687 C688 1.369 . S
C687 C689 1.419 . S
C687 H691 0.930 . S
C688 C687 1.369 . S
C688 C697 1.429 . S
C689 C687 1.419 . S
C689 C690 1.363 . S
C689 H692 0.929 . S
C690 C689 1.363 . S
C690 C696 1.428 . S
H691 C687 0.930 . S
H692 C689 0.929 . S
S693 N694 1.613 . S
S693 N695 1.610 . S
N694 S693 1.613 . S
N694 C697 1.350 . S
N695 S693 1.610 . S
N695 C696 1.351 . S
C696 C690 1.428 . S
C696 N695 1.351 . S
C696 C697 1.434 . S
C697 C688 1.429 . S
C697 N694 1.350 . S
C697 C696 1.434 . S
C698 C699 1.369 . S
C698 C700 1.419 . S
C698 H702 0.930 . S
C699 C698 1.369 . S
C699 C708 1.429 . S
C700 C698 1.419 . S
C700 C701 1.363 . S
C700 H703 0.929 . S
C701 C700 1.363 . S
C701 C707 1.428 . S
H702 C698 0.930 . S
H703 C700 0.929 . S
S704 N705 1.613 . S
S704 N706 1.610 . S
N705 S704 1.613 . S
N705 C708 1.350 . S
N706 S704 1.610 . S
N706 C707 1.351 . S
C707 C701 1.428 . S
C707 N706 1.351 . S
C707 C708 1.434 . S
C708 C699 1.429 . S
C708 N705 1.350 . S
C708 C707 1.434 . S
C709 C710 1.369 . S
C709 C711 1.419 . S
C709 H713 0.930 . S
C710 C709 1.369 . S
C710 C719 1.429 . S
C711 C709 1.419 . S
C711 C712 1.363 . S
C711 H714 0.929 . S
C712 C711 1.363 . S
C712 C718 1.428 . S
H713 C709 0.930 . S
H714 C711 0.929 . S
S715 N716 1.613 . S
S715 N717 1.610 . S
N716 S715 1.613 . S
N716 C719 1.350 . S
N717 S715 1.610 . S
N717 C718 1.351 . S
C718 C712 1.428 . S
C718 N717 1.351 . S
C718 C719 1.434 . S
C719 C710 1.429 . S
C719 N716 1.350 . S
C719 C718 1.434 . S
C720 C721 1.369 . S
C720 C722 1.419 1_556 S
C720 H724 0.930 . S
C721 C720 1.369 . S
C721 C730 1.429 . S
C722 C720 1.419 1_554 S
C722 C723 1.363 . S
C722 H725 0.929 . S
C723 C722 1.363 . S
C723 C729 1.428 . S
H724 C720 0.930 . S
H725 C722 0.929 . S
S726 N727 1.613 1_554 S
S726 N728 1.610 . S
N727 S726 1.613 1_556 S
N727 C730 1.350 . S
N728 S726 1.610 . S
N728 C729 1.351 . S
C729 C723 1.428 . S
C729 N728 1.351 . S
C729 C730 1.434 1_554 S
C730 C721 1.429 . S
C730 N727 1.350 . S
C730 C729 1.434 1_556 S
C731 C732 1.369 . S
C731 C733 1.419 1_554 S
C731 H735 0.930 . S
C732 C731 1.369 . S
C732 C741 1.429 . S
C733 C731 1.419 1_556 S
C733 C734 1.363 . S
C733 H736 0.929 . S
C734 C733 1.363 . S
C734 C740 1.428 . S
H735 C731 0.930 . S
H736 C733 0.929 . S
S737 N738 1.613 . S
S737 N739 1.610 1_554 S
N738 S737 1.613 . S
N738 C741 1.350 . S
N739 S737 1.610 1_556 S
N739 C740 1.351 . S
C740 C734 1.428 . S
C740 N739 1.351 . S
C740 C741 1.434 1_556 S
C741 C732 1.429 . S
C741 N738 1.350 . S
C741 C740 1.434 1_554 S
C742 C743 1.369 . S
C742 C744 1.419 1_556 S
C742 H746 0.930 . S
C743 C742 1.369 . S
C743 C752 1.429 . S
C744 C742 1.419 1_554 S
C744 C745 1.363 . S
C744 H747 0.929 . S
C745 C744 1.363 . S
C745 C751 1.428 . S
H746 C742 0.930 . S
H747 C744 0.929 . S
S748 N749 1.613 . S
S748 N750 1.610 1_556 S
N749 S748 1.613 . S
N749 C752 1.350 . S
N750 S748 1.610 1_554 S
N750 C751 1.351 . S
C751 C745 1.428 . S
C751 N750 1.351 . S
C751 C752 1.434 1_554 S
C752 C743 1.429 . S
C752 N749 1.350 . S
C752 C751 1.434 1_556 S
C753 C754 1.369 . S
C753 C755 1.419 1_556 S
C753 H757 0.930 . S
C754 C753 1.369 . S
C754 C763 1.429 . S
C755 C753 1.419 1_554 S
C755 C756 1.363 . S
C755 H758 0.929 . S
C756 C755 1.363 . S
C756 C762 1.428 . S
H757 C753 0.930 . S
H758 C755 0.929 . S
S759 N760 1.613 . S
S759 N761 1.610 1_556 S
N760 S759 1.613 . S
N760 C763 1.350 . S
N761 S759 1.610 1_554 S
N761 C762 1.351 . S
C762 C756 1.428 . S
C762 N761 1.351 . S
C762 C763 1.434 1_554 S
C763 C754 1.429 . S
C763 N760 1.350 . S
C763 C762 1.434 1_556 S
C764 C765 1.369 . S
C764 C766 1.419 . S
C764 H768 0.930 . S
C765 C764 1.369 . S
C765 C774 1.429 . S
C766 C764 1.419 . S
C766 C767 1.363 . S
C766 H769 0.929 . S
C767 C766 1.363 . S
C767 C773 1.428 . S
H768 C764 0.930 . S
H769 C766 0.929 . S
S770 N771 1.613 . S
S770 N772 1.610 . S
N771 S770 1.613 . S
N771 C774 1.350 . S
N772 S770 1.610 . S
N772 C773 1.351 . S
C773 C767 1.428 . S
C773 N772 1.351 . S
C773 C774 1.434 . S
C774 C765 1.429 . S
C774 N771 1.350 . S
C774 C773 1.434 . S
C775 C776 1.369 . S
C775 C777 1.419 . S
C775 H779 0.930 . S
C776 C775 1.369 . S
C776 C785 1.429 . S
C777 C775 1.419 . S
C777 C778 1.363 . S
C777 H780 0.929 . S
C778 C777 1.363 . S
C778 C784 1.428 . S
H779 C775 0.930 . S
H780 C777 0.929 . S
S781 N782 1.613 . S
S781 N783 1.610 . S
N782 S781 1.613 . S
N782 C785 1.350 . S
N783 S781 1.610 . S
N783 C784 1.351 . S
C784 C778 1.428 . S
C784 N783 1.351 . S
C784 C785 1.434 . S
C785 C776 1.429 . S
C785 N782 1.350 . S
C785 C784 1.434 . S
C786 C787 1.369 . S
C786 C788 1.419 . S
C786 H790 0.930 . S
C787 C786 1.369 . S
C787 C796 1.429 . S
C788 C786 1.419 . S
C788 C789 1.363 . S
C788 H791 0.929 . S
C789 C788 1.363 . S
C789 C795 1.428 . S
H790 C786 0.930 . S
H791 C788 0.929 . S
S792 N793 1.613 . S
S792 N794 1.610 . S
N793 S792 1.613 . S
N793 C796 1.350 . S
N794 S792 1.610 . S
N794 C795 1.351 . S
C795 C789 1.428 . S
C795 N794 1.351 . S
C795 C796 1.434 . S
C796 C787 1.429 . S
C796 N793 1.350 . S
C796 C795 1.434 . S
C797 C798 1.369 . S
C797 C799 1.419 . S
C797 H801 0.930 . S
C798 C797 1.369 . S
C798 C807 1.429 . S
C799 C797 1.419 . S
C799 C800 1.363 . S
C799 H802 0.929 . S
C800 C799 1.363 . S
C800 C806 1.428 . S
H801 C797 0.930 . S
H802 C799 0.929 . S
S803 N804 1.613 . S
S803 N805 1.610 . S
N804 S803 1.613 . S
N804 C807 1.350 . S
N805 S803 1.610 . S
N805 C806 1.351 . S
C806 C800 1.428 . S
C806 N805 1.351 . S
C806 C807 1.434 . S
C807 C798 1.429 . S
C807 N804 1.350 . S
C807 C806 1.434 . S
C808 C809 1.369 . S
C808 C810 1.419 . S
C808 H812 0.930 . S
C809 C808 1.369 . S
C809 C818 1.429 . S
C810 C808 1.419 . S
C810 C811 1.363 . S
C810 H813 0.929 . S
C811 C810 1.363 . S
C811 C817 1.428 . S
H812 C808 0.930 . S
H813 C810 0.929 . S
S814 N815 1.613 . S
S814 N816 1.610 . S
N815 S814 1.613 . S
N815 C818 1.350 . S
N816 S814 1.610 . S
N816 C817 1.351 . S
C817 C811 1.428 . S
C817 N816 1.351 . S
C817 C818 1.434 . S
C818 C809 1.429 . S
C818 N815 1.350 . S
C818 C817 1.434 . S
C819 C820 1.369 . S
C819 C821 1.419 . S
C819 H823 0.930 . S
C820 C819 1.369 . S
C820 C829 1.429 . S
C821 C819 1.419 . S
C821 C822 1.363 . S
C821 H824 0.929 . S
C822 C821 1.363 . S
C822 C828 1.428 . S
H823 C819 0.930 . S
H824 C821 0.929 . S
S825 N826 1.613 . S
S825 N827 1.610 . S
N826 S825 1.613 . S
N826 C829 1.350 . S
N827 S825 1.610 . S
N827 C828 1.351 . S
C828 C822 1.428 . S
C828 N827 1.351 . S
C828 C829 1.434 . S
C829 C820 1.429 . S
C829 N826 1.350 . S
C829 C828 1.434 . S
C830 C831 1.369 . S
C830 C832 1.419 . S
C830 H834 0.930 . S
C831 C830 1.369 . S
C831 C840 1.429 . S
C832 C830 1.419 . S
C832 C833 1.363 . S
C832 H835 0.929 . S
C833 C832 1.363 . S
C833 C839 1.428 . S
H834 C830 0.930 . S
H835 C832 0.929 . S
S836 N837 1.613 . S
S836 N838 1.610 . S
N837 S836 1.613 . S
N837 C840 1.350 . S
N838 S836 1.610 . S
N838 C839 1.351 . S
C839 C833 1.428 . S
C839 N838 1.351 . S
C839 C840 1.434 . S
C840 C831 1.429 . S
C840 N837 1.350 . S
C840 C839 1.434 . S
C841 C842 1.369 . S
C841 C843 1.419 . S
C841 H845 0.930 . S
C842 C841 1.369 . S
C842 C851 1.429 . S
C843 C841 1.419 . S
C843 C844 1.363 . S
C843 H846 0.929 . S
C844 C843 1.363 . S
C844 C850 1.428 . S
H845 C841 0.930 . S
H846 C843 0.929 . S
S847 N848 1.613 . S
S847 N849 1.610 . S
N848 S847 1.613 . S
N848 C851 1.350 . S
N849 S847 1.610 . S
N849 C850 1.351 . S
C850 C844 1.428 . S
C850 N849 1.351 . S
C850 C851 1.434 . S
C851 C842 1.429 . S
C851 N848 1.350 . S
C851 C850 1.434 . S
C852 C853 1.369 . S
C852 C854 1.419 . S
C852 H856 0.930 . S
C853 C852 1.369 . S
C853 C862 1.429 . S
C854 C852 1.419 . S
C854 C855 1.363 . S
C854 H857 0.929 . S
C855 C854 1.363 . S
C855 C861 1.428 . S
H856 C852 0.930 . S
H857 C854 0.929 . S
S858 N859 1.613 . S
S858 N860 1.610 . S
N859 S858 1.613 . S
N859 C862 1.350 . S
N860 S858 1.610 . S
N860 C861 1.351 . S
C861 C855 1.428 . S
C861 N860 1.351 . S
C861 C862 1.434 . S
C862 C853 1.429 . S
C862 N859 1.350 . S
C862 C861 1.434 . S
C863 C864 1.369 . S
C863 C865 1.419 . S
C863 H867 0.930 . S
C864 C863 1.369 . S
C864 C873 1.429 . S
C865 C863 1.419 . S
C865 C866 1.363 . S
C865 H868 0.929 . S
C866 C865 1.363 . S
C866 C872 1.428 . S
H867 C863 0.930 . S
H868 C865 0.929 . S
S869 N870 1.613 . S
S869 N871 1.610 . S
N870 S869 1.613 . S
N870 C873 1.350 . S
N871 S869 1.610 . S
N871 C872 1.351 . S
C872 C866 1.428 . S
C872 N871 1.351 . S
C872 C873 1.434 . S
C873 C864 1.429 . S
C873 N870 1.350 . S
C873 C872 1.434 . S
C874 C875 1.369 . S
C874 C876 1.419 . S
C874 H878 0.930 . S
C875 C874 1.369 . S
C875 C884 1.429 . S
C876 C874 1.419 . S
C876 C877 1.363 . S
C876 H879 0.929 . S
C877 C876 1.363 . S
C877 C883 1.428 . S
H878 C874 0.930 . S
H879 C876 0.929 . S
S880 N881 1.613 . S
S880 N882 1.610 . S
N881 S880 1.613 . S
N881 C884 1.350 . S
N882 S880 1.610 . S
N882 C883 1.351 . S
C883 C877 1.428 . S
C883 N882 1.351 . S
C883 C884 1.434 . S
C884 C875 1.429 . S
C884 N881 1.350 . S
C884 C883 1.434 . S
C885 C886 1.369 . S
C885 C887 1.419 . S
C885 H889 0.930 . S
C886 C885 1.369 . S
C886 C895 1.429 . S
C887 C885 1.419 . S
C887 C888 1.363 . S
C887 H890 0.929 . S
C888 C887 1.363 . S
C888 C894 1.428 . S
H889 C885 0.930 . S
H890 C887 0.929 . S
S891 N892 1.613 . S
S891 N893 1.610 . S
N892 S891 1.613 . S
N892 C895 1.350 . S
N893 S891 1.610 . S
N893 C894 1.351 . S
C894 C888 1.428 . S
C894 N893 1.351 . S
C894 C895 1.434 . S
C895 C886 1.429 . S
C895 N892 1.350 . S
C895 C894 1.434 . S
C896 C897 1.369 . S
C896 C898 1.419 . S
C896 H900 0.930 . S
C897 C896 1.369 . S
C897 C906 1.429 . S
C898 C896 1.419 . S
C898 C899 1.363 . S
C898 H901 0.929 . S
C899 C898 1.363 . S
C899 C905 1.428 . S
H900 C896 0.930 . S
H901 C898 0.929 . S
S902 N903 1.613 . S
S902 N904 1.610 . S
N903 S902 1.613 . S
N903 C906 1.350 . S
N904 S902 1.610 . S
N904 C905 1.351 . S
C905 C899 1.428 . S
C905 N904 1.351 . S
C905 C906 1.434 . S
C906 C897 1.429 . S
C906 N903 1.350 . S
C906 C905 1.434 . S
C907 C908 1.369 . S
C907 C909 1.419 . S
C907 H911 0.930 . S
C908 C907 1.369 . S
C908 C917 1.429 . S
C909 C907 1.419 . S
C909 C910 1.363 . S
C909 H912 0.929 . S
C910 C909 1.363 . S
C910 C916 1.428 . S
H911 C907 0.930 . S
H912 C909 0.929 . S
S913 N914 1.613 . S
S913 N915 1.610 . S
N914 S913 1.613 . S
N914 C917 1.350 . S
N915 S913 1.610 . S
N915 C916 1.351 . S
C916 C910 1.428 . S
C916 N915 1.351 . S
C916 C917 1.434 . S
C917 C908 1.429 . S
C917 N914 1.350 . S
C917 C916 1.434 . S
C918 C919 1.369 . S
C918 C920 1.419 . S
C918 H922 0.930 . S
C919 C918 1.369 . S
C919 C928 1.429 . S
C920 C918 1.419 . S
C920 C921 1.363 . S
C920 H923 0.929 . S
C921 C920 1.363 . S
C921 C927 1.428 . S
H922 C918 0.930 . S
H923 C920 0.929 . S
S924 N925 1.613 . S
S924 N926 1.610 . S
N925 S924 1.613 . S
N925 C928 1.350 . S
N926 S924 1.610 . S
N926 C927 1.351 . S
C927 C921 1.428 . S
C927 N926 1.351 . S
C927 C928 1.434 . S
C928 C919 1.429 . S
C928 N925 1.350 . S
C928 C927 1.434 . S
C929 C930 1.369 . S
C929 C931 1.419 . S
C929 H933 0.930 . S
C930 C929 1.369 . S
C930 C939 1.429 . S
C931 C929 1.419 . S
C931 C932 1.363 . S
C931 H934 0.929 . S
C932 C931 1.363 . S
C932 C938 1.428 . S
H933 C929 0.930 . S
H934 C931 0.929 . S
S935 N936 1.613 . S
S935 N937 1.610 . S
N936 S935 1.613 . S
N936 C939 1.350 . S
N937 S935 1.610 . S
N937 C938 1.351 . S
C938 C932 1.428 . S
C938 N937 1.351 . S
C938 C939 1.434 . S
C939 C930 1.429 . S
C939 N936 1.350 . S
C939 C938 1.434 . S
C940 C941 1.369 . S
C940 C942 1.419 . S
C940 H944 0.930 . S
C941 C940 1.369 . S
C941 C950 1.429 . S
C942 C940 1.419 . S
C942 C943 1.363 . S
C942 H945 0.929 . S
C943 C942 1.363 . S
C943 C949 1.428 . S
H944 C940 0.930 . S
H945 C942 0.929 . S
S946 N947 1.613 . S
S946 N948 1.610 . S
N947 S946 1.613 . S
N947 C950 1.350 . S
N948 S946 1.610 . S
N948 C949 1.351 . S
C949 C943 1.428 . S
C949 N948 1.351 . S
C949 C950 1.434 . S
C950 C941 1.429 . S
C950 N947 1.350 . S
C950 C949 1.434 . S
C951 C952 1.369 . S
C951 C953 1.419 . S
C951 H955 0.930 . S
C952 C951 1.369 . S
C952 C961 1.429 . S
C953 C951 1.419 . S
C953 C954 1.363 . S
C953 H956 0.929 . S
C954 C953 1.363 . S
C954 C960 1.428 . S
H955 C951 0.930 . S
H956 C953 0.929 . S
S957 N958 1.613 . S
S957 N959 1.610 . S
N958 S957 1.613 . S
N958 C961 1.350 . S
N959 S957 1.610 . S
N959 C960 1.351 . S
C960 C954 1.428 . S
C960 N959 1.351 . S
C960 C961 1.434 . S
C961 C952 1.429 . S
C961 N958 1.350 . S
C961 C960 1.434 . S
C962 C963 1.369 . S
C962 C964 1.419 . S
C962 H966 0.930 . S
C963 C962 1.369 . S
C963 C972 1.429 . S
C964 C962 1.419 . S
C964 C965 1.363 . S
C964 H967 0.929 . S
C965 C964 1.363 . S
C965 C971 1.428 . S
H966 C962 0.930 . S
H967 C964 0.929 . S
S968 N969 1.613 . S
S968 N970 1.610 . S
N969 S968 1.613 . S
N969 C972 1.350 . S
N970 S968 1.610 . S
N970 C971 1.351 . S
C971 C965 1.428 . S
C971 N970 1.351 . S
C971 C972 1.434 . S
C972 C963 1.429 . S
C972 N969 1.350 . S
C972 C971 1.434 . S
C973 C974 1.369 . S
C973 C975 1.419 . S
C973 H977 0.930 . S
C974 C973 1.369 . S
C974 C983 1.429 . S
C975 C973 1.419 . S
C975 C976 1.363 . S
C975 H978 0.929 . S
C976 C975 1.363 . S
C976 C982 1.428 . S
H977 C973 0.930 . S
H978 C975 0.929 . S
S979 N980 1.613 . S
S979 N981 1.610 . S
N980 S979 1.613 . S
N980 C983 1.350 . S
N981 S979 1.610 . S
N981 C982 1.351 . S
C982 C976 1.428 . S
C982 N981 1.351 . S
C982 C983 1.434 . S
C983 C974 1.429 . S
C983 N980 1.350 . S
C983 C982 1.434 . S
C545 C5 1.716 . S
C547 C175 1.712 . S
C556 C209 1.716 . S
C558 C39 1.712 . S
C567 C243 1.710 . S
C569 C73 1.714 . S
C578 C141 1.714 . S
C580 C107 1.711 . S
C589 C277 1.716 . S
C591 C447 1.712 . S
C600 C311 1.711 . S
C602 C481 1.713 . S
C611 C515 1.715 . S
C613 C345 1.714 . S
C622 C379 1.712 . S
C624 C413 1.712 . S
C633 C33 1.338 . S
C635 C101 1.328 . S
C644 C135 1.327 . S
C646 C67 1.337 . S
C655 C169 1.338 . S
C657 C237 1.328 . S
C666 C203 1.332 . S
C668 C271 1.334 . S
C677 C373 1.335 . S
C679 C305 1.330 . S
C688 C407 1.339 . S
C690 C339 1.328 . S
C699 C509 1.330 . S
C701 C441 1.334 . S
C710 C543 1.336 . S
C712 C475 1.329 . S
C721 C519 1.536 . S
C723 C9 1.537 . S
C732 C417 1.536 . S
C734 C43 1.537 . S
C743 C451 1.545 . S
C745 C77 1.543 . S
C754 C111 1.537 . S
C756 C485 1.537 . S
C765 C145 1.545 . S
C767 C315 1.543 . S
C776 C179 1.537 . S
C778 C349 1.540 . S
C787 C213 1.545 . S
C789 C383 1.544 . S
C798 C247 1.536 . S
C800 C281 1.537 . S
C809 C478 1.121 . S
C811 C20 1.161 . S
C820 C54 1.160 . S
C822 C512 1.126 . S
C831 C410 1.119 . S
C833 C88 1.161 . S
C842 C444 1.122 . S
C844 C122 1.161 . S
C853 C342 1.122 . S
C855 C156 1.161 . S
C864 C190 1.159 . S
C866 C376 1.129 . S
C875 C274 1.119 . S
C877 C224 1.161 . S
C886 C258 1.161 . S
C888 C308 1.121 . S
C897 C206 1.119 1_655 S
C899 C292 1.161 . S
C908 C240 1.124 1_545 S
C910 C326 1.160 . S
C919 C360 1.161 . S
C921 C138 1.121 1_455 S
C930 C172 1.123 1_565 S
C932 C394 1.160 . S
C941 C70 1.122 1_455 S
C943 C428 1.161 . S
C952 C462 1.161 . S
C954 C104 1.122 1_565 S
C963 C496 1.159 . S
C965 C2 1.128 1_655 S
C974 C36 1.128 1_545 S
C976 C530 1.159 . S
