# Generated by pormake.
# Topology unh, (4)-cn, num edge types: 1
# Building blocks:
#     Node 0, Type 0, BuildingBlock: ESEHIV_clean_sbu_0, # of connection points: 4
#     Node 1, Type 0, BuildingBlock: ESEHIV_clean_sbu_0, # of connection points: 4
#     Node 2, Type 0, BuildingBlock: ESEHIV_clean_sbu_0, # of connection points: 4
#     Node 3, Type 0, BuildingBlock: ESEHIV_clean_sbu_0, # of connection points: 4
#     Node 4, Type 0, BuildingBlock: ESEHIV_clean_sbu_0, # of connection points: 4
#     Node 5, Type 0, BuildingBlock: ESEHIV_clean_sbu_0, # of connection points: 4
#     Edge 6, Type (0, 0), BuildingBlock: ZUJKAS_clean_linker_0, # of connection points: 2
#     Edge 7, Type (0, 0), BuildingBlock: ZUJKAS_clean_linker_0, # of connection points: 2
#     Edge 8, Type (0, 0), BuildingBlock: ZUJKAS_clean_linker_0, # of connection points: 2
#     Edge 9, Type (0, 0), BuildingBlock: ZUJKAS_clean_linker_0, # of connection points: 2
#     Edge 10, Type (0, 0), BuildingBlock: ZUJKAS_clean_linker_0, # of connection points: 2
#     Edge 11, Type (0, 0), BuildingBlock: ZUJKAS_clean_linker_0, # of connection points: 2
#     Edge 12, Type (0, 0), BuildingBlock: ZUJKAS_clean_linker_0, # of connection points: 2
#     Edge 13, Type (0, 0), BuildingBlock: ZUJKAS_clean_linker_0, # of connection points: 2
#     Edge 14, Type (0, 0), BuildingBlock: ZUJKAS_clean_linker_0, # of connection points: 2
#     Edge 15, Type (0, 0), BuildingBlock: ZUJKAS_clean_linker_0, # of connection points: 2
#     Edge 16, Type (0, 0), BuildingBlock: ZUJKAS_clean_linker_0, # of connection points: 2
#     Edge 17, Type (0, 0), BuildingBlock: ZUJKAS_clean_linker_0, # of connection points: 2
# Relax obj value: 0.010
# Max RMSD: 0.159
# Mean RMSD: 0.159
data_MOF--net-unh--node1-ESEHIV_clean_sbu_0--edge1-ZUJKAS_clean_linker_0
_symmetry_space_group_name_H-M    P1
_symmetry_Int_Tables_number       1
_symmetry_cell_setting            triclinic
loop_
_symmetry_equiv_pos_as_xyz
'x, y, z'
_cell_length_a     63.917878
_cell_length_b     64.293952
_cell_length_c     26.638559
_cell_angle_alpha  90.022097
_cell_angle_beta   89.913972
_cell_angle_gamma 119.99587
loop_
_atom_site_label
_atom_site_type_symbol
_atom_site_fract_x
_atom_site_fract_y
_atom_site_fract_z
_atom_type_partial_charge
Cu0 Cu 0.17013 0.57276 0.11161 0.0
N1 N 0.15392 0.55681 0.05305 0.0
N2 N 0.12588 0.53942 0.99317 0.0
C3 C 0.13094 0.54944 0.03945 0.0
C4 C 0.14648 0.54045 0.97744 0.0
C5 C 0.16367 0.55116 1.01437 0.0
O6 O 0.14678 0.56937 0.16262 0.0
C7 C 0.19009 0.61764 0.061 0.0
O8 O 0.16913 0.60762 0.03798 0.0
H9 H 0.11842 0.55193 0.06248 0.0
H10 H 0.18212 0.55479 1.01305 0.0
N11 N 0.18687 0.55802 0.13619 0.0
N12 N 0.21444 0.55186 0.17456 0.0
C13 C 0.20802 0.56821 0.16123 0.0
C14 C 0.17968 0.53451 0.13342 0.0
C15 C 0.19661 0.53065 0.15697 0.0
C16 C 0.13353 0.57894 0.16073 0.0
O17 O 0.13612 0.59329 0.12321 0.0
H18 H 0.21821 0.58715 0.17021 0.0
H19 H 0.16322 0.52112 0.11556 0.0
O20 O 0.19367 0.60601 0.09539 0.0
H21 H 0.14898 0.53385 0.94187 0.0
H22 H 0.19593 0.51355 0.16033 0.0
Cu23 Cu 0.61696 0.1567 0.26284 0.0
N24 N 0.61857 0.13908 0.2088 0.0
N25 N 0.60809 0.1103 0.15098 0.0
C26 C 0.60099 0.11765 0.19191 0.0
C27 C 0.63104 0.12783 0.14206 0.0
C28 C 0.63742 0.14552 0.17774 0.0
O29 O 0.59256 0.1339 0.30891 0.0
C30 C 0.60396 0.19343 0.26207 0.0
O31 O 0.6037 0.19183 0.31126 0.0
H32 H 0.58321 0.10794 0.20874 0.0
H33 H 0.65458 0.162 0.18078 0.0
N34 N 0.64726 0.17259 0.29385 0.0
N35 N 0.68097 0.20032 0.3318 0.0
C36 C 0.65938 0.19515 0.31223 0.0
C37 C 0.66161 0.1632 0.30213 0.0
C38 C 0.68239 0.18023 0.3254 0.0
C39 C 0.59494 0.13488 0.35645 0.0
O40 O 0.61391 0.1532 0.3768 0.0
H41 H 0.65265 0.20759 0.31074 0.0
H42 H 0.65717 0.14516 0.29198 0.0
O43 O 0.60876 0.17978 0.23588 0.0
H44 H 0.64251 0.12785 0.11214 0.0
H45 H 0.69723 0.17784 0.3374 0.0
Cu46 Cu 0.47991 0.60648 0.4327 0.0
N47 N 0.50039 0.6093 0.37956 0.0
N48 N 0.51956 0.60083 0.3194 0.0
C49 C 0.50373 0.59214 0.35818 0.0
C50 C 0.52639 0.62436 0.31663 0.0
C51 C 0.51452 0.62946 0.35349 0.0
O52 O 0.47969 0.58436 0.48266 0.0
C53 C 0.42912 0.59013 0.43042 0.0
O54 O 0.4299 0.58843 0.47945 0.0
H55 H 0.49436 0.5736 0.37018 0.0
H56 H 0.51598 0.6467 0.36066 0.0
N57 N 0.49253 0.63641 0.46401 0.0
N58 N 0.49635 0.66801 0.5072 0.0
C59 C 0.48084 0.64678 0.48533 0.0
C60 C 0.51612 0.65155 0.47263 0.0
C61 C 0.51855 0.67103 0.49898 0.0
C62 C 0.47038 0.56179 0.4772 0.0
O63 O 0.45861 0.55156 0.43574 0.0
H64 H 0.46137 0.6386 0.48597 0.0
H65 H 0.53055 0.64843 0.461 0.0
O66 O 0.44827 0.5969 0.40482 0.0
H67 H 0.53919 0.63715 0.29012 0.0
H68 H 0.53544 0.68626 0.511 0.0
Cu69 Cu 0.8875 0.46079 0.61103 0.0
N70 N 0.90212 0.47812 0.55272 0.0
N71 N 0.92896 0.49647 0.49092 0.0
C72 C 0.92433 0.48458 0.53514 0.0
C73 C 0.90876 0.49744 0.48059 0.0
C74 C 0.89229 0.48612 0.5187 0.0
O75 O 0.91251 0.46093 0.65277 0.0
C76 C 0.86712 0.4156 0.5633 0.0
O77 O 0.88951 0.42352 0.5488 0.0
H78 H 0.93679 0.48064 0.55459 0.0
H79 H 0.87427 0.4836 0.52121 0.0
N80 N 0.87334 0.47588 0.64574 0.0
N81 N 0.8469 0.48212 0.68878 0.0
C82 C 0.85036 0.46618 0.66207 0.0
C83 C 0.88476 0.49867 0.66238 0.0
C84 C 0.86853 0.50257 0.68896 0.0
C85 C 0.91036 0.4581 0.70016 0.0
O86 O 0.88979 0.45301 0.72151 0.0
H87 H 0.83669 0.44765 0.65574 0.0
H88 H 0.90368 0.51142 0.65619 0.0
O89 O 0.86256 0.42864 0.59207 0.0
H90 H 0.90579 0.50525 0.44733 0.0
H91 H 0.87237 0.51921 0.70693 0.0
Cu92 Cu 0.44054 0.87721 0.76392 0.0
N93 N 0.43891 0.89492 0.71009 0.0
N94 N 0.44937 0.92382 0.65252 0.0
C95 C 0.45649 0.91637 0.69319 0.0
C96 C 0.42639 0.90632 0.64378 0.0
C97 C 0.42003 0.88856 0.6793 0.0
O98 O 0.46511 0.89991 0.80965 0.0
C99 C 0.45326 0.84028 0.76241 0.0
O100 O 0.45371 0.84188 0.81161 0.0
H101 H 0.47429 0.92603 0.70986 0.0
H102 H 0.40285 0.8721 0.68244 0.0
N103 N 0.41033 0.86152 0.79552 0.0
N104 N 0.37665 0.834 0.8341 0.0
C105 C 0.39822 0.83905 0.81443 0.0
C106 C 0.39601 0.87097 0.80362 0.0
C107 C 0.37524 0.85406 0.82727 0.0
C108 C 0.46305 0.89866 0.85727 0.0
O109 O 0.44432 0.88012 0.8778 0.0
H110 H 0.4049 0.82657 0.81316 0.0
H111 H 0.40044 0.88895 0.79302 0.0
O112 O 0.44846 0.85398 0.73651 0.0
H113 H 0.41488 0.90638 0.61412 0.0
H114 H 0.3604 0.8565 0.83913 0.0
Cu115 Cu 0.57828 0.42736 0.93227 0.0
N116 N 0.55813 0.4248 0.87878 0.0
N117 N 0.53925 0.43354 0.81863 0.0
C118 C 0.55478 0.44202 0.85783 0.0
C119 C 0.53262 0.41008 0.81512 0.0
C120 C 0.54431 0.40481 0.852 0.0
O121 O 0.57855 0.44957 0.98214 0.0
C122 C 0.62954 0.44599 0.92971 0.0
O123 O 0.62931 0.45139 0.9772 0.0
H124 H 0.56392 0.46045 0.87045 0.0
H125 H 0.54294 0.38758 0.8587 0.0
N126 N 0.56529 0.39743 0.96364 0.0
N127 N 0.56126 0.36588 1.00726 0.0
C128 C 0.57689 0.38718 0.98572 0.0
C129 C 0.54164 0.38219 0.97144 0.0
C130 C 0.53908 0.36272 0.99808 0.0
C131 C 0.58778 0.47213 0.97671 0.0
O132 O 0.59956 0.48243 0.93524 0.0
H133 H 0.59636 0.39549 0.98709 0.0
H134 H 0.52727 0.38519 0.95902 0.0
O135 O 0.6099 0.43628 0.90499 0.0
H136 H 0.52009 0.39746 0.78808 0.0
H137 H 0.52213 0.3474 1.0096 0.0
H138 H 0.12016 0.53597 0.89196 0.0
H139 H 0.08243 0.52015 0.84523 0.0
H140 H 0.04288 0.50594 0.98415 0.0
H141 H 0.08062 0.52171 0.03135 0.0
H142 H 0.04158 0.4747 0.84838 0.0
H143 H 1.01932 0.54461 0.90466 0.0
H144 H 0.04882 0.54803 0.9144 0.0
H145 H 1.02432 0.52956 0.95607 0.0
C146 C 0.10347 0.52936 0.91274 0.0
C147 C 0.10351 0.53018 0.96556 0.0
C148 C 0.08189 0.5204 0.88587 0.0
C149 C 0.05985 0.51214 0.9111 0.0
C150 C 0.05972 0.5127 0.96381 0.0
H151 H 0.9126 0.45613 0.80255 0.0
H152 H 0.94827 0.46735 0.85431 0.0
C153 C 0.08134 0.52173 0.99077 0.0
C154 C 0.03704 0.50266 0.88202 0.0
H155 H 0.99001 0.51207 0.85691 0.0
C156 C 0.03031 0.48287 0.85021 0.0
C157 C 1.02232 0.51331 0.88449 0.0
C158 C 0.0291 0.53518 0.91637 0.0
C159 C 1.00918 0.47336 0.82109 0.0
C160 C 0.99459 0.48416 0.8232 0.0
C161 C 1.00119 0.50377 0.8554 0.0
C162 C 0.97271 0.47581 0.7915 0.0
C163 C 1.0025 0.45163 0.78885 0.0
C164 C 0.97455 0.47675 0.73891 0.0
C165 C 0.95417 0.47031 0.70916 0.0
C166 C 0.93154 0.46294 0.73142 0.0
C167 C 0.9297 0.46166 0.78411 0.0
C168 C 0.95009 0.46812 0.81381 0.0
H169 H 1.01152 0.44164 0.80182 0.0
H170 H 0.98266 0.43921 0.78881 0.0
H171 H 1.00834 0.45752 0.74964 0.0
H172 H 0.99189 0.48308 0.72084 0.0
H173 H 0.9563 0.47166 0.66874 0.0
H174 H 0.50268 0.94063 0.82689 0.0
H175 H 0.52877 0.97566 0.87839 0.0
H176 H 0.48792 0.93856 1.01023 0.0
H177 H 0.462 0.90334 0.95927 0.0
H178 H 0.5144 1.00249 0.93362 0.0
H179 H 0.55698 0.96517 0.05834 0.0
H180 H 0.54123 0.95026 1.00155 0.0
H181 H 0.52459 0.94794 0.05777 0.0
C182 C 0.49945 0.93976 0.86697 0.0
C183 C 0.48024 0.91911 0.88893 0.0
C184 C 0.51437 0.95984 0.89634 0.0
C185 C 0.5105 0.95967 0.94828 0.0
C186 C 0.4916 0.93896 0.97043 0.0
H187 H 0.57049 0.06798 0.18365 0.0
H188 H 0.54654 0.03148 0.13417 0.0
C189 C 0.47669 0.91885 0.94113 0.0
C190 C 0.52523 0.98168 0.97862 0.0
H191 H 0.56255 1.0035 0.08045 0.0
C192 C 0.52506 1.00275 0.96551 0.0
C193 C 0.53901 0.98196 1.02044 0.0
C194 C 0.5407 0.9602 0.03518 0.0
C195 C 0.53799 0.02398 0.99344 0.0
C196 C 0.55178 0.02427 0.03522 0.0
C197 C 0.55192 1.00321 0.04846 0.0
C198 C 0.56638 0.04638 0.06523 0.0
C199 C 0.53639 0.04579 0.97863 0.0
C200 C 0.58565 0.06677 0.04305 0.0
C201 C 0.59929 0.08766 0.07113 0.0
C202 C 0.59403 0.08862 0.12214 0.0
C203 C 0.57484 0.06803 0.14437 0.0
C204 C 0.56124 0.04709 0.11623 0.0
H205 H 0.52054 0.04099 0.95421 0.0
H206 H 0.53516 0.05532 1.0123 0.0
H207 H 0.55291 0.05838 0.95749 0.0
H208 H 0.59016 0.06651 1.00393 0.0
H209 H 0.61377 0.10317 0.05261 0.0
H210 H 0.51765 0.55823 0.3386 0.0
H211 H 0.53069 0.53648 0.28322 0.0
H212 H 0.55223 0.59192 0.1714 0.0
H213 H 0.53886 0.61353 0.22567 0.0
H214 H 0.5143 0.51991 0.18217 0.0
H215 H 0.61283 0.58478 0.18992 0.0
H216 H 0.59185 0.5845 0.23582 0.0
H217 H 0.59429 0.59767 0.17509 0.0
C218 C 0.52501 0.5658 0.30218 0.0
C219 C 0.52728 0.58782 0.287 0.0
C220 C 0.53259 0.55337 0.27066 0.0
C221 C 0.54279 0.56279 0.22356 0.0
C222 C 0.5449 0.58459 0.20806 0.0
H223 H 0.59696 0.51855 0.97051 0.0
H224 H 0.58628 0.54019 0.03166 0.0
C225 C 0.53725 0.59696 0.23935 0.0
C226 C 0.55056 0.54952 0.18977 0.0
H227 H 0.59971 0.55362 0.12946 0.0
C228 C 0.53299 0.52716 0.17091 0.0
C229 C 0.57493 0.55912 0.17491 0.0
C230 C 0.59465 0.58275 0.19523 0.0
C231 C 0.53902 0.51438 0.13657 0.0
C232 C 0.56343 0.52396 0.12167 0.0
C233 C 0.58103 0.54628 0.14086 0.0
C234 C 0.57098 0.5112 0.08578 0.0
C235 C 0.51904 0.49112 0.11537 0.0
C236 C 0.56657 0.48796 0.0964 0.0
C237 C 0.57251 0.47551 0.06143 0.0
C238 C 0.58332 0.48615 1.0153 0.0
C239 C 0.58864 0.5098 1.0056 0.0
C240 C 0.58252 0.5222 0.04052 0.0
H241 H 0.5011 0.48977 0.11947 0.0
H242 H 0.52216 0.48928 0.075 0.0
H243 H 0.51845 0.47584 0.13599 0.0
H244 H 0.5583 0.47934 0.13162 0.0
H245 H 0.56838 0.45741 0.0704 0.0
H246 H 0.94469 0.53169 0.42029 0.0
H247 H 0.98023 0.54604 0.36654 0.0
H248 H 0.99867 0.49751 0.43935 0.0
H249 H 0.96266 0.48233 0.49195 0.0
H250 H 1.02859 0.56773 0.39075 0.0
H251 H 0.99942 0.48151 0.29193 0.0
H252 H 0.97907 0.48669 0.32993 0.0
H253 H 0.99997 0.4794 0.35905 0.0
C254 C 0.95607 0.5238 0.42459 0.0
C255 C 0.95053 0.50562 0.46035 0.0
C256 C 0.97654 0.53219 0.39401 0.0
C257 C 0.99192 0.52259 0.39829 0.0
C258 C 0.98681 0.50485 0.43463 0.0
H259 H 0.12194 0.54817 0.24042 0.0
H260 H 0.08853 0.53572 0.29973 0.0
C261 C 0.9663 0.49639 0.46517 0.0
C262 C 1.01336 0.53127 0.36488 0.0
H263 H 0.03934 0.51296 0.27609 0.0
C264 C 0.03092 0.55577 0.36557 0.0
C265 C 1.01637 0.51566 0.33198 0.0
C266 C 0.99762 0.48939 0.32768 0.0
C267 C 0.05156 0.56501 0.33484 0.0
C268 C 0.05456 0.54939 0.302 0.0
C269 C 0.03705 0.52489 0.30141 0.0
C270 C 0.07558 0.55806 0.26748 0.0
C271 C 0.0702 0.59133 0.33844 0.0
C272 C 0.07942 0.57477 0.22954 0.0
C273 C 0.09854 0.58196 0.19551 0.0
C274 C 0.11414 0.57247 0.19858 0.0
C275 C 0.11035 0.5559 0.23697 0.0
C276 C 0.09122 0.54872 0.2709 0.0
H277 H 0.06843 0.59939 0.37396 0.0
H278 H 0.08877 0.5941 0.3361 0.0
H279 H 0.06771 0.60107 0.30673 0.0
H280 H 0.06732 0.58187 0.22555 0.0
H281 H 0.10082 0.59463 0.16628 0.0
H282 H 0.59696 0.12935 0.45793 0.0
H283 H 0.57112 0.09386 0.50854 0.0
H284 H 0.52836 0.05839 0.3778 0.0
H285 H 0.55435 0.09364 0.32664 0.0
H286 H 0.52181 0.06952 0.52809 0.0
H287 H 0.54849 1.01089 0.4268 0.0
H288 H 0.56455 0.04311 0.41964 0.0
H289 H 0.53659 0.02499 0.38692 0.0
C290 C 0.58198 0.11407 0.43991 0.0
C291 C 0.57788 0.11429 0.38807 0.0
C292 C 0.56722 0.09378 0.46895 0.0
C293 C 0.54811 0.07328 0.44678 0.0
C294 C 0.54336 0.07379 0.39548 0.0
H295 H 0.44351 0.93122 0.55447 0.0
H296 H 0.46704 0.96803 0.50601 0.0
C297 C 0.55814 0.09404 0.36635 0.0
C298 C 0.53344 0.05127 0.4772 0.0
H299 H 0.51688 0.99198 0.48639 0.0
C300 C 0.52078 0.05258 0.5191 0.0
C301 C 0.53219 0.02919 0.46553 0.0
C302 C 0.54634 0.02691 0.42258 0.0
C303 C 0.50652 0.03229 0.54903 0.0
C304 C 0.50519 1.0102 0.53715 0.0
C305 C 0.51787 1.00891 0.49533 0.0
C306 C 0.49064 0.98813 0.56741 0.0
C307 C 0.49261 0.03453 0.59247 0.0
C308 C 0.49621 0.9871 0.61798 0.0
C309 C 0.48271 0.96605 0.64593 0.0
C310 C 0.46337 0.94558 0.62382 0.0
C311 C 0.45798 0.94669 0.57301 0.0
C312 C 0.47152 0.9677 0.5451 0.0
H313 H 0.49083 0.0508 0.58917 0.0
H314 H 0.47427 0.01849 0.59505 0.0
H315 H 0.50229 0.03589 0.62795 0.0
H316 H 0.51116 1.00251 0.63574 0.0
H317 H 0.48729 0.96593 0.68496 0.0
H318 H 0.52076 0.42156 0.72424 0.0
H319 H 0.50766 0.44351 0.67035 0.0
H320 H 0.52757 0.49768 0.78447 0.0
H321 H 0.54034 0.47561 0.83938 0.0
H322 H 0.47188 0.45747 0.69175 0.0
H323 H 0.56336 0.53548 0.65551 0.0
H324 H 0.55878 0.50725 0.67957 0.0
H325 H 0.55541 0.52763 0.72031 0.0
C326 C 0.52219 0.43799 0.73836 0.0
C327 C 0.53167 0.44672 0.78647 0.0
C328 C 0.51477 0.45059 0.70724 0.0
C329 C 0.51684 0.47232 0.72319 0.0
C330 C 0.52616 0.48111 0.77112 0.0
H331 H 0.49022 0.57654 0.57045 0.0
H332 H 0.49971 0.55426 0.63187 0.0
C333 C 0.53352 0.46847 0.80245 0.0
C334 C 0.50909 0.48562 0.68956 0.0
H335 H 0.53028 0.53722 0.62123 0.0
C336 C 0.48461 0.47492 0.67631 0.0
C337 C 0.52574 0.50839 0.66964 0.0
C338 C 0.55234 0.52038 0.68153 0.0
C339 C 0.47628 0.4865 0.64399 0.0
C340 C 0.493 0.50914 0.62335 0.0
C341 C 0.51746 0.51988 0.637 0.0
C342 C 0.48567 0.52194 0.58711 0.0
C343 C 0.44958 0.47457 0.6331 0.0
C344 C 0.47452 0.5112 0.54143 0.0
C345 C 0.46888 0.52385 0.5063 0.0
C346 C 0.47458 0.54764 0.51585 0.0
C347 C 0.48556 0.55826 0.56182 0.0
C348 C 0.49105 0.54555 0.597 0.0
H349 H 0.43871 0.46146 0.66286 0.0
H350 H 0.44359 0.48801 0.62972 0.0
H351 H 0.44575 0.46463 0.59711 0.0
H352 H 0.47072 0.49323 0.53233 0.0
H353 H 0.46064 0.5152 0.47113 0.0
H354 H 0.25776 0.59325 0.17969 0.0
H355 H 0.29398 0.5996 0.22421 0.0
H356 H 0.25573 0.5263 0.27625 0.0
H357 H 0.21951 0.51983 0.23212 0.0
H358 H 0.30166 0.59511 0.32558 0.0
H359 H 0.31583 0.53119 0.21072 0.0
H360 H 0.29546 0.54158 0.19216 0.0
H361 H 0.28631 0.51823 0.2384 0.0
C362 C 0.25697 0.57852 0.20085 0.0
C363 C 0.23571 0.55595 0.20184 0.0
C364 C 0.27774 0.58216 0.22615 0.0
C365 C 0.27771 0.5633 0.25282 0.0
C366 C 0.25638 0.54094 0.25488 0.0
H367 H 0.3849 0.57622 0.47302 0.0
H368 H 0.34806 0.56964 0.43084 0.0
C369 C 0.23566 0.53727 0.22955 0.0
C370 C 0.29993 0.56702 0.27868 0.0
H371 H 0.34023 0.54684 0.28344 0.0
C372 C 0.31013 0.5846 0.31633 0.0
C373 C 0.31115 0.55349 0.26617 0.0
C374 C 0.3018 0.53522 0.22434 0.0
C375 C 0.33104 0.58878 0.34224 0.0
C376 C 0.34184 0.57475 0.33074 0.0
C377 C 0.33181 0.5574 0.29264 0.0
C378 C 0.36399 0.57828 0.35661 0.0
C379 C 0.34167 0.60853 0.38098 0.0
C380 C 0.38501 0.58462 0.3288 0.0
C381 C 0.40602 0.58819 0.3527 0.0
C382 C 0.40647 0.58541 0.40503 0.0
C383 C 0.38525 0.57864 0.43274 0.0
C384 C 0.3642 0.57504 0.40872 0.0
H385 H 0.33504 0.62143 0.37625 0.0
H386 H 0.33634 0.60051 0.41899 0.0
H387 H 0.3617 0.61856 0.37887 0.0
H388 H 0.38525 0.5871 0.28853 0.0
H389 H 0.42198 0.59335 0.33011 0.0
H390 H 0.72939 0.21836 0.33417 0.0
H391 H 0.75958 0.25515 0.37561 0.0
H392 H 0.70363 0.26968 0.42296 0.0
H393 H 0.67318 0.23262 0.38204 0.0
H394 H 0.76893 0.30381 0.35768 0.0
H395 H 0.7412 0.27304 0.55433 0.0
H396 H 0.73267 0.25238 0.50225 0.0
H397 H 0.71773 0.2694 0.51189 0.0
C398 C 0.72344 0.22924 0.35372 0.0
C399 C 0.69882 0.22244 0.35503 0.0
C400 C 0.74075 0.25034 0.37716 0.0
C401 C 0.73381 0.26498 0.40285 0.0
C402 C 0.70932 0.25846 0.40385 0.0
H403 H 0.8183 0.39658 0.57599 0.0
H404 H 0.78567 0.36037 0.53702 0.0
C405 C 0.69197 0.2374 0.38006 0.0
C406 C 0.75238 0.28721 0.42794 0.0
H407 H 0.77295 0.31284 0.54297 0.0
C408 C 0.76982 0.30583 0.39818 0.0
C409 C 0.7534 0.28981 0.48074 0.0
C410 C 0.73539 0.27009 0.51443 0.0
C411 C 0.78823 0.32705 0.41978 0.0
C412 C 0.78963 0.32946 0.47272 0.0
C413 C 0.77195 0.31095 0.50245 0.0
C414 C 0.80946 0.35095 0.49786 0.0
C415 C 0.80575 0.34686 0.38557 0.0
C416 C 0.83368 0.35738 0.48991 0.0
C417 C 0.85237 0.37811 0.51194 0.0
C418 C 0.84723 0.39272 0.54291 0.0
C419 C 0.82292 0.38578 0.55226 0.0
C420 C 0.80423 0.36508 0.52999 0.0
H421 H 0.79812 0.34524 0.34737 0.0
H422 H 0.81075 0.36481 0.4009 0.0
H423 H 0.82244 0.34571 0.38189 0.0
H424 H 0.83816 0.34642 0.46637 0.0
H425 H 0.87086 0.38278 0.50426 0.0
H426 H 0.46132 0.80617 0.80559 0.0
H427 H 0.46806 0.77622 0.763 0.0
H428 H 0.46126 0.80316 0.61942 0.0
H429 H 0.45471 0.83322 0.66145 0.0
H430 H 0.43762 0.73986 0.69361 0.0
H431 H 0.52623 0.80443 0.60917 0.0
H432 H 0.51283 0.81257 0.65965 0.0
H433 H 0.50242 0.81081 0.59632 0.0
C434 C 0.46137 0.80581 0.76495 0.0
C435 C 0.45762 0.82222 0.73698 0.0
C436 C 0.46515 0.78862 0.74069 0.0
C437 C 0.46544 0.78765 0.68805 0.0
C438 C 0.4615 0.80385 0.66006 0.0
H439 H 0.45646 0.67264 0.49769 0.0
H440 H 0.4479 0.7008 0.54272 0.0
C441 C 0.45767 0.82098 0.68422 0.0
C442 C 0.46972 0.7696 0.66232 0.0
H443 H 0.50839 0.76395 0.58232 0.0
C444 C 0.4531 0.74509 0.66934 0.0
C445 C 0.49005 0.77647 0.63105 0.0
C446 C 0.50905 0.80248 0.62382 0.0
C447 C 0.45614 0.72727 0.64539 0.0
C448 C 0.47617 0.73417 0.61316 0.0
C449 C 0.49292 0.75868 0.60666 0.0
C450 C 0.48063 0.71633 0.587 0.0
C451 C 0.43814 0.7012 0.65548 0.0
C452 C 0.50196 0.71585 0.59649 0.0
C453 C 0.5069 0.69983 0.57085 0.0
C454 C 0.49069 0.68397 0.53475 0.0
C455 C 0.4692 0.68435 0.52559 0.0
C456 C 0.46427 0.70044 0.55134 0.0
H457 H 0.42723 0.69892 0.68971 0.0
H458 H 0.42559 0.69371 0.62318 0.0
H459 H 0.4474 0.69061 0.65997 0.0
H460 H 0.51483 0.72791 0.62389 0.0
H461 H 0.52341 0.69982 0.57962 0.0
H462 H 0.63492 0.43133 0.83657 0.0
H463 H 0.67201 0.43715 0.7972 0.0
H464 H 0.71281 0.47658 0.92703 0.0
H465 H 0.67563 0.47026 0.96735 0.0
H466 H 0.71251 0.47732 0.77014 0.0
H467 H 0.73531 0.42854 0.91158 0.0
H468 H 0.70636 0.42705 0.91034 0.0
H469 H 0.73213 0.45249 0.93799 0.0
C470 C 0.65176 0.4412 0.85691 0.0
C471 C 0.65225 0.45021 0.90532 0.0
C472 C 0.67298 0.44452 0.83428 0.0
C473 C 0.69519 0.45692 0.85944 0.0
C474 C 0.69583 0.46639 0.90736 0.0
H475 H 0.84329 0.50368 0.77319 0.0
H476 H 0.80621 0.49743 0.81386 0.0
C477 C 0.67456 0.46291 0.93024 0.0
C478 C 0.71764 0.46031 0.83492 0.0
H479 H 0.76522 0.45059 0.84973 0.0
C480 C 0.72394 0.47134 0.78747 0.0
C481 C 0.73257 0.45246 0.8574 0.0
C482 C 0.72616 0.43926 0.90689 0.0
C483 C 0.74489 0.47505 0.76235 0.0
C484 C 0.75989 0.46744 0.78511 0.0
C485 C 0.75368 0.45645 0.83248 0.0
C486 C 0.78224 0.47094 0.7604 0.0
C487 C 0.75111 0.48745 0.71199 0.0
C488 C 0.78103 0.4579 0.71715 0.0
C489 C 0.80221 0.46138 0.69385 0.0
C490 C 0.825 0.47809 0.71323 0.0
C491 C 0.82607 0.49096 0.75684 0.0
C492 C 0.80491 0.48731 0.78033 0.0
H493 H 0.74004 0.49593 0.70356 0.0
H494 H 0.77052 0.50144 0.71055 0.0
H495 H 0.74784 0.4741 0.68217 0.0
H496 H 0.76368 0.44501 0.70144 0.0
H497 H 0.80075 0.4513 0.66021 0.0
H498 H 0.38441 0.80224 0.88645 0.0
H499 H 0.3538 0.7652 0.92755 0.0
H500 H 0.29788 0.77892 0.87649 0.0
H501 H 0.32822 0.81574 0.83519 0.0
H502 H 0.31663 0.76174 1.00362 0.0
H503 H 0.278 0.70835 0.82958 0.0
H504 H 0.30811 0.73412 0.83205 0.0
H505 H 0.28236 0.73825 0.82958 0.0
C506 C 0.36558 0.79724 0.88362 0.0
C507 C 0.35876 0.81195 0.85752 0.0
C508 C 0.34815 0.77618 0.90736 0.0
C509 C 0.3236 0.7693 0.90478 0.0
C510 C 0.31673 0.78386 0.87865 0.0
H511 H 0.18704 0.6491 0.99673 0.0
H512 H 0.22006 0.68635 0.96248 0.0
C513 C 0.33411 0.80498 0.85535 0.0
C514 C 0.30502 0.74702 0.92968 0.0
H515 H 0.25692 0.6915 0.90526 0.0
C516 C 0.30365 0.74627 0.98228 0.0
C517 C 0.2881 0.727 0.90162 0.0
C518 C 0.28918 0.72674 0.84506 0.0
C519 C 0.28529 0.72621 1.00761 0.0
C520 C 0.26822 0.70615 0.97951 0.0
C521 C 0.26991 0.70686 0.92685 0.0
C522 C 0.24819 0.68436 1.00355 0.0
C523 C 0.28387 0.72707 0.06405 0.0
C524 C 0.25292 0.67083 0.03845 0.0
C525 C 0.23398 0.64959 0.05858 0.0
C526 C 0.20998 0.64124 0.04358 0.0
C527 C 0.2053 0.65497 1.0091 0.0
C528 C 0.22418 0.67628 0.98937 0.0
H529 H 0.29366 0.74582 0.07831 0.0
H530 H 0.26482 0.71842 0.07701 0.0
H531 H 0.29233 0.71729 0.08092 0.0
H532 H 0.2713 0.67634 0.04915 0.0
H533 H 0.23825 0.63933 0.08467 0.0
H534 H 0.53379 0.33402 0.07935 0.0
H535 H 0.54214 0.3059 0.12412 0.0
H536 H 0.60953 0.33311 0.04423 0.0
H537 H 0.60122 0.36133 0.99881 0.0
H538 H 0.54864 0.26992 0.08345 0.0
H539 H 0.62958 0.33474 0.19109 0.0
H540 H 0.60968 0.3432 0.16078 0.0
H541 H 0.63162 0.33997 0.12454 0.0
C542 C 0.55036 0.33404 0.07101 0.0
C543 C 0.56678 0.34994 0.03517 0.0
C544 C 0.55517 0.318 0.09693 0.0
C545 C 0.57655 0.31754 0.08793 0.0
C546 C 0.59312 0.33347 0.05251 0.0
H547 H 0.60217 0.20049 0.16124 0.0
H548 H 0.59549 0.23055 0.11974 0.0
C549 C 0.58833 0.34958 0.02652 0.0
C550 C 0.58087 0.29964 0.11425 0.0
H551 H 0.6193 0.29379 0.19449 0.0
C552 C 0.56408 0.27515 0.10777 0.0
C553 C 0.60085 0.30648 0.14646 0.0
C554 C 0.61888 0.33252 0.15663 0.0
C555 C 0.56687 0.25731 0.13208 0.0
C556 C 0.58719 0.26412 0.16322 0.0
C557 C 0.60382 0.28861 0.17031 0.0
C558 C 0.59147 0.24602 0.18866 0.0
C559 C 0.54783 0.23132 0.12485 0.0
C560 C 0.5919 0.24502 0.24127 0.0
C561 C 0.59576 0.22783 0.26524 0.0
C562 C 0.59945 0.21144 0.23698 0.0
C563 C 0.59924 0.2127 0.18424 0.0
C564 C 0.59534 0.22983 0.16038 0.0
H565 H 0.53065 0.22944 0.11054 0.0
H566 H 0.55439 0.22302 0.09707 0.0
H567 H 0.54409 0.22118 0.1606 0.0
H568 H 0.58905 0.25742 0.26381 0.0
H569 H 0.59592 0.22746 0.30588 0.0
loop_
_geom_bond_atom_site_label_1
_geom_bond_atom_site_label_2
_geom_bond_distance
_geom_bond_site_symmetry_2
_ccdc_geom_bond_type
Cu0 N1 1.999 . S
Cu0 O6 1.974 . S
Cu0 N11 1.985 . S
Cu0 O20 1.959 . S
N1 Cu0 1.999 . S
N1 C3 1.263 . S
N1 C5 1.389 1_554 S
N2 C3 1.358 1_556 S
N2 C4 1.400 . S
C3 N1 1.263 . S
C3 N2 1.358 1_554 S
C3 H9 0.930 . S
C4 N2 1.400 . S
C4 C5 1.351 . S
C4 H21 0.930 . S
C5 N1 1.389 1_556 S
C5 C4 1.351 . S
C5 H10 0.930 . S
O6 Cu0 1.974 . S
O6 C16 1.282 . S
C7 O8 1.261 . S
C7 O20 1.251 . S
O8 C7 1.261 . S
H9 C3 0.930 . S
H10 C5 0.930 . S
N11 Cu0 1.985 . S
N11 C13 1.335 . S
N11 C14 1.390 . S
N12 C13 1.345 . S
N12 C15 1.336 . S
C13 N11 1.335 . S
C13 N12 1.345 . S
C13 H18 0.930 . S
C14 N11 1.390 . S
C14 C15 1.346 . S
C14 H19 0.930 . S
C15 N12 1.336 . S
C15 C14 1.346 . S
C15 H22 0.929 . S
C16 O6 1.282 . S
C16 O17 1.216 . S
O17 C16 1.216 . S
H18 C13 0.930 . S
H19 C14 0.930 . S
O20 Cu0 1.959 . S
O20 C7 1.251 . S
H21 C4 0.930 . S
H22 C15 0.929 . S
Cu23 N24 1.999 . S
Cu23 O29 1.974 . S
Cu23 N34 1.985 . S
Cu23 O43 1.959 . S
N24 Cu23 1.999 . S
N24 C26 1.263 . S
N24 C28 1.389 . S
N25 C26 1.358 . S
N25 C27 1.400 . S
C26 N24 1.263 . S
C26 N25 1.358 . S
C26 H32 0.930 . S
C27 N25 1.400 . S
C27 C28 1.351 . S
C27 H44 0.930 . S
C28 N24 1.389 . S
C28 C27 1.351 . S
C28 H33 0.930 . S
O29 Cu23 1.974 . S
O29 C39 1.282 . S
C30 O31 1.261 . S
C30 O43 1.251 . S
O31 C30 1.261 . S
H32 C26 0.930 . S
H33 C28 0.930 . S
N34 Cu23 1.985 . S
N34 C36 1.335 . S
N34 C37 1.390 . S
N35 C36 1.345 . S
N35 C38 1.336 . S
C36 N34 1.335 . S
C36 N35 1.345 . S
C36 H41 0.930 . S
C37 N34 1.390 . S
C37 C38 1.346 . S
C37 H42 0.930 . S
C38 N35 1.336 . S
C38 C37 1.346 . S
C38 H45 0.929 . S
C39 O29 1.282 . S
C39 O40 1.216 . S
O40 C39 1.216 . S
H41 C36 0.930 . S
H42 C37 0.930 . S
O43 Cu23 1.959 . S
O43 C30 1.251 . S
H44 C27 0.930 . S
H45 C38 0.929 . S
Cu46 N47 1.999 . S
Cu46 O52 1.974 . S
Cu46 N57 1.985 . S
Cu46 O66 1.959 . S
N47 Cu46 1.999 . S
N47 C49 1.263 . S
N47 C51 1.389 . S
N48 C49 1.358 . S
N48 C50 1.400 . S
C49 N47 1.263 . S
C49 N48 1.358 . S
C49 H55 0.930 . S
C50 N48 1.400 . S
C50 C51 1.351 . S
C50 H67 0.930 . S
C51 N47 1.389 . S
C51 C50 1.351 . S
C51 H56 0.930 . S
O52 Cu46 1.974 . S
O52 C62 1.282 . S
C53 O54 1.261 . S
C53 O66 1.251 . S
O54 C53 1.261 . S
H55 C49 0.930 . S
H56 C51 0.930 . S
N57 Cu46 1.985 . S
N57 C59 1.335 . S
N57 C60 1.390 . S
N58 C59 1.345 . S
N58 C61 1.336 . S
C59 N57 1.335 . S
C59 N58 1.345 . S
C59 H64 0.930 . S
C60 N57 1.390 . S
C60 C61 1.346 . S
C60 H65 0.930 . S
C61 N58 1.336 . S
C61 C60 1.346 . S
C61 H68 0.929 . S
C62 O52 1.282 . S
C62 O63 1.216 . S
O63 C62 1.216 . S
H64 C59 0.930 . S
H65 C60 0.930 . S
O66 Cu46 1.959 . S
O66 C53 1.251 . S
H67 C50 0.930 . S
H68 C61 0.929 . S
Cu69 N70 1.999 . S
Cu69 O75 1.974 . S
Cu69 N80 1.985 . S
Cu69 O89 1.959 . S
N70 Cu69 1.999 . S
N70 C72 1.263 . S
N70 C74 1.389 . S
N71 C72 1.358 . S
N71 C73 1.400 . S
C72 N70 1.263 . S
C72 N71 1.358 . S
C72 H78 0.930 . S
C73 N71 1.400 . S
C73 C74 1.351 . S
C73 H90 0.930 . S
C74 N70 1.389 . S
C74 C73 1.351 . S
C74 H79 0.930 . S
O75 Cu69 1.974 . S
O75 C85 1.282 . S
C76 O77 1.261 . S
C76 O89 1.251 . S
O77 C76 1.261 . S
H78 C72 0.930 . S
H79 C74 0.930 . S
N80 Cu69 1.985 . S
N80 C82 1.335 . S
N80 C83 1.390 . S
N81 C82 1.345 . S
N81 C84 1.336 . S
C82 N80 1.335 . S
C82 N81 1.345 . S
C82 H87 0.930 . S
C83 N80 1.390 . S
C83 C84 1.346 . S
C83 H88 0.930 . S
C84 N81 1.336 . S
C84 C83 1.346 . S
C84 H91 0.929 . S
C85 O75 1.282 . S
C85 O86 1.216 . S
O86 C85 1.216 . S
H87 C82 0.930 . S
H88 C83 0.930 . S
O89 Cu69 1.959 . S
O89 C76 1.251 . S
H90 C73 0.930 . S
H91 C84 0.929 . S
Cu92 N93 1.999 . S
Cu92 O98 1.974 . S
Cu92 N103 1.985 . S
Cu92 O112 1.959 . S
N93 Cu92 1.999 . S
N93 C95 1.263 . S
N93 C97 1.389 . S
N94 C95 1.358 . S
N94 C96 1.400 . S
C95 N93 1.263 . S
C95 N94 1.358 . S
C95 H101 0.930 . S
C96 N94 1.400 . S
C96 C97 1.351 . S
C96 H113 0.930 . S
C97 N93 1.389 . S
C97 C96 1.351 . S
C97 H102 0.930 . S
O98 Cu92 1.974 . S
O98 C108 1.282 . S
C99 O100 1.261 . S
C99 O112 1.251 . S
O100 C99 1.261 . S
H101 C95 0.930 . S
H102 C97 0.930 . S
N103 Cu92 1.985 . S
N103 C105 1.335 . S
N103 C106 1.390 . S
N104 C105 1.345 . S
N104 C107 1.336 . S
C105 N103 1.335 . S
C105 N104 1.345 . S
C105 H110 0.930 . S
C106 N103 1.390 . S
C106 C107 1.346 . S
C106 H111 0.930 . S
C107 N104 1.336 . S
C107 C106 1.346 . S
C107 H114 0.929 . S
C108 O98 1.282 . S
C108 O109 1.216 . S
O109 C108 1.216 . S
H110 C105 0.930 . S
H111 C106 0.930 . S
O112 Cu92 1.959 . S
O112 C99 1.251 . S
H113 C96 0.930 . S
H114 C107 0.929 . S
Cu115 N116 1.999 . S
Cu115 O121 1.974 . S
Cu115 N126 1.985 . S
Cu115 O135 1.959 . S
N116 Cu115 1.999 . S
N116 C118 1.263 . S
N116 C120 1.389 . S
N117 C118 1.358 . S
N117 C119 1.400 . S
C118 N116 1.263 . S
C118 N117 1.358 . S
C118 H124 0.930 . S
C119 N117 1.400 . S
C119 C120 1.351 . S
C119 H136 0.930 . S
C120 N116 1.389 . S
C120 C119 1.351 . S
C120 H125 0.930 . S
O121 Cu115 1.974 . S
O121 C131 1.282 . S
C122 O123 1.261 . S
C122 O135 1.251 . S
O123 C122 1.261 . S
H124 C118 0.930 . S
H125 C120 0.930 . S
N126 Cu115 1.985 . S
N126 C128 1.335 . S
N126 C129 1.390 1_556 S
N127 C128 1.345 1_554 S
N127 C130 1.336 . S
C128 N126 1.335 . S
C128 N127 1.345 1_556 S
C128 H133 0.930 . S
C129 N126 1.390 1_554 S
C129 C130 1.346 . S
C129 H134 0.930 . S
C130 N127 1.336 . S
C130 C129 1.346 . S
C130 H137 0.929 . S
C131 O121 1.282 . S
C131 O132 1.216 . S
O132 C131 1.216 . S
H133 C128 0.930 . S
H134 C129 0.930 . S
O135 Cu115 1.959 . S
O135 C122 1.251 . S
H136 C119 0.930 . S
H137 C130 0.929 . S
H138 C146 0.929 . S
H139 C148 0.930 . S
H140 C150 0.930 . S
H141 C153 0.929 . S
H142 C156 0.930 . S
H143 C158 0.960 . S
H144 C158 0.960 . S
H145 C158 0.960 . S
C146 H138 0.929 . S
C146 C147 1.377 . S
C146 C148 1.384 . S
C147 C146 1.377 . S
C147 C153 1.390 . S
C148 H139 0.930 . S
C148 C146 1.384 . S
C148 C149 1.372 . S
C149 C148 1.372 . S
C149 C150 1.400 . S
C149 C154 1.490 . S
C150 H140 0.930 . S
C150 C149 1.400 . S
C150 C153 1.386 . S
H151 C167 0.930 . S
H152 C168 0.931 . S
C153 H141 0.929 . S
C153 C147 1.390 . S
C153 C150 1.386 . S
C154 C149 1.490 . S
C154 C156 1.395 . S
C154 C157 1.403 1_455 S
H155 C161 0.930 . S
C156 H142 0.930 . S
C156 C154 1.395 . S
C156 C159 1.389 1_455 S
C157 C154 1.403 1_655 S
C157 C158 1.524 . S
C157 C161 1.400 . S
C158 H143 0.960 . S
C158 H144 0.960 . S
C158 H145 0.960 . S
C158 C157 1.524 . S
C159 C156 1.389 1_655 S
C159 C160 1.415 . S
C159 C163 1.487 1_655 S
C160 C159 1.415 . S
C160 C161 1.385 . S
C160 C162 1.478 . S
C161 H155 0.930 . S
C161 C157 1.400 . S
C161 C160 1.385 . S
C162 C160 1.478 . S
C162 C164 1.381 . S
C162 C168 1.383 . S
C163 C159 1.487 1_455 S
C163 H169 0.959 . S
C163 H170 0.958 . S
C163 H171 0.960 . S
C164 C162 1.381 . S
C164 C165 1.394 . S
C164 H172 0.930 . S
C165 C164 1.394 . S
C165 C166 1.383 . S
C165 H173 0.929 . S
C166 C165 1.383 . S
C166 C167 1.377 . S
C167 H151 0.930 . S
C167 C166 1.377 . S
C167 C168 1.379 . S
C168 H152 0.931 . S
C168 C162 1.383 . S
C168 C167 1.379 . S
H169 C163 0.959 . S
H170 C163 0.958 . S
H171 C163 0.960 . S
H172 C164 0.930 . S
H173 C165 0.929 . S
H174 C182 0.929 . S
H175 C184 0.930 . S
H176 C186 0.930 . S
H177 C189 0.929 . S
H178 C192 0.930 . S
H179 C194 0.960 1_554 S
H180 C194 0.960 . S
H181 C194 0.960 . S
C182 H174 0.929 . S
C182 C183 1.377 . S
C182 C184 1.384 . S
C183 C182 1.377 . S
C183 C189 1.390 . S
C184 H175 0.930 . S
C184 C182 1.384 . S
C184 C185 1.372 . S
C185 C184 1.372 . S
C185 C186 1.400 . S
C185 C190 1.490 . S
C186 H176 0.930 . S
C186 C185 1.400 . S
C186 C189 1.386 . S
H187 C203 0.930 . S
H188 C204 0.931 . S
C189 H177 0.929 . S
C189 C183 1.390 . S
C189 C186 1.386 . S
C190 C185 1.490 . S
C190 C192 1.395 . S
C190 C193 1.403 . S
H191 C197 0.929 1_545 S
C192 H178 0.930 . S
C192 C190 1.395 . S
C192 C195 1.403 1_565 S
C193 C190 1.403 . S
C193 C194 1.524 . S
C193 C197 1.400 1_556 S
C194 H179 0.960 1_556 S
C194 H180 0.960 . S
C194 H181 0.960 . S
C194 C193 1.524 . S
C195 C192 1.403 1_545 S
C195 C196 1.392 1_556 S
C195 C199 1.495 . S
C196 C195 1.392 1_554 S
C196 C197 1.385 1_545 S
C196 C198 1.478 . S
C197 H191 0.929 1_565 S
C197 C193 1.400 1_554 S
C197 C196 1.385 1_565 S
C198 C196 1.478 . S
C198 C200 1.381 . S
C198 C204 1.383 . S
C199 C195 1.495 . S
C199 H205 0.959 . S
C199 H206 0.961 1_556 S
C199 H207 0.960 . S
C200 C198 1.381 . S
C200 C201 1.394 . S
C200 H208 0.930 . S
C201 C200 1.394 . S
C201 C202 1.383 . S
C201 H209 0.929 . S
C202 C201 1.383 . S
C202 C203 1.377 . S
C203 H187 0.930 . S
C203 C202 1.377 . S
C203 C204 1.379 . S
C204 H188 0.931 . S
C204 C198 1.383 . S
C204 C203 1.379 . S
H205 C199 0.959 . S
H206 C199 0.961 1_554 S
H207 C199 0.960 . S
H208 C200 0.930 . S
H209 C201 0.929 . S
H210 C218 0.929 . S
H211 C220 0.930 . S
H212 C222 0.930 . S
H213 C225 0.929 . S
H214 C228 0.930 . S
H215 C230 0.960 . S
H216 C230 0.960 . S
H217 C230 0.960 . S
C218 H210 0.929 . S
C218 C219 1.377 . S
C218 C220 1.384 . S
C219 C218 1.377 . S
C219 C225 1.390 . S
C220 H211 0.930 . S
C220 C218 1.384 . S
C220 C221 1.372 . S
C221 C220 1.372 . S
C221 C222 1.400 . S
C221 C226 1.490 . S
C222 H212 0.930 . S
C222 C221 1.400 . S
C222 C225 1.386 . S
H223 C239 0.930 1_556 S
H224 C240 0.931 . S
C225 H213 0.929 . S
C225 C219 1.390 . S
C225 C222 1.386 . S
C226 C221 1.490 . S
C226 C228 1.395 . S
C226 C229 1.403 . S
H227 C233 0.930 . S
C228 H214 0.930 . S
C228 C226 1.395 . S
C228 C231 1.403 . S
C229 C226 1.403 . S
C229 C230 1.524 . S
C229 C233 1.400 . S
C230 H215 0.960 . S
C230 H216 0.960 . S
C230 H217 0.960 . S
C230 C229 1.524 . S
C231 C228 1.403 . S
C231 C232 1.392 . S
C231 C235 1.495 . S
C232 C231 1.392 . S
C232 C233 1.385 . S
C232 C234 1.478 . S
C233 H227 0.930 . S
C233 C229 1.400 . S
C233 C232 1.385 . S
C234 C232 1.478 . S
C234 C236 1.381 . S
C234 C240 1.383 . S
C235 C231 1.495 . S
C235 H241 0.959 . S
C235 H242 0.961 . S
C235 H243 0.960 . S
C236 C234 1.381 . S
C236 C237 1.394 . S
C236 H244 0.930 . S
C237 C236 1.394 . S
C237 C238 1.383 . S
C237 H245 0.929 . S
C238 C237 1.383 . S
C238 C239 1.377 . S
C239 H223 0.930 1_554 S
C239 C238 1.377 . S
C239 C240 1.379 . S
C240 H224 0.931 . S
C240 C234 1.383 . S
C240 C239 1.379 . S
H241 C235 0.959 . S
H242 C235 0.961 . S
H243 C235 0.960 . S
H244 C236 0.930 . S
H245 C237 0.929 . S
H246 C254 0.929 . S
H247 C256 0.930 . S
H248 C258 0.930 . S
H249 C261 0.929 . S
H250 C264 0.906 1_655 S
H251 C266 0.960 . S
H252 C266 0.960 . S
H253 C266 0.960 . S
C254 H246 0.929 . S
C254 C255 1.377 . S
C254 C256 1.384 . S
C255 C254 1.377 . S
C255 C261 1.390 . S
C256 H247 0.930 . S
C256 C254 1.384 . S
C256 C257 1.372 . S
C257 C256 1.372 . S
C257 C258 1.400 . S
C257 C262 1.490 . S
C258 H248 0.930 . S
C258 C257 1.400 . S
C258 C261 1.386 . S
H259 C275 0.930 . S
H260 C276 0.931 . S
C261 H249 0.929 . S
C261 C255 1.390 . S
C261 C258 1.386 . S
C262 C257 1.490 . S
C262 C264 1.397 1_655 S
C262 C265 1.403 . S
H263 C269 0.930 . S
C264 H250 0.906 1_455 S
C264 C262 1.397 1_455 S
C264 C267 1.424 . S
C265 C262 1.403 . S
C265 C266 1.524 . S
C265 C269 1.400 1_655 S
C266 H251 0.960 . S
C266 H252 0.960 . S
C266 H253 0.960 . S
C266 C265 1.524 . S
C267 C264 1.424 . S
C267 C268 1.392 . S
C267 C271 1.495 . S
C268 C267 1.392 . S
C268 C269 1.385 . S
C268 C270 1.478 . S
C269 H263 0.930 . S
C269 C265 1.400 1_455 S
C269 C268 1.385 . S
C270 C268 1.478 . S
C270 C272 1.381 . S
C270 C276 1.383 . S
C271 C267 1.495 . S
C271 H277 0.959 . S
C271 H278 0.961 . S
C271 H279 0.960 . S
C272 C270 1.381 . S
C272 C273 1.394 . S
C272 H280 0.930 . S
C273 C272 1.394 . S
C273 C274 1.383 . S
C273 H281 0.929 . S
C274 C273 1.383 . S
C274 C275 1.377 . S
C275 H259 0.930 . S
C275 C274 1.377 . S
C275 C276 1.379 . S
C276 H260 0.931 . S
C276 C270 1.383 . S
C276 C275 1.379 . S
H277 C271 0.959 . S
H278 C271 0.961 . S
H279 C271 0.960 . S
H280 C272 0.930 . S
H281 C273 0.929 . S
H282 C290 0.929 . S
H283 C292 0.930 . S
H284 C294 0.930 . S
H285 C297 0.929 . S
H286 C300 0.930 . S
H287 C302 0.960 1_565 S
H288 C302 0.960 . S
H289 C302 0.960 . S
C290 H282 0.929 . S
C290 C291 1.377 . S
C290 C292 1.384 . S
C291 C290 1.377 . S
C291 C297 1.390 . S
C292 H283 0.930 . S
C292 C290 1.384 . S
C292 C293 1.372 . S
C293 C292 1.372 . S
C293 C294 1.400 . S
C293 C298 1.490 . S
C294 H284 0.930 . S
C294 C293 1.400 . S
C294 C297 1.386 . S
H295 C311 0.930 . S
H296 C312 0.931 . S
C297 H285 0.929 . S
C297 C291 1.390 . S
C297 C294 1.386 . S
C298 C293 1.490 . S
C298 C300 1.395 . S
C298 C301 1.403 . S
H299 C305 0.930 . S
C300 H286 0.930 . S
C300 C298 1.395 . S
C300 C303 1.403 . S
C301 C298 1.403 . S
C301 C302 1.524 . S
C301 C305 1.400 1_545 S
C302 H287 0.960 1_545 S
C302 H288 0.960 . S
C302 H289 0.960 . S
C302 C301 1.524 . S
C303 C300 1.403 . S
C303 C304 1.392 1_545 S
C303 C307 1.495 . S
C304 C303 1.392 1_565 S
C304 C305 1.385 . S
C304 C306 1.478 . S
C305 H299 0.930 . S
C305 C301 1.400 1_565 S
C305 C304 1.385 . S
C306 C304 1.478 . S
C306 C308 1.381 . S
C306 C312 1.383 . S
C307 C303 1.495 . S
C307 H313 0.959 . S
C307 H314 0.961 1_545 S
C307 H315 0.960 . S
C308 C306 1.381 . S
C308 C309 1.394 . S
C308 H316 0.930 . S
C309 C308 1.394 . S
C309 C310 1.383 . S
C309 H317 0.929 . S
C310 C309 1.383 . S
C310 C311 1.377 . S
C311 H295 0.930 . S
C311 C310 1.377 . S
C311 C312 1.379 . S
C312 H296 0.931 . S
C312 C306 1.383 . S
C312 C311 1.379 . S
H313 C307 0.959 . S
H314 C307 0.961 1_565 S
H315 C307 0.960 . S
H316 C308 0.930 . S
H317 C309 0.929 . S
H318 C326 0.929 . S
H319 C328 0.930 . S
H320 C330 0.930 . S
H321 C333 0.929 . S
H322 C336 0.930 . S
H323 C338 0.960 . S
H324 C338 0.960 . S
H325 C338 0.960 . S
C326 H318 0.929 . S
C326 C327 1.377 . S
C326 C328 1.384 . S
C327 C326 1.377 . S
C327 C333 1.390 . S
C328 H319 0.930 . S
C328 C326 1.384 . S
C328 C329 1.372 . S
C329 C328 1.372 . S
C329 C330 1.400 . S
C329 C334 1.490 . S
C330 H320 0.930 . S
C330 C329 1.400 . S
C330 C333 1.386 . S
H331 C347 0.930 . S
H332 C348 0.931 . S
C333 H321 0.929 . S
C333 C327 1.390 . S
C333 C330 1.386 . S
C334 C329 1.490 . S
C334 C336 1.395 . S
C334 C337 1.403 . S
H335 C341 0.930 . S
C336 H322 0.930 . S
C336 C334 1.395 . S
C336 C339 1.403 . S
C337 C334 1.403 . S
C337 C338 1.524 . S
C337 C341 1.400 . S
C338 H323 0.960 . S
C338 H324 0.960 . S
C338 H325 0.960 . S
C338 C337 1.524 . S
C339 C336 1.403 . S
C339 C340 1.392 . S
C339 C343 1.495 . S
C340 C339 1.392 . S
C340 C341 1.385 . S
C340 C342 1.478 . S
C341 H335 0.930 . S
C341 C337 1.400 . S
C341 C340 1.385 . S
C342 C340 1.478 . S
C342 C344 1.381 . S
C342 C348 1.383 . S
C343 C339 1.495 . S
C343 H349 0.959 . S
C343 H350 0.961 . S
C343 H351 0.960 . S
C344 C342 1.381 . S
C344 C345 1.394 . S
C344 H352 0.930 . S
C345 C344 1.394 . S
C345 C346 1.383 . S
C345 H353 0.929 . S
C346 C345 1.383 . S
C346 C347 1.377 . S
C347 H331 0.930 . S
C347 C346 1.377 . S
C347 C348 1.379 . S
C348 H332 0.931 . S
C348 C342 1.383 . S
C348 C347 1.379 . S
H349 C343 0.959 . S
H350 C343 0.961 . S
H351 C343 0.960 . S
H352 C344 0.930 . S
H353 C345 0.929 . S
H354 C362 0.929 . S
H355 C364 0.930 . S
H356 C366 0.930 . S
H357 C369 0.929 . S
H358 C372 0.930 . S
H359 C374 0.960 . S
H360 C374 0.960 . S
H361 C374 0.960 . S
C362 H354 0.929 . S
C362 C363 1.377 . S
C362 C364 1.384 . S
C363 C362 1.377 . S
C363 C369 1.390 . S
C364 H355 0.930 . S
C364 C362 1.384 . S
C364 C365 1.372 . S
C365 C364 1.372 . S
C365 C366 1.400 . S
C365 C370 1.490 . S
C366 H356 0.930 . S
C366 C365 1.400 . S
C366 C369 1.386 . S
H367 C383 0.930 . S
H368 C384 0.931 . S
C369 H357 0.929 . S
C369 C363 1.390 . S
C369 C366 1.386 . S
C370 C365 1.490 . S
C370 C372 1.395 . S
C370 C373 1.403 . S
H371 C377 0.930 . S
C372 H358 0.930 . S
C372 C370 1.395 . S
C372 C375 1.403 . S
C373 C370 1.403 . S
C373 C374 1.524 . S
C373 C377 1.400 . S
C374 H359 0.960 . S
C374 H360 0.960 . S
C374 H361 0.960 . S
C374 C373 1.524 . S
C375 C372 1.403 . S
C375 C376 1.392 . S
C375 C379 1.495 . S
C376 C375 1.392 . S
C376 C377 1.385 . S
C376 C378 1.478 . S
C377 H371 0.930 . S
C377 C373 1.400 . S
C377 C376 1.385 . S
C378 C376 1.478 . S
C378 C380 1.381 . S
C378 C384 1.383 . S
C379 C375 1.495 . S
C379 H385 0.959 . S
C379 H386 0.961 . S
C379 H387 0.960 . S
C380 C378 1.381 . S
C380 C381 1.394 . S
C380 H388 0.930 . S
C381 C380 1.394 . S
C381 C382 1.383 . S
C381 H389 0.929 . S
C382 C381 1.383 . S
C382 C383 1.377 . S
C383 H367 0.930 . S
C383 C382 1.377 . S
C383 C384 1.379 . S
C384 H368 0.931 . S
C384 C378 1.383 . S
C384 C383 1.379 . S
H385 C379 0.959 . S
H386 C379 0.961 . S
H387 C379 0.960 . S
H388 C380 0.930 . S
H389 C381 0.929 . S
H390 C398 0.929 . S
H391 C400 0.930 . S
H392 C402 0.930 . S
H393 C405 0.929 . S
H394 C408 0.930 . S
H395 C410 0.960 . S
H396 C410 0.960 . S
H397 C410 0.960 . S
C398 H390 0.929 . S
C398 C399 1.377 . S
C398 C400 1.384 . S
C399 C398 1.377 . S
C399 C405 1.390 . S
C400 H391 0.930 . S
C400 C398 1.384 . S
C400 C401 1.372 . S
C401 C400 1.372 . S
C401 C402 1.400 . S
C401 C406 1.490 . S
C402 H392 0.930 . S
C402 C401 1.400 . S
C402 C405 1.386 . S
H403 C419 0.930 . S
H404 C420 0.931 . S
C405 H393 0.929 . S
C405 C399 1.390 . S
C405 C402 1.386 . S
C406 C401 1.490 . S
C406 C408 1.395 . S
C406 C409 1.403 . S
H407 C413 0.930 . S
C408 H394 0.930 . S
C408 C406 1.395 . S
C408 C411 1.403 . S
C409 C406 1.403 . S
C409 C410 1.524 . S
C409 C413 1.400 . S
C410 H395 0.960 . S
C410 H396 0.960 . S
C410 H397 0.960 . S
C410 C409 1.524 . S
C411 C408 1.403 . S
C411 C412 1.392 . S
C411 C415 1.495 . S
C412 C411 1.392 . S
C412 C413 1.385 . S
C412 C414 1.478 . S
C413 H407 0.930 . S
C413 C409 1.400 . S
C413 C412 1.385 . S
C414 C412 1.478 . S
C414 C416 1.381 . S
C414 C420 1.383 . S
C415 C411 1.495 . S
C415 H421 0.959 . S
C415 H422 0.961 . S
C415 H423 0.960 . S
C416 C414 1.381 . S
C416 C417 1.394 . S
C416 H424 0.930 . S
C417 C416 1.394 . S
C417 C418 1.383 . S
C417 H425 0.929 . S
C418 C417 1.383 . S
C418 C419 1.377 . S
C419 H403 0.930 . S
C419 C418 1.377 . S
C419 C420 1.379 . S
C420 H404 0.931 . S
C420 C414 1.383 . S
C420 C419 1.379 . S
H421 C415 0.959 . S
H422 C415 0.961 . S
H423 C415 0.960 . S
H424 C416 0.930 . S
H425 C417 0.929 . S
H426 C434 0.929 . S
H427 C436 0.930 . S
H428 C438 0.930 . S
H429 C441 0.929 . S
H430 C444 0.930 . S
H431 C446 0.960 . S
H432 C446 0.960 . S
H433 C446 0.960 . S
C434 H426 0.929 . S
C434 C435 1.377 . S
C434 C436 1.384 . S
C435 C434 1.377 . S
C435 C441 1.390 . S
C436 H427 0.930 . S
C436 C434 1.384 . S
C436 C437 1.372 . S
C437 C436 1.372 . S
C437 C438 1.400 . S
C437 C442 1.490 . S
C438 H428 0.930 . S
C438 C437 1.400 . S
C438 C441 1.386 . S
H439 C455 0.930 . S
H440 C456 0.931 . S
C441 H429 0.929 . S
C441 C435 1.390 . S
C441 C438 1.386 . S
C442 C437 1.490 . S
C442 C444 1.395 . S
C442 C445 1.403 . S
H443 C449 0.930 . S
C444 H430 0.930 . S
C444 C442 1.395 . S
C444 C447 1.403 . S
C445 C442 1.403 . S
C445 C446 1.524 . S
C445 C449 1.400 . S
C446 H431 0.960 . S
C446 H432 0.960 . S
C446 H433 0.960 . S
C446 C445 1.524 . S
C447 C444 1.403 . S
C447 C448 1.392 . S
C447 C451 1.495 . S
C448 C447 1.392 . S
C448 C449 1.385 . S
C448 C450 1.478 . S
C449 H443 0.930 . S
C449 C445 1.400 . S
C449 C448 1.385 . S
C450 C448 1.478 . S
C450 C452 1.381 . S
C450 C456 1.383 . S
C451 C447 1.495 . S
C451 H457 0.959 . S
C451 H458 0.961 . S
C451 H459 0.960 . S
C452 C450 1.381 . S
C452 C453 1.394 . S
C452 H460 0.930 . S
C453 C452 1.394 . S
C453 C454 1.383 . S
C453 H461 0.929 . S
C454 C453 1.383 . S
C454 C455 1.377 . S
C455 H439 0.930 . S
C455 C454 1.377 . S
C455 C456 1.379 . S
C456 H440 0.931 . S
C456 C450 1.383 . S
C456 C455 1.379 . S
H457 C451 0.959 . S
H458 C451 0.961 . S
H459 C451 0.960 . S
H460 C452 0.930 . S
H461 C453 0.929 . S
H462 C470 0.929 . S
H463 C472 0.930 . S
H464 C474 0.930 . S
H465 C477 0.929 . S
H466 C480 0.930 . S
H467 C482 0.960 . S
H468 C482 0.960 . S
H469 C482 0.960 . S
C470 H462 0.929 . S
C470 C471 1.377 . S
C470 C472 1.384 . S
C471 C470 1.377 . S
C471 C477 1.390 . S
C472 H463 0.930 . S
C472 C470 1.384 . S
C472 C473 1.372 . S
C473 C472 1.372 . S
C473 C474 1.400 . S
C473 C478 1.490 . S
C474 H464 0.930 . S
C474 C473 1.400 . S
C474 C477 1.386 . S
H475 C491 0.930 . S
H476 C492 0.931 . S
C477 H465 0.929 . S
C477 C471 1.390 . S
C477 C474 1.386 . S
C478 C473 1.490 . S
C478 C480 1.395 . S
C478 C481 1.403 . S
H479 C485 0.930 . S
C480 H466 0.930 . S
C480 C478 1.395 . S
C480 C483 1.403 . S
C481 C478 1.403 . S
C481 C482 1.524 . S
C481 C485 1.400 . S
C482 H467 0.960 . S
C482 H468 0.960 . S
C482 H469 0.960 . S
C482 C481 1.524 . S
C483 C480 1.403 . S
C483 C484 1.392 . S
C483 C487 1.495 . S
C484 C483 1.392 . S
C484 C485 1.385 . S
C484 C486 1.478 . S
C485 H479 0.930 . S
C485 C481 1.400 . S
C485 C484 1.385 . S
C486 C484 1.478 . S
C486 C488 1.381 . S
C486 C492 1.383 . S
C487 C483 1.495 . S
C487 H493 0.959 . S
C487 H494 0.961 . S
C487 H495 0.960 . S
C488 C486 1.381 . S
C488 C489 1.394 . S
C488 H496 0.930 . S
C489 C488 1.394 . S
C489 C490 1.383 . S
C489 H497 0.929 . S
C490 C489 1.383 . S
C490 C491 1.377 . S
C491 H475 0.930 . S
C491 C490 1.377 . S
C491 C492 1.379 . S
C492 H476 0.931 . S
C492 C486 1.383 . S
C492 C491 1.379 . S
H493 C487 0.959 . S
H494 C487 0.961 . S
H495 C487 0.960 . S
H496 C488 0.930 . S
H497 C489 0.929 . S
H498 C506 0.929 . S
H499 C508 0.930 . S
H500 C510 0.930 . S
H501 C513 0.929 . S
H502 C516 0.930 . S
H503 C518 0.960 . S
H504 C518 0.960 . S
H505 C518 0.960 . S
C506 H498 0.929 . S
C506 C507 1.377 . S
C506 C508 1.384 . S
C507 C506 1.377 . S
C507 C513 1.390 . S
C508 H499 0.930 . S
C508 C506 1.384 . S
C508 C509 1.372 . S
C509 C508 1.372 . S
C509 C510 1.400 . S
C509 C514 1.490 . S
C510 H500 0.930 . S
C510 C509 1.400 . S
C510 C513 1.386 . S
H511 C527 0.930 . S
H512 C528 0.931 . S
C513 H501 0.929 . S
C513 C507 1.390 . S
C513 C510 1.386 . S
C514 C509 1.490 . S
C514 C516 1.395 . S
C514 C517 1.403 . S
H515 C521 0.930 . S
C516 H502 0.930 . S
C516 C514 1.395 . S
C516 C519 1.403 . S
C517 C514 1.403 . S
C517 C518 1.524 . S
C517 C521 1.400 . S
C518 H503 0.960 . S
C518 H504 0.960 . S
C518 H505 0.960 . S
C518 C517 1.524 . S
C519 C516 1.403 . S
C519 C520 1.392 . S
C519 C523 1.495 1_556 S
C520 C519 1.392 . S
C520 C521 1.385 . S
C520 C522 1.478 . S
C521 H515 0.930 . S
C521 C517 1.400 . S
C521 C520 1.385 . S
C522 C520 1.478 . S
C522 C524 1.381 1_556 S
C522 C528 1.383 . S
C523 C519 1.495 1_554 S
C523 H529 0.959 . S
C523 H530 0.961 . S
C523 H531 0.960 . S
C524 C522 1.381 1_554 S
C524 C525 1.394 . S
C524 H532 0.930 . S
C525 C524 1.394 . S
C525 C526 1.383 . S
C525 H533 0.929 . S
C526 C525 1.383 . S
C526 C527 1.377 1_554 S
C527 H511 0.930 . S
C527 C526 1.377 1_556 S
C527 C528 1.379 . S
C528 H512 0.931 . S
C528 C522 1.383 . S
C528 C527 1.379 . S
H529 C523 0.959 . S
H530 C523 0.961 . S
H531 C523 0.960 . S
H532 C524 0.930 . S
H533 C525 0.929 . S
H534 C542 0.929 . S
H535 C544 0.930 . S
H536 C546 0.929 1_556 S
H537 C549 0.929 . S
H538 C552 0.930 . S
H539 C554 0.960 . S
H540 C554 0.960 . S
H541 C554 0.960 . S
C542 H534 0.929 . S
C542 C543 1.377 . S
C542 C544 1.384 . S
C543 C542 1.377 . S
C543 C549 1.390 1_554 S
C544 H535 0.930 . S
C544 C542 1.384 . S
C544 C545 1.372 . S
C545 C544 1.372 . S
C545 C546 1.400 . S
C545 C550 1.490 . S
C546 H536 0.929 1_554 S
C546 C545 1.400 . S
C546 C549 1.386 1_554 S
H547 C563 0.930 . S
H548 C564 0.931 . S
C549 H537 0.929 . S
C549 C543 1.390 1_556 S
C549 C546 1.386 1_556 S
C550 C545 1.490 . S
C550 C552 1.395 . S
C550 C553 1.403 . S
H551 C557 0.930 . S
C552 H538 0.930 . S
C552 C550 1.395 . S
C552 C555 1.403 . S
C553 C550 1.403 . S
C553 C554 1.524 . S
C553 C557 1.400 . S
C554 H539 0.960 . S
C554 H540 0.960 . S
C554 H541 0.960 . S
C554 C553 1.524 . S
C555 C552 1.403 . S
C555 C556 1.392 . S
C555 C559 1.495 . S
C556 C555 1.392 . S
C556 C557 1.385 . S
C556 C558 1.478 . S
C557 H551 0.930 . S
C557 C553 1.400 . S
C557 C556 1.385 . S
C558 C556 1.478 . S
C558 C560 1.381 . S
C558 C564 1.383 . S
C559 C555 1.495 . S
C559 H565 0.959 . S
C559 H566 0.961 . S
C559 H567 0.960 . S
C560 C558 1.381 . S
C560 C561 1.394 . S
C560 H568 0.930 . S
C561 C560 1.394 . S
C561 C562 1.383 . S
C561 H569 0.929 . S
C562 C561 1.383 . S
C562 C563 1.377 . S
C563 H547 0.930 . S
C563 C562 1.377 . S
C563 C564 1.379 . S
C564 H548 0.931 . S
C564 C558 1.383 . S
C564 C563 1.379 . S
H565 C559 0.959 . S
H566 C559 0.961 . S
H567 C559 0.960 . S
H568 C560 0.930 . S
H569 C561 0.929 . S
C147 N2 1.695 . S
C166 C85 1.750 . S
C183 C108 1.745 . S
C202 N25 1.697 . S
C219 N48 1.693 . S
C238 C131 1.760 1_554 S
C255 N71 1.686 . S
C274 C16 1.724 . S
C291 C39 1.747 . S
C310 N94 1.679 . S
C327 N117 1.687 . S
C346 C62 1.725 . S
C363 N12 1.615 . S
C382 C53 1.624 . S
C399 N35 1.610 . S
C418 C76 1.630 . S
C435 C99 1.622 . S
C454 N58 1.617 . S
C471 C122 1.627 . S
C490 N81 1.615 . S
C507 N104 1.616 . S
C526 C7 1.613 . S
C543 N127 1.612 . S
C562 C30 1.612 . S
