# Generated by pormake.
# Topology whr, (6)-cn, num edge types: 1
# Building blocks:
#     Node 0, Type 0, BuildingBlock: IZENUY_clean_sbu_0, # of connection points: 6
#     Node 1, Type 0, BuildingBlock: IZENUY_clean_sbu_0, # of connection points: 6
#     Node 2, Type 0, BuildingBlock: IZENUY_clean_sbu_0, # of connection points: 6
#     Node 3, Type 0, BuildingBlock: IZENUY_clean_sbu_0, # of connection points: 6
#     Node 4, Type 0, BuildingBlock: IZENUY_clean_sbu_0, # of connection points: 6
#     Node 5, Type 0, BuildingBlock: IZENUY_clean_sbu_0, # of connection points: 6
#     Node 6, Type 0, BuildingBlock: IZENUY_clean_sbu_0, # of connection points: 6
#     Node 7, Type 0, BuildingBlock: IZENUY_clean_sbu_0, # of connection points: 6
#     Node 8, Type 0, BuildingBlock: IZENUY_clean_sbu_0, # of connection points: 6
#     Node 9, Type 0, BuildingBlock: IZENUY_clean_sbu_0, # of connection points: 6
#     Node 10, Type 0, BuildingBlock: IZENUY_clean_sbu_0, # of connection points: 6
#     Node 11, Type 0, BuildingBlock: IZENUY_clean_sbu_0, # of connection points: 6
#     Node 12, Type 0, BuildingBlock: IZENUY_clean_sbu_0, # of connection points: 6
#     Node 13, Type 0, BuildingBlock: IZENUY_clean_sbu_0, # of connection points: 6
#     Node 14, Type 0, BuildingBlock: IZENUY_clean_sbu_0, # of connection points: 6
#     Node 15, Type 0, BuildingBlock: IZENUY_clean_sbu_0, # of connection points: 6
#     Edge 16, Type (0, 0), BuildingBlock: EZIPEK_clean_linker_0, # of connection points: 2
#     Edge 17, Type (0, 0), BuildingBlock: EZIPEK_clean_linker_0, # of connection points: 2
#     Edge 18, Type (0, 0), BuildingBlock: EZIPEK_clean_linker_0, # of connection points: 2
#     Edge 19, Type (0, 0), BuildingBlock: EZIPEK_clean_linker_0, # of connection points: 2
#     Edge 20, Type (0, 0), BuildingBlock: EZIPEK_clean_linker_0, # of connection points: 2
#     Edge 21, Type (0, 0), BuildingBlock: EZIPEK_clean_linker_0, # of connection points: 2
#     Edge 22, Type (0, 0), BuildingBlock: EZIPEK_clean_linker_0, # of connection points: 2
#     Edge 23, Type (0, 0), BuildingBlock: EZIPEK_clean_linker_0, # of connection points: 2
#     Edge 24, Type (0, 0), BuildingBlock: EZIPEK_clean_linker_0, # of connection points: 2
#     Edge 25, Type (0, 0), BuildingBlock: EZIPEK_clean_linker_0, # of connection points: 2
#     Edge 26, Type (0, 0), BuildingBlock: EZIPEK_clean_linker_0, # of connection points: 2
#     Edge 27, Type (0, 0), BuildingBlock: EZIPEK_clean_linker_0, # of connection points: 2
#     Edge 28, Type (0, 0), BuildingBlock: EZIPEK_clean_linker_0, # of connection points: 2
#     Edge 29, Type (0, 0), BuildingBlock: EZIPEK_clean_linker_0, # of connection points: 2
#     Edge 30, Type (0, 0), BuildingBlock: EZIPEK_clean_linker_0, # of connection points: 2
#     Edge 31, Type (0, 0), BuildingBlock: EZIPEK_clean_linker_0, # of connection points: 2
#     Edge 32, Type (0, 0), BuildingBlock: EZIPEK_clean_linker_0, # of connection points: 2
#     Edge 33, Type (0, 0), BuildingBlock: EZIPEK_clean_linker_0, # of connection points: 2
#     Edge 34, Type (0, 0), BuildingBlock: EZIPEK_clean_linker_0, # of connection points: 2
#     Edge 35, Type (0, 0), BuildingBlock: EZIPEK_clean_linker_0, # of connection points: 2
#     Edge 36, Type (0, 0), BuildingBlock: EZIPEK_clean_linker_0, # of connection points: 2
#     Edge 37, Type (0, 0), BuildingBlock: EZIPEK_clean_linker_0, # of connection points: 2
#     Edge 38, Type (0, 0), BuildingBlock: EZIPEK_clean_linker_0, # of connection points: 2
#     Edge 39, Type (0, 0), BuildingBlock: EZIPEK_clean_linker_0, # of connection points: 2
#     Edge 40, Type (0, 0), BuildingBlock: EZIPEK_clean_linker_0, # of connection points: 2
#     Edge 41, Type (0, 0), BuildingBlock: EZIPEK_clean_linker_0, # of connection points: 2
#     Edge 42, Type (0, 0), BuildingBlock: EZIPEK_clean_linker_0, # of connection points: 2
#     Edge 43, Type (0, 0), BuildingBlock: EZIPEK_clean_linker_0, # of connection points: 2
#     Edge 44, Type (0, 0), BuildingBlock: EZIPEK_clean_linker_0, # of connection points: 2
#     Edge 45, Type (0, 0), BuildingBlock: EZIPEK_clean_linker_0, # of connection points: 2
#     Edge 46, Type (0, 0), BuildingBlock: EZIPEK_clean_linker_0, # of connection points: 2
#     Edge 47, Type (0, 0), BuildingBlock: EZIPEK_clean_linker_0, # of connection points: 2
#     Edge 48, Type (0, 0), BuildingBlock: EZIPEK_clean_linker_0, # of connection points: 2
#     Edge 49, Type (0, 0), BuildingBlock: EZIPEK_clean_linker_0, # of connection points: 2
#     Edge 50, Type (0, 0), BuildingBlock: EZIPEK_clean_linker_0, # of connection points: 2
#     Edge 51, Type (0, 0), BuildingBlock: EZIPEK_clean_linker_0, # of connection points: 2
#     Edge 52, Type (0, 0), BuildingBlock: EZIPEK_clean_linker_0, # of connection points: 2
#     Edge 53, Type (0, 0), BuildingBlock: EZIPEK_clean_linker_0, # of connection points: 2
#     Edge 54, Type (0, 0), BuildingBlock: EZIPEK_clean_linker_0, # of connection points: 2
#     Edge 55, Type (0, 0), BuildingBlock: EZIPEK_clean_linker_0, # of connection points: 2
#     Edge 56, Type (0, 0), BuildingBlock: EZIPEK_clean_linker_0, # of connection points: 2
#     Edge 57, Type (0, 0), BuildingBlock: EZIPEK_clean_linker_0, # of connection points: 2
#     Edge 58, Type (0, 0), BuildingBlock: EZIPEK_clean_linker_0, # of connection points: 2
#     Edge 59, Type (0, 0), BuildingBlock: EZIPEK_clean_linker_0, # of connection points: 2
#     Edge 60, Type (0, 0), BuildingBlock: EZIPEK_clean_linker_0, # of connection points: 2
#     Edge 61, Type (0, 0), BuildingBlock: EZIPEK_clean_linker_0, # of connection points: 2
#     Edge 62, Type (0, 0), BuildingBlock: EZIPEK_clean_linker_0, # of connection points: 2
#     Edge 63, Type (0, 0), BuildingBlock: EZIPEK_clean_linker_0, # of connection points: 2
# Relax obj value: 0.339
# Max RMSD: 0.260
# Mean RMSD: 0.260
data_MOF--net-whr--node1-IZENUY_clean_sbu_0--edge1-EZIPEK_clean_linker_0
_symmetry_space_group_name_H-M    P1
_symmetry_Int_Tables_number       1
_symmetry_cell_setting            triclinic
loop_
_symmetry_equiv_pos_as_xyz
'x, y, z'
_cell_length_a     35.533714
_cell_length_b     35.687088
_cell_length_c     20.820009
_cell_angle_alpha  89.797412
_cell_angle_beta   89.960317
_cell_angle_gamma 89.777664
loop_
_atom_site_label
_atom_site_type_symbol
_atom_site_fract_x
_atom_site_fract_y
_atom_site_fract_z
_atom_type_partial_charge
Fe0 Fe 0.19798 0.06561 0.12405 0.0
Fe1 Fe 0.26744 0.03688 0.05441 0.0
O2 O 0.23425 0.07326 0.06809 0.0
Fe3 Fe 0.23684 0.11739 0.02869 0.0
O4 O 0.18918 0.11397 0.99769 0.0
O5 O 0.16369 0.09892 0.08919 0.0
O6 O 0.1774 0.02976 0.07483 0.0
C7 C 0.19564 1.00108 0.05762 0.0
C8 C 0.21741 0.13474 0.16026 0.0
O9 O 0.23146 0.99932 0.06292 0.0
C10 C 0.31259 0.10415 0.04336 0.0
O11 O 0.22277 0.03068 0.17192 0.0
O12 O 0.28112 0.03409 0.1395 0.0
O13 O 0.22021 0.14466 0.10119 0.0
O14 O 0.21914 0.10058 0.17395 0.0
C15 C 0.25451 0.06254 0.93213 0.0
O16 O 0.30816 0.06879 0.03898 0.0
O17 O 0.28494 0.12546 0.05436 0.0
C18 C 0.25726 0.02556 0.18212 0.0
O19 O 0.25628 0.0357 0.97099 0.0
O20 O 0.2527 0.0965 0.95129 0.0
C21 C 0.16062 0.11217 0.03314 0.0
Fe22 Fe 0.04394 0.75878 0.95753 0.0
Fe23 Fe 0.12245 0.79208 0.98514 0.0
O24 O 0.07915 0.79327 0.94337 0.0
Fe25 Fe 0.07005 0.82954 0.88658 0.0
O26 O 0.03202 0.84742 0.93578 0.0
O27 O 1.00514 0.79293 0.94546 0.0
O28 O 0.04016 0.77032 0.04028 0.0
C29 C 0.06588 0.7738 0.08085 0.0
C30 C 0.03389 0.76716 0.82934 0.0
O31 O 0.10016 0.77814 0.06381 0.0
C32 C 0.1422 0.80961 0.85322 0.0
O33 O 0.07701 0.71957 0.9781 0.0
O34 O 0.13215 0.74445 0.96098 0.0
O35 O 0.0374 0.80206 0.83756 0.0
O36 O 0.0437 0.74446 0.87315 0.0
C37 C 0.1154 0.86793 0.97745 0.0
O38 O 0.15031 0.80645 0.9129 0.0
O39 O 0.10823 0.81354 0.83555 0.0
C40 C 0.11272 0.71672 0.9766 0.0
O41 O 0.11825 0.83973 1.01328 0.0
O42 O 0.10048 0.865 0.92284 0.0
C43 C 1.00508 0.82798 0.9569 0.0
Fe44 Fe 0.79045 0.90262 0.0337 0.0
Fe45 Fe 0.834 0.95146 0.12985 0.0
O46 O 0.7954 0.94502 0.07691 0.0
Fe47 Fe 0.76298 0.98243 0.06567 0.0
O48 O 0.77537 0.98605 0.98262 0.0
O49 O 0.77474 0.92614 0.95817 0.0
O50 O 0.8375 0.90525 1.00048 0.0
C51 C 0.86715 0.90574 0.03281 0.0
C52 C 0.71581 0.91767 0.04972 0.0
O53 O 0.86709 0.91966 0.08851 0.0
C54 C 0.77379 0.99008 0.19297 0.0
O55 O 0.80571 0.87305 0.10353 0.0
O56 O 0.81837 0.9136 0.18099 0.0
O57 O 0.72172 0.95264 0.04615 0.0
O58 O 0.74256 0.89542 0.06077 0.0
C59 C 0.8329 0.01899 0.06896 0.0
O60 O 0.80856 0.98412 0.18313 0.0
O61 O 0.74964 0.98232 0.1503 0.0
C62 C 0.81265 0.88037 0.16258 0.0
O63 O 0.85196 0.98978 0.08066 0.0
O64 O 0.79788 0.0193 0.07917 0.0
C65 C 0.77513 0.9606 0.94148 0.0
Fe66 Fe 0.95574 0.18788 0.89117 0.0
Fe67 Fe 0.98569 0.25909 0.95386 0.0
O68 O 0.94911 0.22553 0.94556 0.0
Fe69 Fe 0.90673 0.22876 0.99068 0.0
O70 O 0.91079 0.1812 0.02175 0.0
O71 O 0.92589 0.15438 0.93164 0.0
O72 O 0.99452 0.16969 0.93801 0.0
C73 C 0.02355 0.1884 0.95076 0.0
C74 C 0.88335 0.2097 0.86249 0.0
O75 O 0.02409 0.22389 0.94283 0.0
C76 C 0.91842 0.30404 0.97222 0.0
O77 O 0.98779 0.21279 0.83822 0.0
O78 O 0.98434 0.27126 0.86812 0.0
O79 O 0.87677 0.21367 0.92235 0.0
O80 O 0.91658 0.20412 0.84246 0.0
C81 C 0.96535 0.248 0.07976 0.0
O82 O 0.95403 0.29984 0.97144 0.0
O83 O 0.8971 0.27636 0.96552 0.0
C84 C 0.99223 0.24705 0.82596 0.0
O85 O 0.99058 0.24927 0.03765 0.0
O86 O 0.9307 0.2447 0.06492 0.0
C87 C 0.91247 0.15245 0.98711 0.0
Fe88 Fe 0.83872 0.06863 0.62547 0.0
Fe89 Fe 0.76772 0.03718 0.56419 0.0
O90 O 0.79957 0.07474 0.57391 0.0
Fe91 Fe 0.79349 0.11721 0.53091 0.0
O92 O 0.84004 0.11466 0.49505 0.0
O93 O 0.87033 0.10125 0.58338 0.0
O94 O 0.857 0.03113 0.57493 0.0
C95 C 0.83896 1.00115 0.5663 0.0
C96 C 0.81461 0.13885 0.65952 0.0
O97 O 0.80371 1.00066 0.57565 0.0
C98 C 0.71975 0.10205 0.55162 0.0
O99 O 0.81495 0.0351 0.67967 0.0
O100 O 0.75569 0.03668 0.64931 0.0
O101 O 0.80974 0.14648 0.59997 0.0
O102 O 0.82225 0.10573 0.67727 0.0
C103 C 0.77568 0.05961 0.43969 0.0
O104 O 0.72565 0.06702 0.54751 0.0
O105 O 0.7465 0.12417 0.56126 0.0
C106 C 0.78042 0.02905 0.69121 0.0
O107 O 0.77876 0.03409 0.48067 0.0
O108 O 0.77571 0.09401 0.45644 0.0
C109 C 0.87013 0.11353 0.5265 0.0
Fe110 Fe 0.07423 0.19441 0.39772 0.0
Fe111 Fe 0.04196 0.26621 0.45573 0.0
O112 O 0.07987 0.2339 0.44798 0.0
Fe113 Fe 0.12272 0.23972 0.49022 0.0
O114 O 0.12014 0.19357 0.5274 0.0
O115 O 0.1077 0.16358 0.43932 0.0
O116 O 0.0374 0.17649 0.44991 0.0
C117 C 1.00698 0.19408 0.45945 0.0
C118 C 0.14442 0.21699 0.36226 0.0
O119 O 1.0055 0.22935 0.44978 0.0
C120 C 0.10689 0.31342 0.46368 0.0
O121 O 0.03958 0.2161 0.344 0.0
O122 O 0.04045 0.27556 0.36957 0.0
O123 O 0.15188 0.22262 0.42156 0.0
O124 O 0.11094 0.21108 0.34435 0.0
C125 C 0.06604 0.25926 0.58112 0.0
O126 O 0.07167 0.30825 0.46644 0.0
O127 O 0.1293 0.28617 0.45873 0.0
C128 C 0.033 0.2499 0.33 0.0
O129 O 0.03993 0.25917 0.54046 0.0
O130 O 0.10041 0.25732 0.56473 0.0
C131 C 0.12031 0.16373 0.49583 0.0
Fe132 Fe 0.18859 0.95462 0.6141 0.0
Fe133 Fe 0.26455 0.98095 0.55313 0.0
O134 O 0.22863 0.94621 0.56397 0.0
Fe135 Fe 0.2325 0.90241 0.52233 0.0
O136 O 0.18253 0.89163 0.51793 0.0
O137 O 0.15481 0.94202 0.55256 0.0
O138 O 0.1815 1.00244 0.58765 0.0
C139 C 0.19858 0.02448 0.55043 0.0
C140 C 0.2122 0.87987 0.64507 0.0
O141 O 0.23104 0.01719 0.5287 0.0
C142 C 0.3094 0.91831 0.54592 0.0
O143 O 0.21612 0.96951 0.68265 0.0
O144 O 0.26355 0.99846 0.63583 0.0
O145 O 0.23554 0.87634 0.5988 0.0
O146 O 0.18967 0.9074 0.64849 0.0
C147 C 0.25073 0.95335 0.42733 0.0
O148 O 0.30279 0.94843 0.57593 0.0
O149 O 0.28356 0.9019 0.51628 0.0
C150 C 0.24344 0.99182 0.6846 0.0
O151 O 0.2709 0.97057 0.46771 0.0
O152 O 0.22921 0.92664 0.44433 0.0
C153 C 0.15335 0.91097 0.52503 0.0
Fe154 Fe 0.95046 0.83054 0.3992 0.0
Fe155 Fe 0.98411 0.75826 0.45411 0.0
O156 O 0.94615 0.79063 0.44936 0.0
Fe157 Fe 0.90452 0.78439 0.49506 0.0
O158 O 0.90902 0.82984 0.53311 0.0
O159 O 0.91877 0.86097 0.44471 0.0
O160 O 0.98892 0.84799 0.44691 0.0
C161 C 0.01906 0.82985 0.45526 0.0
C162 C 0.87935 0.80785 0.36939 0.0
O163 O 0.02088 0.79477 0.4443 0.0
C164 C 0.91814 0.71105 0.46911 0.0
O165 O 0.98302 0.80884 0.34252 0.0
O166 O 0.98285 0.74909 0.36706 0.0
O167 O 0.87302 0.80251 0.4293 0.0
O168 O 0.91228 0.81458 0.3498 0.0
C169 C 0.96438 0.76405 0.58151 0.0
O170 O 0.95372 0.7161 0.46941 0.0
O171 O 0.8961 0.73839 0.46297 0.0
C172 C 0.98947 0.77525 0.32712 0.0
O173 O 0.98937 0.76614 0.53896 0.0
O174 O 0.92955 0.76497 0.5666 0.0
C175 C 0.91031 0.86036 0.50333 0.0
Fe176 Fe 0.76147 0.53495 0.5528 0.0
Fe177 Fe 0.7328 0.61603 0.53058 0.0
O178 O 0.72908 0.57148 0.56856 0.0
Fe179 Fe 0.69293 0.56363 0.62448 0.0
O180 O 0.67197 0.52739 0.57604 0.0
O181 O 0.72581 0.49713 0.56282 0.0
O182 O 0.7481 0.53487 0.47007 0.0
C183 C 0.75117 0.56195 0.43204 0.0
C184 C 0.75318 0.52341 0.68055 0.0
O185 O 0.75044 0.5957 0.4529 0.0
C186 C 0.71209 0.63289 0.66197 0.0
O187 O 0.80239 0.56686 0.53638 0.0
O188 O 0.78052 0.623 0.55902 0.0
O189 O 0.7185 0.52904 0.67231 0.0
O190 O 0.7765 0.53156 0.63685 0.0
C191 C 0.65651 0.61112 0.53279 0.0
O192 O 0.71527 0.64304 0.60305 0.0
O193 O 0.71374 0.59866 0.67486 0.0
C194 C 0.80772 0.60195 0.54407 0.0
O195 O 0.68544 0.61346 0.49793 0.0
O196 O 0.65893 0.59678 0.58835 0.0
C197 C 0.68989 0.49822 0.56044 0.0
Fe198 Fe 0.53855 0.25335 0.48054 0.0
Fe199 Fe 0.61924 0.28354 0.49718 0.0
O200 O 0.57379 0.28638 0.46292 0.0
Fe201 Fe 0.56319 0.32262 0.40881 0.0
O202 O 0.52862 0.34207 0.46333 0.0
O203 O 0.50037 0.28801 0.47312 0.0
O204 O 0.53932 0.26632 0.56319 0.0
C205 C 0.56718 0.26571 0.59994 0.0
C206 C 0.52371 0.26271 0.35429 0.0
O207 O 0.60084 0.26634 0.57718 0.0
C208 C 0.63101 0.30523 0.36329 0.0
O209 O 0.57141 0.21338 0.49514 0.0
O210 O 0.62654 0.2363 0.46841 0.0
O211 O 0.52703 0.29733 0.36447 0.0
O212 O 0.53431 0.23921 0.39633 0.0
C213 C 0.61285 0.35935 0.49642 0.0
O214 O 0.64337 0.30137 0.42122 0.0
O215 O 0.59653 0.30222 0.35343 0.0
C216 C 0.60644 0.20895 0.48503 0.0
O217 O 0.61662 0.33048 0.53052 0.0
O218 O 0.59756 0.35675 0.44173 0.0
C219 C 0.50141 0.32288 0.48471 0.0
Fe220 Fe 0.26099 0.47982 0.57568 0.0
Fe221 Fe 0.29223 0.40155 0.54357 0.0
O222 O 0.29449 0.44337 0.58813 0.0
Fe223 Fe 0.33112 0.449 0.64488 0.0
O224 O 0.34998 0.48815 0.60049 0.0
O225 O 0.29564 0.51772 0.58985 0.0
O226 O 0.27341 0.48447 0.49268 0.0
C227 C 0.27338 0.45876 0.45185 0.0
C228 C 0.26957 0.48636 0.70423 0.0
O229 O 0.27547 0.42463 0.46841 0.0
C230 C 0.31239 0.3769 0.67132 0.0
O231 O 0.22134 0.44762 0.55428 0.0
O232 O 0.24528 0.39194 0.57199 0.0
O233 O 0.30436 0.48047 0.69654 0.0
O234 O 0.24632 0.47915 0.65996 0.0
C235 C 0.36768 0.40763 0.54683 0.0
O236 O 0.30893 0.37114 0.61114 0.0
O237 O 0.31423 0.40999 0.69245 0.0
C238 C 0.21768 0.41207 0.55698 0.0
O239 O 0.33912 0.40848 0.51176 0.0
O240 O 0.36536 0.41835 0.60441 0.0
C241 C 0.33152 0.51729 0.58603 0.0
Fe242 Fe 0.48006 0.75847 0.45933 0.0
Fe243 Fe 0.40189 0.72921 0.49925 0.0
O244 O 0.44357 0.72461 0.45391 0.0
Fe245 Fe 0.44926 0.68544 0.40262 0.0
O246 O 0.48856 0.66871 0.44986 0.0
O247 O 0.51831 0.72309 0.4484 0.0
O248 O 0.4864 0.75049 0.54382 0.0
C249 C 0.46129 0.75093 0.58621 0.0
C250 C 0.48589 0.74325 0.33235 0.0
O251 O 0.4267 0.74788 0.57137 0.0
C252 C 0.37721 0.7052 0.37379 0.0
O253 O 0.44794 0.79939 0.47703 0.0
O254 O 0.39192 0.77515 0.46704 0.0
O255 O 0.48103 0.70918 0.34677 0.0
O256 O 0.47761 0.76853 0.37274 0.0
C257 C 0.40733 0.65363 0.50497 0.0
O258 O 0.37101 0.71119 0.43347 0.0
O259 O 0.4103 0.70039 0.35322 0.0
C260 C 0.41215 0.80308 0.47755 0.0
O261 O 0.40773 0.68355 0.53608 0.0
O262 O 0.41838 0.65334 0.44739 0.0
C263 C 0.51801 0.68773 0.45836 0.0
Fe264 Fe 0.33444 0.5688 0.13396 0.0
Fe265 Fe 0.26112 0.53859 0.07796 0.0
O266 O 0.29523 0.57499 0.08158 0.0
Fe267 Fe 0.29094 0.61723 0.03648 0.0
O268 O 0.33862 0.61529 1.00541 0.0
O269 O 0.36678 0.60124 0.09459 0.0
O270 O 0.35265 0.53118 0.08556 0.0
C271 C 0.334 0.50174 0.07434 0.0
C272 C 0.30744 0.63849 0.16721 0.0
O273 O 0.29813 0.50127 0.0819 0.0
C274 C 0.21518 0.6041 0.06148 0.0
O275 O 0.31267 0.53473 0.18699 0.0
O276 O 0.25333 0.53927 0.16531 0.0
O277 O 0.30379 0.64682 0.10746 0.0
O278 O 0.31677 0.60571 0.18436 0.0
C279 C 0.26926 0.55891 0.94915 0.0
O280 O 0.21915 0.56907 0.06875 0.0
O281 O 0.24301 0.62551 0.05902 0.0
C282 C 0.27914 0.53102 0.20435 0.0
O283 O 0.26494 0.53476 0.99278 0.0
O284 O 0.27711 0.59298 0.96139 0.0
C285 C 0.36784 0.61461 0.03883 0.0
Fe286 Fe 0.56989 0.69479 0.90223 0.0
Fe287 Fe 0.54022 0.76718 0.96229 0.0
O288 O 0.57697 0.73368 0.95364 0.0
Fe289 Fe 0.6198 0.73738 0.99689 0.0
O290 O 0.61506 0.69102 0.03189 0.0
O291 O 0.60224 0.66218 0.94319 0.0
O292 O 0.53204 0.67781 0.95355 0.0
C293 C 0.50261 0.69691 0.96432 0.0
C294 C 0.64101 0.71516 0.86768 0.0
O295 O 0.50255 0.73205 0.95434 0.0
C296 C 0.60677 0.8119 0.97414 0.0
O297 O 0.5363 0.71847 0.84872 0.0
O298 O 0.53911 0.77764 0.87601 0.0
O299 O 0.64858 0.72031 0.92724 0.0
O300 O 0.60738 0.71043 0.84955 0.0
C301 C 0.56333 0.75688 0.0886 0.0
O302 O 0.57138 0.80775 0.97498 0.0
O303 O 0.62861 0.78428 0.9685 0.0
C304 C 0.53078 0.75262 0.83548 0.0
O305 O 0.53761 0.75894 0.04727 0.0
O306 O 0.59774 0.75429 0.0724 0.0
C307 C 0.61494 0.66156 0.9997 0.0
Fe308 Fe 0.69787 0.46187 0.12717 0.0
Fe309 Fe 0.76845 0.48467 0.05533 0.0
O310 O 0.73312 0.45105 0.07057 0.0
Fe311 Fe 0.7317 0.40673 0.03191 0.0
O312 O 0.6841 0.41429 1.00244 0.0
O313 O 0.66204 0.43016 0.09452 0.0
O314 O 0.67897 0.49824 0.0761 0.0
C315 C 0.6985 0.52501 0.05422 0.0
C316 C 0.71279 0.3921 0.16605 0.0
O317 O 0.7343 0.52421 0.06046 0.0
C318 C 0.8086 0.41452 0.04527 0.0
O319 O 0.72402 0.49646 0.17248 0.0
O320 O 0.78175 0.48838 0.14017 0.0
O321 O 0.71436 0.38165 0.10693 0.0
O322 O 0.7175 0.42607 0.17923 0.0
C323 C 0.75313 0.45868 0.9327 0.0
O324 O 0.80689 0.45013 0.04357 0.0
O325 O 0.77957 0.39491 0.05481 0.0
C326 C 0.75864 0.49999 0.18169 0.0
O327 O 0.75889 0.48492 0.9715 0.0
O328 O 0.74722 0.4253 0.95227 0.0
C329 C 0.65607 0.42035 0.03761 0.0
Fe330 Fe 0.49064 0.26179 0.97966 0.0
Fe331 Fe 0.40872 0.28653 1.00524 0.0
O332 O 0.4521 0.29231 0.96427 0.0
Fe333 Fe 0.45721 0.32979 0.90876 0.0
O334 O 0.49346 0.35095 0.95693 0.0
O335 O 0.52672 0.29922 0.97079 0.0
O336 O 0.49086 0.27338 0.06345 0.0
C337 C 0.46396 0.2694 0.10173 0.0
C338 C 0.50173 0.27188 0.85167 0.0
O339 O 0.43021 0.26914 0.08132 0.0
C340 C 0.38732 0.30639 0.87571 0.0
O341 O 0.46056 0.21928 0.99427 0.0
O342 O 0.40287 0.23943 0.976 0.0
O343 O 0.49244 0.30592 0.85818 0.0
O344 O 0.49476 0.2483 0.89549 0.0
C345 C 0.41086 0.36263 1.00484 0.0
O346 O 0.37968 0.30224 0.93523 0.0
O347 O 0.42101 0.31081 0.85784 0.0
C348 C 0.4254 0.21297 0.98728 0.0
O349 O 0.41106 0.33343 0.03888 0.0
O350 O 0.42312 0.36152 0.94781 0.0
C351 C 0.5236 0.3348 0.97285 0.0
C352 C 0.20315 0.20014 0.21058 0.0
C353 C 0.20264 0.16003 0.21293 0.0
C354 C 0.1833 0.16445 0.32484 0.0
C355 C 0.17429 0.20256 0.31828 0.0
N356 N 0.17346 0.25728 0.25059 0.0
N357 N 0.17116 0.10817 0.26864 0.0
C358 C 0.18353 0.22077 0.25961 0.0
C359 C 0.18704 0.14299 0.26917 0.0
N360 N 0.2225 0.2186 0.16369 0.0
N361 N 0.18584 0.14806 0.3836 0.0
H362 H 0.16381 0.09438 0.22646 0.0
H363 H 0.15892 0.09643 0.30961 0.0
H364 H 0.18675 0.16433 0.42477 0.0
H365 H 0.19249 0.11975 0.3896 0.0
H366 H 0.2253 0.24766 0.16307 0.0
H367 H 0.23919 0.20492 0.12995 0.0
H368 H 0.17618 0.27095 0.20651 0.0
H369 H 0.16065 0.27295 0.28688 0.0
C370 C 0.2045 0.83756 0.81185 0.0
C371 C 0.17213 0.81484 0.80199 0.0
C372 C 0.18045 0.82156 0.68483 0.0
C373 C 0.20722 0.85029 0.69531 0.0
N374 N 0.2469 0.88448 0.76744 0.0
N375 N 0.14136 0.77233 0.73048 0.0
C376 C 0.22048 0.85727 0.75846 0.0
C377 C 0.16403 0.80274 0.73857 0.0
N378 N 0.22069 0.83949 0.87119 0.0
N379 N 0.16883 0.81424 0.62363 0.0
H380 H 0.13117 0.75711 0.76966 0.0
H381 H 0.13594 0.75992 0.68631 0.0
H382 H 0.18185 0.82608 0.58353 0.0
H383 H 0.1458 0.79756 0.61251 0.0
H384 H 0.24554 0.8538 0.88048 0.0
H385 H 0.21232 0.82282 0.90961 0.0
H386 H 0.25414 0.89517 0.81219 0.0
H387 H 0.26049 0.89756 0.72902 0.0
C388 C 0.85753 0.79934 0.25695 0.0
C389 C 0.84874 0.8116 0.31963 0.0
C390 C 0.80111 0.85385 0.27311 0.0
C391 C 0.81853 0.84994 0.21187 0.0
N392 N 0.8633 0.81642 0.14535 0.0
N393 N 0.80271 0.84041 0.38796 0.0
C394 C 0.8459 0.82111 0.20313 0.0
C395 C 0.81721 0.83553 0.32804 0.0
N396 N 0.87767 0.767 0.2496 0.0
N397 N 0.76894 0.87473 0.27782 0.0
H398 H 0.8097 0.82243 0.42558 0.0
H399 H 0.7827 0.86059 0.39968 0.0
H400 H 0.75605 0.88651 0.23744 0.0
H401 H 0.75341 0.878 0.31979 0.0
H402 H 0.88262 0.75457 0.20516 0.0
H403 H 0.88616 0.75098 0.28917 0.0
H404 H 0.88647 0.79889 0.13869 0.0
H405 H 0.8562 0.83176 0.10485 0.0
C406 C 0.80598 0.15989 0.77433 0.0
C407 C 0.81691 0.16882 0.71041 0.0
C408 C 0.85639 0.21953 0.75143 0.0
C409 C 0.85195 0.20504 0.81462 0.0
N410 N 0.8071 0.17685 0.88727 0.0
N411 N 0.83329 0.22055 0.64156 0.0
C412 C 0.82156 0.18025 0.82677 0.0
C413 C 0.83617 0.20299 0.69955 0.0
N414 N 0.78079 0.13171 0.78436 0.0
N415 N 0.8798 0.24921 0.74157 0.0
H416 H 0.81441 0.21165 0.60663 0.0
H417 H 0.84517 0.24652 0.63149 0.0
H418 H 0.89203 0.26366 0.77974 0.0
H419 H 0.88792 0.25862 0.69626 0.0
H420 H 0.77506 0.12003 0.82916 0.0
H421 H 0.76586 0.11988 0.74643 0.0
H422 H 0.78375 0.16056 0.89845 0.0
H423 H 0.81543 0.1938 0.92516 0.0
C424 C 0.68032 0.66287 0.82894 0.0
C425 C 0.67056 0.70082 0.8225 0.0
C426 C 0.69786 0.69832 0.71329 0.0
C427 C 0.69803 0.65818 0.71578 0.0
N428 N 0.66839 0.6061 0.77385 0.0
N429 N 0.66783 0.75514 0.754 0.0
C430 C 0.68369 0.64117 0.77318 0.0
C431 C 0.67864 0.71883 0.76307 0.0
N432 N 0.68386 0.64676 0.88781 0.0
N433 N 0.71624 0.717 0.66553 0.0
H434 H 0.6554 0.77082 0.79064 0.0
H435 H 0.66957 0.76861 0.70958 0.0
H436 H 0.73274 0.70357 0.63126 0.0
H437 H 0.71858 0.7461 0.66467 0.0
H438 H 0.69132 0.61864 0.89365 0.0
H439 H 0.68476 0.66309 0.92901 0.0
H440 H 0.65695 0.5944 0.81552 0.0
H441 H 0.66042 0.59203 0.73228 0.0
C442 C 0.68811 0.31346 0.28839 0.0
C443 C 0.65264 0.32627 0.31188 0.0
C444 C 0.65945 0.38341 0.24598 0.0
C445 C 0.69269 0.36893 0.21625 0.0
N446 N 0.73731 0.3183 0.20675 0.0
N447 N 0.60041 0.37077 0.29492 0.0
C448 C 0.70649 0.33323 0.23657 0.0
C449 C 0.63704 0.35996 0.28499 0.0
N450 N 0.70415 0.28231 0.31525 0.0
N451 N 0.64869 0.42022 0.24015 0.0
H452 H 0.58177 0.36027 0.32843 0.0
H453 H 0.58713 0.39058 0.26562 0.0
H454 H 0.65958 0.44003 0.20909 0.0
H455 H 0.62918 0.43251 0.2712 0.0
H456 H 0.73154 0.27354 0.30562 0.0
H457 H 0.69063 0.2662 0.35015 0.0
H458 H 0.74668 0.29096 0.21409 0.0
H459 H 0.75243 0.33274 0.17163 0.0
C460 C 0.36627 0.30007 0.76182 0.0
C461 C 0.35739 0.31177 0.82513 0.0
C462 C 0.30424 0.34725 0.77951 0.0
C463 C 0.32117 0.34577 0.71803 0.0
N464 N 0.36723 0.31583 0.64912 0.0
N465 N 0.31322 0.34485 0.89429 0.0
C466 C 0.35136 0.32009 0.70824 0.0
C467 C 0.32448 0.33418 0.8344 0.0
N468 N 0.38884 0.26945 0.75329 0.0
N469 N 0.26834 0.36048 0.78484 0.0
H470 H 0.32442 0.3341 0.93649 0.0
H471 H 0.29282 0.36542 0.90191 0.0
H472 H 0.25299 0.36909 0.74458 0.0
H473 H 0.25292 0.35934 0.8274 0.0
H474 H 0.39419 0.25758 0.70853 0.0
H475 H 0.39837 0.25347 0.79216 0.0
H476 H 0.39278 0.30205 0.64184 0.0
H477 H 0.35537 0.3266 0.60751 0.0
C478 C 0.32632 0.70227 0.213 0.0
C479 C 0.30819 0.66727 0.22008 0.0
C480 C 0.32054 0.66796 0.33607 0.0
C481 C 0.34593 0.69832 0.32689 0.0
N482 N 0.3682 0.7487 0.25976 0.0
N483 N 0.27064 0.62984 0.29066 0.0
C484 C 0.34665 0.71729 0.2664 0.0
C485 C 0.29936 0.65474 0.28282 0.0
N486 N 0.32284 0.72153 0.15658 0.0
N487 N 0.31915 0.64927 0.39338 0.0
H488 H 0.25484 0.62044 0.25163 0.0
H489 H 0.2603 0.62159 0.33533 0.0
H490 H 0.33339 0.65789 0.43423 0.0
H491 H 0.30533 0.62383 0.39962 0.0
H492 H 0.33376 0.74814 0.14863 0.0
H493 H 0.30543 0.71233 0.11967 0.0
H494 H 0.37408 0.76148 0.21592 0.0
H495 H 0.38111 0.76156 0.29891 0.0
C496 C 0.15609 0.94485 0.08324 0.0
C497 C 0.17425 0.96779 0.03715 0.0
C498 C 0.15529 0.92516 0.95177 0.0
C499 C 0.13391 0.90371 0.99687 0.0
N500 N 0.10634 0.90033 0.10306 0.0
N501 N 0.18113 0.98596 0.9262 0.0
C502 C 0.13214 0.9156 0.06204 0.0
C503 C 0.17072 0.9599 0.97099 0.0
N504 N 0.16204 0.9506 0.14727 0.0
N505 N 0.16309 0.91186 0.89175 0.0
H506 H 0.19092 0.01242 0.93866 0.0
H507 H 0.17586 0.98294 0.87724 0.0
H508 H 0.15454 0.8859 0.87523 0.0
H509 H 0.18193 0.92494 0.86058 0.0
H510 H 0.15275 0.93214 0.18274 0.0
H511 H 0.17898 0.97207 0.16463 0.0
H512 H 0.10156 0.91041 0.14926 0.0
H513 H 0.08668 0.88056 0.08858 0.0
C514 C 0.90164 0.84768 0.99448 0.0
C515 C 0.90187 0.88665 1.00847 0.0
C516 C 0.97099 0.88654 0.99923 0.0
C517 C 0.97052 0.84749 0.98377 0.0
N518 N 0.93644 0.79019 1.00543 0.0
N519 N 0.93584 0.94472 1.01026 0.0
C520 C 0.93618 0.82768 0.99175 0.0
C521 C 0.93637 0.90645 1.00726 0.0
N522 N 0.86869 0.82915 0.98358 0.0
N523 N 1.00424 0.90386 1.01336 0.0
H524 H 0.91096 0.96015 1.01411 0.0
H525 H 0.95933 0.96137 1.00182 0.0
H526 H 0.02975 0.8897 0.01742 0.0
H527 H 1.00605 0.93109 0.03075 0.0
H528 H 0.86801 0.80193 0.96553 0.0
H529 H 0.84216 0.84129 0.98746 0.0
H530 H 0.91214 0.7752 0.01639 0.0
H531 H 0.96079 0.77565 0.0181 0.0
C532 C 0.90286 0.10039 0.06772 0.0
C533 C 0.89363 0.11726 1.00772 0.0
C534 C 0.84129 0.0737 0.99432 0.0
C535 C 0.852 0.05459 0.0513 0.0
N536 N 0.88736 0.05412 0.14994 0.0
N537 N 0.86099 0.11101 0.90513 0.0
C538 C 0.88155 0.06897 0.09006 0.0
C539 C 0.86523 0.1012 0.9683 0.0
N540 N 0.93345 0.11303 0.10104 0.0
N541 N 0.807 0.06785 0.96637 0.0
H542 H 0.87541 0.13216 0.88172 0.0
H543 H 0.84478 0.09537 0.87329 0.0
H544 H 0.78607 0.05142 0.98617 0.0
H545 H 0.79675 0.0841 0.92849 0.0
H546 H 0.94383 0.10078 0.14279 0.0
H547 H 0.95063 0.13458 0.08424 0.0
H548 H 0.90632 0.0646 0.18327 0.0
H549 H 0.8708 0.03273 0.16896 0.0
C550 C 0.06928 0.16939 0.03651 0.0
C551 C 0.05803 0.16794 0.97147 0.0
C552 C 0.10954 0.12355 0.95039 0.0
C553 C 0.12468 0.13067 1.01235 0.0
N554 N 0.12172 0.16833 0.10907 0.0
N555 N 0.0697 0.14611 0.86376 0.0
C556 C 0.10531 0.15578 0.05407 0.0
C557 C 0.07885 0.14575 0.92745 0.0
N558 N 0.04491 0.182 0.08236 0.0
N559 N 0.12294 0.09429 0.9149 0.0
H560 H 0.04721 0.1617 0.84549 0.0
H561 H 0.08628 0.1334 0.82868 0.0
H562 H 0.1438 0.0761 0.93172 0.0
H563 H 0.11056 0.08567 0.8721 0.0
H564 H 0.05086 0.18095 0.13137 0.0
H565 H 0.01698 0.18837 0.07194 0.0
H566 H 0.10985 0.18921 0.13764 0.0
H567 H 0.14904 0.16144 0.1218 0.0
C568 C 0.89628 0.95748 0.57499 0.0
C569 C 0.85875 0.9648 0.55338 0.0
C570 C 0.85355 0.89871 0.52461 0.0
C571 C 0.89267 0.89404 0.53137 0.0
N572 N 0.95286 0.92047 0.55826 0.0
N573 N 0.80662 0.942 0.48856 0.0
C574 C 0.91467 0.92401 0.55469 0.0
C575 C 0.83861 0.93528 0.52305 0.0
N576 N 0.91355 0.98045 0.61814 0.0
N577 N 0.83048 0.86847 0.51959 0.0
H578 H 0.79719 0.9688 0.47746 0.0
H579 H 0.79288 0.92109 0.46285 0.0
H580 H 0.84043 0.84104 0.52319 0.0
H581 H 0.80122 0.87106 0.51989 0.0
H582 H 0.93981 0.97432 0.63793 0.0
H583 H 0.89994 1.00248 0.64122 0.0
H584 H 0.97048 0.94291 0.56884 0.0
H585 H 0.96679 0.89562 0.54669 0.0
C586 C 0.93444 0.11459 0.47463 0.0
C587 C 0.90364 0.13395 0.50215 0.0
C588 C 0.94158 0.19067 0.50828 0.0
C589 C 0.97142 0.17294 0.47404 0.0
N590 N 0.98835 0.12065 0.4049 0.0
N591 N 0.87435 0.19395 0.52102 0.0
C592 C 0.96587 0.13547 0.45169 0.0
C593 C 0.90601 0.1731 0.51119 0.0
N594 N 0.93353 0.0765 0.46908 0.0
N595 N 0.94709 0.22321 0.54121 0.0
H596 H 0.84751 0.18247 0.51913 0.0
H597 H 0.87473 0.22317 0.52213 0.0
H598 H 0.97329 0.23554 0.54681 0.0
H599 H 0.92643 0.23502 0.57055 0.0
H600 H 0.95694 0.06076 0.45525 0.0
H601 H 0.91019 0.06064 0.48255 0.0
H602 H 0.98344 0.0945 0.38448 0.0
H603 H 1.00823 0.13622 0.37969 0.0
C604 C 0.12119 0.0944 0.5107 0.0
C605 C 0.13946 0.12917 0.52022 0.0
C606 C 0.19654 0.09522 0.55484 0.0
C607 C 0.1798 0.06088 0.53579 0.0
N608 N 0.12775 0.02856 0.48644 0.0
N609 N 0.19651 0.16284 0.5475 0.0
C610 C 0.14252 0.06072 0.51126 0.0
C611 C 0.17752 0.12972 0.54215 0.0
N612 N 0.08298 0.0935 0.50342 0.0
N613 N 0.23003 0.09499 0.58718 0.0
H614 H 0.1845 0.189 0.53927 0.0
H615 H 0.22547 0.16438 0.55452 0.0
H616 H 0.24545 0.07071 0.59656 0.0
H617 H 0.24097 0.11846 0.61004 0.0
H618 H 0.06752 0.06877 0.50222 0.0
H619 H 0.06629 0.11753 0.5064 0.0
H620 H 0.10233 0.0278 0.4616 0.0
H621 H 0.14254 1.00333 0.48487 0.0
C622 C 0.1109 0.88423 0.44114 0.0
C623 C 0.11676 0.89435 0.50627 0.0
C624 C 0.0578 0.86321 0.53672 0.0
C625 C 0.05329 0.85096 0.47261 0.0
N626 N 0.07683 0.84614 0.3643 0.0
N627 N 0.09412 0.89318 0.61697 0.0
C628 C 0.08022 0.86045 0.42485 0.0
C629 C 0.08987 0.88413 0.55392 0.0
N630 N 0.13384 0.8988 0.39462 0.0
N631 N 0.03183 0.85399 0.58263 0.0
H632 H 0.11652 0.90842 0.63556 0.0
H633 H 0.11652 0.90842 0.63556 0.0
H634 H 1.00796 0.83805 0.57312 0.0
H635 H 0.03421 0.86244 0.63041 0.0
H636 H 0.12927 0.89564 0.34559 0.0
H637 H 0.15573 0.91722 0.40493 0.0
H638 H 0.09753 0.8484 0.32913 0.0
H639 H 0.05425 0.82958 0.35019 0.0
C640 C 0.66938 0.44978 0.4818 0.0
C641 C 0.66852 0.46367 0.54511 0.0
C642 C 0.62778 0.41099 0.57691 0.0
C643 C 0.63269 0.39483 0.51503 0.0
N644 N 0.67048 0.39393 0.41861 0.0
N645 N 0.65087 0.45509 0.65613 0.0
C646 C 0.65666 0.413 0.46996 0.0
C647 C 0.64875 0.44364 0.5937 0.0
N648 N 0.6819 0.47176 0.43246 0.0
N649 N 0.6025 0.39591 0.61907 0.0
H650 H 0.66528 0.47909 0.67006 0.0
H651 H 0.64079 0.43931 0.69461 0.0
H652 H 0.58715 0.37182 0.60928 0.0
H653 H 0.59465 0.40886 0.66181 0.0
H654 H 0.68008 0.46372 0.38445 0.0
H655 H 0.68979 0.49957 0.43896 0.0
H656 H 0.69019 0.40504 0.38675 0.0
H657 H 0.66716 0.36525 0.41489 0.0
C658 C 0.39922 0.34935 0.50384 0.0
C659 C 0.40199 0.38694 0.52638 0.0
C660 C 0.47065 0.37942 0.53526 0.0
C661 C 0.46746 0.34258 0.51056 0.0
N662 N 0.42708 0.28817 0.51217 0.0
N663 N 0.44098 0.43927 0.55666 0.0
C664 C 0.43141 0.32607 0.50597 0.0
C665 C 0.43795 0.40231 0.54057 0.0
N666 N 0.36618 0.33485 0.4814 0.0
N667 N 0.5043 0.39089 0.55998 0.0
H668 H 0.4178 0.45683 0.56208 0.0
H669 H 0.46642 0.4535 0.55961 0.0
H670 H 0.52726 0.37282 0.56427 0.0
H671 H 0.50831 0.41611 0.58389 0.0
H672 H 0.36517 0.30936 0.45711 0.0
H673 H 0.34029 0.34835 0.482 0.0
H674 H 0.40084 0.27524 0.51387 0.0
H675 H 0.44853 0.27051 0.52812 0.0
C676 C 0.34026 0.58745 0.59407 0.0
C677 C 0.35256 0.55232 0.5699 0.0
C678 C 0.40657 0.584 0.5205 0.0
C679 C 0.38983 0.61933 0.53282 0.0
N680 N 0.33513 0.65355 0.57192 0.0
N681 N 0.39502 0.51905 0.49852 0.0
C682 C 0.35518 0.62092 0.5673 0.0
C683 C 0.38519 0.55103 0.53013 0.0
N684 N 0.31563 0.58913 0.64437 0.0
N685 N 0.44325 0.5817 0.50117 0.0
H686 H 0.37938 0.49458 0.50089 0.0
H687 H 0.41644 0.5181 0.4643 0.0
H688 H 0.46052 0.60513 0.49706 0.0
H689 H 0.45763 0.55629 0.49706 0.0
H690 H 0.30833 0.61421 0.66678 0.0
H691 H 0.30652 0.56537 0.66902 0.0
H692 H 0.30813 0.65462 0.59147 0.0
H693 H 0.34307 0.67855 0.55004 0.0
C694 C 0.56417 0.66667 0.54152 0.0
C695 C 0.5532 0.6678 0.47639 0.0
C696 C 0.60679 0.62704 0.44907 0.0
C697 C 0.6208 0.63057 0.51282 0.0
N698 N 0.61639 0.66369 0.61424 0.0
N699 N 0.56648 0.65299 0.36579 0.0
C700 C 0.60042 0.65302 0.55769 0.0
C701 C 0.5753 0.64922 0.42933 0.0
N702 N 0.53974 0.67785 0.58847 0.0
N703 N 0.62219 0.60124 0.4083 0.0
H704 H 0.54328 0.66838 0.34983 0.0
H705 H 0.58385 0.64344 0.32893 0.0
H706 H 0.64386 0.58308 0.42175 0.0
H707 H 0.61086 0.5951 0.36345 0.0
H708 H 0.54526 0.67432 0.6373 0.0
H709 H 0.51231 0.68655 0.57867 0.0
H710 H 0.60388 0.68279 0.64553 0.0
H711 H 0.64409 0.6577 0.62569 0.0
C712 C 0.3574 0.3973 0.06102 0.0
C713 C 0.39267 0.39785 0.02859 0.0
C714 C 0.38842 0.4664 0.02185 0.0
C715 C 0.35502 0.46613 0.06 0.0
N716 N 0.31742 0.43038 0.13552 0.0
N717 N 0.44684 0.4345 0.99825 0.0
C718 C 0.34228 0.43133 0.08545 0.0
C719 C 0.40973 0.43289 0.01513 0.0
N720 N 0.3372 0.36496 0.0666 0.0
N721 N 0.39946 0.49791 0.98958 0.0
H722 H 0.46408 0.41087 0.9971 0.0
H723 H 0.46146 0.45964 0.99367 0.0
H724 H 0.38466 0.52304 0.9902 0.0
H725 H 0.42133 0.49783 0.95618 0.0
H726 H 0.30978 0.36454 0.08444 0.0
H727 H 0.34574 0.33946 0.04731 0.0
H728 H 0.30987 0.40553 0.15858 0.0
H729 H 0.30855 0.4543 0.15984 0.0
C730 C 0.42183 0.6254 0.96164 0.0
C731 C 0.40157 0.63623 0.01743 0.0
C732 C 0.44252 0.69128 0.02939 0.0
C733 C 0.46629 0.67754 0.97955 0.0
N734 N 0.47579 0.63441 0.89167 0.0
N735 N 0.39339 0.67894 0.10621 0.0
C736 C 0.45514 0.64532 0.94388 0.0
C737 C 0.41206 0.66909 0.05141 0.0
N738 N 0.40861 0.59667 0.92472 0.0
N739 N 0.44841 0.72578 0.05592 0.0
H740 H 0.3715 0.66369 0.12536 0.0
H741 H 0.40062 0.70107 0.13596 0.0
H742 H 0.47213 0.74189 0.04866 0.0
H743 H 0.42826 0.74019 0.08252 0.0
H744 H 0.41947 0.58933 0.88011 0.0
H745 H 0.38491 0.58108 0.93685 0.0
H746 H 0.47326 0.60848 0.86951 0.0
H747 H 0.49582 0.65148 0.86984 0.0
C748 C 0.67351 0.62851 0.04093 0.0
C749 C 0.63489 0.62711 0.02289 0.0
C750 C 0.63956 0.55848 0.01462 0.0
C751 C 0.67824 0.5601 0.03271 0.0
N752 N 0.73376 0.59899 0.02593 0.0
N753 N 0.57916 0.59034 1.00755 0.0
C754 C 0.69591 0.59566 0.03604 0.0
C755 C 0.61742 0.59188 1.01379 0.0
N756 N 0.68962 0.66106 0.06141 0.0
N757 N 0.62495 0.52568 0.99191 0.0
H758 H 0.56215 0.61422 1.00955 0.0
H759 H 0.5639 0.5655 1.00761 0.0
H760 H 0.64125 0.5018 0.98415 0.0
H761 H 0.5981 0.52332 0.97246 0.0
H762 H 0.71645 0.66175 0.08162 0.0
H763 H 0.67565 0.68656 0.06484 0.0
H764 H 0.74737 0.62475 0.02304 0.0
H765 H 0.75033 0.57726 1.00817 0.0
C766 C 0.56333 0.36946 0.05216 0.0
C767 C 0.55662 0.35874 0.98775 0.0
C768 C 0.60971 0.39801 0.95241 0.0
C769 C 0.61773 0.40654 0.01775 0.0
N770 N 0.58759 0.4182 0.12007 0.0
N771 N 0.56599 0.37183 0.87507 0.0
C772 C 0.59038 0.39753 0.06519 0.0
C773 C 0.57766 0.37566 0.93724 0.0
N774 N 0.54346 0.35345 0.10118 0.0
N775 N 0.63181 0.41251 0.90477 0.0
H776 H 0.54257 0.35613 0.86228 0.0
H777 H 0.57769 0.38613 0.83634 0.0
H778 H 0.65005 0.43487 0.91249 0.0
H779 H 0.63171 0.40288 0.85763 0.0
H780 H 0.55039 0.35727 0.14937 0.0
H781 H 0.52188 0.33433 0.09364 0.0
H782 H 0.56647 0.41415 0.1541 0.0
H783 H 0.6018 0.44343 0.12609 0.0
C784 C 0.27912 1.00373 0.78691 0.0
C785 C 0.24967 0.01374 0.74451 0.0
C786 C 0.22829 0.06278 0.81964 0.0
C787 C 0.25723 0.05223 0.86288 0.0
N788 N 0.31579 0.01916 0.88116 0.0
N789 N 0.20074 0.05755 0.71449 0.0
C790 C 0.28446 0.02477 0.84421 0.0
C791 C 0.22578 0.04478 0.75907 0.0
N792 N 0.30095 0.97305 0.77379 0.0
N793 N 0.20158 0.08834 0.83762 0.0
H794 H 0.19598 0.04374 0.6719 0.0
H795 H 0.18678 0.08319 0.71728 0.0
H796 H 0.20348 0.10457 0.87872 0.0
H797 H 0.17643 0.09262 0.81304 0.0
H798 H 0.31969 0.96113 0.80645 0.0
H799 H 0.29857 0.95778 0.73135 0.0
H800 H 0.33859 1.00274 0.86707 0.0
H801 H 0.32067 0.03354 0.92376 0.0
C802 C 0.04247 0.74804 0.25627 0.0
C803 C 1.00891 0.76974 0.26364 0.0
C804 C 0.0229 0.80112 0.16148 0.0
C805 C 0.05272 0.77583 0.14898 0.0
N806 N 0.08601 0.71978 0.18045 0.0
N807 N 0.96242 0.80884 0.21111 0.0
C808 C 0.06129 0.74771 0.19532 0.0
C809 C 0.99777 0.79381 0.21246 0.0
N810 N 0.05749 0.72906 0.30722 0.0
N811 N 0.01834 0.83223 0.12397 0.0
H812 H 0.94222 0.80198 0.24519 0.0
H813 H 0.95195 0.82405 0.17213 0.0
H814 H 0.03677 0.83857 0.08659 0.0
H815 H 0.99893 0.85335 0.1344 0.0
H816 H 0.0838 0.71609 0.30532 0.0
H817 H 0.04548 0.72894 0.35279 0.0
H818 H 0.09055 0.69653 0.20991 0.0
H819 H 0.09933 0.71848 0.13604 0.0
C820 C 0.74453 1.00243 0.85811 0.0
C821 C 0.77049 0.97288 0.87324 0.0
C822 C 0.79037 0.97233 0.76086 0.0
C823 C 0.77084 1.00652 0.74952 0.0
N824 N 0.72806 0.05403 0.78721 0.0
N825 N 0.82184 0.93305 0.8385 0.0
C826 C 0.74711 0.02128 0.79783 0.0
C827 C 0.79414 0.95841 0.82435 0.0
N828 N 0.7168 0.01208 0.90064 0.0
N829 N 0.80408 0.95221 0.71044 0.0
H830 H 0.82642 0.92233 0.88428 0.0
H831 H 0.84259 0.92528 0.80568 0.0
H832 H 0.79807 0.95956 0.66333 0.0
H833 H 0.81611 0.92566 0.71527 0.0
H834 H 0.6948 0.03029 0.88931 0.0
H835 H 0.71331 0.99934 0.94526 0.0
H836 H 0.71488 0.06926 0.82346 0.0
H837 H 0.72697 0.06709 0.74244 0.0
C838 C 0.96363 0.2313 0.19808 0.0
C839 C 0.97765 0.25398 0.14745 0.0
C840 C 0.02612 0.27892 0.2202 0.0
C841 C 1.01081 0.25748 0.27095 0.0
N842 N 0.95676 0.22477 0.31272 0.0
N843 N 0.01504 0.30819 0.11728 0.0
C844 C 0.97686 0.23742 0.26129 0.0
C845 C 1.00659 0.28065 0.16069 0.0
N846 N 0.93971 0.20228 0.1861 0.0
N847 N 0.06015 0.2961 0.22736 0.0
H848 H 1.00092 0.31168 0.07386 0.0
H849 H 0.03327 0.33017 0.12754 0.0
H850 H 0.07509 0.29596 0.27046 0.0
H851 H 0.0748 0.30812 0.18916 0.0
H852 H 0.93231 0.1826 0.22097 0.0
H853 H 0.93031 0.1953 0.14046 0.0
H854 H 0.93038 0.21233 0.30856 0.0
H855 H 0.96409 0.23158 0.35949 0.0
C856 C 0.77957 0.04895 0.25699 0.0
C857 C 0.76349 0.01286 0.25017 0.0
C858 C 0.74363 0.01549 0.36244 0.0
C859 C 0.76762 0.0472 0.37255 0.0
N860 N 0.81237 0.09113 0.32748 0.0
N861 N 0.72937 0.96147 0.29637 0.0
C862 C 0.78633 0.06351 0.3192 0.0
C863 C 0.74479 0.99625 0.3027 0.0
N864 N 0.78725 0.06988 0.20378 0.0
N865 N 0.71919 1.00401 0.40924 0.0
H866 H 0.72763 0.94783 0.25226 0.0
H867 H 0.72004 0.9455 0.33517 0.0
H868 H 0.71645 0.01717 0.45351 0.0
H869 H 0.6987 0.9837 0.40179 0.0
H870 H 0.79695 0.09737 0.20576 0.0
H871 H 0.77808 0.06169 0.1586 0.0
H872 H 0.82958 0.10068 0.29035 0.0
H873 H 0.81953 0.10205 0.37205 0.0
C874 C 0.0272 0.22694 0.66074 0.0
C875 C 0.05407 0.25503 0.64885 0.0
C876 C 0.04251 0.27991 0.75709 0.0
C877 C 1.01067 0.25578 0.76311 0.0
N878 N 0.96739 0.2144 0.70867 0.0
N879 N 0.08646 0.31037 0.68411 0.0
C880 C 1.00142 0.23185 0.71107 0.0
C881 C 0.0616 0.28226 0.69657 0.0
N882 N 0.02623 0.1955 0.62351 0.0
N883 N 0.05594 0.2989 0.80901 0.0
H884 H 0.10235 0.31133 0.64202 0.0
H885 H 0.08982 0.33345 0.71404 0.0
H886 H 0.0437 0.29768 0.85434 0.0
H887 H 0.08124 0.31355 0.80824 0.0
H888 H 1.00857 0.17291 0.63334 0.0
H889 H 0.046 0.19046 0.5874 0.0
H890 H 0.95858 0.19848 0.66961 0.0
H891 H 0.9464 0.21987 0.74199 0.0
C892 C 0.23885 1.00557 0.35152 0.0
C893 C 0.25151 0.96834 0.36041 0.0
C894 C 0.27624 0.96935 0.24989 0.0
C895 C 0.26684 1.00806 0.24497 0.0
N896 N 0.25137 0.06494 0.30042 0.0
N897 N 0.28804 0.91624 0.32111 0.0
C898 C 0.25249 0.02677 0.29931 0.0
C899 C 0.27213 0.95054 0.3105 0.0
N900 N 0.21189 0.01996 0.39092 0.0
N901 N 0.28764 0.95033 0.19656 0.0
H902 H 0.28448 0.90163 0.36419 0.0
H903 H 0.30644 0.90353 0.28876 0.0
H904 H 0.29205 0.96366 0.15254 0.0
H905 H 0.29093 0.92132 0.19557 0.0
H906 H 0.19989 0.04639 0.38412 0.0
H907 H 0.1981 1.00296 0.42413 0.0
H908 H 0.24313 0.08002 0.34091 0.0
H909 H 0.26323 0.08095 0.26362 0.0
C910 C 0.97501 0.77101 0.7645 0.0
C911 C 1.0112 0.75498 0.77289 0.0
C912 C 1.00896 0.73336 0.66138 0.0
C913 C 0.97731 0.75741 0.64931 0.0
N914 N 0.93329 0.80324 0.69187 0.0
N915 N 0.06262 0.71922 0.72976 0.0
C916 C 0.96073 0.77695 0.70167 0.0
C917 C 0.02797 0.73518 0.72165 0.0
N918 N 0.95398 0.78008 0.81701 0.0
N919 N 0.02041 0.7081 0.61611 0.0
H920 H 0.07594 0.71797 0.77434 0.0
H921 H 0.07875 0.70882 0.69197 0.0
H922 H 1.00703 0.70475 0.57205 0.0
H923 H 0.04078 0.68765 0.62482 0.0
H924 H 0.92621 0.78945 0.81414 0.0
H925 H 0.96262 0.77287 0.86316 0.0
H926 H 0.92364 0.82093 0.72812 0.0
H927 H 0.92279 0.81032 0.64694 0.0
C928 C 0.74536 0.57074 0.31067 0.0
C929 C 0.76164 0.55203 0.36426 0.0
C930 C 0.78635 0.50292 0.29197 0.0
C931 C 0.76988 0.5216 0.23928 0.0
N932 N 0.74582 0.57908 0.19499 0.0
N933 N 0.80893 0.50698 0.40068 0.0
C934 C 0.7537 0.55766 0.24772 0.0
C935 C 0.78586 0.52034 0.35322 0.0
N936 N 0.71973 0.59891 0.31928 0.0
N937 N 0.80049 0.46752 0.28462 0.0
H938 H 0.81075 0.51869 0.4462 0.0
H939 H 0.82956 0.48669 0.39266 0.0
H940 H 0.80275 0.4545 0.24001 0.0
H941 H 0.80787 0.45031 0.32318 0.0
H942 H 0.70406 0.61042 0.28176 0.0
H943 H 0.71136 0.60858 0.36417 0.0
H944 H 0.73654 0.60677 0.19761 0.0
H945 H 0.75297 0.57028 0.14886 0.0
C946 C 0.57439 0.28076 0.71931 0.0
C947 C 0.5578 0.25923 0.66961 0.0
C948 C 0.50779 0.23917 0.74508 0.0
C949 C 0.5241 0.26124 0.79367 0.0
N950 N 0.58022 0.29027 0.83399 0.0
N951 N 0.51508 0.20838 0.6429 0.0
C952 C 0.55977 0.27797 0.78292 0.0
C953 C 0.52668 0.23524 0.68515 0.0
N954 N 0.60229 0.30579 0.7058 0.0
N955 N 0.47328 0.22337 0.75484 0.0
H956 H 0.52703 0.20424 0.59788 0.0
H957 H 0.49576 0.18762 0.65487 0.0
H958 H 0.45955 0.22396 0.79908 0.0
H959 H 0.45728 0.21161 0.71822 0.0
H960 H 0.61177 0.32544 0.73893 0.0
H961 H 0.61411 0.30905 0.66043 0.0
H962 H 0.6078 0.29982 0.83003 0.0
H963 H 0.57099 0.2867 0.88108 0.0
C964 C 0.24405 0.48601 0.28112 0.0
C965 C 0.27287 0.51295 0.26852 0.0
C966 C 0.30583 0.49132 0.36452 0.0
C967 C 0.27456 0.47023 0.38361 0.0
N968 N 0.21055 0.45151 0.3641 0.0
N969 N 0.32403 0.54886 0.31516 0.0
C970 C 0.24251 0.46867 0.34314 0.0
C971 C 0.30158 0.51794 0.31541 0.0
N972 N 0.21948 0.47535 0.23433 0.0
N973 N 0.33983 0.48584 0.39321 0.0
H974 H 0.31952 0.5713 0.28425 0.0
H975 H 0.34353 0.55421 0.35143 0.0
H976 H 0.34395 0.46458 0.42701 0.0
H977 H 0.36427 0.49899 0.37707 0.0
H978 H 0.20063 0.45333 0.24056 0.0
H979 H 0.22011 0.48559 0.18758 0.0
H980 H 0.18519 0.45272 0.33904 0.0
H981 H 0.20896 0.4385 0.40889 0.0
C982 C 0.4602 0.73462 0.705 0.0
C983 C 0.47351 0.75744 0.65401 0.0
C984 C 0.52197 0.78322 0.72614 0.0
C985 C 0.50771 0.76112 0.77715 0.0
N986 N 0.45379 0.72858 0.81972 0.0
N987 N 0.5087 0.8126 0.62352 0.0
C988 C 0.47376 0.74094 0.76798 0.0
C989 C 0.50179 0.7847 0.66696 0.0
N990 N 0.43648 0.70538 0.69368 0.0
N991 N 0.55547 0.8014 0.73283 0.0
H992 H 0.493 0.81589 0.58155 0.0
H993 H 0.52681 0.83483 0.63275 0.0
H994 H 0.57066 0.80139 0.77567 0.0
H995 H 0.56926 0.81433 0.69458 0.0
H996 H 0.42961 0.68563 0.72876 0.0
H997 H 0.42665 0.69845 0.64833 0.0
H998 H 0.42753 0.71587 0.81596 0.0
H999 H 0.46092 0.73628 0.86614 0.0
C1000 C 0.28617 0.50863 0.87288 0.0
C1001 C 0.26858 0.54387 0.88236 0.0
C1002 C 0.24455 0.54054 0.77157 0.0
C1003 C 0.25876 0.50328 0.76673 0.0
N1004 N 0.28118 0.44854 0.82208 0.0
N1005 N 0.22532 0.59101 0.84288 0.0
C1006 C 0.27517 0.48624 0.82103 0.0
C1007 C 0.24597 0.55932 0.83234 0.0
N1008 N 0.31492 0.49726 0.91177 0.0
N1009 N 0.23121 0.55847 0.71825 0.0
H1010 H 0.22601 0.60555 0.88617 0.0
H1011 H 0.20553 0.60122 0.81025 0.0
H1012 H 0.22884 0.54527 0.67387 0.0
H1013 H 0.22459 0.58694 0.71746 0.0
H1014 H 0.33034 0.47277 0.90395 0.0
H1015 H 0.32627 0.51502 0.94613 0.0
H1016 H 0.29124 0.43427 0.86241 0.0
H1017 H 0.2716 0.43167 0.78489 0.0
C1018 C 0.55889 0.77665 0.20647 0.0
C1019 C 0.55068 0.75113 0.15635 0.0
C1020 C 0.49788 0.7265 0.21799 0.0
C1021 C 0.50618 0.75072 0.27021 0.0
N1022 N 0.55184 0.79208 0.31932 0.0
N1023 N 0.52295 0.69232 0.12732 0.0
C1024 C 0.53866 0.77419 0.26603 0.0
C1025 C 0.52365 0.72289 0.16667 0.0
N1026 N 0.58618 0.80288 0.19754 0.0
N1027 N 0.46463 0.70752 0.21644 0.0
H1028 H 0.54253 0.68851 0.09051 0.0
H1029 H 0.50612 0.66898 0.13582 0.0
H1030 H 0.44273 0.71313 0.24827 0.0
H1031 H 0.4574 0.68925 0.17976 0.0
H1032 H 0.59027 0.82546 0.22829 0.0
H1033 H 0.60415 0.80232 0.15799 0.0
H1034 H 0.57741 0.8062 0.32047 0.0
H1035 H 0.53919 0.79023 0.36426 0.0
C1036 C 0.77022 0.45069 0.81233 0.0
C1037 C 0.75215 0.47042 0.86334 0.0
C1038 C 0.75148 0.52702 0.79725 0.0
C1039 C 0.76395 0.50686 0.7434 0.0
N1040 N 0.78114 0.44754 0.69684 0.0
N1041 N 0.71167 0.52271 0.8898 0.0
C1042 C 0.77242 0.46803 0.75004 0.0
C1043 C 0.73854 0.50723 0.85122 0.0
N1044 N 0.78556 0.41613 0.82276 0.0
N1045 N 0.75111 0.56522 0.79618 0.0
H1046 H 0.69835 0.50706 0.92544 0.0
H1047 H 0.6994 0.54875 0.88044 0.0
H1048 H 0.76258 0.58027 0.75785 0.0
H1049 H 0.74388 0.58118 0.83625 0.0
H1050 H 0.80252 0.40258 0.78918 0.0
H1051 H 0.78321 0.40186 0.86622 0.0
H1052 H 0.78338 0.41843 0.69727 0.0
H1053 H 0.78423 0.4598 0.65158 0.0
C1054 C 0.52149 0.23455 0.24426 0.0
C1055 C 0.50258 0.25189 0.29588 0.0
C1056 C 0.45461 0.27677 0.22225 0.0
C1057 C 0.47362 0.25974 0.16981 0.0
N1058 N 0.5177 0.21147 0.13571 0.0
N1059 N 0.44494 0.27744 0.33756 0.0
C1060 C 0.50465 0.23504 0.18236 0.0
C1061 C 0.46684 0.26871 0.28583 0.0
N1062 N 0.55653 0.21953 0.25328 0.0
N1063 N 0.42695 0.30281 0.21191 0.0
H1064 H 0.45313 0.27064 0.38426 0.0
H1065 H 0.41735 0.28717 0.33365 0.0
H1066 H 0.41797 0.31107 0.16645 0.0
H1067 H 0.41526 0.3189 0.24857 0.0
H1068 H 0.57388 0.21114 0.21557 0.0
H1069 H 0.56914 0.21746 0.29838 0.0
H1070 H 0.53766 0.19062 0.14446 0.0
H1071 H 0.50581 0.20972 0.09018 0.0
C1072 C 0.3901 0.15643 0.95013 0.0
C1073 C 0.40796 0.17534 1.00108 0.0
C1074 C 0.37236 0.13632 0.07886 0.0
C1075 C 0.34991 0.12237 0.02819 0.0
N1076 N 0.339 0.11719 0.91429 0.0
N1077 N 0.41951 0.18071 0.11442 0.0
C1078 C 0.35978 0.13134 0.96337 0.0
C1079 C 0.40055 0.16393 0.06561 0.0
N1080 N 0.40251 0.1626 0.88884 0.0
N1081 N 0.36666 0.12288 0.13964 0.0
H1082 H 0.44263 0.19756 0.10566 0.0
H1083 H 0.41254 0.17823 0.16278 0.0
H1084 H 0.34635 0.10267 0.14998 0.0
H1085 H 0.38361 0.12928 0.17878 0.0
H1086 H 0.39333 0.1477 0.84899 0.0
H1087 H 0.42486 0.18061 0.87879 0.0
H1088 H 0.34058 0.12636 0.86688 0.0
H1089 H 0.31927 0.09645 0.92177 0.0
C1090 C 0.15587 0.61781 0.99676 0.0
C1091 C 0.17768 0.62279 0.05342 0.0
C1092 C 0.15627 0.68746 0.06042 0.0
C1093 C 0.13302 0.68319 1.00469 0.0
N1094 N 0.10564 0.6411 0.92738 0.0
N1095 N 0.18515 0.65641 0.15162 0.0
C1096 C 0.13066 0.64707 0.97596 0.0
C1097 C 0.17233 0.6554 0.08987 0.0
N1098 N 0.1609 0.5863 0.96078 0.0
N1099 N 0.1659 0.72193 0.08332 0.0
H1100 H 0.19767 0.63301 0.17324 0.0
H1101 H 0.17958 0.67869 0.18253 0.0
H1102 H 0.1585 0.74704 0.06179 0.0
H1103 H 0.18544 0.72556 0.1201 0.0
H1104 H 0.1496 0.58292 0.91504 0.0
H1105 H 0.17783 0.56405 0.97587 0.0
H1106 H 0.10018 0.61468 0.90854 0.0
H1107 H 0.08849 0.66228 0.90878 0.0
C1108 C 0.65202 0.88837 0.07096 0.0
C1109 C 0.67941 0.90122 0.02683 0.0
C1110 C 0.6506 0.86327 0.94172 0.0
C1111 C 0.62436 0.84904 0.98646 0.0
N1112 N 0.59068 0.85999 0.08541 0.0
N1113 N 0.69328 0.91331 0.91552 0.0
C1114 C 0.62185 0.86557 0.04845 0.0
C1115 C 0.67514 0.89251 0.9606 0.0
N1116 N 0.65547 0.89682 0.13456 0.0
N1117 N 0.65237 0.84852 0.88131 0.0
H1118 H 0.70701 0.93761 0.92831 0.0
H1119 H 0.68971 0.91003 0.86621 0.0
H1120 H 0.63277 0.82917 0.86448 0.0
H1121 H 0.6741 0.85431 0.84919 0.0
H1122 H 0.63883 0.88467 0.17017 0.0
H1123 H 0.67638 0.91465 0.15172 0.0
H1124 H 0.58589 0.87432 0.12817 0.0
H1125 H 0.56795 0.84395 0.07033 0.0
C1126 C 0.85915 0.39421 0.96598 0.0
C1127 C 0.8447 0.39428 0.02998 0.0
C1128 C 0.8916 0.34626 0.05825 0.0
C1129 C 0.90003 0.34037 0.99216 0.0
N1130 N 0.8911 0.35881 0.8822 0.0
N1131 N 0.84761 0.36999 0.13778 0.0
C1132 C 0.8839 0.36471 0.9458 0.0
C1133 C 0.86123 0.37026 0.07637 0.0
N1134 N 0.8495 0.42228 0.92444 0.0
N1135 N 0.91346 0.32971 0.10392 0.0
H1136 H 0.82733 0.38901 0.15384 0.0
H1137 H 0.85506 0.34978 0.17173 0.0
H1138 H 0.93755 0.31506 0.09146 0.0
H1139 H 0.91084 0.33472 0.15297 0.0
H1140 H 0.86187 0.42562 0.87943 0.0
H1141 H 0.83182 0.44435 0.93712 0.0
H1142 H 0.87661 0.37243 0.84537 0.0
H1143 H 0.91034 0.33865 0.86645 0.0
C1144 C 0.67087 0.12347 0.47103 0.0
C1145 C 0.68228 0.1192 0.53627 0.0
C1146 C 0.63263 0.16338 0.56795 0.0
C1147 C 0.6263 0.17302 0.50219 0.0
N1148 N 0.63908 0.16171 0.3906 0.0
N1149 N 0.67391 0.13478 0.64742 0.0
C1150 C 0.64507 0.15253 0.45359 0.0
C1151 C 0.66271 0.13874 0.58492 0.0
N1152 N 0.68464 0.09967 0.42569 0.0
N1153 N 0.60987 0.17767 0.61444 0.0
H1154 H 0.69408 0.11511 0.66174 0.0
H1155 H 0.66468 0.15202 0.6845 0.0
H1156 H 0.58756 0.1951 0.60358 0.0
H1157 H 0.61048 0.16925 0.66235 0.0
H1158 H 0.67538 0.09898 0.37829 0.0
H1159 H 0.70253 0.07779 0.43752 0.0
H1160 H 0.6554 0.15157 0.35287 0.0
H1161 H 0.61861 0.18104 0.37625 0.0
C1162 C 0.11816 0.37268 0.52941 0.0
C1163 C 0.12449 0.35107 0.47298 0.0
C1164 C 0.18943 0.37134 0.46937 0.0
C1165 C 0.18449 0.39302 0.5266 0.0
N1166 N 0.14128 0.42079 0.60229 0.0
N1167 N 0.15903 0.34623 0.37488 0.0
C1168 C 0.14769 0.39627 0.55324 0.0
C1169 C 0.1575 0.35714 0.43758 0.0
N1170 N 0.08487 0.36957 0.56158 0.0
N1171 N 0.22421 0.3612 0.44731 0.0
H1172 H 0.1356 0.33485 0.35184 0.0
H1173 H 0.18179 0.3523 0.34498 0.0
H1174 H 0.24896 0.36496 0.47257 0.0
H1175 H 0.22804 0.34353 0.40806 0.0
H1176 H 0.08015 0.38074 0.60701 0.0
H1177 H 0.0619 0.35517 0.54312 0.0
H1178 H 0.11456 0.42706 0.61984 0.0
H1179 H 0.16259 0.43679 0.6228 0.0
C1180 C 0.3708 0.83676 0.56059 0.0
C1181 C 0.39279 0.83807 0.50256 0.0
C1182 C 0.36823 0.90207 0.4841 0.0
C1183 C 0.34729 0.90011 0.54225 0.0
N1184 N 0.34029 0.87211 0.64573 0.0
N1185 N 0.4177 0.87592 0.4164 0.0
C1186 C 0.35348 0.86993 0.58426 0.0
C1187 C 0.39371 0.8723 0.46725 0.0
N1188 N 0.36299 0.80361 0.59058 0.0
N1189 N 0.36209 0.93152 0.44344 0.0
H1190 H 0.43531 0.85424 0.40121 0.0
H1191 H 0.42199 0.90113 0.3922 0.0
H1192 H 0.34526 0.95429 0.45655 0.0
H1193 H 0.3724 0.93272 0.39666 0.0
H1194 H 0.3449 0.80148 0.62982 0.0
H1195 H 0.36922 0.77765 0.5715 0.0
H1196 H 0.34656 0.85216 0.68087 0.0
H1197 H 0.32668 0.8961 0.66276 0.0
C1198 C 0.87897 0.65475 0.43955 0.0
C1199 C 0.90024 0.67405 0.48626 0.0
C1200 C 0.866 0.63976 0.57185 0.0
C1201 C 0.84438 0.62068 0.52509 0.0
N1202 N 0.83956 0.60184 0.41428 0.0
N1203 N 0.92173 0.67618 0.5957 0.0
C1204 C 0.85393 0.62553 0.45889 0.0
C1205 C 0.89626 0.6636 0.55207 0.0
N1206 N 0.88183 0.66517 0.37651 0.0
N1207 N 0.85705 0.63579 0.63533 0.0
H1208 H 0.94495 0.69167 0.58163 0.0
H1209 H 0.92245 0.66767 0.64356 0.0
H1210 H 0.83675 0.61689 0.6515 0.0
H1211 H 0.86834 0.65241 0.67146 0.0
H1212 H 0.86351 0.65597 0.34092 0.0
H1213 H 0.90156 0.68469 0.36046 0.0
H1214 H 0.8475 0.60175 0.36613 0.0
H1215 H 0.82334 0.57918 0.42752 0.0
loop_
_geom_bond_atom_site_label_1
_geom_bond_atom_site_label_2
_geom_bond_distance
_geom_bond_site_symmetry_2
_ccdc_geom_bond_type
Fe0 O2 1.918 . S
Fe0 O5 1.997 . S
Fe0 O6 2.002 1_545 S
Fe0 O11 1.976 . S
Fe0 O14 1.996 . S
Fe1 O2 1.918 . S
Fe1 O9 1.997 1_545 S
Fe1 O12 1.996 . S
Fe1 O16 1.976 . S
Fe1 O19 2.002 1_554 S
O2 Fe0 1.918 . S
O2 Fe1 1.918 . S
O2 Fe3 1.918 . S
Fe3 O2 1.918 . S
Fe3 O4 2.002 1_554 S
Fe3 O13 1.976 . S
Fe3 O17 1.996 . S
Fe3 O20 1.997 1_554 S
O4 Fe3 2.002 1_556 S
O4 C21 1.295 1_556 S
O5 Fe0 1.997 . S
O5 C21 1.235 . S
O6 Fe0 2.002 1_565 S
O6 C7 1.295 . S
C7 O6 1.295 . S
C7 O9 1.235 . S
C8 O13 1.287 . S
C8 O14 1.255 . S
O9 Fe1 1.997 1_565 S
O9 C7 1.235 . S
C10 O16 1.287 . S
C10 O17 1.255 . S
O11 Fe0 1.976 . S
O11 C18 1.287 . S
O12 Fe1 1.996 . S
O12 C18 1.255 . S
O13 Fe3 1.976 . S
O13 C8 1.287 . S
O14 Fe0 1.996 . S
O14 C8 1.255 . S
C15 O19 1.295 . S
C15 O20 1.235 . S
O16 Fe1 1.976 . S
O16 C10 1.287 . S
O17 Fe3 1.996 . S
O17 C10 1.255 . S
C18 O11 1.287 . S
C18 O12 1.255 . S
O19 Fe1 2.002 1_556 S
O19 C15 1.295 . S
O20 Fe3 1.997 1_556 S
O20 C15 1.235 . S
C21 O4 1.295 1_554 S
C21 O5 1.235 . S
Fe22 O24 1.918 . S
Fe22 O27 1.997 1_455 S
Fe22 O28 2.002 1_556 S
Fe22 O33 1.976 . S
Fe22 O36 1.996 . S
Fe23 O24 1.918 . S
Fe23 O31 1.997 1_556 S
Fe23 O34 1.996 . S
Fe23 O38 1.976 . S
Fe23 O41 2.002 1_556 S
O24 Fe22 1.918 . S
O24 Fe23 1.918 . S
O24 Fe25 1.918 . S
Fe25 O24 1.918 . S
Fe25 O26 2.002 1_455 S
Fe25 O35 1.976 . S
Fe25 O39 1.996 . S
Fe25 O42 1.997 . S
O26 Fe25 2.002 1_655 S
O26 C43 1.295 . S
O27 Fe22 1.997 1_655 S
O27 C43 1.235 . S
O28 Fe22 2.002 1_554 S
O28 C29 1.295 . S
C29 O28 1.295 . S
C29 O31 1.235 . S
C30 O35 1.287 . S
C30 O36 1.255 . S
O31 Fe23 1.997 1_554 S
O31 C29 1.235 . S
C32 O38 1.287 . S
C32 O39 1.255 . S
O33 Fe22 1.976 . S
O33 C40 1.287 . S
O34 Fe23 1.996 . S
O34 C40 1.255 . S
O35 Fe25 1.976 . S
O35 C30 1.287 . S
O36 Fe22 1.996 . S
O36 C30 1.255 . S
C37 O41 1.295 1_556 S
C37 O42 1.235 . S
O38 Fe23 1.976 . S
O38 C32 1.287 . S
O39 Fe25 1.996 . S
O39 C32 1.255 . S
C40 O33 1.287 . S
C40 O34 1.255 . S
O41 Fe23 2.002 1_554 S
O41 C37 1.295 1_554 S
O42 Fe25 1.997 . S
O42 C37 1.235 . S
C43 O26 1.295 . S
C43 O27 1.235 . S
Fe44 O46 1.918 . S
Fe44 O49 1.997 1_554 S
Fe44 O50 2.002 1_554 S
Fe44 O55 1.976 . S
Fe44 O58 1.996 . S
Fe45 O46 1.918 . S
Fe45 O53 1.997 . S
Fe45 O56 1.996 . S
Fe45 O60 1.976 . S
Fe45 O63 2.002 1_565 S
O46 Fe44 1.918 . S
O46 Fe45 1.918 . S
O46 Fe47 1.918 . S
Fe47 O46 1.918 . S
Fe47 O48 2.002 1_554 S
Fe47 O57 1.976 . S
Fe47 O61 1.996 . S
Fe47 O64 1.997 1_565 S
O48 Fe47 2.002 1_556 S
O48 C65 1.295 . S
O49 Fe44 1.997 1_556 S
O49 C65 1.235 . S
O50 Fe44 2.002 1_556 S
O50 C51 1.295 1_556 S
C51 O50 1.295 1_554 S
C51 O53 1.235 . S
C52 O57 1.287 . S
C52 O58 1.255 . S
O53 Fe45 1.997 . S
O53 C51 1.235 . S
C54 O60 1.287 . S
C54 O61 1.255 . S
O55 Fe44 1.976 . S
O55 C62 1.287 . S
O56 Fe45 1.996 . S
O56 C62 1.255 . S
O57 Fe47 1.976 . S
O57 C52 1.287 . S
O58 Fe44 1.996 . S
O58 C52 1.255 . S
C59 O63 1.295 . S
C59 O64 1.235 . S
O60 Fe45 1.976 . S
O60 C54 1.287 . S
O61 Fe47 1.996 . S
O61 C54 1.255 . S
C62 O55 1.287 . S
C62 O56 1.255 . S
O63 Fe45 2.002 1_545 S
O63 C59 1.295 . S
O64 Fe47 1.997 1_545 S
O64 C59 1.235 . S
C65 O48 1.295 . S
C65 O49 1.235 . S
Fe66 O68 1.918 . S
Fe66 O71 1.997 . S
Fe66 O72 2.002 1_655 S
Fe66 O77 1.976 . S
Fe66 O80 1.996 . S
Fe67 O68 1.918 . S
Fe67 O75 1.997 1_655 S
Fe67 O78 1.996 . S
Fe67 O82 1.976 . S
Fe67 O85 2.002 1_556 S
O68 Fe66 1.918 . S
O68 Fe67 1.918 . S
O68 Fe69 1.918 . S
Fe69 O68 1.918 . S
Fe69 O70 2.002 1_556 S
Fe69 O79 1.976 . S
Fe69 O83 1.996 . S
Fe69 O86 1.997 1_556 S
O70 Fe69 2.002 1_554 S
O70 C87 1.295 1_554 S
O71 Fe66 1.997 . S
O71 C87 1.235 . S
O72 Fe66 2.002 1_455 S
O72 C73 1.295 . S
C73 O72 1.295 . S
C73 O75 1.235 . S
C74 O79 1.287 . S
C74 O80 1.255 . S
O75 Fe67 1.997 1_455 S
O75 C73 1.235 . S
C76 O82 1.287 . S
C76 O83 1.255 . S
O77 Fe66 1.976 . S
O77 C84 1.287 . S
O78 Fe67 1.996 . S
O78 C84 1.255 . S
O79 Fe69 1.976 . S
O79 C74 1.287 . S
O80 Fe66 1.996 . S
O80 C74 1.255 . S
C81 O85 1.295 . S
C81 O86 1.235 . S
O82 Fe67 1.976 . S
O82 C76 1.287 . S
O83 Fe69 1.996 . S
O83 C76 1.255 . S
C84 O77 1.287 . S
C84 O78 1.255 . S
O85 Fe67 2.002 1_554 S
O85 C81 1.295 . S
O86 Fe69 1.997 1_554 S
O86 C81 1.235 . S
C87 O70 1.295 1_556 S
C87 O71 1.235 . S
Fe88 O90 1.918 . S
Fe88 O93 1.997 . S
Fe88 O94 2.002 1_545 S
Fe88 O99 1.976 . S
Fe88 O102 1.996 . S
Fe89 O90 1.918 . S
Fe89 O97 1.997 1_545 S
Fe89 O100 1.996 . S
Fe89 O104 1.976 . S
Fe89 O107 2.002 . S
O90 Fe88 1.918 . S
O90 Fe89 1.918 . S
O90 Fe91 1.918 . S
Fe91 O90 1.918 . S
Fe91 O92 2.002 . S
Fe91 O101 1.976 . S
Fe91 O105 1.996 . S
Fe91 O108 1.997 . S
O92 Fe91 2.002 . S
O92 C109 1.295 . S
O93 Fe88 1.997 . S
O93 C109 1.235 . S
O94 Fe88 2.002 1_565 S
O94 C95 1.295 . S
C95 O94 1.295 . S
C95 O97 1.235 . S
C96 O101 1.287 . S
C96 O102 1.255 . S
O97 Fe89 1.997 1_565 S
O97 C95 1.235 . S
C98 O104 1.287 . S
C98 O105 1.255 . S
O99 Fe88 1.976 . S
O99 C106 1.287 . S
O100 Fe89 1.996 . S
O100 C106 1.255 . S
O101 Fe91 1.976 . S
O101 C96 1.287 . S
O102 Fe88 1.996 . S
O102 C96 1.255 . S
C103 O107 1.295 . S
C103 O108 1.235 . S
O104 Fe89 1.976 . S
O104 C98 1.287 . S
O105 Fe91 1.996 . S
O105 C98 1.255 . S
C106 O99 1.287 . S
C106 O100 1.255 . S
O107 Fe89 2.002 . S
O107 C103 1.295 . S
O108 Fe91 1.997 . S
O108 C103 1.235 . S
C109 O92 1.295 . S
C109 O93 1.235 . S
Fe110 O112 1.918 . S
Fe110 O115 1.997 . S
Fe110 O116 2.002 1_455 S
Fe110 O121 1.976 . S
Fe110 O124 1.996 . S
Fe111 O112 1.918 . S
Fe111 O119 1.997 1_455 S
Fe111 O122 1.996 . S
Fe111 O126 1.976 . S
Fe111 O129 2.002 . S
O112 Fe110 1.918 . S
O112 Fe111 1.918 . S
O112 Fe113 1.918 . S
Fe113 O112 1.918 . S
Fe113 O114 2.002 . S
Fe113 O123 1.976 . S
Fe113 O127 1.996 . S
Fe113 O130 1.997 . S
O114 Fe113 2.002 . S
O114 C131 1.295 . S
O115 Fe110 1.997 . S
O115 C131 1.235 . S
O116 Fe110 2.002 1_655 S
O116 C117 1.295 . S
C117 O116 1.295 . S
C117 O119 1.235 . S
C118 O123 1.287 . S
C118 O124 1.255 . S
O119 Fe111 1.997 1_655 S
O119 C117 1.235 . S
C120 O126 1.287 . S
C120 O127 1.255 . S
O121 Fe110 1.976 . S
O121 C128 1.287 . S
O122 Fe111 1.996 . S
O122 C128 1.255 . S
O123 Fe113 1.976 . S
O123 C118 1.287 . S
O124 Fe110 1.996 . S
O124 C118 1.255 . S
C125 O129 1.295 . S
C125 O130 1.235 . S
O126 Fe111 1.976 . S
O126 C120 1.287 . S
O127 Fe113 1.996 . S
O127 C120 1.255 . S
C128 O121 1.287 . S
C128 O122 1.255 . S
O129 Fe111 2.002 . S
O129 C125 1.295 . S
O130 Fe113 1.997 . S
O130 C125 1.235 . S
C131 O114 1.295 . S
C131 O115 1.235 . S
Fe132 O134 1.918 . S
Fe132 O137 1.997 . S
Fe132 O138 2.002 1_565 S
Fe132 O143 1.976 . S
Fe132 O146 1.996 . S
Fe133 O134 1.918 . S
Fe133 O141 1.997 1_565 S
Fe133 O144 1.996 . S
Fe133 O148 1.976 . S
Fe133 O151 2.002 . S
O134 Fe132 1.918 . S
O134 Fe133 1.918 . S
O134 Fe135 1.918 . S
Fe135 O134 1.918 . S
Fe135 O136 2.002 . S
Fe135 O145 1.976 . S
Fe135 O149 1.996 . S
Fe135 O152 1.997 . S
O136 Fe135 2.002 . S
O136 C153 1.295 . S
O137 Fe132 1.997 . S
O137 C153 1.235 . S
O138 Fe132 2.002 1_545 S
O138 C139 1.295 . S
C139 O138 1.295 . S
C139 O141 1.235 . S
C140 O145 1.287 . S
C140 O146 1.255 . S
O141 Fe133 1.997 1_545 S
O141 C139 1.235 . S
C142 O148 1.287 . S
C142 O149 1.255 . S
O143 Fe132 1.976 . S
O143 C150 1.287 . S
O144 Fe133 1.996 . S
O144 C150 1.255 . S
O145 Fe135 1.976 . S
O145 C140 1.287 . S
O146 Fe132 1.996 . S
O146 C140 1.255 . S
C147 O151 1.295 . S
C147 O152 1.235 . S
O148 Fe133 1.976 . S
O148 C142 1.287 . S
O149 Fe135 1.996 . S
O149 C142 1.255 . S
C150 O143 1.287 . S
C150 O144 1.255 . S
O151 Fe133 2.002 . S
O151 C147 1.295 . S
O152 Fe135 1.997 . S
O152 C147 1.235 . S
C153 O136 1.295 . S
C153 O137 1.235 . S
Fe154 O156 1.918 . S
Fe154 O159 1.997 . S
Fe154 O160 2.002 1_655 S
Fe154 O165 1.976 . S
Fe154 O168 1.996 . S
Fe155 O156 1.918 . S
Fe155 O163 1.997 1_655 S
Fe155 O166 1.996 . S
Fe155 O170 1.976 . S
Fe155 O173 2.002 . S
O156 Fe154 1.918 . S
O156 Fe155 1.918 . S
O156 Fe157 1.918 . S
Fe157 O156 1.918 . S
Fe157 O158 2.002 . S
Fe157 O167 1.976 . S
Fe157 O171 1.996 . S
Fe157 O174 1.997 . S
O158 Fe157 2.002 . S
O158 C175 1.295 . S
O159 Fe154 1.997 . S
O159 C175 1.235 . S
O160 Fe154 2.002 1_455 S
O160 C161 1.295 . S
C161 O160 1.295 . S
C161 O163 1.235 . S
C162 O167 1.287 . S
C162 O168 1.255 . S
O163 Fe155 1.997 1_455 S
O163 C161 1.235 . S
C164 O170 1.287 . S
C164 O171 1.255 . S
O165 Fe154 1.976 . S
O165 C172 1.287 . S
O166 Fe155 1.996 . S
O166 C172 1.255 . S
O167 Fe157 1.976 . S
O167 C162 1.287 . S
O168 Fe154 1.996 . S
O168 C162 1.255 . S
C169 O173 1.295 . S
C169 O174 1.235 . S
O170 Fe155 1.976 . S
O170 C164 1.287 . S
O171 Fe157 1.996 . S
O171 C164 1.255 . S
C172 O165 1.287 . S
C172 O166 1.255 . S
O173 Fe155 2.002 . S
O173 C169 1.295 . S
O174 Fe157 1.997 . S
O174 C169 1.235 . S
C175 O158 1.295 . S
C175 O159 1.235 . S
Fe176 O178 1.918 . S
Fe176 O181 1.997 . S
Fe176 O182 2.002 . S
Fe176 O187 1.976 . S
Fe176 O190 1.996 . S
Fe177 O178 1.918 . S
Fe177 O185 1.997 . S
Fe177 O188 1.996 . S
Fe177 O192 1.976 . S
Fe177 O195 2.002 . S
O178 Fe176 1.918 . S
O178 Fe177 1.918 . S
O178 Fe179 1.918 . S
Fe179 O178 1.918 . S
Fe179 O180 2.002 . S
Fe179 O189 1.976 . S
Fe179 O193 1.996 . S
Fe179 O196 1.997 . S
O180 Fe179 2.002 . S
O180 C197 1.295 . S
O181 Fe176 1.997 . S
O181 C197 1.235 . S
O182 Fe176 2.002 . S
O182 C183 1.295 . S
C183 O182 1.295 . S
C183 O185 1.235 . S
C184 O189 1.287 . S
C184 O190 1.255 . S
O185 Fe177 1.997 . S
O185 C183 1.235 . S
C186 O192 1.287 . S
C186 O193 1.255 . S
O187 Fe176 1.976 . S
O187 C194 1.287 . S
O188 Fe177 1.996 . S
O188 C194 1.255 . S
O189 Fe179 1.976 . S
O189 C184 1.287 . S
O190 Fe176 1.996 . S
O190 C184 1.255 . S
C191 O195 1.295 . S
C191 O196 1.235 . S
O192 Fe177 1.976 . S
O192 C186 1.287 . S
O193 Fe179 1.996 . S
O193 C186 1.255 . S
C194 O187 1.287 . S
C194 O188 1.255 . S
O195 Fe177 2.002 . S
O195 C191 1.295 . S
O196 Fe179 1.997 . S
O196 C191 1.235 . S
C197 O180 1.295 . S
C197 O181 1.235 . S
Fe198 O200 1.918 . S
Fe198 O203 1.997 . S
Fe198 O204 2.002 . S
Fe198 O209 1.976 . S
Fe198 O212 1.996 . S
Fe199 O200 1.918 . S
Fe199 O207 1.997 . S
Fe199 O210 1.996 . S
Fe199 O214 1.976 . S
Fe199 O217 2.002 . S
O200 Fe198 1.918 . S
O200 Fe199 1.918 . S
O200 Fe201 1.918 . S
Fe201 O200 1.918 . S
Fe201 O202 2.002 . S
Fe201 O211 1.976 . S
Fe201 O215 1.996 . S
Fe201 O218 1.997 . S
O202 Fe201 2.002 . S
O202 C219 1.295 . S
O203 Fe198 1.997 . S
O203 C219 1.235 . S
O204 Fe198 2.002 . S
O204 C205 1.295 . S
C205 O204 1.295 . S
C205 O207 1.235 . S
C206 O211 1.287 . S
C206 O212 1.255 . S
O207 Fe199 1.997 . S
O207 C205 1.235 . S
C208 O214 1.287 . S
C208 O215 1.255 . S
O209 Fe198 1.976 . S
O209 C216 1.287 . S
O210 Fe199 1.996 . S
O210 C216 1.255 . S
O211 Fe201 1.976 . S
O211 C206 1.287 . S
O212 Fe198 1.996 . S
O212 C206 1.255 . S
C213 O217 1.295 . S
C213 O218 1.235 . S
O214 Fe199 1.976 . S
O214 C208 1.287 . S
O215 Fe201 1.996 . S
O215 C208 1.255 . S
C216 O209 1.287 . S
C216 O210 1.255 . S
O217 Fe199 2.002 . S
O217 C213 1.295 . S
O218 Fe201 1.997 . S
O218 C213 1.235 . S
C219 O202 1.295 . S
C219 O203 1.235 . S
Fe220 O222 1.918 . S
Fe220 O225 1.997 . S
Fe220 O226 2.002 . S
Fe220 O231 1.976 . S
Fe220 O234 1.996 . S
Fe221 O222 1.918 . S
Fe221 O229 1.997 . S
Fe221 O232 1.996 . S
Fe221 O236 1.976 . S
Fe221 O239 2.002 . S
O222 Fe220 1.918 . S
O222 Fe221 1.918 . S
O222 Fe223 1.918 . S
Fe223 O222 1.918 . S
Fe223 O224 2.002 . S
Fe223 O233 1.976 . S
Fe223 O237 1.996 . S
Fe223 O240 1.997 . S
O224 Fe223 2.002 . S
O224 C241 1.295 . S
O225 Fe220 1.997 . S
O225 C241 1.235 . S
O226 Fe220 2.002 . S
O226 C227 1.295 . S
C227 O226 1.295 . S
C227 O229 1.235 . S
C228 O233 1.287 . S
C228 O234 1.255 . S
O229 Fe221 1.997 . S
O229 C227 1.235 . S
C230 O236 1.287 . S
C230 O237 1.255 . S
O231 Fe220 1.976 . S
O231 C238 1.287 . S
O232 Fe221 1.996 . S
O232 C238 1.255 . S
O233 Fe223 1.976 . S
O233 C228 1.287 . S
O234 Fe220 1.996 . S
O234 C228 1.255 . S
C235 O239 1.295 . S
C235 O240 1.235 . S
O236 Fe221 1.976 . S
O236 C230 1.287 . S
O237 Fe223 1.996 . S
O237 C230 1.255 . S
C238 O231 1.287 . S
C238 O232 1.255 . S
O239 Fe221 2.002 . S
O239 C235 1.295 . S
O240 Fe223 1.997 . S
O240 C235 1.235 . S
C241 O224 1.295 . S
C241 O225 1.235 . S
Fe242 O244 1.918 . S
Fe242 O247 1.997 . S
Fe242 O248 2.002 . S
Fe242 O253 1.976 . S
Fe242 O256 1.996 . S
Fe243 O244 1.918 . S
Fe243 O251 1.997 . S
Fe243 O254 1.996 . S
Fe243 O258 1.976 . S
Fe243 O261 2.002 . S
O244 Fe242 1.918 . S
O244 Fe243 1.918 . S
O244 Fe245 1.918 . S
Fe245 O244 1.918 . S
Fe245 O246 2.002 . S
Fe245 O255 1.976 . S
Fe245 O259 1.996 . S
Fe245 O262 1.997 . S
O246 Fe245 2.002 . S
O246 C263 1.295 . S
O247 Fe242 1.997 . S
O247 C263 1.235 . S
O248 Fe242 2.002 . S
O248 C249 1.295 . S
C249 O248 1.295 . S
C249 O251 1.235 . S
C250 O255 1.287 . S
C250 O256 1.255 . S
O251 Fe243 1.997 . S
O251 C249 1.235 . S
C252 O258 1.287 . S
C252 O259 1.255 . S
O253 Fe242 1.976 . S
O253 C260 1.287 . S
O254 Fe243 1.996 . S
O254 C260 1.255 . S
O255 Fe245 1.976 . S
O255 C250 1.287 . S
O256 Fe242 1.996 . S
O256 C250 1.255 . S
C257 O261 1.295 . S
C257 O262 1.235 . S
O258 Fe243 1.976 . S
O258 C252 1.287 . S
O259 Fe245 1.996 . S
O259 C252 1.255 . S
C260 O253 1.287 . S
C260 O254 1.255 . S
O261 Fe243 2.002 . S
O261 C257 1.295 . S
O262 Fe245 1.997 . S
O262 C257 1.235 . S
C263 O246 1.295 . S
C263 O247 1.235 . S
Fe264 O266 1.918 . S
Fe264 O269 1.997 . S
Fe264 O270 2.002 . S
Fe264 O275 1.976 . S
Fe264 O278 1.996 . S
Fe265 O266 1.918 . S
Fe265 O273 1.997 . S
Fe265 O276 1.996 . S
Fe265 O280 1.976 . S
Fe265 O283 2.002 1_554 S
O266 Fe264 1.918 . S
O266 Fe265 1.918 . S
O266 Fe267 1.918 . S
Fe267 O266 1.918 . S
Fe267 O268 2.002 1_554 S
Fe267 O277 1.976 . S
Fe267 O281 1.996 . S
Fe267 O284 1.997 1_554 S
O268 Fe267 2.002 1_556 S
O268 C285 1.295 1_556 S
O269 Fe264 1.997 . S
O269 C285 1.235 . S
O270 Fe264 2.002 . S
O270 C271 1.295 . S
C271 O270 1.295 . S
C271 O273 1.235 . S
C272 O277 1.287 . S
C272 O278 1.255 . S
O273 Fe265 1.997 . S
O273 C271 1.235 . S
C274 O280 1.287 . S
C274 O281 1.255 . S
O275 Fe264 1.976 . S
O275 C282 1.287 . S
O276 Fe265 1.996 . S
O276 C282 1.255 . S
O277 Fe267 1.976 . S
O277 C272 1.287 . S
O278 Fe264 1.996 . S
O278 C272 1.255 . S
C279 O283 1.295 . S
C279 O284 1.235 . S
O280 Fe265 1.976 . S
O280 C274 1.287 . S
O281 Fe267 1.996 . S
O281 C274 1.255 . S
C282 O275 1.287 . S
C282 O276 1.255 . S
O283 Fe265 2.002 1_556 S
O283 C279 1.295 . S
O284 Fe267 1.997 1_556 S
O284 C279 1.235 . S
C285 O268 1.295 1_554 S
C285 O269 1.235 . S
Fe286 O288 1.918 . S
Fe286 O291 1.997 . S
Fe286 O292 2.002 . S
Fe286 O297 1.976 . S
Fe286 O300 1.996 . S
Fe287 O288 1.918 . S
Fe287 O295 1.997 . S
Fe287 O298 1.996 . S
Fe287 O302 1.976 . S
Fe287 O305 2.002 1_556 S
O288 Fe286 1.918 . S
O288 Fe287 1.918 . S
O288 Fe289 1.918 . S
Fe289 O288 1.918 . S
Fe289 O290 2.002 1_556 S
Fe289 O299 1.976 . S
Fe289 O303 1.996 . S
Fe289 O306 1.997 1_556 S
O290 Fe289 2.002 1_554 S
O290 C307 1.295 1_554 S
O291 Fe286 1.997 . S
O291 C307 1.235 . S
O292 Fe286 2.002 . S
O292 C293 1.295 . S
C293 O292 1.295 . S
C293 O295 1.235 . S
C294 O299 1.287 . S
C294 O300 1.255 . S
O295 Fe287 1.997 . S
O295 C293 1.235 . S
C296 O302 1.287 . S
C296 O303 1.255 . S
O297 Fe286 1.976 . S
O297 C304 1.287 . S
O298 Fe287 1.996 . S
O298 C304 1.255 . S
O299 Fe289 1.976 . S
O299 C294 1.287 . S
O300 Fe286 1.996 . S
O300 C294 1.255 . S
C301 O305 1.295 . S
C301 O306 1.235 . S
O302 Fe287 1.976 . S
O302 C296 1.287 . S
O303 Fe289 1.996 . S
O303 C296 1.255 . S
C304 O297 1.287 . S
C304 O298 1.255 . S
O305 Fe287 2.002 1_554 S
O305 C301 1.295 . S
O306 Fe289 1.997 1_554 S
O306 C301 1.235 . S
C307 O290 1.295 1_556 S
C307 O291 1.235 . S
Fe308 O310 1.918 . S
Fe308 O313 1.997 . S
Fe308 O314 2.002 . S
Fe308 O319 1.976 . S
Fe308 O322 1.996 . S
Fe309 O310 1.918 . S
Fe309 O317 1.997 . S
Fe309 O320 1.996 . S
Fe309 O324 1.976 . S
Fe309 O327 2.002 1_554 S
O310 Fe308 1.918 . S
O310 Fe309 1.918 . S
O310 Fe311 1.918 . S
Fe311 O310 1.918 . S
Fe311 O312 2.002 1_554 S
Fe311 O321 1.976 . S
Fe311 O325 1.996 . S
Fe311 O328 1.997 1_554 S
O312 Fe311 2.002 1_556 S
O312 C329 1.295 1_556 S
O313 Fe308 1.997 . S
O313 C329 1.235 . S
O314 Fe308 2.002 . S
O314 C315 1.295 . S
C315 O314 1.295 . S
C315 O317 1.235 . S
C316 O321 1.287 . S
C316 O322 1.255 . S
O317 Fe309 1.997 . S
O317 C315 1.235 . S
C318 O324 1.287 . S
C318 O325 1.255 . S
O319 Fe308 1.976 . S
O319 C326 1.287 . S
O320 Fe309 1.996 . S
O320 C326 1.255 . S
O321 Fe311 1.976 . S
O321 C316 1.287 . S
O322 Fe308 1.996 . S
O322 C316 1.255 . S
C323 O327 1.295 . S
C323 O328 1.235 . S
O324 Fe309 1.976 . S
O324 C318 1.287 . S
O325 Fe311 1.996 . S
O325 C318 1.255 . S
C326 O319 1.287 . S
C326 O320 1.255 . S
O327 Fe309 2.002 1_556 S
O327 C323 1.295 . S
O328 Fe311 1.997 1_556 S
O328 C323 1.235 . S
C329 O312 1.295 1_554 S
C329 O313 1.235 . S
Fe330 O332 1.918 . S
Fe330 O335 1.997 . S
Fe330 O336 2.002 1_556 S
Fe330 O341 1.976 . S
Fe330 O344 1.996 . S
Fe331 O332 1.918 . S
Fe331 O339 1.997 1_556 S
Fe331 O342 1.996 . S
Fe331 O346 1.976 . S
Fe331 O349 2.002 1_556 S
O332 Fe330 1.918 . S
O332 Fe331 1.918 . S
O332 Fe333 1.918 . S
Fe333 O332 1.918 . S
Fe333 O334 2.002 . S
Fe333 O343 1.976 . S
Fe333 O347 1.996 . S
Fe333 O350 1.997 . S
O334 Fe333 2.002 . S
O334 C351 1.295 . S
O335 Fe330 1.997 . S
O335 C351 1.235 . S
O336 Fe330 2.002 1_554 S
O336 C337 1.295 . S
C337 O336 1.295 . S
C337 O339 1.235 . S
C338 O343 1.287 . S
C338 O344 1.255 . S
O339 Fe331 1.997 1_554 S
O339 C337 1.235 . S
C340 O346 1.287 . S
C340 O347 1.255 . S
O341 Fe330 1.976 . S
O341 C348 1.287 . S
O342 Fe331 1.996 . S
O342 C348 1.255 . S
O343 Fe333 1.976 . S
O343 C338 1.287 . S
O344 Fe330 1.996 . S
O344 C338 1.255 . S
C345 O349 1.295 1_556 S
C345 O350 1.235 . S
O346 Fe331 1.976 . S
O346 C340 1.287 . S
O347 Fe333 1.996 . S
O347 C340 1.255 . S
C348 O341 1.287 . S
C348 O342 1.255 . S
O349 Fe331 2.002 1_554 S
O349 C345 1.295 1_554 S
O350 Fe333 1.997 . S
O350 C345 1.235 . S
C351 O334 1.295 . S
C351 O335 1.235 . S
C352 C353 1.363 . S
C352 C358 1.379 . S
C352 N360 1.356 . S
C353 C352 1.363 . S
C353 C359 1.363 . S
C354 C355 1.363 . S
C354 C359 1.379 . S
C354 N361 1.356 . S
C355 C354 1.363 . S
C355 C358 1.363 . S
N356 C358 1.356 . S
N356 H368 0.984 . S
N356 H369 0.985 . S
N357 C359 1.356 . S
N357 H362 0.984 . S
N357 H363 0.985 . S
C358 C352 1.379 . S
C358 C355 1.363 . S
C358 N356 1.356 . S
C359 C353 1.363 . S
C359 C354 1.379 . S
C359 N357 1.356 . S
N360 C352 1.356 . S
N360 H366 0.984 . S
N360 H367 0.984 . S
N361 C354 1.356 . S
N361 H364 0.984 . S
N361 H365 0.985 . S
H362 N357 0.984 . S
H363 N357 0.985 . S
H364 N361 0.984 . S
H365 N361 0.985 . S
H366 N360 0.984 . S
H367 N360 0.984 . S
H368 N356 0.984 . S
H369 N356 0.985 . S
C370 C371 1.363 . S
C370 C376 1.379 . S
C370 N378 1.356 . S
C371 C370 1.363 . S
C371 C377 1.363 . S
C372 C373 1.363 . S
C372 C377 1.379 . S
C372 N379 1.356 . S
C373 C372 1.363 . S
C373 C376 1.363 . S
N374 C376 1.356 . S
N374 H386 0.984 . S
N374 H387 0.985 . S
N375 C377 1.356 . S
N375 H380 0.984 . S
N375 H381 0.985 . S
C376 C370 1.379 . S
C376 C373 1.363 . S
C376 N374 1.356 . S
C377 C371 1.363 . S
C377 C372 1.379 . S
C377 N375 1.356 . S
N378 C370 1.356 . S
N378 H384 0.984 . S
N378 H385 0.984 . S
N379 C372 1.356 . S
N379 H382 0.984 . S
N379 H383 0.985 . S
H380 N375 0.984 . S
H381 N375 0.985 . S
H382 N379 0.984 . S
H383 N379 0.985 . S
H384 N378 0.984 . S
H385 N378 0.984 . S
H386 N374 0.984 . S
H387 N374 0.985 . S
C388 C389 1.363 . S
C388 C394 1.379 . S
C388 N396 1.356 . S
C389 C388 1.363 . S
C389 C395 1.363 . S
C390 C391 1.363 . S
C390 C395 1.379 . S
C390 N397 1.356 . S
C391 C390 1.363 . S
C391 C394 1.363 . S
N392 C394 1.356 . S
N392 H404 0.984 . S
N392 H405 0.985 . S
N393 C395 1.356 . S
N393 H398 0.984 . S
N393 H399 0.985 . S
C394 C388 1.379 . S
C394 C391 1.363 . S
C394 N392 1.356 . S
C395 C389 1.363 . S
C395 C390 1.379 . S
C395 N393 1.356 . S
N396 C388 1.356 . S
N396 H402 0.984 . S
N396 H403 0.984 . S
N397 C390 1.356 . S
N397 H400 0.984 . S
N397 H401 0.985 . S
H398 N393 0.984 . S
H399 N393 0.985 . S
H400 N397 0.984 . S
H401 N397 0.985 . S
H402 N396 0.984 . S
H403 N396 0.984 . S
H404 N392 0.984 . S
H405 N392 0.985 . S
C406 C407 1.363 . S
C406 C412 1.379 . S
C406 N414 1.356 . S
C407 C406 1.363 . S
C407 C413 1.363 . S
C408 C409 1.363 . S
C408 C413 1.379 . S
C408 N415 1.356 . S
C409 C408 1.363 . S
C409 C412 1.363 . S
N410 C412 1.356 . S
N410 H422 0.984 . S
N410 H423 0.985 . S
N411 C413 1.356 . S
N411 H416 0.984 . S
N411 H417 0.985 . S
C412 C406 1.379 . S
C412 C409 1.363 . S
C412 N410 1.356 . S
C413 C407 1.363 . S
C413 C408 1.379 . S
C413 N411 1.356 . S
N414 C406 1.356 . S
N414 H420 0.984 . S
N414 H421 0.984 . S
N415 C408 1.356 . S
N415 H418 0.984 . S
N415 H419 0.985 . S
H416 N411 0.984 . S
H417 N411 0.985 . S
H418 N415 0.984 . S
H419 N415 0.985 . S
H420 N414 0.984 . S
H421 N414 0.984 . S
H422 N410 0.984 . S
H423 N410 0.985 . S
C424 C425 1.363 . S
C424 C430 1.379 . S
C424 N432 1.356 . S
C425 C424 1.363 . S
C425 C431 1.363 . S
C426 C427 1.363 . S
C426 C431 1.379 . S
C426 N433 1.356 . S
C427 C426 1.363 . S
C427 C430 1.363 . S
N428 C430 1.356 . S
N428 H440 0.984 . S
N428 H441 0.985 . S
N429 C431 1.356 . S
N429 H434 0.984 . S
N429 H435 0.985 . S
C430 C424 1.379 . S
C430 C427 1.363 . S
C430 N428 1.356 . S
C431 C425 1.363 . S
C431 C426 1.379 . S
C431 N429 1.356 . S
N432 C424 1.356 . S
N432 H438 0.984 . S
N432 H439 0.984 . S
N433 C426 1.356 . S
N433 H436 0.984 . S
N433 H437 0.985 . S
H434 N429 0.984 . S
H435 N429 0.985 . S
H436 N433 0.984 . S
H437 N433 0.985 . S
H438 N432 0.984 . S
H439 N432 0.984 . S
H440 N428 0.984 . S
H441 N428 0.985 . S
C442 C443 1.363 . S
C442 C448 1.379 . S
C442 N450 1.356 . S
C443 C442 1.363 . S
C443 C449 1.363 . S
C444 C445 1.363 . S
C444 C449 1.379 . S
C444 N451 1.356 . S
C445 C444 1.363 . S
C445 C448 1.363 . S
N446 C448 1.356 . S
N446 H458 0.984 . S
N446 H459 0.985 . S
N447 C449 1.356 . S
N447 H452 0.984 . S
N447 H453 0.985 . S
C448 C442 1.379 . S
C448 C445 1.363 . S
C448 N446 1.356 . S
C449 C443 1.363 . S
C449 C444 1.379 . S
C449 N447 1.356 . S
N450 C442 1.356 . S
N450 H456 0.984 . S
N450 H457 0.984 . S
N451 C444 1.356 . S
N451 H454 0.984 . S
N451 H455 0.985 . S
H452 N447 0.984 . S
H453 N447 0.985 . S
H454 N451 0.984 . S
H455 N451 0.985 . S
H456 N450 0.984 . S
H457 N450 0.984 . S
H458 N446 0.984 . S
H459 N446 0.985 . S
C460 C461 1.363 . S
C460 C466 1.379 . S
C460 N468 1.356 . S
C461 C460 1.363 . S
C461 C467 1.363 . S
C462 C463 1.363 . S
C462 C467 1.379 . S
C462 N469 1.356 . S
C463 C462 1.363 . S
C463 C466 1.363 . S
N464 C466 1.356 . S
N464 H476 0.984 . S
N464 H477 0.985 . S
N465 C467 1.356 . S
N465 H470 0.984 . S
N465 H471 0.985 . S
C466 C460 1.379 . S
C466 C463 1.363 . S
C466 N464 1.356 . S
C467 C461 1.363 . S
C467 C462 1.379 . S
C467 N465 1.356 . S
N468 C460 1.356 . S
N468 H474 0.984 . S
N468 H475 0.984 . S
N469 C462 1.356 . S
N469 H472 0.984 . S
N469 H473 0.985 . S
H470 N465 0.984 . S
H471 N465 0.985 . S
H472 N469 0.984 . S
H473 N469 0.985 . S
H474 N468 0.984 . S
H475 N468 0.984 . S
H476 N464 0.984 . S
H477 N464 0.985 . S
C478 C479 1.363 . S
C478 C484 1.379 . S
C478 N486 1.356 . S
C479 C478 1.363 . S
C479 C485 1.363 . S
C480 C481 1.363 . S
C480 C485 1.379 . S
C480 N487 1.356 . S
C481 C480 1.363 . S
C481 C484 1.363 . S
N482 C484 1.356 . S
N482 H494 0.984 . S
N482 H495 0.985 . S
N483 C485 1.356 . S
N483 H488 0.984 . S
N483 H489 0.985 . S
C484 C478 1.379 . S
C484 C481 1.363 . S
C484 N482 1.356 . S
C485 C479 1.363 . S
C485 C480 1.379 . S
C485 N483 1.356 . S
N486 C478 1.356 . S
N486 H492 0.984 . S
N486 H493 0.984 . S
N487 C480 1.356 . S
N487 H490 0.984 . S
N487 H491 0.985 . S
H488 N483 0.984 . S
H489 N483 0.985 . S
H490 N487 0.984 . S
H491 N487 0.985 . S
H492 N486 0.984 . S
H493 N486 0.984 . S
H494 N482 0.984 . S
H495 N482 0.985 . S
C496 C497 1.363 . S
C496 C502 1.379 . S
C496 N504 1.356 . S
C497 C496 1.363 . S
C497 C503 1.363 1_554 S
C498 C499 1.363 1_556 S
C498 C503 1.379 . S
C498 N505 1.356 . S
C499 C498 1.363 1_554 S
C499 C502 1.363 . S
N500 C502 1.356 . S
N500 H512 0.984 . S
N500 H513 0.985 . S
N501 C503 1.356 . S
N501 H506 0.984 . S
N501 H507 0.985 . S
C502 C496 1.379 . S
C502 C499 1.363 . S
C502 N500 1.356 . S
C503 C497 1.363 1_556 S
C503 C498 1.379 . S
C503 N501 1.356 . S
N504 C496 1.356 . S
N504 H510 0.984 . S
N504 H511 0.984 . S
N505 C498 1.356 . S
N505 H508 0.984 . S
N505 H509 0.985 . S
H506 N501 0.984 . S
H507 N501 0.985 . S
H508 N505 0.984 . S
H509 N505 0.985 . S
H510 N504 0.984 . S
H511 N504 0.984 . S
H512 N500 0.984 . S
H513 N500 0.985 . S
C514 C515 1.363 . S
C514 C520 1.379 . S
C514 N522 1.356 . S
C515 C514 1.363 . S
C515 C521 1.363 1_556 S
C516 C517 1.363 1_554 S
C516 C521 1.379 . S
C516 N523 1.356 . S
C517 C516 1.363 1_556 S
C517 C520 1.363 . S
N518 C520 1.356 . S
N518 H530 0.984 . S
N518 H531 0.985 . S
N519 C521 1.356 . S
N519 H524 0.984 . S
N519 H525 0.985 . S
C520 C514 1.379 . S
C520 C517 1.363 . S
C520 N518 1.356 . S
C521 C515 1.363 1_554 S
C521 C516 1.379 . S
C521 N519 1.356 . S
N522 C514 1.356 . S
N522 H528 0.984 . S
N522 H529 0.984 . S
N523 C516 1.356 . S
N523 H526 0.984 . S
N523 H527 0.985 . S
H524 N519 0.984 . S
H525 N519 0.985 . S
H526 N523 0.984 . S
H527 N523 0.985 . S
H528 N522 0.984 . S
H529 N522 0.984 . S
H530 N518 0.984 . S
H531 N518 0.985 . S
C532 C533 1.363 . S
C532 C538 1.379 . S
C532 N540 1.356 . S
C533 C532 1.363 . S
C533 C539 1.363 1_554 S
C534 C535 1.363 1_556 S
C534 C539 1.379 . S
C534 N541 1.356 . S
C535 C534 1.363 1_554 S
C535 C538 1.363 . S
N536 C538 1.356 . S
N536 H548 0.984 . S
N536 H549 0.985 . S
N537 C539 1.356 . S
N537 H542 0.984 . S
N537 H543 0.985 . S
C538 C532 1.379 . S
C538 C535 1.363 . S
C538 N536 1.356 . S
C539 C533 1.363 1_556 S
C539 C534 1.379 . S
C539 N537 1.356 . S
N540 C532 1.356 . S
N540 H546 0.984 . S
N540 H547 0.984 . S
N541 C534 1.356 . S
N541 H544 0.984 . S
N541 H545 0.985 . S
H542 N537 0.984 . S
H543 N537 0.985 . S
H544 N541 0.984 . S
H545 N541 0.985 . S
H546 N540 0.984 . S
H547 N540 0.984 . S
H548 N536 0.984 . S
H549 N536 0.985 . S
C550 C551 1.363 1_554 S
C550 C556 1.379 . S
C550 N558 1.356 . S
C551 C550 1.363 1_556 S
C551 C557 1.363 . S
C552 C553 1.363 . S
C552 C557 1.379 . S
C552 N559 1.356 . S
C553 C552 1.363 . S
C553 C556 1.363 1_556 S
N554 C556 1.356 . S
N554 H566 0.984 . S
N554 H567 0.985 . S
N555 C557 1.356 . S
N555 H560 0.984 . S
N555 H561 0.985 . S
C556 C550 1.379 . S
C556 C553 1.363 1_554 S
C556 N554 1.356 . S
C557 C551 1.363 . S
C557 C552 1.379 . S
C557 N555 1.356 . S
N558 C550 1.356 . S
N558 H564 0.984 . S
N558 H565 0.984 . S
N559 C552 1.356 . S
N559 H562 0.984 . S
N559 H563 0.985 . S
H560 N555 0.984 . S
H561 N555 0.985 . S
H562 N559 0.984 . S
H563 N559 0.985 . S
H564 N558 0.984 . S
H565 N558 0.984 . S
H566 N554 0.984 . S
H567 N554 0.985 . S
C568 C569 1.363 . S
C568 C574 1.379 . S
C568 N576 1.356 . S
C569 C568 1.363 . S
C569 C575 1.363 . S
C570 C571 1.363 . S
C570 C575 1.379 . S
C570 N577 1.356 . S
C571 C570 1.363 . S
C571 C574 1.363 . S
N572 C574 1.356 . S
N572 H584 0.984 . S
N572 H585 0.985 . S
N573 C575 1.356 . S
N573 H578 0.984 . S
N573 H579 0.985 . S
C574 C568 1.379 . S
C574 C571 1.363 . S
C574 N572 1.356 . S
C575 C569 1.363 . S
C575 C570 1.379 . S
C575 N573 1.356 . S
N576 C568 1.356 . S
N576 H582 0.984 . S
N576 H583 0.984 . S
N577 C570 1.356 . S
N577 H580 0.984 . S
N577 H581 0.985 . S
H578 N573 0.984 . S
H579 N573 0.985 . S
H580 N577 0.984 . S
H581 N577 0.985 . S
H582 N576 0.984 . S
H583 N576 0.984 . S
H584 N572 0.984 . S
H585 N572 0.985 . S
C586 C587 1.363 . S
C586 C592 1.379 . S
C586 N594 1.356 . S
C587 C586 1.363 . S
C587 C593 1.363 . S
C588 C589 1.363 . S
C588 C593 1.379 . S
C588 N595 1.356 . S
C589 C588 1.363 . S
C589 C592 1.363 . S
N590 C592 1.356 . S
N590 H602 0.984 . S
N590 H603 0.985 . S
N591 C593 1.356 . S
N591 H596 0.984 . S
N591 H597 0.985 . S
C592 C586 1.379 . S
C592 C589 1.363 . S
C592 N590 1.356 . S
C593 C587 1.363 . S
C593 C588 1.379 . S
C593 N591 1.356 . S
N594 C586 1.356 . S
N594 H600 0.984 . S
N594 H601 0.984 . S
N595 C588 1.356 . S
N595 H598 0.984 . S
N595 H599 0.985 . S
H596 N591 0.984 . S
H597 N591 0.985 . S
H598 N595 0.984 . S
H599 N595 0.985 . S
H600 N594 0.984 . S
H601 N594 0.984 . S
H602 N590 0.984 . S
H603 N590 0.985 . S
C604 C605 1.363 . S
C604 C610 1.379 . S
C604 N612 1.356 . S
C605 C604 1.363 . S
C605 C611 1.363 . S
C606 C607 1.363 . S
C606 C611 1.379 . S
C606 N613 1.356 . S
C607 C606 1.363 . S
C607 C610 1.363 . S
N608 C610 1.356 . S
N608 H620 0.984 1_545 S
N608 H621 0.975 1_545 S
N609 C611 1.356 . S
N609 H614 0.984 . S
N609 H615 0.985 . S
C610 C604 1.379 . S
C610 C607 1.363 . S
C610 N608 1.356 . S
C611 C605 1.363 . S
C611 C606 1.379 . S
C611 N609 1.356 . S
N612 C604 1.356 . S
N612 H618 0.984 . S
N612 H619 0.984 . S
N613 C606 1.356 . S
N613 H616 0.984 . S
N613 H617 0.985 . S
H614 N609 0.984 . S
H615 N609 0.985 . S
H616 N613 0.984 . S
H617 N613 0.985 . S
H618 N612 0.984 . S
H619 N612 0.984 . S
H620 N608 0.984 1_565 S
H621 N608 0.975 1_565 S
C622 C623 1.363 . S
C622 C628 1.379 . S
C622 N630 1.356 . S
C623 C622 1.363 . S
C623 C629 1.363 . S
C624 C625 1.363 . S
C624 C629 1.379 . S
C624 N631 1.356 . S
C625 C624 1.363 . S
C625 C628 1.363 . S
N626 C628 1.356 . S
N626 H638 0.984 . S
N626 H639 0.985 . S
N627 C629 1.356 . S
N627 H632 0.984 . S
N627 H633 0.985 . S
C628 C622 1.379 . S
C628 C625 1.363 . S
C628 N626 1.356 . S
C629 C623 1.363 . S
C629 C624 1.379 . S
C629 N627 1.356 . S
N630 C622 1.356 . S
N630 H636 0.984 . S
N630 H637 0.984 . S
N631 C624 1.356 . S
N631 H634 0.984 . S
N631 H635 0.985 . S
H632 N627 0.984 . S
H633 N627 0.985 . S
H634 N631 0.984 . S
H635 N631 0.985 . S
H636 N630 0.984 . S
H637 N630 0.984 . S
H638 N626 0.984 . S
H639 N626 0.985 . S
C640 C641 1.363 . S
C640 C646 1.379 . S
C640 N648 1.356 . S
C641 C640 1.363 . S
C641 C647 1.363 . S
C642 C643 1.363 . S
C642 C647 1.379 . S
C642 N649 1.356 . S
C643 C642 1.363 . S
C643 C646 1.363 . S
N644 C646 1.356 . S
N644 H656 0.984 . S
N644 H657 0.985 . S
N645 C647 1.356 . S
N645 H650 0.984 . S
N645 H651 0.985 . S
C646 C640 1.379 . S
C646 C643 1.363 . S
C646 N644 1.356 . S
C647 C641 1.363 . S
C647 C642 1.379 . S
C647 N645 1.356 . S
N648 C640 1.356 . S
N648 H654 0.984 . S
N648 H655 0.984 . S
N649 C642 1.356 . S
N649 H652 0.984 . S
N649 H653 0.985 . S
H650 N645 0.984 . S
H651 N645 0.985 . S
H652 N649 0.984 . S
H653 N649 0.985 . S
H654 N648 0.984 . S
H655 N648 0.984 . S
H656 N644 0.984 . S
H657 N644 0.985 . S
C658 C659 1.363 . S
C658 C664 1.379 . S
C658 N666 1.356 . S
C659 C658 1.363 . S
C659 C665 1.363 . S
C660 C661 1.363 . S
C660 C665 1.379 . S
C660 N667 1.356 . S
C661 C660 1.363 . S
C661 C664 1.363 . S
N662 C664 1.356 . S
N662 H674 0.984 . S
N662 H675 0.985 . S
N663 C665 1.356 . S
N663 H668 0.984 . S
N663 H669 0.985 . S
C664 C658 1.379 . S
C664 C661 1.363 . S
C664 N662 1.356 . S
C665 C659 1.363 . S
C665 C660 1.379 . S
C665 N663 1.356 . S
N666 C658 1.356 . S
N666 H672 0.984 . S
N666 H673 0.984 . S
N667 C660 1.356 . S
N667 H670 0.984 . S
N667 H671 0.985 . S
H668 N663 0.984 . S
H669 N663 0.985 . S
H670 N667 0.984 . S
H671 N667 0.985 . S
H672 N666 0.984 . S
H673 N666 0.984 . S
H674 N662 0.984 . S
H675 N662 0.985 . S
C676 C677 1.363 . S
C676 C682 1.379 . S
C676 N684 1.356 . S
C677 C676 1.363 . S
C677 C683 1.363 . S
C678 C679 1.363 . S
C678 C683 1.379 . S
C678 N685 1.356 . S
C679 C678 1.363 . S
C679 C682 1.363 . S
N680 C682 1.356 . S
N680 H692 0.984 . S
N680 H693 0.985 . S
N681 C683 1.356 . S
N681 H686 0.984 . S
N681 H687 0.985 . S
C682 C676 1.379 . S
C682 C679 1.363 . S
C682 N680 1.356 . S
C683 C677 1.363 . S
C683 C678 1.379 . S
C683 N681 1.356 . S
N684 C676 1.356 . S
N684 H690 0.984 . S
N684 H691 0.984 . S
N685 C678 1.356 . S
N685 H688 0.984 . S
N685 H689 0.985 . S
H686 N681 0.984 . S
H687 N681 0.985 . S
H688 N685 0.984 . S
H689 N685 0.985 . S
H690 N684 0.984 . S
H691 N684 0.984 . S
H692 N680 0.984 . S
H693 N680 0.985 . S
C694 C695 1.363 . S
C694 C700 1.379 . S
C694 N702 1.356 . S
C695 C694 1.363 . S
C695 C701 1.363 . S
C696 C697 1.363 . S
C696 C701 1.379 . S
C696 N703 1.356 . S
C697 C696 1.363 . S
C697 C700 1.363 . S
N698 C700 1.356 . S
N698 H710 0.984 . S
N698 H711 0.985 . S
N699 C701 1.356 . S
N699 H704 0.984 . S
N699 H705 0.985 . S
C700 C694 1.379 . S
C700 C697 1.363 . S
C700 N698 1.356 . S
C701 C695 1.363 . S
C701 C696 1.379 . S
C701 N699 1.356 . S
N702 C694 1.356 . S
N702 H708 0.984 . S
N702 H709 0.984 . S
N703 C696 1.356 . S
N703 H706 0.984 . S
N703 H707 0.985 . S
H704 N699 0.984 . S
H705 N699 0.985 . S
H706 N703 0.984 . S
H707 N703 0.985 . S
H708 N702 0.984 . S
H709 N702 0.984 . S
H710 N698 0.984 . S
H711 N698 0.985 . S
C712 C713 1.363 . S
C712 C718 1.379 . S
C712 N720 1.356 . S
C713 C712 1.363 . S
C713 C719 1.363 1_554 S
C714 C715 1.363 1_556 S
C714 C719 1.379 . S
C714 N721 1.356 . S
C715 C714 1.363 1_554 S
C715 C718 1.363 . S
N716 C718 1.356 . S
N716 H728 0.984 . S
N716 H729 0.985 . S
N717 C719 1.356 . S
N717 H722 0.984 . S
N717 H723 0.985 . S
C718 C712 1.379 . S
C718 C715 1.363 . S
C718 N716 1.356 . S
C719 C713 1.363 1_556 S
C719 C714 1.379 . S
C719 N717 1.356 . S
N720 C712 1.356 . S
N720 H726 0.984 . S
N720 H727 0.984 . S
N721 C714 1.356 . S
N721 H724 0.983 1_556 S
N721 H725 0.985 . S
H722 N717 0.984 . S
H723 N717 0.985 . S
H724 N721 0.983 1_554 S
H725 N721 0.985 . S
H726 N720 0.984 . S
H727 N720 0.984 . S
H728 N716 0.984 . S
H729 N716 0.985 . S
C730 C731 1.363 . S
C730 C736 1.379 . S
C730 N738 1.356 . S
C731 C730 1.363 . S
C731 C737 1.363 1_556 S
C732 C733 1.363 1_554 S
C732 C737 1.379 . S
C732 N739 1.356 . S
C733 C732 1.363 1_556 S
C733 C736 1.363 . S
N734 C736 1.356 . S
N734 H746 0.984 . S
N734 H747 0.985 . S
N735 C737 1.356 . S
N735 H740 0.984 . S
N735 H741 0.985 . S
C736 C730 1.379 . S
C736 C733 1.363 . S
C736 N734 1.356 . S
C737 C731 1.363 1_554 S
C737 C732 1.379 . S
C737 N735 1.356 . S
N738 C730 1.356 . S
N738 H744 0.984 . S
N738 H745 0.984 . S
N739 C732 1.356 . S
N739 H742 0.984 . S
N739 H743 0.985 . S
H740 N735 0.984 . S
H741 N735 0.985 . S
H742 N739 0.984 . S
H743 N739 0.985 . S
H744 N738 0.984 . S
H745 N738 0.984 . S
H746 N734 0.984 . S
H747 N734 0.985 . S
C748 C749 1.363 . S
C748 C754 1.379 . S
C748 N756 1.356 . S
C749 C748 1.363 . S
C749 C755 1.363 1_554 S
C750 C751 1.363 1_556 S
C750 C755 1.379 . S
C750 N757 1.356 . S
C751 C750 1.363 1_554 S
C751 C754 1.363 . S
N752 C754 1.356 . S
N752 H764 0.984 . S
N752 H765 0.985 . S
N753 C755 1.356 . S
N753 H758 0.984 . S
N753 H759 0.985 . S
C754 C748 1.379 . S
C754 C751 1.363 . S
C754 N752 1.356 . S
C755 C749 1.363 1_556 S
C755 C750 1.379 . S
C755 N753 1.356 . S
N756 C748 1.356 . S
N756 H762 0.984 . S
N756 H763 0.984 . S
N757 C750 1.356 . S
N757 H760 0.984 . S
N757 H761 0.985 . S
H758 N753 0.984 . S
H759 N753 0.985 . S
H760 N757 0.984 . S
H761 N757 0.985 . S
H762 N756 0.984 . S
H763 N756 0.984 . S
H764 N752 0.984 . S
H765 N752 0.985 . S
C766 C767 1.363 1_554 S
C766 C772 1.379 . S
C766 N774 1.356 . S
C767 C766 1.363 1_556 S
C767 C773 1.363 . S
C768 C769 1.363 . S
C768 C773 1.379 . S
C768 N775 1.356 . S
C769 C768 1.363 . S
C769 C772 1.363 1_556 S
N770 C772 1.356 . S
N770 H782 0.984 . S
N770 H783 0.985 . S
N771 C773 1.356 . S
N771 H776 0.984 . S
N771 H777 0.985 . S
C772 C766 1.379 . S
C772 C769 1.363 1_554 S
C772 N770 1.356 . S
C773 C767 1.363 . S
C773 C768 1.379 . S
C773 N771 1.356 . S
N774 C766 1.356 . S
N774 H780 0.984 . S
N774 H781 0.984 . S
N775 C768 1.356 . S
N775 H778 0.984 . S
N775 H779 0.985 . S
H776 N771 0.984 . S
H777 N771 0.985 . S
H778 N775 0.984 . S
H779 N775 0.985 . S
H780 N774 0.984 . S
H781 N774 0.984 . S
H782 N770 0.984 . S
H783 N770 0.985 . S
C784 C785 1.363 1_565 S
C784 C790 1.379 1_565 S
C784 N792 1.356 . S
C785 C784 1.363 1_545 S
C785 C791 1.363 . S
C786 C787 1.363 . S
C786 C791 1.379 . S
C786 N793 1.356 . S
C787 C786 1.363 . S
C787 C790 1.363 . S
N788 C790 1.356 . S
N788 H800 0.984 1_545 S
N788 H801 0.985 . S
N789 C791 1.356 . S
N789 H794 0.984 . S
N789 H795 0.985 . S
C790 C784 1.379 1_545 S
C790 C787 1.363 . S
C790 N788 1.356 . S
C791 C785 1.363 . S
C791 C786 1.379 . S
C791 N789 1.356 . S
N792 C784 1.356 . S
N792 H798 0.984 . S
N792 H799 0.984 . S
N793 C786 1.356 . S
N793 H796 0.984 . S
N793 H797 0.985 . S
H794 N789 0.984 . S
H795 N789 0.985 . S
H796 N793 0.984 . S
H797 N793 0.985 . S
H798 N792 0.984 . S
H799 N792 0.984 . S
H800 N788 0.984 1_565 S
H801 N788 0.985 . S
C802 C803 1.363 . S
C802 C808 1.379 . S
C802 N810 1.356 . S
C803 C802 1.363 . S
C803 C809 1.363 1_455 S
C804 C805 1.363 . S
C804 C809 1.379 1_455 S
C804 N811 1.356 . S
C805 C804 1.363 . S
C805 C808 1.363 . S
N806 C808 1.356 . S
N806 H818 0.984 . S
N806 H819 0.985 . S
N807 C809 1.356 . S
N807 H812 0.984 . S
N807 H813 0.985 . S
C808 C802 1.379 . S
C808 C805 1.363 . S
C808 N806 1.356 . S
C809 C803 1.363 1_655 S
C809 C804 1.379 1_655 S
C809 N807 1.356 . S
N810 C802 1.356 . S
N810 H816 0.984 . S
N810 H817 0.984 . S
N811 C804 1.356 . S
N811 H814 0.984 . S
N811 H815 0.985 . S
H812 N807 0.984 . S
H813 N807 0.985 . S
H814 N811 0.984 . S
H815 N811 0.985 . S
H816 N810 0.984 . S
H817 N810 0.984 . S
H818 N806 0.984 . S
H819 N806 0.985 . S
C820 C821 1.363 . S
C820 C826 1.379 1_565 S
C820 N828 1.356 . S
C821 C820 1.363 . S
C821 C827 1.363 . S
C822 C823 1.363 . S
C822 C827 1.379 . S
C822 N829 1.356 . S
C823 C822 1.363 . S
C823 C826 1.363 1_565 S
N824 C826 1.356 . S
N824 H836 0.984 . S
N824 H837 0.985 . S
N825 C827 1.356 . S
N825 H830 0.984 . S
N825 H831 0.985 . S
C826 C820 1.379 1_545 S
C826 C823 1.363 1_545 S
C826 N824 1.356 . S
C827 C821 1.363 . S
C827 C822 1.379 . S
C827 N825 1.356 . S
N828 C820 1.356 . S
N828 H834 0.984 1_565 S
N828 H835 0.984 . S
N829 C822 1.356 . S
N829 H832 0.984 . S
N829 H833 0.985 . S
H830 N825 0.984 . S
H831 N825 0.985 . S
H832 N829 0.984 . S
H833 N829 0.985 . S
H834 N828 0.984 1_545 S
H835 N828 0.984 . S
H836 N824 0.984 . S
H837 N824 0.985 . S
C838 C839 1.363 . S
C838 C844 1.379 . S
C838 N846 1.356 . S
C839 C838 1.363 . S
C839 C845 1.363 . S
C840 C841 1.363 1_455 S
C840 C845 1.379 1_455 S
C840 N847 1.356 . S
C841 C840 1.363 1_655 S
C841 C844 1.363 . S
N842 C844 1.356 . S
N842 H854 0.984 . S
N842 H855 0.985 . S
N843 C845 1.356 . S
N843 H848 0.984 . S
N843 H849 0.985 . S
C844 C838 1.379 . S
C844 C841 1.363 . S
C844 N842 1.356 . S
C845 C839 1.363 . S
C845 C840 1.379 1_655 S
C845 N843 1.356 . S
N846 C838 1.356 . S
N846 H852 0.984 . S
N846 H853 0.984 . S
N847 C840 1.356 . S
N847 H850 0.984 . S
N847 H851 0.985 . S
H848 N843 0.984 . S
H849 N843 0.985 . S
H850 N847 0.984 . S
H851 N847 0.985 . S
H852 N846 0.984 . S
H853 N846 0.984 . S
H854 N842 0.984 . S
H855 N842 0.985 . S
C856 C857 1.363 . S
C856 C862 1.379 . S
C856 N864 1.356 . S
C857 C856 1.363 . S
C857 C863 1.363 1_545 S
C858 C859 1.363 . S
C858 C863 1.379 1_545 S
C858 N865 1.356 . S
C859 C858 1.363 . S
C859 C862 1.363 . S
N860 C862 1.356 . S
N860 H872 0.984 . S
N860 H873 0.985 . S
N861 C863 1.356 . S
N861 H866 0.984 . S
N861 H867 0.985 . S
C862 C856 1.379 . S
C862 C859 1.363 . S
C862 N860 1.356 . S
C863 C857 1.363 1_565 S
C863 C858 1.379 1_565 S
C863 N861 1.356 . S
N864 C856 1.356 . S
N864 H870 0.984 . S
N864 H871 0.984 . S
N865 C858 1.356 . S
N865 H868 0.984 . S
N865 H869 0.985 1_545 S
H866 N861 0.984 . S
H867 N861 0.985 . S
H868 N865 0.984 . S
H869 N865 0.985 1_565 S
H870 N864 0.984 . S
H871 N864 0.984 . S
H872 N860 0.984 . S
H873 N860 0.985 . S
C874 C875 1.363 . S
C874 C880 1.372 1_455 S
C874 N882 1.356 . S
C875 C874 1.363 . S
C875 C881 1.363 . S
C876 C877 1.363 . S
C876 C881 1.379 . S
C876 N883 1.356 . S
C877 C876 1.363 . S
C877 C880 1.361 1_455 S
N878 C880 1.366 . S
N878 H890 0.984 . S
N878 H891 0.985 . S
N879 C881 1.356 . S
N879 H884 0.984 . S
N879 H885 0.985 . S
C880 C874 1.372 1_655 S
C880 C877 1.361 1_655 S
C880 N878 1.366 . S
C881 C875 1.363 . S
C881 C876 1.379 . S
C881 N879 1.356 . S
N882 C874 1.356 . S
N882 H888 0.984 . S
N882 H889 0.984 . S
N883 C876 1.356 . S
N883 H886 0.984 . S
N883 H887 0.985 . S
H884 N879 0.984 . S
H885 N879 0.985 . S
H886 N883 0.984 . S
H887 N883 0.985 . S
H888 N882 0.984 . S
H889 N882 0.984 . S
H890 N878 0.984 . S
H891 N878 0.985 . S
C892 C893 1.363 . S
C892 C898 1.379 . S
C892 N900 1.356 . S
C893 C892 1.363 . S
C893 C899 1.363 . S
C894 C895 1.363 . S
C894 C899 1.379 . S
C894 N901 1.356 . S
C895 C894 1.363 . S
C895 C898 1.363 . S
N896 C898 1.356 1_545 S
N896 H908 0.984 . S
N896 H909 0.985 . S
N897 C899 1.356 . S
N897 H902 0.984 . S
N897 H903 0.985 . S
C898 C892 1.379 . S
C898 C895 1.363 . S
C898 N896 1.356 1_565 S
C899 C893 1.363 . S
C899 C894 1.379 . S
C899 N897 1.356 . S
N900 C892 1.356 . S
N900 H906 0.984 . S
N900 H907 0.984 . S
N901 C894 1.356 . S
N901 H904 0.984 1_565 S
N901 H905 0.985 . S
H902 N897 0.984 . S
H903 N897 0.985 . S
H904 N901 0.984 1_545 S
H905 N901 0.985 . S
H906 N900 0.984 . S
H907 N900 0.984 . S
H908 N896 0.984 . S
H909 N896 0.985 . S
C910 C911 1.363 . S
C910 C916 1.379 . S
C910 N918 1.356 . S
C911 C910 1.363 . S
C911 C917 1.363 1_655 S
C912 C913 1.363 . S
C912 C917 1.379 1_655 S
C912 N919 1.356 . S
C913 C912 1.363 . S
C913 C916 1.363 . S
N914 C916 1.356 . S
N914 H926 0.984 . S
N914 H927 0.985 . S
N915 C917 1.356 . S
N915 H920 0.984 . S
N915 H921 0.985 . S
C916 C910 1.379 . S
C916 C913 1.363 . S
C916 N914 1.356 . S
C917 C911 1.363 1_455 S
C917 C912 1.379 1_455 S
C917 N915 1.356 . S
N918 C910 1.356 . S
N918 H924 0.984 . S
N918 H925 0.984 . S
N919 C912 1.356 . S
N919 H922 0.984 . S
N919 H923 0.985 . S
H920 N915 0.984 . S
H921 N915 0.985 . S
H922 N919 0.984 . S
H923 N919 0.985 . S
H924 N918 0.984 . S
H925 N918 0.984 . S
H926 N914 0.984 . S
H927 N914 0.985 . S
C928 C929 1.363 . S
C928 C934 1.379 . S
C928 N936 1.356 . S
C929 C928 1.363 . S
C929 C935 1.363 . S
C930 C931 1.363 . S
C930 C935 1.379 . S
C930 N937 1.356 . S
C931 C930 1.363 . S
C931 C934 1.363 . S
N932 C934 1.356 . S
N932 H944 0.984 . S
N932 H945 0.985 . S
N933 C935 1.356 . S
N933 H938 0.984 . S
N933 H939 0.985 . S
C934 C928 1.379 . S
C934 C931 1.363 . S
C934 N932 1.356 . S
C935 C929 1.363 . S
C935 C930 1.379 . S
C935 N933 1.356 . S
N936 C928 1.356 . S
N936 H942 0.984 . S
N936 H943 0.984 . S
N937 C930 1.356 . S
N937 H940 0.984 . S
N937 H941 0.985 . S
H938 N933 0.984 . S
H939 N933 0.985 . S
H940 N937 0.984 . S
H941 N937 0.985 . S
H942 N936 0.984 . S
H943 N936 0.984 . S
H944 N932 0.984 . S
H945 N932 0.985 . S
C946 C947 1.363 . S
C946 C952 1.379 . S
C946 N954 1.356 . S
C947 C946 1.363 . S
C947 C953 1.363 . S
C948 C949 1.363 . S
C948 C953 1.379 . S
C948 N955 1.356 . S
C949 C948 1.363 . S
C949 C952 1.363 . S
N950 C952 1.356 . S
N950 H962 0.984 . S
N950 H963 0.985 . S
N951 C953 1.356 . S
N951 H956 0.984 . S
N951 H957 0.985 . S
C952 C946 1.379 . S
C952 C949 1.363 . S
C952 N950 1.356 . S
C953 C947 1.363 . S
C953 C948 1.379 . S
C953 N951 1.356 . S
N954 C946 1.356 . S
N954 H960 0.984 . S
N954 H961 0.984 . S
N955 C948 1.356 . S
N955 H958 0.984 . S
N955 H959 0.985 . S
H956 N951 0.984 . S
H957 N951 0.985 . S
H958 N955 0.984 . S
H959 N955 0.985 . S
H960 N954 0.984 . S
H961 N954 0.984 . S
H962 N950 0.984 . S
H963 N950 0.985 . S
C964 C965 1.363 . S
C964 C970 1.379 . S
C964 N972 1.356 . S
C965 C964 1.363 . S
C965 C971 1.363 . S
C966 C967 1.363 . S
C966 C971 1.379 . S
C966 N973 1.356 . S
C967 C966 1.363 . S
C967 C970 1.363 . S
N968 C970 1.356 . S
N968 H980 0.984 . S
N968 H981 0.985 . S
N969 C971 1.356 . S
N969 H974 0.984 . S
N969 H975 0.985 . S
C970 C964 1.379 . S
C970 C967 1.363 . S
C970 N968 1.356 . S
C971 C965 1.363 . S
C971 C966 1.379 . S
C971 N969 1.356 . S
N972 C964 1.356 . S
N972 H978 0.984 . S
N972 H979 0.984 . S
N973 C966 1.356 . S
N973 H976 0.984 . S
N973 H977 0.985 . S
H974 N969 0.984 . S
H975 N969 0.985 . S
H976 N973 0.984 . S
H977 N973 0.985 . S
H978 N972 0.984 . S
H979 N972 0.984 . S
H980 N968 0.984 . S
H981 N968 0.985 . S
C982 C983 1.363 . S
C982 C988 1.379 . S
C982 N990 1.356 . S
C983 C982 1.363 . S
C983 C989 1.363 . S
C984 C985 1.363 . S
C984 C989 1.379 . S
C984 N991 1.356 . S
C985 C984 1.363 . S
C985 C988 1.363 . S
N986 C988 1.356 . S
N986 H998 0.984 . S
N986 H999 0.985 . S
N987 C989 1.356 . S
N987 H992 0.984 . S
N987 H993 0.985 . S
C988 C982 1.379 . S
C988 C985 1.363 . S
C988 N986 1.356 . S
C989 C983 1.363 . S
C989 C984 1.379 . S
C989 N987 1.356 . S
N990 C982 1.356 . S
N990 H996 0.984 . S
N990 H997 0.984 . S
N991 C984 1.356 . S
N991 H994 0.984 . S
N991 H995 0.985 . S
H992 N987 0.984 . S
H993 N987 0.985 . S
H994 N991 0.984 . S
H995 N991 0.985 . S
H996 N990 0.984 . S
H997 N990 0.984 . S
H998 N986 0.984 . S
H999 N986 0.985 . S
C1000 C1001 1.363 . S
C1000 C1006 1.379 . S
C1000 N1008 1.356 . S
C1001 C1000 1.363 . S
C1001 C1007 1.363 . S
C1002 C1003 1.363 . S
C1002 C1007 1.379 . S
C1002 N1009 1.356 . S
C1003 C1002 1.363 . S
C1003 C1006 1.363 . S
N1004 C1006 1.356 . S
N1004 H1016 0.984 . S
N1004 H1017 0.985 . S
N1005 C1007 1.356 . S
N1005 H1010 0.984 . S
N1005 H1011 0.985 . S
C1006 C1000 1.379 . S
C1006 C1003 1.363 . S
C1006 N1004 1.356 . S
C1007 C1001 1.363 . S
C1007 C1002 1.379 . S
C1007 N1005 1.356 . S
N1008 C1000 1.356 . S
N1008 H1014 0.984 . S
N1008 H1015 0.984 . S
N1009 C1002 1.356 . S
N1009 H1012 0.984 . S
N1009 H1013 0.985 . S
H1010 N1005 0.984 . S
H1011 N1005 0.985 . S
H1012 N1009 0.984 . S
H1013 N1009 0.985 . S
H1014 N1008 0.984 . S
H1015 N1008 0.984 . S
H1016 N1004 0.984 . S
H1017 N1004 0.985 . S
C1018 C1019 1.363 . S
C1018 C1024 1.379 . S
C1018 N1026 1.356 . S
C1019 C1018 1.363 . S
C1019 C1025 1.363 . S
C1020 C1021 1.363 . S
C1020 C1025 1.379 . S
C1020 N1027 1.356 . S
C1021 C1020 1.363 . S
C1021 C1024 1.363 . S
N1022 C1024 1.356 . S
N1022 H1034 0.984 . S
N1022 H1035 0.985 . S
N1023 C1025 1.356 . S
N1023 H1028 0.984 . S
N1023 H1029 0.985 . S
C1024 C1018 1.379 . S
C1024 C1021 1.363 . S
C1024 N1022 1.356 . S
C1025 C1019 1.363 . S
C1025 C1020 1.379 . S
C1025 N1023 1.356 . S
N1026 C1018 1.356 . S
N1026 H1032 0.984 . S
N1026 H1033 0.984 . S
N1027 C1020 1.356 . S
N1027 H1030 0.984 . S
N1027 H1031 0.985 . S
H1028 N1023 0.984 . S
H1029 N1023 0.985 . S
H1030 N1027 0.984 . S
H1031 N1027 0.985 . S
H1032 N1026 0.984 . S
H1033 N1026 0.984 . S
H1034 N1022 0.984 . S
H1035 N1022 0.985 . S
C1036 C1037 1.363 . S
C1036 C1042 1.379 . S
C1036 N1044 1.356 . S
C1037 C1036 1.363 . S
C1037 C1043 1.363 . S
C1038 C1039 1.363 . S
C1038 C1043 1.379 . S
C1038 N1045 1.356 . S
C1039 C1038 1.363 . S
C1039 C1042 1.363 . S
N1040 C1042 1.356 . S
N1040 H1052 0.984 . S
N1040 H1053 0.985 . S
N1041 C1043 1.356 . S
N1041 H1046 0.984 . S
N1041 H1047 0.985 . S
C1042 C1036 1.379 . S
C1042 C1039 1.363 . S
C1042 N1040 1.356 . S
C1043 C1037 1.363 . S
C1043 C1038 1.379 . S
C1043 N1041 1.356 . S
N1044 C1036 1.356 . S
N1044 H1050 0.984 . S
N1044 H1051 0.984 . S
N1045 C1038 1.356 . S
N1045 H1048 0.984 . S
N1045 H1049 0.985 . S
H1046 N1041 0.984 . S
H1047 N1041 0.985 . S
H1048 N1045 0.984 . S
H1049 N1045 0.985 . S
H1050 N1044 0.984 . S
H1051 N1044 0.984 . S
H1052 N1040 0.984 . S
H1053 N1040 0.985 . S
C1054 C1055 1.363 . S
C1054 C1060 1.379 . S
C1054 N1062 1.356 . S
C1055 C1054 1.363 . S
C1055 C1061 1.363 . S
C1056 C1057 1.363 . S
C1056 C1061 1.379 . S
C1056 N1063 1.356 . S
C1057 C1056 1.363 . S
C1057 C1060 1.363 . S
N1058 C1060 1.356 . S
N1058 H1070 0.984 . S
N1058 H1071 0.985 . S
N1059 C1061 1.356 . S
N1059 H1064 0.984 . S
N1059 H1065 0.985 . S
C1060 C1054 1.379 . S
C1060 C1057 1.363 . S
C1060 N1058 1.356 . S
C1061 C1055 1.363 . S
C1061 C1056 1.379 . S
C1061 N1059 1.356 . S
N1062 C1054 1.356 . S
N1062 H1068 0.984 . S
N1062 H1069 0.984 . S
N1063 C1056 1.356 . S
N1063 H1066 0.984 . S
N1063 H1067 0.985 . S
H1064 N1059 0.984 . S
H1065 N1059 0.985 . S
H1066 N1063 0.984 . S
H1067 N1063 0.985 . S
H1068 N1062 0.984 . S
H1069 N1062 0.984 . S
H1070 N1058 0.984 . S
H1071 N1058 0.985 . S
C1072 C1073 1.363 . S
C1072 C1078 1.379 . S
C1072 N1080 1.356 . S
C1073 C1072 1.363 . S
C1073 C1079 1.363 1_556 S
C1074 C1075 1.363 . S
C1074 C1079 1.379 . S
C1074 N1081 1.356 . S
C1075 C1074 1.363 . S
C1075 C1078 1.363 1_554 S
N1076 C1078 1.356 1_554 S
N1076 H1088 0.984 1_554 S
N1076 H1089 0.985 . S
N1077 C1079 1.356 1_556 S
N1077 H1082 0.984 . S
N1077 H1083 0.985 1_556 S
C1078 C1072 1.379 . S
C1078 C1075 1.363 1_556 S
C1078 N1076 1.356 1_556 S
C1079 C1073 1.363 1_554 S
C1079 C1074 1.379 . S
C1079 N1077 1.356 1_554 S
N1080 C1072 1.356 . S
N1080 H1086 0.984 . S
N1080 H1087 0.984 . S
N1081 C1074 1.356 . S
N1081 H1084 0.984 . S
N1081 H1085 0.985 . S
H1082 N1077 0.984 . S
H1083 N1077 0.985 1_554 S
H1084 N1081 0.984 . S
H1085 N1081 0.985 . S
H1086 N1080 0.984 . S
H1087 N1080 0.984 . S
H1088 N1076 0.984 1_556 S
H1089 N1076 0.985 . S
C1090 C1091 1.363 1_556 S
C1090 C1096 1.379 . S
C1090 N1098 1.356 . S
C1091 C1090 1.363 1_554 S
C1091 C1097 1.363 . S
C1092 C1093 1.363 1_554 S
C1092 C1097 1.379 . S
C1092 N1099 1.356 . S
C1093 C1092 1.363 1_556 S
C1093 C1096 1.363 . S
N1094 C1096 1.356 . S
N1094 H1106 0.984 . S
N1094 H1107 0.985 . S
N1095 C1097 1.356 . S
N1095 H1100 0.984 . S
N1095 H1101 0.985 . S
C1096 C1090 1.379 . S
C1096 C1093 1.363 . S
C1096 N1094 1.356 . S
C1097 C1091 1.363 . S
C1097 C1092 1.379 . S
C1097 N1095 1.356 . S
N1098 C1090 1.356 . S
N1098 H1104 0.984 . S
N1098 H1105 0.984 . S
N1099 C1092 1.356 . S
N1099 H1102 0.984 . S
N1099 H1103 0.985 . S
H1100 N1095 0.984 . S
H1101 N1095 0.985 . S
H1102 N1099 0.984 . S
H1103 N1099 0.985 . S
H1104 N1098 0.984 . S
H1105 N1098 0.984 . S
H1106 N1094 0.984 . S
H1107 N1094 0.985 . S
C1108 C1109 1.363 . S
C1108 C1114 1.379 . S
C1108 N1116 1.356 . S
C1109 C1108 1.363 . S
C1109 C1115 1.363 1_554 S
C1110 C1111 1.363 . S
C1110 C1115 1.379 . S
C1110 N1117 1.356 . S
C1111 C1110 1.363 . S
C1111 C1114 1.363 1_556 S
N1112 C1114 1.356 . S
N1112 H1124 0.984 . S
N1112 H1125 0.985 . S
N1113 C1115 1.356 . S
N1113 H1118 0.984 . S
N1113 H1119 0.985 . S
C1114 C1108 1.379 . S
C1114 C1111 1.363 1_554 S
C1114 N1112 1.356 . S
C1115 C1109 1.363 1_556 S
C1115 C1110 1.379 . S
C1115 N1113 1.356 . S
N1116 C1108 1.356 . S
N1116 H1122 0.984 . S
N1116 H1123 0.984 . S
N1117 C1110 1.356 . S
N1117 H1120 0.984 . S
N1117 H1121 0.985 . S
H1118 N1113 0.984 . S
H1119 N1113 0.985 . S
H1120 N1117 0.984 . S
H1121 N1117 0.985 . S
H1122 N1116 0.984 . S
H1123 N1116 0.984 . S
H1124 N1112 0.984 . S
H1125 N1112 0.985 . S
C1126 C1127 1.363 1_556 S
C1126 C1132 1.379 . S
C1126 N1134 1.356 . S
C1127 C1126 1.363 1_554 S
C1127 C1133 1.363 . S
C1128 C1129 1.363 1_554 S
C1128 C1133 1.379 . S
C1128 N1135 1.356 . S
C1129 C1128 1.363 1_556 S
C1129 C1132 1.363 . S
N1130 C1132 1.356 . S
N1130 H1142 0.984 . S
N1130 H1143 0.985 . S
N1131 C1133 1.356 . S
N1131 H1136 0.984 . S
N1131 H1137 0.985 . S
C1132 C1126 1.379 . S
C1132 C1129 1.363 . S
C1132 N1130 1.356 . S
C1133 C1127 1.363 . S
C1133 C1128 1.379 . S
C1133 N1131 1.356 . S
N1134 C1126 1.356 . S
N1134 H1140 0.984 . S
N1134 H1141 0.984 1_556 S
N1135 C1128 1.356 . S
N1135 H1138 0.984 1_554 S
N1135 H1139 0.985 . S
H1136 N1131 0.984 . S
H1137 N1131 0.985 . S
H1138 N1135 0.984 1_556 S
H1139 N1135 0.985 . S
H1140 N1134 0.984 . S
H1141 N1134 0.984 1_554 S
H1142 N1130 0.984 . S
H1143 N1130 0.985 . S
C1144 C1145 1.363 . S
C1144 C1150 1.379 . S
C1144 N1152 1.356 . S
C1145 C1144 1.363 . S
C1145 C1151 1.363 . S
C1146 C1147 1.363 . S
C1146 C1151 1.379 . S
C1146 N1153 1.356 . S
C1147 C1146 1.363 . S
C1147 C1150 1.363 . S
N1148 C1150 1.356 . S
N1148 H1160 0.984 . S
N1148 H1161 0.985 . S
N1149 C1151 1.356 . S
N1149 H1154 0.984 . S
N1149 H1155 0.985 . S
C1150 C1144 1.379 . S
C1150 C1147 1.363 . S
C1150 N1148 1.356 . S
C1151 C1145 1.363 . S
C1151 C1146 1.379 . S
C1151 N1149 1.356 . S
N1152 C1144 1.356 . S
N1152 H1158 0.984 . S
N1152 H1159 0.984 . S
N1153 C1146 1.356 . S
N1153 H1156 0.984 . S
N1153 H1157 0.985 . S
H1154 N1149 0.984 . S
H1155 N1149 0.985 . S
H1156 N1153 0.984 . S
H1157 N1153 0.985 . S
H1158 N1152 0.984 . S
H1159 N1152 0.984 . S
H1160 N1148 0.984 . S
H1161 N1148 0.985 . S
C1162 C1163 1.363 . S
C1162 C1168 1.379 . S
C1162 N1170 1.356 . S
C1163 C1162 1.363 . S
C1163 C1169 1.363 . S
C1164 C1165 1.363 . S
C1164 C1169 1.379 . S
C1164 N1171 1.356 . S
C1165 C1164 1.363 . S
C1165 C1168 1.363 . S
N1166 C1168 1.356 . S
N1166 H1178 0.984 . S
N1166 H1179 0.985 . S
N1167 C1169 1.356 . S
N1167 H1172 0.984 . S
N1167 H1173 0.985 . S
C1168 C1162 1.379 . S
C1168 C1165 1.363 . S
C1168 N1166 1.356 . S
C1169 C1163 1.363 . S
C1169 C1164 1.379 . S
C1169 N1167 1.356 . S
N1170 C1162 1.356 . S
N1170 H1176 0.984 . S
N1170 H1177 0.984 . S
N1171 C1164 1.356 . S
N1171 H1174 0.984 . S
N1171 H1175 0.985 . S
H1172 N1167 0.984 . S
H1173 N1167 0.985 . S
H1174 N1171 0.984 . S
H1175 N1171 0.985 . S
H1176 N1170 0.984 . S
H1177 N1170 0.984 . S
H1178 N1166 0.984 . S
H1179 N1166 0.985 . S
C1180 C1181 1.363 . S
C1180 C1186 1.379 . S
C1180 N1188 1.356 . S
C1181 C1180 1.363 . S
C1181 C1187 1.363 . S
C1182 C1183 1.363 . S
C1182 C1187 1.379 . S
C1182 N1189 1.356 . S
C1183 C1182 1.363 . S
C1183 C1186 1.363 . S
N1184 C1186 1.356 . S
N1184 H1196 0.984 . S
N1184 H1197 0.985 . S
N1185 C1187 1.356 . S
N1185 H1190 0.984 . S
N1185 H1191 0.985 . S
C1186 C1180 1.379 . S
C1186 C1183 1.363 . S
C1186 N1184 1.356 . S
C1187 C1181 1.363 . S
C1187 C1182 1.379 . S
C1187 N1185 1.356 . S
N1188 C1180 1.356 . S
N1188 H1194 0.984 . S
N1188 H1195 0.984 . S
N1189 C1182 1.356 . S
N1189 H1192 0.984 . S
N1189 H1193 0.985 . S
H1190 N1185 0.984 . S
H1191 N1185 0.985 . S
H1192 N1189 0.984 . S
H1193 N1189 0.985 . S
H1194 N1188 0.984 . S
H1195 N1188 0.984 . S
H1196 N1184 0.984 . S
H1197 N1184 0.985 . S
C1198 C1199 1.363 . S
C1198 C1204 1.379 . S
C1198 N1206 1.356 . S
C1199 C1198 1.363 . S
C1199 C1205 1.363 . S
C1200 C1201 1.363 . S
C1200 C1205 1.379 . S
C1200 N1207 1.356 . S
C1201 C1200 1.363 . S
C1201 C1204 1.363 . S
N1202 C1204 1.356 . S
N1202 H1214 0.984 . S
N1202 H1215 0.985 . S
N1203 C1205 1.356 . S
N1203 H1208 0.984 . S
N1203 H1209 0.985 . S
C1204 C1198 1.379 . S
C1204 C1201 1.363 . S
C1204 N1202 1.356 . S
C1205 C1199 1.363 . S
C1205 C1200 1.379 . S
C1205 N1203 1.356 . S
N1206 C1198 1.356 . S
N1206 H1212 0.984 . S
N1206 H1213 0.984 . S
N1207 C1200 1.356 . S
N1207 H1210 0.984 . S
N1207 H1211 0.985 . S
H1208 N1203 0.984 . S
H1209 N1203 0.985 . S
H1210 N1207 0.984 . S
H1211 N1207 0.985 . S
H1212 N1206 0.984 . S
H1213 N1206 0.984 . S
H1214 N1202 0.984 . S
H1215 N1202 0.985 . S
C353 C8 1.339 . S
C355 C118 1.339 . S
C371 C32 1.339 . S
C373 C140 1.339 . S
C389 C162 1.339 . S
C391 C62 1.339 . S
C407 C96 1.339 . S
C409 C74 1.339 . S
C425 C294 1.339 . S
C427 C186 1.339 . S
C443 C208 1.339 . S
C445 C316 1.339 . S
C461 C340 1.339 . S
C463 C230 1.339 . S
C479 C272 1.339 . S
C481 C252 1.339 . S
C497 C7 1.569 . S
C499 C37 1.495 1_554 S
C515 C51 1.495 1_556 S
C517 C43 1.569 . S
C533 C87 1.495 1_554 S
C535 C59 1.569 . S
C551 C73 1.569 . S
C553 C21 1.495 1_556 S
C569 C95 1.569 . S
C571 C175 1.495 . S
C587 C109 1.495 . S
C589 C117 1.569 . S
C605 C131 1.495 . S
C607 C139 1.569 . S
C623 C153 1.495 . S
C625 C161 1.569 . S
C641 C197 1.569 . S
C643 C213 1.495 . S
C659 C235 1.495 . S
C661 C219 1.569 . S
C677 C241 1.569 . S
C679 C257 1.495 . S
C695 C263 1.569 . S
C697 C191 1.495 . S
C713 C345 1.495 1_554 S
C715 C271 1.569 . S
C731 C285 1.495 1_556 S
C733 C293 1.569 . S
C749 C307 1.495 1_554 S
C751 C315 1.569 . S
C767 C351 1.569 . S
C769 C329 1.495 1_556 S
C785 C150 1.437 1_545 S
C787 C15 1.441 . S
C803 C172 1.437 1_455 S
C805 C29 1.441 . S
C821 C65 1.441 . S
C823 C106 1.437 1_565 S
C839 C81 1.441 . S
C841 C128 1.437 1_655 S
C857 C54 1.437 1_545 S
C859 C103 1.441 . S
C875 C125 1.441 . S
C877 C84 1.437 1_455 S
C893 C147 1.441 . S
C895 C18 1.437 1_565 S
C911 C30 1.437 1_655 S
C913 C169 1.441 . S
C929 C183 1.441 . S
C931 C326 1.437 . S
C947 C205 1.441 . S
C949 C338 1.437 . S
C965 C282 1.437 . S
C967 C227 1.441 . S
C983 C249 1.441 . S
C985 C304 1.437 . S
C1001 C279 1.441 . S
C1003 C228 1.437 . S
C1019 C301 1.441 . S
C1021 C250 1.437 . S
C1037 C323 1.441 . S
C1039 C184 1.437 . S
C1055 C206 1.437 . S
C1057 C337 1.441 . S
C1073 C348 1.511 . S
C1075 C10 1.511 . S
C1091 C274 1.511 . S
C1093 C40 1.511 . S
C1109 C52 1.511 . S
C1111 C296 1.511 . S
C1127 C318 1.511 . S
C1129 C76 1.511 . S
C1145 C98 1.511 . S
C1147 C216 1.511 . S
C1163 C120 1.511 . S
C1165 C238 1.511 . S
C1181 C260 1.511 . S
C1183 C142 1.511 . S
C1199 C164 1.511 . S
C1201 C194 1.511 . S
