# Generated by pormake.
# Topology msp, (4)-cn, num edge types: 1
# Building blocks:
#     Node 0, Type 0, BuildingBlock: ESEHIV_clean_sbu_0, # of connection points: 4
#     Node 1, Type 0, BuildingBlock: ESEHIV_clean_sbu_0, # of connection points: 4
#     Node 2, Type 0, BuildingBlock: ESEHIV_clean_sbu_0, # of connection points: 4
#     Node 3, Type 0, BuildingBlock: ESEHIV_clean_sbu_0, # of connection points: 4
#     Node 4, Type 0, BuildingBlock: ESEHIV_clean_sbu_0, # of connection points: 4
#     Node 5, Type 0, BuildingBlock: ESEHIV_clean_sbu_0, # of connection points: 4
#     Node 6, Type 0, BuildingBlock: ESEHIV_clean_sbu_0, # of connection points: 4
#     Node 7, Type 0, BuildingBlock: ESEHIV_clean_sbu_0, # of connection points: 4
#     Edge 8, Type (0, 0), BuildingBlock: CIFDUS_clean_linker_0, # of connection points: 2
#     Edge 9, Type (0, 0), BuildingBlock: CIFDUS_clean_linker_0, # of connection points: 2
#     Edge 10, Type (0, 0), BuildingBlock: CIFDUS_clean_linker_0, # of connection points: 2
#     Edge 11, Type (0, 0), BuildingBlock: CIFDUS_clean_linker_0, # of connection points: 2
#     Edge 12, Type (0, 0), BuildingBlock: CIFDUS_clean_linker_0, # of connection points: 2
#     Edge 13, Type (0, 0), BuildingBlock: CIFDUS_clean_linker_0, # of connection points: 2
#     Edge 14, Type (0, 0), BuildingBlock: CIFDUS_clean_linker_0, # of connection points: 2
#     Edge 15, Type (0, 0), BuildingBlock: CIFDUS_clean_linker_0, # of connection points: 2
#     Edge 16, Type (0, 0), BuildingBlock: CIFDUS_clean_linker_0, # of connection points: 2
#     Edge 17, Type (0, 0), BuildingBlock: CIFDUS_clean_linker_0, # of connection points: 2
#     Edge 18, Type (0, 0), BuildingBlock: CIFDUS_clean_linker_0, # of connection points: 2
#     Edge 19, Type (0, 0), BuildingBlock: CIFDUS_clean_linker_0, # of connection points: 2
#     Edge 20, Type (0, 0), BuildingBlock: CIFDUS_clean_linker_0, # of connection points: 2
#     Edge 21, Type (0, 0), BuildingBlock: CIFDUS_clean_linker_0, # of connection points: 2
#     Edge 22, Type (0, 0), BuildingBlock: CIFDUS_clean_linker_0, # of connection points: 2
#     Edge 23, Type (0, 0), BuildingBlock: CIFDUS_clean_linker_0, # of connection points: 2
# Relax obj value: 0.063
# Max RMSD: 0.178
# Mean RMSD: 0.157
data_MOF--net-msp--node1-ESEHIV_clean_sbu_0--edge1-CIFDUS_clean_linker_0
_symmetry_space_group_name_H-M    P1
_symmetry_Int_Tables_number       1
_symmetry_cell_setting            triclinic
loop_
_symmetry_equiv_pos_as_xyz
'x, y, z'
_cell_length_a     19.992038
_cell_length_b     20.292612
_cell_length_c     42.99708
_cell_angle_alpha  90.240708
_cell_angle_beta   98.223793
_cell_angle_gamma 89.484313
loop_
_atom_site_label
_atom_site_type_symbol
_atom_site_fract_x
_atom_site_fract_y
_atom_site_fract_z
_atom_type_partial_charge
Cu0 Cu 0.03629 0.29461 0.3897 0.0
N1 N 0.08146 0.23082 0.41645 0.0
N2 N 0.16156 0.18762 0.45237 0.0
C3 C 0.13302 0.24319 0.43934 0.0
C4 C 0.12548 0.13778 0.43772 0.0
C5 C 0.0761 0.16468 0.41536 0.0
O6 O 1.01905 0.37094 0.4153 0.0
C7 C 0.15301 0.31092 0.35884 0.0
O8 O 0.18747 0.31019 0.3872 0.0
H9 H 0.15097 0.29204 0.44576 0.0
H10 H 0.04059 0.1379 0.39871 0.0
N11 N 0.95211 0.26378 0.37146 0.0
N12 N 0.86279 0.24387 0.3352 0.0
C13 C 0.92926 0.25838 0.34051 0.0
C14 C 0.89851 0.25193 0.38621 0.0
C15 C 0.84327 0.23965 0.3639 0.0
C16 C 0.06341 0.40913 0.42965 0.0
O17 O 0.12624 0.40464 0.42419 0.0
H18 H 0.95991 0.26818 0.32225 0.0
H19 H 0.89909 0.25453 0.41138 0.0
O20 O 0.08867 0.31025 0.35554 0.0
H21 H 0.13612 0.08588 0.44177 0.0
H22 H 0.79249 0.22944 0.36841 0.0
Cu23 Cu 0.51514 0.30559 0.66121 0.0
N24 N 0.49882 0.22836 0.63805 0.0
N25 N 0.44344 0.16695 0.59958 0.0
C26 C 0.46305 0.22804 0.60913 0.0
C27 C 0.46824 0.12687 0.62357 0.0
C28 C 0.50251 0.16504 0.64736 0.0
O29 O 0.50812 0.37413 0.62945 0.0
C30 C 0.44671 0.33056 0.7152 0.0
O31 O 0.50254 0.35779 0.72907 0.0
H32 H 0.44631 0.27271 0.59659 0.0
H33 H 0.52415 0.14851 0.67055 0.0
N34 N 0.60118 0.30451 0.68507 0.0
N35 N 0.68581 0.29123 0.7246 0.0
C36 C 0.62109 0.27636 0.71329 0.0
C37 C 0.65563 0.33674 0.67807 0.0
C38 C 0.70769 0.32903 0.70245 0.0
C39 C 0.52984 0.4329 0.63157 0.0
O40 O 0.55711 0.45618 0.65898 0.0
H41 H 0.58823 0.24741 0.72571 0.0
H42 H 0.65715 0.36466 0.65682 0.0
O43 O 0.44315 0.31049 0.68696 0.0
H44 H 0.45937 0.07443 0.62455 0.0
H45 H 0.75791 0.34932 0.70373 0.0
Cu46 Cu 0.9373 0.67638 0.6547 0.0
N47 N 0.87527 0.64606 0.67955 0.0
N48 N 0.80184 0.65067 0.71407 0.0
C49 C 0.85326 0.68084 0.70286 0.0
C50 C 0.79131 0.59449 0.69718 0.0
C51 C 0.8368 0.59179 0.67586 0.0
O52 O 1.00595 0.72193 0.68303 0.0
C53 C 0.90806 0.76624 0.60278 0.0
O54 O 0.97336 0.76785 0.60166 0.0
H55 H 0.87233 0.72901 0.71029 0.0
H56 H 0.83998 0.55425 0.65818 0.0
N57 N 0.97518 0.60613 0.63468 0.0
N58 N 1.01764 0.54601 0.59833 0.0
C59 C 0.97968 0.59906 0.60382 0.0
C60 C 1.01059 0.55539 0.64904 0.0
C61 C 0.03713 0.51842 0.62671 0.0
C62 C 0.06924 0.71715 0.68241 0.0
O63 O 0.09129 0.68675 0.65877 0.0
H64 H 0.95817 0.63355 0.58593 0.0
H65 H 1.01857 0.54738 0.67416 0.0
O66 O 0.88599 0.73285 0.62399 0.0
H67 H 0.75277 0.55853 0.69966 0.0
H68 H 0.06912 0.47514 0.63104 0.0
Cu69 Cu 0.61422 0.70139 0.40426 0.0
N70 N 0.68603 0.67808 0.38315 0.0
N71 N 0.76232 0.6849 0.35011 0.0
C72 C 0.70318 0.70816 0.35763 0.0
C73 C 0.78255 0.63774 0.37159 0.0
C74 C 0.73534 0.6337 0.39195 0.0
O75 O 0.54415 0.73879 0.37341 0.0
C76 C 0.69607 0.80107 0.43613 0.0
O77 O 0.71629 0.81103 0.40881 0.0
H78 H 0.67463 0.74879 0.34593 0.0
H79 H 0.73779 0.60217 0.41231 0.0
N80 N 0.58349 0.62637 0.42257 0.0
N81 N 0.5514 0.55811 0.4583 0.0
C82 C 0.57235 0.6195 0.45256 0.0
C83 C 0.56944 0.56759 0.40881 0.0
C84 C 0.54961 0.52542 0.43073 0.0
C85 C 0.48151 0.72665 0.37222 0.0
O86 O 0.46075 0.69266 0.39489 0.0
H87 H 0.57919 0.65897 0.46969 0.0
H88 H 0.57399 0.55616 0.3846 0.0
O89 O 0.64801 0.7612 0.43794 0.0
H90 H 0.82862 0.60886 0.37283 0.0
H91 H 0.5364 0.47418 0.42675 0.0
Cu92 Cu 0.52591 0.77953 0.88747 0.0
N93 N 0.56908 0.71188 0.91184 0.0
N94 N 0.64134 0.66321 0.94932 0.0
C95 C 0.61302 0.72054 0.93819 0.0
C96 C 0.61321 0.61629 0.92938 0.0
C97 C 0.56873 0.64664 0.90612 0.0
O98 O 0.50745 0.85039 0.91577 0.0
C99 C 0.64405 0.79889 0.8588 0.0
O100 O 0.67669 0.79792 0.88756 0.0
H101 H 0.62469 0.76828 0.94871 0.0
H102 H 0.53967 0.62315 0.88601 0.0
N103 N 0.44237 0.7509 0.86784 0.0
N104 N 0.3539 0.73514 0.83073 0.0
C105 C 0.42001 0.75061 0.83678 0.0
C106 C 0.38895 0.7347 0.88191 0.0
C107 C 0.33417 0.72496 0.85905 0.0
C108 C 0.5481 0.89037 0.93139 0.0
O109 O 0.6111 0.893 0.92609 0.0
H110 H 0.45071 0.7645 0.8191 0.0
H111 H 0.38938 0.7324 0.90707 0.0
O112 O 0.57975 0.79898 0.85453 0.0
H113 H 0.62561 0.56427 0.93085 0.0
H114 H 0.28357 0.71223 0.86295 0.0
Cu115 Cu 1.02346 0.79975 0.16927 0.0
N116 N 0.97986 0.73585 0.1427 0.0
N117 N 0.91636 0.69585 0.09982 0.0
C118 C 0.96172 0.74188 0.11152 0.0
C119 C 0.90763 0.65812 0.12475 0.0
C120 C 0.94683 0.68292 0.15111 0.0
O121 O 0.03926 0.87655 0.14449 0.0
C122 C 0.90655 0.81564 0.19924 0.0
O123 O 0.87334 0.81547 0.17059 0.0
H124 H 0.97871 0.78177 0.09817 0.0
H125 H 0.94694 0.66691 0.17509 0.0
N126 N 0.10772 0.76859 0.18725 0.0
N127 N 0.19716 0.74824 0.22334 0.0
C128 C 0.13089 0.76437 0.21815 0.0
C129 C 0.16082 0.75433 0.17235 0.0
C130 C 0.21622 0.74176 0.1946 0.0
C131 C 0.99516 0.9075 0.12559 0.0
O132 O 0.93092 0.89364 0.12488 0.0
H133 H 0.10061 0.77608 0.23643 0.0
H134 H 0.15976 0.75536 0.14714 0.0
O135 O 0.97084 0.81523 0.20317 0.0
H136 H 0.87148 0.61875 0.12465 0.0
H137 H 0.26678 0.72979 0.19002 0.0
Cu138 Cu 0.44662 0.20831 0.15079 0.0
N139 N 0.37338 0.18732 0.17133 0.0
N140 N 0.29602 0.19512 0.204 0.0
C141 C 0.35676 0.21561 0.19762 0.0
C142 C 0.27422 0.15166 0.18095 0.0
C143 C 0.32188 0.14716 0.16082 0.0
O144 O 0.51835 0.24072 0.18246 0.0
C145 C 0.36794 0.3136 0.12139 0.0
O146 O 0.35148 0.32428 0.14948 0.0
H147 H 0.387 0.25314 0.21075 0.0
H148 H 0.31829 0.1183 0.13945 0.0
N149 N 0.47337 0.13304 0.13039 0.0
N150 N 0.5005 0.06775 0.09208 0.0
C151 C 0.49517 0.13042 0.10213 0.0
C152 C 0.46526 0.06995 0.13853 0.0
C153 C 0.48161 0.02954 0.11483 0.0
C154 C 0.57956 0.22087 0.18545 0.0
O155 O 0.59875 0.18074 0.16431 0.0
H156 H 0.50339 0.17354 0.08846 0.0
H157 H 0.44598 0.0546 0.15959 0.0
O158 O 0.41389 0.27133 0.11816 0.0
H159 H 0.22677 0.12559 0.17846 0.0
H160 H 0.47838 0.97632 0.11398 0.0
Cu161 Cu 0.09058 0.22041 0.90551 0.0
N162 N 0.13747 0.20141 0.87211 0.0
N163 N 0.20522 0.21515 0.83569 0.0
C164 C 0.18687 0.23789 0.8628 0.0
C165 C 0.16599 0.16217 0.82775 0.0
C166 C 0.1242 0.15385 0.85028 0.0
O167 O 1.0049 0.25904 0.88706 0.0
C168 C 0.13181 0.30126 0.95904 0.0
O169 O 0.06961 0.29465 0.96502 0.0
H170 H 0.20681 0.28189 0.87495 0.0
H171 H 0.08562 0.11685 0.85034 0.0
N172 N 0.08003 0.14366 0.92808 0.0
N173 N 0.05881 0.07822 0.96707 0.0
C174 C 0.04334 0.13556 0.95178 0.0
C175 C 0.11932 0.08943 0.9283 0.0
C176 C 0.10643 0.04903 0.95235 0.0
C177 C 0.95885 0.22164 0.87338 0.0
O178 O 0.96697 0.15749 0.876 0.0
H179 H 1.00956 0.17274 0.95903 0.0
H180 H 0.15761 0.08169 0.91323 0.0
O181 O 0.14761 0.27815 0.93353 0.0
H182 H 0.16697 0.13199 0.807 0.0
H183 H 0.13185 0.00293 0.95927 0.0
H184 H 0.14558 0.43308 0.48404 0.0
H185 H 0.94306 0.4676 0.43711 0.0
H186 H 0.91191 0.51816 0.48496 0.0
H187 H 0.94043 0.54507 0.54155 0.0
H188 H 0.14024 0.50076 0.58906 0.0
H189 H 0.1744 0.46132 0.53984 0.0
C190 C 0.09501 0.45286 0.48412 0.0
C191 C 0.04688 0.44734 0.457 0.0
C192 C 0.07679 0.47922 0.51204 0.0
C193 C 0.98105 0.47167 0.45767 0.0
C194 C 0.96319 0.50028 0.48506 0.0
C195 C 0.99153 0.52735 0.54091 0.0
C196 C 0.03773 0.52555 0.56885 0.0
C197 C 1.01028 0.50317 0.51259 0.0
C198 C 0.10366 0.50184 0.56791 0.0
C199 C 0.12325 0.47959 0.53976 0.0
H200 H 0.59597 0.60275 0.51718 0.0
H201 H 0.47112 0.4543 0.46603 0.0
H202 H 0.45032 0.40519 0.51525 0.0
H203 H 0.47156 0.40082 0.57258 0.0
H204 H 0.59552 0.54895 0.62438 0.0
H205 H 0.61102 0.60272 0.57511 0.0
C206 C 0.56342 0.56028 0.51671 0.0
C207 C 0.53593 0.53198 0.48769 0.0
C208 C 0.55126 0.53224 0.54526 0.0
C209 C 0.49428 0.47646 0.48781 0.0
C210 C 0.48189 0.4485 0.51602 0.0
C211 C 0.50152 0.44525 0.57322 0.0
C212 C 0.53266 0.4705 0.60223 0.0
C213 C 0.51085 0.47541 0.54485 0.0
C214 C 0.57088 0.52838 0.60246 0.0
C215 C 0.58008 0.55898 0.57425 0.0
H216 H 0.43028 0.98188 0.0533 0.0
H217 H 0.60532 0.10603 0.06348 0.0
H218 H 0.63545 0.06422 1.0135 0.0
H219 H 0.61391 0.98776 0.96805 0.0
H220 H 0.43379 0.86894 0.95733 0.0
H221 H 0.40335 0.91363 1.00598 0.0
C222 C 0.47492 -0.00035 0.04443 0.0
C223 C 0.51617 0.04606 0.06203 0.0
C224 C 0.49083 0.97645 1.01553 0.0
C225 C 0.57314 0.07007 0.0502 0.0
C226 C 0.59029 0.04608 1.02173 0.0
C227 C 0.56768 0.97219 0.9762 0.0
C228 C 0.52664 0.92455 0.95903 0.0
C229 C 0.54982 -0.00134 1.0043 0.0
C230 C 0.46655 0.90542 0.9699 0.0
C231 C 0.44909 0.93072 0.99789 0.0
H232 H 0.9168 0.97348 0.07798 0.0
H233 H 0.12464 0.93154 0.11602 0.0
H234 H 0.16248 0.98238 0.07052 0.0
H235 H 0.13668 0.03125 1.01801 0.0
H236 H 0.93073 0.0774 0.98011 0.0
H237 H 0.89181 0.03267 1.0274 0.0
C238 C 0.97041 0.97631 0.07655 0.0
C239 C 1.01762 0.94795 0.10035 0.0
C240 C 0.99212 0.0057 0.05014 0.0
C241 C 0.08698 0.95253 0.0981 0.0
C242 C 0.10881 0.98139 0.07196 0.0
C243 C 0.08334 0.03151 1.02025 0.0
C244 C 0.03636 0.0564 0.9956 0.0
C245 C 0.06182 0.00667 0.04754 0.0
C246 C 0.96752 0.05812 0.99887 0.0
C247 C 0.94543 0.03248 1.02582 0.0
H248 H 0.71415 0.19148 0.19859 0.0
H249 H 0.55001 0.28414 0.23811 0.0
H250 H 0.62351 0.29977 0.28792 0.0
H251 H 0.73313 0.28317 0.3211 0.0
H252 H 0.89797 0.19282 0.28168 0.0
H253 H 0.8257 0.18042 0.231 0.0
C254 C 0.69454 0.21556 0.218 0.0
C255 C 0.62641 0.23623 0.21456 0.0
C256 C 0.73715 0.22443 0.24671 0.0
C257 C 0.60213 0.26771 0.23999 0.0
C258 C 0.64408 0.27644 0.26859 0.0
C259 C 0.75303 0.2605 0.30144 0.0
C260 C 0.82055 0.23826 0.30519 0.0
C261 C 0.71135 0.25416 0.27236 0.0
C262 C 0.8462 0.21037 0.27931 0.0
C263 C 0.80484 0.20315 0.25039 0.0
H264 H 0.77679 0.36413 0.7615 0.0
H265 H 0.6805 0.17454 0.75412 0.0
H266 H 0.75285 0.13775 0.80184 0.0
H267 H 0.84983 0.15682 0.84296 0.0
H268 H 0.94533 0.34733 0.85043 0.0
H269 H 0.86644 0.38675 0.80563 0.0
C270 C 0.77166 0.31484 0.77044 0.0
C271 C 0.72416 0.2717 0.75412 0.0
C272 C 0.81323 0.29429 0.79788 0.0
C273 C 0.71675 0.20851 0.7663 0.0
C274 C 0.75827 0.18746 0.79348 0.0
C275 C 0.85285 0.20727 0.83508 0.0
C276 C 0.90401 0.24878 0.84989 0.0
C277 C 0.80757 0.22954 0.80912 0.0
C278 C 0.90665 0.31421 0.83951 0.0
C279 C 0.86177 0.33672 0.81374 0.0
H280 H 0.20589 0.69768 0.69309 0.0
H281 H 0.03914 0.77529 0.73612 0.0
H282 H 0.11342 0.78925 0.78574 0.0
H283 H 0.22374 0.77251 0.818 0.0
H284 H 0.39079 0.69543 0.77555 0.0
H285 H 0.31856 0.68842 0.7246 0.0
C286 C 0.18595 0.71852 0.71318 0.0
C287 C 0.1168 0.73484 0.71085 0.0
C288 C 0.22885 0.72585 0.74187 0.0
C289 C 0.09201 0.76197 0.73718 0.0
C290 C 0.1344 0.76974 0.76567 0.0
C291 C 0.24415 0.754 0.79759 0.0
C292 C 0.31213 0.73366 0.80055 0.0
C293 C 0.20246 0.75044 0.76847 0.0
C294 C 0.33855 0.71133 0.77378 0.0
C295 C 0.29724 0.70719 0.74471 0.0
H296 H 0.34622 0.70271 0.36027 0.0
H297 H 0.51122 0.78498 0.31879 0.0
H298 H 0.43728 0.79938 0.26904 0.0
H299 H 0.32723 0.78399 0.23648 0.0
H300 H 0.16183 0.70295 0.27762 0.0
H301 H 0.23431 0.69285 0.32836 0.0
C302 C 0.36589 0.72439 0.34046 0.0
C303 C 0.43437 0.74233 0.3433 0.0
C304 C 0.32315 0.73226 0.31176 0.0
C305 C 0.45882 0.7706 0.31735 0.0
C306 C 0.41663 0.77863 0.28879 0.0
C307 C 0.30728 0.76379 0.25653 0.0
C308 C 0.23959 0.74354 0.25328 0.0
C309 C 0.34907 0.75862 0.28558 0.0
C310 C 0.2138 0.71892 0.27962 0.0
C311 C 0.25524 0.71303 0.30857 0.0
H312 H 0.34959 0.2458 0.26022 0.0
H313 H 0.16024 0.1974 0.20367 0.0
H314 H 0.09888 0.23378 0.24577 0.0
H315 H 0.09887 0.27527 0.29945 0.0
H316 H 0.28817 0.32234 0.35645 0.0
H317 H 0.34928 0.2923 0.31311 0.0
C318 C 0.2949 0.24389 0.25693 0.0
C319 C 0.25987 0.21824 0.2288 0.0
C320 C 0.25972 0.26509 0.2813 0.0
C321 C 0.18885 0.21557 0.2252 0.0
C322 C 0.15354 0.23693 0.24922 0.0
C323 C 0.15341 0.27994 0.30228 0.0
C324 C 0.1888 0.30105 0.33122 0.0
C325 C 0.18845 0.26123 0.27748 0.0
C326 C 0.25958 0.30618 0.33447 0.0
C327 C 0.29465 0.28875 0.30972 0.0
H328 H 0.44552 0.34258 0.77849 0.0
H329 H 0.32336 0.28009 0.69257 0.0
H330 H 0.23738 0.23979 0.72235 0.0
H331 H 0.19911 0.21695 0.77285 0.0
H332 H 0.32014 0.2785 0.85893 0.0
H333 H 0.404 0.32478 0.82909 0.0
C334 C 0.39973 0.32093 0.76624 0.0
C335 C 0.39131 0.31409 0.73331 0.0
C336 C 0.35045 0.2971 0.78357 0.0
C337 C 0.33153 0.28578 0.71788 0.0
C338 C 0.28227 0.26246 0.7349 0.0
C339 C 0.24402 0.24017 0.78506 0.0
C340 C 0.25376 0.24368 0.81804 0.0
C341 C 0.29177 0.26673 0.76776 0.0
C342 C 0.31145 0.27534 0.83353 0.0
C343 C 0.35946 0.30163 0.81648 0.0
H344 H 0.59607 0.73762 0.8041 0.0
H345 H 0.77598 0.82526 0.85421 0.0
H346 H 0.84073 0.78877 0.81297 0.0
H347 H 0.84743 0.72606 0.76424 0.0
H348 H 0.66868 0.63301 0.71614 0.0
H349 H 0.6024 0.67655 0.75526 0.0
C350 C 0.64919 0.74979 0.80574 0.0
C351 C 0.68108 0.78469 0.83204 0.0
C352 C 0.68652 0.72659 0.78257 0.0
C353 C 0.75025 0.79878 0.83412 0.0
C354 C 0.78733 0.77763 0.81063 0.0
C355 C 0.79386 0.71582 0.76222 0.0
C356 C 0.76308 0.67617 0.73735 0.0
C357 C 0.75623 0.74052 0.78502 0.0
C358 C 0.69378 0.66255 0.73527 0.0
C359 C 0.65576 0.68788 0.7575 0.0
H360 H 0.9599 0.77206 0.25724 0.0
H361 H 0.77121 0.82869 0.20165 0.0
H362 H 0.70967 0.79449 0.24401 0.0
H363 H 0.70907 0.74217 0.29549 0.0
H364 H 0.89784 0.68306 0.35019 0.0
H365 H 0.95957 0.72346 0.30926 0.0
C366 C 0.90539 0.77791 0.25453 0.0
C367 C 0.87023 0.80309 0.22631 0.0
C368 C 0.87022 0.75658 0.27861 0.0
C369 C 0.79952 0.80952 0.22312 0.0
C370 C 0.76427 0.7897 0.24728 0.0
C371 C 0.76373 0.73874 0.29861 0.0
C372 C 0.7986 0.70919 0.32586 0.0
C373 C 0.79901 0.76211 0.27491 0.0
C374 C 0.8695 0.70442 0.32928 0.0
C375 C 0.90496 0.72805 0.30597 0.0
H376 H 0.42848 0.23089 0.54466 0.0
H377 H 0.34906 0.07005 0.59292 0.0
H378 H 0.25634 0.05766 0.54951 0.0
H379 H 0.19093 0.10126 0.50022 0.0
H380 H 0.26973 0.26601 0.45433 0.0
H381 H 0.36869 0.26901 0.49453 0.0
C382 C 0.39105 0.19291 0.54564 0.0
C383 C 0.39527 0.15213 0.57219 0.0
C384 C 0.33703 0.18749 0.52116 0.0
C385 C 0.34726 0.10203 0.57274 0.0
C386 C 0.2938 0.09535 0.54803 0.0
C387 C 0.23036 0.13704 0.49892 0.0
C388 C 0.22252 0.18405 0.47468 0.0
C389 C 0.28713 0.13903 0.52249 0.0
C390 C 0.27387 0.23031 0.47317 0.0
C391 C 0.33068 0.23183 0.49604 0.0
H392 H 0.93357 0.8179 0.54705 0.0
H393 H 0.77104 0.77072 0.59919 0.0
H394 H 0.68881 0.78832 0.55252 0.0
H395 H 0.66478 0.79921 0.49541 0.0
H396 H 0.82646 0.84449 0.4426 0.0
H397 H 0.90664 0.84725 0.49104 0.0
C398 C 0.88009 0.81296 0.54838 0.0
C399 C 0.8588 0.79147 0.57642 0.0
C400 C 0.83272 0.82232 0.52123 0.0
C401 C 0.78913 0.78607 0.5778 0.0
C402 C 0.74187 0.79604 0.55108 0.0
C403 C 0.71727 0.81123 0.49457 0.0
C404 C 0.73979 0.82031 0.46541 0.0
C405 C 0.76335 0.8114 0.5224 0.0
C406 C 0.80775 0.83684 0.46472 0.0
C407 C 0.85385 0.83791 0.49243 0.0
H408 H 0.83792 0.59682 0.07261 0.0
H409 H 0.9013 0.79586 0.05707 0.0
H410 H 0.82526 0.80042 1.00817 0.0
H411 H 0.73543 0.75194 0.97125 0.0
H412 H 0.66513 0.55641 0.9872 0.0
H413 H 0.74922 0.54664 0.03438 0.0
C414 C 0.83518 0.64132 0.05867 0.0
C415 C 0.87563 0.6959 0.06914 0.0
C416 C 0.78961 0.64458 0.03058 0.0
C417 C 0.87194 0.75251 0.05004 0.0
C418 C 0.82773 0.7556 1.02194 0.0
C419 C 0.73795 0.70734 0.98515 0.0
C420 C 0.69327 0.65542 0.976 0.0
C421 C 0.78547 0.70254 1.01233 0.0
C422 C 0.69894 0.5971 0.99373 0.0
C423 C 0.74679 0.59166 1.02078 0.0
H424 H 0.38975 0.30846 0.06036 0.0
H425 H 0.24114 0.3664 0.11903 0.0
H426 H 0.15549 0.3763 0.07282 0.0
H427 H 0.11898 0.35156 1.0169 0.0
H428 H 0.26807 0.29374 0.95838 0.0
H429 H 0.35701 0.30174 1.00321 0.0
C430 C 0.33901 0.32471 0.06298 0.0
C431 C 0.32173 0.33546 0.09319 0.0
C432 C 0.28963 0.32954 0.03632 0.0
C433 C 0.25593 0.35736 0.09611 0.0
C434 C 0.20662 0.36261 0.06967 0.0
C435 C 0.17108 0.34204 1.01379 0.0
C436 C 0.1864 0.32074 0.98441 0.0
C437 C 0.22226 0.34618 0.03981 0.0
C438 C 0.25445 0.30955 0.98076 0.0
C439 C 0.30553 0.31383 1.00645 0.0
loop_
_geom_bond_atom_site_label_1
_geom_bond_atom_site_label_2
_geom_bond_distance
_geom_bond_site_symmetry_2
_ccdc_geom_bond_type
Cu0 N1 1.999 . S
Cu0 O6 1.974 1_455 S
Cu0 N11 1.985 1_455 S
Cu0 O20 1.959 . S
N1 Cu0 1.999 . S
N1 C3 1.263 . S
N1 C5 1.389 . S
N2 C3 1.358 . S
N2 C4 1.400 . S
C3 N1 1.263 . S
C3 N2 1.358 . S
C3 H9 0.930 . S
C4 N2 1.400 . S
C4 C5 1.351 . S
C4 H21 0.930 . S
C5 N1 1.389 . S
C5 C4 1.351 . S
C5 H10 0.930 . S
O6 Cu0 1.974 1_655 S
O6 C16 1.282 . S
C7 O8 1.261 . S
C7 O20 1.251 . S
O8 C7 1.261 . S
H9 C3 0.930 . S
H10 C5 0.930 . S
N11 Cu0 1.985 1_655 S
N11 C13 1.335 . S
N11 C14 1.390 . S
N12 C13 1.345 . S
N12 C15 1.336 . S
C13 N11 1.335 . S
C13 N12 1.345 . S
C13 H18 0.930 . S
C14 N11 1.390 . S
C14 C15 1.346 . S
C14 H19 0.930 . S
C15 N12 1.336 . S
C15 C14 1.346 . S
C15 H22 0.929 . S
C16 O6 1.282 . S
C16 O17 1.216 . S
O17 C16 1.216 . S
H18 C13 0.930 . S
H19 C14 0.930 . S
O20 Cu0 1.959 . S
O20 C7 1.251 . S
H21 C4 0.930 . S
H22 C15 0.929 . S
Cu23 N24 1.999 . S
Cu23 O29 1.974 . S
Cu23 N34 1.985 . S
Cu23 O43 1.959 . S
N24 Cu23 1.999 . S
N24 C26 1.263 . S
N24 C28 1.389 . S
N25 C26 1.358 . S
N25 C27 1.400 . S
C26 N24 1.263 . S
C26 N25 1.358 . S
C26 H32 0.930 . S
C27 N25 1.400 . S
C27 C28 1.351 . S
C27 H44 0.930 . S
C28 N24 1.389 . S
C28 C27 1.351 . S
C28 H33 0.930 . S
O29 Cu23 1.974 . S
O29 C39 1.282 . S
C30 O31 1.261 . S
C30 O43 1.251 . S
O31 C30 1.261 . S
H32 C26 0.930 . S
H33 C28 0.930 . S
N34 Cu23 1.985 . S
N34 C36 1.335 . S
N34 C37 1.390 . S
N35 C36 1.345 . S
N35 C38 1.336 . S
C36 N34 1.335 . S
C36 N35 1.345 . S
C36 H41 0.930 . S
C37 N34 1.390 . S
C37 C38 1.346 . S
C37 H42 0.930 . S
C38 N35 1.336 . S
C38 C37 1.346 . S
C38 H45 0.929 . S
C39 O29 1.282 . S
C39 O40 1.216 . S
O40 C39 1.216 . S
H41 C36 0.930 . S
H42 C37 0.930 . S
O43 Cu23 1.959 . S
O43 C30 1.251 . S
H44 C27 0.930 . S
H45 C38 0.929 . S
Cu46 N47 1.999 . S
Cu46 O52 1.974 . S
Cu46 N57 1.985 . S
Cu46 O66 1.959 . S
N47 Cu46 1.999 . S
N47 C49 1.263 . S
N47 C51 1.389 . S
N48 C49 1.358 . S
N48 C50 1.400 . S
C49 N47 1.263 . S
C49 N48 1.358 . S
C49 H55 0.930 . S
C50 N48 1.400 . S
C50 C51 1.351 . S
C50 H67 0.930 . S
C51 N47 1.389 . S
C51 C50 1.351 . S
C51 H56 0.930 . S
O52 Cu46 1.974 . S
O52 C62 1.282 1_655 S
C53 O54 1.261 . S
C53 O66 1.251 . S
O54 C53 1.261 . S
H55 C49 0.930 . S
H56 C51 0.930 . S
N57 Cu46 1.985 . S
N57 C59 1.335 . S
N57 C60 1.390 1_655 S
N58 C59 1.345 1_455 S
N58 C61 1.336 . S
C59 N57 1.335 . S
C59 N58 1.345 1_655 S
C59 H64 0.930 . S
C60 N57 1.390 1_455 S
C60 C61 1.346 . S
C60 H65 0.930 . S
C61 N58 1.336 . S
C61 C60 1.346 . S
C61 H68 0.929 . S
C62 O52 1.282 1_455 S
C62 O63 1.216 . S
O63 C62 1.216 . S
H64 C59 0.930 . S
H65 C60 0.930 . S
O66 Cu46 1.959 . S
O66 C53 1.251 . S
H67 C50 0.930 . S
H68 C61 0.929 . S
Cu69 N70 1.999 . S
Cu69 O75 1.974 . S
Cu69 N80 1.985 . S
Cu69 O89 1.959 . S
N70 Cu69 1.999 . S
N70 C72 1.263 . S
N70 C74 1.389 . S
N71 C72 1.358 . S
N71 C73 1.400 . S
C72 N70 1.263 . S
C72 N71 1.358 . S
C72 H78 0.930 . S
C73 N71 1.400 . S
C73 C74 1.351 . S
C73 H90 0.930 . S
C74 N70 1.389 . S
C74 C73 1.351 . S
C74 H79 0.930 . S
O75 Cu69 1.974 . S
O75 C85 1.282 . S
C76 O77 1.261 . S
C76 O89 1.251 . S
O77 C76 1.261 . S
H78 C72 0.930 . S
H79 C74 0.930 . S
N80 Cu69 1.985 . S
N80 C82 1.335 . S
N80 C83 1.390 . S
N81 C82 1.345 . S
N81 C84 1.336 . S
C82 N80 1.335 . S
C82 N81 1.345 . S
C82 H87 0.930 . S
C83 N80 1.390 . S
C83 C84 1.346 . S
C83 H88 0.930 . S
C84 N81 1.336 . S
C84 C83 1.346 . S
C84 H91 0.929 . S
C85 O75 1.282 . S
C85 O86 1.216 . S
O86 C85 1.216 . S
H87 C82 0.930 . S
H88 C83 0.930 . S
O89 Cu69 1.959 . S
O89 C76 1.251 . S
H90 C73 0.930 . S
H91 C84 0.929 . S
Cu92 N93 1.999 . S
Cu92 O98 1.974 . S
Cu92 N103 1.985 . S
Cu92 O112 1.959 . S
N93 Cu92 1.999 . S
N93 C95 1.263 . S
N93 C97 1.389 . S
N94 C95 1.358 . S
N94 C96 1.400 . S
C95 N93 1.263 . S
C95 N94 1.358 . S
C95 H101 0.930 . S
C96 N94 1.400 . S
C96 C97 1.351 . S
C96 H113 0.930 . S
C97 N93 1.389 . S
C97 C96 1.351 . S
C97 H102 0.930 . S
O98 Cu92 1.974 . S
O98 C108 1.282 . S
C99 O100 1.261 . S
C99 O112 1.251 . S
O100 C99 1.261 . S
H101 C95 0.930 . S
H102 C97 0.930 . S
N103 Cu92 1.985 . S
N103 C105 1.335 . S
N103 C106 1.390 . S
N104 C105 1.345 . S
N104 C107 1.336 . S
C105 N103 1.335 . S
C105 N104 1.345 . S
C105 H110 0.930 . S
C106 N103 1.390 . S
C106 C107 1.346 . S
C106 H111 0.930 . S
C107 N104 1.336 . S
C107 C106 1.346 . S
C107 H114 0.929 . S
C108 O98 1.282 . S
C108 O109 1.216 . S
O109 C108 1.216 . S
H110 C105 0.930 . S
H111 C106 0.930 . S
O112 Cu92 1.959 . S
O112 C99 1.251 . S
H113 C96 0.930 . S
H114 C107 0.929 . S
Cu115 N116 1.999 . S
Cu115 O121 1.974 1_655 S
Cu115 N126 1.985 1_655 S
Cu115 O135 1.959 . S
N116 Cu115 1.999 . S
N116 C118 1.263 . S
N116 C120 1.389 . S
N117 C118 1.358 . S
N117 C119 1.400 . S
C118 N116 1.263 . S
C118 N117 1.358 . S
C118 H124 0.930 . S
C119 N117 1.400 . S
C119 C120 1.351 . S
C119 H136 0.930 . S
C120 N116 1.389 . S
C120 C119 1.351 . S
C120 H125 0.930 . S
O121 Cu115 1.974 1_455 S
O121 C131 1.282 . S
C122 O123 1.261 . S
C122 O135 1.251 . S
O123 C122 1.261 . S
H124 C118 0.930 . S
H125 C120 0.930 . S
N126 Cu115 1.985 1_455 S
N126 C128 1.335 . S
N126 C129 1.390 . S
N127 C128 1.345 . S
N127 C130 1.336 . S
C128 N126 1.335 . S
C128 N127 1.345 . S
C128 H133 0.930 . S
C129 N126 1.390 . S
C129 C130 1.346 . S
C129 H134 0.930 . S
C130 N127 1.336 . S
C130 C129 1.346 . S
C130 H137 0.929 . S
C131 O121 1.282 . S
C131 O132 1.216 . S
O132 C131 1.216 . S
H133 C128 0.930 . S
H134 C129 0.930 . S
O135 Cu115 1.959 . S
O135 C122 1.251 . S
H136 C119 0.930 . S
H137 C130 0.929 . S
Cu138 N139 1.999 . S
Cu138 O144 1.974 . S
Cu138 N149 1.985 . S
Cu138 O158 1.959 . S
N139 Cu138 1.999 . S
N139 C141 1.263 . S
N139 C143 1.389 . S
N140 C141 1.358 . S
N140 C142 1.400 . S
C141 N139 1.263 . S
C141 N140 1.358 . S
C141 H147 0.930 . S
C142 N140 1.400 . S
C142 C143 1.351 . S
C142 H159 0.930 . S
C143 N139 1.389 . S
C143 C142 1.351 . S
C143 H148 0.930 . S
O144 Cu138 1.974 . S
O144 C154 1.282 . S
C145 O146 1.261 . S
C145 O158 1.251 . S
O146 C145 1.261 . S
H147 C141 0.930 . S
H148 C143 0.930 . S
N149 Cu138 1.985 . S
N149 C151 1.335 . S
N149 C152 1.390 . S
N150 C151 1.345 . S
N150 C153 1.336 . S
C151 N149 1.335 . S
C151 N150 1.345 . S
C151 H156 0.930 . S
C152 N149 1.390 . S
C152 C153 1.346 . S
C152 H157 0.930 . S
C153 N150 1.336 . S
C153 C152 1.346 . S
C153 H160 0.929 . S
C154 O144 1.282 . S
C154 O155 1.216 . S
O155 C154 1.216 . S
H156 C151 0.930 . S
H157 C152 0.930 . S
O158 Cu138 1.959 . S
O158 C145 1.251 . S
H159 C142 0.930 . S
H160 C153 0.929 . S
Cu161 N162 1.999 . S
Cu161 O167 1.974 . S
Cu161 N172 1.985 . S
Cu161 O181 1.959 . S
N162 Cu161 1.999 . S
N162 C164 1.263 . S
N162 C166 1.389 . S
N163 C164 1.358 . S
N163 C165 1.400 . S
C164 N162 1.263 . S
C164 N163 1.358 . S
C164 H170 0.930 . S
C165 N163 1.400 . S
C165 C166 1.351 . S
C165 H182 0.930 . S
C166 N162 1.389 . S
C166 C165 1.351 . S
C166 H171 0.930 . S
O167 Cu161 1.974 . S
O167 C177 1.282 1_455 S
C168 O169 1.261 . S
C168 O181 1.251 . S
O169 C168 1.261 . S
H170 C164 0.930 . S
H171 C166 0.930 . S
N172 Cu161 1.985 . S
N172 C174 1.335 . S
N172 C175 1.390 1_455 S
N173 C174 1.345 1_655 S
N173 C176 1.336 . S
C174 N172 1.335 . S
C174 N173 1.345 1_455 S
C174 H179 0.930 . S
C175 N172 1.390 1_655 S
C175 C176 1.346 . S
C175 H180 0.930 . S
C176 N173 1.336 . S
C176 C175 1.346 . S
C176 H183 0.929 . S
C177 O167 1.282 1_655 S
C177 O178 1.216 . S
O178 C177 1.216 . S
H179 C174 0.930 . S
H180 C175 0.930 . S
O181 Cu161 1.959 . S
O181 C168 1.251 . S
H182 C165 0.930 . S
H183 C176 0.929 . S
H184 C190 0.930 . S
H185 C193 0.930 . S
H186 C194 0.930 . S
H187 C195 0.930 . S
H188 C198 0.930 . S
H189 C199 0.930 . S
C190 H184 0.930 . S
C190 C191 1.355 1_455 S
C190 C192 1.415 . S
C191 C190 1.355 1_655 S
C191 C193 1.419 . S
C192 C190 1.415 . S
C192 C197 1.425 1_455 S
C192 C199 1.409 . S
C193 H185 0.930 . S
C193 C191 1.419 . S
C193 C194 1.362 . S
C194 H186 0.930 . S
C194 C193 1.362 . S
C194 C197 1.409 . S
C195 H187 0.930 . S
C195 C196 1.355 1_655 S
C195 C197 1.415 . S
C196 C195 1.355 1_455 S
C196 C198 1.419 . S
C197 C192 1.425 1_655 S
C197 C194 1.409 . S
C197 C195 1.415 . S
C198 H188 0.930 . S
C198 C196 1.419 . S
C198 C199 1.362 . S
C199 H189 0.930 . S
C199 C192 1.409 . S
C199 C198 1.362 . S
H200 C206 0.930 . S
H201 C209 0.930 . S
H202 C210 0.930 . S
H203 C211 0.930 . S
H204 C214 0.930 . S
H205 C215 0.930 . S
C206 H200 0.930 . S
C206 C207 1.355 . S
C206 C208 1.415 . S
C207 C206 1.355 . S
C207 C209 1.419 . S
C208 C206 1.415 . S
C208 C213 1.425 . S
C208 C215 1.409 . S
C209 H201 0.930 . S
C209 C207 1.419 . S
C209 C210 1.362 . S
C210 H202 0.930 . S
C210 C209 1.362 . S
C210 C213 1.409 . S
C211 H203 0.930 . S
C211 C212 1.355 . S
C211 C213 1.415 . S
C212 C211 1.355 . S
C212 C214 1.419 . S
C213 C208 1.425 . S
C213 C210 1.409 . S
C213 C211 1.415 . S
C214 H204 0.930 . S
C214 C212 1.419 . S
C214 C215 1.362 . S
C215 H205 0.930 . S
C215 C208 1.409 . S
C215 C214 1.362 . S
H216 C222 0.930 . S
H217 C225 0.930 . S
H218 C226 0.930 . S
H219 C227 0.930 . S
H220 C230 0.930 . S
H221 C231 0.930 . S
C222 H216 0.930 . S
C222 C223 1.355 . S
C222 C224 1.415 1_544 S
C223 C222 1.355 . S
C223 C225 1.419 1_554 S
C224 C222 1.415 1_566 S
C224 C229 1.425 . S
C224 C231 1.409 . S
C225 H217 0.930 . S
C225 C223 1.419 1_556 S
C225 C226 1.362 . S
C226 H218 0.930 . S
C226 C225 1.362 . S
C226 C229 1.409 1_545 S
C227 H219 0.930 . S
C227 C228 1.355 . S
C227 C229 1.415 . S
C228 C227 1.355 . S
C228 C230 1.419 . S
C229 C224 1.425 . S
C229 C226 1.409 1_565 S
C229 C227 1.415 . S
C230 H220 0.930 . S
C230 C228 1.419 . S
C230 C231 1.362 . S
C231 H221 0.930 . S
C231 C224 1.409 . S
C231 C230 1.362 . S
H232 C238 0.930 . S
H233 C241 0.930 . S
H234 C242 0.930 . S
H235 C243 0.930 . S
H236 C246 0.930 . S
H237 C247 0.930 . S
C238 H232 0.930 . S
C238 C239 1.355 1_655 S
C238 C240 1.415 . S
C239 C238 1.355 1_455 S
C239 C241 1.419 . S
C240 C238 1.415 . S
C240 C245 1.425 1_655 S
C240 C247 1.409 1_565 S
C241 H233 0.930 . S
C241 C239 1.419 . S
C241 C242 1.362 . S
C242 H234 0.930 . S
C242 C241 1.362 . S
C242 C245 1.409 . S
C243 H235 0.930 . S
C243 C244 1.356 . S
C243 C245 1.415 1_546 S
C244 C243 1.356 . S
C244 C246 1.418 1_456 S
C245 C240 1.425 1_455 S
C245 C242 1.409 . S
C245 C243 1.415 1_564 S
C246 H236 0.930 . S
C246 C244 1.418 1_654 S
C246 C247 1.362 . S
C247 H237 0.930 . S
C247 C240 1.409 1_545 S
C247 C246 1.362 . S
H248 C254 0.930 . S
H249 C257 0.930 . S
H250 C258 0.930 . S
H251 C259 0.930 . S
H252 C262 0.930 . S
H253 C263 0.930 . S
C254 H248 0.930 . S
C254 C255 1.355 . S
C254 C256 1.415 . S
C255 C254 1.355 . S
C255 C257 1.419 . S
C256 C254 1.415 . S
C256 C261 1.425 . S
C256 C263 1.409 . S
C257 H249 0.930 . S
C257 C255 1.419 . S
C257 C258 1.362 . S
C258 H250 0.930 . S
C258 C257 1.362 . S
C258 C261 1.409 . S
C259 H251 0.930 . S
C259 C260 1.355 . S
C259 C261 1.415 . S
C260 C259 1.355 . S
C260 C262 1.419 . S
C261 C256 1.425 . S
C261 C258 1.409 . S
C261 C259 1.415 . S
C262 H252 0.930 . S
C262 C260 1.419 . S
C262 C263 1.362 . S
C263 H253 0.930 . S
C263 C256 1.409 . S
C263 C262 1.362 . S
H264 C270 0.930 . S
H265 C273 0.930 . S
H266 C274 0.930 . S
H267 C275 0.930 . S
H268 C278 0.930 . S
H269 C279 0.930 . S
C270 H264 0.930 . S
C270 C271 1.355 . S
C270 C272 1.415 . S
C271 C270 1.355 . S
C271 C273 1.419 . S
C272 C270 1.415 . S
C272 C277 1.425 . S
C272 C279 1.409 . S
C273 H265 0.930 . S
C273 C271 1.419 . S
C273 C274 1.362 . S
C274 H266 0.930 . S
C274 C273 1.362 . S
C274 C277 1.409 . S
C275 H267 0.930 . S
C275 C276 1.355 . S
C275 C277 1.415 . S
C276 C275 1.355 . S
C276 C278 1.419 . S
C277 C272 1.425 . S
C277 C274 1.409 . S
C277 C275 1.415 . S
C278 H268 0.930 . S
C278 C276 1.419 . S
C278 C279 1.362 . S
C279 H269 0.930 . S
C279 C272 1.409 . S
C279 C278 1.362 . S
H280 C286 0.930 . S
H281 C289 0.930 . S
H282 C290 0.930 . S
H283 C291 0.930 . S
H284 C294 0.930 . S
H285 C295 0.930 . S
C286 H280 0.930 . S
C286 C287 1.355 . S
C286 C288 1.415 . S
C287 C286 1.355 . S
C287 C289 1.419 . S
C288 C286 1.415 . S
C288 C293 1.425 . S
C288 C295 1.409 . S
C289 H281 0.930 . S
C289 C287 1.419 . S
C289 C290 1.362 . S
C290 H282 0.930 . S
C290 C289 1.362 . S
C290 C293 1.409 . S
C291 H283 0.930 . S
C291 C292 1.355 . S
C291 C293 1.415 . S
C292 C291 1.355 . S
C292 C294 1.419 . S
C293 C288 1.425 . S
C293 C290 1.409 . S
C293 C291 1.415 . S
C294 H284 0.930 . S
C294 C292 1.419 . S
C294 C295 1.362 . S
C295 H285 0.930 . S
C295 C288 1.409 . S
C295 C294 1.362 . S
H296 C302 0.930 . S
H297 C305 0.930 . S
H298 C306 0.930 . S
H299 C307 0.930 . S
H300 C310 0.930 . S
H301 C311 0.930 . S
C302 H296 0.930 . S
C302 C303 1.355 . S
C302 C304 1.415 . S
C303 C302 1.355 . S
C303 C305 1.419 . S
C304 C302 1.415 . S
C304 C309 1.425 . S
C304 C311 1.409 . S
C305 H297 0.930 . S
C305 C303 1.419 . S
C305 C306 1.362 . S
C306 H298 0.930 . S
C306 C305 1.362 . S
C306 C309 1.409 . S
C307 H299 0.930 . S
C307 C308 1.355 . S
C307 C309 1.415 . S
C308 C307 1.355 . S
C308 C310 1.419 . S
C309 C304 1.425 . S
C309 C306 1.409 . S
C309 C307 1.415 . S
C310 H300 0.930 . S
C310 C308 1.419 . S
C310 C311 1.362 . S
C311 H301 0.930 . S
C311 C304 1.409 . S
C311 C310 1.362 . S
H312 C318 0.930 . S
H313 C321 0.930 . S
H314 C322 0.930 . S
H315 C323 0.930 . S
H316 C326 0.930 . S
H317 C327 0.930 . S
C318 H312 0.930 . S
C318 C319 1.355 . S
C318 C320 1.415 . S
C319 C318 1.355 . S
C319 C321 1.419 . S
C320 C318 1.415 . S
C320 C325 1.425 . S
C320 C327 1.409 . S
C321 H313 0.930 . S
C321 C319 1.419 . S
C321 C322 1.362 . S
C322 H314 0.930 . S
C322 C321 1.362 . S
C322 C325 1.409 . S
C323 H315 0.930 . S
C323 C324 1.355 . S
C323 C325 1.415 . S
C324 C323 1.355 . S
C324 C326 1.419 . S
C325 C320 1.425 . S
C325 C322 1.409 . S
C325 C323 1.415 . S
C326 H316 0.930 . S
C326 C324 1.419 . S
C326 C327 1.362 . S
C327 H317 0.930 . S
C327 C320 1.409 . S
C327 C326 1.362 . S
H328 C334 0.930 . S
H329 C337 0.930 . S
H330 C338 0.930 . S
H331 C339 0.930 . S
H332 C342 0.930 . S
H333 C343 0.930 . S
C334 H328 0.930 . S
C334 C335 1.355 . S
C334 C336 1.415 . S
C335 C334 1.355 . S
C335 C337 1.419 . S
C336 C334 1.415 . S
C336 C341 1.425 . S
C336 C343 1.409 . S
C337 H329 0.930 . S
C337 C335 1.419 . S
C337 C338 1.362 . S
C338 H330 0.930 . S
C338 C337 1.362 . S
C338 C341 1.409 . S
C339 H331 0.930 . S
C339 C340 1.355 . S
C339 C341 1.415 . S
C340 C339 1.355 . S
C340 C342 1.419 . S
C341 C336 1.425 . S
C341 C338 1.409 . S
C341 C339 1.415 . S
C342 H332 0.930 . S
C342 C340 1.419 . S
C342 C343 1.362 . S
C343 H333 0.930 . S
C343 C336 1.409 . S
C343 C342 1.362 . S
H344 C350 0.930 . S
H345 C353 0.930 . S
H346 C354 0.930 . S
H347 C355 0.930 . S
H348 C358 0.930 . S
H349 C359 0.930 . S
C350 H344 0.930 . S
C350 C351 1.355 . S
C350 C352 1.415 . S
C351 C350 1.355 . S
C351 C353 1.419 . S
C352 C350 1.415 . S
C352 C357 1.425 . S
C352 C359 1.409 . S
C353 H345 0.930 . S
C353 C351 1.419 . S
C353 C354 1.362 . S
C354 H346 0.930 . S
C354 C353 1.362 . S
C354 C357 1.409 . S
C355 H347 0.930 . S
C355 C356 1.355 . S
C355 C357 1.415 . S
C356 C355 1.355 . S
C356 C358 1.419 . S
C357 C352 1.425 . S
C357 C354 1.409 . S
C357 C355 1.415 . S
C358 H348 0.930 . S
C358 C356 1.419 . S
C358 C359 1.362 . S
C359 H349 0.930 . S
C359 C352 1.409 . S
C359 C358 1.362 . S
H360 C366 0.930 . S
H361 C369 0.930 . S
H362 C370 0.930 . S
H363 C371 0.930 . S
H364 C374 0.930 . S
H365 C375 0.930 . S
C366 H360 0.930 . S
C366 C367 1.355 . S
C366 C368 1.415 . S
C367 C366 1.355 . S
C367 C369 1.419 . S
C368 C366 1.415 . S
C368 C373 1.425 . S
C368 C375 1.409 . S
C369 H361 0.930 . S
C369 C367 1.419 . S
C369 C370 1.362 . S
C370 H362 0.930 . S
C370 C369 1.362 . S
C370 C373 1.409 . S
C371 H363 0.930 . S
C371 C372 1.355 . S
C371 C373 1.415 . S
C372 C371 1.355 . S
C372 C374 1.419 . S
C373 C368 1.425 . S
C373 C370 1.409 . S
C373 C371 1.415 . S
C374 H364 0.930 . S
C374 C372 1.419 . S
C374 C375 1.362 . S
C375 H365 0.930 . S
C375 C368 1.409 . S
C375 C374 1.362 . S
H376 C382 0.930 . S
H377 C385 0.930 . S
H378 C386 0.930 . S
H379 C387 0.930 . S
H380 C390 0.930 . S
H381 C391 0.930 . S
C382 H376 0.930 . S
C382 C383 1.355 . S
C382 C384 1.415 . S
C383 C382 1.355 . S
C383 C385 1.419 . S
C384 C382 1.415 . S
C384 C389 1.425 . S
C384 C391 1.409 . S
C385 H377 0.930 . S
C385 C383 1.419 . S
C385 C386 1.362 . S
C386 H378 0.930 . S
C386 C385 1.362 . S
C386 C389 1.409 . S
C387 H379 0.930 . S
C387 C388 1.355 . S
C387 C389 1.415 . S
C388 C387 1.355 . S
C388 C390 1.419 . S
C389 C384 1.425 . S
C389 C386 1.409 . S
C389 C387 1.415 . S
C390 H380 0.930 . S
C390 C388 1.419 . S
C390 C391 1.362 . S
C391 H381 0.930 . S
C391 C384 1.409 . S
C391 C390 1.362 . S
H392 C398 0.930 . S
H393 C401 0.930 . S
H394 C402 0.930 . S
H395 C403 0.930 . S
H396 C406 0.930 . S
H397 C407 0.930 . S
C398 H392 0.930 . S
C398 C399 1.355 . S
C398 C400 1.415 . S
C399 C398 1.355 . S
C399 C401 1.419 . S
C400 C398 1.415 . S
C400 C405 1.425 . S
C400 C407 1.409 . S
C401 H393 0.930 . S
C401 C399 1.419 . S
C401 C402 1.362 . S
C402 H394 0.930 . S
C402 C401 1.362 . S
C402 C405 1.409 . S
C403 H395 0.930 . S
C403 C404 1.355 . S
C403 C405 1.415 . S
C404 C403 1.355 . S
C404 C406 1.419 . S
C405 C400 1.425 . S
C405 C402 1.409 . S
C405 C403 1.415 . S
C406 H396 0.930 . S
C406 C404 1.419 . S
C406 C407 1.362 . S
C407 H397 0.930 . S
C407 C400 1.409 . S
C407 C406 1.362 . S
H408 C414 0.930 . S
H409 C417 0.930 . S
H410 C418 0.930 . S
H411 C419 0.930 . S
H412 C422 0.930 . S
H413 C423 0.930 . S
C414 H408 0.930 . S
C414 C415 1.355 . S
C414 C416 1.415 . S
C415 C414 1.355 . S
C415 C417 1.419 . S
C416 C414 1.415 . S
C416 C421 1.425 1_554 S
C416 C423 1.409 1_554 S
C417 H409 0.930 . S
C417 C415 1.419 . S
C417 C418 1.362 . S
C418 H410 0.930 . S
C418 C417 1.362 . S
C418 C421 1.409 1_554 S
C419 H411 0.930 . S
C419 C420 1.355 . S
C419 C421 1.415 . S
C420 C419 1.355 . S
C420 C422 1.419 . S
C421 C416 1.425 1_556 S
C421 C418 1.409 1_556 S
C421 C419 1.415 . S
C422 H412 0.930 . S
C422 C420 1.419 . S
C422 C423 1.362 . S
C423 H413 0.930 . S
C423 C416 1.409 1_556 S
C423 C422 1.362 . S
H424 C430 0.930 . S
H425 C433 0.930 . S
H426 C434 0.930 . S
H427 C435 0.930 . S
H428 C438 0.930 . S
H429 C439 0.930 . S
C430 H424 0.930 . S
C430 C431 1.355 . S
C430 C432 1.415 . S
C431 C430 1.355 . S
C431 C433 1.419 . S
C432 C430 1.415 . S
C432 C437 1.425 1_554 S
C432 C439 1.409 1_554 S
C433 H425 0.930 . S
C433 C431 1.419 . S
C433 C434 1.362 . S
C434 H426 0.930 . S
C434 C433 1.362 . S
C434 C437 1.409 1_554 S
C435 H427 0.930 . S
C435 C436 1.355 . S
C435 C437 1.415 . S
C436 C435 1.355 . S
C436 C438 1.419 . S
C437 C432 1.425 1_556 S
C437 C434 1.409 1_556 S
C437 C435 1.415 . S
C438 H428 0.930 . S
C438 C436 1.419 . S
C438 C439 1.362 . S
C439 H429 0.930 . S
C439 C432 1.409 1_556 S
C439 C438 1.362 . S
C191 C16 1.737 . S
C196 N58 1.806 . S
C207 N81 1.771 . S
C212 C39 1.669 . S
C223 N150 1.804 . S
C228 C108 1.735 . S
C239 C131 1.738 . S
C244 N173 1.810 1_455 S
C255 C154 1.827 . S
C260 N12 1.792 . S
C271 N35 1.811 . S
C276 C177 1.816 . S
C287 C62 1.827 . S
C292 N104 1.799 . S
C303 C85 1.818 . S
C308 N127 1.811 . S
C319 N140 1.757 . S
C324 C7 1.919 . S
C335 C30 1.944 . S
C340 N163 1.794 . S
C351 C99 1.950 . S
C356 N48 1.802 . S
C367 C122 1.941 . S
C372 N71 1.788 . S
C383 N25 0.937 . S
C388 N2 0.897 . S
C399 C53 0.719 . S
C404 C76 0.719 . S
C415 N117 0.938 . S
C420 N94 0.852 . S
C431 C145 0.675 . S
C436 C168 0.677 . S
