# Generated by pormake.
# Topology cha, (4)-cn, num edge types: 1
# Building blocks:
#     Node 0, Type 0, BuildingBlock: GALJAG_clean_sbu_0, # of connection points: 4
#     Node 1, Type 0, BuildingBlock: GALJAG_clean_sbu_0, # of connection points: 4
#     Node 2, Type 0, BuildingBlock: GALJAG_clean_sbu_0, # of connection points: 4
#     Node 3, Type 0, BuildingBlock: GALJAG_clean_sbu_0, # of connection points: 4
#     Node 4, Type 0, BuildingBlock: GALJAG_clean_sbu_0, # of connection points: 4
#     Node 5, Type 0, BuildingBlock: GALJAG_clean_sbu_0, # of connection points: 4
#     Node 6, Type 0, BuildingBlock: GALJAG_clean_sbu_0, # of connection points: 4
#     Node 7, Type 0, BuildingBlock: GALJAG_clean_sbu_0, # of connection points: 4
#     Node 8, Type 0, BuildingBlock: GALJAG_clean_sbu_0, # of connection points: 4
#     Node 9, Type 0, BuildingBlock: GALJAG_clean_sbu_0, # of connection points: 4
#     Node 10, Type 0, BuildingBlock: GALJAG_clean_sbu_0, # of connection points: 4
#     Node 11, Type 0, BuildingBlock: GALJAG_clean_sbu_0, # of connection points: 4
#     Node 12, Type 0, BuildingBlock: GALJAG_clean_sbu_0, # of connection points: 4
#     Node 13, Type 0, BuildingBlock: GALJAG_clean_sbu_0, # of connection points: 4
#     Node 14, Type 0, BuildingBlock: GALJAG_clean_sbu_0, # of connection points: 4
#     Node 15, Type 0, BuildingBlock: GALJAG_clean_sbu_0, # of connection points: 4
#     Node 16, Type 0, BuildingBlock: GALJAG_clean_sbu_0, # of connection points: 4
#     Node 17, Type 0, BuildingBlock: GALJAG_clean_sbu_0, # of connection points: 4
#     Node 18, Type 0, BuildingBlock: GALJAG_clean_sbu_0, # of connection points: 4
#     Node 19, Type 0, BuildingBlock: GALJAG_clean_sbu_0, # of connection points: 4
#     Node 20, Type 0, BuildingBlock: GALJAG_clean_sbu_0, # of connection points: 4
#     Node 21, Type 0, BuildingBlock: GALJAG_clean_sbu_0, # of connection points: 4
#     Node 22, Type 0, BuildingBlock: GALJAG_clean_sbu_0, # of connection points: 4
#     Node 23, Type 0, BuildingBlock: GALJAG_clean_sbu_0, # of connection points: 4
#     Node 24, Type 0, BuildingBlock: GALJAG_clean_sbu_0, # of connection points: 4
#     Node 25, Type 0, BuildingBlock: GALJAG_clean_sbu_0, # of connection points: 4
#     Node 26, Type 0, BuildingBlock: GALJAG_clean_sbu_0, # of connection points: 4
#     Node 27, Type 0, BuildingBlock: GALJAG_clean_sbu_0, # of connection points: 4
#     Node 28, Type 0, BuildingBlock: GALJAG_clean_sbu_0, # of connection points: 4
#     Node 29, Type 0, BuildingBlock: GALJAG_clean_sbu_0, # of connection points: 4
#     Node 30, Type 0, BuildingBlock: GALJAG_clean_sbu_0, # of connection points: 4
#     Node 31, Type 0, BuildingBlock: GALJAG_clean_sbu_0, # of connection points: 4
#     Node 32, Type 0, BuildingBlock: GALJAG_clean_sbu_0, # of connection points: 4
#     Node 33, Type 0, BuildingBlock: GALJAG_clean_sbu_0, # of connection points: 4
#     Node 34, Type 0, BuildingBlock: GALJAG_clean_sbu_0, # of connection points: 4
#     Node 35, Type 0, BuildingBlock: GALJAG_clean_sbu_0, # of connection points: 4
#     Edge 36, Type (0, 0), BuildingBlock: KIFKEQ_clean_linker_1, # of connection points: 2
#     Edge 37, Type (0, 0), BuildingBlock: KIFKEQ_clean_linker_1, # of connection points: 2
#     Edge 38, Type (0, 0), BuildingBlock: KIFKEQ_clean_linker_1, # of connection points: 2
#     Edge 39, Type (0, 0), BuildingBlock: KIFKEQ_clean_linker_1, # of connection points: 2
#     Edge 40, Type (0, 0), BuildingBlock: KIFKEQ_clean_linker_1, # of connection points: 2
#     Edge 41, Type (0, 0), BuildingBlock: KIFKEQ_clean_linker_1, # of connection points: 2
#     Edge 42, Type (0, 0), BuildingBlock: KIFKEQ_clean_linker_1, # of connection points: 2
#     Edge 43, Type (0, 0), BuildingBlock: KIFKEQ_clean_linker_1, # of connection points: 2
#     Edge 44, Type (0, 0), BuildingBlock: KIFKEQ_clean_linker_1, # of connection points: 2
#     Edge 45, Type (0, 0), BuildingBlock: KIFKEQ_clean_linker_1, # of connection points: 2
#     Edge 46, Type (0, 0), BuildingBlock: KIFKEQ_clean_linker_1, # of connection points: 2
#     Edge 47, Type (0, 0), BuildingBlock: KIFKEQ_clean_linker_1, # of connection points: 2
#     Edge 48, Type (0, 0), BuildingBlock: KIFKEQ_clean_linker_1, # of connection points: 2
#     Edge 49, Type (0, 0), BuildingBlock: KIFKEQ_clean_linker_1, # of connection points: 2
#     Edge 50, Type (0, 0), BuildingBlock: KIFKEQ_clean_linker_1, # of connection points: 2
#     Edge 51, Type (0, 0), BuildingBlock: KIFKEQ_clean_linker_1, # of connection points: 2
#     Edge 52, Type (0, 0), BuildingBlock: KIFKEQ_clean_linker_1, # of connection points: 2
#     Edge 53, Type (0, 0), BuildingBlock: KIFKEQ_clean_linker_1, # of connection points: 2
#     Edge 54, Type (0, 0), BuildingBlock: KIFKEQ_clean_linker_1, # of connection points: 2
#     Edge 55, Type (0, 0), BuildingBlock: KIFKEQ_clean_linker_1, # of connection points: 2
#     Edge 56, Type (0, 0), BuildingBlock: KIFKEQ_clean_linker_1, # of connection points: 2
#     Edge 57, Type (0, 0), BuildingBlock: KIFKEQ_clean_linker_1, # of connection points: 2
#     Edge 58, Type (0, 0), BuildingBlock: KIFKEQ_clean_linker_1, # of connection points: 2
#     Edge 59, Type (0, 0), BuildingBlock: KIFKEQ_clean_linker_1, # of connection points: 2
#     Edge 60, Type (0, 0), BuildingBlock: KIFKEQ_clean_linker_1, # of connection points: 2
#     Edge 61, Type (0, 0), BuildingBlock: KIFKEQ_clean_linker_1, # of connection points: 2
#     Edge 62, Type (0, 0), BuildingBlock: KIFKEQ_clean_linker_1, # of connection points: 2
#     Edge 63, Type (0, 0), BuildingBlock: KIFKEQ_clean_linker_1, # of connection points: 2
#     Edge 64, Type (0, 0), BuildingBlock: KIFKEQ_clean_linker_1, # of connection points: 2
#     Edge 65, Type (0, 0), BuildingBlock: KIFKEQ_clean_linker_1, # of connection points: 2
#     Edge 66, Type (0, 0), BuildingBlock: KIFKEQ_clean_linker_1, # of connection points: 2
#     Edge 67, Type (0, 0), BuildingBlock: KIFKEQ_clean_linker_1, # of connection points: 2
#     Edge 68, Type (0, 0), BuildingBlock: KIFKEQ_clean_linker_1, # of connection points: 2
#     Edge 69, Type (0, 0), BuildingBlock: KIFKEQ_clean_linker_1, # of connection points: 2
#     Edge 70, Type (0, 0), BuildingBlock: KIFKEQ_clean_linker_1, # of connection points: 2
#     Edge 71, Type (0, 0), BuildingBlock: KIFKEQ_clean_linker_1, # of connection points: 2
#     Edge 72, Type (0, 0), BuildingBlock: KIFKEQ_clean_linker_1, # of connection points: 2
#     Edge 73, Type (0, 0), BuildingBlock: KIFKEQ_clean_linker_1, # of connection points: 2
#     Edge 74, Type (0, 0), BuildingBlock: KIFKEQ_clean_linker_1, # of connection points: 2
#     Edge 75, Type (0, 0), BuildingBlock: KIFKEQ_clean_linker_1, # of connection points: 2
#     Edge 76, Type (0, 0), BuildingBlock: KIFKEQ_clean_linker_1, # of connection points: 2
#     Edge 77, Type (0, 0), BuildingBlock: KIFKEQ_clean_linker_1, # of connection points: 2
#     Edge 78, Type (0, 0), BuildingBlock: KIFKEQ_clean_linker_1, # of connection points: 2
#     Edge 79, Type (0, 0), BuildingBlock: KIFKEQ_clean_linker_1, # of connection points: 2
#     Edge 80, Type (0, 0), BuildingBlock: KIFKEQ_clean_linker_1, # of connection points: 2
#     Edge 81, Type (0, 0), BuildingBlock: KIFKEQ_clean_linker_1, # of connection points: 2
#     Edge 82, Type (0, 0), BuildingBlock: KIFKEQ_clean_linker_1, # of connection points: 2
#     Edge 83, Type (0, 0), BuildingBlock: KIFKEQ_clean_linker_1, # of connection points: 2
#     Edge 84, Type (0, 0), BuildingBlock: KIFKEQ_clean_linker_1, # of connection points: 2
#     Edge 85, Type (0, 0), BuildingBlock: KIFKEQ_clean_linker_1, # of connection points: 2
#     Edge 86, Type (0, 0), BuildingBlock: KIFKEQ_clean_linker_1, # of connection points: 2
#     Edge 87, Type (0, 0), BuildingBlock: KIFKEQ_clean_linker_1, # of connection points: 2
#     Edge 88, Type (0, 0), BuildingBlock: KIFKEQ_clean_linker_1, # of connection points: 2
#     Edge 89, Type (0, 0), BuildingBlock: KIFKEQ_clean_linker_1, # of connection points: 2
#     Edge 90, Type (0, 0), BuildingBlock: KIFKEQ_clean_linker_1, # of connection points: 2
#     Edge 91, Type (0, 0), BuildingBlock: KIFKEQ_clean_linker_1, # of connection points: 2
#     Edge 92, Type (0, 0), BuildingBlock: KIFKEQ_clean_linker_1, # of connection points: 2
#     Edge 93, Type (0, 0), BuildingBlock: KIFKEQ_clean_linker_1, # of connection points: 2
#     Edge 94, Type (0, 0), BuildingBlock: KIFKEQ_clean_linker_1, # of connection points: 2
#     Edge 95, Type (0, 0), BuildingBlock: KIFKEQ_clean_linker_1, # of connection points: 2
#     Edge 96, Type (0, 0), BuildingBlock: KIFKEQ_clean_linker_1, # of connection points: 2
#     Edge 97, Type (0, 0), BuildingBlock: KIFKEQ_clean_linker_1, # of connection points: 2
#     Edge 98, Type (0, 0), BuildingBlock: KIFKEQ_clean_linker_1, # of connection points: 2
#     Edge 99, Type (0, 0), BuildingBlock: KIFKEQ_clean_linker_1, # of connection points: 2
#     Edge 100, Type (0, 0), BuildingBlock: KIFKEQ_clean_linker_1, # of connection points: 2
#     Edge 101, Type (0, 0), BuildingBlock: KIFKEQ_clean_linker_1, # of connection points: 2
#     Edge 102, Type (0, 0), BuildingBlock: KIFKEQ_clean_linker_1, # of connection points: 2
#     Edge 103, Type (0, 0), BuildingBlock: KIFKEQ_clean_linker_1, # of connection points: 2
#     Edge 104, Type (0, 0), BuildingBlock: KIFKEQ_clean_linker_1, # of connection points: 2
#     Edge 105, Type (0, 0), BuildingBlock: KIFKEQ_clean_linker_1, # of connection points: 2
#     Edge 106, Type (0, 0), BuildingBlock: KIFKEQ_clean_linker_1, # of connection points: 2
#     Edge 107, Type (0, 0), BuildingBlock: KIFKEQ_clean_linker_1, # of connection points: 2
# Relax obj value: 0.076
# Max RMSD: 0.060
# Mean RMSD: 0.060
data_MOF--net-cha--node1-GALJAG_clean_sbu_0--edge1-KIFKEQ_clean_linker_1
_symmetry_space_group_name_H-M    P1
_symmetry_Int_Tables_number       1
_symmetry_cell_setting            triclinic
loop_
_symmetry_equiv_pos_as_xyz
'x, y, z'
_cell_length_a     59.017569
_cell_length_b     59.015319
_cell_length_c     84.868771
_cell_angle_alpha  90.017686
_cell_angle_beta   89.982299
_cell_angle_gamma 119.99601
loop_
_atom_site_label
_atom_site_type_symbol
_atom_site_fract_x
_atom_site_fract_y
_atom_site_fract_z
_atom_type_partial_charge
In0 In 0.02356 0.29446 0.08946 0.0
O1 O 0.03825 0.32293 0.06834 0.0
O2 O 0.00175 0.28803 0.0663 0.0
C3 C 0.02494 0.32267 0.11502 0.0
C4 C 0.06804 0.29209 0.08993 0.0
C5 C 0.98076 0.24691 0.09312 0.0
O6 O 0.01522 0.32413 0.10208 0.0
O7 O 0.03447 0.3078 0.11481 0.0
O8 O 0.00125 0.25017 0.08634 0.0
O9 O 0.98191 0.26766 0.09807 0.0
C10 C 0.01888 0.30861 0.05971 0.0
O11 O 0.04679 0.27439 0.09566 0.0
O12 O 0.06683 0.31094 0.0838 0.0
In13 In 0.76334 0.76072 0.09095 0.0
O14 O 0.73331 0.73917 0.07113 0.0
O15 O 0.77358 0.7545 0.06616 0.0
C16 C 0.7366 0.73463 0.11705 0.0
C17 C 0.76306 0.80633 0.09057 0.0
C18 C 0.80972 0.76299 0.09502 0.0
O19 O 0.73403 0.72328 0.10401 0.0
O20 O 0.75191 0.75899 0.11672 0.0
O21 O 0.80785 0.7823 0.09035 0.0
O22 O 0.78816 0.74251 0.09771 0.0
C23 C 0.75048 0.74252 0.06106 0.0
O24 O 0.78156 0.80416 0.09635 0.0
O25 O 0.74453 0.78543 0.08501 0.0
In26 In 0.29335 0.02591 0.08957 0.0
O27 O 0.31224 0.04489 0.06619 0.0
O28 O 0.30506 0.00645 0.07013 0.0
C29 C 0.31881 0.02857 0.11664 0.0
C30 C 0.24666 0.98145 0.08817 0.0
C31 C 0.29012 0.0697 0.09199 0.0
O32 O 0.3293 0.0311 0.1033 0.0
O33 O 0.29574 0.02443 0.11619 0.0
O34 O 0.27046 0.04716 0.09385 0.0
O35 O 0.31123 0.07003 0.08902 0.0
C36 C 0.31327 0.02558 0.06079 0.0
O37 O 0.25034 0.00271 0.08232 0.0
O38 O 0.2665 0.9827 0.09463 0.0
In39 In 0.28906 0.02827 0.91553 0.0
O40 O 0.26968 0.05326 0.91786 0.0
O41 O 0.3111 0.07289 0.91627 0.0
C42 C 0.24348 0.98399 0.91019 0.0
C43 C 0.30361 0.02207 0.94482 0.0
C44 C 0.31302 0.02927 0.88823 0.0
O45 O 0.24464 0.00543 0.9135 0.0
O46 O 0.26533 0.98496 0.90949 0.0
O47 O 0.3187 0.02265 0.90115 0.0
O48 O 0.29567 0.03571 0.88921 0.0
C49 C 0.29084 0.07481 0.91751 0.0
O50 O 0.32009 0.03645 0.93462 0.0
O51 O 0.28027 0.01086 0.94018 0.0
In52 In 0.0316 0.28595 0.91268 0.0
O53 O 0.03221 0.31382 0.9321 0.0
O54 O 0.02522 0.27619 0.93865 0.0
C55 C 0.03249 0.31011 0.88553 0.0
C56 C 0.98539 0.24165 0.90928 0.0
C57 C 0.0789 0.28925 0.91154 0.0
O58 O 0.03293 0.31998 0.89884 0.0
O59 O 0.03131 0.2882 0.88604 0.0
O60 O 0.05771 0.26776 0.9115 0.0
O61 O 0.07633 0.30918 0.91233 0.0
C62 C 0.02752 0.29759 0.94307 0.0
O63 O 0.00683 0.24187 0.91036 0.0
O64 O 0.98722 0.26392 0.90976 0.0
In65 In 0.76609 0.76849 0.91705 0.0
O66 O 0.7391 0.75912 0.93844 0.0
O67 O 0.76007 0.73892 0.93653 0.0
C68 C 0.74266 0.75025 0.88878 0.0
C69 C 0.81317 0.77165 0.91578 0.0
C70 C 0.76927 0.81559 0.91915 0.0
O71 O 0.73493 0.73624 0.90104 0.0
O72 O 0.76179 0.77285 0.89091 0.0
O73 O 0.78938 0.81327 0.91806 0.0
O74 O 0.74785 0.79425 0.91931 0.0
C75 C 0.74473 0.7432 0.94463 0.0
O76 O 0.80902 0.78687 0.92421 0.0
O77 O 0.79365 0.75507 0.90801 0.0
In78 In 0.02797 0.76825 0.91279 0.0
O79 O 0.00546 0.79028 0.9153 0.0
O80 O 0.98356 0.74902 0.91248 0.0
C81 C 0.07336 0.81308 0.90837 0.0
C82 C 0.02992 0.75293 0.94266 0.0
C83 C 0.0281 0.74291 0.88621 0.0
O84 O 0.05138 0.81179 0.90723 0.0
O85 O 0.07236 0.7917 0.91161 0.0
O86 O 0.03307 0.73708 0.89959 0.0
O87 O 0.02275 0.76105 0.88636 0.0
C88 C 0.9832 0.77005 0.91423 0.0
O89 O 0.01416 0.73736 0.93255 0.0
O90 O 0.04472 0.77575 0.93764 0.0
In91 In 0.29667 0.29411 0.91344 0.0
O92 O 0.32384 0.31359 0.93487 0.0
O93 O 0.28273 0.29631 0.93781 0.0
C94 C 0.32492 0.31973 0.88766 0.0
C95 C 0.29576 0.24806 0.91527 0.0
C96 C 0.25262 0.29573 0.90796 0.0
O97 O 0.3281 0.33106 0.90078 0.0
O98 O 0.30831 0.29571 0.88781 0.0
O99 O 0.25355 0.27485 0.90698 0.0
O100 O 0.27406 0.31589 0.9114 0.0
C101 C 0.305 0.30834 0.94409 0.0
O102 O 0.27634 0.24987 0.91081 0.0
O103 O 0.31576 0.26953 0.91881 0.0
In104 In 0.76523 0.02973 0.91279 0.0
O105 O 0.73917 0.00962 0.93436 0.0
O106 O 0.76136 0.0509 0.93431 0.0
C107 C 0.74034 0.02882 0.88577 0.0
C108 C 0.81175 0.07404 0.91029 0.0
C109 C 0.76908 0.98614 0.914 0.0
O110 O 0.7302 0.02712 0.89914 0.0
O111 O 0.7627 0.03113 0.88618 0.0
O112 O 0.78615 0.00752 0.92003 0.0
O113 O 0.75034 0.98693 0.90738 0.0
C114 C 0.74599 0.03052 0.9418 0.0
O115 O 0.80948 0.05166 0.90901 0.0
O116 O 0.79063 0.07395 0.91281 0.0
In117 In 0.76988 0.02629 0.08882 0.0
O118 O 0.78916 0.00112 0.08845 0.0
O119 O 0.74762 0.98165 0.0884 0.0
C120 C 0.81418 0.0724 0.09307 0.0
C121 C 0.75729 0.02951 0.05854 0.0
C122 C 0.7453 0.02669 0.11561 0.0
O123 O 0.81363 0.05074 0.09373 0.0
O124 O 0.79234 0.07073 0.0904 0.0
O125 O 0.73915 0.03162 0.1023 0.0
O126 O 0.76335 0.02119 0.11527 0.0
C127 C 0.76791 0.97962 0.08832 0.0
O128 O 0.74006 0.01954 0.06918 0.0
O129 O 0.78031 0.03762 0.06323 0.0
In130 In 0.02762 0.76763 0.08923 0.0
O131 O 0.03707 0.7467 0.06956 0.0
O132 O 0.01233 0.76212 0.06414 0.0
C133 C 0.0289 0.74389 0.11622 0.0
C134 C 0.07339 0.81317 0.08732 0.0
C135 C 0.9819 0.76624 0.09392 0.0
O136 O 0.02299 0.73211 0.10314 0.0
O137 O 0.03453 0.76744 0.11554 0.0
O138 O 0.00363 0.78733 0.09411 0.0
O139 O 0.98329 0.74586 0.09144 0.0
C140 C 0.02372 0.75026 0.05926 0.0
O141 O 0.05166 0.81227 0.08863 0.0
O142 O 0.07199 0.79115 0.08694 0.0
In143 In 0.27794 0.27984 0.09174 0.0
O144 O 0.23406 0.26206 0.09469 0.0
O145 O 0.2568 0.30334 0.09182 0.0
C146 C 0.28045 0.23553 0.09343 0.0
C147 C 0.29053 0.29246 0.06111 0.0
C148 C 0.30224 0.30375 0.11873 0.0
O149 O 0.25909 0.23554 0.09339 0.0
O150 O 0.30062 0.2579 0.09269 0.0
O151 O 0.31173 0.31319 0.10536 0.0
O152 O 0.28065 0.28263 0.11836 0.0
C153 C 0.23436 0.28353 0.0936 0.0
O154 O 0.30565 0.30634 0.07205 0.0
O155 O 0.26975 0.27276 0.06574 0.0
In156 In 0.69552 0.62152 0.42592 0.0
O157 O 0.69964 0.6486 0.40505 0.0
O158 O 0.68874 0.60907 0.40044 0.0
C159 C 0.6944 0.64733 0.45193 0.0
C160 C 0.74238 0.6241 0.42689 0.0
C161 C 0.64912 0.57753 0.43018 0.0
O162 O 0.68988 0.65298 0.43835 0.0
O163 O 0.69992 0.62929 0.45219 0.0
O164 O 0.6707 0.57857 0.43272 0.0
O165 O 0.65097 0.59878 0.42569 0.0
C166 C 0.69348 0.63078 0.39488 0.0
O167 O 0.72097 0.60277 0.42697 0.0
O168 O 0.74025 0.64434 0.42629 0.0
In169 In 0.42722 0.09786 0.42186 0.0
O170 O 0.40175 0.09028 0.39984 0.0
O171 O 0.42302 0.07038 0.40155 0.0
C172 C 0.40313 0.07518 0.44921 0.0
C173 C 0.42883 0.14428 0.42181 0.0
C174 C 0.47495 0.10256 0.42443 0.0
O175 O 0.39501 0.06382 0.43608 0.0
O176 O 0.42289 0.09775 0.44838 0.0
O177 O 0.47138 0.11944 0.41748 0.0
O178 O 0.45454 0.08352 0.43008 0.0
C179 C 0.40811 0.0751 0.39335 0.0
O180 O 0.44871 0.14221 0.41886 0.0
O181 O 0.40825 0.12296 0.42476 0.0
In182 In 0.9657 0.36321 0.42019 0.0
O183 O 0.96948 0.34294 0.39813 0.0
O184 O 0.99562 0.38352 0.40033 0.0
C185 C 0.98808 0.36256 0.44782 0.0
C186 C 0.91864 0.31937 0.4218 0.0
C187 C 0.96258 0.40734 0.4204 0.0
O188 O 0.99874 0.36352 0.43473 0.0
O189 O 0.96642 0.36181 0.44684 0.0
O190 O 0.94571 0.38662 0.41367 0.0
O191 O 0.98085 0.40571 0.427 0.0
C192 C 0.9876 0.36335 0.39194 0.0
O193 O 0.92123 0.34139 0.41839 0.0
O194 O 0.93979 0.31953 0.42438 0.0
In195 In 0.9547 0.36428 0.24817 0.0
O196 O 0.93519 0.38887 0.25107 0.0
O197 O 0.97355 0.40722 0.24125 0.0
C198 C 0.90867 0.31906 0.25084 0.0
C199 C 0.97792 0.36967 0.27653 0.0
C200 C 0.9745 0.36086 0.22009 0.0
O201 O 0.91031 0.33989 0.24574 0.0
O202 O 0.93021 0.32105 0.25472 0.0
O203 O 0.98843 0.36877 0.23237 0.0
O204 O 0.95092 0.35449 0.22212 0.0
C205 C 0.95424 0.40945 0.24551 0.0
O206 O 0.97862 0.35506 0.26589 0.0
O207 O 0.96608 0.38162 0.27271 0.0
In208 In 0.69269 0.61644 0.24837 0.0
O209 O 0.66883 0.57202 0.24946 0.0
O210 O 0.65005 0.59252 0.24097 0.0
C211 C 0.73805 0.61586 0.2509 0.0
C212 C 0.68644 0.63151 0.27757 0.0
C213 C 0.69647 0.64137 0.22088 0.0
O214 O 0.71664 0.59563 0.24762 0.0
O215 O 0.73648 0.63617 0.25302 0.0
O216 O 0.68931 0.64733 0.2335 0.0
O217 O 0.70174 0.62327 0.22228 0.0
C218 C 0.64816 0.57072 0.2442 0.0
O219 O 0.70412 0.64702 0.26829 0.0
O220 O 0.67172 0.60915 0.27191 0.0
In221 In 0.43712 0.103 0.24777 0.0
O222 O 0.40631 0.07844 0.26657 0.0
O223 O 0.44639 0.09761 0.27297 0.0
C224 C 0.41247 0.08194 0.22029 0.0
C225 C 0.48126 0.10122 0.24309 0.0
C226 C 0.43661 0.14848 0.24964 0.0
O227 O 0.40541 0.06936 0.2331 0.0
O228 O 0.43157 0.10487 0.22148 0.0
O229 O 0.45711 0.14758 0.24679 0.0
O230 O 0.41641 0.12647 0.25165 0.0
C231 C 0.42301 0.08331 0.27726 0.0
O232 O 0.48132 0.12202 0.24671 0.0
O233 O 0.45882 0.08117 0.24187 0.0
In234 In 0.69521 0.10002 0.2452 0.0
O235 O 0.67136 0.11904 0.23846 0.0
O236 O 0.65105 0.0777 0.24207 0.0
C237 C 0.73993 0.14634 0.24841 0.0
C238 C 0.68863 0.08246 0.2753 0.0
C239 C 0.69955 0.07783 0.21835 0.0
O240 O 0.71765 0.1444 0.24847 0.0
O241 O 0.73962 0.12496 0.24678 0.0
O242 O 0.6946 0.06599 0.23142 0.0
O243 O 0.70233 0.10038 0.21903 0.0
C244 C 0.64967 0.09788 0.23877 0.0
O245 O 0.70437 0.08053 0.26605 0.0
O246 O 0.67623 0.09243 0.26922 0.0
In247 In 0.96059 0.62875 0.24811 0.0
O248 O 0.93837 0.58428 0.24633 0.0
O249 O 0.98 0.60385 0.24695 0.0
C250 C 0.9128 0.62411 0.24891 0.0
C251 C 0.98038 0.64955 0.27689 0.0
C252 C 0.9835 0.65242 0.22061 0.0
O253 O 0.91729 0.60712 0.25486 0.0
O254 O 0.93236 0.64326 0.24259 0.0
O255 O 0.99307 0.66272 0.23379 0.0
O256 O 0.96291 0.63052 0.22145 0.0
C257 C 0.95875 0.58237 0.24615 0.0
O258 O 0.98481 0.63312 0.27022 0.0
O259 O 0.96713 0.65655 0.26873 0.0
In260 In 0.42682 0.3599 0.24746 0.0
O261 O 0.40424 0.34033 0.27011 0.0
O262 O 0.42019 0.38117 0.26803 0.0
C263 C 0.40067 0.35785 0.22078 0.0
C264 C 0.47394 0.40374 0.24497 0.0
C265 C 0.43035 0.31612 0.24783 0.0
O266 O 0.39046 0.35478 0.23425 0.0
O267 O 0.42384 0.36224 0.2209 0.0
O268 O 0.44763 0.33735 0.25391 0.0
O269 O 0.41146 0.31709 0.24156 0.0
C270 C 0.40798 0.36115 0.27652 0.0
O271 O 0.47126 0.38114 0.24447 0.0
O272 O 0.45292 0.40414 0.2467 0.0
In273 In 0.43246 0.36268 0.42309 0.0
O274 O 0.40213 0.35424 0.40353 0.0
O275 O 0.44236 0.37807 0.39802 0.0
C276 C 0.40638 0.36143 0.4496 0.0
C277 C 0.43198 0.31671 0.42232 0.0
C278 C 0.47794 0.40763 0.42736 0.0
O279 O 0.40237 0.36909 0.43654 0.0
O280 O 0.42296 0.35396 0.44912 0.0
O281 O 0.47693 0.3864 0.42368 0.0
O282 O 0.45596 0.40619 0.42888 0.0
C283 C 0.4191 0.36729 0.3932 0.0
O284 O 0.45166 0.33779 0.42668 0.0
O285 O 0.4125 0.31878 0.41835 0.0
In286 In 0.69528 0.11076 0.4232 0.0
O287 O 0.69805 0.08601 0.40304 0.0
O288 O 0.68999 0.11637 0.39742 0.0
C289 C 0.69429 0.08445 0.44951 0.0
C290 C 0.74278 0.15421 0.42426 0.0
C291 C 0.64904 0.10932 0.42595 0.0
O292 O 0.69008 0.07415 0.43599 0.0
O293 O 0.69934 0.10786 0.44962 0.0
O294 O 0.67072 0.13033 0.42677 0.0
O295 O 0.65071 0.08901 0.42393 0.0
C296 C 0.69347 0.09823 0.39242 0.0
O297 O 0.72194 0.15435 0.42735 0.0
O298 O 0.7397 0.13207 0.42072 0.0
In299 In 0.95657 0.621 0.42346 0.0
O300 O 0.98592 0.646 0.40414 0.0
O301 O 0.94605 0.62138 0.39783 0.0
C302 C 0.98212 0.64339 0.45057 0.0
C303 C 0.91343 0.62479 0.42774 0.0
C304 C 0.95715 0.57554 0.42158 0.0
O305 O 0.99032 0.65426 0.43734 0.0
O306 O 0.9613 0.62161 0.45001 0.0
O307 O 0.9363 0.57634 0.42301 0.0
O308 O 0.97766 0.59762 0.42104 0.0
C309 C 0.96884 0.63777 0.39337 0.0
O310 O 0.91354 0.60358 0.42943 0.0
O311 O 0.93524 0.64428 0.42406 0.0
In312 In 0.35846 0.96031 0.75578 0.0
O313 O 0.34848 0.9821 0.73691 0.0
O314 O 0.37487 0.96888 0.73097 0.0
C315 C 0.35455 0.98129 0.78328 0.0
C316 C 0.40467 0.96217 0.75881 0.0
C317 C 0.31416 0.91318 0.75452 0.0
O318 O 0.36014 0.99399 0.77051 0.0
O319 O 0.35089 0.95847 0.78199 0.0
O320 O 0.33561 0.91619 0.75948 0.0
O321 O 0.31503 0.93394 0.74996 0.0
C322 C 0.36281 0.9803 0.7265 0.0
O323 O 0.38393 0.94173 0.75477 0.0
O324 O 0.40216 0.98192 0.76136 0.0
In325 In 0.10147 0.43008 0.75466 0.0
O326 O 0.07802 0.39897 0.73576 0.0
O327 O 0.09409 0.43901 0.72979 0.0
C328 C 0.08081 0.40475 0.7821 0.0
C329 C 0.09944 0.47419 0.75889 0.0
C330 C 0.14782 0.43137 0.75216 0.0
O331 O 0.06829 0.39756 0.76928 0.0
O332 O 0.10343 0.42432 0.78095 0.0
O333 O 0.14601 0.45082 0.75653 0.0
O334 O 0.12627 0.41126 0.749 0.0
C335 C 0.08123 0.41556 0.72532 0.0
O336 O 0.12021 0.47423 0.75524 0.0
O337 O 0.07948 0.45174 0.76042 0.0
In338 In 0.62177 0.69661 0.75761 0.0
O339 O 0.65201 0.70389 0.73807 0.0
O340 O 0.61161 0.6811 0.73269 0.0
C341 C 0.6496 0.70474 0.78443 0.0
C342 C 0.57735 0.65117 0.76301 0.0
C343 C 0.61965 0.74104 0.75534 0.0
O344 O 0.65146 0.69187 0.77307 0.0
O345 O 0.63411 0.7132 0.78209 0.0
O346 O 0.60135 0.72025 0.76119 0.0
O347 O 0.63891 0.73933 0.75038 0.0
C348 C 0.63477 0.69129 0.72776 0.0
O349 O 0.57757 0.6718 0.75883 0.0
O350 O 0.59968 0.65349 0.76471 0.0
In351 In 0.62001 0.69743 0.58126 0.0
O352 O 0.60094 0.72245 0.57929 0.0
O353 O 0.64215 0.74119 0.5758 0.0
C354 C 0.57467 0.65138 0.58325 0.0
C355 C 0.63767 0.70293 0.61128 0.0
C356 C 0.64136 0.69284 0.5541 0.0
O357 O 0.5756 0.67242 0.57927 0.0
O358 O 0.5966 0.65354 0.58623 0.0
O359 O 0.65395 0.6991 0.56692 0.0
O360 O 0.61835 0.68882 0.55513 0.0
C361 C 0.62193 0.74338 0.5763 0.0
O362 O 0.64458 0.69252 0.60072 0.0
O363 O 0.62261 0.71085 0.60655 0.0
In364 In 0.36083 0.96437 0.58211 0.0
O365 O 0.33957 0.96626 0.60423 0.0
O366 O 0.37957 0.99453 0.60205 0.0
C367 C 0.36131 0.98708 0.55439 0.0
C368 C 0.31705 0.91755 0.57925 0.0
C369 C 0.40529 0.96184 0.58265 0.0
O370 O 0.36021 0.99684 0.56744 0.0
O371 O 0.36213 0.96622 0.55547 0.0
O372 O 0.384 0.94392 0.58825 0.0
O373 O 0.40407 0.98086 0.57685 0.0
C374 C 0.35927 0.98523 0.61042 0.0
O375 O 0.33858 0.91987 0.58362 0.0
O376 O 0.31765 0.93884 0.5764 0.0
In377 In 0.09815 0.42727 0.58097 0.0
O378 O 0.09343 0.40234 0.60283 0.0
O379 O 0.06881 0.4186 0.60102 0.0
C380 C 0.07557 0.40499 0.55324 0.0
C381 C 0.14479 0.42956 0.57923 0.0
C382 C 0.10176 0.47471 0.58044 0.0
O383 O 0.06522 0.39466 0.56629 0.0
O384 O 0.09702 0.42611 0.55432 0.0
O385 O 0.11955 0.47124 0.58615 0.0
O386 O 0.08237 0.45435 0.57502 0.0
C387 C 0.076 0.40555 0.6092 0.0
O388 O 0.14243 0.44842 0.5843 0.0
O389 O 0.12364 0.40963 0.57514 0.0
In390 In 0.36172 0.43134 0.5817 0.0
O391 O 0.33852 0.45241 0.57885 0.0
O392 O 0.31752 0.41068 0.57941 0.0
C393 C 0.40642 0.47796 0.58386 0.0
C394 C 0.35996 0.41047 0.61052 0.0
C395 C 0.36254 0.40956 0.5538 0.0
O396 O 0.38439 0.47516 0.58741 0.0
O397 O 0.40583 0.45733 0.57935 0.0
O398 O 0.35908 0.39756 0.5667 0.0
O399 O 0.36537 0.43208 0.5551 0.0
C400 C 0.31657 0.43156 0.57838 0.0
O401 O 0.37738 0.41446 0.60053 0.0
O402 O 0.34328 0.41624 0.60581 0.0
In403 In 0.61934 0.95694 0.5776 0.0
O404 O 0.60156 0.91409 0.57109 0.0
O405 O 0.64265 0.93584 0.57534 0.0
C406 C 0.57377 0.95708 0.58022 0.0
C407 C 0.63503 0.96643 0.60799 0.0
C408 C 0.6417 0.98397 0.55092 0.0
O409 O 0.57469 0.93653 0.57754 0.0
O410 O 0.5958 0.97751 0.58159 0.0
O411 O 0.65339 0.9906 0.56404 0.0
O412 O 0.61915 0.96416 0.55145 0.0
C413 C 0.62292 0.91405 0.57187 0.0
O414 O 0.64221 0.98483 0.59813 0.0
O415 O 0.6205 0.9439 0.60243 0.0
In416 In 0.10907 0.69494 0.57861 0.0
O417 O 0.08213 0.69216 0.5992 0.0
O418 O 0.12168 0.70319 0.60401 0.0
C419 C 0.08232 0.69197 0.55212 0.0
C420 C 0.15166 0.74235 0.57477 0.0
C421 C 0.10796 0.64863 0.57899 0.0
O422 O 0.07393 0.69311 0.56564 0.0
O423 O 0.10388 0.69243 0.55212 0.0
O424 O 0.12856 0.67004 0.57632 0.0
O425 O 0.08789 0.65055 0.58137 0.0
C426 C 0.09994 0.69867 0.60943 0.0
O427 O 0.15223 0.72133 0.57334 0.0
O428 O 0.12941 0.73944 0.57788 0.0
In429 In 0.10328 0.69132 0.75832 0.0
O430 O 0.07926 0.69279 0.73718 0.0
O431 O 0.11045 0.68527 0.73309 0.0
C432 C 0.07931 0.69408 0.78471 0.0
C433 C 0.09895 0.64425 0.76299 0.0
C434 C 0.14762 0.73824 0.75806 0.0
O435 O 0.06928 0.69204 0.77122 0.0
O436 O 0.1009 0.69458 0.78466 0.0
O437 O 0.14765 0.71692 0.7591 0.0
O438 O 0.12521 0.73592 0.7573 0.0
C439 C 0.09257 0.68834 0.72723 0.0
O440 O 0.11993 0.6655 0.76539 0.0
O441 O 0.07991 0.64671 0.75842 0.0
In442 In 0.36515 0.4331 0.75561 0.0
O443 O 0.38779 0.4766 0.7611 0.0
O444 O 0.40944 0.45689 0.75783 0.0
C445 C 0.3194 0.43275 0.75252 0.0
C446 C 0.36936 0.41691 0.72642 0.0
C447 C 0.3638 0.41001 0.78335 0.0
O448 O 0.34129 0.45311 0.75043 0.0
O449 O 0.32062 0.41265 0.75604 0.0
O450 O 0.36935 0.40285 0.77058 0.0
O451 O 0.35882 0.42831 0.78196 0.0
C452 C 0.40992 0.47812 0.76076 0.0
O453 O 0.35492 0.40106 0.73689 0.0
O454 O 0.38179 0.44042 0.7308 0.0
In455 In 0.61722 0.95631 0.75668 0.0
O456 O 0.5747 0.94022 0.7632 0.0
O457 O 0.59608 0.97983 0.75553 0.0
C458 C 0.61834 0.91124 0.75751 0.0
C459 C 0.6269 0.96632 0.72561 0.0
C460 C 0.64349 0.98036 0.78318 0.0
O461 O 0.59736 0.91199 0.7579 0.0
O462 O 0.63893 0.93332 0.75692 0.0
O463 O 0.65282 0.98911 0.76966 0.0
O464 O 0.62131 0.95997 0.78312 0.0
C465 C 0.57452 0.96108 0.76025 0.0
O466 O 0.64273 0.98161 0.73589 0.0
O467 O 0.60677 0.94687 0.73113 0.0
H468 H 0.1146 0.3248 0.07562 0.0
H469 H 0.07661 0.25712 0.10595 0.0
H470 H 0.15491 0.32287 0.07677 0.0
H471 H 0.11707 0.2557 0.1076 0.0
H472 H 0.18419 0.2431 0.09305 0.0
H473 H 0.14419 0.24541 0.09208 0.0
H474 H 0.18989 0.32985 0.09398 0.0
H475 H 0.23 0.32747 0.09436 0.0
C476 C 0.11494 0.30961 0.08261 0.0
C477 C 0.09247 0.29104 0.09064 0.0
C478 C 0.13808 0.30861 0.08337 0.0
C479 C 0.13928 0.28914 0.09229 0.0
C480 C 0.11676 0.2707 0.10041 0.0
C481 C 0.09359 0.27158 0.09953 0.0
C482 C 0.18568 0.26215 0.09331 0.0
C483 C 0.21019 0.28511 0.09377 0.0
C484 C 0.16273 0.26349 0.09284 0.0
C485 C 0.16377 0.28782 0.09297 0.0
C486 C 0.18836 0.3108 0.09362 0.0
C487 C 0.21135 0.30945 0.09396 0.0
H488 H 0.72477 0.93105 0.09087 0.0
H489 H 0.80879 0.97066 0.08572 0.0
H490 H 0.72328 0.889 0.09155 0.0
H491 H 0.8073 0.92865 0.0859 0.0
H492 H 0.79868 0.85233 0.10416 0.0
H493 H 0.79941 0.89394 0.10363 0.0
H494 H 0.72911 0.85893 0.07531 0.0
H495 H 0.72801 0.81705 0.07627 0.0
C496 C 0.74289 0.93074 0.08977 0.0
C497 C 0.7669 0.95412 0.08829 0.0
C498 C 0.74204 0.90664 0.09006 0.0
C499 C 0.76517 0.90542 0.08882 0.0
C500 C 0.78915 0.92887 0.08717 0.0
C501 C 0.79001 0.95295 0.08696 0.0
C502 C 0.78336 0.85352 0.09784 0.0
C503 C 0.76329 0.83146 0.09025 0.0
C504 C 0.78387 0.87742 0.09745 0.0
C505 C 0.76439 0.87985 0.08936 0.0
C506 C 0.74424 0.85769 0.08181 0.0
C507 C 0.74367 0.83372 0.08228 0.0
H508 H 0.08159 0.86285 0.08995 0.0
H509 H 0.12197 0.81948 0.08316 0.0
H510 H 0.12343 0.90373 0.08985 0.0
H511 H 0.16369 0.86028 0.08266 0.0
H512 H 0.2341 0.93455 0.10131 0.0
H513 H 0.19205 0.89417 0.10072 0.0
H514 H 0.15964 0.93246 0.07287 0.0
H515 H 0.20168 0.97314 0.07381 0.0
C516 C 0.0994 0.86209 0.08831 0.0
C517 C 0.09855 0.83799 0.08664 0.0
C518 C 0.12336 0.8855 0.08816 0.0
C519 C 0.14693 0.88528 0.0863 0.0
C520 C 0.14595 0.86113 0.08438 0.0
C521 C 0.12203 0.83775 0.08457 0.0
C522 C 0.218 0.93434 0.09505 0.0
C523 C 0.22116 0.95699 0.0876 0.0
C524 C 0.19394 0.91115 0.09463 0.0
C525 C 0.17249 0.91004 0.08669 0.0
C526 C 0.17568 0.93274 0.07923 0.0
C527 C 0.19978 0.95599 0.07969 0.0
H528 H 0.25045 0.08372 0.92307 0.0
H529 H 0.33331 0.12328 0.91317 0.0
H530 H 0.25175 0.12566 0.92338 0.0
H531 H 0.33452 0.16517 0.91292 0.0
H532 H 0.33267 0.23834 0.92778 0.0
H533 H 0.3314 0.19643 0.92926 0.0
H534 H 0.25642 0.15903 0.90568 0.0
H535 H 0.25735 0.20072 0.90473 0.0
C536 C 0.26893 0.1014 0.92092 0.0
C537 C 0.29177 0.10025 0.91808 0.0
C538 C 0.26966 0.12543 0.92099 0.0
C539 C 0.29322 0.14883 0.9181 0.0
C540 C 0.31612 0.14761 0.91541 0.0
C541 C 0.31541 0.12359 0.91546 0.0
C542 C 0.31592 0.22112 0.92296 0.0
C543 C 0.29511 0.22276 0.91615 0.0
C544 C 0.31523 0.19712 0.92372 0.0
C545 C 0.29381 0.17431 0.91759 0.0
C546 C 0.27302 0.17607 0.91077 0.0
C547 C 0.27362 0.20001 0.91012 0.0
H548 H 0.97596 0.19221 0.91446 0.0
H549 H 0.93783 0.23576 0.90161 0.0
H550 H 0.93402 0.15178 0.91408 0.0
H551 H 0.89589 0.19515 0.90047 0.0
H552 H 0.82237 0.123 0.91829 0.0
H553 H 0.86432 0.16335 0.91729 0.0
H554 H 0.90013 0.12087 0.89803 0.0
H555 H 0.85824 0.08027 0.89976 0.0
C556 C 0.9586 0.19306 0.91133 0.0
C557 C 0.9601 0.2171 0.90814 0.0
C558 C 0.93455 0.16984 0.91101 0.0
C559 C 0.91146 0.17011 0.90726 0.0
C560 C 0.91314 0.19421 0.9037 0.0
C561 C 0.93719 0.21748 0.90425 0.0
C562 C 0.83923 0.12232 0.91382 0.0
C563 C 0.83711 0.09852 0.90916 0.0
C564 C 0.86327 0.1455 0.91313 0.0
C565 C 0.8857 0.14547 0.90755 0.0
C566 C 0.8834 0.12161 0.90264 0.0
C567 C 0.85939 0.09835 0.90354 0.0
H568 H 0.85723 0.80322 0.93282 0.0
H569 H 0.82651 0.74207 0.89768 0.0
H570 H 0.89863 0.80321 0.9327 0.0
H571 H 0.86796 0.74246 0.89727 0.0
H572 H 0.93345 0.72876 0.91354 0.0
H573 H 0.89275 0.72986 0.91408 0.0
H574 H 0.93667 0.81431 0.91631 0.0
H575 H 0.97746 0.81314 0.91615 0.0
C576 C 0.85941 0.78993 0.92499 0.0
C577 C 0.83863 0.77257 0.91531 0.0
C578 C 0.88315 0.79001 0.92486 0.0
C579 C 0.88655 0.77274 0.91503 0.0
C580 C 0.86583 0.75569 0.90518 0.0
C581 C 0.84213 0.75557 0.90534 0.0
C582 C 0.93441 0.74756 0.91417 0.0
C583 C 0.95861 0.77086 0.91477 0.0
C584 C 0.91109 0.7482 0.91439 0.0
C585 C 0.91145 0.77218 0.91514 0.0
C586 C 0.9357 0.79551 0.91588 0.0
C587 C 0.95906 0.79485 0.91571 0.0
H588 H 0.7515 0.58364 0.42309 0.0
H589 H 0.79064 0.66676 0.43205 0.0
H590 H 0.79325 0.58485 0.42393 0.0
H591 H 0.83253 0.6679 0.43359 0.0
H592 H 0.90527 0.66414 0.41786 0.0
H593 H 0.86418 0.66462 0.41801 0.0
H594 H 0.82627 0.58942 0.44137 0.0
H595 H 0.86704 0.58853 0.44054 0.0
C596 C 0.76907 0.60216 0.42539 0.0
C597 C 0.76785 0.6251 0.4275 0.0
C598 C 0.79302 0.60284 0.426 0.0
C599 C 0.81633 0.62645 0.42896 0.0
C600 C 0.81505 0.64944 0.4311 0.0
C601 C 0.79105 0.64879 0.4303 0.0
C602 C 0.88815 0.64782 0.42311 0.0
C603 C 0.88926 0.62622 0.42909 0.0
C604 C 0.86462 0.64813 0.42327 0.0
C605 C 0.84178 0.62695 0.42959 0.0
C606 C 0.84326 0.60579 0.43607 0.0
C607 C 0.86668 0.60534 0.43572 0.0
H608 H 0.47059 0.30725 0.43188 0.0
H609 H 0.3928 0.26947 0.41203 0.0
H610 H 0.46991 0.26558 0.43179 0.0
H611 H 0.39233 0.22792 0.41154 0.0
H612 H 0.38923 0.15341 0.42933 0.0
H613 H 0.39023 0.19519 0.42946 0.0
H614 H 0.47076 0.23407 0.41394 0.0
H615 H 0.46992 0.19229 0.41422 0.0
C616 C 0.45341 0.29005 0.42741 0.0
C617 C 0.43172 0.29157 0.422 0.0
C618 C 0.45307 0.26621 0.42727 0.0
C619 C 0.43106 0.2434 0.42166 0.0
C620 C 0.40944 0.24502 0.41615 0.0
C621 C 0.40975 0.26885 0.41634 0.0
C622 C 0.40715 0.17089 0.42596 0.0
C623 C 0.42951 0.16962 0.42177 0.0
C624 C 0.40768 0.19481 0.42593 0.0
C625 C 0.43055 0.21798 0.42167 0.0
C626 C 0.45293 0.21665 0.41748 0.0
C627 C 0.45241 0.19271 0.41755 0.0
H628 H 0.87102 0.31346 0.41438 0.0
H629 H 0.90823 0.27083 0.43095 0.0
H630 H 0.82861 0.27338 0.41516 0.0
H631 H 0.86576 0.23088 0.43218 0.0
H632 H 0.78969 0.15955 0.41552 0.0
H633 H 0.83221 0.19954 0.41506 0.0
H634 H 0.79682 0.24291 0.43343 0.0
H635 H 0.75422 0.20305 0.43345 0.0
C636 C 0.87009 0.29554 0.4183 0.0
C637 C 0.89291 0.29524 0.42258 0.0
C638 C 0.84578 0.2726 0.41884 0.0
C639 C 0.84377 0.2489 0.42375 0.0
C640 C 0.86664 0.2487 0.42813 0.0
C641 C 0.89096 0.27162 0.42751 0.0
C642 C 0.79104 0.17763 0.41948 0.0
C643 C 0.76866 0.17821 0.42448 0.0
C644 C 0.81542 0.20053 0.4193 0.0
C645 C 0.81793 0.22446 0.42419 0.0
C646 C 0.79552 0.22491 0.42935 0.0
C647 C 0.77114 0.20204 0.42946 0.0
H648 H 0.91773 0.42027 0.25726 0.0
H649 H 0.99085 0.45497 0.23178 0.0
H650 H 0.91872 0.46202 0.25692 0.0
H651 H 0.99147 0.49658 0.23095 0.0
H652 H -0.00052 0.57327 0.249 0.0
H653 H 0.99797 0.53128 0.24829 0.0
H654 H 0.91455 0.4922 0.24005 0.0
H655 H 0.91601 0.5342 0.24131 0.0
C656 C 0.93388 0.43678 0.25144 0.0
C657 C 0.95426 0.43442 0.2446 0.0
C658 C 0.93437 0.46068 0.25115 0.0
C659 C 0.95519 0.4827 0.24393 0.0
C660 C 0.97536 0.48014 0.23684 0.0
C661 C 0.97494 0.45627 0.23723 0.0
C662 C 0.98084 0.5557 0.24701 0.0
C663 C 0.95785 0.55697 0.24526 0.0
C664 C 0.97999 0.53164 0.2465 0.0
C665 C 0.95614 0.50834 0.24409 0.0
C666 C 0.93318 0.50971 0.24216 0.0
C667 C 0.93402 0.53378 0.24279 0.0
H668 H 0.63753 0.52248 0.25425 0.0
H669 H 0.60258 0.56265 0.23104 0.0
H670 H 0.59557 0.48188 0.25367 0.0
H671 H 0.5608 0.52191 0.22997 0.0
H672 H 0.48451 0.45388 0.24877 0.0
H673 H 0.5269 0.49377 0.24766 0.0
H674 H 0.56383 0.44812 0.23702 0.0
H675 H 0.52136 0.40808 0.23865 0.0
C676 C 0.62094 0.52253 0.24884 0.0
C677 C 0.62327 0.54575 0.24278 0.0
C678 C 0.59691 0.49923 0.24842 0.0
C679 C 0.57473 0.49862 0.24184 0.0
C680 C 0.57734 0.52177 0.23539 0.0
C681 C 0.60131 0.54509 0.23591 0.0
C682 C 0.50168 0.45238 0.24616 0.0
C683 C 0.49965 0.42788 0.24383 0.0
C684 C 0.52598 0.47527 0.24541 0.0
C685 C 0.54882 0.47421 0.2422 0.0
C686 C 0.5467 0.44964 0.23972 0.0
C687 C 0.52237 0.42671 0.24057 0.0
H688 H 0.53103 0.14023 0.24871 0.0
H689 H 0.48644 0.06042 0.23232 0.0
H690 H 0.57123 0.13867 0.24598 0.0
H691 H 0.52686 0.05907 0.22901 0.0
H692 H 0.6008 0.05722 0.24493 0.0
H693 H 0.55978 0.05772 0.24462 0.0
H694 H 0.60069 0.13735 0.22743 0.0
H695 H 0.64183 0.13708 0.22835 0.0
C696 C 0.52988 0.12243 0.24435 0.0
C697 C 0.50562 0.10041 0.24079 0.0
C698 C 0.55296 0.12158 0.24265 0.0
C699 C 0.55234 0.09876 0.23722 0.0
C700 C 0.52803 0.07684 0.23342 0.0
C701 C 0.50489 0.07764 0.23524 0.0
C702 C 0.60095 0.07472 0.24093 0.0
C703 C 0.62451 0.09718 0.23679 0.0
C704 C 0.57741 0.07498 0.24067 0.0
C705 C 0.57693 0.09767 0.23613 0.0
C706 C 0.60041 0.11974 0.23132 0.0
C707 C 0.62397 0.11955 0.23173 0.0
H708 H 0.41418 0.92244 0.75295 0.0
H709 H 0.45218 0.00347 0.76735 0.0
H710 H 0.45579 0.92339 0.75426 0.0
H711 H 0.49397 0.00429 0.76902 0.0
H712 H 0.56716 0.00142 0.75121 0.0
H713 H 0.5263 0.0025 0.75175 0.0
H714 H 0.48722 0.92595 0.77337 0.0
H715 H 0.52775 0.92462 0.77244 0.0
C716 C 0.43143 0.94042 0.75652 0.0
C717 C 0.42995 0.96288 0.76006 0.0
C718 C 0.45526 0.94092 0.75737 0.0
C719 C 0.47817 0.96388 0.76183 0.0
C720 C 0.4767 0.98637 0.76541 0.0
C721 C 0.45278 0.98587 0.76454 0.0
C722 C 0.54985 0.98494 0.75616 0.0
C723 C 0.55054 0.96284 0.76165 0.0
C724 C 0.52649 0.9856 0.75655 0.0
C725 C 0.50346 0.96421 0.76248 0.0
C726 C 0.50449 0.94252 0.76844 0.0
C727 C 0.52774 0.94182 0.76799 0.0
H728 H 0.13923 0.52391 0.75431 0.0
H729 H 0.05782 0.47963 0.76776 0.0
H730 H 0.13797 0.56432 0.75661 0.0
H731 H 0.0567 0.5203 0.77051 0.0
H732 H 0.05876 0.59642 0.75414 0.0
H733 H 0.05819 0.55478 0.75428 0.0
H734 H 0.13491 0.5926 0.77569 0.0
H735 H 0.13576 0.63427 0.7751 0.0
C736 C 0.12111 0.52284 0.75791 0.0
C737 C 0.09862 0.49862 0.76084 0.0
C738 C 0.12043 0.54604 0.75934 0.0
C739 C 0.09726 0.54558 0.76383 0.0
C740 C 0.07478 0.52131 0.76688 0.0
C741 C 0.07545 0.49804 0.76539 0.0
C742 C 0.07538 0.59574 0.759 0.0
C743 C 0.09739 0.6186 0.76449 0.0
C744 C 0.07501 0.57186 0.75916 0.0
C745 C 0.09661 0.57039 0.76487 0.0
C746 C 0.11818 0.59314 0.77091 0.0
C747 C 0.11861 0.617 0.77067 0.0
H748 H 0.41575 0.52444 0.77114 0.0
H749 H 0.45962 0.48799 0.75554 0.0
H750 H 0.45628 0.56611 0.77383 0.0
H751 H 0.50009 0.52982 0.75762 0.0
H752 H 0.57123 0.60468 0.7736 0.0
H753 H 0.53068 0.5626 0.77503 0.0
H754 H 0.48784 0.59886 0.75711 0.0
H755 H 0.52807 0.64086 0.75626 0.0
C756 C 0.43408 0.52537 0.76828 0.0
C757 C 0.43455 0.50304 0.76306 0.0
C758 C 0.45731 0.54927 0.76973 0.0
C759 C 0.48148 0.55142 0.76583 0.0
C760 C 0.48191 0.52886 0.76093 0.0
C761 C 0.4587 0.5049 0.75963 0.0
C762 C 0.55306 0.60362 0.77013 0.0
C763 C 0.55279 0.62601 0.7648 0.0
C764 C 0.52986 0.57951 0.77085 0.0
C765 C 0.50596 0.57728 0.76613 0.0
C766 C 0.50575 0.59987 0.76108 0.0
C767 C 0.52888 0.62395 0.76049 0.0
H768 H 0.5822 0.75343 0.58077 0.0
H769 H 0.6633 0.79006 0.56676 0.0
H770 H 0.58345 0.79502 0.57813 0.0
H771 H 0.66439 0.83173 0.56352 0.0
H772 H 0.66365 0.90649 0.57925 0.0
H773 H 0.66396 0.86533 0.579 0.0
H774 H 0.58571 0.82613 0.55964 0.0
H775 H 0.58512 0.86708 0.56051 0.0
C776 C 0.60023 0.77035 0.57693 0.0
C777 C 0.62267 0.76853 0.57401 0.0
C778 C 0.60091 0.7942 0.5753 0.0
C779 C 0.624 0.81678 0.57054 0.0
C780 C 0.64638 0.81483 0.56739 0.0
C781 C 0.64574 0.79095 0.56917 0.0
C782 C 0.64664 0.8891 0.5748 0.0
C783 C 0.62427 0.8899 0.57004 0.0
C784 C 0.64685 0.86552 0.57458 0.0
C785 C 0.62476 0.84231 0.56944 0.0
C786 C 0.60284 0.84347 0.56401 0.0
C787 C 0.60255 0.86697 0.5644 0.0
H788 H 0.2007 0.75324 0.56649 0.0
H789 H 0.15652 0.7899 0.58111 0.0
H790 H 0.24069 0.79573 0.5665 0.0
H791 H 0.19661 0.83232 0.58159 0.0
H792 H 0.26991 0.90775 0.5677 0.0
H793 H 0.2299 0.86553 0.56527 0.0
H794 H 0.26958 0.82745 0.5853 0.0
H795 H 0.30976 0.86961 0.58727 0.0
C796 C 0.19955 0.77041 0.56967 0.0
C797 C 0.17552 0.76828 0.57382 0.0
C798 C 0.22248 0.79473 0.56979 0.0
C799 C 0.22191 0.81743 0.57415 0.0
C800 C 0.19773 0.8153 0.578 0.0
C801 C 0.17476 0.79098 0.57779 0.0
C802 C 0.27007 0.89033 0.57153 0.0
C803 C 0.29292 0.89194 0.57769 0.0
C804 C 0.24712 0.86615 0.57022 0.0
C805 C 0.2465 0.84308 0.5751 0.0
C806 C 0.26946 0.84476 0.5812 0.0
C807 C 0.29245 0.86893 0.58243 0.0
H808 H 0.30944 0.47332 0.57353 0.0
H809 H 0.26737 0.38978 0.58113 0.0
H810 H 0.2681 0.47333 0.57274 0.0
H811 H 0.22617 0.38983 0.58091 0.0
H812 H 0.15507 0.39396 0.56551 0.0
H813 H 0.19682 0.39506 0.56414 0.0
H814 H 0.23356 0.46809 0.58987 0.0
H815 H 0.19189 0.46738 0.59071 0.0
C816 C 0.29134 0.45498 0.57505 0.0
C817 C 0.2916 0.43155 0.57738 0.0
C818 C 0.26766 0.45499 0.57471 0.0
C819 C 0.24377 0.43159 0.5768 0.0
C820 C 0.24413 0.40815 0.579 0.0
C821 C 0.26777 0.40812 0.57922 0.0
C822 C 0.1721 0.41029 0.57082 0.0
C823 C 0.17023 0.43055 0.57826 0.0
C824 C 0.19601 0.41086 0.57012 0.0
C825 C 0.21857 0.4316 0.57697 0.0
C826 C 0.21669 0.452 0.58428 0.0
C827 C 0.19278 0.45152 0.58487 0.0
H828 H 0.04431 0.3211 0.14381 0.0
H829 H 0.0 0.35072 0.11971 0.0
H830 H 0.03474 0.33421 0.16897 0.0
H831 H 0.99088 0.36449 0.14496 0.0
H832 H 0.02447 0.37322 0.21221 0.0
H833 H 0.04043 0.36939 0.18628 0.0
H834 H 0.96303 0.34058 0.16696 0.0
H835 H 0.94737 0.34489 0.19264 0.0
C836 C 0.03297 0.33094 0.14387 0.0
C837 C 0.02266 0.33464 0.1298 0.0
C838 C 0.02761 0.3386 0.15831 0.0
C839 C 0.01182 0.35016 0.15902 0.0
C840 C 0.00274 0.35521 0.14484 0.0
C841 C 0.00811 0.34751 0.13037 0.0
C842 C 0.01098 0.36623 0.20238 0.0
C843 C 0.98466 0.35922 0.20447 0.0
C844 C 0.02007 0.36399 0.18754 0.0
C845 C 0.00303 0.35475 0.17452 0.0
C846 C 0.97683 0.34821 0.17663 0.0
C847 C 0.96777 0.35042 0.19141 0.0
H848 H 0.74161 0.75541 0.14638 0.0
H849 H 0.70602 0.68182 0.12138 0.0
H850 H 0.72836 0.73209 0.17138 0.0
H851 H 0.6922 0.6584 0.14642 0.0
H852 H 0.71018 0.62984 0.19274 0.0
H853 H 0.71557 0.65156 0.16759 0.0
H854 H 0.69269 0.70359 0.18894 0.0
H855 H 0.68772 0.68195 0.21438 0.0
C856 C 0.73049 0.73423 0.14621 0.0
C857 C 0.72508 0.72043 0.13192 0.0
C858 C 0.72276 0.72085 0.16056 0.0
C859 C 0.70945 0.69336 0.16093 0.0
C860 C 0.70284 0.67958 0.14656 0.0
C861 C 0.71059 0.69298 0.1322 0.0
C862 C 0.70616 0.64583 0.19209 0.0
C863 C 0.69865 0.65428 0.20557 0.0
C864 C 0.70902 0.65814 0.1776 0.0
C865 C 0.70444 0.67925 0.1762 0.0
C866 C 0.69656 0.6875 0.18965 0.0
C867 C 0.69364 0.6751 0.2042 0.0
H868 H 0.37053 0.04424 0.12117 0.0
H869 H 0.29831 0.02064 0.14614 0.0
H870 H 0.39389 0.05393 0.14631 0.0
H871 H 0.32158 0.03059 0.17113 0.0
H872 H 0.36822 0.03489 0.21466 0.0
H873 H 0.34609 0.01827 0.18937 0.0
H874 H 0.40543 0.08819 0.16634 0.0
H875 H 0.42756 0.10457 0.19145 0.0
C876 C 0.35963 0.04084 0.13202 0.0
C877 C 0.33266 0.03188 0.1317 0.0
C878 C 0.37299 0.04651 0.1464 0.0
C879 C 0.35959 0.04316 0.1607 0.0
C880 C 0.33243 0.03313 0.16035 0.0
C881 C 0.31913 0.0276 0.14601 0.0
C882 C 0.37658 0.04656 0.20416 0.0
C883 C 0.3995 0.07108 0.20504 0.0
C884 C 0.36391 0.0371 0.1897 0.0
C885 C 0.37403 0.05192 0.17585 0.0
C886 C 0.39732 0.07613 0.17673 0.0
C887 C 0.40988 0.08562 0.19116 0.0
H888 H 0.34879 0.01365 0.88283 0.0
H889 H 0.3019 0.04064 0.85912 0.0
H890 H 0.36295 0.00589 0.85735 0.0
H891 H 0.3156 0.03241 0.83368 0.0
H892 H 0.35751 0.02839 0.78949 0.0
H893 H 0.35181 0.04422 0.81508 0.0
H894 H 0.34025 0.97316 0.83704 0.0
H895 H 0.34626 0.95768 0.81176 0.0
C896 C 0.34174 0.01819 0.87218 0.0
C897 C 0.32405 0.0275 0.87296 0.0
C898 C 0.34974 0.01364 0.85759 0.0
C899 C 0.34017 0.01827 0.84349 0.0
C900 C 0.3235 0.02883 0.84431 0.0
C901 C 0.31552 0.03338 0.85889 0.0
C902 C 0.35395 0.01633 0.79984 0.0
C903 C 0.35222 0.99177 0.79862 0.0
C904 C 0.35062 0.02533 0.81446 0.0
C905 C 0.34567 0.00999 0.82811 0.0
C906 C 0.34447 0.98568 0.82684 0.0
C907 C 0.34768 0.97669 0.8123 0.0
H908 H 0.03561 0.35837 0.78747 0.0
H909 H 0.1024 0.42102 0.81109 0.0
H910 H 0.01997 0.3355 0.81267 0.0
H911 H 0.08695 0.39825 0.83612 0.0
H912 H 0.04321 0.36045 0.88097 0.0
H913 H 0.0514 0.38369 0.85587 0.0
H914 H 0.0356 0.3134 0.83101 0.0
H915 H 0.02726 0.29022 0.85598 0.0
C916 C 0.04682 0.36732 0.79804 0.0
C917 C 0.07029 0.39137 0.7973 0.0
C918 C 0.03792 0.35423 0.81245 0.0
C919 C 0.05223 0.36509 0.82638 0.0
C920 C 0.0753 0.38951 0.82565 0.0
C921 C 0.08427 0.40245 0.81127 0.0
C922 C 0.04115 0.34991 0.87012 0.0
C923 C 0.0348 0.3236 0.87044 0.0
C924 C 0.04594 0.36322 0.85577 0.0
C925 C 0.04427 0.3504 0.84147 0.0
C926 C 0.0368 0.32376 0.84179 0.0
C927 C 0.0322 0.31054 0.85612 0.0
H928 H 0.6748 0.67995 0.79659 0.0
H929 H 0.65705 0.74133 0.80612 0.0
H930 H 0.69796 0.68904 0.822 0.0
H931 H 0.68027 0.7505 0.83107 0.0
H932 H 0.75168 0.78058 0.86298 0.0
H933 H 0.73011 0.76795 0.83745 0.0
H934 H 0.68408 0.68806 0.8533 0.0
H935 H 0.70559 0.70077 0.87922 0.0
C936 C 0.67595 0.69539 0.80405 0.0
C937 C 0.66422 0.71 0.79937 0.0
C938 C 0.689 0.70044 0.81857 0.0
C939 C 0.69089 0.7205 0.8284 0.0
C940 C 0.67923 0.73506 0.82365 0.0
C941 C 0.6659 0.72975 0.80937 0.0
C942 C 0.73709 0.76026 0.86105 0.0
C943 C 0.73016 0.74169 0.87315 0.0
C944 C 0.72476 0.75307 0.84643 0.0
C945 C 0.70545 0.72708 0.84347 0.0
C946 C 0.69905 0.7082 0.85532 0.0
C947 C 0.71119 0.7155 0.87013 0.0
H948 H 0.02187 0.75557 0.8563 0.0
H949 H 0.0394 0.70354 0.88258 0.0
H950 H 0.03047 0.7399 0.83174 0.0
H951 H 0.04728 0.68722 0.85793 0.0
H952 H 0.09794 0.69738 0.81432 0.0
H953 H 0.08155 0.70526 0.83868 0.0
H954 H 0.01759 0.70427 0.81329 0.0
H955 H 0.03456 0.69695 0.78862 0.0
C956 C 0.02711 0.74042 0.85681 0.0
C957 C 0.03026 0.73099 0.87137 0.0
C958 C 0.03185 0.73129 0.84271 0.0
C959 C 0.03977 0.71244 0.84284 0.0
C960 C 0.04167 0.7021 0.85741 0.0
C961 C 0.03703 0.71133 0.87153 0.0
C962 C 0.08024 0.69862 0.81391 0.0
C963 C 0.06763 0.69673 0.79952 0.0
C964 C 0.07069 0.70291 0.82794 0.0
C965 C 0.04821 0.70537 0.828 0.0
C966 C 0.03512 0.70274 0.81364 0.0
C967 C 0.04474 0.69844 0.79953 0.0
H968 H 0.37233 0.36934 0.78994 0.0
H969 H 0.35298 0.42367 0.81171 0.0
H970 H 0.36862 0.34875 0.8156 0.0
H971 H 0.34874 0.40295 0.83709 0.0
H972 H 0.31965 0.29853 0.85851 0.0
H973 H 0.33343 0.32146 0.83347 0.0
H974 H 0.37173 0.39544 0.85812 0.0
H975 H 0.35728 0.37236 0.88327 0.0
C976 C 0.3674 0.37693 0.8002 0.0
C977 C 0.36278 0.39799 0.79881 0.0
C978 C 0.36521 0.36513 0.81488 0.0
C979 C 0.35842 0.37422 0.82842 0.0
C980 C 0.35445 0.39571 0.827 0.0
C981 C 0.35662 0.40744 0.81239 0.0
C982 C 0.33138 0.31968 0.85861 0.0
C983 C 0.33713 0.33368 0.87285 0.0
C984 C 0.33943 0.33284 0.84423 0.0
C985 C 0.35346 0.36032 0.84376 0.0
C986 C 0.36054 0.37427 0.85807 0.0
C987 C 0.35243 0.36107 0.87248 0.0
H988 H 0.75876 0.03031 0.85622 0.0
H989 H 0.69153 0.02256 0.88127 0.0
H990 H 0.7355 0.02259 0.8314 0.0
H991 H 0.66833 0.01551 0.85627 0.0
H992 H 0.62546 0.96459 0.81288 0.0
H993 H 0.64913 0.98035 0.8375 0.0
H994 H 0.71683 0.03846 0.81207 0.0
H995 H 0.69311 0.02208 0.7872 0.0
C996 C 0.73911 0.02736 0.85639 0.0
C997 C 0.72686 0.02677 0.87071 0.0
C998 C 0.72584 0.02315 0.84212 0.0
C999 C 0.69999 0.01832 0.84181 0.0
C1000 C 0.6881 0.01879 0.85611 0.0
C1001 C 0.7014 0.02294 0.87043 0.0
C1002 C 0.64533 0.9809 0.81252 0.0
C1003 C 0.65751 0.99196 0.79808 0.0
C1004 C 0.65885 0.99011 0.82669 0.0
C1005 C 0.68492 0.01067 0.8268 0.0
C1006 C 0.69686 0.02237 0.81238 0.0
C1007 C 0.68327 0.0131 0.79814 0.0
H1008 H 0.75672 0.01796 0.14531 0.0
H1009 H 0.70832 0.04117 0.11977 0.0
H1010 H 0.74207 0.02695 0.17015 0.0
H1011 H 0.69319 0.04969 0.14469 0.0
H1012 H 0.70687 0.09954 0.18931 0.0
H1013 H 0.71405 0.08343 0.16459 0.0
H1014 H 0.70556 0.01488 0.18837 0.0
H1015 H 0.69872 0.03138 0.21339 0.0
C1016 C 0.7426 0.02457 0.14501 0.0
C1017 C 0.73387 0.02912 0.13058 0.0
C1018 C 0.73406 0.02956 0.15927 0.0
C1019 C 0.71661 0.03923 0.15942 0.0
C1020 C 0.70696 0.04263 0.14498 0.0
C1021 C 0.71551 0.03764 0.1307 0.0
C1022 C 0.70635 0.08093 0.18929 0.0
C1023 C 0.70238 0.06679 0.20332 0.0
C1024 C 0.71024 0.07157 0.17506 0.0
C1025 C 0.71029 0.04781 0.17446 0.0
C1026 C 0.70583 0.03336 0.18846 0.0
C1027 C 0.70183 0.04274 0.20276 0.0
H1028 H 0.01779 0.69349 0.12111 0.0
H1029 H 0.03645 0.7649 0.1456 0.0
H1030 H 0.01126 0.67117 0.14636 0.0
H1031 H 0.02909 0.74255 0.17073 0.0
H1032 H 0.02741 0.69993 0.21505 0.0
H1033 H 0.04293 0.7219 0.18962 0.0
H1034 H 0.97865 0.65586 0.16638 0.0
H1035 H 0.96382 0.6338 0.19155 0.0
C1036 C 0.02067 0.70444 0.13188 0.0
C1037 C 0.02743 0.73086 0.13138 0.0
C1038 C 0.01679 0.69165 0.14636 0.0
C1039 C 0.01941 0.70498 0.16062 0.0
C1040 C 0.0272 0.73171 0.16004 0.0
C1041 C 0.03124 0.7445 0.1456 0.0
C1042 C 0.01686 0.69006 0.20446 0.0
C1043 C 0.99433 0.66524 0.2053 0.0
C1044 C 0.02564 0.70266 0.1899 0.0
C1045 C 0.012 0.69071 0.17592 0.0
C1046 C 0.98992 0.66553 0.17681 0.0
C1047 C 0.98126 0.65294 0.1913 0.0
H1048 H 0.34933 0.34858 0.12304 0.0
H1049 H 0.28562 0.28531 0.14834 0.0
H1050 H 0.37274 0.36584 0.14786 0.0
H1051 H 0.30914 0.30203 0.17298 0.0
H1052 H 0.34971 0.34572 0.21699 0.0
H1053 H 0.32537 0.33658 0.19227 0.0
H1054 H 0.39501 0.35289 0.1664 0.0
H1055 H 0.41931 0.36262 0.19095 0.0
C1056 C 0.34028 0.33847 0.1339 0.0
C1057 C 0.31573 0.31552 0.13374 0.0
C1058 C 0.35371 0.34827 0.14812 0.0
C1059 C 0.34289 0.33527 0.16243 0.0
C1060 C 0.31794 0.31278 0.16225 0.0
C1061 C 0.30452 0.30305 0.14808 0.0
C1062 C 0.35984 0.3477 0.20599 0.0
C1063 C 0.38635 0.35471 0.20591 0.0
C1064 C 0.34589 0.34233 0.19184 0.0
C1065 C 0.35819 0.34384 0.17734 0.0
C1066 C 0.38497 0.35184 0.17729 0.0
C1067 C 0.39888 0.35724 0.1914 0.0
H1068 H 0.68926 0.69732 0.54861 0.0
H1069 H 0.61791 0.68217 0.52539 0.0
H1070 H 0.70592 0.69088 0.52357 0.0
H1071 H 0.63425 0.67538 0.50058 0.0
H1072 H 0.67643 0.68182 0.45528 0.0
H1073 H 0.66691 0.69694 0.47993 0.0
H1074 H 0.69553 0.65376 0.50631 0.0
H1075 H 0.70539 0.6391 0.48179 0.0
C1076 C 0.67721 0.69274 0.53816 0.0
C1077 C 0.65223 0.6901 0.53898 0.0
C1078 C 0.68669 0.68898 0.52384 0.0
C1079 C 0.67142 0.68265 0.51006 0.0
C1080 C 0.64671 0.68064 0.51088 0.0
C1081 C 0.63723 0.68429 0.52516 0.0
C1082 C 0.68105 0.67594 0.46636 0.0
C1083 C 0.69146 0.65913 0.46661 0.0
C1084 C 0.67547 0.68445 0.48047 0.0
C1085 C 0.68027 0.67639 0.4951 0.0
C1086 C 0.69181 0.66056 0.49528 0.0
C1087 C 0.69731 0.65201 0.4812 0.0
H1088 H 0.36335 0.02519 0.4547 0.0
H1089 H 0.41792 0.09686 0.47832 0.0
H1090 H 0.34852 0.00351 0.48024 0.0
H1091 H 0.40362 0.07518 0.5037 0.0
H1092 H 0.36324 0.0337 0.54848 0.0
H1093 H 0.36851 0.05483 0.52286 0.0
H1094 H 0.36812 0.98914 0.50006 0.0
H1095 H 0.36235 0.96797 0.52547 0.0
C1096 C 0.37195 0.03636 0.46534 0.0
C1097 C 0.39193 0.06263 0.46451 0.0
C1098 C 0.36358 0.02394 0.47996 0.0
C1099 C 0.37502 0.03756 0.49402 0.0
C1100 C 0.39417 0.06417 0.49315 0.0
C1101 C 0.40251 0.07655 0.47857 0.0
C1102 C 0.36398 0.02371 0.53796 0.0
C1103 C 0.36258 -0.0007 0.53898 0.0
C1104 C 0.36709 0.03582 0.5233 0.0
C1105 C 0.3688 0.0237 0.50941 0.0
C1106 C 0.36651 0.99888 0.51047 0.0
C1107 C 0.36343 0.98684 0.52507 0.0
H1108 H 0.03654 0.36873 0.45355 0.0
H1109 H 0.9672 0.35908 0.47687 0.0
H1110 H 0.05779 0.37448 0.47916 0.0
H1111 H 0.98846 0.36529 0.50231 0.0
H1112 H 0.0273 0.36249 0.54731 0.0
H1113 H 0.00598 0.34761 0.52164 0.0
H1114 H 0.07481 0.40909 0.49884 0.0
H1115 H 0.09612 0.42353 0.5243 0.0
C1116 C 0.02578 0.36759 0.46414 0.0
C1117 C 0.00031 0.36368 0.46321 0.0
C1118 C 0.03796 0.37099 0.47879 0.0
C1119 C 0.02486 0.37047 0.49278 0.0
C1120 C -0.00099 0.36549 0.49181 0.0
C1121 C 0.98689 0.36215 0.4772 0.0
C1122 C 0.03793 0.37255 0.53677 0.0
C1123 C 0.06327 0.39428 0.53781 0.0
C1124 C 0.02572 0.36412 0.52209 0.0
C1125 C 0.03867 0.37723 0.50819 0.0
C1126 C 0.06439 0.39833 0.50926 0.0
C1127 C 0.07653 0.40675 0.52389 0.0
H1128 H 0.35894 0.36226 0.54749 0.0
H1129 H 0.37022 0.43297 0.52523 0.0
H1130 H 0.36469 0.34644 0.52197 0.0
H1131 H 0.37656 0.41762 0.49997 0.0
H1132 H 0.37144 0.3785 0.45405 0.0
H1133 H 0.35617 0.38627 0.47914 0.0
H1134 H 0.40046 0.35731 0.50402 0.0
H1135 H 0.41505 0.34892 0.479 0.0
C1136 C 0.36249 0.37433 0.53714 0.0
C1137 C 0.36426 0.39889 0.53837 0.0
C1138 C 0.36589 0.36534 0.52254 0.0
C1139 C 0.37112 0.38076 0.5089 0.0
C1140 C 0.37215 0.40501 0.51014 0.0
C1141 C 0.36874 0.41394 0.52468 0.0
C1142 C 0.37754 0.37342 0.46489 0.0
C1143 C 0.3946 0.36331 0.46457 0.0
C1144 C 0.36894 0.37801 0.47927 0.0
C1145 C 0.3773 0.37267 0.49362 0.0
C1146 C 0.3934 0.36142 0.49322 0.0
C1147 C 0.40192 0.35676 0.47886 0.0
H1148 H 0.62022 0.97048 0.52175 0.0
H1149 H 0.68833 0.02948 0.54638 0.0
H1150 H 0.63668 0.9945 0.49727 0.0
H1151 H 0.70518 0.05354 0.52163 0.0
H1152 H 0.67957 0.03276 0.45282 0.0
H1153 H 0.67063 0.00807 0.47737 0.0
H1154 H 0.69331 0.07869 0.50395 0.0
H1155 H 0.70269 0.10335 0.47949 0.0
C1156 C 0.63889 0.9885 0.5219 0.0
C1157 C 0.65291 0.99819 0.53602 0.0
C1158 C 0.64845 0.00217 0.50781 0.0
C1159 C 0.67229 0.02592 0.50746 0.0
C1160 C 0.68664 0.03539 0.52154 0.0
C1161 C 0.67706 0.02161 0.53569 0.0
C1162 C 0.683 0.04303 0.46392 0.0
C1163 C 0.6916 0.06992 0.46423 0.0
C1164 C 0.67776 0.0289 0.47798 0.0
C1165 C 0.68104 0.04137 0.49263 0.0
C1166 C 0.6908 0.06851 0.49291 0.0
C1167 C 0.69601 0.08261 0.47887 0.0
H1168 H 0.96537 0.62473 0.48012 0.0
H1169 H 0.03038 0.68675 0.45491 0.0
H1170 H 0.98948 0.64015 0.50474 0.0
H1171 H 0.05453 0.70246 0.47969 0.0
H1172 H 0.0994 0.69356 0.5222 0.0
H1173 H 0.07489 0.68537 0.4978 0.0
H1174 H 0.00805 0.67608 0.52407 0.0
H1175 H 0.03265 0.68403 0.54865 0.0
C1176 C 0.98473 0.64188 0.47987 0.0
C1177 C 0.99609 0.65441 0.46557 0.0
C1178 C 0.99846 0.65085 0.49402 0.0
C1179 C 0.02395 0.67249 0.49418 0.0
C1180 C 0.03501 0.68556 0.47992 0.0
C1181 C 0.02118 0.67665 0.46575 0.0
C1182 C 0.07955 0.69002 0.52278 0.0
C1183 C 0.06787 0.68924 0.53735 0.0
C1184 C 0.06557 0.68553 0.50876 0.0
C1185 C 0.0395 0.68003 0.50898 0.0
C1186 C 0.02803 0.68001 0.52354 0.0
C1187 C 0.04212 0.68466 0.53759 0.0
H1188 H 0.9775 0.28213 0.04007 0.0
H1189 H 0.05784 0.34495 0.04078 0.0
H1190 H 0.97786 0.28303 0.01139 0.0
H1191 H 0.05824 0.34565 0.0119 0.0
H1192 H 0.0421 0.34458 0.95778 0.0
H1193 H 0.03829 0.35161 0.98603 0.0
H1194 H 0.00245 0.26844 0.99404 0.0
H1195 H 0.00634 0.26151 0.96622 0.0
C1196 C 0.99509 0.29651 0.0341 0.0
C1197 C 0.01776 0.31322 0.04267 0.0
C1198 C 0.99531 0.29696 0.01767 0.0
C1199 C 0.01821 0.31409 0.00941 0.0
C1200 C 0.04029 0.33227 0.01795 0.0
C1201 C 0.04008 0.33183 0.03448 0.0
C1202 C 0.03326 0.32787 0.96562 0.0
C1203 C 0.02455 0.30251 0.95982 0.0
C1204 C 0.03117 0.33189 0.98175 0.0
C1205 C 0.01985 0.31054 0.9922 0.0
C1206 C 0.01085 0.28524 0.98626 0.0
C1207 C 0.01327 0.2813 0.97032 0.0
H1208 H 0.71595 0.75418 0.9652 0.0
H1209 H 0.7582 0.71217 0.96136 0.0
H1210 H 0.71272 0.74743 0.99362 0.0
H1211 H 0.7545 0.70492 0.98978 0.0
H1212 H 0.78392 0.74276 0.03907 0.0
H1213 H 0.77695 0.73594 0.01088 0.0
H1214 H 0.69704 0.71838 0.01667 0.0
H1215 H 0.70423 0.7256 0.04514 0.0
C1216 C 0.72389 0.74284 0.97037 0.0
C1217 C 0.73766 0.73403 0.96108 0.0
C1218 C 0.72193 0.73886 0.98668 0.0
C1219 C 0.7337 0.72598 0.99402 0.0
C1220 C 0.74566 0.71536 0.98453 0.0
C1221 C 0.74763 0.71937 0.96822 0.0
C1222 C 0.76472 0.73706 0.03439 0.0
C1223 C 0.74468 0.73491 0.0443 0.0
C1224 C 0.76064 0.73292 0.01821 0.0
C1225 C 0.73642 0.7266 0.01148 0.0
C1226 C 0.71598 0.72342 0.02148 0.0
C1227 C 0.72005 0.72742 0.03777 0.0
H1228 H 0.27245 0.98642 0.96661 0.0
H1229 H 0.34994 0.05281 0.9602 0.0
H1230 H 0.2809 0.98598 0.99463 0.0
H1231 H 0.3585 0.05236 0.98844 0.0
H1232 H 0.33676 0.06605 0.04013 0.0
H1233 H 0.33969 0.06332 0.01163 0.0
H1234 H 0.3073 0.97972 0.01519 0.0
H1235 H 0.30427 0.98247 0.04382 0.0
C1236 C 0.29149 0.00064 0.97116 0.0
C1237 C 0.31046 0.01981 0.96126 0.0
C1238 C 0.29642 0.00025 0.98721 0.0
C1239 C 0.32035 0.01917 0.99376 0.0
C1240 C 0.33981 0.03764 0.98372 0.0
C1241 C 0.33496 0.03785 0.96758 0.0
C1242 C 0.33086 0.04717 0.03487 0.0
C1243 C 0.32001 0.02443 0.04416 0.0
C1244 C 0.33268 0.04562 0.01854 0.0
C1245 C 0.32349 0.02127 0.01115 0.0
C1246 C 0.31428 0.99873 0.02056 0.0
C1247 C 0.31267 0.00032 0.03694 0.0
H1248 H 0.06891 0.77809 0.96403 0.0
H1249 H 0.99045 0.7127 0.95908 0.0
H1250 H 0.06667 0.77106 0.99247 0.0
H1251 H 0.98805 0.70595 0.98769 0.0
H1252 H 0.98652 0.7426 0.03778 0.0
H1253 H 0.98786 0.73709 0.00935 0.0
H1254 H 0.06085 0.73749 0.01432 0.0
H1255 H 0.05926 0.74252 0.04294 0.0
C1256 C 0.05136 0.76192 0.96901 0.0
C1257 C 0.02979 0.74603 0.95939 0.0
C1258 C 0.05015 0.7578 0.98527 0.0
C1259 C 0.02717 0.738 0.99226 0.0
C1260 C 0.00597 0.72138 0.98257 0.0
C1261 C 0.00737 0.72519 0.96623 0.0
C1262 C 0.00257 0.74095 0.03284 0.0
C1263 C 0.02286 0.74312 0.04252 0.0
C1264 C 0.00325 0.73764 0.01659 0.0
C1265 C 0.02448 0.7369 0.00965 0.0
C1266 C 0.04429 0.73803 0.0194 0.0
C1267 C 0.04334 0.74082 0.03574 0.0
H1268 H 0.33535 0.33106 0.04683 0.0
H1269 H 0.25754 0.26724 0.03702 0.0
H1270 H 0.34255 0.34027 0.01838 0.0
H1271 H 0.26469 0.27629 0.00909 0.0
H1272 H 0.27031 0.31201 0.96306 0.0
H1273 H 0.27003 0.31278 0.99169 0.0
H1274 H 0.34519 0.31698 0.99262 0.0
H1275 H 0.3457 0.3167 0.96363 0.0
C1276 C 0.31985 0.31907 0.03864 0.0
C1277 C 0.29584 0.29852 0.04415 0.0
C1278 C 0.324 0.32428 0.02242 0.0
C1279 C 0.30404 0.30922 0.01157 0.0
C1280 C 0.28025 0.28858 0.01717 0.0
C1281 C 0.27622 0.28329 0.03321 0.0
C1282 C 0.28704 0.3136 0.96934 0.0
C1283 C 0.30783 0.31386 0.96116 0.0
C1284 C 0.28685 0.31399 0.98573 0.0
C1285 C 0.30732 0.31438 0.99437 0.0
C1286 C 0.32915 0.31667 0.98623 0.0
C1287 C 0.32942 0.31646 0.96968 0.0
H1288 H 0.71751 0.98894 0.96143 0.0
H1289 H 0.76198 0.0734 0.96047 0.0
H1290 H 0.71605 0.98997 0.9902 0.0
H1291 H 0.76037 0.07439 0.98916 0.0
H1292 H 0.7917 0.05956 0.03601 0.0
H1293 H 0.78376 0.06075 0.00802 0.0
H1294 H 0.70195 0.00447 0.0149 0.0
H1295 H 0.70996 0.00336 0.04325 0.0
C1296 C 0.72635 0.00772 0.96733 0.0
C1297 C 0.74015 0.03108 0.95871 0.0
C1298 C 0.72544 0.00831 0.98381 0.0
C1299 C 0.73843 0.03225 0.99193 0.0
C1300 C 0.75053 0.05563 0.98322 0.0
C1301 C 0.75134 0.05506 0.96679 0.0
C1302 C 0.77194 0.04762 0.03162 0.0
C1303 C 0.75146 0.0313 0.0418 0.0
C1304 C 0.76735 0.04847 0.01558 0.0
C1305 C 0.7422 0.0328 0.00926 0.0
C1306 C 0.72153 0.01672 0.01946 0.0
C1307 C 0.72609 0.01616 0.03565 0.0
H1308 H 0.72384 0.67117 0.29564 0.0
H1309 H 0.6457 0.60444 0.29747 0.0
H1310 H 0.72423 0.67426 0.32447 0.0
H1311 H 0.64587 0.60782 0.32605 0.0
H1312 H 0.67453 0.59284 0.37271 0.0
H1313 H 0.6712 0.5971 0.34456 0.0
H1314 H 0.70427 0.68057 0.34971 0.0
H1315 H 0.70776 0.67627 0.37834 0.0
C1316 C 0.7065 0.65768 0.30216 0.0
C1317 C 0.68489 0.63732 0.29435 0.0
C1318 C 0.7067 0.65947 0.31865 0.0
C1319 C 0.68527 0.64095 0.32753 0.0
C1320 C 0.6629 0.62202 0.31955 0.0
C1321 C 0.66275 0.62015 0.30317 0.0
C1322 C 0.68103 0.61215 0.36793 0.0
C1323 C 0.69139 0.63423 0.37777 0.0
C1324 C 0.67891 0.61456 0.35176 0.0
C1325 C 0.68715 0.63913 0.34491 0.0
C1326 C 0.69772 0.66138 0.35468 0.0
C1327 C 0.69965 0.65892 0.37103 0.0
H1328 H 0.42337 0.04581 0.37634 0.0
H1329 H 0.38055 0.08725 0.37249 0.0
H1330 H 0.42213 0.04093 0.34775 0.0
H1331 H 0.37961 0.08266 0.34388 0.0
H1332 H 0.37524 0.06331 0.29179 0.0
H1333 H 0.3659 0.05411 0.31998 0.0
H1334 H 0.44638 0.07516 0.32798 0.0
H1335 H 0.45557 0.08419 0.30007 0.0
C1336 C 0.41317 0.05336 0.36942 0.0
C1337 C 0.40236 0.06723 0.37663 0.0
C1338 C 0.41258 0.05068 0.35304 0.0
C1339 C 0.40114 0.06177 0.34354 0.0
C1340 C 0.38848 0.07379 0.35086 0.0
C1341 C 0.38911 0.07652 0.36725 0.0
C1342 C 0.39075 0.06549 0.29958 0.0
C1343 C 0.41616 0.07461 0.29377 0.0
C1344 C 0.38544 0.06035 0.31569 0.0
C1345 C 0.40539 0.06388 0.32621 0.0
C1346 C 0.43046 0.07186 0.3202 0.0
C1347 C 0.4358 0.07725 0.3042 0.0
H1348 H 0.0221 0.4062 0.37501 0.0
H1349 H 0.97016 0.32278 0.37114 0.0
H1350 H 0.0274 0.40919 0.34642 0.0
H1351 H 0.97509 0.32581 0.34259 0.0
H1352 H 0.99234 0.33699 0.29068 0.0
H1353 H 0.00242 0.33623 0.31864 0.0
H1354 H 0.99531 0.40472 0.32664 0.0
H1355 H 0.98552 0.40553 0.29893 0.0
C1356 C 0.01231 0.38842 0.36809 0.0
C1357 C 0.99542 0.36431 0.37529 0.0
C1358 C 0.01523 0.39015 0.35171 0.0
C1359 C 0.00134 0.36781 0.34221 0.0
C1360 C 0.98618 0.34338 0.34954 0.0
C1361 C 0.98324 0.34165 0.36592 0.0
C1362 C 0.99352 0.35217 0.29839 0.0
C1363 C 0.98795 0.37119 0.29268 0.0
C1364 C -0.00084 0.35167 0.31439 0.0
C1365 C -0.00039 0.37037 0.32488 0.0
C1366 C 0.99548 0.39022 0.31889 0.0
C1367 C 0.98965 0.39057 0.303 0.0
H1368 H 0.67944 0.11968 0.36893 0.0
H1369 H 0.70414 0.0631 0.37747 0.0
H1370 H 0.6767 0.11055 0.34094 0.0
H1371 H 0.70122 0.05376 0.34904 0.0
H1372 H 0.72372 0.07776 0.29437 0.0
H1373 H 0.72373 0.07752 0.32331 0.0
H1374 H 0.64871 0.07368 0.32332 0.0
H1375 H 0.64895 0.0744 0.29468 0.0
C1376 C 0.6842 0.10517 0.36483 0.0
C1377 C 0.69192 0.09205 0.37543 0.0
C1378 C 0.68244 0.09979 0.34876 0.0
C1379 C 0.68841 0.08118 0.3428 0.0
C1380 C 0.69647 0.06818 0.35333 0.0
C1381 C 0.69806 0.07346 0.36956 0.0
C1382 C 0.70699 0.0762 0.30061 0.0
C1383 C 0.68653 0.07651 0.29232 0.0
C1384 C 0.70697 0.07605 0.31715 0.0
C1385 C 0.68647 0.07614 0.32556 0.0
C1386 C 0.66507 0.07423 0.31717 0.0
C1387 C 0.66515 0.07453 0.30076 0.0
H1388 H 0.01633 0.66028 0.37827 0.0
H1389 H 0.93432 0.6332 0.37086 0.0
H1390 H 0.02446 0.6697 0.34997 0.0
H1391 H 0.94241 0.64279 0.34287 0.0
H1392 H 0.96469 0.67726 0.29512 0.0
H1393 H 0.96616 0.68037 0.32383 0.0
H1394 H 0.01002 0.63983 0.32555 0.0
H1395 H 0.00855 0.63667 0.29682 0.0
C1396 C 0.00017 0.65674 0.37065 0.0
C1397 C 0.97468 0.64589 0.37672 0.0
C1398 C 0.0048 0.66205 0.35449 0.0
C1399 C 0.98409 0.65709 0.34424 0.0
C1400 C 0.95883 0.64717 0.35049 0.0
C1401 C 0.95416 0.64148 0.36651 0.0
C1402 C 0.97523 0.66961 0.30159 0.0
C1403 C 0.98624 0.65645 0.29373 0.0
C1404 C 0.97596 0.67129 0.31802 0.0
C1405 C 0.98792 0.66006 0.32692 0.0
C1406 C 0.00076 0.64876 0.319 0.0
C1407 C -0.00017 0.64687 0.30255 0.0
H1408 H 0.45154 0.4006 0.37088 0.0
H1409 H 0.3727 0.33682 0.37777 0.0
H1410 H 0.44349 0.40002 0.34274 0.0
H1411 H 0.36454 0.33624 0.34939 0.0
H1412 H 0.38335 0.32068 0.2973 0.0
H1413 H 0.38155 0.32368 0.32591 0.0
H1414 H 0.4181 0.40774 0.32242 0.0
H1415 H 0.42011 0.40477 0.29381 0.0
C1416 C 0.43232 0.3867 0.36639 0.0
C1417 C 0.41279 0.36866 0.3765 0.0
C1418 C 0.42764 0.3865 0.35027 0.0
C1419 C 0.40336 0.36809 0.34383 0.0
C1420 C 0.38348 0.35056 0.35401 0.0
C1421 C 0.3881 0.35096 0.37024 0.0
C1422 C 0.39045 0.33975 0.30261 0.0
C1423 C 0.40215 0.36251 0.29333 0.0
C1424 C 0.38931 0.34145 0.31901 0.0
C1425 C 0.39997 0.36597 0.32643 0.0
C1426 C 0.41007 0.3886 0.31704 0.0
C1427 C 0.41109 0.38688 0.30065 0.0
H1428 H 0.32964 0.99278 0.71108 0.0
H1429 H 0.39903 0.98678 0.70464 0.0
H1430 H 0.32922 0.00106 0.68278 0.0
H1431 H 0.3986 0.99489 0.67662 0.0
H1432 H 0.40115 0.0207 0.62766 0.0
H1433 H 0.4031 0.02653 0.65621 0.0
H1434 H 0.32004 0.97231 0.65931 0.0
H1435 H 0.31804 0.96671 0.63079 0.0
C1436 C 0.34505 0.99374 0.70368 0.0
C1437 C 0.36425 0.98895 0.71002 0.0
C1438 C 0.34475 0.99835 0.6875 0.0
C1439 C 0.36386 0.99861 0.67745 0.0
C1440 C 0.3838 0.99518 0.68402 0.0
C1441 C 0.38392 0.99031 0.70009 0.0
C1442 C 0.3832 0.01056 0.6344 0.0
C1443 C 0.35951 0.99299 0.62702 0.0
C1444 C 0.38434 0.0138 0.65075 0.0
C1445 C 0.36179 -0.00039 0.66004 0.0
C1446 C 0.33773 0.98364 0.6525 0.0
C1447 C 0.33661 0.98033 0.63615 0.0
H1448 H 0.07798 0.4469 0.70318 0.0
H1449 H 0.06549 0.36899 0.71013 0.0
H1450 H 0.06969 0.43834 0.67515 0.0
H1451 H 0.05707 0.36029 0.68184 0.0
H1452 H 0.09174 0.38052 0.62974 0.0
H1453 H 0.08623 0.37777 0.65829 0.0
H1454 H 0.037 0.41243 0.65487 0.0
H1455 H 0.04275 0.41546 0.62632 0.0
C1456 C 0.073 0.42774 0.69873 0.0
C1457 C 0.07255 0.40867 0.70881 0.0
C1458 C 0.06804 0.42275 0.68267 0.0
C1459 C 0.06273 0.39863 0.67625 0.0
C1460 C 0.06125 0.37912 0.68644 0.0
C1461 C 0.06594 0.38404 0.70261 0.0
C1462 C 0.0792 0.38694 0.63504 0.0
C1463 C 0.06798 0.39855 0.62582 0.0
C1464 C 0.07594 0.38525 0.65141 0.0
C1465 C 0.06147 0.39522 0.65886 0.0
C1466 C 0.0486 0.40496 0.64948 0.0
C1467 C 0.0518 0.40658 0.63312 0.0
H1468 H 0.6814 0.72074 0.71212 0.0
H1469 H 0.60073 0.66093 0.7051 0.0
H1470 H 0.68782 0.72456 0.68335 0.0
H1471 H 0.60732 0.66486 0.67664 0.0
H1472 H 0.62868 0.72887 0.6346 0.0
H1473 H 0.63325 0.72541 0.66293 0.0
H1474 H 0.66565 0.67522 0.65477 0.0
H1475 H 0.66116 0.6786 0.62614 0.0
C1476 C 0.6653 0.70797 0.70449 0.0
C1477 C 0.64051 0.69067 0.71084 0.0
C1478 C 0.66901 0.71016 0.6881 0.0
C1479 C 0.64804 0.6949 0.67795 0.0
C1480 C 0.62377 0.67664 0.68431 0.0
C1481 C 0.62004 0.6745 0.70058 0.0
C1482 C 0.63727 0.71749 0.63877 0.0
C1483 C 0.6444 0.70385 0.62815 0.0
C1484 C 0.63995 0.71563 0.65497 0.0
C1485 C 0.64987 0.70017 0.66088 0.0
C1486 C 0.65819 0.68746 0.65036 0.0
C1487 C 0.65558 0.68938 0.63405 0.0
H1488 H 0.40641 0.44475 0.70447 0.0
H1489 H 0.33352 0.37255 0.71102 0.0
H1490 H 0.40434 0.43643 0.67625 0.0
H1491 H 0.33132 0.36425 0.68259 0.0
H1492 H 0.32075 0.39326 0.6321 0.0
H1493 H 0.32399 0.38863 0.66042 0.0
H1494 H 0.40403 0.40667 0.65477 0.0
H1495 H 0.40073 0.41123 0.6263 0.0
C1496 C 0.3902 0.42681 0.69989 0.0
C1497 C 0.37003 0.40939 0.7099 0.0
C1498 C 0.3891 0.42195 0.68374 0.0
C1499 C 0.36762 0.39973 0.6772 0.0
C1500 C 0.34805 0.3816 0.68731 0.0
C1501 C 0.34936 0.38629 0.70357 0.0
C1502 C 0.33884 0.39562 0.63685 0.0
C1503 C 0.36057 0.40285 0.62703 0.0
C1504 C 0.34065 0.3928 0.65306 0.0
C1505 C 0.36432 0.39745 0.65982 0.0
C1506 C 0.3856 0.40315 0.64987 0.0
C1507 C 0.38368 0.40565 0.63359 0.0
H1508 H 0.59552 0.93371 0.7029 0.0
H1509 H 0.66811 0.00637 0.70937 0.0
H1510 H 0.60239 0.93684 0.6747 0.0
H1511 H 0.67507 0.00947 0.68062 0.0
H1512 H 0.65107 0.01096 0.62575 0.0
H1513 H 0.6529 0.01379 0.65469 0.0
H1514 H 0.63464 0.93332 0.65721 0.0
H1515 H 0.63239 0.93038 0.62863 0.0
C1516 C 0.613 0.95044 0.6983 0.0
C1517 C 0.63137 0.96971 0.7084 0.0
C1518 C 0.61701 0.95213 0.68209 0.0
C1519 C 0.63948 0.97317 0.67547 0.0
C1520 C 0.65762 0.99299 0.68545 0.0
C1521 C 0.65367 0.99119 0.70185 0.0
C1522 C 0.64803 0.99412 0.63254 0.0
C1523 C 0.64114 0.97031 0.625 0.0
C1524 C 0.64912 0.99575 0.64906 0.0
C1525 C 0.6434 0.97361 0.65817 0.0
C1526 C 0.63857 0.95053 0.6505 0.0
C1527 C 0.63733 0.94887 0.63413 0.0
H1528 H 0.06097 0.70147 0.71008 0.0
H1529 H 0.11642 0.67435 0.70532 0.0
H1530 H 0.05998 0.70506 0.68117 0.0
H1531 H 0.11532 0.67781 0.67692 0.0
H1532 H 0.13763 0.72095 0.63157 0.0
H1533 H 0.13256 0.71846 0.66 0.0
H1534 H 0.04854 0.67632 0.65484 0.0
H1535 H 0.05363 0.67905 0.62597 0.0
C1536 C 0.07262 0.69599 0.70289 0.0
C1537 C 0.08903 0.68797 0.70996 0.0
C1538 C 0.07203 0.698 0.6864 0.0
C1539 C 0.08795 0.69217 0.67687 0.0
C1540 C 0.10327 0.68297 0.68399 0.0
C1541 C 0.10382 0.68092 0.70029 0.0
C1542 C 0.11802 0.71138 0.63643 0.0
C1543 C 0.09602 0.69983 0.62655 0.0
C1544 C 0.11513 0.70992 0.65273 0.0
C1545 C 0.09017 0.69676 0.65961 0.0
C1546 C 0.06801 0.68653 0.6498 0.0
C1547 C 0.07092 0.68805 0.63334 0.0
H1548 H 0.82022 0.12114 0.09046 0.0
H1549 H 0.86333 0.08097 0.09902 0.0
H1550 H 0.8608 0.16304 0.09148 0.0
H1551 H 0.90395 0.12296 0.10042 0.0
H1552 H 0.97269 0.20023 0.0817 0.0
H1553 H 0.93253 0.15791 0.08277 0.0
H1554 H 0.89495 0.1927 0.10911 0.0
H1555 H 0.93496 0.23515 0.1077 0.0
C1556 C 0.83836 0.12129 0.09273 0.0
C1557 C 0.83863 0.09779 0.09461 0.0
C1558 C 0.86161 0.14532 0.09341 0.0
C1559 C 0.88565 0.14637 0.09602 0.0
C1560 C 0.88582 0.12282 0.09818 0.0
C1561 C 0.86255 0.09878 0.09747 0.0
C1562 C 0.95588 0.19879 0.08779 0.0
C1563 C 0.95691 0.22101 0.09455 0.0
C1564 C 0.93291 0.17451 0.08849 0.0
C1565 C 0.91048 0.17191 0.096 0.0
C1566 C 0.91174 0.19409 0.10303 0.0
C1567 C 0.9347 0.21838 0.1023 0.0
H1568 H 0.9329 0.72456 0.08974 0.0
H1569 H 0.97409 0.80648 0.10222 0.0
H1570 H 0.89144 0.72407 0.09114 0.0
H1571 H 0.93255 0.80585 0.10418 0.0
H1572 H 0.85769 0.80266 0.08628 0.0
H1573 H 0.89925 0.80334 0.08716 0.0
H1574 H 0.86078 0.72646 0.10842 0.0
H1575 H 0.81902 0.72549 0.10701 0.0
C1576 C 0.93304 0.74238 0.09299 0.0
C1577 C 0.95671 0.76559 0.09579 0.0
C1578 C 0.90925 0.74208 0.09389 0.0
C1579 C 0.90861 0.76494 0.09774 0.0
C1580 C 0.93233 0.788 0.10092 0.0
C1581 C 0.95613 0.78834 0.09989 0.0
C1582 C 0.85815 0.78597 0.09122 0.0
C1583 C 0.83511 0.76398 0.09651 0.0
C1584 C 0.88201 0.78641 0.09182 0.0
C1585 C 0.8834 0.76493 0.09785 0.0
C1586 C 0.86037 0.74316 0.10347 0.0
C1587 C 0.83646 0.74266 0.10276 0.0
H1588 H 0.24999 0.07547 0.10335 0.0
H1589 H 0.32683 0.1184 0.08245 0.0
H1590 H 0.24774 0.1156 0.10469 0.0
H1591 H 0.32421 0.15822 0.08306 0.0
H1592 H 0.32315 0.23052 0.0992 0.0
H1593 H 0.32532 0.19037 0.09986 0.0
H1594 H 0.2428 0.14561 0.08881 0.0
H1595 H 0.24053 0.1857 0.08891 0.0
C1596 C 0.26632 0.09348 0.09896 0.0
C1597 C 0.2886 0.09387 0.09284 0.0
C1598 C 0.26499 0.11647 0.09962 0.0
C1599 C 0.2858 0.14025 0.09398 0.0
C1600 C 0.30803 0.14046 0.08781 0.0
C1601 C 0.30948 0.11758 0.08735 0.0
C1602 C 0.30549 0.21206 0.09699 0.0
C1603 C 0.28169 0.2112 0.094 0.0
C1604 C 0.30673 0.18903 0.09725 0.0
C1605 C 0.28426 0.16467 0.09431 0.0
C1606 C 0.26042 0.16391 0.09139 0.0
C1607 C 0.25913 0.18691 0.09133 0.0
H1608 H 0.23624 0.93713 0.89976 0.0
H1609 H 0.1943 0.97531 0.91587 0.0
H1610 H 0.19511 0.89592 0.89747 0.0
H1611 H 0.15324 0.93396 0.91418 0.0
H1612 H 0.08078 0.86028 0.89837 0.0
H1613 H 0.12193 0.90172 0.89697 0.0
H1614 H 0.16321 0.8634 0.91418 0.0
H1615 H 0.12227 0.82193 0.91498 0.0
C1616 C 0.2182 0.93669 0.90281 0.0
C1617 C 0.21846 0.95939 0.90804 0.0
C1618 C 0.19463 0.91304 0.9016 0.0
C1619 C 0.17082 0.91152 0.90574 0.0
C1620 C 0.17112 0.93443 0.91068 0.0
C1621 C 0.19467 0.95813 0.91175 0.0
C1622 C 0.09872 0.86074 0.90172 0.0
C1623 C 0.09834 0.83791 0.90681 0.0
C1624 C 0.12228 0.8845 0.90102 0.0
C1625 C 0.14593 0.88599 0.90552 0.0
C1626 C 0.14549 0.86297 0.91038 0.0
C1627 C 0.12198 0.83919 0.91094 0.0
H1628 H 0.24333 0.33469 0.91687 0.0
H1629 H 0.20608 0.25745 0.89629 0.0
H1630 H 0.20151 0.33351 0.91732 0.0
H1631 H 0.1644 0.25665 0.89599 0.0
H1632 H 0.08956 0.24979 0.9155 0.0
H1633 H 0.13184 0.25217 0.91373 0.0
H1634 H 0.16836 0.33453 0.90246 0.0
H1635 H 0.12611 0.33226 0.905 0.0
C1636 C 0.22625 0.31765 0.91216 0.0
C1637 C 0.22789 0.2961 0.90662 0.0
C1638 C 0.20226 0.317 0.91234 0.0
C1639 C 0.17944 0.2949 0.90679 0.0
C1640 C 0.1814 0.27375 0.9007 0.0
C1641 C 0.20532 0.27427 0.90073 0.0
C1642 C 0.10666 0.2684 0.91268 0.0
C1643 C 0.1046 0.29085 0.91044 0.0
C1644 C 0.1309 0.26975 0.91152 0.0
C1645 C 0.1536 0.29352 0.90785 0.0
C1646 C 0.15142 0.31598 0.90553 0.0
C1647 C 0.12719 0.31468 0.90691 0.0
H1648 H 0.81224 0.86438 0.91579 0.0
H1649 H 0.72873 0.82443 0.92351 0.0
H1650 H 0.81312 0.90625 0.9148 0.0
H1651 H 0.72966 0.8661 0.92289 0.0
H1652 H 0.73485 0.9388 0.90141 0.0
H1653 H 0.73597 0.89825 0.90319 0.0
H1654 H 0.807 0.93758 0.93068 0.0
H1655 H 0.80614 0.97851 0.92859 0.0
C1656 C 0.79414 0.86459 0.91744 0.0
C1657 C 0.77039 0.84114 0.9196 0.0
C1658 C 0.79465 0.88856 0.91694 0.0
C1659 C 0.77141 0.88949 0.91861 0.0
C1660 C 0.74782 0.86604 0.92123 0.0
C1661 C 0.74731 0.84216 0.92168 0.0
C1662 C 0.75075 0.93884 0.9078 0.0
C1663 C 0.77037 0.96181 0.91489 0.0
C1664 C 0.7513 0.91554 0.90892 0.0
C1665 C 0.77144 0.9146 0.9172 0.0
C1666 C 0.79131 0.93769 0.92413 0.0
C1667 C 0.79076 0.96109 0.92299 0.0
H1668 H 0.48511 0.45494 0.43694 0.0
H1669 H 0.52712 0.4162 0.42194 0.0
H1670 H 0.52635 0.49612 0.43927 0.0
H1671 H 0.56824 0.45743 0.4238 0.0
H1672 H 0.6401 0.53028 0.44117 0.0
H1673 H 0.59851 0.48925 0.44201 0.0
H1674 H 0.55952 0.52837 0.42247 0.0
H1675 H 0.60095 0.56948 0.4221 0.0
C1676 C 0.50317 0.45525 0.43413 0.0
C1677 C 0.50291 0.43239 0.42923 0.0
C1678 C 0.52679 0.47886 0.43538 0.0
C1679 C 0.55063 0.48013 0.43168 0.0
C1680 C 0.55031 0.45711 0.42697 0.0
C1681 C 0.52672 0.4335 0.4258 0.0
C1682 C 0.62258 0.53012 0.43719 0.0
C1683 C 0.62376 0.55305 0.43154 0.0
C1684 C 0.59878 0.50659 0.43757 0.0
C1685 C 0.57567 0.50545 0.43223 0.0
C1686 C 0.57684 0.52857 0.42687 0.0
C1687 C 0.60062 0.55212 0.42658 0.0
H1688 H 0.64064 0.15036 0.43041 0.0
H1689 H 0.60026 0.06673 0.42314 0.0
H1690 H 0.59876 0.14931 0.4309 0.0
H1691 H 0.55848 0.06572 0.42327 0.0
H1692 H 0.4869 0.06908 0.43942 0.0
H1693 H 0.5292 0.07126 0.44073 0.0
H1694 H 0.56362 0.14214 0.41297 0.0
H1695 H 0.52134 0.14023 0.41198 0.0
C1696 C 0.62281 0.13176 0.42892 0.0
C1697 C 0.6237 0.10862 0.42674 0.0
C1698 C 0.59883 0.13118 0.4291 0.0
C1699 C 0.57526 0.10744 0.4271 0.0
C1700 C 0.57622 0.08428 0.42507 0.0
C1701 C 0.60018 0.08487 0.4249 0.0
C1702 C 0.50353 0.08519 0.43366 0.0
C1703 C 0.50082 0.10445 0.42556 0.0
C1704 C 0.52773 0.08636 0.43433 0.0
C1705 C 0.54977 0.1068 0.42689 0.0
C1706 C 0.5471 0.12629 0.41898 0.0
C1707 C 0.52287 0.12513 0.41833 0.0
H1708 H 0.99614 0.45344 0.43472 0.0
H1709 H 0.92616 0.41626 0.40623 0.0
H1710 H 0.99439 0.49381 0.43482 0.0
H1711 H 0.9247 0.45691 0.40603 0.0
H1712 H 0.91571 0.52578 0.4238 0.0
H1713 H 0.9167 0.48492 0.42345 0.0
H1714 H 0.00057 0.52854 0.41711 0.0
H1715 H -0.00039 0.56935 0.41781 0.0
C1716 C 0.98043 0.45394 0.42842 0.0
C1717 C 0.96129 0.4317 0.42046 0.0
C1718 C 0.97952 0.47713 0.42839 0.0
C1719 C 0.95948 0.47865 0.42037 0.0
C1720 C 0.94025 0.45632 0.41246 0.0
C1721 C 0.94115 0.43308 0.4125 0.0
C1722 C 0.93433 0.5266 0.4223 0.0
C1723 C 0.95759 0.55075 0.42088 0.0
C1724 C 0.93489 0.50319 0.42202 0.0
C1725 C 0.95872 0.50345 0.4203 0.0
C1726 C 0.98193 0.52765 0.4187 0.0
C1727 C 0.98138 0.55104 0.41901 0.0
H1728 H 0.74542 0.19425 0.25451 0.0
H1729 H 0.78978 0.15553 0.24539 0.0
H1730 H 0.786 0.23616 0.25634 0.0
H1731 H 0.83028 0.19744 0.24668 0.0
H1732 H 0.89973 0.27296 0.26373 0.0
H1733 H 0.85867 0.2314 0.26431 0.0
H1734 H 0.82031 0.26717 0.23981 0.0
H1735 H 0.86116 0.30887 0.23973 0.0
C1736 C 0.76386 0.19473 0.25286 0.0
C1737 C 0.76446 0.17165 0.2498 0.0
C1738 C 0.78711 0.21875 0.25381 0.0
C1739 C 0.81144 0.22022 0.25162 0.0
C1740 C 0.81195 0.19702 0.24868 0.0
C1741 C 0.78872 0.173 0.24783 0.0
C1742 C 0.88246 0.27194 0.25856 0.0
C1743 C 0.88364 0.29412 0.25167 0.0
C1744 C 0.85897 0.24809 0.2588 0.0
C1745 C 0.83617 0.24587 0.25204 0.0
C1746 C 0.83736 0.26823 0.24532 0.0
C1747 C 0.86081 0.29211 0.24519 0.0
H1748 H 0.86758 0.58492 0.26175 0.0
H1749 H 0.89944 0.65877 0.23725 0.0
H1750 H 0.82492 0.58231 0.26296 0.0
H1751 H 0.85689 0.65598 0.23823 0.0
H1752 H 0.78604 0.65731 0.25764 0.0
H1753 H 0.82794 0.65859 0.25772 0.0
H1754 H 0.78896 0.57653 0.24556 0.0
H1755 H 0.74686 0.57515 0.24574 0.0
C1756 C 0.86543 0.60053 0.25658 0.0
C1757 C 0.88684 0.62208 0.24945 0.0
C1758 C 0.841 0.59897 0.25721 0.0
C1759 C 0.83756 0.619 0.25076 0.0
C1760 C 0.85899 0.64044 0.24354 0.0
C1761 C 0.88333 0.64196 0.24289 0.0
C1762 C 0.78639 0.6395 0.25507 0.0
C1763 C 0.7632 0.61615 0.25163 0.0
C1764 C 0.81041 0.64028 0.25502 0.0
C1765 C 0.8118 0.61771 0.25152 0.0
C1766 C 0.78851 0.59419 0.24841 0.0
C1767 C 0.76443 0.59343 0.24845 0.0
H1768 H 0.39532 0.26857 0.23566 0.0
H1769 H 0.46852 0.30884 0.26097 0.0
H1770 H 0.39724 0.2283 0.23646 0.0
H1771 H 0.47023 0.26835 0.26203 0.0
H1772 H 0.47741 0.19794 0.24492 0.0
H1773 H 0.4762 0.23868 0.24465 0.0
H1774 H 0.39358 0.19566 0.25539 0.0
H1775 H 0.39471 0.15491 0.25537 0.0
C1776 C 0.41179 0.26879 0.24144 0.0
C1777 C 0.43177 0.29185 0.24825 0.0
C1778 C 0.41281 0.24567 0.24199 0.0
C1779 C 0.43383 0.24508 0.24937 0.0
C1780 C 0.4539 0.26822 0.25612 0.0
C1781 C 0.45287 0.29137 0.25558 0.0
C1782 C 0.45902 0.19722 0.24727 0.0
C1783 C 0.43613 0.17325 0.25012 0.0
C1784 C 0.45835 0.22057 0.2472 0.0
C1785 C 0.43477 0.22041 0.24995 0.0
C1786 C 0.41197 0.19641 0.253 0.0
C1787 C 0.41265 0.17309 0.25308 0.0
H1788 H 0.26707 0.90049 0.74132 0.0
H1789 H 0.30642 0.86804 0.76801 0.0
H1790 H 0.22684 0.8581 0.74178 0.0
H1791 H 0.2661 0.82602 0.76905 0.0
H1792 H 0.19747 0.74752 0.75485 0.0
H1793 H 0.23762 0.7897 0.75333 0.0
H1794 H 0.19288 0.82898 0.759 0.0
H1795 H 0.15263 0.7867 0.75989 0.0
C1796 C 0.26706 0.8843 0.74733 0.0
C1797 C 0.28986 0.88752 0.75458 0.0
C1798 C 0.24398 0.86006 0.74771 0.0
C1799 C 0.24316 0.83858 0.75547 0.0
C1800 C 0.26607 0.84194 0.76272 0.0
C1801 C 0.28918 0.86608 0.76221 0.0
C1802 C 0.19625 0.76519 0.75577 0.0
C1803 C 0.17195 0.76385 0.7575 0.0
C1804 C 0.21928 0.78939 0.75499 0.0
C1805 C 0.21856 0.81282 0.75608 0.0
C1806 C 0.19417 0.81139 0.75787 0.0
C1807 C 0.17111 0.78716 0.75849 0.0
H1808 H 0.3116 0.47292 0.74385 0.0
H1809 H 0.27058 0.39211 0.7587 0.0
H1810 H 0.27017 0.47272 0.74264 0.0
H1811 H 0.22931 0.39206 0.75794 0.0
H1812 H 0.1567 0.39294 0.74136 0.0
H1813 H 0.19829 0.39351 0.74029 0.0
H1814 H 0.23742 0.47142 0.76011 0.0
H1815 H 0.19595 0.47108 0.76074 0.0
C1816 C 0.29372 0.45513 0.74687 0.0
C1817 C 0.29431 0.43254 0.75138 0.0
C1818 C 0.27 0.45505 0.74627 0.0
C1819 C 0.24638 0.43239 0.75023 0.0
C1820 C 0.24704 0.40974 0.75459 0.0
C1821 C 0.27073 0.4098 0.75512 0.0
C1822 C 0.17423 0.41022 0.74542 0.0
C1823 C 0.17309 0.43194 0.75116 0.0
C1824 C 0.19804 0.4105 0.74489 0.0
C1825 C 0.22122 0.43248 0.75017 0.0
C1826 C 0.22004 0.45432 0.75575 0.0
C1827 C 0.19625 0.45406 0.75621 0.0
H1828 H 0.58352 0.75073 0.76888 0.0
H1829 H 0.65466 0.78717 0.74141 0.0
H1830 H 0.58357 0.79198 0.76965 0.0
H1831 H 0.65428 0.82833 0.74169 0.0
H1832 H 0.66067 0.90432 0.75971 0.0
H1833 H 0.66091 0.86309 0.7591 0.0
H1834 H 0.57683 0.82099 0.75348 0.0
H1835 H 0.57659 0.86207 0.75466 0.0
C1836 C 0.59902 0.76751 0.76285 0.0
C1837 C 0.61908 0.76575 0.75508 0.0
C1838 C 0.59899 0.79115 0.76323 0.0
C1839 C 0.61892 0.81351 0.75573 0.0
C1840 C 0.63885 0.81162 0.7478 0.0
C1841 C 0.63897 0.78799 0.74753 0.0
C1842 C 0.64227 0.88622 0.7584 0.0
C1843 C 0.61861 0.88637 0.75729 0.0
C1844 C 0.6424 0.8626 0.75793 0.0
C1845 C 0.61889 0.83868 0.75622 0.0
C1846 C 0.59526 0.83897 0.75507 0.0
C1847 C 0.59512 0.86253 0.75566 0.0
H1848 H 0.56774 0.60424 0.59289 0.0
H1849 H 0.52568 0.64166 0.57567 0.0
H1850 H 0.52693 0.56247 0.59399 0.0
H1851 H 0.48494 0.59978 0.57639 0.0
H1852 H 0.41301 0.52507 0.59357 0.0
H1853 H 0.45368 0.56714 0.59431 0.0
H1854 H 0.49572 0.53025 0.5761 0.0
H1855 H 0.45528 0.48824 0.57573 0.0
C1856 C 0.54976 0.60351 0.58931 0.0
C1857 C 0.54989 0.62618 0.58416 0.0
C1858 C 0.5264 0.57956 0.58986 0.0
C1859 C 0.50266 0.57774 0.58523 0.0
C1860 C 0.50281 0.60054 0.58024 0.0
C1861 C 0.52617 0.6245 0.57972 0.0
C1862 C 0.43098 0.52599 0.58979 0.0
C1863 C 0.43098 0.50339 0.5846 0.0
C1864 C 0.45425 0.55009 0.59013 0.0
C1865 C 0.47797 0.55208 0.58526 0.0
C1866 C 0.47789 0.52937 0.58016 0.0
C1867 C 0.45468 0.50531 0.57985 0.0
H1868 H 0.45248 0.99763 0.57048 0.0
H1869 H 0.41337 0.92366 0.59504 0.0
H1870 H 0.4929 0.99602 0.57033 0.0
H1871 H 0.45409 0.92229 0.59521 0.0
H1872 H 0.52416 0.91603 0.57629 0.0
H1873 H 0.48325 0.9169 0.57726 0.0
H1874 H 0.52644 -0.00051 0.58811 0.0
H1875 H 0.5673 0.99871 0.58677 0.0
C1876 C 0.45257 0.98108 0.57593 0.0
C1877 C 0.42977 0.96077 0.58277 0.0
C1878 C 0.47579 0.98024 0.57594 0.0
C1879 C 0.47678 0.95908 0.58282 0.0
C1880 C 0.45392 0.93873 0.58967 0.0
C1881 C 0.43064 0.93957 0.58964 0.0
C1882 C 0.52487 0.93434 0.57892 0.0
C1883 C 0.54892 0.95733 0.58138 0.0
C1884 C 0.50143 0.93481 0.57957 0.0
C1885 C 0.50156 0.95828 0.58271 0.0
C1886 C 0.52566 0.98117 0.58541 0.0
C1887 C 0.54907 0.9807 0.58473 0.0
H1888 H 0.06616 0.60047 0.58517 0.0
H1889 H 0.14846 0.6397 0.5737 0.0
H1890 H 0.0651 0.55866 0.58583 0.0
H1891 H 0.14732 0.59777 0.57403 0.0
H1892 H 0.14058 0.52118 0.59218 0.0
H1893 H 0.14228 0.56342 0.59211 0.0
H1894 H 0.06805 0.52842 0.56779 0.0
H1895 H 0.06613 0.48623 0.56816 0.0
C1896 C 0.084 0.60013 0.58273 0.0
C1897 C 0.10738 0.62333 0.57935 0.0
C1898 C 0.08338 0.57616 0.58303 0.0
C1899 C 0.10611 0.57486 0.57993 0.0
C1900 C 0.12954 0.59813 0.57664 0.0
C1901 C 0.13016 0.62212 0.57635 0.0
C1902 C 0.12466 0.52257 0.58682 0.0
C1903 C 0.1032 0.50042 0.5802 0.0
C1904 C 0.12568 0.54676 0.58671 0.0
C1905 C 0.10526 0.54927 0.57998 0.0
C1906 C 0.0839 0.52708 0.57329 0.0
C1907 C 0.08288 0.50294 0.57341 0.0
loop_
_geom_bond_atom_site_label_1
_geom_bond_atom_site_label_2
_geom_bond_distance
_geom_bond_site_symmetry_2
_ccdc_geom_bond_type
In0 O1 2.294 . S
In0 O2 2.326 . S
In0 O6 2.266 . S
In0 O7 2.326 . S
In0 O8 2.266 1_455 S
In0 O9 2.326 1_455 S
In0 O11 2.294 . S
In0 O12 2.326 . S
O1 In0 2.294 . S
O1 C10 1.240 . S
O2 In0 2.326 . S
O2 C10 1.252 . S
C3 O6 1.252 . S
C3 O7 1.260 . S
C4 O11 1.240 . S
C4 O12 1.252 . S
C5 O8 1.252 . S
C5 O9 1.260 . S
O6 In0 2.266 . S
O6 C3 1.252 . S
O7 In0 2.326 . S
O7 C3 1.260 . S
O8 In0 2.266 1_655 S
O8 C5 1.252 . S
O9 In0 2.326 1_655 S
O9 C5 1.260 . S
C10 O1 1.240 . S
C10 O2 1.252 . S
O11 In0 2.294 . S
O11 C4 1.240 . S
O12 In0 2.326 . S
O12 C4 1.252 . S
In13 O14 2.294 . S
In13 O15 2.326 . S
In13 O19 2.266 . S
In13 O20 2.326 . S
In13 O21 2.266 . S
In13 O22 2.326 . S
In13 O24 2.294 . S
In13 O25 2.326 . S
O14 In13 2.294 . S
O14 C23 1.240 . S
O15 In13 2.326 . S
O15 C23 1.252 . S
C16 O19 1.252 . S
C16 O20 1.260 . S
C17 O24 1.240 . S
C17 O25 1.252 . S
C18 O21 1.252 . S
C18 O22 1.260 . S
O19 In13 2.266 . S
O19 C16 1.252 . S
O20 In13 2.326 . S
O20 C16 1.260 . S
O21 In13 2.266 . S
O21 C18 1.252 . S
O22 In13 2.326 . S
O22 C18 1.260 . S
C23 O14 1.240 . S
C23 O15 1.252 . S
O24 In13 2.294 . S
O24 C17 1.240 . S
O25 In13 2.326 . S
O25 C17 1.252 . S
In26 O27 2.294 . S
In26 O28 2.326 . S
In26 O32 2.266 . S
In26 O33 2.326 . S
In26 O34 2.266 . S
In26 O35 2.326 . S
In26 O37 2.294 . S
In26 O38 2.326 1_545 S
O27 In26 2.294 . S
O27 C36 1.240 . S
O28 In26 2.326 . S
O28 C36 1.252 . S
C29 O32 1.252 . S
C29 O33 1.260 . S
C30 O37 1.240 1_565 S
C30 O38 1.252 . S
C31 O34 1.252 . S
C31 O35 1.260 . S
O32 In26 2.266 . S
O32 C29 1.252 . S
O33 In26 2.326 . S
O33 C29 1.260 . S
O34 In26 2.266 . S
O34 C31 1.252 . S
O35 In26 2.326 . S
O35 C31 1.260 . S
C36 O27 1.240 . S
C36 O28 1.252 . S
O37 In26 2.294 . S
O37 C30 1.240 1_545 S
O38 In26 2.326 1_565 S
O38 C30 1.252 . S
In39 O40 2.294 . S
In39 O41 2.326 . S
In39 O45 2.266 1_545 S
In39 O46 2.326 1_545 S
In39 O47 2.266 . S
In39 O48 2.326 . S
In39 O50 2.294 . S
In39 O51 2.326 . S
O40 In39 2.294 . S
O40 C49 1.240 . S
O41 In39 2.326 . S
O41 C49 1.252 . S
C42 O45 1.252 . S
C42 O46 1.260 . S
C43 O50 1.240 . S
C43 O51 1.252 . S
C44 O47 1.252 . S
C44 O48 1.260 . S
O45 In39 2.266 1_565 S
O45 C42 1.252 . S
O46 In39 2.326 1_565 S
O46 C42 1.260 . S
O47 In39 2.266 . S
O47 C44 1.252 . S
O48 In39 2.326 . S
O48 C44 1.260 . S
C49 O40 1.240 . S
C49 O41 1.252 . S
O50 In39 2.294 . S
O50 C43 1.240 . S
O51 In39 2.326 . S
O51 C43 1.252 . S
In52 O53 2.294 . S
In52 O54 2.326 . S
In52 O58 2.266 . S
In52 O59 2.326 . S
In52 O60 2.266 . S
In52 O61 2.326 . S
In52 O63 2.294 . S
In52 O64 2.326 1_455 S
O53 In52 2.294 . S
O53 C62 1.240 . S
O54 In52 2.326 . S
O54 C62 1.252 . S
C55 O58 1.252 . S
C55 O59 1.260 . S
C56 O63 1.240 1_655 S
C56 O64 1.252 . S
C57 O60 1.252 . S
C57 O61 1.260 . S
O58 In52 2.266 . S
O58 C55 1.252 . S
O59 In52 2.326 . S
O59 C55 1.260 . S
O60 In52 2.266 . S
O60 C57 1.252 . S
O61 In52 2.326 . S
O61 C57 1.260 . S
C62 O53 1.240 . S
C62 O54 1.252 . S
O63 In52 2.294 . S
O63 C56 1.240 1_455 S
O64 In52 2.326 1_655 S
O64 C56 1.252 . S
In65 O66 2.294 . S
In65 O67 2.326 . S
In65 O71 2.266 . S
In65 O72 2.326 . S
In65 O73 2.266 . S
In65 O74 2.326 . S
In65 O76 2.294 . S
In65 O77 2.326 . S
O66 In65 2.294 . S
O66 C75 1.240 . S
O67 In65 2.326 . S
O67 C75 1.252 . S
C68 O71 1.252 . S
C68 O72 1.260 . S
C69 O76 1.240 . S
C69 O77 1.252 . S
C70 O73 1.252 . S
C70 O74 1.260 . S
O71 In65 2.266 . S
O71 C68 1.252 . S
O72 In65 2.326 . S
O72 C68 1.260 . S
O73 In65 2.266 . S
O73 C70 1.252 . S
O74 In65 2.326 . S
O74 C70 1.260 . S
C75 O66 1.240 . S
C75 O67 1.252 . S
O76 In65 2.294 . S
O76 C69 1.240 . S
O77 In65 2.326 . S
O77 C69 1.252 . S
In78 O79 2.294 . S
In78 O80 2.326 1_455 S
In78 O84 2.266 . S
In78 O85 2.326 . S
In78 O86 2.266 . S
In78 O87 2.326 . S
In78 O89 2.294 . S
In78 O90 2.326 . S
O79 In78 2.294 . S
O79 C88 1.240 1_455 S
O80 In78 2.326 1_655 S
O80 C88 1.252 . S
C81 O84 1.252 . S
C81 O85 1.260 . S
C82 O89 1.240 . S
C82 O90 1.252 . S
C83 O86 1.252 . S
C83 O87 1.260 . S
O84 In78 2.266 . S
O84 C81 1.252 . S
O85 In78 2.326 . S
O85 C81 1.260 . S
O86 In78 2.266 . S
O86 C83 1.252 . S
O87 In78 2.326 . S
O87 C83 1.260 . S
C88 O79 1.240 1_655 S
C88 O80 1.252 . S
O89 In78 2.294 . S
O89 C82 1.240 . S
O90 In78 2.326 . S
O90 C82 1.252 . S
In91 O92 2.294 . S
In91 O93 2.326 . S
In91 O97 2.266 . S
In91 O98 2.326 . S
In91 O99 2.266 . S
In91 O100 2.326 . S
In91 O102 2.294 . S
In91 O103 2.326 . S
O92 In91 2.294 . S
O92 C101 1.240 . S
O93 In91 2.326 . S
O93 C101 1.252 . S
C94 O97 1.252 . S
C94 O98 1.260 . S
C95 O102 1.240 . S
C95 O103 1.252 . S
C96 O99 1.252 . S
C96 O100 1.260 . S
O97 In91 2.266 . S
O97 C94 1.252 . S
O98 In91 2.326 . S
O98 C94 1.260 . S
O99 In91 2.266 . S
O99 C96 1.252 . S
O100 In91 2.326 . S
O100 C96 1.260 . S
C101 O92 1.240 . S
C101 O93 1.252 . S
O102 In91 2.294 . S
O102 C95 1.240 . S
O103 In91 2.326 . S
O103 C95 1.252 . S
In104 O105 2.294 . S
In104 O106 2.326 . S
In104 O110 2.266 . S
In104 O111 2.326 . S
In104 O112 2.266 1_545 S
In104 O113 2.326 1_545 S
In104 O115 2.294 . S
In104 O116 2.326 . S
O105 In104 2.294 . S
O105 C114 1.240 . S
O106 In104 2.326 . S
O106 C114 1.252 . S
C107 O110 1.252 . S
C107 O111 1.260 . S
C108 O115 1.240 . S
C108 O116 1.252 . S
C109 O112 1.252 . S
C109 O113 1.260 . S
O110 In104 2.266 . S
O110 C107 1.252 . S
O111 In104 2.326 . S
O111 C107 1.260 . S
O112 In104 2.266 1_565 S
O112 C109 1.252 . S
O113 In104 2.326 1_565 S
O113 C109 1.260 . S
C114 O105 1.240 . S
C114 O106 1.252 . S
O115 In104 2.294 . S
O115 C108 1.240 . S
O116 In104 2.326 . S
O116 C108 1.252 . S
In117 O118 2.294 . S
In117 O119 2.326 1_545 S
In117 O123 2.266 . S
In117 O124 2.326 . S
In117 O125 2.266 . S
In117 O126 2.326 . S
In117 O128 2.294 . S
In117 O129 2.326 . S
O118 In117 2.294 . S
O118 C127 1.240 1_545 S
O119 In117 2.326 1_565 S
O119 C127 1.252 . S
C120 O123 1.252 . S
C120 O124 1.260 . S
C121 O128 1.240 . S
C121 O129 1.252 . S
C122 O125 1.252 . S
C122 O126 1.260 . S
O123 In117 2.266 . S
O123 C120 1.252 . S
O124 In117 2.326 . S
O124 C120 1.260 . S
O125 In117 2.266 . S
O125 C122 1.252 . S
O126 In117 2.326 . S
O126 C122 1.260 . S
C127 O118 1.240 1_565 S
C127 O119 1.252 . S
O128 In117 2.294 . S
O128 C121 1.240 . S
O129 In117 2.326 . S
O129 C121 1.252 . S
In130 O131 2.294 . S
In130 O132 2.326 . S
In130 O136 2.266 . S
In130 O137 2.326 . S
In130 O138 2.266 1_455 S
In130 O139 2.326 1_455 S
In130 O141 2.294 . S
In130 O142 2.326 . S
O131 In130 2.294 . S
O131 C140 1.240 . S
O132 In130 2.326 . S
O132 C140 1.252 . S
C133 O136 1.252 . S
C133 O137 1.260 . S
C134 O141 1.240 . S
C134 O142 1.252 . S
C135 O138 1.252 . S
C135 O139 1.260 . S
O136 In130 2.266 . S
O136 C133 1.252 . S
O137 In130 2.326 . S
O137 C133 1.260 . S
O138 In130 2.266 1_655 S
O138 C135 1.252 . S
O139 In130 2.326 1_655 S
O139 C135 1.260 . S
C140 O131 1.240 . S
C140 O132 1.252 . S
O141 In130 2.294 . S
O141 C134 1.240 . S
O142 In130 2.326 . S
O142 C134 1.252 . S
In143 O144 2.294 . S
In143 O145 2.326 . S
In143 O149 2.266 . S
In143 O150 2.326 . S
In143 O151 2.266 . S
In143 O152 2.326 . S
In143 O154 2.294 . S
In143 O155 2.326 . S
O144 In143 2.294 . S
O144 C153 1.240 . S
O145 In143 2.326 . S
O145 C153 1.252 . S
C146 O149 1.252 . S
C146 O150 1.260 . S
C147 O154 1.240 . S
C147 O155 1.252 . S
C148 O151 1.252 . S
C148 O152 1.260 . S
O149 In143 2.266 . S
O149 C146 1.252 . S
O150 In143 2.326 . S
O150 C146 1.260 . S
O151 In143 2.266 . S
O151 C148 1.252 . S
O152 In143 2.326 . S
O152 C148 1.260 . S
C153 O144 1.240 . S
C153 O145 1.252 . S
O154 In143 2.294 . S
O154 C147 1.240 . S
O155 In143 2.326 . S
O155 C147 1.252 . S
In156 O157 2.294 . S
In156 O158 2.326 . S
In156 O162 2.266 . S
In156 O163 2.326 . S
In156 O164 2.266 . S
In156 O165 2.326 . S
In156 O167 2.294 . S
In156 O168 2.326 . S
O157 In156 2.294 . S
O157 C166 1.240 . S
O158 In156 2.326 . S
O158 C166 1.252 . S
C159 O162 1.252 . S
C159 O163 1.260 . S
C160 O167 1.240 . S
C160 O168 1.252 . S
C161 O164 1.252 . S
C161 O165 1.260 . S
O162 In156 2.266 . S
O162 C159 1.252 . S
O163 In156 2.326 . S
O163 C159 1.260 . S
O164 In156 2.266 . S
O164 C161 1.252 . S
O165 In156 2.326 . S
O165 C161 1.260 . S
C166 O157 1.240 . S
C166 O158 1.252 . S
O167 In156 2.294 . S
O167 C160 1.240 . S
O168 In156 2.326 . S
O168 C160 1.252 . S
In169 O170 2.294 . S
In169 O171 2.326 . S
In169 O175 2.266 . S
In169 O176 2.326 . S
In169 O177 2.266 . S
In169 O178 2.326 . S
In169 O180 2.294 . S
In169 O181 2.326 . S
O170 In169 2.294 . S
O170 C179 1.240 . S
O171 In169 2.326 . S
O171 C179 1.252 . S
C172 O175 1.252 . S
C172 O176 1.260 . S
C173 O180 1.240 . S
C173 O181 1.252 . S
C174 O177 1.252 . S
C174 O178 1.260 . S
O175 In169 2.266 . S
O175 C172 1.252 . S
O176 In169 2.326 . S
O176 C172 1.260 . S
O177 In169 2.266 . S
O177 C174 1.252 . S
O178 In169 2.326 . S
O178 C174 1.260 . S
C179 O170 1.240 . S
C179 O171 1.252 . S
O180 In169 2.294 . S
O180 C173 1.240 . S
O181 In169 2.326 . S
O181 C173 1.252 . S
In182 O183 2.294 . S
In182 O184 2.326 . S
In182 O188 2.266 1_655 S
In182 O189 2.326 . S
In182 O190 2.266 . S
In182 O191 2.326 . S
In182 O193 2.294 . S
In182 O194 2.326 . S
O183 In182 2.294 . S
O183 C192 1.240 . S
O184 In182 2.326 . S
O184 C192 1.252 . S
C185 O188 1.252 1_655 S
C185 O189 1.260 . S
C186 O193 1.240 . S
C186 O194 1.252 . S
C187 O190 1.252 . S
C187 O191 1.260 . S
O188 In182 2.266 1_455 S
O188 C185 1.252 1_455 S
O189 In182 2.326 . S
O189 C185 1.260 . S
O190 In182 2.266 . S
O190 C187 1.252 . S
O191 In182 2.326 . S
O191 C187 1.260 . S
C192 O183 1.240 . S
C192 O184 1.252 . S
O193 In182 2.294 . S
O193 C186 1.240 . S
O194 In182 2.326 . S
O194 C186 1.252 . S
In195 O196 2.294 . S
In195 O197 2.326 . S
In195 O201 2.266 . S
In195 O202 2.326 . S
In195 O203 2.266 . S
In195 O204 2.326 . S
In195 O206 2.294 . S
In195 O207 2.326 . S
O196 In195 2.294 . S
O196 C205 1.240 . S
O197 In195 2.326 . S
O197 C205 1.252 . S
C198 O201 1.252 . S
C198 O202 1.260 . S
C199 O206 1.240 . S
C199 O207 1.252 . S
C200 O203 1.252 . S
C200 O204 1.260 . S
O201 In195 2.266 . S
O201 C198 1.252 . S
O202 In195 2.326 . S
O202 C198 1.260 . S
O203 In195 2.266 . S
O203 C200 1.252 . S
O204 In195 2.326 . S
O204 C200 1.260 . S
C205 O196 1.240 . S
C205 O197 1.252 . S
O206 In195 2.294 . S
O206 C199 1.240 . S
O207 In195 2.326 . S
O207 C199 1.252 . S
In208 O209 2.294 . S
In208 O210 2.326 . S
In208 O214 2.266 . S
In208 O215 2.326 . S
In208 O216 2.266 . S
In208 O217 2.326 . S
In208 O219 2.294 . S
In208 O220 2.326 . S
O209 In208 2.294 . S
O209 C218 1.240 . S
O210 In208 2.326 . S
O210 C218 1.252 . S
C211 O214 1.252 . S
C211 O215 1.260 . S
C212 O219 1.240 . S
C212 O220 1.252 . S
C213 O216 1.252 . S
C213 O217 1.260 . S
O214 In208 2.266 . S
O214 C211 1.252 . S
O215 In208 2.326 . S
O215 C211 1.260 . S
O216 In208 2.266 . S
O216 C213 1.252 . S
O217 In208 2.326 . S
O217 C213 1.260 . S
C218 O209 1.240 . S
C218 O210 1.252 . S
O219 In208 2.294 . S
O219 C212 1.240 . S
O220 In208 2.326 . S
O220 C212 1.252 . S
In221 O222 2.294 . S
In221 O223 2.326 . S
In221 O227 2.266 . S
In221 O228 2.326 . S
In221 O229 2.266 . S
In221 O230 2.326 . S
In221 O232 2.294 . S
In221 O233 2.326 . S
O222 In221 2.294 . S
O222 C231 1.240 . S
O223 In221 2.326 . S
O223 C231 1.252 . S
C224 O227 1.252 . S
C224 O228 1.260 . S
C225 O232 1.240 . S
C225 O233 1.252 . S
C226 O229 1.252 . S
C226 O230 1.260 . S
O227 In221 2.266 . S
O227 C224 1.252 . S
O228 In221 2.326 . S
O228 C224 1.260 . S
O229 In221 2.266 . S
O229 C226 1.252 . S
O230 In221 2.326 . S
O230 C226 1.260 . S
C231 O222 1.240 . S
C231 O223 1.252 . S
O232 In221 2.294 . S
O232 C225 1.240 . S
O233 In221 2.326 . S
O233 C225 1.252 . S
In234 O235 2.294 . S
In234 O236 2.326 . S
In234 O240 2.266 . S
In234 O241 2.326 . S
In234 O242 2.266 . S
In234 O243 2.326 . S
In234 O245 2.294 . S
In234 O246 2.326 . S
O235 In234 2.294 . S
O235 C244 1.240 . S
O236 In234 2.326 . S
O236 C244 1.252 . S
C237 O240 1.252 . S
C237 O241 1.260 . S
C238 O245 1.240 . S
C238 O246 1.252 . S
C239 O242 1.252 . S
C239 O243 1.260 . S
O240 In234 2.266 . S
O240 C237 1.252 . S
O241 In234 2.326 . S
O241 C237 1.260 . S
O242 In234 2.266 . S
O242 C239 1.252 . S
O243 In234 2.326 . S
O243 C239 1.260 . S
C244 O235 1.240 . S
C244 O236 1.252 . S
O245 In234 2.294 . S
O245 C238 1.240 . S
O246 In234 2.326 . S
O246 C238 1.252 . S
In247 O248 2.294 . S
In247 O249 2.326 . S
In247 O253 2.266 . S
In247 O254 2.326 . S
In247 O255 2.266 . S
In247 O256 2.326 . S
In247 O258 2.294 . S
In247 O259 2.326 . S
O248 In247 2.294 . S
O248 C257 1.240 . S
O249 In247 2.326 . S
O249 C257 1.252 . S
C250 O253 1.252 . S
C250 O254 1.260 . S
C251 O258 1.240 . S
C251 O259 1.252 . S
C252 O255 1.252 . S
C252 O256 1.260 . S
O253 In247 2.266 . S
O253 C250 1.252 . S
O254 In247 2.326 . S
O254 C250 1.260 . S
O255 In247 2.266 . S
O255 C252 1.252 . S
O256 In247 2.326 . S
O256 C252 1.260 . S
C257 O248 1.240 . S
C257 O249 1.252 . S
O258 In247 2.294 . S
O258 C251 1.240 . S
O259 In247 2.326 . S
O259 C251 1.252 . S
In260 O261 2.294 . S
In260 O262 2.326 . S
In260 O266 2.266 . S
In260 O267 2.326 . S
In260 O268 2.266 . S
In260 O269 2.326 . S
In260 O271 2.294 . S
In260 O272 2.326 . S
O261 In260 2.294 . S
O261 C270 1.240 . S
O262 In260 2.326 . S
O262 C270 1.252 . S
C263 O266 1.252 . S
C263 O267 1.260 . S
C264 O271 1.240 . S
C264 O272 1.252 . S
C265 O268 1.252 . S
C265 O269 1.260 . S
O266 In260 2.266 . S
O266 C263 1.252 . S
O267 In260 2.326 . S
O267 C263 1.260 . S
O268 In260 2.266 . S
O268 C265 1.252 . S
O269 In260 2.326 . S
O269 C265 1.260 . S
C270 O261 1.240 . S
C270 O262 1.252 . S
O271 In260 2.294 . S
O271 C264 1.240 . S
O272 In260 2.326 . S
O272 C264 1.252 . S
In273 O274 2.294 . S
In273 O275 2.326 . S
In273 O279 2.266 . S
In273 O280 2.326 . S
In273 O281 2.266 . S
In273 O282 2.326 . S
In273 O284 2.294 . S
In273 O285 2.326 . S
O274 In273 2.294 . S
O274 C283 1.240 . S
O275 In273 2.326 . S
O275 C283 1.252 . S
C276 O279 1.252 . S
C276 O280 1.260 . S
C277 O284 1.240 . S
C277 O285 1.252 . S
C278 O281 1.252 . S
C278 O282 1.260 . S
O279 In273 2.266 . S
O279 C276 1.252 . S
O280 In273 2.326 . S
O280 C276 1.260 . S
O281 In273 2.266 . S
O281 C278 1.252 . S
O282 In273 2.326 . S
O282 C278 1.260 . S
C283 O274 1.240 . S
C283 O275 1.252 . S
O284 In273 2.294 . S
O284 C277 1.240 . S
O285 In273 2.326 . S
O285 C277 1.252 . S
In286 O287 2.294 . S
In286 O288 2.326 . S
In286 O292 2.266 . S
In286 O293 2.326 . S
In286 O294 2.266 . S
In286 O295 2.326 . S
In286 O297 2.294 . S
In286 O298 2.326 . S
O287 In286 2.294 . S
O287 C296 1.240 . S
O288 In286 2.326 . S
O288 C296 1.252 . S
C289 O292 1.252 . S
C289 O293 1.260 . S
C290 O297 1.240 . S
C290 O298 1.252 . S
C291 O294 1.252 . S
C291 O295 1.260 . S
O292 In286 2.266 . S
O292 C289 1.252 . S
O293 In286 2.326 . S
O293 C289 1.260 . S
O294 In286 2.266 . S
O294 C291 1.252 . S
O295 In286 2.326 . S
O295 C291 1.260 . S
C296 O287 1.240 . S
C296 O288 1.252 . S
O297 In286 2.294 . S
O297 C290 1.240 . S
O298 In286 2.326 . S
O298 C290 1.252 . S
In299 O300 2.294 . S
In299 O301 2.326 . S
In299 O305 2.266 1_655 S
In299 O306 2.326 . S
In299 O307 2.266 . S
In299 O308 2.326 . S
In299 O310 2.294 . S
In299 O311 2.326 . S
O300 In299 2.294 . S
O300 C309 1.240 . S
O301 In299 2.326 . S
O301 C309 1.252 . S
C302 O305 1.252 1_655 S
C302 O306 1.260 . S
C303 O310 1.240 . S
C303 O311 1.252 . S
C304 O307 1.252 . S
C304 O308 1.260 . S
O305 In299 2.266 1_455 S
O305 C302 1.252 1_455 S
O306 In299 2.326 . S
O306 C302 1.260 . S
O307 In299 2.266 . S
O307 C304 1.252 . S
O308 In299 2.326 . S
O308 C304 1.260 . S
C309 O300 1.240 . S
C309 O301 1.252 . S
O310 In299 2.294 . S
O310 C303 1.240 . S
O311 In299 2.326 . S
O311 C303 1.252 . S
In312 O313 2.294 . S
In312 O314 2.326 . S
In312 O318 2.266 . S
In312 O319 2.326 . S
In312 O320 2.266 . S
In312 O321 2.326 . S
In312 O323 2.294 . S
In312 O324 2.326 . S
O313 In312 2.294 . S
O313 C322 1.240 . S
O314 In312 2.326 . S
O314 C322 1.252 . S
C315 O318 1.252 . S
C315 O319 1.260 . S
C316 O323 1.240 . S
C316 O324 1.252 . S
C317 O320 1.252 . S
C317 O321 1.260 . S
O318 In312 2.266 . S
O318 C315 1.252 . S
O319 In312 2.326 . S
O319 C315 1.260 . S
O320 In312 2.266 . S
O320 C317 1.252 . S
O321 In312 2.326 . S
O321 C317 1.260 . S
C322 O313 1.240 . S
C322 O314 1.252 . S
O323 In312 2.294 . S
O323 C316 1.240 . S
O324 In312 2.326 . S
O324 C316 1.252 . S
In325 O326 2.294 . S
In325 O327 2.326 . S
In325 O331 2.266 . S
In325 O332 2.326 . S
In325 O333 2.266 . S
In325 O334 2.326 . S
In325 O336 2.294 . S
In325 O337 2.326 . S
O326 In325 2.294 . S
O326 C335 1.240 . S
O327 In325 2.326 . S
O327 C335 1.252 . S
C328 O331 1.252 . S
C328 O332 1.260 . S
C329 O336 1.240 . S
C329 O337 1.252 . S
C330 O333 1.252 . S
C330 O334 1.260 . S
O331 In325 2.266 . S
O331 C328 1.252 . S
O332 In325 2.326 . S
O332 C328 1.260 . S
O333 In325 2.266 . S
O333 C330 1.252 . S
O334 In325 2.326 . S
O334 C330 1.260 . S
C335 O326 1.240 . S
C335 O327 1.252 . S
O336 In325 2.294 . S
O336 C329 1.240 . S
O337 In325 2.326 . S
O337 C329 1.252 . S
In338 O339 2.294 . S
In338 O340 2.326 . S
In338 O344 2.266 . S
In338 O345 2.326 . S
In338 O346 2.266 . S
In338 O347 2.326 . S
In338 O349 2.294 . S
In338 O350 2.326 . S
O339 In338 2.294 . S
O339 C348 1.240 . S
O340 In338 2.326 . S
O340 C348 1.252 . S
C341 O344 1.252 . S
C341 O345 1.260 . S
C342 O349 1.240 . S
C342 O350 1.252 . S
C343 O346 1.252 . S
C343 O347 1.260 . S
O344 In338 2.266 . S
O344 C341 1.252 . S
O345 In338 2.326 . S
O345 C341 1.260 . S
O346 In338 2.266 . S
O346 C343 1.252 . S
O347 In338 2.326 . S
O347 C343 1.260 . S
C348 O339 1.240 . S
C348 O340 1.252 . S
O349 In338 2.294 . S
O349 C342 1.240 . S
O350 In338 2.326 . S
O350 C342 1.252 . S
In351 O352 2.294 . S
In351 O353 2.326 . S
In351 O357 2.266 . S
In351 O358 2.326 . S
In351 O359 2.266 . S
In351 O360 2.326 . S
In351 O362 2.294 . S
In351 O363 2.326 . S
O352 In351 2.294 . S
O352 C361 1.240 . S
O353 In351 2.326 . S
O353 C361 1.252 . S
C354 O357 1.252 . S
C354 O358 1.260 . S
C355 O362 1.240 . S
C355 O363 1.252 . S
C356 O359 1.252 . S
C356 O360 1.260 . S
O357 In351 2.266 . S
O357 C354 1.252 . S
O358 In351 2.326 . S
O358 C354 1.260 . S
O359 In351 2.266 . S
O359 C356 1.252 . S
O360 In351 2.326 . S
O360 C356 1.260 . S
C361 O352 1.240 . S
C361 O353 1.252 . S
O362 In351 2.294 . S
O362 C355 1.240 . S
O363 In351 2.326 . S
O363 C355 1.252 . S
In364 O365 2.294 . S
In364 O366 2.326 . S
In364 O370 2.266 1_565 S
In364 O371 2.326 . S
In364 O372 2.266 . S
In364 O373 2.326 . S
In364 O375 2.294 . S
In364 O376 2.326 . S
O365 In364 2.294 . S
O365 C374 1.240 . S
O366 In364 2.326 . S
O366 C374 1.252 . S
C367 O370 1.252 1_565 S
C367 O371 1.260 . S
C368 O375 1.240 . S
C368 O376 1.252 . S
C369 O372 1.252 . S
C369 O373 1.260 . S
O370 In364 2.266 1_545 S
O370 C367 1.252 1_545 S
O371 In364 2.326 . S
O371 C367 1.260 . S
O372 In364 2.266 . S
O372 C369 1.252 . S
O373 In364 2.326 . S
O373 C369 1.260 . S
C374 O365 1.240 . S
C374 O366 1.252 . S
O375 In364 2.294 . S
O375 C368 1.240 . S
O376 In364 2.326 . S
O376 C368 1.252 . S
In377 O378 2.294 . S
In377 O379 2.326 . S
In377 O383 2.266 . S
In377 O384 2.326 . S
In377 O385 2.266 . S
In377 O386 2.326 . S
In377 O388 2.294 . S
In377 O389 2.326 . S
O378 In377 2.294 . S
O378 C387 1.240 . S
O379 In377 2.326 . S
O379 C387 1.252 . S
C380 O383 1.252 . S
C380 O384 1.260 . S
C381 O388 1.240 . S
C381 O389 1.252 . S
C382 O385 1.252 . S
C382 O386 1.260 . S
O383 In377 2.266 . S
O383 C380 1.252 . S
O384 In377 2.326 . S
O384 C380 1.260 . S
O385 In377 2.266 . S
O385 C382 1.252 . S
O386 In377 2.326 . S
O386 C382 1.260 . S
C387 O378 1.240 . S
C387 O379 1.252 . S
O388 In377 2.294 . S
O388 C381 1.240 . S
O389 In377 2.326 . S
O389 C381 1.252 . S
In390 O391 2.294 . S
In390 O392 2.326 . S
In390 O396 2.266 . S
In390 O397 2.326 . S
In390 O398 2.266 . S
In390 O399 2.326 . S
In390 O401 2.294 . S
In390 O402 2.326 . S
O391 In390 2.294 . S
O391 C400 1.240 . S
O392 In390 2.326 . S
O392 C400 1.252 . S
C393 O396 1.252 . S
C393 O397 1.260 . S
C394 O401 1.240 . S
C394 O402 1.252 . S
C395 O398 1.252 . S
C395 O399 1.260 . S
O396 In390 2.266 . S
O396 C393 1.252 . S
O397 In390 2.326 . S
O397 C393 1.260 . S
O398 In390 2.266 . S
O398 C395 1.252 . S
O399 In390 2.326 . S
O399 C395 1.260 . S
C400 O391 1.240 . S
C400 O392 1.252 . S
O401 In390 2.294 . S
O401 C394 1.240 . S
O402 In390 2.326 . S
O402 C394 1.252 . S
In403 O404 2.294 . S
In403 O405 2.326 . S
In403 O409 2.266 . S
In403 O410 2.326 . S
In403 O411 2.266 1_565 S
In403 O412 2.326 . S
In403 O414 2.294 . S
In403 O415 2.326 . S
O404 In403 2.294 . S
O404 C413 1.240 . S
O405 In403 2.326 . S
O405 C413 1.252 . S
C406 O409 1.252 . S
C406 O410 1.260 . S
C407 O414 1.240 . S
C407 O415 1.252 . S
C408 O411 1.252 1_565 S
C408 O412 1.260 . S
O409 In403 2.266 . S
O409 C406 1.252 . S
O410 In403 2.326 . S
O410 C406 1.260 . S
O411 In403 2.266 1_545 S
O411 C408 1.252 1_545 S
O412 In403 2.326 . S
O412 C408 1.260 . S
C413 O404 1.240 . S
C413 O405 1.252 . S
O414 In403 2.294 . S
O414 C407 1.240 . S
O415 In403 2.326 . S
O415 C407 1.252 . S
In416 O417 2.294 . S
In416 O418 2.326 . S
In416 O422 2.266 . S
In416 O423 2.326 . S
In416 O424 2.266 . S
In416 O425 2.326 . S
In416 O427 2.294 . S
In416 O428 2.326 . S
O417 In416 2.294 . S
O417 C426 1.240 . S
O418 In416 2.326 . S
O418 C426 1.252 . S
C419 O422 1.252 . S
C419 O423 1.260 . S
C420 O427 1.240 . S
C420 O428 1.252 . S
C421 O424 1.252 . S
C421 O425 1.260 . S
O422 In416 2.266 . S
O422 C419 1.252 . S
O423 In416 2.326 . S
O423 C419 1.260 . S
O424 In416 2.266 . S
O424 C421 1.252 . S
O425 In416 2.326 . S
O425 C421 1.260 . S
C426 O417 1.240 . S
C426 O418 1.252 . S
O427 In416 2.294 . S
O427 C420 1.240 . S
O428 In416 2.326 . S
O428 C420 1.252 . S
In429 O430 2.294 . S
In429 O431 2.326 . S
In429 O435 2.266 . S
In429 O436 2.326 . S
In429 O437 2.266 . S
In429 O438 2.326 . S
In429 O440 2.294 . S
In429 O441 2.326 . S
O430 In429 2.294 . S
O430 C439 1.240 . S
O431 In429 2.326 . S
O431 C439 1.252 . S
C432 O435 1.252 . S
C432 O436 1.260 . S
C433 O440 1.240 . S
C433 O441 1.252 . S
C434 O437 1.252 . S
C434 O438 1.260 . S
O435 In429 2.266 . S
O435 C432 1.252 . S
O436 In429 2.326 . S
O436 C432 1.260 . S
O437 In429 2.266 . S
O437 C434 1.252 . S
O438 In429 2.326 . S
O438 C434 1.260 . S
C439 O430 1.240 . S
C439 O431 1.252 . S
O440 In429 2.294 . S
O440 C433 1.240 . S
O441 In429 2.326 . S
O441 C433 1.252 . S
In442 O443 2.294 . S
In442 O444 2.326 . S
In442 O448 2.266 . S
In442 O449 2.326 . S
In442 O450 2.266 . S
In442 O451 2.326 . S
In442 O453 2.294 . S
In442 O454 2.326 . S
O443 In442 2.294 . S
O443 C452 1.240 . S
O444 In442 2.326 . S
O444 C452 1.252 . S
C445 O448 1.252 . S
C445 O449 1.260 . S
C446 O453 1.240 . S
C446 O454 1.252 . S
C447 O450 1.252 . S
C447 O451 1.260 . S
O448 In442 2.266 . S
O448 C445 1.252 . S
O449 In442 2.326 . S
O449 C445 1.260 . S
O450 In442 2.266 . S
O450 C447 1.252 . S
O451 In442 2.326 . S
O451 C447 1.260 . S
C452 O443 1.240 . S
C452 O444 1.252 . S
O453 In442 2.294 . S
O453 C446 1.240 . S
O454 In442 2.326 . S
O454 C446 1.252 . S
In455 O456 2.294 . S
In455 O457 2.326 . S
In455 O461 2.266 . S
In455 O462 2.326 . S
In455 O463 2.266 . S
In455 O464 2.326 . S
In455 O466 2.294 . S
In455 O467 2.326 . S
O456 In455 2.294 . S
O456 C465 1.240 . S
O457 In455 2.326 . S
O457 C465 1.252 . S
C458 O461 1.252 . S
C458 O462 1.260 . S
C459 O466 1.240 . S
C459 O467 1.252 . S
C460 O463 1.252 . S
C460 O464 1.260 . S
O461 In455 2.266 . S
O461 C458 1.252 . S
O462 In455 2.326 . S
O462 C458 1.260 . S
O463 In455 2.266 . S
O463 C460 1.252 . S
O464 In455 2.326 . S
O464 C460 1.260 . S
C465 O456 1.240 . S
C465 O457 1.252 . S
O466 In455 2.294 . S
O466 C459 1.240 . S
O467 In455 2.326 . S
O467 C459 1.252 . S
H468 C476 0.950 . S
H469 C481 0.950 . S
H470 C478 0.950 . S
H471 C480 0.950 . S
H472 C482 0.950 . S
H473 C484 0.950 . S
H474 C486 0.950 . S
H475 C487 0.950 . S
C476 H468 0.950 . S
C476 C477 1.386 . S
C476 C478 1.391 . S
C477 C476 1.386 . S
C477 C481 1.393 . S
C478 H470 0.950 . S
C478 C476 1.391 . S
C478 C479 1.400 . S
C479 C478 1.400 . S
C479 C480 1.398 . S
C479 C485 1.491 . S
C480 H471 0.950 . S
C480 C479 1.398 . S
C480 C481 1.391 . S
C481 H469 0.950 . S
C481 C477 1.393 . S
C481 C480 1.391 . S
C482 H472 0.950 . S
C482 C483 1.386 . S
C482 C484 1.391 . S
C483 C482 1.386 . S
C483 C487 1.393 . S
C484 H473 0.950 . S
C484 C482 1.391 . S
C484 C485 1.400 . S
C485 C479 1.491 . S
C485 C484 1.400 . S
C485 C486 1.398 . S
C486 H474 0.950 . S
C486 C485 1.398 . S
C486 C487 1.391 . S
C487 H475 0.950 . S
C487 C483 1.393 . S
C487 C486 1.391 . S
H488 C496 0.950 . S
H489 C501 0.950 . S
H490 C498 0.950 . S
H491 C500 0.950 . S
H492 C502 0.950 . S
H493 C504 0.950 . S
H494 C506 0.950 . S
H495 C507 0.950 . S
C496 H488 0.950 . S
C496 C497 1.386 . S
C496 C498 1.391 . S
C497 C496 1.386 . S
C497 C501 1.393 . S
C498 H490 0.950 . S
C498 C496 1.391 . S
C498 C499 1.400 . S
C499 C498 1.400 . S
C499 C500 1.398 . S
C499 C505 1.491 . S
C500 H491 0.950 . S
C500 C499 1.398 . S
C500 C501 1.391 . S
C501 H489 0.950 . S
C501 C497 1.393 . S
C501 C500 1.391 . S
C502 H492 0.950 . S
C502 C503 1.386 . S
C502 C504 1.391 . S
C503 C502 1.386 . S
C503 C507 1.393 . S
C504 H493 0.950 . S
C504 C502 1.391 . S
C504 C505 1.400 . S
C505 C499 1.491 . S
C505 C504 1.400 . S
C505 C506 1.398 . S
C506 H494 0.950 . S
C506 C505 1.398 . S
C506 C507 1.391 . S
C507 H495 0.950 . S
C507 C503 1.393 . S
C507 C506 1.391 . S
H508 C516 0.950 . S
H509 C521 0.950 . S
H510 C518 0.950 . S
H511 C520 0.950 . S
H512 C522 0.950 . S
H513 C524 0.950 . S
H514 C526 0.950 . S
H515 C527 0.950 . S
C516 H508 0.950 . S
C516 C517 1.386 . S
C516 C518 1.391 . S
C517 C516 1.386 . S
C517 C521 1.393 . S
C518 H510 0.950 . S
C518 C516 1.391 . S
C518 C519 1.400 . S
C519 C518 1.400 . S
C519 C520 1.398 . S
C519 C525 1.491 . S
C520 H511 0.950 . S
C520 C519 1.398 . S
C520 C521 1.391 . S
C521 H509 0.950 . S
C521 C517 1.393 . S
C521 C520 1.391 . S
C522 H512 0.950 . S
C522 C523 1.386 . S
C522 C524 1.391 . S
C523 C522 1.386 . S
C523 C527 1.393 . S
C524 H513 0.950 . S
C524 C522 1.391 . S
C524 C525 1.400 . S
C525 C519 1.491 . S
C525 C524 1.400 . S
C525 C526 1.398 . S
C526 H514 0.950 . S
C526 C525 1.398 . S
C526 C527 1.391 . S
C527 H515 0.950 . S
C527 C523 1.393 . S
C527 C526 1.391 . S
H528 C536 0.950 . S
H529 C541 0.950 . S
H530 C538 0.950 . S
H531 C540 0.950 . S
H532 C542 0.950 . S
H533 C544 0.950 . S
H534 C546 0.950 . S
H535 C547 0.950 . S
C536 H528 0.950 . S
C536 C537 1.386 . S
C536 C538 1.391 . S
C537 C536 1.386 . S
C537 C541 1.393 . S
C538 H530 0.950 . S
C538 C536 1.391 . S
C538 C539 1.400 . S
C539 C538 1.400 . S
C539 C540 1.398 . S
C539 C545 1.491 . S
C540 H531 0.950 . S
C540 C539 1.398 . S
C540 C541 1.391 . S
C541 H529 0.950 . S
C541 C537 1.393 . S
C541 C540 1.391 . S
C542 H532 0.950 . S
C542 C543 1.386 . S
C542 C544 1.391 . S
C543 C542 1.386 . S
C543 C547 1.393 . S
C544 H533 0.950 . S
C544 C542 1.391 . S
C544 C545 1.400 . S
C545 C539 1.491 . S
C545 C544 1.400 . S
C545 C546 1.398 . S
C546 H534 0.950 . S
C546 C545 1.398 . S
C546 C547 1.391 . S
C547 H535 0.950 . S
C547 C543 1.393 . S
C547 C546 1.391 . S
H548 C556 0.950 . S
H549 C561 0.950 . S
H550 C558 0.950 . S
H551 C560 0.950 . S
H552 C562 0.950 . S
H553 C564 0.950 . S
H554 C566 0.950 . S
H555 C567 0.950 . S
C556 H548 0.950 . S
C556 C557 1.386 . S
C556 C558 1.391 . S
C557 C556 1.386 . S
C557 C561 1.393 . S
C558 H550 0.950 . S
C558 C556 1.391 . S
C558 C559 1.400 . S
C559 C558 1.400 . S
C559 C560 1.398 . S
C559 C565 1.491 . S
C560 H551 0.950 . S
C560 C559 1.398 . S
C560 C561 1.391 . S
C561 H549 0.950 . S
C561 C557 1.393 . S
C561 C560 1.391 . S
C562 H552 0.950 . S
C562 C563 1.386 . S
C562 C564 1.391 . S
C563 C562 1.386 . S
C563 C567 1.393 . S
C564 H553 0.950 . S
C564 C562 1.391 . S
C564 C565 1.400 . S
C565 C559 1.491 . S
C565 C564 1.400 . S
C565 C566 1.398 . S
C566 H554 0.950 . S
C566 C565 1.398 . S
C566 C567 1.391 . S
C567 H555 0.950 . S
C567 C563 1.393 . S
C567 C566 1.391 . S
H568 C576 0.950 . S
H569 C581 0.950 . S
H570 C578 0.950 . S
H571 C580 0.950 . S
H572 C582 0.950 . S
H573 C584 0.950 . S
H574 C586 0.950 . S
H575 C587 0.950 . S
C576 H568 0.950 . S
C576 C577 1.386 . S
C576 C578 1.391 . S
C577 C576 1.386 . S
C577 C581 1.393 . S
C578 H570 0.950 . S
C578 C576 1.391 . S
C578 C579 1.400 . S
C579 C578 1.400 . S
C579 C580 1.398 . S
C579 C585 1.491 . S
C580 H571 0.950 . S
C580 C579 1.398 . S
C580 C581 1.391 . S
C581 H569 0.950 . S
C581 C577 1.393 . S
C581 C580 1.391 . S
C582 H572 0.950 . S
C582 C583 1.386 . S
C582 C584 1.391 . S
C583 C582 1.386 . S
C583 C587 1.393 . S
C584 H573 0.950 . S
C584 C582 1.391 . S
C584 C585 1.400 . S
C585 C579 1.491 . S
C585 C584 1.400 . S
C585 C586 1.398 . S
C586 H574 0.950 . S
C586 C585 1.398 . S
C586 C587 1.391 . S
C587 H575 0.950 . S
C587 C583 1.393 . S
C587 C586 1.391 . S
H588 C596 0.950 . S
H589 C601 0.950 . S
H590 C598 0.950 . S
H591 C600 0.950 . S
H592 C602 0.950 . S
H593 C604 0.950 . S
H594 C606 0.950 . S
H595 C607 0.950 . S
C596 H588 0.950 . S
C596 C597 1.386 . S
C596 C598 1.391 . S
C597 C596 1.386 . S
C597 C601 1.393 . S
C598 H590 0.950 . S
C598 C596 1.391 . S
C598 C599 1.400 . S
C599 C598 1.400 . S
C599 C600 1.398 . S
C599 C605 1.491 . S
C600 H591 0.950 . S
C600 C599 1.398 . S
C600 C601 1.391 . S
C601 H589 0.950 . S
C601 C597 1.393 . S
C601 C600 1.391 . S
C602 H592 0.950 . S
C602 C603 1.386 . S
C602 C604 1.391 . S
C603 C602 1.386 . S
C603 C607 1.393 . S
C604 H593 0.950 . S
C604 C602 1.391 . S
C604 C605 1.400 . S
C605 C599 1.491 . S
C605 C604 1.400 . S
C605 C606 1.398 . S
C606 H594 0.950 . S
C606 C605 1.398 . S
C606 C607 1.391 . S
C607 H595 0.950 . S
C607 C603 1.393 . S
C607 C606 1.391 . S
H608 C616 0.950 . S
H609 C621 0.950 . S
H610 C618 0.950 . S
H611 C620 0.950 . S
H612 C622 0.950 . S
H613 C624 0.950 . S
H614 C626 0.950 . S
H615 C627 0.950 . S
C616 H608 0.950 . S
C616 C617 1.386 . S
C616 C618 1.391 . S
C617 C616 1.386 . S
C617 C621 1.393 . S
C618 H610 0.950 . S
C618 C616 1.391 . S
C618 C619 1.400 . S
C619 C618 1.400 . S
C619 C620 1.398 . S
C619 C625 1.491 . S
C620 H611 0.950 . S
C620 C619 1.398 . S
C620 C621 1.391 . S
C621 H609 0.950 . S
C621 C617 1.393 . S
C621 C620 1.391 . S
C622 H612 0.950 . S
C622 C623 1.386 . S
C622 C624 1.391 . S
C623 C622 1.386 . S
C623 C627 1.393 . S
C624 H613 0.950 . S
C624 C622 1.391 . S
C624 C625 1.400 . S
C625 C619 1.491 . S
C625 C624 1.400 . S
C625 C626 1.398 . S
C626 H614 0.950 . S
C626 C625 1.398 . S
C626 C627 1.391 . S
C627 H615 0.950 . S
C627 C623 1.393 . S
C627 C626 1.391 . S
H628 C636 0.950 . S
H629 C641 0.950 . S
H630 C638 0.950 . S
H631 C640 0.950 . S
H632 C642 0.950 . S
H633 C644 0.950 . S
H634 C646 0.950 . S
H635 C647 0.950 . S
C636 H628 0.950 . S
C636 C637 1.386 . S
C636 C638 1.391 . S
C637 C636 1.386 . S
C637 C641 1.393 . S
C638 H630 0.950 . S
C638 C636 1.391 . S
C638 C639 1.400 . S
C639 C638 1.400 . S
C639 C640 1.398 . S
C639 C645 1.491 . S
C640 H631 0.950 . S
C640 C639 1.398 . S
C640 C641 1.391 . S
C641 H629 0.950 . S
C641 C637 1.393 . S
C641 C640 1.391 . S
C642 H632 0.950 . S
C642 C643 1.386 . S
C642 C644 1.391 . S
C643 C642 1.386 . S
C643 C647 1.393 . S
C644 H633 0.950 . S
C644 C642 1.391 . S
C644 C645 1.400 . S
C645 C639 1.491 . S
C645 C644 1.400 . S
C645 C646 1.398 . S
C646 H634 0.950 . S
C646 C645 1.398 . S
C646 C647 1.391 . S
C647 H635 0.950 . S
C647 C643 1.393 . S
C647 C646 1.391 . S
H648 C656 0.950 . S
H649 C661 0.950 1_455 S
H650 C658 0.950 . S
H651 C660 0.950 1_455 S
H652 C662 0.950 1_455 S
H653 C664 0.950 1_455 S
H654 C666 0.950 . S
H655 C667 0.950 . S
C656 H648 0.950 . S
C656 C657 1.386 . S
C656 C658 1.391 . S
C657 C656 1.386 . S
C657 C661 1.393 . S
C658 H650 0.950 . S
C658 C656 1.391 . S
C658 C659 1.400 . S
C659 C658 1.400 . S
C659 C660 1.398 . S
C659 C665 1.491 . S
C660 H651 0.950 1_655 S
C660 C659 1.398 . S
C660 C661 1.391 . S
C661 H649 0.950 1_655 S
C661 C657 1.393 . S
C661 C660 1.391 . S
C662 H652 0.950 1_655 S
C662 C663 1.386 . S
C662 C664 1.391 . S
C663 C662 1.386 . S
C663 C667 1.393 . S
C664 H653 0.950 1_655 S
C664 C662 1.391 . S
C664 C665 1.400 . S
C665 C659 1.491 . S
C665 C664 1.400 . S
C665 C666 1.398 . S
C666 H654 0.950 . S
C666 C665 1.398 . S
C666 C667 1.391 . S
C667 H655 0.950 . S
C667 C663 1.393 . S
C667 C666 1.391 . S
H668 C676 0.950 . S
H669 C681 0.950 . S
H670 C678 0.950 . S
H671 C680 0.950 . S
H672 C682 0.950 . S
H673 C684 0.950 . S
H674 C686 0.950 . S
H675 C687 0.950 . S
C676 H668 0.950 . S
C676 C677 1.386 . S
C676 C678 1.391 . S
C677 C676 1.386 . S
C677 C681 1.393 . S
C678 H670 0.950 . S
C678 C676 1.391 . S
C678 C679 1.400 . S
C679 C678 1.400 . S
C679 C680 1.398 . S
C679 C685 1.491 . S
C680 H671 0.950 . S
C680 C679 1.398 . S
C680 C681 1.391 . S
C681 H669 0.950 . S
C681 C677 1.393 . S
C681 C680 1.391 . S
C682 H672 0.950 . S
C682 C683 1.386 . S
C682 C684 1.391 . S
C683 C682 1.386 . S
C683 C687 1.393 . S
C684 H673 0.950 . S
C684 C682 1.391 . S
C684 C685 1.400 . S
C685 C679 1.491 . S
C685 C684 1.400 . S
C685 C686 1.398 . S
C686 H674 0.950 . S
C686 C685 1.398 . S
C686 C687 1.391 . S
C687 H675 0.950 . S
C687 C683 1.393 . S
C687 C686 1.391 . S
H688 C696 0.950 . S
H689 C701 0.950 . S
H690 C698 0.950 . S
H691 C700 0.950 . S
H692 C702 0.950 . S
H693 C704 0.950 . S
H694 C706 0.950 . S
H695 C707 0.950 . S
C696 H688 0.950 . S
C696 C697 1.386 . S
C696 C698 1.391 . S
C697 C696 1.386 . S
C697 C701 1.393 . S
C698 H690 0.950 . S
C698 C696 1.391 . S
C698 C699 1.400 . S
C699 C698 1.400 . S
C699 C700 1.398 . S
C699 C705 1.491 . S
C700 H691 0.950 . S
C700 C699 1.398 . S
C700 C701 1.391 . S
C701 H689 0.950 . S
C701 C697 1.393 . S
C701 C700 1.391 . S
C702 H692 0.950 . S
C702 C703 1.386 . S
C702 C704 1.391 . S
C703 C702 1.386 . S
C703 C707 1.393 . S
C704 H693 0.950 . S
C704 C702 1.391 . S
C704 C705 1.400 . S
C705 C699 1.491 . S
C705 C704 1.400 . S
C705 C706 1.398 . S
C706 H694 0.950 . S
C706 C705 1.398 . S
C706 C707 1.391 . S
C707 H695 0.950 . S
C707 C703 1.393 . S
C707 C706 1.391 . S
H708 C716 0.950 . S
H709 C721 0.950 . S
H710 C718 0.950 . S
H711 C720 0.950 . S
H712 C722 0.950 . S
H713 C724 0.950 . S
H714 C726 0.950 . S
H715 C727 0.950 . S
C716 H708 0.950 . S
C716 C717 1.386 . S
C716 C718 1.391 . S
C717 C716 1.386 . S
C717 C721 1.393 . S
C718 H710 0.950 . S
C718 C716 1.391 . S
C718 C719 1.400 . S
C719 C718 1.400 . S
C719 C720 1.398 . S
C719 C725 1.491 . S
C720 H711 0.950 . S
C720 C719 1.398 . S
C720 C721 1.391 . S
C721 H709 0.950 . S
C721 C717 1.393 . S
C721 C720 1.391 . S
C722 H712 0.950 . S
C722 C723 1.386 . S
C722 C724 1.391 . S
C723 C722 1.386 . S
C723 C727 1.393 . S
C724 H713 0.950 . S
C724 C722 1.391 . S
C724 C725 1.400 . S
C725 C719 1.491 . S
C725 C724 1.400 . S
C725 C726 1.398 . S
C726 H714 0.950 . S
C726 C725 1.398 . S
C726 C727 1.391 . S
C727 H715 0.950 . S
C727 C723 1.393 . S
C727 C726 1.391 . S
H728 C736 0.950 . S
H729 C741 0.950 . S
H730 C738 0.950 . S
H731 C740 0.950 . S
H732 C742 0.950 . S
H733 C744 0.950 . S
H734 C746 0.950 . S
H735 C747 0.950 . S
C736 H728 0.950 . S
C736 C737 1.386 . S
C736 C738 1.391 . S
C737 C736 1.386 . S
C737 C741 1.393 . S
C738 H730 0.950 . S
C738 C736 1.391 . S
C738 C739 1.400 . S
C739 C738 1.400 . S
C739 C740 1.398 . S
C739 C745 1.491 . S
C740 H731 0.950 . S
C740 C739 1.398 . S
C740 C741 1.391 . S
C741 H729 0.950 . S
C741 C737 1.393 . S
C741 C740 1.391 . S
C742 H732 0.950 . S
C742 C743 1.386 . S
C742 C744 1.391 . S
C743 C742 1.386 . S
C743 C747 1.393 . S
C744 H733 0.950 . S
C744 C742 1.391 . S
C744 C745 1.400 . S
C745 C739 1.491 . S
C745 C744 1.400 . S
C745 C746 1.398 . S
C746 H734 0.950 . S
C746 C745 1.398 . S
C746 C747 1.391 . S
C747 H735 0.950 . S
C747 C743 1.393 . S
C747 C746 1.391 . S
H748 C756 0.950 . S
H749 C761 0.950 . S
H750 C758 0.950 . S
H751 C760 0.950 . S
H752 C762 0.950 . S
H753 C764 0.950 . S
H754 C766 0.950 . S
H755 C767 0.950 . S
C756 H748 0.950 . S
C756 C757 1.386 . S
C756 C758 1.391 . S
C757 C756 1.386 . S
C757 C761 1.393 . S
C758 H750 0.950 . S
C758 C756 1.391 . S
C758 C759 1.400 . S
C759 C758 1.400 . S
C759 C760 1.398 . S
C759 C765 1.491 . S
C760 H751 0.950 . S
C760 C759 1.398 . S
C760 C761 1.391 . S
C761 H749 0.950 . S
C761 C757 1.393 . S
C761 C760 1.391 . S
C762 H752 0.950 . S
C762 C763 1.386 . S
C762 C764 1.391 . S
C763 C762 1.386 . S
C763 C767 1.393 . S
C764 H753 0.950 . S
C764 C762 1.391 . S
C764 C765 1.400 . S
C765 C759 1.491 . S
C765 C764 1.400 . S
C765 C766 1.398 . S
C766 H754 0.950 . S
C766 C765 1.398 . S
C766 C767 1.391 . S
C767 H755 0.950 . S
C767 C763 1.393 . S
C767 C766 1.391 . S
H768 C776 0.950 . S
H769 C781 0.950 . S
H770 C778 0.950 . S
H771 C780 0.950 . S
H772 C782 0.950 . S
H773 C784 0.950 . S
H774 C786 0.950 . S
H775 C787 0.950 . S
C776 H768 0.950 . S
C776 C777 1.386 . S
C776 C778 1.391 . S
C777 C776 1.386 . S
C777 C781 1.393 . S
C778 H770 0.950 . S
C778 C776 1.391 . S
C778 C779 1.400 . S
C779 C778 1.400 . S
C779 C780 1.398 . S
C779 C785 1.491 . S
C780 H771 0.950 . S
C780 C779 1.398 . S
C780 C781 1.391 . S
C781 H769 0.950 . S
C781 C777 1.393 . S
C781 C780 1.391 . S
C782 H772 0.950 . S
C782 C783 1.386 . S
C782 C784 1.391 . S
C783 C782 1.386 . S
C783 C787 1.393 . S
C784 H773 0.950 . S
C784 C782 1.391 . S
C784 C785 1.400 . S
C785 C779 1.491 . S
C785 C784 1.400 . S
C785 C786 1.398 . S
C786 H774 0.950 . S
C786 C785 1.398 . S
C786 C787 1.391 . S
C787 H775 0.950 . S
C787 C783 1.393 . S
C787 C786 1.391 . S
H788 C796 0.950 . S
H789 C801 0.950 . S
H790 C798 0.950 . S
H791 C800 0.950 . S
H792 C802 0.950 . S
H793 C804 0.950 . S
H794 C806 0.950 . S
H795 C807 0.950 . S
C796 H788 0.950 . S
C796 C797 1.386 . S
C796 C798 1.391 . S
C797 C796 1.386 . S
C797 C801 1.393 . S
C798 H790 0.950 . S
C798 C796 1.391 . S
C798 C799 1.400 . S
C799 C798 1.400 . S
C799 C800 1.398 . S
C799 C805 1.491 . S
C800 H791 0.950 . S
C800 C799 1.398 . S
C800 C801 1.391 . S
C801 H789 0.950 . S
C801 C797 1.393 . S
C801 C800 1.391 . S
C802 H792 0.950 . S
C802 C803 1.386 . S
C802 C804 1.391 . S
C803 C802 1.386 . S
C803 C807 1.393 . S
C804 H793 0.950 . S
C804 C802 1.391 . S
C804 C805 1.400 . S
C805 C799 1.491 . S
C805 C804 1.400 . S
C805 C806 1.398 . S
C806 H794 0.950 . S
C806 C805 1.398 . S
C806 C807 1.391 . S
C807 H795 0.950 . S
C807 C803 1.393 . S
C807 C806 1.391 . S
H808 C816 0.950 . S
H809 C821 0.950 . S
H810 C818 0.950 . S
H811 C820 0.950 . S
H812 C822 0.950 . S
H813 C824 0.950 . S
H814 C826 0.950 . S
H815 C827 0.950 . S
C816 H808 0.950 . S
C816 C817 1.386 . S
C816 C818 1.391 . S
C817 C816 1.386 . S
C817 C821 1.393 . S
C818 H810 0.950 . S
C818 C816 1.391 . S
C818 C819 1.400 . S
C819 C818 1.400 . S
C819 C820 1.398 . S
C819 C825 1.491 . S
C820 H811 0.950 . S
C820 C819 1.398 . S
C820 C821 1.391 . S
C821 H809 0.950 . S
C821 C817 1.393 . S
C821 C820 1.391 . S
C822 H812 0.950 . S
C822 C823 1.386 . S
C822 C824 1.391 . S
C823 C822 1.386 . S
C823 C827 1.393 . S
C824 H813 0.950 . S
C824 C822 1.391 . S
C824 C825 1.400 . S
C825 C819 1.491 . S
C825 C824 1.400 . S
C825 C826 1.398 . S
C826 H814 0.950 . S
C826 C825 1.398 . S
C826 C827 1.391 . S
C827 H815 0.950 . S
C827 C823 1.393 . S
C827 C826 1.391 . S
H828 C836 0.950 . S
H829 C841 0.950 . S
H830 C838 0.950 . S
H831 C840 0.950 . S
H832 C842 0.950 . S
H833 C844 0.950 . S
H834 C846 0.950 . S
H835 C847 0.950 . S
C836 H828 0.950 . S
C836 C837 1.386 1_655 S
C836 C838 1.391 . S
C837 C836 1.386 1_455 S
C837 C841 1.393 . S
C838 H830 0.950 . S
C838 C836 1.391 . S
C838 C839 1.400 1_655 S
C839 C838 1.400 1_455 S
C839 C840 1.398 . S
C839 C845 1.491 1_455 S
C840 H831 0.950 . S
C840 C839 1.398 . S
C840 C841 1.391 . S
C841 H829 0.950 . S
C841 C837 1.393 . S
C841 C840 1.391 . S
C842 H832 0.950 . S
C842 C843 1.386 1_455 S
C842 C844 1.391 . S
C843 C842 1.386 1_655 S
C843 C847 1.393 . S
C844 H833 0.950 . S
C844 C842 1.391 . S
C844 C845 1.400 1_455 S
C845 C839 1.491 1_655 S
C845 C844 1.400 1_655 S
C845 C846 1.398 . S
C846 H834 0.950 . S
C846 C845 1.398 . S
C846 C847 1.391 . S
C847 H835 0.950 . S
C847 C843 1.393 . S
C847 C846 1.391 . S
H848 C856 0.950 . S
H849 C861 0.950 . S
H850 C858 0.950 . S
H851 C860 0.950 . S
H852 C862 0.950 . S
H853 C864 0.950 . S
H854 C866 0.950 . S
H855 C867 0.950 . S
C856 H848 0.950 . S
C856 C857 1.386 . S
C856 C858 1.391 . S
C857 C856 1.386 . S
C857 C861 1.393 . S
C858 H850 0.950 . S
C858 C856 1.391 . S
C858 C859 1.400 . S
C859 C858 1.400 . S
C859 C860 1.398 . S
C859 C865 1.491 . S
C860 H851 0.950 . S
C860 C859 1.398 . S
C860 C861 1.391 . S
C861 H849 0.950 . S
C861 C857 1.393 . S
C861 C860 1.391 . S
C862 H852 0.950 . S
C862 C863 1.386 . S
C862 C864 1.391 . S
C863 C862 1.386 . S
C863 C867 1.393 . S
C864 H853 0.950 . S
C864 C862 1.391 . S
C864 C865 1.400 . S
C865 C859 1.491 . S
C865 C864 1.400 . S
C865 C866 1.398 . S
C866 H854 0.950 . S
C866 C865 1.398 . S
C866 C867 1.391 . S
C867 H855 0.950 . S
C867 C863 1.393 . S
C867 C866 1.391 . S
H868 C876 0.950 . S
H869 C881 0.950 . S
H870 C878 0.950 . S
H871 C880 0.950 . S
H872 C882 0.950 . S
H873 C884 0.950 . S
H874 C886 0.950 . S
H875 C887 0.950 . S
C876 H868 0.950 . S
C876 C877 1.386 . S
C876 C878 1.391 . S
C877 C876 1.386 . S
C877 C881 1.393 . S
C878 H870 0.950 . S
C878 C876 1.391 . S
C878 C879 1.400 . S
C879 C878 1.400 . S
C879 C880 1.398 . S
C879 C885 1.491 . S
C880 H871 0.950 . S
C880 C879 1.398 . S
C880 C881 1.391 . S
C881 H869 0.950 . S
C881 C877 1.393 . S
C881 C880 1.391 . S
C882 H872 0.950 . S
C882 C883 1.386 . S
C882 C884 1.391 . S
C883 C882 1.386 . S
C883 C887 1.393 . S
C884 H873 0.950 . S
C884 C882 1.391 . S
C884 C885 1.400 . S
C885 C879 1.491 . S
C885 C884 1.400 . S
C885 C886 1.398 . S
C886 H874 0.950 . S
C886 C885 1.398 . S
C886 C887 1.391 . S
C887 H875 0.950 . S
C887 C883 1.393 . S
C887 C886 1.391 . S
H888 C896 0.950 . S
H889 C901 0.950 . S
H890 C898 0.920 1_565 S
H891 C900 0.950 . S
H892 C902 0.950 . S
H893 C904 0.956 . S
H894 C906 0.950 . S
H895 C907 0.950 . S
C896 H888 0.950 . S
C896 C897 1.386 . S
C896 C898 1.391 . S
C897 C896 1.386 . S
C897 C901 1.393 . S
C898 H890 0.920 1_545 S
C898 C896 1.391 . S
C898 C899 1.400 . S
C899 C898 1.400 . S
C899 C900 1.398 . S
C899 C905 1.491 1_545 S
C900 H891 0.950 . S
C900 C899 1.398 . S
C900 C901 1.391 . S
C901 H889 0.950 . S
C901 C897 1.393 . S
C901 C900 1.391 . S
C902 H892 0.950 . S
C902 C903 1.386 . S
C902 C904 1.391 . S
C903 C902 1.386 . S
C903 C907 1.393 . S
C904 H893 0.956 . S
C904 C902 1.391 . S
C904 C905 1.400 . S
C905 C899 1.491 1_565 S
C905 C904 1.400 . S
C905 C906 1.398 . S
C906 H894 0.950 . S
C906 C905 1.398 . S
C906 C907 1.391 . S
C907 H895 0.950 . S
C907 C903 1.393 . S
C907 C906 1.391 . S
H908 C916 0.950 . S
H909 C921 0.950 . S
H910 C918 0.950 . S
H911 C920 0.950 . S
H912 C922 0.950 . S
H913 C924 0.950 . S
H914 C926 0.950 . S
H915 C927 0.950 . S
C916 H908 0.950 . S
C916 C917 1.386 . S
C916 C918 1.391 . S
C917 C916 1.386 . S
C917 C921 1.393 . S
C918 H910 0.950 . S
C918 C916 1.391 . S
C918 C919 1.400 . S
C919 C918 1.400 . S
C919 C920 1.398 . S
C919 C925 1.491 . S
C920 H911 0.950 . S
C920 C919 1.398 . S
C920 C921 1.391 . S
C921 H909 0.950 . S
C921 C917 1.393 . S
C921 C920 1.391 . S
C922 H912 0.950 . S
C922 C923 1.386 . S
C922 C924 1.391 . S
C923 C922 1.386 . S
C923 C927 1.393 . S
C924 H913 0.950 . S
C924 C922 1.391 . S
C924 C925 1.400 . S
C925 C919 1.491 . S
C925 C924 1.400 . S
C925 C926 1.398 . S
C926 H914 0.950 . S
C926 C925 1.398 . S
C926 C927 1.391 . S
C927 H915 0.950 . S
C927 C923 1.393 . S
C927 C926 1.391 . S
H928 C936 0.950 . S
H929 C941 0.950 . S
H930 C938 0.950 . S
H931 C940 0.950 . S
H932 C942 0.950 . S
H933 C944 0.950 . S
H934 C946 0.950 . S
H935 C947 0.950 . S
C936 H928 0.950 . S
C936 C937 1.386 . S
C936 C938 1.391 . S
C937 C936 1.386 . S
C937 C941 1.393 . S
C938 H930 0.950 . S
C938 C936 1.391 . S
C938 C939 1.400 . S
C939 C938 1.400 . S
C939 C940 1.398 . S
C939 C945 1.491 . S
C940 H931 0.950 . S
C940 C939 1.398 . S
C940 C941 1.391 . S
C941 H929 0.950 . S
C941 C937 1.393 . S
C941 C940 1.391 . S
C942 H932 0.950 . S
C942 C943 1.386 . S
C942 C944 1.391 . S
C943 C942 1.386 . S
C943 C947 1.393 . S
C944 H933 0.950 . S
C944 C942 1.391 . S
C944 C945 1.400 . S
C945 C939 1.491 . S
C945 C944 1.400 . S
C945 C946 1.398 . S
C946 H934 0.950 . S
C946 C945 1.398 . S
C946 C947 1.391 . S
C947 H935 0.950 . S
C947 C943 1.393 . S
C947 C946 1.391 . S
H948 C956 0.950 . S
H949 C961 0.950 . S
H950 C958 0.950 . S
H951 C960 0.950 . S
H952 C962 0.950 . S
H953 C964 0.950 . S
H954 C966 0.950 . S
H955 C967 0.950 . S
C956 H948 0.950 . S
C956 C957 1.386 . S
C956 C958 1.391 . S
C957 C956 1.386 . S
C957 C961 1.393 . S
C958 H950 0.950 . S
C958 C956 1.391 . S
C958 C959 1.400 . S
C959 C958 1.400 . S
C959 C960 1.398 . S
C959 C965 1.491 . S
C960 H951 0.950 . S
C960 C959 1.398 . S
C960 C961 1.391 . S
C961 H949 0.950 . S
C961 C957 1.393 . S
C961 C960 1.391 . S
C962 H952 0.950 . S
C962 C963 1.386 . S
C962 C964 1.391 . S
C963 C962 1.386 . S
C963 C967 1.393 . S
C964 H953 0.950 . S
C964 C962 1.391 . S
C964 C965 1.400 . S
C965 C959 1.491 . S
C965 C964 1.400 . S
C965 C966 1.398 . S
C966 H954 0.950 . S
C966 C965 1.398 . S
C966 C967 1.391 . S
C967 H955 0.950 . S
C967 C963 1.393 . S
C967 C966 1.391 . S
H968 C976 0.950 . S
H969 C981 0.950 . S
H970 C978 0.950 . S
H971 C980 0.950 . S
H972 C982 0.950 . S
H973 C984 0.950 . S
H974 C986 0.950 . S
H975 C987 0.950 . S
C976 H968 0.950 . S
C976 C977 1.386 . S
C976 C978 1.391 . S
C977 C976 1.386 . S
C977 C981 1.393 . S
C978 H970 0.950 . S
C978 C976 1.391 . S
C978 C979 1.400 . S
C979 C978 1.400 . S
C979 C980 1.398 . S
C979 C985 1.491 . S
C980 H971 0.950 . S
C980 C979 1.398 . S
C980 C981 1.391 . S
C981 H969 0.950 . S
C981 C977 1.393 . S
C981 C980 1.391 . S
C982 H972 0.950 . S
C982 C983 1.386 . S
C982 C984 1.391 . S
C983 C982 1.386 . S
C983 C987 1.393 . S
C984 H973 0.950 . S
C984 C982 1.391 . S
C984 C985 1.400 . S
C985 C979 1.491 . S
C985 C984 1.400 . S
C985 C986 1.398 . S
C986 H974 0.950 . S
C986 C985 1.398 . S
C986 C987 1.391 . S
C987 H975 0.950 . S
C987 C983 1.393 . S
C987 C986 1.391 . S
H988 C996 0.950 . S
H989 C1001 0.950 . S
H990 C998 0.950 . S
H991 C1000 0.950 . S
H992 C1002 0.950 . S
H993 C1004 0.950 . S
H994 C1006 0.950 . S
H995 C1007 0.950 . S
C996 H988 0.950 . S
C996 C997 1.386 . S
C996 C998 1.391 . S
C997 C996 1.386 . S
C997 C1001 1.393 1_545 S
C998 H990 0.950 . S
C998 C996 1.391 . S
C998 C999 1.400 . S
C999 C998 1.400 . S
C999 C1000 1.398 1_545 S
C999 C1005 1.491 1_545 S
C1000 H991 0.950 . S
C1000 C999 1.398 1_565 S
C1000 C1001 1.391 . S
C1001 H989 0.950 . S
C1001 C997 1.393 1_565 S
C1001 C1000 1.391 . S
C1002 H992 0.950 . S
C1002 C1003 1.386 . S
C1002 C1004 1.391 . S
C1003 C1002 1.386 . S
C1003 C1007 1.393 1_565 S
C1004 H993 0.950 . S
C1004 C1002 1.391 . S
C1004 C1005 1.400 . S
C1005 C999 1.491 1_565 S
C1005 C1004 1.400 . S
C1005 C1006 1.398 1_565 S
C1006 H994 0.950 . S
C1006 C1005 1.398 1_545 S
C1006 C1007 1.391 . S
C1007 H995 0.950 . S
C1007 C1003 1.393 1_545 S
C1007 C1006 1.391 . S
H1008 C1016 0.950 . S
H1009 C1021 0.950 . S
H1010 C1018 0.950 . S
H1011 C1020 0.950 . S
H1012 C1022 0.950 . S
H1013 C1024 0.950 . S
H1014 C1026 0.950 . S
H1015 C1027 0.950 . S
C1016 H1008 0.950 . S
C1016 C1017 1.386 . S
C1016 C1018 1.391 . S
C1017 C1016 1.386 . S
C1017 C1021 1.393 . S
C1018 H1010 0.950 . S
C1018 C1016 1.391 . S
C1018 C1019 1.400 . S
C1019 C1018 1.400 . S
C1019 C1020 1.398 . S
C1019 C1025 1.491 . S
C1020 H1011 0.950 . S
C1020 C1019 1.398 . S
C1020 C1021 1.391 . S
C1021 H1009 0.950 . S
C1021 C1017 1.393 . S
C1021 C1020 1.391 . S
C1022 H1012 0.950 . S
C1022 C1023 1.386 . S
C1022 C1024 1.391 . S
C1023 C1022 1.386 . S
C1023 C1027 1.393 . S
C1024 H1013 0.950 . S
C1024 C1022 1.391 . S
C1024 C1025 1.400 . S
C1025 C1019 1.491 . S
C1025 C1024 1.400 . S
C1025 C1026 1.398 . S
C1026 H1014 0.950 . S
C1026 C1025 1.398 . S
C1026 C1027 1.391 . S
C1027 H1015 0.950 . S
C1027 C1023 1.393 . S
C1027 C1026 1.391 . S
H1028 C1036 0.950 . S
H1029 C1041 0.950 . S
H1030 C1038 0.950 . S
H1031 C1040 0.950 . S
H1032 C1042 0.950 . S
H1033 C1044 0.950 . S
H1034 C1046 0.950 . S
H1035 C1047 0.950 . S
C1036 H1028 0.950 . S
C1036 C1037 1.386 1_655 S
C1036 C1038 1.391 . S
C1037 C1036 1.386 1_455 S
C1037 C1041 1.393 . S
C1038 H1030 0.950 . S
C1038 C1036 1.391 . S
C1038 C1039 1.400 1_655 S
C1039 C1038 1.400 1_455 S
C1039 C1040 1.398 . S
C1039 C1045 1.491 1_455 S
C1040 H1031 0.950 . S
C1040 C1039 1.398 . S
C1040 C1041 1.391 . S
C1041 H1029 0.950 . S
C1041 C1037 1.393 . S
C1041 C1040 1.391 . S
C1042 H1032 0.950 . S
C1042 C1043 1.386 1_455 S
C1042 C1044 1.391 . S
C1043 C1042 1.386 1_655 S
C1043 C1047 1.393 . S
C1044 H1033 0.950 . S
C1044 C1042 1.391 . S
C1044 C1045 1.400 1_455 S
C1045 C1039 1.491 1_655 S
C1045 C1044 1.400 1_655 S
C1045 C1046 1.398 . S
C1046 H1034 0.950 . S
C1046 C1045 1.398 . S
C1046 C1047 1.391 . S
C1047 H1035 0.950 . S
C1047 C1043 1.393 . S
C1047 C1046 1.391 . S
H1048 C1056 0.950 . S
H1049 C1061 0.950 . S
H1050 C1058 0.950 . S
H1051 C1060 0.950 . S
H1052 C1062 0.950 . S
H1053 C1064 0.950 . S
H1054 C1066 0.950 . S
H1055 C1067 0.950 . S
C1056 H1048 0.950 . S
C1056 C1057 1.386 . S
C1056 C1058 1.391 . S
C1057 C1056 1.386 . S
C1057 C1061 1.393 . S
C1058 H1050 0.950 . S
C1058 C1056 1.391 . S
C1058 C1059 1.400 . S
C1059 C1058 1.400 . S
C1059 C1060 1.398 . S
C1059 C1065 1.491 . S
C1060 H1051 0.950 . S
C1060 C1059 1.398 . S
C1060 C1061 1.391 . S
C1061 H1049 0.950 . S
C1061 C1057 1.393 . S
C1061 C1060 1.391 . S
C1062 H1052 0.950 . S
C1062 C1063 1.386 . S
C1062 C1064 1.391 . S
C1063 C1062 1.386 . S
C1063 C1067 1.393 . S
C1064 H1053 0.950 . S
C1064 C1062 1.391 . S
C1064 C1065 1.400 . S
C1065 C1059 1.491 . S
C1065 C1064 1.400 . S
C1065 C1066 1.398 . S
C1066 H1054 0.950 . S
C1066 C1065 1.398 . S
C1066 C1067 1.391 . S
C1067 H1055 0.950 . S
C1067 C1063 1.393 . S
C1067 C1066 1.391 . S
H1068 C1076 0.950 . S
H1069 C1081 0.950 . S
H1070 C1078 0.950 . S
H1071 C1080 0.950 . S
H1072 C1082 0.950 . S
H1073 C1084 0.950 . S
H1074 C1086 0.950 . S
H1075 C1087 0.950 . S
C1076 H1068 0.950 . S
C1076 C1077 1.386 . S
C1076 C1078 1.391 . S
C1077 C1076 1.386 . S
C1077 C1081 1.393 . S
C1078 H1070 0.950 . S
C1078 C1076 1.391 . S
C1078 C1079 1.400 . S
C1079 C1078 1.400 . S
C1079 C1080 1.398 . S
C1079 C1085 1.491 . S
C1080 H1071 0.950 . S
C1080 C1079 1.398 . S
C1080 C1081 1.391 . S
C1081 H1069 0.950 . S
C1081 C1077 1.393 . S
C1081 C1080 1.391 . S
C1082 H1072 0.950 . S
C1082 C1083 1.386 . S
C1082 C1084 1.391 . S
C1083 C1082 1.386 . S
C1083 C1087 1.393 . S
C1084 H1073 0.950 . S
C1084 C1082 1.391 . S
C1084 C1085 1.400 . S
C1085 C1079 1.491 . S
C1085 C1084 1.400 . S
C1085 C1086 1.398 . S
C1086 H1074 0.950 . S
C1086 C1085 1.398 . S
C1086 C1087 1.391 . S
C1087 H1075 0.950 . S
C1087 C1083 1.393 . S
C1087 C1086 1.391 . S
H1088 C1096 0.950 . S
H1089 C1101 0.950 . S
H1090 C1098 0.950 . S
H1091 C1100 0.950 . S
H1092 C1102 0.950 . S
H1093 C1104 0.950 . S
H1094 C1106 0.950 . S
H1095 C1107 0.950 . S
C1096 H1088 0.950 . S
C1096 C1097 1.386 . S
C1096 C1098 1.391 . S
C1097 C1096 1.386 . S
C1097 C1101 1.393 . S
C1098 H1090 0.950 . S
C1098 C1096 1.391 . S
C1098 C1099 1.400 . S
C1099 C1098 1.400 . S
C1099 C1100 1.398 . S
C1099 C1105 1.491 . S
C1100 H1091 0.950 . S
C1100 C1099 1.398 . S
C1100 C1101 1.391 . S
C1101 H1089 0.950 . S
C1101 C1097 1.393 . S
C1101 C1100 1.391 . S
C1102 H1092 0.950 . S
C1102 C1103 1.386 . S
C1102 C1104 1.391 . S
C1103 C1102 1.386 . S
C1103 C1107 1.393 1_545 S
C1104 H1093 0.950 . S
C1104 C1102 1.391 . S
C1104 C1105 1.400 . S
C1105 C1099 1.491 . S
C1105 C1104 1.400 . S
C1105 C1106 1.398 1_545 S
C1106 H1094 0.950 . S
C1106 C1105 1.398 1_565 S
C1106 C1107 1.391 . S
C1107 H1095 0.950 . S
C1107 C1103 1.393 1_565 S
C1107 C1106 1.391 . S
H1108 C1116 0.950 . S
H1109 C1121 0.950 . S
H1110 C1118 0.950 . S
H1111 C1120 0.950 . S
H1112 C1122 0.950 . S
H1113 C1124 0.985 . S
H1114 C1126 0.950 . S
H1115 C1127 0.950 . S
C1116 H1108 0.950 . S
C1116 C1117 1.386 . S
C1116 C1118 1.391 . S
C1117 C1116 1.386 . S
C1117 C1121 1.393 1_455 S
C1118 H1110 0.950 . S
C1118 C1116 1.391 . S
C1118 C1119 1.400 . S
C1119 C1118 1.400 . S
C1119 C1120 1.398 1_455 S
C1119 C1125 1.491 . S
C1120 H1111 0.950 . S
C1120 C1119 1.398 1_655 S
C1120 C1121 1.391 . S
C1121 H1109 0.950 . S
C1121 C1117 1.393 1_655 S
C1121 C1120 1.391 . S
C1122 H1112 0.950 . S
C1122 C1123 1.386 . S
C1122 C1124 1.391 . S
C1123 C1122 1.386 . S
C1123 C1127 1.393 . S
C1124 H1113 0.985 . S
C1124 C1122 1.391 . S
C1124 C1125 1.400 . S
C1125 C1119 1.491 . S
C1125 C1124 1.400 . S
C1125 C1126 1.398 . S
C1126 H1114 0.950 . S
C1126 C1125 1.398 . S
C1126 C1127 1.391 . S
C1127 H1115 0.950 . S
C1127 C1123 1.393 . S
C1127 C1126 1.391 . S
H1128 C1136 0.950 . S
H1129 C1141 0.950 . S
H1130 C1138 0.950 . S
H1131 C1140 0.950 . S
H1132 C1142 0.950 . S
H1133 C1144 0.950 . S
H1134 C1146 0.950 . S
H1135 C1147 0.950 . S
C1136 H1128 0.950 . S
C1136 C1137 1.386 . S
C1136 C1138 1.391 . S
C1137 C1136 1.386 . S
C1137 C1141 1.393 . S
C1138 H1130 0.950 . S
C1138 C1136 1.391 . S
C1138 C1139 1.400 . S
C1139 C1138 1.400 . S
C1139 C1140 1.398 . S
C1139 C1145 1.491 . S
C1140 H1131 0.950 . S
C1140 C1139 1.398 . S
C1140 C1141 1.391 . S
C1141 H1129 0.950 . S
C1141 C1137 1.393 . S
C1141 C1140 1.391 . S
C1142 H1132 0.950 . S
C1142 C1143 1.386 . S
C1142 C1144 1.391 . S
C1143 C1142 1.386 . S
C1143 C1147 1.393 . S
C1144 H1133 0.950 . S
C1144 C1142 1.391 . S
C1144 C1145 1.400 . S
C1145 C1139 1.491 . S
C1145 C1144 1.400 . S
C1145 C1146 1.398 . S
C1146 H1134 0.950 . S
C1146 C1145 1.398 . S
C1146 C1147 1.391 . S
C1147 H1135 0.950 . S
C1147 C1143 1.393 . S
C1147 C1146 1.391 . S
H1148 C1156 0.950 . S
H1149 C1161 0.950 . S
H1150 C1158 0.950 . S
H1151 C1160 0.950 . S
H1152 C1162 0.950 . S
H1153 C1164 0.950 . S
H1154 C1166 0.950 . S
H1155 C1167 0.950 . S
C1156 H1148 0.950 . S
C1156 C1157 1.386 . S
C1156 C1158 1.391 . S
C1157 C1156 1.386 . S
C1157 C1161 1.393 . S
C1158 H1150 0.950 . S
C1158 C1156 1.391 . S
C1158 C1159 1.400 . S
C1159 C1158 1.400 . S
C1159 C1160 1.398 . S
C1159 C1165 1.491 . S
C1160 H1151 0.950 . S
C1160 C1159 1.398 . S
C1160 C1161 1.391 . S
C1161 H1149 0.950 . S
C1161 C1157 1.393 . S
C1161 C1160 1.391 . S
C1162 H1152 0.950 . S
C1162 C1163 1.386 . S
C1162 C1164 1.391 . S
C1163 C1162 1.386 . S
C1163 C1167 1.393 . S
C1164 H1153 0.950 . S
C1164 C1162 1.391 . S
C1164 C1165 1.400 . S
C1165 C1159 1.491 . S
C1165 C1164 1.400 . S
C1165 C1166 1.398 . S
C1166 H1154 0.950 . S
C1166 C1165 1.398 . S
C1166 C1167 1.391 . S
C1167 H1155 0.950 . S
C1167 C1163 1.393 . S
C1167 C1166 1.391 . S
H1168 C1176 0.950 . S
H1169 C1181 0.950 . S
H1170 C1178 0.950 . S
H1171 C1180 0.950 . S
H1172 C1182 0.950 . S
H1173 C1184 0.950 . S
H1174 C1186 0.950 1_655 S
H1175 C1187 0.950 . S
C1176 H1168 0.950 . S
C1176 C1177 1.386 1_655 S
C1176 C1178 1.391 . S
C1177 C1176 1.386 1_455 S
C1177 C1181 1.393 . S
C1178 H1170 0.950 . S
C1178 C1176 1.391 . S
C1178 C1179 1.400 1_655 S
C1179 C1178 1.400 1_455 S
C1179 C1180 1.398 . S
C1179 C1185 1.491 . S
C1180 H1171 0.950 . S
C1180 C1179 1.398 . S
C1180 C1181 1.391 . S
C1181 H1169 0.950 . S
C1181 C1177 1.393 . S
C1181 C1180 1.391 . S
C1182 H1172 0.950 . S
C1182 C1183 1.386 . S
C1182 C1184 1.391 . S
C1183 C1182 1.386 . S
C1183 C1187 1.393 . S
C1184 H1173 0.950 . S
C1184 C1182 1.391 . S
C1184 C1185 1.400 . S
C1185 C1179 1.491 . S
C1185 C1184 1.400 . S
C1185 C1186 1.398 . S
C1186 H1174 0.950 1_455 S
C1186 C1185 1.398 . S
C1186 C1187 1.391 . S
C1187 H1175 0.950 . S
C1187 C1183 1.393 . S
C1187 C1186 1.391 . S
H1188 C1196 0.937 1_655 S
H1189 C1201 0.950 . S
H1190 C1198 0.950 1_655 S
H1191 C1200 0.950 . S
H1192 C1202 0.950 . S
H1193 C1204 0.950 . S
H1194 C1206 0.950 1_655 S
H1195 C1207 0.950 1_655 S
C1196 H1188 0.937 1_455 S
C1196 C1197 1.386 . S
C1196 C1198 1.391 . S
C1197 C1196 1.386 . S
C1197 C1201 1.393 . S
C1198 H1190 0.950 1_455 S
C1198 C1196 1.391 . S
C1198 C1199 1.400 . S
C1199 C1198 1.400 . S
C1199 C1200 1.398 . S
C1199 C1205 1.491 1_554 S
C1200 H1191 0.950 . S
C1200 C1199 1.398 . S
C1200 C1201 1.391 . S
C1201 H1189 0.950 . S
C1201 C1197 1.393 . S
C1201 C1200 1.391 . S
C1202 H1192 0.950 . S
C1202 C1203 1.386 . S
C1202 C1204 1.391 . S
C1203 C1202 1.386 . S
C1203 C1207 1.393 . S
C1204 H1193 0.950 . S
C1204 C1202 1.391 . S
C1204 C1205 1.400 . S
C1205 C1199 1.491 1_556 S
C1205 C1204 1.400 . S
C1205 C1206 1.398 . S
C1206 H1194 0.950 1_455 S
C1206 C1205 1.398 . S
C1206 C1207 1.391 . S
C1207 H1195 0.950 1_455 S
C1207 C1203 1.393 . S
C1207 C1206 1.391 . S
H1208 C1216 0.950 . S
H1209 C1221 0.950 . S
H1210 C1218 0.950 . S
H1211 C1220 0.950 . S
H1212 C1222 0.950 . S
H1213 C1224 0.950 . S
H1214 C1226 0.950 . S
H1215 C1227 0.950 . S
C1216 H1208 0.950 . S
C1216 C1217 1.386 . S
C1216 C1218 1.391 . S
C1217 C1216 1.386 . S
C1217 C1221 1.393 . S
C1218 H1210 0.950 . S
C1218 C1216 1.391 . S
C1218 C1219 1.400 . S
C1219 C1218 1.400 . S
C1219 C1220 1.398 . S
C1219 C1225 1.491 1_556 S
C1220 H1211 0.950 . S
C1220 C1219 1.398 . S
C1220 C1221 1.391 . S
C1221 H1209 0.950 . S
C1221 C1217 1.393 . S
C1221 C1220 1.391 . S
C1222 H1212 0.950 . S
C1222 C1223 1.386 . S
C1222 C1224 1.391 . S
C1223 C1222 1.386 . S
C1223 C1227 1.393 . S
C1224 H1213 0.950 . S
C1224 C1222 1.391 . S
C1224 C1225 1.400 . S
C1225 C1219 1.491 1_554 S
C1225 C1224 1.400 . S
C1225 C1226 1.398 . S
C1226 H1214 0.950 . S
C1226 C1225 1.398 . S
C1226 C1227 1.391 . S
C1227 H1215 0.950 . S
C1227 C1223 1.393 . S
C1227 C1226 1.391 . S
H1228 C1236 0.950 . S
H1229 C1241 0.950 . S
H1230 C1238 0.950 . S
H1231 C1240 0.950 . S
H1232 C1242 0.950 . S
H1233 C1244 0.950 . S
H1234 C1246 0.950 . S
H1235 C1247 0.950 . S
C1236 H1228 0.950 . S
C1236 C1237 1.386 . S
C1236 C1238 1.391 . S
C1237 C1236 1.386 . S
C1237 C1241 1.393 . S
C1238 H1230 0.950 . S
C1238 C1236 1.391 . S
C1238 C1239 1.400 . S
C1239 C1238 1.400 . S
C1239 C1240 1.398 . S
C1239 C1245 1.491 1_556 S
C1240 H1231 0.950 . S
C1240 C1239 1.398 . S
C1240 C1241 1.391 . S
C1241 H1229 0.950 . S
C1241 C1237 1.393 . S
C1241 C1240 1.391 . S
C1242 H1232 0.950 . S
C1242 C1243 1.386 . S
C1242 C1244 1.391 . S
C1243 C1242 1.386 . S
C1243 C1247 1.393 . S
C1244 H1233 0.950 . S
C1244 C1242 1.391 . S
C1244 C1245 1.400 . S
C1245 C1239 1.491 1_554 S
C1245 C1244 1.400 . S
C1245 C1246 1.398 . S
C1246 H1234 0.950 . S
C1246 C1245 1.398 . S
C1246 C1247 1.391 . S
C1247 H1235 0.950 . S
C1247 C1243 1.393 . S
C1247 C1246 1.391 . S
H1248 C1256 0.950 . S
H1249 C1261 0.950 1_655 S
H1250 C1258 0.950 . S
H1251 C1260 0.950 1_655 S
H1252 C1262 0.950 1_655 S
H1253 C1264 0.950 1_655 S
H1254 C1266 0.950 . S
H1255 C1267 0.950 . S
C1256 H1248 0.950 . S
C1256 C1257 1.386 . S
C1256 C1258 1.391 . S
C1257 C1256 1.386 . S
C1257 C1261 1.393 . S
C1258 H1250 0.950 . S
C1258 C1256 1.391 . S
C1258 C1259 1.400 . S
C1259 C1258 1.400 . S
C1259 C1260 1.398 . S
C1259 C1265 1.491 1_556 S
C1260 H1251 0.950 1_455 S
C1260 C1259 1.398 . S
C1260 C1261 1.391 . S
C1261 H1249 0.950 1_455 S
C1261 C1257 1.393 . S
C1261 C1260 1.391 . S
C1262 H1252 0.950 1_455 S
C1262 C1263 1.386 . S
C1262 C1264 1.391 . S
C1263 C1262 1.386 . S
C1263 C1267 1.393 . S
C1264 H1253 0.950 1_455 S
C1264 C1262 1.391 . S
C1264 C1265 1.400 . S
C1265 C1259 1.491 1_554 S
C1265 C1264 1.400 . S
C1265 C1266 1.398 . S
C1266 H1254 0.950 . S
C1266 C1265 1.398 . S
C1266 C1267 1.391 . S
C1267 H1255 0.950 . S
C1267 C1263 1.393 . S
C1267 C1266 1.391 . S
H1268 C1276 0.950 . S
H1269 C1281 0.950 . S
H1270 C1278 0.950 . S
H1271 C1280 0.950 . S
H1272 C1282 0.950 . S
H1273 C1284 0.950 . S
H1274 C1286 0.950 . S
H1275 C1287 0.950 . S
C1276 H1268 0.950 . S
C1276 C1277 1.386 . S
C1276 C1278 1.391 . S
C1277 C1276 1.386 . S
C1277 C1281 1.393 . S
C1278 H1270 0.950 . S
C1278 C1276 1.391 . S
C1278 C1279 1.400 . S
C1279 C1278 1.400 . S
C1279 C1280 1.398 . S
C1279 C1285 1.491 1_554 S
C1280 H1271 0.950 . S
C1280 C1279 1.398 . S
C1280 C1281 1.391 . S
C1281 H1269 0.950 . S
C1281 C1277 1.393 . S
C1281 C1280 1.391 . S
C1282 H1272 0.950 . S
C1282 C1283 1.386 . S
C1282 C1284 1.391 . S
C1283 C1282 1.386 . S
C1283 C1287 1.393 . S
C1284 H1273 0.950 . S
C1284 C1282 1.391 . S
C1284 C1285 1.400 . S
C1285 C1279 1.491 1_556 S
C1285 C1284 1.400 . S
C1285 C1286 1.398 . S
C1286 H1274 0.950 . S
C1286 C1285 1.398 . S
C1286 C1287 1.391 . S
C1287 H1275 0.950 . S
C1287 C1283 1.393 . S
C1287 C1286 1.391 . S
H1288 C1296 0.950 . S
H1289 C1301 0.950 . S
H1290 C1298 0.950 . S
H1291 C1300 0.950 . S
H1292 C1302 0.950 . S
H1293 C1304 0.950 . S
H1294 C1306 0.950 . S
H1295 C1307 0.950 . S
C1296 H1288 0.950 . S
C1296 C1297 1.386 . S
C1296 C1298 1.391 . S
C1297 C1296 1.386 . S
C1297 C1301 1.393 . S
C1298 H1290 0.950 . S
C1298 C1296 1.391 . S
C1298 C1299 1.400 . S
C1299 C1298 1.400 . S
C1299 C1300 1.398 . S
C1299 C1305 1.491 1_556 S
C1300 H1291 0.950 . S
C1300 C1299 1.398 . S
C1300 C1301 1.391 . S
C1301 H1289 0.950 . S
C1301 C1297 1.393 . S
C1301 C1300 1.391 . S
C1302 H1292 0.950 . S
C1302 C1303 1.386 . S
C1302 C1304 1.391 . S
C1303 C1302 1.386 . S
C1303 C1307 1.393 . S
C1304 H1293 0.950 . S
C1304 C1302 1.391 . S
C1304 C1305 1.400 . S
C1305 C1299 1.491 1_554 S
C1305 C1304 1.400 . S
C1305 C1306 1.398 . S
C1306 H1294 0.950 . S
C1306 C1305 1.398 . S
C1306 C1307 1.391 . S
C1307 H1295 0.950 . S
C1307 C1303 1.393 . S
C1307 C1306 1.391 . S
H1308 C1316 0.950 . S
H1309 C1321 0.950 . S
H1310 C1318 0.950 . S
H1311 C1320 0.950 . S
H1312 C1322 0.950 . S
H1313 C1324 0.950 . S
H1314 C1326 0.950 . S
H1315 C1327 0.950 . S
C1316 H1308 0.950 . S
C1316 C1317 1.386 . S
C1316 C1318 1.391 . S
C1317 C1316 1.386 . S
C1317 C1321 1.393 . S
C1318 H1310 0.950 . S
C1318 C1316 1.391 . S
C1318 C1319 1.400 . S
C1319 C1318 1.400 . S
C1319 C1320 1.398 . S
C1319 C1325 1.491 . S
C1320 H1311 0.950 . S
C1320 C1319 1.398 . S
C1320 C1321 1.391 . S
C1321 H1309 0.950 . S
C1321 C1317 1.393 . S
C1321 C1320 1.391 . S
C1322 H1312 0.950 . S
C1322 C1323 1.386 . S
C1322 C1324 1.391 . S
C1323 C1322 1.386 . S
C1323 C1327 1.393 . S
C1324 H1313 0.950 . S
C1324 C1322 1.391 . S
C1324 C1325 1.400 . S
C1325 C1319 1.491 . S
C1325 C1324 1.400 . S
C1325 C1326 1.398 . S
C1326 H1314 0.950 . S
C1326 C1325 1.398 . S
C1326 C1327 1.391 . S
C1327 H1315 0.950 . S
C1327 C1323 1.393 . S
C1327 C1326 1.391 . S
H1328 C1336 0.950 . S
H1329 C1341 0.950 . S
H1330 C1338 0.950 . S
H1331 C1340 0.950 . S
H1332 C1342 0.950 . S
H1333 C1344 0.950 . S
H1334 C1346 0.950 . S
H1335 C1347 0.950 . S
C1336 H1328 0.950 . S
C1336 C1337 1.386 . S
C1336 C1338 1.391 . S
C1337 C1336 1.386 . S
C1337 C1341 1.393 . S
C1338 H1330 0.950 . S
C1338 C1336 1.391 . S
C1338 C1339 1.400 . S
C1339 C1338 1.400 . S
C1339 C1340 1.398 . S
C1339 C1345 1.491 . S
C1340 H1331 0.950 . S
C1340 C1339 1.398 . S
C1340 C1341 1.391 . S
C1341 H1329 0.950 . S
C1341 C1337 1.393 . S
C1341 C1340 1.391 . S
C1342 H1332 0.950 . S
C1342 C1343 1.386 . S
C1342 C1344 1.391 . S
C1343 C1342 1.386 . S
C1343 C1347 1.393 . S
C1344 H1333 0.950 . S
C1344 C1342 1.391 . S
C1344 C1345 1.400 . S
C1345 C1339 1.491 . S
C1345 C1344 1.400 . S
C1345 C1346 1.398 . S
C1346 H1334 0.950 . S
C1346 C1345 1.398 . S
C1346 C1347 1.391 . S
C1347 H1335 0.950 . S
C1347 C1343 1.393 . S
C1347 C1346 1.391 . S
H1348 C1356 0.950 . S
H1349 C1361 0.950 . S
H1350 C1358 0.950 . S
H1351 C1360 0.950 . S
H1352 C1362 0.950 . S
H1353 C1364 0.950 . S
H1354 C1366 0.950 . S
H1355 C1367 0.950 . S
C1356 H1348 0.950 . S
C1356 C1357 1.386 . S
C1356 C1358 1.391 . S
C1357 C1356 1.386 . S
C1357 C1361 1.393 . S
C1358 H1350 0.950 . S
C1358 C1356 1.391 . S
C1358 C1359 1.400 . S
C1359 C1358 1.400 . S
C1359 C1360 1.398 . S
C1359 C1365 1.491 . S
C1360 H1351 0.950 . S
C1360 C1359 1.398 . S
C1360 C1361 1.391 . S
C1361 H1349 0.950 . S
C1361 C1357 1.393 . S
C1361 C1360 1.391 . S
C1362 H1352 0.950 . S
C1362 C1363 1.386 . S
C1362 C1364 1.391 . S
C1363 C1362 1.386 . S
C1363 C1367 1.393 . S
C1364 H1353 0.950 . S
C1364 C1362 1.391 . S
C1364 C1365 1.400 . S
C1365 C1359 1.491 . S
C1365 C1364 1.400 . S
C1365 C1366 1.398 . S
C1366 H1354 0.950 . S
C1366 C1365 1.398 . S
C1366 C1367 1.391 . S
C1367 H1355 0.950 . S
C1367 C1363 1.393 . S
C1367 C1366 1.391 . S
H1368 C1376 0.950 . S
H1369 C1381 0.950 . S
H1370 C1378 0.950 . S
H1371 C1380 0.950 . S
H1372 C1382 0.950 . S
H1373 C1384 0.950 . S
H1374 C1386 0.950 . S
H1375 C1387 0.950 . S
C1376 H1368 0.950 . S
C1376 C1377 1.386 . S
C1376 C1378 1.391 . S
C1377 C1376 1.386 . S
C1377 C1381 1.393 . S
C1378 H1370 0.950 . S
C1378 C1376 1.391 . S
C1378 C1379 1.400 . S
C1379 C1378 1.400 . S
C1379 C1380 1.398 . S
C1379 C1385 1.491 . S
C1380 H1371 0.950 . S
C1380 C1379 1.398 . S
C1380 C1381 1.391 . S
C1381 H1369 0.950 . S
C1381 C1377 1.393 . S
C1381 C1380 1.391 . S
C1382 H1372 0.950 . S
C1382 C1383 1.386 . S
C1382 C1384 1.391 . S
C1383 C1382 1.386 . S
C1383 C1387 1.393 . S
C1384 H1373 0.950 . S
C1384 C1382 1.391 . S
C1384 C1385 1.400 . S
C1385 C1379 1.491 . S
C1385 C1384 1.400 . S
C1385 C1386 1.398 . S
C1386 H1374 0.950 . S
C1386 C1385 1.398 . S
C1386 C1387 1.391 . S
C1387 H1375 0.950 . S
C1387 C1383 1.393 . S
C1387 C1386 1.391 . S
H1388 C1396 0.950 1_455 S
H1389 C1401 0.950 . S
H1390 C1398 0.950 1_455 S
H1391 C1400 0.950 . S
H1392 C1402 0.950 . S
H1393 C1404 0.950 . S
H1394 C1406 0.950 1_455 S
H1395 C1407 0.950 1_455 S
C1396 H1388 0.950 1_655 S
C1396 C1397 1.386 . S
C1396 C1398 1.391 . S
C1397 C1396 1.386 . S
C1397 C1401 1.393 . S
C1398 H1390 0.950 1_655 S
C1398 C1396 1.391 . S
C1398 C1399 1.400 . S
C1399 C1398 1.400 . S
C1399 C1400 1.398 . S
C1399 C1405 1.491 . S
C1400 H1391 0.950 . S
C1400 C1399 1.398 . S
C1400 C1401 1.391 . S
C1401 H1389 0.950 . S
C1401 C1397 1.393 . S
C1401 C1400 1.391 . S
C1402 H1392 0.950 . S
C1402 C1403 1.386 . S
C1402 C1404 1.391 . S
C1403 C1402 1.386 . S
C1403 C1407 1.393 . S
C1404 H1393 0.950 . S
C1404 C1402 1.391 . S
C1404 C1405 1.400 . S
C1405 C1399 1.491 . S
C1405 C1404 1.400 . S
C1405 C1406 1.398 . S
C1406 H1394 0.950 1_655 S
C1406 C1405 1.398 . S
C1406 C1407 1.391 . S
C1407 H1395 0.950 1_655 S
C1407 C1403 1.393 . S
C1407 C1406 1.391 . S
H1408 C1416 0.950 . S
H1409 C1421 0.950 . S
H1410 C1418 0.950 . S
H1411 C1420 0.950 . S
H1412 C1422 0.950 . S
H1413 C1424 0.950 . S
H1414 C1426 0.950 . S
H1415 C1427 0.950 . S
C1416 H1408 0.950 . S
C1416 C1417 1.386 . S
C1416 C1418 1.391 . S
C1417 C1416 1.386 . S
C1417 C1421 1.393 . S
C1418 H1410 0.950 . S
C1418 C1416 1.391 . S
C1418 C1419 1.400 . S
C1419 C1418 1.400 . S
C1419 C1420 1.398 . S
C1419 C1425 1.491 . S
C1420 H1411 0.950 . S
C1420 C1419 1.398 . S
C1420 C1421 1.391 . S
C1421 H1409 0.950 . S
C1421 C1417 1.393 . S
C1421 C1420 1.391 . S
C1422 H1412 0.950 . S
C1422 C1423 1.386 . S
C1422 C1424 1.391 . S
C1423 C1422 1.386 . S
C1423 C1427 1.393 . S
C1424 H1413 0.950 . S
C1424 C1422 1.391 . S
C1424 C1425 1.400 . S
C1425 C1419 1.491 . S
C1425 C1424 1.400 . S
C1425 C1426 1.398 . S
C1426 H1414 0.950 . S
C1426 C1425 1.398 . S
C1426 C1427 1.391 . S
C1427 H1415 0.950 . S
C1427 C1423 1.393 . S
C1427 C1426 1.391 . S
H1428 C1436 0.950 . S
H1429 C1441 0.950 . S
H1430 C1438 0.950 . S
H1431 C1440 0.950 . S
H1432 C1442 0.950 . S
H1433 C1444 0.950 . S
H1434 C1446 0.950 . S
H1435 C1447 0.950 . S
C1436 H1428 0.950 . S
C1436 C1437 1.386 . S
C1436 C1438 1.391 . S
C1437 C1436 1.386 . S
C1437 C1441 1.393 . S
C1438 H1430 0.950 . S
C1438 C1436 1.391 . S
C1438 C1439 1.400 . S
C1439 C1438 1.400 . S
C1439 C1440 1.398 . S
C1439 C1445 1.491 . S
C1440 H1431 0.950 . S
C1440 C1439 1.398 . S
C1440 C1441 1.391 . S
C1441 H1429 0.950 . S
C1441 C1437 1.393 . S
C1441 C1440 1.391 . S
C1442 H1432 0.950 . S
C1442 C1443 1.386 . S
C1442 C1444 1.391 . S
C1443 C1442 1.386 . S
C1443 C1447 1.393 . S
C1444 H1433 0.950 . S
C1444 C1442 1.391 . S
C1444 C1445 1.400 . S
C1445 C1439 1.491 . S
C1445 C1444 1.400 . S
C1445 C1446 1.398 . S
C1446 H1434 0.950 . S
C1446 C1445 1.398 . S
C1446 C1447 1.391 . S
C1447 H1435 0.950 . S
C1447 C1443 1.393 . S
C1447 C1446 1.391 . S
H1448 C1456 0.950 . S
H1449 C1461 0.950 . S
H1450 C1458 0.950 . S
H1451 C1460 0.950 . S
H1452 C1462 0.950 . S
H1453 C1464 0.950 . S
H1454 C1466 0.950 . S
H1455 C1467 0.950 . S
C1456 H1448 0.950 . S
C1456 C1457 1.386 . S
C1456 C1458 1.391 . S
C1457 C1456 1.386 . S
C1457 C1461 1.393 . S
C1458 H1450 0.950 . S
C1458 C1456 1.391 . S
C1458 C1459 1.400 . S
C1459 C1458 1.400 . S
C1459 C1460 1.398 . S
C1459 C1465 1.491 . S
C1460 H1451 0.950 . S
C1460 C1459 1.398 . S
C1460 C1461 1.391 . S
C1461 H1449 0.950 . S
C1461 C1457 1.393 . S
C1461 C1460 1.391 . S
C1462 H1452 0.950 . S
C1462 C1463 1.386 . S
C1462 C1464 1.391 . S
C1463 C1462 1.386 . S
C1463 C1467 1.393 . S
C1464 H1453 0.950 . S
C1464 C1462 1.391 . S
C1464 C1465 1.400 . S
C1465 C1459 1.491 . S
C1465 C1464 1.400 . S
C1465 C1466 1.398 . S
C1466 H1454 0.950 . S
C1466 C1465 1.398 . S
C1466 C1467 1.391 . S
C1467 H1455 0.950 . S
C1467 C1463 1.393 . S
C1467 C1466 1.391 . S
H1468 C1476 0.950 . S
H1469 C1481 0.950 . S
H1470 C1478 0.950 . S
H1471 C1480 0.950 . S
H1472 C1482 0.950 . S
H1473 C1484 0.950 . S
H1474 C1486 0.950 . S
H1475 C1487 0.950 . S
C1476 H1468 0.950 . S
C1476 C1477 1.386 . S
C1476 C1478 1.391 . S
C1477 C1476 1.386 . S
C1477 C1481 1.393 . S
C1478 H1470 0.950 . S
C1478 C1476 1.391 . S
C1478 C1479 1.400 . S
C1479 C1478 1.400 . S
C1479 C1480 1.398 . S
C1479 C1485 1.491 . S
C1480 H1471 0.950 . S
C1480 C1479 1.398 . S
C1480 C1481 1.391 . S
C1481 H1469 0.950 . S
C1481 C1477 1.393 . S
C1481 C1480 1.391 . S
C1482 H1472 0.950 . S
C1482 C1483 1.386 . S
C1482 C1484 1.391 . S
C1483 C1482 1.386 . S
C1483 C1487 1.393 . S
C1484 H1473 0.950 . S
C1484 C1482 1.391 . S
C1484 C1485 1.400 . S
C1485 C1479 1.491 . S
C1485 C1484 1.400 . S
C1485 C1486 1.398 . S
C1486 H1474 0.950 . S
C1486 C1485 1.398 . S
C1486 C1487 1.391 . S
C1487 H1475 0.950 . S
C1487 C1483 1.393 . S
C1487 C1486 1.391 . S
H1488 C1496 0.950 . S
H1489 C1501 0.950 . S
H1490 C1498 0.950 . S
H1491 C1500 0.950 . S
H1492 C1502 0.950 . S
H1493 C1504 0.950 . S
H1494 C1506 0.950 . S
H1495 C1507 0.950 . S
C1496 H1488 0.950 . S
C1496 C1497 1.386 . S
C1496 C1498 1.391 . S
C1497 C1496 1.386 . S
C1497 C1501 1.393 . S
C1498 H1490 0.950 . S
C1498 C1496 1.391 . S
C1498 C1499 1.400 . S
C1499 C1498 1.400 . S
C1499 C1500 1.398 . S
C1499 C1505 1.491 . S
C1500 H1491 0.950 . S
C1500 C1499 1.398 . S
C1500 C1501 1.391 . S
C1501 H1489 0.950 . S
C1501 C1497 1.393 . S
C1501 C1500 1.391 . S
C1502 H1492 0.950 . S
C1502 C1503 1.386 . S
C1502 C1504 1.391 . S
C1503 C1502 1.386 . S
C1503 C1507 1.393 . S
C1504 H1493 0.950 . S
C1504 C1502 1.391 . S
C1504 C1505 1.400 . S
C1505 C1499 1.491 . S
C1505 C1504 1.400 . S
C1505 C1506 1.398 . S
C1506 H1494 0.950 . S
C1506 C1505 1.398 . S
C1506 C1507 1.391 . S
C1507 H1495 0.950 . S
C1507 C1503 1.393 . S
C1507 C1506 1.391 . S
H1508 C1516 0.950 . S
H1509 C1521 0.982 . S
H1510 C1518 0.950 . S
H1511 C1520 0.944 1_545 S
H1512 C1522 0.950 1_545 S
H1513 C1524 0.950 1_545 S
H1514 C1526 0.950 . S
H1515 C1527 0.950 . S
C1516 H1508 0.950 . S
C1516 C1517 1.386 . S
C1516 C1518 1.391 . S
C1517 C1516 1.386 . S
C1517 C1521 1.363 1_565 S
C1518 H1510 0.950 . S
C1518 C1516 1.391 . S
C1518 C1519 1.400 . S
C1519 C1518 1.400 . S
C1519 C1520 1.404 . S
C1519 C1525 1.491 . S
C1520 H1511 0.944 1_565 S
C1520 C1519 1.404 . S
C1520 C1521 1.389 1_565 S
C1521 H1509 0.982 . S
C1521 C1517 1.363 1_545 S
C1521 C1520 1.389 1_545 S
C1522 H1512 0.950 1_565 S
C1522 C1523 1.386 . S
C1522 C1524 1.391 . S
C1523 C1522 1.386 . S
C1523 C1527 1.393 . S
C1524 H1513 0.950 1_565 S
C1524 C1522 1.391 . S
C1524 C1525 1.400 . S
C1525 C1519 1.491 . S
C1525 C1524 1.400 . S
C1525 C1526 1.398 . S
C1526 H1514 0.950 . S
C1526 C1525 1.398 . S
C1526 C1527 1.391 . S
C1527 H1515 0.950 . S
C1527 C1523 1.393 . S
C1527 C1526 1.391 . S
H1528 C1536 0.950 . S
H1529 C1541 0.950 . S
H1530 C1538 0.950 . S
H1531 C1540 0.950 . S
H1532 C1542 0.950 . S
H1533 C1544 0.950 . S
H1534 C1546 0.950 . S
H1535 C1547 0.950 . S
C1536 H1528 0.950 . S
C1536 C1537 1.386 . S
C1536 C1538 1.391 . S
C1537 C1536 1.386 . S
C1537 C1541 1.393 . S
C1538 H1530 0.950 . S
C1538 C1536 1.391 . S
C1538 C1539 1.400 . S
C1539 C1538 1.400 . S
C1539 C1540 1.398 . S
C1539 C1545 1.491 . S
C1540 H1531 0.950 . S
C1540 C1539 1.398 . S
C1540 C1541 1.391 . S
C1541 H1529 0.950 . S
C1541 C1537 1.393 . S
C1541 C1540 1.391 . S
C1542 H1532 0.950 . S
C1542 C1543 1.386 . S
C1542 C1544 1.391 . S
C1543 C1542 1.386 . S
C1543 C1547 1.393 . S
C1544 H1533 0.950 . S
C1544 C1542 1.391 . S
C1544 C1545 1.400 . S
C1545 C1539 1.491 . S
C1545 C1544 1.400 . S
C1545 C1546 1.398 . S
C1546 H1534 0.950 . S
C1546 C1545 1.398 . S
C1546 C1547 1.391 . S
C1547 H1535 0.950 . S
C1547 C1543 1.393 . S
C1547 C1546 1.391 . S
H1548 C1556 0.950 . S
H1549 C1561 0.950 . S
H1550 C1558 0.950 . S
H1551 C1560 0.950 . S
H1552 C1562 0.950 . S
H1553 C1564 0.950 . S
H1554 C1566 0.950 . S
H1555 C1567 0.950 . S
C1556 H1548 0.950 . S
C1556 C1557 1.386 . S
C1556 C1558 1.391 . S
C1557 C1556 1.386 . S
C1557 C1561 1.393 . S
C1558 H1550 0.950 . S
C1558 C1556 1.391 . S
C1558 C1559 1.400 . S
C1559 C1558 1.400 . S
C1559 C1560 1.398 . S
C1559 C1565 1.491 . S
C1560 H1551 0.950 . S
C1560 C1559 1.398 . S
C1560 C1561 1.391 . S
C1561 H1549 0.950 . S
C1561 C1557 1.393 . S
C1561 C1560 1.391 . S
C1562 H1552 0.950 . S
C1562 C1563 1.386 . S
C1562 C1564 1.391 . S
C1563 C1562 1.386 . S
C1563 C1567 1.393 . S
C1564 H1553 0.950 . S
C1564 C1562 1.391 . S
C1564 C1565 1.400 . S
C1565 C1559 1.491 . S
C1565 C1564 1.400 . S
C1565 C1566 1.398 . S
C1566 H1554 0.950 . S
C1566 C1565 1.398 . S
C1566 C1567 1.391 . S
C1567 H1555 0.950 . S
C1567 C1563 1.393 . S
C1567 C1566 1.391 . S
H1568 C1576 0.950 . S
H1569 C1581 0.950 . S
H1570 C1578 0.950 . S
H1571 C1580 0.950 . S
H1572 C1582 0.950 . S
H1573 C1584 0.950 . S
H1574 C1586 0.950 . S
H1575 C1587 0.950 . S
C1576 H1568 0.950 . S
C1576 C1577 1.386 . S
C1576 C1578 1.391 . S
C1577 C1576 1.386 . S
C1577 C1581 1.393 . S
C1578 H1570 0.950 . S
C1578 C1576 1.391 . S
C1578 C1579 1.400 . S
C1579 C1578 1.400 . S
C1579 C1580 1.398 . S
C1579 C1585 1.491 . S
C1580 H1571 0.950 . S
C1580 C1579 1.398 . S
C1580 C1581 1.391 . S
C1581 H1569 0.950 . S
C1581 C1577 1.393 . S
C1581 C1580 1.391 . S
C1582 H1572 0.950 . S
C1582 C1583 1.386 . S
C1582 C1584 1.391 . S
C1583 C1582 1.386 . S
C1583 C1587 1.393 . S
C1584 H1573 0.950 . S
C1584 C1582 1.391 . S
C1584 C1585 1.400 . S
C1585 C1579 1.491 . S
C1585 C1584 1.400 . S
C1585 C1586 1.398 . S
C1586 H1574 0.950 . S
C1586 C1585 1.398 . S
C1586 C1587 1.391 . S
C1587 H1575 0.950 . S
C1587 C1583 1.393 . S
C1587 C1586 1.391 . S
H1588 C1596 0.950 . S
H1589 C1601 0.950 . S
H1590 C1598 0.950 . S
H1591 C1600 0.950 . S
H1592 C1602 0.950 . S
H1593 C1604 0.950 . S
H1594 C1606 0.950 . S
H1595 C1607 0.950 . S
C1596 H1588 0.950 . S
C1596 C1597 1.386 . S
C1596 C1598 1.391 . S
C1597 C1596 1.386 . S
C1597 C1601 1.393 . S
C1598 H1590 0.950 . S
C1598 C1596 1.391 . S
C1598 C1599 1.400 . S
C1599 C1598 1.400 . S
C1599 C1600 1.398 . S
C1599 C1605 1.491 . S
C1600 H1591 0.950 . S
C1600 C1599 1.398 . S
C1600 C1601 1.391 . S
C1601 H1589 0.950 . S
C1601 C1597 1.393 . S
C1601 C1600 1.391 . S
C1602 H1592 0.950 . S
C1602 C1603 1.386 . S
C1602 C1604 1.391 . S
C1603 C1602 1.386 . S
C1603 C1607 1.393 . S
C1604 H1593 0.950 . S
C1604 C1602 1.391 . S
C1604 C1605 1.400 . S
C1605 C1599 1.491 . S
C1605 C1604 1.400 . S
C1605 C1606 1.398 . S
C1606 H1594 0.950 . S
C1606 C1605 1.398 . S
C1606 C1607 1.391 . S
C1607 H1595 0.950 . S
C1607 C1603 1.393 . S
C1607 C1606 1.391 . S
H1608 C1616 0.950 . S
H1609 C1621 0.950 . S
H1610 C1618 0.950 . S
H1611 C1620 0.950 . S
H1612 C1622 0.950 . S
H1613 C1624 0.950 . S
H1614 C1626 0.950 . S
H1615 C1627 0.950 . S
C1616 H1608 0.950 . S
C1616 C1617 1.386 . S
C1616 C1618 1.391 . S
C1617 C1616 1.386 . S
C1617 C1621 1.393 . S
C1618 H1610 0.950 . S
C1618 C1616 1.391 . S
C1618 C1619 1.400 . S
C1619 C1618 1.400 . S
C1619 C1620 1.398 . S
C1619 C1625 1.491 . S
C1620 H1611 0.950 . S
C1620 C1619 1.398 . S
C1620 C1621 1.391 . S
C1621 H1609 0.950 . S
C1621 C1617 1.393 . S
C1621 C1620 1.391 . S
C1622 H1612 0.950 . S
C1622 C1623 1.386 . S
C1622 C1624 1.391 . S
C1623 C1622 1.386 . S
C1623 C1627 1.393 . S
C1624 H1613 0.950 . S
C1624 C1622 1.391 . S
C1624 C1625 1.400 . S
C1625 C1619 1.491 . S
C1625 C1624 1.400 . S
C1625 C1626 1.398 . S
C1626 H1614 0.950 . S
C1626 C1625 1.398 . S
C1626 C1627 1.391 . S
C1627 H1615 0.950 . S
C1627 C1623 1.393 . S
C1627 C1626 1.391 . S
H1628 C1636 0.950 . S
H1629 C1641 0.950 . S
H1630 C1638 0.950 . S
H1631 C1640 0.950 . S
H1632 C1642 0.950 . S
H1633 C1644 0.950 . S
H1634 C1646 0.950 . S
H1635 C1647 0.950 . S
C1636 H1628 0.950 . S
C1636 C1637 1.386 . S
C1636 C1638 1.391 . S
C1637 C1636 1.386 . S
C1637 C1641 1.393 . S
C1638 H1630 0.950 . S
C1638 C1636 1.391 . S
C1638 C1639 1.400 . S
C1639 C1638 1.400 . S
C1639 C1640 1.398 . S
C1639 C1645 1.491 . S
C1640 H1631 0.950 . S
C1640 C1639 1.398 . S
C1640 C1641 1.391 . S
C1641 H1629 0.950 . S
C1641 C1637 1.393 . S
C1641 C1640 1.391 . S
C1642 H1632 0.950 . S
C1642 C1643 1.386 . S
C1642 C1644 1.391 . S
C1643 C1642 1.386 . S
C1643 C1647 1.393 . S
C1644 H1633 0.950 . S
C1644 C1642 1.391 . S
C1644 C1645 1.400 . S
C1645 C1639 1.491 . S
C1645 C1644 1.400 . S
C1645 C1646 1.398 . S
C1646 H1634 0.950 . S
C1646 C1645 1.398 . S
C1646 C1647 1.391 . S
C1647 H1635 0.950 . S
C1647 C1643 1.393 . S
C1647 C1646 1.391 . S
H1648 C1656 0.950 . S
H1649 C1661 0.950 . S
H1650 C1658 0.950 . S
H1651 C1660 0.950 . S
H1652 C1662 0.950 . S
H1653 C1664 0.950 . S
H1654 C1666 0.950 . S
H1655 C1667 0.950 . S
C1656 H1648 0.950 . S
C1656 C1657 1.386 . S
C1656 C1658 1.391 . S
C1657 C1656 1.386 . S
C1657 C1661 1.393 . S
C1658 H1650 0.950 . S
C1658 C1656 1.391 . S
C1658 C1659 1.400 . S
C1659 C1658 1.400 . S
C1659 C1660 1.398 . S
C1659 C1665 1.491 . S
C1660 H1651 0.950 . S
C1660 C1659 1.398 . S
C1660 C1661 1.391 . S
C1661 H1649 0.950 . S
C1661 C1657 1.393 . S
C1661 C1660 1.391 . S
C1662 H1652 0.950 . S
C1662 C1663 1.386 . S
C1662 C1664 1.391 . S
C1663 C1662 1.386 . S
C1663 C1667 1.393 . S
C1664 H1653 0.950 . S
C1664 C1662 1.391 . S
C1664 C1665 1.400 . S
C1665 C1659 1.491 . S
C1665 C1664 1.400 . S
C1665 C1666 1.398 . S
C1666 H1654 0.950 . S
C1666 C1665 1.398 . S
C1666 C1667 1.391 . S
C1667 H1655 0.950 . S
C1667 C1663 1.393 . S
C1667 C1666 1.391 . S
H1668 C1676 0.950 . S
H1669 C1681 0.950 . S
H1670 C1678 0.950 . S
H1671 C1680 0.950 . S
H1672 C1682 0.950 . S
H1673 C1684 0.950 . S
H1674 C1686 0.950 . S
H1675 C1687 0.950 . S
C1676 H1668 0.950 . S
C1676 C1677 1.386 . S
C1676 C1678 1.391 . S
C1677 C1676 1.386 . S
C1677 C1681 1.393 . S
C1678 H1670 0.950 . S
C1678 C1676 1.391 . S
C1678 C1679 1.400 . S
C1679 C1678 1.400 . S
C1679 C1680 1.398 . S
C1679 C1685 1.491 . S
C1680 H1671 0.950 . S
C1680 C1679 1.398 . S
C1680 C1681 1.391 . S
C1681 H1669 0.950 . S
C1681 C1677 1.393 . S
C1681 C1680 1.391 . S
C1682 H1672 0.950 . S
C1682 C1683 1.386 . S
C1682 C1684 1.391 . S
C1683 C1682 1.386 . S
C1683 C1687 1.393 . S
C1684 H1673 0.950 . S
C1684 C1682 1.391 . S
C1684 C1685 1.400 . S
C1685 C1679 1.491 . S
C1685 C1684 1.400 . S
C1685 C1686 1.398 . S
C1686 H1674 0.950 . S
C1686 C1685 1.398 . S
C1686 C1687 1.391 . S
C1687 H1675 0.950 . S
C1687 C1683 1.393 . S
C1687 C1686 1.391 . S
H1688 C1696 0.950 . S
H1689 C1701 0.950 . S
H1690 C1698 0.950 . S
H1691 C1700 0.950 . S
H1692 C1702 0.950 . S
H1693 C1704 0.950 . S
H1694 C1706 0.950 . S
H1695 C1707 0.950 . S
C1696 H1688 0.950 . S
C1696 C1697 1.386 . S
C1696 C1698 1.391 . S
C1697 C1696 1.386 . S
C1697 C1701 1.393 . S
C1698 H1690 0.950 . S
C1698 C1696 1.391 . S
C1698 C1699 1.400 . S
C1699 C1698 1.400 . S
C1699 C1700 1.398 . S
C1699 C1705 1.491 . S
C1700 H1691 0.950 . S
C1700 C1699 1.398 . S
C1700 C1701 1.391 . S
C1701 H1689 0.950 . S
C1701 C1697 1.393 . S
C1701 C1700 1.391 . S
C1702 H1692 0.950 . S
C1702 C1703 1.386 . S
C1702 C1704 1.391 . S
C1703 C1702 1.386 . S
C1703 C1707 1.393 . S
C1704 H1693 0.950 . S
C1704 C1702 1.391 . S
C1704 C1705 1.400 . S
C1705 C1699 1.491 . S
C1705 C1704 1.400 . S
C1705 C1706 1.398 . S
C1706 H1694 0.950 . S
C1706 C1705 1.398 . S
C1706 C1707 1.391 . S
C1707 H1695 0.950 . S
C1707 C1703 1.393 . S
C1707 C1706 1.391 . S
H1708 C1716 0.950 1_455 S
H1709 C1721 0.950 . S
H1710 C1718 0.950 1_455 S
H1711 C1720 0.950 . S
H1712 C1722 0.950 . S
H1713 C1724 0.950 . S
H1714 C1726 0.950 1_455 S
H1715 C1727 0.950 1_455 S
C1716 H1708 0.950 1_655 S
C1716 C1717 1.386 . S
C1716 C1718 1.391 . S
C1717 C1716 1.386 . S
C1717 C1721 1.393 . S
C1718 H1710 0.950 1_655 S
C1718 C1716 1.391 . S
C1718 C1719 1.400 . S
C1719 C1718 1.400 . S
C1719 C1720 1.398 . S
C1719 C1725 1.491 . S
C1720 H1711 0.950 . S
C1720 C1719 1.398 . S
C1720 C1721 1.391 . S
C1721 H1709 0.950 . S
C1721 C1717 1.393 . S
C1721 C1720 1.391 . S
C1722 H1712 0.950 . S
C1722 C1723 1.386 . S
C1722 C1724 1.391 . S
C1723 C1722 1.386 . S
C1723 C1727 1.393 . S
C1724 H1713 0.950 . S
C1724 C1722 1.391 . S
C1724 C1725 1.400 . S
C1725 C1719 1.491 . S
C1725 C1724 1.400 . S
C1725 C1726 1.398 . S
C1726 H1714 0.950 1_655 S
C1726 C1725 1.398 . S
C1726 C1727 1.391 . S
C1727 H1715 0.950 1_655 S
C1727 C1723 1.393 . S
C1727 C1726 1.391 . S
H1728 C1736 0.950 . S
H1729 C1741 0.950 . S
H1730 C1738 0.950 . S
H1731 C1740 0.950 . S
H1732 C1742 0.950 . S
H1733 C1744 0.950 . S
H1734 C1746 0.950 . S
H1735 C1747 0.950 . S
C1736 H1728 0.950 . S
C1736 C1737 1.386 . S
C1736 C1738 1.391 . S
C1737 C1736 1.386 . S
C1737 C1741 1.393 . S
C1738 H1730 0.950 . S
C1738 C1736 1.391 . S
C1738 C1739 1.400 . S
C1739 C1738 1.400 . S
C1739 C1740 1.398 . S
C1739 C1745 1.491 . S
C1740 H1731 0.950 . S
C1740 C1739 1.398 . S
C1740 C1741 1.391 . S
C1741 H1729 0.950 . S
C1741 C1737 1.393 . S
C1741 C1740 1.391 . S
C1742 H1732 0.950 . S
C1742 C1743 1.386 . S
C1742 C1744 1.391 . S
C1743 C1742 1.386 . S
C1743 C1747 1.393 . S
C1744 H1733 0.950 . S
C1744 C1742 1.391 . S
C1744 C1745 1.400 . S
C1745 C1739 1.491 . S
C1745 C1744 1.400 . S
C1745 C1746 1.398 . S
C1746 H1734 0.950 . S
C1746 C1745 1.398 . S
C1746 C1747 1.391 . S
C1747 H1735 0.950 . S
C1747 C1743 1.393 . S
C1747 C1746 1.391 . S
H1748 C1756 0.950 . S
H1749 C1761 0.950 . S
H1750 C1758 0.950 . S
H1751 C1760 0.950 . S
H1752 C1762 0.950 . S
H1753 C1764 0.950 . S
H1754 C1766 0.950 . S
H1755 C1767 0.950 . S
C1756 H1748 0.950 . S
C1756 C1757 1.386 . S
C1756 C1758 1.391 . S
C1757 C1756 1.386 . S
C1757 C1761 1.393 . S
C1758 H1750 0.950 . S
C1758 C1756 1.391 . S
C1758 C1759 1.400 . S
C1759 C1758 1.400 . S
C1759 C1760 1.398 . S
C1759 C1765 1.491 . S
C1760 H1751 0.950 . S
C1760 C1759 1.398 . S
C1760 C1761 1.391 . S
C1761 H1749 0.950 . S
C1761 C1757 1.393 . S
C1761 C1760 1.391 . S
C1762 H1752 0.950 . S
C1762 C1763 1.386 . S
C1762 C1764 1.391 . S
C1763 C1762 1.386 . S
C1763 C1767 1.393 . S
C1764 H1753 0.950 . S
C1764 C1762 1.391 . S
C1764 C1765 1.400 . S
C1765 C1759 1.491 . S
C1765 C1764 1.400 . S
C1765 C1766 1.398 . S
C1766 H1754 0.950 . S
C1766 C1765 1.398 . S
C1766 C1767 1.391 . S
C1767 H1755 0.950 . S
C1767 C1763 1.393 . S
C1767 C1766 1.391 . S
H1768 C1776 0.950 . S
H1769 C1781 0.950 . S
H1770 C1778 0.950 . S
H1771 C1780 0.950 . S
H1772 C1782 0.950 . S
H1773 C1784 0.950 . S
H1774 C1786 0.950 . S
H1775 C1787 0.950 . S
C1776 H1768 0.950 . S
C1776 C1777 1.386 . S
C1776 C1778 1.391 . S
C1777 C1776 1.386 . S
C1777 C1781 1.393 . S
C1778 H1770 0.950 . S
C1778 C1776 1.391 . S
C1778 C1779 1.400 . S
C1779 C1778 1.400 . S
C1779 C1780 1.398 . S
C1779 C1785 1.491 . S
C1780 H1771 0.950 . S
C1780 C1779 1.398 . S
C1780 C1781 1.391 . S
C1781 H1769 0.950 . S
C1781 C1777 1.393 . S
C1781 C1780 1.391 . S
C1782 H1772 0.950 . S
C1782 C1783 1.386 . S
C1782 C1784 1.391 . S
C1783 C1782 1.386 . S
C1783 C1787 1.393 . S
C1784 H1773 0.950 . S
C1784 C1782 1.391 . S
C1784 C1785 1.400 . S
C1785 C1779 1.491 . S
C1785 C1784 1.400 . S
C1785 C1786 1.398 . S
C1786 H1774 0.950 . S
C1786 C1785 1.398 . S
C1786 C1787 1.391 . S
C1787 H1775 0.950 . S
C1787 C1783 1.393 . S
C1787 C1786 1.391 . S
H1788 C1796 0.950 . S
H1789 C1801 0.950 . S
H1790 C1798 0.950 . S
H1791 C1800 0.950 . S
H1792 C1802 0.950 . S
H1793 C1804 0.950 . S
H1794 C1806 0.950 . S
H1795 C1807 0.950 . S
C1796 H1788 0.950 . S
C1796 C1797 1.386 . S
C1796 C1798 1.391 . S
C1797 C1796 1.386 . S
C1797 C1801 1.393 . S
C1798 H1790 0.950 . S
C1798 C1796 1.391 . S
C1798 C1799 1.400 . S
C1799 C1798 1.400 . S
C1799 C1800 1.398 . S
C1799 C1805 1.491 . S
C1800 H1791 0.950 . S
C1800 C1799 1.398 . S
C1800 C1801 1.391 . S
C1801 H1789 0.950 . S
C1801 C1797 1.393 . S
C1801 C1800 1.391 . S
C1802 H1792 0.950 . S
C1802 C1803 1.386 . S
C1802 C1804 1.391 . S
C1803 C1802 1.386 . S
C1803 C1807 1.393 . S
C1804 H1793 0.950 . S
C1804 C1802 1.391 . S
C1804 C1805 1.400 . S
C1805 C1799 1.491 . S
C1805 C1804 1.400 . S
C1805 C1806 1.398 . S
C1806 H1794 0.950 . S
C1806 C1805 1.398 . S
C1806 C1807 1.391 . S
C1807 H1795 0.950 . S
C1807 C1803 1.393 . S
C1807 C1806 1.391 . S
H1808 C1816 0.950 . S
H1809 C1821 0.950 . S
H1810 C1818 0.950 . S
H1811 C1820 0.950 . S
H1812 C1822 0.950 . S
H1813 C1824 0.950 . S
H1814 C1826 0.950 . S
H1815 C1827 0.950 . S
C1816 H1808 0.950 . S
C1816 C1817 1.386 . S
C1816 C1818 1.391 . S
C1817 C1816 1.386 . S
C1817 C1821 1.393 . S
C1818 H1810 0.950 . S
C1818 C1816 1.391 . S
C1818 C1819 1.400 . S
C1819 C1818 1.400 . S
C1819 C1820 1.398 . S
C1819 C1825 1.491 . S
C1820 H1811 0.950 . S
C1820 C1819 1.398 . S
C1820 C1821 1.391 . S
C1821 H1809 0.950 . S
C1821 C1817 1.393 . S
C1821 C1820 1.391 . S
C1822 H1812 0.950 . S
C1822 C1823 1.386 . S
C1822 C1824 1.391 . S
C1823 C1822 1.386 . S
C1823 C1827 1.393 . S
C1824 H1813 0.950 . S
C1824 C1822 1.391 . S
C1824 C1825 1.400 . S
C1825 C1819 1.491 . S
C1825 C1824 1.400 . S
C1825 C1826 1.398 . S
C1826 H1814 0.950 . S
C1826 C1825 1.398 . S
C1826 C1827 1.391 . S
C1827 H1815 0.950 . S
C1827 C1823 1.393 . S
C1827 C1826 1.391 . S
H1828 C1836 0.950 . S
H1829 C1841 0.950 . S
H1830 C1838 0.950 . S
H1831 C1840 0.950 . S
H1832 C1842 0.950 . S
H1833 C1844 0.950 . S
H1834 C1846 0.950 . S
H1835 C1847 0.950 . S
C1836 H1828 0.950 . S
C1836 C1837 1.386 . S
C1836 C1838 1.391 . S
C1837 C1836 1.386 . S
C1837 C1841 1.393 . S
C1838 H1830 0.950 . S
C1838 C1836 1.391 . S
C1838 C1839 1.400 . S
C1839 C1838 1.400 . S
C1839 C1840 1.398 . S
C1839 C1845 1.491 . S
C1840 H1831 0.950 . S
C1840 C1839 1.398 . S
C1840 C1841 1.391 . S
C1841 H1829 0.950 . S
C1841 C1837 1.393 . S
C1841 C1840 1.391 . S
C1842 H1832 0.950 . S
C1842 C1843 1.386 . S
C1842 C1844 1.391 . S
C1843 C1842 1.386 . S
C1843 C1847 1.393 . S
C1844 H1833 0.950 . S
C1844 C1842 1.391 . S
C1844 C1845 1.400 . S
C1845 C1839 1.491 . S
C1845 C1844 1.400 . S
C1845 C1846 1.398 . S
C1846 H1834 0.950 . S
C1846 C1845 1.398 . S
C1846 C1847 1.391 . S
C1847 H1835 0.950 . S
C1847 C1843 1.393 . S
C1847 C1846 1.391 . S
H1848 C1856 0.950 . S
H1849 C1861 0.950 . S
H1850 C1858 0.950 . S
H1851 C1860 0.950 . S
H1852 C1862 0.950 . S
H1853 C1864 0.950 . S
H1854 C1866 0.950 . S
H1855 C1867 0.950 . S
C1856 H1848 0.950 . S
C1856 C1857 1.386 . S
C1856 C1858 1.391 . S
C1857 C1856 1.386 . S
C1857 C1861 1.393 . S
C1858 H1850 0.950 . S
C1858 C1856 1.391 . S
C1858 C1859 1.400 . S
C1859 C1858 1.400 . S
C1859 C1860 1.398 . S
C1859 C1865 1.491 . S
C1860 H1851 0.950 . S
C1860 C1859 1.398 . S
C1860 C1861 1.391 . S
C1861 H1849 0.950 . S
C1861 C1857 1.393 . S
C1861 C1860 1.391 . S
C1862 H1852 0.950 . S
C1862 C1863 1.386 . S
C1862 C1864 1.391 . S
C1863 C1862 1.386 . S
C1863 C1867 1.393 . S
C1864 H1853 0.950 . S
C1864 C1862 1.391 . S
C1864 C1865 1.400 . S
C1865 C1859 1.491 . S
C1865 C1864 1.400 . S
C1865 C1866 1.398 . S
C1866 H1854 0.950 . S
C1866 C1865 1.398 . S
C1866 C1867 1.391 . S
C1867 H1855 0.950 . S
C1867 C1863 1.393 . S
C1867 C1866 1.391 . S
H1868 C1876 0.950 . S
H1869 C1881 0.950 . S
H1870 C1878 0.950 . S
H1871 C1880 0.950 . S
H1872 C1882 0.950 . S
H1873 C1884 0.950 . S
H1874 C1886 0.961 . S
H1875 C1887 0.950 . S
C1876 H1868 0.950 . S
C1876 C1877 1.386 . S
C1876 C1878 1.391 . S
C1877 C1876 1.386 . S
C1877 C1881 1.393 . S
C1878 H1870 0.950 . S
C1878 C1876 1.391 . S
C1878 C1879 1.400 . S
C1879 C1878 1.400 . S
C1879 C1880 1.398 . S
C1879 C1885 1.491 . S
C1880 H1871 0.950 . S
C1880 C1879 1.398 . S
C1880 C1881 1.391 . S
C1881 H1869 0.950 . S
C1881 C1877 1.393 . S
C1881 C1880 1.391 . S
C1882 H1872 0.950 . S
C1882 C1883 1.386 . S
C1882 C1884 1.391 . S
C1883 C1882 1.386 . S
C1883 C1887 1.393 . S
C1884 H1873 0.950 . S
C1884 C1882 1.391 . S
C1884 C1885 1.400 . S
C1885 C1879 1.491 . S
C1885 C1884 1.400 . S
C1885 C1886 1.398 . S
C1886 H1874 0.961 . S
C1886 C1885 1.398 . S
C1886 C1887 1.391 . S
C1887 H1875 0.950 . S
C1887 C1883 1.393 . S
C1887 C1886 1.391 . S
H1888 C1896 0.950 . S
H1889 C1901 0.950 . S
H1890 C1898 0.950 . S
H1891 C1900 0.950 . S
H1892 C1902 0.950 . S
H1893 C1904 0.950 . S
H1894 C1906 0.950 . S
H1895 C1907 0.950 . S
C1896 H1888 0.950 . S
C1896 C1897 1.386 . S
C1896 C1898 1.391 . S
C1897 C1896 1.386 . S
C1897 C1901 1.393 . S
C1898 H1890 0.950 . S
C1898 C1896 1.391 . S
C1898 C1899 1.400 . S
C1899 C1898 1.400 . S
C1899 C1900 1.398 . S
C1899 C1905 1.491 . S
C1900 H1891 0.950 . S
C1900 C1899 1.398 . S
C1900 C1901 1.391 . S
C1901 H1889 0.950 . S
C1901 C1897 1.393 . S
C1901 C1900 1.391 . S
C1902 H1892 0.950 . S
C1902 C1903 1.386 . S
C1902 C1904 1.391 . S
C1903 C1902 1.386 . S
C1903 C1907 1.393 . S
C1904 H1893 0.950 . S
C1904 C1902 1.391 . S
C1904 C1905 1.400 . S
C1905 C1899 1.491 . S
C1905 C1904 1.400 . S
C1905 C1906 1.398 . S
C1906 H1894 0.950 . S
C1906 C1905 1.398 . S
C1906 C1907 1.391 . S
C1907 H1895 0.950 . S
C1907 C1903 1.393 . S
C1907 C1906 1.391 . S
C477 C4 1.911 . S
C483 C153 1.905 . S
C497 C127 1.905 . S
C503 C17 1.911 . S
C517 C134 1.911 . S
C523 C30 1.906 . S
C537 C49 1.907 . S
C543 C95 1.909 . S
C557 C56 1.906 . S
C563 C108 1.910 . S
C577 C69 1.906 . S
C583 C88 1.911 . S
C597 C160 1.905 . S
C603 C303 1.911 . S
C617 C277 1.911 . S
C623 C173 1.906 . S
C637 C186 1.910 . S
C643 C290 1.907 . S
C657 C205 1.908 . S
C663 C257 1.908 . S
C677 C218 1.910 . S
C683 C264 1.907 . S
C697 C225 1.909 . S
C703 C244 1.908 . S
C717 C316 1.905 . S
C723 C465 1.912 . S
C737 C329 1.906 . S
C743 C433 1.910 . S
C757 C452 1.911 . S
C763 C342 1.906 . S
C777 C361 1.910 . S
C783 C413 1.907 . S
C797 C420 1.908 . S
C803 C368 1.908 . S
C817 C400 1.911 . S
C823 C381 1.905 . S
C837 C3 1.261 . S
C843 C200 1.263 . S
C857 C16 1.276 . S
C863 C213 1.271 . S
C877 C29 1.262 . S
C883 C224 1.271 . S
C897 C44 1.266 . S
C903 C315 1.275 . S
C917 C328 1.260 . S
C923 C55 1.264 . S
C937 C341 1.276 . S
C943 C68 1.274 . S
C957 C83 1.271 . S
C963 C432 1.277 . S
C977 C447 1.261 . S
C983 C94 1.263 . S
C997 C107 1.261 . S
C1003 C460 1.268 . S
C1017 C122 1.264 . S
C1023 C239 1.273 . S
C1037 C133 1.275 . S
C1043 C252 1.268 . S
C1057 C148 1.267 . S
C1063 C263 1.261 . S
C1077 C356 1.263 . S
C1083 C159 1.271 . S
C1097 C172 1.261 . S
C1103 C367 1.269 1_545 S
C1117 C185 1.261 1_455 S
C1123 C380 1.269 . S
C1137 C395 1.271 . S
C1143 C276 1.262 . S
C1157 C408 1.275 1_545 S
C1163 C289 1.274 . S
C1177 C302 1.264 1_455 S
C1183 C419 1.273 . S
C1197 C10 1.386 . S
C1203 C62 1.375 . S
C1217 C75 1.389 . S
C1223 C23 1.381 . S
C1237 C43 1.382 . S
C1243 C36 1.376 . S
C1257 C82 1.377 . S
C1263 C140 1.389 . S
C1277 C147 1.375 . S
C1283 C101 1.386 . S
C1297 C114 1.376 . S
C1303 C121 1.383 . S
C1317 C212 1.385 . S
C1323 C166 1.387 . S
C1337 C179 1.387 . S
C1343 C231 1.375 . S
C1357 C192 1.383 . S
C1363 C199 1.376 . S
C1377 C296 1.385 . S
C1383 C238 1.387 . S
C1397 C309 1.375 . S
C1403 C251 1.387 . S
C1417 C283 1.379 . S
C1423 C270 1.390 . S
C1437 C322 1.389 . S
C1443 C374 1.379 . S
C1457 C335 1.375 . S
C1463 C387 1.384 . S
C1477 C348 1.383 . S
C1483 C355 1.388 . S
C1497 C446 1.387 . S
C1503 C394 1.375 . S
C1517 C459 1.382 . S
C1523 C407 1.388 . S
C1537 C439 1.380 . S
C1543 C426 1.378 . S
C1557 C120 1.509 . S
C1563 C5 1.508 . S
C1577 C135 1.512 . S
C1583 C18 1.505 . S
C1597 C31 1.512 . S
C1603 C146 1.505 . S
C1617 C42 1.506 . S
C1623 C81 1.512 . S
C1637 C96 1.512 . S
C1643 C57 1.505 . S
C1657 C70 1.509 . S
C1663 C109 1.508 . S
C1677 C278 1.512 . S
C1683 C161 1.506 . S
C1697 C291 1.505 . S
C1703 C174 1.512 . S
C1717 C187 1.506 . S
C1723 C304 1.511 . S
C1737 C237 1.505 . S
C1743 C198 1.512 . S
C1757 C250 1.508 . S
C1763 C211 1.509 . S
C1777 C265 1.511 . S
C1783 C226 1.506 . S
C1797 C317 1.506 . S
C1803 C434 1.511 . S
C1817 C445 1.505 . S
C1823 C330 1.512 . S
C1837 C343 1.510 . S
C1843 C458 1.507 . S
C1857 C354 1.507 . S
C1863 C393 1.510 . S
C1877 C369 1.506 . S
C1883 C406 1.512 . S
C1897 C421 1.508 . S
C1903 C382 1.509 . S
