# Generated by pormake.
# Topology qtz-e, (6)-cn, num edge types: 1
# Building blocks:
#     Node 0, Type 0, BuildingBlock: KUMJIN_clean_sbu_1, # of connection points: 6
#     Node 1, Type 0, BuildingBlock: KUMJIN_clean_sbu_1, # of connection points: 6
#     Node 2, Type 0, BuildingBlock: KUMJIN_clean_sbu_1, # of connection points: 6
#     Node 3, Type 0, BuildingBlock: KUMJIN_clean_sbu_1, # of connection points: 6
#     Node 4, Type 0, BuildingBlock: KUMJIN_clean_sbu_1, # of connection points: 6
#     Node 5, Type 0, BuildingBlock: KUMJIN_clean_sbu_1, # of connection points: 6
#     Edge 6, Type (0, 0), BuildingBlock: AJUNOK_clean_linker_0, # of connection points: 2
#     Edge 7, Type (0, 0), BuildingBlock: AJUNOK_clean_linker_0, # of connection points: 2
#     Edge 8, Type (0, 0), BuildingBlock: AJUNOK_clean_linker_0, # of connection points: 2
#     Edge 9, Type (0, 0), BuildingBlock: AJUNOK_clean_linker_0, # of connection points: 2
#     Edge 10, Type (0, 0), BuildingBlock: AJUNOK_clean_linker_0, # of connection points: 2
#     Edge 11, Type (0, 0), BuildingBlock: AJUNOK_clean_linker_0, # of connection points: 2
#     Edge 12, Type (0, 0), BuildingBlock: AJUNOK_clean_linker_0, # of connection points: 2
#     Edge 13, Type (0, 0), BuildingBlock: AJUNOK_clean_linker_0, # of connection points: 2
#     Edge 14, Type (0, 0), BuildingBlock: AJUNOK_clean_linker_0, # of connection points: 2
#     Edge 15, Type (0, 0), BuildingBlock: AJUNOK_clean_linker_0, # of connection points: 2
#     Edge 16, Type (0, 0), BuildingBlock: AJUNOK_clean_linker_0, # of connection points: 2
#     Edge 17, Type (0, 0), BuildingBlock: AJUNOK_clean_linker_0, # of connection points: 2
#     Edge 18, Type (0, 0), BuildingBlock: AJUNOK_clean_linker_0, # of connection points: 2
#     Edge 19, Type (0, 0), BuildingBlock: AJUNOK_clean_linker_0, # of connection points: 2
#     Edge 20, Type (0, 0), BuildingBlock: AJUNOK_clean_linker_0, # of connection points: 2
#     Edge 21, Type (0, 0), BuildingBlock: AJUNOK_clean_linker_0, # of connection points: 2
#     Edge 22, Type (0, 0), BuildingBlock: AJUNOK_clean_linker_0, # of connection points: 2
#     Edge 23, Type (0, 0), BuildingBlock: AJUNOK_clean_linker_0, # of connection points: 2
# Relax obj value: 0.153
# Max RMSD: 0.218
# Mean RMSD: 0.218
data_MOF--net-qtz-e--node1-KUMJIN_clean_sbu_1--edge1-AJUNOK_clean_linker_0
_symmetry_space_group_name_H-M    P1
_symmetry_Int_Tables_number       1
_symmetry_cell_setting            triclinic
loop_
_symmetry_equiv_pos_as_xyz
'x, y, z'
_cell_length_a     21.147762
_cell_length_b     21.210741
_cell_length_c     39.775868
_cell_angle_alpha  90.072884
_cell_angle_beta   89.780873
_cell_angle_gamma 119.95886
loop_
_atom_site_label
_atom_site_type_symbol
_atom_site_fract_x
_atom_site_fract_y
_atom_site_fract_z
_atom_type_partial_charge
Eu0 Eu 0.18119 0.34594 0.99171 0.0
C1 C 0.44634 0.7084 0.03915 0.0
N2 N 0.42616 0.64085 0.05112 0.0
C3 C 0.54813 0.68144 0.06965 0.0
C4 C 0.51927 0.76534 0.04177 0.0
C5 C 0.47517 0.62668 0.0666 0.0
C6 C 0.57027 0.75106 0.05722 0.0
C7 C 0.41361 0.79057 0.01173 0.0
C8 C 0.3939 0.72113 0.02449 0.0
C9 C 0.48644 0.847 0.01392 0.0
C10 C 0.53901 0.8345 0.02897 0.0
Eu11 Eu 0.30046 0.55827 0.04998 0.0
N12 N 0.32354 0.666 0.02305 0.0
C13 C 0.35928 0.80151 -0.00247 0.0
C14 C 0.26989 0.67664 0.01012 0.0
C15 C 0.28711 0.74432 0.99678 0.0
H16 H 0.45762 0.57325 0.07689 0.0
H17 H 0.24464 0.75256 0.98626 0.0
H18 H 0.02054 0.31864 0.9622 0.0
H19 H 0.2455 0.16632 0.06259 0.0
H20 H 0.21389 0.63301 0.01002 0.0
H21 H 0.37232 0.85409 0.98744 0.0
H22 H 0.27247 0.26887 0.02413 0.0
H23 H 0.58713 0.67007 0.08172 0.0
H24 H 0.50257 0.90075 0.0043 0.0
H25 H 0.59485 0.8788 0.03067 0.0
H26 H 0.88922 0.23274 0.97204 0.0
H27 H 0.62676 0.79339 0.0597 0.0
H28 H 0.11866 0.08358 0.08095 0.0
N29 N 0.05551 0.26073 0.99338 0.0
C30 C 0.03582 0.20092 0.01266 0.0
C31 C 0.92992 0.22348 0.98382 0.0
C32 C 0.96193 0.15272 0.02038 0.0
C33 C 1.00418 0.27186 0.97822 0.0
C34 C 0.90868 0.16432 0.00546 0.0
N35 N 0.16105 0.23876 0.01882 0.0
C36 C 0.21653 0.22945 0.0303 0.0
C37 C 0.07241 0.13269 0.04879 0.0
C38 C 0.09005 0.18928 0.02571 0.0
C39 C 0.12936 0.12511 0.06244 0.0
C40 C 0.20142 0.17228 0.05236 0.0
H41 H 0.85122 0.12821 0.0106 0.0
H42 H 0.88773 0.06086 0.05117 0.0
H43 H 0.98499 0.04882 0.07855 0.0
O44 O 0.24223 0.32543 0.95281 0.0
O45 O 0.16669 0.32278 0.04789 0.0
O46 O 0.22787 0.44055 0.06332 0.0
O47 O 0.14493 0.32745 0.93907 0.0
O48 O 0.30622 0.40038 -0.002 0.0
O49 O 0.33617 0.4734 0.0455 0.0
O50 O 0.25448 0.60206 0.08583 0.0
O51 O 0.31656 0.57613 0.99343 0.0
O52 O 0.23879 0.46222 -0.00137 0.0
O53 O 0.3421 0.58285 0.101 0.0
O54 O 0.1813 0.51467 0.03738 0.0
O55 O 0.12111 0.41284 0.00025 0.0
C56 C 0.18553 0.37207 0.07132 0.0
C57 C 0.17869 0.2552 0.90534 0.0
C58 C 0.20746 0.20408 0.85572 0.0
C59 C 0.14562 0.13637 0.86299 0.0
C60 C 0.11793 0.18669 0.91197 0.0
C61 C 0.1014 0.12791 0.89079 0.0
C62 C 0.22321 0.26388 0.87695 0.0
C63 C 0.35496 0.45324 0.01751 0.0
C64 C 0.1975 0.31692 0.92857 0.0
C65 C 0.94397 0.09666 0.04374 0.0
C66 C 0.9993 0.08841 0.05873 0.0
C67 C 0.27563 0.51523 0.97809 0.0
C68 C 0.25692 0.57128 0.1421 0.0
C69 C 0.21021 0.59224 0.19368 0.0
C70 C 0.19302 0.5229 0.20531 0.0
C71 C 0.24259 0.50315 0.15412 0.0
C72 C 0.23937 0.61482 0.16163 0.0
C73 C 0.20905 0.47836 0.18542 0.0
C74 C 0.12456 0.46718 0.01934 0.0
C75 C 0.29462 0.60139 0.11043 0.0
H76 H 0.13113 0.08981 0.84695 0.0
H77 H 0.08341 0.17858 0.93362 0.0
H78 H 0.05414 0.07532 0.89602 0.0
H79 H 0.27064 0.3165 0.8718 0.0
H80 H 0.1715 0.50524 0.23045 0.0
H81 H 0.25839 0.47 0.13965 0.0
H82 H 0.25313 0.66866 0.15285 0.0
H83 H 0.1981 0.42595 0.1948 0.0
Eu84 Eu 0.8424 0.19188 0.32681 0.0
C85 C 0.67963 0.39002 0.34194 0.0
N86 N 0.74027 0.39678 0.35706 0.0
C87 C 0.80482 0.525 0.34569 0.0
C88 C 0.68098 0.45016 0.32613 0.0
C89 C 0.80087 0.46364 0.36075 0.0
C90 C 0.74499 0.51801 0.32777 0.0
C91 C 0.55269 0.31379 0.32686 0.0
C92 C 0.61656 0.32246 0.34225 0.0
C93 C 0.55438 0.37283 0.30998 0.0
C94 C 0.61837 0.44086 0.30963 0.0
Eu95 Eu 0.73116 0.28988 0.38075 0.0
N96 N 0.61669 0.26629 0.35883 0.0
C97 C 0.48845 0.24658 0.32964 0.0
C98 C 0.55275 0.2025 0.36369 0.0
C99 C 0.48821 0.19116 0.34862 0.0
H100 H 0.84604 0.46903 0.375 0.0
H101 H 0.43811 0.13985 0.35194 0.0
H102 H 0.71122 0.03146 0.29451 0.0
H103 H 0.08291 0.24465 0.39804 0.0
H104 H 0.55074 0.16011 0.37943 0.0
H105 H 0.43828 0.23781 0.31823 0.0
H106 H 0.0081 0.27508 0.36076 0.0
H107 H 0.85385 0.57755 0.34802 0.0
H108 H 0.50601 0.36684 0.29771 0.0
H109 H 0.61851 0.48618 0.29701 0.0
H110 H 0.65932 0.90053 0.30601 0.0
H111 H 0.74817 0.56556 0.316 0.0
H112 H 0.03501 0.11763 0.41689 0.0
N113 N 0.79545 0.06472 0.33099 0.0
C114 C 0.83049 0.04311 0.35255 0.0
C115 C 0.70712 0.94012 0.31954 0.0
C116 C 0.8032 0.96888 0.35972 0.0
C117 C 0.73634 0.01451 0.31335 0.0
C118 C 0.73995 0.91721 0.34327 0.0
N119 N 0.92123 0.1659 0.35781 0.0
C120 C 0.98828 0.21921 0.36811 0.0
C121 C 0.93526 0.07557 0.38805 0.0
C122 C 0.89576 0.0954 0.36627 0.0
C123 C 1.00304 0.13025 0.39987 0.0
C124 C 0.0303 0.20217 0.3893 0.0
H125 H 0.71716 0.85959 0.34806 0.0
H126 H 0.81962 0.8921 0.38901 0.0
H127 H 0.93381 0.98564 0.41466 0.0
O128 O 0.93689 0.25441 0.29329 0.0
O129 O 0.84699 0.1958 0.38414 0.0
O130 O 0.73663 0.18861 0.39865 0.0
O131 O 0.83681 0.16851 0.27304 0.0
O132 O 0.9113 0.31403 0.33932 0.0
O133 O 0.85277 0.32633 0.38609 0.0
O134 O 0.66197 0.28403 0.4229 0.0
O135 O 0.76576 0.33637 0.32878 0.0
O136 O 0.78068 0.24527 0.33109 0.0
O137 O 0.7779 0.36039 0.42398 0.0
O138 O 0.66493 0.16774 0.36763 0.0
O139 O 0.71494 0.13463 0.32205 0.0
C140 C 0.79442 0.18221 0.40614 0.0
C141 C 0.94542 0.19771 0.24281 0.0
C142 C 0.02697 0.22621 0.19354 0.0
C143 C 0.01153 0.15334 0.19408 0.0
C144 C 0.93322 0.12642 0.2428 0.0
C145 C 0.9661 0.1046 0.2186 0.0
C146 C 0.99343 0.24801 0.2185 0.0
C147 C 0.90522 0.35457 0.36327 0.0
C148 C 0.90395 0.21798 0.26644 0.0
C149 C 0.84045 0.94876 0.38262 0.0
C150 C 0.906 0.00208 0.397 0.0
C151 C 0.78357 0.2959 0.31253 0.0
C152 C 0.72073 0.30571 0.47509 0.0
C153 C 0.66206 0.26077 0.52914 0.0
C154 C 0.72454 0.25975 0.54048 0.0
C155 C 0.78276 0.30409 0.4866 0.0
C156 C 0.66042 0.28339 0.49634 0.0
C157 C 0.78439 0.28108 0.51922 0.0
C158 C 0.65873 0.12715 0.34088 0.0
C159 C 0.71721 0.32961 0.44099 0.0
H160 H 0.03352 0.13301 0.17505 0.0
H161 H 0.89697 0.08705 0.26113 0.0
H162 H 0.95525 0.04902 0.21844 0.0
H163 H 1.00401 0.30346 0.21915 0.0
H164 H 0.72762 0.24376 0.56601 0.0
H165 H 0.82988 0.32043 0.4705 0.0
H166 H 0.61223 0.28363 0.48728 0.0
H167 H 0.8323 0.2803 0.52812 0.0
Eu168 Eu 0.66022 0.83558 0.65338 0.0
C169 C 0.31413 0.71193 0.72699 0.0
N170 N 0.38281 0.76534 0.73468 0.0
C171 C 0.33576 0.83812 0.75806 0.0
C172 C 0.25333 0.72036 0.7341 0.0
C173 C 0.39443 0.82782 0.75013 0.0
C174 C 0.26488 0.78418 0.75002 0.0
C175 C 0.2338 0.59251 0.70328 0.0
C176 C 0.30429 0.64817 0.71225 0.0
C177 C 0.17342 0.60157 0.70958 0.0
C178 C 0.18311 0.66508 0.72513 0.0
Eu179 Eu 0.47672 0.73876 0.72348 0.0
N180 N 0.36357 0.64054 0.70659 0.0
C181 C 0.22603 0.52913 0.68842 0.0
C182 C 0.35613 0.57796 0.6932 0.0
C183 C 0.28746 0.52174 0.68348 0.0
H184 H 0.44891 0.86917 0.75722 0.0
H185 H 0.28189 0.47261 0.67236 0.0
H186 H 0.70145 0.71709 0.61931 0.0
H187 H 0.81721 0.06765 0.73581 0.0
H188 H 0.40315 0.57166 0.68974 0.0
H189 H 0.17283 0.48532 0.681 0.0
H190 H 0.71397 0.98771 0.69885 0.0
H191 H 0.34526 0.88758 0.77041 0.0
H192 H 0.11887 0.55945 0.7028 0.0
H193 H 0.13588 0.67092 0.73013 0.0
H194 H 0.80108 0.68808 0.62209 0.0
H195 H 0.21955 0.79249 0.75602 0.0
H196 H 0.92007 0.04455 0.74314 0.0
N197 N 0.75604 0.81039 0.65049 0.0
C198 C 0.81636 0.85436 0.66873 0.0
C199 C 0.806 0.73491 0.63534 0.0
C200 C 0.87277 0.83784 0.6723 0.0
C201 C 0.74996 0.7516 0.63369 0.0
C202 C 0.86746 0.77787 0.65497 0.0
N203 N 0.76118 0.92426 0.68364 0.0
C204 C 0.76022 0.97943 0.70076 0.0
C205 C 0.87703 0.9546 0.70798 0.0
C206 C 0.81905 0.91295 0.6859 0.0
C207 C 0.87641 0.01118 0.72592 0.0
C208 C 0.81825 0.02426 0.72192 0.0
H209 H 0.90983 0.76357 0.65703 0.0
H210 H 0.9732 0.86591 0.69834 0.0
H211 H 0.97329 0.96314 0.73129 0.0
O212 O 0.68694 0.92127 0.61608 0.0
O213 O 0.68501 0.80613 0.70461 0.0
O214 O 0.5972 0.82137 0.72753 0.0
O215 O 0.66554 0.81527 0.59972 0.0
O216 O 0.60228 0.9026 0.66488 0.0
O217 O 0.51426 0.85521 0.709 0.0
O218 O 0.44821 0.65812 0.76345 0.0
O219 O 0.43085 0.7246 0.67008 0.0
O220 O 0.54609 0.77869 0.66614 0.0
O221 O 0.49252 0.77191 0.77574 0.0
O222 O 0.53111 0.6731 0.70713 0.0
O223 O 0.59465 0.70947 0.65509 0.0
C224 C 0.64738 0.80287 0.73132 0.0
C225 C 0.7428 0.91719 0.56484 0.0
C226 C 0.79547 1.00042 0.51654 0.0
C227 C 0.85045 0.98144 0.51465 0.0
C228 C 0.79963 0.90135 0.56278 0.0
C229 C 0.8528 0.93309 0.53774 0.0
C230 C 0.7411 0.96705 0.54173 0.0
C231 C 0.55151 0.90296 0.6851 0.0
C232 C 0.68448 0.88152 0.59056 0.0
C233 C 0.93048 0.87914 0.69435 0.0
C234 C 0.93155 0.93602 0.71266 0.0
C235 C 0.48569 0.75256 0.6497 0.0
C236 C 0.39809 0.68679 0.81015 0.0
C237 C 0.30473 0.59985 0.84765 0.0
C238 C 0.28086 0.65018 0.85377 0.0
C239 C 0.37768 0.73843 0.81903 0.0
C240 C 0.36075 0.61719 0.82426 0.0
C241 C 0.31724 0.71903 0.8394 0.0
C242 C 0.5549 0.65986 0.67847 0.0
C243 C 0.45907 0.70544 0.78695 0.0
H244 H 0.89136 0.00316 0.49494 0.0
H245 H 0.80259 0.86388 0.58029 0.0
H246 H 0.89583 0.91965 0.53602 0.0
H247 H 0.69771 0.98002 0.54351 0.0
H248 H 0.23891 0.63946 0.87224 0.0
H249 H 0.40905 0.79431 0.81094 0.0
H250 H 0.3791 0.57862 0.81919 0.0
H251 H 0.30131 0.75884 0.84571 0.0
Eu252 Eu 0.83447 0.66109 0.98904 0.0
C253 C 0.59479 0.31118 0.04809 0.0
N254 N 0.61181 0.37757 0.06036 0.0
C255 C 0.4904 0.32918 0.08211 0.0
C256 C 0.5232 0.25157 0.0511 0.0
C257 C 0.56182 0.38683 0.07826 0.0
C258 C 0.47071 0.2615 0.06808 0.0
C259 C 0.6325 0.23394 0.01963 0.0
C260 C 0.64929 0.30229 0.03299 0.0
C261 C 0.56079 0.17514 0.02174 0.0
C262 C 0.50639 0.18385 0.03754 0.0
Eu263 Eu 0.73324 0.47139 0.05287 0.0
N264 N 0.71842 0.36027 0.03123 0.0
C265 C 0.68825 0.22654 0.00452 0.0
C266 C 0.77306 0.35275 0.01683 0.0
C267 C 0.75881 0.28613 0.00323 0.0
H268 H 0.57603 0.43954 0.08841 0.0
H269 H 0.80239 0.28088 0.99169 0.0
H270 H 0.99877 0.69118 0.96161 0.0
H271 H 0.76243 0.84511 0.05171 0.0
H272 H 0.82786 0.39743 0.01537 0.0
H273 H 0.67746 0.17504 0.9939 0.0
H274 H 0.73897 0.73783 0.0174 0.0
H275 H 0.45039 0.33722 0.09555 0.0
H276 H 0.54699 0.12244 0.01149 0.0
H277 H 0.45156 0.13767 0.03937 0.0
H278 H 0.12862 0.78158 0.97074 0.0
H279 H 0.41516 0.21707 0.07089 0.0
H280 H 0.88787 0.93208 0.06989 0.0
N281 N 0.95972 0.74664 0.99246 0.0
C282 C 0.97685 0.80721 0.01065 0.0
C283 C 0.08649 0.7891 0.98236 0.0
C284 C 0.05022 0.85952 0.01696 0.0
C285 C 0.0129 0.73775 0.97746 0.0
C286 C 0.10529 0.8498 0.00258 0.0
N287 N 0.85066 0.76683 0.01571 0.0
C288 C 0.79418 0.77761 0.02423 0.0
C289 C 0.93656 0.87794 0.04289 0.0
C290 C 0.92084 0.81737 0.0228 0.0
C291 C 0.87851 0.88697 0.05393 0.0
C292 C 0.80727 0.83765 0.04383 0.0
H293 H 0.16235 0.88894 0.00679 0.0
H294 H 0.12206 0.95814 0.04424 0.0
H295 H 0.02232 0.97017 0.06895 0.0
O296 O 0.76444 0.6607 0.94834 0.0
O297 O 0.82959 0.67824 0.04579 0.0
O298 O 0.83706 0.57956 0.06255 0.0
O299 O 0.8782 0.7025 0.9386 0.0
O300 O 0.71094 0.60824 0.99316 0.0
O301 O 0.68637 0.54634 0.04356 0.0
O302 O 0.74906 0.41935 0.0966 0.0
O303 O 0.69191 0.43791 -0.00043 0.0
O304 O 0.78383 0.54509 0.99716 0.0
O305 O 0.70694 0.49584 0.10215 0.0
O306 O 0.85215 0.50909 0.03869 0.0
O307 O 0.89708 0.59592 0.99403 0.0
C308 C 0.8394 0.64109 0.06979 0.0
C309 C 0.81895 0.75451 0.90782 0.0
C310 C 0.77902 0.80147 0.86061 0.0
C311 C 0.82176 0.87201 0.87379 0.0
C312 C 0.86056 0.82559 0.9202 0.0
C313 C 0.86208 0.8838 0.9032 0.0
C314 C 0.7781 0.74252 0.87791 0.0
C315 C 0.66445 0.56086 0.01506 0.0
C316 C 0.81686 0.69302 0.92656 0.0
C317 C 0.06613 0.91872 0.03798 0.0
C318 C 0.00931 0.92663 0.05157 0.0
C319 C 0.73512 0.49075 0.98018 0.0
C320 C 0.72073 0.44208 0.15282 0.0
C321 C 0.7588 0.40657 0.20268 0.0
C322 C 0.71768 0.42811 0.22252 0.0
C323 C 0.67972 0.46394 0.17252 0.0
C324 C 0.75975 0.41281 0.16798 0.0
C325 C 0.67809 0.45661 0.20738 0.0
C326 C 0.90029 0.54738 0.01461 0.0
C327 C 0.72565 0.45242 0.11665 0.0
H328 H 0.82472 0.91854 0.86106 0.0
H329 H 0.89184 0.83608 0.94311 0.0
H330 H 0.89474 0.93851 0.91288 0.0
H331 H 0.74508 0.68758 0.8685 0.0
H332 H 0.71564 0.42196 0.24962 0.0
H333 H 0.64912 0.48664 0.16103 0.0
H334 H 0.79151 0.39569 0.15301 0.0
H335 H 0.64626 0.47298 0.22265 0.0
Eu336 Eu 0.17655 0.83438 0.32307 0.0
C337 C 0.26104 0.5757 0.36735 0.0
N338 N 0.21837 0.59832 0.38296 0.0
C339 C 0.13341 0.4756 0.39913 0.0
C340 C 0.23948 0.50119 0.36587 0.0
C341 C 0.15721 0.5501 0.4 0.0
C342 C 0.17416 0.4509 0.38158 0.0
C343 C 0.37128 0.60548 0.33589 0.0
C344 C 0.32693 0.62732 0.35304 0.0
C345 C 0.34966 0.53129 0.3342 0.0
C346 C 0.28404 0.47932 0.34919 0.0
Eu347 Eu 0.26453 0.72518 0.38466 0.0
N348 N 0.34504 0.69865 0.35397 0.0
C349 C 0.43533 0.65875 0.32034 0.0
C350 C 0.40729 0.75062 0.33872 0.0
C351 C 0.45326 0.73158 0.32172 0.0
H352 H 0.1284 0.56964 0.41525 0.0
H353 H 0.50218 0.77307 0.30942 0.0
H354 H 0.29408 0.99534 0.29088 0.0
H355 H 0.94772 0.75651 0.41013 0.0
H356 H 0.42067 0.80643 0.33872 0.0
H357 H 0.47077 0.64413 0.30686 0.0
H358 H 0.02195 0.73412 0.36967 0.0
H359 H 0.08428 0.4374 0.41242 0.0
H360 H 0.3831 0.51349 0.32118 0.0
H361 H 0.26823 0.4223 0.34774 0.0
H362 H 0.32582 0.12405 0.29705 0.0
H363 H 0.1557 0.39318 0.38103 0.0
H364 H 0.975 0.88225 0.42154 0.0
N365 N 0.20376 0.95581 0.32427 0.0
C366 C 0.1629 0.97175 0.34518 0.0
C367 C 0.27989 0.08179 0.31072 0.0
C368 C 0.18042 0.04445 0.35038 0.0
C369 C 0.26158 0.00905 0.30709 0.0
C370 C 0.23938 0.09968 0.33262 0.0
N371 N 0.09132 0.84603 0.35756 0.0
C372 C 0.03467 0.78924 0.3739 0.0
C373 C 0.06457 0.93062 0.38592 0.0
C374 C 0.10529 0.91534 0.3625 0.0
C375 C 0.0075 0.87273 0.40329 0.0
C376 C 0.99203 0.80171 0.39696 0.0
H377 H 0.25455 0.15622 0.33589 0.0
H378 H 0.1535 0.1154 0.37863 0.0
H379 H 0.05438 0.01599 0.41065 0.0
O380 O 0.09101 0.7744 0.28631 0.0
O381 O 0.22127 0.88602 0.37376 0.0
O382 O 0.19937 0.78147 0.39991 0.0
O383 O 0.19255 0.86525 0.26935 0.0
O384 O 0.10161 0.71064 0.33514 0.0
O385 O 0.14564 0.69682 0.3859 0.0
O386 O 0.35628 0.77035 0.41979 0.0
O387 O 0.25339 0.68842 0.33039 0.0
O388 O 0.22622 0.77126 0.33262 0.0
O389 O 0.24883 0.68538 0.43572 0.0
O390 O 0.3407 0.84428 0.36942 0.0
O391 O 0.30453 0.88628 0.32167 0.0
C392 C 0.22342 0.85218 0.40106 0.0
C393 C 0.08349 0.83361 0.23783 0.0
C394 C 0.99931 0.80224 0.18985 0.0
C395 C 0.98679 0.85888 0.19938 0.0
C396 C 0.07 0.88994 0.24642 0.0
C397 C 0.02225 0.90258 0.2272 0.0
C398 C 0.04843 0.79007 0.2092 0.0
C399 C 0.10032 0.66895 0.36051 0.0
C400 C 0.12692 0.81469 0.2607 0.0
C401 C 0.14014 0.0598 0.37381 0.0
C402 C 0.08308 0.00311 0.39182 0.0
C403 C 0.23525 0.72787 0.3135 0.0
C404 C 0.34866 0.68587 0.46081 0.0
C405 C 0.40933 0.68212 0.51144 0.0
C406 C 0.38318 0.60742 0.5062 0.0
C407 C 0.32263 0.61131 0.45569 0.0
C408 C 0.39573 0.72173 0.48733 0.0
C409 C 0.34132 0.57267 0.47796 0.0
C410 C 0.35466 0.89043 0.344 0.0
C411 C 0.31747 0.72436 0.44333 0.0
H412 H 0.94965 0.86962 0.18509 0.0
H413 H 0.09518 0.92315 0.26844 0.0
H414 H 0.01189 0.94597 0.23418 0.0
H415 H 0.05753 0.7456 0.20266 0.0
H416 H 0.39207 0.57513 0.52464 0.0
H417 H 0.28554 0.58214 0.43555 0.0
H418 H 0.4168 0.77958 0.49061 0.0
H419 H 0.32 0.51494 0.47436 0.0
Eu420 Eu 0.34469 0.17893 0.6524 0.0
C421 C 0.67737 0.25148 0.71767 0.0
N422 N 0.60747 0.20744 0.72826 0.0
C423 C 0.63871 0.12047 0.74895 0.0
C424 C 0.7305 0.23048 0.72166 0.0
C425 C 0.58771 0.14336 0.74433 0.0
C426 C 0.71021 0.16389 0.73732 0.0
C427 C 0.76821 0.36529 0.69214 0.0
C428 C 0.69636 0.31858 0.70348 0.0
C429 C 0.82095 0.34399 0.69559 0.0
C430 C 0.80221 0.2769 0.71039 0.0
Eu431 Eu 0.52739 0.25321 0.72134 0.0
N432 N 0.64394 0.3374 0.70006 0.0
C433 C 0.78485 0.43199 0.6776 0.0
C434 C 0.66017 0.40303 0.68665 0.0
C435 C 0.7306 0.45097 0.67493 0.0
H436 H 0.53249 0.10988 0.75346 0.0
H437 H 0.74302 0.50254 0.66388 0.0
H438 H 0.29948 0.29503 0.61962 0.0
H439 H 0.19853 0.95514 0.74106 0.0
H440 H 0.61869 0.41799 0.68449 0.0
H441 H 0.83939 0.46929 0.66848 0.0
H442 H 0.29145 0.02558 0.69822 0.0
H443 H 0.6228 0.06928 0.76137 0.0
H444 H 0.87648 0.37916 0.68703 0.0
H445 H 0.84371 0.26157 0.71316 0.0
H446 H 0.2044 0.3293 0.62748 0.0
H447 H 0.7495 0.1459 0.74088 0.0
H448 H 0.1043 0.98746 0.75541 0.0
N449 N 0.24937 0.20532 0.65313 0.0
C450 C 0.19354 0.16582 0.67476 0.0
C451 C 0.20064 0.28315 0.64088 0.0
C452 C 0.14098 0.18642 0.68174 0.0
C453 C 0.25389 0.26323 0.6362 0.0
C454 C 0.14422 0.24496 0.66398 0.0
N455 N 0.24695 0.09292 0.68605 0.0
C456 C 0.24862 0.03775 0.70281 0.0
C457 C 0.14104 0.07248 0.7178 0.0
C458 C 0.19263 0.10836 0.69202 0.0
C459 C 0.14309 0.01646 0.73544 0.0
C460 C 0.1963 0.99816 0.72746 0.0
H461 H 0.10459 0.26221 0.66853 0.0
H462 H 0.05083 0.16795 0.71422 0.0
H463 H 0.05557 0.07343 0.74767 0.0
O464 O 0.32253 0.09755 0.61394 0.0
O465 O 0.3313 0.21804 0.70401 0.0
O466 O 0.40462 0.18326 0.7284 0.0
O467 O 0.33195 0.20003 0.59932 0.0
O468 O 0.39321 0.10311 0.65995 0.0
O469 O 0.44792 0.13311 0.71225 0.0
O470 O 0.55506 0.33826 0.7589 0.0
O471 O 0.56914 0.25582 0.66825 0.0
O472 O 0.45879 0.22902 0.66382 0.0
O473 O 0.53307 0.23094 0.77406 0.0
O474 O 0.4902 0.3335 0.70456 0.0
O475 O 0.42207 0.30451 0.65374 0.0
C476 C 0.3616 0.21108 0.73141 0.0
C477 C 0.25707 0.09404 0.56583 0.0
C478 C 0.20599 0.00769 0.51885 0.0
C479 C 0.13808 0.00281 0.52476 0.0
C480 C 0.1886 0.08774 0.57128 0.0
C481 C 0.12966 0.04269 0.55068 0.0
C482 C 0.26564 0.0543 0.53938 0.0
C483 C 0.43604 0.09899 0.68321 0.0
C484 C 0.31807 0.13557 0.58936 0.0
C485 C 0.08998 0.15117 0.70759 0.0
C486 C 0.09169 0.09614 0.72625 0.0
C487 C 0.51677 0.241 0.64777 0.0
C488 C 0.62586 0.33063 0.80238 0.0
C489 C 0.70097 0.41454 0.8455 0.0
C490 C 0.74939 0.38709 0.84299 0.0
C491 C 0.67407 0.30313 0.80057 0.0
C492 C 0.64035 0.38741 0.82436 0.0
C493 C 0.73639 0.33244 0.82021 0.0
C494 C 0.46363 0.35103 0.678 0.0
C495 C 0.55849 0.29831 0.78294 0.0
H496 H 0.09155 0.96857 0.50909 0.0
H497 H 0.18046 0.11672 0.59174 0.0
H498 H 0.07696 0.03813 0.55501 0.0
H499 H 0.31816 0.05805 0.53539 0.0
H500 H 0.79482 0.40425 0.86006 0.0
H501 H 0.66294 0.25743 0.78509 0.0
H502 H 0.60223 0.4074 0.82644 0.0
H503 H 0.77264 0.31024 0.81898 0.0
C504 C 0.15571 0.671 0.26458 0.0
C505 C 0.2246 0.72093 0.27737 0.0
C506 C 0.14975 0.6324 0.23518 0.0
C507 C 0.21264 0.6461 0.2174 0.0
H508 H 0.10679 0.6567 0.27871 0.0
H509 H 0.0967 0.58831 0.22775 0.0
S510 S 0.40301 0.78913 0.23543 0.0
N511 N 0.3544 0.79415 0.2668 0.0
N512 N 0.34396 0.72434 0.21043 0.0
C513 C 0.28045 0.70489 0.22699 0.0
C514 C 0.28624 0.74243 0.25729 0.0
C515 C 0.53766 0.17447 0.60266 0.0
C516 C 0.5218 0.22878 0.61199 0.0
C517 C 0.57694 0.18106 0.57341 0.0
C518 C 0.60114 0.2423 0.55263 0.0
H519 H 0.52558 0.13001 0.61934 0.0
H520 H 0.59381 0.14131 0.56857 0.0
S521 S 0.55386 0.38812 0.56133 0.0
N522 N 0.51814 0.33659 0.59497 0.0
N523 N 0.59229 0.34984 0.53945 0.0
C524 C 0.57558 0.29104 0.55902 0.0
C525 C 0.53552 0.284 0.58898 0.0
C526 C 0.33969 0.52756 0.92433 0.0
C527 C 0.27444 0.50711 0.94154 0.0
C528 C 0.34614 0.54478 0.89022 0.0
C529 C 0.28721 0.54231 0.87273 0.0
H530 H 0.38759 0.53597 0.93759 0.0
H531 H 0.40019 0.56982 0.87913 0.0
S532 S 0.09793 0.46509 0.90341 0.0
N533 N 0.14526 0.46732 0.93677 0.0
N534 N 0.15661 0.4952 0.87186 0.0
C535 C 0.21824 0.5072 0.88794 0.0
C536 C 0.21213 0.49169 0.9229 0.0
C537 C 0.85944 0.38609 0.2711 0.0
C538 C 0.81125 0.31258 0.2784 0.0
C539 C 0.85234 0.41637 0.24137 0.0
C540 C 0.79646 0.37328 0.2189 0.0
H541 H 0.89307 0.42277 0.29066 0.0
H542 H 0.88179 0.47511 0.2388 0.0
S543 S 0.67349 0.17432 0.22173 0.0
N544 N 0.71947 0.19446 0.25731 0.0
N545 N 0.70657 0.2518 0.2009 0.0
C546 C 0.75903 0.2976 0.22259 0.0
C547 C 0.76634 0.26673 0.25287 0.0
C548 C 0.50807 0.71497 0.5934 0.0
C549 C 0.47922 0.75012 0.61277 0.0
C550 C 0.48964 0.69799 0.55976 0.0
C551 C 0.44122 0.71541 0.54413 0.0
H552 H 0.54216 0.69642 0.60399 0.0
H553 H 0.51064 0.66771 0.54639 0.0
S554 S 0.36366 0.82297 0.58155 0.0
N555 N 0.41084 0.81364 0.61211 0.0
N556 N 0.37281 0.77974 0.54908 0.0
C557 C 0.4172 0.75683 0.56218 0.0
C558 C 0.43676 0.77436 0.59651 0.0
C559 C 0.65442 0.45004 0.93056 0.0
C560 C 0.72464 0.49174 0.94393 0.0
C561 C 0.64509 0.43357 0.89633 0.0
C562 C 0.70599 0.45905 0.87477 0.0
H563 H 0.60714 0.42495 0.947 0.0
H564 H 0.59103 0.39395 0.88771 0.0
S565 S 0.89926 0.58155 0.89609 0.0
N566 N 0.8549 0.56328 0.93218 0.0
N567 N 0.83571 0.54068 0.86729 0.0
C568 C 0.77466 0.51025 0.88689 0.0
C569 C 0.78472 0.5238 0.92187 0.0
C570 C 0.46068 0.43224 0.01726 0.0
C571 C 0.43288 0.47889 0.01159 0.0
C572 C 0.53597 0.45864 0.01539 0.0
C573 C 0.58571 0.53274 0.01017 0.0
H574 H 0.42433 0.37555 0.02348 0.0
H575 H 0.55548 0.42076 0.01731 0.0
S576 S 0.53815 0.66751 0.97844 0.0
N577 N 0.45908 0.59587 0.98868 0.0
N578 N 0.6009 0.64608 0.98814 0.0
C579 C 0.55806 0.57713 -0.00033 0.0
C580 C 0.48128 0.54992 0.00012 0.0
C581 C 0.04647 0.54498 0.33468 0.0
C582 C 0.04753 0.58963 0.36107 0.0
C583 C 1.0032 0.46894 0.33628 0.0
C584 C 0.95962 0.434 0.3646 0.0
H585 H 0.08154 0.5681 0.31319 0.0
H586 H 1.00359 0.43748 0.3149 0.0
S587 S 0.95685 0.5256 0.44388 0.0
N588 N 0.00842 0.59314 0.41812 0.0
N589 N 0.93207 0.45015 0.42242 0.0
C590 C 0.96557 0.4778 0.39248 0.0
C591 C 0.00736 0.55548 0.39025 0.0
C592 C 0.54086 0.07573 0.67587 0.0
C593 C 0.465 0.04898 0.67808 0.0
C594 C 0.56999 0.02881 0.67616 0.0
C595 C 0.5236 0.95343 0.67825 0.0
H596 H 0.57819 0.13354 0.67421 0.0
H597 H 0.62866 0.0517 0.67632 0.0
S598 S 0.32083 0.85641 0.67245 0.0
N599 N 0.3448 0.94318 0.67394 0.0
N600 N 0.39763 0.85422 0.67507 0.0
C601 C 0.44746 0.92625 0.67655 0.0
C602 C 0.41848 0.97414 0.67607 0.0
C603 C 0.5544 0.55156 0.70153 0.0
C604 C 0.53918 0.58394 0.67447 0.0
C605 C 0.52938 0.47694 0.70213 0.0
C606 C 0.48766 0.43034 0.67559 0.0
H607 H 0.5845 0.58406 0.72302 0.0
H608 H 0.54275 0.45601 0.72414 0.0
S609 S 0.4293 0.48818 0.59931 0.0
N610 N 0.47697 0.56395 0.62097 0.0
N611 N 0.43148 0.42344 0.62141 0.0
C612 C 0.47227 0.46225 0.6481 0.0
C613 C 0.49781 0.53898 0.64764 0.0
C614 C 0.019 0.46809 0.98993 0.0
C615 C 0.0647 0.4848 0.01817 0.0
C616 C 0.96929 0.49378 0.98725 0.0
C617 C 0.963 0.53578 0.01303 0.0
H618 H 0.02165 0.43539 0.96976 0.0
H619 H 0.93349 0.47814 0.96567 0.0
S620 S 0.06347 0.58895 0.09353 0.0
N621 N 0.09631 0.54364 0.07325 0.0
N622 N 1.00183 0.58877 0.06824 0.0
C623 C 0.00658 0.55119 0.04155 0.0
C624 C 0.05742 0.52627 0.04421 0.0
C625 C 0.45863 0.00527 0.31678 0.0
C626 C 0.43422 0.94897 0.34092 0.0
C627 C 0.53287 0.06095 0.31496 0.0
C628 C 0.58581 0.06145 0.3366 0.0
H629 H 0.41999 0.00769 0.29983 0.0
H630 H 0.5484 0.10538 0.29742 0.0
S631 S 0.55486 0.92735 0.40303 0.0
N632 N 0.47335 0.89969 0.38709 0.0
N633 N 0.61066 1.00056 0.38135 0.0
C634 C 0.56332 0.0048 0.35969 0.0
C635 C 0.48831 0.94973 0.36248 0.0
C636 C 0.30254 0.26159 0.76986 0.0
C637 C 0.32918 0.21317 0.76465 0.0
C638 C 0.26652 0.26098 0.79995 0.0
C639 C 0.25407 0.21072 0.82581 0.0
H640 H 0.30881 0.29983 0.7503 0.0
H641 H 0.24577 0.29826 0.80243 0.0
S642 S 0.31279 0.07236 0.825 0.0
N643 N 0.3414 0.11438 0.7885 0.0
N644 N 0.27276 0.11214 0.84435 0.0
C645 C 0.28131 0.1627 0.82108 0.0
C646 C 0.31908 0.16422 0.79077 0.0
C647 C 0.13421 0.26773 0.15362 0.0
C648 C 0.07578 0.27596 0.16591 0.0
C649 C 0.1721 0.30193 0.12391 0.0
C650 C 0.15567 0.34855 0.10577 0.0
H651 H 0.14924 0.23205 0.16634 0.0
H652 H 0.2132 0.29007 0.11452 0.0
S653 S 0.01531 0.39736 0.12812 0.0
N654 N 0.00768 0.33956 0.1578 0.0
N655 N 0.08197 0.40645 0.10318 0.0
C656 C 0.10164 0.36197 0.11876 0.0
C657 C 0.06142 0.32563 0.14862 0.0
C658 C 0.72891 0.03878 0.47571 0.0
C659 C 0.79445 0.05294 0.49142 0.0
C660 C 0.72847 0.08332 0.44949 0.0
C661 C 0.79362 0.14277 0.43734 0.0
H662 H 0.67778 0.99138 0.48283 0.0
H663 H 0.67705 0.0693 0.4378 0.0
S664 S 0.97734 0.21314 0.47446 0.0
N665 N 0.92453 0.13895 0.4964 0.0
N666 N 0.92364 0.21999 0.44646 0.0
C667 C 0.85865 0.16033 0.45422 0.0
C668 C 0.85908 0.11607 0.48129 0.0
C669 C 0.66417 0.82784 0.79373 0.0
C670 C 0.67236 0.79338 0.76514 0.0
C671 C 0.69604 0.82733 0.82474 0.0
C672 C 0.73707 0.79185 0.8287 0.0
H673 H 0.63582 0.85836 0.79185 0.0
H674 H 0.69004 0.85671 0.84566 0.0
S675 S 0.77059 0.68919 0.7621 0.0
N676 N 0.72135 0.71936 0.7433 0.0
N677 N 0.78092 0.71847 0.8013 0.0
C678 C 0.7429 0.75451 0.80065 0.0
C679 C 0.71091 0.75548 0.76901 0.0
C680 C 0.88272 0.71697 0.15924 0.0
C681 C 0.95978 0.75664 0.15986 0.0
C682 C 0.84404 0.67954 0.13013 0.0
C683 C 0.88083 0.68141 0.10028 0.0
H684 H 0.85208 0.7153 0.18144 0.0
H685 H 0.78494 0.64939 0.13093 0.0
S686 S 0.08161 0.77798 0.08828 0.0
N687 N 0.07089 0.7951 0.12777 0.0
N688 N 0.99856 0.72616 0.07319 0.0
C689 C 0.95762 0.72049 0.1006 0.0
C690 C 0.99696 0.75773 0.1303 0.0
C691 C 0.26738 1.00075 0.46573 0.0
C692 C 0.21422 0.96505 0.49087 0.0
C693 C 0.27134 0.96306 0.43738 0.0
C694 C 0.22349 0.88778 0.43337 0.0
H695 H 0.30439 0.05889 0.46732 0.0
H696 H 0.31141 0.99342 0.41807 0.0
S697 S 0.07657 0.76804 0.49278 0.0
N698 N 0.114 0.84938 0.51037 0.0
N699 N 0.12241 0.77854 0.45755 0.0
C700 C 0.17178 0.85084 0.45891 0.0
C701 C 0.16685 0.88947 0.48748 0.0
loop_
_geom_bond_atom_site_label_1
_geom_bond_atom_site_label_2
_geom_bond_distance
_geom_bond_site_symmetry_2
_ccdc_geom_bond_type
Eu0 N29 2.600 1_556 S
Eu0 N35 2.562 1_556 S
Eu0 O44 2.462 . S
Eu0 O45 2.373 1_556 S
Eu0 O47 2.432 . S
Eu0 O48 2.291 1_556 S
Eu0 O52 2.335 . S
Eu0 O55 2.372 . S
Eu0 C64 2.787 . S
C1 N2 1.365 . S
C1 C4 1.405 . S
C1 C8 1.448 . S
N2 C1 1.365 . S
N2 C5 1.319 . S
N2 Eu11 2.600 . S
C3 C5 1.397 . S
C3 C6 1.367 . S
C3 H23 0.931 . S
C4 C1 1.405 . S
C4 C6 1.403 . S
C4 C10 1.439 . S
C5 N2 1.319 . S
C5 C3 1.397 . S
C5 H16 0.930 . S
C6 C3 1.367 . S
C6 C4 1.403 . S
C6 H27 0.929 . S
C7 C8 1.430 . S
C7 C9 1.387 . S
C7 C13 1.406 . S
C8 C1 1.448 . S
C8 C7 1.430 . S
C8 N12 1.351 . S
C9 C7 1.387 . S
C9 C10 1.374 . S
C9 H24 0.931 1_554 S
C10 C4 1.439 . S
C10 C9 1.374 . S
C10 H25 0.931 . S
Eu11 N2 2.600 . S
Eu11 N12 2.562 . S
Eu11 O46 2.335 . S
Eu11 O49 2.372 . S
Eu11 O50 2.462 . S
Eu11 O51 2.373 1_554 S
Eu11 O53 2.432 . S
Eu11 O54 2.291 . S
Eu11 C75 2.787 . S
N12 C8 1.351 . S
N12 Eu11 2.562 . S
N12 C14 1.325 . S
C13 C7 1.406 . S
C13 C15 1.366 . S
C13 H21 0.929 1_554 S
C14 N12 1.325 . S
C14 C15 1.416 . S
C14 H20 0.929 . S
C15 C13 1.366 . S
C15 C14 1.416 . S
C15 H17 0.931 . S
H16 C5 0.930 . S
H17 C15 0.931 . S
H18 C33 0.930 . S
H19 C40 0.930 . S
H20 C14 0.929 . S
H21 C13 0.929 1_556 S
H22 C36 0.929 . S
H23 C3 0.931 . S
H24 C9 0.931 1_556 S
H25 C10 0.931 . S
H26 C31 0.931 . S
H27 C6 0.929 . S
H28 C39 0.930 . S
N29 Eu0 2.600 1_554 S
N29 C30 1.365 . S
N29 C33 1.319 1_454 S
C30 N29 1.365 . S
C30 C32 1.405 1_455 S
C30 C38 1.448 . S
C31 H26 0.931 . S
C31 C33 1.397 . S
C31 C34 1.367 1_556 S
C32 C30 1.405 1_655 S
C32 C34 1.403 . S
C32 C65 1.439 . S
C33 H18 0.930 . S
C33 N29 1.319 1_656 S
C33 C31 1.397 . S
C34 C31 1.367 1_554 S
C34 C32 1.403 . S
C34 H41 0.929 . S
N35 Eu0 2.562 1_554 S
N35 C36 1.325 . S
N35 C38 1.351 . S
C36 H22 0.929 . S
C36 N35 1.325 . S
C36 C40 1.416 . S
C37 C38 1.430 . S
C37 C39 1.404 . S
C37 C66 1.387 1_455 S
C38 C30 1.448 . S
C38 N35 1.351 . S
C38 C37 1.430 . S
C39 H28 0.930 . S
C39 C37 1.404 . S
C39 C40 1.366 . S
C40 H19 0.930 . S
C40 C36 1.416 . S
C40 C39 1.366 . S
H41 C34 0.929 . S
H42 C65 0.931 1_565 S
H43 C66 0.931 1_565 S
O44 Eu0 2.462 . S
O44 C64 1.252 . S
O45 Eu0 2.373 1_554 S
O45 C56 1.249 . S
O46 Eu11 2.335 . S
O46 C56 1.264 . S
O47 Eu0 2.432 . S
O47 C64 1.268 . S
O48 Eu0 2.291 1_554 S
O48 C63 1.255 . S
O49 Eu11 2.372 . S
O49 C63 1.257 . S
O50 Eu11 2.462 . S
O50 C75 1.252 . S
O51 Eu11 2.373 1_556 S
O51 C67 1.249 . S
O52 Eu0 2.335 . S
O52 C67 1.264 . S
O53 Eu11 2.432 . S
O53 C75 1.268 . S
O54 Eu11 2.291 . S
O54 C74 1.255 . S
O55 Eu0 2.372 . S
O55 C74 1.257 1_556 S
C56 O45 1.249 . S
C56 O46 1.264 . S
C57 C60 1.382 . S
C57 C62 1.390 . S
C57 C64 1.506 . S
C58 C59 1.398 . S
C58 C62 1.392 . S
C59 C58 1.398 . S
C59 C61 1.372 . S
C59 H76 0.931 . S
C60 C57 1.382 . S
C60 C61 1.390 . S
C60 H77 0.931 . S
C61 C59 1.372 . S
C61 C60 1.390 . S
C61 H78 0.929 . S
C62 C57 1.390 . S
C62 C58 1.392 . S
C62 H79 0.930 . S
C63 O48 1.255 . S
C63 O49 1.257 . S
C64 Eu0 2.787 . S
C64 O44 1.252 . S
C64 O47 1.268 . S
C64 C57 1.506 . S
C65 C32 1.439 . S
C65 H42 0.931 1_545 S
C65 C66 1.374 . S
C66 C37 1.387 1_655 S
C66 H43 0.931 1_545 S
C66 C65 1.374 . S
C67 O51 1.249 . S
C67 O52 1.264 . S
C68 C71 1.382 . S
C68 C72 1.390 . S
C68 C75 1.506 . S
C69 C70 1.398 . S
C69 C72 1.392 . S
C70 C69 1.398 . S
C70 C73 1.372 . S
C70 H80 0.931 . S
C71 C68 1.382 . S
C71 C73 1.390 . S
C71 H81 0.931 . S
C72 C68 1.390 . S
C72 C69 1.392 . S
C72 H82 0.930 . S
C73 C70 1.372 . S
C73 C71 1.390 . S
C73 H83 0.929 . S
C74 O54 1.255 . S
C74 O55 1.257 1_554 S
C75 Eu11 2.787 . S
C75 O50 1.252 . S
C75 O53 1.268 . S
C75 C68 1.506 . S
H76 C59 0.931 . S
H77 C60 0.931 . S
H78 C61 0.929 . S
H79 C62 0.930 . S
H80 C70 0.931 . S
H81 C71 0.931 . S
H82 C72 0.930 . S
H83 C73 0.929 . S
Eu84 N113 2.600 . S
Eu84 N119 2.562 . S
Eu84 O128 2.462 . S
Eu84 O129 2.373 . S
Eu84 O131 2.432 . S
Eu84 O132 2.291 . S
Eu84 O136 2.335 . S
Eu84 O139 2.372 . S
Eu84 C148 2.787 . S
C85 N86 1.365 . S
C85 C88 1.405 . S
C85 C92 1.448 . S
N86 C85 1.365 . S
N86 C89 1.319 . S
N86 Eu95 2.600 . S
C87 C89 1.397 . S
C87 C90 1.367 . S
C87 H107 0.931 . S
C88 C85 1.405 . S
C88 C90 1.403 . S
C88 C94 1.439 . S
C89 N86 1.319 . S
C89 C87 1.397 . S
C89 H100 0.930 . S
C90 C87 1.367 . S
C90 C88 1.403 . S
C90 H111 0.929 . S
C91 C92 1.430 . S
C91 C93 1.387 . S
C91 C97 1.404 . S
C92 C85 1.448 . S
C92 C91 1.430 . S
C92 N96 1.351 . S
C93 C91 1.387 . S
C93 C94 1.374 . S
C93 H108 0.931 . S
C94 C88 1.439 . S
C94 C93 1.374 . S
C94 H109 0.931 . S
Eu95 N86 2.600 . S
Eu95 N96 2.562 . S
Eu95 O130 2.335 . S
Eu95 O133 2.372 . S
Eu95 O134 2.462 . S
Eu95 O135 2.373 . S
Eu95 O137 2.432 . S
Eu95 O138 2.291 . S
Eu95 C159 2.787 . S
N96 C92 1.351 . S
N96 Eu95 2.562 . S
N96 C98 1.325 . S
C97 C91 1.404 . S
C97 C99 1.366 . S
C97 H105 0.930 . S
C98 N96 1.325 . S
C98 C99 1.416 . S
C98 H104 0.929 . S
C99 C97 1.366 . S
C99 C98 1.416 . S
C99 H101 0.930 . S
H100 C89 0.930 . S
H101 C99 0.930 . S
H102 C117 0.930 . S
H103 C124 0.930 . S
H104 C98 0.929 . S
H105 C97 0.930 . S
H106 C120 0.929 . S
H107 C87 0.931 . S
H108 C93 0.931 . S
H109 C94 0.931 . S
H110 C115 0.931 . S
H111 C90 0.929 . S
H112 C123 0.930 . S
N113 Eu84 2.600 . S
N113 C114 1.365 . S
N113 C117 1.319 1_545 S
C114 N113 1.365 . S
C114 C116 1.405 1_545 S
C114 C122 1.448 . S
C115 H110 0.931 . S
C115 C117 1.397 . S
C115 C118 1.367 . S
C116 C114 1.405 1_565 S
C116 C118 1.403 . S
C116 C149 1.439 . S
C117 H102 0.930 . S
C117 N113 1.319 1_565 S
C117 C115 1.397 . S
C118 C115 1.367 . S
C118 C116 1.403 . S
C118 H125 0.929 . S
N119 Eu84 2.562 . S
N119 C120 1.325 1_655 S
N119 C122 1.351 . S
C120 H106 0.929 . S
C120 N119 1.325 1_455 S
C120 C124 1.416 . S
C121 C122 1.430 . S
C121 C123 1.404 1_655 S
C121 C150 1.387 1_545 S
C122 C114 1.448 . S
C122 N119 1.351 . S
C122 C121 1.430 . S
C123 H112 0.930 . S
C123 C121 1.404 1_455 S
C123 C124 1.366 . S
C124 H103 0.930 . S
C124 C120 1.416 . S
C124 C123 1.366 . S
H125 C118 0.929 . S
H126 C149 0.931 . S
H127 C150 0.930 . S
O128 Eu84 2.462 . S
O128 C148 1.252 . S
O129 Eu84 2.373 . S
O129 C140 1.249 . S
O130 Eu95 2.335 . S
O130 C140 1.264 . S
O131 Eu84 2.432 . S
O131 C148 1.268 . S
O132 Eu84 2.291 . S
O132 C147 1.255 . S
O133 Eu95 2.372 . S
O133 C147 1.257 . S
O134 Eu95 2.462 . S
O134 C159 1.252 . S
O135 Eu95 2.373 . S
O135 C151 1.249 . S
O136 Eu84 2.335 . S
O136 C151 1.264 . S
O137 Eu95 2.432 . S
O137 C159 1.268 . S
O138 Eu95 2.291 . S
O138 C158 1.255 . S
O139 Eu84 2.372 . S
O139 C158 1.257 . S
C140 O129 1.249 . S
C140 O130 1.264 . S
C141 C144 1.382 . S
C141 C146 1.390 1_655 S
C141 C148 1.506 . S
C142 C143 1.398 . S
C142 C146 1.392 . S
C143 C142 1.398 . S
C143 C145 1.372 1_455 S
C143 H160 0.931 . S
C144 C141 1.382 . S
C144 C145 1.390 . S
C144 H161 0.931 . S
C145 C143 1.372 1_655 S
C145 C144 1.390 . S
C145 H162 0.929 . S
C146 C141 1.390 1_455 S
C146 C142 1.392 . S
C146 H163 0.930 . S
C147 O132 1.255 . S
C147 O133 1.257 . S
C148 Eu84 2.787 . S
C148 O128 1.252 . S
C148 O131 1.268 . S
C148 C141 1.506 . S
C149 C116 1.439 . S
C149 H126 0.931 . S
C149 C150 1.374 . S
C150 C121 1.387 1_565 S
C150 H127 0.930 . S
C150 C149 1.374 . S
C151 O135 1.249 . S
C151 O136 1.264 . S
C152 C155 1.382 . S
C152 C156 1.390 . S
C152 C159 1.506 . S
C153 C154 1.398 . S
C153 C156 1.392 . S
C154 C153 1.398 . S
C154 C157 1.372 . S
C154 H164 0.931 . S
C155 C152 1.382 . S
C155 C157 1.390 . S
C155 H165 0.931 . S
C156 C152 1.390 . S
C156 C153 1.392 . S
C156 H166 0.930 . S
C157 C154 1.372 . S
C157 C155 1.390 . S
C157 H167 0.929 . S
C158 O138 1.255 . S
C158 O139 1.257 . S
C159 Eu95 2.787 . S
C159 O134 1.252 . S
C159 O137 1.268 . S
C159 C152 1.506 . S
H160 C143 0.931 . S
H161 C144 0.931 . S
H162 C145 0.929 . S
H163 C146 0.930 . S
H164 C154 0.931 . S
H165 C155 0.931 . S
H166 C156 0.930 . S
H167 C157 0.929 . S
Eu168 N197 2.600 . S
Eu168 N203 2.562 . S
Eu168 O212 2.462 . S
Eu168 O213 2.373 . S
Eu168 O215 2.432 . S
Eu168 O216 2.291 . S
Eu168 O220 2.335 . S
Eu168 O223 2.372 . S
Eu168 C232 2.787 . S
C169 N170 1.365 . S
C169 C172 1.405 . S
C169 C176 1.448 . S
N170 C169 1.365 . S
N170 C173 1.319 . S
N170 Eu179 2.600 . S
C171 C173 1.397 . S
C171 C174 1.367 . S
C171 H191 0.931 . S
C172 C169 1.405 . S
C172 C174 1.403 . S
C172 C178 1.439 . S
C173 N170 1.319 . S
C173 C171 1.397 . S
C173 H184 0.930 . S
C174 C171 1.367 . S
C174 C172 1.403 . S
C174 H195 0.929 . S
C175 C176 1.430 . S
C175 C177 1.387 . S
C175 C181 1.404 . S
C176 C169 1.448 . S
C176 C175 1.430 . S
C176 N180 1.351 . S
C177 C175 1.387 . S
C177 C178 1.374 . S
C177 H192 0.931 . S
C178 C172 1.439 . S
C178 C177 1.374 . S
C178 H193 0.931 . S
Eu179 N170 2.600 . S
Eu179 N180 2.562 . S
Eu179 O214 2.335 . S
Eu179 O217 2.372 . S
Eu179 O218 2.462 . S
Eu179 O219 2.373 . S
Eu179 O221 2.432 . S
Eu179 O222 2.291 . S
Eu179 C243 2.787 . S
N180 C176 1.351 . S
N180 Eu179 2.562 . S
N180 C182 1.325 . S
C181 C175 1.404 . S
C181 C183 1.366 . S
C181 H189 0.930 . S
C182 N180 1.325 . S
C182 C183 1.416 . S
C182 H188 0.929 . S
C183 C181 1.366 . S
C183 C182 1.416 . S
C183 H185 0.930 . S
H184 C173 0.930 . S
H185 C183 0.930 . S
H186 C201 0.930 . S
H187 C208 0.930 . S
H188 C182 0.929 . S
H189 C181 0.930 . S
H190 C204 0.929 . S
H191 C171 0.931 . S
H192 C177 0.931 . S
H193 C178 0.931 . S
H194 C199 0.931 . S
H195 C174 0.929 . S
H196 C207 0.930 . S
N197 Eu168 2.600 . S
N197 C198 1.365 . S
N197 C201 1.319 . S
C198 N197 1.365 . S
C198 C200 1.405 . S
C198 C206 1.448 . S
C199 H194 0.931 . S
C199 C201 1.397 . S
C199 C202 1.367 . S
C200 C198 1.405 . S
C200 C202 1.403 . S
C200 C233 1.439 . S
C201 H186 0.930 . S
C201 N197 1.319 . S
C201 C199 1.397 . S
C202 C199 1.367 . S
C202 C200 1.403 . S
C202 H209 0.929 . S
N203 Eu168 2.562 . S
N203 C204 1.325 1_565 S
N203 C206 1.351 . S
C204 H190 0.929 . S
C204 N203 1.325 1_545 S
C204 C208 1.416 . S
C205 C206 1.430 . S
C205 C207 1.404 1_565 S
C205 C234 1.387 . S
C206 C198 1.448 . S
C206 N203 1.351 . S
C206 C205 1.430 . S
C207 H196 0.930 . S
C207 C205 1.404 1_545 S
C207 C208 1.366 . S
C208 H187 0.930 . S
C208 C204 1.416 . S
C208 C207 1.366 . S
H209 C202 0.929 . S
H210 C233 0.931 1_455 S
H211 C234 0.931 1_445 S
O212 Eu168 2.462 . S
O212 C232 1.252 . S
O213 Eu168 2.373 . S
O213 C224 1.249 . S
O214 Eu179 2.335 . S
O214 C224 1.264 . S
O215 Eu168 2.432 . S
O215 C232 1.268 . S
O216 Eu168 2.291 . S
O216 C231 1.255 . S
O217 Eu179 2.372 . S
O217 C231 1.257 . S
O218 Eu179 2.462 . S
O218 C243 1.252 . S
O219 Eu179 2.373 . S
O219 C235 1.249 . S
O220 Eu168 2.335 . S
O220 C235 1.264 . S
O221 Eu179 2.432 . S
O221 C243 1.268 . S
O222 Eu179 2.291 . S
O222 C242 1.255 . S
O223 Eu168 2.372 . S
O223 C242 1.257 . S
C224 O213 1.249 . S
C224 O214 1.264 . S
C225 C228 1.382 . S
C225 C230 1.390 1_565 S
C225 C232 1.506 . S
C226 C227 1.398 . S
C226 C230 1.392 . S
C227 C226 1.398 . S
C227 C229 1.372 1_545 S
C227 H244 0.931 . S
C228 C225 1.382 . S
C228 C229 1.390 . S
C228 H245 0.931 . S
C229 C227 1.372 1_565 S
C229 C228 1.390 . S
C229 H246 0.929 . S
C230 C225 1.390 1_545 S
C230 C226 1.392 . S
C230 H247 0.930 . S
C231 O216 1.255 . S
C231 O217 1.257 . S
C232 Eu168 2.787 . S
C232 O212 1.252 . S
C232 O215 1.268 . S
C232 C225 1.506 . S
C233 C200 1.439 . S
C233 H210 0.931 1_655 S
C233 C234 1.374 . S
C234 C205 1.387 . S
C234 H211 0.931 1_665 S
C234 C233 1.374 . S
C235 O219 1.249 . S
C235 O220 1.264 . S
C236 C239 1.382 . S
C236 C240 1.390 . S
C236 C243 1.506 . S
C237 C238 1.398 . S
C237 C240 1.392 . S
C238 C237 1.398 . S
C238 C241 1.372 . S
C238 H248 0.931 . S
C239 C236 1.382 . S
C239 C241 1.390 . S
C239 H249 0.931 . S
C240 C236 1.390 . S
C240 C237 1.392 . S
C240 H250 0.930 . S
C241 C238 1.372 . S
C241 C239 1.390 . S
C241 H251 0.929 . S
C242 O222 1.255 . S
C242 O223 1.257 . S
C243 Eu179 2.787 . S
C243 O218 1.252 . S
C243 O221 1.268 . S
C243 C236 1.506 . S
H244 C227 0.931 . S
H245 C228 0.931 . S
H246 C229 0.929 . S
H247 C230 0.930 . S
H248 C238 0.931 . S
H249 C239 0.931 . S
H250 C240 0.930 . S
H251 C241 0.929 . S
Eu252 N281 2.600 1_556 S
Eu252 N287 2.562 1_556 S
Eu252 O296 2.462 . S
Eu252 O297 2.373 1_556 S
Eu252 O299 2.432 . S
Eu252 O300 2.291 1_556 S
Eu252 O304 2.335 . S
Eu252 O307 2.372 . S
Eu252 C316 2.787 . S
C253 N254 1.365 . S
C253 C256 1.405 . S
C253 C260 1.448 . S
N254 C253 1.365 . S
N254 C257 1.319 . S
N254 Eu263 2.600 . S
C255 C257 1.397 . S
C255 C258 1.367 . S
C255 H275 0.931 . S
C256 C253 1.405 . S
C256 C258 1.403 . S
C256 C262 1.439 . S
C257 N254 1.319 . S
C257 C255 1.397 . S
C257 H268 0.930 . S
C258 C255 1.367 . S
C258 C256 1.403 . S
C258 H279 0.929 . S
C259 C260 1.430 . S
C259 C261 1.387 . S
C259 C265 1.405 . S
C260 C253 1.448 . S
C260 C259 1.430 . S
C260 N264 1.351 . S
C261 C259 1.387 . S
C261 C262 1.374 . S
C261 H276 0.931 1_554 S
C262 C256 1.439 . S
C262 C261 1.374 . S
C262 H277 0.931 . S
Eu263 N254 2.600 . S
Eu263 N264 2.562 . S
Eu263 O298 2.335 . S
Eu263 O301 2.372 . S
Eu263 O302 2.462 . S
Eu263 O303 2.373 1_554 S
Eu263 O305 2.432 . S
Eu263 O306 2.291 . S
Eu263 C327 2.787 . S
N264 C260 1.351 . S
N264 Eu263 2.562 . S
N264 C266 1.325 . S
C265 C259 1.405 . S
C265 C267 1.366 . S
C265 H273 0.929 1_554 S
C266 N264 1.325 . S
C266 C267 1.416 . S
C266 H272 0.929 . S
C267 C265 1.366 . S
C267 C266 1.416 . S
C267 H269 0.931 . S
H268 C257 0.930 . S
H269 C267 0.931 . S
H270 C285 0.930 . S
H271 C292 0.930 . S
H272 C266 0.929 . S
H273 C265 0.929 1_556 S
H274 C288 0.929 . S
H275 C255 0.931 . S
H276 C261 0.931 1_556 S
H277 C262 0.931 . S
H278 C283 0.931 . S
H279 C258 0.929 . S
H280 C291 0.930 . S
N281 Eu252 2.600 1_554 S
N281 C282 1.365 . S
N281 C285 1.319 1_654 S
C282 N281 1.365 . S
C282 C284 1.405 1_655 S
C282 C290 1.448 . S
C283 H278 0.931 . S
C283 C285 1.397 . S
C283 C286 1.367 1_556 S
C284 C282 1.405 1_455 S
C284 C286 1.403 . S
C284 C317 1.439 . S
C285 H270 0.930 . S
C285 N281 1.319 1_456 S
C285 C283 1.397 . S
C286 C283 1.367 1_554 S
C286 C284 1.403 . S
C286 H293 0.929 . S
N287 Eu252 2.562 1_554 S
N287 C288 1.325 . S
N287 C290 1.351 . S
C288 H274 0.929 . S
C288 N287 1.325 . S
C288 C292 1.416 . S
C289 C290 1.430 . S
C289 C291 1.404 . S
C289 C318 1.387 1_655 S
C290 C282 1.448 . S
C290 N287 1.351 . S
C290 C289 1.430 . S
C291 H280 0.930 . S
C291 C289 1.404 . S
C291 C292 1.366 . S
C292 H271 0.930 . S
C292 C288 1.416 . S
C292 C291 1.366 . S
H293 C286 0.929 . S
H294 C317 0.931 1_545 S
H295 C318 0.931 1_545 S
O296 Eu252 2.462 . S
O296 C316 1.252 . S
O297 Eu252 2.373 1_554 S
O297 C308 1.249 . S
O298 Eu263 2.335 . S
O298 C308 1.264 . S
O299 Eu252 2.432 . S
O299 C316 1.268 . S
O300 Eu252 2.291 1_554 S
O300 C315 1.255 . S
O301 Eu263 2.372 . S
O301 C315 1.257 . S
O302 Eu263 2.462 . S
O302 C327 1.252 . S
O303 Eu263 2.373 1_556 S
O303 C319 1.249 . S
O304 Eu252 2.335 . S
O304 C319 1.264 . S
O305 Eu263 2.432 . S
O305 C327 1.268 . S
O306 Eu263 2.291 . S
O306 C326 1.255 . S
O307 Eu252 2.372 . S
O307 C326 1.257 1_556 S
C308 O297 1.249 . S
C308 O298 1.264 . S
C309 C312 1.382 . S
C309 C314 1.390 . S
C309 C316 1.506 . S
C310 C311 1.398 . S
C310 C314 1.392 . S
C311 C310 1.398 . S
C311 C313 1.372 . S
C311 H328 0.931 . S
C312 C309 1.382 . S
C312 C313 1.390 . S
C312 H329 0.931 . S
C313 C311 1.372 . S
C313 C312 1.390 . S
C313 H330 0.929 . S
C314 C309 1.390 . S
C314 C310 1.392 . S
C314 H331 0.930 . S
C315 O300 1.255 . S
C315 O301 1.257 . S
C316 Eu252 2.787 . S
C316 O296 1.252 . S
C316 O299 1.268 . S
C316 C309 1.506 . S
C317 C284 1.439 . S
C317 H294 0.931 1_565 S
C317 C318 1.374 . S
C318 C289 1.387 1_455 S
C318 H295 0.931 1_565 S
C318 C317 1.374 . S
C319 O303 1.249 . S
C319 O304 1.264 . S
C320 C323 1.382 . S
C320 C324 1.390 . S
C320 C327 1.506 . S
C321 C322 1.398 . S
C321 C324 1.392 . S
C322 C321 1.398 . S
C322 C325 1.372 . S
C322 H332 0.931 . S
C323 C320 1.382 . S
C323 C325 1.390 . S
C323 H333 0.931 . S
C324 C320 1.390 . S
C324 C321 1.392 . S
C324 H334 0.930 . S
C325 C322 1.372 . S
C325 C323 1.390 . S
C325 H335 0.929 . S
C326 O306 1.255 . S
C326 O307 1.257 1_554 S
C327 Eu263 2.787 . S
C327 O302 1.252 . S
C327 O305 1.268 . S
C327 C320 1.506 . S
H328 C311 0.931 . S
H329 C312 0.931 . S
H330 C313 0.929 . S
H331 C314 0.930 . S
H332 C322 0.931 . S
H333 C323 0.931 . S
H334 C324 0.930 . S
H335 C325 0.929 . S
Eu336 N365 2.600 . S
Eu336 N371 2.562 . S
Eu336 O380 2.462 . S
Eu336 O381 2.373 . S
Eu336 O383 2.432 . S
Eu336 O384 2.291 . S
Eu336 O388 2.335 . S
Eu336 O391 2.372 . S
Eu336 C400 2.787 . S
C337 N338 1.365 . S
C337 C340 1.405 . S
C337 C344 1.448 . S
N338 C337 1.365 . S
N338 C341 1.319 . S
N338 Eu347 2.600 . S
C339 C341 1.397 . S
C339 C342 1.367 . S
C339 H359 0.931 . S
C340 C337 1.405 . S
C340 C342 1.403 . S
C340 C346 1.439 . S
C341 N338 1.319 . S
C341 C339 1.397 . S
C341 H352 0.930 . S
C342 C339 1.367 . S
C342 C340 1.403 . S
C342 H363 0.929 . S
C343 C344 1.430 . S
C343 C345 1.387 . S
C343 C349 1.404 . S
C344 C337 1.448 . S
C344 C343 1.430 . S
C344 N348 1.351 . S
C345 C343 1.387 . S
C345 C346 1.374 . S
C345 H360 0.931 . S
C346 C340 1.439 . S
C346 C345 1.374 . S
C346 H361 0.931 . S
Eu347 N338 2.600 . S
Eu347 N348 2.562 . S
Eu347 O382 2.335 . S
Eu347 O385 2.372 . S
Eu347 O386 2.462 . S
Eu347 O387 2.373 . S
Eu347 O389 2.432 . S
Eu347 O390 2.291 . S
Eu347 C411 2.787 . S
N348 C344 1.351 . S
N348 Eu347 2.562 . S
N348 C350 1.325 . S
C349 C343 1.404 . S
C349 C351 1.366 . S
C349 H357 0.930 . S
C350 N348 1.325 . S
C350 C351 1.416 . S
C350 H356 0.929 . S
C351 C349 1.366 . S
C351 C350 1.416 . S
C351 H353 0.930 . S
H352 C341 0.930 . S
H353 C351 0.930 . S
H354 C369 0.930 . S
H355 C376 0.930 . S
H356 C350 0.929 . S
H357 C349 0.930 . S
H358 C372 0.929 . S
H359 C339 0.931 . S
H360 C345 0.931 . S
H361 C346 0.931 . S
H362 C367 0.931 . S
H363 C342 0.929 . S
H364 C375 0.930 . S
N365 Eu336 2.600 . S
N365 C366 1.365 . S
N365 C369 1.319 1_565 S
C366 N365 1.365 . S
C366 C368 1.405 1_565 S
C366 C374 1.448 . S
C367 H362 0.931 . S
C367 C369 1.397 . S
C367 C370 1.367 . S
C368 C366 1.405 1_545 S
C368 C370 1.403 . S
C368 C401 1.439 . S
C369 H354 0.930 . S
C369 N365 1.319 1_545 S
C369 C367 1.397 . S
C370 C367 1.367 . S
C370 C368 1.403 . S
C370 H377 0.929 . S
N371 Eu336 2.562 . S
N371 C372 1.325 1_455 S
N371 C374 1.351 . S
C372 H358 0.929 . S
C372 N371 1.325 1_655 S
C372 C376 1.416 . S
C373 C374 1.430 . S
C373 C375 1.404 1_455 S
C373 C402 1.387 1_565 S
C374 C366 1.448 . S
C374 N371 1.351 . S
C374 C373 1.430 . S
C375 H364 0.930 . S
C375 C373 1.404 1_655 S
C375 C376 1.366 . S
C376 H355 0.930 . S
C376 C372 1.416 . S
C376 C375 1.366 . S
H377 C370 0.929 . S
H378 C401 0.931 . S
H379 C402 0.930 . S
O380 Eu336 2.462 . S
O380 C400 1.252 . S
O381 Eu336 2.373 . S
O381 C392 1.249 . S
O382 Eu347 2.335 . S
O382 C392 1.264 . S
O383 Eu336 2.432 . S
O383 C400 1.268 . S
O384 Eu336 2.291 . S
O384 C399 1.255 . S
O385 Eu347 2.372 . S
O385 C399 1.257 . S
O386 Eu347 2.462 . S
O386 C411 1.252 . S
O387 Eu347 2.373 . S
O387 C403 1.249 . S
O388 Eu336 2.335 . S
O388 C403 1.264 . S
O389 Eu347 2.432 . S
O389 C411 1.268 . S
O390 Eu347 2.291 . S
O390 C410 1.255 . S
O391 Eu336 2.372 . S
O391 C410 1.257 . S
C392 O381 1.249 . S
C392 O382 1.264 . S
C393 C396 1.382 . S
C393 C398 1.390 1_455 S
C393 C400 1.506 . S
C394 C395 1.398 . S
C394 C398 1.392 . S
C395 C394 1.398 . S
C395 C397 1.372 1_655 S
C395 H412 0.931 . S
C396 C393 1.382 . S
C396 C397 1.390 . S
C396 H413 0.931 . S
C397 C395 1.372 1_455 S
C397 C396 1.390 . S
C397 H414 0.929 . S
C398 C393 1.390 1_655 S
C398 C394 1.392 . S
C398 H415 0.930 . S
C399 O384 1.255 . S
C399 O385 1.257 . S
C400 Eu336 2.787 . S
C400 O380 1.252 . S
C400 O383 1.268 . S
C400 C393 1.506 . S
C401 C368 1.439 . S
C401 H378 0.931 . S
C401 C402 1.374 . S
C402 C373 1.387 1_545 S
C402 H379 0.930 . S
C402 C401 1.374 . S
C403 O387 1.249 . S
C403 O388 1.264 . S
C404 C407 1.382 . S
C404 C408 1.390 . S
C404 C411 1.506 . S
C405 C406 1.398 . S
C405 C408 1.392 . S
C406 C405 1.398 . S
C406 C409 1.372 . S
C406 H416 0.931 . S
C407 C404 1.382 . S
C407 C409 1.390 . S
C407 H417 0.931 . S
C408 C404 1.390 . S
C408 C405 1.392 . S
C408 H418 0.930 . S
C409 C406 1.372 . S
C409 C407 1.390 . S
C409 H419 0.929 . S
C410 O390 1.255 . S
C410 O391 1.257 . S
C411 Eu347 2.787 . S
C411 O386 1.252 . S
C411 O389 1.268 . S
C411 C404 1.506 . S
H412 C395 0.931 . S
H413 C396 0.931 . S
H414 C397 0.929 . S
H415 C398 0.930 . S
H416 C406 0.931 . S
H417 C407 0.931 . S
H418 C408 0.930 . S
H419 C409 0.929 . S
Eu420 N449 2.600 . S
Eu420 N455 2.562 . S
Eu420 O464 2.462 . S
Eu420 O465 2.373 . S
Eu420 O467 2.432 . S
Eu420 O468 2.291 . S
Eu420 O472 2.335 . S
Eu420 O475 2.372 . S
Eu420 C484 2.787 . S
C421 N422 1.365 . S
C421 C424 1.405 . S
C421 C428 1.448 . S
N422 C421 1.365 . S
N422 C425 1.319 . S
N422 Eu431 2.600 . S
C423 C425 1.397 . S
C423 C426 1.367 . S
C423 H443 0.931 . S
C424 C421 1.405 . S
C424 C426 1.403 . S
C424 C430 1.439 . S
C425 N422 1.319 . S
C425 C423 1.397 . S
C425 H436 0.930 . S
C426 C423 1.367 . S
C426 C424 1.403 . S
C426 H447 0.929 . S
C427 C428 1.430 . S
C427 C429 1.387 . S
C427 C433 1.404 . S
C428 C421 1.448 . S
C428 C427 1.430 . S
C428 N432 1.351 . S
C429 C427 1.387 . S
C429 C430 1.374 . S
C429 H444 0.931 . S
C430 C424 1.439 . S
C430 C429 1.374 . S
C430 H445 0.931 . S
Eu431 N422 2.600 . S
Eu431 N432 2.562 . S
Eu431 O466 2.335 . S
Eu431 O469 2.372 . S
Eu431 O470 2.462 . S
Eu431 O471 2.373 . S
Eu431 O473 2.432 . S
Eu431 O474 2.291 . S
Eu431 C495 2.787 . S
N432 C428 1.351 . S
N432 Eu431 2.562 . S
N432 C434 1.325 . S
C433 C427 1.404 . S
C433 C435 1.366 . S
C433 H441 0.930 . S
C434 N432 1.325 . S
C434 C435 1.416 . S
C434 H440 0.929 . S
C435 C433 1.366 . S
C435 C434 1.416 . S
C435 H437 0.930 . S
H436 C425 0.930 . S
H437 C435 0.930 . S
H438 C453 0.930 . S
H439 C460 0.930 . S
H440 C434 0.929 . S
H441 C433 0.930 . S
H442 C456 0.929 . S
H443 C423 0.931 . S
H444 C429 0.931 . S
H445 C430 0.931 . S
H446 C451 0.931 . S
H447 C426 0.929 . S
H448 C459 0.930 . S
N449 Eu420 2.600 . S
N449 C450 1.365 . S
N449 C453 1.319 . S
C450 N449 1.365 . S
C450 C452 1.405 . S
C450 C458 1.448 . S
C451 H446 0.931 . S
C451 C453 1.397 . S
C451 C454 1.367 . S
C452 C450 1.405 . S
C452 C454 1.403 . S
C452 C485 1.439 . S
C453 H438 0.930 . S
C453 N449 1.319 . S
C453 C451 1.397 . S
C454 C451 1.367 . S
C454 C452 1.403 . S
C454 H461 0.929 . S
N455 Eu420 2.562 . S
N455 C456 1.325 1_545 S
N455 C458 1.351 . S
C456 H442 0.929 . S
C456 N455 1.325 1_565 S
C456 C460 1.416 . S
C457 C458 1.430 . S
C457 C459 1.404 1_545 S
C457 C486 1.387 . S
C458 C450 1.448 . S
C458 N455 1.351 . S
C458 C457 1.430 . S
C459 H448 0.930 . S
C459 C457 1.404 1_565 S
C459 C460 1.366 . S
C460 H439 0.930 . S
C460 C456 1.416 . S
C460 C459 1.366 . S
H461 C454 0.929 . S
H462 C485 0.931 1_655 S
H463 C486 0.931 1_665 S
O464 Eu420 2.462 . S
O464 C484 1.252 . S
O465 Eu420 2.373 . S
O465 C476 1.249 . S
O466 Eu431 2.335 . S
O466 C476 1.264 . S
O467 Eu420 2.432 . S
O467 C484 1.268 . S
O468 Eu420 2.291 . S
O468 C483 1.255 . S
O469 Eu431 2.372 . S
O469 C483 1.257 . S
O470 Eu431 2.462 . S
O470 C495 1.252 . S
O471 Eu431 2.373 . S
O471 C487 1.249 . S
O472 Eu420 2.335 . S
O472 C487 1.264 . S
O473 Eu431 2.432 . S
O473 C495 1.268 . S
O474 Eu431 2.291 . S
O474 C494 1.255 . S
O475 Eu420 2.372 . S
O475 C494 1.257 . S
C476 O465 1.249 . S
C476 O466 1.264 . S
C477 C480 1.382 . S
C477 C482 1.390 1_545 S
C477 C484 1.506 . S
C478 C479 1.398 . S
C478 C482 1.392 . S
C479 C478 1.398 . S
C479 C481 1.372 1_565 S
C479 H496 0.931 . S
C480 C477 1.382 . S
C480 C481 1.390 . S
C480 H497 0.931 . S
C481 C479 1.372 1_545 S
C481 C480 1.390 . S
C481 H498 0.929 . S
C482 C477 1.390 1_565 S
C482 C478 1.392 . S
C482 H499 0.930 . S
C483 O468 1.255 . S
C483 O469 1.257 . S
C484 Eu420 2.787 . S
C484 O464 1.252 . S
C484 O467 1.268 . S
C484 C477 1.506 . S
C485 C452 1.439 . S
C485 H462 0.931 1_455 S
C485 C486 1.374 . S
C486 C457 1.387 . S
C486 H463 0.931 1_445 S
C486 C485 1.374 . S
C487 O471 1.249 . S
C487 O472 1.264 . S
C488 C491 1.382 . S
C488 C492 1.390 . S
C488 C495 1.506 . S
C489 C490 1.398 . S
C489 C492 1.392 . S
C490 C489 1.398 . S
C490 C493 1.372 . S
C490 H500 0.931 . S
C491 C488 1.382 . S
C491 C493 1.390 . S
C491 H501 0.931 . S
C492 C488 1.390 . S
C492 C489 1.392 . S
C492 H502 0.930 . S
C493 C490 1.372 . S
C493 C491 1.390 . S
C493 H503 0.929 . S
C494 O474 1.255 . S
C494 O475 1.257 . S
C495 Eu431 2.787 . S
C495 O470 1.252 . S
C495 O473 1.268 . S
C495 C488 1.506 . S
H496 C479 0.931 . S
H497 C480 0.931 . S
H498 C481 0.929 . S
H499 C482 0.930 . S
H500 C490 0.931 . S
H501 C491 0.931 . S
H502 C492 0.930 . S
H503 C493 0.929 . S
C504 C505 1.369 . S
C504 C506 1.419 . S
C504 H508 0.930 . S
C505 C504 1.369 . S
C505 C514 1.429 . S
C506 C504 1.419 . S
C506 C507 1.363 . S
C506 H509 0.929 . S
C507 C506 1.363 . S
C507 C513 1.428 . S
H508 C504 0.930 . S
H509 C506 0.929 . S
S510 N511 1.613 . S
S510 N512 1.610 . S
N511 S510 1.613 . S
N511 C514 1.350 . S
N512 S510 1.610 . S
N512 C513 1.351 . S
C513 C507 1.428 . S
C513 N512 1.351 . S
C513 C514 1.434 . S
C514 C505 1.429 . S
C514 N511 1.350 . S
C514 C513 1.434 . S
C515 C516 1.369 . S
C515 C517 1.419 . S
C515 H519 0.930 . S
C516 C515 1.369 . S
C516 C525 1.429 . S
C517 C515 1.419 . S
C517 C518 1.363 . S
C517 H520 0.929 . S
C518 C517 1.363 . S
C518 C524 1.428 . S
H519 C515 0.930 . S
H520 C517 0.929 . S
S521 N522 1.613 . S
S521 N523 1.610 . S
N522 S521 1.613 . S
N522 C525 1.350 . S
N523 S521 1.610 . S
N523 C524 1.351 . S
C524 C518 1.428 . S
C524 N523 1.351 . S
C524 C525 1.434 . S
C525 C516 1.429 . S
C525 N522 1.350 . S
C525 C524 1.434 . S
C526 C527 1.369 . S
C526 C528 1.419 . S
C526 H530 0.930 . S
C527 C526 1.369 . S
C527 C536 1.429 . S
C528 C526 1.419 . S
C528 C529 1.363 . S
C528 H531 0.929 . S
C529 C528 1.363 . S
C529 C535 1.428 . S
H530 C526 0.930 . S
H531 C528 0.929 . S
S532 N533 1.613 . S
S532 N534 1.610 . S
N533 S532 1.613 . S
N533 C536 1.350 . S
N534 S532 1.610 . S
N534 C535 1.351 . S
C535 C529 1.428 . S
C535 N534 1.351 . S
C535 C536 1.434 . S
C536 C527 1.429 . S
C536 N533 1.350 . S
C536 C535 1.434 . S
C537 C538 1.369 . S
C537 C539 1.419 . S
C537 H541 0.930 . S
C538 C537 1.369 . S
C538 C547 1.429 . S
C539 C537 1.419 . S
C539 C540 1.363 . S
C539 H542 0.929 . S
C540 C539 1.363 . S
C540 C546 1.428 . S
H541 C537 0.930 . S
H542 C539 0.929 . S
S543 N544 1.613 . S
S543 N545 1.610 . S
N544 S543 1.613 . S
N544 C547 1.350 . S
N545 S543 1.610 . S
N545 C546 1.351 . S
C546 C540 1.428 . S
C546 N545 1.351 . S
C546 C547 1.434 . S
C547 C538 1.429 . S
C547 N544 1.350 . S
C547 C546 1.434 . S
C548 C549 1.369 . S
C548 C550 1.419 . S
C548 H552 0.930 . S
C549 C548 1.369 . S
C549 C558 1.429 . S
C550 C548 1.419 . S
C550 C551 1.363 . S
C550 H553 0.929 . S
C551 C550 1.363 . S
C551 C557 1.428 . S
H552 C548 0.930 . S
H553 C550 0.929 . S
S554 N555 1.613 . S
S554 N556 1.610 . S
N555 S554 1.613 . S
N555 C558 1.350 . S
N556 S554 1.610 . S
N556 C557 1.351 . S
C557 C551 1.428 . S
C557 N556 1.351 . S
C557 C558 1.434 . S
C558 C549 1.429 . S
C558 N555 1.350 . S
C558 C557 1.434 . S
C559 C560 1.369 . S
C559 C561 1.419 . S
C559 H563 0.930 . S
C560 C559 1.369 . S
C560 C569 1.429 . S
C561 C559 1.419 . S
C561 C562 1.363 . S
C561 H564 0.929 . S
C562 C561 1.363 . S
C562 C568 1.428 . S
H563 C559 0.930 . S
H564 C561 0.929 . S
S565 N566 1.613 . S
S565 N567 1.610 . S
N566 S565 1.613 . S
N566 C569 1.350 . S
N567 S565 1.610 . S
N567 C568 1.351 . S
C568 C562 1.428 . S
C568 N567 1.351 . S
C568 C569 1.434 . S
C569 C560 1.429 . S
C569 N566 1.350 . S
C569 C568 1.434 . S
C570 C571 1.369 . S
C570 C572 1.419 . S
C570 H574 0.930 . S
C571 C570 1.369 . S
C571 C580 1.429 . S
C572 C570 1.419 . S
C572 C573 1.363 . S
C572 H575 0.929 . S
C573 C572 1.363 . S
C573 C579 1.428 . S
H574 C570 0.930 . S
H575 C572 0.929 . S
S576 N577 1.613 1_556 S
S576 N578 1.610 1_556 S
N577 S576 1.613 1_554 S
N577 C580 1.350 . S
N578 S576 1.610 1_554 S
N578 C579 1.351 . S
C579 C573 1.428 . S
C579 N578 1.351 . S
C579 C580 1.434 . S
C580 C571 1.429 . S
C580 N577 1.350 . S
C580 C579 1.434 . S
C581 C582 1.369 . S
C581 C583 1.419 . S
C581 H585 0.930 . S
C582 C581 1.369 . S
C582 C591 1.429 1_455 S
C583 C581 1.419 . S
C583 C584 1.363 1_455 S
C583 H586 0.929 . S
C584 C583 1.363 1_655 S
C584 C590 1.428 . S
H585 C581 0.930 . S
H586 C583 0.929 . S
S587 N588 1.613 . S
S587 N589 1.610 . S
N588 S587 1.613 . S
N588 C591 1.350 . S
N589 S587 1.610 . S
N589 C590 1.351 . S
C590 C584 1.428 . S
C590 N589 1.351 . S
C590 C591 1.434 . S
C591 C582 1.429 1_655 S
C591 N588 1.350 . S
C591 C590 1.434 . S
C592 C593 1.369 . S
C592 C594 1.419 . S
C592 H596 0.930 . S
C593 C592 1.369 . S
C593 C602 1.429 1_545 S
C594 C592 1.419 . S
C594 C595 1.363 1_545 S
C594 H597 0.929 . S
C595 C594 1.363 1_565 S
C595 C601 1.428 . S
H596 C592 0.930 . S
H597 C594 0.929 . S
S598 N599 1.613 . S
S598 N600 1.610 . S
N599 S598 1.613 . S
N599 C602 1.350 . S
N600 S598 1.610 . S
N600 C601 1.351 . S
C601 C595 1.428 . S
C601 N600 1.351 . S
C601 C602 1.434 . S
C602 C593 1.429 1_565 S
C602 N599 1.350 . S
C602 C601 1.434 . S
C603 C604 1.369 . S
C603 C605 1.419 . S
C603 H607 0.930 . S
C604 C603 1.369 . S
C604 C613 1.429 . S
C605 C603 1.419 . S
C605 C606 1.363 . S
C605 H608 0.929 . S
C606 C605 1.363 . S
C606 C612 1.428 . S
H607 C603 0.930 . S
H608 C605 0.929 . S
S609 N610 1.613 . S
S609 N611 1.610 . S
N610 S609 1.613 . S
N610 C613 1.350 . S
N611 S609 1.610 . S
N611 C612 1.351 . S
C612 C606 1.428 . S
C612 N611 1.351 . S
C612 C613 1.434 . S
C613 C604 1.429 . S
C613 N610 1.350 . S
C613 C612 1.434 . S
C614 C615 1.369 1_656 S
C614 C616 1.419 . S
C614 H618 0.930 . S
C615 C614 1.369 1_454 S
C615 C624 1.429 . S
C616 C614 1.419 . S
C616 C617 1.363 1_556 S
C616 H619 0.929 . S
C617 C616 1.363 1_554 S
C617 C623 1.428 1_655 S
H618 C614 0.930 . S
H619 C616 0.929 . S
S620 N621 1.613 . S
S620 N622 1.610 . S
N621 S620 1.613 . S
N621 C624 1.350 . S
N622 S620 1.610 . S
N622 C623 1.351 . S
C623 C617 1.428 1_455 S
C623 N622 1.351 . S
C623 C624 1.434 . S
C624 C615 1.429 . S
C624 N621 1.350 . S
C624 C623 1.434 . S
C625 C626 1.369 1_545 S
C625 C627 1.419 . S
C625 H629 0.930 . S
C626 C625 1.369 1_565 S
C626 C635 1.429 . S
C627 C625 1.419 . S
C627 C628 1.363 . S
C627 H630 0.929 . S
C628 C627 1.363 . S
C628 C634 1.428 1_545 S
H629 C625 0.930 . S
H630 C627 0.929 . S
S631 N632 1.613 . S
S631 N633 1.610 . S
N632 S631 1.613 . S
N632 C635 1.350 . S
N633 S631 1.610 . S
N633 C634 1.351 . S
C634 C628 1.428 1_565 S
C634 N633 1.351 . S
C634 C635 1.434 . S
C635 C626 1.429 . S
C635 N632 1.350 . S
C635 C634 1.434 . S
C636 C637 1.369 . S
C636 C638 1.419 . S
C636 H640 0.930 . S
C637 C636 1.369 . S
C637 C646 1.429 . S
C638 C636 1.419 . S
C638 C639 1.363 . S
C638 H641 0.929 . S
C639 C638 1.363 . S
C639 C645 1.428 . S
H640 C636 0.930 . S
H641 C638 0.929 . S
S642 N643 1.613 . S
S642 N644 1.610 . S
N643 S642 1.613 . S
N643 C646 1.350 . S
N644 S642 1.610 . S
N644 C645 1.351 . S
C645 C639 1.428 . S
C645 N644 1.351 . S
C645 C646 1.434 . S
C646 C637 1.429 . S
C646 N643 1.350 . S
C646 C645 1.434 . S
C647 C648 1.369 . S
C647 C649 1.419 . S
C647 H651 0.930 . S
C648 C647 1.369 . S
C648 C657 1.429 . S
C649 C647 1.419 . S
C649 C650 1.363 . S
C649 H652 0.929 . S
C650 C649 1.363 . S
C650 C656 1.428 . S
H651 C647 0.930 . S
H652 C649 0.929 . S
S653 N654 1.613 . S
S653 N655 1.610 . S
N654 S653 1.613 . S
N654 C657 1.350 . S
N655 S653 1.610 . S
N655 C656 1.351 . S
C656 C650 1.428 . S
C656 N655 1.351 . S
C656 C657 1.434 . S
C657 C648 1.429 . S
C657 N654 1.350 . S
C657 C656 1.434 . S
C658 C659 1.369 . S
C658 C660 1.419 . S
C658 H662 0.930 . S
C659 C658 1.369 . S
C659 C668 1.429 . S
C660 C658 1.419 . S
C660 C661 1.363 . S
C660 H663 0.929 . S
C661 C660 1.363 . S
C661 C667 1.428 . S
H662 C658 0.930 . S
H663 C660 0.929 . S
S664 N665 1.613 1_455 S
S664 N666 1.610 1_455 S
N665 S664 1.613 1_655 S
N665 C668 1.350 . S
N666 S664 1.610 1_655 S
N666 C667 1.351 . S
C667 C661 1.428 . S
C667 N666 1.351 . S
C667 C668 1.434 . S
C668 C659 1.429 . S
C668 N665 1.350 . S
C668 C667 1.434 . S
C669 C670 1.369 . S
C669 C671 1.419 . S
C669 H673 0.930 . S
C670 C669 1.369 . S
C670 C679 1.429 . S
C671 C669 1.419 . S
C671 C672 1.363 . S
C671 H674 0.929 . S
C672 C671 1.363 . S
C672 C678 1.428 . S
H673 C669 0.930 . S
H674 C671 0.929 . S
S675 N676 1.613 . S
S675 N677 1.610 . S
N676 S675 1.613 . S
N676 C679 1.350 . S
N677 S675 1.610 . S
N677 C678 1.351 . S
C678 C672 1.428 . S
C678 N677 1.351 . S
C678 C679 1.434 . S
C679 C670 1.429 . S
C679 N676 1.350 . S
C679 C678 1.434 . S
C680 C681 1.369 . S
C680 C682 1.419 . S
C680 H684 0.930 . S
C681 C680 1.369 . S
C681 C690 1.429 . S
C682 C680 1.419 . S
C682 C683 1.363 . S
C682 H685 0.929 . S
C683 C682 1.363 . S
C683 C689 1.428 . S
H684 C680 0.930 . S
H685 C682 0.929 . S
S686 N687 1.613 . S
S686 N688 1.611 . S
N687 S686 1.613 . S
N687 C690 1.350 . S
N688 S686 1.611 . S
N688 C689 1.351 . S
C689 C683 1.428 . S
C689 N688 1.351 . S
C689 C690 1.434 . S
C690 C681 1.429 . S
C690 N687 1.350 . S
C690 C689 1.434 . S
C691 C692 1.369 . S
C691 C693 1.419 . S
C691 H695 0.930 . S
C692 C691 1.369 . S
C692 C701 1.429 . S
C693 C691 1.419 . S
C693 C694 1.363 . S
C693 H696 0.929 . S
C694 C693 1.363 . S
C694 C700 1.428 . S
H695 C691 0.930 . S
H696 C693 0.929 . S
S697 N698 1.613 . S
S697 N699 1.610 . S
N698 S697 1.613 . S
N698 C701 1.350 . S
N699 S697 1.610 . S
N699 C700 1.351 . S
C700 C694 1.428 . S
C700 N699 1.351 . S
C700 C701 1.434 . S
C701 C692 1.429 . S
C701 N698 1.350 . S
C701 C700 1.434 . S
C505 C403 1.284 . S
C507 C69 1.012 . S
C516 C487 1.282 . S
C518 C153 1.016 . S
C527 C67 1.280 . S
C529 C237 1.020 . S
C538 C151 1.285 . S
C540 C321 1.011 . S
C549 C235 1.283 . S
C551 C405 1.012 . S
C560 C319 1.276 . S
C562 C489 1.025 . S
C571 C63 1.809 . S
C573 C315 1.816 . S
C582 C399 1.812 . S
C584 C147 1.808 . S
C593 C483 1.816 . S
C595 C231 1.807 . S
C604 C242 1.870 . S
C606 C494 1.874 . S
C615 C74 1.874 . S
C617 C326 1.875 . S
C626 C410 1.872 . S
C628 C158 1.875 . S
C637 C476 1.231 . S
C639 C58 1.086 . S
C648 C142 1.077 . S
C650 C56 1.225 . S
C659 C226 1.087 . S
C661 C140 1.230 . S
C670 C224 1.227 . S
C672 C310 1.075 . S
C681 C394 1.074 . S
C683 C308 1.231 . S
C692 C478 1.092 . S
C694 C392 1.227 . S
