# Generated by pormake.
# Topology qtz-e, (6)-cn, num edge types: 1
# Building blocks:
#     Node 0, Type 0, BuildingBlock: BETDAH_clean_sbu_0, # of connection points: 6
#     Node 1, Type 0, BuildingBlock: BETDAH_clean_sbu_0, # of connection points: 6
#     Node 2, Type 0, BuildingBlock: BETDAH_clean_sbu_0, # of connection points: 6
#     Node 3, Type 0, BuildingBlock: BETDAH_clean_sbu_0, # of connection points: 6
#     Node 4, Type 0, BuildingBlock: BETDAH_clean_sbu_0, # of connection points: 6
#     Node 5, Type 0, BuildingBlock: BETDAH_clean_sbu_0, # of connection points: 6
#     Edge 6, Type (0, 0), None
#     Edge 7, Type (0, 0), None
#     Edge 8, Type (0, 0), None
#     Edge 9, Type (0, 0), None
#     Edge 10, Type (0, 0), None
#     Edge 11, Type (0, 0), None
#     Edge 12, Type (0, 0), None
#     Edge 13, Type (0, 0), None
#     Edge 14, Type (0, 0), None
#     Edge 15, Type (0, 0), None
#     Edge 16, Type (0, 0), None
#     Edge 17, Type (0, 0), None
#     Edge 18, Type (0, 0), None
#     Edge 19, Type (0, 0), None
#     Edge 20, Type (0, 0), None
#     Edge 21, Type (0, 0), None
#     Edge 22, Type (0, 0), None
#     Edge 23, Type (0, 0), None
# Relax obj value: 0.089
# Max RMSD: 0.197
# Mean RMSD: 0.197
data_MOF--net-qtz-e--node1-BETDAH_clean_sbu_0--edge1-none
_symmetry_space_group_name_H-M    P1
_symmetry_Int_Tables_number       1
_symmetry_cell_setting            triclinic
loop_
_symmetry_equiv_pos_as_xyz
'x, y, z'
_cell_length_a     12.099339
_cell_length_b     12.096733
_cell_length_c     30.321051
_cell_angle_alpha  90.538155
_cell_angle_beta   89.720514
_cell_angle_gamma 120.06191
loop_
_atom_site_label
_atom_site_type_symbol
_atom_site_fract_x
_atom_site_fract_y
_atom_site_fract_z
_atom_type_partial_charge
Ho0 Ho 0.32154 0.60633 0.13052 0.0
Ho1 Ho 0.19436 0.34376 0.08874 0.0
C2 C 0.16751 0.3497 0.19363 0.0
C3 C 0.38731 0.80023 0.18042 0.0
C4 C 0.35847 0.78815 0.22753 0.0
C5 C 0.23299 0.70367 0.24116 0.0
C6 C 0.20858 0.66166 0.28423 0.0
C7 C 0.30825 0.70486 0.31495 0.0
C8 C 0.43383 0.7904 0.30181 0.0
C9 C 0.45883 0.83181 0.2582 0.0
C10 C 0.48294 0.5218 0.11292 0.0
C11 C 0.33189 0.58174 1.02948 0.0
C12 C 0.15227 0.15272 1.03845 0.0
C13 C 0.18455 0.15198 0.99033 0.0
C14 C 0.29567 0.14903 0.97856 0.0
C15 C 0.33572 0.16116 0.93449 0.0
C16 C 0.26517 0.17406 0.90011 0.0
C17 C 0.15081 0.17165 0.91123 0.0
C18 C 0.11187 0.16249 0.95586 0.0
C19 C 0.06249 0.47218 0.08513 0.0
O20 O 0.23942 0.47615 0.19007 0.0
O21 O 0.13207 0.27262 0.15841 0.0
O22 O 0.4657 0.76004 0.16962 0.0
O23 O 0.28959 0.75818 0.15348 0.0
O24 O 0.50821 0.63693 0.10482 0.0
O25 O 0.37148 0.4551 0.12821 0.0
O26 O 0.33646 0.48078 1.0416 0.0
O27 O 0.31005 0.64849 0.05925 0.0
O28 O 0.0627 0.17929 1.04878 0.0
O29 O 0.24955 0.20819 0.06553 0.0
O30 O 0.07116 0.40765 1.05245 0.0
O31 O 0.12295 0.4651 0.11725 0.0
H32 H 0.15364 0.66521 0.21823 0.0
H33 H 0.11055 0.59759 0.29386 0.0
H34 H 0.51158 0.82815 0.32536 0.0
H35 H 0.55676 0.8943 0.24799 0.0
H36 H 0.35437 0.14085 1.00373 0.0
H37 H 0.42389 0.16184 0.92732 0.0
H38 H 0.09456 0.1825 0.88578 0.0
H39 H 0.02585 0.16557 0.96334 0.0
Ho40 Ho 0.67878 0.29213 0.4596 0.0
Ho41 Ho 0.84125 0.189 0.42134 0.0
C42 C 0.80219 0.16149 0.52525 0.0
C43 C 0.53572 0.33851 0.50919 0.0
C44 C 0.52896 0.31877 0.55698 0.0
C45 C 0.49993 0.1988 0.57307 0.0
C46 C 0.5237 0.18534 0.61672 0.0
C47 C 0.5759 0.2908 0.64552 0.0
C48 C 0.60496 0.41106 0.62987 0.0
C49 C 0.58155 0.42494 0.58574 0.0
C50 C 0.92184 0.47162 0.44607 0.0
C51 C 0.72114 0.29966 0.35855 0.0
C52 C 0.01212 0.17186 0.37501 0.0
C53 C 0.05319 0.2098 0.32795 0.0
C54 C 0.16867 0.32266 0.31907 0.0
C55 C 0.20513 0.36577 0.27569 0.0
C56 C 0.12878 0.29661 0.23934 0.0
C57 C 0.01462 0.18174 0.24787 0.0
C58 C 0.97645 0.13982 0.2916 0.0
C59 C 0.58209 0.0316 0.41797 0.0
O60 O 0.73774 0.22352 0.52041 0.0
O61 O 0.85208 0.13188 0.49105 0.0
O62 O 0.64764 0.428 0.49605 0.0
O63 O 0.48933 0.23587 0.48412 0.0
O64 O 0.82601 0.48614 0.43611 0.0
O65 O 0.88436 0.36131 0.46089 0.0
O66 O 0.83124 0.31973 0.37307 0.0
O67 O 0.62731 0.26943 0.38695 0.0
O68 O 0.89815 0.07364 0.38223 0.0
O69 O 0.03962 0.26575 0.4028 0.0
O70 O 0.65774 0.04619 0.3854 0.0
O71 O 0.64724 0.10102 0.44916 0.0
H72 H 0.46293 0.11555 0.55171 0.0
H73 H 0.49789 0.09107 0.62838 0.0
H74 H 0.64101 0.49279 0.65193 0.0
H75 H 0.60783 0.51908 0.57374 0.0
H76 H 0.23034 0.3796 0.3459 0.0
H77 H 0.29396 0.4543 0.27066 0.0
H78 H 0.95277 0.12629 0.22087 0.0
H79 H 0.88634 0.0529 0.29684 0.0
Ho80 Ho 0.38227 0.68117 0.79609 0.0
Ho81 Ho 0.64012 0.84049 0.75312 0.0
C82 C 0.64717 0.80851 0.85682 0.0
C83 C 0.19948 0.54195 0.84805 0.0
C84 C 0.21874 0.53667 0.89546 0.0
C85 C 0.30658 0.5013 0.9099 0.0
C86 C 0.3506 0.52591 0.95293 0.0
C87 C 0.3082 0.58648 0.98259 0.0
C88 C 0.22079 0.62253 0.96845 0.0
C89 C 0.17562 0.59696 0.92516 0.0
C90 C 0.4416 0.92203 0.7806 0.0
C91 C 0.39927 0.71167 0.69446 0.0
C92 C 0.82571 0.01049 0.70623 0.0
C93 C 0.82819 0.05117 0.6594 0.0
C94 C 0.82544 0.16387 0.65065 0.0
C95 C 0.81865 0.1995 0.60727 0.0
C96 C 0.81674 0.12504 0.57102 0.0
C97 C 0.8228 0.01392 0.57945 0.0
C98 C 0.82688 0.97661 0.62308 0.0
C99 C 0.53932 0.58134 0.75102 0.0
O100 O 0.51983 0.74268 0.8547 0.0
O101 O 0.71927 0.85666 0.82115 0.0
O102 O 0.22189 0.65397 0.83534 0.0
O103 O 0.25089 0.49334 0.82173 0.0
O104 O 0.33019 0.82438 0.77266 0.0
O105 O 0.51738 0.88725 0.79464 0.0
O106 O 0.49164 0.82396 0.70688 0.0
O107 O 0.34099 0.62175 0.7243 0.0
O108 O 0.80977 0.89651 0.71309 0.0
O109 O 0.75968 0.03804 0.73403 0.0
O110 O 0.59497 0.65464 0.71759 0.0
O111 O 0.53999 0.64878 0.78248 0.0
H112 H 0.34522 0.45855 0.88767 0.0
H113 H 0.41666 0.49545 0.96329 0.0
H114 H 0.18453 0.66664 0.99104 0.0
H115 H 0.11051 0.62829 0.9144 0.0
H116 H 0.82615 0.22386 0.67753 0.0
H117 H 0.81474 0.28598 0.60213 0.0
H118 H 0.8206 0.95376 0.5524 0.0
H119 H 0.82827 0.88887 0.62828 0.0
Ho120 Ho 0.7457 0.40307 0.12667 0.0
Ho121 Ho 0.85198 0.6585 0.07835 0.0
C122 C 0.87714 0.66634 0.18474 0.0
C123 C 0.68991 0.2059 0.17167 0.0
C124 C 0.69506 0.21593 0.22036 0.0
C125 C 0.81097 0.3039 0.24042 0.0
C126 C 0.81491 0.33727 0.2844 0.0
C127 C 0.70393 0.28243 0.3104 0.0
C128 C 0.58708 0.19396 0.2909 0.0
C129 C 0.58258 0.16173 0.24597 0.0
C130 C 0.58396 0.49338 0.12053 0.0
C131 C 0.72364 0.40844 1.02368 0.0
C132 C 0.88323 0.84316 1.02803 0.0
C133 C 0.82452 0.84166 0.98443 0.0
C134 C 0.69832 0.81809 0.98136 0.0
C135 C 0.64195 0.80944 0.9401 0.0
C136 C 0.70989 0.82445 0.90068 0.0
C137 C 0.8369 0.85086 0.90373 0.0
C138 C 0.89299 0.85844 0.94496 0.0
C139 C 0.00578 0.55483 0.08369 0.0
O140 O 0.83832 0.54249 0.18294 0.0
O141 O 0.88552 0.73293 0.1489 0.0
O142 O 0.60104 0.22181 0.15354 0.0
O143 O 0.79989 0.26929 0.15114 0.0
O144 O 0.58661 0.42872 0.15364 0.0
O145 O 0.65993 0.49947 0.09122 0.0
O146 O 0.71101 0.50681 1.03448 0.0
O147 O 0.75231 0.3507 0.0546 0.0
O148 O 0.96133 0.79775 1.02816 0.0
O149 O 0.80878 0.8078 0.06289 0.0
O150 O 0.99499 0.60921 1.04871 0.0
O151 O 0.93745 0.56075 0.11375 0.0
H152 H 0.89943 0.35104 0.22194 0.0
H153 H 0.90682 0.40484 0.29841 0.0
H154 H 0.50058 0.1476 0.31043 0.0
H155 H 0.49126 0.09635 0.23107 0.0
H156 H 0.64205 0.80458 1.01081 0.0
H157 H 0.54482 0.79122 0.93909 0.0
H158 H 0.89236 0.8628 0.87419 0.0
H159 H 0.99006 0.87623 0.9459 0.0
Ho160 Ho 0.30291 0.71953 0.46361 0.0
Ho161 Ho 0.18328 0.84616 0.41217 0.0
C162 C 0.2001 0.87984 0.51885 0.0
C163 C 0.42762 0.64156 0.50835 0.0
C164 C 0.43293 0.65548 0.55678 0.0
C165 C 0.47523 0.77736 0.57488 0.0
C166 C 0.45392 0.79192 0.6188 0.0
C167 C 0.39295 0.6859 0.64671 0.0
C168 C 0.35136 0.56327 0.62924 0.0
C169 C 0.3703 0.54809 0.58432 0.0
C170 C 0.04637 0.57971 0.45635 0.0
C171 C 0.27385 0.68552 0.36145 0.0
C172 C 0.05446 0.90128 0.35794 0.0
C173 C 1.00072 0.84425 0.31373 0.0
C174 C 0.90591 0.71496 0.30924 0.0
C175 C 0.86473 0.65918 0.26742 0.0
C176 C 0.91622 0.73074 0.22876 0.0
C177 C 0.00871 0.86076 0.23309 0.0
C178 C 0.05153 0.91628 0.27506 0.0
C179 C 0.44249 0.97301 0.41567 0.0
O180 O 0.27586 0.83005 0.51832 0.0
O181 O 0.14715 0.89224 0.48213 0.0
O182 O 0.31418 0.56236 0.49273 0.0
O183 O 0.48515 0.74839 0.48609 0.0
O184 O 0.10949 0.58185 0.49081 0.0
O185 O 0.12238 0.64678 0.42679 0.0
O186 O 0.16844 0.68538 0.37172 0.0
O187 O 0.35808 0.71012 0.39282 0.0
O188 O 0.17905 0.96632 0.36034 0.0
O189 O 1.00295 0.82956 0.39275 0.0
O190 O 0.37831 0.96364 0.38057 0.0
O191 O 0.36728 0.91843 0.44724 0.0
H192 H 0.52099 0.8626 0.55488 0.0
H193 H 0.48831 0.88801 0.63111 0.0
H194 H 0.30682 0.48014 0.65023 0.0
H195 H 0.33387 0.45273 0.5709 0.0
H196 H 0.86524 0.65551 0.33801 0.0
H197 H 0.79238 0.55917 0.26536 0.0
H198 H 0.05123 0.91848 0.20408 0.0
H199 H 0.12661 0.01529 0.27727 0.0
Ho200 Ho 0.57671 0.30439 0.79464 0.0
Ho201 Ho 0.32321 0.18131 0.74741 0.0
C202 C 0.32065 0.20065 0.85438 0.0
C203 C 0.78496 0.43015 0.83691 0.0
C204 C 0.77989 0.43061 0.88545 0.0
C205 C 0.68684 0.4512 0.90546 0.0
C206 C 0.65832 0.4262 0.94964 0.0
C207 C 0.72678 0.38711 0.97616 0.0
C208 C 0.81987 0.36517 0.95674 0.0
C209 C 0.8446 0.3846 0.91123 0.0
C210 C 0.45857 0.04736 0.78994 0.0
C211 C 0.56588 0.26515 0.69268 0.0
C212 C 0.13769 0.05379 0.69298 0.0
C213 C 0.14263 1.00237 0.64823 0.0
C214 C 0.17302 0.90484 0.64342 0.0
C215 C 0.1895 0.86523 0.60151 0.0
C216 C 0.17537 0.92078 0.56284 0.0
C217 C 0.14226 0.01644 0.56738 0.0
C218 C 0.12772 0.05776 0.60956 0.0
C219 C 0.45734 0.44149 0.7496 0.0
O220 O 0.44611 0.27595 0.85176 0.0
O221 O 0.24892 0.14728 0.81856 0.0
O222 O 0.75137 0.31857 0.81945 0.0
O223 O 0.73129 0.4873 0.81709 0.0
O224 O 0.5247 0.11439 0.82328 0.0
O225 O 0.4628 0.11992 0.75992 0.0
O226 O 0.46233 0.1613 0.70498 0.0
O227 O 0.63011 0.35348 0.72274 0.0
O228 O 0.19598 0.17818 0.69653 0.0
O229 O 0.15796 1.0014 0.72747 0.0
O230 O 0.39856 0.37485 0.71516 0.0
O231 O 0.44054 0.36816 0.78117 0.0
H232 H 0.63291 0.48434 0.8869 0.0
H233 H 0.58674 0.44485 0.96376 0.0
H234 H 0.87659 0.33856 0.9768 0.0
H235 H 0.91379 0.36397 0.89623 0.0
H236 H 0.18698 0.86046 0.67208 0.0
H237 H 0.21375 0.79046 0.59947 0.0
H238 H 0.13143 0.06205 0.53847 0.0
H239 H 0.10678 0.13481 0.61196 0.0
loop_
_geom_bond_atom_site_label_1
_geom_bond_atom_site_label_2
_geom_bond_distance
_geom_bond_site_symmetry_2
_ccdc_geom_bond_type
Ho0 C3 2.811 . S
Ho0 O20 2.322 . S
Ho0 O22 2.378 . S
Ho0 O23 2.524 . S
Ho0 O24 2.381 . S
Ho0 O25 2.669 . S
Ho0 O27 2.346 . S
Ho0 O31 2.305 . S
Ho1 C12 2.811 1_554 S
Ho1 O21 2.346 . S
Ho1 O25 2.305 . S
Ho1 O26 2.322 1_554 S
Ho1 O28 2.378 1_554 S
Ho1 O29 2.524 1_554 S
Ho1 O30 2.381 1_455 S
Ho1 O31 2.669 . S
C2 O20 1.259 . S
C2 O21 1.268 . S
C3 Ho0 2.811 . S
C3 C4 1.488 . S
C3 O22 1.215 . S
C3 O23 1.289 . S
C4 C3 1.488 . S
C4 C5 1.348 . S
C4 C9 1.413 . S
C5 C4 1.348 . S
C5 C6 1.442 . S
C5 H32 0.930 . S
C6 C5 1.442 . S
C6 C7 1.381 . S
C6 H33 0.931 . S
C7 C6 1.381 . S
C7 C8 1.321 . S
C8 C7 1.321 . S
C8 C9 1.403 . S
C8 H34 0.934 . S
C9 C4 1.413 . S
C9 C8 1.403 . S
C9 H35 0.930 . S
C10 O24 1.275 . S
C10 O25 1.256 . S
C11 O26 1.259 . S
C11 O27 1.268 1_556 S
C12 Ho1 2.811 1_556 S
C12 C13 1.488 . S
C12 O28 1.215 . S
C12 O29 1.289 . S
C13 C12 1.488 . S
C13 C14 1.348 . S
C13 C18 1.413 . S
C14 C13 1.348 . S
C14 C15 1.442 . S
C14 H36 0.930 . S
C15 C14 1.442 . S
C15 C16 1.381 . S
C15 H37 0.931 . S
C16 C15 1.381 . S
C16 C17 1.321 1_545 S
C17 C16 1.321 1_565 S
C17 C18 1.403 1_565 S
C17 H38 0.934 1_455 S
C18 C13 1.413 . S
C18 C17 1.403 1_545 S
C18 H39 0.930 1_455 S
C19 O30 1.275 . S
C19 O31 1.256 1_655 S
O20 Ho0 2.322 . S
O20 C2 1.259 . S
O21 Ho1 2.346 . S
O21 C2 1.268 . S
O22 Ho0 2.378 . S
O22 C3 1.215 . S
O23 Ho0 2.524 . S
O23 C3 1.289 . S
O24 Ho0 2.381 . S
O24 C10 1.275 . S
O25 Ho0 2.669 . S
O25 Ho1 2.305 . S
O25 C10 1.256 . S
O26 Ho1 2.322 1_556 S
O26 C11 1.259 . S
O27 Ho0 2.346 . S
O27 C11 1.268 1_554 S
O28 Ho1 2.378 1_556 S
O28 C12 1.215 . S
O29 Ho1 2.524 1_556 S
O29 C12 1.289 . S
O30 Ho1 2.381 1_655 S
O30 C19 1.275 . S
O31 Ho0 2.305 . S
O31 Ho1 2.669 . S
O31 C19 1.256 1_455 S
H32 C5 0.930 . S
H33 C6 0.931 . S
H34 C8 0.934 . S
H35 C9 0.930 . S
H36 C14 0.930 . S
H37 C15 0.931 . S
H38 C17 0.934 1_655 S
H39 C18 0.930 1_655 S
Ho40 C43 2.811 . S
Ho40 O60 2.322 . S
Ho40 O62 2.378 . S
Ho40 O63 2.524 . S
Ho40 O64 2.381 . S
Ho40 O65 2.669 . S
Ho40 O67 2.346 . S
Ho40 O71 2.305 . S
Ho41 C52 2.811 . S
Ho41 O61 2.346 . S
Ho41 O65 2.305 . S
Ho41 O66 2.322 . S
Ho41 O68 2.378 . S
Ho41 O69 2.524 1_655 S
Ho41 O70 2.381 1_545 S
Ho41 O71 2.669 . S
C42 O60 1.259 . S
C42 O61 1.268 . S
C43 Ho40 2.811 . S
C43 C44 1.488 . S
C43 O62 1.215 . S
C43 O63 1.289 . S
C44 C43 1.488 . S
C44 C45 1.348 . S
C44 C49 1.413 . S
C45 C44 1.348 . S
C45 C46 1.442 . S
C45 H72 0.930 . S
C46 C45 1.442 . S
C46 C47 1.381 . S
C46 H73 0.931 . S
C47 C46 1.381 . S
C47 C48 1.321 . S
C48 C47 1.321 . S
C48 C49 1.403 . S
C48 H74 0.934 . S
C49 C44 1.413 . S
C49 C48 1.403 . S
C49 H75 0.930 . S
C50 O64 1.275 . S
C50 O65 1.256 . S
C51 O66 1.259 . S
C51 O67 1.268 . S
C52 Ho41 2.811 . S
C52 C53 1.488 1_655 S
C52 O68 1.215 . S
C52 O69 1.289 1_655 S
C53 C52 1.488 1_455 S
C53 C54 1.348 . S
C53 C58 1.413 1_455 S
C54 C53 1.348 . S
C54 C55 1.442 . S
C54 H76 0.930 . S
C55 C54 1.442 . S
C55 C56 1.381 . S
C55 H77 0.931 . S
C56 C55 1.381 . S
C56 C57 1.321 . S
C57 C56 1.321 . S
C57 C58 1.403 1_455 S
C57 H78 0.934 1_545 S
C58 C53 1.413 1_655 S
C58 C57 1.403 1_655 S
C58 H79 0.930 1_545 S
C59 O70 1.275 . S
C59 O71 1.256 1_565 S
O60 Ho40 2.322 . S
O60 C42 1.259 . S
O61 Ho41 2.346 . S
O61 C42 1.268 . S
O62 Ho40 2.378 . S
O62 C43 1.215 . S
O63 Ho40 2.524 . S
O63 C43 1.289 . S
O64 Ho40 2.381 . S
O64 C50 1.275 . S
O65 Ho40 2.669 . S
O65 Ho41 2.305 . S
O65 C50 1.256 . S
O66 Ho41 2.322 . S
O66 C51 1.259 . S
O67 Ho40 2.346 . S
O67 C51 1.268 . S
O68 Ho41 2.378 . S
O68 C52 1.215 . S
O69 Ho41 2.524 1_455 S
O69 C52 1.289 1_455 S
O70 Ho41 2.381 1_565 S
O70 C59 1.275 . S
O71 Ho40 2.305 . S
O71 Ho41 2.669 . S
O71 C59 1.256 1_545 S
H72 C45 0.930 . S
H73 C46 0.931 . S
H74 C48 0.934 . S
H75 C49 0.930 . S
H76 C54 0.930 . S
H77 C55 0.931 . S
H78 C57 0.934 1_565 S
H79 C58 0.930 1_565 S
Ho80 C83 2.811 . S
Ho80 O100 2.322 . S
Ho80 O102 2.378 . S
Ho80 O103 2.524 . S
Ho80 O104 2.381 . S
Ho80 O105 2.669 . S
Ho80 O107 2.346 . S
Ho80 O111 2.305 . S
Ho81 C92 2.811 . S
Ho81 O101 2.346 . S
Ho81 O105 2.305 . S
Ho81 O106 2.322 . S
Ho81 O108 2.378 . S
Ho81 O109 2.524 1_565 S
Ho81 O110 2.381 . S
Ho81 O111 2.669 . S
C82 O100 1.259 . S
C82 O101 1.268 . S
C83 Ho80 2.811 . S
C83 C84 1.488 . S
C83 O102 1.215 . S
C83 O103 1.289 . S
C84 C83 1.488 . S
C84 C85 1.348 . S
C84 C89 1.413 . S
C85 C84 1.348 . S
C85 C86 1.442 . S
C85 H112 0.930 . S
C86 C85 1.442 . S
C86 C87 1.381 . S
C86 H113 0.931 . S
C87 C86 1.381 . S
C87 C88 1.321 . S
C88 C87 1.321 . S
C88 C89 1.403 . S
C88 H114 0.934 . S
C89 C84 1.413 . S
C89 C88 1.403 . S
C89 H115 0.930 . S
C90 O104 1.275 . S
C90 O105 1.256 . S
C91 O106 1.259 . S
C91 O107 1.268 . S
C92 Ho81 2.811 . S
C92 C93 1.488 1_565 S
C92 O108 1.215 . S
C92 O109 1.289 1_565 S
C93 C92 1.488 1_545 S
C93 C94 1.348 . S
C93 C98 1.413 1_545 S
C94 C93 1.348 . S
C94 C95 1.442 . S
C94 H116 0.930 . S
C95 C94 1.442 . S
C95 C96 1.381 . S
C95 H117 0.931 . S
C96 C95 1.381 . S
C96 C97 1.321 1_655 S
C97 C96 1.321 1_455 S
C97 C98 1.403 1_445 S
C97 H118 0.934 . S
C98 C93 1.413 1_565 S
C98 C97 1.403 1_665 S
C98 H119 0.930 . S
C99 O110 1.275 . S
C99 O111 1.256 . S
O100 Ho80 2.322 . S
O100 C82 1.259 . S
O101 Ho81 2.346 . S
O101 C82 1.268 . S
O102 Ho80 2.378 . S
O102 C83 1.215 . S
O103 Ho80 2.524 . S
O103 C83 1.289 . S
O104 Ho80 2.381 . S
O104 C90 1.275 . S
O105 Ho80 2.669 . S
O105 Ho81 2.305 . S
O105 C90 1.256 . S
O106 Ho81 2.322 . S
O106 C91 1.259 . S
O107 Ho80 2.346 . S
O107 C91 1.268 . S
O108 Ho81 2.378 . S
O108 C92 1.215 . S
O109 Ho81 2.524 1_545 S
O109 C92 1.289 1_545 S
O110 Ho81 2.381 . S
O110 C99 1.275 . S
O111 Ho80 2.305 . S
O111 Ho81 2.669 . S
O111 C99 1.256 . S
H112 C85 0.930 . S
H113 C86 0.931 . S
H114 C88 0.934 . S
H115 C89 0.930 . S
H116 C94 0.930 . S
H117 C95 0.931 . S
H118 C97 0.934 . S
H119 C98 0.930 . S
Ho120 C123 2.811 . S
Ho120 O140 2.322 . S
Ho120 O142 2.378 . S
Ho120 O143 2.524 . S
Ho120 O144 2.381 . S
Ho120 O145 2.669 . S
Ho120 O147 2.346 . S
Ho120 O151 2.305 . S
Ho121 C132 2.811 1_554 S
Ho121 O141 2.346 . S
Ho121 O145 2.305 . S
Ho121 O146 2.322 1_554 S
Ho121 O148 2.378 1_554 S
Ho121 O149 2.524 1_554 S
Ho121 O150 2.381 1_655 S
Ho121 O151 2.669 . S
C122 O140 1.259 . S
C122 O141 1.268 . S
C123 Ho120 2.811 . S
C123 C124 1.488 . S
C123 O142 1.215 . S
C123 O143 1.289 . S
C124 C123 1.488 . S
C124 C125 1.348 . S
C124 C129 1.413 . S
C125 C124 1.348 . S
C125 C126 1.442 . S
C125 H152 0.930 . S
C126 C125 1.442 . S
C126 C127 1.381 . S
C126 H153 0.931 . S
C127 C126 1.381 . S
C127 C128 1.321 . S
C128 C127 1.321 . S
C128 C129 1.403 . S
C128 H154 0.934 . S
C129 C124 1.413 . S
C129 C128 1.403 . S
C129 H155 0.930 . S
C130 O144 1.275 . S
C130 O145 1.256 . S
C131 O146 1.259 . S
C131 O147 1.268 1_556 S
C132 Ho121 2.811 1_556 S
C132 C133 1.488 . S
C132 O148 1.215 . S
C132 O149 1.289 . S
C133 C132 1.488 . S
C133 C134 1.348 . S
C133 C138 1.413 . S
C134 C133 1.348 . S
C134 C135 1.442 . S
C134 H156 0.930 . S
C135 C134 1.442 . S
C135 C136 1.381 . S
C135 H157 0.931 . S
C136 C135 1.381 . S
C136 C137 1.321 1_565 S
C137 C136 1.321 1_545 S
C137 C138 1.403 1_545 S
C137 H158 0.934 1_655 S
C138 C133 1.413 . S
C138 C137 1.403 1_565 S
C138 H159 0.930 1_655 S
C139 O150 1.275 . S
C139 O151 1.256 1_455 S
O140 Ho120 2.322 . S
O140 C122 1.259 . S
O141 Ho121 2.346 . S
O141 C122 1.268 . S
O142 Ho120 2.378 . S
O142 C123 1.215 . S
O143 Ho120 2.524 . S
O143 C123 1.289 . S
O144 Ho120 2.381 . S
O144 C130 1.275 . S
O145 Ho120 2.669 . S
O145 Ho121 2.305 . S
O145 C130 1.256 . S
O146 Ho121 2.322 1_556 S
O146 C131 1.259 . S
O147 Ho120 2.346 . S
O147 C131 1.268 1_554 S
O148 Ho121 2.378 1_556 S
O148 C132 1.215 . S
O149 Ho121 2.524 1_556 S
O149 C132 1.289 . S
O150 Ho121 2.381 1_455 S
O150 C139 1.275 . S
O151 Ho120 2.305 . S
O151 Ho121 2.669 . S
O151 C139 1.256 1_655 S
H152 C125 0.930 . S
H153 C126 0.931 . S
H154 C128 0.934 . S
H155 C129 0.930 . S
H156 C134 0.930 . S
H157 C135 0.931 . S
H158 C137 0.934 1_455 S
H159 C138 0.930 1_455 S
Ho160 C163 2.811 . S
Ho160 O180 2.322 . S
Ho160 O182 2.378 . S
Ho160 O183 2.524 . S
Ho160 O184 2.381 . S
Ho160 O185 2.669 . S
Ho160 O187 2.346 . S
Ho160 O191 2.305 . S
Ho161 C172 2.811 . S
Ho161 O181 2.346 . S
Ho161 O185 2.305 . S
Ho161 O186 2.322 . S
Ho161 O188 2.378 . S
Ho161 O189 2.524 1_455 S
Ho161 O190 2.381 1_565 S
Ho161 O191 2.669 . S
C162 O180 1.259 . S
C162 O181 1.268 . S
C163 Ho160 2.811 . S
C163 C164 1.488 . S
C163 O182 1.215 . S
C163 O183 1.289 . S
C164 C163 1.488 . S
C164 C165 1.348 . S
C164 C169 1.413 . S
C165 C164 1.348 . S
C165 C166 1.442 . S
C165 H192 0.930 . S
C166 C165 1.442 . S
C166 C167 1.381 . S
C166 H193 0.931 . S
C167 C166 1.381 . S
C167 C168 1.321 . S
C168 C167 1.321 . S
C168 C169 1.403 . S
C168 H194 0.934 . S
C169 C164 1.413 . S
C169 C168 1.403 . S
C169 H195 0.930 . S
C170 O184 1.275 . S
C170 O185 1.256 . S
C171 O186 1.259 . S
C171 O187 1.268 . S
C172 Ho161 2.811 . S
C172 C173 1.488 1_455 S
C172 O188 1.215 . S
C172 O189 1.289 1_455 S
C173 C172 1.488 1_655 S
C173 C174 1.348 . S
C173 C178 1.413 1_655 S
C174 C173 1.348 . S
C174 C175 1.442 . S
C174 H196 0.930 . S
C175 C174 1.442 . S
C175 C176 1.381 . S
C175 H197 0.931 . S
C176 C175 1.381 . S
C176 C177 1.321 . S
C177 C176 1.321 . S
C177 C178 1.403 1_655 S
C177 H198 0.934 1_565 S
C178 C173 1.413 1_455 S
C178 C177 1.403 1_455 S
C178 H199 0.930 1_565 S
C179 O190 1.275 . S
C179 O191 1.256 1_545 S
O180 Ho160 2.322 . S
O180 C162 1.259 . S
O181 Ho161 2.346 . S
O181 C162 1.268 . S
O182 Ho160 2.378 . S
O182 C163 1.215 . S
O183 Ho160 2.524 . S
O183 C163 1.289 . S
O184 Ho160 2.381 . S
O184 C170 1.275 . S
O185 Ho160 2.669 . S
O185 Ho161 2.305 . S
O185 C170 1.256 . S
O186 Ho161 2.322 . S
O186 C171 1.259 . S
O187 Ho160 2.346 . S
O187 C171 1.268 . S
O188 Ho161 2.378 . S
O188 C172 1.215 . S
O189 Ho161 2.524 1_655 S
O189 C172 1.289 1_655 S
O190 Ho161 2.381 1_545 S
O190 C179 1.275 . S
O191 Ho160 2.305 . S
O191 Ho161 2.669 . S
O191 C179 1.256 1_565 S
H192 C165 0.930 . S
H193 C166 0.931 . S
H194 C168 0.934 . S
H195 C169 0.930 . S
H196 C174 0.930 . S
H197 C175 0.931 . S
H198 C177 0.934 1_545 S
H199 C178 0.930 1_545 S
Ho200 C203 2.811 . S
Ho200 O220 2.322 . S
Ho200 O222 2.378 . S
Ho200 O223 2.524 . S
Ho200 O224 2.381 . S
Ho200 O225 2.669 . S
Ho200 O227 2.346 . S
Ho200 O231 2.305 . S
Ho201 C212 2.811 . S
Ho201 O221 2.346 . S
Ho201 O225 2.305 . S
Ho201 O226 2.322 . S
Ho201 O228 2.378 . S
Ho201 O229 2.524 1_545 S
Ho201 O230 2.381 . S
Ho201 O231 2.669 . S
C202 O220 1.259 . S
C202 O221 1.268 . S
C203 Ho200 2.811 . S
C203 C204 1.488 . S
C203 O222 1.215 . S
C203 O223 1.289 . S
C204 C203 1.488 . S
C204 C205 1.348 . S
C204 C209 1.413 . S
C205 C204 1.348 . S
C205 C206 1.442 . S
C205 H232 0.930 . S
C206 C205 1.442 . S
C206 C207 1.381 . S
C206 H233 0.931 . S
C207 C206 1.381 . S
C207 C208 1.321 . S
C208 C207 1.321 . S
C208 C209 1.403 . S
C208 H234 0.934 . S
C209 C204 1.413 . S
C209 C208 1.403 . S
C209 H235 0.930 . S
C210 O224 1.275 . S
C210 O225 1.256 . S
C211 O226 1.259 . S
C211 O227 1.268 . S
C212 Ho201 2.811 . S
C212 C213 1.488 1_545 S
C212 O228 1.215 . S
C212 O229 1.289 1_545 S
C213 C212 1.488 1_565 S
C213 C214 1.348 . S
C213 C218 1.413 1_565 S
C214 C213 1.348 . S
C214 C215 1.442 . S
C214 H236 0.930 . S
C215 C214 1.442 . S
C215 C216 1.381 . S
C215 H237 0.931 . S
C216 C215 1.381 . S
C216 C217 1.321 1_455 S
C217 C216 1.321 1_655 S
C217 C218 1.403 1_665 S
C217 H238 0.934 . S
C218 C213 1.413 1_545 S
C218 C217 1.403 1_445 S
C218 H239 0.930 . S
C219 O230 1.275 . S
C219 O231 1.256 . S
O220 Ho200 2.322 . S
O220 C202 1.259 . S
O221 Ho201 2.346 . S
O221 C202 1.268 . S
O222 Ho200 2.378 . S
O222 C203 1.215 . S
O223 Ho200 2.524 . S
O223 C203 1.289 . S
O224 Ho200 2.381 . S
O224 C210 1.275 . S
O225 Ho200 2.669 . S
O225 Ho201 2.305 . S
O225 C210 1.256 . S
O226 Ho201 2.322 . S
O226 C211 1.259 . S
O227 Ho200 2.346 . S
O227 C211 1.268 . S
O228 Ho201 2.378 . S
O228 C212 1.215 . S
O229 Ho201 2.524 1_565 S
O229 C212 1.289 1_565 S
O230 Ho201 2.381 . S
O230 C219 1.275 . S
O231 Ho200 2.305 . S
O231 Ho201 2.669 . S
O231 C219 1.256 . S
H232 C205 0.930 . S
H233 C206 0.931 . S
H234 C208 0.934 . S
H235 C209 0.930 . S
H236 C214 0.930 . S
H237 C215 0.931 . S
H238 C217 0.934 . S
H239 C218 0.930 . S
C171 C7 1.435 . S
C211 C47 1.434 . S
C11 C87 1.435 . S
C51 C127 1.434 . S
C91 C167 1.434 . S
C131 C207 1.434 . S
C10 C130 1.990 . S
C170 C50 1.992 1_455 S
C210 C90 1.991 1_545 S
C99 C219 2.992 . S
C19 C139 2.993 1_655 S
C179 C59 2.994 1_545 S
C202 C16 2.100 . S
C56 C2 2.101 . S
C96 C42 2.099 . S
C82 C136 2.100 . S
C176 C122 2.101 . S
C216 C162 2.099 . S
