# Generated by pormake.
# Topology wlq, (5)-cn, num edge types: 1
# Building blocks:
#     Node 0, Type 0, BuildingBlock: BEQFEK_clean_sbu_0, # of connection points: 5
#     Node 1, Type 0, BuildingBlock: BEQFEK_clean_sbu_0, # of connection points: 5
#     Node 2, Type 0, BuildingBlock: BEQFEK_clean_sbu_0, # of connection points: 5
#     Node 3, Type 0, BuildingBlock: BEQFEK_clean_sbu_0, # of connection points: 5
#     Node 4, Type 0, BuildingBlock: BEQFEK_clean_sbu_0, # of connection points: 5
#     Node 5, Type 0, BuildingBlock: BEQFEK_clean_sbu_0, # of connection points: 5
#     Node 6, Type 0, BuildingBlock: BEQFEK_clean_sbu_0, # of connection points: 5
#     Node 7, Type 0, BuildingBlock: BEQFEK_clean_sbu_0, # of connection points: 5
#     Node 8, Type 0, BuildingBlock: BEQFEK_clean_sbu_0, # of connection points: 5
#     Node 9, Type 0, BuildingBlock: BEQFEK_clean_sbu_0, # of connection points: 5
#     Node 10, Type 0, BuildingBlock: BEQFEK_clean_sbu_0, # of connection points: 5
#     Node 11, Type 0, BuildingBlock: BEQFEK_clean_sbu_0, # of connection points: 5
#     Node 12, Type 0, BuildingBlock: BEQFEK_clean_sbu_0, # of connection points: 5
#     Node 13, Type 0, BuildingBlock: BEQFEK_clean_sbu_0, # of connection points: 5
#     Node 14, Type 0, BuildingBlock: BEQFEK_clean_sbu_0, # of connection points: 5
#     Node 15, Type 0, BuildingBlock: BEQFEK_clean_sbu_0, # of connection points: 5
#     Node 16, Type 0, BuildingBlock: BEQFEK_clean_sbu_0, # of connection points: 5
#     Node 17, Type 0, BuildingBlock: BEQFEK_clean_sbu_0, # of connection points: 5
#     Node 18, Type 0, BuildingBlock: BEQFEK_clean_sbu_0, # of connection points: 5
#     Node 19, Type 0, BuildingBlock: BEQFEK_clean_sbu_0, # of connection points: 5
#     Node 20, Type 0, BuildingBlock: BEQFEK_clean_sbu_0, # of connection points: 5
#     Node 21, Type 0, BuildingBlock: BEQFEK_clean_sbu_0, # of connection points: 5
#     Node 22, Type 0, BuildingBlock: BEQFEK_clean_sbu_0, # of connection points: 5
#     Node 23, Type 0, BuildingBlock: BEQFEK_clean_sbu_0, # of connection points: 5
#     Node 24, Type 0, BuildingBlock: BEQFEK_clean_sbu_0, # of connection points: 5
#     Node 25, Type 0, BuildingBlock: BEQFEK_clean_sbu_0, # of connection points: 5
#     Node 26, Type 0, BuildingBlock: BEQFEK_clean_sbu_0, # of connection points: 5
#     Node 27, Type 0, BuildingBlock: BEQFEK_clean_sbu_0, # of connection points: 5
#     Node 28, Type 0, BuildingBlock: BEQFEK_clean_sbu_0, # of connection points: 5
#     Node 29, Type 0, BuildingBlock: BEQFEK_clean_sbu_0, # of connection points: 5
#     Node 30, Type 0, BuildingBlock: BEQFEK_clean_sbu_0, # of connection points: 5
#     Node 31, Type 0, BuildingBlock: BEQFEK_clean_sbu_0, # of connection points: 5
#     Node 32, Type 0, BuildingBlock: BEQFEK_clean_sbu_0, # of connection points: 5
#     Node 33, Type 0, BuildingBlock: BEQFEK_clean_sbu_0, # of connection points: 5
#     Node 34, Type 0, BuildingBlock: BEQFEK_clean_sbu_0, # of connection points: 5
#     Node 35, Type 0, BuildingBlock: BEQFEK_clean_sbu_0, # of connection points: 5
#     Edge 36, Type (0, 0), BuildingBlock: CIFDUS_clean_linker_0, # of connection points: 2
#     Edge 37, Type (0, 0), BuildingBlock: CIFDUS_clean_linker_0, # of connection points: 2
#     Edge 38, Type (0, 0), BuildingBlock: CIFDUS_clean_linker_0, # of connection points: 2
#     Edge 39, Type (0, 0), BuildingBlock: CIFDUS_clean_linker_0, # of connection points: 2
#     Edge 40, Type (0, 0), BuildingBlock: CIFDUS_clean_linker_0, # of connection points: 2
#     Edge 41, Type (0, 0), BuildingBlock: CIFDUS_clean_linker_0, # of connection points: 2
#     Edge 42, Type (0, 0), BuildingBlock: CIFDUS_clean_linker_0, # of connection points: 2
#     Edge 43, Type (0, 0), BuildingBlock: CIFDUS_clean_linker_0, # of connection points: 2
#     Edge 44, Type (0, 0), BuildingBlock: CIFDUS_clean_linker_0, # of connection points: 2
#     Edge 45, Type (0, 0), BuildingBlock: CIFDUS_clean_linker_0, # of connection points: 2
#     Edge 46, Type (0, 0), BuildingBlock: CIFDUS_clean_linker_0, # of connection points: 2
#     Edge 47, Type (0, 0), BuildingBlock: CIFDUS_clean_linker_0, # of connection points: 2
#     Edge 48, Type (0, 0), BuildingBlock: CIFDUS_clean_linker_0, # of connection points: 2
#     Edge 49, Type (0, 0), BuildingBlock: CIFDUS_clean_linker_0, # of connection points: 2
#     Edge 50, Type (0, 0), BuildingBlock: CIFDUS_clean_linker_0, # of connection points: 2
#     Edge 51, Type (0, 0), BuildingBlock: CIFDUS_clean_linker_0, # of connection points: 2
#     Edge 52, Type (0, 0), BuildingBlock: CIFDUS_clean_linker_0, # of connection points: 2
#     Edge 53, Type (0, 0), BuildingBlock: CIFDUS_clean_linker_0, # of connection points: 2
#     Edge 54, Type (0, 0), BuildingBlock: CIFDUS_clean_linker_0, # of connection points: 2
#     Edge 55, Type (0, 0), BuildingBlock: CIFDUS_clean_linker_0, # of connection points: 2
#     Edge 56, Type (0, 0), BuildingBlock: CIFDUS_clean_linker_0, # of connection points: 2
#     Edge 57, Type (0, 0), BuildingBlock: CIFDUS_clean_linker_0, # of connection points: 2
#     Edge 58, Type (0, 0), BuildingBlock: CIFDUS_clean_linker_0, # of connection points: 2
#     Edge 59, Type (0, 0), BuildingBlock: CIFDUS_clean_linker_0, # of connection points: 2
#     Edge 60, Type (0, 0), BuildingBlock: CIFDUS_clean_linker_0, # of connection points: 2
#     Edge 61, Type (0, 0), BuildingBlock: CIFDUS_clean_linker_0, # of connection points: 2
#     Edge 62, Type (0, 0), BuildingBlock: CIFDUS_clean_linker_0, # of connection points: 2
#     Edge 63, Type (0, 0), BuildingBlock: CIFDUS_clean_linker_0, # of connection points: 2
#     Edge 64, Type (0, 0), BuildingBlock: CIFDUS_clean_linker_0, # of connection points: 2
#     Edge 65, Type (0, 0), BuildingBlock: CIFDUS_clean_linker_0, # of connection points: 2
#     Edge 66, Type (0, 0), BuildingBlock: CIFDUS_clean_linker_0, # of connection points: 2
#     Edge 67, Type (0, 0), BuildingBlock: CIFDUS_clean_linker_0, # of connection points: 2
#     Edge 68, Type (0, 0), BuildingBlock: CIFDUS_clean_linker_0, # of connection points: 2
#     Edge 69, Type (0, 0), BuildingBlock: CIFDUS_clean_linker_0, # of connection points: 2
#     Edge 70, Type (0, 0), BuildingBlock: CIFDUS_clean_linker_0, # of connection points: 2
#     Edge 71, Type (0, 0), BuildingBlock: CIFDUS_clean_linker_0, # of connection points: 2
#     Edge 72, Type (0, 0), BuildingBlock: CIFDUS_clean_linker_0, # of connection points: 2
#     Edge 73, Type (0, 0), BuildingBlock: CIFDUS_clean_linker_0, # of connection points: 2
#     Edge 74, Type (0, 0), BuildingBlock: CIFDUS_clean_linker_0, # of connection points: 2
#     Edge 75, Type (0, 0), BuildingBlock: CIFDUS_clean_linker_0, # of connection points: 2
#     Edge 76, Type (0, 0), BuildingBlock: CIFDUS_clean_linker_0, # of connection points: 2
#     Edge 77, Type (0, 0), BuildingBlock: CIFDUS_clean_linker_0, # of connection points: 2
#     Edge 78, Type (0, 0), BuildingBlock: CIFDUS_clean_linker_0, # of connection points: 2
#     Edge 79, Type (0, 0), BuildingBlock: CIFDUS_clean_linker_0, # of connection points: 2
#     Edge 80, Type (0, 0), BuildingBlock: CIFDUS_clean_linker_0, # of connection points: 2
#     Edge 81, Type (0, 0), BuildingBlock: CIFDUS_clean_linker_0, # of connection points: 2
#     Edge 82, Type (0, 0), BuildingBlock: CIFDUS_clean_linker_0, # of connection points: 2
#     Edge 83, Type (0, 0), BuildingBlock: CIFDUS_clean_linker_0, # of connection points: 2
#     Edge 84, Type (0, 0), BuildingBlock: CIFDUS_clean_linker_0, # of connection points: 2
#     Edge 85, Type (0, 0), BuildingBlock: CIFDUS_clean_linker_0, # of connection points: 2
#     Edge 86, Type (0, 0), BuildingBlock: CIFDUS_clean_linker_0, # of connection points: 2
#     Edge 87, Type (0, 0), BuildingBlock: CIFDUS_clean_linker_0, # of connection points: 2
#     Edge 88, Type (0, 0), BuildingBlock: CIFDUS_clean_linker_0, # of connection points: 2
#     Edge 89, Type (0, 0), BuildingBlock: CIFDUS_clean_linker_0, # of connection points: 2
#     Edge 90, Type (0, 0), BuildingBlock: CIFDUS_clean_linker_0, # of connection points: 2
#     Edge 91, Type (0, 0), BuildingBlock: CIFDUS_clean_linker_0, # of connection points: 2
#     Edge 92, Type (0, 0), BuildingBlock: CIFDUS_clean_linker_0, # of connection points: 2
#     Edge 93, Type (0, 0), BuildingBlock: CIFDUS_clean_linker_0, # of connection points: 2
#     Edge 94, Type (0, 0), BuildingBlock: CIFDUS_clean_linker_0, # of connection points: 2
#     Edge 95, Type (0, 0), BuildingBlock: CIFDUS_clean_linker_0, # of connection points: 2
#     Edge 96, Type (0, 0), BuildingBlock: CIFDUS_clean_linker_0, # of connection points: 2
#     Edge 97, Type (0, 0), BuildingBlock: CIFDUS_clean_linker_0, # of connection points: 2
#     Edge 98, Type (0, 0), BuildingBlock: CIFDUS_clean_linker_0, # of connection points: 2
#     Edge 99, Type (0, 0), BuildingBlock: CIFDUS_clean_linker_0, # of connection points: 2
#     Edge 100, Type (0, 0), BuildingBlock: CIFDUS_clean_linker_0, # of connection points: 2
#     Edge 101, Type (0, 0), BuildingBlock: CIFDUS_clean_linker_0, # of connection points: 2
#     Edge 102, Type (0, 0), BuildingBlock: CIFDUS_clean_linker_0, # of connection points: 2
#     Edge 103, Type (0, 0), BuildingBlock: CIFDUS_clean_linker_0, # of connection points: 2
#     Edge 104, Type (0, 0), BuildingBlock: CIFDUS_clean_linker_0, # of connection points: 2
#     Edge 105, Type (0, 0), BuildingBlock: CIFDUS_clean_linker_0, # of connection points: 2
#     Edge 106, Type (0, 0), BuildingBlock: CIFDUS_clean_linker_0, # of connection points: 2
#     Edge 107, Type (0, 0), BuildingBlock: CIFDUS_clean_linker_0, # of connection points: 2
#     Edge 108, Type (0, 0), BuildingBlock: CIFDUS_clean_linker_0, # of connection points: 2
#     Edge 109, Type (0, 0), BuildingBlock: CIFDUS_clean_linker_0, # of connection points: 2
#     Edge 110, Type (0, 0), BuildingBlock: CIFDUS_clean_linker_0, # of connection points: 2
#     Edge 111, Type (0, 0), BuildingBlock: CIFDUS_clean_linker_0, # of connection points: 2
#     Edge 112, Type (0, 0), BuildingBlock: CIFDUS_clean_linker_0, # of connection points: 2
#     Edge 113, Type (0, 0), BuildingBlock: CIFDUS_clean_linker_0, # of connection points: 2
#     Edge 114, Type (0, 0), BuildingBlock: CIFDUS_clean_linker_0, # of connection points: 2
#     Edge 115, Type (0, 0), BuildingBlock: CIFDUS_clean_linker_0, # of connection points: 2
#     Edge 116, Type (0, 0), BuildingBlock: CIFDUS_clean_linker_0, # of connection points: 2
#     Edge 117, Type (0, 0), BuildingBlock: CIFDUS_clean_linker_0, # of connection points: 2
#     Edge 118, Type (0, 0), BuildingBlock: CIFDUS_clean_linker_0, # of connection points: 2
#     Edge 119, Type (0, 0), BuildingBlock: CIFDUS_clean_linker_0, # of connection points: 2
#     Edge 120, Type (0, 0), BuildingBlock: CIFDUS_clean_linker_0, # of connection points: 2
#     Edge 121, Type (0, 0), BuildingBlock: CIFDUS_clean_linker_0, # of connection points: 2
#     Edge 122, Type (0, 0), BuildingBlock: CIFDUS_clean_linker_0, # of connection points: 2
#     Edge 123, Type (0, 0), BuildingBlock: CIFDUS_clean_linker_0, # of connection points: 2
#     Edge 124, Type (0, 0), BuildingBlock: CIFDUS_clean_linker_0, # of connection points: 2
#     Edge 125, Type (0, 0), BuildingBlock: CIFDUS_clean_linker_0, # of connection points: 2
# Relax obj value: 0.136
# Max RMSD: 0.147
# Mean RMSD: 0.147
data_MOF--net-wlq--node1-BEQFEK_clean_sbu_0--edge1-CIFDUS_clean_linker_0
_symmetry_space_group_name_H-M    P1
_symmetry_Int_Tables_number       1
_symmetry_cell_setting            triclinic
loop_
_symmetry_equiv_pos_as_xyz
'x, y, z'
_cell_length_a     65.804279
_cell_length_b     65.775375
_cell_length_c     34.252477
_cell_angle_alpha  90.015955
_cell_angle_beta   89.997608
_cell_angle_gamma 119.98308
loop_
_atom_site_label
_atom_site_type_symbol
_atom_site_fract_x
_atom_site_fract_y
_atom_site_fract_z
_atom_type_partial_charge
Co0 Co 0.2257 0.20216 0.96988 0.0
Co1 Co 0.2371 0.20406 0.0602 0.0
C2 C 0.27456 0.23215 1.00201 0.0
O3 O 0.25941 0.22287 0.97511 0.0
O4 O 0.26877 0.22751 0.03789 0.0
C5 C 0.23116 0.2231 0.8956 0.0
O6 O 0.2472 0.2413 0.91501 0.0
C7 C 0.24379 0.22048 0.14369 0.0
C8 C 0.2355 0.18758 0.17393 0.0
C9 C 0.2416 0.21071 0.1807 0.0
N10 N 0.23891 0.20372 0.11659 0.0
N11 N 0.23414 0.1842 0.13509 0.0
C12 C 0.2519 0.24558 0.1341 0.0
H13 H 0.25655 0.24907 0.1027 0.0
H14 H 0.23783 0.24966 0.14053 0.0
H15 H 0.26726 0.25727 0.15248 0.0
C16 C 0.19212 0.21567 0.99928 0.0
N17 N 0.20952 0.21096 0.00541 0.0
N18 N 0.21241 0.20966 0.04321 0.0
C19 C 0.1957 0.212 0.06227 0.0
C20 C 0.18245 0.21621 0.0351 0.0
C21 C 0.18572 0.22041 0.95972 0.0
H22 H 0.20184 0.23106 0.94244 0.0
H23 H 0.17601 0.23014 0.9616 0.0
H24 H 0.17484 0.20352 0.94426 0.0
O25 O 0.21866 0.16965 0.98016 0.0
O26 O 0.22971 0.17225 0.04215 0.0
H27 H 0.19552 0.19408 0.11497 0.0
H28 H 0.17098 0.19886 0.10994 0.0
C29 C 0.19008 0.20661 0.10469 0.0
H30 H 0.19938 0.22303 0.12186 0.0
H31 H 0.22965 0.16839 0.12118 0.0
O32 O 0.21814 0.20413 0.91397 0.0
C33 C 0.22216 0.16062 0.0105 0.0
Co34 Co 0.80883 0.02571 0.96681 0.0
Co35 Co 0.79505 0.03363 0.05178 0.0
C36 C 0.76976 0.03696 0.98355 0.0
O37 O 0.78372 0.03351 0.96267 0.0
O38 O 0.77072 0.03673 0.02083 0.0
C39 C 0.79273 0.0031 0.89495 0.0
O40 O 0.77265 0.99633 0.91272 0.0
C41 C 0.7763 0.02806 0.13458 0.0
C42 C 0.80975 0.05139 0.16459 0.0
C43 C 0.78615 0.03637 0.17133 0.0
N44 N 0.79354 0.03766 0.10754 0.0
N45 N 0.81335 0.05176 0.12596 0.0
C46 C 0.75087 0.01257 0.12526 0.0
H47 H 0.74832 0.00909 0.0934 0.0
H48 H 0.74367 0.99577 0.14137 0.0
H49 H 0.74101 0.02128 0.135 0.0
C50 C 0.80128 0.98198 1.00262 0.0
N51 N 0.80128 0.00237 0.00478 0.0
N52 N 0.79504 0.00498 0.04016 0.0
C53 C 0.79081 0.98604 0.06168 0.0
C54 C 0.7945 0.97081 0.03847 0.0
C55 C 0.80896 0.9741 0.9674 0.0
H56 H 0.82388 0.9894 0.95309 0.0
H57 H 0.79422 0.96597 0.94629 0.0
H58 H 0.81432 0.96108 0.9752 0.0
O59 O 0.83803 0.05433 0.98033 0.0
O60 O 0.82623 0.06078 0.03727 0.0
H61 H 0.79499 0.99692 0.12142 0.0
H62 H 0.77986 0.9654 0.11501 0.0
C63 C 0.78234 0.98212 0.10297 0.0
H64 H 0.76524 0.98149 0.10393 0.0
H65 H 0.82962 0.06125 0.1123 0.0
O66 O 0.81172 0.01526 0.91373 0.0
C67 C 0.84157 0.06703 0.01037 0.0
Co68 Co 0.96986 0.77874 0.98238 0.0
Co69 Co 0.96687 0.76347 0.07007 0.0
C70 C 0.95923 0.72987 0.00746 0.0
O71 O 0.96158 0.74552 0.98325 0.0
O72 O 0.96155 0.73405 0.04402 0.0
C73 C 0.99157 0.78121 0.91286 0.0
O74 O 0.00031 0.7716 0.93608 0.0
C75 C 0.97816 0.753 0.14965 0.0
C76 C 0.9609 0.76783 0.1858 0.0
C77 C 0.97454 0.75729 0.18809 0.0
N78 N 0.9674 0.76103 0.12585 0.0
N79 N 0.95687 0.76954 0.14782 0.0
C80 C 0.99051 0.74038 0.13596 0.0
H81 H 0.98744 0.73633 0.10437 0.0
H82 H 0.00963 0.75126 0.14105 0.0
H83 H 0.98421 0.72392 0.1529 0.0
C84 C 0.01521 0.81764 0.0092 0.0
N85 N 0.99539 0.79714 0.01554 0.0
N86 N 0.99482 0.7907 0.05209 0.0
C87 C 0.01458 0.80695 0.07011 0.0
C88 C 0.02818 0.82454 0.04347 0.0
C89 C 0.02052 0.8313 0.97197 0.0
H90 H 0.00405 0.82858 0.95841 0.0
H91 H 0.02919 0.825 0.95137 0.0
H92 H 0.03238 0.85033 0.97715 0.0
O93 O 0.94226 0.78076 0.99822 0.0
O94 O 0.93926 0.76747 0.05881 0.0
H95 H 0.00758 0.80611 0.13125 0.0
H96 H 0.03847 0.81929 0.11958 0.0
C97 C 0.02056 0.80526 0.11166 0.0
H98 H 0.01963 0.78819 0.11605 0.0
H99 H 0.94745 0.77716 0.13683 0.0
O100 O 0.97799 0.78782 0.92715 0.0
C101 C 0.9316 0.7746 0.03084 0.0
Co102 Co 0.19069 0.21609 0.59291 0.0
Co103 Co 0.19957 0.23381 0.50505 0.0
C104 C 0.22734 0.26584 0.56908 0.0
O105 O 0.21515 0.24925 0.59268 0.0
O106 O 0.22419 0.26297 0.53221 0.0
C107 C 0.20931 0.21346 0.66539 0.0
O108 O 0.22886 0.22693 0.64637 0.0
C109 C 0.21781 0.24516 0.42207 0.0
C110 C 0.18412 0.23185 0.39096 0.0
C111 C 0.20798 0.24175 0.38485 0.0
N112 N 0.20035 0.23727 0.44875 0.0
N113 N 0.18036 0.2296 0.42969 0.0
C114 C 0.24333 0.257 0.43211 0.0
H115 H 0.24581 0.25761 0.46423 0.0
H116 H 0.25158 0.24762 0.41849 0.0
H117 H 0.25228 0.2751 0.42017 0.0
C118 C 0.19802 0.17933 0.55944 0.0
N119 N 0.19742 0.19934 0.5558 0.0
N120 N 0.2016 0.20653 0.51924 0.0
C121 C 0.20516 0.19112 0.49845 0.0
C122 C 0.20309 0.17346 0.52332 0.0
C123 C 0.19202 0.16529 0.59634 0.0
H124 H 0.17751 0.16595 0.6116 0.0
H125 H 0.20757 0.17303 0.61584 0.0
H126 H 0.18672 0.1467 0.59046 0.0
O127 O 0.16056 0.2137 0.58096 0.0
O128 O 0.16789 0.22863 0.52102 0.0
H129 H 0.19701 0.19389 0.4389 0.0
H130 H 0.21423 0.1796 0.44506 0.0
C131 C 0.21125 0.19375 0.45599 0.0
H132 H 0.22757 0.21066 0.45152 0.0
H133 H 0.16397 0.22227 0.44312 0.0
O134 O 0.18989 0.20505 0.64731 0.0
C135 C 0.15434 0.22027 0.55055 0.0
Co136 Co 0.78273 0.9781 0.58947 0.0
Co137 Co 0.77307 0.97488 0.49825 0.0
C138 C 0.7353 0.96498 0.55578 0.0
O139 O 0.74984 0.96843 0.58277 0.0
O140 O 0.74142 0.9672 0.51994 0.0
C141 C 0.77738 0.99276 0.6638 0.0
O142 O 0.76427 0.99859 0.64312 0.0
C143 C 0.76541 0.98542 0.41551 0.0
C144 C 0.77625 0.96312 0.3839 0.0
C145 C 0.7676 0.97823 0.37816 0.0
N146 N 0.77244 0.97491 0.44184 0.0
N147 N 0.77892 0.9617 0.42249 0.0
C148 C 0.75548 0.00075 0.42615 0.0
H149 H 0.75034 0.99848 0.45739 0.0
H150 H 0.76893 0.01938 0.42121 0.0
H151 H 0.74014 0.99663 0.40737 0.0
C152 C 0.82049 0.02511 0.56707 0.0
N153 N 0.80159 0.00446 0.5577 0.0
N154 N 0.79836 0.00335 0.51959 0.0
C155 C 0.8158 0.02313 0.5034 0.0
C156 C 0.83041 0.03762 0.533 0.0
C157 C 0.82822 0.03278 0.60824 0.0
H158 H 0.81298 0.0302 0.62575 0.0
H159 H 0.84185 0.05156 0.61017 0.0
H160 H 0.83492 0.02178 0.62108 0.0
O161 O 0.78667 0.95113 0.57549 0.0
O162 O 0.77909 0.94895 0.51183 0.0
H163 H 0.83831 0.04018 0.45371 0.0
H164 H 0.80819 0.03303 0.44837 0.0
C165 C 0.81985 0.0269 0.46035 0.0
H166 H 0.81561 0.01019 0.4458 0.0
H167 H 0.78504 0.95148 0.43564 0.0
O168 O 0.78899 0.98476 0.64637 0.0
C169 C 0.78431 0.94146 0.54234 0.0
Co170 Co 0.01769 0.80646 0.60593 0.0
Co171 Co 0.02775 0.79933 0.51885 0.0
C172 C 0.03346 0.77233 0.58385 0.0
O173 O 0.0283 0.78352 0.60828 0.0
O174 O 0.03335 0.77588 0.54728 0.0
C175 C 0.00023 0.79058 0.68126 0.0
O176 O 0.99744 0.77099 0.66618 0.0
C177 C 0.01581 0.77602 0.44196 0.0
C178 C 0.0399 0.80495 0.40329 0.0
C179 C 0.02175 0.78185 0.40296 0.0
N180 N 0.0295 0.79496 0.46402 0.0
N181 N 0.04412 0.81205 0.44073 0.0
C182 C 0.99819 0.75264 0.45836 0.0
H183 H 0.00412 0.75003 0.4873 0.0
H184 H 0.98115 0.75188 0.46261 0.0
H185 H 0.99553 0.73827 0.43824 0.0
C186 C 0.97167 0.79416 0.57248 0.0
N187 N 0.99344 0.79742 0.56886 0.0
N188 N 0.99816 0.79676 0.5317 0.0
C189 C 0.97995 0.79463 0.51023 0.0
C190 C 0.96237 0.79254 0.53539 0.0
C191 C 0.95987 0.79165 0.611 0.0
H192 H 0.96418 0.78115 0.63105 0.0
H193 H 0.94052 0.7827 0.60802 0.0
H194 H 0.96642 0.80927 0.62409 0.0
O195 O 0.04498 0.83747 0.59236 0.0
O196 O 0.05345 0.8313 0.53224 0.0
H197 H 0.97076 0.80731 0.45901 0.0
H198 H 0.9727 0.78139 0.45164 0.0
C199 C 0.9808 0.79848 0.46701 0.0
H200 H -0.00084 0.80947 0.45701 0.0
H201 H 0.05646 0.82883 0.45028 0.0
O202 O 0.00748 0.8086 0.65965 0.0
C203 C 0.05793 0.84448 0.56205 0.0
Co204 Co 0.77759 0.80689 0.10119 0.0
Co205 Co 0.75842 0.79251 0.01548 0.0
C206 C 0.72755 0.76854 0.0818 0.0
O207 O 0.74436 0.78245 0.10367 0.0
O208 O 0.72998 0.76917 0.04481 0.0
C209 C 0.78318 0.78686 0.16638 0.0
O210 O 0.77452 0.76979 0.14056 0.0
C211 C 0.7452 0.76959 0.93676 0.0
C212 C 0.75905 0.80118 0.89955 0.0
C213 C 0.74847 0.77697 0.89799 0.0
N214 N 0.75388 0.78871 0.95995 0.0
N215 N 0.76175 0.80743 0.93736 0.0
C216 C 0.73285 0.74483 0.95143 0.0
H217 H 0.73024 0.74438 0.98347 0.0
H218 H 0.74308 0.7361 0.94459 0.0
H219 H 0.71563 0.73474 0.93656 0.0
C220 C 0.81492 0.79939 0.06984 0.0
N221 N 0.7943 0.79878 0.06582 0.0
N222 N 0.78614 0.79178 0.0303 0.0
C223 C 0.80139 0.78743 0.01068 0.0
C224 C 0.82005 0.792 0.03524 0.0
C225 C 0.83041 0.80893 0.10499 0.0
H226 H 0.82588 0.79447 0.12604 0.0
H227 H 0.84916 0.81663 0.09686 0.0
H228 H 0.82777 0.82255 0.11936 0.0
O229 O 0.77952 0.83651 0.08538 0.0
O230 O 0.76348 0.82459 0.02664 0.0
H231 H 0.81162 0.77461 0.9602 0.0
H232 H 0.78073 0.76214 0.96774 0.0
C233 C 0.79783 0.77851 0.96966 0.0
H234 H 0.79755 0.79164 0.94969 0.0
H235 H 0.76972 0.82463 0.94776 0.0
O236 O 0.78818 0.80732 0.15544 0.0
C237 C 0.772 0.84018 0.05339 0.0
Co238 Co 0.19343 0.97314 0.08997 0.0
Co239 Co 0.20311 0.9709 1.00065 0.0
C240 C 0.22949 0.96081 0.05888 0.0
O241 O 0.21695 0.96312 0.08474 0.0
O242 O 0.22726 0.96426 0.02285 0.0
C243 C 0.21524 0.9924 0.1601 0.0
O244 O 0.23331 -0.00054 0.1366 0.0
C245 C 0.22045 0.97888 0.91749 0.0
C246 C 0.18622 0.96114 0.88718 0.0
C247 C 0.21015 0.97285 0.88066 0.0
N248 N 0.20322 0.97094 0.9445 0.0
N249 N 0.18288 0.96043 0.92594 0.0
C250 C 0.24604 0.99047 0.9268 0.0
H251 H 0.24883 0.99019 0.95869 0.0
H252 H 0.25495 0.00895 0.91666 0.0
H253 H 0.25402 0.98144 0.91103 0.0
C254 C 0.20362 0.0205 0.06768 0.0
N255 N 0.20128 -0.00043 0.05851 0.0
N256 N 0.20612 -0.00066 0.02127 0.0
C257 C 0.21198 0.02044 0.00563 0.0
C258 C 0.21074 0.0346 0.0347 0.0
C259 C 0.19788 0.02638 0.10691 0.0
H260 H 0.18308 0.01054 0.12026 0.0
H261 H 0.21342 0.0327 0.12622 0.0
H262 H 0.19314 0.04032 0.10462 0.0
O263 O 0.16257 0.94672 0.07568 0.0
O264 O 0.17151 0.94389 0.0142 0.0
H265 H 0.20518 0.01577 0.94433 0.0
H266 H 0.22556 0.04581 0.95842 0.0
C267 C 0.21978 0.02712 0.96431 0.0
H268 H 0.23455 0.02404 0.9583 0.0
H269 H 0.16659 0.95259 0.93979 0.0
O270 O 0.19464 0.98093 0.14602 0.0
C271 C 0.1572 0.93633 0.0428 0.0
Co272 Co 0.02626 0.21971 0.0836 0.0
Co273 Co 0.03348 0.23943 0.997 0.0
C274 C 0.0387 0.26978 0.06493 0.0
O275 O 0.03468 0.25251 0.08649 0.0
O276 O 0.03863 0.26809 0.02772 0.0
C277 C 0.00415 0.21526 0.15498 0.0
O278 O 0.9972 0.22786 0.13537 0.0
C279 C 0.0252 0.25192 0.91545 0.0
C280 C 0.04885 0.24341 0.88256 0.0
C281 C 0.03286 0.251 0.87785 0.0
N282 N 0.03609 0.24489 0.94106 0.0
N283 N 0.05035 0.24011 0.92092 0.0
C284 C 0.00906 0.26075 0.92687 0.0
H285 H 0.00522 0.25827 0.95864 0.0
H286 H 0.99253 0.25163 0.9099 0.0
H287 H 0.01748 0.27971 0.91974 0.0
C288 C 0.98181 0.18356 0.0502 0.0
N289 N 0.00221 0.2038 0.04666 0.0
N290 N 0.00446 0.21174 0.01064 0.0
C291 C 0.98533 0.19643 0.99004 0.0
C292 C 0.97032 0.17824 0.01461 0.0
C293 C 0.97444 0.16873 0.08629 0.0
H294 H 0.96667 0.17583 0.10722 0.0
H295 H 0.96126 0.15022 0.07964 0.0
H296 H 0.98992 0.16931 0.10027 0.0
O297 O 0.05427 0.21811 0.0694 0.0
O298 O 0.05928 0.23258 0.00917 0.0
H299 H 0.96553 0.18377 0.93609 0.0
H300 H 0.97895 0.21462 0.94475 0.0
C301 C 0.98138 0.19925 0.94787 0.0
H302 H 0.99689 0.20233 0.93054 0.0
H303 H 0.06081 0.23404 0.93325 0.0
O304 O 0.0162 0.20778 0.13757 0.0
C305 C 0.06556 0.22432 0.03741 0.0
Co306 Co 0.79606 0.77536 0.47753 0.0
Co307 Co 0.78958 0.76235 0.56691 0.0
C308 C 0.76441 0.72604 0.50414 0.0
O309 O 0.77423 0.74147 0.47774 0.0
O310 O 0.76838 0.73149 0.54021 0.0
C311 C 0.78467 0.77395 0.39714 0.0
O312 O 0.76718 0.75337 0.40727 0.0
C313 C 0.76607 0.75312 0.64401 0.0
C314 C 0.79497 0.75831 0.68312 0.0
C315 C 0.77193 0.75349 0.68317 0.0
N316 N 0.78495 0.75789 0.62213 0.0
N317 N 0.80203 0.76065 0.64574 0.0
C318 C 0.74269 0.74708 0.62737 0.0
H319 H 0.7409 0.74008 0.5973 0.0
H320 H 0.74103 0.763 0.62583 0.0
H321 H 0.72835 0.73404 0.64618 0.0
C322 C 0.78229 0.80924 0.50458 0.0
N323 N 0.78551 0.79092 0.51145 0.0
N324 N 0.78483 0.78722 0.54931 0.0
C325 C 0.78282 0.80424 0.56792 0.0
C326 C 0.78077 0.8186 0.54016 0.0
C327 C 0.78057 0.81729 0.46446 0.0
H328 H 0.77072 0.80188 0.44513 0.0
H329 H 0.77148 0.82765 0.46485 0.0
H330 H 0.79847 0.82818 0.45226 0.0
O331 O 0.82761 0.78124 0.4937 0.0
O332 O 0.82277 0.77213 0.55689 0.0
H333 H 0.79694 0.82878 0.61574 0.0
H334 H 0.7707 0.80183 0.62674 0.0
C335 C 0.78751 0.80955 0.6106 0.0
H336 H 0.79829 0.80232 0.62227 0.0
H337 H 0.81873 0.76471 0.63639 0.0
O338 O 0.79915 0.78709 0.42296 0.0
C339 C 0.83558 0.77926 0.52649 0.0
Co340 Co 0.21922 0.02552 0.4659 0.0
Co341 Co 0.23487 0.02914 0.5537 0.0
C342 C 0.26837 0.03685 0.49069 0.0
O343 O 0.25267 0.03443 0.46644 0.0
O344 O 0.26418 0.03433 0.52731 0.0
C345 C 0.21782 0.00791 0.39078 0.0
O346 O 0.23287 0.00295 0.40715 0.0
C347 C 0.24547 0.02072 0.63597 0.0
C348 C 0.23434 0.04282 0.66757 0.0
C349 C 0.24359 0.02825 0.6731 0.0
N350 N 0.23764 0.03052 0.60972 0.0
N351 N 0.23112 0.04373 0.62905 0.0
C352 C 0.25596 0.00585 0.62559 0.0
H353 H 0.2559 0.00355 0.59347 0.0
H354 H 0.24598 0.98845 0.63987 0.0
H355 H 0.27422 0.01426 0.63674 0.0
C356 C 0.1822 0.97923 0.49237 0.0
N357 N 0.20157 -5e-05 0.49946 0.0
N358 N 0.20784 0.00082 0.53622 0.0
C359 C 0.19245 0.98042 0.55371 0.0
C360 C 0.17583 0.96601 0.5263 0.0
C361 C 0.1694 0.97278 0.45419 0.0
H362 H 0.16903 0.98818 0.44188 0.0
H363 H 0.17878 0.96743 0.43337 0.0
H364 H 0.15112 0.9581 0.45754 0.0
O365 O 0.21659 0.05282 0.48132 0.0
O366 O 0.2309 0.05651 0.54111 0.0
H367 H 0.19552 0.98849 0.6147 0.0
H368 H 0.1793 0.95735 0.60404 0.0
C369 C 0.19435 0.97449 0.59518 0.0
H370 H 0.21063 0.97362 0.59855 0.0
H371 H 0.22427 0.05333 0.61599 0.0
O372 O 0.20862 0.01734 0.41115 0.0
C373 C 0.22332 0.06386 0.51348 0.0
Co374 Co 0.97451 0.20621 0.45823 0.0
Co375 Co 0.9702 0.21128 0.54969 0.0
C376 C 0.96239 0.24116 0.49347 0.0
O377 O 0.96628 0.23063 0.46591 0.0
O378 O 0.96326 0.23599 0.5292 0.0
C379 C 0.99189 0.2265 0.38433 0.0
O380 O 0.99785 0.24574 0.40428 0.0
C381 C 0.97854 0.2267 0.63463 0.0
C382 C 0.96214 0.19176 0.66245 0.0
C383 C 0.97356 0.2155 0.67084 0.0
N384 N 0.97042 0.21017 0.60627 0.0
N385 N 0.96068 0.1894 0.62342 0.0
C386 C 0.98953 0.25248 0.6273 0.0
H387 H 0.98766 0.25594 0.59618 0.0
H388 H 0.00845 0.26132 0.63473 0.0
H389 H 0.98129 0.25999 0.64637 0.0
C390 C 0.02081 0.21421 0.4817 0.0
N391 N -0.0001 0.21195 0.49063 0.0
N392 N -0.00111 0.21506 0.52843 0.0
C393 C 0.01942 0.21959 0.54471 0.0
C394 C 0.03403 0.21932 0.51554 0.0
C395 C 0.0273 0.21008 0.44177 0.0
H396 H 0.0118 0.1954 0.42742 0.0
H397 H 0.03317 0.22612 0.42388 0.0
H398 H 0.04162 0.20583 0.44297 0.0
O399 O 0.94671 0.17594 0.46989 0.0
O400 O 0.94373 0.1796 0.53392 0.0
H401 H 0.0136 0.20925 0.60467 0.0
H402 H 0.04378 0.23072 0.5934 0.0
C403 C 0.02517 0.22501 0.58702 0.0
H404 H 0.02173 0.23923 0.59563 0.0
H405 H 0.95299 0.17346 0.6084 0.0
O406 O 0.98222 0.20689 0.40199 0.0
C407 C 0.9364 0.16792 0.50229 0.0
Co408 Co 0.88826 0.53166 0.29689 0.0
Co409 Co 0.90272 0.53942 0.3862 0.0
C410 C 0.93763 0.56598 0.32537 0.0
O411 O 0.92199 0.55406 0.30024 0.0
O412 O 0.93294 0.56348 0.36178 0.0
C413 C 0.89165 0.55388 0.22603 0.0
O414 O 0.90443 0.57177 0.24908 0.0
C415 C 0.91251 0.5574 0.46882 0.0
C416 C 0.90253 0.52428 0.49986 0.0
C417 C 0.91062 0.54791 0.50598 0.0
N418 N 0.90561 0.54 0.44227 0.0
N419 N 0.89984 0.52034 0.46123 0.0
C420 C 0.922 0.58265 0.45848 0.0
H421 H 0.92738 0.58575 0.42735 0.0
H422 H 0.90833 0.58753 0.46312 0.0
H423 H 0.93714 0.59399 0.47756 0.0
C424 C 0.85284 0.54329 0.32615 0.0
N425 N 0.87145 0.54035 0.33196 0.0
N426 N 0.87646 0.54231 0.36952 0.0
C427 C 0.86038 0.54542 0.38898 0.0
C428 C 0.84503 0.54647 0.36216 0.0
C429 C 0.84361 0.54407 0.28654 0.0
H430 H 0.85832 0.55628 0.26771 0.0
H431 H 0.83082 0.55033 0.28748 0.0
H432 H 0.83542 0.52637 0.27309 0.0
O433 O 0.88344 0.49997 0.30988 0.0
O434 O 0.89713 0.5081 0.37053 0.0
H435 H 0.8395 0.53841 0.44127 0.0
H436 H 0.86928 0.56211 0.44482 0.0
C437 C 0.85787 0.54439 0.43249 0.0
H438 H 0.86306 0.53211 0.44489 0.0
H439 H 0.89377 0.50408 0.44781 0.0
O440 O 0.8806 0.53339 0.2408 0.0
C441 C 0.88928 0.49409 0.34161 0.0
Co442 Co 0.46796 0.35043 0.30262 0.0
Co443 Co 0.46339 0.35893 0.39198 0.0
C444 C 0.43477 0.36606 0.33137 0.0
O445 O 0.44514 0.36112 0.30496 0.0
O446 O 0.43931 0.36538 0.36745 0.0
C447 C 0.45256 0.33688 0.22462 0.0
O448 O 0.43368 0.33642 0.23815 0.0
C449 C 0.44499 0.34873 0.47376 0.0
C450 C 0.47622 0.3752 0.5058 0.0
C451 C 0.4534 0.35716 0.51108 0.0
N452 N 0.46223 0.36119 0.44782 0.0
N453 N 0.48075 0.37704 0.46731 0.0
C454 C 0.4206 0.33048 0.46263 0.0
H455 H 0.41852 0.32949 0.4304 0.0
H456 H 0.4166 0.31308 0.47386 0.0
H457 H 0.40786 0.33476 0.47611 0.0
C458 C 0.45589 0.30382 0.33161 0.0
N459 N 0.45971 0.3256 0.33798 0.0
N460 N 0.45974 0.32927 0.37577 0.0
C461 C 0.45736 0.31018 0.39479 0.0
C462 C 0.45465 0.29331 0.36739 0.0
C463 C 0.45214 0.29309 0.2918 0.0
H464 H 0.46938 0.29939 0.27742 0.0
H465 H 0.44175 0.2986 0.2738 0.0
H466 H 0.44256 0.27365 0.29311 0.0
O467 O 0.49938 0.37713 0.31471 0.0
O468 O 0.49503 0.38447 0.37641 0.0
H469 H 0.47204 0.32706 0.44972 0.0
H470 H 0.46862 0.29821 0.44445 0.0
C471 C 0.46062 0.30921 0.43786 0.0
H472 H 0.44331 0.30123 0.45248 0.0
H473 H 0.49663 0.38906 0.45436 0.0
O474 O 0.46934 0.34125 0.24779 0.0
C475 C 0.50737 0.38943 0.34551 0.0
Co476 Co 0.64014 0.11001 0.29762 0.0
Co477 Co 0.63498 0.09763 0.38847 0.0
C478 C 0.62536 0.06119 0.32837 0.0
O479 O 0.63006 0.07638 0.30168 0.0
O480 O 0.62678 0.06666 0.36447 0.0
C481 C 0.65021 0.10694 0.21682 0.0
O482 O 0.64679 0.08635 0.2278 0.0
C483 C 0.64273 0.08713 0.47158 0.0
C484 C 0.62603 0.10433 0.5029 0.0
C485 C 0.63757 0.09186 0.50883 0.0
N486 N 0.63465 0.09657 0.44498 0.0
N487 N 0.62467 0.10672 0.46419 0.0
C488 C 0.65392 0.07284 0.46156 0.0
H489 H 0.65309 0.06961 0.42964 0.0
H490 H 0.67253 0.0822 0.47096 0.0
H491 H 0.64494 0.05589 0.47753 0.0
C492 C 0.68635 0.14712 0.32471 0.0
N493 N 0.66556 0.12779 0.33168 0.0
N494 N 0.66406 0.12233 0.36899 0.0
C495 C 0.68411 0.13799 0.38686 0.0
C496 C 0.69891 0.15423 0.35941 0.0
C497 C 0.69283 0.15969 0.28631 0.0
H498 H 0.67744 0.16003 0.27391 0.0
H499 H 0.69794 0.15001 0.26567 0.0
H500 H 0.70752 0.17798 0.28919 0.0
O501 O 0.61314 0.11367 0.31143 0.0
O502 O 0.60994 0.1051 0.37479 0.0
H503 H 0.67715 0.14086 0.44699 0.0
H504 H 0.70751 0.14978 0.43689 0.0
C505 C 0.68902 0.13712 0.42928 0.0
H506 H 0.68548 0.11927 0.43658 0.0
H507 H 0.61697 0.11546 0.45084 0.0
O508 O 0.64882 0.12038 0.24205 0.0
C509 C 0.60309 0.11102 0.34426 0.0
Co510 Co 0.86369 0.55977 0.91753 0.0
Co511 Co 0.8721 0.57524 0.82866 0.0
C512 C 0.89897 0.60917 0.89197 0.0
O513 O 0.88714 0.59338 0.91705 0.0
O514 O 0.89596 0.60484 0.85541 0.0
C515 C 0.87916 0.55962 0.99486 0.0
O516 O 0.89865 0.5768 0.98028 0.0
C517 C 0.89144 0.5847 0.74688 0.0
C518 C 0.85979 0.57855 0.7146 0.0
C519 C 0.88289 0.58423 0.70941 0.0
N520 N 0.87398 0.57929 0.77274 0.0
N521 N 0.85524 0.57585 0.75306 0.0
C522 C 0.91605 0.59173 0.75816 0.0
H523 H 0.91836 0.59405 0.79027 0.0
H524 H 0.92027 0.57815 0.74886 0.0
H525 H 0.92848 0.60829 0.74308 0.0
C526 C 0.87624 0.52529 0.88778 0.0
N527 N 0.87269 0.54352 0.88207 0.0
N528 N 0.87435 0.54847 0.84453 0.0
C529 C 0.8775 0.53244 0.82492 0.0
C530 C 0.87916 0.51739 0.85169 0.0
C531 C 0.87829 0.51685 0.92738 0.0
H532 H 0.88861 0.5321 0.94671 0.0
H533 H 0.88724 0.50637 0.92627 0.0
H534 H 0.86053 0.50613 0.94017 0.0
O535 O 0.83267 0.55607 0.90312 0.0
O536 O 0.84068 0.56985 0.84261 0.0
H537 H 0.86858 0.51091 0.7732 0.0
H538 H 0.89355 0.53984 0.76857 0.0
C539 C 0.87582 0.52959 0.78147 0.0
H540 H 0.86434 0.53584 0.76926 0.0
H541 H 0.83912 0.57126 0.76581 0.0
O542 O 0.8615 0.54851 0.97254 0.0
C543 C 0.82674 0.56198 0.87156 0.0
Co544 Co 0.44832 0.30573 0.92519 0.0
Co545 Co 0.43382 0.29751 0.83658 0.0
C546 C 0.39884 0.29042 0.89639 0.0
O547 O 0.41454 0.295 0.92196 0.0
O548 O 0.40348 0.2914 0.86003 0.0
C549 C 0.44832 0.32894 0.99259 0.0
O550 O 0.43743 0.33571 0.96823 0.0
C551 C 0.42278 0.30212 0.75269 0.0
C552 C 0.44015 0.28475 0.72403 0.0
C553 C 0.42767 0.29607 0.71631 0.0
N554 N 0.43223 0.29482 0.78051 0.0
N555 N 0.44239 0.28432 0.76296 0.0
C556 C 0.40827 0.31334 0.76085 0.0
H557 H 0.40431 0.3126 0.79247 0.0
H558 H 0.41779 0.33195 0.75147 0.0
H559 H 0.39172 0.30433 0.74383 0.0
C560 C 0.48486 0.35138 0.89435 0.0
N561 N 0.46562 0.33019 0.88943 0.0
N562 N 0.45942 0.32731 0.85241 0.0
C563 C 0.47452 0.34685 0.83261 0.0
C564 C 0.49113 0.36278 0.85857 0.0
C565 C 0.49805 0.35958 0.93202 0.0
H566 H 0.49021 0.36796 0.94996 0.0
H567 H 0.51682 0.37256 0.92691 0.0
H568 H 0.49674 0.34446 0.9485 0.0
O569 O 0.45294 0.27893 0.91521 0.0
O570 O 0.43986 0.27198 0.85417 0.0
H571 H 0.47564 0.33782 0.77298 0.0
H572 H 0.48504 0.36856 0.78049 0.0
C573 C 0.47253 0.35039 0.78996 0.0
H574 H 0.45456 0.34677 0.78368 0.0
H575 H 0.45121 0.2771 0.77758 0.0
O576 O 0.4565 0.31634 0.97979 0.0
C577 C 0.4476 0.26661 0.88428 0.0
Co578 Co 0.69162 0.13937 0.91907 0.0
Co579 Co 0.69811 0.12547 0.83313 0.0
C580 C 0.70386 0.10113 0.90009 0.0
O581 O 0.70051 0.11503 0.92121 0.0
O582 O 0.70275 0.10172 0.8629 0.0
C583 C 0.66603 0.11874 0.98519 0.0
O584 O 0.65796 0.10147 0.95977 0.0
C585 C 0.69087 0.10557 0.75107 0.0
C586 C 0.71267 0.13859 0.71891 0.0
C587 C 0.69801 0.11476 0.71366 0.0
N588 N 0.70078 0.12336 0.77712 0.0
N589 N 0.71394 0.14293 0.75741 0.0
C590 C 0.67611 0.08025 0.76184 0.0
H591 H 0.67297 0.07828 0.79382 0.0
H592 H 0.65913 0.07229 0.74606 0.0
H593 H 0.68522 0.07067 0.7527 0.0
C594 C 0.64725 0.13166 0.88513 0.0
N595 N 0.6674 0.13121 0.88226 0.0
N596 N 0.66938 0.12467 0.84674 0.0
C597 C 0.65027 0.12064 0.82594 0.0
C598 C 0.63562 0.12487 0.84966 0.0
C599 C 0.64031 0.14032 0.92026 0.0
H600 H 0.63031 0.12543 0.94055 0.0
H601 H 0.62904 0.14775 0.91196 0.0
H602 H 0.65614 0.1539 0.93563 0.0
O603 O 0.71951 0.16936 0.9044 0.0
O604 O 0.72463 0.15742 0.84641 0.0
H605 H 0.62868 0.10913 0.77364 0.0
H606 H 0.64603 0.09563 0.78271 0.0
C607 C 0.64588 0.11232 0.78453 0.0
H608 H 0.66006 0.12545 0.76564 0.0
H609 H 0.72343 0.15949 0.77017 0.0
O610 O 0.68085 0.1393 0.97359 0.0
C611 C 0.73124 0.17305 0.87299 0.0
Co612 Co 0.43982 0.12712 0.40471 0.0
Co613 Co 0.42651 0.12167 0.31553 0.0
C614 C 0.3906 0.09544 0.37871 0.0
O615 O 0.40625 0.10502 0.4048 0.0
O616 O 0.39567 0.09989 0.34255 0.0
C617 C 0.4397 0.11427 0.4837 0.0
O618 O 0.42007 0.09575 0.47272 0.0
C619 C 0.41732 0.09894 0.23761 0.0
C620 C 0.42282 0.12831 0.19942 0.0
C621 C 0.41792 0.10523 0.1986 0.0
N622 N 0.42205 0.1176 0.2601 0.0
N623 N 0.42499 0.13496 0.23703 0.0
C624 C 0.41117 0.07536 0.25357 0.0
H625 H 0.40371 0.07315 0.28336 0.0
H626 H 0.42713 0.07381 0.25564 0.0
H627 H 0.39846 0.06122 0.23408 0.0
C628 C 0.47345 0.11362 0.37641 0.0
N629 N 0.45533 0.11717 0.36993 0.0
N630 N 0.45171 0.11705 0.33214 0.0
C631 C 0.46871 0.11514 0.31319 0.0
C632 C 0.48292 0.11262 0.34068 0.0
C633 C 0.48091 0.11065 0.41631 0.0
H634 H 0.46522 0.10033 0.43481 0.0
H635 H 0.49107 0.10136 0.4152 0.0
H636 H 0.49175 0.12815 0.42996 0.0
O637 O 0.44492 0.15848 0.39007 0.0
O638 O 0.43579 0.15472 0.32691 0.0
H639 H 0.49315 0.1294 0.26534 0.0
H640 H 0.46613 0.10326 0.25419 0.0
C641 C 0.47393 0.12001 0.27054 0.0
H642 H 0.4667 0.13087 0.2592 0.0
H643 H 0.4291 0.15159 0.2469 0.0
O644 O 0.45188 0.12998 0.45876 0.0
C645 C 0.44269 0.16694 0.35801 0.0
Co646 Co 0.85879 0.30706 0.40686 0.0
Co647 Co 0.87185 0.30374 0.31922 0.0
C648 C 0.89992 0.30065 0.38414 0.0
O649 O 0.88615 0.30244 0.40816 0.0
O650 O 0.8973 0.30146 0.3473 0.0
C651 C 0.86797 0.32796 0.48395 0.0
O652 O 0.88797 0.34426 0.46925 0.0
C653 C 0.89219 0.31242 0.23732 0.0
C654 C 0.85912 0.29152 0.20474 0.0
C655 C 0.88307 0.30547 0.1998 0.0
N656 N 0.87425 0.30293 0.2631 0.0
N657 N 0.85463 0.29045 0.24314 0.0
C658 C 0.91749 0.32664 0.24847 0.0
H659 H 0.91969 0.32586 0.28045 0.0
H660 H 0.92444 0.34519 0.23981 0.0
H661 H 0.92781 0.32009 0.23265 0.0
C662 C 0.86225 0.35103 0.37696 0.0
N663 N 0.86386 0.33157 0.37219 0.0
N664 N 0.86993 0.33062 0.33583 0.0
C665 C 0.87277 0.34978 0.31657 0.0
C666 C 0.86804 0.36338 0.34202 0.0
C667 C 0.85377 0.35686 0.41352 0.0
H668 H 0.8412 0.34056 0.42901 0.0
H669 H 0.86893 0.36743 0.43297 0.0
H670 H 0.84516 0.36728 0.40682 0.0
O671 O 0.83116 0.27792 0.39052 0.0
O672 O 0.84155 0.27452 0.33044 0.0
H673 H 0.8676 0.34235 0.25547 0.0
H674 H 0.88511 0.37332 0.26671 0.0
C675 C 0.88114 0.35546 0.2753 0.0
H676 H 0.89727 0.35434 0.27204 0.0
H677 H 0.83802 0.28125 0.25574 0.0
O678 O 0.85305 0.31185 0.46199 0.0
C679 C 0.82708 0.26663 0.35871 0.0
Co680 Co 0.6923 0.55262 0.42987 0.0
Co681 Co 0.69196 0.56415 0.34045 0.0
C682 C 0.70323 0.60057 0.40144 0.0
O683 O 0.7004 0.58562 0.42747 0.0
O684 O 0.70051 0.59508 0.36529 0.0
C685 C 0.67047 0.54614 0.50272 0.0
O686 O 0.65752 0.55226 0.48217 0.0
C687 C 0.67893 0.57426 0.26135 0.0
C688 C 0.69385 0.55757 0.22406 0.0
C689 C 0.68165 0.56962 0.22259 0.0
N690 N 0.68899 0.56516 0.28453 0.0
N691 N 0.69795 0.55536 0.26182 0.0
C692 C 0.66825 0.58829 0.27585 0.0
H693 H 0.67206 0.59241 0.30731 0.0
H694 H 0.64898 0.57827 0.2717 0.0
H695 H 0.67514 0.60476 0.25871 0.0
C696 C 0.64516 0.51357 0.40878 0.0
N697 N 0.66521 0.53332 0.39965 0.0
N698 N 0.66424 0.53884 0.36298 0.0
C699 C 0.6432 0.52298 0.34798 0.0
C700 C 0.63038 0.50657 0.37669 0.0
C701 C 0.64114 0.50008 0.44595 0.0
H702 H 0.65806 0.50351 0.45863 0.0
H703 H 0.63194 0.50541 0.46716 0.0
H704 H 0.62991 0.48096 0.44064 0.0
O705 O 0.71914 0.54998 0.4114 0.0
O706 O 0.7182 0.55743 0.34822 0.0
H707 H 0.64671 0.52133 0.2862 0.0
H708 H 0.61683 0.51056 0.30227 0.0
C709 C 0.63545 0.52394 0.30733 0.0
H710 H 0.63757 0.54149 0.3022 0.0
H711 H 0.70671 0.54689 0.27215 0.0
O712 O 0.68683 0.54451 0.48599 0.0
C713 C 0.72714 0.55229 0.3769 0.0
Co714 Co 0.4735 0.11019 0.78046 0.0
Co715 Co 0.4574 0.09088 0.86559 0.0
C716 C 0.43583 0.05954 0.79898 0.0
O717 O 0.45018 0.07668 0.77817 0.0
O718 O 0.43499 0.06177 0.83587 0.0
C719 C 0.45308 0.11343 0.71442 0.0
O720 O 0.43606 0.10452 0.7403 0.0
C721 C 0.43409 0.07856 0.94423 0.0
C722 C 0.46552 0.09224 0.98177 0.0
C723 C 0.44136 0.082 0.98309 0.0
N724 N 0.45323 0.08678 0.92121 0.0
N725 N 0.47185 0.09458 0.94403 0.0
C726 C 0.40942 0.06633 0.92926 0.0
H727 H 0.4092 0.06609 0.89685 0.0
H728 H 0.39979 0.07503 0.93996 0.0
H729 H 0.40009 0.04805 0.94045 0.0
C730 C 0.463 0.1461 0.80827 0.0
N731 N 0.46373 0.12627 0.81404 0.0
N732 N 0.45595 0.11811 0.84929 0.0
C733 C 0.44984 0.13267 0.867 0.0
C734 C 0.45391 0.15071 0.84131 0.0
C735 C 0.47238 0.16126 0.77274 0.0
H736 H 0.48689 0.15956 0.75977 0.0
H737 H 0.45813 0.15565 0.75085 0.0
H738 H 0.47881 0.17995 0.78006 0.0
O739 O 0.50331 0.1134 0.79826 0.0
O740 O 0.49003 0.09685 0.85625 0.0
H741 H 0.45181 0.12805 0.92842 0.0
H742 H 0.43608 0.14315 0.9158 0.0
C743 C 0.43963 0.12899 0.9071 0.0
H744 H 0.42288 0.11215 0.9077 0.0
H745 H 0.48906 0.10225 0.93383 0.0
O746 O 0.47385 0.11979 0.72563 0.0
C747 C 0.50634 0.10585 0.83073 0.0
Co748 Co 0.88137 0.36164 0.79106 0.0
Co749 Co 0.9003 0.36662 0.87745 0.0
C750 C 0.9308 0.37218 0.80947 0.0
O751 O 0.91388 0.36861 0.78723 0.0
O752 O 0.92868 0.37185 0.84662 0.0
C753 C 0.87051 0.34013 0.71512 0.0
O754 O 0.87655 0.32562 0.73049 0.0
C755 C 0.91458 0.3587 0.95784 0.0
C756 C 0.90266 0.37915 0.99242 0.0
C757 C 0.91309 0.36549 0.99583 0.0
N758 N 0.9053 0.36797 0.93325 0.0
N759 N 0.89838 0.38023 0.9544 0.0
C760 C 0.92581 0.34487 0.9451 0.0
H761 H 0.92584 0.34367 0.91278 0.0
H762 H 0.91625 0.32696 0.95768 0.0
H763 H 0.94408 0.35338 0.95628 0.0
C764 C 0.84396 0.31621 0.82299 0.0
N765 N 0.86437 0.33656 0.82654 0.0
N766 N 0.87256 0.3382 0.86226 0.0
C767 C 0.85756 0.31879 0.88243 0.0
C768 C 0.83898 0.3042 0.85819 0.0
C769 C 0.82865 0.30924 0.78753 0.0
H770 H 0.83089 0.32503 0.77207 0.0
H771 H 0.83373 0.29927 0.76751 0.0
H772 H 0.80992 0.29784 0.79551 0.0
O773 O 0.88086 0.38988 0.80787 0.0
O774 O 0.89435 0.39315 0.86829 0.0
H775 H 0.86144 0.3276 0.94312 0.0
H776 H 0.84788 0.29641 0.9337 0.0
C777 C 0.86141 0.31409 0.92369 0.0
H778 H 0.87874 0.31529 0.92582 0.0
H779 H 0.89037 0.38917 0.94297 0.0
O780 O 0.86977 0.3555 0.73657 0.0
C781 C 0.88676 0.40037 0.84052 0.0
Co782 Co 0.63976 0.52611 0.80305 0.0
Co783 Co 0.6342 0.54089 0.88807 0.0
C784 C 0.63044 0.56624 0.81968 0.0
O785 O 0.63348 0.55219 0.79832 0.0
O786 O 0.63071 0.56493 0.85687 0.0
C787 C 0.66644 0.53985 0.73398 0.0
O788 O 0.67949 0.55864 0.75507 0.0
C789 C 0.64496 0.56392 0.96695 0.0
C790 C 0.62283 0.53302 0.00365 0.0
C791 C 0.63929 0.55667 0.00564 0.0
N792 N 0.63268 0.54522 0.94346 0.0
N793 N 0.61918 0.52697 0.96575 0.0
C794 C 0.66062 0.58837 0.95242 0.0
H795 H 0.66383 0.58829 0.92061 0.0
H796 H 0.67751 0.59699 0.96839 0.0
H797 H 0.65196 0.59889 0.9578 0.0
C798 C 0.68335 0.53137 0.83685 0.0
N799 N 0.66377 0.5329 0.83965 0.0
N800 N 0.66233 0.54 0.87502 0.0
C801 C 0.68141 0.54355 0.8956 0.0
C802 C 0.6954 0.5384 0.87187 0.0
C803 C 0.68943 0.52128 0.80257 0.0
H804 H 0.67331 0.50844 0.78698 0.0
H805 H 0.70081 0.53561 0.78223 0.0
H806 H 0.69925 0.51249 0.81215 0.0
O807 O 0.61095 0.49758 0.81872 0.0
O808 O 0.60629 0.5092 0.87725 0.0
H809 H 0.67137 0.54089 0.95564 0.0
H810 H 0.70248 0.55288 0.94841 0.0
C811 C 0.68651 0.55231 0.93673 0.0
H812 H 0.68933 0.57034 0.93758 0.0
H813 H 0.60811 0.51007 0.95518 0.0
O814 O 0.64855 0.52259 0.7493 0.0
C815 C 0.59929 0.49386 0.85013 0.0
Co816 Co 0.56304 0.86663 0.63423 0.0
Co817 Co 0.57661 0.87515 0.72291 0.0
C818 C 0.61172 0.90202 0.66202 0.0
O819 O 0.59653 0.88957 0.63669 0.0
O820 O 0.60661 0.8996 0.69825 0.0
C821 C 0.5657 0.88713 0.56247 0.0
O822 O 0.5786 0.90562 0.58429 0.0
C823 C 0.58329 0.89608 0.80182 0.0
C824 C 0.57593 0.86556 0.8386 0.0
C825 C 0.58081 0.88862 0.84046 0.0
N826 N 0.5795 0.87803 0.77848 0.0
N827 N 0.57552 0.86001 0.80074 0.0
C828 C 0.59021 0.92013 0.78717 0.0
H829 H 0.59999 0.92357 0.7593 0.0
H830 H 0.57438 0.92148 0.78143 0.0
H831 H 0.60113 0.93362 0.80914 0.0
C832 C 0.5266 0.87736 0.66085 0.0
N833 N 0.54561 0.87524 0.66767 0.0
N834 N 0.54972 0.87665 0.70547 0.0
C835 C 0.53243 0.87816 0.72413 0.0
C836 C 0.51743 0.87911 0.69647 0.0
C837 C 0.51811 0.87851 0.62078 0.0
H838 H 0.53311 0.89112 0.60286 0.0
H839 H 0.50511 0.88453 0.62115 0.0
H840 H 0.51038 0.86099 0.60675 0.0
O841 O 0.55877 0.83544 0.64912 0.0
O842 O 0.57198 0.84381 0.71009 0.0
H843 H 0.53489 0.86371 0.77917 0.0
H844 H 0.50871 0.8656 0.77319 0.0
C845 C 0.52783 0.87455 0.76713 0.0
H846 H 0.53613 0.89173 0.78221 0.0
H847 H 0.57169 0.84362 0.79007 0.0
O848 O 0.55501 0.86697 0.57842 0.0
C849 C 0.56442 0.82972 0.6812 0.0
Co850 Co 0.13757 0.69097 0.61623 0.0
Co851 Co 0.12326 0.69291 0.70274 0.0
C852 C 0.10067 0.70396 0.63887 0.0
O853 O 0.11413 0.70128 0.61547 0.0
O854 O 0.10115 0.70062 0.67548 0.0
C855 C 0.12188 0.67306 0.54265 0.0
O856 O 0.10191 0.66664 0.56055 0.0
C857 C 0.10069 0.68183 0.78191 0.0
C858 C 0.13265 0.69802 0.81845 0.0
C859 C 0.10843 0.68537 0.82045 0.0
N860 N 0.11963 0.69183 0.75834 0.0
N861 N 0.13859 0.70165 0.78056 0.0
C862 C 0.07587 0.67059 0.76786 0.0
H863 H 0.07524 0.67118 0.73553 0.0
H864 H 0.0658 0.6521 0.77772 0.0
H865 H 0.06731 0.67993 0.78066 0.0
C866 C 0.12467 0.64299 0.63904 0.0
N867 N 0.12721 0.66411 0.64733 0.0
N868 N 0.12048 0.66423 0.68348 0.0
C869 C 0.11324 0.64286 0.69929 0.0
C870 C 0.11545 0.62868 0.67142 0.0
C871 C 0.1325 0.63717 0.60172 0.0
H872 H 0.14856 0.65278 0.59071 0.0
H873 H 0.11843 0.63172 0.57956 0.0
H874 H 0.13621 0.6226 0.60589 0.0
O875 O 0.16745 0.71668 0.6349 0.0
O876 O 0.15583 0.71955 0.69436 0.0
H877 H 0.11652 0.64796 0.76117 0.0
H878 H 0.09853 0.61758 0.74658 0.0
C879 C 0.10347 0.63593 0.73961 0.0
H880 H 0.08758 0.63754 0.74198 0.0
H881 H 0.15571 0.71044 0.76983 0.0
O882 O 0.14092 0.6839 0.56168 0.0
C883 C 0.17148 0.72686 0.66783 0.0
Co884 Co 0.30687 0.44889 0.6247 0.0
Co885 Co 0.30248 0.42827 0.70947 0.0
C886 C 0.29489 0.39843 0.64079 0.0
O887 O 0.29772 0.41558 0.61986 0.0
O888 O 0.2971 0.40037 0.67785 0.0
C889 C 0.32792 0.45419 0.55288 0.0
O890 O 0.33535 0.44187 0.57212 0.0
C891 C 0.3136 0.41462 0.78676 0.0
C892 C 0.2935 0.42486 0.82576 0.0
C893 C 0.30879 0.41617 0.82594 0.0
N894 N 0.30191 0.42241 0.7647 0.0
N895 N 0.28967 0.42811 0.78834 0.0
C896 C 0.32782 0.40458 0.77045 0.0
H897 H 0.32986 0.40725 0.73838 0.0
H898 H 0.34531 0.41261 0.78445 0.0
H899 H 0.31877 0.38549 0.77684 0.0
C900 C 0.35239 0.48508 0.65562 0.0
N901 N 0.33216 0.46466 0.65958 0.0
N902 N 0.33089 0.4563 0.695 0.0
C903 C 0.3505 0.47138 0.71476 0.0
C904 C 0.36478 0.49002 0.69032 0.0
C905 C 0.35867 0.50051 0.62035 0.0
H906 H 0.3427 0.49964 0.60789 0.0
H907 H 0.3664 0.49419 0.59797 0.0
H908 H 0.37159 0.51903 0.62753 0.0
O909 O 0.27946 0.45063 0.643 0.0
O910 O 0.27533 0.43338 0.70054 0.0
H911 H 0.34119 0.46569 0.77528 0.0
H912 H 0.37247 0.48253 0.76666 0.0
C913 C 0.35564 0.46782 0.75593 0.0
H914 H 0.35683 0.45167 0.75735 0.0
H915 H 0.27926 0.43501 0.77901 0.0
O916 O 0.31563 0.46122 0.57071 0.0
C917 C 0.26828 0.44249 0.67481 0.0
Co918 Co 0.52793 0.8862 0.25869 0.0
Co919 Co 0.53059 0.89846 0.16948 0.0
C920 C 0.5598 0.93475 0.22999 0.0
O921 O 0.55087 0.91963 0.257 0.0
O922 O 0.55387 0.92911 0.19445 0.0
C923 C 0.54621 0.88692 0.33307 0.0
O924 O 0.56518 0.90354 0.31617 0.0
C925 C 0.55297 0.90795 0.09228 0.0
C926 C 0.5235 0.9009 0.05311 0.0
C927 C 0.54688 0.90676 0.05311 0.0
N928 N 0.53395 0.90258 0.11414 0.0
N929 N 0.51649 0.89872 0.09056 0.0
C930 C 0.57659 0.91489 0.109 0.0
H931 H 0.57885 0.92371 0.13757 0.0
H932 H 0.57807 0.89905 0.11404 0.0
H933 H 0.59074 0.92671 0.0887 0.0
C934 C 0.53955 0.85122 0.22761 0.0
N935 N 0.53569 0.86931 0.22256 0.0
N936 N 0.53481 0.87292 0.18499 0.0
C937 C 0.53649 0.85615 0.1649 0.0
C938 C 0.53994 0.84201 0.19121 0.0
C939 C 0.54383 0.84381 0.26665 0.0
H940 H 0.5552 0.85954 0.28436 0.0
H941 H 0.55263 0.83325 0.26397 0.0
H942 H 0.52686 0.83347 0.28214 0.0
O943 O 0.49664 0.8826 0.24735 0.0
O944 O 0.49844 0.89089 0.18393 0.0
H945 H 0.52267 0.83223 0.11616 0.0
H946 H 0.54738 0.86045 0.10503 0.0
C947 C 0.53098 0.85131 0.1223 0.0
H948 H 0.5189 0.85749 0.11278 0.0
H949 H 0.4996 0.89393 0.09997 0.0
O950 O 0.52754 0.87566 0.31312 0.0
C951 C 0.48742 0.88503 0.21628 0.0
Co952 Co 0.10762 0.63726 0.2423 0.0
Co953 Co 0.09525 0.63351 0.15352 0.0
C954 C 0.05944 0.62474 0.21349 0.0
O955 O 0.07444 0.6273 0.23898 0.0
O956 O 0.06478 0.62753 0.17738 0.0
C957 C 0.10455 0.65499 0.31343 0.0
O958 O 0.09261 0.66152 0.29107 0.0
C959 C 0.08786 0.64808 0.07553 0.0
C960 C 0.09285 0.6238 0.03746 0.0
C961 C 0.08821 0.64215 0.03664 0.0
N962 N 0.09236 0.63402 0.09806 0.0
N963 N 0.09509 0.61942 0.07508 0.0
C964 C 0.08202 0.66577 0.09127 0.0
H965 H 0.07559 0.66138 0.12176 0.0
H966 H 0.09791 0.6834 0.09131 0.0
H967 H 0.06861 0.66653 0.07264 0.0
C968 C 0.14582 0.68346 0.21837 0.0
N969 N 0.12594 0.6634 0.21014 0.0
N970 N 0.12216 0.66179 0.17221 0.0
C971 C 0.14033 0.68061 0.1549 0.0
C972 C 0.15584 0.695 0.18366 0.0
C973 C 0.15474 0.6913 0.25902 0.0
H974 H 0.14069 0.6912 0.27686 0.0
H975 H 0.17 0.70934 0.25995 0.0
H976 H 0.1595 0.67886 0.2723 0.0
O977 O 0.1117 0.61052 0.2274 0.0
O978 O 0.09987 0.60644 0.16563 0.0
H979 H 0.16383 0.69287 0.10555 0.0
H980 H 0.13698 0.69324 0.09918 0.0
C981 C 0.14472 0.68314 0.11182 0.0
H982 H 0.13678 0.66571 0.09762 0.0
H983 H 0.09881 0.60664 0.08505 0.0
O984 O 0.11487 0.64499 0.29808 0.0
C985 C 0.10685 0.59959 0.19495 0.0
Co986 Co 0.35881 0.46221 0.25002 0.0
Co987 Co 0.36066 0.45006 0.16126 0.0
C988 C 0.37095 0.42539 0.22297 0.0
O989 O 0.36845 0.43834 0.24778 0.0
O990 O 0.36775 0.42696 0.1866 0.0
C991 C 0.34112 0.44431 0.32358 0.0
O992 O 0.33421 0.42488 0.30361 0.0
C993 C 0.34881 0.42852 0.08088 0.0
C994 C 0.36565 0.46088 0.04541 0.0
C995 C 0.35239 0.4367 0.04254 0.0
N996 N 0.3593 0.44715 0.10514 0.0
N997 N 0.36951 0.46635 0.0835 0.0
C998 C 0.33685 0.40348 0.09404 0.0
H999 H 0.33977 0.40237 0.12568 0.0
H1000 H 0.31773 0.39495 0.08855 0.0
H1001 H 0.34359 0.39372 0.07702 0.0
C1002 C 0.31226 0.45348 0.22626 0.0
N1003 N 0.33234 0.45359 0.21849 0.0
N1004 N 0.33256 0.44802 0.18162 0.0
C1005 C 0.31234 0.444 0.1648 0.0
C1006 C 0.2988 0.44729 0.19257 0.0
C1007 C 0.30738 0.46169 0.26405 0.0
H1008 H 0.30051 0.44707 0.28543 0.0
H1009 H 0.2943 0.46748 0.26037 0.0
H1010 H 0.32383 0.47646 0.27593 0.0
O1011 O 0.38513 0.49233 0.23244 0.0
O1012 O 0.38759 0.48226 0.17144 0.0
H1013 H 0.28799 0.43287 0.11605 0.0
H1014 H 0.30757 0.42138 0.11702 0.0
C1015 C 0.30614 0.43711 0.123 0.0
H1016 H 0.31869 0.45153 0.10381 0.0
H1017 H 0.37876 0.48334 0.0948 0.0
O1018 O 0.3518 0.4639 0.30591 0.0
C1019 C 0.39516 0.49716 0.19924 0.0
Co1020 Co 0.11262 0.47065 0.7575 0.0
Co1021 Co 0.09405 0.45908 0.67089 0.0
C1022 C 0.06329 0.43283 0.73856 0.0
O1023 O 0.08018 0.44517 0.76154 0.0
O1024 O 0.06567 0.43576 0.70159 0.0
C1025 C 0.12516 0.46126 0.83327 0.0
O1026 O 0.11953 0.44055 0.81906 0.0
C1027 C 0.08014 0.43518 0.59233 0.0
C1028 C 0.09296 0.46638 0.55449 0.0
C1029 C 0.08284 0.4422 0.5533 0.0
N1030 N 0.08877 0.45447 0.6152 0.0
N1031 N 0.09601 0.47294 0.59218 0.0
C1032 C 0.06852 0.41056 0.6076 0.0
H1033 H 0.06222 0.40989 0.63787 0.0
H1034 H 0.0811 0.40403 0.60792 0.0
H1035 H 0.05363 0.39878 0.58843 0.0
C1036 C 0.15049 0.46429 0.7248 0.0
N1037 N 0.12977 0.46357 0.72156 0.0
N1038 N 0.12218 0.45843 0.68528 0.0
C1039 C 0.138 0.45558 0.66435 0.0
C1040 C 0.15634 0.45902 0.68884 0.0
C1041 C 0.16564 0.4724 0.76051 0.0
H1042 H 0.1607 0.45719 0.78004 0.0
H1043 H 0.18445 0.48015 0.75281 0.0
H1044 H 0.16312 0.48566 0.77637 0.0
O1045 O 0.11319 0.49924 0.74154 0.0
O1046 O 0.09909 0.49143 0.68123 0.0
H1047 H 0.13462 0.4635 0.60495 0.0
H1048 H 0.15023 0.44752 0.61072 0.0
C1049 C 0.13558 0.44962 0.62184 0.0
H1050 H 0.11914 0.43288 0.61719 0.0
H1051 H 0.10378 0.49021 0.60218 0.0
O1052 O 0.12471 0.47656 0.81134 0.0
C1053 C 0.10711 0.50526 0.71046 0.0
Co1054 Co 0.5249 0.64107 0.75169 0.0
Co1055 Co 0.54158 0.63644 0.66728 0.0
C1056 C 0.56467 0.63079 0.73729 0.0
O1057 O 0.55006 0.63343 0.75776 0.0
O1058 O 0.56468 0.63222 0.70008 0.0
C1059 C 0.5372 0.66002 0.82687 0.0
O1060 O 0.55809 0.66684 0.81227 0.0
C1061 C 0.56609 0.6484 0.58954 0.0
C1062 C 0.53608 0.6259 0.55141 0.0
C1063 C 0.55957 0.6429 0.55051 0.0
N1064 N 0.54711 0.63551 0.61215 0.0
N1065 N 0.52942 0.6218 0.589 0.0
C1066 C 0.59015 0.66447 0.60522 0.0
H1067 H 0.58937 0.6677 0.63686 0.0
H1068 H 0.59882 0.68132 0.58912 0.0
H1069 H 0.60105 0.65609 0.60111 0.0
C1070 C 0.5331 0.68594 0.71978 0.0
N1071 N 0.53366 0.66588 0.71609 0.0
N1072 N 0.54065 0.6645 0.68063 0.0
C1073 C 0.54457 0.68384 0.6605 0.0
C1074 C 0.5401 0.6981 0.68482 0.0
C1075 C 0.52455 0.69251 0.75549 0.0
H1076 H 0.50882 0.67683 0.76723 0.0
H1077 H 0.53845 0.69904 0.77814 0.0
H1078 H 0.52006 0.70634 0.74913 0.0
O1079 O 0.49653 0.61292 0.7333 0.0
O1080 O 0.50968 0.60865 0.67595 0.0
H1081 H 0.5419 0.67343 0.6006 0.0
H1082 H 0.55272 0.7044 0.60721 0.0
C1083 C 0.55296 0.68889 0.61916 0.0
H1084 H 0.57128 0.69257 0.61806 0.0
H1085 H 0.51244 0.61028 0.59874 0.0
O1086 O 0.51929 0.64925 0.80504 0.0
C1087 C 0.49361 0.60153 0.70179 0.0
Co1088 Co 0.35863 0.87774 0.74477 0.0
Co1089 Co 0.36537 0.89541 0.65684 0.0
C1090 C 0.37177 0.92764 0.72222 0.0
O1091 O 0.36751 0.91082 0.74515 0.0
O1092 O 0.37145 0.92502 0.68516 0.0
C1093 C 0.33707 0.87477 0.81635 0.0
O1094 O 0.33046 0.88753 0.79643 0.0
C1095 C 0.35798 0.90675 0.57367 0.0
C1096 C 0.37765 0.8926 0.54258 0.0
C1097 C 0.36417 0.90303 0.53647 0.0
N1098 N 0.36728 0.89859 0.6004 0.0
N1099 N 0.37914 0.89039 0.58129 0.0
C1100 C 0.34474 0.91908 0.58352 0.0
H1101 H 0.34284 0.91976 0.61563 0.0
H1102 H 0.32717 0.91001 0.56968 0.0
H1103 H 0.35426 0.93718 0.5716 0.0
C1104 C 0.31373 0.84116 0.71313 0.0
N1105 N 0.33427 0.86117 0.70871 0.0
N1106 N 0.33623 0.86869 0.6725 0.0
C1107 C 0.31665 0.85358 0.65276 0.0
C1108 C 0.30175 0.8357 0.67793 0.0
C1109 C 0.30672 0.82668 0.74959 0.0
H1110 H 0.32239 0.82773 0.76368 0.0
H1111 H 0.29874 0.83369 0.77026 0.0
H1112 H 0.29381 0.80802 0.74335 0.0
O1113 O 0.38627 0.87541 0.73124 0.0
O1114 O 0.39097 0.88846 0.67008 0.0
H1115 H 0.32527 0.85582 0.59212 0.0
H1116 H 0.2942 0.84332 0.60152 0.0
C1117 C 0.31205 0.85668 0.61106 0.0
H1118 H 0.31375 0.87416 0.60764 0.0
H1119 H 0.38792 0.88274 0.59464 0.0
O1120 O 0.34883 0.86686 0.7992 0.0
C1121 C 0.3973 0.88075 0.69901 0.0
Co1122 Co 0.14408 0.44753 0.13873 0.0
Co1123 Co 0.12524 0.42697 0.22258 0.0
C1124 C 0.10222 0.39893 0.15159 0.0
O1125 O 0.11752 0.41598 0.13165 0.0
O1126 O 0.10203 0.40002 0.18888 0.0
C1127 C 0.1364 0.45956 0.06341 0.0
O1128 O 0.11581 0.45373 0.07833 0.0
C1129 C 0.09884 0.41481 0.29913 0.0
C1130 C 0.1283 0.42347 0.33936 0.0
C1131 C 0.10464 0.41627 0.33865 0.0
N1132 N 0.11839 0.42127 0.27777 0.0
N1133 N 0.13575 0.42601 0.30222 0.0
C1134 C 0.07496 0.40597 0.28198 0.0
H1135 H 0.076 0.40772 0.2497 0.0
H1136 H 0.06657 0.41558 0.29413 0.0
H1137 H 0.06367 0.38721 0.28987 0.0
C1138 C 0.13775 0.48602 0.16797 0.0
N1139 N 0.13625 0.46502 0.17251 0.0
N1140 N 0.12778 0.45657 0.2074 0.0
C1141 C 0.12339 0.47213 0.226 0.0
C1142 C 0.1294 0.49117 0.20142 0.0
C1143 C 0.14848 0.50161 0.13325 0.0
H1144 H 0.1624 0.49885 0.12049 0.0
H1145 H 0.13474 0.49735 0.11088 0.0
H1146 H 0.15609 0.52036 0.14144 0.0
O1147 O 0.17052 0.44563 0.15928 0.0
O1148 O 0.15679 0.42921 0.21698 0.0
H1149 H 0.12321 0.46492 0.28696 0.0
H1150 H 0.11094 0.48343 0.27567 0.0
C1151 C 0.11256 0.4683 0.26565 0.0
H1152 H 0.09476 0.45278 0.26454 0.0
H1153 H 0.153 0.43183 0.29363 0.0
O1154 O 0.15216 0.4599 0.08519 0.0
C1155 C 0.17294 0.43728 0.1912 0.0
Co1156 Co 0.54462 0.68736 0.12919 0.0
Co1157 Co 0.56187 0.69192 0.21681 0.0
C1158 C 0.59459 0.70099 0.1513 0.0
O1159 O 0.57792 0.69706 0.12829 0.0
O1160 O 0.59157 0.69953 0.18822 0.0
C1161 C 0.54245 0.66591 0.05926 0.0
O1162 O 0.55266 0.65772 0.08233 0.0
C1163 C 0.57609 0.68265 0.29551 0.0
C1164 C 0.5599 0.69784 0.33338 0.0
C1165 C 0.57246 0.68613 0.33447 0.0
N1166 N 0.5658 0.69166 0.27264 0.0
N1167 N 0.55643 0.70091 0.29568 0.0
C1168 C 0.59009 0.67207 0.28041 0.0
H1169 H 0.59488 0.67685 0.24939 0.0
H1170 H 0.57972 0.65269 0.28261 0.0
H1171 H 0.60615 0.67809 0.29833 0.0
C1172 C 0.50834 0.64113 0.15806 0.0
N1173 N 0.52822 0.66173 0.16338 0.0
N1174 N 0.53565 0.66296 0.1995 0.0
C1175 C 0.52064 0.64293 0.21823 0.0
C1176 C 0.50288 0.62842 0.19254 0.0
C1177 C 0.49384 0.63477 0.12165 0.0
H1178 H 0.49538 0.65075 0.10794 0.0
H1179 H 0.50037 0.62649 0.10069 0.0
H1180 H 0.4751 0.62221 0.12795 0.0
O1181 O 0.54155 0.71431 0.14589 0.0
O1182 O 0.55404 0.71729 0.20726 0.0
H1183 H 0.5214 0.64997 0.27933 0.0
H1184 H 0.51077 0.61938 0.26797 0.0
C1185 C 0.52351 0.63772 0.25971 0.0
H1186 H 0.54136 0.64049 0.26367 0.0
H1187 H 0.54717 0.70893 0.28565 0.0
O1188 O 0.53497 0.67871 0.07389 0.0
C1189 C 0.54631 0.72426 0.17917 0.0
Co1190 Co 0.3054 0.86389 0.11947 0.0
Co1191 Co 0.29769 0.86425 0.21089 0.0
C1192 C 0.29169 0.89666 0.156 0.0
O1193 O 0.29673 0.88772 0.12746 0.0
O1194 O 0.29157 0.88978 0.19095 0.0
C1195 C 0.32173 0.88476 0.04521 0.0
O1196 O 0.32549 0.90354 0.06463 0.0
C1197 C 0.30878 0.88001 0.29448 0.0
C1198 C 0.283 0.84759 0.3246 0.0
C1199 C 0.30077 0.87039 0.33148 0.0
N1200 N 0.29633 0.8635 0.26734 0.0
N1201 N 0.28095 0.84424 0.28576 0.0
C1202 C 0.32681 0.90476 0.28489 0.0
H1203 H 0.32489 0.90889 0.25416 0.0
H1204 H 0.3446 0.90713 0.28858 0.0
H1205 H 0.32517 0.91709 0.30505 0.0
C1206 C 0.35053 0.86999 0.14577 0.0
N1207 N 0.32986 0.86853 0.15373 0.0
N1208 N 0.32658 0.86735 0.1918 0.0
C1209 C 0.34474 0.86678 0.20917 0.0
C1210 C 0.3606 0.86854 0.18053 0.0
C1211 C 0.36053 0.87339 0.10545 0.0
H1212 H 0.35783 0.88657 0.08979 0.0
H1213 H 0.3796 0.87964 0.10593 0.0
H1214 H 0.35122 0.85657 0.0892 0.0
O1215 O 0.27701 0.83308 0.12841 0.0
O1216 O 0.27168 0.8333 0.19261 0.0
H1217 H 0.32729 0.8499 0.26258 0.0
H1218 H 0.35561 0.85233 0.256 0.0
C1219 C 0.34531 0.86131 0.25144 0.0
H1220 H 0.3537 0.87788 0.26837 0.0
H1221 H 0.26902 0.8287 0.27179 0.0
O1222 O 0.31419 0.86545 0.0634 0.0
C1223 C 0.26557 0.82334 0.15935 0.0
H1224 H 0.38364 0.28537 0.97159 0.0
H1225 H 0.35949 0.27765 0.85226 0.0
H1226 H 0.31913 0.26107 0.87532 0.0
H1227 H 0.29079 0.24595 0.92846 0.0
H1228 H 0.31434 0.2519 0.04783 0.0
H1229 H 0.35517 0.27236 0.02538 0.0
C1230 C 0.36961 0.28024 0.95049 0.0
C1231 C 0.37463 0.28254 0.91009 0.0
C1232 C 0.34643 0.27036 0.96393 0.0
C1233 C 0.35618 0.27596 0.8834 0.0
C1234 C 0.3331 0.26644 0.89659 0.0
C1235 C 0.30476 0.25186 0.94984 0.0
C1236 C 0.29941 0.24714 0.98989 0.0
C1237 C 0.32802 0.26312 0.93669 0.0
C1238 C 0.31789 0.25519 0.0169 0.0
C1239 C 0.34123 0.26681 0.00403 0.0
H1240 H 0.72136 0.07462 0.86855 0.0
H1241 H 0.70139 0.09221 0.97805 0.0
H1242 H 0.71789 0.07196 0.01376 0.0
H1243 H 0.74199 0.05304 0.01464 0.0
H1244 H 0.76171 0.03512 0.90519 0.0
H1245 H 0.74118 0.05127 0.86935 0.0
C1246 C 0.72027 0.07368 0.90015 0.0
C1247 C 0.71056 0.08538 0.92039 0.0
C1248 C 0.72999 0.06206 0.92087 0.0
C1249 C 0.70914 0.08377 0.96149 0.0
C1250 C 0.71859 0.07215 0.98213 0.0
C1251 C 0.74146 0.0523 0.983 0.0
C1252 C 0.7538 0.04325 0.96288 0.0
C1253 C 0.72971 0.06184 0.96223 0.0
C1254 C 0.75271 0.0423 0.92172 0.0
C1255 C 0.74096 0.05158 0.90099 0.0
H1256 H 0.91173 0.62256 0.96716 0.0
H1257 H 0.9224 0.65007 0.8498 0.0
H1258 H 0.94437 0.69006 0.87556 0.0
H1259 H 0.95683 0.71694 0.93148 0.0
H1260 H 0.94486 0.68921 0.04882 0.0
H1261 H 0.9273 0.64937 0.0227 0.0
C1262 C 0.91904 0.63723 0.94701 0.0
C1263 C 0.9151 0.63325 0.90652 0.0
C1264 C 0.93129 0.6601 0.96204 0.0
C1265 C 0.92502 0.65256 0.88103 0.0
C1266 C 0.93751 0.67544 0.89578 0.0
C1267 C 0.9506 0.70223 0.95146 0.0
C1268 C 0.95183 0.70608 0.99216 0.0
C1269 C 0.94017 0.67939 0.93627 0.0
C1270 C 0.944 0.68679 0.01746 0.0
C1271 C 0.93387 0.664 1.00252 0.0
H1272 H 0.25035 0.30877 0.53293 0.0
H1273 H 0.24186 0.27504 0.64469 0.0
H1274 H 0.26388 0.31296 0.67641 0.0
H1275 H 0.28188 0.35581 0.67398 0.0
H1276 H 0.29047 0.38976 0.56242 0.0
H1277 H 0.27248 0.35194 0.52955 0.0
C1278 C 0.25366 0.30972 0.56408 0.0
C1279 C 0.24406 0.28901 0.58628 0.0
C1280 C 0.26622 0.33174 0.58253 0.0
C1281 C 0.24869 0.29064 0.62672 0.0
C1282 C 0.26131 0.31238 0.64508 0.0
C1283 C 0.28013 0.35498 0.64245 0.0
C1284 C 0.28716 0.37562 0.62099 0.0
C1285 C 0.26956 0.33307 0.6235 0.0
C1286 C 0.28493 0.37416 0.57998 0.0
C1287 C 0.2746 0.35249 0.56098 0.0
H1288 H 0.6266 0.91201 0.58678 0.0
H1289 H 0.65114 0.9291 0.70583 0.0
H1290 H 0.69146 0.95252 0.68229 0.0
H1291 H 0.71959 0.96461 0.62892 0.0
H1292 H 0.69556 0.94617 0.50994 0.0
H1293 H 0.6548 0.92694 0.5327 0.0
C1294 C 0.64069 0.92098 0.60772 0.0
C1295 C 0.63584 0.91848 0.64819 0.0
C1296 C 0.66381 0.93405 0.59402 0.0
C1297 C 0.65435 0.93054 0.67466 0.0
C1298 C 0.6774 0.94389 0.6612 0.0
C1299 C 0.70553 0.95664 0.6077 0.0
C1300 C 0.71069 0.95658 0.5677 0.0
C1301 C 0.68233 0.94523 0.62106 0.0
C1302 C 0.69213 0.9464 0.54082 0.0
C1303 C 0.66884 0.9353 0.55388 0.0
H1304 H 0.07412 0.71849 0.67845 0.0
H1305 H 0.09287 0.70853 0.56204 0.0
H1306 H 0.07197 0.7269 0.53436 0.0
H1307 H 0.05146 0.74914 0.5432 0.0
H1308 H 0.03321 0.75956 0.6597 0.0
H1309 H 0.05048 0.73755 0.68689 0.0
C1310 C 0.07338 0.72006 0.64703 0.0
C1311 C 0.08538 0.71244 0.62256 0.0
C1312 C 0.0615 0.73092 0.6311 0.0
C1313 C 0.08408 0.71451 0.58179 0.0
C1314 C 0.07211 0.72503 0.56579 0.0
C1315 C 0.05098 0.74633 0.57447 0.0
C1316 C 0.04129 0.75629 0.59924 0.0
C1317 C 0.06125 0.73384 0.59019 0.0
C1318 C 0.04073 0.75233 0.63977 0.0
C1319 C 0.05066 0.73974 0.65551 0.0
H1320 H 0.68512 0.74081 0.04665 0.0
H1321 H 0.71841 0.76097 0.15972 0.0
H1322 H 0.68039 0.74007 0.1917 0.0
H1323 H 0.6373 0.71945 0.18768 0.0
H1324 H 0.60417 0.69941 0.07444 0.0
H1325 H 0.64227 0.71654 0.04295 0.0
C1326 C 0.68409 0.74035 0.07827 0.0
C1327 C 0.70461 0.75282 0.10055 0.0
C1328 C 0.66208 0.72843 0.09671 0.0
C1329 C 0.7029 0.75184 0.14162 0.0
C1330 C 0.68112 0.73988 0.1601 0.0
C1331 C 0.63842 0.71854 0.1562 0.0
C1332 C 0.61786 0.70853 0.13361 0.0
C1333 C 0.66052 0.72865 0.13794 0.0
C1334 C 0.61968 0.70735 0.09273 0.0
C1335 C 0.64151 0.71715 0.07452 0.0
H1336 H 0.29328 0.91606 0.08551 0.0
H1337 H 0.27122 0.91468 0.20473 0.0
H1338 H 0.25186 0.93668 0.18521 0.0
H1339 H 0.23775 0.95224 0.13323 0.0
H1340 H 0.25817 0.95136 0.01357 0.0
H1341 H 0.28181 0.93419 0.03463 0.0
C1342 C 0.2845 0.92074 0.10753 0.0
C1343 C 0.28348 0.91341 0.14657 0.0
C1344 C 0.27291 0.93272 0.0959 0.0
C1345 C 0.27223 0.91999 0.17453 0.0
C1346 C 0.26104 0.93243 0.1633 0.0
C1347 C 0.24749 0.94849 0.11165 0.0
C1348 C 0.24588 0.9528 0.07167 0.0
C1349 C 0.26068 0.93823 0.12387 0.0
C1350 C 0.25889 0.94806 0.04438 0.0
C1351 C 0.2724 0.93822 0.05642 0.0
H1352 H 0.0569 0.31413 0.03392 0.0
H1353 H 0.03394 0.27565 0.14234 0.0
H1354 H 0.04908 0.31198 0.17867 0.0
H1355 H 0.07312 0.35494 0.18099 0.0
H1356 H 0.09582 0.39366 0.07284 0.0
H1357 H 0.07634 0.35733 0.03576 0.0
C1358 C 0.05486 0.31369 0.06538 0.0
C1359 C 0.04471 0.29211 0.08515 0.0
C1360 C 0.0638 0.33484 0.08657 0.0
C1361 C 0.04205 0.29195 0.12608 0.0
C1362 C 0.05072 0.31279 0.14714 0.0
C1363 C 0.07341 0.35546 0.14933 0.0
C1364 C 0.08635 0.37703 0.12999 0.0
C1365 C 0.0623 0.33439 0.12787 0.0
C1366 C 0.08634 0.37731 0.08878 0.0
C1367 C 0.07521 0.35648 0.06735 0.0
H1368 H 0.70805 0.61669 0.47589 0.0
H1369 H 0.71744 0.6397 0.35577 0.0
H1370 H 0.73564 0.68051 0.37751 0.0
H1371 H 0.75167 0.70947 0.43014 0.0
H1372 H 0.74318 0.68661 0.55022 0.0
H1373 H 0.72167 0.64568 0.52873 0.0
C1374 C 0.71388 0.63057 0.45432 0.0
C1375 C 0.7116 0.62508 0.41413 0.0
C1376 C 0.72461 0.65397 0.46701 0.0
C1377 C 0.71904 0.64336 0.3868 0.0
C1378 C 0.72953 0.66671 0.39924 0.0
C1379 C 0.74497 0.69563 0.45179 0.0
C1380 C 0.74929 0.70122 0.49184 0.0
C1381 C 0.73285 0.6722 0.43922 0.0
C1382 C 0.74025 0.6829 0.51928 0.0
C1383 C 0.72799 0.65948 0.50698 0.0
H1384 H 0.28217 0.04272 0.41461 0.0
H1385 H 0.30825 0.04787 0.53212 0.0
H1386 H 0.34813 0.06437 0.50682 0.0
H1387 H 0.37562 0.08035 0.45245 0.0
H1388 H 0.35006 0.07664 0.33504 0.0
H1389 H 0.30966 0.05616 0.35941 0.0
C1390 C 0.2965 0.04723 0.4348 0.0
C1391 C 0.29218 0.04428 0.47539 0.0
C1392 C 0.31942 0.05703 0.42011 0.0
C1393 C 0.31102 0.05004 0.50087 0.0
C1394 C 0.33384 0.05954 0.48641 0.0
C1395 C 0.3613 0.07492 0.43193 0.0
C1396 C 0.36598 0.08032 0.3919 0.0
C1397 C 0.33826 0.06358 0.44622 0.0
C1398 C 0.34704 0.07283 0.36594 0.0
C1399 C 0.32394 0.06121 0.37992 0.0
H1400 H 0.90746 0.29457 0.46039 0.0
H1401 H 0.93193 0.29378 0.34359 0.0
H1402 H 0.95627 0.27841 0.36895 0.0
H1403 H 0.96656 0.26078 0.42241 0.0
H1404 H 0.94038 0.25909 0.53866 0.0
H1405 H 0.92104 0.28041 0.51533 0.0
C1406 C 0.91835 0.29137 0.44042 0.0
C1407 C 0.91754 0.29502 0.39992 0.0
C1408 C 0.93187 0.28199 0.45507 0.0
C1409 C 0.93199 0.29096 0.37473 0.0
C1410 C 0.94588 0.28211 0.38923 0.0
C1411 C 0.95689 0.2653 0.44292 0.0
C1412 C 0.9546 0.25797 0.48218 0.0
C1413 C 0.94532 0.27686 0.42909 0.0
C1414 C 0.94234 0.2644 0.50832 0.0
C1415 C 0.93116 0.27644 0.49489 0.0
H1416 H 0.95156 0.57697 0.24995 0.0
H1417 H 0.97811 0.59043 0.36814 0.0
H1418 H 0.01827 0.6121 0.34312 0.0
H1419 H 0.04548 0.62358 0.28823 0.0
H1420 H 0.01911 0.60874 0.17002 0.0
H1421 H 0.97891 0.59134 0.1948 0.0
C1422 C 0.96607 0.58478 0.27041 0.0
C1423 C 0.9618 0.58175 0.31099 0.0
C1424 C 0.98905 0.59681 0.25583 0.0
C1425 C 0.98086 0.59233 0.33686 0.0
C1426 C 0.00382 0.60466 0.32255 0.0
C1427 C 0.03102 0.61674 0.26768 0.0
C1428 C 0.03532 0.61716 0.22722 0.0
C1429 C 0.00807 0.60643 0.28214 0.0
C1430 C 0.01632 0.60854 0.20121 0.0
C1431 C 0.99335 0.59851 0.21541 0.0
H1432 H 0.37653 0.41643 0.2985 0.0
H1433 H 0.38423 0.39879 0.17994 0.0
H1434 H 0.40262 0.37685 0.20401 0.0
H1435 H 0.41972 0.36613 0.2577 0.0
H1436 H 0.4134 0.38476 0.3762 0.0
H1437 H 0.39093 0.40284 0.35291 0.0
C1438 C 0.38202 0.40764 0.2778 0.0
C1439 C 0.37929 0.40956 0.23732 0.0
C1440 C 0.39291 0.3954 0.29179 0.0
C1441 C 0.38624 0.39775 0.21114 0.0
C1442 C 0.39682 0.38527 0.2249 0.0
C1443 C 0.41326 0.37387 0.27869 0.0
C1444 C 0.41852 0.37428 0.31871 0.0
C1445 C 0.40075 0.3845 0.26505 0.0
C1446 C 0.40974 0.38427 0.34528 0.0
C1447 C 0.39696 0.39468 0.33194 0.0
H1448 H 0.57513 0.95182 0.30296 0.0
H1449 H 0.58058 0.97349 0.18251 0.0
H1450 H 0.60322 0.01459 0.2026 0.0
H1451 H 0.61817 0.044 0.25441 0.0
H1452 H 0.61172 0.02252 0.37506 0.0
H1453 H 0.59269 0.98142 0.35456 0.0
C1454 C 0.58142 0.96547 0.28092 0.0
C1455 C 0.5759 0.95952 0.24121 0.0
C1456 C 0.59407 0.98902 0.29272 0.0
C1457 C 0.58443 0.97752 0.21322 0.0
C1458 C 0.59732 0.00102 0.22471 0.0
C1459 C 0.61295 0.03046 0.27638 0.0
C1460 C 0.61629 0.03645 0.31634 0.0
C1461 C 0.60175 0.00694 0.26443 0.0
C1462 C 0.60931 0.01848 0.34417 0.0
C1463 C 0.59838 0.99497 0.33245 0.0
H1464 H 0.39141 0.97117 0.68791 0.0
H1465 H 0.36714 0.93579 0.79869 0.0
H1466 H 0.38297 0.97319 0.8321 0.0
H1467 H 0.40726 0.0162 0.83126 0.0
H1468 H 0.43129 0.0517 0.72054 0.0
H1469 H 0.41195 0.01436 0.68635 0.0
C1470 C 0.38926 0.97165 0.71923 0.0
C1471 C 0.37843 0.95062 0.74058 0.0
C1472 C 0.39863 0.99338 0.73869 0.0
C1473 C 0.37571 0.95165 0.7813 0.0
C1474 C 0.38479 0.97309 0.80065 0.0
C1475 C 0.40799 0.01578 0.79966 0.0
C1476 C 0.42112 0.03677 0.77881 0.0
C1477 C 0.39687 0.99412 0.77985 0.0
C1478 C 0.42166 0.03584 0.73767 0.0
C1479 C 0.41057 0.01444 0.71788 0.0
H1480 H 0.97308 0.38484 0.8443 0.0
H1481 H 0.93972 0.37359 0.73152 0.0
H1482 H 0.97739 0.38888 0.69921 0.0
H1483 H 0.0204 0.40954 0.70273 0.0
H1484 H 0.05388 0.42063 0.81529 0.0
H1485 H 0.01582 0.40109 0.84733 0.0
C1486 C 0.97401 0.38543 0.81267 0.0
C1487 C 0.95355 0.37845 0.79064 0.0
C1488 C 0.99589 0.39439 0.79393 0.0
C1489 C 0.95515 0.37914 0.74953 0.0
C1490 C 0.97675 0.3879 0.73082 0.0
C1491 C 0.01937 0.40729 0.73417 0.0
C1492 C 0.04006 0.41695 0.75643 0.0
C1493 C 0.99734 0.3962 0.75271 0.0
C1494 C 0.0383 0.41369 0.79725 0.0
C1495 C 0.01649 0.40254 0.81577 0.0
H1496 H 0.59354 0.61598 0.70622 0.0
H1497 H 0.57111 0.6307 0.81589 0.0
H1498 H 0.59166 0.61448 0.85148 0.0
H1499 H 0.61225 0.59193 0.85175 0.0
H1500 H 0.63456 0.57699 0.7422 0.0
H1501 H 0.61824 0.59762 0.7069 0.0
C1502 C 0.59347 0.61599 0.73788 0.0
C1503 C 0.58041 0.62423 0.75809 0.0
C1504 C 0.60521 0.60636 0.75851 0.0
C1505 C 0.5807 0.62421 0.79928 0.0
C1506 C 0.59247 0.61489 0.81986 0.0
C1507 C 0.61395 0.59358 0.82025 0.0
C1508 C 0.6243 0.58254 0.79981 0.0
C1509 C 0.60421 0.60527 0.79981 0.0
C1510 C 0.62639 0.58499 0.75886 0.0
C1511 C 0.61701 0.59678 0.73848 0.0
H1512 H 0.23734 0.22611 0.36091 0.0
H1513 H 0.20052 0.26082 0.32022 0.0
H1514 H 0.21034 0.25715 0.25268 0.0
H1515 H 0.22469 0.2392 0.205 0.0
H1516 H 0.26013 0.20309 0.24589 0.0
H1517 H 0.25591 0.21246 0.31333 0.0
C1518 C 0.23237 0.2338 0.33745 0.0
C1519 C 0.21863 0.24417 0.34568 0.0
C1520 C 0.23754 0.23103 0.29852 0.0
C1521 C 0.21134 0.25299 0.31463 0.0
C1522 C 0.21683 0.25077 0.27597 0.0
C1523 C 0.2323 0.23417 0.22847 0.0
C1524 C 0.24296 0.22067 0.22025 0.0
C1525 C 0.22931 0.23916 0.26743 0.0
C1526 C 0.25189 0.21354 0.25138 0.0
C1527 C 0.24942 0.21883 0.29002 0.0
H1528 H 0.7769 0.0215 0.35203 0.0
H1529 H 0.74891 0.94962 0.31571 0.0
H1530 H 0.74825 0.96068 0.24796 0.0
H1531 H 0.76144 0.99158 0.19822 0.0
H1532 H 0.79116 0.0637 0.23385 0.0
H1533 H 0.78496 0.05181 0.30247 0.0
C1534 C 0.76987 0.00815 0.32953 0.0
C1535 C 0.76292 0.98475 0.33902 0.0
C1536 C 0.77006 0.01474 0.29028 0.0
C1537 C 0.75447 0.96778 0.30918 0.0
C1538 C 0.75411 0.97409 0.27036 0.0
C1539 C 0.76551 0.00456 0.2209 0.0
C1540 C 0.77632 0.02845 0.21095 0.0
C1541 C 0.76262 0.99763 0.26036 0.0
C1542 C 0.78254 0.04517 0.24085 0.0
C1543 C 0.77918 0.03839 0.28011 0.0
H1544 H 0.95446 0.74253 0.25881 0.0
H1545 H 0.02085 0.77148 0.19914 0.0
H1546 H 0.04118 0.77824 0.2614 0.0
H1547 H 0.04059 0.78175 0.33288 0.0
H1548 H 0.97431 0.75477 0.39242 0.0
H1549 H 0.95349 0.74116 0.33061 0.0
C1550 C 0.97331 0.74969 0.25952 0.0
C1551 C 0.98607 0.75612 0.22439 0.0
C1552 C 0.98496 0.75417 0.29557 0.0
C1553 C 0.0105 0.76563 0.22556 0.0
C1554 C 0.0222 0.7699 0.2613 0.0
C1555 C 0.02156 0.77236 0.33234 0.0
C1556 C 0.00906 0.76913 0.36726 0.0
C1557 C 0.00969 0.76504 0.29648 0.0
C1558 C 0.98441 0.75703 0.36623 0.0
C1559 C 0.97246 0.74951 0.33072 0.0
H1560 H 0.77214 0.73478 0.75322 0.0
H1561 H 0.74427 0.77331 0.69369 0.0
H1562 H 0.73078 0.78057 0.75564 0.0
H1563 H 0.7327 0.78144 0.82753 0.0
H1564 H 0.76294 0.74505 0.88686 0.0
H1565 H 0.76922 0.73112 0.82466 0.0
C1566 C 0.76258 0.74426 0.75377 0.0
C1567 C 0.7591 0.75334 0.71883 0.0
C1568 C 0.75539 0.74889 0.78969 0.0
C1569 C 0.74675 0.76564 0.7199 0.0
C1570 C 0.7393 0.7701 0.7555 0.0
C1571 C 0.74 0.76986 0.82678 0.0
C1572 C 0.74689 0.76391 0.86186 0.0
C1573 C 0.74431 0.76255 0.79067 0.0
C1574 C 0.75664 0.74919 0.86058 0.0
C1575 C 0.76067 0.74157 0.82483 0.0
H1576 H 0.24401 0.01519 0.8531 0.0
H1577 H 0.19888 0.94306 0.81962 0.0
H1578 H 0.20904 0.95329 0.75103 0.0
H1579 H 0.22522 0.98378 0.7003 0.0
H1580 H 0.26788 0.05628 0.73366 0.0
H1581 H 0.26475 0.04498 0.80236 0.0
C1582 C 0.2372 0.0016 0.83095 0.0
C1583 C 0.22089 0.97838 0.84136 0.0
C1584 C 0.24248 0.00779 0.79137 0.0
C1585 C 0.21152 0.96106 0.81219 0.0
C1586 C 0.21724 0.96692 0.77296 0.0
C1587 C 0.23467 0.99696 0.72247 0.0
C1588 C 0.24703 0.02078 0.71202 0.0
C1589 C 0.23196 0.99037 0.76206 0.0
C1590 C 0.25844 0.03781 0.74115 0.0
C1591 C 0.2565 0.03136 0.78044 0.0
H1592 H 0.01558 0.25089 0.69807 0.0
H1593 H 0.94536 0.20056 0.73431 0.0
H1594 H 0.95658 0.21008 0.80272 0.0
H1595 H 0.98773 0.22836 0.85222 0.0
H1596 H 0.05852 0.27669 0.81608 0.0
H1597 H 0.04577 0.27277 0.74802 0.0
C1598 C 0.00255 0.24268 0.72085 0.0
C1599 C 0.9796 0.2252 0.71105 0.0
C1600 C 0.00934 0.24776 0.76036 0.0
C1601 C 0.96312 0.21412 0.74111 0.0
C1602 C 0.96955 0.2195 0.78028 0.0
C1603 C 0.00014 0.23878 0.82963 0.0
C1604 C 0.02395 0.25315 0.83922 0.0
C1605 C 0.9928 0.23572 0.79034 0.0
C1606 C 0.04004 0.26576 0.8094 0.0
C1607 C 0.03278 0.26337 0.77044 0.0
H1608 H 0.89894 0.58047 0.53014 0.0
H1609 H 0.92767 0.53801 0.57074 0.0
H1610 H 0.92499 0.54841 0.6382 0.0
H1611 H 0.90889 0.56461 0.68568 0.0
H1612 H 0.87902 0.60605 0.64519 0.0
H1613 H 0.88808 0.60136 0.57775 0.0
C1614 C 0.90549 0.57425 0.55352 0.0
C1615 C 0.91364 0.55859 0.54528 0.0
C1616 C 0.90341 0.57989 0.59245 0.0
C1617 C 0.92129 0.55007 0.57629 0.0
C1618 C 0.9197 0.55595 0.61493 0.0
C1619 C 0.90531 0.57349 0.66235 0.0
C1620 C 0.89356 0.58592 0.67055 0.0
C1621 C 0.91003 0.5702 0.62347 0.0
C1622 C 0.88816 0.59646 0.63962 0.0
C1623 C 0.89323 0.59369 0.60101 0.0
H1624 H 0.4301 0.31174 0.53595 0.0
H1625 H 0.45457 0.38273 0.57385 0.0
H1626 H 0.44517 0.36946 0.6415 0.0
H1627 H 0.43578 0.33866 0.69036 0.0
H1628 H 0.41312 0.26801 0.65257 0.0
H1629 H 0.41557 0.27999 0.58439 0.0
C1630 C 0.43239 0.32413 0.55873 0.0
C1631 C 0.44269 0.34814 0.54983 0.0
C1632 C 0.42756 0.31644 0.59774 0.0
C1633 C 0.44654 0.36414 0.58003 0.0
C1634 C 0.44126 0.35657 0.61874 0.0
C1635 C 0.43039 0.32569 0.66733 0.0
C1636 C 0.42395 0.30241 0.67652 0.0
C1637 C 0.43253 0.33288 0.62811 0.0
C1638 C 0.418 0.28602 0.64615 0.0
C1639 C 0.41952 0.29288 0.60716 0.0
H1640 H 0.65283 0.08967 0.68882 0.0
H1641 H 0.7243 0.1177 0.65083 0.0
H1642 H 0.71136 0.10939 0.58281 0.0
H1643 H 0.68048 0.10026 0.53391 0.0
H1644 H 0.60942 0.07484 0.57212 0.0
H1645 H 0.62124 0.07562 0.63999 0.0
C1646 C 0.66542 0.09296 0.66579 0.0
C1647 C 0.68944 0.10388 0.67484 0.0
C1648 C 0.65791 0.08896 0.62658 0.0
C1649 C 0.70568 0.10902 0.64452 0.0
C1650 C 0.6983 0.10444 0.6056 0.0
C1651 C 0.66745 0.09399 0.55693 0.0
C1652 C 0.64405 0.08724 0.54796 0.0
C1653 C 0.67455 0.09524 0.59614 0.0
C1654 C 0.62752 0.08 0.57834 0.0
C1655 C 0.63429 0.08055 0.61719 0.0
H1656 H 0.44479 0.06538 0.05337 0.0
H1657 H 0.41082 0.09819 0.99427 0.0
H1658 H 0.3972 0.10484 0.05655 0.0
H1659 H 0.40037 0.10702 0.12814 0.0
H1660 H 0.43672 0.07667 0.18736 0.0
H1661 H 0.44367 0.06314 0.12521 0.0
C1662 C 0.43378 0.07332 0.05417 0.0
C1663 C 0.42836 0.08074 0.01913 0.0
C1664 C 0.42671 0.07786 0.09032 0.0
C1665 C 0.41445 0.0914 0.0205 0.0
C1666 C 0.40704 0.09566 0.0563 0.0
C1667 C 0.40932 0.09695 0.12747 0.0
C1668 C 0.41782 0.09272 0.16247 0.0
C1669 C 0.4138 0.08973 0.09142 0.0
C1670 C 0.42946 0.07972 0.16117 0.0
C1671 C 0.43375 0.07224 0.12545 0.0
H1672 H 0.89852 0.32094 0.02029 0.0
H1673 H 0.93601 0.39312 0.05758 0.0
H1674 H 0.93381 0.38075 0.12547 0.0
H1675 H 0.91476 0.34951 0.1746 0.0
H1676 H 0.87526 0.27741 0.13726 0.0
H1677 H 0.88503 0.28949 0.06923 0.0
C1678 C 0.90717 0.33392 0.04304 0.0
C1679 C 0.91765 0.3579 0.03391 0.0
C1680 C 0.90507 0.32664 0.08224 0.0
C1681 C 0.92797 0.37455 0.06397 0.0
C1682 C 0.92656 0.36748 0.10283 0.0
C1683 C 0.90918 0.3364 0.15177 0.0
C1684 C 0.89444 0.31259 0.16099 0.0
C1685 C 0.91424 0.34357 0.11249 0.0
C1686 C 0.88667 0.29586 0.13083 0.0
C1687 C 0.89214 0.30276 0.09189 0.0
H1688 H 0.62015 0.55746 0.07511 0.0
H1689 H 0.68643 0.57929 0.0186 0.0
H1690 H 0.70619 0.58887 0.0817 0.0
H1691 H 0.70351 0.58482 0.15318 0.0
H1692 H 0.63695 0.56102 0.21002 0.0
H1693 H 0.61852 0.55875 0.14706 0.0
C1694 C 0.63904 0.56508 0.07667 0.0
C1695 C 0.65186 0.5682 0.04212 0.0
C1696 C 0.6502 0.56986 0.1133 0.0
C1697 C 0.67626 0.57761 0.04447 0.0
C1698 C 0.68752 0.58266 0.08072 0.0
C1699 C 0.6851 0.57975 0.15179 0.0
C1700 C 0.67168 0.57333 0.18627 0.0
C1701 C 0.67453 0.57802 0.11534 0.0
C1702 C 0.64783 0.56664 0.18415 0.0
C1703 C 0.63719 0.56501 0.14799 0.0
H1704 H 0.59421 0.88447 0.91305 0.0
H1705 H 0.56106 0.91652 0.84913 0.0
H1706 H 0.55027 0.92772 0.91018 0.0
H1707 H 0.54552 0.92356 0.98161 0.0
H1708 H 0.57676 0.88938 0.04497 0.0
H1709 H 0.59318 0.88413 0.98468 0.0
C1710 C 0.58509 0.89438 0.91255 0.0
C1711 C 0.57868 0.89983 0.87655 0.0
C1712 C 0.57837 0.9002 0.94782 0.0
C1713 C 0.56677 0.91259 0.87626 0.0
C1714 C 0.56026 0.91871 0.91128 0.0
C1715 C 0.55633 0.91539 0.98224 0.0
C1716 C 0.56014 0.90717 0.01787 0.0
C1717 C 0.5653 0.91192 0.94719 0.0
C1718 C 0.57406 0.8965 0.01828 0.0
C1719 C 0.58322 0.89318 0.98363 0.0
H1720 H 0.0682 0.62205 0.96784 0.0
H1721 H 0.10815 0.6894 0.02405 0.0
H1722 H 0.1142 0.70913 0.96138 0.0
H1723 H 0.11374 0.70685 0.88968 0.0
H1724 H 0.07597 0.6394 0.83326 0.0
H1725 H 0.06301 0.62017 0.89655 0.0
C1726 C 0.07773 0.64108 0.9664 0.0
C1727 C 0.08758 0.65422 1.0006 0.0
C1728 C 0.08163 0.6523 0.93004 0.0
C1729 C 0.09993 0.67884 0.99843 0.0
C1730 C 0.10367 0.69016 0.96242 0.0
C1731 C 0.10203 0.68802 0.89133 0.0
C1732 C 0.09548 0.67461 0.85686 0.0
C1733 C 0.09535 0.67702 0.92793 0.0
C1734 C 0.0806 0.65021 0.85919 0.0
C1735 C 0.07355 0.63915 0.89551 0.0
H1736 H 0.289 0.39524 0.89445 0.0
H1737 H 0.35593 0.43702 0.83817 0.0
H1738 H 0.37588 0.4438 0.90084 0.0
H1739 H 0.3737 0.44332 0.97259 0.0
H1740 H 0.3066 0.40348 0.02927 0.0
H1741 H 0.2874 0.39016 0.96598 0.0
C1742 C 0.30801 0.40517 0.89588 0.0
C1743 C 0.32098 0.41514 0.86157 0.0
C1744 C 0.31933 0.4096 0.93232 0.0
C1745 C 0.34557 0.42836 0.86379 0.0
C1746 C 0.35698 0.43263 0.89983 0.0
C1747 C 0.35496 0.43116 0.97103 0.0
C1748 C 0.34166 0.42415 0.00563 0.0
C1749 C 0.34397 0.42407 0.9344 0.0
C1750 C 0.31737 0.4086 0.00328 0.0
C1751 C 0.30631 0.40127 0.96696 0.0
H1752 H 0.069 0.44851 0.48211 0.0
H1753 H 0.09347 0.40724 0.54233 0.0
H1754 H 0.09857 0.39227 0.48018 0.0
H1755 H 0.10223 0.396 0.40849 0.0
H1756 H 0.07998 0.43915 0.34856 0.0
H1757 H 0.06748 0.44787 0.41027 0.0
C1758 C 0.07485 0.43574 0.48163 0.0
C1759 C 0.08062 0.42888 0.51697 0.0
C1760 C 0.07831 0.42763 0.44559 0.0
C1761 C 0.08831 0.41242 0.51587 0.0
C1762 C 0.09158 0.40409 0.48015 0.0
C1763 C 0.09391 0.40668 0.4089 0.0
C1764 C 0.09155 0.41645 0.37379 0.0
C1765 C 0.08746 0.41225 0.44481 0.0
C1766 C 0.08117 0.43062 0.37476 0.0
C1767 C 0.07443 0.43601 0.41028 0.0
H1768 H 0.56205 0.62471 0.48108 0.0
H1769 H 0.58109 0.69013 0.53858 0.0
H1770 H 0.59058 0.71029 0.47583 0.0
H1771 H 0.58694 0.7079 0.40424 0.0
H1772 H 0.56574 0.64203 0.34654 0.0
H1773 H 0.56398 0.62362 0.40922 0.0
C1774 C 0.56907 0.64354 0.47984 0.0
C1775 C 0.57137 0.65598 0.51455 0.0
C1776 C 0.57376 0.65489 0.4434 0.0
C1777 C 0.58002 0.68028 0.5126 0.0
C1778 C 0.58501 0.69175 0.47653 0.0
C1779 C 0.58257 0.68968 0.40537 0.0
C1780 C 0.57671 0.67645 0.37068 0.0
C1781 C 0.58106 0.67906 0.44171 0.0
C1782 C 0.57093 0.65282 0.37253 0.0
C1783 C 0.56957 0.64216 0.40854 0.0
H1784 H 0.34596 0.89958 0.35645 0.0
H1785 H 0.27422 0.86249 0.39627 0.0
H1786 H 0.28732 0.8725 0.46378 0.0
H1787 H 0.31931 0.8871 0.51199 0.0
H1788 H 0.39102 0.92262 0.4724 0.0
H1789 H 0.37789 0.9184 0.40456 0.0
C1790 C 0.33315 0.8944 0.37968 0.0
C1791 C 0.3091 0.88041 0.37112 0.0
C1792 C 0.34086 0.89981 0.41872 0.0
C1793 C 0.29284 0.87323 0.40198 0.0
C1794 C 0.30032 0.87892 0.44068 0.0
C1795 C 0.33205 0.8948 0.48864 0.0
C1796 C 0.35612 0.90556 0.49726 0.0
C1797 C 0.32432 0.89161 0.44954 0.0
C1798 C 0.3724 0.91451 0.46647 0.0
C1799 C 0.36489 0.91194 0.42765 0.0
H1800 H 0.23964 0.14053 0.059 0.0
H1801 H 0.19566 0.12626 0.95752 0.0
H1802 H 0.18889 0.08617 0.95488 0.0
H1803 H 0.19457 0.05468 0.98287 0.0
H1804 H 0.23986 0.06993 0.08264 0.0
H1805 H 0.24701 0.11009 0.08454 0.0
C1806 C 0.22851 0.12865 0.03635 0.0
C1807 C 0.21801 0.13633 0.00873 0.0
C1808 C 0.22497 0.10579 0.03466 0.0
C1809 C 0.20392 0.12078 0.97922 0.0
C1810 C 0.20004 0.09785 0.97767 0.0
C1811 C 0.20629 0.06697 0.00454 0.0
C1812 C 0.21662 0.05943 0.03267 0.0
C1813 C 0.21042 0.09013 0.00532 0.0
C1814 C 0.23155 0.07535 0.06095 0.0
C1815 C 0.23566 0.09829 0.06203 0.0
H1816 H 0.93005 0.16426 0.05349 0.0
H1817 H 0.95959 0.14569 0.95706 0.0
H1818 H 0.92183 0.10996 0.94584 0.0
H1819 H 0.88097 0.08323 0.96569 0.0
H1820 H 0.85238 0.10124 0.06469 0.0
H1821 H 0.88929 0.13783 0.07299 0.0
C1822 C 0.92809 0.15239 0.02992 0.0
C1823 C 0.9473 0.15758 0.0058 0.0
C1824 C 0.90661 0.13171 0.0244 0.0
C1825 C 0.94479 0.14218 0.97542 0.0
C1826 C 0.92331 0.12169 0.96928 0.0
C1827 C 0.88277 0.0952 0.98896 0.0
C1828 C 0.86392 0.08943 0.01456 0.0
C1829 C 0.90416 0.11617 0.99386 0.0
C1830 C 0.86661 0.10514 0.04466 0.0
C1831 C 0.8877 0.12612 0.04943 0.0
H1832 H 0.83697 0.77007 0.0797 0.0
H1833 H 0.85007 0.80959 0.97324 0.0
H1834 H 0.88547 0.80704 0.96163 0.0
H1835 H 0.91322 0.7945 0.98303 0.0
H1836 H 0.90085 0.75673 0.09168 0.0
H1837 H 0.86485 0.75803 0.10151 0.0
C1838 C 0.84765 0.77816 0.05403 0.0
C1839 C 0.84092 0.78979 0.02715 0.0
C1840 C 0.86817 0.77709 0.04814 0.0
C1841 C 0.85474 0.80013 0.99389 0.0
C1842 C 0.87505 0.79885 0.98746 0.0
C1843 C 0.90263 0.7865 0.00881 0.0
C1844 C 0.90977 0.77553 0.03653 0.0
C1845 C 0.882 0.78747 0.01453 0.0
C1846 C 0.89586 0.76536 0.06989 0.0
C1847 C 0.87522 0.76604 0.07554 0.0
H1848 H 0.13886 0.24216 0.5015 0.0
H1849 H 0.11703 0.19339 0.59784 0.0
H1850 H 0.07807 0.18925 0.59625 0.0
H1851 H 0.04975 0.19861 0.56626 0.0
H1852 H 0.07199 0.24854 0.47194 0.0
H1853 H 0.11118 0.25302 0.47376 0.0
C1854 C 0.12557 0.23061 0.52212 0.0
C1855 C 0.13083 0.21803 0.54958 0.0
C1856 C 0.10327 0.22851 0.52139 0.0
C1857 C 0.11347 0.20331 0.57638 0.0
C1858 C 0.09116 0.2009 0.5755 0.0
C1859 C 0.06334 0.21074 0.54661 0.0
C1860 C 0.05811 0.22323 0.51902 0.0
C1861 C 0.08584 0.21336 0.54808 0.0
C1862 C 0.07567 0.23863 0.49323 0.0
C1863 C 0.09804 0.24121 0.49429 0.0
H1864 H 0.80435 0.86001 0.50096 0.0
H1865 H 0.7556 0.82637 0.59558 0.0
H1866 H 0.75418 0.86233 0.60725 0.0
H1867 H 0.7654 0.90285 0.58831 0.0
H1868 H 0.80959 0.93404 0.48773 0.0
H1869 H 0.81377 0.89931 0.47979 0.0
C1870 C 0.793 0.86032 0.52358 0.0
C1871 C 0.77993 0.84044 0.54711 0.0
C1872 C 0.79145 0.88063 0.52892 0.0
C1873 C 0.76602 0.84151 0.57728 0.0
C1874 C 0.76507 0.862 0.58379 0.0
C1875 C 0.77607 0.90201 0.56491 0.0
C1876 C 0.7874 0.9209 0.53885 0.0
C1877 C 0.77758 0.88162 0.55959 0.0
C1878 C 0.80081 0.91962 0.50813 0.0
C1879 C 0.80318 0.89981 0.5036 0.0
H1880 H 0.14034 0.94955 0.57933 0.0
H1881 H 0.16725 0.92844 0.48227 0.0
H1882 H 0.133 0.88898 0.48443 0.0
H1883 H 0.09501 0.86092 0.51262 0.0
H1884 H 0.06822 0.88131 0.61106 0.0
H1885 H 0.10288 0.92054 0.60992 0.0
C1886 C 0.13881 0.93612 0.5592 0.0
C1887 C 0.15618 0.94172 0.53075 0.0
C1888 C 0.11906 0.91346 0.56067 0.0
C1889 C 0.15396 0.92441 0.50432 0.0
C1890 C 0.13441 0.90191 0.50552 0.0
C1891 C 0.09669 0.87394 0.53381 0.0
C1892 C 0.07894 0.86823 0.56166 0.0
C1893 C 0.11674 0.89632 0.53327 0.0
C1894 C 0.0816 0.88524 0.58923 0.0
C1895 C 0.10142 0.90769 0.58862 0.0
H1896 H 0.79469 0.88003 0.09734 0.0
H1897 H 0.75208 0.85166 0.99388 0.0
H1898 H 0.75453 0.88926 0.98138 0.0
H1899 H 0.76929 0.93042 0.99891 0.0
H1900 H 0.81338 0.95966 0.10012 0.0
H1901 H 0.80952 0.92141 0.11488 0.0
C1902 C 0.78585 0.88203 0.07216 0.0
C1903 C 0.77324 0.86301 0.04661 0.0
C1904 C 0.7875 0.90383 0.06484 0.0
C1905 C 0.76199 0.86598 0.014 0.0
C1906 C 0.76333 0.88749 0.0068 0.0
C1907 C 0.77803 0.92834 0.02417 0.0
C1908 C 0.79143 0.94762 0.0486 0.0
C1909 C 0.77614 0.90653 0.03187 0.0
C1910 C 0.80265 0.94485 0.08133 0.0
C1911 C 0.80059 0.92308 0.08956 0.0
H1912 H 0.06667 0.841 0.99792 0.0
H1913 H 0.04063 0.85654 0.10251 0.0
H1914 H 0.07851 0.89229 0.1123 0.0
H1915 H 0.11889 0.91936 0.09039 0.0
H1916 H 0.1438 0.9047 0.98326 0.0
H1917 H 0.10637 0.86864 0.97479 0.0
C1918 C 0.0693 0.85232 0.02272 0.0
C1919 C 0.05109 0.84607 0.04974 0.0
C1920 C 0.09085 0.87306 0.02754 0.0
C1921 C 0.05464 0.86078 0.08182 0.0
C1922 C 0.0762 0.88129 0.08723 0.0
C1923 C 0.11614 0.90827 0.06521 0.0
C1924 C 0.13418 0.91473 0.0376 0.0
C1925 C 0.09444 0.88762 0.06023 0.0
C1926 C 0.13023 0.90023 0.00496 0.0
C1927 C 0.10884 0.87954 1.00009 0.0
H1928 H 0.1421 0.19793 0.99284 0.0
H1929 H 0.17606 0.24057 0.09404 0.0
H1930 H 0.14209 0.24549 0.10549 0.0
H1931 H 0.1032 0.23889 0.08495 0.0
H1932 H 0.07266 0.20172 0.97781 0.0
H1933 H 0.10527 0.19418 0.96936 0.0
C1934 C 0.14239 0.20879 0.01687 0.0
C1935 C 0.16171 0.219 0.04236 0.0
C1936 C 0.12347 0.21267 0.02192 0.0
C1937 C 0.16129 0.23223 0.07425 0.0
C1938 C 0.14197 0.23526 0.0806 0.0
C1939 C 0.10382 0.22919 0.05981 0.0
C1940 C 0.08568 0.22072 0.03209 0.0
C1941 C 0.12304 0.22571 0.05442 0.0
C1942 C 0.08659 0.20841 0.99934 0.0
C1943 C 0.10513 0.20404 0.99462 0.0
H1944 H 0.94073 0.81398 0.56935 0.0
H1945 H 0.93212 0.76516 0.47805 0.0
H1946 H 0.8929 0.75874 0.46404 0.0
H1947 H 0.85969 0.76458 0.4816 0.0
H1948 H 0.86658 0.80857 0.57979 0.0
H1949 H 0.90755 0.81882 0.58823 0.0
C1950 C 0.93016 0.80165 0.54679 0.0
C1951 C 0.93923 0.78984 0.52514 0.0
C1952 C 0.90719 0.79704 0.54046 0.0
C1953 C 0.92564 0.77463 0.49496 0.0
C1954 C 0.90311 0.77077 0.48719 0.0
C1955 C 0.87033 0.77655 0.50456 0.0
C1956 C 0.8604 0.78596 0.52996 0.0
C1957 C 0.89353 0.78154 0.51025 0.0
C1958 C 0.87403 0.80116 0.56002 0.0
C1959 C 0.89738 0.80702 0.56479 0.0
H1960 H 0.22946 0.15926 0.56173 0.0
H1961 H 0.18157 0.14131 0.4651 0.0
H1962 H 0.18447 0.10621 0.4521 0.0
H1963 H 0.19953 0.07992 0.4701 0.0
H1964 H 0.24537 0.09691 0.56989 0.0
H1965 H 0.24405 0.13289 0.58022 0.0
C1966 C 0.21967 0.1476 0.53787 0.0
C1967 C 0.20553 0.15285 0.51414 0.0
C1968 C 0.22089 0.12722 0.5314 0.0
C1969 C 0.19293 0.13777 0.48323 0.0
C1970 C 0.19443 0.11764 0.47605 0.0
C1971 C 0.2093 0.09155 0.494 0.0
C1972 C 0.22252 0.08572 0.51915 0.0
C1973 C 0.20823 0.1121 0.50016 0.0
C1974 C 0.23496 0.1009 0.55017 0.0
C1975 C 0.23428 0.12152 0.55608 0.0
H1976 H 0.92864 0.1306 0.54597 0.0
H1977 H 0.89704 0.15348 0.45925 0.0
H1978 H 0.86114 0.115 0.46073 0.0
H1979 H 0.83846 0.07511 0.48831 0.0
H1980 H 0.87211 0.0509 0.5689 0.0
H1981 H 0.90746 0.08952 0.56842 0.0
C1982 C 0.91382 0.12704 0.52751 0.0
C1983 C 0.91514 0.14469 0.50295 0.0
C1984 C 0.89366 0.10469 0.52752 0.0
C1985 C 0.89618 0.14 0.47849 0.0
C1986 C 0.87572 0.11806 0.47933 0.0
C1987 C 0.85367 0.07824 0.5053 0.0
C1988 C 0.85249 0.06041 0.52939 0.0
C1989 C 0.87424 0.10028 0.50384 0.0
C1990 C 0.87235 0.06462 0.55109 0.0
C1991 C 0.89261 0.08664 0.55066 0.0
H1992 H 0.86704 0.45573 0.29326 0.0
H1993 H 0.90763 0.48003 0.39958 0.0
H1994 H 0.90496 0.44216 0.40824 0.0
H1995 H 0.89122 0.40209 0.38629 0.0
H1996 H 0.8494 0.37636 0.28199 0.0
H1997 H 0.85273 0.41483 0.27149 0.0
C1998 C 0.87533 0.45273 0.31824 0.0
C1999 C 0.88746 0.47078 0.34571 0.0
C2000 C 0.87361 0.43067 0.32336 0.0
C2001 C 0.89804 0.46651 0.37801 0.0
C2002 C 0.89659 0.44483 0.38304 0.0
C2003 C 0.88269 0.40488 0.36144 0.0
C2004 C 0.87014 0.38655 0.33493 0.0
C2005 C 0.88438 0.42679 0.35605 0.0
C2006 C 0.85941 0.3904 0.30252 0.0
C2007 C 0.86121 0.41231 0.29667 0.0
H2008 H 0.52633 0.42469 0.39869 0.0
H2009 H 0.54208 0.4009 0.29142 0.0
H2010 H 0.58147 0.43527 0.29105 0.0
H2011 H 0.61179 0.47187 0.32205 0.0
H2012 H 0.59518 0.496 0.42786 0.0
H2013 H 0.55585 0.46161 0.42817 0.0
C2014 C 0.53837 0.42695 0.37525 0.0
C2015 C 0.53128 0.41017 0.34525 0.0
C2016 C 0.56086 0.44683 0.37498 0.0
C2017 C 0.54707 0.41355 0.3149 0.0
C2018 C 0.56962 0.4332 0.31466 0.0
C2019 C 0.59938 0.46969 0.34477 0.0
C2020 C 0.60624 0.48636 0.37484 0.0
C2021 C 0.57671 0.44995 0.34456 0.0
C2022 C 0.59025 0.48323 0.40458 0.0
C2023 C 0.56778 0.46364 0.40472 0.0
H2024 H 0.56567 0.09427 0.29588 0.0
H2025 H 0.5955 0.13588 0.39955 0.0
H2026 H 0.56181 0.14193 0.40532 0.0
H2027 H 0.5238 0.13484 0.3814 0.0
H2028 H 0.49092 0.08815 0.28398 0.0
H2029 H 0.52624 0.08531 0.2741 0.0
C2030 C 0.56474 0.10474 0.31954 0.0
C2031 C 0.58294 0.11479 0.34713 0.0
C2032 C 0.54491 0.10733 0.32354 0.0
C2033 C 0.58158 0.12801 0.37808 0.0
C2034 C 0.56239 0.13149 0.38131 0.0
C2035 C 0.52409 0.12362 0.35852 0.0
C2036 C 0.50461 0.11148 0.33379 0.0
C2037 C 0.54387 0.12104 0.35442 0.0
C2038 C 0.50575 0.09784 0.30323 0.0
C2039 C 0.52585 0.09603 0.2978 0.0
H2040 H 0.73407 0.5629 0.82854 0.0
H2041 H 0.70899 0.5204 0.93222 0.0
H2042 H 0.74784 0.52461 0.94253 0.0
H2043 H 0.78871 0.53945 0.92027 0.0
H2044 H 0.81232 0.58047 0.81431 0.0
H2045 H 0.77424 0.57746 0.80641 0.0
C2046 C 0.73715 0.55454 0.85336 0.0
C2047 C 0.7189 0.54155 0.87977 0.0
C2048 C 0.75922 0.55663 0.85849 0.0
C2049 C 0.723 0.53086 0.91193 0.0
C2050 C 0.74512 0.53311 0.9176 0.0
C2051 C 0.78552 0.54778 0.89555 0.0
C2052 C 0.80341 0.5601 0.86791 0.0
C2053 C 0.76336 0.54585 0.89088 0.0
C2054 C 0.79892 0.57073 0.83596 0.0
C2055 C 0.77712 0.5691 0.83139 0.0
H2056 H 0.43049 0.23219 0.82956 0.0
H2057 H 0.47043 0.25349 0.93664 0.0
H2058 H 0.47513 0.21893 0.93386 0.0
H2059 H 0.46902 0.18323 0.89952 0.0
H2060 H 0.4284 0.16193 0.79341 0.0
H2061 H 0.42289 0.19596 0.79719 0.0
C2062 C 0.44024 0.22932 0.85233 0.0
C2063 C 0.45021 0.24551 0.88311 0.0
C2064 C 0.44274 0.20938 0.85071 0.0
C2065 C 0.46258 0.24134 0.91255 0.0
C2066 C 0.4653 0.22158 0.911 0.0
C2067 C 0.45863 0.18591 0.87771 0.0
C2068 C 0.44904 0.17018 0.84631 0.0
C2069 C 0.45554 0.20553 0.88012 0.0
C2070 C 0.43599 0.17394 0.81774 0.0
C2071 C 0.43284 0.19335 0.81989 0.0
H2072 H 0.74817 0.21302 0.91694 0.0
H2073 H 0.7626 0.18488 0.81335 0.0
H2074 H 0.79713 0.22276 0.8001 0.0
H2075 H 0.82316 0.26409 0.81721 0.0
H2076 H 0.8087 0.29286 0.91947 0.0
H2077 H 0.77444 0.25455 0.93418 0.0
C2078 C 0.75892 0.21513 0.89158 0.0
C2079 C 0.75269 0.19605 0.86621 0.0
C2080 C 0.7788 0.2371 0.88388 0.0
C2081 C 0.76684 0.1992 0.83338 0.0
C2082 C 0.78665 0.22089 0.82571 0.0
C2083 C 0.81241 0.26191 0.84262 0.0
C2084 C 0.81841 0.28108 0.86739 0.0
C2085 C 0.79272 0.23997 0.8506 0.0
C2086 C 0.80452 0.27816 0.90034 0.0
C2087 C 0.7849 0.25633 0.90862 0.0
H2088 H 0.42822 0.18909 0.40781 0.0
H2089 H 0.46996 0.1996 0.30479 0.0
H2090 H 0.47962 0.24066 0.30154 0.0
H2091 H 0.47531 0.27303 0.327 0.0
H2092 H 0.42837 0.26093 0.42328 0.0
H2093 H 0.42235 0.22134 0.43144 0.0
C2094 C 0.4395 0.2005 0.38484 0.0
C2095 C 0.44851 0.19159 0.35666 0.0
C2096 C 0.44416 0.22376 0.38226 0.0
C2097 C 0.46284 0.20624 0.32665 0.0
C2098 C 0.46839 0.22965 0.32488 0.0
C2099 C 0.46343 0.26163 0.34935 0.0
C2100 C 0.4521 0.26985 0.37418 0.0
C2101 C 0.45894 0.2385 0.35227 0.0
C2102 C 0.4375 0.25514 0.404 0.0
C2103 C 0.43385 0.2324 0.4084 0.0
H2104 H 0.73859 0.1688 0.31729 0.0
H2105 H 0.71033 0.18748 0.41556 0.0
H2106 H 0.74798 0.22337 0.42526 0.0
H2107 H 0.78833 0.25001 0.40429 0.0
H2108 H 0.81592 0.23285 0.30303 0.0
H2109 H 0.77897 0.19593 0.29553 0.0
C2110 C 0.74075 0.18081 0.34074 0.0
C2111 C 0.72191 0.1755 0.36593 0.0
C2112 C 0.7622 0.2017 0.34537 0.0
C2113 C 0.7248 0.19104 0.39631 0.0
C2114 C 0.74622 0.21162 0.40164 0.0
C2115 C 0.78634 0.23816 0.38068 0.0
C2116 C 0.80488 0.24415 0.35433 0.0
C2117 C 0.76498 0.21719 0.37618 0.0
C2118 C 0.8019 0.22868 0.32367 0.0
C2119 C 0.7808 0.20756 0.31939 0.0
H2120 H 0.76879 0.57274 0.41442 0.0
H2121 H 0.72963 0.52336 0.32329 0.0
H2122 H 0.76211 0.51582 0.31253 0.0
H2123 H 0.80145 0.52311 0.32971 0.0
H2124 H 0.84294 0.57705 0.41355 0.0
H2125 H 0.80955 0.58248 0.42762 0.0
C2126 C 0.7675 0.56036 0.39224 0.0
C2127 C 0.74698 0.54845 0.36981 0.0
C2128 C 0.78653 0.55682 0.38528 0.0
C2129 C 0.74539 0.53269 0.34077 0.0
C2130 C 0.76388 0.52834 0.33473 0.0
C2131 C 0.80337 0.53643 0.35042 0.0
C2132 C 0.82469 0.54972 0.37041 0.0
C2133 C 0.78454 0.54035 0.35677 0.0
C2134 C 0.82661 0.56636 0.39813 0.0
C2135 C 0.8076 0.56962 0.40594 0.0
H2136 H 0.5468 0.128 0.78823 0.0
H2137 H 0.51707 0.0869 0.89274 0.0
H2138 H 0.55424 0.08884 0.90715 0.0
H2139 H 0.59519 0.10203 0.89019 0.0
H2140 H 0.62563 0.14437 0.78754 0.0
H2141 H 0.5881 0.14185 0.77193 0.0
C2142 C 0.54842 0.11943 0.81412 0.0
C2143 C 0.5291 0.1073 0.83928 0.0
C2144 C 0.56993 0.1207 0.82245 0.0
C2145 C 0.53161 0.0964 0.87284 0.0
C2146 C 0.55287 0.09745 0.88113 0.0
C2147 C 0.59356 0.11074 0.86449 0.0
C2148 C 0.61293 0.12311 0.83976 0.0
C2149 C 0.57212 0.10955 0.85617 0.0
C2150 C 0.61073 0.13434 0.80652 0.0
C2151 C 0.58936 0.13304 0.79778 0.0
H2152 H 0.90545 0.44099 0.79978 0.0
H2153 H 0.86001 0.4041 0.89652 0.0
H2154 H 0.85214 0.4364 0.90668 0.0
H2155 H 0.85786 0.47476 0.88732 0.0
H2156 H 0.90819 0.5145 0.79757 0.0
H2157 H 0.91391 0.4812 0.78425 0.0
C2158 C 0.89391 0.44019 0.82309 0.0
C2159 C 0.88318 0.42037 0.84731 0.0
C2160 C 0.89017 0.45916 0.82959 0.0
C2161 C 0.86844 0.41937 0.87771 0.0
C2162 C 0.8639 0.43773 0.88339 0.0
C2163 C 0.87048 0.47638 0.86544 0.0
C2164 C 0.8826 0.49713 0.84355 0.0
C2165 C 0.87469 0.45771 0.85952 0.0
C2166 C 0.89831 0.49859 0.8144 0.0
C2167 C 0.90178 0.47964 0.80704 0.0
H2168 H 0.58377 0.45411 0.8068 0.0
H2169 H 0.56575 0.48231 0.90629 0.0
H2170 H 0.53024 0.44451 0.91655 0.0
H2171 H 0.50458 0.40321 0.89797 0.0
H2172 H 0.52379 0.37444 0.8011 0.0
H2173 H 0.55834 0.41281 0.78862 0.0
C2174 C 0.57202 0.45206 0.83061 0.0
C2175 C 0.57744 0.47107 0.85569 0.0
C2176 C 0.55178 0.43019 0.83669 0.0
C2177 C 0.56208 0.46799 0.88658 0.0
C2178 C 0.54173 0.44638 0.89247 0.0
C2179 C 0.5164 0.4054 0.87421 0.0
C2180 C 0.5116 0.38617 0.85024 0.0
C2181 C 0.53649 0.42734 0.86786 0.0
C2182 C 0.52692 0.38915 0.81944 0.0
C2183 C 0.54675 0.41101 0.81251 0.0
H2184 H 0.54087 0.79096 0.63451 0.0
H2185 H 0.58386 0.81615 0.73818 0.0
H2186 H 0.58077 0.77805 0.74724 0.0
H2187 H 0.56551 0.73737 0.7267 0.0
H2188 H 0.52084 0.71089 0.62561 0.0
H2189 H 0.52519 0.7497 0.61415 0.0
C2190 C 0.54963 0.78812 0.65896 0.0
C2191 C 0.56255 0.80644 0.6856 0.0
C2192 C 0.54758 0.76596 0.66437 0.0
C2193 C 0.57369 0.80239 0.71729 0.0
C2194 C 0.57199 0.7806 0.72252 0.0
C2195 C 0.55676 0.74017 0.70217 0.0
C2196 C 0.54315 0.72154 0.67674 0.0
C2197 C 0.55891 0.76225 0.69641 0.0
C2198 C 0.53182 0.72522 0.64507 0.0
C2199 C 0.53416 0.74731 0.63874 0.0
H2200 H 0.26212 0.82001 0.72015 0.0
H2201 H 0.29004 0.80484 0.61748 0.0
H2202 H 0.25193 0.76996 0.6047 0.0
H2203 H 0.21098 0.7435 0.62364 0.0
H2204 H 0.18381 0.75761 0.7287 0.0
H2205 H 0.22151 0.79296 0.74013 0.0
C2206 C 0.25981 0.80897 0.69508 0.0
C2207 C 0.27864 0.81501 0.66951 0.0
C2208 C 0.2381 0.78871 0.68859 0.0
C2209 C 0.27556 0.80072 0.63706 0.0
C2210 C 0.25387 0.78071 0.62997 0.0
C2211 C 0.21328 0.7543 0.64904 0.0
C2212 C 0.19456 0.74792 0.6752 0.0
C2213 C 0.23505 0.77451 0.65563 0.0
C2214 C 0.19792 0.76205 0.70811 0.0
C2215 C 0.21945 0.78232 0.71465 0.0
H2216 H 0.25088 0.46567 0.63283 0.0
H2217 H 0.23658 0.42089 0.73342 0.0
H2218 H 0.20044 0.42155 0.74557 0.0
H2219 H 0.17282 0.43477 0.72788 0.0
H2220 H 0.18775 0.48109 0.62975 0.0
H2221 H 0.22351 0.47959 0.61591 0.0
C2222 C 0.23985 0.45602 0.65737 0.0
C2223 C 0.24648 0.44323 0.6821 0.0
C2224 C 0.21911 0.4566 0.66445 0.0
C2225 C 0.232 0.43094 0.71392 0.0
C2226 C 0.21127 0.43125 0.72089 0.0
C2227 C 0.18397 0.44455 0.70352 0.0
C2228 C 0.1776 0.45774 0.67951 0.0
C2229 C 0.20467 0.44401 0.69639 0.0
C2230 C 0.1921 0.47038 0.64804 0.0
C2231 C 0.21261 0.46968 0.64037 0.0
H2232 H 0.45169 0.86024 0.16647 0.0
H2233 H 0.47045 0.90321 0.26984 0.0
H2234 H 0.4324 0.90158 0.26879 0.0
H2235 H 0.39486 0.89 0.23545 0.0
H2236 H 0.37455 0.84312 0.13673 0.0
H2237 H 0.41214 0.84427 0.13872 0.0
C2238 C 0.44727 0.86904 0.1889 0.0
C2239 C 0.46373 0.882 0.21792 0.0
C2240 C 0.42523 0.86751 0.18866 0.0
C2241 C 0.45789 0.89311 0.24725 0.0
C2242 C 0.43623 0.89225 0.24655 0.0
C2243 C 0.39852 0.87972 0.21485 0.0
C2244 C 0.38228 0.86713 0.18518 0.0
C2245 C 0.41988 0.87978 0.21703 0.0
C2246 C 0.38717 0.85373 0.15888 0.0
C2247 C 0.40857 0.85419 0.16019 0.0
H2248 H 0.12696 0.58305 0.24623 0.0
H2249 H 0.09162 0.56825 0.13476 0.0
H2250 H 0.09484 0.53312 0.12794 0.0
H2251 H 0.10771 0.50658 0.15327 0.0
H2252 H 0.14477 0.52197 0.26272 0.0
H2253 H 0.14048 0.55667 0.27113 0.0
C2254 C 0.11992 0.57213 0.22048 0.0
C2255 C 0.10905 0.57834 0.19109 0.0
C2256 C 0.12198 0.55197 0.21652 0.0
C2257 C 0.10014 0.564 0.15781 0.0
C2258 C 0.10192 0.54384 0.15388 0.0
C2259 C 0.1149 0.51761 0.17888 0.0
C2260 C 0.12631 0.51171 0.20754 0.0
C2261 C 0.11282 0.5377 0.18298 0.0
C2262 C 0.13549 0.52599 0.24069 0.0
C2263 C 0.13321 0.54589 0.24531 0.0
H2264 H 0.4117 0.53597 0.24539 0.0
H2265 H 0.42578 0.51075 0.13806 0.0
H2266 H 0.46058 0.54894 0.12718 0.0
H2267 H 0.48718 0.58949 0.14819 0.0
H2268 H 0.47209 0.61546 0.25335 0.0
H2269 H 0.43772 0.57687 0.26544 0.0
C2270 C 0.4224 0.53879 0.21966 0.0
C2271 C 0.41614 0.52046 0.19268 0.0
C2272 C 0.44229 0.56088 0.21333 0.0
C2273 C 0.43013 0.52453 0.15931 0.0
C2274 C 0.45008 0.54636 0.15306 0.0
C2275 C 0.47626 0.58666 0.17363 0.0
C2276 C 0.48222 0.60509 0.20011 0.0
C2277 C 0.45631 0.56465 0.17985 0.0
C2278 C 0.46806 0.60132 0.23303 0.0
C2279 C 0.44834 0.57935 0.23976 0.0
H2280 H 0.13075 0.61037 0.72695 0.0
H2281 H 0.08866 0.59243 0.6227 0.0
H2282 H 0.08231 0.55244 0.62496 0.0
H2283 H 0.08959 0.52288 0.65607 0.0
H2284 H 0.13115 0.54117 0.76146 0.0
H2285 H 0.13659 0.58052 0.75951 0.0
C2286 C 0.11983 0.59752 0.70522 0.0
C2287 C 0.11004 0.60411 0.67491 0.0
C2288 C 0.11626 0.57467 0.70679 0.0
C2289 C 0.09636 0.58759 0.64631 0.0
C2290 C 0.09275 0.56479 0.64759 0.0
C2291 C 0.09981 0.53548 0.67859 0.0
C2292 C 0.10996 0.52903 0.70874 0.0
C2293 C 0.10279 0.55818 0.67753 0.0
C2294 C 0.12306 0.54557 0.73787 0.0
C2295 C 0.12623 0.56814 0.73684 0.0
H2296 H 0.40472 0.5068 0.64856 0.0
H2297 H 0.37552 0.52048 0.75108 0.0
H2298 H 0.41311 0.55591 0.76447 0.0
H2299 H 0.45391 0.58338 0.74599 0.0
H2300 H 0.4826 0.57037 0.64172 0.0
H2301 H 0.4455 0.53444 0.62979 0.0
C2302 C 0.40669 0.51759 0.67382 0.0
C2303 C 0.38763 0.511 0.69914 0.0
C2304 C 0.42816 0.53809 0.68084 0.0
C2305 C 0.3902 0.52504 0.73171 0.0
C2306 C 0.41159 0.54535 0.73916 0.0
C2307 C 0.45211 0.57268 0.7207 0.0
C2308 C 0.47108 0.57962 0.69483 0.0
C2309 C 0.43067 0.55208 0.71383 0.0
C2310 C 0.46832 0.56553 0.66211 0.0
C2311 C 0.44711 0.54494 0.65525 0.0
H2312 H 0.47514 0.85514 0.6599 0.0
H2313 H 0.51177 0.90672 0.74969 0.0
H2314 H 0.47706 0.9104 0.76073 0.0
H2315 H 0.4368 0.90037 0.74239 0.0
H2316 H 0.40283 0.85368 0.64559 0.0
H2317 H 0.43627 0.84724 0.63852 0.0
C2318 C 0.47573 0.86757 0.68128 0.0
C2319 C 0.4961 0.88082 0.70363 0.0
C2320 C 0.45623 0.87059 0.68588 0.0
C2321 C 0.49623 0.89614 0.73234 0.0
C2322 C 0.47647 0.89843 0.73841 0.0
C2323 C 0.43685 0.8888 0.71985 0.0
C2324 C 0.41757 0.87736 0.69465 0.0
C2325 C 0.45646 0.88594 0.71506 0.0
C2326 C 0.41767 0.86262 0.66518 0.0
C2327 C 0.43669 0.85892 0.66124 0.0
H2328 H 0.25954 0.42532 0.23699 0.0
H2329 H 0.28865 0.46972 0.13596 0.0
H2330 H 0.25211 0.47022 0.12654 0.0
H2331 H 0.21235 0.45847 0.14729 0.0
H2332 H 0.18319 0.4154 0.24997 0.0
H2333 H 0.21953 0.41428 0.25898 0.0
C2334 C 0.25778 0.43509 0.21299 0.0
C2335 C 0.27649 0.44714 0.18677 0.0
C2336 C 0.23688 0.43568 0.20827 0.0
C2337 C 0.27421 0.45986 0.15588 0.0
C2338 C 0.25344 0.46031 0.15071 0.0
C2339 C 0.21384 0.44878 0.17168 0.0
C2340 C 0.195 0.43694 0.19781 0.0
C2341 C 0.23469 0.4483 0.17672 0.0
C2342 C 0.19741 0.42467 0.22942 0.0
C2343 C 0.21816 0.42398 0.23453 0.0
H2344 H 0.56132 0.76301 0.13437 0.0
H2345 H 0.52275 0.72976 0.23918 0.0
H2346 H 0.51574 0.76252 0.25057 0.0
H2347 H 0.52069 0.80053 0.2306 0.0
H2348 H 0.56452 0.83669 0.13167 0.0
H2349 H 0.56873 0.80261 0.11713 0.0
C2350 C 0.55135 0.76303 0.15959 0.0
C2351 C 0.54237 0.7441 0.18579 0.0
C2352 C 0.54821 0.78231 0.16673 0.0
C2353 C 0.52978 0.74427 0.21873 0.0
C2354 C 0.52575 0.76292 0.22516 0.0
C2355 C 0.5316 0.8012 0.20636 0.0
C2356 C 0.54236 0.82121 0.1824 0.0
C2357 C 0.535 0.78209 0.19947 0.0
C2358 C 0.55574 0.82139 0.15027 0.0
C2359 C 0.55835 0.80199 0.14215 0.0
H2360 H 0.25655 0.78403 0.198 0.0
H2361 H 0.22744 0.81108 0.11392 0.0
H2362 H 0.19081 0.77317 0.11235 0.0
H2363 H 0.16633 0.73299 0.13837 0.0
H2364 H 0.19733 0.70494 0.217 0.0
H2365 H 0.23403 0.74243 0.21714 0.0
C2366 C 0.24217 0.78146 0.17923 0.0
C2367 C 0.24434 0.80016 0.15652 0.0
C2368 C 0.22155 0.75952 0.17767 0.0
C2369 C 0.22593 0.79677 0.13172 0.0
C2370 C 0.20505 0.77517 0.13087 0.0
C2371 C 0.18127 0.73503 0.15498 0.0
C2372 C 0.17893 0.71658 0.17874 0.0
C2373 C 0.20255 0.75649 0.15412 0.0
C2374 C 0.19849 0.71925 0.19965 0.0
C2375 C 0.2195 0.74062 0.19961 0.0
H2376 H 0.24353 0.24241 0.71469 0.0
H2377 H 0.17602 0.1791 0.71206 0.0
H2378 H 0.17666 0.17627 0.78341 0.0
H2379 H 0.19649 0.19228 0.84667 0.0
H2380 H 0.26312 0.25686 0.84789 0.0
H2381 H 0.26262 0.25877 0.77701 0.0
C2382 C 0.22904 0.22785 0.72966 0.0
C2383 C 0.20987 0.21085 0.70817 0.0
C2384 C 0.22928 0.22669 0.77049 0.0
C2385 C 0.19101 0.19236 0.72804 0.0
C2386 C 0.19136 0.19077 0.76879 0.0
C2387 C 0.21085 0.20677 0.83138 0.0
C2388 C 0.2298 0.22439 0.85262 0.0
C2389 C 0.21038 0.20793 0.79036 0.0
C2390 C 0.24823 0.24313 0.83238 0.0
C2391 C 0.24804 0.24421 0.79177 0.0
H2392 H 0.75939 0.99692 0.84315 0.0
H2393 H 0.82729 0.0023 0.85152 0.0
H2394 H 0.82842 0.99884 0.78032 0.0
H2395 H 0.81029 0.99537 0.71543 0.0
H2396 H 0.74354 0.99282 0.70851 0.0
H2397 H 0.74182 0.99419 0.77938 0.0
C2398 C 0.77434 0.99707 0.82946 0.0
C2399 C 0.79313 -0.00037 0.85246 0.0
C2400 C 0.77514 0.9958 0.78873 0.0
C2401 C 0.81259 0.00027 0.83429 0.0
C2402 C 0.81324 0.99834 0.79365 0.0
C2403 C 0.7954 0.99509 0.72956 0.0
C2404 C 0.77711 0.99405 0.70679 0.0
C2405 C 0.79468 0.99629 0.77052 0.0
C2406 C 0.75796 0.99384 0.72535 0.0
C2407 C 0.75688 0.99451 0.76591 0.0
H2408 H 0.00635 0.76541 0.73673 0.0
H2409 H 0.98829 0.81946 0.72035 0.0
H2410 H 0.98406 0.82159 0.79123 0.0
H2411 H 0.98529 0.80759 0.85783 0.0
H2412 H 0.00585 0.75515 0.87266 0.0
H2413 H 0.00951 0.75303 0.80231 0.0
C2414 C 0.00133 0.77756 0.74866 0.0
C2415 C 0.99732 0.79203 0.72357 0.0
C2416 C -0.00044 0.77908 0.78911 0.0
C2417 C 0.99136 0.80808 0.7393 0.0
C2418 C 0.98896 0.80929 0.77972 0.0
C2419 C 0.99066 0.7958 0.84556 0.0
C2420 C 0.99524 0.78152 0.87037 0.0
C2421 C 0.99302 0.79484 0.80492 0.0
C2422 C 0.00236 0.76644 0.85422 0.0
C2423 C 0.00434 0.7651 0.81397 0.0
H2424 H 0.77033 0.74509 0.33525 0.0
H2425 H 0.80658 0.81839 0.36649 0.0
H2426 H 0.81034 0.82923 0.2972 0.0
H2427 H 0.80171 0.81745 0.22777 0.0
H2428 H 0.76666 0.74372 0.19827 0.0
H2429 H 0.76428 0.73352 0.26689 0.0
C2430 C 0.77904 0.76345 0.32691 0.0
C2431 C 0.7879 0.78093 0.35574 0.0
C2432 C 0.78141 0.76946 0.28734 0.0
C2433 C 0.79956 0.80465 0.34462 0.0
C2434 C 0.80168 0.81083 0.30509 0.0
C2435 C 0.79374 0.79918 0.23641 0.0
C2436 C 0.78421 0.7814 0.2079 0.0
C2437 C 0.79247 0.79334 0.27618 0.0
C2438 C 0.7741 0.7578 0.21951 0.0
C2439 C 0.77263 0.75189 0.25881 0.0
H2440 H 0.24684 0.00753 0.33592 0.0
H2441 H 0.17857 0.00049 0.35135 0.0
H2442 H 0.17144 0.99477 0.28086 0.0
H2443 H 0.18489 0.99185 0.21481 0.0
H2444 H 0.2543 0.00137 0.20027 0.0
H2445 H 0.26077 0.00618 0.27049 0.0
C2446 C 0.23034 0.00459 0.32386 0.0
C2447 C 0.21315 0.00419 0.34861 0.0
C2448 C 0.22664 0.00191 0.2835 0.0
C2449 C 0.19203 0.00083 0.33268 0.0
C2450 C 0.18796 0.99756 0.29247 0.0
C2451 C 0.20141 0.99499 0.22712 0.0
C2452 C 0.21906 0.9962 0.20248 0.0
C2453 C 0.20517 0.9981 0.26759 0.0
C2454 C 0.24048 0.0005 0.21863 0.0
C2455 C 0.24418 0.00315 0.25879 0.0
H2456 H 0.00071 0.24555 0.20341 0.0
H2457 H 0.00112 0.18021 0.20209 0.0
H2458 H 0.99701 0.17761 0.27343 0.0
H2459 H 0.99366 0.19437 0.3362 0.0
H2460 H 0.99609 0.26119 0.3364 0.0
H2461 H -0.00109 0.26285 0.26541 0.0
C2462 C -0.00032 0.23061 0.2187 0.0
C2463 C 0.00089 0.21293 0.19765 0.0
C2464 C 0.99803 0.22963 0.25949 0.0
C2465 C 0.0001 0.19397 0.21782 0.0
C2466 C 0.99778 0.19251 0.25852 0.0
C2467 C 0.99482 0.20927 0.32061 0.0
C2468 C 0.99462 0.2276 0.34147 0.0
C2469 C 0.99681 0.21031 0.27968 0.0
C2470 C 0.99636 0.24692 0.32104 0.0
C2471 C 0.99785 0.24785 0.28043 0.0
H2472 H 0.90811 0.58766 0.05122 0.0
H2473 H 0.84699 0.51961 0.03318 0.0
H2474 H 0.84531 0.51146 0.10338 0.0
H2475 H 0.86155 0.52399 0.17018 0.0
H2476 H 0.92188 0.59301 0.18636 0.0
H2477 H 0.92344 0.60041 0.11668 0.0
C2478 C 0.89446 0.57097 0.06253 0.0
C2479 C 0.87781 0.5542 0.03702 0.0
C2480 C 0.89341 0.56661 0.1027 0.0
C2481 C 0.86004 0.53281 0.05227 0.0
C2482 C 0.85909 0.52815 0.09238 0.0
C2483 C 0.87498 0.54062 0.15837 0.0
C2484 C 0.89154 0.5579 0.18354 0.0
C2485 C 0.87571 0.54495 0.11794 0.0
C2486 C 0.90879 0.57943 0.16781 0.0
C2487 C 0.9098 0.5837 0.12787 0.0
H2488 H 0.43048 0.34585 0.1668 0.0
H2489 H 0.48027 0.32261 0.18804 0.0
H2490 H 0.48403 0.31874 0.11759 0.0
H2491 H 0.47244 0.32136 0.05008 0.0
H2492 H 0.4238 0.34629 0.02994 0.0
H2493 H 0.42055 0.35038 0.09995 0.0
C2494 C 0.44207 0.33981 0.15601 0.0
C2495 C 0.45487 0.33424 0.18241 0.0
C2496 C 0.44447 0.33811 0.11573 0.0
C2497 C 0.47018 0.32691 0.16812 0.0
C2498 C 0.47233 0.32472 0.12793 0.0
C2499 C 0.46126 0.32782 0.06104 0.0
C2500 C 0.44831 0.3334 0.03483 0.0
C2501 C 0.45951 0.33023 0.10146 0.0
C2502 C 0.43401 0.34191 0.04943 0.0
C2503 C 0.43203 0.34415 0.0895 0.0
H2504 H 0.67627 0.14955 0.04619 0.0
H2505 H 0.64241 0.07565 0.01841 0.0
H2506 H 0.63486 0.06578 0.08716 0.0
H2507 H 0.63869 0.07773 0.15526 0.0
H2508 H 0.67081 0.15111 0.18485 0.0
H2509 H 0.67819 0.16156 0.11546 0.0
C2510 C 0.66711 0.13131 0.05523 0.0
C2511 C 0.66002 0.11341 0.02705 0.0
C2512 C 0.66261 0.12562 0.09517 0.0
C2513 C 0.64805 0.08984 0.03928 0.0
C2514 C 0.64377 0.08412 0.0787 0.0
C2515 C 0.64736 0.09604 0.14659 0.0
C2516 C 0.65441 0.11363 0.17512 0.0
C2517 C 0.65116 0.10183 0.10687 0.0
C2518 C 0.66526 0.13724 0.16337 0.0
C2519 C 0.66949 0.14321 0.12373 0.0
H2520 H 0.48324 0.13416 0.65321 0.0
H2521 H 0.40972 0.09205 0.68216 0.0
H2522 H 0.39938 0.08849 0.61348 0.0
H2523 H 0.41095 0.09612 0.54524 0.0
H2524 H 0.48387 0.13956 0.51461 0.0
H2525 H 0.49475 0.1438 0.58389 0.0
C2526 C 0.46498 0.12435 0.64441 0.0
C2527 C 0.44732 0.1133 0.67277 0.0
C2528 C 0.45905 0.12246 0.60463 0.0
C2529 C 0.4237 0.10077 0.66101 0.0
C2530 C 0.41772 0.09861 0.62168 0.0
C2531 C 0.42924 0.10645 0.55372 0.0
C2532 C 0.44662 0.11728 0.52507 0.0
C2533 C 0.43523 0.10914 0.59329 0.0
C2534 C 0.47021 0.13101 0.53635 0.0
C2535 C 0.47641 0.13342 0.57587 0.0
H2536 H 0.85335 0.30403 0.66342 0.0
H2537 H 0.88394 0.37914 0.67121 0.0
H2538 H 0.88562 0.3822 0.60006 0.0
H2539 H 0.88063 0.36367 0.53547 0.0
H2540 H 0.84699 0.2883 0.52754 0.0
H2541 H 0.84411 0.28512 0.59866 0.0
C2542 C 0.86012 0.321 0.64942 0.0
C2543 C 0.86865 0.34132 0.67237 0.0
C2544 C 0.86059 0.32259 0.60848 0.0
C2545 C 0.87717 0.36322 0.65405 0.0
C2546 C 0.87827 0.36501 0.61339 0.0
C2547 C 0.8725 0.34659 0.54944 0.0
C2548 C 0.86422 0.32628 0.52653 0.0
C2549 C 0.87038 0.34485 0.5903 0.0
C2550 C 0.85343 0.30418 0.54472 0.0
C2551 C 0.85187 0.30235 0.58535 0.0
H2552 H 0.70232 0.55614 0.56016 0.0
H2553 H 0.62811 0.525 0.53869 0.0
H2554 H 0.62013 0.51791 0.60863 0.0
H2555 H 0.63447 0.52271 0.67609 0.0
H2556 H 0.70886 0.5581 0.69826 0.0
H2557 H 0.71672 0.5613 0.62791 0.0
C2558 C 0.68442 0.5476 0.57091 0.0
C2559 C 0.66579 0.54099 0.54459 0.0
C2560 C 0.68007 0.54442 0.61121 0.0
C2561 C 0.64269 0.53028 0.55864 0.0
C2562 C 0.63813 0.5262 0.59852 0.0
C2563 C 0.65236 0.53079 0.66539 0.0
C2564 C 0.67109 0.53995 0.69199 0.0
C2565 C 0.6567 0.53347 0.6251 0.0
C2566 C 0.69423 0.55089 0.67807 0.0
C2567 C 0.69869 0.55274 0.63796 0.0
H2568 H 0.57743 0.91613 0.38574 0.0
H2569 H 0.51535 0.84802 0.3748 0.0
H2570 H 0.51591 0.8417 0.44525 0.0
H2571 H 0.53413 0.85599 0.51011 0.0
H2572 H 0.59528 0.92505 0.5196 0.0
H2573 H 0.59492 0.93055 0.44949 0.0
C2574 C 0.56409 0.89982 0.39867 0.0
C2575 C 0.54648 0.8825 0.37518 0.0
C2576 C 0.56429 0.89654 0.43896 0.0
C2577 C 0.5291 0.86161 0.39242 0.0
C2578 C 0.52943 0.858 0.43263 0.0
C2579 C 0.54734 0.8722 0.49673 0.0
C2580 C 0.56468 0.89008 0.52 0.0
C2581 C 0.54692 0.87541 0.45623 0.0
C2582 C 0.58163 0.91107 0.5024 0.0
C2583 C 0.58152 0.91422 0.46227 0.0
H2584 H 0.0892 0.66785 0.49045 0.0
H2585 H 0.15534 0.66954 0.50086 0.0
H2586 H 0.15569 0.66349 0.4303 0.0
H2587 H 0.13717 0.6582 0.36558 0.0
H2588 H 0.07215 0.65899 0.356 0.0
H2589 H 0.07139 0.66366 0.42644 0.0
C2590 C 0.1036 0.66672 0.47729 0.0
C2591 C 0.12212 0.66895 0.50057 0.0
C2592 C 0.10393 0.66382 0.43693 0.0
C2593 C 0.1409 0.66787 0.48326 0.0
C2594 C 0.14109 0.66441 0.44304 0.0
C2595 C 0.12287 0.65938 0.37906 0.0
C2596 C 0.10477 0.65828 0.35584 0.0
C2597 C 0.12272 0.66245 0.41957 0.0
C2598 C 0.08639 0.66 0.37337 0.0
C2599 C 0.08587 0.66256 0.41361 0.0
H2600 H 0.33901 0.47623 0.37193 0.0
H2601 H 0.33738 0.4098 0.37108 0.0
H2602 H 0.33427 0.40774 0.44198 0.0
H2603 H 0.33187 0.42448 0.50403 0.0
H2604 H 0.33045 0.48928 0.50631 0.0
H2605 H 0.33497 0.49243 0.43501 0.0
C2606 C 0.33797 0.46135 0.38739 0.0
C2607 C 0.33846 0.44322 0.36639 0.0
C2608 C 0.33572 0.46003 0.4283 0.0
C2609 C 0.33687 0.4239 0.3866 0.0
C2610 C 0.3352 0.42274 0.42714 0.0
C2611 C 0.33275 0.43941 0.48896 0.0
C2612 C 0.33115 0.45679 0.51024 0.0
C2613 C 0.33465 0.44069 0.44824 0.0
C2614 C 0.33175 0.47575 0.49037 0.0
C2615 C 0.33432 0.47753 0.4497 0.0
H2616 H 0.14746 0.44733 0.88403 0.0
H2617 H 0.10926 0.48469 0.87687 0.0
H2618 H 0.11016 0.48848 0.94786 0.0
H2619 H 0.11942 0.47868 0.01229 0.0
H2620 H 0.16041 0.44423 0.01956 0.0
H2621 H 0.16112 0.44202 0.94834 0.0
C2622 C 0.13958 0.45648 0.89816 0.0
C2623 C 0.12814 0.46551 0.87557 0.0
C2624 C 0.14065 0.45909 0.93893 0.0
C2625 C 0.11821 0.47763 0.89386 0.0
C2626 C 0.11863 0.47972 0.9344 0.0
C2627 C 0.12876 0.471 0.99813 0.0
C2628 C 0.13968 0.46149 0.02085 0.0
C2629 C 0.12945 0.47018 0.95726 0.0
C2630 C 0.15196 0.45177 1.00246 0.0
C2631 C 0.15224 0.45036 0.96181 0.0
H2632 H 0.56393 0.65718 0.88318 0.0
H2633 H 0.50421 0.66636 0.86516 0.0
H2634 H 0.50034 0.66915 0.93605 0.0
H2635 H 0.51447 0.66919 0.00334 0.0
H2636 H 0.57253 0.65688 0.01948 0.0
H2637 H 0.57641 0.65492 0.94919 0.0
C2638 C 0.55016 0.65995 0.89478 0.0
C2639 C 0.53459 0.66193 0.86922 0.0
C2640 C 0.54766 0.6608 0.93524 0.0
C2641 C 0.51645 0.66493 0.88449 0.0
C2642 C 0.51426 0.6665 0.92492 0.0
C2643 C 0.52786 0.66597 0.99134 0.0
C2644 C 0.5432 0.66322 0.01657 0.0
C2645 C 0.5298 0.66446 0.95063 0.0
C2646 C 0.56038 0.65888 1.00075 0.0
C2647 C 0.56273 0.65789 0.96051 0.0
H2648 H 0.33139 0.90396 0.8643 0.0
H2649 H 0.33525 0.84042 0.86389 0.0
H2650 H 0.33056 0.83759 0.93508 0.0
H2651 H 0.32577 0.85367 0.99752 0.0
H2652 H 0.32436 0.9186 0.9968 0.0
H2653 H 0.32785 0.92047 0.92596 0.0
C2654 C 0.33099 0.88936 0.87974 0.0
C2655 C 0.3334 0.87228 0.85896 0.0
C2656 C 0.32892 0.88822 0.92048 0.0
C2657 C 0.33335 0.85373 0.87937 0.0
C2658 C 0.33069 0.85214 0.92 0.0
C2659 C 0.32624 0.8682 0.98178 0.0
C2660 C 0.32478 0.88594 1.00239 0.0
C2661 C 0.32856 0.86936 0.9409 0.0
C2662 C 0.3256 0.90478 0.9817 0.0
C2663 C 0.32748 0.90584 0.94114 0.0
loop_
_geom_bond_atom_site_label_1
_geom_bond_atom_site_label_2
_geom_bond_distance
_geom_bond_site_symmetry_2
_ccdc_geom_bond_type
Co0 O3 1.970 . S
Co0 N17 1.989 . S
Co0 O25 1.967 . S
Co0 O32 1.920 . S
Co1 O4 1.966 . S
Co1 N10 2.022 . S
Co1 N18 1.993 . S
Co1 O26 1.941 . S
C2 O3 1.258 . S
C2 O4 1.263 1_556 S
O3 Co0 1.970 . S
O3 C2 1.258 . S
O4 Co1 1.966 . S
O4 C2 1.263 1_554 S
C5 O6 1.235 . S
C5 O32 1.289 . S
O6 C5 1.235 . S
C7 C9 1.400 . S
C7 N10 1.351 . S
C7 C12 1.501 . S
C8 C9 1.387 . S
C8 N11 1.341 . S
C9 C7 1.400 . S
C9 C8 1.387 . S
N10 Co1 2.022 . S
N10 C7 1.351 . S
N10 N11 1.365 . S
N11 C8 1.341 . S
N11 N10 1.365 . S
N11 H31 0.862 . S
C12 C7 1.501 . S
C12 H13 0.961 . S
C12 H14 0.961 . S
C12 H15 0.960 . S
H13 C12 0.961 . S
H14 C12 0.961 . S
H15 C12 0.960 . S
C16 N17 1.342 . S
C16 C20 1.401 1_556 S
C16 C21 1.499 . S
N17 Co0 1.989 . S
N17 C16 1.342 . S
N17 N18 1.388 1_556 S
N18 Co1 1.993 . S
N18 N17 1.388 1_554 S
N18 C19 1.346 . S
C19 N18 1.346 . S
C19 C20 1.396 . S
C19 C29 1.510 . S
C20 C16 1.401 1_554 S
C20 C19 1.396 . S
C21 C16 1.499 . S
C21 H22 0.959 . S
C21 H23 0.960 . S
C21 H24 0.961 . S
H22 C21 0.959 . S
H23 C21 0.960 . S
H24 C21 0.961 . S
O25 Co0 1.967 . S
O25 C33 1.258 1_556 S
O26 Co1 1.941 . S
O26 C33 1.266 . S
H27 C29 0.959 . S
H28 C29 0.961 . S
C29 C19 1.510 . S
C29 H27 0.959 . S
C29 H28 0.961 . S
C29 H30 0.960 . S
H30 C29 0.960 . S
H31 N11 0.862 . S
O32 Co0 1.920 . S
O32 C5 1.289 . S
C33 O25 1.258 1_554 S
C33 O26 1.266 . S
Co34 O37 1.970 . S
Co34 N51 1.989 1_545 S
Co34 O59 1.967 . S
Co34 O66 1.920 . S
Co35 O38 1.966 . S
Co35 N44 2.022 . S
Co35 N52 1.993 1_545 S
Co35 O60 1.941 . S
C36 O37 1.258 . S
C36 O38 1.263 1_556 S
O37 Co34 1.970 . S
O37 C36 1.258 . S
O38 Co35 1.966 . S
O38 C36 1.263 1_554 S
C39 O40 1.235 1_545 S
C39 O66 1.289 . S
O40 C39 1.235 1_565 S
C41 C43 1.400 . S
C41 N44 1.351 . S
C41 C46 1.501 . S
C42 C43 1.387 . S
C42 N45 1.341 . S
C43 C41 1.400 . S
C43 C42 1.387 . S
N44 Co35 2.022 . S
N44 C41 1.351 . S
N44 N45 1.365 . S
N45 C42 1.341 . S
N45 N44 1.365 . S
N45 H65 0.862 . S
C46 C41 1.501 . S
C46 H47 0.961 . S
C46 H48 0.974 . S
C46 H49 0.960 . S
H47 C46 0.961 . S
H48 C46 0.974 . S
H49 C46 0.960 . S
C50 N51 1.342 . S
C50 C54 1.401 1_556 S
C50 C55 1.499 . S
N51 Co34 1.989 1_565 S
N51 C50 1.342 . S
N51 N52 1.388 1_556 S
N52 Co35 1.993 1_565 S
N52 N51 1.388 1_554 S
N52 C53 1.346 . S
C53 N52 1.346 . S
C53 C54 1.396 . S
C53 C63 1.510 . S
C54 C50 1.401 1_554 S
C54 C53 1.396 . S
C55 C50 1.499 . S
C55 H56 0.959 . S
C55 H57 0.960 . S
C55 H58 0.961 . S
H56 C55 0.959 . S
H57 C55 0.960 . S
H58 C55 0.961 . S
O59 Co34 1.967 . S
O59 C67 1.258 1_556 S
O60 Co35 1.941 . S
O60 C67 1.266 . S
H61 C63 0.959 . S
H62 C63 0.961 . S
C63 C53 1.510 . S
C63 H61 0.959 . S
C63 H62 0.961 . S
C63 H64 0.960 . S
H64 C63 0.960 . S
H65 N45 0.862 . S
O66 Co34 1.920 . S
O66 C39 1.289 . S
C67 O59 1.258 1_554 S
C67 O60 1.266 . S
Co68 O71 1.970 . S
Co68 N85 1.989 1_655 S
Co68 O93 1.967 . S
Co68 O100 1.920 . S
Co69 O72 1.966 . S
Co69 N78 2.022 . S
Co69 N86 1.993 1_655 S
Co69 O94 1.941 . S
C70 O71 1.258 . S
C70 O72 1.263 1_556 S
O71 Co68 1.970 . S
O71 C70 1.258 . S
O72 Co69 1.966 . S
O72 C70 1.263 1_554 S
C73 O74 1.235 1_655 S
C73 O100 1.289 . S
O74 C73 1.235 1_455 S
C75 C77 1.400 . S
C75 N78 1.351 . S
C75 C80 1.501 . S
C76 C77 1.387 . S
C76 N79 1.341 . S
C77 C75 1.400 . S
C77 C76 1.387 . S
N78 Co69 2.022 . S
N78 C75 1.351 . S
N78 N79 1.365 . S
N79 C76 1.341 . S
N79 N78 1.365 . S
N79 H99 0.862 . S
C80 C75 1.501 . S
C80 H81 0.961 . S
C80 H82 0.977 . S
C80 H83 0.960 . S
H81 C80 0.961 . S
H82 C80 0.977 . S
H83 C80 0.960 . S
C84 N85 1.342 . S
C84 C88 1.401 1_556 S
C84 C89 1.499 . S
N85 Co68 1.989 1_455 S
N85 C84 1.342 . S
N85 N86 1.388 1_556 S
N86 Co69 1.993 1_455 S
N86 N85 1.388 1_554 S
N86 C87 1.346 . S
C87 N86 1.346 . S
C87 C88 1.396 . S
C87 C97 1.510 . S
C88 C84 1.401 1_554 S
C88 C87 1.396 . S
C89 C84 1.499 . S
C89 H90 0.959 . S
C89 H91 0.960 . S
C89 H92 0.961 . S
H90 C89 0.959 . S
H91 C89 0.960 . S
H92 C89 0.961 . S
O93 Co68 1.967 . S
O93 C101 1.258 1_556 S
O94 Co69 1.941 . S
O94 C101 1.266 . S
H95 C97 0.959 . S
H96 C97 0.961 . S
C97 C87 1.510 . S
C97 H95 0.959 . S
C97 H96 0.961 . S
C97 H98 0.960 . S
H98 C97 0.960 . S
H99 N79 0.862 . S
O100 Co68 1.920 . S
O100 C73 1.289 . S
C101 O93 1.258 1_554 S
C101 O94 1.266 . S
Co102 O105 1.970 . S
Co102 N119 1.989 . S
Co102 O127 1.967 . S
Co102 O134 1.920 . S
Co103 O106 1.966 . S
Co103 N112 2.022 . S
Co103 N120 1.993 . S
Co103 O128 1.941 . S
C104 O105 1.258 . S
C104 O106 1.263 . S
O105 Co102 1.970 . S
O105 C104 1.258 . S
O106 Co103 1.966 . S
O106 C104 1.263 . S
C107 O108 1.235 . S
C107 O134 1.289 . S
O108 C107 1.235 . S
C109 C111 1.400 . S
C109 N112 1.351 . S
C109 C114 1.501 . S
C110 C111 1.387 . S
C110 N113 1.341 . S
C111 C109 1.400 . S
C111 C110 1.387 . S
N112 Co103 2.022 . S
N112 C109 1.351 . S
N112 N113 1.365 . S
N113 C110 1.341 . S
N113 N112 1.365 . S
N113 H133 0.862 . S
C114 C109 1.501 . S
C114 H115 0.961 . S
C114 H116 0.961 . S
C114 H117 0.960 . S
H115 C114 0.961 . S
H116 C114 0.961 . S
H117 C114 0.960 . S
C118 N119 1.342 . S
C118 C122 1.401 . S
C118 C123 1.499 . S
N119 Co102 1.989 . S
N119 C118 1.342 . S
N119 N120 1.388 . S
N120 Co103 1.993 . S
N120 N119 1.388 . S
N120 C121 1.346 . S
C121 N120 1.346 . S
C121 C122 1.396 . S
C121 C131 1.510 . S
C122 C118 1.401 . S
C122 C121 1.396 . S
C123 C118 1.499 . S
C123 H124 0.959 . S
C123 H125 0.960 . S
C123 H126 0.961 . S
H124 C123 0.959 . S
H125 C123 0.960 . S
H126 C123 0.961 . S
O127 Co102 1.967 . S
O127 C135 1.258 . S
O128 Co103 1.941 . S
O128 C135 1.266 . S
H129 C131 0.959 . S
H130 C131 0.961 . S
C131 C121 1.510 . S
C131 H129 0.959 . S
C131 H130 0.961 . S
C131 H132 0.960 . S
H132 C131 0.960 . S
H133 N113 0.862 . S
O134 Co102 1.920 . S
O134 C107 1.289 . S
C135 O127 1.258 . S
C135 O128 1.266 . S
Co136 O139 1.970 . S
Co136 N153 1.989 1_565 S
Co136 O161 1.967 . S
Co136 O168 1.920 . S
Co137 O140 1.966 . S
Co137 N146 2.022 . S
Co137 N154 1.993 1_565 S
Co137 O162 1.941 . S
C138 O139 1.258 . S
C138 O140 1.263 . S
O139 Co136 1.970 . S
O139 C138 1.258 . S
O140 Co137 1.966 . S
O140 C138 1.263 . S
C141 O142 1.235 1_565 S
C141 O168 1.289 . S
O142 C141 1.235 1_545 S
C143 C145 1.400 . S
C143 N146 1.351 . S
C143 C148 1.501 . S
C144 C145 1.387 . S
C144 N147 1.341 . S
C145 C143 1.400 . S
C145 C144 1.387 . S
N146 Co137 2.022 . S
N146 C143 1.351 . S
N146 N147 1.365 . S
N147 C144 1.341 . S
N147 N146 1.365 . S
N147 H167 0.862 . S
C148 C143 1.501 . S
C148 H149 0.961 . S
C148 H150 1.009 . S
C148 H151 0.960 . S
H149 C148 0.961 . S
H150 C148 1.009 . S
H151 C148 0.960 . S
C152 N153 1.342 . S
C152 C156 1.401 . S
C152 C157 1.499 . S
N153 Co136 1.989 1_545 S
N153 C152 1.342 . S
N153 N154 1.388 . S
N154 Co137 1.993 1_545 S
N154 N153 1.388 . S
N154 C155 1.346 . S
C155 N154 1.346 . S
C155 C156 1.396 . S
C155 C165 1.510 . S
C156 C152 1.401 . S
C156 C155 1.396 . S
C157 C152 1.499 . S
C157 H158 0.959 . S
C157 H159 0.960 . S
C157 H160 0.961 . S
H158 C157 0.959 . S
H159 C157 0.960 . S
H160 C157 0.961 . S
O161 Co136 1.967 . S
O161 C169 1.258 . S
O162 Co137 1.941 . S
O162 C169 1.266 . S
H163 C165 0.959 . S
H164 C165 0.961 . S
C165 C155 1.510 . S
C165 H163 0.959 . S
C165 H164 0.961 . S
C165 H166 0.960 . S
H166 C165 0.960 . S
H167 N147 0.862 . S
O168 Co136 1.920 . S
O168 C141 1.289 . S
C169 O161 1.258 . S
C169 O162 1.266 . S
Co170 O173 1.970 . S
Co170 N187 1.989 1_455 S
Co170 O195 1.967 . S
Co170 O202 1.920 . S
Co171 O174 1.966 . S
Co171 N180 2.022 . S
Co171 N188 1.993 1_455 S
Co171 O196 1.941 . S
C172 O173 1.258 . S
C172 O174 1.263 . S
O173 Co170 1.970 . S
O173 C172 1.258 . S
O174 Co171 1.966 . S
O174 C172 1.263 . S
C175 O176 1.235 1_455 S
C175 O202 1.289 . S
O176 C175 1.235 1_655 S
C177 C179 1.400 . S
C177 N180 1.351 . S
C177 C182 1.501 . S
C178 C179 1.387 . S
C178 N181 1.341 . S
C179 C177 1.400 . S
C179 C178 1.387 . S
N180 Co171 2.022 . S
N180 C177 1.351 . S
N180 N181 1.365 . S
N181 C178 1.341 . S
N181 N180 1.365 . S
N181 H201 0.862 . S
C182 C177 1.501 . S
C182 H183 0.961 . S
C182 H184 0.992 . S
C182 H185 0.960 . S
H183 C182 0.961 . S
H184 C182 0.992 . S
H185 C182 0.960 . S
C186 N187 1.342 . S
C186 C190 1.401 . S
C186 C191 1.499 . S
N187 Co170 1.989 1_655 S
N187 C186 1.342 . S
N187 N188 1.388 . S
N188 Co171 1.993 1_655 S
N188 N187 1.388 . S
N188 C189 1.346 . S
C189 N188 1.346 . S
C189 C190 1.396 . S
C189 C199 1.510 . S
C190 C186 1.401 . S
C190 C189 1.396 . S
C191 C186 1.499 . S
C191 H192 0.959 . S
C191 H193 0.960 . S
C191 H194 0.961 . S
H192 C191 0.959 . S
H193 C191 0.960 . S
H194 C191 0.961 . S
O195 Co170 1.967 . S
O195 C203 1.258 . S
O196 Co171 1.941 . S
O196 C203 1.266 . S
H197 C199 0.959 . S
H198 C199 0.961 . S
C199 C189 1.510 . S
C199 H197 0.959 . S
C199 H198 0.961 . S
C199 H200 0.960 . S
H200 C199 0.960 . S
H201 N181 0.862 . S
O202 Co170 1.920 . S
O202 C175 1.289 . S
C203 O195 1.258 . S
C203 O196 1.266 . S
Co204 O207 1.970 . S
Co204 N221 1.989 . S
Co204 O229 1.967 . S
Co204 O236 1.920 . S
Co205 O208 1.966 1_556 S
Co205 N214 2.022 . S
Co205 N222 1.993 1_556 S
Co205 O230 1.941 1_556 S
C206 O207 1.258 . S
C206 O208 1.263 . S
O207 Co204 1.970 . S
O207 C206 1.258 . S
O208 Co205 1.966 1_554 S
O208 C206 1.263 . S
C209 O210 1.235 . S
C209 O236 1.289 . S
O210 C209 1.235 . S
C211 C213 1.400 . S
C211 N214 1.351 . S
C211 C216 1.501 . S
C212 C213 1.387 . S
C212 N215 1.341 . S
C213 C211 1.400 . S
C213 C212 1.387 . S
N214 Co205 2.022 . S
N214 C211 1.351 . S
N214 N215 1.365 . S
N215 C212 1.341 . S
N215 N214 1.365 . S
N215 H235 0.862 . S
C216 C211 1.501 . S
C216 H217 0.961 . S
C216 H218 0.961 . S
C216 H219 0.960 . S
H217 C216 0.961 . S
H218 C216 0.961 . S
H219 C216 0.960 . S
C220 N221 1.342 . S
C220 C224 1.401 . S
C220 C225 1.499 . S
N221 Co204 1.989 . S
N221 C220 1.342 . S
N221 N222 1.388 . S
N222 Co205 1.993 1_554 S
N222 N221 1.388 . S
N222 C223 1.346 . S
C223 N222 1.346 . S
C223 C224 1.396 . S
C223 C233 1.510 1_554 S
C224 C220 1.401 . S
C224 C223 1.396 . S
C225 C220 1.499 . S
C225 H226 0.959 . S
C225 H227 0.960 . S
C225 H228 0.961 . S
H226 C225 0.959 . S
H227 C225 0.960 . S
H228 C225 0.961 . S
O229 Co204 1.967 . S
O229 C237 1.258 . S
O230 Co205 1.941 1_554 S
O230 C237 1.266 . S
H231 C233 0.959 . S
H232 C233 0.961 . S
C233 C223 1.510 1_556 S
C233 H231 0.959 . S
C233 H232 0.961 . S
C233 H234 0.960 . S
H234 C233 0.960 . S
H235 N215 0.862 . S
O236 Co204 1.920 . S
O236 C209 1.289 . S
C237 O229 1.258 . S
C237 O230 1.266 . S
Co238 O241 1.970 . S
Co238 N255 1.989 1_565 S
Co238 O263 1.967 . S
Co238 O270 1.920 . S
Co239 O242 1.966 1_556 S
Co239 N248 2.022 . S
Co239 N256 1.993 1_566 S
Co239 O264 1.941 1_556 S
C240 O241 1.258 . S
C240 O242 1.263 . S
O241 Co238 1.970 . S
O241 C240 1.258 . S
O242 Co239 1.966 1_554 S
O242 C240 1.263 . S
C243 O244 1.235 1_565 S
C243 O270 1.289 . S
O244 C243 1.235 1_545 S
C245 C247 1.400 . S
C245 N248 1.351 . S
C245 C250 1.501 . S
C246 C247 1.387 . S
C246 N249 1.341 . S
C247 C245 1.400 . S
C247 C246 1.387 . S
N248 Co239 2.022 . S
N248 C245 1.351 . S
N248 N249 1.365 . S
N249 C246 1.341 . S
N249 N248 1.365 . S
N249 H269 0.862 . S
C250 C245 1.501 . S
C250 H251 0.961 . S
C250 H252 0.988 . S
C250 H253 0.960 . S
H251 C250 0.961 . S
H252 C250 0.988 . S
H253 C250 0.960 . S
C254 N255 1.342 . S
C254 C258 1.401 . S
C254 C259 1.499 . S
N255 Co238 1.989 1_545 S
N255 C254 1.342 . S
N255 N256 1.388 . S
N256 Co239 1.993 1_544 S
N256 N255 1.388 . S
N256 C257 1.346 . S
C257 N256 1.346 . S
C257 C258 1.396 . S
C257 C267 1.510 1_554 S
C258 C254 1.401 . S
C258 C257 1.396 . S
C259 C254 1.499 . S
C259 H260 0.959 . S
C259 H261 0.960 . S
C259 H262 0.961 . S
H260 C259 0.959 . S
H261 C259 0.960 . S
H262 C259 0.961 . S
O263 Co238 1.967 . S
O263 C271 1.258 . S
O264 Co239 1.941 1_554 S
O264 C271 1.266 . S
H265 C267 0.959 . S
H266 C267 0.961 . S
C267 C257 1.510 1_556 S
C267 H265 0.959 . S
C267 H266 0.961 . S
C267 H268 0.960 . S
H268 C267 0.960 . S
H269 N249 0.862 . S
O270 Co238 1.920 . S
O270 C243 1.289 . S
C271 O263 1.258 . S
C271 O264 1.266 . S
Co272 O275 1.970 . S
Co272 N289 1.989 1_455 S
Co272 O297 1.967 . S
Co272 O304 1.920 . S
Co273 O276 1.966 1_556 S
Co273 N282 2.022 . S
Co273 N290 1.993 1_456 S
Co273 O298 1.941 1_556 S
C274 O275 1.258 . S
C274 O276 1.263 . S
O275 Co272 1.970 . S
O275 C274 1.258 . S
O276 Co273 1.966 1_554 S
O276 C274 1.263 . S
C277 O278 1.235 1_455 S
C277 O304 1.289 . S
O278 C277 1.235 1_655 S
C279 C281 1.400 . S
C279 N282 1.351 . S
C279 C284 1.501 . S
C280 C281 1.387 . S
C280 N283 1.341 . S
C281 C279 1.400 . S
C281 C280 1.387 . S
N282 Co273 2.022 . S
N282 C279 1.351 . S
N282 N283 1.365 . S
N283 C280 1.341 . S
N283 N282 1.365 . S
N283 H303 0.862 . S
C284 C279 1.501 . S
C284 H285 0.961 . S
C284 H286 1.016 . S
C284 H287 0.960 . S
H285 C284 0.961 . S
H286 C284 1.016 . S
H287 C284 0.960 . S
C288 N289 1.342 . S
C288 C292 1.401 . S
C288 C293 1.499 . S
N289 Co272 1.989 1_655 S
N289 C288 1.342 . S
N289 N290 1.388 . S
N290 Co273 1.993 1_654 S
N290 N289 1.388 . S
N290 C291 1.346 . S
C291 N290 1.346 . S
C291 C292 1.396 . S
C291 C301 1.510 1_554 S
C292 C288 1.401 . S
C292 C291 1.396 . S
C293 C288 1.499 . S
C293 H294 0.959 . S
C293 H295 0.960 . S
C293 H296 0.961 . S
H294 C293 0.959 . S
H295 C293 0.960 . S
H296 C293 0.961 . S
O297 Co272 1.967 . S
O297 C305 1.258 . S
O298 Co273 1.941 1_554 S
O298 C305 1.266 . S
H299 C301 0.959 . S
H300 C301 0.961 . S
C301 C291 1.510 1_556 S
C301 H299 0.959 . S
C301 H300 0.961 . S
C301 H302 0.960 . S
H302 C301 0.960 . S
H303 N283 0.862 . S
O304 Co272 1.920 . S
O304 C277 1.289 . S
C305 O297 1.258 . S
C305 O298 1.266 . S
Co306 O309 1.970 . S
Co306 N323 1.989 . S
Co306 O331 1.967 . S
Co306 O338 1.920 . S
Co307 O310 1.966 . S
Co307 N316 2.022 . S
Co307 N324 1.993 . S
Co307 O332 1.941 . S
C308 O309 1.258 . S
C308 O310 1.263 . S
O309 Co306 1.970 . S
O309 C308 1.258 . S
O310 Co307 1.966 . S
O310 C308 1.263 . S
C311 O312 1.235 . S
C311 O338 1.289 . S
O312 C311 1.235 . S
C313 C315 1.400 . S
C313 N316 1.351 . S
C313 C318 1.501 . S
C314 C315 1.387 . S
C314 N317 1.341 . S
C315 C313 1.400 . S
C315 C314 1.387 . S
N316 Co307 2.022 . S
N316 C313 1.351 . S
N316 N317 1.365 . S
N317 C314 1.341 . S
N317 N316 1.365 . S
N317 H337 0.862 . S
C318 C313 1.501 . S
C318 H319 0.961 . S
C318 H320 0.961 . S
C318 H321 0.960 . S
H319 C318 0.961 . S
H320 C318 0.961 . S
H321 C318 0.960 . S
C322 N323 1.342 . S
C322 C326 1.401 . S
C322 C327 1.499 . S
N323 Co306 1.989 . S
N323 C322 1.342 . S
N323 N324 1.388 . S
N324 Co307 1.993 . S
N324 N323 1.388 . S
N324 C325 1.346 . S
C325 N324 1.346 . S
C325 C326 1.396 . S
C325 C335 1.510 . S
C326 C322 1.401 . S
C326 C325 1.396 . S
C327 C322 1.499 . S
C327 H328 0.959 . S
C327 H329 0.960 . S
C327 H330 0.961 . S
H328 C327 0.959 . S
H329 C327 0.960 . S
H330 C327 0.961 . S
O331 Co306 1.967 . S
O331 C339 1.258 . S
O332 Co307 1.941 . S
O332 C339 1.266 . S
H333 C335 0.959 . S
H334 C335 0.961 . S
C335 C325 1.510 . S
C335 H333 0.959 . S
C335 H334 0.961 . S
C335 H336 0.960 . S
H336 C335 0.960 . S
H337 N317 0.862 . S
O338 Co306 1.920 . S
O338 C311 1.289 . S
C339 O331 1.258 . S
C339 O332 1.266 . S
Co340 O343 1.970 . S
Co340 N357 1.989 1_545 S
Co340 O365 1.967 . S
Co340 O372 1.920 . S
Co341 O344 1.966 . S
Co341 N350 2.022 . S
Co341 N358 1.993 1_545 S
Co341 O366 1.941 . S
C342 O343 1.258 . S
C342 O344 1.263 . S
O343 Co340 1.970 . S
O343 C342 1.258 . S
O344 Co341 1.966 . S
O344 C342 1.263 . S
C345 O346 1.235 1_545 S
C345 O372 1.289 . S
O346 C345 1.235 1_565 S
C347 C349 1.400 . S
C347 N350 1.351 . S
C347 C352 1.501 . S
C348 C349 1.387 . S
C348 N351 1.341 . S
C349 C347 1.400 . S
C349 C348 1.387 . S
N350 Co341 2.022 . S
N350 C347 1.351 . S
N350 N351 1.365 . S
N351 C348 1.341 . S
N351 N350 1.365 . S
N351 H371 0.862 . S
C352 C347 1.501 . S
C352 H353 0.961 . S
C352 H354 0.984 . S
C352 H355 0.960 . S
H353 C352 0.961 . S
H354 C352 0.984 . S
H355 C352 0.960 . S
C356 N357 1.342 . S
C356 C360 1.401 . S
C356 C361 1.499 . S
N357 Co340 1.989 1_565 S
N357 C356 1.342 . S
N357 N358 1.388 . S
N358 Co341 1.993 1_565 S
N358 N357 1.388 . S
N358 C359 1.346 . S
C359 N358 1.346 . S
C359 C360 1.396 . S
C359 C369 1.510 . S
C360 C356 1.401 . S
C360 C359 1.396 . S
C361 C356 1.499 . S
C361 H362 0.959 . S
C361 H363 0.960 . S
C361 H364 0.961 . S
H362 C361 0.959 . S
H363 C361 0.960 . S
H364 C361 0.961 . S
O365 Co340 1.967 . S
O365 C373 1.258 . S
O366 Co341 1.941 . S
O366 C373 1.266 . S
H367 C369 0.959 . S
H368 C369 0.961 . S
C369 C359 1.510 . S
C369 H367 0.959 . S
C369 H368 0.961 . S
C369 H370 0.960 . S
H370 C369 0.960 . S
H371 N351 0.862 . S
O372 Co340 1.920 . S
O372 C345 1.289 . S
C373 O365 1.258 . S
C373 O366 1.266 . S
Co374 O377 1.970 . S
Co374 N391 1.989 1_655 S
Co374 O399 1.967 . S
Co374 O406 1.920 . S
Co375 O378 1.966 . S
Co375 N384 2.022 . S
Co375 N392 1.993 1_655 S
Co375 O400 1.941 . S
C376 O377 1.258 . S
C376 O378 1.263 . S
O377 Co374 1.970 . S
O377 C376 1.258 . S
O378 Co375 1.966 . S
O378 C376 1.263 . S
C379 O380 1.235 1_655 S
C379 O406 1.289 . S
O380 C379 1.235 1_455 S
C381 C383 1.400 . S
C381 N384 1.351 . S
C381 C386 1.501 . S
C382 C383 1.387 . S
C382 N385 1.341 . S
C383 C381 1.400 . S
C383 C382 1.387 . S
N384 Co375 2.022 . S
N384 C381 1.351 . S
N384 N385 1.365 . S
N385 C382 1.341 . S
N385 N384 1.365 . S
N385 H405 0.862 . S
C386 C381 1.501 . S
C386 H387 0.961 . S
C386 H388 0.970 . S
C386 H389 0.960 . S
H387 C386 0.961 . S
H388 C386 0.970 . S
H389 C386 0.960 . S
C390 N391 1.342 . S
C390 C394 1.401 . S
C390 C395 1.499 . S
N391 Co374 1.989 1_455 S
N391 C390 1.342 . S
N391 N392 1.388 . S
N392 Co375 1.993 1_455 S
N392 N391 1.388 . S
N392 C393 1.346 . S
C393 N392 1.346 . S
C393 C394 1.396 . S
C393 C403 1.510 . S
C394 C390 1.401 . S
C394 C393 1.396 . S
C395 C390 1.499 . S
C395 H396 0.959 . S
C395 H397 0.960 . S
C395 H398 0.961 . S
H396 C395 0.959 . S
H397 C395 0.960 . S
H398 C395 0.961 . S
O399 Co374 1.967 . S
O399 C407 1.258 . S
O400 Co375 1.941 . S
O400 C407 1.266 . S
H401 C403 0.959 . S
H402 C403 0.961 . S
C403 C393 1.510 . S
C403 H401 0.959 . S
C403 H402 0.961 . S
C403 H404 0.960 . S
H404 C403 0.960 . S
H405 N385 0.862 . S
O406 Co374 1.920 . S
O406 C379 1.289 . S
C407 O399 1.258 . S
C407 O400 1.266 . S
Co408 O411 1.970 . S
Co408 N425 1.989 . S
Co408 O433 1.967 . S
Co408 O440 1.920 . S
Co409 O412 1.966 . S
Co409 N418 2.022 . S
Co409 N426 1.993 . S
Co409 O434 1.941 . S
C410 O411 1.258 . S
C410 O412 1.263 . S
O411 Co408 1.970 . S
O411 C410 1.258 . S
O412 Co409 1.966 . S
O412 C410 1.263 . S
C413 O414 1.235 . S
C413 O440 1.289 . S
O414 C413 1.235 . S
C415 C417 1.400 . S
C415 N418 1.351 . S
C415 C420 1.501 . S
C416 C417 1.387 . S
C416 N419 1.341 . S
C417 C415 1.400 . S
C417 C416 1.387 . S
N418 Co409 2.022 . S
N418 C415 1.351 . S
N418 N419 1.365 . S
N419 C416 1.341 . S
N419 N418 1.365 . S
N419 H439 0.862 . S
C420 C415 1.501 . S
C420 H421 0.961 . S
C420 H422 0.961 . S
C420 H423 0.960 . S
H421 C420 0.961 . S
H422 C420 0.961 . S
H423 C420 0.960 . S
C424 N425 1.342 . S
C424 C428 1.401 . S
C424 C429 1.499 . S
N425 Co408 1.989 . S
N425 C424 1.342 . S
N425 N426 1.388 . S
N426 Co409 1.993 . S
N426 N425 1.388 . S
N426 C427 1.346 . S
C427 N426 1.346 . S
C427 C428 1.396 . S
C427 C437 1.510 . S
C428 C424 1.401 . S
C428 C427 1.396 . S
C429 C424 1.499 . S
C429 H430 0.959 . S
C429 H431 0.960 . S
C429 H432 0.961 . S
H430 C429 0.959 . S
H431 C429 0.960 . S
H432 C429 0.961 . S
O433 Co408 1.967 . S
O433 C441 1.258 . S
O434 Co409 1.941 . S
O434 C441 1.266 . S
H435 C437 0.959 . S
H436 C437 0.961 . S
C437 C427 1.510 . S
C437 H435 0.959 . S
C437 H436 0.961 . S
C437 H438 0.960 . S
H438 C437 0.960 . S
H439 N419 0.862 . S
O440 Co408 1.920 . S
O440 C413 1.289 . S
C441 O433 1.258 . S
C441 O434 1.266 . S
Co442 O445 1.970 . S
Co442 N459 1.989 . S
Co442 O467 1.967 . S
Co442 O474 1.920 . S
Co443 O446 1.966 . S
Co443 N452 2.022 . S
Co443 N460 1.993 . S
Co443 O468 1.941 . S
C444 O445 1.258 . S
C444 O446 1.263 . S
O445 Co442 1.970 . S
O445 C444 1.258 . S
O446 Co443 1.966 . S
O446 C444 1.263 . S
C447 O448 1.235 . S
C447 O474 1.289 . S
O448 C447 1.235 . S
C449 C451 1.400 . S
C449 N452 1.351 . S
C449 C454 1.501 . S
C450 C451 1.387 . S
C450 N453 1.341 . S
C451 C449 1.400 . S
C451 C450 1.387 . S
N452 Co443 2.022 . S
N452 C449 1.351 . S
N452 N453 1.365 . S
N453 C450 1.341 . S
N453 N452 1.365 . S
N453 H473 0.862 . S
C454 C449 1.501 . S
C454 H455 0.961 . S
C454 H456 0.961 . S
C454 H457 0.960 . S
H455 C454 0.961 . S
H456 C454 0.961 . S
H457 C454 0.960 . S
C458 N459 1.342 . S
C458 C462 1.401 . S
C458 C463 1.499 . S
N459 Co442 1.989 . S
N459 C458 1.342 . S
N459 N460 1.388 . S
N460 Co443 1.993 . S
N460 N459 1.388 . S
N460 C461 1.346 . S
C461 N460 1.346 . S
C461 C462 1.396 . S
C461 C471 1.510 . S
C462 C458 1.401 . S
C462 C461 1.396 . S
C463 C458 1.499 . S
C463 H464 0.959 . S
C463 H465 0.960 . S
C463 H466 0.961 . S
H464 C463 0.959 . S
H465 C463 0.960 . S
H466 C463 0.961 . S
O467 Co442 1.967 . S
O467 C475 1.258 . S
O468 Co443 1.941 . S
O468 C475 1.266 . S
H469 C471 0.959 . S
H470 C471 0.961 . S
C471 C461 1.510 . S
C471 H469 0.959 . S
C471 H470 0.961 . S
C471 H472 0.960 . S
H472 C471 0.960 . S
H473 N453 0.862 . S
O474 Co442 1.920 . S
O474 C447 1.289 . S
C475 O467 1.258 . S
C475 O468 1.266 . S
Co476 O479 1.970 . S
Co476 N493 1.989 . S
Co476 O501 1.967 . S
Co476 O508 1.920 . S
Co477 O480 1.966 . S
Co477 N486 2.022 . S
Co477 N494 1.993 . S
Co477 O502 1.941 . S
C478 O479 1.258 . S
C478 O480 1.263 . S
O479 Co476 1.970 . S
O479 C478 1.258 . S
O480 Co477 1.966 . S
O480 C478 1.263 . S
C481 O482 1.235 . S
C481 O508 1.289 . S
O482 C481 1.235 . S
C483 C485 1.400 . S
C483 N486 1.351 . S
C483 C488 1.501 . S
C484 C485 1.387 . S
C484 N487 1.341 . S
C485 C483 1.400 . S
C485 C484 1.387 . S
N486 Co477 2.022 . S
N486 C483 1.351 . S
N486 N487 1.365 . S
N487 C484 1.341 . S
N487 N486 1.365 . S
N487 H507 0.862 . S
C488 C483 1.501 . S
C488 H489 0.961 . S
C488 H490 0.961 . S
C488 H491 0.960 . S
H489 C488 0.961 . S
H490 C488 0.961 . S
H491 C488 0.960 . S
C492 N493 1.342 . S
C492 C496 1.401 . S
C492 C497 1.499 . S
N493 Co476 1.989 . S
N493 C492 1.342 . S
N493 N494 1.388 . S
N494 Co477 1.993 . S
N494 N493 1.388 . S
N494 C495 1.346 . S
C495 N494 1.346 . S
C495 C496 1.396 . S
C495 C505 1.510 . S
C496 C492 1.401 . S
C496 C495 1.396 . S
C497 C492 1.499 . S
C497 H498 0.959 . S
C497 H499 0.960 . S
C497 H500 0.961 . S
H498 C497 0.959 . S
H499 C497 0.960 . S
H500 C497 0.961 . S
O501 Co476 1.967 . S
O501 C509 1.258 . S
O502 Co477 1.941 . S
O502 C509 1.266 . S
H503 C505 0.959 . S
H504 C505 0.961 . S
C505 C495 1.510 . S
C505 H503 0.959 . S
C505 H504 0.961 . S
C505 H506 0.960 . S
H506 C505 0.960 . S
H507 N487 0.862 . S
O508 Co476 1.920 . S
O508 C481 1.289 . S
C509 O501 1.258 . S
C509 O502 1.266 . S
Co510 O513 1.970 . S
Co510 N527 1.989 . S
Co510 O535 1.967 . S
Co510 O542 1.920 . S
Co511 O514 1.966 . S
Co511 N520 2.022 . S
Co511 N528 1.993 . S
Co511 O536 1.941 . S
C512 O513 1.258 . S
C512 O514 1.263 . S
O513 Co510 1.970 . S
O513 C512 1.258 . S
O514 Co511 1.966 . S
O514 C512 1.263 . S
C515 O516 1.235 . S
C515 O542 1.289 . S
O516 C515 1.235 . S
C517 C519 1.400 . S
C517 N520 1.351 . S
C517 C522 1.501 . S
C518 C519 1.387 . S
C518 N521 1.341 . S
C519 C517 1.400 . S
C519 C518 1.387 . S
N520 Co511 2.022 . S
N520 C517 1.351 . S
N520 N521 1.365 . S
N521 C518 1.341 . S
N521 N520 1.365 . S
N521 H541 0.862 . S
C522 C517 1.501 . S
C522 H523 0.961 . S
C522 H524 0.961 . S
C522 H525 0.960 . S
H523 C522 0.961 . S
H524 C522 0.961 . S
H525 C522 0.960 . S
C526 N527 1.342 . S
C526 C530 1.401 . S
C526 C531 1.499 . S
N527 Co510 1.989 . S
N527 C526 1.342 . S
N527 N528 1.388 . S
N528 Co511 1.993 . S
N528 N527 1.388 . S
N528 C529 1.346 . S
C529 N528 1.346 . S
C529 C530 1.396 . S
C529 C539 1.510 . S
C530 C526 1.401 . S
C530 C529 1.396 . S
C531 C526 1.499 . S
C531 H532 0.959 . S
C531 H533 0.960 . S
C531 H534 0.961 . S
H532 C531 0.959 . S
H533 C531 0.960 . S
H534 C531 0.961 . S
O535 Co510 1.967 . S
O535 C543 1.258 . S
O536 Co511 1.941 . S
O536 C543 1.266 . S
H537 C539 0.959 . S
H538 C539 0.961 . S
C539 C529 1.510 . S
C539 H537 0.959 . S
C539 H538 0.961 . S
C539 H540 0.960 . S
H540 C539 0.960 . S
H541 N521 0.862 . S
O542 Co510 1.920 . S
O542 C515 1.289 . S
C543 O535 1.258 . S
C543 O536 1.266 . S
Co544 O547 1.970 . S
Co544 N561 1.989 . S
Co544 O569 1.967 . S
Co544 O576 1.920 . S
Co545 O548 1.966 . S
Co545 N554 2.022 . S
Co545 N562 1.993 . S
Co545 O570 1.941 . S
C546 O547 1.258 . S
C546 O548 1.263 . S
O547 Co544 1.970 . S
O547 C546 1.258 . S
O548 Co545 1.966 . S
O548 C546 1.263 . S
C549 O550 1.235 . S
C549 O576 1.289 . S
O550 C549 1.235 . S
C551 C553 1.400 . S
C551 N554 1.351 . S
C551 C556 1.501 . S
C552 C553 1.387 . S
C552 N555 1.341 . S
C553 C551 1.400 . S
C553 C552 1.387 . S
N554 Co545 2.022 . S
N554 C551 1.351 . S
N554 N555 1.365 . S
N555 C552 1.341 . S
N555 N554 1.365 . S
N555 H575 0.862 . S
C556 C551 1.501 . S
C556 H557 0.961 . S
C556 H558 0.961 . S
C556 H559 0.960 . S
H557 C556 0.961 . S
H558 C556 0.961 . S
H559 C556 0.960 . S
C560 N561 1.342 . S
C560 C564 1.401 . S
C560 C565 1.499 . S
N561 Co544 1.989 . S
N561 C560 1.342 . S
N561 N562 1.388 . S
N562 Co545 1.993 . S
N562 N561 1.388 . S
N562 C563 1.346 . S
C563 N562 1.346 . S
C563 C564 1.396 . S
C563 C573 1.510 . S
C564 C560 1.401 . S
C564 C563 1.396 . S
C565 C560 1.499 . S
C565 H566 0.959 . S
C565 H567 0.960 . S
C565 H568 0.961 . S
H566 C565 0.959 . S
H567 C565 0.960 . S
H568 C565 0.961 . S
O569 Co544 1.967 . S
O569 C577 1.258 . S
O570 Co545 1.941 . S
O570 C577 1.266 . S
H571 C573 0.959 . S
H572 C573 0.961 . S
C573 C563 1.510 . S
C573 H571 0.959 . S
C573 H572 0.961 . S
C573 H574 0.960 . S
H574 C573 0.960 . S
H575 N555 0.862 . S
O576 Co544 1.920 . S
O576 C549 1.289 . S
C577 O569 1.258 . S
C577 O570 1.266 . S
Co578 O581 1.970 . S
Co578 N595 1.989 . S
Co578 O603 1.967 . S
Co578 O610 1.920 . S
Co579 O582 1.966 . S
Co579 N588 2.022 . S
Co579 N596 1.993 . S
Co579 O604 1.941 . S
C580 O581 1.258 . S
C580 O582 1.263 . S
O581 Co578 1.970 . S
O581 C580 1.258 . S
O582 Co579 1.966 . S
O582 C580 1.263 . S
C583 O584 1.235 . S
C583 O610 1.289 . S
O584 C583 1.235 . S
C585 C587 1.400 . S
C585 N588 1.351 . S
C585 C590 1.501 . S
C586 C587 1.387 . S
C586 N589 1.341 . S
C587 C585 1.400 . S
C587 C586 1.387 . S
N588 Co579 2.022 . S
N588 C585 1.351 . S
N588 N589 1.365 . S
N589 C586 1.341 . S
N589 N588 1.365 . S
N589 H609 0.862 . S
C590 C585 1.501 . S
C590 H591 0.961 . S
C590 H592 0.961 . S
C590 H593 0.960 . S
H591 C590 0.961 . S
H592 C590 0.961 . S
H593 C590 0.960 . S
C594 N595 1.342 . S
C594 C598 1.401 . S
C594 C599 1.499 . S
N595 Co578 1.989 . S
N595 C594 1.342 . S
N595 N596 1.388 . S
N596 Co579 1.993 . S
N596 N595 1.388 . S
N596 C597 1.346 . S
C597 N596 1.346 . S
C597 C598 1.396 . S
C597 C607 1.510 . S
C598 C594 1.401 . S
C598 C597 1.396 . S
C599 C594 1.499 . S
C599 H600 0.959 . S
C599 H601 0.960 . S
C599 H602 0.961 . S
H600 C599 0.959 . S
H601 C599 0.960 . S
H602 C599 0.961 . S
O603 Co578 1.967 . S
O603 C611 1.258 . S
O604 Co579 1.941 . S
O604 C611 1.266 . S
H605 C607 0.959 . S
H606 C607 0.961 . S
C607 C597 1.510 . S
C607 H605 0.959 . S
C607 H606 0.961 . S
C607 H608 0.960 . S
H608 C607 0.960 . S
H609 N589 0.862 . S
O610 Co578 1.920 . S
O610 C583 1.289 . S
C611 O603 1.258 . S
C611 O604 1.266 . S
Co612 O615 1.970 . S
Co612 N629 1.989 . S
Co612 O637 1.967 . S
Co612 O644 1.920 . S
Co613 O616 1.966 . S
Co613 N622 2.022 . S
Co613 N630 1.993 . S
Co613 O638 1.941 . S
C614 O615 1.258 . S
C614 O616 1.263 . S
O615 Co612 1.970 . S
O615 C614 1.258 . S
O616 Co613 1.966 . S
O616 C614 1.263 . S
C617 O618 1.235 . S
C617 O644 1.289 . S
O618 C617 1.235 . S
C619 C621 1.400 . S
C619 N622 1.351 . S
C619 C624 1.501 . S
C620 C621 1.387 . S
C620 N623 1.341 . S
C621 C619 1.400 . S
C621 C620 1.387 . S
N622 Co613 2.022 . S
N622 C619 1.351 . S
N622 N623 1.365 . S
N623 C620 1.341 . S
N623 N622 1.365 . S
N623 H643 0.862 . S
C624 C619 1.501 . S
C624 H625 0.961 . S
C624 H626 0.961 . S
C624 H627 0.960 . S
H625 C624 0.961 . S
H626 C624 0.961 . S
H627 C624 0.960 . S
C628 N629 1.342 . S
C628 C632 1.401 . S
C628 C633 1.499 . S
N629 Co612 1.989 . S
N629 C628 1.342 . S
N629 N630 1.388 . S
N630 Co613 1.993 . S
N630 N629 1.388 . S
N630 C631 1.346 . S
C631 N630 1.346 . S
C631 C632 1.396 . S
C631 C641 1.510 . S
C632 C628 1.401 . S
C632 C631 1.396 . S
C633 C628 1.499 . S
C633 H634 0.959 . S
C633 H635 0.960 . S
C633 H636 0.961 . S
H634 C633 0.959 . S
H635 C633 0.960 . S
H636 C633 0.961 . S
O637 Co612 1.967 . S
O637 C645 1.258 . S
O638 Co613 1.941 . S
O638 C645 1.266 . S
H639 C641 0.959 . S
H640 C641 0.961 . S
C641 C631 1.510 . S
C641 H639 0.959 . S
C641 H640 0.961 . S
C641 H642 0.960 . S
H642 C641 0.960 . S
H643 N623 0.862 . S
O644 Co612 1.920 . S
O644 C617 1.289 . S
C645 O637 1.258 . S
C645 O638 1.266 . S
Co646 O649 1.970 . S
Co646 N663 1.989 . S
Co646 O671 1.967 . S
Co646 O678 1.920 . S
Co647 O650 1.966 . S
Co647 N656 2.022 . S
Co647 N664 1.993 . S
Co647 O672 1.941 . S
C648 O649 1.258 . S
C648 O650 1.263 . S
O649 Co646 1.970 . S
O649 C648 1.258 . S
O650 Co647 1.966 . S
O650 C648 1.263 . S
C651 O652 1.235 . S
C651 O678 1.289 . S
O652 C651 1.235 . S
C653 C655 1.400 . S
C653 N656 1.351 . S
C653 C658 1.501 . S
C654 C655 1.387 . S
C654 N657 1.341 . S
C655 C653 1.400 . S
C655 C654 1.387 . S
N656 Co647 2.022 . S
N656 C653 1.351 . S
N656 N657 1.365 . S
N657 C654 1.341 . S
N657 N656 1.365 . S
N657 H677 0.862 . S
C658 C653 1.501 . S
C658 H659 0.961 . S
C658 H660 0.961 . S
C658 H661 0.960 . S
H659 C658 0.961 . S
H660 C658 0.961 . S
H661 C658 0.960 . S
C662 N663 1.342 . S
C662 C666 1.401 . S
C662 C667 1.499 . S
N663 Co646 1.989 . S
N663 C662 1.342 . S
N663 N664 1.388 . S
N664 Co647 1.993 . S
N664 N663 1.388 . S
N664 C665 1.346 . S
C665 N664 1.346 . S
C665 C666 1.396 . S
C665 C675 1.510 . S
C666 C662 1.401 . S
C666 C665 1.396 . S
C667 C662 1.499 . S
C667 H668 0.959 . S
C667 H669 0.960 . S
C667 H670 0.961 . S
H668 C667 0.959 . S
H669 C667 0.960 . S
H670 C667 0.961 . S
O671 Co646 1.967 . S
O671 C679 1.258 . S
O672 Co647 1.941 . S
O672 C679 1.266 . S
H673 C675 0.959 . S
H674 C675 0.961 . S
C675 C665 1.510 . S
C675 H673 0.959 . S
C675 H674 0.961 . S
C675 H676 0.960 . S
H676 C675 0.960 . S
H677 N657 0.862 . S
O678 Co646 1.920 . S
O678 C651 1.289 . S
C679 O671 1.258 . S
C679 O672 1.266 . S
Co680 O683 1.970 . S
Co680 N697 1.989 . S
Co680 O705 1.967 . S
Co680 O712 1.920 . S
Co681 O684 1.966 . S
Co681 N690 2.022 . S
Co681 N698 1.993 . S
Co681 O706 1.941 . S
C682 O683 1.258 . S
C682 O684 1.263 . S
O683 Co680 1.970 . S
O683 C682 1.258 . S
O684 Co681 1.966 . S
O684 C682 1.263 . S
C685 O686 1.235 . S
C685 O712 1.289 . S
O686 C685 1.235 . S
C687 C689 1.400 . S
C687 N690 1.351 . S
C687 C692 1.501 . S
C688 C689 1.387 . S
C688 N691 1.341 . S
C689 C687 1.400 . S
C689 C688 1.387 . S
N690 Co681 2.022 . S
N690 C687 1.351 . S
N690 N691 1.365 . S
N691 C688 1.341 . S
N691 N690 1.365 . S
N691 H711 0.862 . S
C692 C687 1.501 . S
C692 H693 0.961 . S
C692 H694 0.961 . S
C692 H695 0.960 . S
H693 C692 0.961 . S
H694 C692 0.961 . S
H695 C692 0.960 . S
C696 N697 1.342 . S
C696 C700 1.401 . S
C696 C701 1.499 . S
N697 Co680 1.989 . S
N697 C696 1.342 . S
N697 N698 1.388 . S
N698 Co681 1.993 . S
N698 N697 1.388 . S
N698 C699 1.346 . S
C699 N698 1.346 . S
C699 C700 1.396 . S
C699 C709 1.510 . S
C700 C696 1.401 . S
C700 C699 1.396 . S
C701 C696 1.499 . S
C701 H702 0.959 . S
C701 H703 0.960 . S
C701 H704 0.961 . S
H702 C701 0.959 . S
H703 C701 0.960 . S
H704 C701 0.961 . S
O705 Co680 1.967 . S
O705 C713 1.258 . S
O706 Co681 1.941 . S
O706 C713 1.266 . S
H707 C709 0.959 . S
H708 C709 0.961 . S
C709 C699 1.510 . S
C709 H707 0.959 . S
C709 H708 0.961 . S
C709 H710 0.960 . S
H710 C709 0.960 . S
H711 N691 0.862 . S
O712 Co680 1.920 . S
O712 C685 1.289 . S
C713 O705 1.258 . S
C713 O706 1.266 . S
Co714 O717 1.970 . S
Co714 N731 1.989 . S
Co714 O739 1.967 . S
Co714 O746 1.920 . S
Co715 O718 1.966 . S
Co715 N724 2.022 . S
Co715 N732 1.993 . S
Co715 O740 1.941 . S
C716 O717 1.258 . S
C716 O718 1.263 . S
O717 Co714 1.970 . S
O717 C716 1.258 . S
O718 Co715 1.966 . S
O718 C716 1.263 . S
C719 O720 1.235 . S
C719 O746 1.289 . S
O720 C719 1.235 . S
C721 C723 1.413 . S
C721 N724 1.351 . S
C721 C726 1.501 . S
C722 C723 1.387 1_554 S
C722 N725 1.329 1_554 S
C723 C721 1.413 . S
C723 C722 1.387 1_556 S
N724 Co715 2.022 . S
N724 C721 1.351 . S
N724 N725 1.365 . S
N725 C722 1.329 1_556 S
N725 N724 1.365 . S
N725 H745 0.862 . S
C726 C721 1.501 . S
C726 H727 0.961 . S
C726 H728 0.961 . S
C726 H729 0.960 . S
H727 C726 0.961 . S
H728 C726 0.961 . S
H729 C726 0.960 . S
C730 N731 1.342 . S
C730 C734 1.401 . S
C730 C735 1.499 . S
N731 Co714 1.989 . S
N731 C730 1.342 . S
N731 N732 1.388 . S
N732 Co715 1.993 . S
N732 N731 1.388 . S
N732 C733 1.346 . S
C733 N732 1.346 . S
C733 C734 1.396 . S
C733 C743 1.510 . S
C734 C730 1.401 . S
C734 C733 1.396 . S
C735 C730 1.499 . S
C735 H736 0.959 . S
C735 H737 0.960 . S
C735 H738 0.961 . S
H736 C735 0.959 . S
H737 C735 0.960 . S
H738 C735 0.961 . S
O739 Co714 1.967 . S
O739 C747 1.258 . S
O740 Co715 1.941 . S
O740 C747 1.266 . S
H741 C743 0.959 . S
H742 C743 0.961 . S
C743 C733 1.510 . S
C743 H741 0.959 . S
C743 H742 0.961 . S
C743 H744 0.960 . S
H744 C743 0.960 . S
H745 N725 0.862 . S
O746 Co714 1.920 . S
O746 C719 1.289 . S
C747 O739 1.258 . S
C747 O740 1.266 . S
Co748 O751 1.970 . S
Co748 N765 1.989 . S
Co748 O773 1.967 . S
Co748 O780 1.920 . S
Co749 O752 1.966 . S
Co749 N758 2.022 . S
Co749 N766 1.993 . S
Co749 O774 1.941 . S
C750 O751 1.258 . S
C750 O752 1.263 . S
O751 Co748 1.970 . S
O751 C750 1.258 . S
O752 Co749 1.966 . S
O752 C750 1.263 . S
C753 O754 1.235 . S
C753 O780 1.289 . S
O754 C753 1.235 . S
C755 C757 1.413 . S
C755 N758 1.351 . S
C755 C760 1.501 . S
C756 C757 1.387 1_554 S
C756 N759 1.329 1_554 S
C757 C755 1.413 . S
C757 C756 1.387 1_556 S
N758 Co749 2.022 . S
N758 C755 1.351 . S
N758 N759 1.365 . S
N759 C756 1.329 1_556 S
N759 N758 1.365 . S
N759 H779 0.862 . S
C760 C755 1.501 . S
C760 H761 0.961 . S
C760 H762 0.961 . S
C760 H763 0.960 . S
H761 C760 0.961 . S
H762 C760 0.961 . S
H763 C760 0.960 . S
C764 N765 1.342 . S
C764 C768 1.401 . S
C764 C769 1.499 . S
N765 Co748 1.989 . S
N765 C764 1.342 . S
N765 N766 1.388 . S
N766 Co749 1.993 . S
N766 N765 1.388 . S
N766 C767 1.346 . S
C767 N766 1.346 . S
C767 C768 1.396 . S
C767 C777 1.510 . S
C768 C764 1.401 . S
C768 C767 1.396 . S
C769 C764 1.499 . S
C769 H770 0.959 . S
C769 H771 0.960 . S
C769 H772 0.961 . S
H770 C769 0.959 . S
H771 C769 0.960 . S
H772 C769 0.961 . S
O773 Co748 1.967 . S
O773 C781 1.258 . S
O774 Co749 1.941 . S
O774 C781 1.266 . S
H775 C777 0.959 . S
H776 C777 0.961 . S
C777 C767 1.510 . S
C777 H775 0.959 . S
C777 H776 0.961 . S
C777 H778 0.960 . S
H778 C777 0.960 . S
H779 N759 0.862 . S
O780 Co748 1.920 . S
O780 C753 1.289 . S
C781 O773 1.258 . S
C781 O774 1.266 . S
Co782 O785 1.970 . S
Co782 N799 1.989 . S
Co782 O807 1.967 . S
Co782 O814 1.920 . S
Co783 O786 1.966 . S
Co783 N792 2.022 . S
Co783 N800 1.993 . S
Co783 O808 1.941 . S
C784 O785 1.258 . S
C784 O786 1.263 . S
O785 Co782 1.970 . S
O785 C784 1.258 . S
O786 Co783 1.966 . S
O786 C784 1.263 . S
C787 O788 1.235 . S
C787 O814 1.289 . S
O788 C787 1.235 . S
C789 C791 1.413 . S
C789 N792 1.351 . S
C789 C794 1.501 . S
C790 C791 1.387 1_554 S
C790 N793 1.329 1_554 S
C791 C789 1.413 . S
C791 C790 1.387 1_556 S
N792 Co783 2.022 . S
N792 C789 1.351 . S
N792 N793 1.365 . S
N793 C790 1.329 1_556 S
N793 N792 1.365 . S
N793 H813 0.862 . S
C794 C789 1.501 . S
C794 H795 0.961 . S
C794 H796 0.961 . S
C794 H797 0.960 . S
H795 C794 0.961 . S
H796 C794 0.961 . S
H797 C794 0.960 . S
C798 N799 1.342 . S
C798 C802 1.401 . S
C798 C803 1.499 . S
N799 Co782 1.989 . S
N799 C798 1.342 . S
N799 N800 1.388 . S
N800 Co783 1.993 . S
N800 N799 1.388 . S
N800 C801 1.346 . S
C801 N800 1.346 . S
C801 C802 1.396 . S
C801 C811 1.510 . S
C802 C798 1.401 . S
C802 C801 1.396 . S
C803 C798 1.499 . S
C803 H804 0.959 . S
C803 H805 0.960 . S
C803 H806 0.961 . S
H804 C803 0.959 . S
H805 C803 0.960 . S
H806 C803 0.961 . S
O807 Co782 1.967 . S
O807 C815 1.258 . S
O808 Co783 1.941 . S
O808 C815 1.266 . S
H809 C811 0.959 . S
H810 C811 0.961 . S
C811 C801 1.510 . S
C811 H809 0.959 . S
C811 H810 0.961 . S
C811 H812 0.960 . S
H812 C811 0.960 . S
H813 N793 0.862 . S
O814 Co782 1.920 . S
O814 C787 1.289 . S
C815 O807 1.258 . S
C815 O808 1.266 . S
Co816 O819 1.970 . S
Co816 N833 1.989 . S
Co816 O841 1.967 . S
Co816 O848 1.920 . S
Co817 O820 1.966 . S
Co817 N826 2.022 . S
Co817 N834 1.993 . S
Co817 O842 1.941 . S
C818 O819 1.258 . S
C818 O820 1.263 . S
O819 Co816 1.970 . S
O819 C818 1.258 . S
O820 Co817 1.966 . S
O820 C818 1.263 . S
C821 O822 1.235 . S
C821 O848 1.289 . S
O822 C821 1.235 . S
C823 C825 1.400 . S
C823 N826 1.351 . S
C823 C828 1.501 . S
C824 C825 1.387 . S
C824 N827 1.341 . S
C825 C823 1.400 . S
C825 C824 1.387 . S
N826 Co817 2.022 . S
N826 C823 1.351 . S
N826 N827 1.365 . S
N827 C824 1.341 . S
N827 N826 1.365 . S
N827 H847 0.862 . S
C828 C823 1.501 . S
C828 H829 0.961 . S
C828 H830 0.961 . S
C828 H831 0.960 . S
H829 C828 0.961 . S
H830 C828 0.961 . S
H831 C828 0.960 . S
C832 N833 1.342 . S
C832 C836 1.401 . S
C832 C837 1.499 . S
N833 Co816 1.989 . S
N833 C832 1.342 . S
N833 N834 1.388 . S
N834 Co817 1.993 . S
N834 N833 1.388 . S
N834 C835 1.346 . S
C835 N834 1.346 . S
C835 C836 1.396 . S
C835 C845 1.510 . S
C836 C832 1.401 . S
C836 C835 1.396 . S
C837 C832 1.499 . S
C837 H838 0.959 . S
C837 H839 0.960 . S
C837 H840 0.961 . S
H838 C837 0.959 . S
H839 C837 0.960 . S
H840 C837 0.961 . S
O841 Co816 1.967 . S
O841 C849 1.258 . S
O842 Co817 1.941 . S
O842 C849 1.266 . S
H843 C845 0.959 . S
H844 C845 0.961 . S
C845 C835 1.510 . S
C845 H843 0.959 . S
C845 H844 0.961 . S
C845 H846 0.960 . S
H846 C845 0.960 . S
H847 N827 0.862 . S
O848 Co816 1.920 . S
O848 C821 1.289 . S
C849 O841 1.258 . S
C849 O842 1.266 . S
Co850 O853 1.970 . S
Co850 N867 1.989 . S
Co850 O875 1.967 . S
Co850 O882 1.920 . S
Co851 O854 1.966 . S
Co851 N860 2.022 . S
Co851 N868 1.993 . S
Co851 O876 1.941 . S
C852 O853 1.258 . S
C852 O854 1.263 . S
O853 Co850 1.970 . S
O853 C852 1.258 . S
O854 Co851 1.966 . S
O854 C852 1.263 . S
C855 O856 1.235 . S
C855 O882 1.289 . S
O856 C855 1.235 . S
C857 C859 1.400 . S
C857 N860 1.351 . S
C857 C862 1.501 . S
C858 C859 1.387 . S
C858 N861 1.341 . S
C859 C857 1.400 . S
C859 C858 1.387 . S
N860 Co851 2.022 . S
N860 C857 1.351 . S
N860 N861 1.365 . S
N861 C858 1.341 . S
N861 N860 1.365 . S
N861 H881 0.862 . S
C862 C857 1.501 . S
C862 H863 0.961 . S
C862 H864 0.961 . S
C862 H865 0.960 . S
H863 C862 0.961 . S
H864 C862 0.961 . S
H865 C862 0.960 . S
C866 N867 1.342 . S
C866 C870 1.401 . S
C866 C871 1.499 . S
N867 Co850 1.989 . S
N867 C866 1.342 . S
N867 N868 1.388 . S
N868 Co851 1.993 . S
N868 N867 1.388 . S
N868 C869 1.346 . S
C869 N868 1.346 . S
C869 C870 1.396 . S
C869 C879 1.510 . S
C870 C866 1.401 . S
C870 C869 1.396 . S
C871 C866 1.499 . S
C871 H872 0.959 . S
C871 H873 0.960 . S
C871 H874 0.961 . S
H872 C871 0.959 . S
H873 C871 0.960 . S
H874 C871 0.961 . S
O875 Co850 1.967 . S
O875 C883 1.258 . S
O876 Co851 1.941 . S
O876 C883 1.266 . S
H877 C879 0.959 . S
H878 C879 0.961 . S
C879 C869 1.510 . S
C879 H877 0.959 . S
C879 H878 0.961 . S
C879 H880 0.960 . S
H880 C879 0.960 . S
H881 N861 0.862 . S
O882 Co850 1.920 . S
O882 C855 1.289 . S
C883 O875 1.258 . S
C883 O876 1.266 . S
Co884 O887 1.970 . S
Co884 N901 1.989 . S
Co884 O909 1.967 . S
Co884 O916 1.920 . S
Co885 O888 1.966 . S
Co885 N894 2.022 . S
Co885 N902 1.993 . S
Co885 O910 1.941 . S
C886 O887 1.258 . S
C886 O888 1.263 . S
O887 Co884 1.970 . S
O887 C886 1.258 . S
O888 Co885 1.966 . S
O888 C886 1.263 . S
C889 O890 1.235 . S
C889 O916 1.289 . S
O890 C889 1.235 . S
C891 C893 1.400 . S
C891 N894 1.351 . S
C891 C896 1.501 . S
C892 C893 1.387 . S
C892 N895 1.341 . S
C893 C891 1.400 . S
C893 C892 1.387 . S
N894 Co885 2.022 . S
N894 C891 1.351 . S
N894 N895 1.365 . S
N895 C892 1.341 . S
N895 N894 1.365 . S
N895 H915 0.862 . S
C896 C891 1.501 . S
C896 H897 0.961 . S
C896 H898 0.961 . S
C896 H899 0.960 . S
H897 C896 0.961 . S
H898 C896 0.961 . S
H899 C896 0.960 . S
C900 N901 1.342 . S
C900 C904 1.401 . S
C900 C905 1.499 . S
N901 Co884 1.989 . S
N901 C900 1.342 . S
N901 N902 1.388 . S
N902 Co885 1.993 . S
N902 N901 1.388 . S
N902 C903 1.346 . S
C903 N902 1.346 . S
C903 C904 1.396 . S
C903 C913 1.510 . S
C904 C900 1.401 . S
C904 C903 1.396 . S
C905 C900 1.499 . S
C905 H906 0.959 . S
C905 H907 0.960 . S
C905 H908 0.961 . S
H906 C905 0.959 . S
H907 C905 0.960 . S
H908 C905 0.961 . S
O909 Co884 1.967 . S
O909 C917 1.258 . S
O910 Co885 1.941 . S
O910 C917 1.266 . S
H911 C913 0.959 . S
H912 C913 0.961 . S
C913 C903 1.510 . S
C913 H911 0.959 . S
C913 H912 0.961 . S
C913 H914 0.960 . S
H914 C913 0.960 . S
H915 N895 0.862 . S
O916 Co884 1.920 . S
O916 C889 1.289 . S
C917 O909 1.258 . S
C917 O910 1.266 . S
Co918 O921 1.970 . S
Co918 N935 1.989 . S
Co918 O943 1.967 . S
Co918 O950 1.920 . S
Co919 O922 1.966 . S
Co919 N928 2.022 . S
Co919 N936 1.993 . S
Co919 O944 1.941 . S
C920 O921 1.258 . S
C920 O922 1.263 . S
O921 Co918 1.970 . S
O921 C920 1.258 . S
O922 Co919 1.966 . S
O922 C920 1.263 . S
C923 O924 1.235 . S
C923 O950 1.289 . S
O924 C923 1.235 . S
C925 C927 1.400 . S
C925 N928 1.351 . S
C925 C930 1.501 . S
C926 C927 1.387 . S
C926 N929 1.341 . S
C927 C925 1.400 . S
C927 C926 1.387 . S
N928 Co919 2.022 . S
N928 C925 1.351 . S
N928 N929 1.365 . S
N929 C926 1.341 . S
N929 N928 1.365 . S
N929 H949 0.862 . S
C930 C925 1.501 . S
C930 H931 0.961 . S
C930 H932 0.961 . S
C930 H933 0.960 . S
H931 C930 0.961 . S
H932 C930 0.961 . S
H933 C930 0.960 . S
C934 N935 1.342 . S
C934 C938 1.401 . S
C934 C939 1.499 . S
N935 Co918 1.989 . S
N935 C934 1.342 . S
N935 N936 1.388 . S
N936 Co919 1.993 . S
N936 N935 1.388 . S
N936 C937 1.346 . S
C937 N936 1.346 . S
C937 C938 1.396 . S
C937 C947 1.510 . S
C938 C934 1.401 . S
C938 C937 1.396 . S
C939 C934 1.499 . S
C939 H940 0.959 . S
C939 H941 0.960 . S
C939 H942 0.961 . S
H940 C939 0.959 . S
H941 C939 0.960 . S
H942 C939 0.961 . S
O943 Co918 1.967 . S
O943 C951 1.258 . S
O944 Co919 1.941 . S
O944 C951 1.266 . S
H945 C947 0.959 . S
H946 C947 0.961 . S
C947 C937 1.510 . S
C947 H945 0.959 . S
C947 H946 0.961 . S
C947 H948 0.960 . S
H948 C947 0.960 . S
H949 N929 0.862 . S
O950 Co918 1.920 . S
O950 C923 1.289 . S
C951 O943 1.258 . S
C951 O944 1.266 . S
Co952 O955 1.970 . S
Co952 N969 1.989 . S
Co952 O977 1.967 . S
Co952 O984 1.920 . S
Co953 O956 1.966 . S
Co953 N962 2.022 . S
Co953 N970 1.993 . S
Co953 O978 1.941 . S
C954 O955 1.258 . S
C954 O956 1.263 . S
O955 Co952 1.970 . S
O955 C954 1.258 . S
O956 Co953 1.966 . S
O956 C954 1.263 . S
C957 O958 1.235 . S
C957 O984 1.289 . S
O958 C957 1.235 . S
C959 C961 1.400 . S
C959 N962 1.351 . S
C959 C964 1.501 . S
C960 C961 1.387 . S
C960 N963 1.341 . S
C961 C959 1.400 . S
C961 C960 1.387 . S
N962 Co953 2.022 . S
N962 C959 1.351 . S
N962 N963 1.365 . S
N963 C960 1.341 . S
N963 N962 1.365 . S
N963 H983 0.862 . S
C964 C959 1.501 . S
C964 H965 0.961 . S
C964 H966 0.961 . S
C964 H967 0.960 . S
H965 C964 0.961 . S
H966 C964 0.961 . S
H967 C964 0.960 . S
C968 N969 1.342 . S
C968 C972 1.401 . S
C968 C973 1.499 . S
N969 Co952 1.989 . S
N969 C968 1.342 . S
N969 N970 1.388 . S
N970 Co953 1.993 . S
N970 N969 1.388 . S
N970 C971 1.346 . S
C971 N970 1.346 . S
C971 C972 1.396 . S
C971 C981 1.510 . S
C972 C968 1.401 . S
C972 C971 1.396 . S
C973 C968 1.499 . S
C973 H974 0.959 . S
C973 H975 0.960 . S
C973 H976 0.961 . S
H974 C973 0.959 . S
H975 C973 0.960 . S
H976 C973 0.961 . S
O977 Co952 1.967 . S
O977 C985 1.258 . S
O978 Co953 1.941 . S
O978 C985 1.266 . S
H979 C981 0.959 . S
H980 C981 0.961 . S
C981 C971 1.510 . S
C981 H979 0.959 . S
C981 H980 0.961 . S
C981 H982 0.960 . S
H982 C981 0.960 . S
H983 N963 0.862 . S
O984 Co952 1.920 . S
O984 C957 1.289 . S
C985 O977 1.258 . S
C985 O978 1.266 . S
Co986 O989 1.970 . S
Co986 N1003 1.989 . S
Co986 O1011 1.967 . S
Co986 O1018 1.920 . S
Co987 O990 1.966 . S
Co987 N996 2.022 . S
Co987 N1004 1.993 . S
Co987 O1012 1.941 . S
C988 O989 1.258 . S
C988 O990 1.263 . S
O989 Co986 1.970 . S
O989 C988 1.258 . S
O990 Co987 1.966 . S
O990 C988 1.263 . S
C991 O992 1.235 . S
C991 O1018 1.289 . S
O992 C991 1.235 . S
C993 C995 1.400 . S
C993 N996 1.351 . S
C993 C998 1.501 . S
C994 C995 1.387 . S
C994 N997 1.341 . S
C995 C993 1.400 . S
C995 C994 1.387 . S
N996 Co987 2.022 . S
N996 C993 1.351 . S
N996 N997 1.365 . S
N997 C994 1.341 . S
N997 N996 1.365 . S
N997 H1017 0.862 . S
C998 C993 1.501 . S
C998 H999 0.961 . S
C998 H1000 0.961 . S
C998 H1001 0.960 . S
H999 C998 0.961 . S
H1000 C998 0.961 . S
H1001 C998 0.960 . S
C1002 N1003 1.342 . S
C1002 C1006 1.401 . S
C1002 C1007 1.499 . S
N1003 Co986 1.989 . S
N1003 C1002 1.342 . S
N1003 N1004 1.388 . S
N1004 Co987 1.993 . S
N1004 N1003 1.388 . S
N1004 C1005 1.346 . S
C1005 N1004 1.346 . S
C1005 C1006 1.396 . S
C1005 C1015 1.510 . S
C1006 C1002 1.401 . S
C1006 C1005 1.396 . S
C1007 C1002 1.499 . S
C1007 H1008 0.959 . S
C1007 H1009 0.960 . S
C1007 H1010 0.961 . S
H1008 C1007 0.959 . S
H1009 C1007 0.960 . S
H1010 C1007 0.961 . S
O1011 Co986 1.967 . S
O1011 C1019 1.258 . S
O1012 Co987 1.941 . S
O1012 C1019 1.266 . S
H1013 C1015 0.959 . S
H1014 C1015 0.961 . S
C1015 C1005 1.510 . S
C1015 H1013 0.959 . S
C1015 H1014 0.961 . S
C1015 H1016 0.960 . S
H1016 C1015 0.960 . S
H1017 N997 0.862 . S
O1018 Co986 1.920 . S
O1018 C991 1.289 . S
C1019 O1011 1.258 . S
C1019 O1012 1.266 . S
Co1020 O1023 1.970 . S
Co1020 N1037 1.989 . S
Co1020 O1045 1.967 . S
Co1020 O1052 1.920 . S
Co1021 O1024 1.966 . S
Co1021 N1030 2.022 . S
Co1021 N1038 1.993 . S
Co1021 O1046 1.941 . S
C1022 O1023 1.258 . S
C1022 O1024 1.263 . S
O1023 Co1020 1.970 . S
O1023 C1022 1.258 . S
O1024 Co1021 1.966 . S
O1024 C1022 1.263 . S
C1025 O1026 1.235 . S
C1025 O1052 1.289 . S
O1026 C1025 1.235 . S
C1027 C1029 1.400 . S
C1027 N1030 1.351 . S
C1027 C1032 1.501 . S
C1028 C1029 1.387 . S
C1028 N1031 1.341 . S
C1029 C1027 1.400 . S
C1029 C1028 1.387 . S
N1030 Co1021 2.022 . S
N1030 C1027 1.351 . S
N1030 N1031 1.365 . S
N1031 C1028 1.341 . S
N1031 N1030 1.365 . S
N1031 H1051 0.862 . S
C1032 C1027 1.501 . S
C1032 H1033 0.961 . S
C1032 H1034 0.961 . S
C1032 H1035 0.960 . S
H1033 C1032 0.961 . S
H1034 C1032 0.961 . S
H1035 C1032 0.960 . S
C1036 N1037 1.342 . S
C1036 C1040 1.401 . S
C1036 C1041 1.499 . S
N1037 Co1020 1.989 . S
N1037 C1036 1.342 . S
N1037 N1038 1.388 . S
N1038 Co1021 1.993 . S
N1038 N1037 1.388 . S
N1038 C1039 1.346 . S
C1039 N1038 1.346 . S
C1039 C1040 1.396 . S
C1039 C1049 1.510 . S
C1040 C1036 1.401 . S
C1040 C1039 1.396 . S
C1041 C1036 1.499 . S
C1041 H1042 0.959 . S
C1041 H1043 0.960 . S
C1041 H1044 0.961 . S
H1042 C1041 0.959 . S
H1043 C1041 0.960 . S
H1044 C1041 0.961 . S
O1045 Co1020 1.967 . S
O1045 C1053 1.258 . S
O1046 Co1021 1.941 . S
O1046 C1053 1.266 . S
H1047 C1049 0.959 . S
H1048 C1049 0.961 . S
C1049 C1039 1.510 . S
C1049 H1047 0.959 . S
C1049 H1048 0.961 . S
C1049 H1050 0.960 . S
H1050 C1049 0.960 . S
H1051 N1031 0.862 . S
O1052 Co1020 1.920 . S
O1052 C1025 1.289 . S
C1053 O1045 1.258 . S
C1053 O1046 1.266 . S
Co1054 O1057 1.970 . S
Co1054 N1071 1.989 . S
Co1054 O1079 1.967 . S
Co1054 O1086 1.920 . S
Co1055 O1058 1.966 . S
Co1055 N1064 2.022 . S
Co1055 N1072 1.993 . S
Co1055 O1080 1.941 . S
C1056 O1057 1.258 . S
C1056 O1058 1.263 . S
O1057 Co1054 1.970 . S
O1057 C1056 1.258 . S
O1058 Co1055 1.966 . S
O1058 C1056 1.263 . S
C1059 O1060 1.235 . S
C1059 O1086 1.289 . S
O1060 C1059 1.235 . S
C1061 C1063 1.400 . S
C1061 N1064 1.351 . S
C1061 C1066 1.501 . S
C1062 C1063 1.387 . S
C1062 N1065 1.341 . S
C1063 C1061 1.400 . S
C1063 C1062 1.387 . S
N1064 Co1055 2.022 . S
N1064 C1061 1.351 . S
N1064 N1065 1.365 . S
N1065 C1062 1.341 . S
N1065 N1064 1.365 . S
N1065 H1085 0.862 . S
C1066 C1061 1.501 . S
C1066 H1067 0.961 . S
C1066 H1068 0.961 . S
C1066 H1069 0.960 . S
H1067 C1066 0.961 . S
H1068 C1066 0.961 . S
H1069 C1066 0.960 . S
C1070 N1071 1.342 . S
C1070 C1074 1.401 . S
C1070 C1075 1.499 . S
N1071 Co1054 1.989 . S
N1071 C1070 1.342 . S
N1071 N1072 1.388 . S
N1072 Co1055 1.993 . S
N1072 N1071 1.388 . S
N1072 C1073 1.346 . S
C1073 N1072 1.346 . S
C1073 C1074 1.396 . S
C1073 C1083 1.510 . S
C1074 C1070 1.401 . S
C1074 C1073 1.396 . S
C1075 C1070 1.499 . S
C1075 H1076 0.959 . S
C1075 H1077 0.960 . S
C1075 H1078 0.961 . S
H1076 C1075 0.959 . S
H1077 C1075 0.960 . S
H1078 C1075 0.961 . S
O1079 Co1054 1.967 . S
O1079 C1087 1.258 . S
O1080 Co1055 1.941 . S
O1080 C1087 1.266 . S
H1081 C1083 0.959 . S
H1082 C1083 0.961 . S
C1083 C1073 1.510 . S
C1083 H1081 0.959 . S
C1083 H1082 0.961 . S
C1083 H1084 0.960 . S
H1084 C1083 0.960 . S
H1085 N1065 0.862 . S
O1086 Co1054 1.920 . S
O1086 C1059 1.289 . S
C1087 O1079 1.258 . S
C1087 O1080 1.266 . S
Co1088 O1091 1.970 . S
Co1088 N1105 1.989 . S
Co1088 O1113 1.967 . S
Co1088 O1120 1.920 . S
Co1089 O1092 1.966 . S
Co1089 N1098 2.022 . S
Co1089 N1106 1.993 . S
Co1089 O1114 1.941 . S
C1090 O1091 1.258 . S
C1090 O1092 1.263 . S
O1091 Co1088 1.970 . S
O1091 C1090 1.258 . S
O1092 Co1089 1.966 . S
O1092 C1090 1.263 . S
C1093 O1094 1.235 . S
C1093 O1120 1.289 . S
O1094 C1093 1.235 . S
C1095 C1097 1.400 . S
C1095 N1098 1.351 . S
C1095 C1100 1.501 . S
C1096 C1097 1.387 . S
C1096 N1099 1.341 . S
C1097 C1095 1.400 . S
C1097 C1096 1.387 . S
N1098 Co1089 2.022 . S
N1098 C1095 1.351 . S
N1098 N1099 1.365 . S
N1099 C1096 1.341 . S
N1099 N1098 1.365 . S
N1099 H1119 0.862 . S
C1100 C1095 1.501 . S
C1100 H1101 0.961 . S
C1100 H1102 0.961 . S
C1100 H1103 0.960 . S
H1101 C1100 0.961 . S
H1102 C1100 0.961 . S
H1103 C1100 0.960 . S
C1104 N1105 1.342 . S
C1104 C1108 1.401 . S
C1104 C1109 1.499 . S
N1105 Co1088 1.989 . S
N1105 C1104 1.342 . S
N1105 N1106 1.388 . S
N1106 Co1089 1.993 . S
N1106 N1105 1.388 . S
N1106 C1107 1.346 . S
C1107 N1106 1.346 . S
C1107 C1108 1.396 . S
C1107 C1117 1.510 . S
C1108 C1104 1.401 . S
C1108 C1107 1.396 . S
C1109 C1104 1.499 . S
C1109 H1110 0.959 . S
C1109 H1111 0.960 . S
C1109 H1112 0.961 . S
H1110 C1109 0.959 . S
H1111 C1109 0.960 . S
H1112 C1109 0.961 . S
O1113 Co1088 1.967 . S
O1113 C1121 1.258 . S
O1114 Co1089 1.941 . S
O1114 C1121 1.266 . S
H1115 C1117 0.959 . S
H1116 C1117 0.961 . S
C1117 C1107 1.510 . S
C1117 H1115 0.959 . S
C1117 H1116 0.961 . S
C1117 H1118 0.960 . S
H1118 C1117 0.960 . S
H1119 N1099 0.862 . S
O1120 Co1088 1.920 . S
O1120 C1093 1.289 . S
C1121 O1113 1.258 . S
C1121 O1114 1.266 . S
Co1122 O1125 1.970 . S
Co1122 N1139 1.989 . S
Co1122 O1147 1.967 . S
Co1122 O1154 1.920 . S
Co1123 O1126 1.966 . S
Co1123 N1132 2.022 . S
Co1123 N1140 1.993 . S
Co1123 O1148 1.941 . S
C1124 O1125 1.258 . S
C1124 O1126 1.263 . S
O1125 Co1122 1.970 . S
O1125 C1124 1.258 . S
O1126 Co1123 1.966 . S
O1126 C1124 1.263 . S
C1127 O1128 1.235 . S
C1127 O1154 1.289 . S
O1128 C1127 1.235 . S
C1129 C1131 1.400 . S
C1129 N1132 1.351 . S
C1129 C1134 1.501 . S
C1130 C1131 1.387 . S
C1130 N1133 1.341 . S
C1131 C1129 1.400 . S
C1131 C1130 1.387 . S
N1132 Co1123 2.022 . S
N1132 C1129 1.351 . S
N1132 N1133 1.365 . S
N1133 C1130 1.341 . S
N1133 N1132 1.365 . S
N1133 H1153 0.862 . S
C1134 C1129 1.501 . S
C1134 H1135 0.961 . S
C1134 H1136 0.961 . S
C1134 H1137 0.960 . S
H1135 C1134 0.961 . S
H1136 C1134 0.961 . S
H1137 C1134 0.960 . S
C1138 N1139 1.342 . S
C1138 C1142 1.401 . S
C1138 C1143 1.499 . S
N1139 Co1122 1.989 . S
N1139 C1138 1.342 . S
N1139 N1140 1.388 . S
N1140 Co1123 1.993 . S
N1140 N1139 1.388 . S
N1140 C1141 1.346 . S
C1141 N1140 1.346 . S
C1141 C1142 1.396 . S
C1141 C1151 1.510 . S
C1142 C1138 1.401 . S
C1142 C1141 1.396 . S
C1143 C1138 1.499 . S
C1143 H1144 0.959 . S
C1143 H1145 0.960 . S
C1143 H1146 0.961 . S
H1144 C1143 0.959 . S
H1145 C1143 0.960 . S
H1146 C1143 0.961 . S
O1147 Co1122 1.967 . S
O1147 C1155 1.258 . S
O1148 Co1123 1.941 . S
O1148 C1155 1.266 . S
H1149 C1151 0.959 . S
H1150 C1151 0.961 . S
C1151 C1141 1.510 . S
C1151 H1149 0.959 . S
C1151 H1150 0.961 . S
C1151 H1152 0.960 . S
H1152 C1151 0.960 . S
H1153 N1133 0.862 . S
O1154 Co1122 1.920 . S
O1154 C1127 1.289 . S
C1155 O1147 1.258 . S
C1155 O1148 1.266 . S
Co1156 O1159 1.970 . S
Co1156 N1173 1.989 . S
Co1156 O1181 1.967 . S
Co1156 O1188 1.920 . S
Co1157 O1160 1.966 . S
Co1157 N1166 2.022 . S
Co1157 N1174 1.993 . S
Co1157 O1182 1.941 . S
C1158 O1159 1.258 . S
C1158 O1160 1.263 . S
O1159 Co1156 1.970 . S
O1159 C1158 1.258 . S
O1160 Co1157 1.966 . S
O1160 C1158 1.263 . S
C1161 O1162 1.235 . S
C1161 O1188 1.289 . S
O1162 C1161 1.235 . S
C1163 C1165 1.400 . S
C1163 N1166 1.351 . S
C1163 C1168 1.501 . S
C1164 C1165 1.387 . S
C1164 N1167 1.341 . S
C1165 C1163 1.400 . S
C1165 C1164 1.387 . S
N1166 Co1157 2.022 . S
N1166 C1163 1.351 . S
N1166 N1167 1.365 . S
N1167 C1164 1.341 . S
N1167 N1166 1.365 . S
N1167 H1187 0.862 . S
C1168 C1163 1.501 . S
C1168 H1169 0.961 . S
C1168 H1170 0.961 . S
C1168 H1171 0.960 . S
H1169 C1168 0.961 . S
H1170 C1168 0.961 . S
H1171 C1168 0.960 . S
C1172 N1173 1.342 . S
C1172 C1176 1.401 . S
C1172 C1177 1.499 . S
N1173 Co1156 1.989 . S
N1173 C1172 1.342 . S
N1173 N1174 1.388 . S
N1174 Co1157 1.993 . S
N1174 N1173 1.388 . S
N1174 C1175 1.346 . S
C1175 N1174 1.346 . S
C1175 C1176 1.396 . S
C1175 C1185 1.510 . S
C1176 C1172 1.401 . S
C1176 C1175 1.396 . S
C1177 C1172 1.499 . S
C1177 H1178 0.959 . S
C1177 H1179 0.960 . S
C1177 H1180 0.961 . S
H1178 C1177 0.959 . S
H1179 C1177 0.960 . S
H1180 C1177 0.961 . S
O1181 Co1156 1.967 . S
O1181 C1189 1.258 . S
O1182 Co1157 1.941 . S
O1182 C1189 1.266 . S
H1183 C1185 0.959 . S
H1184 C1185 0.961 . S
C1185 C1175 1.510 . S
C1185 H1183 0.959 . S
C1185 H1184 0.961 . S
C1185 H1186 0.960 . S
H1186 C1185 0.960 . S
H1187 N1167 0.862 . S
O1188 Co1156 1.920 . S
O1188 C1161 1.289 . S
C1189 O1181 1.258 . S
C1189 O1182 1.266 . S
Co1190 O1193 1.970 . S
Co1190 N1207 1.989 . S
Co1190 O1215 1.967 . S
Co1190 O1222 1.920 . S
Co1191 O1194 1.966 . S
Co1191 N1200 2.022 . S
Co1191 N1208 1.993 . S
Co1191 O1216 1.941 . S
C1192 O1193 1.258 . S
C1192 O1194 1.263 . S
O1193 Co1190 1.970 . S
O1193 C1192 1.258 . S
O1194 Co1191 1.966 . S
O1194 C1192 1.263 . S
C1195 O1196 1.235 . S
C1195 O1222 1.289 . S
O1196 C1195 1.235 . S
C1197 C1199 1.400 . S
C1197 N1200 1.351 . S
C1197 C1202 1.501 . S
C1198 C1199 1.387 . S
C1198 N1201 1.341 . S
C1199 C1197 1.400 . S
C1199 C1198 1.387 . S
N1200 Co1191 2.022 . S
N1200 C1197 1.351 . S
N1200 N1201 1.365 . S
N1201 C1198 1.341 . S
N1201 N1200 1.365 . S
N1201 H1221 0.862 . S
C1202 C1197 1.501 . S
C1202 H1203 0.961 . S
C1202 H1204 0.961 . S
C1202 H1205 0.960 . S
H1203 C1202 0.961 . S
H1204 C1202 0.961 . S
H1205 C1202 0.960 . S
C1206 N1207 1.342 . S
C1206 C1210 1.401 . S
C1206 C1211 1.499 . S
N1207 Co1190 1.989 . S
N1207 C1206 1.342 . S
N1207 N1208 1.388 . S
N1208 Co1191 1.993 . S
N1208 N1207 1.388 . S
N1208 C1209 1.346 . S
C1209 N1208 1.346 . S
C1209 C1210 1.396 . S
C1209 C1219 1.510 . S
C1210 C1206 1.401 . S
C1210 C1209 1.396 . S
C1211 C1206 1.499 . S
C1211 H1212 0.959 . S
C1211 H1213 0.960 . S
C1211 H1214 0.961 . S
H1212 C1211 0.959 . S
H1213 C1211 0.960 . S
H1214 C1211 0.961 . S
O1215 Co1190 1.967 . S
O1215 C1223 1.258 . S
O1216 Co1191 1.941 . S
O1216 C1223 1.266 . S
H1217 C1219 0.959 . S
H1218 C1219 0.961 . S
C1219 C1209 1.510 . S
C1219 H1217 0.959 . S
C1219 H1218 0.961 . S
C1219 H1220 0.960 . S
H1220 C1219 0.960 . S
H1221 N1201 0.862 . S
O1222 Co1190 1.920 . S
O1222 C1195 1.289 . S
C1223 O1215 1.258 . S
C1223 O1216 1.266 . S
H1224 C1230 0.930 . S
H1225 C1233 0.930 . S
H1226 C1234 0.930 . S
H1227 C1235 0.930 . S
H1228 C1238 0.930 . S
H1229 C1239 0.930 . S
C1230 H1224 0.930 . S
C1230 C1231 1.355 . S
C1230 C1232 1.415 . S
C1231 C1230 1.355 . S
C1231 C1233 1.419 . S
C1232 C1230 1.415 . S
C1232 C1237 1.425 . S
C1232 C1239 1.409 . S
C1233 H1225 0.930 . S
C1233 C1231 1.419 . S
C1233 C1234 1.362 . S
C1234 H1226 0.930 . S
C1234 C1233 1.362 . S
C1234 C1237 1.409 . S
C1235 H1227 0.930 . S
C1235 C1236 1.355 . S
C1235 C1237 1.415 . S
C1236 C1235 1.355 . S
C1236 C1238 1.419 . S
C1237 C1232 1.425 . S
C1237 C1234 1.409 . S
C1237 C1235 1.415 . S
C1238 H1228 0.930 . S
C1238 C1236 1.419 . S
C1238 C1239 1.362 . S
C1239 H1229 0.930 . S
C1239 C1232 1.409 . S
C1239 C1238 1.362 . S
H1240 C1246 0.930 . S
H1241 C1249 0.930 . S
H1242 C1250 0.930 . S
H1243 C1251 0.930 . S
H1244 C1254 0.930 . S
H1245 C1255 0.930 . S
C1246 H1240 0.930 . S
C1246 C1247 1.355 . S
C1246 C1248 1.415 . S
C1247 C1246 1.355 . S
C1247 C1249 1.419 . S
C1248 C1246 1.415 . S
C1248 C1253 1.425 . S
C1248 C1255 1.409 . S
C1249 H1241 0.930 . S
C1249 C1247 1.419 . S
C1249 C1250 1.362 . S
C1250 H1242 0.930 . S
C1250 C1249 1.362 . S
C1250 C1253 1.409 . S
C1251 H1243 0.930 . S
C1251 C1252 1.355 . S
C1251 C1253 1.415 . S
C1252 C1251 1.355 . S
C1252 C1254 1.419 . S
C1253 C1248 1.425 . S
C1253 C1250 1.409 . S
C1253 C1251 1.415 . S
C1254 H1244 0.930 . S
C1254 C1252 1.419 . S
C1254 C1255 1.362 . S
C1255 H1245 0.930 . S
C1255 C1248 1.409 . S
C1255 C1254 1.362 . S
H1256 C1262 0.930 . S
H1257 C1265 0.930 . S
H1258 C1266 0.930 . S
H1259 C1267 0.930 . S
H1260 C1270 0.930 . S
H1261 C1271 0.933 . S
C1262 H1256 0.930 . S
C1262 C1263 1.355 . S
C1262 C1264 1.415 . S
C1263 C1262 1.355 . S
C1263 C1265 1.419 . S
C1264 C1262 1.415 . S
C1264 C1269 1.425 . S
C1264 C1271 1.409 . S
C1265 H1257 0.930 . S
C1265 C1263 1.419 . S
C1265 C1266 1.362 . S
C1266 H1258 0.930 . S
C1266 C1265 1.362 . S
C1266 C1269 1.409 . S
C1267 H1259 0.930 . S
C1267 C1268 1.355 . S
C1267 C1269 1.415 . S
C1268 C1267 1.355 . S
C1268 C1270 1.419 1_556 S
C1269 C1264 1.425 . S
C1269 C1266 1.409 . S
C1269 C1267 1.415 . S
C1270 H1260 0.930 . S
C1270 C1268 1.419 1_554 S
C1270 C1271 1.362 1_554 S
C1271 H1261 0.933 . S
C1271 C1264 1.409 . S
C1271 C1270 1.362 1_556 S
H1272 C1278 0.930 . S
H1273 C1281 0.930 . S
H1274 C1282 0.930 . S
H1275 C1283 0.930 . S
H1276 C1286 0.930 . S
H1277 C1287 0.930 . S
C1278 H1272 0.930 . S
C1278 C1279 1.355 . S
C1278 C1280 1.415 . S
C1279 C1278 1.355 . S
C1279 C1281 1.419 . S
C1280 C1278 1.415 . S
C1280 C1285 1.425 . S
C1280 C1287 1.409 . S
C1281 H1273 0.930 . S
C1281 C1279 1.419 . S
C1281 C1282 1.362 . S
C1282 H1274 0.930 . S
C1282 C1281 1.362 . S
C1282 C1285 1.409 . S
C1283 H1275 0.930 . S
C1283 C1284 1.355 . S
C1283 C1285 1.415 . S
C1284 C1283 1.355 . S
C1284 C1286 1.419 . S
C1285 C1280 1.425 . S
C1285 C1282 1.409 . S
C1285 C1283 1.415 . S
C1286 H1276 0.930 . S
C1286 C1284 1.419 . S
C1286 C1287 1.362 . S
C1287 H1277 0.930 . S
C1287 C1280 1.409 . S
C1287 C1286 1.362 . S
H1288 C1294 0.930 . S
H1289 C1297 0.930 . S
H1290 C1298 0.930 . S
H1291 C1299 0.930 . S
H1292 C1302 0.930 . S
H1293 C1303 0.930 . S
C1294 H1288 0.930 . S
C1294 C1295 1.355 . S
C1294 C1296 1.415 . S
C1295 C1294 1.355 . S
C1295 C1297 1.419 . S
C1296 C1294 1.415 . S
C1296 C1301 1.425 . S
C1296 C1303 1.409 . S
C1297 H1289 0.930 . S
C1297 C1295 1.419 . S
C1297 C1298 1.362 . S
C1298 H1290 0.930 . S
C1298 C1297 1.362 . S
C1298 C1301 1.409 . S
C1299 H1291 0.930 . S
C1299 C1300 1.355 . S
C1299 C1301 1.415 . S
C1300 C1299 1.355 . S
C1300 C1302 1.419 . S
C1301 C1296 1.425 . S
C1301 C1298 1.409 . S
C1301 C1299 1.415 . S
C1302 H1292 0.930 . S
C1302 C1300 1.419 . S
C1302 C1303 1.362 . S
C1303 H1293 0.930 . S
C1303 C1296 1.409 . S
C1303 C1302 1.362 . S
H1304 C1310 0.930 . S
H1305 C1313 0.930 . S
H1306 C1314 0.930 . S
H1307 C1315 0.930 . S
H1308 C1318 0.930 . S
H1309 C1319 0.930 . S
C1310 H1304 0.930 . S
C1310 C1311 1.355 . S
C1310 C1312 1.415 . S
C1311 C1310 1.355 . S
C1311 C1313 1.419 . S
C1312 C1310 1.415 . S
C1312 C1317 1.425 . S
C1312 C1319 1.409 . S
C1313 H1305 0.930 . S
C1313 C1311 1.419 . S
C1313 C1314 1.362 . S
C1314 H1306 0.930 . S
C1314 C1313 1.362 . S
C1314 C1317 1.409 . S
C1315 H1307 0.930 . S
C1315 C1316 1.355 . S
C1315 C1317 1.415 . S
C1316 C1315 1.355 . S
C1316 C1318 1.419 . S
C1317 C1312 1.425 . S
C1317 C1314 1.409 . S
C1317 C1315 1.415 . S
C1318 H1308 0.930 . S
C1318 C1316 1.419 . S
C1318 C1319 1.362 . S
C1319 H1309 0.930 . S
C1319 C1312 1.409 . S
C1319 C1318 1.362 . S
H1320 C1326 0.930 . S
H1321 C1329 0.930 . S
H1322 C1330 0.930 . S
H1323 C1331 0.930 . S
H1324 C1334 0.930 . S
H1325 C1335 0.930 . S
C1326 H1320 0.930 . S
C1326 C1327 1.355 . S
C1326 C1328 1.415 . S
C1327 C1326 1.355 . S
C1327 C1329 1.419 . S
C1328 C1326 1.415 . S
C1328 C1333 1.425 . S
C1328 C1335 1.409 . S
C1329 H1321 0.930 . S
C1329 C1327 1.419 . S
C1329 C1330 1.362 . S
C1330 H1322 0.930 . S
C1330 C1329 1.362 . S
C1330 C1333 1.409 . S
C1331 H1323 0.930 . S
C1331 C1332 1.355 . S
C1331 C1333 1.415 . S
C1332 C1331 1.355 . S
C1332 C1334 1.419 . S
C1333 C1328 1.425 . S
C1333 C1330 1.409 . S
C1333 C1331 1.415 . S
C1334 H1324 0.930 . S
C1334 C1332 1.419 . S
C1334 C1335 1.362 . S
C1335 H1325 0.930 . S
C1335 C1328 1.409 . S
C1335 C1334 1.362 . S
H1336 C1342 0.930 . S
H1337 C1345 0.930 . S
H1338 C1346 0.930 . S
H1339 C1347 0.930 . S
H1340 C1350 0.930 . S
H1341 C1351 0.930 . S
C1342 H1336 0.930 . S
C1342 C1343 1.355 . S
C1342 C1344 1.415 . S
C1343 C1342 1.355 . S
C1343 C1345 1.419 . S
C1344 C1342 1.415 . S
C1344 C1349 1.425 . S
C1344 C1351 1.409 . S
C1345 H1337 0.930 . S
C1345 C1343 1.419 . S
C1345 C1346 1.362 . S
C1346 H1338 0.930 . S
C1346 C1345 1.362 . S
C1346 C1349 1.409 . S
C1347 H1339 0.930 . S
C1347 C1348 1.355 . S
C1347 C1349 1.415 . S
C1348 C1347 1.355 . S
C1348 C1350 1.419 . S
C1349 C1344 1.425 . S
C1349 C1346 1.409 . S
C1349 C1347 1.415 . S
C1350 H1340 0.930 . S
C1350 C1348 1.419 . S
C1350 C1351 1.362 . S
C1351 H1341 0.930 . S
C1351 C1344 1.409 . S
C1351 C1350 1.362 . S
H1352 C1358 0.930 . S
H1353 C1361 0.930 . S
H1354 C1362 0.930 . S
H1355 C1363 0.930 . S
H1356 C1366 0.930 . S
H1357 C1367 0.930 . S
C1358 H1352 0.930 . S
C1358 C1359 1.355 . S
C1358 C1360 1.415 . S
C1359 C1358 1.355 . S
C1359 C1361 1.419 . S
C1360 C1358 1.415 . S
C1360 C1365 1.425 . S
C1360 C1367 1.409 . S
C1361 H1353 0.930 . S
C1361 C1359 1.419 . S
C1361 C1362 1.362 . S
C1362 H1354 0.930 . S
C1362 C1361 1.362 . S
C1362 C1365 1.409 . S
C1363 H1355 0.930 . S
C1363 C1364 1.355 . S
C1363 C1365 1.415 . S
C1364 C1363 1.355 . S
C1364 C1366 1.419 . S
C1365 C1360 1.425 . S
C1365 C1362 1.409 . S
C1365 C1363 1.415 . S
C1366 H1356 0.930 . S
C1366 C1364 1.419 . S
C1366 C1367 1.362 . S
C1367 H1357 0.930 . S
C1367 C1360 1.409 . S
C1367 C1366 1.362 . S
H1368 C1374 0.930 . S
H1369 C1377 0.930 . S
H1370 C1378 0.930 . S
H1371 C1379 0.930 . S
H1372 C1382 0.930 . S
H1373 C1383 0.930 . S
C1374 H1368 0.930 . S
C1374 C1375 1.355 . S
C1374 C1376 1.415 . S
C1375 C1374 1.355 . S
C1375 C1377 1.419 . S
C1376 C1374 1.415 . S
C1376 C1381 1.425 . S
C1376 C1383 1.409 . S
C1377 H1369 0.930 . S
C1377 C1375 1.419 . S
C1377 C1378 1.362 . S
C1378 H1370 0.930 . S
C1378 C1377 1.362 . S
C1378 C1381 1.409 . S
C1379 H1371 0.930 . S
C1379 C1380 1.355 . S
C1379 C1381 1.415 . S
C1380 C1379 1.355 . S
C1380 C1382 1.419 . S
C1381 C1376 1.425 . S
C1381 C1378 1.409 . S
C1381 C1379 1.415 . S
C1382 H1372 0.930 . S
C1382 C1380 1.419 . S
C1382 C1383 1.362 . S
C1383 H1373 0.930 . S
C1383 C1376 1.409 . S
C1383 C1382 1.362 . S
H1384 C1390 0.930 . S
H1385 C1393 0.930 . S
H1386 C1394 0.930 . S
H1387 C1395 0.930 . S
H1388 C1398 0.930 . S
H1389 C1399 0.930 . S
C1390 H1384 0.930 . S
C1390 C1391 1.355 . S
C1390 C1392 1.415 . S
C1391 C1390 1.355 . S
C1391 C1393 1.419 . S
C1392 C1390 1.415 . S
C1392 C1397 1.425 . S
C1392 C1399 1.409 . S
C1393 H1385 0.930 . S
C1393 C1391 1.419 . S
C1393 C1394 1.362 . S
C1394 H1386 0.930 . S
C1394 C1393 1.362 . S
C1394 C1397 1.409 . S
C1395 H1387 0.930 . S
C1395 C1396 1.355 . S
C1395 C1397 1.415 . S
C1396 C1395 1.355 . S
C1396 C1398 1.419 . S
C1397 C1392 1.425 . S
C1397 C1394 1.409 . S
C1397 C1395 1.415 . S
C1398 H1388 0.930 . S
C1398 C1396 1.419 . S
C1398 C1399 1.362 . S
C1399 H1389 0.930 . S
C1399 C1392 1.409 . S
C1399 C1398 1.362 . S
H1400 C1406 0.930 . S
H1401 C1409 0.930 . S
H1402 C1410 0.930 . S
H1403 C1411 0.930 . S
H1404 C1414 0.930 . S
H1405 C1415 0.930 . S
C1406 H1400 0.930 . S
C1406 C1407 1.355 . S
C1406 C1408 1.415 . S
C1407 C1406 1.355 . S
C1407 C1409 1.419 . S
C1408 C1406 1.415 . S
C1408 C1413 1.425 . S
C1408 C1415 1.409 . S
C1409 H1401 0.930 . S
C1409 C1407 1.419 . S
C1409 C1410 1.362 . S
C1410 H1402 0.930 . S
C1410 C1409 1.362 . S
C1410 C1413 1.409 . S
C1411 H1403 0.930 . S
C1411 C1412 1.355 . S
C1411 C1413 1.415 . S
C1412 C1411 1.355 . S
C1412 C1414 1.419 . S
C1413 C1408 1.425 . S
C1413 C1410 1.409 . S
C1413 C1411 1.415 . S
C1414 H1404 0.930 . S
C1414 C1412 1.419 . S
C1414 C1415 1.362 . S
C1415 H1405 0.930 . S
C1415 C1408 1.409 . S
C1415 C1414 1.362 . S
H1416 C1422 0.930 . S
H1417 C1425 0.930 . S
H1418 C1426 0.930 . S
H1419 C1427 0.930 . S
H1420 C1430 0.930 . S
H1421 C1431 0.930 . S
C1422 H1416 0.930 . S
C1422 C1423 1.355 . S
C1422 C1424 1.415 . S
C1423 C1422 1.355 . S
C1423 C1425 1.419 . S
C1424 C1422 1.415 . S
C1424 C1429 1.425 1_655 S
C1424 C1431 1.409 . S
C1425 H1417 0.930 . S
C1425 C1423 1.419 . S
C1425 C1426 1.362 1_655 S
C1426 H1418 0.930 . S
C1426 C1425 1.362 1_455 S
C1426 C1429 1.409 . S
C1427 H1419 0.930 . S
C1427 C1428 1.355 . S
C1427 C1429 1.415 . S
C1428 C1427 1.355 . S
C1428 C1430 1.419 . S
C1429 C1424 1.425 1_455 S
C1429 C1426 1.409 . S
C1429 C1427 1.415 . S
C1430 H1420 0.930 . S
C1430 C1428 1.419 . S
C1430 C1431 1.362 1_455 S
C1431 H1421 0.930 . S
C1431 C1424 1.409 . S
C1431 C1430 1.362 1_655 S
H1432 C1438 0.930 . S
H1433 C1441 0.930 . S
H1434 C1442 0.930 . S
H1435 C1443 0.930 . S
H1436 C1446 0.930 . S
H1437 C1447 0.930 . S
C1438 H1432 0.930 . S
C1438 C1439 1.355 . S
C1438 C1440 1.415 . S
C1439 C1438 1.355 . S
C1439 C1441 1.419 . S
C1440 C1438 1.415 . S
C1440 C1445 1.425 . S
C1440 C1447 1.409 . S
C1441 H1433 0.930 . S
C1441 C1439 1.419 . S
C1441 C1442 1.362 . S
C1442 H1434 0.930 . S
C1442 C1441 1.362 . S
C1442 C1445 1.409 . S
C1443 H1435 0.930 . S
C1443 C1444 1.355 . S
C1443 C1445 1.415 . S
C1444 C1443 1.355 . S
C1444 C1446 1.419 . S
C1445 C1440 1.425 . S
C1445 C1442 1.409 . S
C1445 C1443 1.415 . S
C1446 H1436 0.930 . S
C1446 C1444 1.419 . S
C1446 C1447 1.362 . S
C1447 H1437 0.930 . S
C1447 C1440 1.409 . S
C1447 C1446 1.362 . S
H1448 C1454 0.930 . S
H1449 C1457 0.930 . S
H1450 C1458 0.930 . S
H1451 C1459 0.930 . S
H1452 C1462 0.930 . S
H1453 C1463 0.930 . S
C1454 H1448 0.930 . S
C1454 C1455 1.355 . S
C1454 C1456 1.415 . S
C1455 C1454 1.355 . S
C1455 C1457 1.419 . S
C1456 C1454 1.415 . S
C1456 C1461 1.425 1_565 S
C1456 C1463 1.409 . S
C1457 H1449 0.930 . S
C1457 C1455 1.419 . S
C1457 C1458 1.362 1_565 S
C1458 H1450 0.930 . S
C1458 C1457 1.362 1_545 S
C1458 C1461 1.409 . S
C1459 H1451 0.930 . S
C1459 C1460 1.355 . S
C1459 C1461 1.415 . S
C1460 C1459 1.355 . S
C1460 C1462 1.419 . S
C1461 C1456 1.425 1_545 S
C1461 C1458 1.409 . S
C1461 C1459 1.415 . S
C1462 H1452 0.930 . S
C1462 C1460 1.419 . S
C1462 C1463 1.362 1_545 S
C1463 H1453 0.930 . S
C1463 C1456 1.409 . S
C1463 C1462 1.362 1_565 S
H1464 C1470 0.930 . S
H1465 C1473 0.930 . S
H1466 C1474 0.930 . S
H1467 C1475 0.930 . S
H1468 C1478 0.930 . S
H1469 C1479 0.930 . S
C1470 H1464 0.930 . S
C1470 C1471 1.355 . S
C1470 C1472 1.415 1_565 S
C1471 C1470 1.355 . S
C1471 C1473 1.419 . S
C1472 C1470 1.415 1_545 S
C1472 C1477 1.425 1_545 S
C1472 C1479 1.409 . S
C1473 H1465 0.930 . S
C1473 C1471 1.419 . S
C1473 C1474 1.362 . S
C1474 H1466 0.930 . S
C1474 C1473 1.362 . S
C1474 C1477 1.409 . S
C1475 H1467 0.930 . S
C1475 C1476 1.355 . S
C1475 C1477 1.415 1_545 S
C1476 C1475 1.355 . S
C1476 C1478 1.419 . S
C1477 C1472 1.425 1_565 S
C1477 C1474 1.409 . S
C1477 C1475 1.415 1_565 S
C1478 H1468 0.930 . S
C1478 C1476 1.419 . S
C1478 C1479 1.362 . S
C1479 H1469 0.930 . S
C1479 C1472 1.409 . S
C1479 C1478 1.362 . S
H1480 C1486 0.930 . S
H1481 C1489 0.930 . S
H1482 C1490 0.930 . S
H1483 C1491 0.930 . S
H1484 C1494 0.930 . S
H1485 C1495 0.930 . S
C1486 H1480 0.930 . S
C1486 C1487 1.355 . S
C1486 C1488 1.415 1_655 S
C1487 C1486 1.355 . S
C1487 C1489 1.419 . S
C1488 C1486 1.415 1_455 S
C1488 C1493 1.425 1_455 S
C1488 C1495 1.409 . S
C1489 H1481 0.930 . S
C1489 C1487 1.419 . S
C1489 C1490 1.362 . S
C1490 H1482 0.930 . S
C1490 C1489 1.362 . S
C1490 C1493 1.409 . S
C1491 H1483 0.930 . S
C1491 C1492 1.355 . S
C1491 C1493 1.415 1_455 S
C1492 C1491 1.355 . S
C1492 C1494 1.419 . S
C1493 C1488 1.425 1_655 S
C1493 C1490 1.409 . S
C1493 C1491 1.415 1_655 S
C1494 H1484 0.930 . S
C1494 C1492 1.419 . S
C1494 C1495 1.362 . S
C1495 H1485 0.930 . S
C1495 C1488 1.409 . S
C1495 C1494 1.362 . S
H1496 C1502 0.930 . S
H1497 C1505 0.930 . S
H1498 C1506 0.930 . S
H1499 C1507 0.930 . S
H1500 C1510 0.930 . S
H1501 C1511 0.930 . S
C1502 H1496 0.930 . S
C1502 C1503 1.355 . S
C1502 C1504 1.415 . S
C1503 C1502 1.355 . S
C1503 C1505 1.419 . S
C1504 C1502 1.415 . S
C1504 C1509 1.425 . S
C1504 C1511 1.409 . S
C1505 H1497 0.930 . S
C1505 C1503 1.419 . S
C1505 C1506 1.362 . S
C1506 H1498 0.930 . S
C1506 C1505 1.362 . S
C1506 C1509 1.409 . S
C1507 H1499 0.930 . S
C1507 C1508 1.355 . S
C1507 C1509 1.415 . S
C1508 C1507 1.355 . S
C1508 C1510 1.419 . S
C1509 C1504 1.425 . S
C1509 C1506 1.409 . S
C1509 C1507 1.415 . S
C1510 H1500 0.930 . S
C1510 C1508 1.419 . S
C1510 C1511 1.362 . S
C1511 H1501 0.930 . S
C1511 C1504 1.409 . S
C1511 C1510 1.362 . S
H1512 C1518 0.930 . S
H1513 C1521 0.930 . S
H1514 C1522 0.930 . S
H1515 C1523 0.930 . S
H1516 C1526 0.930 . S
H1517 C1527 0.930 . S
C1518 H1512 0.930 . S
C1518 C1519 1.355 . S
C1518 C1520 1.415 . S
C1519 C1518 1.355 . S
C1519 C1521 1.419 . S
C1520 C1518 1.415 . S
C1520 C1525 1.425 . S
C1520 C1527 1.409 . S
C1521 H1513 0.930 . S
C1521 C1519 1.419 . S
C1521 C1522 1.362 . S
C1522 H1514 0.930 . S
C1522 C1521 1.362 . S
C1522 C1525 1.409 . S
C1523 H1515 0.930 . S
C1523 C1524 1.355 . S
C1523 C1525 1.415 . S
C1524 C1523 1.355 . S
C1524 C1526 1.419 . S
C1525 C1520 1.425 . S
C1525 C1522 1.409 . S
C1525 C1523 1.415 . S
C1526 H1516 0.930 . S
C1526 C1524 1.419 . S
C1526 C1527 1.362 . S
C1527 H1517 0.930 . S
C1527 C1520 1.409 . S
C1527 C1526 1.362 . S
H1528 C1534 0.930 . S
H1529 C1537 0.930 . S
H1530 C1538 0.930 . S
H1531 C1539 0.930 . S
H1532 C1542 0.930 . S
H1533 C1543 0.930 . S
C1534 H1528 0.930 . S
C1534 C1535 1.355 1_545 S
C1534 C1536 1.415 . S
C1535 C1534 1.355 1_565 S
C1535 C1537 1.419 . S
C1536 C1534 1.415 . S
C1536 C1541 1.425 1_545 S
C1536 C1543 1.409 . S
C1537 H1529 0.930 . S
C1537 C1535 1.419 . S
C1537 C1538 1.362 . S
C1538 H1530 0.930 . S
C1538 C1537 1.362 . S
C1538 C1541 1.409 . S
C1539 H1531 0.930 . S
C1539 C1540 1.355 1_565 S
C1539 C1541 1.415 . S
C1540 C1539 1.355 1_545 S
C1540 C1542 1.419 . S
C1541 C1536 1.425 1_565 S
C1541 C1538 1.409 . S
C1541 C1539 1.415 . S
C1542 H1532 0.930 . S
C1542 C1540 1.419 . S
C1542 C1543 1.362 . S
C1543 H1533 0.930 . S
C1543 C1536 1.409 . S
C1543 C1542 1.362 . S
H1544 C1550 0.930 . S
H1545 C1553 0.930 . S
H1546 C1554 0.930 . S
H1547 C1555 0.930 . S
H1548 C1558 0.930 . S
H1549 C1559 0.930 . S
C1550 H1544 0.930 . S
C1550 C1551 1.359 1_455 S
C1550 C1552 1.415 . S
C1551 C1550 1.359 1_655 S
C1551 C1553 1.414 . S
C1552 C1550 1.415 . S
C1552 C1557 1.446 1_455 S
C1552 C1559 1.409 . S
C1553 H1545 0.930 . S
C1553 C1551 1.414 . S
C1553 C1554 1.362 . S
C1554 H1546 0.930 . S
C1554 C1553 1.362 . S
C1554 C1557 1.394 . S
C1555 H1547 0.930 . S
C1555 C1556 1.371 1_655 S
C1555 C1557 1.413 . S
C1556 C1555 1.371 1_455 S
C1556 C1558 1.400 . S
C1557 C1552 1.446 1_655 S
C1557 C1554 1.394 . S
C1557 C1555 1.413 . S
C1558 H1548 0.930 . S
C1558 C1556 1.400 . S
C1558 C1559 1.362 . S
C1559 H1549 0.930 . S
C1559 C1552 1.409 . S
C1559 C1558 1.362 . S
H1560 C1566 0.930 . S
H1561 C1569 0.930 . S
H1562 C1570 0.930 . S
H1563 C1571 0.930 . S
H1564 C1574 0.930 . S
H1565 C1575 0.930 . S
C1566 H1560 0.930 . S
C1566 C1567 1.355 . S
C1566 C1568 1.415 . S
C1567 C1566 1.355 . S
C1567 C1569 1.419 . S
C1568 C1566 1.415 . S
C1568 C1573 1.425 . S
C1568 C1575 1.409 . S
C1569 H1561 0.930 . S
C1569 C1567 1.419 . S
C1569 C1570 1.362 . S
C1570 H1562 0.930 . S
C1570 C1569 1.362 . S
C1570 C1573 1.409 . S
C1571 H1563 0.930 . S
C1571 C1572 1.355 . S
C1571 C1573 1.415 . S
C1572 C1571 1.355 . S
C1572 C1574 1.419 . S
C1573 C1568 1.425 . S
C1573 C1570 1.409 . S
C1573 C1571 1.415 . S
C1574 H1564 0.930 . S
C1574 C1572 1.419 . S
C1574 C1575 1.362 . S
C1575 H1565 0.930 . S
C1575 C1568 1.409 . S
C1575 C1574 1.362 . S
H1576 C1582 0.930 . S
H1577 C1585 0.930 . S
H1578 C1586 0.930 . S
H1579 C1587 0.930 . S
H1580 C1590 0.930 . S
H1581 C1591 0.930 . S
C1582 H1576 0.930 . S
C1582 C1583 1.355 1_545 S
C1582 C1584 1.415 . S
C1583 C1582 1.355 1_565 S
C1583 C1585 1.419 . S
C1584 C1582 1.415 . S
C1584 C1589 1.425 1_545 S
C1584 C1591 1.409 . S
C1585 H1577 0.930 . S
C1585 C1583 1.419 . S
C1585 C1586 1.362 . S
C1586 H1578 0.930 . S
C1586 C1585 1.362 . S
C1586 C1589 1.409 . S
C1587 H1579 0.930 . S
C1587 C1588 1.355 1_565 S
C1587 C1589 1.415 . S
C1588 C1587 1.355 1_545 S
C1588 C1590 1.419 . S
C1589 C1584 1.425 1_565 S
C1589 C1586 1.409 . S
C1589 C1587 1.415 . S
C1590 H1580 0.930 . S
C1590 C1588 1.419 . S
C1590 C1591 1.362 . S
C1591 H1581 0.930 . S
C1591 C1584 1.409 . S
C1591 C1590 1.362 . S
H1592 C1598 0.930 . S
H1593 C1601 0.930 . S
H1594 C1602 0.930 . S
H1595 C1603 0.930 . S
H1596 C1606 0.930 . S
H1597 C1607 0.930 . S
C1598 H1592 0.930 . S
C1598 C1599 1.355 1_455 S
C1598 C1600 1.415 . S
C1599 C1598 1.355 1_655 S
C1599 C1601 1.419 . S
C1600 C1598 1.415 . S
C1600 C1605 1.425 1_455 S
C1600 C1607 1.409 . S
C1601 H1593 0.930 . S
C1601 C1599 1.419 . S
C1601 C1602 1.362 . S
C1602 H1594 0.930 . S
C1602 C1601 1.362 . S
C1602 C1605 1.409 . S
C1603 H1595 0.930 . S
C1603 C1604 1.355 1_655 S
C1603 C1605 1.415 . S
C1604 C1603 1.355 1_455 S
C1604 C1606 1.419 . S
C1605 C1600 1.425 1_655 S
C1605 C1602 1.409 . S
C1605 C1603 1.415 . S
C1606 H1596 0.930 . S
C1606 C1604 1.419 . S
C1606 C1607 1.362 . S
C1607 H1597 0.930 . S
C1607 C1600 1.409 . S
C1607 C1606 1.362 . S
H1608 C1614 0.930 . S
H1609 C1617 0.930 . S
H1610 C1618 0.930 . S
H1611 C1619 0.930 . S
H1612 C1622 0.930 . S
H1613 C1623 0.930 . S
C1614 H1608 0.930 . S
C1614 C1615 1.355 . S
C1614 C1616 1.415 . S
C1615 C1614 1.355 . S
C1615 C1617 1.419 . S
C1616 C1614 1.415 . S
C1616 C1621 1.425 . S
C1616 C1623 1.409 . S
C1617 H1609 0.930 . S
C1617 C1615 1.419 . S
C1617 C1618 1.362 . S
C1618 H1610 0.930 . S
C1618 C1617 1.362 . S
C1618 C1621 1.409 . S
C1619 H1611 0.930 . S
C1619 C1620 1.355 . S
C1619 C1621 1.415 . S
C1620 C1619 1.355 . S
C1620 C1622 1.419 . S
C1621 C1616 1.425 . S
C1621 C1618 1.409 . S
C1621 C1619 1.415 . S
C1622 H1612 0.930 . S
C1622 C1620 1.419 . S
C1622 C1623 1.362 . S
C1623 H1613 0.930 . S
C1623 C1616 1.409 . S
C1623 C1622 1.362 . S
H1624 C1630 0.930 . S
H1625 C1633 0.930 . S
H1626 C1634 0.930 . S
H1627 C1635 0.930 . S
H1628 C1638 0.930 . S
H1629 C1639 0.930 . S
C1630 H1624 0.930 . S
C1630 C1631 1.355 . S
C1630 C1632 1.415 . S
C1631 C1630 1.355 . S
C1631 C1633 1.419 . S
C1632 C1630 1.415 . S
C1632 C1637 1.425 . S
C1632 C1639 1.409 . S
C1633 H1625 0.930 . S
C1633 C1631 1.419 . S
C1633 C1634 1.362 . S
C1634 H1626 0.930 . S
C1634 C1633 1.362 . S
C1634 C1637 1.409 . S
C1635 H1627 0.930 . S
C1635 C1636 1.355 . S
C1635 C1637 1.415 . S
C1636 C1635 1.355 . S
C1636 C1638 1.419 . S
C1637 C1632 1.425 . S
C1637 C1634 1.409 . S
C1637 C1635 1.415 . S
C1638 H1628 0.930 . S
C1638 C1636 1.419 . S
C1638 C1639 1.362 . S
C1639 H1629 0.930 . S
C1639 C1632 1.409 . S
C1639 C1638 1.362 . S
H1640 C1646 0.930 . S
H1641 C1649 0.930 . S
H1642 C1650 0.930 . S
H1643 C1651 0.930 . S
H1644 C1654 0.930 . S
H1645 C1655 0.930 . S
C1646 H1640 0.930 . S
C1646 C1647 1.355 . S
C1646 C1648 1.415 . S
C1647 C1646 1.355 . S
C1647 C1649 1.419 . S
C1648 C1646 1.415 . S
C1648 C1653 1.425 . S
C1648 C1655 1.409 . S
C1649 H1641 0.930 . S
C1649 C1647 1.419 . S
C1649 C1650 1.362 . S
C1650 H1642 0.930 . S
C1650 C1649 1.362 . S
C1650 C1653 1.409 . S
C1651 H1643 0.930 . S
C1651 C1652 1.355 . S
C1651 C1653 1.415 . S
C1652 C1651 1.355 . S
C1652 C1654 1.419 . S
C1653 C1648 1.425 . S
C1653 C1650 1.409 . S
C1653 C1651 1.415 . S
C1654 H1644 0.930 . S
C1654 C1652 1.419 . S
C1654 C1655 1.362 . S
C1655 H1645 0.930 . S
C1655 C1648 1.409 . S
C1655 C1654 1.362 . S
H1656 C1662 0.930 . S
H1657 C1665 0.930 . S
H1658 C1666 0.930 . S
H1659 C1667 0.930 . S
H1660 C1670 0.930 . S
H1661 C1671 0.930 . S
C1662 H1656 0.930 . S
C1662 C1663 1.355 . S
C1662 C1664 1.415 . S
C1663 C1662 1.355 . S
C1663 C1665 1.419 . S
C1664 C1662 1.415 . S
C1664 C1669 1.425 . S
C1664 C1671 1.409 . S
C1665 H1657 0.930 . S
C1665 C1663 1.419 . S
C1665 C1666 1.362 . S
C1666 H1658 0.930 . S
C1666 C1665 1.362 . S
C1666 C1669 1.409 . S
C1667 H1659 0.930 . S
C1667 C1668 1.355 . S
C1667 C1669 1.415 . S
C1668 C1667 1.355 . S
C1668 C1670 1.419 . S
C1669 C1664 1.425 . S
C1669 C1666 1.409 . S
C1669 C1667 1.415 . S
C1670 H1660 0.930 . S
C1670 C1668 1.419 . S
C1670 C1671 1.362 . S
C1671 H1661 0.930 . S
C1671 C1664 1.409 . S
C1671 C1670 1.362 . S
H1672 C1678 0.930 . S
H1673 C1681 0.930 . S
H1674 C1682 0.930 . S
H1675 C1683 0.930 . S
H1676 C1686 0.930 . S
H1677 C1687 0.930 . S
C1678 H1672 0.930 . S
C1678 C1679 1.355 . S
C1678 C1680 1.415 . S
C1679 C1678 1.355 . S
C1679 C1681 1.419 . S
C1680 C1678 1.415 . S
C1680 C1685 1.425 . S
C1680 C1687 1.409 . S
C1681 H1673 0.930 . S
C1681 C1679 1.419 . S
C1681 C1682 1.362 . S
C1682 H1674 0.930 . S
C1682 C1681 1.362 . S
C1682 C1685 1.409 . S
C1683 H1675 0.930 . S
C1683 C1684 1.355 . S
C1683 C1685 1.415 . S
C1684 C1683 1.355 . S
C1684 C1686 1.419 . S
C1685 C1680 1.425 . S
C1685 C1682 1.409 . S
C1685 C1683 1.415 . S
C1686 H1676 0.930 . S
C1686 C1684 1.419 . S
C1686 C1687 1.362 . S
C1687 H1677 0.930 . S
C1687 C1680 1.409 . S
C1687 C1686 1.362 . S
H1688 C1694 0.930 . S
H1689 C1697 0.930 . S
H1690 C1698 0.930 . S
H1691 C1699 0.930 . S
H1692 C1702 0.930 . S
H1693 C1703 0.930 . S
C1694 H1688 0.930 . S
C1694 C1695 1.355 . S
C1694 C1696 1.415 . S
C1695 C1694 1.355 . S
C1695 C1697 1.419 . S
C1696 C1694 1.415 . S
C1696 C1701 1.425 . S
C1696 C1703 1.409 . S
C1697 H1689 0.930 . S
C1697 C1695 1.419 . S
C1697 C1698 1.362 . S
C1698 H1690 0.930 . S
C1698 C1697 1.362 . S
C1698 C1701 1.409 . S
C1699 H1691 0.930 . S
C1699 C1700 1.355 . S
C1699 C1701 1.415 . S
C1700 C1699 1.355 . S
C1700 C1702 1.419 . S
C1701 C1696 1.425 . S
C1701 C1698 1.409 . S
C1701 C1699 1.415 . S
C1702 H1692 0.930 . S
C1702 C1700 1.419 . S
C1702 C1703 1.362 . S
C1703 H1693 0.930 . S
C1703 C1696 1.409 . S
C1703 C1702 1.362 . S
H1704 C1710 0.930 . S
H1705 C1713 0.930 . S
H1706 C1714 0.930 . S
H1707 C1715 0.930 . S
H1708 C1718 0.922 1_554 S
H1709 C1719 0.930 . S
C1710 H1704 0.930 . S
C1710 C1711 1.355 . S
C1710 C1712 1.415 . S
C1711 C1710 1.355 . S
C1711 C1713 1.419 . S
C1712 C1710 1.415 . S
C1712 C1717 1.425 . S
C1712 C1719 1.409 . S
C1713 H1705 0.930 . S
C1713 C1711 1.419 . S
C1713 C1714 1.362 . S
C1714 H1706 0.930 . S
C1714 C1713 1.362 . S
C1714 C1717 1.409 . S
C1715 H1707 0.930 . S
C1715 C1716 1.355 1_556 S
C1715 C1717 1.415 . S
C1716 C1715 1.355 1_554 S
C1716 C1718 1.415 1_554 S
C1717 C1712 1.425 . S
C1717 C1714 1.409 . S
C1717 C1715 1.415 . S
C1718 H1708 0.922 1_556 S
C1718 C1716 1.415 1_556 S
C1718 C1719 1.374 . S
C1719 H1709 0.930 . S
C1719 C1712 1.409 . S
C1719 C1718 1.374 . S
H1720 C1726 0.930 . S
H1721 C1729 0.922 1_554 S
H1722 C1730 0.930 . S
H1723 C1731 0.930 . S
H1724 C1734 0.930 . S
H1725 C1735 0.930 . S
C1726 H1720 0.930 . S
C1726 C1727 1.355 1_556 S
C1726 C1728 1.415 . S
C1727 C1726 1.355 1_554 S
C1727 C1729 1.415 1_554 S
C1728 C1726 1.415 . S
C1728 C1733 1.425 . S
C1728 C1735 1.409 . S
C1729 H1721 0.922 1_556 S
C1729 C1727 1.415 1_556 S
C1729 C1730 1.374 . S
C1730 H1722 0.930 . S
C1730 C1729 1.374 . S
C1730 C1733 1.409 . S
C1731 H1723 0.930 . S
C1731 C1732 1.355 . S
C1731 C1733 1.415 . S
C1732 C1731 1.355 . S
C1732 C1734 1.419 . S
C1733 C1728 1.425 . S
C1733 C1730 1.409 . S
C1733 C1731 1.415 . S
C1734 H1724 0.930 . S
C1734 C1732 1.419 . S
C1734 C1735 1.362 . S
C1735 H1725 0.930 . S
C1735 C1728 1.409 . S
C1735 C1734 1.362 . S
H1736 C1742 0.930 . S
H1737 C1745 0.930 . S
H1738 C1746 0.930 . S
H1739 C1747 0.930 . S
H1740 C1750 0.928 1_554 S
H1741 C1751 0.930 . S
C1742 H1736 0.930 . S
C1742 C1743 1.355 . S
C1742 C1744 1.415 . S
C1743 C1742 1.355 . S
C1743 C1745 1.419 . S
C1744 C1742 1.415 . S
C1744 C1749 1.425 . S
C1744 C1751 1.409 . S
C1745 H1737 0.930 . S
C1745 C1743 1.419 . S
C1745 C1746 1.362 . S
C1746 H1738 0.930 . S
C1746 C1745 1.362 . S
C1746 C1749 1.409 . S
C1747 H1739 0.930 . S
C1747 C1748 1.355 1_556 S
C1747 C1749 1.415 . S
C1748 C1747 1.355 1_554 S
C1748 C1750 1.418 1_554 S
C1749 C1744 1.425 . S
C1749 C1746 1.409 . S
C1749 C1747 1.415 . S
C1750 H1740 0.928 1_556 S
C1750 C1748 1.418 1_556 S
C1750 C1751 1.365 . S
C1751 H1741 0.930 . S
C1751 C1744 1.409 . S
C1751 C1750 1.365 . S
H1752 C1758 0.930 . S
H1753 C1761 0.930 . S
H1754 C1762 0.930 . S
H1755 C1763 0.930 . S
H1756 C1766 0.930 . S
H1757 C1767 0.930 . S
C1758 H1752 0.930 . S
C1758 C1759 1.355 . S
C1758 C1760 1.415 . S
C1759 C1758 1.355 . S
C1759 C1761 1.419 . S
C1760 C1758 1.415 . S
C1760 C1765 1.425 . S
C1760 C1767 1.409 . S
C1761 H1753 0.930 . S
C1761 C1759 1.419 . S
C1761 C1762 1.362 . S
C1762 H1754 0.930 . S
C1762 C1761 1.362 . S
C1762 C1765 1.409 . S
C1763 H1755 0.930 . S
C1763 C1764 1.355 . S
C1763 C1765 1.415 . S
C1764 C1763 1.355 . S
C1764 C1766 1.419 . S
C1765 C1760 1.425 . S
C1765 C1762 1.409 . S
C1765 C1763 1.415 . S
C1766 H1756 0.930 . S
C1766 C1764 1.419 . S
C1766 C1767 1.362 . S
C1767 H1757 0.930 . S
C1767 C1760 1.409 . S
C1767 C1766 1.362 . S
H1768 C1774 0.930 . S
H1769 C1777 0.930 . S
H1770 C1778 0.930 . S
H1771 C1779 0.930 . S
H1772 C1782 0.930 . S
H1773 C1783 0.930 . S
C1774 H1768 0.930 . S
C1774 C1775 1.355 . S
C1774 C1776 1.415 . S
C1775 C1774 1.355 . S
C1775 C1777 1.419 . S
C1776 C1774 1.415 . S
C1776 C1781 1.425 . S
C1776 C1783 1.409 . S
C1777 H1769 0.930 . S
C1777 C1775 1.419 . S
C1777 C1778 1.362 . S
C1778 H1770 0.930 . S
C1778 C1777 1.362 . S
C1778 C1781 1.409 . S
C1779 H1771 0.930 . S
C1779 C1780 1.355 . S
C1779 C1781 1.415 . S
C1780 C1779 1.355 . S
C1780 C1782 1.419 . S
C1781 C1776 1.425 . S
C1781 C1778 1.409 . S
C1781 C1779 1.415 . S
C1782 H1772 0.930 . S
C1782 C1780 1.419 . S
C1782 C1783 1.362 . S
C1783 H1773 0.930 . S
C1783 C1776 1.409 . S
C1783 C1782 1.362 . S
H1784 C1790 0.930 . S
H1785 C1793 0.930 . S
H1786 C1794 0.930 . S
H1787 C1795 0.930 . S
H1788 C1798 0.930 . S
H1789 C1799 0.930 . S
C1790 H1784 0.930 . S
C1790 C1791 1.355 . S
C1790 C1792 1.415 . S
C1791 C1790 1.355 . S
C1791 C1793 1.419 . S
C1792 C1790 1.415 . S
C1792 C1797 1.425 . S
C1792 C1799 1.409 . S
C1793 H1785 0.930 . S
C1793 C1791 1.419 . S
C1793 C1794 1.362 . S
C1794 H1786 0.930 . S
C1794 C1793 1.362 . S
C1794 C1797 1.409 . S
C1795 H1787 0.930 . S
C1795 C1796 1.355 . S
C1795 C1797 1.415 . S
C1796 C1795 1.355 . S
C1796 C1798 1.419 . S
C1797 C1792 1.425 . S
C1797 C1794 1.409 . S
C1797 C1795 1.415 . S
C1798 H1788 0.930 . S
C1798 C1796 1.419 . S
C1798 C1799 1.362 . S
C1799 H1789 0.930 . S
C1799 C1792 1.409 . S
C1799 C1798 1.362 . S
H1800 C1806 0.930 . S
H1801 C1809 0.930 . S
H1802 C1810 0.930 . S
H1803 C1811 0.930 . S
H1804 C1814 0.930 . S
H1805 C1815 0.930 . S
C1806 H1800 0.930 . S
C1806 C1807 1.355 . S
C1806 C1808 1.415 . S
C1807 C1806 1.355 . S
C1807 C1809 1.419 1_554 S
C1808 C1806 1.415 . S
C1808 C1813 1.425 1_554 S
C1808 C1815 1.409 . S
C1809 H1801 0.930 . S
C1809 C1807 1.419 1_556 S
C1809 C1810 1.362 . S
C1810 H1802 0.930 . S
C1810 C1809 1.362 . S
C1810 C1813 1.409 . S
C1811 H1803 0.930 . S
C1811 C1812 1.355 1_556 S
C1811 C1813 1.415 . S
C1812 C1811 1.355 1_554 S
C1812 C1814 1.419 . S
C1813 C1808 1.425 1_556 S
C1813 C1810 1.409 . S
C1813 C1811 1.415 . S
C1814 H1804 0.930 . S
C1814 C1812 1.419 . S
C1814 C1815 1.362 . S
C1815 H1805 0.930 . S
C1815 C1808 1.409 . S
C1815 C1814 1.362 . S
H1816 C1822 0.930 . S
H1817 C1825 0.930 . S
H1818 C1826 0.930 . S
H1819 C1827 0.930 . S
H1820 C1830 0.930 . S
H1821 C1831 0.930 . S
C1822 H1816 0.930 . S
C1822 C1823 1.355 1_556 S
C1822 C1824 1.415 . S
C1823 C1822 1.355 1_554 S
C1823 C1825 1.419 . S
C1824 C1822 1.415 . S
C1824 C1829 1.425 1_556 S
C1824 C1831 1.409 . S
C1825 H1817 0.930 . S
C1825 C1823 1.419 . S
C1825 C1826 1.362 . S
C1826 H1818 0.930 . S
C1826 C1825 1.362 . S
C1826 C1829 1.409 . S
C1827 H1819 0.930 . S
C1827 C1828 1.355 . S
C1827 C1829 1.415 . S
C1828 C1827 1.355 . S
C1828 C1830 1.419 1_554 S
C1829 C1824 1.425 1_554 S
C1829 C1826 1.409 . S
C1829 C1827 1.415 . S
C1830 H1820 0.930 . S
C1830 C1828 1.419 1_556 S
C1830 C1831 1.362 . S
C1831 H1821 0.930 . S
C1831 C1824 1.409 . S
C1831 C1830 1.362 . S
H1832 C1838 0.931 . S
H1833 C1841 0.930 . S
H1834 C1842 0.930 . S
H1835 C1843 0.930 . S
H1836 C1846 0.930 . S
H1837 C1847 0.930 . S
C1838 H1832 0.931 . S
C1838 C1839 1.353 1_556 S
C1838 C1840 1.415 . S
C1839 C1838 1.353 1_554 S
C1839 C1841 1.419 . S
C1840 C1838 1.415 . S
C1840 C1845 1.419 1_556 S
C1840 C1847 1.415 . S
C1841 H1833 0.930 . S
C1841 C1839 1.419 . S
C1841 C1842 1.362 . S
C1842 H1834 0.930 . S
C1842 C1841 1.362 . S
C1842 C1845 1.409 . S
C1843 H1835 0.930 . S
C1843 C1844 1.355 . S
C1843 C1845 1.415 . S
C1844 C1843 1.355 . S
C1844 C1846 1.419 1_554 S
C1845 C1840 1.419 1_554 S
C1845 C1842 1.409 . S
C1845 C1843 1.415 . S
C1846 H1836 0.930 . S
C1846 C1844 1.419 1_556 S
C1846 C1847 1.362 . S
C1847 H1837 0.930 . S
C1847 C1840 1.415 . S
C1847 C1846 1.362 . S
H1848 C1854 0.930 . S
H1849 C1857 0.930 . S
H1850 C1858 0.930 . S
H1851 C1859 0.930 . S
H1852 C1862 0.930 . S
H1853 C1863 0.930 . S
C1854 H1848 0.930 . S
C1854 C1855 1.355 . S
C1854 C1856 1.415 . S
C1855 C1854 1.355 . S
C1855 C1857 1.419 . S
C1856 C1854 1.415 . S
C1856 C1861 1.425 . S
C1856 C1863 1.409 . S
C1857 H1849 0.930 . S
C1857 C1855 1.419 . S
C1857 C1858 1.362 . S
C1858 H1850 0.930 . S
C1858 C1857 1.362 . S
C1858 C1861 1.409 . S
C1859 H1851 0.930 . S
C1859 C1860 1.355 . S
C1859 C1861 1.415 . S
C1860 C1859 1.355 . S
C1860 C1862 1.419 . S
C1861 C1856 1.425 . S
C1861 C1858 1.409 . S
C1861 C1859 1.415 . S
C1862 H1852 0.930 . S
C1862 C1860 1.419 . S
C1862 C1863 1.362 . S
C1863 H1853 0.930 . S
C1863 C1856 1.409 . S
C1863 C1862 1.362 . S
H1864 C1870 0.930 . S
H1865 C1873 0.930 . S
H1866 C1874 0.930 . S
H1867 C1875 0.930 . S
H1868 C1878 0.930 . S
H1869 C1879 0.930 . S
C1870 H1864 0.930 . S
C1870 C1871 1.355 . S
C1870 C1872 1.415 . S
C1871 C1870 1.355 . S
C1871 C1873 1.419 . S
C1872 C1870 1.415 . S
C1872 C1877 1.425 . S
C1872 C1879 1.409 . S
C1873 H1865 0.930 . S
C1873 C1871 1.419 . S
C1873 C1874 1.362 . S
C1874 H1866 0.930 . S
C1874 C1873 1.362 . S
C1874 C1877 1.409 . S
C1875 H1867 0.930 . S
C1875 C1876 1.355 . S
C1875 C1877 1.415 . S
C1876 C1875 1.355 . S
C1876 C1878 1.419 . S
C1877 C1872 1.425 . S
C1877 C1874 1.409 . S
C1877 C1875 1.415 . S
C1878 H1868 0.930 . S
C1878 C1876 1.419 . S
C1878 C1879 1.362 . S
C1879 H1869 0.930 . S
C1879 C1872 1.409 . S
C1879 C1878 1.362 . S
H1880 C1886 0.930 . S
H1881 C1889 0.930 . S
H1882 C1890 0.930 . S
H1883 C1891 0.930 . S
H1884 C1894 0.930 . S
H1885 C1895 0.930 . S
C1886 H1880 0.930 . S
C1886 C1887 1.355 . S
C1886 C1888 1.415 . S
C1887 C1886 1.355 . S
C1887 C1889 1.419 . S
C1888 C1886 1.415 . S
C1888 C1893 1.425 . S
C1888 C1895 1.409 . S
C1889 H1881 0.930 . S
C1889 C1887 1.419 . S
C1889 C1890 1.362 . S
C1890 H1882 0.930 . S
C1890 C1889 1.362 . S
C1890 C1893 1.409 . S
C1891 H1883 0.930 . S
C1891 C1892 1.355 . S
C1891 C1893 1.415 . S
C1892 C1891 1.355 . S
C1892 C1894 1.419 . S
C1893 C1888 1.425 . S
C1893 C1890 1.409 . S
C1893 C1891 1.415 . S
C1894 H1884 0.930 . S
C1894 C1892 1.419 . S
C1894 C1895 1.362 . S
C1895 H1885 0.930 . S
C1895 C1888 1.409 . S
C1895 C1894 1.362 . S
H1896 C1902 0.930 . S
H1897 C1905 0.930 . S
H1898 C1906 0.930 . S
H1899 C1907 0.930 . S
H1900 C1910 0.930 . S
H1901 C1911 0.930 . S
C1902 H1896 0.930 . S
C1902 C1903 1.355 . S
C1902 C1904 1.415 . S
C1903 C1902 1.355 . S
C1903 C1905 1.419 . S
C1904 C1902 1.415 . S
C1904 C1909 1.425 . S
C1904 C1911 1.409 . S
C1905 H1897 0.930 . S
C1905 C1903 1.419 . S
C1905 C1906 1.362 . S
C1906 H1898 0.930 . S
C1906 C1905 1.362 . S
C1906 C1909 1.409 . S
C1907 H1899 0.930 . S
C1907 C1908 1.355 . S
C1907 C1909 1.415 . S
C1908 C1907 1.355 . S
C1908 C1910 1.419 . S
C1909 C1904 1.425 . S
C1909 C1906 1.409 . S
C1909 C1907 1.415 . S
C1910 H1900 0.930 . S
C1910 C1908 1.419 . S
C1910 C1911 1.362 . S
C1911 H1901 0.930 . S
C1911 C1904 1.409 . S
C1911 C1910 1.362 . S
H1912 C1918 0.930 . S
H1913 C1921 0.930 . S
H1914 C1922 0.930 . S
H1915 C1923 0.930 . S
H1916 C1926 0.930 . S
H1917 C1927 0.930 . S
C1918 H1912 0.930 . S
C1918 C1919 1.355 . S
C1918 C1920 1.415 . S
C1919 C1918 1.355 . S
C1919 C1921 1.419 . S
C1920 C1918 1.415 . S
C1920 C1925 1.425 . S
C1920 C1927 1.409 . S
C1921 H1913 0.930 . S
C1921 C1919 1.419 . S
C1921 C1922 1.362 . S
C1922 H1914 0.930 . S
C1922 C1921 1.362 . S
C1922 C1925 1.409 . S
C1923 H1915 0.930 . S
C1923 C1924 1.355 . S
C1923 C1925 1.415 . S
C1924 C1923 1.355 . S
C1924 C1926 1.419 . S
C1925 C1920 1.425 . S
C1925 C1922 1.409 . S
C1925 C1923 1.415 . S
C1926 H1916 0.930 . S
C1926 C1924 1.419 . S
C1926 C1927 1.362 . S
C1927 H1917 0.930 . S
C1927 C1920 1.409 . S
C1927 C1926 1.362 . S
H1928 C1934 0.930 1_556 S
H1929 C1937 0.930 . S
H1930 C1938 0.930 . S
H1931 C1939 0.930 . S
H1932 C1942 0.930 1_556 S
H1933 C1943 0.930 . S
C1934 H1928 0.930 1_554 S
C1934 C1935 1.355 . S
C1934 C1936 1.415 . S
C1935 C1934 1.355 . S
C1935 C1937 1.419 . S
C1936 C1934 1.415 . S
C1936 C1941 1.425 . S
C1936 C1943 1.409 1_554 S
C1937 H1929 0.930 . S
C1937 C1935 1.419 . S
C1937 C1938 1.362 . S
C1938 H1930 0.930 . S
C1938 C1937 1.362 . S
C1938 C1941 1.409 . S
C1939 H1931 0.930 . S
C1939 C1940 1.355 . S
C1939 C1941 1.415 . S
C1940 C1939 1.355 . S
C1940 C1942 1.419 . S
C1941 C1936 1.425 . S
C1941 C1938 1.409 . S
C1941 C1939 1.415 . S
C1942 H1932 0.930 1_554 S
C1942 C1940 1.419 . S
C1942 C1943 1.362 1_554 S
C1943 H1933 0.930 . S
C1943 C1936 1.409 1_556 S
C1943 C1942 1.362 1_556 S
H1944 C1950 0.930 . S
H1945 C1953 0.930 . S
H1946 C1954 0.930 . S
H1947 C1955 0.930 . S
H1948 C1958 0.930 . S
H1949 C1959 0.930 . S
C1950 H1944 0.930 . S
C1950 C1951 1.355 . S
C1950 C1952 1.415 . S
C1951 C1950 1.355 . S
C1951 C1953 1.419 . S
C1952 C1950 1.415 . S
C1952 C1957 1.425 . S
C1952 C1959 1.409 . S
C1953 H1945 0.930 . S
C1953 C1951 1.419 . S
C1953 C1954 1.362 . S
C1954 H1946 0.930 . S
C1954 C1953 1.362 . S
C1954 C1957 1.409 . S
C1955 H1947 0.930 . S
C1955 C1956 1.355 . S
C1955 C1957 1.415 . S
C1956 C1955 1.355 . S
C1956 C1958 1.419 . S
C1957 C1952 1.425 . S
C1957 C1954 1.409 . S
C1957 C1955 1.415 . S
C1958 H1948 0.930 . S
C1958 C1956 1.419 . S
C1958 C1959 1.362 . S
C1959 H1949 0.930 . S
C1959 C1952 1.409 . S
C1959 C1958 1.362 . S
H1960 C1966 0.930 . S
H1961 C1969 0.930 . S
H1962 C1970 0.930 . S
H1963 C1971 0.930 . S
H1964 C1974 0.930 . S
H1965 C1975 0.930 . S
C1966 H1960 0.930 . S
C1966 C1967 1.355 . S
C1966 C1968 1.415 . S
C1967 C1966 1.355 . S
C1967 C1969 1.419 . S
C1968 C1966 1.415 . S
C1968 C1973 1.425 . S
C1968 C1975 1.409 . S
C1969 H1961 0.930 . S
C1969 C1967 1.419 . S
C1969 C1970 1.362 . S
C1970 H1962 0.930 . S
C1970 C1969 1.362 . S
C1970 C1973 1.409 . S
C1971 H1963 0.930 . S
C1971 C1972 1.355 . S
C1971 C1973 1.415 . S
C1972 C1971 1.355 . S
C1972 C1974 1.419 . S
C1973 C1968 1.425 . S
C1973 C1970 1.409 . S
C1973 C1971 1.415 . S
C1974 H1964 0.930 . S
C1974 C1972 1.419 . S
C1974 C1975 1.362 . S
C1975 H1965 0.930 . S
C1975 C1968 1.409 . S
C1975 C1974 1.362 . S
H1976 C1982 0.930 . S
H1977 C1985 0.930 . S
H1978 C1986 0.930 . S
H1979 C1987 0.930 . S
H1980 C1990 0.930 . S
H1981 C1991 0.930 . S
C1982 H1976 0.930 . S
C1982 C1983 1.355 . S
C1982 C1984 1.415 . S
C1983 C1982 1.355 . S
C1983 C1985 1.419 . S
C1984 C1982 1.415 . S
C1984 C1989 1.425 . S
C1984 C1991 1.409 . S
C1985 H1977 0.930 . S
C1985 C1983 1.419 . S
C1985 C1986 1.362 . S
C1986 H1978 0.930 . S
C1986 C1985 1.362 . S
C1986 C1989 1.409 . S
C1987 H1979 0.930 . S
C1987 C1988 1.355 . S
C1987 C1989 1.415 . S
C1988 C1987 1.355 . S
C1988 C1990 1.419 . S
C1989 C1984 1.425 . S
C1989 C1986 1.409 . S
C1989 C1987 1.415 . S
C1990 H1980 0.930 . S
C1990 C1988 1.419 . S
C1990 C1991 1.362 . S
C1991 H1981 0.930 . S
C1991 C1984 1.409 . S
C1991 C1990 1.362 . S
H1992 C1998 0.930 . S
H1993 C2001 0.930 . S
H1994 C2002 0.930 . S
H1995 C2003 0.930 . S
H1996 C2006 0.930 . S
H1997 C2007 0.930 . S
C1998 H1992 0.930 . S
C1998 C1999 1.355 . S
C1998 C2000 1.415 . S
C1999 C1998 1.355 . S
C1999 C2001 1.419 . S
C2000 C1998 1.415 . S
C2000 C2005 1.425 . S
C2000 C2007 1.409 . S
C2001 H1993 0.930 . S
C2001 C1999 1.419 . S
C2001 C2002 1.362 . S
C2002 H1994 0.930 . S
C2002 C2001 1.362 . S
C2002 C2005 1.409 . S
C2003 H1995 0.930 . S
C2003 C2004 1.355 . S
C2003 C2005 1.415 . S
C2004 C2003 1.355 . S
C2004 C2006 1.419 . S
C2005 C2000 1.425 . S
C2005 C2002 1.409 . S
C2005 C2003 1.415 . S
C2006 H1996 0.930 . S
C2006 C2004 1.419 . S
C2006 C2007 1.362 . S
C2007 H1997 0.930 . S
C2007 C2000 1.409 . S
C2007 C2006 1.362 . S
H2008 C2014 0.930 . S
H2009 C2017 0.930 . S
H2010 C2018 0.930 . S
H2011 C2019 0.930 . S
H2012 C2022 0.930 . S
H2013 C2023 0.930 . S
C2014 H2008 0.930 . S
C2014 C2015 1.355 . S
C2014 C2016 1.415 . S
C2015 C2014 1.355 . S
C2015 C2017 1.419 . S
C2016 C2014 1.415 . S
C2016 C2021 1.425 . S
C2016 C2023 1.409 . S
C2017 H2009 0.930 . S
C2017 C2015 1.419 . S
C2017 C2018 1.362 . S
C2018 H2010 0.930 . S
C2018 C2017 1.362 . S
C2018 C2021 1.409 . S
C2019 H2011 0.930 . S
C2019 C2020 1.355 . S
C2019 C2021 1.415 . S
C2020 C2019 1.355 . S
C2020 C2022 1.419 . S
C2021 C2016 1.425 . S
C2021 C2018 1.409 . S
C2021 C2019 1.415 . S
C2022 H2012 0.930 . S
C2022 C2020 1.419 . S
C2022 C2023 1.362 . S
C2023 H2013 0.930 . S
C2023 C2016 1.409 . S
C2023 C2022 1.362 . S
H2024 C2030 0.930 . S
H2025 C2033 0.930 . S
H2026 C2034 0.930 . S
H2027 C2035 0.930 . S
H2028 C2038 0.930 . S
H2029 C2039 0.930 . S
C2030 H2024 0.930 . S
C2030 C2031 1.355 . S
C2030 C2032 1.415 . S
C2031 C2030 1.355 . S
C2031 C2033 1.419 . S
C2032 C2030 1.415 . S
C2032 C2037 1.425 . S
C2032 C2039 1.409 . S
C2033 H2025 0.930 . S
C2033 C2031 1.419 . S
C2033 C2034 1.362 . S
C2034 H2026 0.930 . S
C2034 C2033 1.362 . S
C2034 C2037 1.409 . S
C2035 H2027 0.930 . S
C2035 C2036 1.355 . S
C2035 C2037 1.415 . S
C2036 C2035 1.355 . S
C2036 C2038 1.419 . S
C2037 C2032 1.425 . S
C2037 C2034 1.409 . S
C2037 C2035 1.415 . S
C2038 H2028 0.930 . S
C2038 C2036 1.419 . S
C2038 C2039 1.362 . S
C2039 H2029 0.930 . S
C2039 C2032 1.409 . S
C2039 C2038 1.362 . S
H2040 C2046 0.930 . S
H2041 C2049 0.930 . S
H2042 C2050 0.930 . S
H2043 C2051 0.930 . S
H2044 C2054 0.930 . S
H2045 C2055 0.930 . S
C2046 H2040 0.930 . S
C2046 C2047 1.355 . S
C2046 C2048 1.415 . S
C2047 C2046 1.355 . S
C2047 C2049 1.419 . S
C2048 C2046 1.415 . S
C2048 C2053 1.425 . S
C2048 C2055 1.409 . S
C2049 H2041 0.930 . S
C2049 C2047 1.419 . S
C2049 C2050 1.362 . S
C2050 H2042 0.930 . S
C2050 C2049 1.362 . S
C2050 C2053 1.409 . S
C2051 H2043 0.930 . S
C2051 C2052 1.355 . S
C2051 C2053 1.415 . S
C2052 C2051 1.355 . S
C2052 C2054 1.419 . S
C2053 C2048 1.425 . S
C2053 C2050 1.409 . S
C2053 C2051 1.415 . S
C2054 H2044 0.930 . S
C2054 C2052 1.419 . S
C2054 C2055 1.362 . S
C2055 H2045 0.930 . S
C2055 C2048 1.409 . S
C2055 C2054 1.362 . S
H2056 C2062 0.930 . S
H2057 C2065 0.930 . S
H2058 C2066 0.930 . S
H2059 C2067 0.930 . S
H2060 C2070 0.930 . S
H2061 C2071 0.930 . S
C2062 H2056 0.930 . S
C2062 C2063 1.355 . S
C2062 C2064 1.415 . S
C2063 C2062 1.355 . S
C2063 C2065 1.419 . S
C2064 C2062 1.415 . S
C2064 C2069 1.425 . S
C2064 C2071 1.409 . S
C2065 H2057 0.930 . S
C2065 C2063 1.419 . S
C2065 C2066 1.362 . S
C2066 H2058 0.930 . S
C2066 C2065 1.362 . S
C2066 C2069 1.409 . S
C2067 H2059 0.930 . S
C2067 C2068 1.355 . S
C2067 C2069 1.415 . S
C2068 C2067 1.355 . S
C2068 C2070 1.419 . S
C2069 C2064 1.425 . S
C2069 C2066 1.409 . S
C2069 C2067 1.415 . S
C2070 H2060 0.930 . S
C2070 C2068 1.419 . S
C2070 C2071 1.362 . S
C2071 H2061 0.930 . S
C2071 C2064 1.409 . S
C2071 C2070 1.362 . S
H2072 C2078 0.930 . S
H2073 C2081 0.930 . S
H2074 C2082 0.930 . S
H2075 C2083 0.930 . S
H2076 C2086 0.930 . S
H2077 C2087 0.930 . S
C2078 H2072 0.930 . S
C2078 C2079 1.355 . S
C2078 C2080 1.415 . S
C2079 C2078 1.355 . S
C2079 C2081 1.419 . S
C2080 C2078 1.415 . S
C2080 C2085 1.425 . S
C2080 C2087 1.409 . S
C2081 H2073 0.930 . S
C2081 C2079 1.419 . S
C2081 C2082 1.362 . S
C2082 H2074 0.930 . S
C2082 C2081 1.362 . S
C2082 C2085 1.409 . S
C2083 H2075 0.930 . S
C2083 C2084 1.355 . S
C2083 C2085 1.415 . S
C2084 C2083 1.355 . S
C2084 C2086 1.419 . S
C2085 C2080 1.425 . S
C2085 C2082 1.409 . S
C2085 C2083 1.415 . S
C2086 H2076 0.930 . S
C2086 C2084 1.419 . S
C2086 C2087 1.362 . S
C2087 H2077 0.930 . S
C2087 C2080 1.409 . S
C2087 C2086 1.362 . S
H2088 C2094 0.930 . S
H2089 C2097 0.930 . S
H2090 C2098 0.930 . S
H2091 C2099 0.930 . S
H2092 C2102 0.930 . S
H2093 C2103 0.930 . S
C2094 H2088 0.930 . S
C2094 C2095 1.355 . S
C2094 C2096 1.415 . S
C2095 C2094 1.355 . S
C2095 C2097 1.419 . S
C2096 C2094 1.415 . S
C2096 C2101 1.425 . S
C2096 C2103 1.409 . S
C2097 H2089 0.930 . S
C2097 C2095 1.419 . S
C2097 C2098 1.362 . S
C2098 H2090 0.930 . S
C2098 C2097 1.362 . S
C2098 C2101 1.409 . S
C2099 H2091 0.930 . S
C2099 C2100 1.355 . S
C2099 C2101 1.415 . S
C2100 C2099 1.355 . S
C2100 C2102 1.419 . S
C2101 C2096 1.425 . S
C2101 C2098 1.409 . S
C2101 C2099 1.415 . S
C2102 H2092 0.930 . S
C2102 C2100 1.419 . S
C2102 C2103 1.362 . S
C2103 H2093 0.930 . S
C2103 C2096 1.409 . S
C2103 C2102 1.362 . S
H2104 C2110 0.930 . S
H2105 C2113 0.930 . S
H2106 C2114 0.930 . S
H2107 C2115 0.930 . S
H2108 C2118 0.930 . S
H2109 C2119 0.930 . S
C2110 H2104 0.930 . S
C2110 C2111 1.355 . S
C2110 C2112 1.415 . S
C2111 C2110 1.355 . S
C2111 C2113 1.419 . S
C2112 C2110 1.415 . S
C2112 C2117 1.425 . S
C2112 C2119 1.409 . S
C2113 H2105 0.930 . S
C2113 C2111 1.419 . S
C2113 C2114 1.362 . S
C2114 H2106 0.930 . S
C2114 C2113 1.362 . S
C2114 C2117 1.409 . S
C2115 H2107 0.930 . S
C2115 C2116 1.355 . S
C2115 C2117 1.415 . S
C2116 C2115 1.355 . S
C2116 C2118 1.419 . S
C2117 C2112 1.425 . S
C2117 C2114 1.409 . S
C2117 C2115 1.415 . S
C2118 H2108 0.930 . S
C2118 C2116 1.419 . S
C2118 C2119 1.362 . S
C2119 H2109 0.930 . S
C2119 C2112 1.409 . S
C2119 C2118 1.362 . S
H2120 C2126 0.930 . S
H2121 C2129 0.930 . S
H2122 C2130 0.930 . S
H2123 C2131 0.930 . S
H2124 C2134 0.930 . S
H2125 C2135 0.930 . S
C2126 H2120 0.930 . S
C2126 C2127 1.355 . S
C2126 C2128 1.415 . S
C2127 C2126 1.355 . S
C2127 C2129 1.419 . S
C2128 C2126 1.415 . S
C2128 C2133 1.425 . S
C2128 C2135 1.409 . S
C2129 H2121 0.930 . S
C2129 C2127 1.419 . S
C2129 C2130 1.362 . S
C2130 H2122 0.930 . S
C2130 C2129 1.362 . S
C2130 C2133 1.409 . S
C2131 H2123 0.930 . S
C2131 C2132 1.355 . S
C2131 C2133 1.415 . S
C2132 C2131 1.355 . S
C2132 C2134 1.419 . S
C2133 C2128 1.425 . S
C2133 C2130 1.409 . S
C2133 C2131 1.415 . S
C2134 H2124 0.930 . S
C2134 C2132 1.419 . S
C2134 C2135 1.362 . S
C2135 H2125 0.930 . S
C2135 C2128 1.409 . S
C2135 C2134 1.362 . S
H2136 C2142 0.930 . S
H2137 C2145 0.930 . S
H2138 C2146 0.930 . S
H2139 C2147 0.930 . S
H2140 C2150 0.930 . S
H2141 C2151 0.930 . S
C2142 H2136 0.930 . S
C2142 C2143 1.355 . S
C2142 C2144 1.415 . S
C2143 C2142 1.355 . S
C2143 C2145 1.419 . S
C2144 C2142 1.415 . S
C2144 C2149 1.425 . S
C2144 C2151 1.409 . S
C2145 H2137 0.930 . S
C2145 C2143 1.419 . S
C2145 C2146 1.362 . S
C2146 H2138 0.930 . S
C2146 C2145 1.362 . S
C2146 C2149 1.409 . S
C2147 H2139 0.930 . S
C2147 C2148 1.355 . S
C2147 C2149 1.415 . S
C2148 C2147 1.355 . S
C2148 C2150 1.419 . S
C2149 C2144 1.425 . S
C2149 C2146 1.409 . S
C2149 C2147 1.415 . S
C2150 H2140 0.930 . S
C2150 C2148 1.419 . S
C2150 C2151 1.362 . S
C2151 H2141 0.930 . S
C2151 C2144 1.409 . S
C2151 C2150 1.362 . S
H2152 C2158 0.930 . S
H2153 C2161 0.930 . S
H2154 C2162 0.930 . S
H2155 C2163 0.930 . S
H2156 C2166 0.930 . S
H2157 C2167 0.930 . S
C2158 H2152 0.930 . S
C2158 C2159 1.355 . S
C2158 C2160 1.415 . S
C2159 C2158 1.355 . S
C2159 C2161 1.419 . S
C2160 C2158 1.415 . S
C2160 C2165 1.425 . S
C2160 C2167 1.409 . S
C2161 H2153 0.930 . S
C2161 C2159 1.419 . S
C2161 C2162 1.362 . S
C2162 H2154 0.930 . S
C2162 C2161 1.362 . S
C2162 C2165 1.409 . S
C2163 H2155 0.930 . S
C2163 C2164 1.355 . S
C2163 C2165 1.415 . S
C2164 C2163 1.355 . S
C2164 C2166 1.419 . S
C2165 C2160 1.425 . S
C2165 C2162 1.409 . S
C2165 C2163 1.415 . S
C2166 H2156 0.930 . S
C2166 C2164 1.419 . S
C2166 C2167 1.362 . S
C2167 H2157 0.930 . S
C2167 C2160 1.409 . S
C2167 C2166 1.362 . S
H2168 C2174 0.930 . S
H2169 C2177 0.930 . S
H2170 C2178 0.930 . S
H2171 C2179 0.930 . S
H2172 C2182 0.930 . S
H2173 C2183 0.930 . S
C2174 H2168 0.930 . S
C2174 C2175 1.355 . S
C2174 C2176 1.415 . S
C2175 C2174 1.355 . S
C2175 C2177 1.419 . S
C2176 C2174 1.415 . S
C2176 C2181 1.425 . S
C2176 C2183 1.409 . S
C2177 H2169 0.930 . S
C2177 C2175 1.419 . S
C2177 C2178 1.362 . S
C2178 H2170 0.930 . S
C2178 C2177 1.362 . S
C2178 C2181 1.409 . S
C2179 H2171 0.930 . S
C2179 C2180 1.355 . S
C2179 C2181 1.415 . S
C2180 C2179 1.355 . S
C2180 C2182 1.419 . S
C2181 C2176 1.425 . S
C2181 C2178 1.409 . S
C2181 C2179 1.415 . S
C2182 H2172 0.930 . S
C2182 C2180 1.419 . S
C2182 C2183 1.362 . S
C2183 H2173 0.930 . S
C2183 C2176 1.409 . S
C2183 C2182 1.362 . S
H2184 C2190 0.930 . S
H2185 C2193 0.930 . S
H2186 C2194 0.930 . S
H2187 C2195 0.930 . S
H2188 C2198 0.930 . S
H2189 C2199 0.930 . S
C2190 H2184 0.930 . S
C2190 C2191 1.355 . S
C2190 C2192 1.415 . S
C2191 C2190 1.355 . S
C2191 C2193 1.419 . S
C2192 C2190 1.415 . S
C2192 C2197 1.425 . S
C2192 C2199 1.409 . S
C2193 H2185 0.930 . S
C2193 C2191 1.419 . S
C2193 C2194 1.362 . S
C2194 H2186 0.930 . S
C2194 C2193 1.362 . S
C2194 C2197 1.409 . S
C2195 H2187 0.930 . S
C2195 C2196 1.355 . S
C2195 C2197 1.415 . S
C2196 C2195 1.355 . S
C2196 C2198 1.419 . S
C2197 C2192 1.425 . S
C2197 C2194 1.409 . S
C2197 C2195 1.415 . S
C2198 H2188 0.930 . S
C2198 C2196 1.419 . S
C2198 C2199 1.362 . S
C2199 H2189 0.930 . S
C2199 C2192 1.409 . S
C2199 C2198 1.362 . S
H2200 C2206 0.930 . S
H2201 C2209 0.930 . S
H2202 C2210 0.930 . S
H2203 C2211 0.930 . S
H2204 C2214 0.930 . S
H2205 C2215 0.930 . S
C2206 H2200 0.930 . S
C2206 C2207 1.355 . S
C2206 C2208 1.415 . S
C2207 C2206 1.355 . S
C2207 C2209 1.419 . S
C2208 C2206 1.415 . S
C2208 C2213 1.425 . S
C2208 C2215 1.409 . S
C2209 H2201 0.930 . S
C2209 C2207 1.419 . S
C2209 C2210 1.362 . S
C2210 H2202 0.930 . S
C2210 C2209 1.362 . S
C2210 C2213 1.409 . S
C2211 H2203 0.930 . S
C2211 C2212 1.355 . S
C2211 C2213 1.415 . S
C2212 C2211 1.355 . S
C2212 C2214 1.419 . S
C2213 C2208 1.425 . S
C2213 C2210 1.409 . S
C2213 C2211 1.415 . S
C2214 H2204 0.930 . S
C2214 C2212 1.419 . S
C2214 C2215 1.362 . S
C2215 H2205 0.930 . S
C2215 C2208 1.409 . S
C2215 C2214 1.362 . S
H2216 C2222 0.930 . S
H2217 C2225 0.930 . S
H2218 C2226 0.930 . S
H2219 C2227 0.930 . S
H2220 C2230 0.930 . S
H2221 C2231 0.930 . S
C2222 H2216 0.930 . S
C2222 C2223 1.355 . S
C2222 C2224 1.415 . S
C2223 C2222 1.355 . S
C2223 C2225 1.419 . S
C2224 C2222 1.415 . S
C2224 C2229 1.425 . S
C2224 C2231 1.409 . S
C2225 H2217 0.930 . S
C2225 C2223 1.419 . S
C2225 C2226 1.362 . S
C2226 H2218 0.930 . S
C2226 C2225 1.362 . S
C2226 C2229 1.409 . S
C2227 H2219 0.930 . S
C2227 C2228 1.355 . S
C2227 C2229 1.415 . S
C2228 C2227 1.355 . S
C2228 C2230 1.419 . S
C2229 C2224 1.425 . S
C2229 C2226 1.409 . S
C2229 C2227 1.415 . S
C2230 H2220 0.930 . S
C2230 C2228 1.419 . S
C2230 C2231 1.362 . S
C2231 H2221 0.930 . S
C2231 C2224 1.409 . S
C2231 C2230 1.362 . S
H2232 C2238 0.930 . S
H2233 C2241 0.930 . S
H2234 C2242 0.930 . S
H2235 C2243 0.930 . S
H2236 C2246 0.930 . S
H2237 C2247 0.930 . S
C2238 H2232 0.930 . S
C2238 C2239 1.355 . S
C2238 C2240 1.415 . S
C2239 C2238 1.355 . S
C2239 C2241 1.419 . S
C2240 C2238 1.415 . S
C2240 C2245 1.425 . S
C2240 C2247 1.409 . S
C2241 H2233 0.930 . S
C2241 C2239 1.419 . S
C2241 C2242 1.362 . S
C2242 H2234 0.930 . S
C2242 C2241 1.362 . S
C2242 C2245 1.409 . S
C2243 H2235 0.930 . S
C2243 C2244 1.355 . S
C2243 C2245 1.415 . S
C2244 C2243 1.355 . S
C2244 C2246 1.419 . S
C2245 C2240 1.425 . S
C2245 C2242 1.409 . S
C2245 C2243 1.415 . S
C2246 H2236 0.930 . S
C2246 C2244 1.419 . S
C2246 C2247 1.362 . S
C2247 H2237 0.930 . S
C2247 C2240 1.409 . S
C2247 C2246 1.362 . S
H2248 C2254 0.930 . S
H2249 C2257 0.930 . S
H2250 C2258 0.930 . S
H2251 C2259 0.930 . S
H2252 C2262 0.930 . S
H2253 C2263 0.930 . S
C2254 H2248 0.930 . S
C2254 C2255 1.355 . S
C2254 C2256 1.415 . S
C2255 C2254 1.355 . S
C2255 C2257 1.419 . S
C2256 C2254 1.415 . S
C2256 C2261 1.425 . S
C2256 C2263 1.409 . S
C2257 H2249 0.930 . S
C2257 C2255 1.419 . S
C2257 C2258 1.362 . S
C2258 H2250 0.930 . S
C2258 C2257 1.362 . S
C2258 C2261 1.409 . S
C2259 H2251 0.930 . S
C2259 C2260 1.355 . S
C2259 C2261 1.415 . S
C2260 C2259 1.355 . S
C2260 C2262 1.419 . S
C2261 C2256 1.425 . S
C2261 C2258 1.409 . S
C2261 C2259 1.415 . S
C2262 H2252 0.930 . S
C2262 C2260 1.419 . S
C2262 C2263 1.362 . S
C2263 H2253 0.930 . S
C2263 C2256 1.409 . S
C2263 C2262 1.362 . S
H2264 C2270 0.930 . S
H2265 C2273 0.930 . S
H2266 C2274 0.930 . S
H2267 C2275 0.930 . S
H2268 C2278 0.930 . S
H2269 C2279 0.930 . S
C2270 H2264 0.930 . S
C2270 C2271 1.355 . S
C2270 C2272 1.415 . S
C2271 C2270 1.355 . S
C2271 C2273 1.419 . S
C2272 C2270 1.415 . S
C2272 C2277 1.425 . S
C2272 C2279 1.409 . S
C2273 H2265 0.930 . S
C2273 C2271 1.419 . S
C2273 C2274 1.362 . S
C2274 H2266 0.930 . S
C2274 C2273 1.362 . S
C2274 C2277 1.409 . S
C2275 H2267 0.930 . S
C2275 C2276 1.355 . S
C2275 C2277 1.415 . S
C2276 C2275 1.355 . S
C2276 C2278 1.419 . S
C2277 C2272 1.425 . S
C2277 C2274 1.409 . S
C2277 C2275 1.415 . S
C2278 H2268 0.930 . S
C2278 C2276 1.419 . S
C2278 C2279 1.362 . S
C2279 H2269 0.930 . S
C2279 C2272 1.409 . S
C2279 C2278 1.362 . S
H2280 C2286 0.930 . S
H2281 C2289 0.930 . S
H2282 C2290 0.930 . S
H2283 C2291 0.930 . S
H2284 C2294 0.930 . S
H2285 C2295 0.930 . S
C2286 H2280 0.930 . S
C2286 C2287 1.355 . S
C2286 C2288 1.415 . S
C2287 C2286 1.355 . S
C2287 C2289 1.419 . S
C2288 C2286 1.415 . S
C2288 C2293 1.425 . S
C2288 C2295 1.409 . S
C2289 H2281 0.930 . S
C2289 C2287 1.419 . S
C2289 C2290 1.362 . S
C2290 H2282 0.930 . S
C2290 C2289 1.362 . S
C2290 C2293 1.409 . S
C2291 H2283 0.930 . S
C2291 C2292 1.355 . S
C2291 C2293 1.415 . S
C2292 C2291 1.355 . S
C2292 C2294 1.419 . S
C2293 C2288 1.425 . S
C2293 C2290 1.409 . S
C2293 C2291 1.415 . S
C2294 H2284 0.930 . S
C2294 C2292 1.419 . S
C2294 C2295 1.362 . S
C2295 H2285 0.930 . S
C2295 C2288 1.409 . S
C2295 C2294 1.362 . S
H2296 C2302 0.930 . S
H2297 C2305 0.930 . S
H2298 C2306 0.930 . S
H2299 C2307 0.930 . S
H2300 C2310 0.930 . S
H2301 C2311 0.930 . S
C2302 H2296 0.930 . S
C2302 C2303 1.355 . S
C2302 C2304 1.415 . S
C2303 C2302 1.355 . S
C2303 C2305 1.419 . S
C2304 C2302 1.415 . S
C2304 C2309 1.425 . S
C2304 C2311 1.409 . S
C2305 H2297 0.930 . S
C2305 C2303 1.419 . S
C2305 C2306 1.362 . S
C2306 H2298 0.930 . S
C2306 C2305 1.362 . S
C2306 C2309 1.409 . S
C2307 H2299 0.930 . S
C2307 C2308 1.355 . S
C2307 C2309 1.415 . S
C2308 C2307 1.355 . S
C2308 C2310 1.419 . S
C2309 C2304 1.425 . S
C2309 C2306 1.409 . S
C2309 C2307 1.415 . S
C2310 H2300 0.930 . S
C2310 C2308 1.419 . S
C2310 C2311 1.362 . S
C2311 H2301 0.930 . S
C2311 C2304 1.409 . S
C2311 C2310 1.362 . S
H2312 C2318 0.930 . S
H2313 C2321 0.930 . S
H2314 C2322 0.930 . S
H2315 C2323 0.930 . S
H2316 C2326 0.930 . S
H2317 C2327 0.930 . S
C2318 H2312 0.930 . S
C2318 C2319 1.355 . S
C2318 C2320 1.415 . S
C2319 C2318 1.355 . S
C2319 C2321 1.419 . S
C2320 C2318 1.415 . S
C2320 C2325 1.425 . S
C2320 C2327 1.409 . S
C2321 H2313 0.930 . S
C2321 C2319 1.419 . S
C2321 C2322 1.362 . S
C2322 H2314 0.930 . S
C2322 C2321 1.362 . S
C2322 C2325 1.409 . S
C2323 H2315 0.930 . S
C2323 C2324 1.355 . S
C2323 C2325 1.415 . S
C2324 C2323 1.355 . S
C2324 C2326 1.419 . S
C2325 C2320 1.425 . S
C2325 C2322 1.409 . S
C2325 C2323 1.415 . S
C2326 H2316 0.930 . S
C2326 C2324 1.419 . S
C2326 C2327 1.362 . S
C2327 H2317 0.930 . S
C2327 C2320 1.409 . S
C2327 C2326 1.362 . S
H2328 C2334 0.930 . S
H2329 C2337 0.930 . S
H2330 C2338 0.930 . S
H2331 C2339 0.930 . S
H2332 C2342 0.930 . S
H2333 C2343 0.930 . S
C2334 H2328 0.930 . S
C2334 C2335 1.355 . S
C2334 C2336 1.415 . S
C2335 C2334 1.355 . S
C2335 C2337 1.419 . S
C2336 C2334 1.415 . S
C2336 C2341 1.425 . S
C2336 C2343 1.409 . S
C2337 H2329 0.930 . S
C2337 C2335 1.419 . S
C2337 C2338 1.362 . S
C2338 H2330 0.930 . S
C2338 C2337 1.362 . S
C2338 C2341 1.409 . S
C2339 H2331 0.930 . S
C2339 C2340 1.355 . S
C2339 C2341 1.415 . S
C2340 C2339 1.355 . S
C2340 C2342 1.419 . S
C2341 C2336 1.425 . S
C2341 C2338 1.409 . S
C2341 C2339 1.415 . S
C2342 H2332 0.930 . S
C2342 C2340 1.419 . S
C2342 C2343 1.362 . S
C2343 H2333 0.930 . S
C2343 C2336 1.409 . S
C2343 C2342 1.362 . S
H2344 C2350 0.930 . S
H2345 C2353 0.930 . S
H2346 C2354 0.930 . S
H2347 C2355 0.930 . S
H2348 C2358 0.930 . S
H2349 C2359 0.930 . S
C2350 H2344 0.930 . S
C2350 C2351 1.355 . S
C2350 C2352 1.415 . S
C2351 C2350 1.355 . S
C2351 C2353 1.419 . S
C2352 C2350 1.415 . S
C2352 C2357 1.425 . S
C2352 C2359 1.409 . S
C2353 H2345 0.930 . S
C2353 C2351 1.419 . S
C2353 C2354 1.362 . S
C2354 H2346 0.930 . S
C2354 C2353 1.362 . S
C2354 C2357 1.409 . S
C2355 H2347 0.930 . S
C2355 C2356 1.355 . S
C2355 C2357 1.415 . S
C2356 C2355 1.355 . S
C2356 C2358 1.419 . S
C2357 C2352 1.425 . S
C2357 C2354 1.409 . S
C2357 C2355 1.415 . S
C2358 H2348 0.930 . S
C2358 C2356 1.419 . S
C2358 C2359 1.362 . S
C2359 H2349 0.930 . S
C2359 C2352 1.409 . S
C2359 C2358 1.362 . S
H2360 C2366 0.930 . S
H2361 C2369 0.930 . S
H2362 C2370 0.930 . S
H2363 C2371 0.930 . S
H2364 C2374 0.930 . S
H2365 C2375 0.930 . S
C2366 H2360 0.930 . S
C2366 C2367 1.355 . S
C2366 C2368 1.415 . S
C2367 C2366 1.355 . S
C2367 C2369 1.419 . S
C2368 C2366 1.415 . S
C2368 C2373 1.425 . S
C2368 C2375 1.409 . S
C2369 H2361 0.930 . S
C2369 C2367 1.419 . S
C2369 C2370 1.362 . S
C2370 H2362 0.930 . S
C2370 C2369 1.362 . S
C2370 C2373 1.409 . S
C2371 H2363 0.930 . S
C2371 C2372 1.355 . S
C2371 C2373 1.415 . S
C2372 C2371 1.355 . S
C2372 C2374 1.419 . S
C2373 C2368 1.425 . S
C2373 C2370 1.409 . S
C2373 C2371 1.415 . S
C2374 H2364 0.930 . S
C2374 C2372 1.419 . S
C2374 C2375 1.362 . S
C2375 H2365 0.930 . S
C2375 C2368 1.409 . S
C2375 C2374 1.362 . S
H2376 C2382 0.930 . S
H2377 C2385 0.930 . S
H2378 C2386 0.930 . S
H2379 C2387 0.930 . S
H2380 C2390 0.930 . S
H2381 C2391 0.930 . S
C2382 H2376 0.930 . S
C2382 C2383 1.355 . S
C2382 C2384 1.415 . S
C2383 C2382 1.355 . S
C2383 C2385 1.419 . S
C2384 C2382 1.415 . S
C2384 C2389 1.425 . S
C2384 C2391 1.409 . S
C2385 H2377 0.930 . S
C2385 C2383 1.419 . S
C2385 C2386 1.362 . S
C2386 H2378 0.930 . S
C2386 C2385 1.362 . S
C2386 C2389 1.409 . S
C2387 H2379 0.930 . S
C2387 C2388 1.355 . S
C2387 C2389 1.415 . S
C2388 C2387 1.355 . S
C2388 C2390 1.419 . S
C2389 C2384 1.425 . S
C2389 C2386 1.409 . S
C2389 C2387 1.415 . S
C2390 H2380 0.930 . S
C2390 C2388 1.419 . S
C2390 C2391 1.362 . S
C2391 H2381 0.930 . S
C2391 C2384 1.409 . S
C2391 C2390 1.362 . S
H2392 C2398 0.930 . S
H2393 C2401 0.935 . S
H2394 C2402 0.930 . S
H2395 C2403 0.930 . S
H2396 C2406 0.935 . S
H2397 C2407 0.955 . S
C2398 H2392 0.930 . S
C2398 C2399 1.355 . S
C2398 C2400 1.417 . S
C2399 C2398 1.355 . S
C2399 C2401 1.423 . S
C2400 C2398 1.417 . S
C2400 C2405 1.395 1_545 S
C2400 C2407 1.399 . S
C2401 H2393 0.935 . S
C2401 C2399 1.423 . S
C2401 C2402 1.361 1_545 S
C2402 H2394 0.930 . S
C2402 C2401 1.361 1_565 S
C2402 C2405 1.426 . S
C2403 H2395 0.930 . S
C2403 C2404 1.355 . S
C2403 C2405 1.420 . S
C2404 C2403 1.355 . S
C2404 C2406 1.435 . S
C2405 C2400 1.395 1_565 S
C2405 C2402 1.426 . S
C2405 C2403 1.420 . S
C2406 H2396 0.935 . S
C2406 C2404 1.435 . S
C2406 C2407 1.354 1_565 S
C2407 H2397 0.955 . S
C2407 C2400 1.399 . S
C2407 C2406 1.354 1_545 S
H2408 C2414 0.930 . S
H2409 C2417 0.930 . S
H2410 C2418 0.930 . S
H2411 C2419 0.930 . S
H2412 C2422 0.930 . S
H2413 C2423 0.930 . S
C2414 H2408 0.930 . S
C2414 C2415 1.355 1_655 S
C2414 C2416 1.415 . S
C2415 C2414 1.355 1_455 S
C2415 C2417 1.419 . S
C2416 C2414 1.415 . S
C2416 C2421 1.425 1_655 S
C2416 C2423 1.409 . S
C2417 H2409 0.930 . S
C2417 C2415 1.419 . S
C2417 C2418 1.362 . S
C2418 H2410 0.930 . S
C2418 C2417 1.362 . S
C2418 C2421 1.409 . S
C2419 H2411 0.930 . S
C2419 C2420 1.355 1_455 S
C2419 C2421 1.415 . S
C2420 C2419 1.355 1_655 S
C2420 C2422 1.419 . S
C2421 C2416 1.425 1_455 S
C2421 C2418 1.409 . S
C2421 C2419 1.415 . S
C2422 H2412 0.930 . S
C2422 C2420 1.419 . S
C2422 C2423 1.362 . S
C2423 H2413 0.930 . S
C2423 C2416 1.409 . S
C2423 C2422 1.362 . S
H2424 C2430 0.930 . S
H2425 C2433 0.930 . S
H2426 C2434 0.930 . S
H2427 C2435 0.930 . S
H2428 C2438 0.930 . S
H2429 C2439 0.930 . S
C2430 H2424 0.930 . S
C2430 C2431 1.355 . S
C2430 C2432 1.415 . S
C2431 C2430 1.355 . S
C2431 C2433 1.419 . S
C2432 C2430 1.415 . S
C2432 C2437 1.425 . S
C2432 C2439 1.409 . S
C2433 H2425 0.930 . S
C2433 C2431 1.419 . S
C2433 C2434 1.362 . S
C2434 H2426 0.930 . S
C2434 C2433 1.362 . S
C2434 C2437 1.409 . S
C2435 H2427 0.930 . S
C2435 C2436 1.355 . S
C2435 C2437 1.415 . S
C2436 C2435 1.355 . S
C2436 C2438 1.419 . S
C2437 C2432 1.425 . S
C2437 C2434 1.409 . S
C2437 C2435 1.415 . S
C2438 H2428 0.930 . S
C2438 C2436 1.419 . S
C2438 C2439 1.362 . S
C2439 H2429 0.930 . S
C2439 C2432 1.409 . S
C2439 C2438 1.362 . S
H2440 C2446 0.930 . S
H2441 C2449 0.930 . S
H2442 C2450 0.936 . S
H2443 C2451 0.930 . S
H2444 C2454 0.930 . S
H2445 C2455 0.936 . S
C2446 H2440 0.930 . S
C2446 C2447 1.355 . S
C2446 C2448 1.415 . S
C2447 C2446 1.355 . S
C2447 C2449 1.419 . S
C2448 C2446 1.415 . S
C2448 C2453 1.450 1_545 S
C2448 C2455 1.383 1_545 S
C2449 H2441 0.930 . S
C2449 C2447 1.419 . S
C2449 C2450 1.361 . S
C2450 H2442 0.936 . S
C2450 C2449 1.361 . S
C2450 C2453 1.383 1_545 S
C2451 H2443 0.930 . S
C2451 C2452 1.355 . S
C2451 C2453 1.415 . S
C2452 C2451 1.355 . S
C2452 C2454 1.419 . S
C2453 C2448 1.450 1_565 S
C2453 C2450 1.383 1_565 S
C2453 C2451 1.415 . S
C2454 H2444 0.930 . S
C2454 C2452 1.419 . S
C2454 C2455 1.361 . S
C2455 H2445 0.936 . S
C2455 C2448 1.383 1_565 S
C2455 C2454 1.361 . S
H2456 C2462 0.930 . S
H2457 C2465 0.930 . S
H2458 C2466 0.930 . S
H2459 C2467 0.930 . S
H2460 C2470 0.930 . S
H2461 C2471 0.930 . S
C2462 H2456 0.930 . S
C2462 C2463 1.355 . S
C2462 C2464 1.415 1_455 S
C2463 C2462 1.355 . S
C2463 C2465 1.419 . S
C2464 C2462 1.415 1_655 S
C2464 C2469 1.406 1_655 S
C2464 C2471 1.409 . S
C2465 H2457 0.930 . S
C2465 C2463 1.419 . S
C2465 C2466 1.362 . S
C2466 H2458 0.930 . S
C2466 C2465 1.362 . S
C2466 C2469 1.428 . S
C2467 H2459 0.930 . S
C2467 C2468 1.355 . S
C2467 C2469 1.416 1_655 S
C2468 C2467 1.355 . S
C2468 C2470 1.419 . S
C2469 C2464 1.406 1_455 S
C2469 C2466 1.428 . S
C2469 C2467 1.416 1_455 S
C2470 H2460 0.930 . S
C2470 C2468 1.419 . S
C2470 C2471 1.362 . S
C2471 H2461 0.930 . S
C2471 C2464 1.409 . S
C2471 C2470 1.362 . S
H2472 C2478 0.930 . S
H2473 C2481 0.930 . S
H2474 C2482 0.930 . S
H2475 C2483 0.930 . S
H2476 C2486 0.930 . S
H2477 C2487 0.930 . S
C2478 H2472 0.930 . S
C2478 C2479 1.355 . S
C2478 C2480 1.415 . S
C2479 C2478 1.355 . S
C2479 C2481 1.419 . S
C2480 C2478 1.415 . S
C2480 C2485 1.425 . S
C2480 C2487 1.409 . S
C2481 H2473 0.930 . S
C2481 C2479 1.419 . S
C2481 C2482 1.362 . S
C2482 H2474 0.930 . S
C2482 C2481 1.362 . S
C2482 C2485 1.409 . S
C2483 H2475 0.930 . S
C2483 C2484 1.355 . S
C2483 C2485 1.415 . S
C2484 C2483 1.355 . S
C2484 C2486 1.419 . S
C2485 C2480 1.425 . S
C2485 C2482 1.409 . S
C2485 C2483 1.415 . S
C2486 H2476 0.930 . S
C2486 C2484 1.419 . S
C2486 C2487 1.362 . S
C2487 H2477 0.930 . S
C2487 C2480 1.409 . S
C2487 C2486 1.362 . S
H2488 C2494 0.930 . S
H2489 C2497 0.930 . S
H2490 C2498 0.930 . S
H2491 C2499 0.930 . S
H2492 C2502 0.930 . S
H2493 C2503 0.930 . S
C2494 H2488 0.930 . S
C2494 C2495 1.355 . S
C2494 C2496 1.415 . S
C2495 C2494 1.355 . S
C2495 C2497 1.419 . S
C2496 C2494 1.415 . S
C2496 C2501 1.425 . S
C2496 C2503 1.409 . S
C2497 H2489 0.930 . S
C2497 C2495 1.419 . S
C2497 C2498 1.362 . S
C2498 H2490 0.930 . S
C2498 C2497 1.362 . S
C2498 C2501 1.409 . S
C2499 H2491 0.930 . S
C2499 C2500 1.355 . S
C2499 C2501 1.415 . S
C2500 C2499 1.355 . S
C2500 C2502 1.419 . S
C2501 C2496 1.425 . S
C2501 C2498 1.409 . S
C2501 C2499 1.415 . S
C2502 H2492 0.930 . S
C2502 C2500 1.419 . S
C2502 C2503 1.362 . S
C2503 H2493 0.930 . S
C2503 C2496 1.409 . S
C2503 C2502 1.362 . S
H2504 C2510 0.930 . S
H2505 C2513 0.930 . S
H2506 C2514 0.930 . S
H2507 C2515 0.930 . S
H2508 C2518 0.930 . S
H2509 C2519 0.930 . S
C2510 H2504 0.930 . S
C2510 C2511 1.355 . S
C2510 C2512 1.415 . S
C2511 C2510 1.355 . S
C2511 C2513 1.419 . S
C2512 C2510 1.415 . S
C2512 C2517 1.425 . S
C2512 C2519 1.409 . S
C2513 H2505 0.930 . S
C2513 C2511 1.419 . S
C2513 C2514 1.362 . S
C2514 H2506 0.930 . S
C2514 C2513 1.362 . S
C2514 C2517 1.409 . S
C2515 H2507 0.930 . S
C2515 C2516 1.355 . S
C2515 C2517 1.415 . S
C2516 C2515 1.355 . S
C2516 C2518 1.419 . S
C2517 C2512 1.425 . S
C2517 C2514 1.409 . S
C2517 C2515 1.415 . S
C2518 H2508 0.930 . S
C2518 C2516 1.419 . S
C2518 C2519 1.362 . S
C2519 H2509 0.930 . S
C2519 C2512 1.409 . S
C2519 C2518 1.362 . S
H2520 C2526 0.930 . S
H2521 C2529 0.930 . S
H2522 C2530 0.930 . S
H2523 C2531 0.930 . S
H2524 C2534 0.930 . S
H2525 C2535 0.930 . S
C2526 H2520 0.930 . S
C2526 C2527 1.355 . S
C2526 C2528 1.415 . S
C2527 C2526 1.355 . S
C2527 C2529 1.419 . S
C2528 C2526 1.415 . S
C2528 C2533 1.425 . S
C2528 C2535 1.409 . S
C2529 H2521 0.930 . S
C2529 C2527 1.419 . S
C2529 C2530 1.362 . S
C2530 H2522 0.930 . S
C2530 C2529 1.362 . S
C2530 C2533 1.409 . S
C2531 H2523 0.930 . S
C2531 C2532 1.355 . S
C2531 C2533 1.415 . S
C2532 C2531 1.355 . S
C2532 C2534 1.419 . S
C2533 C2528 1.425 . S
C2533 C2530 1.409 . S
C2533 C2531 1.415 . S
C2534 H2524 0.930 . S
C2534 C2532 1.419 . S
C2534 C2535 1.362 . S
C2535 H2525 0.930 . S
C2535 C2528 1.409 . S
C2535 C2534 1.362 . S
H2536 C2542 0.930 . S
H2537 C2545 0.930 . S
H2538 C2546 0.930 . S
H2539 C2547 0.930 . S
H2540 C2550 0.930 . S
H2541 C2551 0.930 . S
C2542 H2536 0.930 . S
C2542 C2543 1.355 . S
C2542 C2544 1.415 . S
C2543 C2542 1.355 . S
C2543 C2545 1.419 . S
C2544 C2542 1.415 . S
C2544 C2549 1.425 . S
C2544 C2551 1.409 . S
C2545 H2537 0.930 . S
C2545 C2543 1.419 . S
C2545 C2546 1.362 . S
C2546 H2538 0.930 . S
C2546 C2545 1.362 . S
C2546 C2549 1.409 . S
C2547 H2539 0.930 . S
C2547 C2548 1.355 . S
C2547 C2549 1.415 . S
C2548 C2547 1.355 . S
C2548 C2550 1.419 . S
C2549 C2544 1.425 . S
C2549 C2546 1.409 . S
C2549 C2547 1.415 . S
C2550 H2540 0.930 . S
C2550 C2548 1.419 . S
C2550 C2551 1.362 . S
C2551 H2541 0.930 . S
C2551 C2544 1.409 . S
C2551 C2550 1.362 . S
H2552 C2558 0.930 . S
H2553 C2561 0.930 . S
H2554 C2562 0.930 . S
H2555 C2563 0.930 . S
H2556 C2566 0.930 . S
H2557 C2567 0.930 . S
C2558 H2552 0.930 . S
C2558 C2559 1.355 . S
C2558 C2560 1.415 . S
C2559 C2558 1.355 . S
C2559 C2561 1.419 . S
C2560 C2558 1.415 . S
C2560 C2565 1.425 . S
C2560 C2567 1.409 . S
C2561 H2553 0.930 . S
C2561 C2559 1.419 . S
C2561 C2562 1.362 . S
C2562 H2554 0.930 . S
C2562 C2561 1.362 . S
C2562 C2565 1.409 . S
C2563 H2555 0.930 . S
C2563 C2564 1.355 . S
C2563 C2565 1.415 . S
C2564 C2563 1.355 . S
C2564 C2566 1.419 . S
C2565 C2560 1.425 . S
C2565 C2562 1.409 . S
C2565 C2563 1.415 . S
C2566 H2556 0.930 . S
C2566 C2564 1.419 . S
C2566 C2567 1.362 . S
C2567 H2557 0.930 . S
C2567 C2560 1.409 . S
C2567 C2566 1.362 . S
H2568 C2574 0.930 . S
H2569 C2577 0.930 . S
H2570 C2578 0.930 . S
H2571 C2579 0.930 . S
H2572 C2582 0.930 . S
H2573 C2583 0.930 . S
C2574 H2568 0.930 . S
C2574 C2575 1.355 . S
C2574 C2576 1.415 . S
C2575 C2574 1.355 . S
C2575 C2577 1.419 . S
C2576 C2574 1.415 . S
C2576 C2581 1.425 . S
C2576 C2583 1.409 . S
C2577 H2569 0.930 . S
C2577 C2575 1.419 . S
C2577 C2578 1.362 . S
C2578 H2570 0.930 . S
C2578 C2577 1.362 . S
C2578 C2581 1.409 . S
C2579 H2571 0.930 . S
C2579 C2580 1.355 . S
C2579 C2581 1.415 . S
C2580 C2579 1.355 . S
C2580 C2582 1.419 . S
C2581 C2576 1.425 . S
C2581 C2578 1.409 . S
C2581 C2579 1.415 . S
C2582 H2572 0.930 . S
C2582 C2580 1.419 . S
C2582 C2583 1.362 . S
C2583 H2573 0.930 . S
C2583 C2576 1.409 . S
C2583 C2582 1.362 . S
H2584 C2590 0.930 . S
H2585 C2593 0.930 . S
H2586 C2594 0.930 . S
H2587 C2595 0.930 . S
H2588 C2598 0.930 . S
H2589 C2599 0.930 . S
C2590 H2584 0.930 . S
C2590 C2591 1.355 . S
C2590 C2592 1.415 . S
C2591 C2590 1.355 . S
C2591 C2593 1.419 . S
C2592 C2590 1.415 . S
C2592 C2597 1.425 . S
C2592 C2599 1.409 . S
C2593 H2585 0.930 . S
C2593 C2591 1.419 . S
C2593 C2594 1.362 . S
C2594 H2586 0.930 . S
C2594 C2593 1.362 . S
C2594 C2597 1.409 . S
C2595 H2587 0.930 . S
C2595 C2596 1.355 . S
C2595 C2597 1.415 . S
C2596 C2595 1.355 . S
C2596 C2598 1.419 . S
C2597 C2592 1.425 . S
C2597 C2594 1.409 . S
C2597 C2595 1.415 . S
C2598 H2588 0.930 . S
C2598 C2596 1.419 . S
C2598 C2599 1.362 . S
C2599 H2589 0.930 . S
C2599 C2592 1.409 . S
C2599 C2598 1.362 . S
H2600 C2606 0.930 . S
H2601 C2609 0.930 . S
H2602 C2610 0.930 . S
H2603 C2611 0.930 . S
H2604 C2614 0.930 . S
H2605 C2615 0.930 . S
C2606 H2600 0.930 . S
C2606 C2607 1.355 . S
C2606 C2608 1.415 . S
C2607 C2606 1.355 . S
C2607 C2609 1.419 . S
C2608 C2606 1.415 . S
C2608 C2613 1.425 . S
C2608 C2615 1.409 . S
C2609 H2601 0.930 . S
C2609 C2607 1.419 . S
C2609 C2610 1.362 . S
C2610 H2602 0.930 . S
C2610 C2609 1.362 . S
C2610 C2613 1.409 . S
C2611 H2603 0.930 . S
C2611 C2612 1.355 . S
C2611 C2613 1.415 . S
C2612 C2611 1.355 . S
C2612 C2614 1.419 . S
C2613 C2608 1.425 . S
C2613 C2610 1.409 . S
C2613 C2611 1.415 . S
C2614 H2604 0.930 . S
C2614 C2612 1.419 . S
C2614 C2615 1.362 . S
C2615 H2605 0.930 . S
C2615 C2608 1.409 . S
C2615 C2614 1.362 . S
H2616 C2622 0.930 . S
H2617 C2625 0.930 . S
H2618 C2626 0.930 . S
H2619 C2627 0.930 . S
H2620 C2630 0.930 1_554 S
H2621 C2631 0.930 . S
C2622 H2616 0.930 . S
C2622 C2623 1.355 . S
C2622 C2624 1.415 . S
C2623 C2622 1.355 . S
C2623 C2625 1.419 . S
C2624 C2622 1.415 . S
C2624 C2629 1.425 . S
C2624 C2631 1.409 . S
C2625 H2617 0.930 . S
C2625 C2623 1.419 . S
C2625 C2626 1.362 . S
C2626 H2618 0.930 . S
C2626 C2625 1.362 . S
C2626 C2629 1.409 . S
C2627 H2619 0.930 . S
C2627 C2628 1.355 1_556 S
C2627 C2629 1.415 . S
C2628 C2627 1.355 1_554 S
C2628 C2630 1.419 1_554 S
C2629 C2624 1.425 . S
C2629 C2626 1.409 . S
C2629 C2627 1.415 . S
C2630 H2620 0.930 1_556 S
C2630 C2628 1.419 1_556 S
C2630 C2631 1.362 . S
C2631 H2621 0.930 . S
C2631 C2624 1.409 . S
C2631 C2630 1.362 . S
H2632 C2638 0.930 . S
H2633 C2641 0.930 . S
H2634 C2642 0.930 . S
H2635 C2643 0.930 . S
H2636 C2646 0.934 . S
H2637 C2647 0.930 . S
C2638 H2632 0.930 . S
C2638 C2639 1.355 . S
C2638 C2640 1.415 . S
C2639 C2638 1.355 . S
C2639 C2641 1.419 . S
C2640 C2638 1.415 . S
C2640 C2645 1.425 . S
C2640 C2647 1.409 . S
C2641 H2633 0.930 . S
C2641 C2639 1.419 . S
C2641 C2642 1.362 . S
C2642 H2634 0.930 . S
C2642 C2641 1.362 . S
C2642 C2645 1.409 . S
C2643 H2635 0.930 . S
C2643 C2644 1.355 1_556 S
C2643 C2645 1.415 . S
C2644 C2643 1.355 1_554 S
C2644 C2646 1.421 . S
C2645 C2640 1.425 . S
C2645 C2642 1.409 . S
C2645 C2643 1.415 . S
C2646 H2636 0.934 . S
C2646 C2644 1.421 . S
C2646 C2647 1.357 1_554 S
C2647 H2637 0.930 . S
C2647 C2640 1.409 . S
C2647 C2646 1.357 1_556 S
H2648 C2654 0.930 . S
H2649 C2657 0.930 . S
H2650 C2658 0.930 . S
H2651 C2659 0.930 . S
H2652 C2662 0.930 1_554 S
H2653 C2663 0.930 . S
C2654 H2648 0.930 . S
C2654 C2655 1.355 . S
C2654 C2656 1.415 . S
C2655 C2654 1.355 . S
C2655 C2657 1.419 . S
C2656 C2654 1.415 . S
C2656 C2661 1.425 . S
C2656 C2663 1.409 . S
C2657 H2649 0.930 . S
C2657 C2655 1.419 . S
C2657 C2658 1.362 . S
C2658 H2650 0.930 . S
C2658 C2657 1.362 . S
C2658 C2661 1.409 . S
C2659 H2651 0.930 . S
C2659 C2660 1.355 1_556 S
C2659 C2661 1.415 . S
C2660 C2659 1.355 1_554 S
C2660 C2662 1.419 1_554 S
C2661 C2656 1.425 . S
C2661 C2658 1.409 . S
C2661 C2659 1.415 . S
C2662 H2652 0.930 1_556 S
C2662 C2660 1.419 1_556 S
C2662 C2663 1.362 . S
C2663 H2653 0.930 . S
C2663 C2656 1.409 . S
C2663 C2662 1.362 . S
C1231 C546 1.639 . S
C1236 C2 1.631 . S
C1247 C580 1.598 . S
C1252 C36 1.605 . S
C1263 C512 1.656 . S
C1268 C70 1.654 . S
C1279 C104 1.602 . S
C1284 C886 1.596 . S
C1295 C818 1.614 . S
C1300 C138 1.623 . S
C1311 C852 1.627 . S
C1316 C172 1.619 . S
C1327 C206 1.593 . S
C1332 C1158 1.592 . S
C1343 C1192 1.651 . S
C1348 C240 1.655 . S
C1359 C274 1.594 . S
C1364 C1124 1.592 . S
C1375 C682 1.644 . S
C1380 C308 1.650 . S
C1391 C342 1.647 . S
C1396 C614 1.652 . S
C1407 C648 1.656 . S
C1412 C376 1.653 . S
C1423 C410 1.653 . S
C1428 C954 1.656 . S
C1439 C988 1.621 . S
C1444 C444 1.630 . S
C1455 C920 1.653 . S
C1460 C478 1.656 . S
C1471 C1090 1.598 . S
C1476 C716 1.604 . S
C1487 C750 1.592 . S
C1492 C1022 1.594 . S
C1503 C1056 1.601 . S
C1508 C784 1.608 . S
C1519 C111 1.313 . S
C1524 C9 1.229 . S
C1535 C145 1.316 . S
C1540 C43 1.229 . S
C1551 C77 1.344 . S
C1556 C179 1.246 . S
C1567 C315 1.245 . S
C1572 C213 1.339 . S
C1583 C247 1.287 . S
C1588 C349 1.240 . S
C1599 C383 1.239 . S
C1604 C281 1.288 . S
C1615 C417 1.267 . S
C1620 C519 1.255 . S
C1631 C451 1.326 . S
C1636 C553 1.230 . S
C1647 C587 1.229 . S
C1652 C485 1.314 . S
C1663 C723 1.230 1_554 S
C1668 C621 1.339 . S
C1679 C757 1.252 1_554 S
C1684 C655 1.257 . S
C1695 C791 1.326 1_554 S
C1700 C689 1.242 . S
C1711 C825 1.330 . S
C1716 C927 1.282 . S
C1727 C961 1.329 . S
C1732 C859 1.283 . S
C1743 C893 1.275 . S
C1748 C995 1.333 . S
C1759 C1029 1.326 . S
C1764 C1131 1.289 . S
C1775 C1063 1.284 . S
C1780 C1165 1.329 . S
C1791 C1199 1.230 . S
C1796 C1097 1.311 . S
C1807 C33 1.537 . S
C1812 C258 1.537 . S
C1823 C292 1.534 . S
C1828 C67 1.540 . S
C1839 C224 1.535 . S
C1844 C101 1.539 . S
C1855 C135 1.539 . S
C1860 C394 1.536 . S
C1871 C326 1.531 . S
C1876 C169 1.515 . S
C1887 C360 1.529 . S
C1892 C203 1.535 . S
C1903 C237 1.531 . S
C1908 C54 1.539 . S
C1919 C88 1.540 . S
C1924 C271 1.520 . S
C1935 C20 1.530 . S
C1940 C305 1.520 . S
C1951 C190 1.530 . S
C1956 C339 1.519 . S
C1967 C122 1.539 . S
C1972 C373 1.517 . S
C1983 C407 1.539 . S
C1988 C156 1.535 . S
C1999 C441 1.510 . S
C2004 C666 1.537 . S
C2015 C475 1.536 . S
C2020 C700 1.537 . S
C2031 C509 1.518 . S
C2036 C632 1.531 . S
C2047 C802 1.537 . S
C2052 C543 1.510 . S
C2063 C577 1.537 . S
C2068 C734 1.530 . S
C2079 C611 1.510 . S
C2084 C768 1.536 . S
C2095 C645 1.517 . S
C2100 C462 1.531 . S
C2111 C496 1.540 . S
C2116 C679 1.518 . S
C2127 C713 1.513 . S
C2132 C428 1.532 . S
C2143 C747 1.540 . S
C2148 C598 1.535 . S
C2159 C781 1.512 . S
C2164 C530 1.533 . S
C2175 C815 1.535 . S
C2180 C564 1.538 . S
C2191 C849 1.519 . S
C2196 C1074 1.540 . S
C2207 C1108 1.539 . S
C2212 C883 1.529 . S
C2223 C917 1.524 . S
C2228 C1040 1.540 . S
C2239 C951 1.527 . S
C2244 C1210 1.539 . S
C2255 C985 1.521 . S
C2260 C1142 1.540 . S
C2271 C1019 1.510 . S
C2276 C1176 1.534 . S
C2287 C870 1.529 . S
C2292 C1053 1.535 . S
C2303 C904 1.539 . S
C2308 C1087 1.513 . S
C2319 C836 1.529 . S
C2324 C1121 1.524 . S
C2335 C1006 1.539 . S
C2340 C1155 1.532 . S
C2351 C1189 1.514 . S
C2356 C938 1.532 . S
C2367 C1223 1.538 . S
C2372 C972 1.536 . S
C2383 C107 1.238 . S
C2388 C5 1.197 . S
C2399 C39 1.232 . S
C2404 C141 1.192 . S
C2415 C175 1.239 . S
C2420 C73 1.201 . S
C2431 C311 1.225 . S
C2436 C209 1.193 . S
C2447 C345 1.238 . S
C2452 C243 1.198 . S
C2463 C277 1.239 . S
C2468 C379 1.199 . S
C2479 C515 1.232 1_554 S
C2484 C413 1.192 . S
C2495 C447 1.212 . S
C2500 C549 1.201 1_554 S
C2511 C583 1.215 1_554 S
C2516 C481 1.233 . S
C2527 C719 1.204 . S
C2532 C617 1.209 . S
C2543 C753 1.218 . S
C2548 C651 1.231 . S
C2559 C685 1.216 . S
C2564 C787 1.198 . S
C2575 C923 1.235 . S
C2580 C821 1.193 . S
C2591 C855 1.215 . S
C2596 C957 1.199 . S
C2607 C991 1.228 . S
C2612 C889 1.222 . S
C2623 C1025 1.221 . S
C2628 C1127 1.228 . S
C2639 C1059 1.231 . S
C2644 C1161 1.192 . S
C2655 C1093 1.236 . S
C2660 C1195 1.210 . S
