# Generated by pormake.
# Topology wkt, (7)-cn, num edge types: 1
# Building blocks:
#     Node 0, Type 0, BuildingBlock: NUHQUE_clean_sbu_2, # of connection points: 7
#     Node 1, Type 0, BuildingBlock: NUHQUE_clean_sbu_2, # of connection points: 7
#     Node 2, Type 0, BuildingBlock: NUHQUE_clean_sbu_2, # of connection points: 7
#     Node 3, Type 0, BuildingBlock: NUHQUE_clean_sbu_2, # of connection points: 7
#     Node 4, Type 0, BuildingBlock: NUHQUE_clean_sbu_2, # of connection points: 7
#     Node 5, Type 0, BuildingBlock: NUHQUE_clean_sbu_2, # of connection points: 7
#     Node 6, Type 0, BuildingBlock: NUHQUE_clean_sbu_2, # of connection points: 7
#     Node 7, Type 0, BuildingBlock: NUHQUE_clean_sbu_2, # of connection points: 7
#     Node 8, Type 0, BuildingBlock: NUHQUE_clean_sbu_2, # of connection points: 7
#     Node 9, Type 0, BuildingBlock: NUHQUE_clean_sbu_2, # of connection points: 7
#     Node 10, Type 0, BuildingBlock: NUHQUE_clean_sbu_2, # of connection points: 7
#     Node 11, Type 0, BuildingBlock: NUHQUE_clean_sbu_2, # of connection points: 7
#     Edge 12, Type (0, 0), None
#     Edge 13, Type (0, 0), None
#     Edge 14, Type (0, 0), None
#     Edge 15, Type (0, 0), None
#     Edge 16, Type (0, 0), None
#     Edge 17, Type (0, 0), None
#     Edge 18, Type (0, 0), None
#     Edge 19, Type (0, 0), None
#     Edge 20, Type (0, 0), None
#     Edge 21, Type (0, 0), None
#     Edge 22, Type (0, 0), None
#     Edge 23, Type (0, 0), None
#     Edge 24, Type (0, 0), None
#     Edge 25, Type (0, 0), None
#     Edge 26, Type (0, 0), None
#     Edge 27, Type (0, 0), None
#     Edge 28, Type (0, 0), None
#     Edge 29, Type (0, 0), None
#     Edge 30, Type (0, 0), None
#     Edge 31, Type (0, 0), None
#     Edge 32, Type (0, 0), None
#     Edge 33, Type (0, 0), None
#     Edge 34, Type (0, 0), None
#     Edge 35, Type (0, 0), None
#     Edge 36, Type (0, 0), None
#     Edge 37, Type (0, 0), None
#     Edge 38, Type (0, 0), None
#     Edge 39, Type (0, 0), None
#     Edge 40, Type (0, 0), None
#     Edge 41, Type (0, 0), None
#     Edge 42, Type (0, 0), None
#     Edge 43, Type (0, 0), None
#     Edge 44, Type (0, 0), None
#     Edge 45, Type (0, 0), None
#     Edge 46, Type (0, 0), None
#     Edge 47, Type (0, 0), None
#     Edge 48, Type (0, 0), None
#     Edge 49, Type (0, 0), None
#     Edge 50, Type (0, 0), None
#     Edge 51, Type (0, 0), None
#     Edge 52, Type (0, 0), None
#     Edge 53, Type (0, 0), None
# Relax obj value: 0.411
# Max RMSD: 0.307
# Mean RMSD: 0.307
data_MOF--net-wkt--node1-NUHQUE_clean_sbu_2--edge1-none
_symmetry_space_group_name_H-M    P1
_symmetry_Int_Tables_number       1
_symmetry_cell_setting            triclinic
loop_
_symmetry_equiv_pos_as_xyz
'x, y, z'
_cell_length_a     13.784754
_cell_length_b     13.78471
_cell_length_c     35.050154
_cell_angle_alpha  90.00029
_cell_angle_beta   89.999763
_cell_angle_gamma 120.0013
loop_
_atom_site_label
_atom_site_type_symbol
_atom_site_fract_x
_atom_site_fract_y
_atom_site_fract_z
_atom_type_partial_charge
O0 O 0.49111 0.54298 0.19506 0.0
Tb1 Tb 0.54803 0.6553 0.14475 0.0
Eu2 Eu 0.46583 0.57805 1.08119 0.0
C3 C 0.50257 0.57084 0.23205 0.0
O4 O 0.55951 0.67593 0.2426 0.0
C5 C 0.34111 0.68388 0.11381 0.0
O6 O 0.53223 0.65692 1.02565 0.0
C7 C 0.33974 0.37094 1.09106 0.0
C8 C 0.60154 0.76425 1.03002 0.0
O9 O 0.6208 0.80857 1.06412 0.0
C10 C 0.71852 0.65774 1.07938 0.0
C11 C 0.39601 0.31027 0.10469 0.0
C12 C 0.40572 0.29949 0.14404 0.0
C13 C 0.50012 0.30066 0.15985 0.0
C14 C 0.58498 0.30908 0.13463 0.0
C15 C 0.57024 0.30966 1.0943 0.0
C16 C 0.47351 0.30557 1.08037 0.0
O17 O 0.38536 0.66031 0.14378 0.0
O18 O 0.37892 0.67784 1.08072 0.0
O19 O 0.68561 0.76082 0.18271 0.0
O20 O 0.64594 0.83499 0.13806 0.0
C21 C 0.70754 0.85633 0.16834 0.0
O22 O 0.63404 0.59979 0.10231 0.0
O23 O 0.63415 0.59498 0.10362 0.0
O24 O 0.36686 0.41268 1.05606 0.0
O25 O 0.34181 0.44323 0.11629 0.0
H26 H 0.34302 0.29897 0.16273 0.0
H27 H 0.65942 0.31218 0.1461 0.0
H28 H 0.46553 0.31338 1.05004 0.0
O29 O 1.12099 0.4047 0.36173 0.0
Tb30 Tb 1.06559 0.46161 0.31141 0.0
Eu31 Eu 1.06063 0.37941 0.24785 0.0
C32 C 1.10459 0.41615 0.39871 0.0
O33 O 1.05644 0.47309 0.40927 0.0
C34 C 0.83008 0.25469 0.28047 0.0
O35 O 1.04816 0.4458 0.19232 0.0
C36 C 1.14164 0.25331 0.25772 0.0
C37 C 1.01015 0.51511 0.19668 0.0
O38 O 0.98509 0.53437 0.23079 0.0
C39 C 1.23364 0.63209 0.24605 0.0
C40 C 1.25859 0.30958 0.27136 0.0
C41 C 0.27909 0.3193 0.3107 0.0
C42 C 0.37232 0.4137 0.32652 0.0
C43 C 0.44876 0.49856 0.3013 0.0
C44 C 0.43342 0.48382 0.26097 0.0
C45 C 0.3408 0.38709 0.24704 0.0
O46 O 0.89791 0.29894 0.31045 0.0
O47 O 0.87394 0.2925 0.24739 0.0
O48 O 1.09765 0.59919 0.34938 0.0
O49 O 0.98382 0.55952 0.30472 0.0
C50 C 1.02408 0.62112 0.335 0.0
O51 O 1.20711 0.54761 0.26898 0.0
O52 O 1.21203 0.54772 0.27028 0.0
O53 O 1.12703 0.28043 0.22273 0.0
O54 O 1.07143 0.25539 0.28296 0.0
H55 H 1.21691 0.2566 0.32939 0.0
H56 H 0.5201 0.57301 0.31277 0.0
H57 H 0.32501 0.37911 0.2167 0.0
O58 O 0.88916 1.03458 0.52839 0.0
Tb59 Tb 0.77684 0.97917 0.47808 0.0
Eu60 Eu 0.85407 0.97422 0.41452 0.0
C61 C 0.8613 1.01817 0.56538 0.0
O62 O 0.75621 0.97002 0.57593 0.0
C63 C 0.74825 0.74367 0.44714 0.0
O64 O 0.7752 0.96175 0.35898 0.0
C65 C 1.06118 1.05523 0.42439 0.0
C66 C 0.66788 0.92373 0.36335 0.0
O67 O 0.62356 0.89867 0.39745 0.0
C68 C 0.7744 1.14722 0.41272 0.0
C69 C 1.12186 1.17217 0.43803 0.0
C70 C 1.13264 0.19267 0.47737 0.0
C71 C 1.13147 0.28591 0.49318 0.0
C72 C 1.12305 0.36234 0.46796 0.0
C73 C 1.12246 0.34701 0.42763 0.0
C74 C 1.12656 0.25438 0.4137 0.0
O75 O 0.77183 0.81149 0.47712 0.0
O76 O 0.75429 0.78752 0.41405 0.0
O77 O 0.67132 1.01123 0.51604 0.0
O78 O 0.59716 0.89739 0.47139 0.0
C79 C 0.57581 0.93765 0.50167 0.0
O80 O 0.83235 1.12069 0.43564 0.0
O81 O 0.83716 1.12561 0.43695 0.0
O82 O 1.01944 1.04061 0.38939 0.0
O83 O 0.98889 0.98502 0.44962 0.0
H84 H 1.13316 1.13049 0.49606 0.0
H85 H 1.11995 0.43368 0.47943 0.0
H86 H 1.11876 0.2386 0.38337 0.0
O87 O 1.02744 0.80274 0.69506 0.0
Tb88 Tb 0.97052 0.69042 0.64475 0.0
Eu89 Eu 1.05272 0.76766 0.58119 0.0
C90 C 1.01598 0.77488 0.73205 0.0
O91 O 0.95904 0.66978 0.7426 0.0
C92 C 1.17744 0.66183 0.61381 0.0
O93 O 0.98632 0.68879 0.52565 0.0
C94 C 1.17882 0.97477 0.59106 0.0
C95 C 0.91701 0.58147 0.53002 0.0
O96 O 0.89775 0.53714 0.56412 0.0
C97 C 0.80003 0.68798 0.57938 0.0
C98 C 1.12255 1.03544 0.60469 0.0
C99 C 1.11283 1.04622 0.64404 0.0
C100 C 1.01843 1.04505 0.65985 0.0
C101 C 0.93357 1.03663 0.63463 0.0
C102 C 0.94831 1.03604 0.5943 0.0
C103 C 1.04505 1.04014 0.58037 0.0
O104 O 1.13319 0.68541 0.64378 0.0
O105 O 1.13963 0.66787 0.58072 0.0
O106 O 0.83294 0.58489 0.68271 0.0
O107 O 0.87261 0.51073 0.63806 0.0
C108 C 0.81101 0.48938 0.66834 0.0
O109 O 0.88451 0.74593 0.60231 0.0
O110 O 0.88441 0.75074 0.60362 0.0
O111 O 1.15169 0.93303 0.55606 0.0
O112 O 1.17674 0.90248 0.61629 0.0
H113 H 1.17553 1.04675 0.66273 0.0
H114 H 0.85913 1.03354 0.6461 0.0
H115 H 1.05302 1.03234 0.55004 0.0
O116 O 0.39756 0.94102 0.86173 0.0
Tb117 Tb 0.45296 0.8841 0.81141 0.0
Eu118 Eu 0.45792 0.96631 0.74785 0.0
C119 C 0.41396 0.92956 0.89871 0.0
O120 O 0.46211 0.87262 0.90927 0.0
C121 C 0.68847 1.09103 0.78047 0.0
O122 O 0.47039 0.89991 0.69232 0.0
C123 C 0.37691 1.0924 0.75772 0.0
C124 C 0.50841 0.8306 0.69668 0.0
O125 O 0.53347 0.81135 0.73079 0.0
C126 C 0.28491 0.71362 0.74605 0.0
C127 C 0.25996 1.03613 0.77136 0.0
C128 C 1.23946 1.02641 0.8107 0.0
C129 C 1.14623 0.93201 0.82652 0.0
C130 C 1.06979 0.84715 0.8013 0.0
C131 C 1.08513 0.86189 0.76097 0.0
C132 C 1.17776 0.95863 0.74704 0.0
O133 O 0.62065 1.04677 0.81045 0.0
O134 O 0.64461 1.05322 0.74739 0.0
O135 O 0.4209 0.74652 0.84938 0.0
O136 O 0.53474 0.7862 0.80472 0.0
C137 C 0.49447 0.72459 0.835 0.0
O138 O 0.31144 0.7981 0.76898 0.0
O139 O 0.30652 0.79799 0.77028 0.0
O140 O 0.39152 1.06528 0.72273 0.0
O141 O 0.44712 1.09032 0.78296 0.0
H142 H 0.30165 1.08912 0.82939 0.0
H143 H 0.99845 0.77271 0.81277 0.0
H144 H 1.19354 0.96661 0.7167 0.0
O145 O 0.62939 0.31113 1.02839 0.0
Tb146 Tb 0.74171 0.36654 0.97808 0.0
Eu147 Eu 0.66448 0.3715 0.91452 0.0
C148 C 0.65725 0.32753 1.06538 0.0
O149 O 0.76235 0.37573 1.07594 0.0
C150 C 0.77029 0.60205 0.94714 0.0
O151 O 0.74334 0.38397 0.85898 0.0
C152 C 0.45737 0.29048 0.92439 0.0
C153 C 0.85067 0.42198 0.86335 0.0
O154 O 0.89499 0.44705 0.89745 0.0
C155 C 0.74415 0.19849 0.91272 0.0
C156 C 0.39669 0.17354 0.93803 0.0
C157 C 0.38591 1.15304 0.97737 0.0
C158 C 0.38708 1.05981 0.99318 0.0
C159 C 0.3955 0.98337 0.96796 0.0
C160 C 0.39609 0.9987 0.92763 0.0
C161 C 0.39199 1.09133 0.9137 0.0
O162 O 0.74671 0.53422 0.97712 0.0
O163 O 0.76426 0.55819 0.91405 0.0
O164 O 0.84723 0.33449 1.01605 0.0
O165 O 0.92139 0.44832 0.97139 0.0
C166 C 0.94273 0.40807 1.00167 0.0
O167 O 0.6862 0.22502 0.93565 0.0
O168 O 0.68139 0.2201 0.93695 0.0
O169 O 0.49911 0.3051 0.8894 0.0
O170 O 0.52966 0.3607 0.94963 0.0
H171 H 0.38539 0.21522 0.99606 0.0
H172 H 0.3986 0.91203 0.97943 0.0
H173 H 0.39979 1.10712 0.88337 0.0
O174 O 0.88928 0.94116 0.83385 0.0
Tb175 Tb 0.77695 0.88419 0.88416 0.0
Eu176 Eu 0.8537 0.96611 0.94766 0.0
C177 C 0.86138 0.92986 0.79687 0.0
O178 O 0.75625 0.87311 0.78634 0.0
C179 C 0.74811 1.09093 0.91506 0.0
O180 O 0.77485 0.89969 1.0032 0.0
C181 C 1.0608 1.09238 0.93784 0.0
C182 C 0.66754 0.83029 0.99884 0.0
O183 O 0.62323 0.8109 0.96474 0.0
C184 C 0.77478 0.71379 0.9496 0.0
C185 C 1.12154 1.03616 0.92422 0.0
C186 C 1.13234 1.02643 0.88487 0.0
C187 C 1.13119 0.93203 0.86907 0.0
C188 C 1.12279 0.8472 0.89429 0.0
C189 C 1.12221 0.86196 0.93462 0.0
C190 C 1.12625 0.95866 0.94854 0.0
O191 O 0.77211 1.04698 0.8851 0.0
O192 O 0.75362 1.05269 0.94812 0.0
O193 O 0.67157 0.74661 0.84616 0.0
O194 O 0.59726 0.78639 0.89083 0.0
C195 C 0.57614 0.7248 0.86056 0.0
O196 O 0.83238 0.79804 0.92655 0.0
O197 O 0.83735 0.79815 0.92532 0.0
O198 O 1.019 1.06521 0.97283 0.0
O199 O 0.98854 1.0903 0.91259 0.0
H200 H 1.13286 1.08912 0.86618 0.0
H201 H 1.11972 0.77276 0.88283 0.0
H202 H 1.11839 0.96661 0.97888 0.0
O203 O 1.121 0.80287 1.00051 0.0
Tb204 Tb 1.06563 0.69055 1.05082 0.0
Eu205 Eu 1.06045 0.76728 0.11432 0.0
C206 C 1.10438 0.77496 0.96354 0.0
O207 O 1.05596 0.66983 0.953 0.0
C208 C 0.83004 0.6617 1.08172 0.0
O209 O 1.04801 0.68842 0.16987 0.0
C210 C 1.14128 0.97438 0.10451 0.0
C211 C 1.01011 0.58112 0.16551 0.0
O212 O 0.98519 0.5368 0.1314 0.0
C213 C 1.23385 0.68837 0.11626 0.0
C214 C 1.25824 1.03512 1.09088 0.0
C215 C 0.27877 1.04592 1.05154 0.0
C216 C 0.37202 1.04476 1.03573 0.0
C217 C 0.44846 1.03637 1.06096 0.0
C218 C 0.43312 1.03579 0.10128 0.0
C219 C 0.34045 1.03983 0.11521 0.0
O220 O 0.898 0.68571 1.05176 0.0
O221 O 0.87378 0.66719 0.11479 0.0
O222 O 1.09781 0.58516 1.01282 0.0
O223 O 0.98373 0.51086 1.0575 0.0
C224 C 1.02419 0.48973 1.02723 0.0
O225 O 1.20721 0.74597 1.09322 0.0
O226 O 1.21206 0.75094 1.09199 0.0
O227 O 1.12665 0.93257 0.13949 0.0
O228 O 1.0711 0.90212 1.07926 0.0
H229 H 1.2166 1.04643 1.03285 0.0
H230 H 0.51982 1.03329 1.04949 0.0
H231 H 0.32464 1.03197 0.14554 0.0
O232 O 0.49099 1.03458 0.16718 0.0
Tb233 Tb 0.54794 0.97921 0.21749 0.0
Eu234 Eu 0.46602 0.97403 0.28099 0.0
C235 C 0.50229 1.01796 0.1302 0.0
O236 O 0.55899 0.96954 0.11967 0.0
C237 C 0.3412 0.74362 0.24839 0.0
O238 O 0.53243 0.96159 0.33654 0.0
C239 C 0.33975 1.05486 0.27118 0.0
C240 C 0.60184 0.92369 0.33217 0.0
O241 O 0.62123 0.89877 0.29807 0.0
C242 C 0.71833 1.14743 0.28293 0.0
C243 C 0.39598 1.17182 0.25755 0.0
C244 C 0.4057 0.19235 0.21821 0.0
C245 C 0.50011 0.2856 0.2024 0.0
C246 C 0.58494 0.36204 0.22762 0.0
C247 C 0.57018 0.3467 0.26795 0.0
C248 C 0.47347 0.25403 0.28188 0.0
O249 O 0.38515 0.81157 0.21843 0.0
O250 O 0.37943 0.78736 0.28145 0.0
O251 O 0.68552 1.0114 0.17949 0.0
O252 O 0.64574 0.89732 0.22417 0.0
C253 C 0.70733 0.93779 0.1939 0.0
O254 O 0.63409 1.12079 0.25989 0.0
O255 O 0.63398 1.12564 0.25866 0.0
O256 O 0.36692 1.04022 0.30616 0.0
O257 O 0.34184 0.98468 0.24593 0.0
H258 H 0.34301 1.13018 0.19952 0.0
H259 H 0.65938 0.4334 0.21616 0.0
H260 H 0.46552 0.23822 0.31221 0.0
O261 O 0.62927 0.40457 0.33385 0.0
Tb262 Tb 0.74159 0.46152 0.38415 0.0
Eu263 Eu 0.66485 0.37961 0.44766 0.0
C264 C 0.65718 0.41587 0.29687 0.0
O265 O 0.76231 0.47257 0.28633 0.0
C266 C 0.77044 0.25478 0.41506 0.0
O267 O 0.7437 0.44602 0.5032 0.0
C268 C 0.45775 0.25333 0.43784 0.0
C269 C 0.851 0.51543 0.49884 0.0
O270 O 0.89532 0.53482 0.46474 0.0
C271 C 0.74377 0.63192 0.44959 0.0
C272 C 0.39701 0.30956 0.42421 0.0
C273 C 0.38621 0.31928 0.38487 0.0
C274 C 0.38736 0.41369 0.36907 0.0
C275 C 0.39576 0.49852 0.39429 0.0
C276 C 0.39634 0.48376 0.43462 0.0
C277 C 0.3923 0.38705 0.44854 0.0
O278 O 0.74643 0.29873 0.38509 0.0
O279 O 0.76493 0.29302 0.44812 0.0
O280 O 0.84698 0.5991 0.34616 0.0
O281 O 0.92129 0.55932 0.39083 0.0
C282 C 0.94241 0.62091 0.36056 0.0
O283 O 0.68616 0.54767 0.42655 0.0
O284 O 0.6812 0.54756 0.42532 0.0
O285 O 0.49955 0.2805 0.47282 0.0
O286 O 0.53001 0.25542 0.41259 0.0
H287 H 0.38569 0.25659 0.36618 0.0
H288 H 0.39883 0.57295 0.38283 0.0
H289 H 0.40016 0.3791 0.47887 0.0
O290 O 0.39756 0.54284 0.50051 0.0
Tb291 Tb 0.45293 0.65517 0.55082 0.0
Eu292 Eu 0.4581 0.57844 0.61432 0.0
C293 C 0.41417 0.57076 0.46354 0.0
O294 O 0.46259 0.67588 0.453 0.0
C295 C 0.68851 0.68402 0.58172 0.0
O296 O 0.47054 0.65729 0.66987 0.0
C297 C 0.37727 0.37133 0.60451 0.0
C298 C 0.50844 0.7646 0.66551 0.0
O299 O 0.53337 0.80891 0.6314 0.0
C300 C 0.2847 0.65735 0.61626 0.0
C301 C 0.26031 0.3106 0.59088 0.0
C302 C 1.23978 0.2998 0.55154 0.0
C303 C 1.14653 0.30095 0.53573 0.0
C304 C 1.07009 0.30934 0.56096 0.0
C305 C 1.08543 0.30992 0.60128 0.0
C306 C 1.1781 0.30588 0.61521 0.0
O307 O 0.62056 0.66001 0.55176 0.0
O308 O 0.64477 0.67852 0.61479 0.0
O309 O 0.42074 0.76055 0.51283 0.0
O310 O 0.53483 0.83486 0.5575 0.0
C311 C 0.49436 0.85598 0.52723 0.0
O312 O 0.31134 0.59974 0.59322 0.0
O313 O 0.30649 0.59478 0.59199 0.0
O314 O 0.3919 0.41314 0.63949 0.0
O315 O 0.44745 0.4436 0.57926 0.0
H316 H 0.30195 0.29928 0.53285 0.0
H317 H 0.99873 0.31242 0.54949 0.0
H318 H 1.19391 0.31374 0.64554 0.0
O319 O 1.02756 0.31114 0.66718 0.0
Tb320 Tb 0.97061 0.36651 0.71749 0.0
Eu321 Eu 1.05253 0.37168 0.78099 0.0
C322 C 1.01626 0.32775 0.6302 0.0
O323 O 0.95956 0.37617 0.61967 0.0
C324 C 1.17735 0.6021 0.74839 0.0
O325 O 0.98612 0.38412 0.83654 0.0
C326 C 1.17881 0.29086 0.77117 0.0
C327 C 0.91671 0.42202 0.83217 0.0
O328 O 0.89732 0.44695 0.79807 0.0
C329 C 0.80022 0.19828 0.78293 0.0
C330 C 1.12258 0.1739 0.75755 0.0
C331 C 1.11285 1.15337 0.71821 0.0
C332 C 1.01845 1.06012 0.7024 0.0
C333 C 0.93361 0.98368 0.72762 0.0
C334 C 0.94837 0.99903 0.76795 0.0
C335 C 1.04508 1.09169 0.78188 0.0
O336 O 1.1334 0.53414 0.71843 0.0
O337 O 1.13912 0.55835 0.78145 0.0
O338 O 0.83304 0.33431 0.67949 0.0
O339 O 0.87282 0.4484 0.72417 0.0
C340 C 0.81122 0.40793 0.6939 0.0
O341 O 0.88446 0.22493 0.75989 0.0
O342 O 0.88457 0.22007 0.75866 0.0
O343 O 1.15164 0.3055 0.80616 0.0
O344 O 1.17672 0.36104 0.74593 0.0
H345 H 1.17554 0.21554 0.69951 0.0
H346 H 0.85917 0.91232 0.71616 0.0
H347 H 1.05304 1.1075 0.81221 0.0
loop_
_geom_bond_atom_site_label_1
_geom_bond_atom_site_label_2
_geom_bond_distance
_geom_bond_site_symmetry_2
_ccdc_geom_bond_type
O0 Tb1 2.292 . S
O0 C3 1.255 . S
Tb1 O0 2.292 . S
Tb1 O17 2.326 . S
Tb1 O19 2.500 . S
Tb1 O20 2.473 . S
Tb1 O23 2.324 . S
Eu2 O6 2.292 . S
Eu2 C7 2.852 . S
Eu2 O18 2.324 . S
Eu2 O22 2.326 1_556 S
Eu2 O24 2.500 . S
Eu2 O25 2.473 . S
C3 O0 1.255 . S
C3 O4 1.247 . S
O4 C3 1.247 . S
C5 O17 1.242 . S
C5 O18 1.258 1_554 S
O6 Eu2 2.292 . S
O6 C8 1.255 . S
C7 Eu2 2.852 . S
C7 C11 1.503 . S
C7 O24 1.273 . S
C7 O25 1.257 . S
C8 O6 1.255 . S
C8 O9 1.247 . S
O9 C8 1.247 . S
C10 O22 1.242 . S
C10 O23 1.258 . S
C11 C7 1.503 . S
C11 C12 1.379 1_556 S
C11 C16 1.392 . S
C12 C11 1.379 1_554 S
C12 C13 1.404 . S
C12 H26 0.929 . S
C13 C12 1.404 . S
C13 C14 1.389 . S
C14 C13 1.389 . S
C14 C15 1.399 1_554 S
C14 H27 0.931 . S
C15 C14 1.399 1_556 S
C15 C16 1.390 . S
C16 C11 1.392 . S
C16 C15 1.390 . S
C16 H28 0.929 . S
O17 Tb1 2.326 . S
O17 C5 1.242 . S
O18 Eu2 2.324 . S
O18 C5 1.258 1_556 S
O19 Tb1 2.500 . S
O19 C21 1.273 . S
O20 Tb1 2.473 . S
O20 C21 1.257 . S
C21 O19 1.273 . S
C21 O20 1.257 . S
O22 Eu2 2.326 1_554 S
O22 C10 1.242 . S
O23 Tb1 2.324 . S
O23 C10 1.258 . S
O24 Eu2 2.500 . S
O24 C7 1.273 . S
O25 Eu2 2.473 . S
O25 C7 1.257 . S
H26 C12 0.929 . S
H27 C14 0.931 . S
H28 C16 0.929 . S
O29 Tb30 2.292 . S
O29 C32 1.255 . S
Tb30 O29 2.292 . S
Tb30 O46 2.326 . S
Tb30 O48 2.500 . S
Tb30 O49 2.473 . S
Tb30 O52 2.324 . S
Eu31 O35 2.292 . S
Eu31 C36 2.852 1_655 S
Eu31 O47 2.324 . S
Eu31 O51 2.326 . S
Eu31 O53 2.500 1_655 S
Eu31 O54 2.473 . S
C32 O29 1.255 . S
C32 O33 1.247 . S
O33 C32 1.247 . S
C34 O46 1.242 . S
C34 O47 1.258 . S
O35 Eu31 2.292 . S
O35 C37 1.255 . S
C36 Eu31 2.852 1_455 S
C36 C40 1.503 . S
C36 O53 1.273 . S
C36 O54 1.257 1_455 S
C37 O35 1.255 . S
C37 O38 1.247 . S
O38 C37 1.247 . S
C39 O51 1.242 . S
C39 O52 1.258 . S
C40 C36 1.503 . S
C40 C41 1.379 . S
C40 C45 1.392 . S
C41 C40 1.379 . S
C41 C42 1.404 . S
C41 H55 0.929 . S
C42 C41 1.404 . S
C42 C43 1.389 . S
C43 C42 1.389 . S
C43 C44 1.399 . S
C43 H56 0.931 . S
C44 C43 1.399 . S
C44 C45 1.390 . S
C45 C40 1.392 . S
C45 C44 1.390 . S
C45 H57 0.929 . S
O46 Tb30 2.326 . S
O46 C34 1.242 . S
O47 Eu31 2.324 . S
O47 C34 1.258 . S
O48 Tb30 2.500 . S
O48 C50 1.273 . S
O49 Tb30 2.473 . S
O49 C50 1.257 . S
C50 O48 1.273 . S
C50 O49 1.257 . S
O51 Eu31 2.326 . S
O51 C39 1.242 . S
O52 Tb30 2.324 . S
O52 C39 1.258 . S
O53 Eu31 2.500 1_455 S
O53 C36 1.273 . S
O54 Eu31 2.473 . S
O54 C36 1.257 1_655 S
H55 C41 0.929 . S
H56 C43 0.931 . S
H57 C45 0.929 . S
O58 Tb59 2.292 . S
O58 C61 1.255 . S
Tb59 O58 2.292 . S
Tb59 O75 2.326 . S
Tb59 O77 2.500 . S
Tb59 O78 2.473 . S
Tb59 O81 2.324 . S
Eu60 O64 2.292 . S
Eu60 C65 2.852 1_565 S
Eu60 O76 2.324 . S
Eu60 O80 2.326 . S
Eu60 O82 2.500 1_565 S
Eu60 O83 2.473 . S
C61 O58 1.255 . S
C61 O62 1.247 . S
O62 C61 1.247 . S
C63 O75 1.242 . S
C63 O76 1.258 . S
O64 Eu60 2.292 . S
O64 C66 1.255 . S
C65 Eu60 2.852 1_545 S
C65 C69 1.503 . S
C65 O82 1.273 . S
C65 O83 1.257 1_545 S
C66 O64 1.255 . S
C66 O67 1.247 . S
O67 C66 1.247 . S
C68 O80 1.242 . S
C68 O81 1.258 . S
C69 C65 1.503 . S
C69 C70 1.379 . S
C69 C74 1.392 . S
C70 C69 1.379 . S
C70 C71 1.404 . S
C70 H84 0.929 . S
C71 C70 1.404 . S
C71 C72 1.389 . S
C72 C71 1.389 . S
C72 C73 1.399 . S
C72 H85 0.931 . S
C73 C72 1.399 . S
C73 C74 1.390 . S
C74 C69 1.392 . S
C74 C73 1.390 . S
C74 H86 0.929 . S
O75 Tb59 2.326 . S
O75 C63 1.242 . S
O76 Eu60 2.324 . S
O76 C63 1.258 . S
O77 Tb59 2.500 . S
O77 C79 1.273 . S
O78 Tb59 2.473 . S
O78 C79 1.257 . S
C79 O77 1.273 . S
C79 O78 1.257 . S
O80 Eu60 2.326 . S
O80 C68 1.242 . S
O81 Tb59 2.324 . S
O81 C68 1.258 . S
O82 Eu60 2.500 1_545 S
O82 C65 1.273 . S
O83 Eu60 2.473 . S
O83 C65 1.257 1_565 S
H84 C70 0.929 . S
H85 C72 0.931 . S
H86 C74 0.929 . S
O87 Tb88 2.292 . S
O87 C90 1.255 . S
Tb88 O87 2.292 . S
Tb88 O104 2.326 . S
Tb88 O106 2.500 . S
Tb88 O107 2.473 . S
Tb88 O110 2.324 . S
Eu89 O93 2.292 . S
Eu89 C94 2.852 . S
Eu89 O105 2.324 . S
Eu89 O109 2.326 . S
Eu89 O111 2.500 . S
Eu89 O112 2.473 . S
C90 O87 1.255 . S
C90 O91 1.247 . S
O91 C90 1.247 . S
C92 O104 1.242 . S
C92 O105 1.258 . S
O93 Eu89 2.292 . S
O93 C95 1.255 . S
C94 Eu89 2.852 . S
C94 C98 1.503 . S
C94 O111 1.273 . S
C94 O112 1.257 . S
C95 O93 1.255 . S
C95 O96 1.247 . S
O96 C95 1.247 . S
C97 O109 1.242 . S
C97 O110 1.258 . S
C98 C94 1.503 . S
C98 C99 1.379 . S
C98 C103 1.392 . S
C99 C98 1.379 . S
C99 C100 1.404 . S
C99 H113 0.929 . S
C100 C99 1.404 . S
C100 C101 1.389 . S
C101 C100 1.389 . S
C101 C102 1.399 . S
C101 H114 0.931 . S
C102 C101 1.399 . S
C102 C103 1.390 . S
C103 C98 1.392 . S
C103 C102 1.390 . S
C103 H115 0.929 . S
O104 Tb88 2.326 . S
O104 C92 1.242 . S
O105 Eu89 2.324 . S
O105 C92 1.258 . S
O106 Tb88 2.500 . S
O106 C108 1.273 . S
O107 Tb88 2.473 . S
O107 C108 1.257 . S
C108 O106 1.273 . S
C108 O107 1.257 . S
O109 Eu89 2.326 . S
O109 C97 1.242 . S
O110 Tb88 2.324 . S
O110 C97 1.258 . S
O111 Eu89 2.500 . S
O111 C94 1.273 . S
O112 Eu89 2.473 . S
O112 C94 1.257 . S
H113 C99 0.929 . S
H114 C101 0.931 . S
H115 C103 0.929 . S
O116 Tb117 2.292 . S
O116 C119 1.255 . S
Tb117 O116 2.292 . S
Tb117 O133 2.326 . S
Tb117 O135 2.500 . S
Tb117 O136 2.473 . S
Tb117 O139 2.324 . S
Eu118 O122 2.292 . S
Eu118 C123 2.852 1_455 S
Eu118 O134 2.324 . S
Eu118 O138 2.326 . S
Eu118 O140 2.500 1_455 S
Eu118 O141 2.473 . S
C119 O116 1.255 . S
C119 O120 1.247 . S
O120 C119 1.247 . S
C121 O133 1.242 . S
C121 O134 1.258 . S
O122 Eu118 2.292 . S
O122 C124 1.255 . S
C123 Eu118 2.852 1_655 S
C123 C127 1.503 . S
C123 O140 1.273 . S
C123 O141 1.257 1_655 S
C124 O122 1.255 . S
C124 O125 1.247 . S
O125 C124 1.247 . S
C126 O138 1.242 . S
C126 O139 1.258 . S
C127 C123 1.503 . S
C127 C128 1.379 . S
C127 C132 1.392 . S
C128 C127 1.379 . S
C128 C129 1.404 . S
C128 H142 0.929 . S
C129 C128 1.404 . S
C129 C130 1.389 . S
C130 C129 1.389 . S
C130 C131 1.399 . S
C130 H143 0.931 . S
C131 C130 1.399 . S
C131 C132 1.390 . S
C132 C127 1.392 . S
C132 C131 1.390 . S
C132 H144 0.929 . S
O133 Tb117 2.326 . S
O133 C121 1.242 . S
O134 Eu118 2.324 . S
O134 C121 1.258 . S
O135 Tb117 2.500 . S
O135 C137 1.273 . S
O136 Tb117 2.473 . S
O136 C137 1.257 . S
C137 O135 1.273 . S
C137 O136 1.257 . S
O138 Eu118 2.326 . S
O138 C126 1.242 . S
O139 Tb117 2.324 . S
O139 C126 1.258 . S
O140 Eu118 2.500 1_655 S
O140 C123 1.273 . S
O141 Eu118 2.473 . S
O141 C123 1.257 1_455 S
H142 C128 0.929 . S
H143 C130 0.931 . S
H144 C132 0.929 . S
O145 Tb146 2.292 . S
O145 C148 1.255 . S
Tb146 O145 2.292 . S
Tb146 O162 2.326 . S
Tb146 O164 2.500 . S
Tb146 O165 2.473 . S
Tb146 O168 2.324 . S
Eu147 O151 2.292 . S
Eu147 C152 2.852 1_545 S
Eu147 O163 2.324 . S
Eu147 O167 2.326 . S
Eu147 O169 2.500 1_545 S
Eu147 O170 2.473 . S
C148 O145 1.255 . S
C148 O149 1.247 . S
O149 C148 1.247 . S
C150 O162 1.242 . S
C150 O163 1.258 . S
O151 Eu147 2.292 . S
O151 C153 1.255 . S
C152 Eu147 2.852 1_565 S
C152 C156 1.503 . S
C152 O169 1.273 . S
C152 O170 1.257 1_565 S
C153 O151 1.255 . S
C153 O154 1.247 . S
O154 C153 1.247 . S
C155 O167 1.242 . S
C155 O168 1.258 . S
C156 C152 1.503 . S
C156 C157 1.379 . S
C156 C161 1.392 . S
C157 C156 1.379 . S
C157 C158 1.404 . S
C157 H171 0.929 . S
C158 C157 1.404 . S
C158 C159 1.389 . S
C159 C158 1.389 . S
C159 C160 1.399 . S
C159 H172 0.931 . S
C160 C159 1.399 . S
C160 C161 1.390 . S
C161 C156 1.392 . S
C161 C160 1.390 . S
C161 H173 0.929 . S
O162 Tb146 2.326 . S
O162 C150 1.242 . S
O163 Eu147 2.324 . S
O163 C150 1.258 . S
O164 Tb146 2.500 . S
O164 C166 1.273 . S
O165 Tb146 2.473 . S
O165 C166 1.257 . S
C166 O164 1.273 . S
C166 O165 1.257 . S
O167 Eu147 2.326 . S
O167 C155 1.242 . S
O168 Tb146 2.324 . S
O168 C155 1.258 . S
O169 Eu147 2.500 1_565 S
O169 C152 1.273 . S
O170 Eu147 2.473 . S
O170 C152 1.257 1_545 S
H171 C157 0.929 . S
H172 C159 0.931 . S
H173 C161 0.929 . S
O174 Tb175 2.292 . S
O174 C177 1.255 . S
Tb175 O174 2.292 . S
Tb175 O191 2.326 . S
Tb175 O193 2.500 . S
Tb175 O194 2.473 . S
Tb175 O197 2.324 . S
Eu176 O180 2.292 . S
Eu176 C181 2.852 . S
Eu176 O192 2.324 . S
Eu176 O196 2.326 . S
Eu176 O198 2.500 . S
Eu176 O199 2.473 . S
C177 O174 1.255 . S
C177 O178 1.247 . S
O178 C177 1.247 . S
C179 O191 1.242 . S
C179 O192 1.258 . S
O180 Eu176 2.292 . S
O180 C182 1.255 . S
C181 Eu176 2.852 . S
C181 C185 1.503 . S
C181 O198 1.273 . S
C181 O199 1.257 . S
C182 O180 1.255 . S
C182 O183 1.247 . S
O183 C182 1.247 . S
C184 O196 1.242 . S
C184 O197 1.258 . S
C185 C181 1.503 . S
C185 C186 1.379 . S
C185 C190 1.392 . S
C186 C185 1.379 . S
C186 C187 1.404 . S
C186 H200 0.929 . S
C187 C186 1.404 . S
C187 C188 1.389 . S
C188 C187 1.389 . S
C188 C189 1.399 . S
C188 H201 0.931 . S
C189 C188 1.399 . S
C189 C190 1.390 . S
C190 C185 1.392 . S
C190 C189 1.390 . S
C190 H202 0.929 . S
O191 Tb175 2.326 . S
O191 C179 1.242 . S
O192 Eu176 2.324 . S
O192 C179 1.258 . S
O193 Tb175 2.500 . S
O193 C195 1.273 . S
O194 Tb175 2.473 . S
O194 C195 1.257 . S
C195 O193 1.273 . S
C195 O194 1.257 . S
O196 Eu176 2.326 . S
O196 C184 1.242 . S
O197 Tb175 2.324 . S
O197 C184 1.258 . S
O198 Eu176 2.500 . S
O198 C181 1.273 . S
O199 Eu176 2.473 . S
O199 C181 1.257 . S
H200 C186 0.929 . S
H201 C188 0.931 . S
H202 C190 0.929 . S
O203 Tb204 2.292 . S
O203 C206 1.255 . S
Tb204 O203 2.292 . S
Tb204 O220 2.326 . S
Tb204 O222 2.500 . S
Tb204 O223 2.473 . S
Tb204 O226 2.324 . S
Eu205 O209 2.292 . S
Eu205 C210 2.852 1_655 S
Eu205 O221 2.312 1_554 S
Eu205 O225 2.326 1_554 S
Eu205 O227 2.500 1_655 S
Eu205 O228 2.473 1_554 S
C206 O203 1.255 . S
C206 O207 1.247 . S
O207 C206 1.247 . S
C208 O220 1.242 . S
C208 O221 1.279 . S
O209 Eu205 2.292 . S
O209 C211 1.255 . S
C210 Eu205 2.852 1_455 S
C210 C214 1.503 . S
C210 O227 1.273 . S
C210 O228 1.257 1_454 S
C211 O209 1.255 . S
C211 O212 1.247 . S
O212 C211 1.247 . S
C213 O225 1.242 . S
C213 O226 1.258 . S
C214 C210 1.503 . S
C214 C215 1.379 1_554 S
C214 C219 1.392 . S
C215 C214 1.379 1_556 S
C215 C216 1.404 . S
C215 H229 0.929 . S
C216 C215 1.404 . S
C216 C217 1.389 . S
C217 C216 1.389 . S
C217 C218 1.399 1_556 S
C217 H230 0.931 . S
C218 C217 1.399 1_554 S
C218 C219 1.390 . S
C219 C214 1.392 . S
C219 C218 1.390 . S
C219 H231 0.929 . S
O220 Tb204 2.326 . S
O220 C208 1.242 . S
O221 Eu205 2.312 1_556 S
O221 C208 1.279 . S
O222 Tb204 2.500 . S
O222 C224 1.273 . S
O223 Tb204 2.473 . S
O223 C224 1.257 . S
C224 O222 1.273 . S
C224 O223 1.257 . S
O225 Eu205 2.326 1_556 S
O225 C213 1.242 . S
O226 Tb204 2.324 . S
O226 C213 1.258 . S
O227 Eu205 2.500 1_455 S
O227 C210 1.273 . S
O228 Eu205 2.473 1_556 S
O228 C210 1.257 1_656 S
H229 C215 0.929 . S
H230 C217 0.931 . S
H231 C219 0.929 . S
O232 Tb233 2.292 . S
O232 C235 1.255 . S
Tb233 O232 2.292 . S
Tb233 O249 2.326 . S
Tb233 O251 2.500 . S
Tb233 O252 2.473 . S
Tb233 O255 2.324 . S
Eu234 O238 2.292 . S
Eu234 C239 2.852 1_565 S
Eu234 O250 2.324 . S
Eu234 O254 2.326 . S
Eu234 O256 2.500 1_565 S
Eu234 O257 2.473 . S
C235 O232 1.255 . S
C235 O236 1.247 . S
O236 C235 1.247 . S
C237 O249 1.242 . S
C237 O250 1.258 . S
O238 Eu234 2.292 . S
O238 C240 1.255 . S
C239 Eu234 2.852 1_545 S
C239 C243 1.503 . S
C239 O256 1.273 . S
C239 O257 1.257 1_545 S
C240 O238 1.255 . S
C240 O241 1.247 . S
O241 C240 1.247 . S
C242 O254 1.242 . S
C242 O255 1.258 . S
C243 C239 1.503 . S
C243 C244 1.379 . S
C243 C248 1.392 . S
C244 C243 1.379 . S
C244 C245 1.404 . S
C244 H258 0.929 . S
C245 C244 1.404 . S
C245 C246 1.389 . S
C246 C245 1.389 . S
C246 C247 1.399 . S
C246 H259 0.931 . S
C247 C246 1.399 . S
C247 C248 1.390 . S
C248 C243 1.392 . S
C248 C247 1.390 . S
C248 H260 0.929 . S
O249 Tb233 2.326 . S
O249 C237 1.242 . S
O250 Eu234 2.324 . S
O250 C237 1.258 . S
O251 Tb233 2.500 . S
O251 C253 1.273 . S
O252 Tb233 2.473 . S
O252 C253 1.257 . S
C253 O251 1.273 . S
C253 O252 1.257 . S
O254 Eu234 2.326 . S
O254 C242 1.242 . S
O255 Tb233 2.324 . S
O255 C242 1.258 . S
O256 Eu234 2.500 1_545 S
O256 C239 1.273 . S
O257 Eu234 2.473 . S
O257 C239 1.257 1_565 S
H258 C244 0.929 . S
H259 C246 0.931 . S
H260 C248 0.929 . S
O261 Tb262 2.292 . S
O261 C264 1.255 . S
Tb262 O261 2.292 . S
Tb262 O278 2.326 . S
Tb262 O280 2.500 . S
Tb262 O281 2.473 . S
Tb262 O284 2.324 . S
Eu263 O267 2.292 . S
Eu263 C268 2.852 . S
Eu263 O279 2.324 . S
Eu263 O283 2.326 . S
Eu263 O285 2.500 . S
Eu263 O286 2.473 . S
C264 O261 1.255 . S
C264 O265 1.247 . S
O265 C264 1.247 . S
C266 O278 1.242 . S
C266 O279 1.258 . S
O267 Eu263 2.292 . S
O267 C269 1.255 . S
C268 Eu263 2.852 . S
C268 C272 1.503 . S
C268 O285 1.273 . S
C268 O286 1.257 . S
C269 O267 1.255 . S
C269 O270 1.247 . S
O270 C269 1.247 . S
C271 O283 1.242 . S
C271 O284 1.258 . S
C272 C268 1.503 . S
C272 C273 1.379 . S
C272 C277 1.392 . S
C273 C272 1.379 . S
C273 C274 1.404 . S
C273 H287 0.929 . S
C274 C273 1.404 . S
C274 C275 1.389 . S
C275 C274 1.389 . S
C275 C276 1.399 . S
C275 H288 0.931 . S
C276 C275 1.399 . S
C276 C277 1.390 . S
C277 C272 1.392 . S
C277 C276 1.390 . S
C277 H289 0.929 . S
O278 Tb262 2.326 . S
O278 C266 1.242 . S
O279 Eu263 2.324 . S
O279 C266 1.258 . S
O280 Tb262 2.500 . S
O280 C282 1.273 . S
O281 Tb262 2.473 . S
O281 C282 1.257 . S
C282 O280 1.273 . S
C282 O281 1.257 . S
O283 Eu263 2.326 . S
O283 C271 1.242 . S
O284 Tb262 2.324 . S
O284 C271 1.258 . S
O285 Eu263 2.500 . S
O285 C268 1.273 . S
O286 Eu263 2.473 . S
O286 C268 1.257 . S
H287 C273 0.929 . S
H288 C275 0.931 . S
H289 C277 0.929 . S
O290 Tb291 2.292 . S
O290 C293 1.255 . S
Tb291 O290 2.292 . S
Tb291 O307 2.326 . S
Tb291 O309 2.500 . S
Tb291 O310 2.473 . S
Tb291 O313 2.324 . S
Eu292 O296 2.292 . S
Eu292 C297 2.852 1_455 S
Eu292 O308 2.324 . S
Eu292 O312 2.326 . S
Eu292 O314 2.500 1_455 S
Eu292 O315 2.473 . S
C293 O290 1.255 . S
C293 O294 1.247 . S
O294 C293 1.247 . S
C295 O307 1.242 . S
C295 O308 1.258 . S
O296 Eu292 2.292 . S
O296 C298 1.255 . S
C297 Eu292 2.852 1_655 S
C297 C301 1.503 . S
C297 O314 1.273 . S
C297 O315 1.257 1_655 S
C298 O296 1.255 . S
C298 O299 1.247 . S
O299 C298 1.247 . S
C300 O312 1.242 . S
C300 O313 1.258 . S
C301 C297 1.503 . S
C301 C302 1.379 . S
C301 C306 1.392 . S
C302 C301 1.379 . S
C302 C303 1.404 . S
C302 H316 0.929 . S
C303 C302 1.404 . S
C303 C304 1.389 . S
C304 C303 1.389 . S
C304 C305 1.399 . S
C304 H317 0.931 . S
C305 C304 1.399 . S
C305 C306 1.390 . S
C306 C301 1.392 . S
C306 C305 1.390 . S
C306 H318 0.929 . S
O307 Tb291 2.326 . S
O307 C295 1.242 . S
O308 Eu292 2.324 . S
O308 C295 1.258 . S
O309 Tb291 2.500 . S
O309 C311 1.273 . S
O310 Tb291 2.473 . S
O310 C311 1.257 . S
C311 O309 1.273 . S
C311 O310 1.257 . S
O312 Eu292 2.326 . S
O312 C300 1.242 . S
O313 Tb291 2.324 . S
O313 C300 1.258 . S
O314 Eu292 2.500 1_655 S
O314 C297 1.273 . S
O315 Eu292 2.473 . S
O315 C297 1.257 1_455 S
H316 C302 0.929 . S
H317 C304 0.931 . S
H318 C306 0.929 . S
O319 Tb320 2.292 . S
O319 C322 1.255 . S
Tb320 O319 2.292 . S
Tb320 O336 2.326 . S
Tb320 O338 2.500 . S
Tb320 O339 2.473 . S
Tb320 O342 2.324 . S
Eu321 O325 2.292 . S
Eu321 C326 2.852 1_545 S
Eu321 O337 2.324 . S
Eu321 O341 2.326 . S
Eu321 O343 2.500 1_545 S
Eu321 O344 2.473 . S
C322 O319 1.255 . S
C322 O323 1.247 . S
O323 C322 1.247 . S
C324 O336 1.242 . S
C324 O337 1.258 . S
O325 Eu321 2.292 . S
O325 C327 1.255 . S
C326 Eu321 2.852 1_565 S
C326 C330 1.503 . S
C326 O343 1.273 . S
C326 O344 1.257 1_565 S
C327 O325 1.255 . S
C327 O328 1.247 . S
O328 C327 1.247 . S
C329 O341 1.242 . S
C329 O342 1.258 . S
C330 C326 1.503 . S
C330 C331 1.379 . S
C330 C335 1.392 . S
C331 C330 1.379 . S
C331 C332 1.404 . S
C331 H345 0.929 . S
C332 C331 1.404 . S
C332 C333 1.389 . S
C333 C332 1.389 . S
C333 C334 1.399 . S
C333 H346 0.931 . S
C334 C333 1.399 . S
C334 C335 1.390 . S
C335 C330 1.392 . S
C335 C334 1.390 . S
C335 H347 0.929 . S
O336 Tb320 2.326 . S
O336 C324 1.242 . S
O337 Eu321 2.324 . S
O337 C324 1.258 . S
O338 Tb320 2.500 . S
O338 C340 1.273 . S
O339 Tb320 2.473 . S
O339 C340 1.257 . S
C340 O338 1.273 . S
C340 O339 1.257 . S
O341 Eu321 2.326 . S
O341 C329 1.242 . S
O342 Tb320 2.324 . S
O342 C329 1.258 . S
O343 Eu321 2.500 1_565 S
O343 C326 1.273 . S
O344 Eu321 2.473 . S
O344 C326 1.257 1_545 S
H345 C331 0.929 . S
H346 C333 0.931 . S
H347 C335 0.929 . S
C21 C253 1.595 . S
C50 C282 1.595 . S
C311 C79 1.595 . S
C108 C340 1.595 . S
C137 C195 1.595 . S
C166 C224 1.595 . S
C148 C15 1.558 . S
C44 C3 1.558 . S
C73 C32 1.558 . S
C61 C102 1.558 . S
C90 C131 1.558 . S
C119 C160 1.558 . S
C189 C206 1.558 . S
C235 C218 1.558 . S
C264 C247 1.558 . S
C293 C276 1.558 . S
C322 C305 1.558 . S
C334 C177 1.558 . S
C8 C182 2.269 . S
C37 C211 2.268 . S
C240 C66 2.268 . S
C269 C95 2.268 . S
C124 C298 2.268 . S
C153 C327 2.268 . S
C245 C13 4.319 . S
C274 C42 4.319 . S
C303 C71 4.319 . S
C100 C332 4.319 . S
C187 C129 4.319 . S
C216 C158 4.319 . S
C208 C10 5.002 1_556 S
C237 C39 5.002 1_455 S
C266 C68 5.003 1_545 S
C295 C97 5.002 . S
C324 C126 5.002 1_655 S
C179 C155 5.003 1_565 S
C184 C150 5.003 . S
C213 C5 5.002 1_656 S
C34 C242 5.002 1_545 S
C63 C271 5.002 . S
C300 C92 5.002 1_455 S
C121 C329 5.002 1_565 S
