# Generated by pormake.
# Topology noo, (5)-cn, num edge types: 1
# Building blocks:
#     Node 0, Type 0, BuildingBlock: BEQFEK_clean_sbu_0, # of connection points: 5
#     Node 1, Type 0, BuildingBlock: BEQFEK_clean_sbu_0, # of connection points: 5
#     Node 2, Type 0, BuildingBlock: BEQFEK_clean_sbu_0, # of connection points: 5
#     Node 3, Type 0, BuildingBlock: BEQFEK_clean_sbu_0, # of connection points: 5
#     Node 4, Type 0, BuildingBlock: BEQFEK_clean_sbu_0, # of connection points: 5
#     Node 5, Type 0, BuildingBlock: BEQFEK_clean_sbu_0, # of connection points: 5
#     Node 6, Type 0, BuildingBlock: BEQFEK_clean_sbu_0, # of connection points: 5
#     Node 7, Type 0, BuildingBlock: BEQFEK_clean_sbu_0, # of connection points: 5
#     Edge 8, Type (0, 0), BuildingBlock: AJUNOK_clean_linker_0, # of connection points: 2
#     Edge 9, Type (0, 0), BuildingBlock: AJUNOK_clean_linker_0, # of connection points: 2
#     Edge 10, Type (0, 0), BuildingBlock: AJUNOK_clean_linker_0, # of connection points: 2
#     Edge 11, Type (0, 0), BuildingBlock: AJUNOK_clean_linker_0, # of connection points: 2
#     Edge 12, Type (0, 0), BuildingBlock: AJUNOK_clean_linker_0, # of connection points: 2
#     Edge 13, Type (0, 0), BuildingBlock: AJUNOK_clean_linker_0, # of connection points: 2
#     Edge 14, Type (0, 0), BuildingBlock: AJUNOK_clean_linker_0, # of connection points: 2
#     Edge 15, Type (0, 0), BuildingBlock: AJUNOK_clean_linker_0, # of connection points: 2
#     Edge 16, Type (0, 0), BuildingBlock: AJUNOK_clean_linker_0, # of connection points: 2
#     Edge 17, Type (0, 0), BuildingBlock: AJUNOK_clean_linker_0, # of connection points: 2
#     Edge 18, Type (0, 0), BuildingBlock: AJUNOK_clean_linker_0, # of connection points: 2
#     Edge 19, Type (0, 0), BuildingBlock: AJUNOK_clean_linker_0, # of connection points: 2
#     Edge 20, Type (0, 0), BuildingBlock: AJUNOK_clean_linker_0, # of connection points: 2
#     Edge 21, Type (0, 0), BuildingBlock: AJUNOK_clean_linker_0, # of connection points: 2
#     Edge 22, Type (0, 0), BuildingBlock: AJUNOK_clean_linker_0, # of connection points: 2
#     Edge 23, Type (0, 0), BuildingBlock: AJUNOK_clean_linker_0, # of connection points: 2
#     Edge 24, Type (0, 0), BuildingBlock: AJUNOK_clean_linker_0, # of connection points: 2
#     Edge 25, Type (0, 0), BuildingBlock: AJUNOK_clean_linker_0, # of connection points: 2
#     Edge 26, Type (0, 0), BuildingBlock: AJUNOK_clean_linker_0, # of connection points: 2
#     Edge 27, Type (0, 0), BuildingBlock: AJUNOK_clean_linker_0, # of connection points: 2
# Relax obj value: 0.175
# Max RMSD: 0.163
# Mean RMSD: 0.163
data_MOF--net-noo--node1-BEQFEK_clean_sbu_0--edge1-AJUNOK_clean_linker_0
_symmetry_space_group_name_H-M    P1
_symmetry_Int_Tables_number       1
_symmetry_cell_setting            triclinic
loop_
_symmetry_equiv_pos_as_xyz
'x, y, z'
_cell_length_a     31.287323
_cell_length_b     31.291055
_cell_length_c     21.227362
_cell_angle_alpha  89.962458
_cell_angle_beta   89.726863
_cell_angle_gamma 90.103048
loop_
_atom_site_label
_atom_site_type_symbol
_atom_site_fract_x
_atom_site_fract_y
_atom_site_fract_z
_atom_type_partial_charge
Co0 Co 0.37625 0.29314 0.06978 0.0
Co1 Co 0.40829 0.20048 0.09454 0.0
C2 C 0.36033 0.21991 0.97723 0.0
O3 O 0.3561 0.25928 0.99293 0.0
O4 O 0.37955 0.19337 1.01291 0.0
C5 C 0.31705 0.36623 0.05594 0.0
O6 O 0.28728 0.33879 0.0395 0.0
C7 C 0.43888 0.11099 0.10388 0.0
C8 C 0.4804 0.1184 0.18734 0.0
C9 C 0.46884 0.09015 0.1405 0.0
N10 N 0.43319 0.15031 0.12797 0.0
N11 N 0.45779 0.15423 0.17812 0.0
C12 C 0.42078 0.09607 0.04275 0.0
H13 H 0.38875 0.11026 0.03528 0.0
H14 H 0.41858 0.06068 0.04152 0.0
H15 H 0.44231 0.10655 1.00403 0.0
C16 C 0.33247 0.27567 0.19509 0.0
N17 N 0.35823 0.26486 0.14619 0.0
N18 N 0.37046 0.22499 0.15385 0.0
C19 C 0.35192 0.20876 0.20604 0.0
C20 C 0.32718 0.24024 0.2341 0.0
C21 C 0.31252 0.31866 0.2036 0.0
H22 H 0.33627 0.34403 0.19285 0.0
H23 H 0.28555 0.32193 0.17025 0.0
H24 H 0.30009 0.3228 0.25226 0.0
O25 O 0.4402 0.30138 0.06605 0.0
O26 O 0.45964 0.23475 0.0815 0.0
H27 H 0.38952 0.16292 0.25543 0.0
H28 H 0.33327 0.15376 0.26242 0.0
C29 C 0.35885 0.16416 0.22959 0.0
H30 H 0.36044 0.14159 0.1894 0.0
H31 H 0.46091 0.18239 0.20402 0.0
O32 O 0.35414 0.35262 0.06919 0.0
C33 C 0.46937 0.27331 0.07083 0.0
Co34 Co 0.7228 0.37652 0.07684 0.0
Co35 Co 0.81695 0.40609 0.09919 0.0
C36 C 0.79487 0.36139 0.98033 0.0
O37 O 0.75572 0.35731 0.9978 0.0
O38 O 0.82241 0.37956 1.01555 0.0
C39 C 0.65078 0.31858 0.05566 0.0
O40 O 0.67975 0.2921 0.03367 0.0
C41 C 0.90217 0.44555 0.09971 0.0
C42 C 0.90756 0.46337 0.2001 0.0
C43 C 0.92783 0.4672 0.14231 0.0
N44 N 0.86884 0.42878 0.13144 0.0
N45 N 0.87211 0.43999 0.19125 0.0
C46 C 0.90437 0.44775 1.02946 0.0
H47 H 0.87179 0.45272 1.01042 0.0
H48 H 0.91666 0.41691 1.01114 0.0
H49 H 0.92553 0.47405 1.01314 0.0
C50 C 0.74044 0.33151 0.20062 0.0
N51 N 0.75175 0.35689 0.15157 0.0
N52 N 0.79267 0.36608 0.15644 0.0
C53 C 0.80916 0.34458 0.20573 0.0
C54 C 0.77666 0.32258 0.23622 0.0
C55 C 0.69613 0.31534 0.21225 0.0
H56 H 0.68936 0.28897 0.17882 0.0
H57 H 0.69248 0.30308 0.26108 0.0
H58 H 0.6727 0.34122 0.20349 0.0
O59 O 0.71609 0.44024 0.07613 0.0
O60 O 0.78324 0.45845 0.09096 0.0
H61 H 0.86105 0.36445 0.26434 0.0
H62 H 0.86538 0.31094 0.23633 0.0
C63 C 0.85557 0.34367 0.22283 0.0
H64 H 0.8758 0.35411 0.18272 0.0
H65 H 0.84858 0.43433 0.22522 0.0
O66 O 0.66265 0.35488 0.0759 0.0
C67 C 0.7447 0.46887 0.0818 0.0
Co68 Co 0.64085 0.72134 0.08715 0.0
Co69 Co 0.61142 0.81558 0.10729 0.0
C70 C 0.65607 0.79211 0.98934 0.0
O71 O 0.65973 0.75322 1.00766 0.0
O72 O 0.63787 0.82019 1.02367 0.0
C73 C 0.69975 0.65006 0.06788 0.0
O74 O 0.72643 0.6792 0.0466 0.0
C75 C 0.57909 0.90382 0.10764 0.0
C76 C 0.54622 0.90396 0.20026 0.0
C77 C 0.55255 0.92783 0.14625 0.0
N78 N 0.58823 0.8673 0.13801 0.0
N79 N 0.56857 0.8677 0.19326 0.0
C80 C 0.59021 0.91206 0.04011 0.0
H81 H 0.57794 0.8854 1.01083 0.0
H82 H 0.6255 0.91271 0.03467 0.0
H83 H 0.5765 0.9426 1.02304 0.0
C84 C 0.68554 0.74085 0.21017 0.0
N85 N 0.66058 0.75142 0.16068 0.0
N86 N 0.65042 0.7921 0.16547 0.0
C87 C 0.67001 0.80906 0.216 0.0
C88 C 0.69258 0.77721 0.24659 0.0
C89 C 0.7027 0.69701 0.2218 0.0
H90 H 0.67703 0.67299 0.21474 0.0
H91 H 0.72848 0.69036 0.18713 0.0
H92 H 0.71597 0.69405 0.26999 0.0
O93 O 0.57706 0.71423 0.088 0.0
O94 O 0.55959 0.78167 0.10079 0.0
H95 H 0.63969 0.85805 0.27017 0.0
H96 H 0.69588 0.86599 0.25929 0.0
C97 C 0.66633 0.85486 0.23586 0.0
H98 H 0.66027 0.87561 0.19458 0.0
H99 H 0.5684 0.84203 0.22468 0.0
O100 O 0.663 0.6616 0.08694 0.0
C101 C 0.54872 0.74308 0.09366 0.0
Co102 Co 0.29686 0.63905 0.08275 0.0
Co103 Co 0.20183 0.6109 0.09109 0.0
C104 C 0.23074 0.65586 0.97887 0.0
O105 O 0.26848 0.66019 1.00142 0.0
O106 O 0.2012 0.63636 1.00869 0.0
C107 C 0.36714 0.69923 0.0845 0.0
O108 O 0.33714 0.72824 0.07841 0.0
C109 C 0.11233 0.58047 0.08976 0.0
C110 C 0.10284 0.56796 0.19149 0.0
C111 C 0.08317 0.56491 0.13355 0.0
N112 N 0.1476 0.5927 0.12089 0.0
N113 N 0.1418 0.58468 0.18148 0.0
C114 C 0.10766 0.58251 1.01975 0.0
H115 H 0.11653 0.61492 1.00288 0.0
H116 H 0.0745 0.57492 1.00509 0.0
H117 H 0.13014 0.55951 0.99766 0.0
C118 C 0.27103 0.67978 0.20777 0.0
N119 N 0.26419 0.65736 0.15421 0.0
N120 N 0.22299 0.65188 0.14761 0.0
C121 C 0.20202 0.67478 0.19103 0.0
C122 C 0.23129 0.69158 0.23369 0.0
C123 C 0.31448 0.68626 0.23517 0.0
H124 H 0.33736 0.66283 0.21504 0.0
H125 H 0.32598 0.71887 0.22336 0.0
H126 H 0.31345 0.68266 0.28716 0.0
O127 O 0.30245 0.57608 0.08024 0.0
O128 O 0.23479 0.55694 0.0875 0.0
H129 H 0.13486 0.6643 0.21058 0.0
H130 H 0.1501 0.71938 0.2035 0.0
C131 C 0.15574 0.6868 0.18452 0.0
H132 H 0.14627 0.68569 0.1342 0.0
H133 H 0.16497 0.58957 0.21595 0.0
O134 O 0.35646 0.66016 0.08746 0.0
C135 C 0.27401 0.54711 0.08255 0.0
Co136 Co 0.87473 0.22111 0.64987 0.0
Co137 Co 0.91295 0.31146 0.62436 0.0
C138 C 0.85907 0.29645 0.73867 0.0
O139 O 0.854 0.25695 0.72437 0.0
O140 O 0.88049 0.32157 0.703 0.0
C141 C 0.8249 0.14728 0.69177 0.0
O142 O 0.8115 0.1717 0.73811 0.0
C143 C 0.94075 0.40153 0.60801 0.0
C144 C 0.99402 0.39116 0.54078 0.0
C145 C 0.974 0.42217 0.57661 0.0
N146 N 0.9418 0.36002 0.59207 0.0
N147 N 0.97355 0.35418 0.55172 0.0
C148 C 0.90758 0.42066 0.65025 0.0
H149 H 0.87693 0.40309 0.64535 0.0
H150 H 0.90288 0.45502 0.63929 0.0
H151 H 0.91811 0.41759 0.69975 0.0
C152 C 0.83474 0.23946 0.52343 0.0
N153 N 0.8609 0.24915 0.57197 0.0
N154 N 0.87714 0.28739 0.56232 0.0
C155 C 0.86174 0.30346 0.50813 0.0
C156 C 0.8342 0.27374 0.48138 0.0
C157 C 0.80907 0.19922 0.5195 0.0
H158 H 0.79068 0.19482 0.56387 0.0
H159 H 0.7868 0.19983 0.47896 0.0
H160 H 0.83107 0.17163 0.5147 0.0
O161 O 0.93775 0.20977 0.65795 0.0
O162 O 0.96165 0.27542 0.64481 0.0
H163 H 0.90842 0.346 0.46959 0.0
H164 H 0.85572 0.35488 0.43953 0.0
C165 C 0.87402 0.34633 0.48223 0.0
H166 H 0.8691 0.37112 0.5189 0.0
H167 H 0.98193 0.32454 0.53287 0.0
O168 O 0.8498 0.16274 0.65019 0.0
C169 C 0.96843 0.23644 0.65661 0.0
Co170 Co 0.79366 0.87546 0.65866 0.0
Co171 Co 0.70282 0.91186 0.63655 0.0
C172 C 0.71861 0.85697 0.74772 0.0
O173 O 0.7581 0.85351 0.73215 0.0
O174 O 0.69244 0.87855 0.71432 0.0
C175 C 0.86709 0.82201 0.69186 0.0
O176 O 0.84156 0.80036 0.72946 0.0
C177 C 0.61337 0.94108 0.61789 0.0
C178 C 0.62651 0.99211 0.54802 0.0
C179 C 0.59421 0.97373 0.58353 0.0
N180 N 0.6552 0.94091 0.60344 0.0
N181 N 0.6627 0.97137 0.56171 0.0
C182 C 0.59282 0.90942 0.66132 0.0
H183 H 0.60885 0.87795 0.65657 0.0
H184 H 0.55821 0.90602 0.65118 0.0
H185 H 0.59703 0.92021 0.71069 0.0
C186 C 0.77584 0.83597 0.53236 0.0
N187 N 0.76593 0.86169 0.58141 0.0
N188 N 0.72715 0.87674 0.57335 0.0
C189 C 0.71086 0.86079 0.51965 0.0
C190 C 0.74103 0.83423 0.49181 0.0
C191 C 0.81682 0.81176 0.52662 0.0
H192 H 0.82029 0.79038 0.568 0.0
H193 H 0.81792 0.7925 0.48276 0.0
H194 H 0.84402 0.83458 0.52718 0.0
O195 O 0.80445 0.9382 0.66734 0.0
O196 O 0.73827 0.96094 0.65824 0.0
H197 H 0.66666 0.90528 0.48054 0.0
H198 H 0.65825 0.8515 0.4543 0.0
C199 C 0.66723 0.87133 0.49538 0.0
H200 H 0.64327 0.86703 0.53356 0.0
H201 H 0.6929 0.97848 0.5434 0.0
O202 O 0.85207 0.85194 0.65836 0.0
C203 C 0.77735 0.96833 0.66827 0.0
Co204 Co 0.13919 0.79492 0.65652 0.0
Co205 Co 0.10355 0.70297 0.63787 0.0
C206 C 0.16038 0.71908 0.74441 0.0
O207 O 0.1637 0.75866 0.72873 0.0
O208 O 0.13719 0.6933 0.71293 0.0
C209 C 0.20146 0.86473 0.65903 0.0
O210 O 0.2308 0.83487 0.66277 0.0
C211 C 0.07206 0.61382 0.62023 0.0
C212 C 0.02776 0.6256 0.54114 0.0
C213 C 0.04155 0.59437 0.58233 0.0
N214 N 0.07532 0.65496 0.60276 0.0
N215 N 0.04893 0.66162 0.55534 0.0
C216 C 0.09936 0.59368 0.66946 0.0
H217 H 0.13218 0.60699 0.66632 0.0
H218 H 0.10059 0.55844 0.6638 0.0
H219 H 0.08617 0.60155 0.71664 0.0
C220 C 0.17218 0.77635 0.52404 0.0
N221 N 0.15076 0.76701 0.57796 0.0
N222 N 0.13951 0.72665 0.57635 0.0
C223 C 0.15628 0.70797 0.52529 0.0
C224 C 0.17647 0.73884 0.48834 0.0
C225 C 0.18526 0.82066 0.50585 0.0
H226 H 0.16415 0.84441 0.52909 0.0
H227 H 0.2185 0.8265 0.5217 0.0
H228 H 0.18377 0.82493 0.454 0.0
O229 O 0.077 0.8046 0.66836 0.0
O230 O 0.05414 0.73839 0.65887 0.0
H231 H 0.12723 0.64976 0.49324 0.0
H232 H 0.18485 0.65041 0.48746 0.0
C233 C 0.15705 0.66038 0.51656 0.0
H234 H 0.15879 0.64432 0.56309 0.0
H235 H 0.04474 0.6912 0.53352 0.0
O236 O 0.16247 0.85383 0.65633 0.0
C237 C 0.04677 0.77753 0.66879 0.0
Co238 Co 0.22215 0.13916 0.64474 0.0
Co239 Co 0.31519 0.10825 0.61816 0.0
C240 C 0.29621 0.15567 0.73606 0.0
O241 O 0.25663 0.15915 0.72122 0.0
O242 O 0.32293 0.13712 0.69959 0.0
C243 C 0.14732 0.18884 0.68378 0.0
O244 O 0.17259 0.20628 0.72583 0.0
C245 C 0.40423 0.07778 0.60579 0.0
C246 C 0.39562 0.03394 0.52502 0.0
C247 C 0.4248 0.04673 0.56995 0.0
N248 N 0.3644 0.08224 0.58354 0.0
N249 N 0.35962 0.05613 0.53517 0.0
C250 C 0.42178 0.10347 0.65908 0.0
H251 H 0.40736 0.13585 0.6592 0.0
H252 H 0.45711 0.10603 0.65567 0.0
H253 H 0.41313 0.08767 0.70408 0.0
C254 C 0.23903 0.1833 0.51983 0.0
N255 N 0.25022 0.15752 0.56823 0.0
N256 N 0.29005 0.14542 0.55963 0.0
C257 C 0.30582 0.16365 0.50701 0.0
C258 C 0.27411 0.18826 0.47963 0.0
C259 C 0.19608 0.20362 0.51342 0.0
H260 H 0.18949 0.2235 0.55562 0.0
H261 H 0.19426 0.22378 0.47047 0.0
H262 H 0.17121 0.17831 0.51161 0.0
O263 O 0.21424 0.07521 0.64804 0.0
O264 O 0.2812 0.05749 0.63195 0.0
H265 H 0.35106 0.12512 0.45746 0.0
H266 H 0.36047 0.18129 0.44881 0.0
C267 C 0.35018 0.15621 0.48244 0.0
H268 H 0.37308 0.15505 0.5221 0.0
H269 H 0.33102 0.05219 0.51072 0.0
O270 O 0.16246 0.16131 0.64589 0.0
C271 C 0.24299 0.04674 0.64264 0.0
C272 C 0.48649 0.97138 0.14063 0.0
C273 C 0.53108 0.9685 0.13297 0.0
C274 C 0.4658 0.01098 0.13842 0.0
C275 C 0.48931 0.04871 0.12964 0.0
H276 H 0.46774 0.94298 0.1505 0.0
H277 H 0.43167 0.01234 0.14715 0.0
S278 S 0.60614 0.05803 0.104 0.0
N279 N 0.59767 1.00625 0.11306 0.0
N280 N 0.55876 0.08096 0.1099 0.0
C281 C 0.53357 0.0461 0.1194 0.0
C282 C 0.55453 1.0058 0.12074 0.0
C283 C 0.96891 0.53371 0.16194 0.0
C284 C 0.96561 0.49436 0.1304 0.0
C285 C 1.00643 0.55791 0.15897 0.0
C286 C 0.04177 0.5438 0.12391 0.0
H287 H 0.94275 0.54529 0.19084 0.0
H288 H 0.00841 0.58709 0.18629 0.0
S289 S 0.04987 0.44295 0.03342 0.0
N290 N 1.00101 0.44224 0.06325 0.0
N291 N 0.07155 0.48837 0.05687 0.0
C292 C 0.03854 0.50535 0.09024 0.0
C293 C 1.00036 0.48042 0.09365 0.0
C294 C 1.00096 0.48786 0.52479 0.0
C295 C 0.98875 0.46683 0.58052 0.0
C296 C 0.01834 0.52899 0.52627 0.0
C297 C 0.02476 0.55035 0.58362 0.0
H298 H 0.99711 0.47232 0.47955 0.0
H299 H 0.02721 0.54406 0.48211 0.0
S300 S 0.99802 0.50933 0.743 0.0
N301 N 0.98526 0.4699 0.69494 0.0
N302 N 0.01578 0.54837 0.69748 0.0
C303 C 0.01229 0.52995 0.6398 0.0
C304 C 0.99479 0.48784 0.63831 0.0
C305 C 0.53202 1.00127 0.52486 0.0
C306 C 0.54972 0.98908 0.58286 0.0
C307 C 0.49175 0.0202 0.52173 0.0
C308 C 0.46777 0.02809 0.57653 0.0
H309 H 0.54964 0.99643 0.48137 0.0
H310 H 0.47949 0.02919 0.47594 0.0
S311 S 0.49899 1.00098 0.74013 0.0
N312 N 0.54043 0.98664 0.69664 0.0
N313 N 0.4632 0.01964 0.69033 0.0
C314 C 0.48454 0.01522 0.63487 0.0
C315 C 0.52595 0.9963 0.63815 0.0
C316 C 0.25423 0.47002 0.06747 0.0
C317 C 0.28613 0.50124 0.07692 0.0
C318 C 0.26453 0.42668 0.06017 0.0
C319 C 0.30715 0.41254 0.06242 0.0
H320 H 0.22087 0.47905 0.06512 0.0
H321 H 0.23872 0.4041 0.0531 0.0
S322 S 0.4029 0.48109 0.08654 0.0
N323 N 0.36232 0.51469 0.08839 0.0
N324 N 0.38167 0.43345 0.0749 0.0
C325 C 0.33943 0.44335 0.07209 0.0
C326 C 0.32894 0.48756 0.07924 0.0
C327 C 0.5294 0.32724 0.07096 0.0
C328 C 0.51552 0.28469 0.06444 0.0
C329 C 0.57309 0.33785 0.06808 0.0
C330 C 0.60469 0.30646 0.05773 0.0
H331 H 0.50646 0.35249 0.07947 0.0
H332 H 0.5821 0.37105 0.07396 0.0
S333 S 0.58524 0.19033 0.03566 0.0
N334 N 0.53721 0.21093 0.04576 0.0
N335 N 0.61871 0.231 0.0401 0.0
C336 C 0.59118 0.2639 0.05013 0.0
C337 C 0.54683 0.25301 0.05356 0.0
C338 C 0.68057 0.57245 0.08023 0.0
C339 C 0.71205 0.60413 0.07043 0.0
C340 C 0.69117 0.52887 0.08312 0.0
C341 C 0.73379 0.51512 0.07714 0.0
H342 H 0.64729 0.58129 0.08547 0.0
H343 H 0.66577 0.50586 0.09084 0.0
S344 S 0.82846 0.58512 0.05049 0.0
N345 N 0.78774 0.61846 0.05433 0.0
N346 N 0.80778 0.53701 0.0601 0.0
C347 C 0.76562 0.54651 0.0672 0.0
C348 C 0.75475 0.59081 0.06373 0.0
C349 C 0.44489 0.67951 0.08418 0.0
C350 C 0.41307 0.71134 0.08737 0.0
C351 C 0.48853 0.68988 0.08618 0.0
C352 C 0.50227 0.73252 0.09177 0.0
H353 H 0.43611 0.64615 0.07969 0.0
H354 H 0.51161 0.66419 0.08332 0.0
S355 S 0.43173 0.82804 0.10342 0.0
N356 N 0.39845 0.78732 0.09738 0.0
N357 N 0.48001 0.80701 0.10129 0.0
C358 C 0.47067 0.76472 0.09544 0.0
C359 C 0.42628 0.7541 0.09319 0.0
C360 C 0.82957 0.02847 0.65477 0.0
C361 C 0.79066 0.01312 0.67917 0.0
C362 C 0.84028 0.07197 0.65894 0.0
C363 C 0.81292 0.10148 0.68894 0.0
H364 H 0.85122 1.00704 0.63045 0.0
H365 H 0.87028 0.08254 0.63851 0.0
S366 S 0.70836 0.07678 0.76364 0.0
N367 N 0.72526 0.03044 0.73607 0.0
N368 N 0.74592 0.11182 0.74522 0.0
C369 C 0.77456 0.08622 0.71525 0.0
C370 C 0.76329 0.04215 0.70999 0.0
C371 C 0.97151 0.76099 0.70014 0.0
C372 C 1.00188 0.79101 0.67855 0.0
C373 C 0.92815 0.77152 0.7056 0.0
C374 C 0.91333 0.81224 0.68858 0.0
H375 H 0.98124 0.72887 0.71259 0.0
H376 H 0.90599 0.74722 0.72184 0.0
S377 S 0.97989 0.90295 0.6314 0.0
N378 N 0.01423 0.86364 0.64203 0.0
N379 N 0.93269 0.8834 0.65138 0.0
C380 C 0.94343 0.84284 0.66788 0.0
C381 C 0.98771 0.83227 0.66322 0.0
C382 C 0.19054 0.98607 0.65474 0.0
C383 C 0.23298 1.00027 0.64814 0.0
C384 C 0.18079 0.9423 0.65853 0.0
C385 C 0.21305 0.91085 0.65618 0.0
H386 H 0.16454 0.00885 0.65652 0.0
H387 H 0.14752 0.93314 0.66327 0.0
S388 S 0.32956 0.93088 0.6398 0.0
N389 N 0.30785 0.97885 0.63996 0.0
N390 N 0.28927 0.89715 0.64707 0.0
C391 C 0.25564 0.92457 0.65008 0.0
C392 C 0.26564 0.96905 0.64605 0.0
C393 C 0.02832 0.18345 0.64666 0.0
C394 C 0.0131 0.223 0.66844 0.0
C395 C 0.07177 0.17265 0.65191 0.0
C396 C 0.10139 0.20062 0.68034 0.0
H397 H 1.00686 0.16131 0.62354 0.0
H398 H 0.08222 0.14214 0.63338 0.0
S399 S 0.07686 0.30701 0.74854 0.0
N400 N 0.03059 0.28957 0.72166 0.0
N401 N 0.11174 0.26896 0.73257 0.0
C402 C 0.08617 0.23967 0.70412 0.0
C403 C 0.04219 0.25092 0.69787 0.0
C404 C 0.32156 0.25566 0.3492 0.0
C405 C 0.30427 0.23646 0.29521 0.0
C406 C 0.30825 0.24298 0.40974 0.0
C407 C 0.27751 0.21053 0.41807 0.0
H408 H 0.34778 0.27814 0.34473 0.0
H409 H 0.32453 0.25619 0.45026 0.0
S410 S 0.21825 0.15501 0.29159 0.0
N411 N 0.25111 0.18759 0.25366 0.0
N412 N 0.22684 0.16307 0.36742 0.0
C413 C 0.25733 0.19398 0.36449 0.0
C414 C 0.27062 0.2071 0.30295 0.0
C415 C 0.76807 0.32517 0.35288 0.0
C416 C 0.78044 0.30209 0.29906 0.0
C417 C 0.78278 0.31357 0.41297 0.0
C418 C 0.81058 0.27868 0.42117 0.0
H419 H 0.74958 0.35422 0.34796 0.0
H420 H 0.77471 0.33373 0.45275 0.0
S421 S 0.84757 0.2047 0.29627 0.0
N422 N 0.81788 0.23998 0.25859 0.0
N423 N 0.84619 0.21865 0.37133 0.0
C424 C 0.82025 0.25335 0.36847 0.0
C425 C 0.80507 0.26502 0.30737 0.0
C426 C 0.75913 0.82357 0.37808 0.0
C427 C 0.73616 0.81053 0.43179 0.0
C428 C 0.74747 0.80921 0.3178 0.0
C429 C 0.71252 0.78141 0.30951 0.0
H430 H 0.78421 0.84731 0.38222 0.0
H431 H 0.76391 0.82227 0.27708 0.0
S432 S 0.64597 0.7337 0.43605 0.0
N433 N 0.68028 0.76457 0.47371 0.0
N434 N 0.65792 0.73822 0.36043 0.0
C435 C 0.6917 0.76547 0.36329 0.0
C436 C 0.70364 0.77993 0.42453 0.0
C437 C 0.16814 0.70317 0.38506 0.0
C438 C 0.19152 0.73185 0.42221 0.0
C439 C 0.18302 0.68941 0.32686 0.0
C440 C 0.21956 0.7072 0.29825 0.0
H441 H 0.13821 0.68987 0.40165 0.0
H442 H 0.16551 0.66373 0.30493 0.0
S443 S 0.29042 0.78826 0.37171 0.0
N444 N 0.25408 0.77809 0.42645 0.0
N445 N 0.27746 0.75865 0.31026 0.0
C446 C 0.24223 0.73833 0.33278 0.0
C447 C 0.22888 0.74974 0.3956 0.0
C448 C 0.65189 0.84012 0.89564 0.0
C449 C 0.67199 0.80571 0.92627 0.0
C450 C 0.66669 0.85555 0.83755 0.0
C451 C 0.70284 0.83783 0.80779 0.0
H452 H 0.6243 0.85545 0.91672 0.0
H453 H 0.6501 0.88234 0.81658 0.0
S454 S 0.76661 0.74642 0.86727 0.0
N455 N 0.7293 0.75346 0.92159 0.0
N456 N 0.75781 0.78303 0.81274 0.0
C457 C 0.7231 0.80306 0.83746 0.0
C458 C 0.70747 0.78681 0.89644 0.0
C459 C 0.20694 0.72919 0.84072 0.0
C460 C 0.18299 0.70209 0.80098 0.0
C461 C 0.22532 0.71376 0.89687 0.0
C462 C 0.22015 0.67083 0.91497 0.0
H463 H 0.21041 0.76279 0.8295 0.0
H464 H 0.24167 0.73591 0.92769 0.0
S465 S 0.16494 0.5855 0.82582 0.0
N466 N 0.15887 0.62889 0.78272 0.0
N467 N 0.19283 0.60085 0.88748 0.0
C468 C 0.19835 0.64311 0.8745 0.0
C469 C 0.17992 0.65847 0.81773 0.0
C470 C 0.29246 0.20691 0.82844 0.0
C471 C 0.31196 0.17195 0.79787 0.0
C472 C 0.3085 0.223 0.88585 0.0
C473 C 0.34413 0.2042 0.91536 0.0
H474 H 0.265 0.22231 0.80747 0.0
H475 H 0.29253 0.2499 0.90768 0.0
S476 S 0.40641 0.11168 0.85511 0.0
N477 N 0.36846 0.11879 0.80253 0.0
N478 N 0.39868 0.14911 0.90857 0.0
C479 C 0.36371 0.16923 0.88514 0.0
C480 C 0.34762 0.1531 0.82702 0.0
C481 C 0.80773 0.29309 0.83154 0.0
C482 C 0.84161 0.31361 0.79932 0.0
C483 C 0.79164 0.30917 0.88914 0.0
C484 C 0.80932 0.34595 0.9172 0.0
H485 H 0.79347 0.26445 0.81213 0.0
H486 H 0.76593 0.29211 0.91256 0.0
S487 S 0.89772 0.41215 0.85182 0.0
N488 N 0.89187 0.37306 0.80052 0.0
N489 N 0.86135 0.40325 0.90676 0.0
C490 C 0.84271 0.36693 0.88496 0.0
C491 C 0.85891 0.3508 0.82669 0.0
loop_
_geom_bond_atom_site_label_1
_geom_bond_atom_site_label_2
_geom_bond_distance
_geom_bond_site_symmetry_2
_ccdc_geom_bond_type
Co0 O3 1.970 1_554 S
Co0 N17 1.989 . S
Co0 O25 1.967 . S
Co0 O32 1.920 . S
Co1 O4 1.966 1_554 S
Co1 N10 2.022 . S
Co1 N18 1.993 . S
Co1 O26 1.941 . S
C2 O3 1.258 . S
C2 O4 1.263 . S
O3 Co0 1.970 1_556 S
O3 C2 1.258 . S
O4 Co1 1.966 1_556 S
O4 C2 1.263 . S
C5 O6 1.235 . S
C5 O32 1.289 . S
O6 C5 1.235 . S
C7 C9 1.400 . S
C7 N10 1.351 . S
C7 C12 1.501 1_554 S
C8 C9 1.387 . S
C8 N11 1.341 . S
C9 C7 1.400 . S
C9 C8 1.387 . S
N10 Co1 2.022 . S
N10 C7 1.351 . S
N10 N11 1.365 . S
N11 C8 1.341 . S
N11 N10 1.365 . S
N11 H31 0.862 . S
C12 C7 1.501 1_556 S
C12 H13 0.961 . S
C12 H14 0.961 . S
C12 H15 0.960 . S
H13 C12 0.961 . S
H14 C12 0.961 . S
H15 C12 0.960 . S
C16 N17 1.342 . S
C16 C20 1.401 . S
C16 C21 1.499 . S
N17 Co0 1.989 . S
N17 C16 1.342 . S
N17 N18 1.388 . S
N18 Co1 1.993 . S
N18 N17 1.388 . S
N18 C19 1.346 . S
C19 N18 1.346 . S
C19 C20 1.396 . S
C19 C29 1.510 . S
C20 C16 1.401 . S
C20 C19 1.396 . S
C21 C16 1.499 . S
C21 H22 0.959 . S
C21 H23 0.960 . S
C21 H24 0.961 . S
H22 C21 0.959 . S
H23 C21 0.960 . S
H24 C21 0.961 . S
O25 Co0 1.967 . S
O25 C33 1.258 . S
O26 Co1 1.941 . S
O26 C33 1.266 . S
H27 C29 0.959 . S
H28 C29 0.961 . S
C29 C19 1.510 . S
C29 H27 0.959 . S
C29 H28 0.961 . S
C29 H30 0.960 . S
H30 C29 0.960 . S
H31 N11 0.862 . S
O32 Co0 1.920 . S
O32 C5 1.289 . S
C33 O25 1.258 . S
C33 O26 1.266 . S
Co34 O37 1.970 1_554 S
Co34 N51 1.989 . S
Co34 O59 1.967 . S
Co34 O66 1.920 . S
Co35 O38 1.966 1_554 S
Co35 N44 2.022 . S
Co35 N52 1.993 . S
Co35 O60 1.941 . S
C36 O37 1.258 . S
C36 O38 1.263 . S
O37 Co34 1.970 1_556 S
O37 C36 1.258 . S
O38 Co35 1.966 1_556 S
O38 C36 1.263 . S
C39 O40 1.235 . S
C39 O66 1.289 . S
O40 C39 1.235 . S
C41 C43 1.400 . S
C41 N44 1.351 . S
C41 C46 1.501 1_554 S
C42 C43 1.387 . S
C42 N45 1.341 . S
C43 C41 1.400 . S
C43 C42 1.387 . S
N44 Co35 2.022 . S
N44 C41 1.351 . S
N44 N45 1.365 . S
N45 C42 1.341 . S
N45 N44 1.365 . S
N45 H65 0.862 . S
C46 C41 1.501 1_556 S
C46 H47 0.961 . S
C46 H48 0.961 . S
C46 H49 0.960 . S
H47 C46 0.961 . S
H48 C46 0.961 . S
H49 C46 0.960 . S
C50 N51 1.342 . S
C50 C54 1.401 . S
C50 C55 1.499 . S
N51 Co34 1.989 . S
N51 C50 1.342 . S
N51 N52 1.388 . S
N52 Co35 1.993 . S
N52 N51 1.388 . S
N52 C53 1.346 . S
C53 N52 1.346 . S
C53 C54 1.396 . S
C53 C63 1.510 . S
C54 C50 1.401 . S
C54 C53 1.396 . S
C55 C50 1.499 . S
C55 H56 0.959 . S
C55 H57 0.960 . S
C55 H58 0.961 . S
H56 C55 0.959 . S
H57 C55 0.960 . S
H58 C55 0.961 . S
O59 Co34 1.967 . S
O59 C67 1.258 . S
O60 Co35 1.941 . S
O60 C67 1.266 . S
H61 C63 0.959 . S
H62 C63 0.961 . S
C63 C53 1.510 . S
C63 H61 0.959 . S
C63 H62 0.961 . S
C63 H64 0.960 . S
H64 C63 0.960 . S
H65 N45 0.862 . S
O66 Co34 1.920 . S
O66 C39 1.289 . S
C67 O59 1.258 . S
C67 O60 1.266 . S
Co68 O71 1.970 1_554 S
Co68 N85 1.989 . S
Co68 O93 1.967 . S
Co68 O100 1.920 . S
Co69 O72 1.966 1_554 S
Co69 N78 2.022 . S
Co69 N86 1.993 . S
Co69 O94 1.941 . S
C70 O71 1.258 . S
C70 O72 1.263 . S
O71 Co68 1.970 1_556 S
O71 C70 1.258 . S
O72 Co69 1.966 1_556 S
O72 C70 1.263 . S
C73 O74 1.235 . S
C73 O100 1.289 . S
O74 C73 1.235 . S
C75 C77 1.400 . S
C75 N78 1.351 . S
C75 C80 1.501 1_554 S
C76 C77 1.387 . S
C76 N79 1.341 . S
C77 C75 1.400 . S
C77 C76 1.387 . S
N78 Co69 2.022 . S
N78 C75 1.351 . S
N78 N79 1.365 . S
N79 C76 1.341 . S
N79 N78 1.365 . S
N79 H99 0.862 . S
C80 C75 1.501 1_556 S
C80 H81 0.961 . S
C80 H82 0.961 . S
C80 H83 0.960 . S
H81 C80 0.961 . S
H82 C80 0.961 . S
H83 C80 0.960 . S
C84 N85 1.342 . S
C84 C88 1.401 . S
C84 C89 1.499 . S
N85 Co68 1.989 . S
N85 C84 1.342 . S
N85 N86 1.388 . S
N86 Co69 1.993 . S
N86 N85 1.388 . S
N86 C87 1.346 . S
C87 N86 1.346 . S
C87 C88 1.396 . S
C87 C97 1.510 . S
C88 C84 1.401 . S
C88 C87 1.396 . S
C89 C84 1.499 . S
C89 H90 0.959 . S
C89 H91 0.960 . S
C89 H92 0.961 . S
H90 C89 0.959 . S
H91 C89 0.960 . S
H92 C89 0.961 . S
O93 Co68 1.967 . S
O93 C101 1.258 . S
O94 Co69 1.941 . S
O94 C101 1.266 . S
H95 C97 0.959 . S
H96 C97 0.961 . S
C97 C87 1.510 . S
C97 H95 0.959 . S
C97 H96 0.961 . S
C97 H98 0.960 . S
H98 C97 0.960 . S
H99 N79 0.862 . S
O100 Co68 1.920 . S
O100 C73 1.289 . S
C101 O93 1.258 . S
C101 O94 1.266 . S
Co102 O105 1.970 1_554 S
Co102 N119 1.989 . S
Co102 O127 1.967 . S
Co102 O134 1.920 . S
Co103 O106 1.966 1_554 S
Co103 N112 2.022 . S
Co103 N120 1.993 . S
Co103 O128 1.941 . S
C104 O105 1.258 . S
C104 O106 1.263 . S
O105 Co102 1.970 1_556 S
O105 C104 1.258 . S
O106 Co103 1.966 1_556 S
O106 C104 1.263 . S
C107 O108 1.235 . S
C107 O134 1.289 . S
O108 C107 1.235 . S
C109 C111 1.400 . S
C109 N112 1.351 . S
C109 C114 1.501 1_554 S
C110 C111 1.387 . S
C110 N113 1.341 . S
C111 C109 1.400 . S
C111 C110 1.387 . S
N112 Co103 2.022 . S
N112 C109 1.351 . S
N112 N113 1.365 . S
N113 C110 1.341 . S
N113 N112 1.365 . S
N113 H133 0.862 . S
C114 C109 1.501 1_556 S
C114 H115 0.961 . S
C114 H116 0.961 . S
C114 H117 0.960 . S
H115 C114 0.961 . S
H116 C114 0.961 . S
H117 C114 0.960 . S
C118 N119 1.342 . S
C118 C122 1.401 . S
C118 C123 1.499 . S
N119 Co102 1.989 . S
N119 C118 1.342 . S
N119 N120 1.388 . S
N120 Co103 1.993 . S
N120 N119 1.388 . S
N120 C121 1.346 . S
C121 N120 1.346 . S
C121 C122 1.396 . S
C121 C131 1.510 . S
C122 C118 1.401 . S
C122 C121 1.396 . S
C123 C118 1.499 . S
C123 H124 0.959 . S
C123 H125 0.960 . S
C123 H126 0.961 . S
H124 C123 0.959 . S
H125 C123 0.960 . S
H126 C123 0.961 . S
O127 Co102 1.967 . S
O127 C135 1.258 . S
O128 Co103 1.941 . S
O128 C135 1.266 . S
H129 C131 0.959 . S
H130 C131 0.961 . S
C131 C121 1.510 . S
C131 H129 0.959 . S
C131 H130 0.961 . S
C131 H132 0.960 . S
H132 C131 0.960 . S
H133 N113 0.862 . S
O134 Co102 1.920 . S
O134 C107 1.289 . S
C135 O127 1.258 . S
C135 O128 1.266 . S
Co136 O139 1.970 . S
Co136 N153 1.989 . S
Co136 O161 1.967 . S
Co136 O168 1.920 . S
Co137 O140 1.966 . S
Co137 N146 2.022 . S
Co137 N154 1.993 . S
Co137 O162 1.941 . S
C138 O139 1.258 . S
C138 O140 1.263 . S
O139 Co136 1.970 . S
O139 C138 1.258 . S
O140 Co137 1.966 . S
O140 C138 1.263 . S
C141 O142 1.235 . S
C141 O168 1.289 . S
O142 C141 1.235 . S
C143 C145 1.400 . S
C143 N146 1.351 . S
C143 C148 1.501 . S
C144 C145 1.387 . S
C144 N147 1.341 . S
C145 C143 1.400 . S
C145 C144 1.387 . S
N146 Co137 2.022 . S
N146 C143 1.351 . S
N146 N147 1.365 . S
N147 C144 1.341 . S
N147 N146 1.365 . S
N147 H167 0.862 . S
C148 C143 1.501 . S
C148 H149 0.961 . S
C148 H150 0.961 . S
C148 H151 0.960 . S
H149 C148 0.961 . S
H150 C148 0.961 . S
H151 C148 0.960 . S
C152 N153 1.342 . S
C152 C156 1.401 . S
C152 C157 1.499 . S
N153 Co136 1.989 . S
N153 C152 1.342 . S
N153 N154 1.388 . S
N154 Co137 1.993 . S
N154 N153 1.388 . S
N154 C155 1.346 . S
C155 N154 1.346 . S
C155 C156 1.396 . S
C155 C165 1.510 . S
C156 C152 1.401 . S
C156 C155 1.396 . S
C157 C152 1.499 . S
C157 H158 0.959 . S
C157 H159 0.960 . S
C157 H160 0.961 . S
H158 C157 0.959 . S
H159 C157 0.960 . S
H160 C157 0.961 . S
O161 Co136 1.967 . S
O161 C169 1.258 . S
O162 Co137 1.941 . S
O162 C169 1.266 . S
H163 C165 0.959 . S
H164 C165 0.961 . S
C165 C155 1.510 . S
C165 H163 0.959 . S
C165 H164 0.961 . S
C165 H166 0.960 . S
H166 C165 0.960 . S
H167 N147 0.862 . S
O168 Co136 1.920 . S
O168 C141 1.289 . S
C169 O161 1.258 . S
C169 O162 1.266 . S
Co170 O173 1.970 . S
Co170 N187 1.989 . S
Co170 O195 1.967 . S
Co170 O202 1.920 . S
Co171 O174 1.966 . S
Co171 N180 2.022 . S
Co171 N188 1.993 . S
Co171 O196 1.941 . S
C172 O173 1.258 . S
C172 O174 1.263 . S
O173 Co170 1.970 . S
O173 C172 1.258 . S
O174 Co171 1.966 . S
O174 C172 1.263 . S
C175 O176 1.235 . S
C175 O202 1.289 . S
O176 C175 1.235 . S
C177 C179 1.400 . S
C177 N180 1.351 . S
C177 C182 1.501 . S
C178 C179 1.387 . S
C178 N181 1.341 . S
C179 C177 1.400 . S
C179 C178 1.387 . S
N180 Co171 2.022 . S
N180 C177 1.351 . S
N180 N181 1.365 . S
N181 C178 1.341 . S
N181 N180 1.365 . S
N181 H201 0.862 . S
C182 C177 1.501 . S
C182 H183 0.961 . S
C182 H184 0.961 . S
C182 H185 0.960 . S
H183 C182 0.961 . S
H184 C182 0.961 . S
H185 C182 0.960 . S
C186 N187 1.342 . S
C186 C190 1.401 . S
C186 C191 1.499 . S
N187 Co170 1.989 . S
N187 C186 1.342 . S
N187 N188 1.388 . S
N188 Co171 1.993 . S
N188 N187 1.388 . S
N188 C189 1.346 . S
C189 N188 1.346 . S
C189 C190 1.396 . S
C189 C199 1.510 . S
C190 C186 1.401 . S
C190 C189 1.396 . S
C191 C186 1.499 . S
C191 H192 0.959 . S
C191 H193 0.960 . S
C191 H194 0.961 . S
H192 C191 0.959 . S
H193 C191 0.960 . S
H194 C191 0.961 . S
O195 Co170 1.967 . S
O195 C203 1.258 . S
O196 Co171 1.941 . S
O196 C203 1.266 . S
H197 C199 0.959 . S
H198 C199 0.961 . S
C199 C189 1.510 . S
C199 H197 0.959 . S
C199 H198 0.961 . S
C199 H200 0.960 . S
H200 C199 0.960 . S
H201 N181 0.862 . S
O202 Co170 1.920 . S
O202 C175 1.289 . S
C203 O195 1.258 . S
C203 O196 1.266 . S
Co204 O207 1.970 . S
Co204 N221 1.989 . S
Co204 O229 1.967 . S
Co204 O236 1.920 . S
Co205 O208 1.966 . S
Co205 N214 2.022 . S
Co205 N222 1.993 . S
Co205 O230 1.941 . S
C206 O207 1.258 . S
C206 O208 1.263 . S
O207 Co204 1.970 . S
O207 C206 1.258 . S
O208 Co205 1.966 . S
O208 C206 1.263 . S
C209 O210 1.235 . S
C209 O236 1.289 . S
O210 C209 1.235 . S
C211 C213 1.400 . S
C211 N214 1.351 . S
C211 C216 1.501 . S
C212 C213 1.387 . S
C212 N215 1.341 . S
C213 C211 1.400 . S
C213 C212 1.387 . S
N214 Co205 2.022 . S
N214 C211 1.351 . S
N214 N215 1.365 . S
N215 C212 1.341 . S
N215 N214 1.365 . S
N215 H235 0.862 . S
C216 C211 1.501 . S
C216 H217 0.961 . S
C216 H218 0.961 . S
C216 H219 0.960 . S
H217 C216 0.961 . S
H218 C216 0.961 . S
H219 C216 0.960 . S
C220 N221 1.342 . S
C220 C224 1.401 . S
C220 C225 1.499 . S
N221 Co204 1.989 . S
N221 C220 1.342 . S
N221 N222 1.388 . S
N222 Co205 1.993 . S
N222 N221 1.388 . S
N222 C223 1.346 . S
C223 N222 1.346 . S
C223 C224 1.396 . S
C223 C233 1.510 . S
C224 C220 1.401 . S
C224 C223 1.396 . S
C225 C220 1.499 . S
C225 H226 0.959 . S
C225 H227 0.960 . S
C225 H228 0.961 . S
H226 C225 0.959 . S
H227 C225 0.960 . S
H228 C225 0.961 . S
O229 Co204 1.967 . S
O229 C237 1.258 . S
O230 Co205 1.941 . S
O230 C237 1.266 . S
H231 C233 0.959 . S
H232 C233 0.961 . S
C233 C223 1.510 . S
C233 H231 0.959 . S
C233 H232 0.961 . S
C233 H234 0.960 . S
H234 C233 0.960 . S
H235 N215 0.862 . S
O236 Co204 1.920 . S
O236 C209 1.289 . S
C237 O229 1.258 . S
C237 O230 1.266 . S
Co238 O241 1.970 . S
Co238 N255 1.989 . S
Co238 O263 1.967 . S
Co238 O270 1.920 . S
Co239 O242 1.966 . S
Co239 N248 2.022 . S
Co239 N256 1.993 . S
Co239 O264 1.941 . S
C240 O241 1.258 . S
C240 O242 1.263 . S
O241 Co238 1.970 . S
O241 C240 1.258 . S
O242 Co239 1.966 . S
O242 C240 1.263 . S
C243 O244 1.235 . S
C243 O270 1.289 . S
O244 C243 1.235 . S
C245 C247 1.400 . S
C245 N248 1.351 . S
C245 C250 1.501 . S
C246 C247 1.387 . S
C246 N249 1.341 . S
C247 C245 1.400 . S
C247 C246 1.387 . S
N248 Co239 2.022 . S
N248 C245 1.351 . S
N248 N249 1.365 . S
N249 C246 1.341 . S
N249 N248 1.365 . S
N249 H269 0.862 . S
C250 C245 1.501 . S
C250 H251 0.961 . S
C250 H252 0.961 . S
C250 H253 0.960 . S
H251 C250 0.961 . S
H252 C250 0.961 . S
H253 C250 0.960 . S
C254 N255 1.342 . S
C254 C258 1.401 . S
C254 C259 1.499 . S
N255 Co238 1.989 . S
N255 C254 1.342 . S
N255 N256 1.388 . S
N256 Co239 1.993 . S
N256 N255 1.388 . S
N256 C257 1.346 . S
C257 N256 1.346 . S
C257 C258 1.396 . S
C257 C267 1.510 . S
C258 C254 1.401 . S
C258 C257 1.396 . S
C259 C254 1.499 . S
C259 H260 0.959 . S
C259 H261 0.960 . S
C259 H262 0.961 . S
H260 C259 0.959 . S
H261 C259 0.960 . S
H262 C259 0.961 . S
O263 Co238 1.967 . S
O263 C271 1.258 . S
O264 Co239 1.941 . S
O264 C271 1.266 . S
H265 C267 0.959 . S
H266 C267 0.961 . S
C267 C257 1.510 . S
C267 H265 0.959 . S
C267 H266 0.961 . S
C267 H268 0.960 . S
H268 C267 0.960 . S
H269 N249 0.862 . S
O270 Co238 1.920 . S
O270 C243 1.289 . S
C271 O263 1.258 . S
C271 O264 1.266 . S
C272 C273 1.369 . S
C272 C274 1.419 . S
C272 H276 0.930 . S
C273 C272 1.369 . S
C273 C282 1.429 1_565 S
C274 C272 1.419 . S
C274 C275 1.363 1_565 S
C274 H277 0.929 . S
C275 C274 1.363 1_545 S
C275 C281 1.428 . S
H276 C272 0.930 . S
H277 C274 0.929 . S
S278 N279 1.613 . S
S278 N280 1.610 . S
N279 S278 1.613 . S
N279 C282 1.350 . S
N280 S278 1.610 . S
N280 C281 1.351 . S
C281 C275 1.428 . S
C281 N280 1.351 . S
C281 C282 1.434 . S
C282 C273 1.429 1_545 S
C282 N279 1.350 . S
C282 C281 1.434 . S
C283 C284 1.369 . S
C283 C285 1.419 . S
C283 H287 0.930 . S
C284 C283 1.369 . S
C284 C293 1.429 1_655 S
C285 C283 1.419 . S
C285 C286 1.363 1_655 S
C285 H288 0.929 . S
C286 C285 1.363 1_455 S
C286 C292 1.428 . S
H287 C283 0.930 . S
H288 C285 0.929 . S
S289 N290 1.613 . S
S289 N291 1.610 . S
N290 S289 1.613 . S
N290 C293 1.350 1_556 S
N291 S289 1.610 . S
N291 C292 1.351 1_556 S
C292 C286 1.428 . S
C292 N291 1.351 1_554 S
C292 C293 1.434 . S
C293 C284 1.429 1_455 S
C293 N290 1.350 1_554 S
C293 C292 1.434 . S
C294 C295 1.369 . S
C294 C296 1.419 1_655 S
C294 H298 0.930 . S
C295 C294 1.369 . S
C295 C304 1.429 . S
C296 C294 1.419 1_455 S
C296 C297 1.363 . S
C296 H299 0.929 . S
C297 C296 1.363 . S
C297 C303 1.428 . S
H298 C294 0.930 . S
H299 C296 0.929 . S
S300 N301 1.613 1_455 S
S300 N302 1.610 . S
N301 S300 1.613 1_655 S
N301 C304 1.350 . S
N302 S300 1.610 . S
N302 C303 1.351 . S
C303 C297 1.428 . S
C303 N302 1.351 . S
C303 C304 1.434 1_455 S
C304 C295 1.429 . S
C304 N301 1.350 . S
C304 C303 1.434 1_655 S
C305 C306 1.369 . S
C305 C307 1.419 1_565 S
C305 H309 0.930 . S
C306 C305 1.369 . S
C306 C315 1.429 . S
C307 C305 1.419 1_545 S
C307 C308 1.363 . S
C307 H310 0.929 . S
C308 C307 1.363 . S
C308 C314 1.428 . S
H309 C305 0.930 . S
H310 C307 0.929 . S
S311 N312 1.613 . S
S311 N313 1.610 1_565 S
N312 S311 1.613 . S
N312 C315 1.350 . S
N313 S311 1.610 1_545 S
N313 C314 1.351 . S
C314 C308 1.428 . S
C314 N313 1.351 . S
C314 C315 1.434 1_545 S
C315 C306 1.429 . S
C315 N312 1.350 . S
C315 C314 1.434 1_565 S
C316 C317 1.369 . S
C316 C318 1.419 . S
C316 H320 0.930 . S
C317 C316 1.369 . S
C317 C326 1.429 1_554 S
C318 C316 1.419 . S
C318 C319 1.363 . S
C318 H321 0.929 . S
C319 C318 1.363 . S
C319 C325 1.428 . S
H320 C316 0.930 . S
H321 C318 0.929 . S
S322 N323 1.613 . S
S322 N324 1.610 . S
N323 S322 1.613 . S
N323 C326 1.350 . S
N324 S322 1.610 . S
N324 C325 1.351 1_556 S
C325 C319 1.428 . S
C325 N324 1.351 1_554 S
C325 C326 1.434 1_554 S
C326 C317 1.429 1_556 S
C326 N323 1.350 . S
C326 C325 1.434 1_556 S
C327 C328 1.369 . S
C327 C329 1.419 . S
C327 H331 0.930 . S
C328 C327 1.369 . S
C328 C337 1.429 . S
C329 C327 1.419 . S
C329 C330 1.363 . S
C329 H332 0.929 . S
C330 C329 1.363 . S
C330 C336 1.428 . S
H331 C327 0.930 . S
H332 C329 0.929 . S
S333 N334 1.613 . S
S333 N335 1.610 . S
N334 S333 1.613 . S
N334 C337 1.350 . S
N335 S333 1.610 . S
N335 C336 1.351 . S
C336 C330 1.428 . S
C336 N335 1.351 . S
C336 C337 1.434 . S
C337 C328 1.429 . S
C337 N334 1.350 . S
C337 C336 1.434 . S
C338 C339 1.369 . S
C338 C340 1.419 1_554 S
C338 H342 0.930 1_554 S
C339 C338 1.369 . S
C339 C348 1.429 . S
C340 C338 1.419 1_556 S
C340 C341 1.363 1_556 S
C340 H343 0.929 . S
C341 C340 1.363 1_554 S
C341 C347 1.428 . S
H342 C338 0.930 1_556 S
H343 C340 0.929 . S
S344 N345 1.613 . S
S344 N346 1.610 . S
N345 S344 1.613 . S
N345 C348 1.350 . S
N346 S344 1.610 . S
N346 C347 1.351 . S
C347 C341 1.428 . S
C347 N346 1.351 . S
C347 C348 1.434 . S
C348 C339 1.429 . S
C348 N345 1.350 . S
C348 C347 1.434 . S
C349 C350 1.369 . S
C349 C351 1.419 . S
C349 H353 0.930 . S
C350 C349 1.369 . S
C350 C359 1.429 . S
C351 C349 1.419 . S
C351 C352 1.363 . S
C351 H354 0.929 1_554 S
C352 C351 1.363 . S
C352 C358 1.428 . S
H353 C349 0.930 . S
H354 C351 0.929 1_556 S
S355 N356 1.613 . S
S355 N357 1.610 . S
N356 S355 1.613 . S
N356 C359 1.350 . S
N357 S355 1.610 . S
N357 C358 1.351 . S
C358 C352 1.428 . S
C358 N357 1.351 . S
C358 C359 1.434 . S
C359 C350 1.429 . S
C359 N356 1.350 . S
C359 C358 1.434 . S
C360 C361 1.369 . S
C360 C362 1.419 . S
C360 H364 0.930 . S
C361 C360 1.369 . S
C361 C370 1.429 . S
C362 C360 1.419 . S
C362 C363 1.363 . S
C362 H365 0.929 . S
C363 C362 1.363 . S
C363 C369 1.428 . S
H364 C360 0.930 . S
H365 C362 0.929 . S
S366 N367 1.613 . S
S366 N368 1.610 . S
N367 S366 1.613 . S
N367 C370 1.350 . S
N368 S366 1.610 . S
N368 C369 1.351 . S
C369 C363 1.428 . S
C369 N368 1.351 . S
C369 C370 1.434 . S
C370 C361 1.429 . S
C370 N367 1.350 . S
C370 C369 1.434 . S
C371 C372 1.369 . S
C371 C373 1.419 . S
C371 H375 0.930 . S
C372 C371 1.369 . S
C372 C381 1.429 . S
C373 C371 1.419 . S
C373 C374 1.363 . S
C373 H376 0.929 . S
C374 C373 1.363 . S
C374 C380 1.428 . S
H375 C371 0.930 . S
H376 C373 0.929 . S
S377 N378 1.613 . S
S377 N379 1.610 . S
N378 S377 1.613 . S
N378 C381 1.350 . S
N379 S377 1.610 . S
N379 C380 1.351 . S
C380 C374 1.428 . S
C380 N379 1.351 . S
C380 C381 1.434 . S
C381 C372 1.429 . S
C381 N378 1.350 . S
C381 C380 1.434 . S
C382 C383 1.369 . S
C382 C384 1.419 . S
C382 H386 0.930 . S
C383 C382 1.369 . S
C383 C392 1.429 . S
C384 C382 1.419 . S
C384 C385 1.363 . S
C384 H387 0.929 . S
C385 C384 1.363 . S
C385 C391 1.428 . S
H386 C382 0.930 . S
H387 C384 0.929 . S
S388 N389 1.613 . S
S388 N390 1.610 . S
N389 S388 1.613 . S
N389 C392 1.350 . S
N390 S388 1.610 . S
N390 C391 1.351 . S
C391 C385 1.428 . S
C391 N390 1.351 . S
C391 C392 1.434 . S
C392 C383 1.429 . S
C392 N389 1.350 . S
C392 C391 1.434 . S
C393 C394 1.369 . S
C393 C395 1.419 . S
C393 H397 0.930 . S
C394 C393 1.369 . S
C394 C403 1.429 . S
C395 C393 1.419 . S
C395 C396 1.363 . S
C395 H398 0.929 . S
C396 C395 1.363 . S
C396 C402 1.428 . S
H397 C393 0.930 . S
H398 C395 0.929 . S
S399 N400 1.613 . S
S399 N401 1.610 . S
N400 S399 1.613 . S
N400 C403 1.350 . S
N401 S399 1.610 . S
N401 C402 1.351 . S
C402 C396 1.428 . S
C402 N401 1.351 . S
C402 C403 1.434 . S
C403 C394 1.429 . S
C403 N400 1.350 . S
C403 C402 1.434 . S
C404 C405 1.369 . S
C404 C406 1.419 . S
C404 H408 0.930 . S
C405 C404 1.369 . S
C405 C414 1.429 . S
C406 C404 1.419 . S
C406 C407 1.363 . S
C406 H409 0.929 . S
C407 C406 1.363 . S
C407 C413 1.428 . S
H408 C404 0.930 . S
H409 C406 0.929 . S
S410 N411 1.613 . S
S410 N412 1.610 . S
N411 S410 1.613 . S
N411 C414 1.350 . S
N412 S410 1.610 . S
N412 C413 1.351 . S
C413 C407 1.428 . S
C413 N412 1.351 . S
C413 C414 1.434 . S
C414 C405 1.429 . S
C414 N411 1.350 . S
C414 C413 1.434 . S
C415 C416 1.369 . S
C415 C417 1.419 . S
C415 H419 0.930 . S
C416 C415 1.369 . S
C416 C425 1.429 . S
C417 C415 1.419 . S
C417 C418 1.363 . S
C417 H420 0.929 . S
C418 C417 1.363 . S
C418 C424 1.428 . S
H419 C415 0.930 . S
H420 C417 0.929 . S
S421 N422 1.613 . S
S421 N423 1.610 . S
N422 S421 1.613 . S
N422 C425 1.350 . S
N423 S421 1.610 . S
N423 C424 1.351 . S
C424 C418 1.428 . S
C424 N423 1.351 . S
C424 C425 1.434 . S
C425 C416 1.429 . S
C425 N422 1.350 . S
C425 C424 1.434 . S
C426 C427 1.369 . S
C426 C428 1.419 . S
C426 H430 0.930 . S
C427 C426 1.369 . S
C427 C436 1.429 . S
C428 C426 1.419 . S
C428 C429 1.363 . S
C428 H431 0.929 . S
C429 C428 1.363 . S
C429 C435 1.428 . S
H430 C426 0.930 . S
H431 C428 0.929 . S
S432 N433 1.613 . S
S432 N434 1.610 . S
N433 S432 1.613 . S
N433 C436 1.350 . S
N434 S432 1.610 . S
N434 C435 1.351 . S
C435 C429 1.428 . S
C435 N434 1.351 . S
C435 C436 1.434 . S
C436 C427 1.429 . S
C436 N433 1.350 . S
C436 C435 1.434 . S
C437 C438 1.369 . S
C437 C439 1.419 . S
C437 H441 0.930 . S
C438 C437 1.369 . S
C438 C447 1.429 . S
C439 C437 1.419 . S
C439 C440 1.363 . S
C439 H442 0.929 . S
C440 C439 1.363 . S
C440 C446 1.428 . S
H441 C437 0.930 . S
H442 C439 0.929 . S
S443 N444 1.613 . S
S443 N445 1.610 . S
N444 S443 1.613 . S
N444 C447 1.350 . S
N445 S443 1.610 . S
N445 C446 1.351 . S
C446 C440 1.428 . S
C446 N445 1.351 . S
C446 C447 1.434 . S
C447 C438 1.429 . S
C447 N444 1.350 . S
C447 C446 1.434 . S
C448 C449 1.369 . S
C448 C450 1.419 . S
C448 H452 0.930 . S
C449 C448 1.369 . S
C449 C458 1.429 . S
C450 C448 1.419 . S
C450 C451 1.363 . S
C450 H453 0.929 . S
C451 C450 1.363 . S
C451 C457 1.428 . S
H452 C448 0.930 . S
H453 C450 0.929 . S
S454 N455 1.613 . S
S454 N456 1.610 . S
N455 S454 1.613 . S
N455 C458 1.350 . S
N456 S454 1.610 . S
N456 C457 1.351 . S
C457 C451 1.428 . S
C457 N456 1.351 . S
C457 C458 1.434 . S
C458 C449 1.429 . S
C458 N455 1.350 . S
C458 C457 1.434 . S
C459 C460 1.369 . S
C459 C461 1.419 . S
C459 H463 0.930 . S
C460 C459 1.369 . S
C460 C469 1.429 . S
C461 C459 1.419 . S
C461 C462 1.363 . S
C461 H464 0.929 . S
C462 C461 1.363 . S
C462 C468 1.428 . S
H463 C459 0.930 . S
H464 C461 0.929 . S
S465 N466 1.613 . S
S465 N467 1.610 . S
N466 S465 1.613 . S
N466 C469 1.350 . S
N467 S465 1.610 . S
N467 C468 1.351 . S
C468 C462 1.428 . S
C468 N467 1.351 . S
C468 C469 1.434 . S
C469 C460 1.429 . S
C469 N466 1.350 . S
C469 C468 1.434 . S
C470 C471 1.369 . S
C470 C472 1.419 . S
C470 H474 0.930 . S
C471 C470 1.369 . S
C471 C480 1.429 . S
C472 C470 1.419 . S
C472 C473 1.363 . S
C472 H475 0.929 . S
C473 C472 1.363 . S
C473 C479 1.428 . S
H474 C470 0.930 . S
H475 C472 0.929 . S
S476 N477 1.613 . S
S476 N478 1.610 . S
N477 S476 1.613 . S
N477 C480 1.350 . S
N478 S476 1.610 . S
N478 C479 1.351 . S
C479 C473 1.428 . S
C479 N478 1.351 . S
C479 C480 1.434 . S
C480 C471 1.429 . S
C480 N477 1.350 . S
C480 C479 1.434 . S
C481 C482 1.369 . S
C481 C483 1.419 . S
C481 H485 0.930 . S
C482 C481 1.369 . S
C482 C491 1.429 . S
C483 C481 1.419 . S
C483 C484 1.363 . S
C483 H486 0.929 . S
C484 C483 1.363 . S
C484 C490 1.428 . S
H485 C481 0.930 . S
H486 C483 0.929 . S
S487 N488 1.613 . S
S487 N489 1.610 . S
N488 S487 1.613 . S
N488 C491 1.350 . S
N489 S487 1.610 . S
N489 C490 1.351 . S
C490 C484 1.428 . S
C490 N489 1.351 . S
C490 C491 1.434 . S
C491 C482 1.429 . S
C491 N488 1.350 . S
C491 C490 1.434 . S
C273 C77 1.089 . S
C275 C9 1.071 . S
C284 C43 1.090 . S
C286 C111 1.072 . S
C295 C145 1.082 . S
C297 C213 1.082 . S
C306 C179 1.090 . S
C308 C247 1.074 . S
C317 C135 1.687 . S
C319 C5 1.726 . S
C328 C33 1.681 . S
C330 C39 1.728 . S
C339 C73 1.728 . S
C341 C67 1.682 . S
C350 C107 1.728 . S
C352 C101 1.682 . S
C361 C203 1.682 1_545 S
C363 C141 1.727 . S
C372 C237 1.688 1_655 S
C374 C175 1.726 . S
C383 C271 1.682 1_565 S
C385 C209 1.728 . S
C394 C169 1.681 1_455 S
C396 C243 1.728 . S
C405 C20 1.728 . S
C407 C258 1.731 . S
C416 C54 1.728 . S
C418 C156 1.732 . S
C427 C190 1.728 . S
C429 C88 1.732 . S
C438 C224 1.731 . S
C440 C122 1.730 . S
C449 C70 1.980 . S
C451 C172 1.985 . S
C460 C206 1.985 . S
C462 C104 1.981 . S
C471 C240 1.983 . S
C473 C2 1.983 . S
C482 C138 1.986 . S
C484 C36 1.980 . S
