# Generated by pormake.
# Topology lcs-e, (6)-cn, num edge types: 1
# Building blocks:
#     Node 0, Type 0, BuildingBlock: BETDEL_clean_sbu_0, # of connection points: 6
#     Node 1, Type 0, BuildingBlock: BETDEL_clean_sbu_0, # of connection points: 6
#     Node 2, Type 0, BuildingBlock: BETDEL_clean_sbu_0, # of connection points: 6
#     Node 3, Type 0, BuildingBlock: BETDEL_clean_sbu_0, # of connection points: 6
#     Node 4, Type 0, BuildingBlock: BETDEL_clean_sbu_0, # of connection points: 6
#     Node 5, Type 0, BuildingBlock: BETDEL_clean_sbu_0, # of connection points: 6
#     Node 6, Type 0, BuildingBlock: BETDEL_clean_sbu_0, # of connection points: 6
#     Node 7, Type 0, BuildingBlock: BETDEL_clean_sbu_0, # of connection points: 6
#     Node 8, Type 0, BuildingBlock: BETDEL_clean_sbu_0, # of connection points: 6
#     Node 9, Type 0, BuildingBlock: BETDEL_clean_sbu_0, # of connection points: 6
#     Node 10, Type 0, BuildingBlock: BETDEL_clean_sbu_0, # of connection points: 6
#     Node 11, Type 0, BuildingBlock: BETDEL_clean_sbu_0, # of connection points: 6
#     Node 12, Type 0, BuildingBlock: BETDEL_clean_sbu_0, # of connection points: 6
#     Node 13, Type 0, BuildingBlock: BETDEL_clean_sbu_0, # of connection points: 6
#     Node 14, Type 0, BuildingBlock: BETDEL_clean_sbu_0, # of connection points: 6
#     Node 15, Type 0, BuildingBlock: BETDEL_clean_sbu_0, # of connection points: 6
#     Node 16, Type 0, BuildingBlock: BETDEL_clean_sbu_0, # of connection points: 6
#     Node 17, Type 0, BuildingBlock: BETDEL_clean_sbu_0, # of connection points: 6
#     Node 18, Type 0, BuildingBlock: BETDEL_clean_sbu_0, # of connection points: 6
#     Node 19, Type 0, BuildingBlock: BETDEL_clean_sbu_0, # of connection points: 6
#     Node 20, Type 0, BuildingBlock: BETDEL_clean_sbu_0, # of connection points: 6
#     Node 21, Type 0, BuildingBlock: BETDEL_clean_sbu_0, # of connection points: 6
#     Node 22, Type 0, BuildingBlock: BETDEL_clean_sbu_0, # of connection points: 6
#     Node 23, Type 0, BuildingBlock: BETDEL_clean_sbu_0, # of connection points: 6
#     Node 24, Type 0, BuildingBlock: BETDEL_clean_sbu_0, # of connection points: 6
#     Node 25, Type 0, BuildingBlock: BETDEL_clean_sbu_0, # of connection points: 6
#     Node 26, Type 0, BuildingBlock: BETDEL_clean_sbu_0, # of connection points: 6
#     Node 27, Type 0, BuildingBlock: BETDEL_clean_sbu_0, # of connection points: 6
#     Node 28, Type 0, BuildingBlock: BETDEL_clean_sbu_0, # of connection points: 6
#     Node 29, Type 0, BuildingBlock: BETDEL_clean_sbu_0, # of connection points: 6
#     Node 30, Type 0, BuildingBlock: BETDEL_clean_sbu_0, # of connection points: 6
#     Node 31, Type 0, BuildingBlock: BETDEL_clean_sbu_0, # of connection points: 6
#     Node 32, Type 0, BuildingBlock: BETDEL_clean_sbu_0, # of connection points: 6
#     Node 33, Type 0, BuildingBlock: BETDEL_clean_sbu_0, # of connection points: 6
#     Node 34, Type 0, BuildingBlock: BETDEL_clean_sbu_0, # of connection points: 6
#     Node 35, Type 0, BuildingBlock: BETDEL_clean_sbu_0, # of connection points: 6
#     Node 36, Type 0, BuildingBlock: BETDEL_clean_sbu_0, # of connection points: 6
#     Node 37, Type 0, BuildingBlock: BETDEL_clean_sbu_0, # of connection points: 6
#     Node 38, Type 0, BuildingBlock: BETDEL_clean_sbu_0, # of connection points: 6
#     Node 39, Type 0, BuildingBlock: BETDEL_clean_sbu_0, # of connection points: 6
#     Node 40, Type 0, BuildingBlock: BETDEL_clean_sbu_0, # of connection points: 6
#     Node 41, Type 0, BuildingBlock: BETDEL_clean_sbu_0, # of connection points: 6
#     Node 42, Type 0, BuildingBlock: BETDEL_clean_sbu_0, # of connection points: 6
#     Node 43, Type 0, BuildingBlock: BETDEL_clean_sbu_0, # of connection points: 6
#     Node 44, Type 0, BuildingBlock: BETDEL_clean_sbu_0, # of connection points: 6
#     Node 45, Type 0, BuildingBlock: BETDEL_clean_sbu_0, # of connection points: 6
#     Node 46, Type 0, BuildingBlock: BETDEL_clean_sbu_0, # of connection points: 6
#     Node 47, Type 0, BuildingBlock: BETDEL_clean_sbu_0, # of connection points: 6
#     Edge 48, Type (0, 0), BuildingBlock: AJUNOK_clean_linker_0, # of connection points: 2
#     Edge 49, Type (0, 0), BuildingBlock: AJUNOK_clean_linker_0, # of connection points: 2
#     Edge 50, Type (0, 0), BuildingBlock: AJUNOK_clean_linker_0, # of connection points: 2
#     Edge 51, Type (0, 0), BuildingBlock: AJUNOK_clean_linker_0, # of connection points: 2
#     Edge 52, Type (0, 0), BuildingBlock: AJUNOK_clean_linker_0, # of connection points: 2
#     Edge 53, Type (0, 0), BuildingBlock: AJUNOK_clean_linker_0, # of connection points: 2
#     Edge 54, Type (0, 0), BuildingBlock: AJUNOK_clean_linker_0, # of connection points: 2
#     Edge 55, Type (0, 0), BuildingBlock: AJUNOK_clean_linker_0, # of connection points: 2
#     Edge 56, Type (0, 0), BuildingBlock: AJUNOK_clean_linker_0, # of connection points: 2
#     Edge 57, Type (0, 0), BuildingBlock: AJUNOK_clean_linker_0, # of connection points: 2
#     Edge 58, Type (0, 0), BuildingBlock: AJUNOK_clean_linker_0, # of connection points: 2
#     Edge 59, Type (0, 0), BuildingBlock: AJUNOK_clean_linker_0, # of connection points: 2
#     Edge 60, Type (0, 0), BuildingBlock: AJUNOK_clean_linker_0, # of connection points: 2
#     Edge 61, Type (0, 0), BuildingBlock: AJUNOK_clean_linker_0, # of connection points: 2
#     Edge 62, Type (0, 0), BuildingBlock: AJUNOK_clean_linker_0, # of connection points: 2
#     Edge 63, Type (0, 0), BuildingBlock: AJUNOK_clean_linker_0, # of connection points: 2
#     Edge 64, Type (0, 0), BuildingBlock: AJUNOK_clean_linker_0, # of connection points: 2
#     Edge 65, Type (0, 0), BuildingBlock: AJUNOK_clean_linker_0, # of connection points: 2
#     Edge 66, Type (0, 0), BuildingBlock: AJUNOK_clean_linker_0, # of connection points: 2
#     Edge 67, Type (0, 0), BuildingBlock: AJUNOK_clean_linker_0, # of connection points: 2
#     Edge 68, Type (0, 0), BuildingBlock: AJUNOK_clean_linker_0, # of connection points: 2
#     Edge 69, Type (0, 0), BuildingBlock: AJUNOK_clean_linker_0, # of connection points: 2
#     Edge 70, Type (0, 0), BuildingBlock: AJUNOK_clean_linker_0, # of connection points: 2
#     Edge 71, Type (0, 0), BuildingBlock: AJUNOK_clean_linker_0, # of connection points: 2
#     Edge 72, Type (0, 0), BuildingBlock: AJUNOK_clean_linker_0, # of connection points: 2
#     Edge 73, Type (0, 0), BuildingBlock: AJUNOK_clean_linker_0, # of connection points: 2
#     Edge 74, Type (0, 0), BuildingBlock: AJUNOK_clean_linker_0, # of connection points: 2
#     Edge 75, Type (0, 0), BuildingBlock: AJUNOK_clean_linker_0, # of connection points: 2
#     Edge 76, Type (0, 0), BuildingBlock: AJUNOK_clean_linker_0, # of connection points: 2
#     Edge 77, Type (0, 0), BuildingBlock: AJUNOK_clean_linker_0, # of connection points: 2
#     Edge 78, Type (0, 0), BuildingBlock: AJUNOK_clean_linker_0, # of connection points: 2
#     Edge 79, Type (0, 0), BuildingBlock: AJUNOK_clean_linker_0, # of connection points: 2
#     Edge 80, Type (0, 0), BuildingBlock: AJUNOK_clean_linker_0, # of connection points: 2
#     Edge 81, Type (0, 0), BuildingBlock: AJUNOK_clean_linker_0, # of connection points: 2
#     Edge 82, Type (0, 0), BuildingBlock: AJUNOK_clean_linker_0, # of connection points: 2
#     Edge 83, Type (0, 0), BuildingBlock: AJUNOK_clean_linker_0, # of connection points: 2
#     Edge 84, Type (0, 0), BuildingBlock: AJUNOK_clean_linker_0, # of connection points: 2
#     Edge 85, Type (0, 0), BuildingBlock: AJUNOK_clean_linker_0, # of connection points: 2
#     Edge 86, Type (0, 0), BuildingBlock: AJUNOK_clean_linker_0, # of connection points: 2
#     Edge 87, Type (0, 0), BuildingBlock: AJUNOK_clean_linker_0, # of connection points: 2
#     Edge 88, Type (0, 0), BuildingBlock: AJUNOK_clean_linker_0, # of connection points: 2
#     Edge 89, Type (0, 0), BuildingBlock: AJUNOK_clean_linker_0, # of connection points: 2
#     Edge 90, Type (0, 0), BuildingBlock: AJUNOK_clean_linker_0, # of connection points: 2
#     Edge 91, Type (0, 0), BuildingBlock: AJUNOK_clean_linker_0, # of connection points: 2
#     Edge 92, Type (0, 0), BuildingBlock: AJUNOK_clean_linker_0, # of connection points: 2
#     Edge 93, Type (0, 0), BuildingBlock: AJUNOK_clean_linker_0, # of connection points: 2
#     Edge 94, Type (0, 0), BuildingBlock: AJUNOK_clean_linker_0, # of connection points: 2
#     Edge 95, Type (0, 0), BuildingBlock: AJUNOK_clean_linker_0, # of connection points: 2
#     Edge 96, Type (0, 0), BuildingBlock: AJUNOK_clean_linker_0, # of connection points: 2
#     Edge 97, Type (0, 0), BuildingBlock: AJUNOK_clean_linker_0, # of connection points: 2
#     Edge 98, Type (0, 0), BuildingBlock: AJUNOK_clean_linker_0, # of connection points: 2
#     Edge 99, Type (0, 0), BuildingBlock: AJUNOK_clean_linker_0, # of connection points: 2
#     Edge 100, Type (0, 0), BuildingBlock: AJUNOK_clean_linker_0, # of connection points: 2
#     Edge 101, Type (0, 0), BuildingBlock: AJUNOK_clean_linker_0, # of connection points: 2
#     Edge 102, Type (0, 0), BuildingBlock: AJUNOK_clean_linker_0, # of connection points: 2
#     Edge 103, Type (0, 0), BuildingBlock: AJUNOK_clean_linker_0, # of connection points: 2
#     Edge 104, Type (0, 0), BuildingBlock: AJUNOK_clean_linker_0, # of connection points: 2
#     Edge 105, Type (0, 0), BuildingBlock: AJUNOK_clean_linker_0, # of connection points: 2
#     Edge 106, Type (0, 0), BuildingBlock: AJUNOK_clean_linker_0, # of connection points: 2
#     Edge 107, Type (0, 0), BuildingBlock: AJUNOK_clean_linker_0, # of connection points: 2
#     Edge 108, Type (0, 0), BuildingBlock: AJUNOK_clean_linker_0, # of connection points: 2
#     Edge 109, Type (0, 0), BuildingBlock: AJUNOK_clean_linker_0, # of connection points: 2
#     Edge 110, Type (0, 0), BuildingBlock: AJUNOK_clean_linker_0, # of connection points: 2
#     Edge 111, Type (0, 0), BuildingBlock: AJUNOK_clean_linker_0, # of connection points: 2
#     Edge 112, Type (0, 0), BuildingBlock: AJUNOK_clean_linker_0, # of connection points: 2
#     Edge 113, Type (0, 0), BuildingBlock: AJUNOK_clean_linker_0, # of connection points: 2
#     Edge 114, Type (0, 0), BuildingBlock: AJUNOK_clean_linker_0, # of connection points: 2
#     Edge 115, Type (0, 0), BuildingBlock: AJUNOK_clean_linker_0, # of connection points: 2
#     Edge 116, Type (0, 0), BuildingBlock: AJUNOK_clean_linker_0, # of connection points: 2
#     Edge 117, Type (0, 0), BuildingBlock: AJUNOK_clean_linker_0, # of connection points: 2
#     Edge 118, Type (0, 0), BuildingBlock: AJUNOK_clean_linker_0, # of connection points: 2
#     Edge 119, Type (0, 0), BuildingBlock: AJUNOK_clean_linker_0, # of connection points: 2
#     Edge 120, Type (0, 0), BuildingBlock: AJUNOK_clean_linker_0, # of connection points: 2
#     Edge 121, Type (0, 0), BuildingBlock: AJUNOK_clean_linker_0, # of connection points: 2
#     Edge 122, Type (0, 0), BuildingBlock: AJUNOK_clean_linker_0, # of connection points: 2
#     Edge 123, Type (0, 0), BuildingBlock: AJUNOK_clean_linker_0, # of connection points: 2
#     Edge 124, Type (0, 0), BuildingBlock: AJUNOK_clean_linker_0, # of connection points: 2
#     Edge 125, Type (0, 0), BuildingBlock: AJUNOK_clean_linker_0, # of connection points: 2
#     Edge 126, Type (0, 0), BuildingBlock: AJUNOK_clean_linker_0, # of connection points: 2
#     Edge 127, Type (0, 0), BuildingBlock: AJUNOK_clean_linker_0, # of connection points: 2
#     Edge 128, Type (0, 0), BuildingBlock: AJUNOK_clean_linker_0, # of connection points: 2
#     Edge 129, Type (0, 0), BuildingBlock: AJUNOK_clean_linker_0, # of connection points: 2
#     Edge 130, Type (0, 0), BuildingBlock: AJUNOK_clean_linker_0, # of connection points: 2
#     Edge 131, Type (0, 0), BuildingBlock: AJUNOK_clean_linker_0, # of connection points: 2
#     Edge 132, Type (0, 0), BuildingBlock: AJUNOK_clean_linker_0, # of connection points: 2
#     Edge 133, Type (0, 0), BuildingBlock: AJUNOK_clean_linker_0, # of connection points: 2
#     Edge 134, Type (0, 0), BuildingBlock: AJUNOK_clean_linker_0, # of connection points: 2
#     Edge 135, Type (0, 0), BuildingBlock: AJUNOK_clean_linker_0, # of connection points: 2
#     Edge 136, Type (0, 0), BuildingBlock: AJUNOK_clean_linker_0, # of connection points: 2
#     Edge 137, Type (0, 0), BuildingBlock: AJUNOK_clean_linker_0, # of connection points: 2
#     Edge 138, Type (0, 0), BuildingBlock: AJUNOK_clean_linker_0, # of connection points: 2
#     Edge 139, Type (0, 0), BuildingBlock: AJUNOK_clean_linker_0, # of connection points: 2
#     Edge 140, Type (0, 0), BuildingBlock: AJUNOK_clean_linker_0, # of connection points: 2
#     Edge 141, Type (0, 0), BuildingBlock: AJUNOK_clean_linker_0, # of connection points: 2
#     Edge 142, Type (0, 0), BuildingBlock: AJUNOK_clean_linker_0, # of connection points: 2
#     Edge 143, Type (0, 0), BuildingBlock: AJUNOK_clean_linker_0, # of connection points: 2
#     Edge 144, Type (0, 0), BuildingBlock: AJUNOK_clean_linker_0, # of connection points: 2
#     Edge 145, Type (0, 0), BuildingBlock: AJUNOK_clean_linker_0, # of connection points: 2
#     Edge 146, Type (0, 0), BuildingBlock: AJUNOK_clean_linker_0, # of connection points: 2
#     Edge 147, Type (0, 0), BuildingBlock: AJUNOK_clean_linker_0, # of connection points: 2
#     Edge 148, Type (0, 0), BuildingBlock: AJUNOK_clean_linker_0, # of connection points: 2
#     Edge 149, Type (0, 0), BuildingBlock: AJUNOK_clean_linker_0, # of connection points: 2
#     Edge 150, Type (0, 0), BuildingBlock: AJUNOK_clean_linker_0, # of connection points: 2
#     Edge 151, Type (0, 0), BuildingBlock: AJUNOK_clean_linker_0, # of connection points: 2
#     Edge 152, Type (0, 0), BuildingBlock: AJUNOK_clean_linker_0, # of connection points: 2
#     Edge 153, Type (0, 0), BuildingBlock: AJUNOK_clean_linker_0, # of connection points: 2
#     Edge 154, Type (0, 0), BuildingBlock: AJUNOK_clean_linker_0, # of connection points: 2
#     Edge 155, Type (0, 0), BuildingBlock: AJUNOK_clean_linker_0, # of connection points: 2
#     Edge 156, Type (0, 0), BuildingBlock: AJUNOK_clean_linker_0, # of connection points: 2
#     Edge 157, Type (0, 0), BuildingBlock: AJUNOK_clean_linker_0, # of connection points: 2
#     Edge 158, Type (0, 0), BuildingBlock: AJUNOK_clean_linker_0, # of connection points: 2
#     Edge 159, Type (0, 0), BuildingBlock: AJUNOK_clean_linker_0, # of connection points: 2
#     Edge 160, Type (0, 0), BuildingBlock: AJUNOK_clean_linker_0, # of connection points: 2
#     Edge 161, Type (0, 0), BuildingBlock: AJUNOK_clean_linker_0, # of connection points: 2
#     Edge 162, Type (0, 0), BuildingBlock: AJUNOK_clean_linker_0, # of connection points: 2
#     Edge 163, Type (0, 0), BuildingBlock: AJUNOK_clean_linker_0, # of connection points: 2
#     Edge 164, Type (0, 0), BuildingBlock: AJUNOK_clean_linker_0, # of connection points: 2
#     Edge 165, Type (0, 0), BuildingBlock: AJUNOK_clean_linker_0, # of connection points: 2
#     Edge 166, Type (0, 0), BuildingBlock: AJUNOK_clean_linker_0, # of connection points: 2
#     Edge 167, Type (0, 0), BuildingBlock: AJUNOK_clean_linker_0, # of connection points: 2
#     Edge 168, Type (0, 0), BuildingBlock: AJUNOK_clean_linker_0, # of connection points: 2
#     Edge 169, Type (0, 0), BuildingBlock: AJUNOK_clean_linker_0, # of connection points: 2
#     Edge 170, Type (0, 0), BuildingBlock: AJUNOK_clean_linker_0, # of connection points: 2
#     Edge 171, Type (0, 0), BuildingBlock: AJUNOK_clean_linker_0, # of connection points: 2
#     Edge 172, Type (0, 0), BuildingBlock: AJUNOK_clean_linker_0, # of connection points: 2
#     Edge 173, Type (0, 0), BuildingBlock: AJUNOK_clean_linker_0, # of connection points: 2
#     Edge 174, Type (0, 0), BuildingBlock: AJUNOK_clean_linker_0, # of connection points: 2
#     Edge 175, Type (0, 0), BuildingBlock: AJUNOK_clean_linker_0, # of connection points: 2
#     Edge 176, Type (0, 0), BuildingBlock: AJUNOK_clean_linker_0, # of connection points: 2
#     Edge 177, Type (0, 0), BuildingBlock: AJUNOK_clean_linker_0, # of connection points: 2
#     Edge 178, Type (0, 0), BuildingBlock: AJUNOK_clean_linker_0, # of connection points: 2
#     Edge 179, Type (0, 0), BuildingBlock: AJUNOK_clean_linker_0, # of connection points: 2
#     Edge 180, Type (0, 0), BuildingBlock: AJUNOK_clean_linker_0, # of connection points: 2
#     Edge 181, Type (0, 0), BuildingBlock: AJUNOK_clean_linker_0, # of connection points: 2
#     Edge 182, Type (0, 0), BuildingBlock: AJUNOK_clean_linker_0, # of connection points: 2
#     Edge 183, Type (0, 0), BuildingBlock: AJUNOK_clean_linker_0, # of connection points: 2
#     Edge 184, Type (0, 0), BuildingBlock: AJUNOK_clean_linker_0, # of connection points: 2
#     Edge 185, Type (0, 0), BuildingBlock: AJUNOK_clean_linker_0, # of connection points: 2
#     Edge 186, Type (0, 0), BuildingBlock: AJUNOK_clean_linker_0, # of connection points: 2
#     Edge 187, Type (0, 0), BuildingBlock: AJUNOK_clean_linker_0, # of connection points: 2
#     Edge 188, Type (0, 0), BuildingBlock: AJUNOK_clean_linker_0, # of connection points: 2
#     Edge 189, Type (0, 0), BuildingBlock: AJUNOK_clean_linker_0, # of connection points: 2
#     Edge 190, Type (0, 0), BuildingBlock: AJUNOK_clean_linker_0, # of connection points: 2
#     Edge 191, Type (0, 0), BuildingBlock: AJUNOK_clean_linker_0, # of connection points: 2
# Relax obj value: 0.445
# Max RMSD: 0.320
# Mean RMSD: 0.285
data_MOF--net-lcs-e--node1-BETDEL_clean_sbu_0--edge1-AJUNOK_clean_linker_0
_symmetry_space_group_name_H-M    P1
_symmetry_Int_Tables_number       1
_symmetry_cell_setting            triclinic
loop_
_symmetry_equiv_pos_as_xyz
'x, y, z'
_cell_length_a     43.098774
_cell_length_b     44.422379
_cell_length_c     42.518984
_cell_angle_alpha  88.274676
_cell_angle_beta   89.297408
_cell_angle_gamma 88.077112
loop_
_atom_site_label
_atom_site_type_symbol
_atom_site_fract_x
_atom_site_fract_y
_atom_site_fract_z
_atom_type_partial_charge
Dy0 Dy 0.99761 0.36675 0.25279 0.0
C1 C 0.05926 0.44399 0.33872 0.0
C2 C 0.98741 0.30428 0.24427 0.0
Dy3 Dy 0.02659 0.40677 0.30375 0.0
O4 O 0.98688 0.32547 0.22167 0.0
O5 O 0.99132 0.31839 0.27016 0.0
O6 O 0.98062 0.41147 0.22616 0.0
O7 O 0.9879 0.41184 0.27347 0.0
C8 C 0.98286 0.42941 0.2502 0.0
C9 C 0.03799 0.34809 0.3097 0.0
O10 O 0.98005 0.40062 0.32533 0.0
O11 O 0.9675 0.35981 0.29575 0.0
O12 O 0.03899 0.42553 0.34981 0.0
O13 O 0.05969 0.44375 0.30828 0.0
O14 O 0.03598 0.36604 0.33305 0.0
O15 O 0.03725 0.36311 0.2842 0.0
O16 O 0.0449 0.37326 0.23073 0.0
O17 O 0.05986 0.41161 0.2631 0.0
C18 C 0.96498 0.37542 0.32181 0.0
C19 C 0.0645 0.39417 0.23866 0.0
Dy20 Dy 0.86241 0.75706 0.57431 0.0
C21 C 0.86115 0.84118 0.47718 0.0
C22 C 0.86724 0.7234 0.62771 0.0
Dy23 Dy 0.86672 0.79331 0.51625 0.0
O24 O 0.86134 0.75198 0.62617 0.0
O25 O 0.86933 0.71243 0.59955 0.0
O26 O 0.85102 0.79678 0.60228 0.0
O27 O 0.83526 0.79529 0.55574 0.0
C28 C 0.83783 0.8114 0.57921 0.0
C29 C 0.91887 0.7572 0.51424 0.0
O30 O 0.89455 0.82035 0.54923 0.0
O31 O 0.90734 0.77926 0.58082 0.0
O32 O 0.8555 0.81379 0.4694 0.0
O33 O 0.87044 0.84215 0.50597 0.0
O34 O 0.90743 0.77269 0.49051 0.0
O35 O 0.89816 0.75717 0.5362 0.0
O36 O 0.81519 0.74437 0.55521 0.0
O37 O 0.81771 0.77388 0.50972 0.0
C38 C 0.91082 0.80779 0.5726 0.0
C39 C 0.80135 0.75634 0.52962 0.0
Dy40 Dy 0.45686 0.60572 0.74838 0.0
C41 C 0.54685 0.62234 0.83665 0.0
C42 C 0.40462 0.58786 0.72306 0.0
Dy43 Dy 0.50613 0.60771 0.79208 0.0
O44 O 0.4079 0.59515 0.75179 0.0
O45 O 0.43036 0.59073 0.70672 0.0
O46 O 0.43487 0.64978 0.76241 0.0
O47 O 0.45836 0.62211 0.79546 0.0
C48 C 0.44499 0.64727 0.79094 0.0
C49 C 0.51179 0.55487 0.76232 0.0
O50 O 0.46956 0.58522 0.82225 0.0
O51 O 0.4471 0.56577 0.77978 0.0
O52 O 0.55136 0.62612 0.80652 0.0
O53 O 0.52069 0.60964 0.84211 0.0
O54 O 0.52358 0.56042 0.78923 0.0
O55 O 0.50238 0.58005 0.7487 0.0
O56 O 0.47498 0.65058 0.72834 0.0
O57 O 0.5086 0.65553 0.76926 0.0
C58 C 0.4499 0.56645 0.8104 0.0
C59 C 0.49356 0.66783 0.74456 0.0
Dy60 Dy 0.61547 0.2118 0.01863 0.0
C61 C 0.61792 0.29668 0.11264 0.0
C62 C 0.62688 0.17124 0.97342 0.0
Dy63 Dy 0.61945 0.25721 0.06538 0.0
O64 O 0.60951 0.16699 0.99804 0.0
O65 O 0.63526 0.19917 0.97175 0.0
O66 O 0.60333 0.1754 0.05244 0.0
O67 O 0.58787 0.22014 0.06128 0.0
C68 C 0.59 0.19329 0.07228 0.0
C69 C 0.66477 0.26521 0.01899 0.0
O70 O 0.64658 0.22006 0.09093 0.0
O71 O 0.65868 0.19765 0.04428 0.0
O72 O 0.61207 0.3035 0.08348 0.0
O73 O 0.62422 0.26801 0.11619 0.0
O74 O 0.64812 0.28639 0.03192 0.0
O75 O 0.654 0.24111 0.03036 0.0
O76 O 0.57082 0.23755 0.00471 0.0
O77 O 0.56901 0.26557 0.0493 0.0
C78 C 0.66148 0.19872 0.07509 0.0
C79 C 0.55502 0.25558 0.02404 0.0
Dy80 Dy 0.9896 0.62674 0.208 0.0
C81 C 0.08925 0.60607 0.2984 0.0
C82 C 0.96084 0.64811 0.15544 0.0
Dy83 Dy 0.03853 0.62112 0.26249 0.0
O84 O 0.98848 0.63607 0.15656 0.0
O85 O 0.94749 0.64766 0.18332 0.0
O86 O 0.00453 0.5821 0.18797 0.0
O87 O 0.03347 0.60562 0.21577 0.0
C88 C 0.03063 0.58095 0.203 0.0
C89 C 0.99922 0.6724 0.26738 0.0
O90 O 0.0685 0.63981 0.22291 0.0
O91 O 0.02703 0.65827 0.19257 0.0
O92 O 0.08548 0.63098 0.28183 0.0
O93 O 0.0649 0.58992 0.29608 0.0
O94 O 0.01265 0.65754 0.29079 0.0
O95 O 0.00721 0.65737 0.24356 0.0
O96 O 0.97038 0.58559 0.23558 0.0
O97 O 0.01298 0.57628 0.26784 0.0
C98 C 0.05715 0.6567 0.19904 0.0
C99 C 0.9875 0.56652 0.25412 0.0
Dy100 Dy 0.60545 0.80482 0.52425 0.0
C101 C 0.60331 0.72141 0.42672 0.0
C102 C 0.61324 0.8505 0.56329 0.0
Dy103 Dy 0.61016 0.75254 0.47963 0.0
O104 O 0.59618 0.85166 0.53852 0.0
O105 O 0.62364 0.82299 0.5689 0.0
O106 O 0.59084 0.83733 0.48575 0.0
O107 O 0.57915 0.79184 0.48352 0.0
C108 C 0.57861 0.81709 0.46896 0.0
C109 C 0.66245 0.74782 0.51656 0.0
O110 O 0.63482 0.78882 0.45349 0.0
O111 O 0.64903 0.81281 0.49802 0.0
O112 O 0.59514 0.7118 0.45479 0.0
O113 O 0.61624 0.74715 0.42807 0.0
O114 O 0.65366 0.72767 0.49731 0.0
O115 O 0.63951 0.76691 0.51825 0.0
O116 O 0.56216 0.78222 0.54172 0.0
O117 O 0.56237 0.74577 0.50365 0.0
C118 C 0.65148 0.80865 0.46758 0.0
C119 C 0.54779 0.76108 0.52654 0.0
Dy120 Dy 0.50601 0.36668 0.70564 0.0
C121 C 0.40847 0.3671 0.7937 0.0
C122 C 0.55503 0.36059 0.66532 0.0
Dy123 Dy 0.45611 0.36117 0.75167 0.0
O124 O 0.53319 0.38117 0.66322 0.0
O125 O 0.55104 0.34433 0.69096 0.0
O126 O 0.47509 0.38412 0.66719 0.0
O127 O 0.46438 0.3942 0.71432 0.0
C128 C 0.45458 0.3955 0.68639 0.0
C129 C 0.49748 0.31172 0.75808 0.0
O130 O 0.43191 0.33961 0.71225 0.0
O131 O 0.47819 0.331 0.68539 0.0
O132 O 0.40525 0.35977 0.76451 0.0
O133 O 0.43764 0.36986 0.79975 0.0
O134 O 0.48524 0.32698 0.78098 0.0
O135 O 0.48975 0.32645 0.7333 0.0
O136 O 0.52096 0.40482 0.73619 0.0
O137 O 0.47255 0.40986 0.758 0.0
C138 C 0.44786 0.32779 0.6885 0.0
C139 C 0.49992 0.42179 0.75107 0.0
Dy140 Dy 0.86188 0.26534 0.96219 0.0
C141 C 0.85472 0.16631 0.05216 0.0
C142 C 0.87783 0.30706 0.91654 0.0
Dy143 Dy 0.86266 0.2164 0.01491 0.0
O144 O 0.85588 0.288 0.91455 0.0
O145 O 0.88921 0.3052 0.94488 0.0
O146 O 0.84194 0.23519 0.9272 0.0
O147 O 0.83332 0.22752 0.97543 0.0
C148 C 0.83083 0.21689 0.94849 0.0
C149 C 0.90898 0.25669 0.02209 0.0
O150 O 0.88785 0.19157 0.9768 0.0
O151 O 0.89934 0.23376 0.94579 0.0
O152 O 0.87081 0.16693 0.02619 0.0
O153 O 0.8438 0.19313 0.05811 0.0
O154 O 0.89338 0.2438 0.04484 0.0
O155 O 0.89733 0.24804 0.9968 0.0
O156 O 0.81902 0.28233 0.98951 0.0
O157 O 0.81464 0.23935 0.02154 0.0
C158 C 0.9015 0.20453 0.95218 0.0
C159 C 0.80259 0.26534 0.00974 0.0
Dy160 Dy 0.31369 0.0088 0.35553 0.0
C161 C 0.23282 0.10707 0.36952 0.0
C162 C 0.35007 0.96484 0.33537 0.0
Dy163 Dy 0.26653 0.05958 0.35301 0.0
O164 O 0.35925 0.99126 0.34189 0.0
O165 O 0.32087 0.96088 0.34203 0.0
O166 O 0.35056 0.02793 0.38621 0.0
O167 O 0.30964 0.0514 0.37616 0.0
C168 C 0.33516 0.05326 0.38989 0.0
C169 C 0.25397 0.01643 0.3098 0.0
O170 O 0.30628 0.08312 0.33007 0.0
O171 O 0.32793 0.03781 0.31442 0.0
O172 O 0.24477 0.10458 0.34137 0.0
O173 O 0.23802 0.08363 0.38751 0.0
O174 O 0.23325 0.0322 0.3253 0.0
O175 O 0.27999 0.02464 0.31924 0.0
O176 O 0.28833 0.99525 0.4006 0.0
O177 O 0.25981 0.03986 0.40231 0.0
C178 C 0.32784 0.06757 0.31449 0.0
C179 C 0.27093 0.0149 0.41652 0.0
Dy180 Dy 0.21249 0.011 0.61494 0.0
C181 C 0.29413 0.10706 0.60497 0.0
C182 C 0.17339 0.9661 0.62732 0.0
Dy183 Dy 0.26008 0.05901 0.6166 0.0
O184 O 0.16983 0.98645 0.60519 0.0
O185 O 0.20028 0.96855 0.64047 0.0
O186 O 0.17558 0.04154 0.59666 0.0
O187 O 0.22273 0.04931 0.58496 0.0
C188 C 0.19504 0.05947 0.58305 0.0
C189 C 0.26846 0.02444 0.66967 0.0
O190 O 0.22089 0.08472 0.63856 0.0
O191 O 0.1921 0.0427 0.65101 0.0
O192 O 0.30434 0.07931 0.60275 0.0
O193 O 0.26533 0.10852 0.61422 0.0
O194 O 0.28646 0.04568 0.66035 0.0
O195 O 0.24904 0.02072 0.64798 0.0
O196 O 0.24023 0.99671 0.57126 0.0
O197 O 0.27392 0.03624 0.57107 0.0
C198 C 0.19721 0.07194 0.65281 0.0
C199 C 0.26189 0.01307 0.55679 0.0
Dy200 Dy 0.25987 0.96735 0.8593 0.0
C201 C 0.15926 0.05306 0.85934 0.0
C202 C 0.30447 0.92337 0.86526 0.0
Dy203 Dy 0.20856 0.01408 0.86622 0.0
O204 O 0.28169 0.92359 0.84587 0.0
O205 O 0.30421 0.94861 0.88029 0.0
O206 O 0.23299 0.93677 0.83014 0.0
O207 O 0.22153 0.98269 0.83011 0.0
C208 C 0.21271 0.95742 0.82147 0.0
C209 C 0.24673 0.01201 0.91837 0.0
O210 O 0.18219 0.97357 0.88133 0.0
O211 O 0.22723 0.94546 0.89262 0.0
O212 O 0.15808 0.02641 0.87272 0.0
O213 O 0.18738 0.05868 0.85046 0.0
O214 O 0.23487 0.0364 0.90491 0.0
O215 O 0.23941 0.9906 0.90114 0.0
O216 O 0.27919 1.00157 0.82493 0.0
O217 O 0.23219 0.02671 0.81932 0.0
C218 C 0.19664 0.94885 0.89252 0.0
C219 C 0.26027 0.01937 0.80784 0.0
Dy220 Dy 0.24887 0.94863 0.11473 0.0
C221 C 0.32966 0.04163 0.10848 0.0
C222 C 0.20987 0.90183 0.11014 0.0
Dy223 Dy 0.28722 0.99845 0.10758 0.0
O224 O 0.23468 0.90193 0.12679 0.0
O225 O 0.2051 0.92849 0.09712 0.0
O226 O 0.2861 0.91556 0.12838 0.0
O227 O 0.28897 0.96075 0.14246 0.0
C228 C 0.3029 0.93501 0.14173 0.0
C229 C 0.2444 1.00227 0.05992 0.0
O230 O 0.31969 0.96597 0.08481 0.0
O231 O 0.27836 0.93755 0.07247 0.0
O232 O 0.30189 0.04406 0.12031 0.0
O233 O 0.33372 0.01589 0.09516 0.0
O234 O 0.25309 0.0246 0.07625 0.0
O235 O 0.25636 0.97857 0.07266 0.0
O236 O 0.23061 0.97385 0.15797 0.0
O237 O 0.27102 0.00583 0.15779 0.0
C238 C 0.30811 0.94376 0.06955 0.0
C239 C 0.24699 0.99403 0.17257 0.0
Dy240 Dy 0.36169 0.2586 0.06897 0.0
C241 C 0.33924 0.33558 0.96942 0.0
C242 C 0.38358 0.22389 0.11631 0.0
Dy243 Dy 0.35812 0.29938 0.01705 0.0
O244 O 0.37784 0.21366 0.08853 0.0
O245 O 0.37738 0.25232 0.1178 0.0
O246 O 0.3266 0.27492 0.10366 0.0
O247 O 0.33404 0.29915 0.06104 0.0
C248 C 0.31979 0.29905 0.08705 0.0
C249 C 0.41683 0.27624 0.01998 0.0
O250 O 0.37583 0.33204 0.05138 0.0
O251 O 0.39622 0.29285 0.08159 0.0
O252 O 0.35554 0.31088 0.96511 0.0
O253 O 0.33572 0.34092 0.99879 0.0
O254 O 0.40842 0.30301 0.00989 0.0
O255 O 0.39231 0.26043 0.02565 0.0
O256 O 0.31551 0.2414 0.05121 0.0
O257 O 0.31267 0.27593 0.0102 0.0
C258 C 0.39385 0.32197 0.07458 0.0
C259 C 0.29892 0.25583 0.02881 0.0
Dy260 Dy 0.00814 0.86601 0.20934 0.0
C261 C 0.90554 0.86533 0.29197 0.0
C262 C 0.05628 0.86345 0.16741 0.0
Dy263 Dy 0.95661 0.85899 0.25394 0.0
O264 O 0.03311 0.88258 0.16643 0.0
O265 O 0.05426 0.84691 0.1932 0.0
O266 O 0.97814 0.88624 0.17147 0.0
O267 O 0.96665 0.89356 0.21884 0.0
C268 C 0.95757 0.89707 0.19081 0.0
C269 C 0.9977 0.8093 0.26064 0.0
O270 O 0.93443 0.84015 0.21141 0.0
O271 O 0.98211 0.82982 0.18806 0.0
O272 O 0.93403 0.86858 0.30033 0.0
O273 O 0.905 0.8577 0.26267 0.0
O274 O 0.98371 0.82346 0.28337 0.0
O275 O 0.99107 0.82486 0.23586 0.0
O276 O 0.02253 0.9037 0.24012 0.0
O277 O 0.97491 0.90611 0.26443 0.0
C278 C 0.95154 0.82886 0.18815 0.0
C279 C 0.00168 0.91905 0.25688 0.0
Dy280 Dy 0.11677 0.71302 0.52088 0.0
C281 C 0.11048 0.79691 0.6168 0.0
C282 C 0.12959 0.66696 0.48318 0.0
Dy283 Dy 0.12115 0.76119 0.56794 0.0
O284 O 0.12049 0.66442 0.51212 0.0
O285 O 0.13071 0.69518 0.47401 0.0
O286 O 0.07389 0.69487 0.54449 0.0
O287 O 0.10648 0.71549 0.57069 0.0
C288 C 0.08014 0.70467 0.57197 0.0
C289 C 0.16885 0.77099 0.52598 0.0
O290 O 0.14959 0.72351 0.59208 0.0
O291 O 0.16008 0.69893 0.54609 0.0
O292 O 0.1276 0.77232 0.61807 0.0
O293 O 0.09985 0.80235 0.5887 0.0
O294 O 0.16028 0.78892 0.54819 0.0
O295 O 0.14826 0.75093 0.52527 0.0
O296 O 0.07419 0.73961 0.50489 0.0
O297 O 0.07056 0.76632 0.55045 0.0
C298 C 0.16454 0.70179 0.57644 0.0
C299 C 0.05741 0.75599 0.52484 0.0
Dy300 Dy 0.9768 0.60204 0.70007 0.0
C301 C 0.00973 0.70472 0.75897 0.0
C302 C 0.94878 0.56061 0.6663 0.0
Dy303 Dy 0.00169 0.64244 0.74947 0.0
O304 O 0.96216 0.58411 0.65472 0.0
O305 O 0.95344 0.55828 0.69636 0.0
O306 O 0.96183 0.64193 0.67163 0.0
O307 O 0.96013 0.64379 0.72024 0.0
C308 C 0.955 0.65871 0.69518 0.0
C309 C 0.01853 0.58008 0.75308 0.0
O310 O 0.95645 0.63421 0.77386 0.0
O311 O 0.94236 0.59655 0.74035 0.0
O312 O 0.01665 0.68268 0.7797 0.0
O313 O 0.99962 0.6919 0.73424 0.0
O314 O 0.01479 0.59765 0.77736 0.0
O315 O 0.01637 0.5977 0.72928 0.0
O316 O 0.01997 0.61453 0.67474 0.0
O317 O 0.03208 0.65289 0.70778 0.0
C318 C 0.93776 0.61267 0.76593 0.0
C319 C 0.03476 0.63922 0.68073 0.0
Dy320 Dy 0.14138 0.21472 0.48404 0.0
C321 C 0.1233 0.29785 0.38311 0.0
C322 C 0.15634 0.16952 0.52332 0.0
Dy323 Dy 0.13892 0.25874 0.42995 0.0
O324 O 0.16042 0.1975 0.52972 0.0
O325 O 0.14387 0.16625 0.49605 0.0
O326 O 0.09877 0.22855 0.51223 0.0
O327 O 0.10697 0.25028 0.46977 0.0
C328 C 0.08605 0.24628 0.49095 0.0
C329 C 0.16625 0.20818 0.41517 0.0
O330 O 0.18658 0.27138 0.44885 0.0
O331 O 0.18852 0.23633 0.49015 0.0
O332 O 0.14272 0.27534 0.3805 0.0
O333 O 0.11591 0.30146 0.41264 0.0
O334 O 0.15072 0.22483 0.39502 0.0
O335 O 0.1687 0.2206 0.44128 0.0
O336 O 0.11617 0.18693 0.45033 0.0
O337 O 0.09893 0.22883 0.42132 0.0
C338 C 0.20242 0.25694 0.47199 0.0
C339 C 0.09854 0.1995 0.428 0.0
Dy340 Dy 0.50201 0.4021 0.20853 0.0
C341 C 0.59405 0.4081 0.30273 0.0
C342 C 0.46486 0.39271 0.15833 0.0
Dy343 Dy 0.54893 0.39988 0.26039 0.0
O344 O 0.45551 0.39396 0.18742 0.0
O345 O 0.49456 0.39702 0.15668 0.0
O346 O 0.47201 0.43862 0.23216 0.0
O347 O 0.51849 0.43694 0.24038 0.0
C348 C 0.49384 0.45219 0.24644 0.0
C349 C 0.56843 0.37043 0.21058 0.0
O350 O 0.5231 0.35816 0.27776 0.0
O351 O 0.49523 0.35506 0.23224 0.0
O352 O 0.5936 0.38677 0.28283 0.0
O353 O 0.56763 0.42337 0.302 0.0
O354 O 0.58695 0.38286 0.22957 0.0
O355 O 0.54078 0.37166 0.22099 0.0
O356 O 0.54096 0.42406 0.18229 0.0
O357 O 0.56515 0.43697 0.22807 0.0
C358 C 0.50606 0.342 0.25891 0.0
C359 C 0.56349 0.43738 0.19697 0.0
Dy360 Dy 0.38416 0.752 0.93875 0.0
C361 C 0.37006 0.83474 0.03581 0.0
C362 C 0.39278 0.7143 0.89192 0.0
Dy363 Dy 0.38679 0.79691 0.98966 0.0
O364 O 0.39807 0.70755 0.92133 0.0
O365 O 0.38287 0.74212 0.88784 0.0
O366 O 0.34268 0.72498 0.95461 0.0
O367 O 0.3551 0.76057 0.98076 0.0
C368 C 0.33398 0.74136 0.97786 0.0
C369 C 0.41444 0.81669 0.93733 0.0
O370 O 0.43139 0.77108 0.0027 0.0
O371 O 0.43356 0.74257 0.95795 0.0
O372 O 0.39741 0.83299 0.02285 0.0
O373 O 0.35344 0.81302 0.02634 0.0
O374 O 0.40205 0.83435 0.95809 0.0
O375 O 0.41408 0.7895 0.94716 0.0
O376 O 0.36035 0.79022 0.91255 0.0
O377 O 0.35086 0.81704 0.95761 0.0
C378 C 0.44734 0.75322 0.98317 0.0
C379 C 0.34764 0.81347 0.9271 0.0
Dy380 Dy 0.96222 0.38434 0.74032 0.0
C381 C 0.04686 0.36404 0.84277 0.0
C382 C 0.91326 0.39607 0.70055 0.0
Dy383 Dy 0.01262 0.38157 0.79065 0.0
O384 O 0.91366 0.37717 0.72436 0.0
O385 O 0.94013 0.40858 0.69803 0.0
O386 O 0.96938 0.33766 0.72423 0.0
O387 O 0.00737 0.35736 0.74533 0.0
C388 C 0.99572 0.33205 0.73755 0.0
C389 C 0.96742 0.42328 0.79889 0.0
O390 O 0.02921 0.42396 0.76319 0.0
O391 O 0.98324 0.43204 0.7358 0.0
O392 O 0.03109 0.38895 0.83835 0.0
O393 O 0.04651 0.34912 0.81685 0.0
O394 O 0.99473 0.4255 0.81081 0.0
O395 O 0.96569 0.39797 0.78737 0.0
O396 O 0.93557 0.36389 0.78228 0.0
O397 O 0.97885 0.34789 0.8102 0.0
C398 C 0.00957 0.4428 0.74708 0.0
C399 C 0.94847 0.34754 0.8059 0.0
Dy400 Dy 0.39203 0.25436 0.52212 0.0
C401 C 0.38891 0.16346 0.42895 0.0
C402 C 0.39678 0.28231 0.57685 0.0
Dy403 Dy 0.3968 0.20386 0.47491 0.0
O404 O 0.40219 0.29498 0.5494 0.0
O405 O 0.38982 0.25436 0.57431 0.0
O406 O 0.35034 0.28142 0.50459 0.0
O407 O 0.36329 0.24231 0.48206 0.0
C408 C 0.34107 0.26218 0.4846 0.0
C409 C 0.42143 0.1898 0.5312 0.0
O410 O 0.44118 0.22772 0.46068 0.0
O411 O 0.43924 0.26332 0.49962 0.0
O412 O 0.40886 0.16043 0.45149 0.0
O413 O 0.3747 0.18968 0.43033 0.0
O414 O 0.40825 0.17029 0.51411 0.0
O415 O 0.42238 0.21488 0.51651 0.0
O416 O 0.36362 0.21929 0.54533 0.0
O417 O 0.35335 0.19349 0.50032 0.0
C418 C 0.45467 0.24901 0.47678 0.0
C419 C 0.34815 0.19929 0.53013 0.0
Dy420 Dy 0.54583 0.64862 0.24617 0.0
C421 C 0.4532 0.64823 0.34342 0.0
C422 C 0.59396 0.64097 0.20521 0.0
Dy423 Dy 0.49443 0.64074 0.29591 0.0
O424 O 0.59523 0.65625 0.23081 0.0
O425 O 0.56608 0.63162 0.20156 0.0
O426 O 0.51569 0.6828 0.21888 0.0
O427 O 0.51087 0.68087 0.26675 0.0
C428 C 0.50268 0.69657 0.24246 0.0
C429 C 0.54438 0.60473 0.31076 0.0
O430 O 0.4792 0.60446 0.26351 0.0
O431 O 0.52787 0.60015 0.24096 0.0
O432 O 0.4784 0.63182 0.34456 0.0
O433 O 0.44905 0.65959 0.31498 0.0
O434 O 0.51942 0.60619 0.32801 0.0
O435 O 0.53867 0.62062 0.28643 0.0
O436 O 0.56961 0.66766 0.28761 0.0
O437 O 0.52383 0.67522 0.31652 0.0
C438 C 0.50045 0.58809 0.24805 0.0
C439 C 0.55417 0.67773 0.31266 0.0
Dy440 Dy 0.13539 0.79718 0.99137 0.0
C441 C 0.12148 0.70588 0.09079 0.0
C442 C 0.1473 0.8451 0.95361 0.0
Dy443 Dy 0.13825 0.74586 0.04359 0.0
O444 O 0.12648 0.84526 0.97594 0.0
O445 O 0.16155 0.81894 0.95222 0.0
O446 O 0.09729 0.78033 0.96143 0.0
O447 O 0.11263 0.75457 0.99913 0.0
C448 C 0.09111 0.75661 0.97856 0.0
C449 C 0.17605 0.79211 0.05253 0.0
O450 O 0.18039 0.7306 0.01428 0.0
O451 O 0.18336 0.77614 0.98639 0.0
O452 O 0.14484 0.72334 0.09124 0.0
O453 O 0.10757 0.70957 0.06389 0.0
O454 O 0.18113 0.7652 0.06457 0.0
O455 O 0.15013 0.7923 0.03956 0.0
O456 O 0.10859 0.82096 0.0294 0.0
O457 O 0.10103 0.77839 0.06145 0.0
C458 C 0.19646 0.75022 0.99655 0.0
C459 C 0.09535 0.80743 0.05413 0.0
Dy460 Dy 0.73695 0.94798 0.65188 0.0
C461 C 0.64463 0.0328 0.65986 0.0
C462 C 0.77353 0.89937 0.64507 0.0
Dy463 Dy 0.69005 0.99568 0.64394 0.0
O464 O 0.78304 0.9267 0.64552 0.0
O465 O 0.74405 0.89836 0.6511 0.0
O466 O 0.76664 0.97643 0.68158 0.0
O467 O 0.71908 0.98177 0.68546 0.0
C468 C 0.74442 0.99068 0.69635 0.0
C469 C 0.67614 0.95366 0.60381 0.0
O470 O 0.72013 0.01267 0.6044 0.0
O471 O 0.74482 0.96627 0.60103 0.0
O472 O 0.64143 0.00948 0.64318 0.0
O473 O 0.67364 0.03872 0.66463 0.0
O474 O 0.66034 0.97888 0.60536 0.0
O475 O 0.69853 0.95381 0.62223 0.0
O476 O 0.70024 0.9236 0.67955 0.0
O477 O 0.66694 0.96547 0.67907 0.0
C478 C 0.73637 0.99284 0.58769 0.0
C479 C 0.67371 0.93725 0.68757 0.0
Dy480 Dy 0.74336 0.95041 0.38747 0.0
C481 C 0.82759 0.04206 0.37517 0.0
C482 C 0.70246 0.90697 0.39842 0.0
Dy483 Dy 0.78926 0.99634 0.38867 0.0
O484 O 0.72868 0.90317 0.38353 0.0
O485 O 0.69816 0.93471 0.40621 0.0
O486 O 0.71305 0.97832 0.3539 0.0
O487 O 0.76045 0.98112 0.35004 0.0
C488 C 0.73536 0.9895 0.33701 0.0
C489 C 0.80844 0.94866 0.42139 0.0
O490 O 0.75955 0.01352 0.42966 0.0
O491 O 0.73532 0.96884 0.43671 0.0
O492 O 0.8291 0.02453 0.39998 0.0
O493 O 0.80302 0.0363 0.35925 0.0
O494 O 0.82732 0.96735 0.40802 0.0
O495 O 0.78044 0.95813 0.42012 0.0
O496 O 0.78121 0.92337 0.36374 0.0
O497 O 0.81189 0.96445 0.35438 0.0
C498 C 0.74255 0.99532 0.44768 0.0
C499 C 0.80639 0.93542 0.35131 0.0
Dy500 Dy 0.79421 0.99563 0.13988 0.0
C501 C 0.69729 0.08547 0.13589 0.0
C502 C 0.84472 0.95944 0.15159 0.0
Dy503 Dy 0.74055 0.04054 0.14382 0.0
O504 O 0.84418 0.98187 0.13122 0.0
O505 O 0.81779 0.95631 0.16472 0.0
O506 O 0.7695 0.96953 0.1032 0.0
O507 O 0.76193 0.01541 0.10391 0.0
C508 C 0.75635 0.99247 0.08817 0.0
C509 C 0.78807 0.0545 0.17947 0.0
O510 O 0.72226 0.00696 0.18008 0.0
O511 O 0.77025 0.98372 0.18679 0.0
O512 O 0.71738 0.08334 0.15815 0.0
O513 O 0.69844 0.06087 0.11976 0.0
O514 O 0.76778 0.07412 0.16864 0.0
O515 O 0.77946 0.02848 0.17352 0.0
O516 O 0.81847 0.03665 0.12202 0.0
O517 O 0.77216 0.06105 0.10781 0.0
C518 C 0.74164 0.98983 0.19752 0.0
C519 C 0.8029 0.05951 0.1082 0.0
Dy520 Dy 0.71402 0.00814 0.90004 0.0
C521 C 0.79873 0.10342 0.89937 0.0
C522 C 0.66341 0.97612 0.89749 0.0
Dy523 Dy 0.761 0.05718 0.88977 0.0
O524 O 0.66591 0.99975 0.91424 0.0
O525 O 0.68935 0.96871 0.88351 0.0
O526 O 0.74402 0.97977 0.93319 0.0
O527 O 0.74925 0.02594 0.93139 0.0
C528 C 0.7579 1.00165 0.9463 0.0
C529 C 0.70773 0.07236 0.85825 0.0
O530 O 0.77495 0.02926 0.84753 0.0
O531 O 0.73084 1.00094 0.84956 0.0
O532 O 0.77921 0.1019 0.87677 0.0
O533 O 0.80073 0.07757 0.91467 0.0
O534 O 0.73067 0.0903 0.86036 0.0
O535 O 0.71654 0.04829 0.87231 0.0
O536 O 0.68862 0.04627 0.92324 0.0
O537 O 0.7322 0.07436 0.92933 0.0
C538 C 0.75521 0.01137 0.83376 0.0
C539 C 0.7025 0.06971 0.93465 0.0
Dy540 Dy 0.63907 0.71263 0.98663 0.0
C541 C 0.62326 0.79261 0.88462 0.0
C542 C 0.64611 0.66573 0.02607 0.0
Dy543 Dy 0.64232 0.75668 0.93184 0.0
O544 O 0.6337 0.66462 0.99855 0.0
O545 O 0.65429 0.69283 0.03234 0.0
O546 O 0.59523 0.72858 0.01148 0.0
O547 O 0.60822 0.75015 0.97033 0.0
C548 C 0.58566 0.74781 0.99002 0.0
C549 C 0.67925 0.7113 0.91682 0.0
O550 O 0.68716 0.76969 0.95478 0.0
O551 O 0.68788 0.73068 0.99221 0.0
O552 O 0.62428 0.80123 0.91372 0.0
O553 O 0.63429 0.76556 0.88161 0.0
O554 O 0.6774 0.73626 0.90031 0.0
O555 O 0.66405 0.71369 0.94237 0.0
O556 O 0.61837 0.68437 0.95114 0.0
O557 O 0.60678 0.7245 0.91687 0.0
C558 C 0.70245 0.7523 0.97597 0.0
C559 C 0.60475 0.69587 0.9258 0.0
Dy560 Dy 0.04631 0.1477 0.74893 0.0
C561 C 0.95598 0.1493 0.8443 0.0
C562 C 0.09743 0.14006 0.71144 0.0
Dy563 Dy 0.99715 0.14394 0.79625 0.0
O564 O 0.09769 0.14913 0.74019 0.0
O565 O 0.06901 0.13662 0.70279 0.0
O566 O 0.01929 0.18266 0.7191 0.0
O567 O 0.01305 0.18302 0.76687 0.0
C568 C 0.00634 0.19773 0.74177 0.0
C569 C 0.04768 0.11361 0.81486 0.0
O570 O 0.98149 0.10371 0.76892 0.0
O571 O 0.02696 0.10098 0.74067 0.0
O572 O 0.98191 0.13412 0.84503 0.0
O573 O 0.95077 0.16027 0.81587 0.0
O574 O 0.02832 0.12666 0.83385 0.0
O575 O 0.03791 0.115 0.78687 0.0
O576 O 0.07139 0.16781 0.78836 0.0
O577 O 0.02476 0.18289 0.81048 0.0
C578 C 1.00121 0.0879 0.75107 0.0
C579 C 0.05548 0.18288 0.80979 0.0
Dy580 Dy 0.88309 0.25 0.43538 0.0
C581 C 0.87929 0.33889 0.5266 0.0
C582 C 0.88185 0.20743 0.39158 0.0
Dy583 Dy 0.89147 0.29543 0.48499 0.0
O584 O 0.88925 0.20274 0.42075 0.0
O585 O 0.87557 0.23592 0.3859 0.0
O586 O 0.85274 0.22341 0.46959 0.0
O587 O 0.85074 0.26909 0.47099 0.0
C588 C 0.83775 0.24584 0.48209 0.0
C589 C 0.92815 0.31086 0.43613 0.0
O590 O 0.93085 0.26354 0.49933 0.0
O591 O 0.93445 0.24369 0.45 0.0
O592 O 0.89224 0.34263 0.49932 0.0
O593 O 0.87426 0.31037 0.53241 0.0
O594 O 0.9271 0.32509 0.4623 0.0
O595 O 0.91113 0.28842 0.43912 0.0
O596 O 0.85948 0.28929 0.40953 0.0
O597 O 0.85409 0.31572 0.45533 0.0
C598 C 0.94758 0.24973 0.4773 0.0
C599 C 0.84942 0.31338 0.42492 0.0
Dy600 Dy 0.49455 0.86677 0.75278 0.0
C601 C 0.55062 0.93815 0.84731 0.0
C602 C 0.49192 0.80501 0.7367 0.0
Dy603 Dy 0.52359 0.90707 0.80274 0.0
O604 O 0.46808 0.82453 0.73768 0.0
O605 O 0.5165 0.82075 0.74082 0.0
O606 O 0.47971 0.91212 0.72625 0.0
O607 O 0.4833 0.91161 0.77422 0.0
C608 C 0.47892 0.92955 0.75098 0.0
C609 C 0.55109 0.85283 0.79413 0.0
O610 O 0.48222 0.8923 0.8302 0.0
O611 O 0.46591 0.85598 0.79582 0.0
O612 O 0.54124 0.91091 0.85105 0.0
O613 O 0.54351 0.94917 0.81961 0.0
O614 O 0.56585 0.87741 0.79666 0.0
O615 O 0.52273 0.85975 0.79424 0.0
O616 O 0.54178 0.87868 0.73232 0.0
O617 O 0.54283 0.92364 0.75744 0.0
C618 C 0.46507 0.86915 0.82342 0.0
C619 C 0.55534 0.9045 0.73757 0.0
Dy620 Dy 0.95474 0.10356 0.24583 0.0
C621 C 0.04167 0.12316 0.33915 0.0
C622 C 0.91422 0.08801 0.20085 0.0
Dy623 Dy 1.00017 0.10752 0.29574 0.0
O624 O 0.92095 0.11527 0.20758 0.0
O625 O 0.933 0.06942 0.21583 0.0
O626 O 0.91373 0.11773 0.27535 0.0
O627 O 0.95812 0.13388 0.28419 0.0
C628 C 0.93026 0.13345 0.2936 0.0
C629 C 0.00603 0.0527 0.26917 0.0
O630 O 0.96211 0.08882 0.3251 0.0
O631 O 0.94035 0.06863 0.28179 0.0
O632 O 0.04672 0.12357 0.30888 0.0
O633 O 0.01437 0.11306 0.34562 0.0
O634 O 0.01353 0.05908 0.29736 0.0
O635 O 0.99959 0.07764 0.25346 0.0
O636 O 0.97316 0.15014 0.22933 0.0
O637 O 0.00594 0.15378 0.27122 0.0
C638 C 0.94184 0.07119 0.31266 0.0
C639 C 0.99156 0.16687 0.24649 0.0
Dy640 Dy 0.4904 0.1279 0.70812 0.0
C641 C 0.58855 0.10839 0.80143 0.0
C642 C 0.46311 0.14879 0.65432 0.0
Dy643 Dy 0.53681 0.12403 0.76638 0.0
O644 O 0.49112 0.13777 0.65681 0.0
O645 O 0.44846 0.147 0.68151 0.0
O646 O 0.51132 0.08348 0.6912 0.0
O647 O 0.53552 0.11165 0.7192 0.0
C648 C 0.53627 0.08647 0.70759 0.0
C649 C 0.49988 0.17543 0.77098 0.0
O650 O 0.56466 0.1484 0.72736 0.0
O651 O 0.52485 0.16186 0.69269 0.0
O652 O 0.58453 0.13293 0.78436 0.0
O653 O 0.56382 0.09249 0.79995 0.0
O654 O 0.5181 0.16434 0.79301 0.0
O655 O 0.49792 0.15431 0.75111 0.0
O656 O 0.47217 0.08464 0.73172 0.0
O657 O 0.51092 0.07814 0.76969 0.0
C658 C 0.554 0.16312 0.70149 0.0
C659 C 0.48752 0.06702 0.75306 0.0
Dy660 Dy 0.10325 0.30668 0.0243 0.0
C661 C 0.09746 0.21919 0.92856 0.0
C662 C 0.11861 0.34878 0.0651 0.0
Dy663 Dy 0.10858 0.25165 0.97922 0.0
O664 O 0.10076 0.3532 0.04111 0.0
O665 O 0.12651 0.32034 0.06852 0.0
O666 O 0.07289 0.33756 0.99384 0.0
O667 O 0.08484 0.29464 0.98038 0.0
C668 C 0.07092 0.31875 0.97115 0.0
C669 C 0.15972 0.24881 0.01738 0.0
O670 O 0.12955 0.28795 0.94983 0.0
O671 O 0.13924 0.32082 0.99007 0.0
O672 O 0.12353 0.23171 0.93378 0.0
O673 O 0.07786 0.2234 0.95148 0.0
O674 O 0.15134 0.22723 0.99952 0.0
O675 O 0.13653 0.26784 0.01802 0.0
O676 O 0.05983 0.28351 0.04023 0.0
O677 O 0.06212 0.24433 0.00471 0.0
C678 C 0.14273 0.31178 0.9609 0.0
C679 C 0.04667 0.26118 0.02566 0.0
Dy680 Dy 0.36346 0.76465 0.46303 0.0
C681 C 0.3561 0.66355 0.54819 0.0
C682 C 0.37684 0.8026 0.41321 0.0
Dy683 Dy 0.36988 0.71464 0.5153 0.0
O684 O 0.36287 0.7774 0.41156 0.0
O685 O 0.38228 0.80789 0.44266 0.0
O686 O 0.32159 0.74168 0.44357 0.0
O687 O 0.35527 0.71726 0.4676 0.0
C688 C 0.32942 0.7152 0.45532 0.0
C689 C 0.40968 0.76011 0.52558 0.0
O690 O 0.40136 0.69497 0.47807 0.0
O691 O 0.40601 0.73882 0.44732 0.0
O692 O 0.38371 0.66887 0.53685 0.0
O693 O 0.33738 0.68642 0.54263 0.0
O694 O 0.39552 0.74439 0.54753 0.0
O695 O 0.39849 0.75183 0.49987 0.0
O696 O 0.32304 0.77992 0.49375 0.0
O697 O 0.31982 0.73332 0.51879 0.0
C698 C 0.41307 0.71002 0.45343 0.0
C699 C 0.30656 0.75951 0.50954 0.0
Dy700 Dy 0.80942 0.50924 0.86259 0.0
C701 C 0.71904 0.60112 0.86093 0.0
C702 C 0.85595 0.46924 0.85362 0.0
Dy703 Dy 0.76137 0.55634 0.85293 0.0
O704 O 0.85755 0.49336 0.86936 0.0
O705 O 0.82773 0.46557 0.84391 0.0
O706 O 0.83949 0.52767 0.89902 0.0
O707 O 0.80134 0.55306 0.88212 0.0
C708 C 0.82473 0.55346 0.8996 0.0
C709 C 0.75661 0.51256 0.80889 0.0
O710 O 0.80067 0.58227 0.83133 0.0
O711 O 0.83249 0.53942 0.82732 0.0
O712 O 0.74212 0.60233 0.84088 0.0
O713 O 0.71841 0.57502 0.87519 0.0
O714 O 0.73345 0.52519 0.82381 0.0
O715 O 0.78101 0.52263 0.8205 0.0
O716 O 0.77925 0.49368 0.903 0.0
O717 O 0.75582 0.54039 0.90392 0.0
C718 C 0.82718 0.56867 0.82269 0.0
C719 C 0.76377 0.51466 0.91876 0.0
Dy720 Dy 0.71573 0.51156 0.11536 0.0
C721 C 0.80151 0.60649 0.1157 0.0
C722 C 0.67163 0.47133 0.1269 0.0
Dy723 Dy 0.764 0.55966 0.12174 0.0
O724 O 0.66808 0.49597 0.11036 0.0
O725 O 0.70039 0.46761 0.13608 0.0
O726 O 0.68568 0.5329 0.07762 0.0
O727 O 0.72458 0.55374 0.09368 0.0
C728 C 0.70155 0.55716 0.07607 0.0
C729 C 0.76832 0.51689 0.16912 0.0
O730 O 0.72493 0.58442 0.14575 0.0
O731 O 0.69248 0.54363 0.14889 0.0
O732 O 0.80821 0.57958 0.1062 0.0
O733 O 0.77468 0.6074 0.12982 0.0
O734 O 0.79173 0.52858 0.15422 0.0
O735 O 0.74422 0.52665 0.15499 0.0
O736 O 0.74864 0.49656 0.07646 0.0
O737 O 0.77029 0.54319 0.07148 0.0
C738 C 0.69842 0.57219 0.15437 0.0
C739 C 0.76352 0.51702 0.0591 0.0
Dy740 Dy 0.76167 0.46873 0.3612 0.0
C741 C 0.66081 0.55617 0.3618 0.0
C742 C 0.80876 0.42676 0.36727 0.0
Dy743 Dy 0.70983 0.51542 0.36783 0.0
O744 O 0.78686 0.42653 0.34684 0.0
O745 O 0.8063 0.45169 0.38275 0.0
O746 O 0.73402 0.43573 0.33674 0.0
O747 O 0.72158 0.48196 0.33285 0.0
C748 C 0.71331 0.45557 0.32711 0.0
C749 C 0.75102 0.51636 0.41727 0.0
O750 O 0.685 0.47475 0.38655 0.0
O751 O 0.7307 0.44747 0.3973 0.0
O752 O 0.66095 0.53182 0.37964 0.0
O753 O 0.68788 0.55863 0.34857 0.0
O754 O 0.73851 0.54 0.40302 0.0
O755 O 0.7428 0.49414 0.40185 0.0
O756 O 0.77932 0.50231 0.32511 0.0
O757 O 0.7314 0.52566 0.31909 0.0
C758 C 0.70005 0.45089 0.39913 0.0
C759 C 0.75984 0.51934 0.30791 0.0
Dy760 Dy 0.7435 0.45192 0.61414 0.0
C761 C 0.83536 0.54004 0.60542 0.0
C762 C 0.70159 0.40949 0.6022 0.0
Dy763 Dy 0.78933 0.50104 0.60312 0.0
O764 O 0.7182 0.41044 0.62725 0.0
O765 O 0.70586 0.43343 0.58457 0.0
O766 O 0.77097 0.42113 0.64818 0.0
O767 O 0.78798 0.46141 0.63195 0.0
C768 C 0.79452 0.43861 0.64913 0.0
C769 C 0.74464 0.50561 0.55834 0.0
O770 O 0.81662 0.46369 0.58045 0.0
O771 O 0.77709 0.42902 0.58211 0.0
O772 O 0.83611 0.51612 0.58854 0.0
O773 O 0.80833 0.5437 0.61865 0.0
O774 O 0.75433 0.52781 0.57428 0.0
O775 O 0.75559 0.48158 0.5717 0.0
O776 O 0.72844 0.48156 0.6549 0.0
O777 O 0.7746 0.50607 0.65422 0.0
C778 C 0.80561 0.43691 0.57464 0.0
C779 C 0.74927 0.4975 0.66965 0.0
Dy780 Dy 0.47424 0.10279 0.20416 0.0
C781 C 0.50797 0.2054 0.26561 0.0
C782 C 0.44401 0.07072 0.16214 0.0
Dy783 Dy 0.50568 0.14345 0.25221 0.0
O784 O 0.45637 0.09638 0.15611 0.0
O785 O 0.45167 0.06085 0.1902 0.0
O786 O 0.4327 0.13308 0.21049 0.0
O787 O 0.47617 0.15029 0.21123 0.0
C788 C 0.44777 0.15759 0.21132 0.0
C789 C 0.51866 0.08034 0.25513 0.0
O790 O 0.46007 0.13402 0.27564 0.0
O791 O 0.45326 0.0893 0.25018 0.0
O792 O 0.53072 0.18512 0.27093 0.0
O793 O 0.48442 0.19066 0.25616 0.0
O794 O 0.51836 0.09799 0.27965 0.0
O795 O 0.51494 0.098 0.23166 0.0
O796 O 0.51511 0.11801 0.17542 0.0
O797 O 0.53638 0.1512 0.21064 0.0
C798 C 0.44528 0.1088 0.27192 0.0
C799 C 0.53481 0.13911 0.18267 0.0
Dy800 Dy 1.00123 0.90212 0.70899 0.0
C801 C 0.08574 0.92358 0.80782 0.0
C802 C 0.96544 0.88551 0.66158 0.0
Dy803 Dy 0.04576 0.90169 0.76624 0.0
O804 O 0.95607 0.88795 0.69073 0.0
O805 O 0.994 0.89365 0.65817 0.0
O806 O 0.98839 0.95084 0.71138 0.0
O807 O 0.00192 0.92814 0.75369 0.0
C808 C 0.99654 0.95446 0.74017 0.0
C809 C 0.06825 0.86595 0.72138 0.0
O810 O 0.02214 0.85769 0.77977 0.0
O811 O 0.9983 0.85424 0.73137 0.0
O812 O 0.07961 0.89529 0.80546 0.0
O813 O 0.06623 0.93974 0.79094 0.0
O814 O 0.08324 0.86944 0.7472 0.0
O815 O 0.04373 0.88163 0.72246 0.0
O816 O 0.04175 0.92241 0.68463 0.0
O817 O 0.06886 0.93098 0.73027 0.0
C818 C 0.00844 0.84119 0.75836 0.0
C819 C 0.06568 0.93316 0.69939 0.0
Dy820 Dy 0.46548 0.8848 0.24428 0.0
C821 C 0.54974 0.86769 0.34706 0.0
C822 C 0.41494 0.89538 0.20718 0.0
Dy823 Dy 0.5153 0.8821 0.296 0.0
O824 O 0.44346 0.89996 0.19846 0.0
O825 O 0.414 0.88488 0.23601 0.0
O826 O 0.49248 0.84827 0.21716 0.0
O827 O 0.49598 0.84817 0.26465 0.0
C828 C 0.50458 0.83316 0.24106 0.0
C829 C 0.46549 0.91483 0.30936 0.0
O830 O 0.53215 0.92494 0.26953 0.0
O831 O 0.48848 0.93206 0.23845 0.0
O832 O 0.53106 0.89085 0.34387 0.0
O833 O 0.5534 0.85446 0.32011 0.0
O834 O 0.48251 0.90198 0.33106 0.0
O835 O 0.47778 0.91156 0.28278 0.0
O836 O 0.4377 0.86314 0.28394 0.0
O837 O 0.48152 0.84693 0.31124 0.0
C838 C 0.51441 0.94309 0.25068 0.0
C839 C 0.45095 0.84776 0.30783 0.0
Dy840 Dy 0.89322 0.7529 0.02333 0.0
C841 C 0.88731 0.66032 0.93227 0.0
C842 C 0.90188 0.78418 0.07511 0.0
Dy843 Dy 0.89574 0.70177 0.97655 0.0
O844 O 0.90698 0.79451 0.04656 0.0
O845 O 0.89178 0.75702 0.07523 0.0
O846 O 0.84896 0.77793 0.00755 0.0
O847 O 0.86408 0.74081 0.98408 0.0
C848 C 0.84069 0.75917 0.98663 0.0
C849 C 0.92203 0.68617 0.03094 0.0
O850 O 0.94108 0.72406 0.96215 0.0
O851 O 0.9394 0.76099 0.99958 0.0
O852 O 0.90841 0.65887 0.95365 0.0
O853 O 0.87229 0.68621 0.93329 0.0
O854 O 0.90843 0.66718 0.01349 0.0
O855 O 0.9225 0.71203 0.01735 0.0
O856 O 0.86929 0.71856 0.05093 0.0
O857 O 0.85534 0.69125 0.00801 0.0
C858 C 0.95476 0.74564 0.97762 0.0
C859 C 0.853 0.69784 0.0382 0.0
Dy860 Dy 0.6388 0.29525 0.4911 0.0
C861 C 0.62232 0.20904 0.59264 0.0
C862 C 0.64403 0.34463 0.45164 0.0
Dy863 Dy 0.6391 0.24513 0.54236 0.0
O864 O 0.62843 0.34392 0.47794 0.0
O865 O 0.65742 0.31844 0.44749 0.0
O866 O 0.60807 0.26777 0.46071 0.0
O867 O 0.60382 0.26324 0.50835 0.0
C868 C 0.59231 0.25458 0.48306 0.0
C869 C 0.67011 0.29228 0.55969 0.0
O870 O 0.68339 0.22963 0.51537 0.0
O871 O 0.68654 0.27318 0.48407 0.0
O872 O 0.63705 0.23378 0.59358 0.0
O873 O 0.61865 0.20194 0.56319 0.0
O874 O 0.65934 0.27222 0.57912 0.0
O875 O 0.66776 0.28353 0.53167 0.0
O876 O 0.61748 0.32098 0.53024 0.0
O877 O 0.59905 0.27724 0.55258 0.0
C878 C 0.69932 0.24733 0.49518 0.0
C879 C 0.6006 0.30704 0.55183 0.0
Dy880 Dy 0.24002 0.45346 0.15217 0.0
C881 C 0.14875 0.54561 0.15713 0.0
C882 C 0.27916 0.40593 0.14779 0.0
Dy883 Dy 0.18917 0.50073 0.14386 0.0
O884 O 0.25333 0.40576 0.16381 0.0
O885 O 0.28446 0.43267 0.13644 0.0
O886 O 0.26822 0.48519 0.17992 0.0
O887 O 0.22088 0.48783 0.1838 0.0
C888 C 0.24537 0.49842 0.19476 0.0
C889 C 0.17637 0.45295 0.10931 0.0
O890 O 0.21923 0.51595 0.10319 0.0
O891 O 0.24453 0.46971 0.10016 0.0
O892 O 0.14899 0.53068 0.13151 0.0
O893 O 0.17244 0.53777 0.17438 0.0
O894 O 0.15717 0.47594 0.11185 0.0
O895 O 0.19953 0.45786 0.12552 0.0
O896 O 0.20089 0.42949 0.17796 0.0
O897 O 0.16552 0.47037 0.17795 0.0
C898 C 0.23525 0.4959 0.0865 0.0
C899 C 0.1733 0.44206 0.18551 0.0
Dy900 Dy 0.24531 0.4494 0.88806 0.0
C901 C 0.33365 0.53912 0.87048 0.0
C902 C 0.20807 0.40229 0.89503 0.0
Dy903 Dy 0.29203 0.49701 0.8875 0.0
O904 O 0.23719 0.4001 0.88713 0.0
O905 O 0.19933 0.43021 0.89864 0.0
O906 O 0.21633 0.47577 0.8522 0.0
O907 O 0.26374 0.47858 0.8496 0.0
C908 C 0.23895 0.48679 0.83564 0.0
C909 C 0.30825 0.45142 0.9253 0.0
O910 O 0.26164 0.51462 0.92838 0.0
O911 O 0.2343 0.47111 0.93552 0.0
O912 O 0.33463 0.52235 0.89584 0.0
O913 O 0.30797 0.53481 0.85568 0.0
O914 O 0.32826 0.46918 0.91227 0.0
O915 O 0.28096 0.46128 0.92011 0.0
O916 O 0.28417 0.42125 0.86812 0.0
O917 O 0.31509 0.46203 0.85705 0.0
C918 C 0.24284 0.49753 0.94615 0.0
C919 C 0.30965 0.43286 0.85606 0.0
Dy920 Dy 0.29098 0.49231 0.636 0.0
C921 C 0.19902 0.58811 0.63764 0.0
C922 C 0.34221 0.45583 0.64396 0.0
Dy923 Dy 0.24068 0.54134 0.64275 0.0
O924 O 0.31497 0.44636 0.63717 0.0
O925 O 0.34161 0.4849 0.64516 0.0
O926 O 0.2633 0.46966 0.59896 0.0
O927 O 0.25927 0.51568 0.60208 0.0
C928 C 0.25136 0.49408 0.58552 0.0
C929 C 0.29061 0.54954 0.67587 0.0
O930 O 0.2218 0.50889 0.67988 0.0
O931 O 0.26705 0.47983 0.68327 0.0
O932 O 0.22099 0.58542 0.65801 0.0
O933 O 0.1977 0.56335 0.62189 0.0
O934 O 0.27265 0.57173 0.66627 0.0
O935 O 0.27901 0.52462 0.67082 0.0
O936 O 0.31541 0.53081 0.611 0.0
O937 O 0.27119 0.56157 0.60608 0.0
C938 C 0.23974 0.48883 0.69564 0.0
C939 C 0.30125 0.55635 0.60114 0.0
Dy940 Dy 0.21579 0.50767 0.39947 0.0
C941 C 0.29337 0.607 0.39574 0.0
C942 C 0.16916 0.46889 0.40314 0.0
Dy943 Dy 0.25862 0.55857 0.38787 0.0
O944 O 0.16822 0.49547 0.41491 0.0
O945 O 0.19638 0.46316 0.39103 0.0
O946 O 0.25178 0.48277 0.4286 0.0
O947 O 0.24854 0.52904 0.43102 0.0
C948 C 0.26017 0.50542 0.44461 0.0
C949 C 0.20838 0.56903 0.35167 0.0
O950 O 0.2745 0.53008 0.34685 0.0
O951 O 0.23102 0.50108 0.34871 0.0
O952 O 0.26637 0.60722 0.38305 0.0
O953 O 0.30299 0.57931 0.40254 0.0
O954 O 0.23118 0.58725 0.35237 0.0
O955 O 0.2149 0.54688 0.36974 0.0
O956 O 0.18708 0.54425 0.42119 0.0
O957 O 0.22868 0.57524 0.42675 0.0
C958 C 0.25538 0.51168 0.33304 0.0
C959 C 0.19927 0.569 0.4313 0.0
C960 C 0.99938 0.47973 0.27351 0.0
C961 C 0.98193 0.46457 0.25116 0.0
C962 C 1.00043 0.51187 0.27477 0.0
C963 C 0.98255 0.53178 0.25484 0.0
H964 H 0.01267 0.46651 0.29038 0.0
H965 H 0.01572 0.52117 0.29173 0.0
S966 S 0.92727 0.50467 0.19601 0.0
N967 N 0.94329 0.47307 0.21072 0.0
N968 N 0.94352 0.53249 0.21404 0.0
C969 C 0.96322 0.51694 0.23369 0.0
C970 C 0.96319 0.484 0.23168 0.0
C971 C 0.75117 0.75092 0.49746 0.0
C972 C 0.76568 0.75498 0.5266 0.0
C973 C 0.71822 0.7495 0.49469 0.0
C974 C 0.69731 0.75341 0.52051 0.0
H975 H 0.76545 0.74799 0.47658 0.0
H976 H 0.70897 0.74514 0.47176 0.0
S977 S 0.7222 0.76942 0.60137 0.0
N978 N 0.75534 0.76521 0.58174 0.0
N979 N 0.69433 0.76456 0.57584 0.0
C980 C 0.71132 0.75935 0.54937 0.0
C981 C 0.74499 0.75963 0.55253 0.0
C982 C 0.53075 0.46915 0.7617 0.0
C983 C 0.50324 0.4561 0.75192 0.0
C984 C 0.53365 0.50097 0.76277 0.0
C985 C 0.50989 0.52199 0.75275 0.0
H986 H 0.54995 0.45466 0.76969 0.0
H987 H 0.55476 0.50928 0.77242 0.0
S988 S 0.43413 0.49999 0.72139 0.0
N989 N 0.45213 0.46747 0.73022 0.0
N990 N 0.45838 0.52633 0.73043 0.0
C991 C 0.4829 0.50923 0.74124 0.0
C992 C 0.47945 0.47677 0.74128 0.0
C993 C 0.74868 0.27382 0.98607 0.0
C994 C 0.76763 0.27036 0.01304 0.0
C995 C 0.71568 0.27269 0.98794 0.0
C996 C 0.69984 0.26834 0.01691 0.0
H997 H 0.75953 0.27598 0.96304 0.0
H998 H 0.70254 0.27455 0.96639 0.0
S999 S 0.738 0.25954 0.09481 0.0
N1000 N 0.76737 0.26299 0.06976 0.0
N1001 N 0.70619 0.26183 0.07343 0.0
C1002 C 0.71851 0.26569 0.04408 0.0
C1003 C 0.75199 0.26639 0.04211 0.0
C1004 C 0.26637 0.98593 0.47022 0.0
C1005 C 0.26879 0.01318 0.45232 0.0
C1006 C 0.26439 0.98548 0.50383 0.0
C1007 C 0.26613 0.0121 0.52119 0.0
H1008 H 0.26534 0.96486 0.45818 0.0
H1009 H 0.26162 0.96411 0.51629 0.0
S1010 S 0.27407 0.08924 0.48597 0.0
N1011 N 0.27349 0.06741 0.45534 0.0
N1012 N 0.27074 0.06649 0.51701 0.0
C1013 C 0.26925 0.03926 0.50338 0.0
C1014 C 0.27039 0.03981 0.46955 0.0
C1015 C 0.24138 0.03555 0.72078 0.0
C1016 C 0.26382 0.01843 0.70419 0.0
C1017 C 0.24153 0.03696 0.75391 0.0
C1018 C 0.26406 0.02098 0.77238 0.0
H1019 H 0.22402 0.04872 0.70794 0.0
H1020 H 0.22351 0.05059 0.7651 0.0
S1021 S 0.32639 0.97025 0.7401 0.0
N1022 N 0.30848 0.98424 0.70853 0.0
N1023 N 0.30822 0.98528 0.77058 0.0
C1024 C 0.28614 1.00292 0.7559 0.0
C1025 C 0.28616 1.00204 0.72203 0.0
C1026 C 0.25312 0.03123 0.00707 0.0
C1027 C 0.24286 0.00529 0.02393 0.0
C1028 C 0.25484 0.03297 0.9735 0.0
C1029 C 0.24678 0.00879 0.95457 0.0
H1030 H 0.26047 0.05038 0.01992 0.0
H1031 H 0.26274 0.05357 0.96225 0.0
S1032 S 0.21674 0.9361 0.98666 0.0
N1033 N 0.2234 0.95524 0.01842 0.0
N1034 N 0.2268 0.95814 0.95655 0.0
C1035 C 0.23628 0.9828 0.97129 0.0
C1036 C 0.23432 0.98116 0.00538 0.0
C1037 C 0.26565 0.98103 0.22796 0.0
C1038 C 0.24485 0.99765 0.20798 0.0
C1039 C 0.26789 0.98661 0.26063 0.0
C1040 C 0.24925 0.009 0.27535 0.0
H1041 H 0.28111 0.964 0.218 0.0
H1042 H 0.28479 0.97353 0.27441 0.0
S1043 S 0.19342 0.06125 0.23316 0.0
N1044 N 0.20697 0.03907 0.20529 0.0
N1045 N 0.21055 0.04934 0.26601 0.0
C1046 C 0.22852 0.02597 0.25548 0.0
C1047 C 0.22652 0.02041 0.22215 0.0
C1048 C 0.47267 0.2926 0.01924 0.0
C1049 C 0.45179 0.26842 0.02199 0.0
C1050 C 0.50543 0.28836 0.01951 0.0
C1051 C 0.5198 0.25954 0.02178 0.0
H1052 H 0.46363 0.31559 0.01698 0.0
H1053 H 0.51967 0.30799 0.01772 0.0
S1054 S 0.47752 0.1882 0.03202 0.0
N1055 N 0.44922 0.21419 0.02916 0.0
N1056 N 0.51045 0.20615 0.02902 0.0
C1057 C 0.49958 0.23503 0.02519 0.0
C1058 C 0.46591 0.23941 0.02546 0.0
C1059 C 0.96036 0.28225 0.01124 0.0
C1060 C 0.94401 0.25817 0.02497 0.0
C1061 C 0.99323 0.28321 0.01263 0.0
C1062 C 0.0116 0.25978 0.02708 0.0
H1063 H 0.94766 0.30055 0.99923 0.0
H1064 H 0.00448 0.30228 1.00153 0.0
S1065 S 0.98088 0.1906 0.06512 0.0
N1066 N 0.94943 0.2097 0.05309 0.0
N1067 N 0.01065 0.21128 0.05454 0.0
C1068 C 0.99568 0.23531 0.04038 0.0
C1069 C 0.96217 0.23458 0.03963 0.0
C1070 C 0.01584 0.72471 0.28612 0.0
C1071 C 0.99784 0.70731 0.26603 0.0
C1072 C 0.01608 0.757 0.28398 0.0
C1073 C 0.99855 0.77426 0.26144 0.0
H1074 H 0.03035 0.71325 0.30364 0.0
H1075 H 0.03036 0.76858 0.3002 0.0
S1076 S 0.94553 0.74035 0.20451 0.0
N1077 N 0.96113 0.71071 0.22344 0.0
N1078 N 0.96089 0.77009 0.2198 0.0
C1079 C 0.98018 0.75701 0.24152 0.0
C1080 C 0.98006 0.7242 0.24365 0.0
C1081 C 0.49409 0.78638 0.53401 0.0
C1082 C 0.51264 0.75972 0.52977 0.0
C1083 C 0.46106 0.78667 0.53289 0.0
C1084 C 0.44483 0.76024 0.52796 0.0
H1085 H 0.50522 0.80757 0.53704 0.0
H1086 H 0.44821 0.80783 0.53552 0.0
S1087 S 0.48166 0.68407 0.51792 0.0
N1088 N 0.51147 0.70611 0.52133 0.0
N1089 N 0.45027 0.70622 0.52086 0.0
C1090 C 0.46308 0.73335 0.52475 0.0
C1091 C 0.49657 0.7332 0.52518 0.0
C1092 C 0.97186 0.7303 0.5251 0.0
C1093 C 0.95396 0.75703 0.51946 0.0
C1094 C 0.00495 0.73021 0.52605 0.0
C1095 C 0.02205 0.75691 0.52243 0.0
H1096 H 0.96032 0.70909 0.52789 0.0
H1097 H 0.01721 0.70882 0.52993 0.0
S1098 S 0.98692 0.8331 0.50715 0.0
N1099 N 0.9567 0.81116 0.50949 0.0
N1100 N 0.01784 0.81086 0.51333 0.0
C1101 C 0.00441 0.7838 0.51758 0.0
C1102 C 0.97087 0.78386 0.51558 0.0
C1103 C 0.98366 0.2197 0.21634 0.0
C1104 C 0.99087 0.20198 0.24397 0.0
C1105 C 0.98253 0.2523 0.21579 0.0
C1106 C 0.98753 0.26925 0.24308 0.0
H1107 H 0.97914 0.20835 0.19478 0.0
H1108 H 0.97749 0.26425 0.19379 0.0
S1109 S 0.00422 0.23456 0.32225 0.0
N1110 N 0.00156 0.20536 0.29965 0.0
N1111 N 0.99824 0.26436 0.29888 0.0
C1112 C 0.99372 0.25158 0.27077 0.0
C1113 C 0.99563 0.2189 0.27117 0.0
C1114 C 0.465 0.75289 0.73363 0.0
C1115 C 0.49217 0.76988 0.73632 0.0
C1116 C 0.46568 0.72043 0.73479 0.0
C1117 C 0.49349 0.70261 0.73927 0.0
H1118 H 0.44279 0.76476 0.73098 0.0
H1119 H 0.44387 0.70919 0.73323 0.0
S1120 S 0.5711 0.73484 0.74905 0.0
N1121 N 0.54792 0.76494 0.74419 0.0
N1122 N 0.54874 0.7055 0.74729 0.0
C1123 C 0.52054 0.71932 0.74248 0.0
C1124 C 0.52001 0.75218 0.74073 0.0
C1125 C 0.98663 0.49759 0.75192 0.0
C1126 C 0.01302 0.47785 0.74753 0.0
C1127 C 0.98859 0.52968 0.7547 0.0
C1128 C 0.01704 0.54492 0.75244 0.0
H1129 H 0.96388 0.48802 0.75399 0.0
H1130 H 0.96729 0.54271 0.75846 0.0
S1131 S 0.09349 0.5053 0.73956 0.0
N1132 N 0.06901 0.47741 0.74108 0.0
N1133 N 0.07241 0.53666 0.74426 0.0
C1134 C 0.04353 0.52562 0.74743 0.0
C1135 C 0.04165 0.49276 0.74559 0.0
C1136 C 0.25223 0.26746 0.50176 0.0
C1137 C 0.23786 0.25885 0.47398 0.0
C1138 C 0.28511 0.26783 0.5046 0.0
C1139 C 0.30601 0.25843 0.48037 0.0
H1140 H 0.23791 0.27439 0.52154 0.0
H1141 H 0.29427 0.27552 0.52644 0.0
S1142 S 0.28089 0.22877 0.40445 0.0
N1143 N 0.24782 0.23811 0.42236 0.0
N1144 N 0.30891 0.23705 0.42864 0.0
C1145 C 0.292 0.24795 0.45316 0.0
C1146 C 0.25836 0.2486 0.44977 0.0
C1147 C 0.47295 0.50646 0.23054 0.0
C1148 C 0.49384 0.48697 0.24794 0.0
C1149 C 0.47463 0.53877 0.23033 0.0
C1150 C 0.49767 0.55355 0.24705 0.0
H1151 H 0.45531 0.49671 0.2165 0.0
H1152 H 0.45802 0.55218 0.21655 0.0
S1153 S 0.55534 0.51427 0.29864 0.0
N1154 N 0.53659 0.48622 0.28408 0.0
N1155 N 0.54015 0.5455 0.28289 0.0
C1156 C 0.51809 0.53431 0.26461 0.0
C1157 C 0.51615 0.50172 0.26523 0.0
C1158 C 0.28216 0.71844 0.99451 0.0
C1159 C 0.2997 0.74423 0.98691 0.0
C1160 C 0.24909 0.71993 0.99779 0.0
C1161 C 0.23165 0.74701 0.99187 0.0
H1162 H 0.29411 0.69676 0.99771 0.0
H1163 H 0.23715 0.69958 0.00435 0.0
S1164 S 0.26568 0.81983 0.9657 0.0
N1165 N 0.29599 0.79694 0.97163 0.0
N1166 N 0.23539 0.79963 0.97467 0.0
C1167 C 0.24903 0.7725 0.98281 0.0
C1168 C 0.28243 0.77115 0.9811 0.0
C1169 C 0.766 0.98605 0.50166 0.0
C1170 C 0.74146 0.99856 0.48313 0.0
C1171 C 0.76467 0.98503 0.5351 0.0
C1172 C 0.73895 0.99705 0.55203 0.0
H1173 H 0.7862 0.97602 0.49013 0.0
H1174 H 0.78389 0.97435 0.54782 0.0
S1175 S 0.66686 0.02934 0.51504 0.0
N1176 N 0.68945 0.0209 0.48464 0.0
N1177 N 0.68715 0.02003 0.54681 0.0
C1178 C 0.71409 0.00943 0.53369 0.0
C1179 C 0.71525 0.00989 0.4996 0.0
C1180 C 0.75611 0.00696 0.28394 0.0
C1181 C 0.73397 0.99061 0.30135 0.0
C1182 C 0.75789 0.00638 0.25076 0.0
C1183 C 0.73774 0.98932 0.23291 0.0
H1184 H 0.7726 0.02015 0.29616 0.0
H1185 H 0.77551 0.01948 0.23891 0.0
S1186 S 0.67874 0.9384 0.26656 0.0
N1187 N 0.69342 0.9539 0.29772 0.0
N1188 N 0.69668 0.95338 0.23557 0.0
C1189 C 0.71595 0.97217 0.24982 0.0
C1190 C 0.71414 0.97263 0.28385 0.0
C1191 C 0.751 0.02432 1.00152 0.0
C1192 C 0.76053 0.99991 0.98249 0.0
C1193 C 0.7492 0.02164 0.03509 0.0
C1194 C 0.7566 0.99433 0.05193 0.0
H1195 H 0.74409 0.04569 0.99039 0.0
H1196 H 0.74175 0.04131 0.04798 0.0
S1197 S 0.78527 0.92395 0.01426 0.0
N1198 N 0.77905 0.94766 0.98414 0.0
N1199 N 0.77579 0.94274 0.04608 0.0
C1200 C 0.76687 0.96999 0.03324 0.0
C1201 C 0.76876 0.97273 0.99913 0.0
C1202 C 0.76224 0.9752 0.75191 0.0
C1203 C 0.74816 0.997 0.7311 0.0
C1204 C 0.76552 0.98013 0.78464 0.0
C1205 C 0.75582 0.00754 0.79824 0.0
H1206 H 0.77018 0.95368 0.74293 0.0
H1207 H 0.7754 0.96214 0.79948 0.0
S1208 S 0.71686 0.07187 0.75467 0.0
N1209 N 0.72357 0.04677 0.72728 0.0
N1210 N 0.73079 0.05658 0.78772 0.0
C1211 C 0.74189 0.02955 0.7776 0.0
C1212 C 0.73785 0.02421 0.74448 0.0
C1213 C 0.50045 0.72504 0.98058 0.0
C1214 C 0.48276 0.75205 0.98428 0.0
C1215 C 0.53352 0.72437 0.98087 0.0
C1216 C 0.55094 0.75075 0.9834 0.0
H1217 H 0.48868 0.70407 0.97828 0.0
H1218 H 0.54567 0.7027 0.97972 0.0
S1219 S 0.51616 0.82792 0.9891 0.0
N1220 N 0.48572 0.80636 0.98785 0.0
N1221 N 0.54712 0.805 0.98745 0.0
C1222 C 0.53352 0.77802 0.98548 0.0
C1223 C 0.49984 0.77866 0.98601 0.0
C1224 C 0.01004 0.7272 0.96187 0.0
C1225 C 0.98982 0.74863 0.97636 0.0
C1226 C 0.04296 0.72812 0.96456 0.0
C1227 C 0.05723 0.74985 0.98268 0.0
H1228 H 1.00045 0.70953 0.94836 0.0
H1229 H 0.05735 0.71216 0.95168 0.0
S1230 S 0.01586 0.81341 0.02148 0.0
N1231 N 0.98773 0.79384 0.00727 0.0
N1232 N 0.04824 0.79522 0.01169 0.0
C1233 C 0.03727 0.77158 0.99637 0.0
C1234 C 0.00413 0.77101 0.99348 0.0
C1235 C 0.00165 0.24949 0.76847 0.0
C1236 C 0.00579 0.23255 0.74079 0.0
C1237 C 0.00218 0.28171 0.76817 0.0
C1238 C 0.00751 0.29923 0.74031 0.0
H1239 H 0.9972 0.23779 0.79068 0.0
H1240 H 0.99668 0.29301 0.78982 0.0
S1241 S 0.01984 0.26696 0.66124 0.0
N1242 N 0.0158 0.23692 0.68457 0.0
N1243 N 0.0165 0.29631 0.68412 0.0
C1244 C 0.01212 0.28251 0.7127 0.0
C1245 C 0.01146 0.24982 0.71291 0.0
C1246 C 0.50973 0.22989 0.4618 0.0
C1247 C 0.48971 0.25265 0.47438 0.0
C1248 C 0.54265 0.23054 0.46428 0.0
C1249 C 0.55729 0.25383 0.4797 0.0
H1250 H 0.49989 0.21075 0.45087 0.0
H1251 H 0.55669 0.2123 0.45463 0.0
S1252 S 0.51655 0.32065 0.51371 0.0
N1253 N 0.48815 0.30036 0.50098 0.0
N1254 N 0.54895 0.30173 0.50497 0.0
C1255 C 0.53768 0.27727 0.49113 0.0
C1256 C 0.50437 0.27663 0.4887 0.0
C1257 C 0.0015 0.27066 0.46641 0.0
C1258 C 0.98283 0.24788 0.48001 0.0
C1259 C 0.03451 0.27014 0.46935 0.0
C1260 C 0.05071 0.24692 0.48637 0.0
H1261 H 0.99043 0.28939 0.45357 0.0
H1262 H 0.04733 0.28844 0.45873 0.0
S1263 S 0.01306 0.18035 0.5244 0.0
N1264 N 0.98358 0.20063 0.50967 0.0
N1265 N 0.0445 0.1992 0.51536 0.0
C1266 C 0.03211 0.22365 0.49948 0.0
C1267 C 0.99866 0.22424 0.49633 0.0
C1268 C 0.0028 0.75757 0.73426 0.0
C1269 C 0.01081 0.73937 0.7611 0.0
C1270 C 0.00158 0.78959 0.73426 0.0
C1271 C 0.00841 0.80628 0.76109 0.0
H1272 H 0.99725 0.74693 0.71254 0.0
H1273 H 0.99547 0.80137 0.71242 0.0
S1274 S 0.03257 0.77046 0.83771 0.0
N1275 N 0.02674 0.74128 0.81552 0.0
N1276 N 0.02512 0.80097 0.81546 0.0
C1277 C 0.01726 0.78847 0.78807 0.0
C1278 C 0.01826 0.75548 0.78811 0.0
C1279 C 0.52594 0.28996 0.28267 0.0
C1280 C 0.50525 0.3072 0.26276 0.0
C1281 C 0.52753 0.25753 0.28349 0.0
C1282 C 0.50828 0.24026 0.26468 0.0
H1283 H 0.54166 0.30159 0.2974 0.0
H1284 H 0.54383 0.24597 0.29922 0.0
S1285 S 0.45254 0.2734 0.20572 0.0
N1286 N 0.46679 0.30314 0.22198 0.0
N1287 N 0.46957 0.24388 0.22357 0.0
C1288 C 0.48815 0.25729 0.24423 0.0
C1289 C 0.4867 0.29 0.24324 0.0
C1290 C 0.4764 0.01643 0.72607 0.0
C1291 C 0.48229 0.03226 0.75396 0.0
C1292 C 0.47548 0.98408 0.72512 0.0
C1293 C 0.47883 0.9649 0.75227 0.0
H1294 H 0.4739 0.02915 0.70409 0.0
H1295 H 0.47222 0.974 0.70259 0.0
S1296 S 0.48763 0.99448 0.83297 0.0
N1297 N 0.48874 0.0252 0.81018 0.0
N1298 N 0.48302 0.96616 0.80927 0.0
C1299 C 0.48231 0.98069 0.78075 0.0
C1300 C 0.485 0.0135 0.78139 0.0
C1301 C 0.21368 0.22689 0.03291 0.0
C1302 C 0.19439 0.25262 0.02512 0.0
C1303 C 0.24682 0.22777 0.0348 0.0
C1304 C 0.2632 0.25417 0.02736 0.0
H1305 H 0.20297 0.20544 0.03725 0.0
H1306 H 0.25975 0.20723 0.0412 0.0
S1307 S 0.22512 0.32858 0.00624 0.0
N1308 N 0.19571 0.30603 0.01155 0.0
N1309 N 0.25667 0.30737 0.01285 0.0
C1310 C 0.24429 0.28016 0.01976 0.0
C1311 C 0.21055 0.27949 0.01912 0.0
C1312 C 0.01712 1.00413 0.23756 0.0
C1313 C 0.00146 0.01951 0.26208 0.0
C1314 C 0.01813 0.97185 0.2364 0.0
C1315 C 0.00357 0.95321 0.25968 0.0
H1316 H 0.02969 0.01694 0.21981 0.0
H1317 H 0.03025 0.96144 0.21688 0.0
S1318 S 0.96073 0.98148 0.32952 0.0
N1319 N 0.97249 0.01227 0.31102 0.0
N1320 N 0.97315 0.95332 0.30779 0.0
C1321 C 0.98776 0.96838 0.28389 0.0
C1322 C 0.98718 1.00081 0.2854 0.0
C1323 C 0.25573 0.7903 0.51875 0.0
C1324 C 0.27123 0.76281 0.51181 0.0
C1325 C 0.2228 0.79277 0.52163 0.0
C1326 C 0.20323 0.76825 0.51666 0.0
H1327 H 0.26917 0.8099 0.52303 0.0
H1328 H 0.21255 0.81419 0.52857 0.0
S1329 S 0.23179 0.69215 0.49344 0.0
N1330 N 0.26385 0.71085 0.49782 0.0
N1331 N 0.2028 0.71617 0.50111 0.0
C1332 C 0.21844 0.74114 0.50783 0.0
C1333 C 0.25201 0.73829 0.50597 0.0
C1334 C 0.77332 0.48883 0.97337 0.0
C1335 C 0.76155 0.5135 0.95464 0.0
C1336 C 0.77387 0.48953 0.00694 0.0
C1337 C 0.76393 0.51542 0.02337 0.0
H1338 H 0.78244 0.46884 0.96204 0.0
H1339 H 0.78279 0.4699 0.02004 0.0
S1340 S 0.72991 0.58573 0.98621 0.0
N1341 N 0.73803 0.56401 0.95633 0.0
N1342 N 0.74143 0.56608 0.01768 0.0
C1343 C 0.75239 0.54014 0.00484 0.0
C1344 C 0.75062 0.53901 0.97113 0.0
C1345 C 0.75532 0.49368 0.22272 0.0
C1346 C 0.76822 0.51724 0.20461 0.0
C1347 C 0.75346 0.49458 0.25594 0.0
C1348 C 0.76387 0.51929 0.2727 0.0
H1349 H 0.74645 0.47442 0.21113 0.0
H1350 H 0.74335 0.47577 0.26865 0.0
S1351 S 0.79623 0.58851 0.23655 0.0
N1352 N 0.78958 0.56729 0.20623 0.0
N1353 N 0.78568 0.56878 0.26825 0.0
C1354 C 0.77603 0.54337 0.25492 0.0
C1355 C 0.77824 0.54241 0.22108 0.0
C1356 C 0.74406 0.48392 0.50294 0.0
C1357 C 0.74497 0.5092 0.52229 0.0
C1358 C 0.74764 0.48647 0.46965 0.0
C1359 C 0.75166 0.51429 0.45332 0.0
H1360 H 0.74109 0.46174 0.51362 0.0
H1361 H 0.7474 0.46634 0.45632 0.0
S1362 S 0.75992 0.58724 0.49226 0.0
N1363 N 0.75344 0.5632 0.5218 0.0
N1364 N 0.75911 0.56751 0.46 0.0
C1365 C 0.75349 0.53964 0.47232 0.0
C1366 C 0.75028 0.53719 0.50631 0.0
C1367 C 0.77598 0.51938 0.75228 0.0
C1368 C 0.75399 0.50745 0.7737 0.0
C1369 C 0.77316 0.51696 0.71931 0.0
C1370 C 0.74842 0.50214 0.70527 0.0
H1371 H 0.79554 0.53123 0.761 0.0
H1372 H 0.79113 0.52663 0.70464 0.0
S1373 S 0.6845 0.46631 0.7508 0.0
N1374 N 0.70615 0.48036 0.77826 0.0
N1375 N 0.70144 0.4748 0.71672 0.0
C1376 C 0.72619 0.48999 0.72649 0.0
C1377 C 0.72883 0.49292 0.76031 0.0
C1378 C 0.50198 0.26088 0.78912 0.0
C1379 C 0.49845 0.27672 0.75995 0.0
C1380 C 0.50112 0.22881 0.7921 0.0
C1381 C 0.49594 0.21 0.76633 0.0
H1382 H 0.50566 0.27341 0.81013 0.0
H1383 H 0.50492 0.21856 0.81523 0.0
S1384 S 0.48452 0.23889 0.68431 0.0
N1385 N 0.48982 0.2697 0.70415 0.0
N1386 N 0.48649 0.2106 0.71033 0.0
C1387 C 0.49178 0.22541 0.73708 0.0
C1388 C 0.49347 0.25814 0.73379 0.0
C1389 C 0.51873 0.99357 0.27967 0.0
C1390 C 0.51786 0.97792 0.25094 0.0
C1391 C 0.51898 0.0259 0.28108 0.0
C1392 C 0.51884 0.04515 0.25381 0.0
H1393 H 0.51834 0.98063 0.30166 0.0
H1394 H 0.51905 0.03591 0.30397 0.0
S1395 S 0.51763 0.01649 0.17211 0.0
N1396 N 0.51673 0.98536 0.19432 0.0
N1397 N 0.51876 0.04465 0.19655 0.0
C1398 C 0.51836 0.02968 0.22487 0.0
C1399 C 0.5174 0.99683 0.22354 0.0
C1400 C 0.79034 0.76002 0.95426 0.0
C1401 C 0.80614 0.75319 0.98269 0.0
C1402 C 0.75719 0.76048 0.95243 0.0
C1403 C 0.73782 0.75389 0.97887 0.0
H1404 H 0.80364 0.76604 0.93338 0.0
H1405 H 0.74664 0.7658 0.92987 0.0
S1406 S 0.76687 0.73454 0.05908 0.0
N1407 N 0.79875 0.74072 0.03827 0.0
N1408 N 0.73785 0.73929 0.03424 0.0
C1409 C 0.7534 0.74625 0.00714 0.0
C1410 C 0.78693 0.74665 0.00921 0.0
C1411 C 0.97337 0.037 0.75901 0.0
C1412 C 0.99993 0.05333 0.74998 0.0
C1413 C 0.97318 0.00474 0.75897 0.0
C1414 C 0.99988 0.98662 0.75144 0.0
H1415 H 0.95217 0.04923 0.76532 0.0
H1416 H 0.95142 0.99389 0.76372 0.0
S1417 S 0.07597 0.01758 0.72678 0.0
N1418 N 0.054 0.04783 0.73343 0.0
N1419 N 0.05363 0.98886 0.73462 0.0
C1420 C 0.02663 1.00287 0.74329 0.0
C1421 C 0.02671 0.03547 0.74242 0.0
C1422 C 0.75397 0.22543 0.50969 0.0
C1423 C 0.73427 0.24278 0.48916 0.0
C1424 C 0.78709 0.22615 0.50727 0.0
C1425 C 0.80232 0.24468 0.48462 0.0
H1426 H 0.74381 0.21197 0.52853 0.0
H1427 H 0.80088 0.21261 0.52384 0.0
S1428 S 0.76209 0.29086 0.42193 0.0
N1429 N 0.73349 0.27634 0.44287 0.0
N1430 N 0.79426 0.2778 0.43882 0.0
C1431 C 0.78282 0.26076 0.46303 0.0
C1432 C 0.74941 0.2598 0.46518 0.0
C1433 C 0.26561 0.49628 0.03405 0.0
C1434 C 0.23724 0.49985 0.05071 0.0
C1435 C 0.2672 0.49772 1.00053 0.0
C1436 C 0.24041 0.50169 0.98162 0.0
H1437 H 0.28686 0.49211 0.04703 0.0
H1438 H 0.28966 0.49431 0.98924 0.0
S1439 S 0.15991 0.50991 0.01306 0.0
N1440 N 0.18143 0.50736 0.04501 0.0
N1441 N 0.18429 0.50741 0.98286 0.0
C1442 C 0.21184 0.50452 0.99799 0.0
C1443 C 0.21032 0.50436 0.0321 0.0
C1444 C 0.2495 0.51101 0.78169 0.0
C1445 C 0.23746 0.48706 0.79993 0.0
C1446 C 0.24885 0.51138 0.74834 0.0
C1447 C 0.23702 0.4876 0.73124 0.0
H1448 H 0.25943 0.52976 0.79327 0.0
H1449 H 0.25812 0.53046 0.73558 0.0
S1450 S 0.20492 0.41808 0.76717 0.0
N1451 N 0.2142 0.43791 0.79778 0.0
N1452 N 0.21421 0.43853 0.73553 0.0
C1453 C 0.22556 0.46311 0.74905 0.0
C1454 C 0.22553 0.46289 0.78314 0.0
C1455 C 0.25907 0.5246 0.53351 0.0
C1456 C 0.25171 0.4972 0.54955 0.0
C1457 C 0.26263 0.52694 0.50014 0.0
C1458 C 0.25927 0.502 0.48067 0.0
H1459 H 0.26245 0.54457 0.5468 0.0
H1460 H 0.26796 0.54865 0.48949 0.0
S1461 S 0.23782 0.42545 0.51032 0.0
N1462 N 0.2398 0.44499 0.54258 0.0
N1463 N 0.24647 0.44895 0.48095 0.0
C1464 C 0.2515 0.47457 0.49651 0.0
C1465 C 0.24774 0.47232 0.53038 0.0
C1466 C 0.26439 0.53044 0.2761 0.0
C1467 C 0.25686 0.50688 0.29779 0.0
C1468 C 0.26057 0.52788 0.24303 0.0
C1469 C 0.2488 0.50175 0.23 0.0
H1470 H 0.27226 0.55151 0.28479 0.0
H1471 H 0.26646 0.54671 0.22759 0.0
S1472 S 0.22889 0.43228 0.27572 0.0
N1473 N 0.2391 0.4557 0.3029 0.0
N1474 N 0.23228 0.45088 0.24171 0.0
C1475 C 0.24221 0.47776 0.25136 0.0
C1476 C 0.24606 0.48035 0.28482 0.0
C1477 C 0.48127 0.78179 0.25808 0.0
C1478 C 0.50469 0.7983 0.24198 0.0
C1479 C 0.48053 0.74948 0.25833 0.0
C1480 C 0.50306 0.73149 0.24227 0.0
H1481 H 0.46292 0.79397 0.27042 0.0
H1482 H 0.46188 0.73855 0.27101 0.0
S1483 S 0.5711 0.76275 0.19896 0.0
N1484 N 0.5519 0.79314 0.21105 0.0
N1485 N 0.55096 0.73372 0.2116 0.0
C1486 C 0.52688 0.74781 0.22668 0.0
C1487 C 0.52754 0.78058 0.22644 0.0
C1488 C 0.08655 0.31984 0.30587 0.0
C1489 C 0.05506 0.31986 0.31471 0.0
C1490 C 0.10929 0.3118 0.32807 0.0
C1491 C 0.10039 0.30272 0.35862 0.0
H1492 H 0.09355 0.33072 0.28397 0.0
H1493 H 0.13353 0.31487 0.32216 0.0
S1494 S 0.02101 0.28544 0.38663 0.0
N1495 N 0.01633 0.30096 0.35121 0.0
N1496 N 0.05886 0.28376 0.39244 0.0
C1497 C 0.06924 0.29603 0.36475 0.0
C1498 C 0.04645 0.30429 0.34226 0.0
C1499 C 0.95707 0.87032 0.6063 0.0
C1500 C 0.95005 0.86733 0.63862 0.0
C1501 C 0.94446 0.85092 0.58468 0.0
C1502 C 0.9261 0.82697 0.59506 0.0
H1503 H 0.9721 0.88789 0.5977 0.0
H1504 H 0.94914 0.85464 0.55987 0.0
S1505 S 0.89994 0.81077 0.67734 0.0
N1506 N 0.9221 0.84008 0.67974 0.0
N1507 N 0.90059 0.8024 0.63982 0.0
C1508 C 0.91932 0.82378 0.62746 0.0
C1509 C 0.93078 0.84428 0.64908 0.0
C1510 C 0.40973 0.68777 0.81064 0.0
C1511 C 0.43198 0.66459 0.81671 0.0
C1512 C 0.39577 0.70326 0.83539 0.0
C1513 C 0.40317 0.69524 0.86663 0.0
H1514 H 0.40327 0.69411 0.78674 0.0
H1515 H 0.37952 0.72181 0.83007 0.0
S1516 S 0.45914 0.63567 0.89486 0.0
N1517 N 0.46163 0.63548 0.85619 0.0
N1518 N 0.43238 0.66177 0.90259 0.0
C1519 C 0.42429 0.67132 0.87299 0.0
C1520 C 0.43972 0.65683 0.84796 0.0
C1521 C 0.58835 0.15365 0.11417 0.0
C1522 C 0.57718 0.18188 0.10229 0.0
C1523 C 0.57527 0.14006 0.14096 0.0
C1524 C 0.55086 0.15454 0.15687 0.0
H1525 H 0.60671 0.14135 0.10212 0.0
H1526 H 0.58385 0.11794 0.14888 0.0
S1527 S 0.51152 0.22734 0.13469 0.0
N1528 N 0.53918 0.22306 0.1078 0.0
N1529 N 0.51546 0.19816 0.15944 0.0
C1530 C 0.53988 0.18309 0.14595 0.0
C1531 C 0.55285 0.19671 0.11828 0.0
C1532 C 0.1029 0.65552 0.162 0.0
C1533 C 0.07772 0.67142 0.17584 0.0
C1534 C 0.11731 0.66674 0.13431 0.0
C1535 C 0.10674 0.69398 0.11983 0.0
H1536 H 0.11047 0.63373 0.17169 0.0
H1537 H 0.1362 0.65372 0.12377 0.0
S1538 S 0.04566 0.74624 0.15068 0.0
N1539 N 0.04571 0.71719 0.17564 0.0
N1540 N 0.07259 0.73832 0.12389 0.0
C1541 C 0.08303 0.71085 0.13477 0.0
C1542 C 0.06858 0.69954 0.16276 0.0
C1543 C 0.5776 0.81219 0.41064 0.0
C1544 C 0.56476 0.82443 0.43812 0.0
C1545 C 0.57301 0.82638 0.38112 0.0
C1546 C 0.55464 0.85288 0.37817 0.0
H1547 H 0.59352 0.79325 0.41188 0.0
H1548 H 0.58464 0.81702 0.36072 0.0
S1549 S 0.50646 0.88723 0.44187 0.0
N1550 N 0.52735 0.86021 0.45986 0.0
N1551 N 0.51692 0.88629 0.40442 0.0
C1552 C 0.53839 0.86313 0.4051 0.0
C1553 C 0.54374 0.84894 0.43508 0.0
C1554 C 0.4518 0.29907 0.63988 0.0
C1555 C 0.43269 0.3133 0.66255 0.0
C1556 C 0.43966 0.28931 0.61207 0.0
C1557 C 0.4081 0.29357 0.6059 0.0
H1558 H 0.47663 0.29611 0.643 0.0
H1559 H 0.45513 0.2786 0.59514 0.0
S1560 S 0.34792 0.32895 0.65665 0.0
N1561 N 0.38036 0.33083 0.67671 0.0
N1562 N 0.35747 0.31181 0.62378 0.0
C1563 C 0.38839 0.30693 0.62821 0.0
C1564 C 0.40075 0.31698 0.6568 0.0
C1565 C 0.91056 0.17177 0.87253 0.0
C1566 C 0.94091 0.15968 0.87326 0.0
C1567 C 0.89733 0.18468 0.89925 0.0
C1568 C 0.91418 0.18605 0.92726 0.0
H1569 H 0.89728 0.17192 0.85105 0.0
H1570 H 0.87413 0.19459 0.89758 0.0
S1571 S 0.99499 0.15932 0.941 0.0
N1572 N 0.98792 0.15056 0.90434 0.0
N1573 N 0.96249 0.17531 0.95436 0.0
C1574 C 0.94429 0.17381 0.9286 0.0
C1575 C 0.95784 0.16046 0.90154 0.0
C1576 C 0.38486 0.06608 0.3148 0.0
C1577 C 0.35719 0.08141 0.30562 0.0
C1578 C 0.41374 0.07698 0.3063 0.0
C1579 C 0.41601 0.10363 0.28836 0.0
H1580 H 0.38429 0.04503 0.32825 0.0
H1581 H 0.43444 0.06365 0.31246 0.0
S1582 S 0.35067 0.15192 0.2574 0.0
N1583 N 0.33366 0.12455 0.27756 0.0
N1584 N 0.38845 0.14533 0.26116 0.0
C1585 C 0.38862 0.11987 0.27968 0.0
C1586 C 0.35899 0.10867 0.28846 0.0
C1587 C 0.20697 0.11012 0.56113 0.0
C1588 C 0.18522 0.08813 0.56861 0.0
C1589 C 0.19716 0.13817 0.54865 0.0
C1590 C 0.16558 0.14422 0.54305 0.0
H1591 H 0.23153 0.10551 0.5645 0.0
H1592 H 0.21433 0.15449 0.54183 0.0
S1593 S 0.09981 0.09444 0.55797 0.0
N1594 N 0.13084 0.07433 0.56913 0.0
N1595 N 0.11276 0.12733 0.54571 0.0
C1596 C 0.14371 0.12277 0.55066 0.0
C1597 C 0.1535 0.09444 0.56334 0.0
C1598 C 0.17263 0.91953 0.81611 0.0
C1599 C 0.18072 0.9499 0.81417 0.0
C1600 C 0.14166 0.91144 0.81616 0.0
C1601 C 0.11762 0.93337 0.81267 0.0
H1602 H 0.19029 0.90174 0.81822 0.0
H1603 H 0.1367 0.8877 0.81805 0.0
S1604 S 0.12766 0.01462 0.79517 0.0
N1605 N 0.16322 1.00126 0.80196 0.0
N1606 N 0.10459 0.98598 0.80014 0.0
C1607 C 0.12568 0.96356 0.80739 0.0
C1608 C 0.15735 0.97185 0.80828 0.0
C1609 C 0.36771 0.88134 0.06642 0.0
C1610 C 0.35588 0.86414 0.04256 0.0
C1611 C 0.35405 0.90946 0.07308 0.0
C1612 C 0.32851 0.92095 0.05574 0.0
H1613 H 0.38676 0.87251 0.08071 0.0
H1614 H 0.36209 0.92119 0.09325 0.0
S1615 S 0.29463 0.88857 0.98551 0.0
N1616 N 0.32121 0.86323 0.99761 0.0
N1617 N 0.29554 0.91611 0.01059 0.0
C1618 C 0.31855 0.90539 0.02992 0.0
C1619 C 0.33226 0.87684 0.02318 0.0
C1620 C 0.36514 0.88502 0.18097 0.0
C1621 C 0.38737 0.90557 0.18927 0.0
C1622 C 0.33803 0.8949 0.1653 0.0
C1623 C 0.33176 0.92577 0.15842 0.0
H1624 H 0.36881 0.8612 0.18645 0.0
H1625 H 0.32167 0.87818 0.15895 0.0
S1626 S 0.3836 0.98792 0.17477 0.0
N1627 N 0.40235 0.95757 0.18877 0.0
N1628 N 0.35076 0.97648 0.1603 0.0
C1629 C 0.35401 0.94642 0.16654 0.0
C1630 C 0.38198 0.9362 0.18175 0.0
C1631 C 0.34342 0.13375 0.41527 0.0
C1632 C 0.37577 0.13718 0.41441 0.0
C1633 C 0.33044 0.10648 0.40731 0.0
C1634 C 0.34935 0.08167 0.39863 0.0
H1635 H 0.32811 0.1518 0.42341 0.0
H1636 H 0.30549 0.10456 0.40855 0.0
S1637 S 0.43533 0.08031 0.39017 0.0
N1638 N 0.42627 0.11447 0.40237 0.0
N1639 N 0.40213 0.06302 0.38786 0.0
C1640 C 0.38174 0.08513 0.39704 0.0
C1641 C 0.39488 0.11297 0.40484 0.0
C1642 C 0.14436 0.09563 0.6524 0.0
C1643 C 0.17324 0.09161 0.66709 0.0
C1644 C 0.12056 0.11342 0.66576 0.0
C1645 C 0.12468 0.12718 0.6947 0.0
H1646 H 0.13994 0.08451 0.63072 0.0
H1647 H 0.09836 0.11521 0.65405 0.0
S1648 S 0.19677 0.12459 0.74166 0.0
N1649 N 0.20567 0.10454 0.71054 0.0
N1650 N 0.16033 0.13642 0.73703 0.0
C1651 C 0.15391 0.12419 0.70903 0.0
C1652 C 0.17839 0.10672 0.69488 0.0
C1653 C 0.14451 0.90037 0.94214 0.0
C1654 C 0.1559 0.87139 0.93449 0.0
C1655 C 0.1561 0.92603 0.92676 0.0
C1656 C 0.1796 0.92301 0.90394 0.0
H1657 H 0.12767 0.9033 0.96101 0.0
H1658 H 0.14821 0.94815 0.93416 0.0
S1659 S 0.21497 0.85217 0.87357 0.0
N1660 N 0.18957 0.84122 0.90052 0.0
N1661 N 0.21256 0.88928 0.87307 0.0
C1662 C 0.19004 0.89417 0.89519 0.0
C1663 C 0.17786 0.86828 0.91017 0.0
C1664 C 0.28893 0.35118 0.14815 0.0
C1665 C 0.29096 0.37922 0.13252 0.0
C1666 C 0.29647 0.32482 0.13249 0.0
C1667 C 0.30566 0.32593 0.10069 0.0
H1668 H 0.28157 0.34967 0.17259 0.0
H1669 H 0.29587 0.30355 0.1456 0.0
S1670 S 0.30878 0.39386 0.04789 0.0
N1671 N 0.29928 0.40675 0.08278 0.0
N1672 N 0.31222 0.35698 0.05321 0.0
C1673 C 0.30566 0.35379 0.08436 0.0
C1674 C 0.29876 0.38062 0.10038 0.0
C1675 C 0.82424 0.13333 0.93986 0.0
C1676 C 0.80602 0.13246 0.91279 0.0
C1677 C 0.82961 0.16074 0.95395 0.0
C1678 C 0.81777 0.18807 0.94076 0.0
H1679 H 0.83444 0.11276 0.95017 0.0
H1680 H 0.84394 0.16035 0.97447 0.0
S1681 S 0.76179 0.19741 0.87582 0.0
N1682 N 0.77065 0.16096 0.8776 0.0
N1683 N 0.78253 0.21235 0.90334 0.0
C1684 C 0.79756 0.18729 0.91545 0.0
C1685 C 0.7914 0.15952 0.90149 0.0
C1686 C 0.0691 0.57948 0.1612 0.0
C1687 C 0.05795 0.56704 0.18966 0.0
C1688 C 0.09949 0.57351 0.1515 0.0
C1689 C 0.11937 0.55548 0.17036 0.0
H1690 H 0.05471 0.59507 0.14716 0.0
H1691 H 0.10756 0.58316 0.12928 0.0
S1692 S 0.09896 0.51387 0.24439 0.0
N1693 N 0.06728 0.534 0.23518 0.0
N1694 N 0.12482 0.52179 0.21658 0.0
C1695 C 0.10799 0.54178 0.19827 0.0
C1696 C 0.077 0.54789 0.20807 0.0
C1697 C 0.65343 0.84213 0.42042 0.0
C1698 C 0.66684 0.83169 0.44885 0.0
C1699 C 0.66432 0.8675 0.40443 0.0
C1700 C 0.689 0.88274 0.41653 0.0
H1701 H 0.6341 0.83107 0.41067 0.0
H1702 H 0.65362 0.87506 0.38252 0.0
S1703 S 0.73135 0.86543 0.49067 0.0
N1704 N 0.70587 0.83865 0.48856 0.0
N1705 N 0.7256 0.88751 0.45916 0.0
C1706 C 0.70223 0.87316 0.44528 0.0
C1707 C 0.69144 0.84712 0.46126 0.0
C1708 C 0.90966 0.92798 0.20253 0.0
C1709 C 0.92819 0.91198 0.18087 0.0
C1710 C 0.88212 0.94301 0.19294 0.0
C1711 C 0.87262 0.9425 0.16147 0.0
H1712 H 0.91666 0.92925 0.22684 0.0
H1713 H 0.86856 0.95563 0.21001 0.0
S1714 S 0.91021 0.9006 0.09688 0.0
N1715 N 0.9333 0.8944 0.12725 0.0
N1716 N 0.88156 0.92281 0.1096 0.0
C1717 C 0.89016 0.92586 0.13996 0.0
C1718 C 0.91802 0.91048 0.14961 0.0
C1719 C 0.1698 0.61912 0.59833 0.0
C1720 C 0.1878 0.61782 0.62546 0.0
C1721 C 0.1638 0.64641 0.5823 0.0
C1722 C 0.17456 0.67379 0.59329 0.0
H1723 H 0.16105 0.59878 0.58872 0.0
H1724 H 0.14959 0.646 0.56157 0.0
S1725 S 0.22438 0.68264 0.66225 0.0
N1726 N 0.21815 0.64614 0.6619 0.0
N1727 N 0.20487 0.69797 0.63228 0.0
C1728 C 0.19229 0.67307 0.62059 0.0
C1729 C 0.1993 0.64496 0.63661 0.0
C1730 C 0.08528 0.46211 0.38562 0.0
C1731 C 0.08714 0.449 0.35615 0.0
C1732 C 0.1122 0.46596 0.40277 0.0
C1733 C 0.1413 0.45595 0.39112 0.0
H1734 H 0.06314 0.47029 0.39488 0.0
H1735 H 0.11046 0.47823 0.4244 0.0
S1736 S 0.15717 0.41632 0.31685 0.0
N1737 N 0.11938 0.42336 0.31715 0.0
N1738 N 0.16992 0.42966 0.34986 0.0
C1739 C 0.14293 0.44054 0.36278 0.0
C1740 C 0.11578 0.43742 0.34502 0.0
C1741 C 0.40794 0.57715 0.84942 0.0
C1742 C 0.42285 0.55671 0.82904 0.0
C1743 C 0.37842 0.57192 0.86205 0.0
C1744 C 0.36266 0.54628 0.85424 0.0
H1745 H 0.41839 0.59802 0.85463 0.0
H1746 H 0.36779 0.58811 0.87778 0.0
S1747 S 0.39187 0.48483 0.80328 0.0
N1748 N 0.41997 0.50923 0.80258 0.0
N1749 N 0.36433 0.49916 0.82634 0.0
C1750 C 0.37739 0.52522 0.83443 0.0
C1751 C 0.40752 0.53052 0.82174 0.0
C1752 C 0.90788 0.72435 0.66765 0.0
C1753 C 0.88286 0.70955 0.6547 0.0
C1754 C 0.92993 0.70838 0.68586 0.0
C1755 C 0.92703 0.67747 0.69154 0.0
H1756 H 0.91257 0.74731 0.66064 0.0
H1757 H 0.95092 0.71938 0.69222 0.0
S1758 S 0.86273 0.63045 0.66733 0.0
N1759 N 0.85411 0.66414 0.652 0.0
N1760 N 0.89516 0.6337 0.68705 0.0
C1761 C 0.89997 0.66354 0.68216 0.0
C1762 C 0.87798 0.67971 0.66319 0.0
C1763 C 0.07004 0.15309 0.41563 0.0
C1764 C 0.08359 0.1801 0.40549 0.0
C1765 C 0.05718 0.134 0.39388 0.0
C1766 C 0.05892 0.14067 0.36137 0.0
H1767 H 0.0688 0.14705 0.44048 0.0
H1768 H 0.04563 0.11404 0.40252 0.0
S1769 S 0.09308 0.20791 0.32269 0.0
N1770 N 0.09765 0.21252 0.36066 0.0
N1771 N 0.07579 0.17554 0.32003 0.0
C1772 C 0.07326 0.16705 0.35094 0.0
C1773 C 0.08496 0.1871 0.37298 0.0
C1774 C 0.6108 0.35596 0.1736 0.0
C1775 C 0.58005 0.35248 0.18449 0.0
C1776 C 0.62347 0.33758 0.15028 0.0
C1777 C 0.60577 0.3151 0.13779 0.0
H1778 H 0.62521 0.37284 0.18327 0.0
H1779 H 0.64708 0.34082 0.14213 0.0
S1780 S 0.52457 0.29747 0.15763 0.0
N1781 N 0.53231 0.32561 0.18033 0.0
N1782 N 0.55639 0.29064 0.1367 0.0
C1783 C 0.57509 0.31169 0.14805 0.0
C1784 C 0.56208 0.33058 0.17139 0.0
C1785 C 0.42008 0.85876 0.89867 0.0
C1786 C 0.42589 0.82811 0.90668 0.0
C1787 C 0.43139 0.87158 0.87069 0.0
C1788 C 0.44878 0.85416 0.8496 0.0
H1789 H 0.40742 0.87339 0.91456 0.0
H1790 H 0.42723 0.89547 0.86593 0.0
S1791 S 0.47246 0.77337 0.86021 0.0
N1792 N 0.45115 0.78085 0.89177 0.0
N1793 N 0.47258 0.80499 0.83871 0.0
C1794 C 0.45457 0.82334 0.85694 0.0
C1795 C 0.44311 0.81027 0.88568 0.0
C1796 C 0.9268 0.3214 0.88911 0.0
C1797 C 0.89439 0.31942 0.88841 0.0
C1798 C 0.94388 0.32923 0.862 0.0
C1799 C 0.92932 0.33607 0.83292 0.0
H1800 H 0.9393 0.31604 0.91062 0.0
H1801 H 0.96882 0.33038 0.86423 0.0
S1802 S 0.84476 0.33353 0.81843 0.0
N1803 N 0.84828 0.3237 0.85605 0.0
N1804 N 0.88023 0.33997 0.8053 0.0
C1805 C 0.89683 0.33415 0.83187 0.0
C1806 C 0.87945 0.32542 0.85949 0.0
C1807 C 0.4207 0.16078 0.616 0.0
C1808 C 0.45171 0.16299 0.62471 0.0
C1809 C 0.41101 0.17045 0.58588 0.0
C1810 C 0.43163 0.18346 0.56386 0.0
H1811 H 0.40421 0.15023 0.6319 0.0
H1812 H 0.38723 0.16732 0.57978 0.0
S1813 S 0.51487 0.19687 0.57656 0.0
N1814 N 0.50294 0.18062 0.6098 0.0
N1815 N 0.48413 0.19973 0.55364 0.0
C1816 C 0.46235 0.18735 0.57297 0.0
C1817 C 0.47251 0.17684 0.60332 0.0
C1818 C 0.59789 0.72471 0.36842 0.0
C1819 C 0.59425 0.70829 0.39712 0.0
C1820 C 0.58632 0.71411 0.34027 0.0
C1821 C 0.57068 0.68701 0.34032 0.0
H1822 H 0.60879 0.74635 0.36786 0.0
H1823 H 0.58836 0.72772 0.31881 0.0
S1824 S 0.55463 0.63613 0.40899 0.0
N1825 N 0.57416 0.66371 0.42355 0.0
N1826 N 0.55167 0.64431 0.37102 0.0
C1827 C 0.56712 0.67044 0.36873 0.0
C1828 C 0.57913 0.68096 0.39712 0.0
C1829 C 0.06209 0.81033 0.10127 0.0
C1830 C 0.08003 0.8255 0.07861 0.0
C1831 C 0.05615 0.82253 0.13057 0.0
C1832 C 0.06703 0.85079 0.13785 0.0
H1833 H 0.05342 0.78841 0.09651 0.0
H1834 H 0.04211 0.81017 0.14745 0.0
S1835 S 0.10589 0.90415 0.08305 0.0
N1836 N 0.10303 0.87316 0.06283 0.0
N1837 N 0.09001 0.89683 0.11792 0.0
C1838 C 0.08142 0.86804 0.11409 0.0
C1839 C 0.08814 0.85532 0.08424 0.0
C1840 C 0.63336 0.89824 0.69404 0.0
C1841 C 0.64954 0.92217 0.70635 0.0
C1842 C 0.60304 0.89197 0.70459 0.0
C1843 C 0.58806 0.90957 0.72762 0.0
H1844 H 0.64313 0.88566 0.67474 0.0
H1845 H 0.59087 0.87414 0.69369 0.0
S1846 S 0.62406 0.9705 0.77185 0.0
N1847 N 0.6507 0.96024 0.74579 0.0
N1848 N 0.59461 0.94861 0.76623 0.0
C1849 C 0.60558 0.93157 0.74219 0.0
C1850 C 0.63613 0.93774 0.73145 0.0
C1851 C 0.86158 0.8958 0.46647 0.0
C1852 C 0.84916 0.86781 0.46054 0.0
C1853 C 0.8473 0.92225 0.45459 0.0
C1854 C 0.81963 0.92132 0.43769 0.0
H1855 H 0.88235 0.89723 0.4804 0.0
H1856 H 0.85794 0.94354 0.45861 0.0
S1857 S 0.77747 0.85327 0.41748 0.0
N1858 N 0.80815 0.84028 0.43689 0.0
N1859 N 0.77988 0.89029 0.41687 0.0
C1860 C 0.80657 0.89347 0.43263 0.0
C1861 C 0.82184 0.86651 0.44337 0.0
C1862 C 0.8439 0.0408 0.18955 0.0
C1863 C 0.81978 0.06275 0.18705 0.0
C1864 C 0.8748 0.04921 0.19232 0.0
C1865 C 0.88249 0.07979 0.19263 0.0
H1866 H 0.83894 0.0171 0.18884 0.0
H1867 H 0.89273 0.03163 0.19473 0.0
S1868 S 0.82685 0.14559 0.19045 0.0
N1869 N 0.80503 0.11603 0.18785 0.0
N1870 N 0.86285 0.1319 0.19246 0.0
C1871 C 0.85828 0.10183 0.19097 0.0
C1872 C 0.82696 0.09326 0.18853 0.0
C1873 C 0.63287 0.11844 0.95668 0.0
C1874 C 0.64629 0.14616 0.962 0.0
C1875 C 0.65137 0.09298 0.94972 0.0
C1876 C 0.6839 0.09433 0.94868 0.0
H1877 H 0.60789 0.1165 0.95773 0.0
H1878 H 0.64001 0.0724 0.94432 0.0
S1879 S 0.73036 0.16023 0.96848 0.0
N1880 N 0.69388 0.17257 0.97053 0.0
N1881 N 0.72886 0.12468 0.95863 0.0
C1882 C 0.69765 0.12144 0.95662 0.0
C1883 C 0.67877 0.14744 0.96287 0.0
C1884 C 0.62515 0.06899 0.82617 0.0
C1885 C 0.61781 0.09942 0.81811 0.0
C1886 C 0.65392 0.06021 0.83987 0.0
C1887 C 0.67632 0.08156 0.84605 0.0
H1888 H 0.60891 0.05172 0.82113 0.0
H1889 H 0.65891 0.03651 0.84496 0.0
S1890 S 0.66701 0.16448 0.83231 0.0
N1891 N 0.63449 0.15102 0.8193 0.0
N1892 N 0.68796 0.13487 0.84499 0.0
C1893 C 0.66869 0.11216 0.83899 0.0
C1894 C 0.63962 0.12099 0.82503 0.0
C1895 C 0.66282 0.9002 0.61037 0.0
C1896 C 0.66354 0.92656 0.59138 0.0
C1897 C 0.6454 0.87585 0.60178 0.0
C1898 C 0.6289 0.87712 0.57358 0.0
H1899 H 0.67505 0.89869 0.63238 0.0
H1900 H 0.6449 0.85599 0.61719 0.0
S1901 S 0.63016 0.93875 0.5123 0.0
N1902 N 0.65037 0.95128 0.54162 0.0
N1903 N 0.61872 0.90511 0.52414 0.0
C1904 C 0.63133 0.90275 0.55332 0.0
C1905 C 0.64855 0.92761 0.56252 0.0
C1906 C 0.85678 0.93007 0.32225 0.0
C1907 C 0.83044 0.91629 0.33541 0.0
C1908 C 0.88092 0.91308 0.30858 0.0
C1909 C 0.8797 0.88165 0.30728 0.0
H1910 H 0.85905 0.95427 0.3226 0.0
H1911 H 0.90069 0.9247 0.2987 0.0
S1912 S 0.8177 0.83385 0.33958 0.0
N1913 N 0.80561 0.86861 0.34716 0.0
N1914 N 0.85138 0.8369 0.32098 0.0
C1915 C 0.854 0.86729 0.32033 0.0
C1916 C 0.82927 0.88457 0.33454 0.0
C1917 C 0.81716 0.14039 0.0868 0.0
C1918 C 0.84454 0.13879 0.06867 0.0
C1919 C 0.80441 0.11442 0.09985 0.0
C1920 C 0.81882 0.08595 0.09567 0.0
H1921 H 0.80477 0.16173 0.09003 0.0
H1922 H 0.78285 0.11671 0.11312 0.0
S1923 S 0.89186 0.06974 0.0519 0.0
N1924 N 0.8863 0.10666 0.04792 0.0
N1925 N 0.86258 0.05756 0.0737 0.0
C1926 C 0.84687 0.08401 0.07879 0.0
C1927 C 0.85962 0.11055 0.06483 0.0
C1928 C 0.68957 0.65592 0.92039 0.0
C1929 C 0.68832 0.68286 0.90236 0.0
C1930 C 0.69726 0.62866 0.90619 0.0
C1931 C 0.70393 0.62785 0.87372 0.0
H1932 H 0.68511 0.65596 0.94553 0.0
H1933 H 0.69945 0.60843 0.92096 0.0
S1934 S 0.69891 0.69113 0.81555 0.0
N1935 N 0.69076 0.70639 0.84969 0.0
N1936 N 0.70559 0.65496 0.82358 0.0
C1937 C 0.70106 0.65419 0.85529 0.0
C1938 C 0.69323 0.68185 0.86952 0.0
C1939 C 0.17274 0.86086 0.10271 0.0
C1940 C 0.20109 0.87398 0.09554 0.0
C1941 C 0.16533 0.83355 0.0894 0.0
C1942 C 0.18595 0.81884 0.06854 0.0
H1943 H 0.15657 0.87143 0.119 0.0
H1944 H 0.14351 0.82362 0.09574 0.0
S1945 S 0.26545 0.841 0.04777 0.0
N1946 N 0.25162 0.86842 0.06986 0.0
N1947 N 0.23729 0.81698 0.045 0.0
C1948 C 0.21504 0.83078 0.06281 0.0
C1949 C 0.22267 0.8585 0.07627 0.0
C1950 C 0.91269 0.46302 0.85273 0.0
C1951 C 0.88392 0.45639 0.83967 0.0
C1952 C 0.94039 0.45472 0.83776 0.0
C1953 C 0.93982 0.43971 0.80938 0.0
H1954 H 0.91382 0.47461 0.87474 0.0
H1955 H 0.96213 0.4587 0.84921 0.0
S1956 S 0.87074 0.42414 0.76227 0.0
N1957 N 0.8565 0.43836 0.7949 0.0
N1958 N 0.90885 0.42374 0.76595 0.0
C1959 C 0.91134 0.43547 0.79482 0.0
C1960 C 0.88319 0.44333 0.81033 0.0
C1961 C 0.34201 0.14677 0.54528 0.0
C1962 C 0.33213 0.17689 0.5485 0.0
C1963 C 0.33134 0.12467 0.56581 0.0
C1964 C 0.30906 0.13182 0.58888 0.0
H1965 H 0.35908 0.14033 0.52761 0.0
H1966 H 0.33971 0.10167 0.5626 0.0
S1967 S 0.27412 0.20728 0.60474 0.0
N1968 N 0.29925 0.21322 0.57574 0.0
N1969 N 0.27631 0.17068 0.61308 0.0
C1970 C 0.29832 0.16179 0.59186 0.0
C1971 C 0.31047 0.18464 0.57176 0.0
C1972 C 0.10206 0.09474 0.80629 0.0
C1973 C 0.07587 0.09764 0.82599 0.0
C1974 C 0.13005 0.08236 0.81808 0.0
C1975 C 0.13183 0.07082 0.84923 0.0
H1976 H 0.10114 0.10266 0.78198 0.0
H1977 H 0.14989 0.08032 0.80228 0.0
S1978 S 0.07037 0.07455 0.91048 0.0
N1979 N 0.05414 0.09006 0.8787 0.0
N1980 N 0.10606 0.06438 0.89979 0.0
C1981 C 0.10593 0.0737 0.86905 0.0
C1982 C 0.07799 0.08756 0.85761 0.0
C1983 C 0.82991 0.37385 0.36268 0.0
C1984 C 0.82057 0.39821 0.38147 0.0
C1985 C 0.83755 0.34536 0.37638 0.0
C1986 C 0.83474 0.34025 0.40909 0.0
H1987 H 0.83172 0.377 0.33736 0.0
H1988 H 0.84656 0.32767 0.36148 0.0
S1989 S 0.8056 0.3957 0.46748 0.0
N1990 N 0.80608 0.41472 0.43366 0.0
N1991 N 0.81732 0.36119 0.4591 0.0
C1992 C 0.82272 0.364 0.42754 0.0
C1993 C 0.81656 0.39303 0.41385 0.0
C1994 C 0.91967 0.54827 0.6196 0.0
C1995 C 0.92015 0.55182 0.65221 0.0
C1996 C 0.89161 0.54672 0.60391 0.0
C1997 C 0.86335 0.54951 0.62036 0.0
H1998 H 0.94116 0.54696 0.60614 0.0
H1999 H 0.89201 0.5425 0.57894 0.0
S2000 S 0.8522 0.56136 0.70603 0.0
N2001 N 0.89019 0.55948 0.70051 0.0
N2002 N 0.83725 0.55712 0.67094 0.0
C2003 C 0.86346 0.554 0.65298 0.0
C2004 C 0.89201 0.55485 0.66902 0.0
C2005 C 0.61504 0.46464 0.13063 0.0
C2006 C 0.64491 0.45822 0.14272 0.0
C2007 C 0.58846 0.45833 0.14847 0.0
C2008 C 0.59112 0.44654 0.17926 0.0
H2009 H 0.61219 0.4753 0.10754 0.0
H2010 H 0.56581 0.4632 0.13837 0.0
S2011 S 0.66437 0.42679 0.22184 0.0
N2012 N 0.6757 0.43911 0.18676 0.0
N2013 N 0.62613 0.42937 0.2214 0.0
C2014 C 0.62098 0.44053 0.19172 0.0
C2015 C 0.64784 0.44569 0.17307 0.0
C2016 C 0.60909 0.80055 0.82918 0.0
C2017 C 0.60266 0.80549 0.86113 0.0
C2018 C 0.58922 0.81259 0.80612 0.0
C2019 C 0.56225 0.82873 0.81486 0.0
H2020 H 0.63026 0.78864 0.82202 0.0
H2021 H 0.59615 0.81139 0.78158 0.0
S2022 S 0.53144 0.84017 0.89572 0.0
N2023 N 0.56514 0.82205 0.9006 0.0
N2024 N 0.52729 0.84431 0.85729 0.0
C2025 C 0.55372 0.83017 0.84682 0.0
C2026 C 0.57427 0.81876 0.87011 0.0
C2027 C 0.44128 0.33164 0.1049 0.0
C2028 C 0.41262 0.34248 0.09286 0.0
C2029 C 0.4586 0.34901 0.12475 0.0
C2030 C 0.44762 0.37743 0.13413 0.0
H2031 H 0.45033 0.30938 0.09921 0.0
H2032 H 0.48027 0.33971 0.13376 0.0
S2033 S 0.37443 0.41652 0.10928 0.0
N2034 N 0.37465 0.38422 0.09094 0.0
N2035 N 0.40667 0.41606 0.12997 0.0
C2036 C 0.41921 0.38876 0.12231 0.0
C2037 C 0.4019 0.37149 0.10114 0.0
C2038 C 0.87333 0.17484 0.34619 0.0
C2039 C 0.89324 0.18724 0.36771 0.0
C2040 C 0.88545 0.15627 0.32269 0.0
C2041 C 0.91769 0.15066 0.31985 0.0
H2042 H 0.84853 0.17955 0.34751 0.0
H2043 H 0.86965 0.14701 0.30618 0.0
S2044 S 0.97841 0.1759 0.37322 0.0
N2045 N 0.94567 0.19086 0.387 0.0
N2046 N 0.96864 0.15718 0.34209 0.0
C2047 C 0.93744 0.16234 0.34204 0.0
C2048 C 0.9251 0.18043 0.36623 0.0
C2049 C 0.08833 0.66853 0.61698 0.0
C2050 C 0.0689 0.68953 0.60059 0.0
C2051 C 0.07743 0.65204 0.64318 0.0
C2052 C 0.04699 0.65685 0.65402 0.0
H2053 H 0.11181 0.66435 0.60909 0.0
H2054 H 0.09273 0.63551 0.65484 0.0
S2055 S 0.98861 0.71282 0.62189 0.0
N2056 N 0.01904 0.71606 0.59826 0.0
N2057 N 0.99869 0.68658 0.64853 0.0
C2058 C 0.02796 0.67912 0.63883 0.0
C2059 C 0.03888 0.69518 0.61175 0.0
C2060 C 0.58717 0.15481 0.65362 0.0
C2061 C 0.57546 0.17443 0.67684 0.0
C2062 C 0.60225 0.16578 0.62618 0.0
C2063 C 0.60581 0.1968 0.62091 0.0
H2064 H 0.58347 0.1309 0.65592 0.0
H2065 H 0.61098 0.14998 0.60901 0.0
S2066 S 0.57514 0.25744 0.67243 0.0
N2067 N 0.56573 0.22601 0.69123 0.0
N2068 N 0.5939 0.24709 0.64019 0.0
C2069 C 0.59338 0.2166 0.64365 0.0
C2070 C 0.57813 0.20532 0.67138 0.0
C2071 C 0.06501 0.32208 0.88097 0.0
C2072 C 0.05496 0.35224 0.87497 0.0
C2073 C 0.06933 0.31065 0.91212 0.0
C2074 C 0.06337 0.32889 0.93826 0.0
H2075 H 0.06925 0.30716 0.86159 0.0
H2076 H 0.07756 0.28754 0.91571 0.0
S2077 S 0.03494 0.40887 0.93531 0.0
N2078 N 0.03861 0.39973 0.89815 0.0
N2079 N 0.04547 0.3782 0.95574 0.0
C2080 C 0.05262 0.35877 0.93238 0.0
C2081 C 0.04883 0.37047 0.90103 0.0
C2082 C 0.91047 0.80195 0.16046 0.0
C2083 C 0.93756 0.81851 0.15949 0.0
C2084 C 0.89843 0.79117 0.13268 0.0
C2085 C 0.91232 0.79817 0.10337 0.0
H2086 H 0.89929 0.79641 0.18275 0.0
H2087 H 0.87832 0.77717 0.1341 0.0
S2088 S 0.98248 0.84242 0.08839 0.0
N2089 N 0.97793 0.84135 0.1269 0.0
N2090 N 0.95354 0.82344 0.07479 0.0
C2091 C 0.93862 0.81567 0.10207 0.0
C2092 C 0.95174 0.82525 0.13021 0.0
C2093 C 0.45615 0.65632 0.40057 0.0
C2094 C 0.43961 0.66047 0.37216 0.0
C2095 C 0.44754 0.67221 0.42732 0.0
C2096 C 0.42235 0.69273 0.42618 0.0
H2097 H 0.47673 0.64167 0.40187 0.0
H2098 H 0.46109 0.66912 0.44853 0.0
S2099 S 0.36861 0.70804 0.35952 0.0
N2100 N 0.39513 0.68404 0.34574 0.0
N2101 N 0.37851 0.71373 0.39618 0.0
C2102 C 0.40456 0.69575 0.39861 0.0
C2103 C 0.41332 0.67963 0.37147 0.0
C2104 C 0.85271 0.60505 0.78512 0.0
C2105 C 0.85409 0.58592 0.81196 0.0
C2106 C 0.88018 0.61559 0.77114 0.0
C2107 C 0.90936 0.60778 0.78417 0.0
H2108 H 0.83074 0.61006 0.77369 0.0
H2109 H 0.87872 0.62873 0.74933 0.0
S2110 S 0.92488 0.56179 0.85631 0.0
N2111 N 0.8868 0.56192 0.85245 0.0
N2112 N 0.9379 0.58268 0.82655 0.0
C2113 C 0.91073 0.59091 0.81226 0.0
C2114 C 0.88312 0.57972 0.82611 0.0
C2115 C 0.66373 0.58455 0.04273 0.0
C2116 C 0.68881 0.58558 0.06329 0.0
C2117 C 0.64846 0.61087 0.03229 0.0
C2118 C 0.65773 0.63888 0.04242 0.0
H2119 H 0.65592 0.56326 0.03448 0.0
H2120 H 0.62986 0.60929 0.01555 0.0
S2121 S 0.72169 0.6539 0.0963 0.0
N2122 N 0.72244 0.61696 0.09289 0.0
N2123 N 0.6926 0.66662 0.07437 0.0
C2124 C 0.68222 0.64034 0.06345 0.0
C2125 C 0.69828 0.61355 0.07345 0.0
C2126 C 0.6803 0.41672 0.30685 0.0
C2127 C 0.68284 0.44638 0.31671 0.0
C2128 C 0.65137 0.40403 0.30399 0.0
C2129 C 0.62389 0.42038 0.31144 0.0
H2130 H 0.70089 0.4029 0.30194 0.0
H2131 H 0.65061 0.38127 0.29562 0.0
S2132 S 0.61839 0.49878 0.33738 0.0
N2133 N 0.65577 0.49257 0.33091 0.0
N2134 N 0.60121 0.46741 0.32936 0.0
C2135 C 0.62618 0.4501 0.32088 0.0
C2136 C 0.65569 0.46353 0.32224 0.0
C2137 C 0.86547 0.39331 0.52808 0.0
C2138 C 0.8644 0.36434 0.5426 0.0
C2139 C 0.84699 0.4173 0.53901 0.0
C2140 C 0.8268 0.4128 0.56451 0.0
H2141 H 0.87963 0.39727 0.50723 0.0
H2142 H 0.84751 0.43899 0.52668 0.0
S2143 S 0.81797 0.3426 0.6129 0.0
N2144 N 0.8435 0.33336 0.58528 0.0
N2145 N 0.80864 0.37849 0.60596 0.0
C2146 C 0.82657 0.38444 0.58015 0.0
C2147 C 0.84548 0.36012 0.56915 0.0
C2148 C 0.85663 0.39131 0.69165 0.0
C2149 C 0.88431 0.40599 0.68418 0.0
C2150 C 0.82793 0.40239 0.68038 0.0
C2151 C 0.82556 0.42867 0.66118 0.0
H2152 H 0.85697 0.37144 0.70708 0.0
H2153 H 0.80732 0.39031 0.68706 0.0
S2154 S 0.89154 0.4738 0.63227 0.0
N2155 N 0.90797 0.44685 0.65451 0.0
N2156 N 0.85387 0.46816 0.6338 0.0
C2157 C 0.85317 0.44315 0.65282 0.0
C2158 C 0.88257 0.43162 0.66408 0.0
C2159 C 0.82901 0.60935 0.8984 0.0
C2160 C 0.83979 0.58076 0.90934 0.0
C2161 C 0.8458 0.63508 0.90391 0.0
C2162 C 0.87386 0.63296 0.92043 0.0
H2163 H 0.80763 0.61187 0.88534 0.0
H2164 H 0.83628 0.65684 0.89597 0.0
S2165 S 0.912 0.56301 0.95381 0.0
N2166 N 0.88002 0.55174 0.93756 0.0
N2167 N 0.91199 0.59978 0.9472 0.0
C2168 C 0.88513 0.60435 0.93097 0.0
C2169 C 0.86784 0.57834 0.92581 0.0
C2170 C 0.61844 0.59511 0.18394 0.0
C2171 C 0.62096 0.62559 0.19085 0.0
C2172 C 0.64393 0.57814 0.17324 0.0
C2173 C 0.67309 0.59098 0.16848 0.0
H2174 H 0.59669 0.58388 0.18759 0.0
H2175 H 0.64037 0.55472 0.16838 0.0
S2176 S 0.69136 0.67064 0.18261 0.0
N2177 N 0.65429 0.66836 0.19245 0.0
N2178 N 0.70271 0.63668 0.17133 0.0
C2179 C 0.67591 0.62172 0.17517 0.0
C2180 C 0.64973 0.63896 0.18663 0.0
C2181 C 0.65567 0.41577 0.40181 0.0
C2182 C 0.68322 0.42618 0.41457 0.0
C2183 C 0.64254 0.38906 0.41364 0.0
C2184 C 0.65675 0.37241 0.43844 0.0
H2185 H 0.64491 0.42765 0.38201 0.0
H2186 H 0.62164 0.38121 0.40314 0.0
S2187 S 0.72809 0.39039 0.48032 0.0
N2188 N 0.7233 0.4179 0.45382 0.0
N2189 N 0.69911 0.36793 0.47517 0.0
C2190 C 0.68387 0.38277 0.45133 0.0
C2191 C 0.69699 0.40968 0.43964 0.0
C2192 C 0.78869 0.83788 0.58832 0.0
C2193 C 0.8209 0.83906 0.5847 0.0
C2194 C 0.77322 0.85685 0.60925 0.0
C2195 C 0.78993 0.87728 0.62653 0.0
H2196 H 0.77593 0.82072 0.57703 0.0
H2197 H 0.74828 0.85535 0.61203 0.0
S2198 S 0.87336 0.89315 0.61895 0.0
N2199 N 0.86785 0.86553 0.59475 0.0
N2200 N 0.83918 0.90054 0.63524 0.0
C2201 C 0.82164 0.88029 0.62076 0.0
C2202 C 0.83701 0.86153 0.5991 0.0
C2203 C 0.28681 0.66139 0.40596 0.0
C2204 C 0.30476 0.63437 0.40939 0.0
C2205 C 0.2941 0.68711 0.42206 0.0
C2206 C 0.31939 0.68666 0.44241 0.0
H2207 H 0.26662 0.66269 0.39099 0.0
H2208 H 0.28001 0.70754 0.41828 0.0
S2209 S 0.37217 0.62054 0.46128 0.0
N2210 N 0.34835 0.60836 0.4348 0.0
N2211 N 0.36068 0.65572 0.46718 0.0
C2212 C 0.33674 0.6593 0.44695 0.0
C2213 C 0.32989 0.63343 0.42974 0.0
C2214 C 0.59283 0.08592 0.70156 0.0
C2215 C 0.56521 0.06989 0.70335 0.0
C2216 C 0.61947 0.07329 0.68856 0.0
C2217 C 0.61913 0.04402 0.67833 0.0
H2218 H 0.59377 0.10908 0.70749 0.0
H2219 H 0.63958 0.08703 0.68474 0.0
S2220 S 0.55757 0.98844 0.69269 0.0
N2221 N 0.54187 0.02106 0.70325 0.0
N2222 N 0.59323 0.99573 0.68076 0.0
C2223 C 0.59356 0.0259 0.68537 0.0
C2224 C 0.56608 0.03928 0.6976 0.0
C2225 C 0.14421 0.36136 0.93527 0.0
C2226 C 0.15742 0.33232 0.93913 0.0
C2227 C 0.15999 0.38347 0.91853 0.0
C2228 C 0.18963 0.37712 0.90584 0.0
H2229 H 0.12213 0.36732 0.94633 0.0
H2230 H 0.14965 0.40604 0.91715 0.0
S2231 S 0.23328 0.30371 0.90949 0.0
N2232 N 0.20038 0.29742 0.92852 0.0
N2233 N 0.23106 0.33939 0.89731 0.0
C2234 C 0.20245 0.34764 0.90851 0.0
C2235 C 0.18603 0.32502 0.92524 0.0
C2236 C 0.37854 0.44017 0.68632 0.0
C2237 C 0.36822 0.43684 0.65545 0.0
C2238 C 0.40549 0.4249 0.69703 0.0
C2239 C 0.42387 0.4075 0.67651 0.0
H2240 H 0.36586 0.4549 0.70218 0.0
H2241 H 0.41238 0.42748 0.72114 0.0
S2242 S 0.40351 0.38767 0.59527 0.0
N2243 N 0.37525 0.41126 0.60623 0.0
N2244 N 0.42732 0.38414 0.6254 0.0
C2245 C 0.41259 0.40248 0.64623 0.0
C2246 C 0.38443 0.41699 0.63585 0.0
C2247 C 0.67107 0.11597 0.09413 0.0
C2248 C 0.68645 0.11494 0.12291 0.0
C2249 C 0.66503 0.1433 0.07822 0.0
C2250 C 0.67271 0.17087 0.09117 0.0
H2251 H 0.66437 0.09544 0.08329 0.0
H2252 H 0.65328 0.14267 0.05591 0.0
S2253 S 0.71814 0.18042 0.16309 0.0
N2254 N 0.71348 0.14372 0.16167 0.0
N2255 N 0.69955 0.19554 0.13242 0.0
C2256 C 0.68874 0.17037 0.11953 0.0
C2257 C 0.69608 0.14229 0.13534 0.0
C2258 C 0.60429 0.928 0.86299 0.0
C2259 C 0.57787 0.94744 0.86309 0.0
C2260 C 0.6322 0.93722 0.87488 0.0
C2261 C 0.63386 0.96572 0.88774 0.0
H2262 H 0.60363 0.90601 0.85265 0.0
H2263 H 0.65254 0.92223 0.87368 0.0
S2264 S 0.572 0.02574 0.88965 0.0
N2265 N 0.55552 0.9968 0.87397 0.0
N2266 N 0.60797 0.01427 0.89741 0.0
C2267 C 0.60774 0.9855 0.88736 0.0
C2268 C 0.5796 0.97628 0.87464 0.0
C2269 C 0.86379 0.03948 0.33029 0.0
C2270 C 0.85628 0.05123 0.35978 0.0
C2271 C 0.89281 0.04386 0.3165 0.0
C2272 C 0.91517 0.06068 0.33143 0.0
H2273 H 0.84737 0.02622 0.31803 0.0
H2274 H 0.89728 0.03476 0.29346 0.0
S2275 S 0.90745 0.09323 0.41068 0.0
N2276 N 0.87393 0.07733 0.40511 0.0
N2277 N 0.92843 0.08717 0.37859 0.0
C2278 C 0.90836 0.07136 0.36168 0.0
C2279 C 0.87885 0.0663 0.37596 0.0
C2280 C 0.39525 0.21485 0.17245 0.0
C2281 C 0.40094 0.20808 0.14074 0.0
C2282 C 0.41263 0.2003 0.19626 0.0
C2283 C 0.43687 0.18007 0.18843 0.0
H2284 H 0.37661 0.23056 0.17886 0.0
H2285 H 0.40635 0.20384 0.22066 0.0
S2286 S 0.46332 0.15868 0.10855 0.0
N2287 N 0.43348 0.18226 0.10256 0.0
N2288 N 0.46744 0.15626 0.14701 0.0
C2289 C 0.44415 0.17526 0.15663 0.0
C2290 C 0.42575 0.18893 0.13273 0.0
C2291 C 0.59958 0.67692 0.87243 0.0
C2292 C 0.59074 0.67554 0.90428 0.0
C2293 C 0.58664 0.658 0.85095 0.0
C2294 C 0.56413 0.63748 0.86064 0.0
H2295 H 0.61658 0.69282 0.86406 0.0
H2296 H 0.59345 0.66035 0.82641 0.0
S2297 S 0.53422 0.62467 0.94207 0.0
N2298 N 0.55961 0.65143 0.94509 0.0
N2299 N 0.53435 0.61608 0.90453 0.0
C2300 C 0.55578 0.63527 0.89273 0.0
C2301 C 0.56937 0.6543 0.91467 0.0
C2302 C 0.08669 0.84279 0.63883 0.0
C2303 C 0.10125 0.81443 0.64388 0.0
C2304 C 0.07552 0.85927 0.66408 0.0
C2305 C 0.07906 0.84809 0.69508 0.0
H2306 H 0.08366 0.85224 0.61522 0.0
H2307 H 0.06449 0.88086 0.65891 0.0
S2308 S 0.11257 0.77375 0.72047 0.0
N2309 N 0.11662 0.77471 0.68178 0.0
N2310 N 0.09612 0.8065 0.72957 0.0
C2311 C 0.0933 0.81971 0.70045 0.0
C2312 C 0.10435 0.80264 0.67471 0.0
C2313 C 0.95377 0.35269 0.4075 0.0
C2314 C 0.93849 0.3253 0.40627 0.0
C2315 C 0.96043 0.36965 0.38019 0.0
C2316 C 0.95217 0.35994 0.35031 0.0
H2317 H 0.96047 0.36136 0.42989 0.0
H2318 H 0.97299 0.39015 0.38263 0.0
S2319 S 0.91283 0.28887 0.33418 0.0
N2320 N 0.91627 0.28849 0.37281 0.0
N2321 N 0.92821 0.32051 0.32124 0.0
C2322 C 0.93701 0.33234 0.34873 0.0
C2323 C 0.93046 0.31493 0.3767 0.0
C2324 C 0.39943 0.83274 0.3316 0.0
C2325 C 0.43203 0.83361 0.33352 0.0
C2326 C 0.38134 0.82281 0.35751 0.0
C2327 C 0.39517 0.81465 0.38647 0.0
H2328 H 0.38779 0.84011 0.31016 0.0
H2329 H 0.35639 0.82208 0.35509 0.0
S2330 S 0.4793 0.8091 0.40317 0.0
N2331 N 0.47726 0.82216 0.36652 0.0
N2332 N 0.44303 0.80494 0.4148 0.0
C2333 C 0.42755 0.8144 0.38842 0.0
C2334 C 0.44604 0.82354 0.36206 0.0
C2335 C 0.92587 0.64529 0.11013 0.0
C2336 C 0.94815 0.66099 0.12605 0.0
C2337 C 0.91806 0.65355 0.07913 0.0
C2338 C 0.93138 0.67846 0.06348 0.0
H2339 H 0.91548 0.62569 0.12114 0.0
H2340 H 0.90126 0.64032 0.06739 0.0
S2341 S 0.99347 0.72469 0.0939 0.0
N2342 N 0.98592 0.70049 0.12309 0.0
N2343 N 0.96944 0.71734 0.06539 0.0
C2344 C 0.95386 0.69423 0.07909 0.0
C2345 C 0.96268 0.68513 0.11029 0.0
C2346 C 0.06292 0.22538 0.8833 0.0
C2347 C 0.08845 0.21048 0.89758 0.0
C2348 C 0.05422 0.21818 0.85311 0.0
C2349 C 0.07052 0.19555 0.83667 0.0
H2350 H 0.04953 0.24257 0.89555 0.0
H2351 H 0.03374 0.22946 0.84315 0.0
S2352 S 0.13896 0.15015 0.86496 0.0
N2353 N 0.13036 0.17312 0.89384 0.0
N2354 N 0.1135 0.1585 0.83702 0.0
C2355 C 0.09669 0.18114 0.85055 0.0
C2356 C 0.10573 0.18884 0.8812 0.0
C2357 C 0.5574 0.32013 0.62755 0.0
C2358 C 0.56813 0.34793 0.63667 0.0
C2359 C 0.56651 0.30802 0.59893 0.0
C2360 C 0.58645 0.32351 0.57819 0.0
H2361 H 0.54125 0.30789 0.64241 0.0
H2362 H 0.55823 0.28606 0.59338 0.0
S2363 S 0.61464 0.40068 0.58839 0.0
N2364 N 0.5952 0.39303 0.62122 0.0
N2365 N 0.61272 0.37049 0.5668 0.0
C2366 C 0.59534 0.35259 0.58598 0.0
C2367 C 0.58602 0.3648 0.61541 0.0
C2368 C 0.09118 0.41893 0.19465 0.0
C2369 C 0.09279 0.39927 0.22005 0.0
C2370 C 0.11826 0.43074 0.18327 0.0
C2371 C 0.14736 0.42363 0.19728 0.0
H2372 H 0.06906 0.42672 0.185 0.0
H2373 H 0.11635 0.44703 0.16383 0.0
S2374 S 0.16482 0.35764 0.2645 0.0
N2375 N 0.12893 0.36858 0.25352 0.0
N2376 N 0.13925 0.3797 0.24199 0.0
C2377 C 0.15314 0.40114 0.22121 0.0
C2378 C 0.12488 0.38926 0.23202 0.0
C2379 C 0.29397 0.39879 0.93694 0.0
C2380 C 0.31668 0.42061 0.93491 0.0
C2381 C 0.30235 0.36859 0.94262 0.0
C2382 C 0.33357 0.35973 0.94703 0.0
H2383 H 0.26964 0.4052 0.935 0.0
H2384 H 0.28415 0.35257 0.94656 0.0
S2385 S 0.40076 0.40894 0.95017 0.0
N2386 N 0.37099 0.43195 0.94164 0.0
N2387 N 0.38672 0.37483 0.95184 0.0
C2388 C 0.35642 0.38128 0.94498 0.0
C2389 C 0.3479 0.41199 0.93965 0.0
C2390 C 0.37538 0.56019 0.68473 0.0
C2391 C 0.37581 0.57605 0.71247 0.0
C2392 C 0.34773 0.54907 0.67434 0.0
C2393 C 0.31987 0.55391 0.69107 0.0
H2394 H 0.39635 0.55669 0.67079 0.0
H2395 H 0.34841 0.53823 0.65229 0.0
S2396 S 0.30938 0.59202 0.76674 0.0
N2397 N 0.34678 0.59393 0.7584 0.0
N2398 N 0.29434 0.57431 0.73728 0.0
C2399 C 0.32019 0.56882 0.71944 0.0
C2400 C 0.3484 0.57957 0.73058 0.0
C2401 C 0.14279 0.61262 0.48126 0.0
C2402 C 0.14392 0.64163 0.46698 0.0
C2403 C 0.16017 0.58849 0.46915 0.0
C2404 C 0.17933 0.59311 0.44287 0.0
H2405 H 0.12917 0.60869 0.50249 0.0
H2406 H 0.15953 0.56656 0.48098 0.0
S2407 S 0.19055 0.66433 0.39709 0.0
N2408 N 0.16539 0.67335 0.4251 0.0
N2409 N 0.19855 0.62798 0.40258 0.0
C2410 C 0.18043 0.62178 0.4282 0.0
C2411 C 0.16249 0.64616 0.44019 0.0
C2412 C 0.14108 0.61722 0.31977 0.0
C2413 C 0.11844 0.59612 0.31407 0.0
C2414 C 0.17008 0.6081 0.33193 0.0
C2415 C 0.17747 0.57755 0.339 0.0
H2416 H 0.13653 0.64095 0.31444 0.0
H2417 H 0.18687 0.62519 0.33569 0.0
S2418 S 0.1268 0.51337 0.32736 0.0
N2419 N 0.10552 0.54322 0.31596 0.0
N2420 N 0.16015 0.5262 0.33899 0.0
C2421 C 0.15498 0.55625 0.3338 0.0
C2422 C 0.12541 0.56552 0.32132 0.0
C2423 C 0.14402 0.37511 0.10818 0.0
C2424 C 0.13688 0.37314 0.07638 0.0
C2425 C 0.15954 0.40006 0.11861 0.0
C2426 C 0.16767 0.42372 0.09765 0.0
H2427 H 0.13673 0.35793 0.12508 0.0
H2428 H 0.16417 0.40098 0.14323 0.0
S2429 S 0.16183 0.42432 0.01098 0.0
N2430 N 0.14477 0.39327 0.02307 0.0
N2431 N 0.17301 0.4405 0.04323 0.0
C2432 C 0.1631 0.42043 0.06554 0.0
C2433 C 0.1478 0.39501 0.05477 0.0
C2434 C 0.32783 0.39016 0.82249 0.0
C2435 C 0.3344 0.41294 0.8434 0.0
C2436 C 0.35202 0.37398 0.80738 0.0
C2437 C 0.38327 0.37944 0.81373 0.0
H2438 H 0.30402 0.38601 0.81649 0.0
H2439 H 0.34628 0.35788 0.7899 0.0
S2440 S 0.41218 0.43411 0.86993 0.0
N2441 N 0.37405 0.43853 0.87146 0.0
N2442 N 0.41922 0.40718 0.84471 0.0
C2443 C 0.38987 0.40051 0.83652 0.0
C2444 C 0.36545 0.41754 0.85096 0.0
C2445 C 0.31252 0.63086 0.55959 0.0
C2446 C 0.34466 0.63461 0.56034 0.0
C2447 C 0.29945 0.6046 0.57101 0.0
C2448 C 0.31776 0.58082 0.58442 0.0
H2449 H 0.29698 0.64849 0.55013 0.0
H2450 H 0.2744 0.60354 0.56997 0.0
S2451 S 0.40361 0.57888 0.59067 0.0
N2452 N 0.39508 0.61208 0.57377 0.0
N2453 N 0.37019 0.56227 0.59659 0.0
C2454 C 0.3502 0.58374 0.58452 0.0
C2455 C 0.36372 0.61076 0.57222 0.0
C2456 C 0.19007 0.14378 0.36597 0.0
C2457 C 0.21692 0.13318 0.38103 0.0
C2458 C 0.17277 0.16739 0.37852 0.0
C2459 C 0.18224 0.18084 0.40615 0.0
H2460 H 0.18226 0.13353 0.34477 0.0
H2461 H 0.1522 0.17551 0.36614 0.0
S2462 S 0.25107 0.16014 0.45416 0.0
N2463 N 0.25251 0.13669 0.4247 0.0
N2464 N 0.21927 0.18132 0.44884 0.0
C2465 C 0.20858 0.16967 0.42199 0.0
C2466 C 0.22631 0.14571 0.40909 0.0
C2467 C 0.68406 0.34583 0.54867 0.0
C2468 C 0.67802 0.32232 0.57026 0.0
C2469 C 0.68993 0.37486 0.55893 0.0
C2470 C 0.68998 0.38097 0.59122 0.0
H2471 H 0.68384 0.34152 0.52391 0.0
H2472 H 0.69515 0.3924 0.54167 0.0
S2473 S 0.67393 0.32737 0.65736 0.0
N2474 N 0.67139 0.30734 0.62553 0.0
N2475 N 0.68244 0.36157 0.6446 0.0
C2476 C 0.68344 0.35771 0.61299 0.0
C2477 C 0.67748 0.32841 0.6026 0.0
C2478 C 0.41851 0.94211 0.29123 0.0
C2479 C 0.43338 0.92368 0.31408 0.0
C2480 C 0.38803 0.95204 0.29606 0.0
C2481 C 0.37185 0.94316 0.32344 0.0
H2482 H 0.43098 0.95025 0.27053 0.0
H2483 H 0.37809 0.96899 0.27989 0.0
S2484 S 0.40013 0.89421 0.38924 0.0
N2485 N 0.42977 0.89621 0.36442 0.0
N2486 N 0.37157 0.91427 0.37256 0.0
C2487 C 0.38566 0.92308 0.34519 0.0
C2488 C 0.41696 0.91369 0.34089 0.0
C2489 C 0.83426 0.65048 0.10947 0.0
C2490 C 0.81191 0.63211 0.09759 0.0
C2491 C 0.8459 0.6737 0.09059 0.0
C2492 C 0.83582 0.67829 0.05935 0.0
H2493 H 0.84341 0.64629 0.13288 0.0
H2494 H 0.86414 0.68689 0.09996 0.0
S2495 S 0.77411 0.63877 0.01974 0.0
N2496 N 0.77785 0.62125 0.05436 0.0
N2497 N 0.79948 0.6657 0.01911 0.0
C2498 C 0.81201 0.66126 0.04813 0.0
C2499 C 0.80022 0.63769 0.06722 0.0
C2500 C 0.57567 0.57767 0.35225 0.0
C2501 C 0.57489 0.59345 0.323 0.0
C2502 C 0.60374 0.56737 0.36571 0.0
C2503 C 0.63225 0.57235 0.35044 0.0
H2504 H 0.55429 0.57293 0.36484 0.0
H2505 H 0.603 0.55449 0.38774 0.0
S2506 S 0.64334 0.61321 0.27391 0.0
N2507 N 0.60534 0.6137 0.27943 0.0
N2508 N 0.6582 0.59519 0.30501 0.0
C2509 C 0.63196 0.58887 0.32164 0.0
C2510 C 0.60327 0.59902 0.30774 0.0
C2511 C 0.34336 0.86869 0.92129 0.0
C2512 C 0.33693 0.84046 0.90911 0.0
C2513 C 0.33505 0.89542 0.90543 0.0
C2514 C 0.31929 0.89514 0.87698 0.0
H2515 H 0.35525 0.87044 0.94337 0.0
H2516 H 0.33983 0.91646 0.9164 0.0
S2517 S 0.29686 0.8273 0.83459 0.0
N2518 N 0.31469 0.81362 0.86638 0.0
N2519 N 0.29765 0.86436 0.83654 0.0
C2520 C 0.31308 0.86711 0.86393 0.0
C2521 C 0.32219 0.83962 0.88003 0.0
C2522 C 0.38197 0.06133 0.10232 0.0
C2523 C 0.35579 0.05657 0.12144 0.0
C2524 C 0.41075 0.06608 0.11573 0.0
C2525 C 0.41412 0.06479 0.14849 0.0
H2526 H 0.38044 0.05998 0.07699 0.0
H2527 H 0.43066 0.06972 0.10045 0.0
S2528 S 0.35143 0.05711 0.20867 0.0
N2529 N 0.33395 0.05428 0.17457 0.0
N2530 N 0.38827 0.06262 0.19984 0.0
C2531 C 0.38758 0.06228 0.16785 0.0
C2532 C 0.3582 0.0583 0.15423 0.0
C2533 C 0.11653 0.95976 0.63208 0.0
C2534 C 0.14655 0.95392 0.64408 0.0
C2535 C 0.09015 0.95357 0.65028 0.0
C2536 C 0.0931 0.9419 0.68113 0.0
H2537 H 0.11336 0.96993 0.60881 0.0
H2538 H 0.0674 0.95826 0.64034 0.0
S2539 S 0.16661 0.92325 0.72355 0.0
N2540 N 0.17766 0.93605 0.68854 0.0
N2541 N 0.12837 0.92459 0.72293 0.0
C2542 C 0.12302 0.93608 0.69338 0.0
C2543 C 0.14971 0.94196 0.67474 0.0
loop_
_geom_bond_atom_site_label_1
_geom_bond_atom_site_label_2
_geom_bond_distance
_geom_bond_site_symmetry_2
_ccdc_geom_bond_type
Dy0 O4 2.398 1_455 S
Dy0 O5 2.491 1_455 S
Dy0 O6 2.403 1_455 S
Dy0 O7 2.664 . S
Dy0 O11 2.326 1_455 S
Dy0 O15 2.310 . S
Dy0 O16 2.351 . S
C1 O12 1.185 . S
C1 O13 1.355 . S
C2 O4 1.185 . S
C2 O5 1.355 . S
Dy3 O7 2.310 . S
Dy3 O10 2.351 1_455 S
Dy3 O12 2.398 . S
Dy3 O13 2.491 . S
Dy3 O14 2.403 . S
Dy3 O15 2.664 . S
Dy3 O17 2.326 . S
O4 Dy0 2.398 1_655 S
O4 C2 1.185 . S
O5 Dy0 2.491 1_655 S
O5 C2 1.355 . S
O6 Dy0 2.403 1_655 S
O6 C8 1.254 . S
O7 Dy0 2.664 . S
O7 Dy3 2.310 . S
O7 C8 1.268 1_455 S
C8 O6 1.254 . S
C8 O7 1.268 1_655 S
C9 O14 1.254 . S
C9 O15 1.268 . S
O10 Dy3 2.351 1_655 S
O10 C18 1.249 . S
O11 Dy0 2.326 1_655 S
O11 C18 1.267 . S
O12 C1 1.185 . S
O12 Dy3 2.398 . S
O13 C1 1.355 . S
O13 Dy3 2.491 . S
O14 Dy3 2.403 . S
O14 C9 1.254 . S
O15 Dy0 2.310 . S
O15 Dy3 2.664 . S
O15 C9 1.268 . S
O16 Dy0 2.351 . S
O16 C19 1.249 . S
O17 Dy3 2.326 . S
O17 C19 1.267 . S
C18 O10 1.249 . S
C18 O11 1.267 . S
C19 O16 1.249 . S
C19 O17 1.267 . S
Dy20 O24 2.398 . S
Dy20 O25 2.491 . S
Dy20 O26 2.403 . S
Dy20 O27 2.664 . S
Dy20 O31 2.326 . S
Dy20 O35 2.310 . S
Dy20 O36 2.351 . S
C21 O32 1.185 . S
C21 O33 1.355 . S
C22 O24 1.185 . S
C22 O25 1.355 . S
Dy23 O27 2.310 . S
Dy23 O30 2.351 . S
Dy23 O32 2.398 . S
Dy23 O33 2.491 . S
Dy23 O34 2.403 . S
Dy23 O35 2.664 . S
Dy23 O37 2.326 . S
O24 Dy20 2.398 . S
O24 C22 1.185 . S
O25 Dy20 2.491 . S
O25 C22 1.355 . S
O26 Dy20 2.403 . S
O26 C28 1.254 . S
O27 Dy20 2.664 . S
O27 Dy23 2.310 . S
O27 C28 1.268 . S
C28 O26 1.254 . S
C28 O27 1.268 . S
C29 O34 1.254 . S
C29 O35 1.268 . S
O30 Dy23 2.351 . S
O30 C38 1.249 . S
O31 Dy20 2.326 . S
O31 C38 1.267 . S
O32 C21 1.185 . S
O32 Dy23 2.398 . S
O33 C21 1.355 . S
O33 Dy23 2.491 . S
O34 Dy23 2.403 . S
O34 C29 1.254 . S
O35 Dy20 2.310 . S
O35 Dy23 2.664 . S
O35 C29 1.268 . S
O36 Dy20 2.351 . S
O36 C39 1.249 . S
O37 Dy23 2.326 . S
O37 C39 1.267 . S
C38 O30 1.249 . S
C38 O31 1.267 . S
C39 O36 1.249 . S
C39 O37 1.267 . S
Dy40 O44 2.398 . S
Dy40 O45 2.491 . S
Dy40 O46 2.403 . S
Dy40 O47 2.664 . S
Dy40 O51 2.326 . S
Dy40 O55 2.310 . S
Dy40 O56 2.351 . S
C41 O52 1.185 . S
C41 O53 1.355 . S
C42 O44 1.185 . S
C42 O45 1.355 . S
Dy43 O47 2.310 . S
Dy43 O50 2.351 . S
Dy43 O52 2.398 . S
Dy43 O53 2.491 . S
Dy43 O54 2.403 . S
Dy43 O55 2.664 . S
Dy43 O57 2.326 . S
O44 Dy40 2.398 . S
O44 C42 1.185 . S
O45 Dy40 2.491 . S
O45 C42 1.355 . S
O46 Dy40 2.403 . S
O46 C48 1.254 . S
O47 Dy40 2.664 . S
O47 Dy43 2.310 . S
O47 C48 1.268 . S
C48 O46 1.254 . S
C48 O47 1.268 . S
C49 O54 1.254 . S
C49 O55 1.268 . S
O50 Dy43 2.351 . S
O50 C58 1.249 . S
O51 Dy40 2.326 . S
O51 C58 1.267 . S
O52 C41 1.185 . S
O52 Dy43 2.398 . S
O53 C41 1.355 . S
O53 Dy43 2.491 . S
O54 Dy43 2.403 . S
O54 C49 1.254 . S
O55 Dy40 2.310 . S
O55 Dy43 2.664 . S
O55 C49 1.268 . S
O56 Dy40 2.351 . S
O56 C59 1.249 . S
O57 Dy43 2.326 . S
O57 C59 1.267 . S
C58 O50 1.249 . S
C58 O51 1.267 . S
C59 O56 1.249 . S
C59 O57 1.267 . S
Dy60 O64 2.398 . S
Dy60 O65 2.491 1_554 S
Dy60 O66 2.403 . S
Dy60 O67 2.664 . S
Dy60 O71 2.326 . S
Dy60 O75 2.310 . S
Dy60 O76 2.351 . S
C61 O72 1.185 . S
C61 O73 1.355 . S
C62 O64 1.185 1_556 S
C62 O65 1.355 . S
Dy63 O67 2.310 . S
Dy63 O70 2.351 . S
Dy63 O72 2.398 . S
Dy63 O73 2.491 . S
Dy63 O74 2.403 . S
Dy63 O75 2.664 . S
Dy63 O77 2.326 . S
O64 Dy60 2.398 . S
O64 C62 1.185 1_554 S
O65 Dy60 2.491 1_556 S
O65 C62 1.355 . S
O66 Dy60 2.403 . S
O66 C68 1.254 . S
O67 Dy60 2.664 . S
O67 Dy63 2.310 . S
O67 C68 1.268 . S
C68 O66 1.254 . S
C68 O67 1.268 . S
C69 O74 1.254 . S
C69 O75 1.268 . S
O70 Dy63 2.351 . S
O70 C78 1.249 . S
O71 Dy60 2.326 . S
O71 C78 1.267 . S
O72 C61 1.185 . S
O72 Dy63 2.398 . S
O73 C61 1.355 . S
O73 Dy63 2.491 . S
O74 Dy63 2.403 . S
O74 C69 1.254 . S
O75 Dy60 2.310 . S
O75 Dy63 2.664 . S
O75 C69 1.268 . S
O76 Dy60 2.351 . S
O76 C79 1.249 . S
O77 Dy63 2.326 . S
O77 C79 1.267 . S
C78 O70 1.249 . S
C78 O71 1.267 . S
C79 O76 1.249 . S
C79 O77 1.267 . S
Dy80 O84 2.398 . S
Dy80 O85 2.491 . S
Dy80 O86 2.403 1_655 S
Dy80 O87 2.664 1_655 S
Dy80 O91 2.326 1_655 S
Dy80 O95 2.308 1_655 S
Dy80 O96 2.351 . S
C81 O92 1.185 . S
C81 O93 1.355 . S
C82 O84 1.185 . S
C82 O85 1.355 . S
Dy83 O87 2.310 . S
Dy83 O90 2.351 . S
Dy83 O92 2.398 . S
Dy83 O93 2.491 . S
Dy83 O94 2.403 . S
Dy83 O95 2.669 . S
Dy83 O97 2.326 . S
O84 Dy80 2.398 . S
O84 C82 1.185 . S
O85 Dy80 2.491 . S
O85 C82 1.355 . S
O86 Dy80 2.403 1_455 S
O86 C88 1.254 . S
O87 Dy80 2.664 1_455 S
O87 Dy83 2.310 . S
O87 C88 1.268 . S
C88 O86 1.254 . S
C88 O87 1.268 . S
C89 O94 1.254 1_655 S
C89 O95 1.268 1_655 S
O90 Dy83 2.351 . S
O90 C98 1.249 . S
O91 Dy80 2.326 1_455 S
O91 C98 1.267 . S
O92 C81 1.185 . S
O92 Dy83 2.398 . S
O93 C81 1.355 . S
O93 Dy83 2.491 . S
O94 Dy83 2.403 . S
O94 C89 1.254 1_455 S
O95 Dy80 2.308 1_455 S
O95 Dy83 2.669 . S
O95 C89 1.268 1_455 S
O96 Dy80 2.351 . S
O96 C99 1.249 . S
O97 Dy83 2.326 . S
O97 C99 1.267 1_455 S
C98 O90 1.249 . S
C98 O91 1.267 . S
C99 O96 1.249 . S
C99 O97 1.267 1_655 S
Dy100 O104 2.398 . S
Dy100 O105 2.491 . S
Dy100 O106 2.403 . S
Dy100 O107 2.664 . S
Dy100 O111 2.326 . S
Dy100 O115 2.310 . S
Dy100 O116 2.351 . S
C101 O112 1.185 . S
C101 O113 1.355 . S
C102 O104 1.185 . S
C102 O105 1.355 . S
Dy103 O107 2.310 . S
Dy103 O110 2.351 . S
Dy103 O112 2.398 . S
Dy103 O113 2.491 . S
Dy103 O114 2.403 . S
Dy103 O115 2.664 . S
Dy103 O117 2.326 . S
O104 Dy100 2.398 . S
O104 C102 1.185 . S
O105 Dy100 2.491 . S
O105 C102 1.355 . S
O106 Dy100 2.403 . S
O106 C108 1.254 . S
O107 Dy100 2.664 . S
O107 Dy103 2.310 . S
O107 C108 1.268 . S
C108 O106 1.254 . S
C108 O107 1.268 . S
C109 O114 1.254 . S
C109 O115 1.268 . S
O110 Dy103 2.351 . S
O110 C118 1.249 . S
O111 Dy100 2.326 . S
O111 C118 1.267 . S
O112 C101 1.185 . S
O112 Dy103 2.398 . S
O113 C101 1.355 . S
O113 Dy103 2.491 . S
O114 Dy103 2.403 . S
O114 C109 1.254 . S
O115 Dy100 2.310 . S
O115 Dy103 2.664 . S
O115 C109 1.268 . S
O116 Dy100 2.351 . S
O116 C119 1.249 . S
O117 Dy103 2.326 . S
O117 C119 1.267 . S
C118 O110 1.249 . S
C118 O111 1.267 . S
C119 O116 1.249 . S
C119 O117 1.267 . S
Dy120 O124 2.398 . S
Dy120 O125 2.491 . S
Dy120 O126 2.403 . S
Dy120 O127 2.664 . S
Dy120 O131 2.326 . S
Dy120 O135 2.310 . S
Dy120 O136 2.351 . S
C121 O132 1.185 . S
C121 O133 1.355 . S
C122 O124 1.185 . S
C122 O125 1.355 . S
Dy123 O127 2.310 . S
Dy123 O130 2.351 . S
Dy123 O132 2.398 . S
Dy123 O133 2.491 . S
Dy123 O134 2.403 . S
Dy123 O135 2.664 . S
Dy123 O137 2.326 . S
O124 Dy120 2.398 . S
O124 C122 1.185 . S
O125 Dy120 2.491 . S
O125 C122 1.355 . S
O126 Dy120 2.403 . S
O126 C128 1.254 . S
O127 Dy120 2.664 . S
O127 Dy123 2.310 . S
O127 C128 1.268 . S
C128 O126 1.254 . S
C128 O127 1.268 . S
C129 O134 1.254 . S
C129 O135 1.268 . S
O130 Dy123 2.351 . S
O130 C138 1.249 . S
O131 Dy120 2.326 . S
O131 C138 1.267 . S
O132 C121 1.185 . S
O132 Dy123 2.398 . S
O133 C121 1.355 . S
O133 Dy123 2.491 . S
O134 Dy123 2.403 . S
O134 C129 1.254 . S
O135 Dy120 2.310 . S
O135 Dy123 2.664 . S
O135 C129 1.268 . S
O136 Dy120 2.351 . S
O136 C139 1.249 . S
O137 Dy123 2.326 . S
O137 C139 1.267 . S
C138 O130 1.249 . S
C138 O131 1.267 . S
C139 O136 1.249 . S
C139 O137 1.267 . S
Dy140 O144 2.398 . S
Dy140 O145 2.491 . S
Dy140 O146 2.403 . S
Dy140 O147 2.664 . S
Dy140 O151 2.326 . S
Dy140 O155 2.310 . S
Dy140 O156 2.332 1_556 S
C141 O152 1.185 . S
C141 O153 1.355 . S
C142 O144 1.185 . S
C142 O145 1.355 . S
Dy143 O147 2.310 1_554 S
Dy143 O150 2.351 1_554 S
Dy143 O152 2.398 . S
Dy143 O153 2.491 . S
Dy143 O154 2.403 . S
Dy143 O155 2.664 1_554 S
Dy143 O157 2.326 . S
O144 Dy140 2.398 . S
O144 C142 1.185 . S
O145 Dy140 2.491 . S
O145 C142 1.355 . S
O146 Dy140 2.403 . S
O146 C148 1.254 . S
O147 Dy140 2.664 . S
O147 Dy143 2.310 1_556 S
O147 C148 1.268 . S
C148 O146 1.254 . S
C148 O147 1.268 . S
C149 O154 1.254 . S
C149 O155 1.268 1_554 S
O150 Dy143 2.351 1_556 S
O150 C158 1.249 . S
O151 Dy140 2.326 . S
O151 C158 1.267 . S
O152 C141 1.185 . S
O152 Dy143 2.398 . S
O153 C141 1.355 . S
O153 Dy143 2.491 . S
O154 Dy143 2.403 . S
O154 C149 1.254 . S
O155 Dy140 2.310 . S
O155 Dy143 2.664 1_556 S
O155 C149 1.268 1_556 S
O156 Dy140 2.332 1_554 S
O156 C159 1.269 . S
O157 Dy143 2.326 . S
O157 C159 1.267 . S
C158 O150 1.249 . S
C158 O151 1.267 . S
C159 O156 1.269 . S
C159 O157 1.267 . S
Dy160 O164 2.398 1_545 S
Dy160 O165 2.491 1_545 S
Dy160 O166 2.403 . S
Dy160 O167 2.664 . S
Dy160 O171 2.326 . S
Dy160 O175 2.310 . S
Dy160 O176 2.351 . S
C161 O172 1.185 . S
C161 O173 1.355 . S
C162 O164 1.185 . S
C162 O165 1.355 . S
Dy163 O167 2.310 . S
Dy163 O170 2.351 . S
Dy163 O172 2.398 . S
Dy163 O173 2.491 . S
Dy163 O174 2.403 . S
Dy163 O175 2.664 . S
Dy163 O177 2.326 . S
O164 Dy160 2.398 1_565 S
O164 C162 1.185 . S
O165 Dy160 2.491 1_565 S
O165 C162 1.355 . S
O166 Dy160 2.403 . S
O166 C168 1.254 . S
O167 Dy160 2.664 . S
O167 Dy163 2.310 . S
O167 C168 1.268 . S
C168 O166 1.254 . S
C168 O167 1.268 . S
C169 O174 1.254 . S
C169 O175 1.268 . S
O170 Dy163 2.351 . S
O170 C178 1.249 . S
O171 Dy160 2.326 . S
O171 C178 1.267 . S
O172 C161 1.185 . S
O172 Dy163 2.398 . S
O173 C161 1.355 . S
O173 Dy163 2.491 . S
O174 Dy163 2.403 . S
O174 C169 1.254 . S
O175 Dy160 2.310 . S
O175 Dy163 2.664 . S
O175 C169 1.268 . S
O176 Dy160 2.351 . S
O176 C179 1.249 . S
O177 Dy163 2.326 . S
O177 C179 1.267 . S
C178 O170 1.249 . S
C178 O171 1.267 . S
C179 O176 1.249 . S
C179 O177 1.267 . S
Dy180 O184 2.398 . S
Dy180 O185 2.491 1_545 S
Dy180 O186 2.403 . S
Dy180 O187 2.664 . S
Dy180 O191 2.326 . S
Dy180 O195 2.310 . S
Dy180 O196 2.351 . S
C181 O192 1.185 . S
C181 O193 1.355 . S
C182 O184 1.185 1_565 S
C182 O185 1.355 . S
Dy183 O187 2.310 . S
Dy183 O190 2.351 . S
Dy183 O192 2.398 . S
Dy183 O193 2.491 . S
Dy183 O194 2.403 . S
Dy183 O195 2.664 . S
Dy183 O197 2.326 . S
O184 Dy180 2.398 . S
O184 C182 1.185 1_545 S
O185 Dy180 2.491 1_565 S
O185 C182 1.355 . S
O186 Dy180 2.403 . S
O186 C188 1.254 . S
O187 Dy180 2.664 . S
O187 Dy183 2.310 . S
O187 C188 1.268 . S
C188 O186 1.254 . S
C188 O187 1.268 . S
C189 O194 1.254 . S
C189 O195 1.268 . S
O190 Dy183 2.351 . S
O190 C198 1.249 . S
O191 Dy180 2.326 . S
O191 C198 1.267 . S
O192 C181 1.185 . S
O192 Dy183 2.398 . S
O193 C181 1.355 . S
O193 Dy183 2.491 . S
O194 Dy183 2.403 . S
O194 C189 1.254 . S
O195 Dy180 2.310 . S
O195 Dy183 2.664 . S
O195 C189 1.268 . S
O196 Dy180 2.351 . S
O196 C199 1.249 . S
O197 Dy183 2.326 . S
O197 C199 1.267 . S
C198 O190 1.249 . S
C198 O191 1.267 . S
C199 O196 1.249 . S
C199 O197 1.267 . S
Dy200 O204 2.398 . S
Dy200 O205 2.491 . S
Dy200 O206 2.403 . S
Dy200 O207 2.664 . S
Dy200 O211 2.326 . S
Dy200 O215 2.310 . S
Dy200 O216 2.351 1_565 S
C201 O212 1.185 . S
C201 O213 1.355 . S
C202 O204 1.185 . S
C202 O205 1.355 . S
Dy203 O207 2.310 1_545 S
Dy203 O210 2.351 1_545 S
Dy203 O212 2.398 . S
Dy203 O213 2.491 . S
Dy203 O214 2.403 . S
Dy203 O215 2.664 1_545 S
Dy203 O217 2.326 . S
O204 Dy200 2.398 . S
O204 C202 1.185 . S
O205 Dy200 2.491 . S
O205 C202 1.355 . S
O206 Dy200 2.403 . S
O206 C208 1.254 . S
O207 Dy200 2.664 . S
O207 Dy203 2.310 1_565 S
O207 C208 1.268 . S
C208 O206 1.254 . S
C208 O207 1.268 . S
C209 O214 1.254 . S
C209 O215 1.268 1_545 S
O210 Dy203 2.351 1_565 S
O210 C218 1.249 . S
O211 Dy200 2.326 . S
O211 C218 1.267 . S
O212 C201 1.185 . S
O212 Dy203 2.398 . S
O213 C201 1.355 . S
O213 Dy203 2.491 . S
O214 Dy203 2.403 . S
O214 C209 1.254 . S
O215 Dy200 2.310 . S
O215 Dy203 2.664 1_565 S
O215 C209 1.268 1_565 S
O216 Dy200 2.351 1_545 S
O216 C219 1.249 . S
O217 Dy203 2.326 . S
O217 C219 1.267 . S
C218 O210 1.249 . S
C218 O211 1.267 . S
C219 O216 1.249 . S
C219 O217 1.267 . S
Dy220 O224 2.398 . S
Dy220 O225 2.491 . S
Dy220 O226 2.403 . S
Dy220 O227 2.664 . S
Dy220 O231 2.326 . S
Dy220 O235 2.310 . S
Dy220 O236 2.351 . S
C221 O232 1.185 . S
C221 O233 1.355 . S
C222 O224 1.185 . S
C222 O225 1.355 . S
Dy223 O227 2.310 . S
Dy223 O230 2.351 . S
Dy223 O232 2.398 1_565 S
Dy223 O233 2.491 1_565 S
Dy223 O234 2.403 1_565 S
Dy223 O235 2.664 . S
Dy223 O237 2.326 1_565 S
O224 Dy220 2.398 . S
O224 C222 1.185 . S
O225 Dy220 2.491 . S
O225 C222 1.355 . S
O226 Dy220 2.403 . S
O226 C228 1.254 . S
O227 Dy220 2.664 . S
O227 Dy223 2.310 . S
O227 C228 1.268 . S
C228 O226 1.254 . S
C228 O227 1.268 . S
C229 O234 1.254 1_565 S
C229 O235 1.268 . S
O230 Dy223 2.351 . S
O230 C238 1.249 . S
O231 Dy220 2.326 . S
O231 C238 1.267 . S
O232 C221 1.185 . S
O232 Dy223 2.398 1_545 S
O233 C221 1.355 . S
O233 Dy223 2.491 1_545 S
O234 Dy223 2.403 1_545 S
O234 C229 1.254 1_545 S
O235 Dy220 2.310 . S
O235 Dy223 2.664 . S
O235 C229 1.268 . S
O236 Dy220 2.351 . S
O236 C239 1.249 1_565 S
O237 Dy223 2.326 1_545 S
O237 C239 1.267 . S
C238 O230 1.249 . S
C238 O231 1.267 . S
C239 O236 1.249 1_545 S
C239 O237 1.267 . S
Dy240 O244 2.398 . S
Dy240 O245 2.491 . S
Dy240 O246 2.403 . S
Dy240 O247 2.664 . S
Dy240 O251 2.326 . S
Dy240 O255 2.310 . S
Dy240 O256 2.351 . S
C241 O252 1.185 . S
C241 O253 1.355 . S
C242 O244 1.185 . S
C242 O245 1.355 . S
Dy243 O247 2.310 . S
Dy243 O250 2.351 . S
Dy243 O252 2.398 1_554 S
Dy243 O253 2.491 1_554 S
Dy243 O254 2.403 1_554 S
Dy243 O255 2.664 . S
Dy243 O257 2.326 . S
O244 Dy240 2.398 . S
O244 C242 1.185 . S
O245 Dy240 2.491 . S
O245 C242 1.355 . S
O246 Dy240 2.403 . S
O246 C248 1.254 . S
O247 Dy240 2.664 . S
O247 Dy243 2.310 . S
O247 C248 1.268 . S
C248 O246 1.254 . S
C248 O247 1.268 . S
C249 O254 1.254 1_554 S
C249 O255 1.268 . S
O250 Dy243 2.351 . S
O250 C258 1.249 . S
O251 Dy240 2.326 . S
O251 C258 1.267 . S
O252 C241 1.185 . S
O252 Dy243 2.398 1_556 S
O253 C241 1.355 . S
O253 Dy243 2.491 1_556 S
O254 Dy243 2.403 1_556 S
O254 C249 1.254 1_556 S
O255 Dy240 2.310 . S
O255 Dy243 2.664 . S
O255 C249 1.268 . S
O256 Dy240 2.351 . S
O256 C259 1.249 . S
O257 Dy243 2.326 . S
O257 C259 1.267 . S
C258 O250 1.249 . S
C258 O251 1.267 . S
C259 O256 1.249 . S
C259 O257 1.267 . S
Dy260 O264 2.398 . S
Dy260 O265 2.491 . S
Dy260 O266 2.403 1_455 S
Dy260 O267 2.664 1_455 S
Dy260 O271 2.326 1_455 S
Dy260 O275 2.309 1_455 S
Dy260 O276 2.351 . S
C261 O272 1.185 . S
C261 O273 1.355 . S
C262 O264 1.185 . S
C262 O265 1.355 . S
Dy263 O267 2.310 . S
Dy263 O270 2.351 . S
Dy263 O272 2.398 . S
Dy263 O273 2.491 . S
Dy263 O274 2.403 . S
Dy263 O275 2.666 . S
Dy263 O277 2.326 . S
O264 Dy260 2.398 . S
O264 C262 1.185 . S
O265 Dy260 2.491 . S
O265 C262 1.355 . S
O266 Dy260 2.403 1_655 S
O266 C268 1.254 . S
O267 Dy260 2.664 1_655 S
O267 Dy263 2.310 . S
O267 C268 1.268 . S
C268 O266 1.254 . S
C268 O267 1.268 . S
C269 O274 1.254 1_455 S
C269 O275 1.268 1_455 S
O270 Dy263 2.351 . S
O270 C278 1.249 . S
O271 Dy260 2.326 1_655 S
O271 C278 1.267 . S
O272 C261 1.185 . S
O272 Dy263 2.398 . S
O273 C261 1.355 . S
O273 Dy263 2.491 . S
O274 Dy263 2.403 . S
O274 C269 1.254 1_655 S
O275 Dy260 2.309 1_655 S
O275 Dy263 2.666 . S
O275 C269 1.268 1_655 S
O276 Dy260 2.351 . S
O276 C279 1.249 1_455 S
O277 Dy263 2.326 . S
O277 C279 1.267 . S
C278 O270 1.249 . S
C278 O271 1.267 . S
C279 O276 1.249 1_655 S
C279 O277 1.267 . S
Dy280 O284 2.398 . S
Dy280 O285 2.491 . S
Dy280 O286 2.403 . S
Dy280 O287 2.664 . S
Dy280 O291 2.326 . S
Dy280 O295 2.310 . S
Dy280 O296 2.351 . S
C281 O292 1.185 . S
C281 O293 1.355 . S
C282 O284 1.185 . S
C282 O285 1.355 . S
Dy283 O287 2.310 . S
Dy283 O290 2.351 . S
Dy283 O292 2.398 . S
Dy283 O293 2.491 . S
Dy283 O294 2.403 . S
Dy283 O295 2.664 . S
Dy283 O297 2.326 . S
O284 Dy280 2.398 . S
O284 C282 1.185 . S
O285 Dy280 2.491 . S
O285 C282 1.355 . S
O286 Dy280 2.403 . S
O286 C288 1.254 . S
O287 Dy280 2.664 . S
O287 Dy283 2.310 . S
O287 C288 1.268 . S
C288 O286 1.254 . S
C288 O287 1.268 . S
C289 O294 1.254 . S
C289 O295 1.268 . S
O290 Dy283 2.351 . S
O290 C298 1.249 . S
O291 Dy280 2.326 . S
O291 C298 1.267 . S
O292 C281 1.185 . S
O292 Dy283 2.398 . S
O293 C281 1.355 . S
O293 Dy283 2.491 . S
O294 Dy283 2.403 . S
O294 C289 1.254 . S
O295 Dy280 2.310 . S
O295 Dy283 2.664 . S
O295 C289 1.268 . S
O296 Dy280 2.351 . S
O296 C299 1.249 . S
O297 Dy283 2.326 . S
O297 C299 1.267 . S
C298 O290 1.249 . S
C298 O291 1.267 . S
C299 O296 1.249 . S
C299 O297 1.267 . S
Dy300 O304 2.398 . S
Dy300 O305 2.491 . S
Dy300 O306 2.403 . S
Dy300 O307 2.664 . S
Dy300 O311 2.326 . S
Dy300 O315 2.310 . S
Dy300 O316 2.351 1_655 S
C301 O312 1.185 . S
C301 O313 1.355 . S
C302 O304 1.185 . S
C302 O305 1.355 . S
Dy303 O307 2.310 . S
Dy303 O310 2.351 . S
Dy303 O312 2.398 1_655 S
Dy303 O313 2.491 1_655 S
Dy303 O314 2.403 1_655 S
Dy303 O315 2.664 . S
Dy303 O317 2.326 1_655 S
O304 Dy300 2.398 . S
O304 C302 1.185 . S
O305 Dy300 2.491 . S
O305 C302 1.355 . S
O306 Dy300 2.403 . S
O306 C308 1.254 . S
O307 Dy300 2.664 . S
O307 Dy303 2.310 . S
O307 C308 1.268 . S
C308 O306 1.254 . S
C308 O307 1.268 . S
C309 O314 1.254 . S
C309 O315 1.268 1_455 S
O310 Dy303 2.351 . S
O310 C318 1.249 . S
O311 Dy300 2.326 . S
O311 C318 1.267 . S
O312 C301 1.185 . S
O312 Dy303 2.398 1_455 S
O313 C301 1.355 . S
O313 Dy303 2.491 1_455 S
O314 Dy303 2.403 1_455 S
O314 C309 1.254 . S
O315 Dy300 2.310 . S
O315 Dy303 2.664 . S
O315 C309 1.268 1_655 S
O316 Dy300 2.351 1_455 S
O316 C319 1.249 . S
O317 Dy303 2.326 1_455 S
O317 C319 1.267 . S
C318 O310 1.249 . S
C318 O311 1.267 . S
C319 O316 1.249 . S
C319 O317 1.267 . S
Dy320 O324 2.398 . S
Dy320 O325 2.491 . S
Dy320 O326 2.403 . S
Dy320 O327 2.664 . S
Dy320 O331 2.326 . S
Dy320 O335 2.310 . S
Dy320 O336 2.351 . S
C321 O332 1.185 . S
C321 O333 1.355 . S
C322 O324 1.185 . S
C322 O325 1.355 . S
Dy323 O327 2.310 . S
Dy323 O330 2.351 . S
Dy323 O332 2.398 . S
Dy323 O333 2.491 . S
Dy323 O334 2.403 . S
Dy323 O335 2.664 . S
Dy323 O337 2.326 . S
O324 Dy320 2.398 . S
O324 C322 1.185 . S
O325 Dy320 2.491 . S
O325 C322 1.355 . S
O326 Dy320 2.403 . S
O326 C328 1.254 . S
O327 Dy320 2.664 . S
O327 Dy323 2.310 . S
O327 C328 1.268 . S
C328 O326 1.254 . S
C328 O327 1.268 . S
C329 O334 1.254 . S
C329 O335 1.268 . S
O330 Dy323 2.351 . S
O330 C338 1.249 . S
O331 Dy320 2.326 . S
O331 C338 1.267 . S
O332 C321 1.185 . S
O332 Dy323 2.398 . S
O333 C321 1.355 . S
O333 Dy323 2.491 . S
O334 Dy323 2.403 . S
O334 C329 1.254 . S
O335 Dy320 2.310 . S
O335 Dy323 2.664 . S
O335 C329 1.268 . S
O336 Dy320 2.351 . S
O336 C339 1.249 . S
O337 Dy323 2.326 . S
O337 C339 1.267 . S
C338 O330 1.249 . S
C338 O331 1.267 . S
C339 O336 1.249 . S
C339 O337 1.267 . S
Dy340 O344 2.398 . S
Dy340 O345 2.491 . S
Dy340 O346 2.403 . S
Dy340 O347 2.664 . S
Dy340 O351 2.326 . S
Dy340 O355 2.310 . S
Dy340 O356 2.351 . S
C341 O352 1.185 . S
C341 O353 1.355 . S
C342 O344 1.185 . S
C342 O345 1.355 . S
Dy343 O347 2.310 . S
Dy343 O350 2.351 . S
Dy343 O352 2.398 . S
Dy343 O353 2.491 . S
Dy343 O354 2.403 . S
Dy343 O355 2.664 . S
Dy343 O357 2.326 . S
O344 Dy340 2.398 . S
O344 C342 1.185 . S
O345 Dy340 2.491 . S
O345 C342 1.355 . S
O346 Dy340 2.403 . S
O346 C348 1.254 . S
O347 Dy340 2.664 . S
O347 Dy343 2.310 . S
O347 C348 1.268 . S
C348 O346 1.254 . S
C348 O347 1.268 . S
C349 O354 1.254 . S
C349 O355 1.268 . S
O350 Dy343 2.351 . S
O350 C358 1.249 . S
O351 Dy340 2.326 . S
O351 C358 1.267 . S
O352 C341 1.185 . S
O352 Dy343 2.398 . S
O353 C341 1.355 . S
O353 Dy343 2.491 . S
O354 Dy343 2.403 . S
O354 C349 1.254 . S
O355 Dy340 2.310 . S
O355 Dy343 2.664 . S
O355 C349 1.268 . S
O356 Dy340 2.351 . S
O356 C359 1.249 . S
O357 Dy343 2.326 . S
O357 C359 1.267 . S
C358 O350 1.249 . S
C358 O351 1.267 . S
C359 O356 1.249 . S
C359 O357 1.267 . S
Dy360 O364 2.398 . S
Dy360 O365 2.491 . S
Dy360 O366 2.403 . S
Dy360 O367 2.664 . S
Dy360 O371 2.326 . S
Dy360 O375 2.310 . S
Dy360 O376 2.351 . S
C361 O372 1.185 1_554 S
C361 O373 1.355 . S
C362 O364 1.185 . S
C362 O365 1.355 . S
Dy363 O367 2.310 . S
Dy363 O370 2.351 . S
Dy363 O372 2.398 . S
Dy363 O373 2.491 1_556 S
Dy363 O374 2.403 . S
Dy363 O375 2.664 . S
Dy363 O377 2.326 . S
O364 Dy360 2.398 . S
O364 C362 1.185 . S
O365 Dy360 2.491 . S
O365 C362 1.355 . S
O366 Dy360 2.403 . S
O366 C368 1.254 . S
O367 Dy360 2.664 . S
O367 Dy363 2.310 . S
O367 C368 1.268 . S
C368 O366 1.254 . S
C368 O367 1.268 . S
C369 O374 1.254 . S
C369 O375 1.268 . S
O370 Dy363 2.351 . S
O370 C378 1.249 . S
O371 Dy360 2.326 . S
O371 C378 1.267 . S
O372 C361 1.185 1_556 S
O372 Dy363 2.398 . S
O373 C361 1.355 . S
O373 Dy363 2.491 1_554 S
O374 Dy363 2.403 . S
O374 C369 1.254 . S
O375 Dy360 2.310 . S
O375 Dy363 2.664 . S
O375 C369 1.268 . S
O376 Dy360 2.351 . S
O376 C379 1.249 . S
O377 Dy363 2.326 . S
O377 C379 1.267 . S
C378 O370 1.249 . S
C378 O371 1.267 . S
C379 O376 1.249 . S
C379 O377 1.267 . S
Dy380 O384 2.398 . S
Dy380 O385 2.491 . S
Dy380 O386 2.403 . S
Dy380 O387 2.669 . S
Dy380 O391 2.326 . S
Dy380 O395 2.310 . S
Dy380 O396 2.351 . S
C381 O392 1.185 . S
C381 O393 1.355 . S
C382 O384 1.185 . S
C382 O385 1.355 . S
Dy383 O387 2.308 1_455 S
Dy383 O390 2.351 . S
Dy383 O392 2.398 . S
Dy383 O393 2.491 . S
Dy383 O394 2.403 1_455 S
Dy383 O395 2.664 1_455 S
Dy383 O397 2.326 1_455 S
O384 Dy380 2.398 . S
O384 C382 1.185 . S
O385 Dy380 2.491 . S
O385 C382 1.355 . S
O386 Dy380 2.403 . S
O386 C388 1.254 1_655 S
O387 Dy380 2.669 . S
O387 Dy383 2.308 1_655 S
O387 C388 1.268 1_655 S
C388 O386 1.254 1_455 S
C388 O387 1.268 1_455 S
C389 O394 1.254 . S
C389 O395 1.268 . S
O390 Dy383 2.351 . S
O390 C398 1.249 . S
O391 Dy380 2.326 . S
O391 C398 1.267 1_655 S
O392 C381 1.185 . S
O392 Dy383 2.398 . S
O393 C381 1.355 . S
O393 Dy383 2.491 . S
O394 Dy383 2.403 1_655 S
O394 C389 1.254 . S
O395 Dy380 2.310 . S
O395 Dy383 2.664 1_655 S
O395 C389 1.268 . S
O396 Dy380 2.351 . S
O396 C399 1.249 . S
O397 Dy383 2.326 1_655 S
O397 C399 1.267 . S
C398 O390 1.249 . S
C398 O391 1.267 1_455 S
C399 O396 1.249 . S
C399 O397 1.267 . S
Dy400 O404 2.398 . S
Dy400 O405 2.491 . S
Dy400 O406 2.403 . S
Dy400 O407 2.664 . S
Dy400 O411 2.326 . S
Dy400 O415 2.310 . S
Dy400 O416 2.351 . S
C401 O412 1.185 . S
C401 O413 1.355 . S
C402 O404 1.185 . S
C402 O405 1.355 . S
Dy403 O407 2.310 . S
Dy403 O410 2.351 . S
Dy403 O412 2.398 . S
Dy403 O413 2.491 . S
Dy403 O414 2.403 . S
Dy403 O415 2.664 . S
Dy403 O417 2.326 . S
O404 Dy400 2.398 . S
O404 C402 1.185 . S
O405 Dy400 2.491 . S
O405 C402 1.355 . S
O406 Dy400 2.403 . S
O406 C408 1.254 . S
O407 Dy400 2.664 . S
O407 Dy403 2.310 . S
O407 C408 1.268 . S
C408 O406 1.254 . S
C408 O407 1.268 . S
C409 O414 1.254 . S
C409 O415 1.268 . S
O410 Dy403 2.351 . S
O410 C418 1.249 . S
O411 Dy400 2.326 . S
O411 C418 1.267 . S
O412 C401 1.185 . S
O412 Dy403 2.398 . S
O413 C401 1.355 . S
O413 Dy403 2.491 . S
O414 Dy403 2.403 . S
O414 C409 1.254 . S
O415 Dy400 2.310 . S
O415 Dy403 2.664 . S
O415 C409 1.268 . S
O416 Dy400 2.351 . S
O416 C419 1.249 . S
O417 Dy403 2.326 . S
O417 C419 1.267 . S
C418 O410 1.249 . S
C418 O411 1.267 . S
C419 O416 1.249 . S
C419 O417 1.267 . S
Dy420 O424 2.398 . S
Dy420 O425 2.491 . S
Dy420 O426 2.403 . S
Dy420 O427 2.664 . S
Dy420 O431 2.326 . S
Dy420 O435 2.310 . S
Dy420 O436 2.351 . S
C421 O432 1.185 . S
C421 O433 1.355 . S
C422 O424 1.185 . S
C422 O425 1.355 . S
Dy423 O427 2.310 . S
Dy423 O430 2.351 . S
Dy423 O432 2.398 . S
Dy423 O433 2.491 . S
Dy423 O434 2.403 . S
Dy423 O435 2.664 . S
Dy423 O437 2.326 . S
O424 Dy420 2.398 . S
O424 C422 1.185 . S
O425 Dy420 2.491 . S
O425 C422 1.355 . S
O426 Dy420 2.403 . S
O426 C428 1.254 . S
O427 Dy420 2.664 . S
O427 Dy423 2.310 . S
O427 C428 1.268 . S
C428 O426 1.254 . S
C428 O427 1.268 . S
C429 O434 1.254 . S
C429 O435 1.268 . S
O430 Dy423 2.351 . S
O430 C438 1.249 . S
O431 Dy420 2.326 . S
O431 C438 1.267 . S
O432 C421 1.185 . S
O432 Dy423 2.398 . S
O433 C421 1.355 . S
O433 Dy423 2.491 . S
O434 Dy423 2.403 . S
O434 C429 1.254 . S
O435 Dy420 2.310 . S
O435 Dy423 2.664 . S
O435 C429 1.268 . S
O436 Dy420 2.351 . S
O436 C439 1.249 . S
O437 Dy423 2.326 . S
O437 C439 1.267 . S
C438 O430 1.249 . S
C438 O431 1.267 . S
C439 O436 1.249 . S
C439 O437 1.267 . S
Dy440 O444 2.398 . S
Dy440 O445 2.491 . S
Dy440 O446 2.403 . S
Dy440 O447 2.664 1_556 S
Dy440 O451 2.326 . S
Dy440 O455 2.310 1_556 S
Dy440 O456 2.351 1_556 S
C441 O452 1.185 . S
C441 O453 1.355 . S
C442 O444 1.185 . S
C442 O445 1.355 . S
Dy443 O447 2.310 . S
Dy443 O450 2.332 1_554 S
Dy443 O452 2.398 . S
Dy443 O453 2.491 . S
Dy443 O454 2.403 . S
Dy443 O455 2.664 . S
Dy443 O457 2.326 . S
O444 Dy440 2.398 . S
O444 C442 1.185 . S
O445 Dy440 2.491 . S
O445 C442 1.355 . S
O446 Dy440 2.403 . S
O446 C448 1.254 . S
O447 Dy440 2.664 1_554 S
O447 Dy443 2.310 . S
O447 C448 1.268 1_554 S
C448 O446 1.254 . S
C448 O447 1.268 1_556 S
C449 O454 1.254 . S
C449 O455 1.268 . S
O450 Dy443 2.332 1_556 S
O450 C458 1.269 . S
O451 Dy440 2.326 . S
O451 C458 1.267 . S
O452 C441 1.185 . S
O452 Dy443 2.398 . S
O453 C441 1.355 . S
O453 Dy443 2.491 . S
O454 Dy443 2.403 . S
O454 C449 1.254 . S
O455 Dy440 2.310 1_554 S
O455 Dy443 2.664 . S
O455 C449 1.268 . S
O456 Dy440 2.351 1_554 S
O456 C459 1.249 . S
O457 Dy443 2.326 . S
O457 C459 1.267 . S
C458 O450 1.269 . S
C458 O451 1.267 . S
C459 O456 1.249 . S
C459 O457 1.267 . S
Dy460 O464 2.398 . S
Dy460 O465 2.491 . S
Dy460 O466 2.403 . S
Dy460 O467 2.664 . S
Dy460 O471 2.326 . S
Dy460 O475 2.310 . S
Dy460 O476 2.351 . S
C461 O472 1.185 . S
C461 O473 1.355 . S
C462 O464 1.185 . S
C462 O465 1.355 . S
Dy463 O467 2.310 . S
Dy463 O470 2.351 . S
Dy463 O472 2.398 1_565 S
Dy463 O473 2.491 1_565 S
Dy463 O474 2.403 . S
Dy463 O475 2.664 . S
Dy463 O477 2.326 . S
O464 Dy460 2.398 . S
O464 C462 1.185 . S
O465 Dy460 2.491 . S
O465 C462 1.355 . S
O466 Dy460 2.403 . S
O466 C468 1.254 . S
O467 Dy460 2.664 . S
O467 Dy463 2.310 . S
O467 C468 1.268 . S
C468 O466 1.254 . S
C468 O467 1.268 . S
C469 O474 1.254 . S
C469 O475 1.268 . S
O470 Dy463 2.351 . S
O470 C478 1.249 . S
O471 Dy460 2.326 . S
O471 C478 1.267 . S
O472 C461 1.185 . S
O472 Dy463 2.398 1_545 S
O473 C461 1.355 . S
O473 Dy463 2.491 1_545 S
O474 Dy463 2.403 . S
O474 C469 1.254 . S
O475 Dy460 2.310 . S
O475 Dy463 2.664 . S
O475 C469 1.268 . S
O476 Dy460 2.351 . S
O476 C479 1.249 . S
O477 Dy463 2.326 . S
O477 C479 1.267 . S
C478 O470 1.249 . S
C478 O471 1.267 . S
C479 O476 1.249 . S
C479 O477 1.267 . S
Dy480 O484 2.398 . S
Dy480 O485 2.491 . S
Dy480 O486 2.403 . S
Dy480 O487 2.664 . S
Dy480 O491 2.326 . S
Dy480 O495 2.310 . S
Dy480 O496 2.351 . S
C481 O492 1.185 1_545 S
C481 O493 1.355 . S
C482 O484 1.185 . S
C482 O485 1.355 . S
Dy483 O487 2.310 . S
Dy483 O490 2.351 . S
Dy483 O492 2.398 . S
Dy483 O493 2.491 1_565 S
Dy483 O494 2.403 . S
Dy483 O495 2.664 . S
Dy483 O497 2.326 . S
O484 Dy480 2.398 . S
O484 C482 1.185 . S
O485 Dy480 2.491 . S
O485 C482 1.355 . S
O486 Dy480 2.403 . S
O486 C488 1.254 . S
O487 Dy480 2.664 . S
O487 Dy483 2.310 . S
O487 C488 1.268 . S
C488 O486 1.254 . S
C488 O487 1.268 . S
C489 O494 1.254 . S
C489 O495 1.268 . S
O490 Dy483 2.351 . S
O490 C498 1.249 . S
O491 Dy480 2.326 . S
O491 C498 1.267 . S
O492 C481 1.185 1_565 S
O492 Dy483 2.398 . S
O493 C481 1.355 . S
O493 Dy483 2.491 1_545 S
O494 Dy483 2.403 . S
O494 C489 1.254 . S
O495 Dy480 2.310 . S
O495 Dy483 2.664 . S
O495 C489 1.268 . S
O496 Dy480 2.351 . S
O496 C499 1.249 . S
O497 Dy483 2.326 . S
O497 C499 1.267 . S
C498 O490 1.249 . S
C498 O491 1.267 . S
C499 O496 1.249 . S
C499 O497 1.267 . S
Dy500 O504 2.398 . S
Dy500 O505 2.491 . S
Dy500 O506 2.403 . S
Dy500 O507 2.664 1_565 S
Dy500 O511 2.326 . S
Dy500 O515 2.310 1_565 S
Dy500 O516 2.351 1_565 S
C501 O512 1.185 . S
C501 O513 1.355 . S
C502 O504 1.185 . S
C502 O505 1.355 . S
Dy503 O507 2.310 . S
Dy503 O510 2.351 1_545 S
Dy503 O512 2.398 . S
Dy503 O513 2.491 . S
Dy503 O514 2.403 . S
Dy503 O515 2.664 . S
Dy503 O517 2.326 . S
O504 Dy500 2.398 . S
O504 C502 1.185 . S
O505 Dy500 2.491 . S
O505 C502 1.355 . S
O506 Dy500 2.403 . S
O506 C508 1.254 . S
O507 Dy500 2.664 1_545 S
O507 Dy503 2.310 . S
O507 C508 1.268 1_545 S
C508 O506 1.254 . S
C508 O507 1.268 1_565 S
C509 O514 1.254 . S
C509 O515 1.268 . S
O510 Dy503 2.351 1_565 S
O510 C518 1.249 . S
O511 Dy500 2.326 . S
O511 C518 1.267 . S
O512 C501 1.185 . S
O512 Dy503 2.398 . S
O513 C501 1.355 . S
O513 Dy503 2.491 . S
O514 Dy503 2.403 . S
O514 C509 1.254 . S
O515 Dy500 2.310 1_545 S
O515 Dy503 2.664 . S
O515 C509 1.268 . S
O516 Dy500 2.351 1_545 S
O516 C519 1.249 . S
O517 Dy503 2.326 . S
O517 C519 1.267 . S
C518 O510 1.249 . S
C518 O511 1.267 . S
C519 O516 1.249 . S
C519 O517 1.267 . S
Dy520 O524 2.398 1_545 S
Dy520 O525 2.491 1_545 S
Dy520 O526 2.403 1_545 S
Dy520 O527 2.664 . S
Dy520 O531 2.326 1_545 S
Dy520 O535 2.310 . S
Dy520 O536 2.351 . S
C521 O532 1.185 . S
C521 O533 1.355 . S
C522 O524 1.185 . S
C522 O525 1.355 . S
Dy523 O527 2.310 . S
Dy523 O530 2.351 . S
Dy523 O532 2.398 . S
Dy523 O533 2.491 . S
Dy523 O534 2.403 . S
Dy523 O535 2.664 . S
Dy523 O537 2.326 . S
O524 Dy520 2.398 1_565 S
O524 C522 1.185 . S
O525 Dy520 2.491 1_565 S
O525 C522 1.355 . S
O526 Dy520 2.403 1_565 S
O526 C528 1.254 1_565 S
O527 Dy520 2.664 . S
O527 Dy523 2.310 . S
O527 C528 1.268 . S
C528 O526 1.254 1_545 S
C528 O527 1.268 . S
C529 O534 1.254 . S
C529 O535 1.268 . S
O530 Dy523 2.351 . S
O530 C538 1.249 1_545 S
O531 Dy520 2.326 1_565 S
O531 C538 1.267 . S
O532 C521 1.185 . S
O532 Dy523 2.398 . S
O533 C521 1.355 . S
O533 Dy523 2.491 . S
O534 Dy523 2.403 . S
O534 C529 1.254 . S
O535 Dy520 2.310 . S
O535 Dy523 2.664 . S
O535 C529 1.268 . S
O536 Dy520 2.351 . S
O536 C539 1.249 . S
O537 Dy523 2.326 . S
O537 C539 1.267 . S
C538 O530 1.249 1_565 S
C538 O531 1.267 . S
C539 O536 1.249 . S
C539 O537 1.267 . S
Dy540 O544 2.398 1_556 S
Dy540 O545 2.491 1_556 S
Dy540 O546 2.403 1_556 S
Dy540 O547 2.664 . S
Dy540 O551 2.326 . S
Dy540 O555 2.310 . S
Dy540 O556 2.351 . S
C541 O552 1.185 . S
C541 O553 1.355 . S
C542 O544 1.185 . S
C542 O545 1.355 . S
Dy543 O547 2.310 . S
Dy543 O550 2.351 . S
Dy543 O552 2.398 . S
Dy543 O553 2.491 . S
Dy543 O554 2.403 . S
Dy543 O555 2.664 . S
Dy543 O557 2.326 . S
O544 Dy540 2.398 1_554 S
O544 C542 1.185 . S
O545 Dy540 2.491 1_554 S
O545 C542 1.355 . S
O546 Dy540 2.403 1_554 S
O546 C548 1.254 1_554 S
O547 Dy540 2.664 . S
O547 Dy543 2.310 . S
O547 C548 1.268 . S
C548 O546 1.254 1_556 S
C548 O547 1.268 . S
C549 O554 1.254 . S
C549 O555 1.268 . S
O550 Dy543 2.351 . S
O550 C558 1.249 . S
O551 Dy540 2.326 . S
O551 C558 1.267 . S
O552 C541 1.185 . S
O552 Dy543 2.398 . S
O553 C541 1.355 . S
O553 Dy543 2.491 . S
O554 Dy543 2.403 . S
O554 C549 1.254 . S
O555 Dy540 2.310 . S
O555 Dy543 2.664 . S
O555 C549 1.268 . S
O556 Dy540 2.351 . S
O556 C559 1.249 . S
O557 Dy543 2.326 . S
O557 C559 1.267 . S
C558 O550 1.249 . S
C558 O551 1.267 . S
C559 O556 1.249 . S
C559 O557 1.267 . S
Dy560 O564 2.398 . S
Dy560 O565 2.491 . S
Dy560 O566 2.403 . S
Dy560 O567 2.666 . S
Dy560 O571 2.326 . S
Dy560 O575 2.310 . S
Dy560 O576 2.351 . S
C561 O572 1.185 . S
C561 O573 1.355 . S
C562 O564 1.185 . S
C562 O565 1.355 . S
Dy563 O567 2.309 1_655 S
Dy563 O570 2.351 . S
Dy563 O572 2.398 . S
Dy563 O573 2.491 . S
Dy563 O574 2.403 1_655 S
Dy563 O575 2.664 1_655 S
Dy563 O577 2.326 1_655 S
O564 Dy560 2.398 . S
O564 C562 1.185 . S
O565 Dy560 2.491 . S
O565 C562 1.355 . S
O566 Dy560 2.403 . S
O566 C568 1.254 1_455 S
O567 Dy560 2.666 . S
O567 Dy563 2.309 1_455 S
O567 C568 1.268 1_455 S
C568 O566 1.254 1_655 S
C568 O567 1.268 1_655 S
C569 O574 1.254 . S
C569 O575 1.268 . S
O570 Dy563 2.351 . S
O570 C578 1.249 1_655 S
O571 Dy560 2.326 . S
O571 C578 1.267 . S
O572 C561 1.185 . S
O572 Dy563 2.398 . S
O573 C561 1.355 . S
O573 Dy563 2.491 . S
O574 Dy563 2.403 1_455 S
O574 C569 1.254 . S
O575 Dy560 2.310 . S
O575 Dy563 2.664 1_455 S
O575 C569 1.268 . S
O576 Dy560 2.351 . S
O576 C579 1.249 . S
O577 Dy563 2.326 1_455 S
O577 C579 1.267 . S
C578 O570 1.249 1_455 S
C578 O571 1.267 . S
C579 O576 1.249 . S
C579 O577 1.267 . S
Dy580 O584 2.398 . S
Dy580 O585 2.491 . S
Dy580 O586 2.403 . S
Dy580 O587 2.664 . S
Dy580 O591 2.326 . S
Dy580 O595 2.310 . S
Dy580 O596 2.351 . S
C581 O592 1.185 . S
C581 O593 1.355 . S
C582 O584 1.185 . S
C582 O585 1.355 . S
Dy583 O587 2.310 . S
Dy583 O590 2.351 . S
Dy583 O592 2.398 . S
Dy583 O593 2.491 . S
Dy583 O594 2.403 . S
Dy583 O595 2.664 . S
Dy583 O597 2.326 . S
O584 Dy580 2.398 . S
O584 C582 1.185 . S
O585 Dy580 2.491 . S
O585 C582 1.355 . S
O586 Dy580 2.403 . S
O586 C588 1.254 . S
O587 Dy580 2.664 . S
O587 Dy583 2.310 . S
O587 C588 1.268 . S
C588 O586 1.254 . S
C588 O587 1.268 . S
C589 O594 1.254 . S
C589 O595 1.268 . S
O590 Dy583 2.351 . S
O590 C598 1.249 . S
O591 Dy580 2.326 . S
O591 C598 1.267 . S
O592 C581 1.185 . S
O592 Dy583 2.398 . S
O593 C581 1.355 . S
O593 Dy583 2.491 . S
O594 Dy583 2.403 . S
O594 C589 1.254 . S
O595 Dy580 2.310 . S
O595 Dy583 2.664 . S
O595 C589 1.268 . S
O596 Dy580 2.351 . S
O596 C599 1.249 . S
O597 Dy583 2.326 . S
O597 C599 1.267 . S
C598 O590 1.249 . S
C598 O591 1.267 . S
C599 O596 1.249 . S
C599 O597 1.267 . S
Dy600 O604 2.398 . S
Dy600 O605 2.491 . S
Dy600 O606 2.403 . S
Dy600 O607 2.664 . S
Dy600 O611 2.326 . S
Dy600 O615 2.310 . S
Dy600 O616 2.351 . S
C601 O612 1.185 . S
C601 O613 1.355 . S
C602 O604 1.185 . S
C602 O605 1.355 . S
Dy603 O607 2.310 . S
Dy603 O610 2.351 . S
Dy603 O612 2.398 . S
Dy603 O613 2.491 . S
Dy603 O614 2.403 . S
Dy603 O615 2.664 . S
Dy603 O617 2.326 . S
O604 Dy600 2.398 . S
O604 C602 1.185 . S
O605 Dy600 2.491 . S
O605 C602 1.355 . S
O606 Dy600 2.403 . S
O606 C608 1.254 . S
O607 Dy600 2.664 . S
O607 Dy603 2.310 . S
O607 C608 1.268 . S
C608 O606 1.254 . S
C608 O607 1.268 . S
C609 O614 1.254 . S
C609 O615 1.268 . S
O610 Dy603 2.351 . S
O610 C618 1.249 . S
O611 Dy600 2.326 . S
O611 C618 1.267 . S
O612 C601 1.185 . S
O612 Dy603 2.398 . S
O613 C601 1.355 . S
O613 Dy603 2.491 . S
O614 Dy603 2.403 . S
O614 C609 1.254 . S
O615 Dy600 2.310 . S
O615 Dy603 2.664 . S
O615 C609 1.268 . S
O616 Dy600 2.351 . S
O616 C619 1.249 . S
O617 Dy603 2.326 . S
O617 C619 1.267 . S
C618 O610 1.249 . S
C618 O611 1.267 . S
C619 O616 1.249 . S
C619 O617 1.267 . S
Dy620 O624 2.398 . S
Dy620 O625 2.491 . S
Dy620 O626 2.403 . S
Dy620 O627 2.664 . S
Dy620 O631 2.326 . S
Dy620 O635 2.310 . S
Dy620 O636 2.351 . S
C621 O632 1.185 . S
C621 O633 1.355 . S
C622 O624 1.185 . S
C622 O625 1.355 . S
Dy623 O627 2.310 . S
Dy623 O630 2.351 . S
Dy623 O632 2.398 1_655 S
Dy623 O633 2.491 1_655 S
Dy623 O634 2.403 1_655 S
Dy623 O635 2.664 . S
Dy623 O637 2.326 1_655 S
O624 Dy620 2.398 . S
O624 C622 1.185 . S
O625 Dy620 2.491 . S
O625 C622 1.355 . S
O626 Dy620 2.403 . S
O626 C628 1.254 . S
O627 Dy620 2.664 . S
O627 Dy623 2.310 . S
O627 C628 1.268 . S
C628 O626 1.254 . S
C628 O627 1.268 . S
C629 O634 1.254 1_655 S
C629 O635 1.268 . S
O630 Dy623 2.351 . S
O630 C638 1.249 . S
O631 Dy620 2.326 . S
O631 C638 1.267 . S
O632 C621 1.185 . S
O632 Dy623 2.398 1_455 S
O633 C621 1.355 . S
O633 Dy623 2.491 1_455 S
O634 Dy623 2.403 1_455 S
O634 C629 1.254 1_455 S
O635 Dy620 2.310 . S
O635 Dy623 2.664 . S
O635 C629 1.268 . S
O636 Dy620 2.351 . S
O636 C639 1.249 . S
O637 Dy623 2.326 1_455 S
O637 C639 1.267 1_455 S
C638 O630 1.249 . S
C638 O631 1.267 . S
C639 O636 1.249 . S
C639 O637 1.267 1_655 S
Dy640 O644 2.398 . S
Dy640 O645 2.491 . S
Dy640 O646 2.403 . S
Dy640 O647 2.664 . S
Dy640 O651 2.326 . S
Dy640 O655 2.310 . S
Dy640 O656 2.351 . S
C641 O652 1.185 . S
C641 O653 1.355 . S
C642 O644 1.185 . S
C642 O645 1.355 . S
Dy643 O647 2.310 . S
Dy643 O650 2.351 . S
Dy643 O652 2.398 . S
Dy643 O653 2.491 . S
Dy643 O654 2.403 . S
Dy643 O655 2.664 . S
Dy643 O657 2.326 . S
O644 Dy640 2.398 . S
O644 C642 1.185 . S
O645 Dy640 2.491 . S
O645 C642 1.355 . S
O646 Dy640 2.403 . S
O646 C648 1.254 . S
O647 Dy640 2.664 . S
O647 Dy643 2.310 . S
O647 C648 1.268 . S
C648 O646 1.254 . S
C648 O647 1.268 . S
C649 O654 1.254 . S
C649 O655 1.268 . S
O650 Dy643 2.351 . S
O650 C658 1.249 . S
O651 Dy640 2.326 . S
O651 C658 1.267 . S
O652 C641 1.185 . S
O652 Dy643 2.398 . S
O653 C641 1.355 . S
O653 Dy643 2.491 . S
O654 Dy643 2.403 . S
O654 C649 1.254 . S
O655 Dy640 2.310 . S
O655 Dy643 2.664 . S
O655 C649 1.268 . S
O656 Dy640 2.351 . S
O656 C659 1.249 . S
O657 Dy643 2.326 . S
O657 C659 1.267 . S
C658 O650 1.249 . S
C658 O651 1.267 . S
C659 O656 1.249 . S
C659 O657 1.267 . S
Dy660 O664 2.398 . S
Dy660 O665 2.491 . S
Dy660 O666 2.403 1_554 S
Dy660 O667 2.664 1_554 S
Dy660 O671 2.326 1_554 S
Dy660 O675 2.310 . S
Dy660 O676 2.351 . S
C661 O672 1.185 . S
C661 O673 1.355 . S
C662 O664 1.185 . S
C662 O665 1.355 . S
Dy663 O667 2.310 . S
Dy663 O670 2.351 . S
Dy663 O672 2.398 . S
Dy663 O673 2.491 . S
Dy663 O674 2.397 1_556 S
Dy663 O675 2.664 1_556 S
Dy663 O677 2.326 . S
O664 Dy660 2.398 . S
O664 C662 1.185 . S
O665 Dy660 2.491 . S
O665 C662 1.355 . S
O666 Dy660 2.403 1_556 S
O666 C668 1.254 . S
O667 Dy660 2.664 1_556 S
O667 Dy663 2.310 . S
O667 C668 1.268 . S
C668 O666 1.254 . S
C668 O667 1.268 . S
C669 O674 1.261 . S
C669 O675 1.268 . S
O670 Dy663 2.351 . S
O670 C678 1.249 . S
O671 Dy660 2.326 1_556 S
O671 C678 1.267 . S
O672 C661 1.185 . S
O672 Dy663 2.398 . S
O673 C661 1.355 . S
O673 Dy663 2.491 . S
O674 Dy663 2.397 1_554 S
O674 C669 1.261 . S
O675 Dy660 2.310 . S
O675 Dy663 2.664 1_554 S
O675 C669 1.268 . S
O676 Dy660 2.351 . S
O676 C679 1.249 . S
O677 Dy663 2.326 . S
O677 C679 1.267 1_556 S
C678 O670 1.249 . S
C678 O671 1.267 . S
C679 O676 1.249 . S
C679 O677 1.267 1_554 S
Dy680 O684 2.398 . S
Dy680 O685 2.491 . S
Dy680 O686 2.403 . S
Dy680 O687 2.664 . S
Dy680 O691 2.326 . S
Dy680 O695 2.310 . S
Dy680 O696 2.351 . S
C681 O692 1.185 . S
C681 O693 1.355 . S
C682 O684 1.185 . S
C682 O685 1.355 . S
Dy683 O687 2.310 . S
Dy683 O690 2.351 . S
Dy683 O692 2.398 . S
Dy683 O693 2.491 . S
Dy683 O694 2.403 . S
Dy683 O695 2.664 . S
Dy683 O697 2.326 . S
O684 Dy680 2.398 . S
O684 C682 1.185 . S
O685 Dy680 2.491 . S
O685 C682 1.355 . S
O686 Dy680 2.403 . S
O686 C688 1.254 . S
O687 Dy680 2.664 . S
O687 Dy683 2.310 . S
O687 C688 1.268 . S
C688 O686 1.254 . S
C688 O687 1.268 . S
C689 O694 1.254 . S
C689 O695 1.268 . S
O690 Dy683 2.351 . S
O690 C698 1.249 . S
O691 Dy680 2.326 . S
O691 C698 1.267 . S
O692 C681 1.185 . S
O692 Dy683 2.398 . S
O693 C681 1.355 . S
O693 Dy683 2.491 . S
O694 Dy683 2.403 . S
O694 C689 1.254 . S
O695 Dy680 2.310 . S
O695 Dy683 2.664 . S
O695 C689 1.268 . S
O696 Dy680 2.351 . S
O696 C699 1.249 . S
O697 Dy683 2.326 . S
O697 C699 1.267 . S
C698 O690 1.249 . S
C698 O691 1.267 . S
C699 O696 1.249 . S
C699 O697 1.267 . S
Dy700 O704 2.398 . S
Dy700 O705 2.491 . S
Dy700 O706 2.403 . S
Dy700 O707 2.664 . S
Dy700 O711 2.326 . S
Dy700 O715 2.310 . S
Dy700 O716 2.351 . S
C701 O712 1.185 . S
C701 O713 1.355 . S
C702 O704 1.185 . S
C702 O705 1.355 . S
Dy703 O707 2.310 . S
Dy703 O710 2.351 . S
Dy703 O712 2.398 . S
Dy703 O713 2.491 . S
Dy703 O714 2.403 . S
Dy703 O715 2.664 . S
Dy703 O717 2.326 . S
O704 Dy700 2.398 . S
O704 C702 1.185 . S
O705 Dy700 2.491 . S
O705 C702 1.355 . S
O706 Dy700 2.403 . S
O706 C708 1.254 . S
O707 Dy700 2.664 . S
O707 Dy703 2.310 . S
O707 C708 1.268 . S
C708 O706 1.254 . S
C708 O707 1.268 . S
C709 O714 1.254 . S
C709 O715 1.268 . S
O710 Dy703 2.351 . S
O710 C718 1.249 . S
O711 Dy700 2.326 . S
O711 C718 1.267 . S
O712 C701 1.185 . S
O712 Dy703 2.398 . S
O713 C701 1.355 . S
O713 Dy703 2.491 . S
O714 Dy703 2.403 . S
O714 C709 1.254 . S
O715 Dy700 2.310 . S
O715 Dy703 2.664 . S
O715 C709 1.268 . S
O716 Dy700 2.351 . S
O716 C719 1.249 . S
O717 Dy703 2.326 . S
O717 C719 1.267 . S
C718 O710 1.249 . S
C718 O711 1.267 . S
C719 O716 1.249 . S
C719 O717 1.267 . S
Dy720 O724 2.398 . S
Dy720 O725 2.491 . S
Dy720 O726 2.403 . S
Dy720 O727 2.664 . S
Dy720 O731 2.326 . S
Dy720 O735 2.310 . S
Dy720 O736 2.351 . S
C721 O732 1.185 . S
C721 O733 1.355 . S
C722 O724 1.185 . S
C722 O725 1.355 . S
Dy723 O727 2.310 . S
Dy723 O730 2.351 . S
Dy723 O732 2.398 . S
Dy723 O733 2.491 . S
Dy723 O734 2.403 . S
Dy723 O735 2.664 . S
Dy723 O737 2.326 . S
O724 Dy720 2.398 . S
O724 C722 1.185 . S
O725 Dy720 2.491 . S
O725 C722 1.355 . S
O726 Dy720 2.403 . S
O726 C728 1.254 . S
O727 Dy720 2.664 . S
O727 Dy723 2.310 . S
O727 C728 1.268 . S
C728 O726 1.254 . S
C728 O727 1.268 . S
C729 O734 1.254 . S
C729 O735 1.268 . S
O730 Dy723 2.351 . S
O730 C738 1.249 . S
O731 Dy720 2.326 . S
O731 C738 1.267 . S
O732 C721 1.185 . S
O732 Dy723 2.398 . S
O733 C721 1.355 . S
O733 Dy723 2.491 . S
O734 Dy723 2.403 . S
O734 C729 1.254 . S
O735 Dy720 2.310 . S
O735 Dy723 2.664 . S
O735 C729 1.268 . S
O736 Dy720 2.351 . S
O736 C739 1.249 . S
O737 Dy723 2.326 . S
O737 C739 1.267 . S
C738 O730 1.249 . S
C738 O731 1.267 . S
C739 O736 1.249 . S
C739 O737 1.267 . S
Dy740 O744 2.398 . S
Dy740 O745 2.491 . S
Dy740 O746 2.403 . S
Dy740 O747 2.664 . S
Dy740 O751 2.326 . S
Dy740 O755 2.310 . S
Dy740 O756 2.351 . S
C741 O752 1.185 . S
C741 O753 1.355 . S
C742 O744 1.185 . S
C742 O745 1.355 . S
Dy743 O747 2.310 . S
Dy743 O750 2.351 . S
Dy743 O752 2.398 . S
Dy743 O753 2.491 . S
Dy743 O754 2.403 . S
Dy743 O755 2.664 . S
Dy743 O757 2.326 . S
O744 Dy740 2.398 . S
O744 C742 1.185 . S
O745 Dy740 2.491 . S
O745 C742 1.355 . S
O746 Dy740 2.403 . S
O746 C748 1.254 . S
O747 Dy740 2.664 . S
O747 Dy743 2.310 . S
O747 C748 1.268 . S
C748 O746 1.254 . S
C748 O747 1.268 . S
C749 O754 1.254 . S
C749 O755 1.268 . S
O750 Dy743 2.351 . S
O750 C758 1.249 . S
O751 Dy740 2.326 . S
O751 C758 1.267 . S
O752 C741 1.185 . S
O752 Dy743 2.398 . S
O753 C741 1.355 . S
O753 Dy743 2.491 . S
O754 Dy743 2.403 . S
O754 C749 1.254 . S
O755 Dy740 2.310 . S
O755 Dy743 2.664 . S
O755 C749 1.268 . S
O756 Dy740 2.351 . S
O756 C759 1.249 . S
O757 Dy743 2.326 . S
O757 C759 1.267 . S
C758 O750 1.249 . S
C758 O751 1.267 . S
C759 O756 1.249 . S
C759 O757 1.267 . S
Dy760 O764 2.398 . S
Dy760 O765 2.491 . S
Dy760 O766 2.403 . S
Dy760 O767 2.664 . S
Dy760 O771 2.326 . S
Dy760 O775 2.310 . S
Dy760 O776 2.351 . S
C761 O772 1.185 . S
C761 O773 1.355 . S
C762 O764 1.185 . S
C762 O765 1.355 . S
Dy763 O767 2.310 . S
Dy763 O770 2.351 . S
Dy763 O772 2.398 . S
Dy763 O773 2.491 . S
Dy763 O774 2.403 . S
Dy763 O775 2.664 . S
Dy763 O777 2.326 . S
O764 Dy760 2.398 . S
O764 C762 1.185 . S
O765 Dy760 2.491 . S
O765 C762 1.355 . S
O766 Dy760 2.403 . S
O766 C768 1.254 . S
O767 Dy760 2.664 . S
O767 Dy763 2.310 . S
O767 C768 1.268 . S
C768 O766 1.254 . S
C768 O767 1.268 . S
C769 O774 1.254 . S
C769 O775 1.268 . S
O770 Dy763 2.351 . S
O770 C778 1.249 . S
O771 Dy760 2.326 . S
O771 C778 1.267 . S
O772 C761 1.185 . S
O772 Dy763 2.398 . S
O773 C761 1.355 . S
O773 Dy763 2.491 . S
O774 Dy763 2.403 . S
O774 C769 1.254 . S
O775 Dy760 2.310 . S
O775 Dy763 2.664 . S
O775 C769 1.268 . S
O776 Dy760 2.351 . S
O776 C779 1.249 . S
O777 Dy763 2.326 . S
O777 C779 1.267 . S
C778 O770 1.249 . S
C778 O771 1.267 . S
C779 O776 1.249 . S
C779 O777 1.267 . S
Dy780 O784 2.398 . S
Dy780 O785 2.491 . S
Dy780 O786 2.403 . S
Dy780 O787 2.664 . S
Dy780 O791 2.326 . S
Dy780 O795 2.310 . S
Dy780 O796 2.351 . S
C781 O792 1.185 . S
C781 O793 1.355 . S
C782 O784 1.185 . S
C782 O785 1.355 . S
Dy783 O787 2.310 . S
Dy783 O790 2.351 . S
Dy783 O792 2.398 . S
Dy783 O793 2.491 . S
Dy783 O794 2.403 . S
Dy783 O795 2.664 . S
Dy783 O797 2.326 . S
O784 Dy780 2.398 . S
O784 C782 1.185 . S
O785 Dy780 2.491 . S
O785 C782 1.355 . S
O786 Dy780 2.403 . S
O786 C788 1.254 . S
O787 Dy780 2.664 . S
O787 Dy783 2.310 . S
O787 C788 1.268 . S
C788 O786 1.254 . S
C788 O787 1.268 . S
C789 O794 1.254 . S
C789 O795 1.268 . S
O790 Dy783 2.351 . S
O790 C798 1.249 . S
O791 Dy780 2.326 . S
O791 C798 1.267 . S
O792 C781 1.185 . S
O792 Dy783 2.398 . S
O793 C781 1.355 . S
O793 Dy783 2.491 . S
O794 Dy783 2.403 . S
O794 C789 1.254 . S
O795 Dy780 2.310 . S
O795 Dy783 2.664 . S
O795 C789 1.268 . S
O796 Dy780 2.351 . S
O796 C799 1.249 . S
O797 Dy783 2.326 . S
O797 C799 1.267 . S
C798 O790 1.249 . S
C798 O791 1.267 . S
C799 O796 1.249 . S
C799 O797 1.267 . S
Dy800 O804 2.398 1_455 S
Dy800 O805 2.491 1_455 S
Dy800 O806 2.403 1_455 S
Dy800 O807 2.664 . S
Dy800 O811 2.326 1_455 S
Dy800 O815 2.310 . S
Dy800 O816 2.351 . S
C801 O812 1.185 . S
C801 O813 1.355 . S
C802 O804 1.185 . S
C802 O805 1.355 . S
Dy803 O807 2.310 . S
Dy803 O810 2.351 . S
Dy803 O812 2.398 . S
Dy803 O813 2.491 . S
Dy803 O814 2.403 . S
Dy803 O815 2.664 . S
Dy803 O817 2.326 . S
O804 Dy800 2.398 1_655 S
O804 C802 1.185 . S
O805 Dy800 2.491 1_655 S
O805 C802 1.355 . S
O806 Dy800 2.403 1_655 S
O806 C808 1.254 1_655 S
O807 Dy800 2.664 . S
O807 Dy803 2.310 . S
O807 C808 1.268 . S
C808 O806 1.254 1_455 S
C808 O807 1.268 . S
C809 O814 1.254 . S
C809 O815 1.268 . S
O810 Dy803 2.351 . S
O810 C818 1.249 . S
O811 Dy800 2.326 1_655 S
O811 C818 1.267 1_655 S
O812 C801 1.185 . S
O812 Dy803 2.398 . S
O813 C801 1.355 . S
O813 Dy803 2.491 . S
O814 Dy803 2.403 . S
O814 C809 1.254 . S
O815 Dy800 2.310 . S
O815 Dy803 2.664 . S
O815 C809 1.268 . S
O816 Dy800 2.351 . S
O816 C819 1.249 . S
O817 Dy803 2.326 . S
O817 C819 1.267 . S
C818 O810 1.249 . S
C818 O811 1.267 1_455 S
C819 O816 1.249 . S
C819 O817 1.267 . S
Dy820 O824 2.398 . S
Dy820 O825 2.491 . S
Dy820 O826 2.403 . S
Dy820 O827 2.664 . S
Dy820 O831 2.326 . S
Dy820 O835 2.310 . S
Dy820 O836 2.351 . S
C821 O832 1.185 . S
C821 O833 1.355 . S
C822 O824 1.185 . S
C822 O825 1.355 . S
Dy823 O827 2.310 . S
Dy823 O830 2.351 . S
Dy823 O832 2.398 . S
Dy823 O833 2.491 . S
Dy823 O834 2.403 . S
Dy823 O835 2.664 . S
Dy823 O837 2.326 . S
O824 Dy820 2.398 . S
O824 C822 1.185 . S
O825 Dy820 2.491 . S
O825 C822 1.355 . S
O826 Dy820 2.403 . S
O826 C828 1.254 . S
O827 Dy820 2.664 . S
O827 Dy823 2.310 . S
O827 C828 1.268 . S
C828 O826 1.254 . S
C828 O827 1.268 . S
C829 O834 1.254 . S
C829 O835 1.268 . S
O830 Dy823 2.351 . S
O830 C838 1.249 . S
O831 Dy820 2.326 . S
O831 C838 1.267 . S
O832 C821 1.185 . S
O832 Dy823 2.398 . S
O833 C821 1.355 . S
O833 Dy823 2.491 . S
O834 Dy823 2.403 . S
O834 C829 1.254 . S
O835 Dy820 2.310 . S
O835 Dy823 2.664 . S
O835 C829 1.268 . S
O836 Dy820 2.351 . S
O836 C839 1.249 . S
O837 Dy823 2.326 . S
O837 C839 1.267 . S
C838 O830 1.249 . S
C838 O831 1.267 . S
C839 O836 1.249 . S
C839 O837 1.267 . S
Dy840 O844 2.398 . S
Dy840 O845 2.491 . S
Dy840 O846 2.397 1_554 S
Dy840 O847 2.664 1_554 S
Dy840 O851 2.326 . S
Dy840 O855 2.310 . S
Dy840 O856 2.351 . S
C841 O852 1.185 . S
C841 O853 1.355 . S
C842 O844 1.185 . S
C842 O845 1.355 . S
Dy843 O847 2.310 . S
Dy843 O850 2.351 . S
Dy843 O852 2.398 . S
Dy843 O853 2.491 . S
Dy843 O854 2.403 1_556 S
Dy843 O855 2.664 1_556 S
Dy843 O857 2.326 1_556 S
O844 Dy840 2.398 . S
O844 C842 1.185 . S
O845 Dy840 2.491 . S
O845 C842 1.355 . S
O846 Dy840 2.397 1_556 S
O846 C848 1.261 . S
O847 Dy840 2.664 1_556 S
O847 Dy843 2.310 . S
O847 C848 1.268 . S
C848 O846 1.261 . S
C848 O847 1.268 . S
C849 O854 1.254 . S
C849 O855 1.268 . S
O850 Dy843 2.351 . S
O850 C858 1.249 . S
O851 Dy840 2.326 . S
O851 C858 1.267 1_554 S
O852 C841 1.185 . S
O852 Dy843 2.398 . S
O853 C841 1.355 . S
O853 Dy843 2.491 . S
O854 Dy843 2.403 1_554 S
O854 C849 1.254 . S
O855 Dy840 2.310 . S
O855 Dy843 2.664 1_554 S
O855 C849 1.268 . S
O856 Dy840 2.351 . S
O856 C859 1.249 . S
O857 Dy843 2.326 1_554 S
O857 C859 1.267 . S
C858 O850 1.249 . S
C858 O851 1.267 1_556 S
C859 O856 1.249 . S
C859 O857 1.267 . S
Dy860 O864 2.398 . S
Dy860 O865 2.491 . S
Dy860 O866 2.403 . S
Dy860 O867 2.664 . S
Dy860 O871 2.326 . S
Dy860 O875 2.310 . S
Dy860 O876 2.351 . S
C861 O872 1.185 . S
C861 O873 1.355 . S
C862 O864 1.185 . S
C862 O865 1.355 . S
Dy863 O867 2.310 . S
Dy863 O870 2.351 . S
Dy863 O872 2.398 . S
Dy863 O873 2.491 . S
Dy863 O874 2.403 . S
Dy863 O875 2.664 . S
Dy863 O877 2.326 . S
O864 Dy860 2.398 . S
O864 C862 1.185 . S
O865 Dy860 2.491 . S
O865 C862 1.355 . S
O866 Dy860 2.403 . S
O866 C868 1.254 . S
O867 Dy860 2.664 . S
O867 Dy863 2.310 . S
O867 C868 1.268 . S
C868 O866 1.254 . S
C868 O867 1.268 . S
C869 O874 1.254 . S
C869 O875 1.268 . S
O870 Dy863 2.351 . S
O870 C878 1.249 . S
O871 Dy860 2.326 . S
O871 C878 1.267 . S
O872 C861 1.185 . S
O872 Dy863 2.398 . S
O873 C861 1.355 . S
O873 Dy863 2.491 . S
O874 Dy863 2.403 . S
O874 C869 1.254 . S
O875 Dy860 2.310 . S
O875 Dy863 2.664 . S
O875 C869 1.268 . S
O876 Dy860 2.351 . S
O876 C879 1.249 . S
O877 Dy863 2.326 . S
O877 C879 1.267 . S
C878 O870 1.249 . S
C878 O871 1.267 . S
C879 O876 1.249 . S
C879 O877 1.267 . S
Dy880 O884 2.398 . S
Dy880 O885 2.491 . S
Dy880 O886 2.403 . S
Dy880 O887 2.664 . S
Dy880 O891 2.326 . S
Dy880 O895 2.310 . S
Dy880 O896 2.351 . S
C881 O892 1.185 . S
C881 O893 1.355 . S
C882 O884 1.185 . S
C882 O885 1.355 . S
Dy883 O887 2.310 . S
Dy883 O890 2.351 . S
Dy883 O892 2.398 . S
Dy883 O893 2.491 . S
Dy883 O894 2.403 . S
Dy883 O895 2.664 . S
Dy883 O897 2.326 . S
O884 Dy880 2.398 . S
O884 C882 1.185 . S
O885 Dy880 2.491 . S
O885 C882 1.355 . S
O886 Dy880 2.403 . S
O886 C888 1.254 . S
O887 Dy880 2.664 . S
O887 Dy883 2.310 . S
O887 C888 1.268 . S
C888 O886 1.254 . S
C888 O887 1.268 . S
C889 O894 1.254 . S
C889 O895 1.268 . S
O890 Dy883 2.351 . S
O890 C898 1.249 . S
O891 Dy880 2.326 . S
O891 C898 1.267 . S
O892 C881 1.185 . S
O892 Dy883 2.398 . S
O893 C881 1.355 . S
O893 Dy883 2.491 . S
O894 Dy883 2.403 . S
O894 C889 1.254 . S
O895 Dy880 2.310 . S
O895 Dy883 2.664 . S
O895 C889 1.268 . S
O896 Dy880 2.351 . S
O896 C899 1.249 . S
O897 Dy883 2.326 . S
O897 C899 1.267 . S
C898 O890 1.249 . S
C898 O891 1.267 . S
C899 O896 1.249 . S
C899 O897 1.267 . S
Dy900 O904 2.398 . S
Dy900 O905 2.491 . S
Dy900 O906 2.403 . S
Dy900 O907 2.664 . S
Dy900 O911 2.326 . S
Dy900 O915 2.310 . S
Dy900 O916 2.351 . S
C901 O912 1.185 . S
C901 O913 1.355 . S
C902 O904 1.185 . S
C902 O905 1.355 . S
Dy903 O907 2.310 . S
Dy903 O910 2.351 . S
Dy903 O912 2.398 . S
Dy903 O913 2.491 . S
Dy903 O914 2.403 . S
Dy903 O915 2.664 . S
Dy903 O917 2.326 . S
O904 Dy900 2.398 . S
O904 C902 1.185 . S
O905 Dy900 2.491 . S
O905 C902 1.355 . S
O906 Dy900 2.403 . S
O906 C908 1.254 . S
O907 Dy900 2.664 . S
O907 Dy903 2.310 . S
O907 C908 1.268 . S
C908 O906 1.254 . S
C908 O907 1.268 . S
C909 O914 1.254 . S
C909 O915 1.268 . S
O910 Dy903 2.351 . S
O910 C918 1.249 . S
O911 Dy900 2.326 . S
O911 C918 1.267 . S
O912 C901 1.185 . S
O912 Dy903 2.398 . S
O913 C901 1.355 . S
O913 Dy903 2.491 . S
O914 Dy903 2.403 . S
O914 C909 1.254 . S
O915 Dy900 2.310 . S
O915 Dy903 2.664 . S
O915 C909 1.268 . S
O916 Dy900 2.351 . S
O916 C919 1.249 . S
O917 Dy903 2.326 . S
O917 C919 1.267 . S
C918 O910 1.249 . S
C918 O911 1.267 . S
C919 O916 1.249 . S
C919 O917 1.267 . S
Dy920 O924 2.398 . S
Dy920 O925 2.491 . S
Dy920 O926 2.403 . S
Dy920 O927 2.664 . S
Dy920 O931 2.326 . S
Dy920 O935 2.310 . S
Dy920 O936 2.351 . S
C921 O932 1.185 . S
C921 O933 1.355 . S
C922 O924 1.185 . S
C922 O925 1.355 . S
Dy923 O927 2.310 . S
Dy923 O930 2.351 . S
Dy923 O932 2.398 . S
Dy923 O933 2.491 . S
Dy923 O934 2.403 . S
Dy923 O935 2.664 . S
Dy923 O937 2.326 . S
O924 Dy920 2.398 . S
O924 C922 1.185 . S
O925 Dy920 2.491 . S
O925 C922 1.355 . S
O926 Dy920 2.403 . S
O926 C928 1.254 . S
O927 Dy920 2.664 . S
O927 Dy923 2.310 . S
O927 C928 1.268 . S
C928 O926 1.254 . S
C928 O927 1.268 . S
C929 O934 1.254 . S
C929 O935 1.268 . S
O930 Dy923 2.351 . S
O930 C938 1.249 . S
O931 Dy920 2.326 . S
O931 C938 1.267 . S
O932 C921 1.185 . S
O932 Dy923 2.398 . S
O933 C921 1.355 . S
O933 Dy923 2.491 . S
O934 Dy923 2.403 . S
O934 C929 1.254 . S
O935 Dy920 2.310 . S
O935 Dy923 2.664 . S
O935 C929 1.268 . S
O936 Dy920 2.351 . S
O936 C939 1.249 . S
O937 Dy923 2.326 . S
O937 C939 1.267 . S
C938 O930 1.249 . S
C938 O931 1.267 . S
C939 O936 1.249 . S
C939 O937 1.267 . S
Dy940 O944 2.398 . S
Dy940 O945 2.491 . S
Dy940 O946 2.403 . S
Dy940 O947 2.664 . S
Dy940 O951 2.326 . S
Dy940 O955 2.310 . S
Dy940 O956 2.351 . S
C941 O952 1.185 . S
C941 O953 1.355 . S
C942 O944 1.185 . S
C942 O945 1.355 . S
Dy943 O947 2.310 . S
Dy943 O950 2.351 . S
Dy943 O952 2.398 . S
Dy943 O953 2.491 . S
Dy943 O954 2.403 . S
Dy943 O955 2.664 . S
Dy943 O957 2.326 . S
O944 Dy940 2.398 . S
O944 C942 1.185 . S
O945 Dy940 2.491 . S
O945 C942 1.355 . S
O946 Dy940 2.403 . S
O946 C948 1.254 . S
O947 Dy940 2.664 . S
O947 Dy943 2.310 . S
O947 C948 1.268 . S
C948 O946 1.254 . S
C948 O947 1.268 . S
C949 O954 1.254 . S
C949 O955 1.268 . S
O950 Dy943 2.351 . S
O950 C958 1.249 . S
O951 Dy940 2.326 . S
O951 C958 1.267 . S
O952 C941 1.185 . S
O952 Dy943 2.398 . S
O953 C941 1.355 . S
O953 Dy943 2.491 . S
O954 Dy943 2.403 . S
O954 C949 1.254 . S
O955 Dy940 2.310 . S
O955 Dy943 2.664 . S
O955 C949 1.268 . S
O956 Dy940 2.351 . S
O956 C959 1.249 . S
O957 Dy943 2.326 . S
O957 C959 1.267 . S
C958 O950 1.249 . S
C958 O951 1.267 . S
C959 O956 1.249 . S
C959 O957 1.267 . S
C960 C961 1.369 1_455 S
C960 C962 1.419 . S
C960 H964 0.930 . S
C961 C960 1.369 1_655 S
C961 C970 1.429 . S
C962 C960 1.419 . S
C962 C963 1.363 1_455 S
C962 H965 0.929 . S
C963 C962 1.363 1_655 S
C963 C969 1.428 . S
H964 C960 0.930 . S
H965 C962 0.929 . S
S966 N967 1.613 . S
S966 N968 1.610 . S
N967 S966 1.613 . S
N967 C970 1.350 . S
N968 S966 1.610 . S
N968 C969 1.351 . S
C969 C963 1.428 . S
C969 N968 1.351 . S
C969 C970 1.434 . S
C970 C961 1.429 . S
C970 N967 1.350 . S
C970 C969 1.434 . S
C971 C972 1.369 . S
C971 C973 1.419 . S
C971 H975 0.930 . S
C972 C971 1.369 . S
C972 C981 1.429 . S
C973 C971 1.419 . S
C973 C974 1.363 . S
C973 H976 0.929 . S
C974 C973 1.363 . S
C974 C980 1.428 . S
H975 C971 0.930 . S
H976 C973 0.929 . S
S977 N978 1.613 . S
S977 N979 1.610 . S
N978 S977 1.613 . S
N978 C981 1.350 . S
N979 S977 1.610 . S
N979 C980 1.351 . S
C980 C974 1.428 . S
C980 N979 1.351 . S
C980 C981 1.434 . S
C981 C972 1.429 . S
C981 N978 1.350 . S
C981 C980 1.434 . S
C982 C983 1.369 . S
C982 C984 1.419 . S
C982 H986 0.930 . S
C983 C982 1.369 . S
C983 C992 1.429 . S
C984 C982 1.419 . S
C984 C985 1.363 . S
C984 H987 0.929 . S
C985 C984 1.363 . S
C985 C991 1.428 . S
H986 C982 0.930 . S
H987 C984 0.929 . S
S988 N989 1.613 . S
S988 N990 1.610 . S
N989 S988 1.613 . S
N989 C992 1.350 . S
N990 S988 1.610 . S
N990 C991 1.351 . S
C991 C985 1.428 . S
C991 N990 1.351 . S
C991 C992 1.434 . S
C992 C983 1.429 . S
C992 N989 1.350 . S
C992 C991 1.434 . S
C993 C994 1.369 . S
C993 C995 1.419 1_554 S
C993 H997 0.930 1_554 S
C994 C993 1.369 . S
C994 C1003 1.429 . S
C995 C993 1.419 1_556 S
C995 C996 1.363 1_556 S
C995 H998 0.929 . S
C996 C995 1.363 1_554 S
C996 C1002 1.428 . S
H997 C993 0.930 1_556 S
H998 C995 0.929 . S
S999 N1000 1.613 . S
S999 N1001 1.610 . S
N1000 S999 1.613 . S
N1000 C1003 1.350 . S
N1001 S999 1.610 . S
N1001 C1002 1.351 . S
C1002 C996 1.428 . S
C1002 N1001 1.351 . S
C1002 C1003 1.434 . S
C1003 C994 1.429 . S
C1003 N1000 1.350 . S
C1003 C1002 1.434 . S
C1004 C1005 1.368 . S
C1004 C1006 1.418 . S
C1004 H1008 0.931 1_545 S
C1005 C1004 1.368 . S
C1005 C1014 1.429 . S
C1006 C1004 1.418 . S
C1006 C1007 1.382 . S
C1006 H1009 0.910 1_545 S
C1007 C1006 1.382 . S
C1007 C1013 1.428 . S
H1008 C1004 0.931 1_565 S
H1009 C1006 0.910 1_565 S
S1010 N1011 1.613 . S
S1010 N1012 1.610 . S
N1011 S1010 1.613 . S
N1011 C1014 1.350 . S
N1012 S1010 1.610 . S
N1012 C1013 1.351 . S
C1013 C1007 1.428 . S
C1013 N1012 1.351 . S
C1013 C1014 1.434 . S
C1014 C1005 1.429 . S
C1014 N1011 1.350 . S
C1014 C1013 1.434 . S
C1015 C1016 1.369 . S
C1015 C1017 1.419 . S
C1015 H1019 0.930 . S
C1016 C1015 1.369 . S
C1016 C1025 1.429 . S
C1017 C1015 1.419 . S
C1017 C1018 1.363 . S
C1017 H1020 0.929 . S
C1018 C1017 1.363 . S
C1018 C1024 1.428 . S
H1019 C1015 0.930 . S
H1020 C1017 0.929 . S
S1021 N1022 1.613 . S
S1021 N1023 1.610 . S
N1022 S1021 1.613 . S
N1022 C1025 1.350 1_565 S
N1023 S1021 1.610 . S
N1023 C1024 1.351 1_565 S
C1024 C1018 1.428 . S
C1024 N1023 1.351 1_545 S
C1024 C1025 1.434 . S
C1025 C1016 1.429 . S
C1025 N1022 1.350 1_545 S
C1025 C1024 1.434 . S
C1026 C1027 1.369 . S
C1026 C1028 1.419 1_554 S
C1026 H1030 0.930 . S
C1027 C1026 1.369 . S
C1027 C1036 1.429 1_544 S
C1028 C1026 1.419 1_556 S
C1028 C1029 1.363 . S
C1028 H1031 0.929 . S
C1029 C1028 1.363 . S
C1029 C1035 1.428 1_545 S
H1030 C1026 0.930 . S
H1031 C1028 0.929 . S
S1032 N1033 1.613 1_556 S
S1032 N1034 1.610 . S
N1033 S1032 1.613 1_554 S
N1033 C1036 1.350 1_554 S
N1034 S1032 1.610 . S
N1034 C1035 1.351 . S
C1035 C1029 1.428 1_565 S
C1035 N1034 1.351 . S
C1035 C1036 1.434 . S
C1036 C1027 1.429 1_566 S
C1036 N1033 1.350 1_556 S
C1036 C1035 1.434 . S
C1037 C1038 1.369 1_565 S
C1037 C1039 1.419 . S
C1037 H1041 0.930 . S
C1038 C1037 1.369 1_545 S
C1038 C1047 1.429 . S
C1039 C1037 1.419 . S
C1039 C1040 1.363 1_565 S
C1039 H1042 0.929 . S
C1040 C1039 1.363 1_545 S
C1040 C1046 1.428 . S
H1041 C1037 0.930 . S
H1042 C1039 0.929 . S
S1043 N1044 1.613 . S
S1043 N1045 1.610 . S
N1044 S1043 1.613 . S
N1044 C1047 1.350 . S
N1045 S1043 1.610 . S
N1045 C1046 1.351 . S
C1046 C1040 1.428 . S
C1046 N1045 1.351 . S
C1046 C1047 1.434 . S
C1047 C1038 1.429 . S
C1047 N1044 1.350 . S
C1047 C1046 1.434 . S
C1048 C1049 1.369 . S
C1048 C1050 1.419 . S
C1048 H1052 0.931 1_554 S
C1049 C1048 1.369 . S
C1049 C1058 1.429 . S
C1050 C1048 1.419 . S
C1050 C1051 1.363 . S
C1050 H1053 0.929 . S
C1051 C1050 1.363 . S
C1051 C1057 1.428 . S
H1052 C1048 0.931 1_556 S
H1053 C1050 0.929 . S
S1054 N1055 1.613 . S
S1054 N1056 1.610 . S
N1055 S1054 1.613 . S
N1055 C1058 1.350 . S
N1056 S1054 1.610 . S
N1056 C1057 1.351 . S
C1057 C1051 1.428 . S
C1057 N1056 1.351 . S
C1057 C1058 1.434 . S
C1058 C1049 1.429 . S
C1058 N1055 1.350 . S
C1058 C1057 1.434 . S
C1059 C1060 1.369 . S
C1059 C1061 1.419 . S
C1059 H1063 0.930 1_554 S
C1060 C1059 1.369 . S
C1060 C1069 1.429 . S
C1061 C1059 1.419 . S
C1061 C1062 1.363 1_655 S
C1061 H1064 0.929 1_654 S
C1062 C1061 1.363 1_455 S
C1062 C1068 1.428 1_455 S
H1063 C1059 0.930 1_556 S
H1064 C1061 0.929 1_456 S
S1065 N1066 1.613 . S
S1065 N1067 1.610 . S
N1066 S1065 1.613 . S
N1066 C1069 1.350 . S
N1067 S1065 1.610 . S
N1067 C1068 1.351 . S
C1068 C1062 1.428 1_655 S
C1068 N1067 1.351 . S
C1068 C1069 1.434 . S
C1069 C1060 1.429 . S
C1069 N1066 1.350 . S
C1069 C1068 1.434 . S
C1070 C1071 1.369 1_455 S
C1070 C1072 1.419 . S
C1070 H1074 0.930 . S
C1071 C1070 1.369 1_655 S
C1071 C1080 1.429 . S
C1072 C1070 1.419 . S
C1072 C1073 1.363 . S
C1072 H1075 0.929 . S
C1073 C1072 1.363 . S
C1073 C1079 1.428 1_455 S
H1074 C1070 0.930 . S
H1075 C1072 0.929 . S
S1076 N1077 1.613 . S
S1076 N1078 1.610 . S
N1077 S1076 1.613 . S
N1077 C1080 1.350 . S
N1078 S1076 1.610 . S
N1078 C1079 1.351 . S
C1079 C1073 1.428 1_655 S
C1079 N1078 1.351 . S
C1079 C1080 1.434 . S
C1080 C1071 1.429 . S
C1080 N1077 1.350 . S
C1080 C1079 1.434 . S
C1081 C1082 1.369 . S
C1081 C1083 1.419 . S
C1081 H1085 0.930 . S
C1082 C1081 1.369 . S
C1082 C1091 1.429 . S
C1083 C1081 1.419 . S
C1083 C1084 1.363 . S
C1083 H1086 0.929 . S
C1084 C1083 1.363 . S
C1084 C1090 1.428 . S
H1085 C1081 0.930 . S
H1086 C1083 0.929 . S
S1087 N1088 1.613 . S
S1087 N1089 1.610 . S
N1088 S1087 1.613 . S
N1088 C1091 1.350 . S
N1089 S1087 1.610 . S
N1089 C1090 1.351 . S
C1090 C1084 1.428 . S
C1090 N1089 1.351 . S
C1090 C1091 1.434 . S
C1091 C1082 1.429 . S
C1091 N1088 1.350 . S
C1091 C1090 1.434 . S
C1092 C1093 1.369 . S
C1092 C1094 1.419 1_655 S
C1092 H1096 0.930 . S
C1093 C1092 1.369 . S
C1093 C1102 1.429 . S
C1094 C1092 1.419 1_455 S
C1094 C1095 1.363 . S
C1094 H1097 0.929 . S
C1095 C1094 1.363 . S
C1095 C1101 1.428 . S
H1096 C1092 0.930 . S
H1097 C1094 0.929 . S
S1098 N1099 1.613 . S
S1098 N1100 1.610 1_655 S
N1099 S1098 1.613 . S
N1099 C1102 1.350 . S
N1100 S1098 1.610 1_455 S
N1100 C1101 1.351 . S
C1101 C1095 1.428 . S
C1101 N1100 1.351 . S
C1101 C1102 1.434 1_455 S
C1102 C1093 1.429 . S
C1102 N1099 1.350 . S
C1102 C1101 1.434 1_655 S
C1103 C1104 1.369 . S
C1103 C1105 1.419 . S
C1103 H1107 0.930 . S
C1104 C1103 1.369 . S
C1104 C1113 1.429 . S
C1105 C1103 1.419 . S
C1105 C1106 1.363 . S
C1105 H1108 0.929 . S
C1106 C1105 1.363 . S
C1106 C1112 1.428 . S
H1107 C1103 0.930 . S
H1108 C1105 0.929 . S
S1109 N1110 1.613 . S
S1109 N1111 1.610 . S
N1110 S1109 1.613 . S
N1110 C1113 1.350 . S
N1111 S1109 1.610 . S
N1111 C1112 1.351 . S
C1112 C1106 1.428 . S
C1112 N1111 1.351 . S
C1112 C1113 1.434 . S
C1113 C1104 1.429 . S
C1113 N1110 1.350 . S
C1113 C1112 1.434 . S
C1114 C1115 1.369 . S
C1114 C1116 1.419 . S
C1114 H1118 0.930 . S
C1115 C1114 1.369 . S
C1115 C1124 1.429 . S
C1116 C1114 1.419 . S
C1116 C1117 1.363 . S
C1116 H1119 0.929 . S
C1117 C1116 1.363 . S
C1117 C1123 1.428 . S
H1118 C1114 0.930 . S
H1119 C1116 0.929 . S
S1120 N1121 1.613 . S
S1120 N1122 1.610 . S
N1121 S1120 1.613 . S
N1121 C1124 1.350 . S
N1122 S1120 1.610 . S
N1122 C1123 1.351 . S
C1123 C1117 1.428 . S
C1123 N1122 1.351 . S
C1123 C1124 1.434 . S
C1124 C1115 1.429 . S
C1124 N1121 1.350 . S
C1124 C1123 1.434 . S
C1125 C1126 1.369 1_655 S
C1125 C1127 1.419 . S
C1125 H1129 0.930 . S
C1126 C1125 1.369 1_455 S
C1126 C1135 1.429 . S
C1127 C1125 1.419 . S
C1127 C1128 1.363 1_655 S
C1127 H1130 0.929 . S
C1128 C1127 1.363 1_455 S
C1128 C1134 1.428 . S
H1129 C1125 0.930 . S
H1130 C1127 0.929 . S
S1131 N1132 1.613 . S
S1131 N1133 1.610 . S
N1132 S1131 1.613 . S
N1132 C1135 1.350 . S
N1133 S1131 1.610 . S
N1133 C1134 1.351 . S
C1134 C1128 1.428 . S
C1134 N1133 1.351 . S
C1134 C1135 1.434 . S
C1135 C1126 1.429 . S
C1135 N1132 1.350 . S
C1135 C1134 1.434 . S
C1136 C1137 1.369 . S
C1136 C1138 1.419 . S
C1136 H1140 0.930 . S
C1137 C1136 1.369 . S
C1137 C1146 1.429 . S
C1138 C1136 1.419 . S
C1138 C1139 1.363 . S
C1138 H1141 0.929 . S
C1139 C1138 1.363 . S
C1139 C1145 1.428 . S
H1140 C1136 0.930 . S
H1141 C1138 0.929 . S
S1142 N1143 1.613 . S
S1142 N1144 1.610 . S
N1143 S1142 1.613 . S
N1143 C1146 1.350 . S
N1144 S1142 1.610 . S
N1144 C1145 1.351 . S
C1145 C1139 1.428 . S
C1145 N1144 1.351 . S
C1145 C1146 1.434 . S
C1146 C1137 1.429 . S
C1146 N1143 1.350 . S
C1146 C1145 1.434 . S
C1147 C1148 1.369 . S
C1147 C1149 1.419 . S
C1147 H1151 0.930 . S
C1148 C1147 1.369 . S
C1148 C1157 1.429 . S
C1149 C1147 1.419 . S
C1149 C1150 1.363 . S
C1149 H1152 0.929 . S
C1150 C1149 1.363 . S
C1150 C1156 1.428 . S
H1151 C1147 0.930 . S
H1152 C1149 0.929 . S
S1153 N1154 1.613 . S
S1153 N1155 1.610 . S
N1154 S1153 1.613 . S
N1154 C1157 1.350 . S
N1155 S1153 1.610 . S
N1155 C1156 1.351 . S
C1156 C1150 1.428 . S
C1156 N1155 1.351 . S
C1156 C1157 1.434 . S
C1157 C1148 1.429 . S
C1157 N1154 1.350 . S
C1157 C1156 1.434 . S
C1158 C1159 1.369 . S
C1158 C1160 1.419 . S
C1158 H1162 0.930 . S
C1159 C1158 1.369 . S
C1159 C1168 1.429 . S
C1160 C1158 1.419 . S
C1160 C1161 1.363 . S
C1160 H1163 0.929 . S
C1161 C1160 1.363 . S
C1161 C1167 1.428 . S
H1162 C1158 0.930 . S
H1163 C1160 0.929 . S
S1164 N1165 1.613 . S
S1164 N1166 1.610 . S
N1165 S1164 1.613 . S
N1165 C1168 1.350 . S
N1166 S1164 1.610 . S
N1166 C1167 1.351 . S
C1167 C1161 1.428 . S
C1167 N1166 1.351 . S
C1167 C1168 1.434 . S
C1168 C1159 1.429 . S
C1168 N1165 1.350 . S
C1168 C1167 1.434 . S
C1169 C1170 1.369 . S
C1169 C1171 1.419 . S
C1169 H1173 0.930 . S
C1170 C1169 1.369 . S
C1170 C1179 1.429 . S
C1171 C1169 1.419 . S
C1171 C1172 1.363 . S
C1171 H1174 0.929 . S
C1172 C1171 1.363 . S
C1172 C1178 1.428 . S
H1173 C1169 0.930 . S
H1174 C1171 0.929 . S
S1175 N1176 1.613 1_545 S
S1175 N1177 1.610 1_545 S
N1176 S1175 1.613 1_565 S
N1176 C1179 1.350 . S
N1177 S1175 1.610 1_565 S
N1177 C1178 1.351 . S
C1178 C1172 1.428 . S
C1178 N1177 1.351 . S
C1178 C1179 1.434 . S
C1179 C1170 1.429 . S
C1179 N1176 1.350 . S
C1179 C1178 1.434 . S
C1180 C1181 1.369 . S
C1180 C1182 1.419 . S
C1180 H1184 0.930 1_565 S
C1181 C1180 1.369 . S
C1181 C1190 1.429 . S
C1182 C1180 1.419 . S
C1182 C1183 1.363 . S
C1182 H1185 0.948 . S
C1183 C1182 1.363 . S
C1183 C1189 1.428 . S
H1184 C1180 0.930 1_545 S
H1185 C1182 0.948 . S
S1186 N1187 1.613 . S
S1186 N1188 1.610 . S
N1187 S1186 1.613 . S
N1187 C1190 1.350 . S
N1188 S1186 1.610 . S
N1188 C1189 1.351 . S
C1189 C1183 1.428 . S
C1189 N1188 1.351 . S
C1189 C1190 1.434 . S
C1190 C1181 1.429 . S
C1190 N1187 1.350 . S
C1190 C1189 1.434 . S
C1191 C1192 1.369 1_545 S
C1191 C1193 1.419 1_556 S
C1191 H1195 0.930 . S
C1192 C1191 1.369 1_565 S
C1192 C1201 1.429 . S
C1193 C1191 1.419 1_554 S
C1193 C1194 1.363 1_545 S
C1193 H1196 0.929 . S
C1194 C1193 1.363 1_565 S
C1194 C1200 1.428 . S
H1195 C1191 0.930 . S
H1196 C1193 0.929 . S
S1197 N1198 1.613 1_554 S
S1197 N1199 1.610 . S
N1198 S1197 1.613 1_556 S
N1198 C1201 1.350 . S
N1199 S1197 1.610 . S
N1199 C1200 1.351 . S
C1200 C1194 1.428 . S
C1200 N1199 1.351 . S
C1200 C1201 1.434 1_554 S
C1201 C1192 1.429 . S
C1201 N1198 1.350 . S
C1201 C1200 1.434 1_556 S
C1202 C1203 1.369 . S
C1202 C1204 1.419 . S
C1202 H1206 0.930 . S
C1203 C1202 1.369 . S
C1203 C1212 1.429 1_565 S
C1204 C1202 1.419 . S
C1204 C1205 1.363 . S
C1204 H1207 0.929 . S
C1205 C1204 1.363 . S
C1205 C1211 1.428 1_565 S
H1206 C1202 0.930 . S
H1207 C1204 0.929 . S
S1208 N1209 1.613 . S
S1208 N1210 1.610 . S
N1209 S1208 1.613 . S
N1209 C1212 1.350 . S
N1210 S1208 1.610 . S
N1210 C1211 1.351 . S
C1211 C1205 1.428 1_545 S
C1211 N1210 1.351 . S
C1211 C1212 1.434 . S
C1212 C1203 1.429 1_545 S
C1212 N1209 1.350 . S
C1212 C1211 1.434 . S
C1213 C1214 1.369 . S
C1213 C1215 1.419 . S
C1213 H1217 0.930 . S
C1214 C1213 1.369 . S
C1214 C1223 1.429 . S
C1215 C1213 1.419 . S
C1215 C1216 1.363 . S
C1215 H1218 0.929 . S
C1216 C1215 1.363 . S
C1216 C1222 1.428 . S
H1217 C1213 0.930 . S
H1218 C1215 0.929 . S
S1219 N1220 1.613 . S
S1219 N1221 1.610 . S
N1220 S1219 1.613 . S
N1220 C1223 1.350 . S
N1221 S1219 1.610 . S
N1221 C1222 1.351 . S
C1222 C1216 1.428 . S
C1222 N1221 1.351 . S
C1222 C1223 1.434 . S
C1223 C1214 1.429 . S
C1223 N1220 1.350 . S
C1223 C1222 1.434 . S
C1224 C1225 1.369 1_455 S
C1224 C1226 1.419 . S
C1224 H1228 0.930 1_455 S
C1225 C1224 1.369 1_655 S
C1225 C1234 1.429 1_656 S
C1226 C1224 1.419 . S
C1226 C1227 1.363 . S
C1226 H1229 0.929 . S
C1227 C1226 1.363 . S
C1227 C1233 1.428 1_556 S
H1228 C1224 0.930 1_655 S
H1229 C1226 0.929 . S
S1230 N1231 1.613 . S
S1230 N1232 1.610 . S
N1231 S1230 1.613 . S
N1231 C1234 1.350 . S
N1232 S1230 1.610 . S
N1232 C1233 1.351 . S
C1233 C1227 1.428 1_554 S
C1233 N1232 1.351 . S
C1233 C1234 1.434 . S
C1234 C1225 1.429 1_454 S
C1234 N1231 1.350 . S
C1234 C1233 1.434 . S
C1235 C1236 1.369 . S
C1235 C1237 1.419 . S
C1235 H1239 0.930 . S
C1236 C1235 1.369 . S
C1236 C1245 1.429 1_655 S
C1237 C1235 1.419 . S
C1237 C1238 1.363 1_655 S
C1237 H1240 0.929 . S
C1238 C1237 1.363 1_455 S
C1238 C1244 1.428 . S
H1239 C1235 0.930 . S
H1240 C1237 0.929 . S
S1241 N1242 1.613 . S
S1241 N1243 1.610 . S
N1242 S1241 1.613 . S
N1242 C1245 1.350 . S
N1243 S1241 1.610 . S
N1243 C1244 1.351 . S
C1244 C1238 1.428 . S
C1244 N1243 1.351 . S
C1244 C1245 1.434 . S
C1245 C1236 1.429 1_455 S
C1245 N1242 1.350 . S
C1245 C1244 1.434 . S
C1246 C1247 1.369 . S
C1246 C1248 1.419 . S
C1246 H1250 0.930 . S
C1247 C1246 1.369 . S
C1247 C1256 1.429 . S
C1248 C1246 1.419 . S
C1248 C1249 1.363 . S
C1248 H1251 0.929 . S
C1249 C1248 1.363 . S
C1249 C1255 1.428 . S
H1250 C1246 0.930 . S
H1251 C1248 0.929 . S
S1252 N1253 1.613 . S
S1252 N1254 1.610 . S
N1253 S1252 1.613 . S
N1253 C1256 1.350 . S
N1254 S1252 1.610 . S
N1254 C1255 1.351 . S
C1255 C1249 1.428 . S
C1255 N1254 1.351 . S
C1255 C1256 1.434 . S
C1256 C1247 1.429 . S
C1256 N1253 1.350 . S
C1256 C1255 1.434 . S
C1257 C1258 1.369 . S
C1257 C1259 1.419 1_655 S
C1257 H1261 0.930 . S
C1258 C1257 1.369 . S
C1258 C1267 1.429 . S
C1259 C1257 1.419 1_455 S
C1259 C1260 1.363 . S
C1259 H1262 0.929 . S
C1260 C1259 1.363 . S
C1260 C1266 1.428 . S
H1261 C1257 0.930 . S
H1262 C1259 0.929 . S
S1263 N1264 1.613 1_455 S
S1263 N1265 1.610 . S
N1264 S1263 1.613 1_655 S
N1264 C1267 1.350 . S
N1265 S1263 1.610 . S
N1265 C1266 1.351 . S
C1266 C1260 1.428 . S
C1266 N1265 1.351 . S
C1266 C1267 1.434 1_455 S
C1267 C1258 1.429 . S
C1267 N1264 1.350 . S
C1267 C1266 1.434 1_655 S
C1268 C1269 1.369 . S
C1268 C1270 1.419 . S
C1268 H1272 0.930 . S
C1269 C1268 1.369 . S
C1269 C1278 1.429 . S
C1270 C1268 1.419 . S
C1270 C1271 1.363 . S
C1270 H1273 0.929 . S
C1271 C1270 1.363 . S
C1271 C1277 1.428 . S
H1272 C1268 0.930 . S
H1273 C1270 0.929 . S
S1274 N1275 1.613 . S
S1274 N1276 1.610 . S
N1275 S1274 1.613 . S
N1275 C1278 1.350 . S
N1276 S1274 1.610 . S
N1276 C1277 1.351 . S
C1277 C1271 1.428 . S
C1277 N1276 1.351 . S
C1277 C1278 1.434 . S
C1278 C1269 1.429 . S
C1278 N1275 1.350 . S
C1278 C1277 1.434 . S
C1279 C1280 1.369 . S
C1279 C1281 1.419 . S
C1279 H1283 0.930 . S
C1280 C1279 1.369 . S
C1280 C1289 1.429 . S
C1281 C1279 1.419 . S
C1281 C1282 1.363 . S
C1281 H1284 0.929 . S
C1282 C1281 1.363 . S
C1282 C1288 1.428 . S
H1283 C1279 0.930 . S
H1284 C1281 0.929 . S
S1285 N1286 1.613 . S
S1285 N1287 1.610 . S
N1286 S1285 1.613 . S
N1286 C1289 1.350 . S
N1287 S1285 1.610 . S
N1287 C1288 1.351 . S
C1288 C1282 1.428 . S
C1288 N1287 1.351 . S
C1288 C1289 1.434 . S
C1289 C1280 1.429 . S
C1289 N1286 1.350 . S
C1289 C1288 1.434 . S
C1290 C1291 1.369 . S
C1290 C1292 1.419 1_545 S
C1290 H1294 0.930 . S
C1291 C1290 1.369 . S
C1291 C1300 1.429 . S
C1292 C1290 1.419 1_565 S
C1292 C1293 1.363 . S
C1292 H1295 0.929 . S
C1293 C1292 1.363 . S
C1293 C1299 1.428 . S
H1294 C1290 0.930 . S
H1295 C1292 0.929 . S
S1296 N1297 1.613 1_565 S
S1296 N1298 1.610 . S
N1297 S1296 1.613 1_545 S
N1297 C1300 1.350 . S
N1298 S1296 1.610 . S
N1298 C1299 1.351 . S
C1299 C1293 1.428 . S
C1299 N1298 1.351 . S
C1299 C1300 1.434 1_565 S
C1300 C1291 1.429 . S
C1300 N1297 1.350 . S
C1300 C1299 1.434 1_545 S
C1301 C1302 1.369 . S
C1301 C1303 1.419 . S
C1301 H1305 0.930 . S
C1302 C1301 1.369 . S
C1302 C1311 1.429 . S
C1303 C1301 1.419 . S
C1303 C1304 1.363 . S
C1303 H1306 0.929 . S
C1304 C1303 1.363 . S
C1304 C1310 1.428 1_554 S
H1305 C1301 0.930 . S
H1306 C1303 0.929 . S
S1307 N1308 1.613 . S
S1307 N1309 1.610 . S
N1308 S1307 1.613 . S
N1308 C1311 1.350 1_556 S
N1309 S1307 1.610 . S
N1309 C1310 1.351 . S
C1310 C1304 1.428 1_556 S
C1310 N1309 1.351 . S
C1310 C1311 1.434 1_556 S
C1311 C1302 1.429 . S
C1311 N1308 1.350 1_554 S
C1311 C1310 1.434 1_554 S
C1312 C1313 1.369 1_465 S
C1312 C1314 1.419 . S
C1312 H1316 0.930 . S
C1313 C1312 1.369 1_645 S
C1313 C1322 1.440 . S
C1314 C1312 1.419 . S
C1314 C1315 1.363 1_455 S
C1314 H1317 0.929 . S
C1315 C1314 1.363 1_655 S
C1315 C1321 1.428 . S
H1316 C1312 0.930 . S
H1317 C1314 0.929 . S
S1318 N1319 1.613 1_565 S
S1318 N1320 1.610 . S
N1319 S1318 1.613 1_545 S
N1319 C1322 1.367 . S
N1320 S1318 1.610 . S
N1320 C1321 1.351 . S
C1321 C1315 1.428 . S
C1321 N1320 1.351 . S
C1321 C1322 1.404 1_565 S
C1322 C1313 1.440 . S
C1322 N1319 1.367 . S
C1322 C1321 1.404 1_545 S
C1323 C1324 1.369 . S
C1323 C1325 1.419 . S
C1323 H1327 0.930 . S
C1324 C1323 1.369 . S
C1324 C1333 1.429 . S
C1325 C1323 1.419 . S
C1325 C1326 1.363 . S
C1325 H1328 0.929 . S
C1326 C1325 1.363 . S
C1326 C1332 1.428 . S
H1327 C1323 0.930 . S
H1328 C1325 0.929 . S
S1329 N1330 1.613 . S
S1329 N1331 1.610 . S
N1330 S1329 1.613 . S
N1330 C1333 1.350 . S
N1331 S1329 1.610 . S
N1331 C1332 1.351 . S
C1332 C1326 1.428 . S
C1332 N1331 1.351 . S
C1332 C1333 1.434 . S
C1333 C1324 1.429 . S
C1333 N1330 1.350 . S
C1333 C1332 1.434 . S
C1334 C1335 1.369 . S
C1334 C1336 1.419 . S
C1334 H1338 0.930 . S
C1335 C1334 1.369 . S
C1335 C1344 1.429 . S
C1336 C1334 1.419 . S
C1336 C1337 1.363 1_556 S
C1336 H1339 0.929 1_556 S
C1337 C1336 1.363 1_554 S
C1337 C1343 1.428 . S
H1338 C1334 0.930 . S
H1339 C1336 0.929 1_554 S
S1340 N1341 1.613 . S
S1340 N1342 1.610 1_556 S
N1341 S1340 1.613 . S
N1341 C1344 1.350 . S
N1342 S1340 1.610 1_554 S
N1342 C1343 1.351 . S
C1343 C1337 1.428 . S
C1343 N1342 1.351 . S
C1343 C1344 1.434 1_554 S
C1344 C1335 1.429 . S
C1344 N1341 1.350 . S
C1344 C1343 1.434 1_556 S
C1345 C1346 1.369 . S
C1345 C1347 1.419 . S
C1345 H1349 0.930 . S
C1346 C1345 1.369 . S
C1346 C1355 1.429 . S
C1347 C1345 1.419 . S
C1347 C1348 1.363 . S
C1347 H1350 0.929 . S
C1348 C1347 1.363 . S
C1348 C1354 1.428 . S
H1349 C1345 0.930 . S
H1350 C1347 0.929 . S
S1351 N1352 1.613 . S
S1351 N1353 1.610 . S
N1352 S1351 1.613 . S
N1352 C1355 1.350 . S
N1353 S1351 1.610 . S
N1353 C1354 1.351 . S
C1354 C1348 1.428 . S
C1354 N1353 1.351 . S
C1354 C1355 1.434 . S
C1355 C1346 1.429 . S
C1355 N1352 1.350 . S
C1355 C1354 1.434 . S
C1356 C1357 1.369 . S
C1356 C1358 1.419 . S
C1356 H1360 0.930 . S
C1357 C1356 1.369 . S
C1357 C1366 1.429 . S
C1358 C1356 1.419 . S
C1358 C1359 1.363 . S
C1358 H1361 0.929 . S
C1359 C1358 1.363 . S
C1359 C1365 1.428 . S
H1360 C1356 0.930 . S
H1361 C1358 0.929 . S
S1362 N1363 1.613 . S
S1362 N1364 1.610 . S
N1363 S1362 1.613 . S
N1363 C1366 1.350 . S
N1364 S1362 1.610 . S
N1364 C1365 1.351 . S
C1365 C1359 1.428 . S
C1365 N1364 1.351 . S
C1365 C1366 1.434 . S
C1366 C1357 1.429 . S
C1366 N1363 1.350 . S
C1366 C1365 1.434 . S
C1367 C1368 1.369 . S
C1367 C1369 1.419 . S
C1367 H1371 0.930 . S
C1368 C1367 1.369 . S
C1368 C1377 1.429 . S
C1369 C1367 1.419 . S
C1369 C1370 1.363 . S
C1369 H1372 0.929 . S
C1370 C1369 1.363 . S
C1370 C1376 1.428 . S
H1371 C1367 0.930 . S
H1372 C1369 0.929 . S
S1373 N1374 1.613 . S
S1373 N1375 1.610 . S
N1374 S1373 1.613 . S
N1374 C1377 1.350 . S
N1375 S1373 1.610 . S
N1375 C1376 1.351 . S
C1376 C1370 1.428 . S
C1376 N1375 1.351 . S
C1376 C1377 1.434 . S
C1377 C1368 1.429 . S
C1377 N1374 1.350 . S
C1377 C1376 1.434 . S
C1378 C1379 1.369 . S
C1378 C1380 1.419 . S
C1378 H1382 0.930 . S
C1379 C1378 1.369 . S
C1379 C1388 1.429 . S
C1380 C1378 1.419 . S
C1380 C1381 1.363 . S
C1380 H1383 0.929 . S
C1381 C1380 1.363 . S
C1381 C1387 1.428 . S
H1382 C1378 0.930 . S
H1383 C1380 0.929 . S
S1384 N1385 1.613 . S
S1384 N1386 1.610 . S
N1385 S1384 1.613 . S
N1385 C1388 1.350 . S
N1386 S1384 1.610 . S
N1386 C1387 1.351 . S
C1387 C1381 1.428 . S
C1387 N1386 1.351 . S
C1387 C1388 1.434 . S
C1388 C1379 1.429 . S
C1388 N1385 1.350 . S
C1388 C1387 1.434 . S
C1389 C1390 1.369 . S
C1389 C1391 1.419 1_565 S
C1389 H1393 0.930 . S
C1390 C1389 1.369 . S
C1390 C1399 1.429 . S
C1391 C1389 1.419 1_545 S
C1391 C1392 1.363 . S
C1391 H1394 0.929 . S
C1392 C1391 1.363 . S
C1392 C1398 1.428 . S
H1393 C1389 0.930 . S
H1394 C1391 0.929 . S
S1395 N1396 1.613 1_545 S
S1395 N1397 1.610 . S
N1396 S1395 1.613 1_565 S
N1396 C1399 1.350 . S
N1397 S1395 1.610 . S
N1397 C1398 1.351 . S
C1398 C1392 1.428 . S
C1398 N1397 1.351 . S
C1398 C1399 1.434 1_545 S
C1399 C1390 1.429 . S
C1399 N1396 1.350 . S
C1399 C1398 1.434 1_565 S
C1400 C1401 1.369 . S
C1400 C1402 1.419 . S
C1400 H1404 0.930 . S
C1401 C1400 1.369 . S
C1401 C1410 1.429 1_556 S
C1402 C1400 1.419 . S
C1402 C1403 1.363 . S
C1402 H1405 0.929 . S
C1403 C1402 1.363 . S
C1403 C1409 1.428 1_556 S
H1404 C1400 0.930 . S
H1405 C1402 0.929 . S
S1406 N1407 1.613 . S
S1406 N1408 1.610 . S
N1407 S1406 1.613 . S
N1407 C1410 1.350 . S
N1408 S1406 1.610 . S
N1408 C1409 1.351 . S
C1409 C1403 1.428 1_554 S
C1409 N1408 1.351 . S
C1409 C1410 1.434 . S
C1410 C1401 1.429 1_554 S
C1410 N1407 1.350 . S
C1410 C1409 1.434 . S
C1411 C1412 1.369 1_655 S
C1411 C1413 1.419 . S
C1411 H1415 0.930 . S
C1412 C1411 1.369 1_455 S
C1412 C1421 1.429 . S
C1413 C1411 1.419 . S
C1413 C1414 1.363 1_645 S
C1413 H1416 0.929 1_545 S
C1414 C1413 1.363 1_465 S
C1414 C1420 1.428 1_565 S
H1415 C1411 0.930 . S
H1416 C1413 0.929 1_565 S
S1417 N1418 1.613 . S
S1417 N1419 1.610 1_545 S
N1418 S1417 1.613 . S
N1418 C1421 1.350 . S
N1419 S1417 1.610 1_565 S
N1419 C1420 1.351 1_565 S
C1420 C1414 1.428 1_545 S
C1420 N1419 1.351 1_545 S
C1420 C1421 1.434 . S
C1421 C1412 1.429 . S
C1421 N1418 1.350 . S
C1421 C1420 1.434 . S
C1422 C1423 1.369 . S
C1422 C1424 1.419 . S
C1422 H1426 0.930 . S
C1423 C1422 1.369 . S
C1423 C1432 1.429 . S
C1424 C1422 1.419 . S
C1424 C1425 1.363 . S
C1424 H1427 0.929 . S
C1425 C1424 1.363 . S
C1425 C1431 1.428 . S
H1426 C1422 0.930 . S
H1427 C1424 0.929 . S
S1428 N1429 1.613 . S
S1428 N1430 1.610 . S
N1429 S1428 1.613 . S
N1429 C1432 1.350 . S
N1430 S1428 1.610 . S
N1430 C1431 1.351 . S
C1431 C1425 1.428 . S
C1431 N1430 1.351 . S
C1431 C1432 1.434 . S
C1432 C1423 1.429 . S
C1432 N1429 1.350 . S
C1432 C1431 1.434 . S
C1433 C1434 1.369 . S
C1433 C1435 1.419 1_554 S
C1433 H1437 0.930 . S
C1434 C1433 1.369 . S
C1434 C1443 1.429 . S
C1435 C1433 1.419 1_556 S
C1435 C1436 1.363 . S
C1435 H1438 0.929 . S
C1436 C1435 1.363 . S
C1436 C1442 1.428 1_556 S
H1437 C1433 0.930 . S
H1438 C1435 0.929 . S
S1439 N1440 1.613 . S
S1439 N1441 1.610 1_554 S
N1440 S1439 1.613 . S
N1440 C1443 1.350 . S
N1441 S1439 1.610 1_556 S
N1441 C1442 1.351 1_556 S
C1442 C1436 1.428 1_554 S
C1442 N1441 1.351 1_554 S
C1442 C1443 1.434 . S
C1443 C1434 1.429 . S
C1443 N1440 1.350 . S
C1443 C1442 1.434 . S
C1444 C1445 1.369 . S
C1444 C1446 1.419 . S
C1444 H1448 0.930 . S
C1445 C1444 1.369 . S
C1445 C1454 1.429 . S
C1446 C1444 1.419 . S
C1446 C1447 1.363 . S
C1446 H1449 0.929 . S
C1447 C1446 1.363 . S
C1447 C1453 1.428 . S
H1448 C1444 0.930 . S
H1449 C1446 0.929 . S
S1450 N1451 1.613 . S
S1450 N1452 1.610 . S
N1451 S1450 1.613 . S
N1451 C1454 1.350 . S
N1452 S1450 1.610 . S
N1452 C1453 1.351 . S
C1453 C1447 1.428 . S
C1453 N1452 1.351 . S
C1453 C1454 1.434 . S
C1454 C1445 1.429 . S
C1454 N1451 1.350 . S
C1454 C1453 1.434 . S
C1455 C1456 1.369 . S
C1455 C1457 1.419 . S
C1455 H1459 0.930 . S
C1456 C1455 1.369 . S
C1456 C1465 1.429 . S
C1457 C1455 1.419 . S
C1457 C1458 1.363 . S
C1457 H1460 0.929 . S
C1458 C1457 1.363 . S
C1458 C1464 1.428 . S
H1459 C1455 0.930 . S
H1460 C1457 0.929 . S
S1461 N1462 1.613 . S
S1461 N1463 1.610 . S
N1462 S1461 1.613 . S
N1462 C1465 1.350 . S
N1463 S1461 1.610 . S
N1463 C1464 1.351 . S
C1464 C1458 1.428 . S
C1464 N1463 1.351 . S
C1464 C1465 1.434 . S
C1465 C1456 1.429 . S
C1465 N1462 1.350 . S
C1465 C1464 1.434 . S
C1466 C1467 1.369 . S
C1466 C1468 1.419 . S
C1466 H1470 0.930 . S
C1467 C1466 1.369 . S
C1467 C1476 1.429 . S
C1468 C1466 1.419 . S
C1468 C1469 1.363 . S
C1468 H1471 0.929 . S
C1469 C1468 1.363 . S
C1469 C1475 1.428 . S
H1470 C1466 0.930 . S
H1471 C1468 0.929 . S
S1472 N1473 1.613 . S
S1472 N1474 1.610 . S
N1473 S1472 1.613 . S
N1473 C1476 1.350 . S
N1474 S1472 1.610 . S
N1474 C1475 1.351 . S
C1475 C1469 1.428 . S
C1475 N1474 1.351 . S
C1475 C1476 1.434 . S
C1476 C1467 1.429 . S
C1476 N1473 1.350 . S
C1476 C1475 1.434 . S
C1477 C1478 1.369 . S
C1477 C1479 1.419 . S
C1477 H1481 0.930 . S
C1478 C1477 1.369 . S
C1478 C1487 1.429 . S
C1479 C1477 1.419 . S
C1479 C1480 1.363 . S
C1479 H1482 0.929 . S
C1480 C1479 1.363 . S
C1480 C1486 1.428 . S
H1481 C1477 0.930 . S
H1482 C1479 0.929 . S
S1483 N1484 1.613 . S
S1483 N1485 1.610 . S
N1484 S1483 1.613 . S
N1484 C1487 1.350 . S
N1485 S1483 1.610 . S
N1485 C1486 1.351 . S
C1486 C1480 1.428 . S
C1486 N1485 1.351 . S
C1486 C1487 1.434 . S
C1487 C1478 1.429 . S
C1487 N1484 1.350 . S
C1487 C1486 1.434 . S
C1488 C1489 1.369 . S
C1488 C1490 1.419 . S
C1488 H1492 0.930 . S
C1489 C1488 1.369 . S
C1489 C1498 1.429 . S
C1490 C1488 1.419 . S
C1490 C1491 1.363 . S
C1490 H1493 0.929 . S
C1491 C1490 1.363 . S
C1491 C1497 1.428 . S
H1492 C1488 0.930 . S
H1493 C1490 0.929 . S
S1494 N1495 1.613 . S
S1494 N1496 1.610 . S
N1495 S1494 1.613 . S
N1495 C1498 1.350 . S
N1496 S1494 1.610 . S
N1496 C1497 1.351 . S
C1497 C1491 1.428 . S
C1497 N1496 1.351 . S
C1497 C1498 1.434 . S
C1498 C1489 1.429 . S
C1498 N1495 1.350 . S
C1498 C1497 1.434 . S
C1499 C1500 1.369 . S
C1499 C1501 1.419 . S
C1499 H1503 0.930 . S
C1500 C1499 1.369 . S
C1500 C1509 1.429 . S
C1501 C1499 1.419 . S
C1501 C1502 1.363 . S
C1501 H1504 0.929 . S
C1502 C1501 1.363 . S
C1502 C1508 1.428 . S
H1503 C1499 0.930 . S
H1504 C1501 0.929 . S
S1505 N1506 1.613 . S
S1505 N1507 1.610 . S
N1506 S1505 1.613 . S
N1506 C1509 1.350 . S
N1507 S1505 1.610 . S
N1507 C1508 1.351 . S
C1508 C1502 1.428 . S
C1508 N1507 1.351 . S
C1508 C1509 1.434 . S
C1509 C1500 1.429 . S
C1509 N1506 1.350 . S
C1509 C1508 1.434 . S
C1510 C1511 1.369 . S
C1510 C1512 1.419 . S
C1510 H1514 0.930 . S
C1511 C1510 1.369 . S
C1511 C1520 1.429 . S
C1512 C1510 1.419 . S
C1512 C1513 1.363 . S
C1512 H1515 0.929 . S
C1513 C1512 1.363 . S
C1513 C1519 1.428 . S
H1514 C1510 0.930 . S
H1515 C1512 0.929 . S
S1516 N1517 1.613 . S
S1516 N1518 1.610 . S
N1517 S1516 1.613 . S
N1517 C1520 1.350 . S
N1518 S1516 1.610 . S
N1518 C1519 1.351 . S
C1519 C1513 1.428 . S
C1519 N1518 1.351 . S
C1519 C1520 1.434 . S
C1520 C1511 1.429 . S
C1520 N1517 1.350 . S
C1520 C1519 1.434 . S
C1521 C1522 1.369 . S
C1521 C1523 1.419 . S
C1521 H1525 0.930 . S
C1522 C1521 1.369 . S
C1522 C1531 1.429 . S
C1523 C1521 1.419 . S
C1523 C1524 1.363 . S
C1523 H1526 0.929 . S
C1524 C1523 1.363 . S
C1524 C1530 1.428 . S
H1525 C1521 0.930 . S
H1526 C1523 0.929 . S
S1527 N1528 1.613 . S
S1527 N1529 1.610 . S
N1528 S1527 1.613 . S
N1528 C1531 1.350 . S
N1529 S1527 1.610 . S
N1529 C1530 1.351 . S
C1530 C1524 1.428 . S
C1530 N1529 1.351 . S
C1530 C1531 1.434 . S
C1531 C1522 1.429 . S
C1531 N1528 1.350 . S
C1531 C1530 1.434 . S
C1532 C1533 1.369 . S
C1532 C1534 1.419 . S
C1532 H1536 0.930 . S
C1533 C1532 1.369 . S
C1533 C1542 1.429 . S
C1534 C1532 1.419 . S
C1534 C1535 1.363 . S
C1534 H1537 0.929 . S
C1535 C1534 1.363 . S
C1535 C1541 1.428 . S
H1536 C1532 0.930 . S
H1537 C1534 0.929 . S
S1538 N1539 1.613 . S
S1538 N1540 1.610 . S
N1539 S1538 1.613 . S
N1539 C1542 1.350 . S
N1540 S1538 1.610 . S
N1540 C1541 1.351 . S
C1541 C1535 1.428 . S
C1541 N1540 1.351 . S
C1541 C1542 1.434 . S
C1542 C1533 1.429 . S
C1542 N1539 1.350 . S
C1542 C1541 1.434 . S
C1543 C1544 1.369 . S
C1543 C1545 1.419 . S
C1543 H1547 0.930 . S
C1544 C1543 1.369 . S
C1544 C1553 1.429 . S
C1545 C1543 1.419 . S
C1545 C1546 1.363 . S
C1545 H1548 0.929 . S
C1546 C1545 1.363 . S
C1546 C1552 1.428 . S
H1547 C1543 0.930 . S
H1548 C1545 0.929 . S
S1549 N1550 1.613 . S
S1549 N1551 1.610 . S
N1550 S1549 1.613 . S
N1550 C1553 1.350 . S
N1551 S1549 1.610 . S
N1551 C1552 1.351 . S
C1552 C1546 1.428 . S
C1552 N1551 1.351 . S
C1552 C1553 1.434 . S
C1553 C1544 1.429 . S
C1553 N1550 1.350 . S
C1553 C1552 1.434 . S
C1554 C1555 1.369 . S
C1554 C1556 1.419 . S
C1554 H1558 0.930 . S
C1555 C1554 1.369 . S
C1555 C1564 1.429 . S
C1556 C1554 1.419 . S
C1556 C1557 1.363 . S
C1556 H1559 0.929 . S
C1557 C1556 1.363 . S
C1557 C1563 1.428 . S
H1558 C1554 0.930 . S
H1559 C1556 0.929 . S
S1560 N1561 1.613 . S
S1560 N1562 1.610 . S
N1561 S1560 1.613 . S
N1561 C1564 1.350 . S
N1562 S1560 1.610 . S
N1562 C1563 1.351 . S
C1563 C1557 1.428 . S
C1563 N1562 1.351 . S
C1563 C1564 1.434 . S
C1564 C1555 1.429 . S
C1564 N1561 1.350 . S
C1564 C1563 1.434 . S
C1565 C1566 1.369 . S
C1565 C1567 1.419 . S
C1565 H1569 0.930 . S
C1566 C1565 1.369 . S
C1566 C1575 1.429 . S
C1567 C1565 1.419 . S
C1567 C1568 1.363 . S
C1567 H1570 0.929 . S
C1568 C1567 1.363 . S
C1568 C1574 1.428 . S
H1569 C1565 0.930 . S
H1570 C1567 0.929 . S
S1571 N1572 1.613 1_455 S
S1571 N1573 1.610 1_455 S
N1572 S1571 1.613 1_655 S
N1572 C1575 1.350 . S
N1573 S1571 1.610 1_655 S
N1573 C1574 1.351 . S
C1574 C1568 1.428 . S
C1574 N1573 1.351 . S
C1574 C1575 1.434 . S
C1575 C1566 1.429 . S
C1575 N1572 1.350 . S
C1575 C1574 1.434 . S
C1576 C1577 1.369 . S
C1576 C1578 1.419 . S
C1576 H1580 0.930 . S
C1577 C1576 1.369 . S
C1577 C1586 1.429 . S
C1578 C1576 1.419 . S
C1578 C1579 1.363 . S
C1578 H1581 0.929 . S
C1579 C1578 1.363 . S
C1579 C1585 1.428 . S
H1580 C1576 0.930 . S
H1581 C1578 0.929 . S
S1582 N1583 1.613 . S
S1582 N1584 1.610 . S
N1583 S1582 1.613 . S
N1583 C1586 1.350 . S
N1584 S1582 1.610 . S
N1584 C1585 1.351 . S
C1585 C1579 1.428 . S
C1585 N1584 1.351 . S
C1585 C1586 1.434 . S
C1586 C1577 1.429 . S
C1586 N1583 1.350 . S
C1586 C1585 1.434 . S
C1587 C1588 1.369 . S
C1587 C1589 1.419 . S
C1587 H1591 0.930 . S
C1588 C1587 1.369 . S
C1588 C1597 1.429 . S
C1589 C1587 1.419 . S
C1589 C1590 1.363 . S
C1589 H1592 0.929 . S
C1590 C1589 1.363 . S
C1590 C1596 1.428 . S
H1591 C1587 0.930 . S
H1592 C1589 0.929 . S
S1593 N1594 1.613 . S
S1593 N1595 1.610 . S
N1594 S1593 1.613 . S
N1594 C1597 1.350 . S
N1595 S1593 1.610 . S
N1595 C1596 1.351 . S
C1596 C1590 1.428 . S
C1596 N1595 1.351 . S
C1596 C1597 1.434 . S
C1597 C1588 1.429 . S
C1597 N1594 1.350 . S
C1597 C1596 1.434 . S
C1598 C1599 1.369 . S
C1598 C1600 1.419 . S
C1598 H1602 0.930 . S
C1599 C1598 1.369 . S
C1599 C1608 1.429 . S
C1600 C1598 1.419 . S
C1600 C1601 1.363 . S
C1600 H1603 0.929 . S
C1601 C1600 1.363 . S
C1601 C1607 1.428 . S
H1602 C1598 0.930 . S
H1603 C1600 0.929 . S
S1604 N1605 1.613 . S
S1604 N1606 1.610 1_545 S
N1605 S1604 1.613 . S
N1605 C1608 1.350 1_545 S
N1606 S1604 1.610 1_565 S
N1606 C1607 1.351 . S
C1607 C1601 1.428 . S
C1607 N1606 1.351 . S
C1607 C1608 1.434 . S
C1608 C1599 1.429 . S
C1608 N1605 1.350 1_565 S
C1608 C1607 1.434 . S
C1609 C1610 1.369 . S
C1609 C1611 1.419 . S
C1609 H1613 0.930 . S
C1610 C1609 1.369 . S
C1610 C1619 1.429 . S
C1611 C1609 1.419 . S
C1611 C1612 1.363 . S
C1611 H1614 0.929 . S
C1612 C1611 1.363 . S
C1612 C1618 1.428 . S
H1613 C1609 0.930 . S
H1614 C1611 0.929 . S
S1615 N1616 1.613 . S
S1615 N1617 1.610 1_556 S
N1616 S1615 1.613 . S
N1616 C1619 1.350 1_556 S
N1617 S1615 1.610 1_554 S
N1617 C1618 1.351 . S
C1618 C1612 1.428 . S
C1618 N1617 1.351 . S
C1618 C1619 1.434 . S
C1619 C1610 1.429 . S
C1619 N1616 1.350 1_554 S
C1619 C1618 1.434 . S
C1620 C1621 1.369 . S
C1620 C1622 1.419 . S
C1620 H1624 0.930 . S
C1621 C1620 1.369 . S
C1621 C1630 1.429 . S
C1622 C1620 1.419 . S
C1622 C1623 1.363 . S
C1622 H1625 0.929 . S
C1623 C1622 1.363 . S
C1623 C1629 1.428 . S
H1624 C1620 0.930 . S
H1625 C1622 0.929 . S
S1626 N1627 1.613 . S
S1626 N1628 1.610 . S
N1627 S1626 1.613 . S
N1627 C1630 1.350 . S
N1628 S1626 1.610 . S
N1628 C1629 1.351 . S
C1629 C1623 1.428 . S
C1629 N1628 1.351 . S
C1629 C1630 1.434 . S
C1630 C1621 1.429 . S
C1630 N1627 1.350 . S
C1630 C1629 1.434 . S
C1631 C1632 1.369 . S
C1631 C1633 1.419 . S
C1631 H1635 0.930 . S
C1632 C1631 1.369 . S
C1632 C1641 1.429 . S
C1633 C1631 1.419 . S
C1633 C1634 1.363 . S
C1633 H1636 0.929 . S
C1634 C1633 1.363 . S
C1634 C1640 1.428 . S
H1635 C1631 0.930 . S
H1636 C1633 0.929 . S
S1637 N1638 1.613 . S
S1637 N1639 1.610 . S
N1638 S1637 1.613 . S
N1638 C1641 1.350 . S
N1639 S1637 1.610 . S
N1639 C1640 1.351 . S
C1640 C1634 1.428 . S
C1640 N1639 1.351 . S
C1640 C1641 1.434 . S
C1641 C1632 1.429 . S
C1641 N1638 1.350 . S
C1641 C1640 1.434 . S
C1642 C1643 1.369 . S
C1642 C1644 1.419 . S
C1642 H1646 0.930 . S
C1643 C1642 1.369 . S
C1643 C1652 1.429 . S
C1644 C1642 1.419 . S
C1644 C1645 1.363 . S
C1644 H1647 0.929 . S
C1645 C1644 1.363 . S
C1645 C1651 1.428 . S
H1646 C1642 0.930 . S
H1647 C1644 0.929 . S
S1648 N1649 1.613 . S
S1648 N1650 1.610 . S
N1649 S1648 1.613 . S
N1649 C1652 1.350 . S
N1650 S1648 1.610 . S
N1650 C1651 1.351 . S
C1651 C1645 1.428 . S
C1651 N1650 1.351 . S
C1651 C1652 1.434 . S
C1652 C1643 1.429 . S
C1652 N1649 1.350 . S
C1652 C1651 1.434 . S
C1653 C1654 1.369 . S
C1653 C1655 1.419 . S
C1653 H1657 0.930 . S
C1654 C1653 1.369 . S
C1654 C1663 1.429 . S
C1655 C1653 1.419 . S
C1655 C1656 1.363 . S
C1655 H1658 0.929 . S
C1656 C1655 1.363 . S
C1656 C1662 1.428 . S
H1657 C1653 0.930 . S
H1658 C1655 0.929 . S
S1659 N1660 1.613 . S
S1659 N1661 1.610 . S
N1660 S1659 1.613 . S
N1660 C1663 1.350 . S
N1661 S1659 1.610 . S
N1661 C1662 1.351 . S
C1662 C1656 1.428 . S
C1662 N1661 1.351 . S
C1662 C1663 1.434 . S
C1663 C1654 1.429 . S
C1663 N1660 1.350 . S
C1663 C1662 1.434 . S
C1664 C1665 1.369 . S
C1664 C1666 1.419 . S
C1664 H1668 0.930 . S
C1665 C1664 1.369 . S
C1665 C1674 1.429 . S
C1666 C1664 1.419 . S
C1666 C1667 1.363 . S
C1666 H1669 0.929 . S
C1667 C1666 1.363 . S
C1667 C1673 1.428 . S
H1668 C1664 0.930 . S
H1669 C1666 0.929 . S
S1670 N1671 1.613 . S
S1670 N1672 1.610 . S
N1671 S1670 1.613 . S
N1671 C1674 1.350 . S
N1672 S1670 1.610 . S
N1672 C1673 1.351 . S
C1673 C1667 1.428 . S
C1673 N1672 1.351 . S
C1673 C1674 1.434 . S
C1674 C1665 1.429 . S
C1674 N1671 1.350 . S
C1674 C1673 1.434 . S
C1675 C1676 1.369 . S
C1675 C1677 1.419 . S
C1675 H1679 0.930 . S
C1676 C1675 1.369 . S
C1676 C1685 1.429 . S
C1677 C1675 1.419 . S
C1677 C1678 1.363 . S
C1677 H1680 0.929 . S
C1678 C1677 1.363 . S
C1678 C1684 1.428 . S
H1679 C1675 0.930 . S
H1680 C1677 0.929 . S
S1681 N1682 1.613 . S
S1681 N1683 1.610 . S
N1682 S1681 1.613 . S
N1682 C1685 1.350 . S
N1683 S1681 1.610 . S
N1683 C1684 1.351 . S
C1684 C1678 1.428 . S
C1684 N1683 1.351 . S
C1684 C1685 1.434 . S
C1685 C1676 1.429 . S
C1685 N1682 1.350 . S
C1685 C1684 1.434 . S
C1686 C1687 1.369 . S
C1686 C1688 1.419 . S
C1686 H1690 0.930 . S
C1687 C1686 1.369 . S
C1687 C1696 1.429 . S
C1688 C1686 1.419 . S
C1688 C1689 1.363 . S
C1688 H1691 0.929 . S
C1689 C1688 1.363 . S
C1689 C1695 1.428 . S
H1690 C1686 0.930 . S
H1691 C1688 0.929 . S
S1692 N1693 1.613 . S
S1692 N1694 1.610 . S
N1693 S1692 1.613 . S
N1693 C1696 1.350 . S
N1694 S1692 1.610 . S
N1694 C1695 1.351 . S
C1695 C1689 1.428 . S
C1695 N1694 1.351 . S
C1695 C1696 1.434 . S
C1696 C1687 1.429 . S
C1696 N1693 1.350 . S
C1696 C1695 1.434 . S
C1697 C1698 1.369 . S
C1697 C1699 1.419 . S
C1697 H1701 0.930 . S
C1698 C1697 1.369 . S
C1698 C1707 1.429 . S
C1699 C1697 1.419 . S
C1699 C1700 1.363 . S
C1699 H1702 0.929 . S
C1700 C1699 1.363 . S
C1700 C1706 1.428 . S
H1701 C1697 0.930 . S
H1702 C1699 0.929 . S
S1703 N1704 1.613 . S
S1703 N1705 1.610 . S
N1704 S1703 1.613 . S
N1704 C1707 1.350 . S
N1705 S1703 1.610 . S
N1705 C1706 1.351 . S
C1706 C1700 1.428 . S
C1706 N1705 1.351 . S
C1706 C1707 1.434 . S
C1707 C1698 1.429 . S
C1707 N1704 1.350 . S
C1707 C1706 1.434 . S
C1708 C1709 1.369 . S
C1708 C1710 1.419 . S
C1708 H1712 0.930 . S
C1709 C1708 1.369 . S
C1709 C1718 1.429 . S
C1710 C1708 1.419 . S
C1710 C1711 1.363 . S
C1710 H1713 0.929 . S
C1711 C1710 1.363 . S
C1711 C1717 1.428 . S
H1712 C1708 0.930 . S
H1713 C1710 0.929 . S
S1714 N1715 1.613 . S
S1714 N1716 1.610 . S
N1715 S1714 1.613 . S
N1715 C1718 1.350 . S
N1716 S1714 1.610 . S
N1716 C1717 1.351 . S
C1717 C1711 1.428 . S
C1717 N1716 1.351 . S
C1717 C1718 1.434 . S
C1718 C1709 1.429 . S
C1718 N1715 1.350 . S
C1718 C1717 1.434 . S
C1719 C1720 1.369 . S
C1719 C1721 1.419 . S
C1719 H1723 0.930 . S
C1720 C1719 1.369 . S
C1720 C1729 1.429 . S
C1721 C1719 1.419 . S
C1721 C1722 1.363 . S
C1721 H1724 0.929 . S
C1722 C1721 1.363 . S
C1722 C1728 1.428 . S
H1723 C1719 0.930 . S
H1724 C1721 0.929 . S
S1725 N1726 1.613 . S
S1725 N1727 1.610 . S
N1726 S1725 1.613 . S
N1726 C1729 1.350 . S
N1727 S1725 1.610 . S
N1727 C1728 1.351 . S
C1728 C1722 1.428 . S
C1728 N1727 1.351 . S
C1728 C1729 1.434 . S
C1729 C1720 1.429 . S
C1729 N1726 1.350 . S
C1729 C1728 1.434 . S
C1730 C1731 1.369 . S
C1730 C1732 1.419 . S
C1730 H1734 0.930 . S
C1731 C1730 1.369 . S
C1731 C1740 1.429 . S
C1732 C1730 1.419 . S
C1732 C1733 1.363 . S
C1732 H1735 0.929 . S
C1733 C1732 1.363 . S
C1733 C1739 1.428 . S
H1734 C1730 0.930 . S
H1735 C1732 0.929 . S
S1736 N1737 1.613 . S
S1736 N1738 1.610 . S
N1737 S1736 1.613 . S
N1737 C1740 1.350 . S
N1738 S1736 1.610 . S
N1738 C1739 1.351 . S
C1739 C1733 1.428 . S
C1739 N1738 1.351 . S
C1739 C1740 1.434 . S
C1740 C1731 1.429 . S
C1740 N1737 1.350 . S
C1740 C1739 1.434 . S
C1741 C1742 1.369 . S
C1741 C1743 1.419 . S
C1741 H1745 0.930 . S
C1742 C1741 1.369 . S
C1742 C1751 1.429 . S
C1743 C1741 1.419 . S
C1743 C1744 1.363 . S
C1743 H1746 0.929 . S
C1744 C1743 1.363 . S
C1744 C1750 1.428 . S
H1745 C1741 0.930 . S
H1746 C1743 0.929 . S
S1747 N1748 1.613 . S
S1747 N1749 1.610 . S
N1748 S1747 1.613 . S
N1748 C1751 1.350 . S
N1749 S1747 1.610 . S
N1749 C1750 1.351 . S
C1750 C1744 1.428 . S
C1750 N1749 1.351 . S
C1750 C1751 1.434 . S
C1751 C1742 1.429 . S
C1751 N1748 1.350 . S
C1751 C1750 1.434 . S
C1752 C1753 1.369 . S
C1752 C1754 1.419 . S
C1752 H1756 0.930 . S
C1753 C1752 1.369 . S
C1753 C1762 1.429 . S
C1754 C1752 1.419 . S
C1754 C1755 1.363 . S
C1754 H1757 0.929 . S
C1755 C1754 1.363 . S
C1755 C1761 1.428 . S
H1756 C1752 0.930 . S
H1757 C1754 0.929 . S
S1758 N1759 1.613 . S
S1758 N1760 1.610 . S
N1759 S1758 1.613 . S
N1759 C1762 1.350 . S
N1760 S1758 1.610 . S
N1760 C1761 1.351 . S
C1761 C1755 1.428 . S
C1761 N1760 1.351 . S
C1761 C1762 1.434 . S
C1762 C1753 1.429 . S
C1762 N1759 1.350 . S
C1762 C1761 1.434 . S
C1763 C1764 1.369 . S
C1763 C1765 1.419 . S
C1763 H1767 0.930 . S
C1764 C1763 1.369 . S
C1764 C1773 1.429 . S
C1765 C1763 1.419 . S
C1765 C1766 1.363 . S
C1765 H1768 0.929 . S
C1766 C1765 1.363 . S
C1766 C1772 1.428 . S
H1767 C1763 0.930 . S
H1768 C1765 0.929 . S
S1769 N1770 1.613 . S
S1769 N1771 1.610 . S
N1770 S1769 1.613 . S
N1770 C1773 1.350 . S
N1771 S1769 1.610 . S
N1771 C1772 1.351 . S
C1772 C1766 1.428 . S
C1772 N1771 1.351 . S
C1772 C1773 1.434 . S
C1773 C1764 1.429 . S
C1773 N1770 1.350 . S
C1773 C1772 1.434 . S
C1774 C1775 1.369 . S
C1774 C1776 1.419 . S
C1774 H1778 0.930 . S
C1775 C1774 1.369 . S
C1775 C1784 1.429 . S
C1776 C1774 1.419 . S
C1776 C1777 1.363 . S
C1776 H1779 0.929 . S
C1777 C1776 1.363 . S
C1777 C1783 1.428 . S
H1778 C1774 0.930 . S
H1779 C1776 0.929 . S
S1780 N1781 1.613 . S
S1780 N1782 1.610 . S
N1781 S1780 1.613 . S
N1781 C1784 1.350 . S
N1782 S1780 1.610 . S
N1782 C1783 1.351 . S
C1783 C1777 1.428 . S
C1783 N1782 1.351 . S
C1783 C1784 1.434 . S
C1784 C1775 1.429 . S
C1784 N1781 1.350 . S
C1784 C1783 1.434 . S
C1785 C1786 1.369 . S
C1785 C1787 1.419 . S
C1785 H1789 0.930 . S
C1786 C1785 1.369 . S
C1786 C1795 1.429 . S
C1787 C1785 1.419 . S
C1787 C1788 1.363 . S
C1787 H1790 0.929 . S
C1788 C1787 1.363 . S
C1788 C1794 1.428 . S
H1789 C1785 0.930 . S
H1790 C1787 0.929 . S
S1791 N1792 1.613 . S
S1791 N1793 1.610 . S
N1792 S1791 1.613 . S
N1792 C1795 1.350 . S
N1793 S1791 1.610 . S
N1793 C1794 1.351 . S
C1794 C1788 1.428 . S
C1794 N1793 1.351 . S
C1794 C1795 1.434 . S
C1795 C1786 1.429 . S
C1795 N1792 1.350 . S
C1795 C1794 1.434 . S
C1796 C1797 1.369 . S
C1796 C1798 1.419 . S
C1796 H1800 0.930 . S
C1797 C1796 1.369 . S
C1797 C1806 1.429 . S
C1798 C1796 1.419 . S
C1798 C1799 1.363 . S
C1798 H1801 0.929 . S
C1799 C1798 1.363 . S
C1799 C1805 1.428 . S
H1800 C1796 0.930 . S
H1801 C1798 0.929 . S
S1802 N1803 1.613 . S
S1802 N1804 1.610 . S
N1803 S1802 1.613 . S
N1803 C1806 1.350 . S
N1804 S1802 1.610 . S
N1804 C1805 1.351 . S
C1805 C1799 1.428 . S
C1805 N1804 1.351 . S
C1805 C1806 1.434 . S
C1806 C1797 1.429 . S
C1806 N1803 1.350 . S
C1806 C1805 1.434 . S
C1807 C1808 1.369 . S
C1807 C1809 1.419 . S
C1807 H1811 0.930 . S
C1808 C1807 1.369 . S
C1808 C1817 1.429 . S
C1809 C1807 1.419 . S
C1809 C1810 1.363 . S
C1809 H1812 0.929 . S
C1810 C1809 1.363 . S
C1810 C1816 1.428 . S
H1811 C1807 0.930 . S
H1812 C1809 0.929 . S
S1813 N1814 1.613 . S
S1813 N1815 1.610 . S
N1814 S1813 1.613 . S
N1814 C1817 1.350 . S
N1815 S1813 1.610 . S
N1815 C1816 1.351 . S
C1816 C1810 1.428 . S
C1816 N1815 1.351 . S
C1816 C1817 1.434 . S
C1817 C1808 1.429 . S
C1817 N1814 1.350 . S
C1817 C1816 1.434 . S
C1818 C1819 1.369 . S
C1818 C1820 1.419 . S
C1818 H1822 0.930 . S
C1819 C1818 1.369 . S
C1819 C1828 1.429 . S
C1820 C1818 1.419 . S
C1820 C1821 1.363 . S
C1820 H1823 0.929 . S
C1821 C1820 1.363 . S
C1821 C1827 1.428 . S
H1822 C1818 0.930 . S
H1823 C1820 0.929 . S
S1824 N1825 1.613 . S
S1824 N1826 1.610 . S
N1825 S1824 1.613 . S
N1825 C1828 1.350 . S
N1826 S1824 1.610 . S
N1826 C1827 1.351 . S
C1827 C1821 1.428 . S
C1827 N1826 1.351 . S
C1827 C1828 1.434 . S
C1828 C1819 1.429 . S
C1828 N1825 1.350 . S
C1828 C1827 1.434 . S
C1829 C1830 1.369 . S
C1829 C1831 1.419 . S
C1829 H1833 0.930 . S
C1830 C1829 1.369 . S
C1830 C1839 1.429 . S
C1831 C1829 1.419 . S
C1831 C1832 1.363 . S
C1831 H1834 0.929 . S
C1832 C1831 1.363 . S
C1832 C1838 1.428 . S
H1833 C1829 0.930 . S
H1834 C1831 0.929 . S
S1835 N1836 1.613 . S
S1835 N1837 1.610 . S
N1836 S1835 1.613 . S
N1836 C1839 1.350 . S
N1837 S1835 1.610 . S
N1837 C1838 1.351 . S
C1838 C1832 1.428 . S
C1838 N1837 1.351 . S
C1838 C1839 1.434 . S
C1839 C1830 1.429 . S
C1839 N1836 1.350 . S
C1839 C1838 1.434 . S
C1840 C1841 1.369 . S
C1840 C1842 1.419 . S
C1840 H1844 0.930 . S
C1841 C1840 1.369 . S
C1841 C1850 1.429 . S
C1842 C1840 1.419 . S
C1842 C1843 1.363 . S
C1842 H1845 0.929 . S
C1843 C1842 1.363 . S
C1843 C1849 1.428 . S
H1844 C1840 0.930 . S
H1845 C1842 0.929 . S
S1846 N1847 1.613 . S
S1846 N1848 1.610 . S
N1847 S1846 1.613 . S
N1847 C1850 1.350 . S
N1848 S1846 1.610 . S
N1848 C1849 1.351 . S
C1849 C1843 1.428 . S
C1849 N1848 1.351 . S
C1849 C1850 1.434 . S
C1850 C1841 1.429 . S
C1850 N1847 1.350 . S
C1850 C1849 1.434 . S
C1851 C1852 1.369 . S
C1851 C1853 1.419 . S
C1851 H1855 0.930 . S
C1852 C1851 1.369 . S
C1852 C1861 1.429 . S
C1853 C1851 1.419 . S
C1853 C1854 1.363 . S
C1853 H1856 0.929 . S
C1854 C1853 1.363 . S
C1854 C1860 1.428 . S
H1855 C1851 0.930 . S
H1856 C1853 0.929 . S
S1857 N1858 1.613 . S
S1857 N1859 1.610 . S
N1858 S1857 1.613 . S
N1858 C1861 1.350 . S
N1859 S1857 1.610 . S
N1859 C1860 1.351 . S
C1860 C1854 1.428 . S
C1860 N1859 1.351 . S
C1860 C1861 1.434 . S
C1861 C1852 1.429 . S
C1861 N1858 1.350 . S
C1861 C1860 1.434 . S
C1862 C1863 1.369 . S
C1862 C1864 1.419 . S
C1862 H1866 0.930 . S
C1863 C1862 1.369 . S
C1863 C1872 1.429 . S
C1864 C1862 1.419 . S
C1864 C1865 1.363 . S
C1864 H1867 0.929 . S
C1865 C1864 1.363 . S
C1865 C1871 1.428 . S
H1866 C1862 0.930 . S
H1867 C1864 0.929 . S
S1868 N1869 1.613 . S
S1868 N1870 1.610 . S
N1869 S1868 1.613 . S
N1869 C1872 1.350 . S
N1870 S1868 1.610 . S
N1870 C1871 1.351 . S
C1871 C1865 1.428 . S
C1871 N1870 1.351 . S
C1871 C1872 1.434 . S
C1872 C1863 1.429 . S
C1872 N1869 1.350 . S
C1872 C1871 1.434 . S
C1873 C1874 1.369 . S
C1873 C1875 1.419 . S
C1873 H1877 0.930 . S
C1874 C1873 1.369 . S
C1874 C1883 1.429 . S
C1875 C1873 1.419 . S
C1875 C1876 1.363 . S
C1875 H1878 0.929 . S
C1876 C1875 1.363 . S
C1876 C1882 1.428 . S
H1877 C1873 0.930 . S
H1878 C1875 0.929 . S
S1879 N1880 1.613 . S
S1879 N1881 1.610 . S
N1880 S1879 1.613 . S
N1880 C1883 1.350 . S
N1881 S1879 1.610 . S
N1881 C1882 1.351 . S
C1882 C1876 1.428 . S
C1882 N1881 1.351 . S
C1882 C1883 1.434 . S
C1883 C1874 1.429 . S
C1883 N1880 1.350 . S
C1883 C1882 1.434 . S
C1884 C1885 1.369 . S
C1884 C1886 1.419 . S
C1884 H1888 0.930 . S
C1885 C1884 1.369 . S
C1885 C1894 1.429 . S
C1886 C1884 1.419 . S
C1886 C1887 1.363 . S
C1886 H1889 0.929 . S
C1887 C1886 1.363 . S
C1887 C1893 1.428 . S
H1888 C1884 0.930 . S
H1889 C1886 0.929 . S
S1890 N1891 1.613 . S
S1890 N1892 1.610 . S
N1891 S1890 1.613 . S
N1891 C1894 1.350 . S
N1892 S1890 1.610 . S
N1892 C1893 1.351 . S
C1893 C1887 1.428 . S
C1893 N1892 1.351 . S
C1893 C1894 1.434 . S
C1894 C1885 1.429 . S
C1894 N1891 1.350 . S
C1894 C1893 1.434 . S
C1895 C1896 1.369 . S
C1895 C1897 1.419 . S
C1895 H1899 0.930 . S
C1896 C1895 1.369 . S
C1896 C1905 1.429 . S
C1897 C1895 1.419 . S
C1897 C1898 1.363 . S
C1897 H1900 0.929 . S
C1898 C1897 1.363 . S
C1898 C1904 1.428 . S
H1899 C1895 0.930 . S
H1900 C1897 0.929 . S
S1901 N1902 1.613 . S
S1901 N1903 1.610 . S
N1902 S1901 1.613 . S
N1902 C1905 1.350 . S
N1903 S1901 1.610 . S
N1903 C1904 1.351 . S
C1904 C1898 1.428 . S
C1904 N1903 1.351 . S
C1904 C1905 1.434 . S
C1905 C1896 1.429 . S
C1905 N1902 1.350 . S
C1905 C1904 1.434 . S
C1906 C1907 1.369 . S
C1906 C1908 1.419 . S
C1906 H1910 0.930 . S
C1907 C1906 1.369 . S
C1907 C1916 1.429 . S
C1908 C1906 1.419 . S
C1908 C1909 1.363 . S
C1908 H1911 0.929 . S
C1909 C1908 1.363 . S
C1909 C1915 1.428 . S
H1910 C1906 0.930 . S
H1911 C1908 0.929 . S
S1912 N1913 1.613 . S
S1912 N1914 1.610 . S
N1913 S1912 1.613 . S
N1913 C1916 1.350 . S
N1914 S1912 1.610 . S
N1914 C1915 1.351 . S
C1915 C1909 1.428 . S
C1915 N1914 1.351 . S
C1915 C1916 1.434 . S
C1916 C1907 1.429 . S
C1916 N1913 1.350 . S
C1916 C1915 1.434 . S
C1917 C1918 1.369 . S
C1917 C1919 1.419 . S
C1917 H1921 0.930 . S
C1918 C1917 1.369 . S
C1918 C1927 1.429 . S
C1919 C1917 1.419 . S
C1919 C1920 1.363 . S
C1919 H1922 0.929 . S
C1920 C1919 1.363 . S
C1920 C1926 1.428 . S
H1921 C1917 0.930 . S
H1922 C1919 0.929 . S
S1923 N1924 1.613 . S
S1923 N1925 1.610 . S
N1924 S1923 1.613 . S
N1924 C1927 1.350 . S
N1925 S1923 1.610 . S
N1925 C1926 1.351 . S
C1926 C1920 1.428 . S
C1926 N1925 1.351 . S
C1926 C1927 1.434 . S
C1927 C1918 1.429 . S
C1927 N1924 1.350 . S
C1927 C1926 1.434 . S
C1928 C1929 1.369 . S
C1928 C1930 1.419 . S
C1928 H1932 0.930 . S
C1929 C1928 1.369 . S
C1929 C1938 1.429 . S
C1930 C1928 1.419 . S
C1930 C1931 1.363 . S
C1930 H1933 0.929 . S
C1931 C1930 1.363 . S
C1931 C1937 1.428 . S
H1932 C1928 0.930 . S
H1933 C1930 0.929 . S
S1934 N1935 1.613 . S
S1934 N1936 1.610 . S
N1935 S1934 1.613 . S
N1935 C1938 1.350 . S
N1936 S1934 1.610 . S
N1936 C1937 1.351 . S
C1937 C1931 1.428 . S
C1937 N1936 1.351 . S
C1937 C1938 1.434 . S
C1938 C1929 1.429 . S
C1938 N1935 1.350 . S
C1938 C1937 1.434 . S
C1939 C1940 1.369 . S
C1939 C1941 1.419 . S
C1939 H1943 0.930 . S
C1940 C1939 1.369 . S
C1940 C1949 1.429 . S
C1941 C1939 1.419 . S
C1941 C1942 1.363 . S
C1941 H1944 0.929 . S
C1942 C1941 1.363 . S
C1942 C1948 1.428 . S
H1943 C1939 0.930 . S
H1944 C1941 0.929 . S
S1945 N1946 1.613 . S
S1945 N1947 1.610 . S
N1946 S1945 1.613 . S
N1946 C1949 1.350 . S
N1947 S1945 1.610 . S
N1947 C1948 1.351 . S
C1948 C1942 1.428 . S
C1948 N1947 1.351 . S
C1948 C1949 1.434 . S
C1949 C1940 1.429 . S
C1949 N1946 1.350 . S
C1949 C1948 1.434 . S
C1950 C1951 1.369 . S
C1950 C1952 1.419 . S
C1950 H1954 0.930 . S
C1951 C1950 1.369 . S
C1951 C1960 1.429 . S
C1952 C1950 1.419 . S
C1952 C1953 1.363 . S
C1952 H1955 0.929 . S
C1953 C1952 1.363 . S
C1953 C1959 1.428 . S
H1954 C1950 0.930 . S
H1955 C1952 0.929 . S
S1956 N1957 1.613 . S
S1956 N1958 1.610 . S
N1957 S1956 1.613 . S
N1957 C1960 1.350 . S
N1958 S1956 1.610 . S
N1958 C1959 1.351 . S
C1959 C1953 1.428 . S
C1959 N1958 1.351 . S
C1959 C1960 1.434 . S
C1960 C1951 1.429 . S
C1960 N1957 1.350 . S
C1960 C1959 1.434 . S
C1961 C1962 1.369 . S
C1961 C1963 1.419 . S
C1961 H1965 0.930 . S
C1962 C1961 1.369 . S
C1962 C1971 1.429 . S
C1963 C1961 1.419 . S
C1963 C1964 1.363 . S
C1963 H1966 0.929 . S
C1964 C1963 1.363 . S
C1964 C1970 1.428 . S
H1965 C1961 0.930 . S
H1966 C1963 0.929 . S
S1967 N1968 1.613 . S
S1967 N1969 1.610 . S
N1968 S1967 1.613 . S
N1968 C1971 1.350 . S
N1969 S1967 1.610 . S
N1969 C1970 1.351 . S
C1970 C1964 1.428 . S
C1970 N1969 1.351 . S
C1970 C1971 1.434 . S
C1971 C1962 1.429 . S
C1971 N1968 1.350 . S
C1971 C1970 1.434 . S
C1972 C1973 1.369 . S
C1972 C1974 1.419 . S
C1972 H1976 0.930 . S
C1973 C1972 1.369 . S
C1973 C1982 1.429 . S
C1974 C1972 1.419 . S
C1974 C1975 1.363 . S
C1974 H1977 0.929 . S
C1975 C1974 1.363 . S
C1975 C1981 1.428 . S
H1976 C1972 0.930 . S
H1977 C1974 0.929 . S
S1978 N1979 1.613 . S
S1978 N1980 1.610 . S
N1979 S1978 1.613 . S
N1979 C1982 1.350 . S
N1980 S1978 1.610 . S
N1980 C1981 1.351 . S
C1981 C1975 1.428 . S
C1981 N1980 1.351 . S
C1981 C1982 1.434 . S
C1982 C1973 1.429 . S
C1982 N1979 1.350 . S
C1982 C1981 1.434 . S
C1983 C1984 1.369 . S
C1983 C1985 1.419 . S
C1983 H1987 0.930 . S
C1984 C1983 1.369 . S
C1984 C1993 1.429 . S
C1985 C1983 1.419 . S
C1985 C1986 1.363 . S
C1985 H1988 0.929 . S
C1986 C1985 1.363 . S
C1986 C1992 1.428 . S
H1987 C1983 0.930 . S
H1988 C1985 0.929 . S
S1989 N1990 1.613 . S
S1989 N1991 1.610 . S
N1990 S1989 1.613 . S
N1990 C1993 1.350 . S
N1991 S1989 1.610 . S
N1991 C1992 1.351 . S
C1992 C1986 1.428 . S
C1992 N1991 1.351 . S
C1992 C1993 1.434 . S
C1993 C1984 1.429 . S
C1993 N1990 1.350 . S
C1993 C1992 1.434 . S
C1994 C1995 1.369 . S
C1994 C1996 1.419 . S
C1994 H1998 0.930 . S
C1995 C1994 1.369 . S
C1995 C2004 1.429 . S
C1996 C1994 1.419 . S
C1996 C1997 1.363 . S
C1996 H1999 0.929 . S
C1997 C1996 1.363 . S
C1997 C2003 1.428 . S
H1998 C1994 0.930 . S
H1999 C1996 0.929 . S
S2000 N2001 1.613 . S
S2000 N2002 1.610 . S
N2001 S2000 1.613 . S
N2001 C2004 1.350 . S
N2002 S2000 1.610 . S
N2002 C2003 1.351 . S
C2003 C1997 1.428 . S
C2003 N2002 1.351 . S
C2003 C2004 1.434 . S
C2004 C1995 1.429 . S
C2004 N2001 1.350 . S
C2004 C2003 1.434 . S
C2005 C2006 1.369 . S
C2005 C2007 1.419 . S
C2005 H2009 0.930 . S
C2006 C2005 1.369 . S
C2006 C2015 1.429 . S
C2007 C2005 1.419 . S
C2007 C2008 1.363 . S
C2007 H2010 0.929 . S
C2008 C2007 1.363 . S
C2008 C2014 1.428 . S
H2009 C2005 0.930 . S
H2010 C2007 0.929 . S
S2011 N2012 1.613 . S
S2011 N2013 1.610 . S
N2012 S2011 1.613 . S
N2012 C2015 1.350 . S
N2013 S2011 1.610 . S
N2013 C2014 1.351 . S
C2014 C2008 1.428 . S
C2014 N2013 1.351 . S
C2014 C2015 1.434 . S
C2015 C2006 1.429 . S
C2015 N2012 1.350 . S
C2015 C2014 1.434 . S
C2016 C2017 1.369 . S
C2016 C2018 1.419 . S
C2016 H2020 0.930 . S
C2017 C2016 1.369 . S
C2017 C2026 1.429 . S
C2018 C2016 1.419 . S
C2018 C2019 1.363 . S
C2018 H2021 0.929 . S
C2019 C2018 1.363 . S
C2019 C2025 1.428 . S
H2020 C2016 0.930 . S
H2021 C2018 0.929 . S
S2022 N2023 1.613 . S
S2022 N2024 1.610 . S
N2023 S2022 1.613 . S
N2023 C2026 1.350 . S
N2024 S2022 1.610 . S
N2024 C2025 1.351 . S
C2025 C2019 1.428 . S
C2025 N2024 1.351 . S
C2025 C2026 1.434 . S
C2026 C2017 1.429 . S
C2026 N2023 1.350 . S
C2026 C2025 1.434 . S
C2027 C2028 1.369 . S
C2027 C2029 1.419 . S
C2027 H2031 0.930 . S
C2028 C2027 1.369 . S
C2028 C2037 1.429 . S
C2029 C2027 1.419 . S
C2029 C2030 1.363 . S
C2029 H2032 0.929 . S
C2030 C2029 1.363 . S
C2030 C2036 1.428 . S
H2031 C2027 0.930 . S
H2032 C2029 0.929 . S
S2033 N2034 1.613 . S
S2033 N2035 1.610 . S
N2034 S2033 1.613 . S
N2034 C2037 1.350 . S
N2035 S2033 1.610 . S
N2035 C2036 1.351 . S
C2036 C2030 1.428 . S
C2036 N2035 1.351 . S
C2036 C2037 1.434 . S
C2037 C2028 1.429 . S
C2037 N2034 1.350 . S
C2037 C2036 1.434 . S
C2038 C2039 1.369 . S
C2038 C2040 1.419 . S
C2038 H2042 0.930 . S
C2039 C2038 1.369 . S
C2039 C2048 1.429 . S
C2040 C2038 1.419 . S
C2040 C2041 1.363 . S
C2040 H2043 0.929 . S
C2041 C2040 1.363 . S
C2041 C2047 1.428 . S
H2042 C2038 0.930 . S
H2043 C2040 0.929 . S
S2044 N2045 1.613 . S
S2044 N2046 1.610 . S
N2045 S2044 1.613 . S
N2045 C2048 1.350 . S
N2046 S2044 1.610 . S
N2046 C2047 1.351 . S
C2047 C2041 1.428 . S
C2047 N2046 1.351 . S
C2047 C2048 1.434 . S
C2048 C2039 1.429 . S
C2048 N2045 1.350 . S
C2048 C2047 1.434 . S
C2049 C2050 1.369 . S
C2049 C2051 1.419 . S
C2049 H2053 0.930 . S
C2050 C2049 1.369 . S
C2050 C2059 1.429 . S
C2051 C2049 1.419 . S
C2051 C2052 1.363 . S
C2051 H2054 0.929 . S
C2052 C2051 1.363 . S
C2052 C2058 1.428 . S
H2053 C2049 0.930 . S
H2054 C2051 0.929 . S
S2055 N2056 1.613 1_655 S
S2055 N2057 1.610 . S
N2056 S2055 1.613 1_455 S
N2056 C2059 1.350 . S
N2057 S2055 1.610 . S
N2057 C2058 1.351 1_655 S
C2058 C2052 1.428 . S
C2058 N2057 1.351 1_455 S
C2058 C2059 1.434 . S
C2059 C2050 1.429 . S
C2059 N2056 1.350 . S
C2059 C2058 1.434 . S
C2060 C2061 1.369 . S
C2060 C2062 1.419 . S
C2060 H2064 0.930 . S
C2061 C2060 1.369 . S
C2061 C2070 1.429 . S
C2062 C2060 1.419 . S
C2062 C2063 1.363 . S
C2062 H2065 0.929 . S
C2063 C2062 1.363 . S
C2063 C2069 1.428 . S
H2064 C2060 0.930 . S
H2065 C2062 0.929 . S
S2066 N2067 1.613 . S
S2066 N2068 1.610 . S
N2067 S2066 1.613 . S
N2067 C2070 1.350 . S
N2068 S2066 1.610 . S
N2068 C2069 1.351 . S
C2069 C2063 1.428 . S
C2069 N2068 1.351 . S
C2069 C2070 1.434 . S
C2070 C2061 1.429 . S
C2070 N2067 1.350 . S
C2070 C2069 1.434 . S
C2071 C2072 1.369 . S
C2071 C2073 1.419 . S
C2071 H2075 0.930 . S
C2072 C2071 1.369 . S
C2072 C2081 1.429 . S
C2073 C2071 1.419 . S
C2073 C2074 1.363 . S
C2073 H2076 0.929 . S
C2074 C2073 1.363 . S
C2074 C2080 1.428 . S
H2075 C2071 0.930 . S
H2076 C2073 0.929 . S
S2077 N2078 1.613 . S
S2077 N2079 1.610 . S
N2078 S2077 1.613 . S
N2078 C2081 1.350 . S
N2079 S2077 1.610 . S
N2079 C2080 1.351 . S
C2080 C2074 1.428 . S
C2080 N2079 1.351 . S
C2080 C2081 1.434 . S
C2081 C2072 1.429 . S
C2081 N2078 1.350 . S
C2081 C2080 1.434 . S
C2082 C2083 1.369 . S
C2082 C2084 1.419 . S
C2082 H2086 0.930 . S
C2083 C2082 1.369 . S
C2083 C2092 1.429 . S
C2084 C2082 1.419 . S
C2084 C2085 1.363 . S
C2084 H2087 0.929 . S
C2085 C2084 1.363 . S
C2085 C2091 1.428 . S
H2086 C2082 0.930 . S
H2087 C2084 0.929 . S
S2088 N2089 1.613 . S
S2088 N2090 1.610 . S
N2089 S2088 1.613 . S
N2089 C2092 1.350 . S
N2090 S2088 1.610 . S
N2090 C2091 1.351 . S
C2091 C2085 1.428 . S
C2091 N2090 1.351 . S
C2091 C2092 1.434 . S
C2092 C2083 1.429 . S
C2092 N2089 1.350 . S
C2092 C2091 1.434 . S
C2093 C2094 1.369 . S
C2093 C2095 1.419 . S
C2093 H2097 0.930 . S
C2094 C2093 1.369 . S
C2094 C2103 1.429 . S
C2095 C2093 1.419 . S
C2095 C2096 1.363 . S
C2095 H2098 0.929 . S
C2096 C2095 1.363 . S
C2096 C2102 1.428 . S
H2097 C2093 0.930 . S
H2098 C2095 0.929 . S
S2099 N2100 1.613 . S
S2099 N2101 1.610 . S
N2100 S2099 1.613 . S
N2100 C2103 1.350 . S
N2101 S2099 1.610 . S
N2101 C2102 1.351 . S
C2102 C2096 1.428 . S
C2102 N2101 1.351 . S
C2102 C2103 1.434 . S
C2103 C2094 1.429 . S
C2103 N2100 1.350 . S
C2103 C2102 1.434 . S
C2104 C2105 1.369 . S
C2104 C2106 1.419 . S
C2104 H2108 0.930 . S
C2105 C2104 1.369 . S
C2105 C2114 1.429 . S
C2106 C2104 1.419 . S
C2106 C2107 1.363 . S
C2106 H2109 0.929 . S
C2107 C2106 1.363 . S
C2107 C2113 1.428 . S
H2108 C2104 0.930 . S
H2109 C2106 0.929 . S
S2110 N2111 1.613 . S
S2110 N2112 1.610 . S
N2111 S2110 1.613 . S
N2111 C2114 1.350 . S
N2112 S2110 1.610 . S
N2112 C2113 1.351 . S
C2113 C2107 1.428 . S
C2113 N2112 1.351 . S
C2113 C2114 1.434 . S
C2114 C2105 1.429 . S
C2114 N2111 1.350 . S
C2114 C2113 1.434 . S
C2115 C2116 1.369 . S
C2115 C2117 1.419 . S
C2115 H2119 0.930 . S
C2116 C2115 1.369 . S
C2116 C2125 1.429 . S
C2117 C2115 1.419 . S
C2117 C2118 1.363 . S
C2117 H2120 0.929 . S
C2118 C2117 1.363 . S
C2118 C2124 1.428 . S
H2119 C2115 0.930 . S
H2120 C2117 0.929 . S
S2121 N2122 1.613 . S
S2121 N2123 1.610 . S
N2122 S2121 1.613 . S
N2122 C2125 1.350 . S
N2123 S2121 1.610 . S
N2123 C2124 1.351 . S
C2124 C2118 1.428 . S
C2124 N2123 1.351 . S
C2124 C2125 1.434 . S
C2125 C2116 1.429 . S
C2125 N2122 1.350 . S
C2125 C2124 1.434 . S
C2126 C2127 1.369 . S
C2126 C2128 1.419 . S
C2126 H2130 0.930 . S
C2127 C2126 1.369 . S
C2127 C2136 1.429 . S
C2128 C2126 1.419 . S
C2128 C2129 1.363 . S
C2128 H2131 0.929 . S
C2129 C2128 1.363 . S
C2129 C2135 1.428 . S
H2130 C2126 0.930 . S
H2131 C2128 0.929 . S
S2132 N2133 1.613 . S
S2132 N2134 1.610 . S
N2133 S2132 1.613 . S
N2133 C2136 1.350 . S
N2134 S2132 1.610 . S
N2134 C2135 1.351 . S
C2135 C2129 1.428 . S
C2135 N2134 1.351 . S
C2135 C2136 1.434 . S
C2136 C2127 1.429 . S
C2136 N2133 1.350 . S
C2136 C2135 1.434 . S
C2137 C2138 1.369 . S
C2137 C2139 1.419 . S
C2137 H2141 0.930 . S
C2138 C2137 1.369 . S
C2138 C2147 1.429 . S
C2139 C2137 1.419 . S
C2139 C2140 1.363 . S
C2139 H2142 0.929 . S
C2140 C2139 1.363 . S
C2140 C2146 1.428 . S
H2141 C2137 0.930 . S
H2142 C2139 0.929 . S
S2143 N2144 1.613 . S
S2143 N2145 1.610 . S
N2144 S2143 1.613 . S
N2144 C2147 1.350 . S
N2145 S2143 1.610 . S
N2145 C2146 1.351 . S
C2146 C2140 1.428 . S
C2146 N2145 1.351 . S
C2146 C2147 1.434 . S
C2147 C2138 1.429 . S
C2147 N2144 1.350 . S
C2147 C2146 1.434 . S
C2148 C2149 1.369 . S
C2148 C2150 1.419 . S
C2148 H2152 0.930 . S
C2149 C2148 1.369 . S
C2149 C2158 1.429 . S
C2150 C2148 1.419 . S
C2150 C2151 1.363 . S
C2150 H2153 0.929 . S
C2151 C2150 1.363 . S
C2151 C2157 1.428 . S
H2152 C2148 0.930 . S
H2153 C2150 0.929 . S
S2154 N2155 1.613 . S
S2154 N2156 1.610 . S
N2155 S2154 1.613 . S
N2155 C2158 1.350 . S
N2156 S2154 1.610 . S
N2156 C2157 1.351 . S
C2157 C2151 1.428 . S
C2157 N2156 1.351 . S
C2157 C2158 1.434 . S
C2158 C2149 1.429 . S
C2158 N2155 1.350 . S
C2158 C2157 1.434 . S
C2159 C2160 1.369 . S
C2159 C2161 1.419 . S
C2159 H2163 0.930 . S
C2160 C2159 1.369 . S
C2160 C2169 1.429 . S
C2161 C2159 1.419 . S
C2161 C2162 1.363 . S
C2161 H2164 0.929 . S
C2162 C2161 1.363 . S
C2162 C2168 1.428 . S
H2163 C2159 0.930 . S
H2164 C2161 0.929 . S
S2165 N2166 1.613 . S
S2165 N2167 1.610 . S
N2166 S2165 1.613 . S
N2166 C2169 1.350 . S
N2167 S2165 1.610 . S
N2167 C2168 1.351 . S
C2168 C2162 1.428 . S
C2168 N2167 1.351 . S
C2168 C2169 1.434 . S
C2169 C2160 1.429 . S
C2169 N2166 1.350 . S
C2169 C2168 1.434 . S
C2170 C2171 1.369 . S
C2170 C2172 1.419 . S
C2170 H2174 0.930 . S
C2171 C2170 1.369 . S
C2171 C2180 1.429 . S
C2172 C2170 1.419 . S
C2172 C2173 1.363 . S
C2172 H2175 0.929 . S
C2173 C2172 1.363 . S
C2173 C2179 1.428 . S
H2174 C2170 0.930 . S
H2175 C2172 0.929 . S
S2176 N2177 1.613 . S
S2176 N2178 1.610 . S
N2177 S2176 1.613 . S
N2177 C2180 1.350 . S
N2178 S2176 1.610 . S
N2178 C2179 1.351 . S
C2179 C2173 1.428 . S
C2179 N2178 1.351 . S
C2179 C2180 1.434 . S
C2180 C2171 1.429 . S
C2180 N2177 1.350 . S
C2180 C2179 1.434 . S
C2181 C2182 1.369 . S
C2181 C2183 1.419 . S
C2181 H2185 0.930 . S
C2182 C2181 1.369 . S
C2182 C2191 1.429 . S
C2183 C2181 1.419 . S
C2183 C2184 1.363 . S
C2183 H2186 0.929 . S
C2184 C2183 1.363 . S
C2184 C2190 1.428 . S
H2185 C2181 0.930 . S
H2186 C2183 0.929 . S
S2187 N2188 1.613 . S
S2187 N2189 1.610 . S
N2188 S2187 1.613 . S
N2188 C2191 1.350 . S
N2189 S2187 1.610 . S
N2189 C2190 1.351 . S
C2190 C2184 1.428 . S
C2190 N2189 1.351 . S
C2190 C2191 1.434 . S
C2191 C2182 1.429 . S
C2191 N2188 1.350 . S
C2191 C2190 1.434 . S
C2192 C2193 1.369 . S
C2192 C2194 1.419 . S
C2192 H2196 0.930 . S
C2193 C2192 1.369 . S
C2193 C2202 1.429 . S
C2194 C2192 1.419 . S
C2194 C2195 1.363 . S
C2194 H2197 0.929 . S
C2195 C2194 1.363 . S
C2195 C2201 1.428 . S
H2196 C2192 0.930 . S
H2197 C2194 0.929 . S
S2198 N2199 1.613 . S
S2198 N2200 1.610 . S
N2199 S2198 1.613 . S
N2199 C2202 1.350 . S
N2200 S2198 1.610 . S
N2200 C2201 1.351 . S
C2201 C2195 1.428 . S
C2201 N2200 1.351 . S
C2201 C2202 1.434 . S
C2202 C2193 1.429 . S
C2202 N2199 1.350 . S
C2202 C2201 1.434 . S
C2203 C2204 1.369 . S
C2203 C2205 1.419 . S
C2203 H2207 0.930 . S
C2204 C2203 1.369 . S
C2204 C2213 1.429 . S
C2205 C2203 1.419 . S
C2205 C2206 1.363 . S
C2205 H2208 0.929 . S
C2206 C2205 1.363 . S
C2206 C2212 1.428 . S
H2207 C2203 0.930 . S
H2208 C2205 0.929 . S
S2209 N2210 1.613 . S
S2209 N2211 1.610 . S
N2210 S2209 1.613 . S
N2210 C2213 1.350 . S
N2211 S2209 1.610 . S
N2211 C2212 1.351 . S
C2212 C2206 1.428 . S
C2212 N2211 1.351 . S
C2212 C2213 1.434 . S
C2213 C2204 1.429 . S
C2213 N2210 1.350 . S
C2213 C2212 1.434 . S
C2214 C2215 1.369 . S
C2214 C2216 1.419 . S
C2214 H2218 0.930 . S
C2215 C2214 1.369 . S
C2215 C2224 1.429 . S
C2216 C2214 1.419 . S
C2216 C2217 1.363 . S
C2216 H2219 0.929 . S
C2217 C2216 1.363 . S
C2217 C2223 1.428 . S
H2218 C2214 0.930 . S
H2219 C2216 0.929 . S
S2220 N2221 1.613 1_565 S
S2220 N2222 1.610 . S
N2221 S2220 1.613 1_545 S
N2221 C2224 1.350 . S
N2222 S2220 1.610 . S
N2222 C2223 1.351 1_565 S
C2223 C2217 1.428 . S
C2223 N2222 1.351 1_545 S
C2223 C2224 1.434 . S
C2224 C2215 1.429 . S
C2224 N2221 1.350 . S
C2224 C2223 1.434 . S
C2225 C2226 1.369 . S
C2225 C2227 1.419 . S
C2225 H2229 0.930 . S
C2226 C2225 1.369 . S
C2226 C2235 1.429 . S
C2227 C2225 1.419 . S
C2227 C2228 1.363 . S
C2227 H2230 0.929 . S
C2228 C2227 1.363 . S
C2228 C2234 1.428 . S
H2229 C2225 0.930 . S
H2230 C2227 0.929 . S
S2231 N2232 1.613 . S
S2231 N2233 1.610 . S
N2232 S2231 1.613 . S
N2232 C2235 1.350 . S
N2233 S2231 1.610 . S
N2233 C2234 1.351 . S
C2234 C2228 1.428 . S
C2234 N2233 1.351 . S
C2234 C2235 1.434 . S
C2235 C2226 1.429 . S
C2235 N2232 1.350 . S
C2235 C2234 1.434 . S
C2236 C2237 1.369 . S
C2236 C2238 1.419 . S
C2236 H2240 0.930 . S
C2237 C2236 1.369 . S
C2237 C2246 1.429 . S
C2238 C2236 1.419 . S
C2238 C2239 1.363 . S
C2238 H2241 0.929 . S
C2239 C2238 1.363 . S
C2239 C2245 1.428 . S
H2240 C2236 0.930 . S
H2241 C2238 0.929 . S
S2242 N2243 1.613 . S
S2242 N2244 1.610 . S
N2243 S2242 1.613 . S
N2243 C2246 1.350 . S
N2244 S2242 1.610 . S
N2244 C2245 1.351 . S
C2245 C2239 1.428 . S
C2245 N2244 1.351 . S
C2245 C2246 1.434 . S
C2246 C2237 1.429 . S
C2246 N2243 1.350 . S
C2246 C2245 1.434 . S
C2247 C2248 1.369 . S
C2247 C2249 1.419 . S
C2247 H2251 0.930 . S
C2248 C2247 1.369 . S
C2248 C2257 1.429 . S
C2249 C2247 1.419 . S
C2249 C2250 1.363 . S
C2249 H2252 0.929 . S
C2250 C2249 1.363 . S
C2250 C2256 1.428 . S
H2251 C2247 0.930 . S
H2252 C2249 0.929 . S
S2253 N2254 1.613 . S
S2253 N2255 1.610 . S
N2254 S2253 1.613 . S
N2254 C2257 1.350 . S
N2255 S2253 1.610 . S
N2255 C2256 1.351 . S
C2256 C2250 1.428 . S
C2256 N2255 1.351 . S
C2256 C2257 1.434 . S
C2257 C2248 1.429 . S
C2257 N2254 1.350 . S
C2257 C2256 1.434 . S
C2258 C2259 1.369 . S
C2258 C2260 1.419 . S
C2258 H2262 0.930 . S
C2259 C2258 1.369 . S
C2259 C2268 1.429 . S
C2260 C2258 1.419 . S
C2260 C2261 1.363 . S
C2260 H2263 0.929 . S
C2261 C2260 1.363 . S
C2261 C2267 1.428 . S
H2262 C2258 0.930 . S
H2263 C2260 0.929 . S
S2264 N2265 1.613 . S
S2264 N2266 1.610 1_545 S
N2265 S2264 1.613 . S
N2265 C2268 1.350 1_545 S
N2266 S2264 1.610 1_565 S
N2266 C2267 1.351 . S
C2267 C2261 1.428 . S
C2267 N2266 1.351 . S
C2267 C2268 1.434 . S
C2268 C2259 1.429 . S
C2268 N2265 1.350 1_565 S
C2268 C2267 1.434 . S
C2269 C2270 1.369 . S
C2269 C2271 1.419 . S
C2269 H2273 0.930 1_545 S
C2270 C2269 1.369 . S
C2270 C2279 1.429 . S
C2271 C2269 1.419 . S
C2271 C2272 1.363 . S
C2271 H2274 0.929 . S
C2272 C2271 1.363 . S
C2272 C2278 1.428 . S
H2273 C2269 0.930 1_565 S
H2274 C2271 0.929 . S
S2275 N2276 1.613 . S
S2275 N2277 1.610 . S
N2276 S2275 1.613 . S
N2276 C2279 1.350 . S
N2277 S2275 1.610 . S
N2277 C2278 1.351 . S
C2278 C2272 1.428 . S
C2278 N2277 1.351 . S
C2278 C2279 1.434 . S
C2279 C2270 1.429 . S
C2279 N2276 1.350 . S
C2279 C2278 1.434 . S
C2280 C2281 1.369 . S
C2280 C2282 1.419 . S
C2280 H2284 0.930 . S
C2281 C2280 1.369 . S
C2281 C2290 1.429 . S
C2282 C2280 1.419 . S
C2282 C2283 1.363 . S
C2282 H2285 0.929 . S
C2283 C2282 1.363 . S
C2283 C2289 1.428 . S
H2284 C2280 0.930 . S
H2285 C2282 0.929 . S
S2286 N2287 1.613 . S
S2286 N2288 1.610 . S
N2287 S2286 1.613 . S
N2287 C2290 1.350 . S
N2288 S2286 1.610 . S
N2288 C2289 1.351 . S
C2289 C2283 1.428 . S
C2289 N2288 1.351 . S
C2289 C2290 1.434 . S
C2290 C2281 1.429 . S
C2290 N2287 1.350 . S
C2290 C2289 1.434 . S
C2291 C2292 1.369 . S
C2291 C2293 1.419 . S
C2291 H2295 0.930 . S
C2292 C2291 1.369 . S
C2292 C2301 1.429 . S
C2293 C2291 1.419 . S
C2293 C2294 1.363 . S
C2293 H2296 0.929 . S
C2294 C2293 1.363 . S
C2294 C2300 1.428 . S
H2295 C2291 0.930 . S
H2296 C2293 0.929 . S
S2297 N2298 1.613 . S
S2297 N2299 1.610 . S
N2298 S2297 1.613 . S
N2298 C2301 1.350 . S
N2299 S2297 1.610 . S
N2299 C2300 1.351 . S
C2300 C2294 1.428 . S
C2300 N2299 1.351 . S
C2300 C2301 1.434 . S
C2301 C2292 1.429 . S
C2301 N2298 1.350 . S
C2301 C2300 1.434 . S
C2302 C2303 1.369 . S
C2302 C2304 1.419 . S
C2302 H2306 0.930 . S
C2303 C2302 1.369 . S
C2303 C2312 1.429 . S
C2304 C2302 1.419 . S
C2304 C2305 1.363 . S
C2304 H2307 0.929 . S
C2305 C2304 1.363 . S
C2305 C2311 1.428 . S
H2306 C2302 0.930 . S
H2307 C2304 0.929 . S
S2308 N2309 1.613 . S
S2308 N2310 1.610 . S
N2309 S2308 1.613 . S
N2309 C2312 1.350 . S
N2310 S2308 1.610 . S
N2310 C2311 1.351 . S
C2311 C2305 1.428 . S
C2311 N2310 1.351 . S
C2311 C2312 1.434 . S
C2312 C2303 1.429 . S
C2312 N2309 1.350 . S
C2312 C2311 1.434 . S
C2313 C2314 1.369 . S
C2313 C2315 1.419 . S
C2313 H2317 0.930 . S
C2314 C2313 1.369 . S
C2314 C2323 1.429 . S
C2315 C2313 1.419 . S
C2315 C2316 1.363 . S
C2315 H2318 0.929 . S
C2316 C2315 1.363 . S
C2316 C2322 1.428 . S
H2317 C2313 0.930 . S
H2318 C2315 0.929 . S
S2319 N2320 1.613 . S
S2319 N2321 1.610 . S
N2320 S2319 1.613 . S
N2320 C2323 1.350 . S
N2321 S2319 1.610 . S
N2321 C2322 1.351 . S
C2322 C2316 1.428 . S
C2322 N2321 1.351 . S
C2322 C2323 1.434 . S
C2323 C2314 1.429 . S
C2323 N2320 1.350 . S
C2323 C2322 1.434 . S
C2324 C2325 1.369 . S
C2324 C2326 1.419 . S
C2324 H2328 0.930 . S
C2325 C2324 1.369 . S
C2325 C2334 1.429 . S
C2326 C2324 1.419 . S
C2326 C2327 1.363 . S
C2326 H2329 0.929 . S
C2327 C2326 1.363 . S
C2327 C2333 1.428 . S
H2328 C2324 0.930 . S
H2329 C2326 0.929 . S
S2330 N2331 1.613 . S
S2330 N2332 1.610 . S
N2331 S2330 1.613 . S
N2331 C2334 1.350 . S
N2332 S2330 1.610 . S
N2332 C2333 1.351 . S
C2333 C2327 1.428 . S
C2333 N2332 1.351 . S
C2333 C2334 1.434 . S
C2334 C2325 1.429 . S
C2334 N2331 1.350 . S
C2334 C2333 1.434 . S
C2335 C2336 1.369 . S
C2335 C2337 1.419 . S
C2335 H2339 0.930 . S
C2336 C2335 1.369 . S
C2336 C2345 1.429 . S
C2337 C2335 1.419 . S
C2337 C2338 1.363 . S
C2337 H2340 0.929 . S
C2338 C2337 1.363 . S
C2338 C2344 1.428 . S
H2339 C2335 0.930 . S
H2340 C2337 0.929 . S
S2341 N2342 1.613 1_455 S
S2341 N2343 1.610 1_455 S
N2342 S2341 1.613 1_655 S
N2342 C2345 1.350 . S
N2343 S2341 1.610 1_655 S
N2343 C2344 1.351 . S
C2344 C2338 1.428 . S
C2344 N2343 1.351 . S
C2344 C2345 1.434 . S
C2345 C2336 1.429 . S
C2345 N2342 1.350 . S
C2345 C2344 1.434 . S
C2346 C2347 1.369 . S
C2346 C2348 1.419 . S
C2346 H2350 0.930 . S
C2347 C2346 1.369 . S
C2347 C2356 1.429 . S
C2348 C2346 1.419 . S
C2348 C2349 1.363 . S
C2348 H2351 0.929 . S
C2349 C2348 1.363 . S
C2349 C2355 1.428 . S
H2350 C2346 0.930 . S
H2351 C2348 0.929 . S
S2352 N2353 1.613 . S
S2352 N2354 1.610 . S
N2353 S2352 1.613 . S
N2353 C2356 1.350 . S
N2354 S2352 1.610 . S
N2354 C2355 1.351 . S
C2355 C2349 1.428 . S
C2355 N2354 1.351 . S
C2355 C2356 1.434 . S
C2356 C2347 1.429 . S
C2356 N2353 1.350 . S
C2356 C2355 1.434 . S
C2357 C2358 1.369 . S
C2357 C2359 1.419 . S
C2357 H2361 0.930 . S
C2358 C2357 1.369 . S
C2358 C2367 1.429 . S
C2359 C2357 1.419 . S
C2359 C2360 1.363 . S
C2359 H2362 0.929 . S
C2360 C2359 1.363 . S
C2360 C2366 1.428 . S
H2361 C2357 0.930 . S
H2362 C2359 0.929 . S
S2363 N2364 1.613 . S
S2363 N2365 1.610 . S
N2364 S2363 1.613 . S
N2364 C2367 1.350 . S
N2365 S2363 1.610 . S
N2365 C2366 1.351 . S
C2366 C2360 1.428 . S
C2366 N2365 1.351 . S
C2366 C2367 1.434 . S
C2367 C2358 1.429 . S
C2367 N2364 1.350 . S
C2367 C2366 1.434 . S
C2368 C2369 1.369 . S
C2368 C2370 1.419 . S
C2368 H2372 0.930 . S
C2369 C2368 1.369 . S
C2369 C2378 1.429 . S
C2370 C2368 1.419 . S
C2370 C2371 1.363 . S
C2370 H2373 0.929 . S
C2371 C2370 1.363 . S
C2371 C2377 1.428 . S
H2372 C2368 0.930 . S
H2373 C2370 0.929 . S
S2374 N2375 1.613 . S
S2374 N2376 1.610 . S
N2375 S2374 1.613 . S
N2375 C2378 1.350 . S
N2376 S2374 1.610 . S
N2376 C2377 1.351 . S
C2377 C2371 1.428 . S
C2377 N2376 1.351 . S
C2377 C2378 1.434 . S
C2378 C2369 1.429 . S
C2378 N2375 1.350 . S
C2378 C2377 1.434 . S
C2379 C2380 1.369 . S
C2379 C2381 1.419 . S
C2379 H2383 0.930 . S
C2380 C2379 1.369 . S
C2380 C2389 1.429 . S
C2381 C2379 1.419 . S
C2381 C2382 1.363 . S
C2381 H2384 0.929 . S
C2382 C2381 1.363 . S
C2382 C2388 1.428 . S
H2383 C2379 0.930 . S
H2384 C2381 0.929 . S
S2385 N2386 1.613 . S
S2385 N2387 1.610 . S
N2386 S2385 1.613 . S
N2386 C2389 1.350 . S
N2387 S2385 1.610 . S
N2387 C2388 1.351 . S
C2388 C2382 1.428 . S
C2388 N2387 1.351 . S
C2388 C2389 1.434 . S
C2389 C2380 1.429 . S
C2389 N2386 1.350 . S
C2389 C2388 1.434 . S
C2390 C2391 1.369 . S
C2390 C2392 1.419 . S
C2390 H2394 0.930 . S
C2391 C2390 1.369 . S
C2391 C2400 1.429 . S
C2392 C2390 1.419 . S
C2392 C2393 1.363 . S
C2392 H2395 0.929 . S
C2393 C2392 1.363 . S
C2393 C2399 1.428 . S
H2394 C2390 0.930 . S
H2395 C2392 0.929 . S
S2396 N2397 1.613 . S
S2396 N2398 1.610 . S
N2397 S2396 1.613 . S
N2397 C2400 1.350 . S
N2398 S2396 1.610 . S
N2398 C2399 1.351 . S
C2399 C2393 1.428 . S
C2399 N2398 1.351 . S
C2399 C2400 1.434 . S
C2400 C2391 1.429 . S
C2400 N2397 1.350 . S
C2400 C2399 1.434 . S
C2401 C2402 1.369 . S
C2401 C2403 1.419 . S
C2401 H2405 0.930 . S
C2402 C2401 1.369 . S
C2402 C2411 1.429 . S
C2403 C2401 1.419 . S
C2403 C2404 1.363 . S
C2403 H2406 0.929 . S
C2404 C2403 1.363 . S
C2404 C2410 1.428 . S
H2405 C2401 0.930 . S
H2406 C2403 0.929 . S
S2407 N2408 1.613 . S
S2407 N2409 1.610 . S
N2408 S2407 1.613 . S
N2408 C2411 1.350 . S
N2409 S2407 1.610 . S
N2409 C2410 1.351 . S
C2410 C2404 1.428 . S
C2410 N2409 1.351 . S
C2410 C2411 1.434 . S
C2411 C2402 1.429 . S
C2411 N2408 1.350 . S
C2411 C2410 1.434 . S
C2412 C2413 1.369 . S
C2412 C2414 1.419 . S
C2412 H2416 0.930 . S
C2413 C2412 1.369 . S
C2413 C2422 1.429 . S
C2414 C2412 1.419 . S
C2414 C2415 1.363 . S
C2414 H2417 0.929 . S
C2415 C2414 1.363 . S
C2415 C2421 1.428 . S
H2416 C2412 0.930 . S
H2417 C2414 0.929 . S
S2418 N2419 1.613 . S
S2418 N2420 1.610 . S
N2419 S2418 1.613 . S
N2419 C2422 1.350 . S
N2420 S2418 1.610 . S
N2420 C2421 1.351 . S
C2421 C2415 1.428 . S
C2421 N2420 1.351 . S
C2421 C2422 1.434 . S
C2422 C2413 1.429 . S
C2422 N2419 1.350 . S
C2422 C2421 1.434 . S
C2423 C2424 1.369 . S
C2423 C2425 1.419 . S
C2423 H2427 0.930 . S
C2424 C2423 1.369 . S
C2424 C2433 1.429 . S
C2425 C2423 1.419 . S
C2425 C2426 1.363 . S
C2425 H2428 0.929 . S
C2426 C2425 1.363 . S
C2426 C2432 1.428 . S
H2427 C2423 0.930 . S
H2428 C2425 0.929 . S
S2429 N2430 1.613 . S
S2429 N2431 1.610 . S
N2430 S2429 1.613 . S
N2430 C2433 1.350 . S
N2431 S2429 1.610 . S
N2431 C2432 1.351 . S
C2432 C2426 1.428 . S
C2432 N2431 1.351 . S
C2432 C2433 1.434 . S
C2433 C2424 1.429 . S
C2433 N2430 1.350 . S
C2433 C2432 1.434 . S
C2434 C2435 1.369 . S
C2434 C2436 1.419 . S
C2434 H2438 0.930 . S
C2435 C2434 1.369 . S
C2435 C2444 1.429 . S
C2436 C2434 1.419 . S
C2436 C2437 1.363 . S
C2436 H2439 0.929 . S
C2437 C2436 1.363 . S
C2437 C2443 1.428 . S
H2438 C2434 0.930 . S
H2439 C2436 0.929 . S
S2440 N2441 1.613 . S
S2440 N2442 1.610 . S
N2441 S2440 1.613 . S
N2441 C2444 1.350 . S
N2442 S2440 1.610 . S
N2442 C2443 1.351 . S
C2443 C2437 1.428 . S
C2443 N2442 1.351 . S
C2443 C2444 1.434 . S
C2444 C2435 1.429 . S
C2444 N2441 1.350 . S
C2444 C2443 1.434 . S
C2445 C2446 1.369 . S
C2445 C2447 1.419 . S
C2445 H2449 0.930 . S
C2446 C2445 1.369 . S
C2446 C2455 1.429 . S
C2447 C2445 1.419 . S
C2447 C2448 1.363 . S
C2447 H2450 0.929 . S
C2448 C2447 1.363 . S
C2448 C2454 1.428 . S
H2449 C2445 0.930 . S
H2450 C2447 0.929 . S
S2451 N2452 1.613 . S
S2451 N2453 1.610 . S
N2452 S2451 1.613 . S
N2452 C2455 1.350 . S
N2453 S2451 1.610 . S
N2453 C2454 1.351 . S
C2454 C2448 1.428 . S
C2454 N2453 1.351 . S
C2454 C2455 1.434 . S
C2455 C2446 1.429 . S
C2455 N2452 1.350 . S
C2455 C2454 1.434 . S
C2456 C2457 1.369 . S
C2456 C2458 1.419 . S
C2456 H2460 0.930 . S
C2457 C2456 1.369 . S
C2457 C2466 1.429 . S
C2458 C2456 1.419 . S
C2458 C2459 1.363 . S
C2458 H2461 0.929 . S
C2459 C2458 1.363 . S
C2459 C2465 1.428 . S
H2460 C2456 0.930 . S
H2461 C2458 0.929 . S
S2462 N2463 1.613 . S
S2462 N2464 1.610 . S
N2463 S2462 1.613 . S
N2463 C2466 1.350 . S
N2464 S2462 1.610 . S
N2464 C2465 1.351 . S
C2465 C2459 1.428 . S
C2465 N2464 1.351 . S
C2465 C2466 1.434 . S
C2466 C2457 1.429 . S
C2466 N2463 1.350 . S
C2466 C2465 1.434 . S
C2467 C2468 1.369 . S
C2467 C2469 1.419 . S
C2467 H2471 0.930 . S
C2468 C2467 1.369 . S
C2468 C2477 1.429 . S
C2469 C2467 1.419 . S
C2469 C2470 1.363 . S
C2469 H2472 0.929 . S
C2470 C2469 1.363 . S
C2470 C2476 1.428 . S
H2471 C2467 0.930 . S
H2472 C2469 0.929 . S
S2473 N2474 1.613 . S
S2473 N2475 1.610 . S
N2474 S2473 1.613 . S
N2474 C2477 1.350 . S
N2475 S2473 1.610 . S
N2475 C2476 1.351 . S
C2476 C2470 1.428 . S
C2476 N2475 1.351 . S
C2476 C2477 1.434 . S
C2477 C2468 1.429 . S
C2477 N2474 1.350 . S
C2477 C2476 1.434 . S
C2478 C2479 1.369 . S
C2478 C2480 1.419 . S
C2478 H2482 0.930 . S
C2479 C2478 1.369 . S
C2479 C2488 1.429 . S
C2480 C2478 1.419 . S
C2480 C2481 1.363 . S
C2480 H2483 0.929 . S
C2481 C2480 1.363 . S
C2481 C2487 1.428 . S
H2482 C2478 0.930 . S
H2483 C2480 0.929 . S
S2484 N2485 1.613 . S
S2484 N2486 1.610 . S
N2485 S2484 1.613 . S
N2485 C2488 1.350 . S
N2486 S2484 1.610 . S
N2486 C2487 1.351 . S
C2487 C2481 1.428 . S
C2487 N2486 1.351 . S
C2487 C2488 1.434 . S
C2488 C2479 1.429 . S
C2488 N2485 1.350 . S
C2488 C2487 1.434 . S
C2489 C2490 1.369 . S
C2489 C2491 1.419 . S
C2489 H2493 0.930 . S
C2490 C2489 1.369 . S
C2490 C2499 1.429 . S
C2491 C2489 1.419 . S
C2491 C2492 1.363 . S
C2491 H2494 0.929 . S
C2492 C2491 1.363 . S
C2492 C2498 1.428 . S
H2493 C2489 0.930 . S
H2494 C2491 0.929 . S
S2495 N2496 1.613 . S
S2495 N2497 1.610 . S
N2496 S2495 1.613 . S
N2496 C2499 1.350 . S
N2497 S2495 1.610 . S
N2497 C2498 1.351 . S
C2498 C2492 1.428 . S
C2498 N2497 1.351 . S
C2498 C2499 1.434 . S
C2499 C2490 1.429 . S
C2499 N2496 1.350 . S
C2499 C2498 1.434 . S
C2500 C2501 1.369 . S
C2500 C2502 1.419 . S
C2500 H2504 0.930 . S
C2501 C2500 1.369 . S
C2501 C2510 1.429 . S
C2502 C2500 1.419 . S
C2502 C2503 1.363 . S
C2502 H2505 0.929 . S
C2503 C2502 1.363 . S
C2503 C2509 1.428 . S
H2504 C2500 0.930 . S
H2505 C2502 0.929 . S
S2506 N2507 1.613 . S
S2506 N2508 1.610 . S
N2507 S2506 1.613 . S
N2507 C2510 1.350 . S
N2508 S2506 1.610 . S
N2508 C2509 1.351 . S
C2509 C2503 1.428 . S
C2509 N2508 1.351 . S
C2509 C2510 1.434 . S
C2510 C2501 1.429 . S
C2510 N2507 1.350 . S
C2510 C2509 1.434 . S
C2511 C2512 1.369 . S
C2511 C2513 1.419 . S
C2511 H2515 0.930 . S
C2512 C2511 1.369 . S
C2512 C2521 1.429 . S
C2513 C2511 1.419 . S
C2513 C2514 1.363 . S
C2513 H2516 0.929 . S
C2514 C2513 1.363 . S
C2514 C2520 1.428 . S
H2515 C2511 0.930 . S
H2516 C2513 0.929 . S
S2517 N2518 1.613 . S
S2517 N2519 1.610 . S
N2518 S2517 1.613 . S
N2518 C2521 1.350 . S
N2519 S2517 1.610 . S
N2519 C2520 1.351 . S
C2520 C2514 1.428 . S
C2520 N2519 1.351 . S
C2520 C2521 1.434 . S
C2521 C2512 1.429 . S
C2521 N2518 1.350 . S
C2521 C2520 1.434 . S
C2522 C2523 1.369 . S
C2522 C2524 1.419 . S
C2522 H2526 0.930 . S
C2523 C2522 1.369 . S
C2523 C2532 1.429 . S
C2524 C2522 1.419 . S
C2524 C2525 1.363 . S
C2524 H2527 0.929 . S
C2525 C2524 1.363 . S
C2525 C2531 1.428 . S
H2526 C2522 0.930 . S
H2527 C2524 0.929 . S
S2528 N2529 1.613 1_565 S
S2528 N2530 1.610 1_565 S
N2529 S2528 1.613 1_545 S
N2529 C2532 1.350 . S
N2530 S2528 1.610 1_545 S
N2530 C2531 1.351 . S
C2531 C2525 1.428 . S
C2531 N2530 1.351 . S
C2531 C2532 1.434 . S
C2532 C2523 1.429 . S
C2532 N2529 1.350 . S
C2532 C2531 1.434 . S
C2533 C2534 1.369 . S
C2533 C2535 1.419 . S
C2533 H2537 0.930 . S
C2534 C2533 1.369 . S
C2534 C2543 1.429 . S
C2535 C2533 1.419 . S
C2535 C2536 1.363 . S
C2535 H2538 0.929 . S
C2536 C2535 1.363 . S
C2536 C2542 1.428 . S
H2537 C2533 0.930 . S
H2538 C2535 0.929 . S
S2539 N2540 1.613 . S
S2539 N2541 1.610 . S
N2540 S2539 1.613 . S
N2540 C2543 1.350 . S
N2541 S2539 1.610 . S
N2541 C2542 1.351 . S
C2542 C2536 1.428 . S
C2542 N2541 1.351 . S
C2542 C2543 1.434 . S
C2543 C2534 1.429 . S
C2543 N2540 1.350 . S
C2543 C2542 1.434 . S
C961 C8 2.615 . S
C963 C99 2.486 . S
C972 C39 2.697 . S
C974 C109 2.417 . S
C983 C139 2.232 . S
C985 C49 2.066 . S
C994 C159 1.933 . S
C996 C69 1.740 . S
C1005 C179 2.228 . S
C1007 C199 2.219 . S
C1016 C189 2.066 . S
C1018 C219 2.221 . S
C1027 C229 1.979 1_545 S
C1029 C209 1.961 . S
C1038 C239 2.140 . S
C1040 C169 1.984 . S
C1049 C249 2.305 . S
C1051 C79 2.504 . S
C1060 C149 1.722 . S
C1062 C679 1.941 . S
C1071 C89 2.030 . S
C1073 C269 1.995 . S
C1082 C119 1.942 . S
C1084 C689 1.719 . S
C1093 C29 2.299 . S
C1095 C299 2.508 . S
C1104 C639 2.234 . S
C1106 C2 2.135 . S
C1115 C602 2.130 . S
C1117 C59 2.239 . S
C1126 C398 2.487 . S
C1128 C309 2.615 . S
C1137 C338 2.699 . S
C1139 C408 2.414 . S
C1148 C348 2.070 . S
C1150 C438 2.231 . S
C1159 C368 1.748 . S
C1161 C458 1.927 . S
C1170 C498 2.221 . S
C1172 C478 2.229 . S
C1181 C488 2.055 . S
C1183 C518 2.227 . S
C1192 C528 1.980 1_565 S
C1194 C508 1.964 . S
C1203 C468 1.993 . S
C1205 C538 2.134 . S
C1214 C378 2.502 . S
C1216 C548 2.307 . S
C1225 C858 1.942 . S
C1227 C448 1.719 . S
C1236 C568 1.996 . S
C1238 C388 2.032 . S
C1247 C418 1.943 . S
C1249 C868 1.719 . S
C1258 C598 2.508 . S
C1260 C328 2.301 . S
C1269 C301 2.134 . S
C1271 C818 2.237 . S
C1280 C358 2.240 . S
C1282 C781 2.131 . S
C1291 C659 2.491 . S
C1293 C608 2.612 . S
C1302 C669 2.408 . S
C1304 C259 2.702 . S
C1313 C629 2.059 . S
C1315 C279 2.238 . S
C1324 C699 1.926 . S
C1326 C289 1.747 . S
C1335 C719 2.231 . S
C1337 C739 2.216 . S
C1346 C729 2.057 . S
C1348 C759 2.227 . S
C1357 C769 1.980 . S
C1359 C749 1.965 . S
C1368 C709 1.993 . S
C1370 C779 2.135 . S
C1379 C129 1.996 . S
C1381 C649 2.028 . S
C1390 C838 2.492 . S
C1392 C789 2.613 . S
C1401 C848 2.408 . S
C1403 C558 2.702 . S
C1412 C578 2.237 . S
C1414 C808 2.061 . S
C1423 C878 1.933 . S
C1425 C588 1.740 . S
C1434 C898 2.227 . S
C1436 C918 2.220 . S
C1445 C908 2.054 . S
C1447 C938 2.228 . S
C1456 C928 1.965 . S
C1458 C948 1.979 . S
C1467 C958 2.139 . S
C1469 C888 1.984 . S
C1478 C828 2.033 . S
C1480 C428 1.996 . S
C1489 C9 0.654 . S
C1491 C321 0.638 . S
C1500 C802 1.110 . S
C1502 C38 1.070 . S
C1511 C48 0.674 . S
C1513 C362 0.699 . S
C1522 C68 1.297 . S
C1524 C799 1.294 . S
C1533 C98 1.338 . S
C1535 C441 1.412 . S
C1544 C108 1.247 . S
C1546 C821 1.247 . S
C1555 C138 1.401 . S
C1557 C402 1.380 . S
C1566 C561 1.125 . S
C1568 C158 1.061 . S
C1577 C178 1.098 . S
C1579 C798 1.153 . S
C1588 C188 0.685 . S
C1590 C322 0.702 . S
C1599 C208 0.841 . S
C1601 C801 0.843 . S
C1610 C361 1.182 . S
C1612 C238 1.138 . S
C1621 C822 1.375 . S
C1623 C228 1.554 . S
C1632 C401 0.799 . S
C1634 C168 0.793 . S
C1643 C198 1.133 . S
C1645 C562 1.126 . S
C1654 C442 1.488 . S
C1656 C218 1.484 . S
C1665 C882 0.828 . S
C1667 C248 0.838 . S
C1676 C521 1.059 . S
C1678 C148 1.054 . S
C1687 C88 0.715 . S
C1689 C881 0.714 . S
C1698 C118 0.939 . S
C1700 C482 0.952 . S
C1709 C268 1.464 . S
C1711 C502 1.330 . S
C1720 C921 1.070 . S
C1722 C298 1.013 . S
C1731 C1 0.886 . S
C1733 C942 0.898 . S
C1742 C58 0.855 . S
C1744 C901 0.861 . S
C1753 C22 0.635 . S
C1755 C308 0.649 . S
C1764 C339 1.074 . S
C1766 C621 1.108 . S
C1775 C349 0.679 . S
C1777 C61 0.692 . S
C1786 C369 1.297 . S
C1788 C618 1.293 . S
C1797 C142 1.415 . S
C1799 C399 1.331 . S
C1808 C642 1.248 . S
C1810 C409 1.246 . S
C1819 C101 1.390 . S
C1821 C439 1.395 . S
C1830 C459 1.050 . S
C1832 C262 1.125 . S
C1841 C479 1.102 . S
C1843 C619 1.152 . S
C1852 C21 0.724 . S
C1854 C489 0.680 . S
C1863 C509 0.834 . S
C1865 C622 0.840 . S
C1874 C62 1.180 . S
C1876 C539 1.134 . S
C1885 C641 1.370 . S
C1887 C529 1.554 . S
C1896 C469 0.793 . S
C1898 C102 0.800 . S
C1907 C499 1.119 . S
C1909 C261 1.133 . S
C1918 C141 1.475 . S
C1920 C519 1.489 . S
C1929 C549 0.833 . S
C1931 C701 0.821 . S
C1940 C222 1.061 . S
C1942 C449 1.056 . S
C1951 C702 0.709 . S
C1953 C389 0.714 . S
C1962 C419 0.928 . S
C1964 C181 0.953 . S
C1973 C569 1.462 . S
C1975 C201 1.332 . S
C1984 C742 1.073 . S
C1986 C599 1.010 . S
C1995 C302 0.896 . S
C1997 C761 0.893 . S
C2006 C722 0.857 . S
C2008 C359 0.845 . S
C2017 C541 0.634 . S
C2019 C609 0.651 . S
C2028 C258 1.064 . S
C2030 C342 1.109 . S
C2039 C582 0.692 . S
C2041 C628 0.678 . S
C2050 C288 1.297 . S
C2052 C319 1.293 . S
C2061 C658 1.339 . S
C2063 C861 1.412 . S
C2072 C381 1.247 . S
C2074 C668 1.242 . S
C2083 C278 1.394 . S
C2085 C842 1.389 . S
C2094 C421 1.124 . S
C2096 C698 1.056 . S
C2105 C718 1.088 . S
C2107 C318 1.156 . S
C2116 C728 0.676 . S
C2118 C542 0.720 . S
C2127 C748 0.839 . S
C2129 C341 0.843 . S
C2138 C581 1.180 . S
C2140 C778 1.131 . S
C2149 C382 1.383 . S
C2151 C768 1.551 . S
C2160 C708 0.793 . S
C2162 C841 0.801 . S
C2171 C422 1.134 . S
C2173 C738 1.120 . S
C2182 C758 1.492 . S
C2184 C862 1.480 . S
C2193 C28 0.832 . S
C2195 C462 0.826 . S
C2204 C941 1.065 . S
C2206 C688 1.051 . S
C2215 C648 0.712 . S
C2217 C461 0.715 . S
C2226 C678 0.938 . S
C2228 C902 0.951 . S
C2237 C922 1.336 . S
C2239 C128 1.463 . S
C2248 C501 1.069 . S
C2250 C78 1.014 . S
C2259 C601 0.901 . S
C2261 C522 0.881 . S
C2270 C481 0.861 . S
C2272 C638 0.840 . S
C2281 C242 0.632 . S
C2283 C788 0.648 . S
C2292 C559 1.070 . S
C2294 C41 1.104 . S
C2303 C281 0.682 . S
C2305 C809 0.679 . S
C2314 C589 1.297 . S
C2316 C18 1.296 . S
C2325 C839 1.336 . S
C2327 C682 1.412 . S
C2336 C82 1.250 . S
C2338 C849 1.244 . S
C2347 C661 1.386 . S
C2349 C579 1.396 . S
C2358 C122 1.126 . S
C2360 C879 1.053 . S
C2369 C19 1.151 . S
C2371 C899 1.100 . S
C2380 C909 0.679 . S
C2382 C241 0.709 . S
C2391 C42 0.842 . S
C2393 C929 0.841 . S
C2402 C282 1.181 . S
C2404 C959 1.129 . S
C2413 C81 1.382 . S
C2415 C949 1.552 . S
C2424 C662 0.799 . S
C2426 C889 0.798 . S
C2435 C919 1.124 . S
C2437 C121 1.135 . S
C2446 C681 1.478 . S
C2448 C939 1.486 . S
C2457 C161 0.819 . S
C2459 C329 0.841 . S
C2468 C869 1.049 . S
C2470 C762 1.062 . S
C2479 C829 0.711 . S
C2481 C162 0.708 . S
C2490 C721 0.952 . S
C2492 C859 0.937 . S
C2501 C429 1.465 . S
C2503 C741 1.335 . S
C2512 C379 1.011 . S
C2514 C202 1.070 . S
C2523 C221 0.888 . S
C2525 C782 0.898 . S
C2534 C182 0.857 . S
C2536 C819 0.846 . S
