# Generated by pormake.
# Topology pyr-e, (6)-cn, num edge types: 1
# Building blocks:
#     Node 0, Type 0, BuildingBlock: OJICUG_clean_sbu_0, # of connection points: 6
#     Node 1, Type 0, BuildingBlock: OJICUG_clean_sbu_0, # of connection points: 6
#     Node 2, Type 0, BuildingBlock: OJICUG_clean_sbu_0, # of connection points: 6
#     Node 3, Type 0, BuildingBlock: OJICUG_clean_sbu_0, # of connection points: 6
#     Node 4, Type 0, BuildingBlock: OJICUG_clean_sbu_0, # of connection points: 6
#     Node 5, Type 0, BuildingBlock: OJICUG_clean_sbu_0, # of connection points: 6
#     Node 6, Type 0, BuildingBlock: OJICUG_clean_sbu_0, # of connection points: 6
#     Node 7, Type 0, BuildingBlock: OJICUG_clean_sbu_0, # of connection points: 6
#     Node 8, Type 0, BuildingBlock: OJICUG_clean_sbu_0, # of connection points: 6
#     Node 9, Type 0, BuildingBlock: OJICUG_clean_sbu_0, # of connection points: 6
#     Node 10, Type 0, BuildingBlock: OJICUG_clean_sbu_0, # of connection points: 6
#     Node 11, Type 0, BuildingBlock: OJICUG_clean_sbu_0, # of connection points: 6
#     Node 12, Type 0, BuildingBlock: OJICUG_clean_sbu_0, # of connection points: 6
#     Node 13, Type 0, BuildingBlock: OJICUG_clean_sbu_0, # of connection points: 6
#     Node 14, Type 0, BuildingBlock: OJICUG_clean_sbu_0, # of connection points: 6
#     Node 15, Type 0, BuildingBlock: OJICUG_clean_sbu_0, # of connection points: 6
#     Node 16, Type 0, BuildingBlock: OJICUG_clean_sbu_0, # of connection points: 6
#     Node 17, Type 0, BuildingBlock: OJICUG_clean_sbu_0, # of connection points: 6
#     Node 18, Type 0, BuildingBlock: OJICUG_clean_sbu_0, # of connection points: 6
#     Node 19, Type 0, BuildingBlock: OJICUG_clean_sbu_0, # of connection points: 6
#     Node 20, Type 0, BuildingBlock: OJICUG_clean_sbu_0, # of connection points: 6
#     Node 21, Type 0, BuildingBlock: OJICUG_clean_sbu_0, # of connection points: 6
#     Node 22, Type 0, BuildingBlock: OJICUG_clean_sbu_0, # of connection points: 6
#     Node 23, Type 0, BuildingBlock: OJICUG_clean_sbu_0, # of connection points: 6
#     Edge 24, Type (0, 0), BuildingBlock: KIFKEQ_clean_linker_1, # of connection points: 2
#     Edge 25, Type (0, 0), BuildingBlock: KIFKEQ_clean_linker_1, # of connection points: 2
#     Edge 26, Type (0, 0), BuildingBlock: KIFKEQ_clean_linker_1, # of connection points: 2
#     Edge 27, Type (0, 0), BuildingBlock: KIFKEQ_clean_linker_1, # of connection points: 2
#     Edge 28, Type (0, 0), BuildingBlock: KIFKEQ_clean_linker_1, # of connection points: 2
#     Edge 29, Type (0, 0), BuildingBlock: KIFKEQ_clean_linker_1, # of connection points: 2
#     Edge 30, Type (0, 0), BuildingBlock: KIFKEQ_clean_linker_1, # of connection points: 2
#     Edge 31, Type (0, 0), BuildingBlock: KIFKEQ_clean_linker_1, # of connection points: 2
#     Edge 32, Type (0, 0), BuildingBlock: KIFKEQ_clean_linker_1, # of connection points: 2
#     Edge 33, Type (0, 0), BuildingBlock: KIFKEQ_clean_linker_1, # of connection points: 2
#     Edge 34, Type (0, 0), BuildingBlock: KIFKEQ_clean_linker_1, # of connection points: 2
#     Edge 35, Type (0, 0), BuildingBlock: KIFKEQ_clean_linker_1, # of connection points: 2
#     Edge 36, Type (0, 0), BuildingBlock: KIFKEQ_clean_linker_1, # of connection points: 2
#     Edge 37, Type (0, 0), BuildingBlock: KIFKEQ_clean_linker_1, # of connection points: 2
#     Edge 38, Type (0, 0), BuildingBlock: KIFKEQ_clean_linker_1, # of connection points: 2
#     Edge 39, Type (0, 0), BuildingBlock: KIFKEQ_clean_linker_1, # of connection points: 2
#     Edge 40, Type (0, 0), BuildingBlock: KIFKEQ_clean_linker_1, # of connection points: 2
#     Edge 41, Type (0, 0), BuildingBlock: KIFKEQ_clean_linker_1, # of connection points: 2
#     Edge 42, Type (0, 0), BuildingBlock: KIFKEQ_clean_linker_1, # of connection points: 2
#     Edge 43, Type (0, 0), BuildingBlock: KIFKEQ_clean_linker_1, # of connection points: 2
#     Edge 44, Type (0, 0), BuildingBlock: KIFKEQ_clean_linker_1, # of connection points: 2
#     Edge 45, Type (0, 0), BuildingBlock: KIFKEQ_clean_linker_1, # of connection points: 2
#     Edge 46, Type (0, 0), BuildingBlock: KIFKEQ_clean_linker_1, # of connection points: 2
#     Edge 47, Type (0, 0), BuildingBlock: KIFKEQ_clean_linker_1, # of connection points: 2
#     Edge 48, Type (0, 0), BuildingBlock: KIFKEQ_clean_linker_1, # of connection points: 2
#     Edge 49, Type (0, 0), BuildingBlock: KIFKEQ_clean_linker_1, # of connection points: 2
#     Edge 50, Type (0, 0), BuildingBlock: KIFKEQ_clean_linker_1, # of connection points: 2
#     Edge 51, Type (0, 0), BuildingBlock: KIFKEQ_clean_linker_1, # of connection points: 2
#     Edge 52, Type (0, 0), BuildingBlock: KIFKEQ_clean_linker_1, # of connection points: 2
#     Edge 53, Type (0, 0), BuildingBlock: KIFKEQ_clean_linker_1, # of connection points: 2
#     Edge 54, Type (0, 0), BuildingBlock: KIFKEQ_clean_linker_1, # of connection points: 2
#     Edge 55, Type (0, 0), BuildingBlock: KIFKEQ_clean_linker_1, # of connection points: 2
#     Edge 56, Type (0, 0), BuildingBlock: KIFKEQ_clean_linker_1, # of connection points: 2
#     Edge 57, Type (0, 0), BuildingBlock: KIFKEQ_clean_linker_1, # of connection points: 2
#     Edge 58, Type (0, 0), BuildingBlock: KIFKEQ_clean_linker_1, # of connection points: 2
#     Edge 59, Type (0, 0), BuildingBlock: KIFKEQ_clean_linker_1, # of connection points: 2
#     Edge 60, Type (0, 0), BuildingBlock: KIFKEQ_clean_linker_1, # of connection points: 2
#     Edge 61, Type (0, 0), BuildingBlock: KIFKEQ_clean_linker_1, # of connection points: 2
#     Edge 62, Type (0, 0), BuildingBlock: KIFKEQ_clean_linker_1, # of connection points: 2
#     Edge 63, Type (0, 0), BuildingBlock: KIFKEQ_clean_linker_1, # of connection points: 2
#     Edge 64, Type (0, 0), BuildingBlock: KIFKEQ_clean_linker_1, # of connection points: 2
#     Edge 65, Type (0, 0), BuildingBlock: KIFKEQ_clean_linker_1, # of connection points: 2
#     Edge 66, Type (0, 0), BuildingBlock: KIFKEQ_clean_linker_1, # of connection points: 2
#     Edge 67, Type (0, 0), BuildingBlock: KIFKEQ_clean_linker_1, # of connection points: 2
#     Edge 68, Type (0, 0), BuildingBlock: KIFKEQ_clean_linker_1, # of connection points: 2
#     Edge 69, Type (0, 0), BuildingBlock: KIFKEQ_clean_linker_1, # of connection points: 2
#     Edge 70, Type (0, 0), BuildingBlock: KIFKEQ_clean_linker_1, # of connection points: 2
#     Edge 71, Type (0, 0), BuildingBlock: KIFKEQ_clean_linker_1, # of connection points: 2
#     Edge 72, Type (0, 0), BuildingBlock: KIFKEQ_clean_linker_1, # of connection points: 2
#     Edge 73, Type (0, 0), BuildingBlock: KIFKEQ_clean_linker_1, # of connection points: 2
#     Edge 74, Type (0, 0), BuildingBlock: KIFKEQ_clean_linker_1, # of connection points: 2
#     Edge 75, Type (0, 0), BuildingBlock: KIFKEQ_clean_linker_1, # of connection points: 2
#     Edge 76, Type (0, 0), BuildingBlock: KIFKEQ_clean_linker_1, # of connection points: 2
#     Edge 77, Type (0, 0), BuildingBlock: KIFKEQ_clean_linker_1, # of connection points: 2
#     Edge 78, Type (0, 0), BuildingBlock: KIFKEQ_clean_linker_1, # of connection points: 2
#     Edge 79, Type (0, 0), BuildingBlock: KIFKEQ_clean_linker_1, # of connection points: 2
#     Edge 80, Type (0, 0), BuildingBlock: KIFKEQ_clean_linker_1, # of connection points: 2
#     Edge 81, Type (0, 0), BuildingBlock: KIFKEQ_clean_linker_1, # of connection points: 2
#     Edge 82, Type (0, 0), BuildingBlock: KIFKEQ_clean_linker_1, # of connection points: 2
#     Edge 83, Type (0, 0), BuildingBlock: KIFKEQ_clean_linker_1, # of connection points: 2
#     Edge 84, Type (0, 0), BuildingBlock: KIFKEQ_clean_linker_1, # of connection points: 2
#     Edge 85, Type (0, 0), BuildingBlock: KIFKEQ_clean_linker_1, # of connection points: 2
#     Edge 86, Type (0, 0), BuildingBlock: KIFKEQ_clean_linker_1, # of connection points: 2
#     Edge 87, Type (0, 0), BuildingBlock: KIFKEQ_clean_linker_1, # of connection points: 2
#     Edge 88, Type (0, 0), BuildingBlock: KIFKEQ_clean_linker_1, # of connection points: 2
#     Edge 89, Type (0, 0), BuildingBlock: KIFKEQ_clean_linker_1, # of connection points: 2
#     Edge 90, Type (0, 0), BuildingBlock: KIFKEQ_clean_linker_1, # of connection points: 2
#     Edge 91, Type (0, 0), BuildingBlock: KIFKEQ_clean_linker_1, # of connection points: 2
#     Edge 92, Type (0, 0), BuildingBlock: KIFKEQ_clean_linker_1, # of connection points: 2
#     Edge 93, Type (0, 0), BuildingBlock: KIFKEQ_clean_linker_1, # of connection points: 2
#     Edge 94, Type (0, 0), BuildingBlock: KIFKEQ_clean_linker_1, # of connection points: 2
#     Edge 95, Type (0, 0), BuildingBlock: KIFKEQ_clean_linker_1, # of connection points: 2
# Relax obj value: 0.593
# Max RMSD: 0.261
# Mean RMSD: 0.261
data_MOF--net-pyr-e--node1-OJICUG_clean_sbu_0--edge1-KIFKEQ_clean_linker_1
_symmetry_space_group_name_H-M    P1
_symmetry_Int_Tables_number       1
_symmetry_cell_setting            triclinic
loop_
_symmetry_equiv_pos_as_xyz
'x, y, z'
_cell_length_a     44.602651
_cell_length_b     44.600197
_cell_length_c     44.624928
_cell_angle_alpha  90.028658
_cell_angle_beta   89.970445
_cell_angle_gamma 89.931593
loop_
_atom_site_label
_atom_site_type_symbol
_atom_site_fract_x
_atom_site_fract_y
_atom_site_fract_z
_atom_type_partial_charge
Sc0 Sc 0.97162 0.22071 0.96984 0.0
Sc1 Sc 0.02759 0.21965 0.02655 0.0
Sc2 Sc 0.9959 0.28728 0.00487 0.0
O3 O 0.99834 0.24241 0.0002 0.0
C4 C 0.99373 0.27874 0.93412 0.0
C5 C 0.03117 0.18228 0.96524 0.0
C6 C 0.06681 0.27556 0.01083 0.0
C7 C 0.96857 0.17981 0.0285 0.0
C8 C 0.92704 0.27093 0.99347 0.0
C9 C 0.00351 0.26944 0.07236 0.0
O10 O 0.9814 0.25297 0.93485 0.0
O11 O 0.03976 0.189 0.99148 0.0
O12 O 0.04373 0.2923 0.00963 0.0
O13 O 0.95941 0.18675 0.00236 0.0
O14 O 0.94803 0.28827 0.00154 0.0
O15 O 0.02017 0.24714 0.06612 0.0
O16 O 0.93153 0.2452 0.98214 0.0
O17 O 0.99185 0.19082 0.04079 0.0
O18 O 0.99007 0.2847 0.05251 0.0
O19 O 0.0078 0.19308 0.95312 0.0
O20 O 0.00131 0.29326 0.95746 0.0
O21 O 0.06524 0.24724 0.01369 0.0
Sc22 Sc 0.53048 0.7785 0.4715 0.0
Sc23 Sc 0.47689 0.77734 0.53039 0.0
Sc24 Sc 0.50502 0.7105 0.50236 0.0
O25 O 0.50417 0.75559 0.50129 0.0
C26 C 0.50588 0.72372 0.43256 0.0
C27 C 0.4718 0.8178 0.47108 0.0
C28 C 0.435 0.72395 0.51208 0.0
C29 C 0.53622 0.81623 0.53225 0.0
C30 C 0.57408 0.7263 0.49144 0.0
C31 C 0.50065 0.72317 0.57138 0.0
O32 O 0.52017 0.74835 0.43461 0.0
O33 O 0.46468 0.81068 0.49771 0.0
O34 O 0.45737 0.70665 0.50844 0.0
O35 O 0.54346 0.81128 0.50506 0.0
O36 O 0.55269 0.7086 0.49744 0.0
O37 O 0.48525 0.74693 0.56764 0.0
O38 O 0.57029 0.75314 0.48273 0.0
O39 O 0.51399 0.80402 0.54528 0.0
O40 O 0.51222 0.7089 0.54966 0.0
O41 O 0.49381 0.80644 0.45703 0.0
O42 O 0.49767 0.70845 0.45512 0.0
O43 O 0.43768 0.75187 0.51728 0.0
Sc44 Sc 0.49781 0.20849 0.00792 0.0
Sc45 Sc 0.52633 0.27261 0.97377 0.0
Sc46 Sc 0.47064 0.27944 0.03076 0.0
O47 O 0.49816 0.25363 0.00417 0.0
C48 C 0.42826 0.22511 0.01181 0.0
C49 C 0.50423 0.21615 0.93681 0.0
C50 C 0.468 0.3141 0.9683 0.0
C51 C 0.56761 0.22036 4e-05 0.0
C52 C 0.49062 0.22811 0.07633 0.0
C53 C 0.53222 0.31563 0.03092 0.0
O54 O 0.44988 0.20749 0.00596 0.0
O55 O 0.51425 0.24278 0.9377 0.0
O56 O 0.45746 0.30838 0.99413 0.0
O57 O 0.54576 0.20529 0.01028 0.0
O58 O 0.47995 0.25405 0.07116 0.0
O59 O 0.5416 0.304 0.00666 0.0
O60 O 0.49795 0.20988 0.0558 0.0
O61 O 0.56417 0.2446 0.98547 0.0
O62 O 0.50682 0.30969 0.04254 0.0
O63 O 0.49788 0.20134 0.96029 0.0
O64 O 0.43168 0.25174 0.02155 0.0
O65 O 0.49208 0.3027 0.95821 0.0
Sc66 Sc 0.00079 0.78953 0.50479 0.0
Sc67 Sc 0.97233 0.72624 0.4691 0.0
Sc68 Sc 0.0266 0.71803 0.52724 0.0
O69 O 1e-05 0.74447 0.5004 0.0
C70 C 0.07008 0.77187 0.50981 0.0
C71 C 0.99685 0.78256 0.43352 0.0
C72 C 0.02976 0.68345 0.46456 0.0
C73 C 0.93108 0.77898 0.49466 0.0
C74 C 0.00603 0.76926 0.57296 0.0
C75 C 0.96427 0.6832 0.52607 0.0
O76 O 0.04871 0.78992 0.5045 0.0
O77 O 0.98604 0.75623 0.43373 0.0
O78 O 0.03968 0.68858 0.49077 0.0
O79 O 0.95289 0.79359 0.50556 0.0
O80 O 0.01728 0.74357 0.56772 0.0
O81 O 0.95589 0.69482 0.50142 0.0
O82 O 0.99878 0.78755 0.5525 0.0
O83 O 0.93451 0.75474 0.48004 0.0
O84 O 0.98938 0.68886 0.53843 0.0
O85 O 0.00266 0.79699 0.45736 0.0
O86 O 0.06629 0.74492 0.5185 0.0
O87 O 0.00638 0.69573 0.45396 0.0
Sc88 Sc 0.97567 0.97468 0.22043 0.0
Sc89 Sc 0.03251 0.03034 0.22744 0.0
Sc90 Sc 0.99737 0.00264 0.29133 0.0
O91 O 0.00182 0.00246 0.24629 0.0
C92 C 0.92938 0.99568 0.27084 0.0
C93 C 0.97556 0.03584 0.18388 0.0
C94 C 0.00578 0.07234 0.27867 0.0
C95 C 0.03872 0.97183 0.18659 0.0
C96 C 0.9939 0.93286 0.27511 0.0
C97 C 0.06856 0.00815 0.28463 0.0
O98 O 0.93495 0.98384 0.24552 0.0
O99 O 3e-05 0.04508 0.19522 0.0
O100 O 0.99572 0.05071 0.29418 0.0
O101 O 0.01259 0.96165 0.19165 0.0
O102 O 0.99868 0.95464 0.29282 0.0
O103 O 0.06814 0.01858 0.25813 0.0
O104 O 0.98518 0.93599 0.24814 0.0
O105 O 0.04863 0.99576 0.19837 0.0
O106 O 0.04482 0.00182 0.299 0.0
O107 O 0.9637 0.01072 0.19034 0.0
O108 O 0.9496 0.00373 0.28905 0.0
O109 O 0.0202 0.06854 0.25442 0.0
Sc110 Sc 0.53574 0.02578 0.72164 0.0
Sc111 Sc 0.47637 0.97248 0.72609 0.0
Sc112 Sc 0.5105 0.99792 0.7914 0.0
O113 O 0.50757 0.99883 0.74626 0.0
C114 C 0.57941 0.00312 0.77351 0.0
C115 C 0.5346 0.96493 0.68444 0.0
C116 C 0.50044 0.92878 0.7773 0.0
C117 C 0.47417 0.03152 0.68578 0.0
C118 C 0.5165 0.0677 0.7762 0.0
C119 C 0.43935 0.99485 0.78251 0.0
O120 O 0.57517 0.01515 0.74805 0.0
O121 O 0.50926 0.95691 0.69477 0.0
O122 O 0.5109 0.94985 0.79332 0.0
O123 O 0.50058 0.04039 0.69159 0.0
O124 O 0.51035 0.04588 0.79342 0.0
O125 O 0.44021 0.98517 0.75575 0.0
O126 O 0.5263 0.06459 0.74955 0.0
O127 O 0.46257 0.00812 0.69702 0.0
O128 O 0.46286 -0.00014 0.79773 0.0
O129 O 0.54752 0.98937 0.69161 0.0
O130 O 0.55825 0.99564 0.79088 0.0
O131 O 0.48645 0.93341 0.75292 0.0
Sc132 Sc 0.49311 0.50379 0.7072 0.0
Sc133 Sc 0.52586 0.47241 0.77079 0.0
Sc134 Sc 0.46742 0.52633 0.77884 0.0
O135 O 0.4954 0.50092 0.75238 0.0
C136 C 0.48667 0.57217 0.72725 0.0
C137 C 0.56403 0.4976 0.71636 0.0
C138 C 0.52946 0.52923 0.81426 0.0
C139 C 0.50127 0.4334 0.71621 0.0
C140 C 0.42387 0.508 0.72527 0.0
C141 C 0.46827 0.46336 0.81277 0.0
O142 O 0.49388 0.5518 0.7087 0.0
O143 O 0.56228 0.48576 0.74214 0.0
O144 O 0.50325 0.5391 0.80894 0.0
O145 O 0.49193 0.45598 0.70158 0.0
O146 O 0.42797 0.51704 0.75199 0.0
O147 O 0.49312 0.45546 0.80131 0.0
O148 O 0.44515 0.50255 0.7072 0.0
O149 O 0.51468 0.43563 0.74125 0.0
O150 O 0.45575 0.48847 0.8073 0.0
O151 O 0.54102 0.50511 0.70135 0.0
O152 O 0.47617 0.56691 0.75328 0.0
O153 O 0.54044 0.50598 0.802 0.0
Sc154 Sc 0.99536 0.49267 0.20575 0.0
Sc155 Sc 0.96597 0.52358 0.27103 0.0
Sc156 Sc 0.02502 0.46981 0.27552 0.0
O157 O 0.99555 0.49534 0.2509 0.0
C158 C 0.00509 0.42411 0.22435 0.0
C159 C 0.92544 0.49666 0.21859 0.0
C160 C 0.96477 0.4663 0.31388 0.0
C161 C 0.98457 0.56288 0.215 0.0
C162 C 0.06518 0.49078 0.21995 0.0
C163 C 0.02546 0.53227 0.31044 0.0
O164 O 0.9986 0.44509 0.20633 0.0
O165 O 0.92848 0.51109 0.24297 0.0
O166 O 0.99117 0.45733 0.3079 0.0
O167 O 0.99122 0.53999 0.19949 0.0
O168 O 0.06244 0.47911 0.24584 0.0
O169 O -0.00034 0.53968 0.30097 0.0
O170 O 0.04302 0.49794 0.20359 0.0
O171 O 0.97639 0.56128 0.24224 0.0
O172 O 0.03842 0.50782 0.30319 0.0
O173 O 0.94765 0.48728 0.2034 0.0
O174 O 0.01472 0.42879 0.25082 0.0
O175 O 0.95256 0.489 0.30172 0.0
Sc176 Sc 0.21947 0.97088 0.96744 0.0
Sc177 Sc 0.22446 0.02514 0.02599 0.0
Sc178 Sc 0.28945 0.99191 0.99803 0.0
O179 O 0.24434 0.99592 0.99709 0.0
C180 C 0.26973 0.92407 0.98805 0.0
C181 C 0.1808 0.96811 0.0273 0.0
C182 C 0.27516 0.99731 0.06781 0.0
C183 C 0.18551 0.03411 0.96658 0.0
C184 C 0.27531 0.99064 0.92776 0.0
C185 C 0.28179 0.06266 0.00633 0.0
O186 O 0.24468 0.92991 0.97569 0.0
O187 O 0.19168 0.99207 0.03824 0.0
O188 O 0.29136 0.98875 0.04602 0.0
O189 O 0.19091 0.00846 0.95523 0.0
O190 O 0.2923 0.99473 0.9502 0.0
O191 O 0.25528 0.06142 0.01672 0.0
O192 O 0.24824 0.98187 0.92983 0.0
O193 O 0.19643 0.04277 0.99137 0.0
O194 O 0.2965 0.03943 0.99891 0.0
O195 O 0.18833 0.95727 0.00202 0.0
O196 O 0.28751 0.94413 0.99741 0.0
O197 O 0.25053 0.01119 0.06428 0.0
Sc198 Sc 0.7194 0.52936 0.02415 0.0
Sc199 Sc 0.72716 0.47155 0.96991 0.0
Sc200 Sc 0.79015 0.50121 0.00461 0.0
O201 O 0.74535 0.50073 -0.00043 0.0
C202 C 0.77454 0.571 0.01185 0.0
C203 C 0.68729 0.52989 0.96 0.0
C204 C 0.7845 0.49652 0.93445 0.0
C205 C 0.68124 0.46957 0.02526 0.0
C206 C 0.76828 0.50563 0.07128 0.0
C207 C 0.77897 0.43092 0.99494 0.0
O208 O 0.74622 0.56822 0.01297 0.0
O209 O 0.7005 0.50643 0.95068 0.0
O210 O 0.79695 0.50798 0.95741 0.0
O211 O 0.68985 0.49368 0.03775 0.0
O212 O 0.78545 0.49423 0.05164 0.0
O213 O 0.75209 0.43316 0.98587 0.0
O214 O 0.74544 0.52168 0.06494 0.0
O215 O 0.69171 0.45977 0.00059 0.0
O216 O 0.79524 0.45364 9e-05 0.0
O217 O 0.69038 0.54009 0.9865 0.0
O218 O 0.79225 0.54875 0.01096 0.0
O219 O 0.76076 0.48069 0.93594 0.0
Sc220 Sc 0.70948 0.49316 0.50379 0.0
Sc221 Sc 0.77397 0.52583 0.47461 0.0
Sc222 Sc 0.78021 0.46742 0.52881 0.0
O223 O 0.75468 0.49543 0.5025 0.0
C224 C 0.72736 0.48742 0.57274 0.0
C225 C 0.71933 0.5641 0.49889 0.0
C226 C 0.81648 0.52867 0.53227 0.0
C227 C 0.72007 0.50212 0.43404 0.0
C228 C 0.72739 0.42406 0.50856 0.0
C229 C 0.81503 0.46747 0.46636 0.0
O230 O 0.70957 0.49424 0.55162 0.0
O231 O 0.74568 0.56254 0.48824 0.0
O232 O 0.81025 0.50282 0.54239 0.0
O233 O 0.70522 0.49184 0.456 0.0
O234 O 0.75364 0.42809 0.51881 0.0
O235 O 0.80387 0.49229 0.45791 0.0
O236 O 0.70953 0.4453 0.50245 0.0
O237 O 0.74477 0.51598 0.43714 0.0
O238 O 0.80942 0.4555 0.49167 0.0
O239 O 0.70382 0.54101 0.50497 0.0
O240 O 0.75352 0.47667 0.5686 0.0
O241 O 0.80511 0.53954 0.50857 0.0
Sc242 Sc 0.21082 0.00571 0.50417 0.0
Sc243 Sc 0.27399 0.96976 0.5327 0.0
Sc244 Sc 0.28248 0.02701 0.47771 0.0
O245 O 0.25587 0.00087 0.50477 0.0
C246 C 0.22797 0.01006 0.43478 0.0
C247 C 0.21677 0.93438 0.50966 0.0
C248 C 0.31513 0.96333 0.47442 0.0
C249 C 0.22244 0.99697 0.57398 0.0
C250 C 0.23228 0.07369 0.49834 0.0
C251 C 0.31852 0.02576 0.53935 0.0
O252 O 0.21002 0.00472 0.45622 0.0
O253 O 0.24312 0.93468 0.52041 0.0
O254 O 0.31058 0.98965 0.46441 0.0
O255 O 0.20735 0.00721 0.55213 0.0
O256 O 0.25796 0.06795 0.48734 0.0
O257 O 0.30649 0.00148 0.54814 0.0
O258 O 0.21355 0.05354 0.50543 0.0
O259 O 0.2466 0.98226 0.57058 0.0
O260 O 0.31263 0.03798 0.51423 0.0
O261 O 0.20259 0.95821 0.50309 0.0
O262 O 0.25491 0.01874 0.43847 0.0
O263 O 0.30319 0.95347 0.49828 0.0
Sc264 Sc 0.02388 0.77574 0.02673 0.0
Sc265 Sc 0.96885 0.77641 0.96908 0.0
Sc266 Sc 0.99198 0.70891 -0.00059 0.0
O267 O 0.99517 0.75387 0.99839 0.0
C268 C 0.06202 0.71931 0.00295 0.0
C269 C 0.02986 0.81439 0.96765 0.0
C270 C 0.98512 0.72152 0.92893 0.0
C271 C 0.96403 0.81547 0.02859 0.0
C272 C 0.00104 0.72391 0.06898 0.0
C273 C 0.9242 0.72614 0.9936 0.0
O274 O 0.0601 0.74397 0.01744 0.0
O275 O 0.00409 0.80725 0.95794 0.0
O276 O 0.98634 0.7043 0.95157 0.0
O277 O 0.99008 0.80913 0.03862 0.0
O278 O 0.99574 0.70654 0.04715 0.0
O279 O 0.92957 0.74837 0.97656 0.0
O280 O 0.01018 0.75063 0.06578 0.0
O281 O 0.95334 0.80449 0.00458 0.0
O282 O 0.94465 0.71082 0.00606 0.0
O283 O 0.04118 0.80403 0.99159 0.0
O284 O 0.03938 0.70491 0.99332 0.0
O285 O 0.98246 0.74976 0.93113 0.0
Sc286 Sc 0.47043 0.2232 0.52244 0.0
Sc287 Sc 0.52609 0.22812 0.46532 0.0
Sc288 Sc 0.49721 0.29339 0.49693 0.0
O289 O 0.49778 0.24813 0.49494 0.0
C290 C 0.42775 0.27725 0.50234 0.0
C291 C 0.46729 0.18747 0.46052 0.0
C292 C 0.50394 0.28319 0.42626 0.0
C293 C 0.53189 0.18648 0.52342 0.0
C294 C 0.49087 0.27594 0.56605 0.0
C295 C 0.56717 0.28066 0.49045 0.0
O296 O 0.43135 0.25101 0.51308 0.0
O297 O 0.49152 0.19846 0.4504 0.0
O298 O 0.49686 0.29881 0.44901 0.0
O299 O 0.5066 0.19291 0.53508 0.0
O300 O 0.49765 0.29357 0.54483 0.0
O301 O 0.564 0.25577 0.47699 0.0
O302 O 0.48039 0.24975 0.56193 0.0
O303 O 0.54096 0.1974 0.49878 0.0
O304 O 0.54516 0.29653 0.49913 0.0
O305 O 0.4569 0.19355 0.48639 0.0
O306 O 0.4493 0.29444 0.49532 0.0
O307 O 0.5147 0.25693 0.42837 0.0
Sc308 Sc 0.49784 0.78962 0.98833 0.0
Sc309 Sc 0.47056 0.72653 0.02521 0.0
Sc310 Sc 0.52454 0.71805 0.96692 0.0
O311 O 0.49771 0.74462 0.99342 0.0
C312 C 0.50412 0.76841 0.92048 0.0
C313 C 0.42822 0.77734 0.99767 0.0
C314 C 0.46302 0.68207 0.96908 0.0
C315 C 0.49318 0.78436 0.05968 0.0
C316 C 0.56734 0.77249 0.98454 0.0
C317 C 0.52888 0.68539 0.03039 0.0
O318 O 0.49647 0.78688 0.94065 0.0
O319 O 0.43205 0.75347 0.01281 0.0
O320 O 0.48752 0.68842 0.95581 0.0
O321 O 0.49904 0.79831 0.0356 0.0
O322 O 0.56383 0.74542 0.97608 0.0
O323 O 0.50575 0.69789 0.04133 0.0
O324 O 0.54581 0.79056 0.98925 0.0
O325 O 0.48295 0.75782 0.05989 0.0
O326 O 0.53775 0.68932 0.00364 0.0
O327 O 0.44985 0.79248 0.98703 0.0
O328 O 0.51553 0.74292 0.92614 0.0
O329 O 0.45519 0.69358 0.99397 0.0
Sc330 Sc 0.01199 0.20969 0.49262 0.0
Sc331 Sc 0.03498 0.27417 0.53003 0.0
Sc332 Sc 0.98025 0.27915 0.47199 0.0
O333 O 0.00897 0.25447 0.49821 0.0
C334 C 0.00367 0.23027 0.42513 0.0
C335 C 0.08047 0.22554 0.50354 0.0
C336 C 0.04033 0.31787 0.47305 0.0
C337 C 0.01467 0.21537 0.56419 0.0
C338 C 0.9412 0.22191 0.48919 0.0
C339 C 0.97506 0.31309 0.53469 0.0
O340 O 0.01407 0.21284 0.44496 0.0
O341 O 0.07506 0.24899 0.51883 0.0
O342 O 0.01593 0.31029 0.46017 0.0
O343 O 0.01033 0.20104 0.53996 0.0
O344 O 0.94257 0.24963 0.48214 0.0
O345 O 0.99872 0.30176 0.54568 0.0
O346 O 0.96431 0.20552 0.49241 0.0
O347 O 0.02336 0.24249 0.56469 0.0
O348 O 0.96611 0.30803 0.50819 0.0
O349 O 0.05995 0.20956 0.49211 0.0
O350 O 0.9896 0.25427 0.43132 0.0
O351 O 0.04893 0.30719 0.49807 0.0
Sc352 Sc 0.00352 0.99712 0.70832 0.0
Sc353 Sc 0.96829 0.96924 0.77212 0.0
Sc354 Sc 0.02621 0.02386 0.77934 0.0
O355 O 0.99934 0.99686 0.75338 0.0
C356 C 0.07178 0.00324 0.7283 0.0
C357 C 0.99447 0.92741 0.72021 0.0
C358 C 0.02559 0.96204 0.81498 0.0
C359 C 0.93222 0.99247 0.71545 0.0
C360 C 0.00816 0.06665 0.72514 0.0
C361 C 0.9637 0.02734 0.81389 0.0
O362 O 0.05135 0.99567 0.71011 0.0
O363 O 0.97984 0.93104 0.74441 0.0
O364 O 0.03785 0.98707 0.80883 0.0
O365 O 0.95597 0.99843 0.70092 0.0
O366 O 0.01717 0.06315 0.752 0.0
O367 O 0.95294 0.00385 0.80194 0.0
O368 O 0.00272 0.04507 0.70738 0.0
O369 O 0.93265 0.982 0.74192 0.0
O370 O 0.98995 0.03703 0.80868 0.0
O371 O 0.00485 0.94915 0.70509 0.0
O372 O 0.06649 0.01457 0.75388 0.0
O373 O 0.0008 0.95349 0.80378 0.0
Sc374 Sc 0.49008 0.0026 0.20942 0.0
Sc375 Sc 0.52181 0.02876 0.27586 0.0
Sc376 Sc 0.46669 0.97083 0.278 0.0
O377 O 0.4928 0.00069 0.25456 0.0
C378 C 0.42162 0.99218 0.22673 0.0
C379 C 0.49559 0.07198 0.22525 0.0
C380 C 0.46336 0.02991 0.31778 0.0
C381 C 0.56074 0.01008 0.21912 0.0
C382 C 0.48839 0.93209 0.22223 0.0
C383 C 0.5284 0.96859 0.31406 0.0
O384 O 0.44219 0.00193 0.20974 0.0
O385 O 0.50914 0.06784 0.24997 0.0
O386 O 0.45232 0.00505 0.30921 0.0
O387 O 0.5378 0.0035 0.20365 0.0
O388 O 0.47855 0.93369 0.24896 0.0
O389 O 0.53812 0.99332 0.30393 0.0
O390 O 0.49307 0.95483 0.20578 0.0
O391 O 0.55897 0.01962 0.24592 0.0
O392 O 0.50289 0.95777 0.30752 0.0
O393 O 0.48696 0.05058 0.2086 0.0
O394 O 0.42672 0.97954 0.25174 0.0
O395 O 0.48786 0.0407 0.30798 0.0
Sc396 Sc 0.53125 0.47528 0.21781 0.0
Sc397 Sc 0.4728 0.52956 0.22326 0.0
Sc398 Sc 0.498 0.49348 0.28737 0.0
O399 O 0.50086 0.49944 0.24269 0.0
C400 C 0.50954 0.42654 0.26503 0.0
C401 C 0.47166 0.47379 0.17844 0.0
C402 C 0.42928 0.5004 0.27194 0.0
C403 C 0.53325 0.53883 0.1856 0.0
C404 C 0.56863 0.49331 0.27616 0.0
C405 C 0.48945 0.56467 0.28206 0.0
O406 O 0.52092 0.43311 0.23977 0.0
O407 O 0.45953 0.49633 0.19108 0.0
O408 O 0.45023 0.48789 0.28658 0.0
O409 O 0.54567 0.51402 0.19218 0.0
O410 O 0.54559 0.49849 0.29214 0.0
O411 O 0.48382 0.5652 0.25415 0.0
O412 O 0.56736 0.48378 0.24926 0.0
O413 O 0.50734 0.54618 0.19473 0.0
O414 O 0.49359 0.54047 0.29648 0.0
O415 O 0.49788 0.46424 0.18442 0.0
O416 O 0.50123 0.44598 0.28397 0.0
O417 O 0.43406 0.51762 0.2498 0.0
Sc418 Sc 0.97428 0.52853 0.71837 0.0
Sc419 Sc 0.03207 0.4739 0.726 0.0
Sc420 Sc 0.00196 0.50755 0.78964 0.0
O421 O 0.00271 0.50342 0.74457 0.0
C422 C 0.99453 0.57536 0.76895 0.0
C423 C 0.03562 0.53027 0.68169 0.0
C424 C 0.07233 0.50015 0.77814 0.0
C425 C 0.97363 0.46477 0.6857 0.0
C426 C 0.93226 0.51125 0.77326 0.0
C427 C 0.0089 0.43692 0.78238 0.0
O428 O 0.98237 0.5694 0.7438 0.0
O429 O 0.04571 0.50635 0.69343 0.0
O430 O 0.04996 0.50813 0.79386 0.0
O431 O 0.96229 0.49063 0.69008 0.0
O432 O 0.95405 0.50722 0.79105 0.0
O433 O 0.0218 0.43822 0.75702 0.0
O434 O 0.93542 0.51875 0.74594 0.0
O435 O 0.99811 0.4563 0.69744 0.0
O436 O 2e-05 0.45999 0.79652 0.0
O437 O 0.01003 0.54131 0.68797 0.0
O438 O 0.00352 0.55538 0.7871 0.0
O439 O 0.0696 0.48778 0.7527 0.0
Sc440 Sc 0.70812 0.00216 0.00564 0.0
Sc441 Sc 0.77301 0.96777 0.97906 0.0
Sc442 Sc 0.77857 0.02849 0.03072 0.0
O443 O 0.75333 0.99947 0.0053 0.0
C444 C 0.72557 0.0714 0.00932 0.0
C445 C 0.7209 0.99162 0.93631 0.0
C446 C 0.81439 0.02573 0.96906 0.0
C447 C 0.7169 0.93093 0.0023 0.0
C448 C 0.72516 0.01006 0.07473 0.0
C449 C 0.81484 0.967 0.03699 0.0
O450 O 0.70806 0.04998 0.003 0.0
O451 O 0.74542 0.97767 0.94046 0.0
O452 O 0.80754 0.03961 0.9931 0.0
O453 O 0.7018 0.95443 0.00792 0.0
O454 O 0.75159 0.02015 0.07056 0.0
O455 O 0.80278 0.9545 0.01444 0.0
O456 O 0.70748 0.00278 0.05361 0.0
O457 O 0.74352 0.93185 0.99227 0.0
O458 O 0.80931 0.99376 0.04506 0.0
O459 O 0.70519 0.0021 0.95764 0.0
O460 O 0.75164 0.06753 0.0201 0.0
O461 O 0.80415 3e-05 0.96235 0.0
Sc462 Sc 0.20793 0.48657 0.99268 0.0
Sc463 Sc 0.26987 0.52344 0.02254 0.0
Sc464 Sc 0.28063 0.46387 0.97034 0.0
O465 O 0.25293 0.49123 0.99516 0.0
C466 C 0.22915 0.41831 0.98964 0.0
C467 C 0.21676 0.49718 0.06261 0.0
C468 C 0.31436 0.46769 0.03283 0.0
C469 C 0.21308 0.55802 0.99707 0.0
C470 C 0.22866 0.48075 0.92452 0.0
C471 C 0.31353 0.52722 0.96596 0.0
O472 O 0.21027 0.43888 0.99484 0.0
O473 O 0.24096 0.51195 0.05971 0.0
O474 O 0.30901 0.45413 0.00832 0.0
O475 O 0.19944 0.53391 0.99059 0.0
O476 O 0.25514 0.47152 0.92976 0.0
O477 O 0.30024 0.53858 0.98844 0.0
O478 O 0.20959 0.48681 0.94478 0.0
O479 O 0.23921 0.55819 0.00836 0.0
O480 O 0.3097 0.50038 0.95722 0.0
O481 O 0.20261 0.4861 0.04052 0.0
O482 O 0.25558 0.42328 0.98026 0.0
O483 O 0.30218 0.49245 0.04012 0.0
Sc484 Sc 0.22291 0.53594 0.46751 0.0
Sc485 Sc 0.22484 0.47943 0.52418 0.0
Sc486 Sc 0.29117 0.513 0.50024 0.0
O487 O 0.24614 0.5095 0.49729 0.0
C488 C 0.27971 0.51562 0.42942 0.0
C489 C 0.18715 0.47402 0.46365 0.0
C490 C 0.28262 0.44198 0.50519 0.0
C491 C 0.18209 0.53743 0.52592 0.0
C492 C 0.27291 0.58131 0.49154 0.0
C493 C 0.27434 0.50489 0.56906 0.0
O494 O 0.25247 0.5242 0.43056 0.0
O495 O 0.19755 0.4636 0.48797 0.0
O496 O 0.29777 0.46536 0.4994 0.0
O497 O 0.19121 0.54942 0.50169 0.0
O498 O 0.28966 0.56072 0.50162 0.0
O499 O 0.24976 0.49134 0.56413 0.0
O500 O 0.24874 0.57622 0.47731 0.0
O501 O 0.19186 0.51263 0.53615 0.0
O502 O 0.29125 0.51425 0.54822 0.0
O503 O 0.19338 0.49995 0.45366 0.0
O504 O 0.29581 0.51201 0.45261 0.0
O505 O 0.25569 0.44306 0.51456 0.0
Sc506 Sc 0.72105 0.97402 0.52118 0.0
Sc507 Sc 0.72647 0.03276 0.46717 0.0
Sc508 Sc 0.79142 0.00127 0.49718 0.0
O509 O 0.74619 0.00266 0.49527 0.0
C510 C 0.77297 0.99419 0.56595 0.0
C511 C 0.68392 0.03525 0.52469 0.0
C512 C 0.78064 0.07186 0.49175 0.0
C513 C 0.68574 0.97399 0.45922 0.0
C514 C 0.77533 0.93172 0.50131 0.0
C515 C 0.78049 0.00918 0.42695 0.0
O516 O 0.74684 0.98366 0.56137 0.0
O517 O 0.69597 0.04698 0.5017 0.0
O518 O 0.79584 0.04917 0.49975 0.0
O519 O 0.69263 0.96131 0.48383 0.0
O520 O 0.79256 0.95338 0.49487 0.0
O521 O 0.75492 0.02153 0.42957 0.0
O522 O 0.74902 0.93528 0.51173 0.0
O523 O 0.69585 0.99942 0.45135 0.0
O524 O 0.79611 0.00098 0.44929 0.0
O525 O 0.6898 0.00894 0.53397 0.0
O526 O 0.791 0.0012 0.54508 0.0
O527 O 0.75522 0.06986 0.47913 0.0
H528 H 0.93338 0.18924 0.07671 0.0
H529 H 0.96927 0.11984 0.01977 0.0
H530 H 0.92043 0.15178 0.11447 0.0
H531 H 0.95761 0.08234 0.0579 0.0
H532 H 0.97561 0.09628 0.18404 0.0
H533 H 0.95976 0.12948 0.14428 0.0
H534 H 0.92638 0.05371 0.09389 0.0
H535 H 0.9427 0.02005 0.1343 0.0
C536 C 0.93738 0.16575 0.07191 0.0
C537 C 0.95233 0.15717 0.04568 0.0
C538 C 0.93017 0.14434 0.09349 0.0
C539 C 0.93868 0.11423 0.08947 0.0
C540 C 0.95063 0.1053 0.06166 0.0
C541 C 0.95743 0.12672 0.03985 0.0
C542 C 0.96435 0.08672 0.16476 0.0
C543 C 0.96083 0.05562 0.16195 0.0
C544 C 0.95485 0.10581 0.14206 0.0
C545 C 0.94178 0.09425 0.11584 0.0
C546 C 0.93648 0.06321 0.11381 0.0
C547 C 0.94572 0.04401 0.13689 0.0
H548 H 0.53869 0.87602 0.52212 0.0
H549 H 0.56942 0.80663 0.58189 0.0
H550 H 0.55146 0.91402 0.5594 0.0
H551 H 0.58394 0.8445 0.61863 0.0
H552 H 0.53366 0.90474 0.68702 0.0
H553 H 0.54765 0.86972 0.6482 0.0
H554 H 0.58222 0.94264 0.59449 0.0
H555 H 0.5675 0.9782 0.63399 0.0
C556 C 0.54963 0.86913 0.54269 0.0
C557 C 0.55285 0.83863 0.54951 0.0
C558 C 0.55708 0.89085 0.56403 0.0
C559 C 0.56806 0.88223 0.59233 0.0
C560 C 0.5748 0.85181 0.59736 0.0
C561 C 0.56672 0.83013 0.57634 0.0
C562 C 0.54485 0.91327 0.66722 0.0
C563 C 0.54908 0.94415 0.66324 0.0
C564 C 0.55326 0.89312 0.645 0.0
C565 C 0.56603 0.90331 0.61806 0.0
C566 C 0.57223 0.93413 0.61491 0.0
C567 C 0.56398 0.95443 0.6375 0.0
H568 H 0.43553 0.47526 0.86381 0.0
H569 H 0.47074 0.4031 0.8097 0.0
H570 H 0.42273 0.4391 0.90331 0.0
H571 H 0.45896 0.36756 0.84868 0.0
H572 H 0.46479 0.37415 0.97676 0.0
H573 H 0.45309 0.41147 0.93846 0.0
H574 H 0.42524 0.34057 0.87847 0.0
H575 H 0.43881 0.30345 0.91633 0.0
C576 C 0.43978 0.45163 0.86007 0.0
C577 C 0.45448 0.44198 0.83393 0.0
C578 C 0.43272 0.43096 0.88273 0.0
C579 C 0.44 0.40036 0.87938 0.0
C580 C 0.45256 0.39072 0.85212 0.0
C581 C 0.45967 0.41123 0.82977 0.0
C582 C 0.45525 0.36679 0.95568 0.0
C583 C 0.45283 0.33614 0.9492 0.0
C584 C 0.44839 0.38813 0.93373 0.0
C585 C 0.43879 0.37904 0.90506 0.0
C586 C 0.43334 0.34835 0.89999 0.0
C587 C 0.44083 0.32706 0.92167 0.0
H588 H 0.03307 0.62341 0.47387 0.0
H589 H 0.05805 0.69305 0.41185 0.0
H590 H 0.04354 0.58547 0.43573 0.0
H591 H 0.07042 0.65533 0.37418 0.0
H592 H 0.05908 0.52055 0.36097 0.0
H593 H 0.07263 0.55698 0.40004 0.0
H594 H 0.03602 0.62826 0.34542 0.0
H595 H 0.02347 0.59242 0.30691 0.0
C596 C 0.04217 0.63041 0.45247 0.0
C597 C 0.04463 0.66098 0.44555 0.0
C598 C 0.04828 0.6087 0.43058 0.0
C599 C 0.0572 0.61731 0.40154 0.0
C600 C 0.06278 0.64789 0.39598 0.0
C601 C 0.05601 0.66954 0.41759 0.0
C602 C 0.05495 0.54418 0.35711 0.0
C603 C 0.04 0.55369 0.3311 0.0
C604 C 0.06242 0.56501 0.37955 0.0
C605 C 0.05528 0.59564 0.3761 0.0
C606 C 0.04237 0.60509 0.34895 0.0
C607 C 0.03485 0.58443 0.32684 0.0
H608 H 0.02241 0.94113 0.13587 0.0
H609 H 0.09927 0.96945 0.18735 0.0
H610 H 0.05565 0.92674 0.09445 0.0
H611 H 0.13214 0.95555 0.14646 0.0
H612 H 0.19071 0.93201 0.07475 0.0
H613 H 0.15412 0.91893 0.11341 0.0
H614 H 0.08395 0.95962 0.06034 0.0
H615 H 0.12057 0.97161 0.02143 0.0
C616 C 0.04642 0.94341 0.13866 0.0
C617 C 0.0583 0.95679 0.16457 0.0
C618 C 0.06541 0.93535 0.11494 0.0
C619 C 0.09653 0.94019 0.11703 0.0
C620 C 0.10839 0.95115 0.14408 0.0
C621 C 0.0895 0.95943 0.1675 0.0
C622 C 0.1672 0.93688 0.07094 0.0
C623 C 0.1582 0.9527 0.04537 0.0
C624 C 0.1463 0.92962 0.09306 0.0
C625 C 0.11622 0.93874 0.09021 0.0
C626 C 0.10685 0.95205 0.06319 0.0
C627 C 0.12777 0.95903 0.04092 0.0
H628 H 0.42364 0.06335 0.6958 0.0
H629 H 0.48344 0.03374 0.6259 0.0
H630 H 0.38572 0.07587 0.65837 0.0
H631 H 0.4451 0.0446 0.58836 0.0
H632 H 0.31779 0.02369 0.59971 0.0
H633 H 0.35711 0.03818 0.63389 0.0
H634 H 0.40853 0.07421 0.56005 0.0
H635 H 0.36862 0.05898 0.5253 0.0
C636 C 0.42894 0.06055 0.67226 0.0
C637 C 0.45618 0.04758 0.66352 0.0
C638 C 0.40723 0.06745 0.65084 0.0
C639 C 0.41205 0.06044 0.62045 0.0
C640 C 0.44063 0.05039 0.61151 0.0
C641 C 0.4626 0.04407 0.63297 0.0
C642 C 0.33723 0.03518 0.59075 0.0
C643 C 0.34039 0.03976 0.55981 0.0
C644 C 0.35971 0.04391 0.61045 0.0
C645 C 0.3861 0.0574 0.59978 0.0
C646 C 0.38854 0.0637 0.56894 0.0
C647 C 0.3657 0.05513 0.54909 0.0
H648 H 0.57955 0.56129 0.80328 0.0
H649 H 0.52235 0.53005 0.87454 0.0
H650 H 0.61778 0.57534 0.83984 0.0
H651 H 0.56105 0.5424 0.91121 0.0
H652 H 0.68974 0.52985 0.89946 0.0
H653 H 0.64972 0.54172 0.86503 0.0
H654 H 0.59539 0.57389 0.93866 0.0
H655 H 0.63582 0.56106 0.9736 0.0
C656 C 0.57495 0.55825 0.82694 0.0
C657 C 0.54829 0.54461 0.83631 0.0
C658 C 0.59685 0.56603 0.84786 0.0
C659 C 0.59284 0.55934 0.87844 0.0
C660 C 0.56491 0.54809 0.88794 0.0
C661 C 0.54274 0.54087 0.86698 0.0
C662 C 0.66953 0.54009 0.90829 0.0
C663 C 0.66571 0.54404 0.93925 0.0
C664 C 0.64657 0.54724 0.88845 0.0
C665 C 0.61909 0.55858 0.89902 0.0
C666 C 0.61613 0.56483 0.92983 0.0
C667 C 0.63934 0.55773 0.94981 0.0
H668 H 0.97526 0.46582 0.37361 0.0
H669 H 0.91473 0.43327 0.3058 0.0
H670 H 0.9388 0.45318 0.41244 0.0
H671 H 0.87883 0.41881 0.3445 0.0
H672 H 0.86679 0.43619 0.47865 0.0
H673 H 0.90564 0.42218 0.44217 0.0
H674 H 0.84836 0.45329 0.37039 0.0
H675 H 0.81011 0.4664 0.40633 0.0
C676 C 0.95465 0.45464 0.36726 0.0
C677 C 0.94742 0.45073 0.33697 0.0
C678 C 0.93379 0.44722 0.38946 0.0
C679 C 0.90555 0.43556 0.38155 0.0
C680 C 0.90003 0.42847 0.3513 0.0
C681 C 0.92057 0.43652 0.32914 0.0
C682 C 0.86235 0.43902 0.45496 0.0
C683 C 0.83574 0.45276 0.44524 0.0
C684 C 0.8846 0.43123 0.4341 0.0
C685 C 0.8803 0.43681 0.40331 0.0
C686 C 0.85251 0.44822 0.39374 0.0
C687 C 0.83059 0.45611 0.41443 0.0
H688 H 0.13423 0.02048 0.93543 0.0
H689 H 0.18889 0.09453 0.96514 0.0
H690 H 0.09425 0.05575 0.92167 0.0
H691 H 0.14945 0.12943 0.95182 0.0
H692 H 0.07936 0.1914 0.92938 0.0
H693 H 0.11703 0.15371 0.91598 0.0
H694 H 0.06145 0.08474 0.9552 0.0
H695 H 0.02374 0.12241 0.96769 0.0
C696 C 0.13804 0.04431 0.93811 0.0
C697 C 0.16442 0.05481 0.95169 0.0
C698 C 0.11513 0.06448 0.93043 0.0
C699 C 0.11852 0.09542 0.93585 0.0
C700 C 0.14607 0.10588 0.94698 0.0
C701 C 0.16865 0.08582 0.95491 0.0
C702 C 0.07478 0.16796 0.93383 0.0
C703 C 0.04881 0.15956 0.94934 0.0
C704 C 0.09636 0.14642 0.92642 0.0
C705 C 0.09247 0.11626 0.93492 0.0
C706 C 0.0651 0.10764 0.94802 0.0
C707 C 0.0435 0.12918 0.95528 0.0
H708 H 0.51683 0.37019 0.05442 0.0
H709 H 0.59208 0.31159 0.03783 0.0
H710 H 0.55155 0.41152 0.06519 0.0
H711 H 0.62651 0.35231 0.04853 0.0
H712 H 0.68655 0.42636 0.06759 0.0
H713 H 0.64773 0.39037 0.08237 0.0
H714 H 0.5835 0.43754 0.02723 0.0
H715 H 0.62226 0.47344 0.01295 0.0
C716 C 0.54075 0.36592 0.05419 0.0
C717 C 0.55193 0.33796 0.04502 0.0
C718 C 0.56058 0.38953 0.06016 0.0
C719 C 0.59174 0.38522 0.05747 0.0
C720 C 0.6027 0.35637 0.05111 0.0
C721 C 0.58299 0.33306 0.04474 0.0
C722 C 0.66383 0.42943 0.05956 0.0
C723 C 0.65711 0.45235 0.0392 0.0
C724 C 0.64168 0.40891 0.06791 0.0
C725 C 0.61261 0.41102 0.05582 0.0
C726 C 0.60551 0.43551 0.03726 0.0
C727 C 0.62768 0.45593 0.02889 0.0
H728 H 0.97747 0.63344 0.56005 0.0
H729 H 0.90391 0.68478 0.52359 0.0
H730 H 0.94217 0.59404 0.57526 0.0
H731 H 0.86917 0.64594 0.53807 0.0
H732 H 0.87642 0.51949 0.53426 0.0
H733 H 0.91406 0.55772 0.54518 0.0
H734 H 0.84405 0.61759 0.57564 0.0
H735 H 0.80653 0.57976 0.56311 0.0
C736 C 0.95374 0.6366 0.55596 0.0
C737 C 0.94341 0.66186 0.54024 0.0
C738 C 0.93359 0.61405 0.56452 0.0
C739 C 0.90284 0.61674 0.55783 0.0
C740 C 0.89253 0.64316 0.54407 0.0
C741 C 0.91254 0.66535 0.53536 0.0
C742 C 0.86937 0.54046 0.54436 0.0
C743 C 0.83883 0.54704 0.54769 0.0
C744 C 0.89088 0.56234 0.55074 0.0
C745 C 0.88198 0.59097 0.56067 0.0
C746 C 0.85154 0.59601 0.56735 0.0
C747 C 0.83008 0.57438 0.56042 0.0
H748 H 0.3668 0.97887 0.44512 0.0
H749 H 0.31247 0.90288 0.47029 0.0
H750 H 0.40767 0.94479 0.43107 0.0
H751 H 0.35285 0.8691 0.4564 0.0
H752 H 0.42598 0.81008 0.43196 0.0
H753 H 0.38786 0.84764 0.41915 0.0
H754 H 0.4384 0.91486 0.4672 0.0
H755 H 0.47625 0.87734 0.47967 0.0
C756 C 0.36326 0.95489 0.44669 0.0
C757 C 0.33674 0.94345 0.45921 0.0
C758 C 0.38664 0.93543 0.43878 0.0
C759 C 0.38356 0.90429 0.44286 0.0
C760 C 0.3559 0.8929 0.4527 0.0
C761 C 0.33283 0.91228 0.46095 0.0
C762 C 0.42934 0.83319 0.43865 0.0
C763 C 0.45379 0.8411 0.45667 0.0
C764 C 0.40757 0.85461 0.43148 0.0
C765 C 0.41003 0.88414 0.44237 0.0
C766 C 0.43601 0.89245 0.45816 0.0
C767 C 0.4576 0.871 0.46545 0.0
H768 H 0.05855 0.97586 0.86513 0.0
H769 H 0.02507 0.90165 0.81282 0.0
H770 H 0.07406 0.94075 0.90461 0.0
H771 H 0.04012 0.867 0.85168 0.0
H772 H 0.02965 0.87411 0.97675 0.0
H773 H 0.04193 0.91199 0.93928 0.0
H774 H 0.07818 0.84289 0.88169 0.0
H775 H 0.06481 0.80503 0.91902 0.0
C776 C 0.05525 0.95203 0.86177 0.0
C777 C 0.04017 0.94142 0.83626 0.0
C778 C 0.06403 0.93199 0.88432 0.0
C779 C 0.05824 0.90109 0.88136 0.0
C780 C 0.04534 0.89053 0.85465 0.0
C781 C 0.03632 0.91045 0.83246 0.0
C782 C 0.04143 0.86734 0.9566 0.0
C783 C 0.04631 0.83692 0.95049 0.0
C784 C 0.04859 0.88899 0.93515 0.0
C785 C 0.06056 0.88036 0.90727 0.0
C786 C 0.06853 0.85014 0.90277 0.0
C787 C 0.0611 0.8285 0.92412 0.0
H788 H 0.43745 0.13645 0.47739 0.0
H789 H 0.4631 0.1888 0.40022 0.0
H790 H 0.42258 0.09512 0.44424 0.0
H791 H 0.44863 0.14806 0.36741 0.0
H792 H 0.42537 0.07629 0.30901 0.0
H793 H 0.41194 0.11434 0.3462 0.0
H794 H 0.45588 0.062 0.4149 0.0
H795 H 0.46834 0.02378 0.37773 0.0
C796 C 0.43899 0.13945 0.45335 0.0
C797 C 0.4518 0.16554 0.44129 0.0
C798 C 0.43064 0.1158 0.43441 0.0
C799 C 0.43461 0.11819 0.4032 0.0
C800 C 0.44491 0.14546 0.39125 0.0
C801 C 0.45352 0.16877 0.41008 0.0
C802 C 0.43088 0.07246 0.33235 0.0
C803 C 0.44776 0.04736 0.34077 0.0
C804 C 0.4234 0.09423 0.35359 0.0
C805 C 0.4333 0.09145 0.3834 0.0
C806 C 0.44768 0.06477 0.39223 0.0
C807 C 0.45494 0.04291 0.37099 0.0
H808 H 0.53481 0.62538 0.02279 0.0
H809 H 0.55816 0.69817 0.08182 0.0
H810 H 0.54909 0.58929 0.06132 0.0
H811 H 0.57454 0.66236 0.1198 0.0
H812 H 0.56752 0.52713 0.1357 0.0
H813 H 0.58024 0.56333 0.09629 0.0
H814 H 0.54321 0.63462 0.1508 0.0
H815 H 0.53162 0.59897 0.18971 0.0
C816 C 0.54429 0.63352 0.04361 0.0
C817 C 0.54509 0.66432 0.04972 0.0
C818 C 0.55268 0.61289 0.06569 0.0
C819 C 0.56236 0.62286 0.09405 0.0
C820 C 0.56634 0.65386 0.09859 0.0
C821 C 0.55721 0.67441 0.07685 0.0
C822 C 0.56325 0.55074 0.1395 0.0
C823 C 0.54822 0.56029 0.16546 0.0
C824 C 0.57022 0.57144 0.11687 0.0
C825 C 0.5624 0.60192 0.12006 0.0
C826 C 0.54995 0.61154 0.1474 0.0
C827 C 0.54298 0.591 0.16975 0.0
H828 H 0.94096 0.47591 0.63448 0.0
H829 H 0.97388 0.40466 0.69105 0.0
H830 H 0.9274 0.43886 0.59612 0.0
H831 H 0.96163 0.36824 0.65317 0.0
H832 H 0.94523 0.30277 0.5865 0.0
H833 H 0.9298 0.3404 0.62316 0.0
H834 H 0.95704 0.41055 0.562 0.0
H835 H 0.97021 0.37269 0.5248 0.0
C836 C 0.94454 0.45232 0.63901 0.0
C837 C 0.95895 0.44315 0.66544 0.0
C838 C 0.93705 0.43111 0.61699 0.0
C839 C 0.94373 0.40048 0.62124 0.0
C840 C 0.95571 0.3914 0.64894 0.0
C841 C 0.96315 0.41242 0.67069 0.0
C842 C 0.9467 0.3263 0.58064 0.0
C843 C 0.95899 0.33505 0.55314 0.0
C844 C 0.93816 0.34789 0.60165 0.0
C845 C 0.94301 0.37859 0.59599 0.0
C846 C 0.9528 0.38724 0.56724 0.0
C847 C 0.96055 0.36558 0.54592 0.0
H848 H 0.9103 0.05464 0.80491 0.0
H849 H 0.97487 0.03276 0.87332 0.0
H850 H 0.87384 0.06832 0.84337 0.0
H851 H 0.93792 0.04434 0.91206 0.0
H852 H 0.80954 0.02172 0.90925 0.0
H853 H 0.84668 0.03412 0.87208 0.0
H854 H 0.90262 0.07358 0.94074 0.0
H855 H 0.86491 0.0601 0.97863 0.0
C856 C 0.91681 0.05349 0.82828 0.0
C857 C 0.94509 0.04253 0.83636 0.0
C858 C 0.89594 0.06106 0.85034 0.0
C859 C 0.90258 0.05659 0.88088 0.0
C860 C 0.93197 0.0482 0.88886 0.0
C861 C 0.95313 0.0414 0.86671 0.0
C862 C 0.8295 0.03358 0.91641 0.0
C863 C 0.8346 0.03952 0.94685 0.0
C864 C 0.85078 0.04109 0.89496 0.0
C865 C 0.87787 0.05483 0.90329 0.0
C866 C 0.88213 0.06273 0.9336 0.0
C867 C 0.86052 0.05525 0.95526 0.0
H868 H 0.52072 0.96525 0.37408 0.0
H869 H 0.57987 0.93884 0.30238 0.0
H870 H 0.55993 0.9542 0.41065 0.0
H871 H 0.61876 0.9262 0.33881 0.0
H872 H 0.63672 0.93899 0.47248 0.0
H873 H 0.59691 0.92412 0.43747 0.0
H874 H 0.64756 0.9628 0.36445 0.0
H875 H 0.68681 0.97692 0.39892 0.0
C876 C 0.54168 0.95564 0.36638 0.0
C877 C 0.54757 0.95296 0.33564 0.0
C878 C 0.56415 0.9492 0.38728 0.0
C879 C 0.59275 0.93988 0.37762 0.0
C880 C 0.59722 0.93399 0.34693 0.0
C881 C 0.57497 0.94095 0.32608 0.0
C882 C 0.63955 0.94341 0.44879 0.0
C883 C 0.66456 0.95946 0.4384 0.0
C884 C 0.61675 0.93509 0.42879 0.0
C885 C 0.61891 0.94237 0.39814 0.0
C886 C 0.64514 0.95637 0.38772 0.0
C887 C 0.6676 0.96483 0.40758 0.0
H888 H 0.36569 0.43639 0.01971 0.0
H889 H 0.31331 0.47165 0.09314 0.0
H890 H 0.40674 0.42502 0.05457 0.0
H891 H 0.35377 0.4607 0.12754 0.0
H892 H 0.47905 0.47375 0.11809 0.0
H893 H 0.44085 0.45989 0.08128 0.0
H894 H 0.3854 0.42458 0.15247 0.0
H895 H 0.42314 0.43969 0.18912 0.0
C896 C 0.36267 0.44091 0.04338 0.0
C897 C 0.33659 0.45524 0.05378 0.0
C898 C 0.38615 0.43456 0.06325 0.0
C899 C 0.38357 0.44203 0.09378 0.0
C900 C 0.35646 0.45424 0.1043 0.0
C901 C 0.33332 0.46085 0.08452 0.0
C902 C 0.45912 0.46205 0.12555 0.0
C903 C 0.45363 0.45793 0.15617 0.0
C904 C 0.43731 0.45396 0.10455 0.0
C905 C 0.40988 0.44161 0.11407 0.0
C906 C 0.40607 0.43456 0.14455 0.0
C907 C 0.42762 0.44305 0.16548 0.0
H908 H 0.1225 0.53033 0.5186 0.0
H909 H 0.18855 0.5752 0.57287 0.0
H910 H 0.08406 0.54113 0.5561 0.0
H911 H 0.15007 0.58688 0.61024 0.0
H912 H 0.09587 0.53441 0.68339 0.0
H913 H 0.12918 0.54899 0.64312 0.0
H914 H 0.0529 0.57373 0.58872 0.0
H915 H 0.01919 0.5588 0.62965 0.0
C916 C 0.12835 0.54376 0.53798 0.0
C917 C 0.15821 0.55201 0.54309 0.0
C918 C 0.10638 0.55006 0.55942 0.0
C919 C 0.11412 0.5645 0.58637 0.0
C920 C 0.14353 0.57537 0.58989 0.0
C921 C 0.1655 0.5689 0.56851 0.0
C922 C 0.0862 0.54364 0.66311 0.0
C923 C 0.055 0.54509 0.65942 0.0
C924 C 0.10532 0.55234 0.64007 0.0
C925 C 0.09372 0.56245 0.6126 0.0
C926 C 0.06246 0.56587 0.6096 0.0
C927 C 0.04321 0.55747 0.63299 0.0
H928 H 0.80772 0.91797 0.072 0.0
H929 H 0.8745 0.97706 0.035 0.0
H930 H 0.84675 0.88183 0.0851 0.0
H931 H 0.91349 0.94033 0.04611 0.0
H932 H 0.97957 0.86749 0.05803 0.0
H933 H 0.94482 0.90702 0.07446 0.0
H934 H 0.86999 0.85025 0.05036 0.0
H935 H 0.90429 0.81135 0.035 0.0
C936 C 0.83095 0.9235 0.06753 0.0
C937 C 0.83832 0.95001 0.05246 0.0
C938 C 0.8533 0.90278 0.07475 0.0
C939 C 0.88321 0.9077 0.06586 0.0
C940 C 0.89081 0.93571 0.05344 0.0
C941 C 0.86849 0.95677 0.04691 0.0
C942 C 0.95566 0.86333 0.05729 0.0
C943 C 0.94452 0.83667 0.04483 0.0
C944 C 0.93576 0.88597 0.06646 0.0
C945 C 0.90452 0.88205 0.0635 0.0
C946 C 0.89374 0.8542 0.05344 0.0
C947 C 0.91346 0.83187 0.04423 0.0
H948 H 0.47522 0.63151 0.93558 0.0
H949 H 0.40286 0.68406 0.97278 0.0
H950 H 0.43923 0.59212 0.92179 0.0
H951 H 0.36755 0.64528 0.95995 0.0
H952 H 0.37347 0.51776 0.96216 0.0
H953 H 0.41122 0.55588 0.95116 0.0
H954 H 0.34099 0.61713 0.92425 0.0
H955 H 0.30345 0.57954 0.9372 0.0
C956 C 0.45161 0.6349 0.94015 0.0
C957 C 0.44183 0.66056 0.95561 0.0
C958 C 0.43105 0.61235 0.93246 0.0
C959 C 0.40045 0.6154 0.93981 0.0
C960 C 0.39072 0.64214 0.9534 0.0
C961 C 0.4111 0.66434 0.96117 0.0
C962 C 0.36635 0.53908 0.95295 0.0
C963 C 0.33577 0.54607 0.95081 0.0
C964 C 0.38793 0.56091 0.9465 0.0
C965 C 0.37911 0.58987 0.93751 0.0
C966 C 0.34851 0.59537 0.93196 0.0
C967 C 0.32701 0.57385 0.93912 0.0
H968 H 0.19704 0.42239 0.43342 0.0
H969 H 0.12726 0.48318 0.46136 0.0
H970 H 0.1595 0.38417 0.42222 0.0
H971 H 0.08962 0.44459 0.45186 0.0
H972 H 0.02616 0.36773 0.43926 0.0
H973 H 0.06098 0.40747 0.42353 0.0
H974 H 0.13483 0.35631 0.46006 0.0
H975 H 0.10061 0.31722 0.47499 0.0
C976 C 0.1735 0.42783 0.43612 0.0
C977 C 0.16485 0.45551 0.44817 0.0
C978 C 0.152 0.40593 0.43003 0.0
C979 C 0.12159 0.411 0.43693 0.0
C980 C 0.11276 0.43989 0.44615 0.0
C981 C 0.13429 0.46202 0.45166 0.0
C982 C 0.04996 0.36484 0.4431 0.0
C983 C 0.06069 0.33967 0.4587 0.0
C984 C 0.06986 0.38759 0.43427 0.0
C985 C 0.10076 0.38518 0.44053 0.0
C986 C 0.11139 0.35892 0.45433 0.0
C987 C 0.09165 0.33656 0.4633 0.0
H988 H 0.59177 0.19143 0.52675 0.0
H989 H 0.51863 0.13379 0.55274 0.0
H990 H 0.62739 0.15272 0.53936 0.0
H991 H 0.55476 0.09444 0.56638 0.0
H992 H 0.69159 0.08511 0.55835 0.0
H993 H 0.65275 0.12109 0.57253 0.0
H994 H 0.58521 0.062 0.53589 0.0
H995 H 0.62411 0.02545 0.52362 0.0
C996 C 0.58341 0.17061 0.53609 0.0
C997 C 0.55249 0.16539 0.53836 0.0
C998 C 0.6039 0.14839 0.54367 0.0
C999 C 0.59406 0.12019 0.55374 0.0
C1000 C 0.56308 0.11577 0.55833 0.0
C1001 C 0.5424 0.13831 0.5508 0.0
C1002 C 0.66828 0.07948 0.55451 0.0
C1003 C 0.66062 0.0528 0.53987 0.0
C1004 C 0.64603 0.10009 0.56237 0.0
C1005 C 0.61585 0.09486 0.55465 0.0
C1006 C 0.60809 0.06682 0.54237 0.0
C1007 C 0.63035 0.04589 0.53516 0.0
H1008 H 0.76443 0.37725 0.96788 0.0
H1009 H 0.8253 0.41735 0.03156 0.0
H1010 H 0.79295 0.33016 0.97061 0.0
H1011 H 0.85371 0.37132 0.03384 0.0
H1012 H 0.90002 0.28842 0.04463 0.0
H1013 H 0.85575 0.3203 0.04883 0.0
H1014 H 0.84267 0.31427 0.95303 0.0
H1015 H 0.88618 0.28097 0.94934 0.0
C1016 C 0.7835 0.37584 0.98283 0.0
C1017 C 0.79284 0.40108 0.99924 0.0
C1018 C 0.79991 0.34898 0.98427 0.0
C1019 C 0.82564 0.34688 0.00245 0.0
C1020 C 0.8338 0.37177 0.01998 0.0
C1021 C 0.81766 0.39842 0.0184 0.0
C1022 C 0.88688 0.29299 0.02473 0.0
C1023 C 0.89635 0.28247 0.99669 0.0
C1024 C 0.86171 0.31144 0.02702 0.0
C1025 C 0.84612 0.32052 0.00116 0.0
C1026 C 0.85405 0.30768 0.97342 0.0
C1027 C 0.87898 0.28864 0.97124 0.0
H1028 H 0.59874 0.7092 0.54362 0.0
H1029 H 0.61616 0.71488 0.44877 0.0
H1030 H 0.64177 0.67594 0.54975 0.0
H1031 H 0.65869 0.68057 0.45447 0.0
H1032 H 0.73573 0.61781 0.47363 0.0
H1033 H 0.70777 0.66508 0.47527 0.0
H1034 H 0.64267 0.62415 0.53415 0.0
H1035 H 0.67053 0.57755 0.53289 0.0
C1036 C 0.61252 0.70404 0.52426 0.0
C1037 C 0.6044 0.71442 0.49576 0.0
C1038 C 0.63693 0.68482 0.52768 0.0
C1039 C 0.65321 0.67508 0.50251 0.0
C1040 C 0.64671 0.68775 0.47434 0.0
C1041 C 0.62241 0.70738 0.471 0.0
C1042 C 0.71577 0.61918 0.4874 0.0
C1043 C 0.70514 0.59384 0.50287 0.0
C1044 C 0.69972 0.64619 0.48821 0.0
C1045 C 0.67301 0.6484 0.5048 0.0
C1046 C 0.66338 0.62345 0.52148 0.0
C1047 C 0.67921 0.59654 0.52051 0.0
H1048 H 0.33171 0.07501 0.97376 0.0
H1049 H 0.26629 0.11683 0.03184 0.0
H1050 H 0.36009 0.12106 0.97227 0.0
H1051 H 0.2948 0.16378 0.02982 0.0
H1052 H 0.40436 0.20522 0.96012 0.0
H1053 H 0.36148 0.17173 0.95504 0.0
H1054 H 0.34329 0.181 0.04976 0.0
H1055 H 0.38553 0.21575 0.05428 0.0
C1056 C 0.32313 0.09421 0.98594 0.0
C1057 C 0.29688 0.09207 0.00321 0.0
C1058 C 0.33927 0.12086 0.98478 0.0
C1059 C 0.32967 0.14626 0.00081 0.0
C1060 C 0.30284 0.14456 0.01733 0.0
C1061 C 0.28648 0.11773 0.01838 0.0
C1062 C 0.39036 0.20101 0.97952 0.0
C1063 C 0.39804 0.21289 0.00755 0.0
C1064 C 0.36602 0.18163 0.97674 0.0
C1065 C 0.34944 0.17306 0.00215 0.0
C1066 C 0.35551 0.18719 0.02973 0.0
C1067 C 0.37965 0.20708 0.03237 0.0
H1068 H 0.11301 0.77954 0.55246 0.0
H1069 H 0.09387 0.7934 0.45881 0.0
H1070 H 0.15499 0.81475 0.54909 0.0
H1071 H 0.13634 0.82757 0.45493 0.0
H1072 H 0.2323 0.87913 0.53235 0.0
H1073 H 0.20358 0.83248 0.52888 0.0
H1074 H 0.13727 0.87784 0.47475 0.0
H1075 H 0.16585 0.92383 0.47777 0.0
C1076 C 0.11879 0.78901 0.53086 0.0
C1077 C 0.1004 0.78396 0.50589 0.0
C1078 C 0.14274 0.80922 0.52889 0.0
C1079 C 0.14857 0.82446 0.50186 0.0
C1080 C 0.132 0.81674 0.47621 0.0
C1081 C 0.10792 0.79695 0.4783 0.0
C1082 C 0.21181 0.87894 0.51933 0.0
C1083 C 0.20125 0.9053 0.50553 0.0
C1084 C 0.19534 0.85226 0.51746 0.0
C1085 C 0.16821 0.85137 0.50145 0.0
C1086 C 0.15833 0.87749 0.48682 0.0
C1087 C 0.1746 0.90406 0.48883 0.0
H1088 H 0.95275 0.88845 0.28208 0.0
H1089 H 0.04559 0.91069 0.2969 0.0
H1090 H 0.95773 0.84527 0.31555 0.0
H1091 H 0.05127 0.86682 0.32901 0.0
H1092 H 0.9749 0.7676 0.37784 0.0
H1093 H 0.97853 0.79731 0.33182 0.0
H1094 H 0.03278 0.86245 0.37871 0.0
H1095 H 0.02984 0.83279 0.42385 0.0
C1096 C 0.97453 0.88321 0.29148 0.0
C1097 C 0.99875 0.90275 0.2873 0.0
C1098 C 0.97746 0.8585 0.3106 0.0
C1099 C 0.00476 0.85299 0.32548 0.0
C1100 C 0.02975 0.87089 0.31853 0.0
C1101 C 0.02663 0.89582 0.29997 0.0
C1102 C 0.98808 0.78798 0.37804 0.0
C1103 C 0.00177 0.79802 0.4046 0.0
C1104 C 0.99003 0.80504 0.35174 0.0
C1105 C 0.00592 0.83227 0.35153 0.0
C1106 C 0.02077 0.84139 0.37778 0.0
C1107 C 0.01876 0.82449 0.40389 0.0
H1108 H 0.46387 0.0904 0.79486 0.0
H1109 H 0.55786 0.11132 0.78688 0.0
H1110 H 0.45675 0.13343 0.82786 0.0
H1111 H 0.55123 0.15384 0.82107 0.0
H1112 H 0.52951 0.23164 0.88274 0.0
H1113 H 0.52916 0.20224 0.83636 0.0
H1114 H 0.47259 0.13627 0.87911 0.0
H1115 H 0.47248 0.16557 0.92474 0.0
C1116 C 0.48281 0.10486 0.79956 0.0
C1117 C 0.51137 0.09776 0.78852 0.0
C1118 C 0.47884 0.1293 0.81864 0.0
C1119 C 0.50355 0.14663 0.82767 0.0
C1120 C 0.53171 0.14103 0.81447 0.0
C1121 C 0.53557 0.11673 0.79491 0.0
C1122 C 0.51653 0.21114 0.88195 0.0
C1123 C 0.50124 0.2008 0.90753 0.0
C1124 C 0.51648 0.19425 0.85545 0.0
C1125 C 0.50085 0.16692 0.85398 0.0
C1126 C 0.48448 0.15743 0.87918 0.0
C1127 C 0.48468 0.17412 0.90556 0.0
H1128 H 0.46646 0.73472 0.62148 0.0
H1129 H 0.54017 0.68043 0.58959 0.0
H1130 H 0.46537 0.70563 0.66797 0.0
H1131 H 0.53856 0.65113 0.63508 0.0
H1132 H 0.53869 0.60141 0.71757 0.0
H1133 H 0.54539 0.64645 0.68723 0.0
H1134 H 0.44912 0.65553 0.68003 0.0
H1135 H 0.44277 0.61131 0.71171 0.0
C1136 C 0.4828 0.71701 0.62461 0.0
C1137 C 0.50313 0.70964 0.60163 0.0
C1138 C 0.48203 0.7002 0.65115 0.0
C1139 C 0.5017 0.67583 0.65529 0.0
C1140 C 0.52328 0.6699 0.63305 0.0
C1141 C 0.52401 0.68658 0.60667 0.0
C1142 C 0.51907 0.6139 0.71049 0.0
C1143 C 0.49026 0.6032 0.71695 0.0
C1144 C 0.52283 0.63946 0.69283 0.0
C1145 C 0.49781 0.65429 0.68054 0.0
C1146 C 0.46892 0.6449 0.68921 0.0
C1147 C 0.4652 0.61955 0.70735 0.0
H1148 H 0.95355 0.28206 0.10468 0.0
H1149 H 0.05005 0.28251 0.10931 0.0
H1150 H 0.95094 0.31043 0.15133 0.0
H1151 H 0.04785 0.31301 0.15467 0.0
H1152 H 0.03956 0.37341 0.23375 0.0
H1153 H 0.03689 0.32661 0.20474 0.0
H1154 H 0.95862 0.36071 0.15863 0.0
H1155 H 0.96074 0.40587 0.18803 0.0
C1156 C 0.97419 0.28788 0.11608 0.0
C1157 C 0.00197 0.28041 0.10345 0.0
C1158 C 0.9728 0.30439 0.14265 0.0
C1159 C 0.99919 0.31497 0.15644 0.0
C1160 C 0.02701 0.30529 0.14496 0.0
C1161 C 0.02835 0.28791 0.11883 0.0
C1162 C 0.02129 0.3702 0.2181 0.0
C1163 C 0.0006 0.39336 0.21283 0.0
C1164 C 0.0199 0.3436 0.20122 0.0
C1165 C 0.99773 0.33978 0.17895 0.0
C1166 C 0.97581 0.36224 0.17566 0.0
C1167 C 0.9772 0.3885 0.19238 0.0
H1168 H 0.38378 0.97401 0.76543 0.0
H1169 H 0.42865 0.02597 0.83376 0.0
H1170 H 0.33693 0.97736 0.79397 0.0
H1171 H 0.38268 0.02865 0.86223 0.0
H1172 H 0.29922 0.04232 0.90784 0.0
H1173 H 0.33328 0.04823 0.8655 0.0
H1174 H 0.31826 0.95573 0.84071 0.0
H1175 H 0.28289 0.95055 0.88237 0.0
C1176 C 0.38357 0.98647 0.78627 0.0
C1177 C 0.41004 0.99945 0.79747 0.0
C1178 C 0.35679 0.98825 0.80267 0.0
C1179 C 0.35596 0.00329 0.83038 0.0
C1180 C 0.3822 0.01733 0.84076 0.0
C1181 C 0.40879 0.01548 0.82454 0.0
C1182 C 0.30239 0.02368 0.89257 0.0
C1183 C 0.28866 0.996 0.89819 0.0
C1184 C 0.32208 0.02691 0.86852 0.0
C1185 C 0.32913 0.00222 0.85017 0.0
C1186 C 0.31329 0.97523 0.8543 0.0
C1187 C 0.29305 0.97219 0.87813 0.0
H1188 H 0.77986 0.54915 0.11232 0.0
H1189 H 0.77958 0.45335 0.09952 0.0
H1190 H 0.81177 0.54319 0.1564 0.0
H1191 H 0.81016 0.447 0.14436 0.0
H1192 H 0.90889 0.45811 0.17436 0.0
H1193 H 0.86227 0.45758 0.14679 0.0
H1194 H 0.82598 0.52539 0.20586 0.0
H1195 H 0.87344 0.5264 0.23332 0.0
C1196 C 0.78538 0.52674 0.11992 0.0
C1197 C 0.77761 0.50171 0.10258 0.0
C1198 C 0.80368 0.52325 0.14517 0.0
C1199 C 0.81416 0.49462 0.15348 0.0
C1200 C 0.80317 0.4694 0.13809 0.0
C1201 C 0.78542 0.47296 0.11262 0.0
C1202 C 0.89085 0.47258 0.18187 0.0
C1203 C 0.8951 0.49264 0.20574 0.0
C1204 C 0.86386 0.47205 0.16621 0.0
C1205 C 0.84028 0.49155 0.174 0.0
C1206 C 0.84379 0.51031 0.1991 0.0
C1207 C 0.87092 0.51076 0.21492 0.0
H1208 H 0.57821 0.53093 0.6672 0.0
H1209 H 0.61742 0.47188 0.73327 0.0
H1210 H 0.62516 0.53154 0.63988 0.0
H1211 H 0.66494 0.47287 0.70588 0.0
H1212 H 0.71087 0.54009 0.59706 0.0
H1213 H 0.67707 0.5468 0.63953 0.0
H1214 H 0.68125 0.45164 0.65737 0.0
H1215 H 0.71605 0.44535 0.61539 0.0
C1216 C 0.59702 0.51846 0.67619 0.0
C1217 C 0.5939 0.50109 0.70224 0.0
C1218 C 0.62414 0.51905 0.66066 0.0
C1219 C 0.64888 0.50225 0.67071 0.0
C1220 C 0.64623 0.48589 0.69749 0.0
C1221 C 0.61905 0.48545 0.71321 0.0
C1222 C 0.70555 0.5209 0.61096 0.0
C1223 C 0.71593 0.49225 0.60318 0.0
C1224 C 0.68598 0.52464 0.63504 0.0
C1225 C 0.67589 0.49965 0.65135 0.0
C1226 C 0.68865 0.47137 0.64533 0.0
C1227 C 0.70863 0.46771 0.62137 0.0
H1228 H 0.12368 0.03215 0.2704 0.0
H1229 H 0.07901 0.97495 0.33455 0.0
H1230 H 0.16981 0.0291 0.30012 0.0
H1231 H 0.12427 0.97248 0.36414 0.0
H1232 H 0.20718 0.95883 0.4107 0.0
H1233 H 0.1745 0.95434 0.36713 0.0
H1234 H 0.18611 0.04882 0.34895 0.0
H1235 H 0.22004 0.05272 0.39191 0.0
C1236 C 0.1238 0.01862 0.29055 0.0
C1237 C 0.09758 0.00403 0.30026 0.0
C1238 C 0.15016 0.01701 0.30762 0.0
C1239 C 0.15081 0.0005 0.33448 0.0
C1240 C 0.12487 0.98497 0.34335 0.0
C1241 C 0.09869 0.98668 0.32649 0.0
C1242 C 0.20363 0.97829 0.39659 0.0
C1243 C 0.21595 0.00608 0.40444 0.0
C1244 C 0.18472 0.97585 0.37185 0.0
C1245 C 0.17707 0.00138 0.355 0.0
C1246 C 0.19159 0.02869 0.36136 0.0
C1247 C 0.21102 0.03098 0.38592 0.0
H1248 H 0.22745 0.614 0.01892 0.0
H1249 H 0.16124 0.56693 0.96617 0.0
H1250 H 0.19668 0.65946 0.01666 0.0
H1251 H 0.13053 0.61154 0.96462 0.0
H1252 H 0.10732 0.71136 0.04342 0.0
H1253 H 0.14944 0.67646 0.03831 0.0
H1254 H 0.12503 0.66089 0.94586 0.0
H1255 H 0.08234 0.6945 0.9516 0.0
C1256 C 0.20659 0.61342 0.00652 0.0
C1257 C 0.19673 0.58671 0.99293 0.0
C1258 C 0.18888 0.63942 0.0054 0.0
C1259 C 0.1611 0.63924 0.99047 0.0
C1260 C 0.15198 0.61281 0.97589 0.0
C1261 C 0.16954 0.58699 0.97704 0.0
C1262 C 0.1116 0.70108 0.02183 0.0
C1263 C 0.0915 0.70521 0.99801 0.0
C1264 C 0.13573 0.6811 0.01884 0.0
C1265 C 0.14022 0.6653 0.99184 0.0
C1266 C 0.12172 0.67197 0.96721 0.0
C1267 C 0.09742 0.6914 0.97039 0.0
H1268 H 0.40329 0.29984 0.45195 0.0
H1269 H 0.38543 0.28504 0.54573 0.0
H1270 H 0.36094 0.33433 0.44914 0.0
H1271 H 0.34368 0.32072 0.54346 0.0
H1272 H 0.33268 0.43047 0.47252 0.0
H1273 H 0.36069 0.38421 0.46908 0.0
H1274 H 0.295 0.3398 0.52468 0.0
H1275 H 0.2668 0.38695 0.52862 0.0
C1276 C 0.3896 0.30332 0.47174 0.0
C1277 C 0.39748 0.28993 0.49904 0.0
C1278 C 0.36557 0.32329 0.47025 0.0
C1279 C 0.34943 0.33093 0.49626 0.0
C1280 C 0.35558 0.31531 0.523 0.0
C1281 C 0.37944 0.29484 0.52434 0.0
C1282 C 0.32394 0.41087 0.48388 0.0
C1283 C 0.29762 0.41255 0.50111 0.0
C1284 C 0.33988 0.38411 0.48159 0.0
C1285 C 0.33003 0.35813 0.49644 0.0
C1286 C 0.30322 0.35945 0.51305 0.0
C1287 C 0.28703 0.38639 0.5152 0.0
H1288 H 0.58947 0.78891 0.03805 0.0
H1289 H 0.61163 0.78419 0.94415 0.0
H1290 H 0.63265 0.82125 0.04689 0.0
H1291 H 0.65441 0.81756 0.95256 0.0
H1292 H 0.73257 0.87702 0.97683 0.0
H1293 H 0.70276 0.83097 0.97591 0.0
H1294 H 0.63663 0.87317 0.03286 0.0
H1295 H 0.66634 0.91857 0.03414 0.0
C1296 C 0.60427 0.7941 0.01949 0.0
C1297 C 0.5975 0.78414 0.99048 0.0
C1298 C 0.62879 0.81283 0.02445 0.0
C1299 C 0.64661 0.82251 0.00034 0.0
C1300 C 0.64126 0.81041 0.97166 0.0
C1301 C 0.61682 0.7913 0.96677 0.0
C1302 C 0.71199 0.87616 0.98969 0.0
C1303 C 0.70168 0.90157 0.00534 0.0
C1304 C 0.69484 0.84985 0.98899 0.0
C1305 C 0.66728 0.84837 0.00423 0.0
C1306 C 0.65792 0.87328 0.02118 0.0
C1307 C 0.67487 0.89951 0.02171 0.0
H1308 H 0.88519 0.23646 0.46654 0.0
H1309 H 0.93123 0.17342 0.52386 0.0
H1310 H 0.83911 0.2066 0.47129 0.0
H1311 H 0.88656 0.14359 0.52768 0.0
H1312 H 0.80611 0.09393 0.54215 0.0
H1313 H 0.83822 0.1379 0.54624 0.0
H1314 H 0.82099 0.15893 0.45322 0.0
H1315 H 0.78713 0.11595 0.45003 0.0
C1316 C 0.88536 0.21657 0.48045 0.0
C1317 C 0.91195 0.2071 0.49447 0.0
C1318 C 0.85908 0.19935 0.48302 0.0
C1319 C 0.85897 0.17259 0.49989 0.0
C1320 C 0.88533 0.16423 0.51497 0.0
C1321 C 0.91127 0.18123 0.5124 0.0
C1322 C 0.80852 0.10856 0.52292 0.0
C1323 C 0.79452 0.10153 0.49572 0.0
C1324 C 0.82709 0.13362 0.5251 0.0
C1325 C 0.833 0.15153 0.49978 0.0
C1326 C 0.81698 0.14579 0.4732 0.0
C1327 C 0.79767 0.12109 0.47129 0.0
H1328 H 0.98437 0.16317 0.57218 0.0
H1329 H 0.03373 0.23084 0.62086 0.0
H1330 H 0.9794 0.13395 0.6175 0.0
H1331 H 0.02824 0.20139 0.66694 0.0
H1332 H 0.05029 0.11062 0.72074 0.0
H1333 H 0.04845 0.15297 0.68582 0.0
H1334 H 0.95588 0.13233 0.66608 0.0
H1335 H 0.95834 0.08948 0.69989 0.0
C1336 C 0.99392 0.17201 0.59267 0.0
C1337 C 0.0097 0.19924 0.59278 0.0
C1338 C 0.99074 0.15537 0.61885 0.0
C1339 C 0.00323 0.16543 0.64597 0.0
C1340 C 0.01843 0.19304 0.64638 0.0
C1341 C 0.02147 0.20991 0.62003 0.0
C1342 C 0.02931 0.11597 0.70975 0.0
C1343 C 0.00451 0.09689 0.7127 0.0
C1344 C 0.02821 0.14016 0.68973 0.0
C1345 C 0.00221 0.14555 0.67266 0.0
C1346 C 0.97646 0.1283 0.67833 0.0
C1347 C 0.97773 0.10397 0.69787 0.0
H1348 H 0.47442 0.76784 0.11613 0.0
H1349 H 0.52168 0.83757 0.06824 0.0
H1350 H 0.47791 0.79742 0.16224 0.0
H1351 H 0.52442 0.86704 0.11354 0.0
H1352 H 0.53969 0.91394 0.19604 0.0
H1353 H 0.54583 0.87159 0.16205 0.0
H1354 H 0.45505 0.8435 0.18115 0.0
H1355 H 0.44969 0.88522 0.21644 0.0
C1356 C 0.48581 0.78926 0.11548 0.0
C1357 C 0.49751 0.80045 0.08841 0.0
C1358 C 0.48769 0.80623 0.14185 0.0
C1359 C 0.5015 0.83457 0.14166 0.0
C1360 C 0.51412 0.8451 0.11478 0.0
C1361 C 0.51222 0.82828 0.08858 0.0
C1362 C 0.5215 0.89801 0.19372 0.0
C1363 C 0.4942 0.90273 0.20855 0.0
C1364 C 0.52486 0.87394 0.17409 0.0
C1365 C 0.50065 0.85464 0.16825 0.0
C1366 C 0.47418 0.85788 0.18517 0.0
C1367 C 0.47104 0.88175 0.20536 0.0
H1368 H 0.45796 0.3981 0.27772 0.0
H1369 H 0.55385 0.38613 0.2758 0.0
H1370 H 0.45303 0.35487 0.31081 0.0
H1371 H 0.54921 0.34329 0.30973 0.0
H1372 H 0.46928 0.33103 0.41099 0.0
H1373 H 0.46798 0.35737 0.3635 0.0
H1374 H 0.52981 0.29303 0.32563 0.0
H1375 H 0.5313 0.2665 0.37367 0.0
C1376 C 0.47784 0.3853 0.28339 0.0
C1377 C 0.50626 0.39521 0.27433 0.0
C1378 C 0.47509 0.3608 0.30257 0.0
C1379 C 0.50078 0.34618 0.31347 0.0
C1380 C 0.52899 0.35405 0.30167 0.0
C1381 C 0.5317 0.37848 0.28216 0.0
C1382 C 0.48233 0.3222 0.39248 0.0
C1383 C 0.50063 0.29687 0.39622 0.0
C1384 C 0.48132 0.33712 0.36508 0.0
C1385 C 0.49872 0.3272 0.34071 0.0
C1386 C 0.51622 0.3012 0.34403 0.0
C1387 C 0.51699 0.28601 0.3715 0.0
H1388 H 0.04133 0.60398 0.79494 0.0
H1389 H 0.94859 0.61539 0.76998 0.0
H1390 H 0.03806 0.64805 0.82742 0.0
H1391 H 0.94504 0.659 0.80331 0.0
H1392 H 0.95114 0.67489 0.91135 0.0
H1393 H 0.95297 0.64807 0.86368 0.0
H1394 H 0.02142 0.70857 0.83197 0.0
H1395 H 0.01869 0.7364 0.87968 0.0
C1396 C 0.02063 0.61672 0.79549 0.0
C1397 C 0.99522 0.60644 0.78002 0.0
C1398 C 0.01877 0.64191 0.81401 0.0
C1399 C 0.99128 0.65672 0.81788 0.0
C1400 C 0.96651 0.64796 0.80049 0.0
C1401 C 0.96858 0.62316 0.78136 0.0
C1402 C 0.96616 0.68279 0.89397 0.0
C1403 C 0.98488 0.70751 0.89907 0.0
C1404 C 0.967 0.66766 0.86665 0.0
C1405 C 0.98713 0.67649 0.84415 0.0
C1406 C 0.00551 0.70162 0.84893 0.0
C1407 C 0.004 0.71741 0.8761 0.0
H1408 H 0.57428 0.97585 0.1707 0.0
H1409 H 0.61438 0.0367 0.23449 0.0
H1410 H 0.6209 0.97358 0.14317 0.0
H1411 H 0.66189 0.03405 0.20675 0.0
H1412 H 0.70616 0.95945 0.10153 0.0
H1413 H 0.67201 0.95636 0.14412 0.0
H1414 H 0.67963 0.05208 0.15708 0.0
H1415 H 0.71492 0.05473 0.11507 0.0
C1416 C 0.59323 0.98851 0.17909 0.0
C1417 C 0.59048 0.0067 0.20464 0.0
C1418 C 0.62019 0.98691 0.16345 0.0
C1419 C 0.64528 0.00349 0.17283 0.0
C1420 C 0.64293 0.02107 0.19893 0.0
C1421 C 0.6158 0.02248 0.21485 0.0
C1422 C 0.7015 0.97956 0.11437 0.0
C1423 C 0.71306 0.00729 0.10522 0.0
C1424 C 0.68172 0.9779 0.13854 0.0
C1425 C 0.67249 0.00409 0.15351 0.0
C1426 C 0.68633 0.03148 0.1461 0.0
C1427 C 0.70657 0.03304 0.1221 0.0
H1428 H 0.21987 0.53423 0.89831 0.0
H1429 H 0.21396 0.43903 0.88282 0.0
H1430 H 0.18934 0.54363 0.85388 0.0
H1431 H 0.18254 0.44812 0.83884 0.0
H1432 H 0.12395 0.47114 0.76146 0.0
H1433 H 0.17131 0.46978 0.789 0.0
H1434 H 0.1358 0.53399 0.85234 0.0
H1435 H 0.08898 0.53563 0.82487 0.0
C1436 C 0.2129 0.51541 0.88461 0.0
C1437 C 0.21909 0.48597 0.89365 0.0
C1438 C 0.19527 0.52073 0.85939 0.0
C1439 C 0.18305 0.49661 0.84323 0.0
C1440 C 0.19177 0.46719 0.85069 0.0
C1441 C 0.20971 0.46191 0.87583 0.0
C1442 C 0.12658 0.48551 0.78085 0.0
C1443 C 0.10257 0.50315 0.7913 0.0
C1444 C 0.15365 0.48463 0.79664 0.0
C1445 C 0.15726 0.50164 0.82289 0.0
C1446 C 0.13396 0.52086 0.832 0.0
C1447 C 0.10693 0.52157 0.81642 0.0
H1448 H 0.40301 0.45086 0.29568 0.0
H1449 H 0.38693 0.54418 0.27593 0.0
H1450 H 0.35801 0.44967 0.32668 0.0
H1451 H 0.34295 0.54368 0.3084 0.0
H1452 H 0.26554 0.5369 0.37296 0.0
H1453 H 0.29406 0.52841 0.32656 0.0
H1454 H 0.35466 0.47027 0.37505 0.0
H1455 H 0.32622 0.47799 0.42021 0.0
C1456 C 0.38943 0.47094 0.29752 0.0
C1457 C 0.39862 0.49772 0.28391 0.0
C1458 C 0.36377 0.47037 0.3154 0.0
C1459 C 0.3474 0.49684 0.32086 0.0
C1460 C 0.35495 0.52288 0.30475 0.0
C1461 C 0.38026 0.52323 0.28621 0.0
C1462 C 0.28463 0.52188 0.37334 0.0
C1463 C 0.29394 0.50854 0.40031 0.0
C1464 C 0.30101 0.51709 0.34687 0.0
C1465 C 0.32669 0.49862 0.34697 0.0
C1466 C 0.33479 0.48418 0.37375 0.0
C1467 C 0.31867 0.48902 0.39993 0.0
H1468 H 0.7933 0.04508 0.59124 0.0
H1469 H 0.77996 0.95092 0.6084 0.0
H1470 H 0.82595 0.04865 0.63489 0.0
H1471 H 0.81382 0.95396 0.65147 0.0
H1472 H 0.87695 0.969 0.72988 0.0
H1473 H 0.83058 0.97296 0.70065 0.0
H1474 H 0.87621 0.02977 0.63685 0.0
H1475 H 0.92177 0.02632 0.66595 0.0
C1476 C 0.79667 0.02537 0.60504 0.0
C1477 C 0.7843 0.99774 0.59663 0.0
C1478 C 0.81558 0.02729 0.62983 0.0
C1479 C 0.82314 0.00142 0.64618 0.0
C1480 C 0.80842 0.97432 0.63942 0.0
C1481 C 0.78901 0.97253 0.6148 0.0
C1482 C 0.87682 0.98276 0.70989 0.0
C1483 C 0.90314 0.99711 0.70009 0.0
C1484 C 0.85032 0.9849 0.6931 0.0
C1485 C 0.84961 0.00174 0.66646 0.0
C1486 C 0.87566 0.01704 0.6575 0.0
C1487 C 0.90201 0.01476 0.67406 0.0
H1488 H 0.04122 0.31244 0.91696 0.0
H1489 H 0.95548 0.27958 0.88648 0.0
H1490 H 0.04463 0.3447 0.87285 0.0
H1491 H 0.95853 0.31268 0.84262 0.0
H1492 H 0.96236 0.41907 0.81721 0.0
H1493 H 0.9591 0.37349 0.84737 0.0
H1494 H 0.04409 0.34364 0.81192 0.0
H1495 H 0.04702 0.38902 0.78094 0.0
C1496 C 0.02343 0.31169 0.90044 0.0
C1497 C 0.99804 0.29372 0.90506 0.0
C1498 C 0.02547 0.32997 0.87518 0.0
C1499 C 0.00183 0.33107 0.85448 0.0
C1500 C 0.97706 0.31203 0.85829 0.0
C1501 C 0.97536 0.29312 0.88325 0.0
C1502 C 0.98001 0.40244 0.81536 0.0
C1503 C 0.00504 0.40757 0.79698 0.0
C1504 C 0.97802 0.37631 0.83239 0.0
C1505 C 0.00133 0.35517 0.83183 0.0
C1506 C 0.0258 0.35964 0.81253 0.0
C1507 C 0.02744 0.3855 0.79488 0.0
H1508 H 0.4543 0.6974 0.41559 0.0
H1509 H 0.54266 0.72026 0.38346 0.0
H1510 H 0.44722 0.66417 0.37287 0.0
H1511 H 0.53575 0.68623 0.34065 0.0
H1512 H 0.50086 0.62224 0.26229 0.0
H1513 H 0.50182 0.66822 0.29302 0.0
H1514 H 0.47921 0.61591 0.37119 0.0
H1515 H 0.47849 0.57072 0.34123 0.0
C1516 C 0.47186 0.69592 0.39885 0.0
C1517 C 0.4992 0.71088 0.40295 0.0
C1518 C 0.4678 0.67697 0.37443 0.0
C1519 C 0.49117 0.67228 0.35388 0.0
C1520 C 0.5174 0.68958 0.3562 0.0
C1521 C 0.52136 0.70894 0.38065 0.0
C1522 C 0.49598 0.62077 0.28602 0.0
C1523 C 0.48972 0.59289 0.29939 0.0
C1524 C 0.49659 0.64696 0.3035 0.0
C1525 C 0.4902 0.64555 0.33431 0.0
C1526 C 0.48372 0.61772 0.34739 0.0
C1527 C 0.48359 0.59176 0.33023 0.0
H1528 H 0.44994 0.09296 0.19085 0.0
H1529 H 0.5327 0.12011 0.23298 0.0
H1530 H 0.44836 0.14012 0.16329 0.0
H1531 H 0.53137 0.16732 0.20486 0.0
H1532 H 0.53811 0.20021 0.10149 0.0
H1533 H 0.5378 0.16996 0.14699 0.0
H1534 H 0.44708 0.19849 0.16534 0.0
H1535 H 0.44774 0.22949 0.11987 0.0
C1536 C 0.4674 0.10938 0.19475 0.0
C1537 C 0.49161 0.10279 0.21377 0.0
C1538 C 0.46636 0.13648 0.17918 0.0
C1539 C 0.4898 0.15732 0.1819 0.0
C1540 C 0.51303 0.15161 0.20241 0.0
C1541 C 0.51375 0.12467 0.21851 0.0
C1542 C 0.51856 0.20093 0.11592 0.0
C1543 C 0.49295 0.21706 0.10731 0.0
C1544 C 0.5184 0.18373 0.14201 0.0
C1545 C 0.49236 0.18179 0.1596 0.0
C1546 C 0.46743 0.19965 0.15214 0.0
C1547 C 0.46785 0.21747 0.12629 0.0
H1548 H 0.95769 0.87871 0.72692 0.0
H1549 H 0.04043 0.9073 0.68559 0.0
H1550 H 0.96065 0.83115 0.69948 0.0
H1551 H 0.04353 0.85991 0.65864 0.0
H1552 H 0.04851 0.77051 0.61683 0.0
H1553 H 0.04718 0.80244 0.66166 0.0
H1554 H 0.95512 0.82549 0.64243 0.0
H1555 H 0.95673 0.79421 0.59764 0.0
C1556 C 0.97688 0.87451 0.71263 0.0
C1557 C 0.9986 0.89685 0.70802 0.0
C1558 C 0.97855 0.84734 0.69695 0.0
C1559 C 0.00231 0.84185 0.67695 0.0
C1560 C 0.02515 0.86333 0.67415 0.0
C1561 C 0.02319 0.89061 0.68934 0.0
C1562 C 0.02769 0.78145 0.62299 0.0
C1563 C 0.00273 0.78006 0.60393 0.0
C1564 C 0.02698 0.79984 0.64845 0.0
C1565 C 0.0011 0.81657 0.65538 0.0
C1566 C 0.97526 0.81268 0.63785 0.0
C1567 C 0.97618 0.79484 0.61218 0.0
H1568 H 0.81726 0.96411 0.40907 0.0
H1569 H 0.77298 0.04405 0.37701 0.0
H1570 H 0.84455 0.9601 0.36195 0.0
H1571 H 0.80088 0.04028 0.32973 0.0
H1572 H 0.90372 0.04532 0.29406 0.0
H1573 H 0.85849 0.04716 0.32473 0.0
H1574 H 0.84095 0.9542 0.30422 0.0
H1575 H 0.88617 0.95262 0.27285 0.0
C1576 C 0.81301 0.98054 0.39169 0.0
C1577 C 0.79334 0.00462 0.3968 0.0
C1578 C 0.82837 0.97804 0.36458 0.0
C1579 C 0.82478 -0.00014 0.34219 0.0
C1580 C 0.80395 0.02313 0.34664 0.0
C1581 C 0.78805 0.02529 0.37364 0.0
C1582 C 0.88946 0.02568 0.2951 0.0
C1583 C 0.89827 0.99883 0.28124 0.0
C1584 C 0.86354 0.02674 0.31256 0.0
C1585 C 0.84637 0.00076 0.317 0.0
C1586 C 0.85387 0.97452 0.30113 0.0
C1587 C 0.87956 0.97365 0.28309 0.0
H1588 H 0.62385 0.04488 0.77571 0.0
H1589 H 0.60256 0.95361 0.79946 0.0
H1590 H 0.66756 0.04321 0.80907 0.0
H1591 H 0.64628 0.95167 0.83217 0.0
H1592 H 0.7292 0.95434 0.88824 0.0
H1593 H 0.70358 0.95699 0.83968 0.0
H1594 H 0.66132 0.03987 0.86664 0.0
H1595 H 0.68639 0.03704 0.91503 0.0
C1596 C 0.62936 0.02408 0.78698 0.0
C1597 C 0.60996 0.99941 0.78525 0.0
C1598 C 0.65418 0.02317 0.80616 0.0
C1599 C 0.66013 0.99738 0.82332 0.0
C1600 C 0.64241 0.97174 0.81905 0.0
C1601 C 0.61735 0.97286 0.80042 0.0
C1602 C 0.71494 0.97342 0.88346 0.0
C1603 C 0.70938 0.99525 0.90551 0.0
C1604 C 0.70035 0.97493 0.85573 0.0
C1605 C 0.68056 0.99866 0.84942 0.0
C1606 C 0.67674 0.02153 0.87072 0.0
C1607 C 0.69081 0.01972 0.89856 0.0
H1608 H 0.40161 0.46169 0.69326 0.0
H1609 H 0.37812 0.5485 0.72898 0.0
H1610 H 0.35607 0.46165 0.66302 0.0
H1611 H 0.33261 0.54887 0.69796 0.0
H1612 H 0.2688 0.46485 0.61503 0.0
H1613 H 0.29752 0.46487 0.6619 0.0
H1614 H 0.33416 0.55149 0.6393 0.0
H1615 H 0.30608 0.5512 0.5924 0.0
C1616 C 0.38612 0.48033 0.6953 0.0
C1617 C 0.39324 0.50509 0.71334 0.0
C1618 C 0.36001 0.48027 0.67811 0.0
C1619 C 0.34087 0.50529 0.67812 0.0
C1620 C 0.347 0.52929 0.69765 0.0
C1621 C 0.37288 0.52902 0.71545 0.0
C1622 C 0.28225 0.48428 0.6206 0.0
C1623 C 0.2855 0.50789 0.60004 0.0
C1624 C 0.29871 0.48424 0.64732 0.0
C1625 C 0.31807 0.50815 0.65415 0.0
C1626 C 0.31919 0.53292 0.63477 0.0
C1627 C 0.30329 0.53266 0.60784 0.0
H1628 H 0.08562 0.53766 0.18734 0.0
H1629 H 0.11151 0.45087 0.22141 0.0
H1630 H 0.13035 0.5387 0.15581 0.0
H1631 H 0.15609 0.45154 0.1891 0.0
H1632 H 0.21977 0.53687 0.10915 0.0
H1633 H 0.18974 0.53606 0.15517 0.0
H1634 H 0.15301 0.45031 0.12958 0.0
H1635 H 0.1824 0.45134 0.08342 0.0
C1636 C 0.10139 0.5192 0.18865 0.0
C1637 C 0.0952 0.49416 0.20666 0.0
C1638 C 0.12702 0.51984 0.17074 0.0
C1639 C 0.14655 0.49515 0.17002 0.0
C1640 C 0.14134 0.47085 0.18937 0.0
C1641 C 0.11599 0.47053 0.20789 0.0
C1642 C 0.20583 0.51754 0.11375 0.0
C1643 C 0.20311 0.49432 0.09261 0.0
C1644 C 0.18868 0.51711 0.14001 0.0
C1645 C 0.16916 0.49312 0.14585 0.0
C1646 C 0.16814 0.46891 0.12575 0.0
C1647 C 0.18474 0.46963 0.09924 0.0
H1648 H 0.379 0.76944 0.03362 0.0
H1649 H 0.40831 0.8124 0.95199 0.0
H1650 H 0.33121 0.79646 0.03051 0.0
H1651 H 0.36079 0.83905 0.94882 0.0
H1652 H 0.27215 0.88182 0.94388 0.0
H1653 H 0.30399 0.83687 0.94427 0.0
H1654 H 0.3245 0.85257 0.03755 0.0
H1655 H 0.29322 0.89736 0.03691 0.0
C1656 C 0.37494 0.78402 0.01463 0.0
C1657 C 0.39755 0.78921 0.99331 0.0
C1658 C 0.34763 0.79946 0.01287 0.0
C1659 C 0.3423 0.81989 0.98946 0.0
C1660 C 0.36405 0.82323 0.96695 0.0
C1661 C 0.39144 0.80821 0.96895 0.0
C1662 C 0.28251 0.87484 0.9647 0.0
C1663 C 0.28043 0.89294 0.99034 0.0
C1664 C 0.30086 0.84931 0.9649 0.0
C1665 C 0.3169 0.84137 0.99088 0.0
C1666 C 0.31226 0.8579 0.01727 0.0
C1667 C 0.29443 0.88361 0.01691 0.0
H1668 H 0.88195 0.71374 0.95119 0.0
H1669 H 0.89756 0.71457 0.04655 0.0
H1670 H 0.83732 0.68264 0.9588 0.0
H1671 H 0.85244 0.68479 0.05441 0.0
H1672 H 0.82329 0.58586 0.04358 0.0
H1673 H 0.85177 0.63189 0.04155 0.0
H1674 H 0.78653 0.67008 0.98093 0.0
H1675 H 0.75758 0.62305 0.98309 0.0
C1676 C 0.87498 0.70841 0.97383 0.0
C1677 C 0.89322 0.71602 0.99829 0.0
C1678 C 0.84942 0.6907 0.97823 0.0
C1679 C 0.84178 0.68073 0.00717 0.0
C1680 C 0.85815 0.69157 0.0318 0.0
C1681 C 0.88388 0.70869 0.02737 0.0
C1682 C 0.81469 0.60424 0.03021 0.0
C1683 C 0.78843 0.6009 0.01331 0.0
C1684 C 0.83086 0.63081 0.02927 0.0
C1685 C 0.82134 0.65479 0.0112 0.0
C1686 C 0.79436 0.65197 0.99506 0.0
C1687 C 0.77777 0.62523 0.99638 0.0
H1688 H 0.6171 0.27248 0.45579 0.0
H1689 H 0.58571 0.31559 0.53665 0.0
H1690 H 0.66516 0.29875 0.46058 0.0
H1691 H 0.63365 0.34125 0.54165 0.0
H1692 H 0.72429 0.37962 0.55019 0.0
H1693 H 0.69167 0.33538 0.54737 0.0
H1694 H 0.67093 0.3568 0.45532 0.0
H1695 H 0.70278 0.40111 0.45845 0.0
C1696 C 0.62078 0.28692 0.47496 0.0
C1697 C 0.59761 0.29243 0.4956 0.0
C1698 C 0.64821 0.30186 0.4777 0.0
C1699 C 0.65307 0.32191 0.50151 0.0
C1700 C 0.63065 0.32563 0.5233 0.0
C1701 C 0.6031 0.31123 0.52023 0.0
C1702 C 0.71367 0.37406 0.52909 0.0
C1703 C 0.71582 0.39356 0.50454 0.0
C1704 C 0.69496 0.34893 0.5275 0.0
C1705 C 0.67876 0.34282 0.50116 0.0
C1706 C 0.68339 0.3608 0.47577 0.0
C1707 C 0.7015 0.38617 0.47757 0.0
H1708 H 0.10456 0.19543 0.45649 0.0
H1709 H 0.12616 0.23019 0.54416 0.0
H1710 H 0.15143 0.16742 0.45583 0.0
H1711 H 0.17321 0.2017 0.54366 0.0
H1712 H 0.20307 0.09769 0.54564 0.0
H1713 H 0.17486 0.14446 0.5464 0.0
H1714 H 0.20878 0.16634 0.45843 0.0
H1715 H 0.23761 0.11939 0.45797 0.0
C1716 C 0.11977 0.1977 0.47528 0.0
C1717 C 0.11158 0.2146 0.50056 0.0
C1718 C 0.14676 0.18187 0.47479 0.0
C1719 C 0.16588 0.18224 0.49978 0.0
C1720 C 0.1588 0.201 0.52413 0.0
C1721 C 0.13195 0.21732 0.52439 0.0
C1722 C 0.20536 0.11305 0.52695 0.0
C1723 C 0.22227 0.10498 0.50167 0.0
C1724 C 0.18936 0.13991 0.52745 0.0
C1725 C 0.18948 0.15895 0.50239 0.0
C1726 C 0.2083 0.152 0.47802 0.0
C1727 C 0.22485 0.12528 0.47779 0.0
H1728 H 0.97013 0.57201 0.15729 0.0
H1729 H 0.9982 0.61917 0.23706 0.0
H1730 H 0.97101 0.61843 0.12921 0.0
H1731 H 0.99954 0.66646 0.20822 0.0
H1732 H 0.04008 0.7175 0.11582 0.0
H1733 H 0.03297 0.68348 0.15862 0.0
H1734 H 0.94131 0.66881 0.13138 0.0
H1735 H 0.94862 0.70202 0.0886 0.0
C1736 C 0.97647 0.59241 0.16885 0.0
C1737 C 0.98424 0.59198 0.19931 0.0
C1738 C 0.97671 0.61906 0.15281 0.0
C1739 C 0.98504 0.64602 0.16666 0.0
C1740 C 0.99287 0.64589 0.19718 0.0
C1741 C 0.99204 0.619 0.21359 0.0
C1742 C 0.01814 0.70793 0.11986 0.0
C1743 C 0.99494 0.71195 0.099 0.0
C1744 C 0.01404 0.68858 0.1443 0.0
C1745 C 0.98671 0.67332 0.14795 0.0
C1746 C 0.96264 0.68015 0.12887 0.0
C1747 C 0.96681 0.6991 0.10446 0.0
H1748 H 0.45639 0.41533 0.67923 0.0
H1749 H 0.53753 0.38421 0.72197 0.0
H1750 H 0.45354 0.36875 0.65074 0.0
H1751 H 0.53491 0.33762 0.69286 0.0
H1752 H 0.44841 0.27776 0.60988 0.0
H1753 H 0.44945 0.31012 0.65443 0.0
H1754 H 0.541 0.3343 0.63443 0.0
H1755 H 0.53963 0.30273 0.58976 0.0
C1756 C 0.47333 0.39828 0.68289 0.0
C1757 C 0.49736 0.40349 0.70255 0.0
C1758 C 0.47152 0.3715 0.66681 0.0
C1759 C 0.49399 0.34961 0.66967 0.0
C1760 C 0.51728 0.35416 0.69037 0.0
C1761 C 0.51876 0.38076 0.70698 0.0
C1762 C 0.46904 0.28914 0.61575 0.0
C1763 C 0.49395 0.2879 0.59658 0.0
C1764 C 0.46959 0.30773 0.64105 0.0
C1765 C 0.49528 0.32472 0.64775 0.0
C1766 C 0.52103 0.32123 0.62998 0.0
C1767 C 0.52024 0.30326 0.6044 0.0
H1768 H 0.5447 0.90668 0.81284 0.0
H1769 H 0.46312 0.88109 0.76746 0.0
H1770 H 0.54593 0.85833 0.83812 0.0
H1771 H 0.46419 0.83257 0.79322 0.0
H1772 H 0.54767 0.7685 0.87773 0.0
H1773 H 0.54842 0.8008 0.83323 0.0
H1774 H 0.45634 0.82573 0.84998 0.0
H1775 H 0.45588 0.79406 0.89447 0.0
C1776 C 0.52734 0.89046 0.80785 0.0
C1777 C 0.50357 0.89779 0.78855 0.0
C1778 C 0.52823 0.86262 0.82206 0.0
C1779 C 0.50514 0.84171 0.81762 0.0
C1780 C 0.48227 0.84832 0.79697 0.0
C1781 C 0.48167 0.87604 0.78229 0.0
C1782 C 0.52728 0.77989 0.87104 0.0
C1783 C 0.50175 0.77901 0.8894 0.0
C1784 C 0.52775 0.79848 0.84577 0.0
C1785 C 0.50251 0.81592 0.83835 0.0
C1786 C 0.47602 0.81239 0.85499 0.0
C1787 C 0.47576 0.79433 0.88048 0.0
H1788 H 0.0417 0.12098 0.26871 0.0
H1789 H 0.96193 0.09286 0.31588 0.0
H1790 H 0.04054 0.16883 0.2956 0.0
H1791 H 0.96063 0.14065 0.34232 0.0
H1792 H 0.95907 0.23025 0.38349 0.0
H1793 H 0.9574 0.19864 0.33853 0.0
H1794 H 0.04994 0.17384 0.35259 0.0
H1795 H 0.05136 0.20479 0.39759 0.0
C1796 C 0.02348 0.12534 0.28417 0.0
C1797 C 0.00217 0.10303 0.29059 0.0
C1798 C 0.02284 0.15269 0.2995 0.0
C1799 C 0.00052 0.15839 0.321 0.0
C1800 C 0.9779 0.13701 0.32562 0.0
C1801 C 0.97883 0.10951 0.31073 0.0
C1802 C 0.97935 0.219 0.37618 0.0
C1803 C 0.00529 0.21968 0.39396 0.0
C1804 C 0.97834 0.20082 0.35063 0.0
C1805 C 0.00346 0.18366 0.34229 0.0
C1806 C 0.03032 0.18698 0.35835 0.0
C1807 C 0.03113 0.2046 0.38415 0.0
H1808 H 0.09681 0.95542 0.70082 0.0
H1809 H 0.11563 0.04564 0.73018 0.0
H1810 H 0.14269 0.95526 0.6711 0.0
H1811 H 0.16148 0.04581 0.6997 0.0
H1812 H 0.18718 0.04247 0.59419 0.0
H1813 H 0.15927 0.04431 0.64113 0.0
H1814 H 0.20079 0.96146 0.66915 0.0
H1815 H 0.22923 0.95981 0.62219 0.0
C1816 C 0.1114 0.97482 0.70167 0.0
C1817 C 0.10282 0.00057 0.71759 0.0
C1818 C 0.1377 0.97471 0.68479 0.0
C1819 C 0.15549 0.0006 0.68302 0.0
C1820 C 0.14809 0.0256 0.70077 0.0
C1821 C 0.12203 0.02545 0.71826 0.0
C1822 C 0.19091 0.02504 0.61068 0.0
C1823 C 0.21001 0.00078 0.6044 0.0
C1824 C 0.17519 0.02626 0.63768 0.0
C1825 C 0.17788 0.00299 0.65869 0.0
C1826 C 0.19841 0.97968 0.65328 0.0
C1827 C 0.21462 0.97876 0.62645 0.0
H1828 H 0.39498 0.03981 0.20043 0.0
H1829 H 0.38005 0.94749 0.22504 0.0
H1830 H 0.35027 0.03889 0.16903 0.0
H1831 H 0.33541 0.94628 0.19289 0.0
H1832 H 0.31198 0.95267 0.08717 0.0
H1833 H 0.33887 0.95034 0.13466 0.0
H1834 H 0.29281 0.03001 0.16483 0.0
H1835 H 0.26542 0.03214 0.1173 0.0
C1836 C 0.38146 0.01964 0.19987 0.0
C1837 C 0.39085 0.99371 0.215 0.0
C1838 C 0.35582 0.01913 0.18201 0.0
C1839 C 0.33951 0.99245 0.17843 0.0
C1840 C 0.34765 0.9671 0.19532 0.0
C1841 C 0.37301 0.96783 0.21379 0.0
C1842 C 0.30703 0.96925 0.10423 0.0
C1843 C 0.28692 0.9928 0.09842 0.0
C1844 C 0.3222 0.96774 0.13153 0.0
C1845 C 0.31793 0.99004 0.15335 0.0
C1846 C 0.29644 0.01255 0.14833 0.0
C1847 C 0.2808 0.01373 0.12119 0.0
H1848 H 0.61708 0.45598 0.27353 0.0
H1849 H 0.58563 0.53894 0.31231 0.0
H1850 H 0.66147 0.4577 0.30608 0.0
H1851 H 0.6302 0.5411 0.34402 0.0
H1852 H 0.68801 0.45526 0.4123 0.0
H1853 H 0.65822 0.45402 0.36639 0.0
H1854 H 0.69056 0.54208 0.34287 0.0
H1855 H 0.72114 0.54303 0.38858 0.0
C1856 C 0.62022 0.47505 0.28824 0.0
C1857 C 0.59802 0.49727 0.29062 0.0
C1858 C 0.64548 0.47598 0.30685 0.0
C1859 C 0.64918 0.49957 0.32741 0.0
C1860 C 0.62802 0.52288 0.3281 0.0
C1861 C 0.6025 0.52155 0.31012 0.0
C1862 C 0.68938 0.47399 0.3969 0.0
C1863 C 0.70667 0.49931 0.40398 0.0
C1864 C 0.67253 0.47318 0.37057 0.0
C1865 C 0.67218 0.49795 0.35119 0.0
C1866 C 0.69063 0.52268 0.35747 0.0
C1867 C 0.7081 0.52318 0.38351 0.0
H1868 H 0.88916 0.554 0.77895 0.0
H1869 H 0.90933 0.46151 0.79861 0.0
H1870 H 0.84613 0.55191 0.8133 0.0
H1871 H 0.8662 0.4591 0.83225 0.0
H1872 H 0.82242 0.54144 0.91771 0.0
H1873 H 0.85081 0.54548 0.87116 0.0
H1874 H 0.80854 0.465 0.83807 0.0
H1875 H 0.77971 0.46106 0.8846 0.0
C1876 C 0.88353 0.53292 0.7896 0.0
C1877 C 0.90219 0.50783 0.78612 0.0
C1878 C 0.85917 0.53178 0.80938 0.0
C1879 C 0.85296 0.50537 0.82545 0.0
C1880 C 0.87026 0.47962 0.81993 0.0
C1881 C 0.89489 0.48096 0.8007 0.0
C1882 C 0.81881 0.52486 0.90033 0.0
C1883 C 0.79908 0.50075 0.90496 0.0
C1884 C 0.83483 0.52736 0.87356 0.0
C1885 C 0.83179 0.50558 0.85103 0.0
C1886 C 0.81122 0.4821 0.85511 0.0
C1887 C 0.79477 0.47988 0.88172 0.0
H1888 H 0.72617 0.11687 0.05012 0.0
H1889 H 0.69623 0.09352 0.96121 0.0
H1890 H 0.69408 0.16165 0.04908 0.0
H1891 H 0.66492 0.1384 0.95981 0.0
H1892 H 0.58823 0.1862 0.04609 0.0
H1893 H 0.63521 0.15824 0.04817 0.0
H1894 H 0.6623 0.19705 0.96382 0.0
H1895 H 0.61534 0.22563 0.96196 0.0
C1896 C 0.71373 0.12204 0.02993 0.0
C1897 C 0.7135 0.10188 0.00576 0.0
C1898 C 0.6953 0.14749 0.02939 0.0
C1899 C 0.67702 0.15337 0.00439 0.0
C1900 C 0.679 0.13458 0.97922 0.0
C1901 C 0.69682 0.10887 0.98004 0.0
C1902 C 0.60454 0.18934 0.02836 0.0
C1903 C 0.59804 0.20781 0.00371 0.0
C1904 C 0.63154 0.17356 0.02969 0.0
C1905 C 0.65233 0.17551 0.00613 0.0
C1906 C 0.64661 0.19526 0.98227 0.0
C1907 C 0.61981 0.21158 0.98125 0.0
H1908 H 0.12021 0.2543 0.98793 0.0
H1909 H 0.08004 0.33048 0.03236 0.0
H1910 H 0.16814 0.28167 0.98484 0.0
H1911 H 0.12729 0.35718 0.02971 0.0
H1912 H 0.21426 0.39481 0.04296 0.0
H1913 H 0.18038 0.35263 0.05084 0.0
H1914 H 0.18378 0.3322 0.95633 0.0
H1915 H 0.2183 0.37436 0.94862 0.0
C1916 C 0.12175 0.27664 0.99735 0.0
C1917 C 0.09641 0.29038 0.01022 0.0
C1918 C 0.14905 0.29223 0.99554 0.0
C1919 C 0.15147 0.32137 0.00735 0.0
C1920 C 0.12627 0.33457 0.02087 0.0
C1921 C 0.09909 0.31938 0.02212 0.0
C1922 C 0.20894 0.38035 0.02417 0.0
C1923 C 0.21884 0.38759 0.99525 0.0
C1924 C 0.18941 0.35639 0.02861 0.0
C1925 C 0.1791 0.33953 0.00411 0.0
C1926 C 0.19153 0.34475 0.97561 0.0
C1927 C 0.21131 0.36877 0.97119 0.0
H1928 H 0.38207 0.74566 0.48843 0.0
H1929 H 0.42075 0.67022 0.53514 0.0
H1930 H 0.33395 0.7185 0.48494 0.0
H1931 H 0.37339 0.64376 0.53219 0.0
H1932 H 0.2865 0.60658 0.54448 0.0
H1933 H 0.31974 0.64927 0.55207 0.0
H1934 H 0.31903 0.66682 0.45696 0.0
H1935 H 0.28501 0.62417 0.44948 0.0
C1936 C 0.3801 0.7236 0.49836 0.0
C1937 C 0.40506 0.70992 0.51194 0.0
C1938 C 0.35274 0.7081 0.49628 0.0
C1939 C 0.3499 0.6792 0.50858 0.0
C1940 C 0.3747 0.66618 0.52295 0.0
C1941 C 0.40193 0.68124 0.52443 0.0
C1942 C 0.29233 0.62044 0.5254 0.0
C1943 C 0.28341 0.61217 0.49642 0.0
C1944 C 0.31143 0.64475 0.5297 0.0
C1945 C 0.32235 0.66096 0.50504 0.0
C1946 C 0.31082 0.65477 0.47636 0.0
C1947 C 0.29136 0.63043 0.47207 0.0
H1948 H 0.88472 0.77618 0.45468 0.0
H1949 H 0.90961 0.8123 0.54094 0.0
H1950 H 0.83867 0.80628 0.45556 0.0
H1951 H 0.8635 0.84177 0.54205 0.0
H1952 H 0.77311 0.88557 0.5414 0.0
H1953 H 0.8046 0.84033 0.54064 0.0
H1954 H 0.8378 0.86502 0.45319 0.0
H1955 H 0.80708 0.91031 0.45432 0.0
C1956 C 0.8799 0.78981 0.47419 0.0
C1957 C 0.90084 0.79221 0.49759 0.0
C1958 C 0.85363 0.80703 0.47466 0.0
C1959 C 0.84758 0.82631 0.49886 0.0
C1960 C 0.86743 0.82687 0.52327 0.0
C1961 C 0.89393 0.8102 0.52251 0.0
C1962 C 0.78641 0.8807 0.52166 0.0
C1963 C 0.78786 0.90133 0.49796 0.0
C1964 C 0.80447 0.85498 0.52128 0.0
C1965 C 0.82362 0.84926 0.49687 0.0
C1966 C 0.82304 0.86868 0.47213 0.0
C1967 C 0.80558 0.89465 0.47282 0.0
loop_
_geom_bond_atom_site_label_1
_geom_bond_atom_site_label_2
_geom_bond_distance
_geom_bond_site_symmetry_2
_ccdc_geom_bond_type
Sc0 O3 2.025 . S
Sc0 O10 2.105 1_554 S
Sc0 O13 2.105 1_455 S
Sc0 O16 2.105 1_455 S
Sc0 O19 2.105 . S
Sc1 O3 2.025 . S
Sc1 O11 2.105 . S
Sc1 O15 2.105 . S
Sc1 O17 2.105 . S
Sc1 O21 2.105 . S
Sc2 O3 2.025 . S
Sc2 O12 2.105 . S
Sc2 O14 2.105 1_455 S
Sc2 O18 2.105 1_455 S
Sc2 O20 2.105 1_554 S
O3 Sc0 2.025 . S
O3 Sc1 2.025 . S
O3 Sc2 2.025 . S
C4 O10 1.268 . S
C4 O20 1.268 . S
C5 O11 1.268 . S
C5 O19 1.268 . S
C6 O12 1.268 . S
C6 O21 1.268 . S
C7 O13 1.268 . S
C7 O17 1.268 1_655 S
C8 O14 1.268 . S
C8 O16 1.268 . S
C9 O15 1.268 . S
C9 O18 1.268 1_455 S
O10 Sc0 2.105 1_556 S
O10 C4 1.268 . S
O11 Sc1 2.105 . S
O11 C5 1.268 . S
O12 Sc2 2.105 . S
O12 C6 1.268 . S
O13 Sc0 2.105 1_655 S
O13 C7 1.268 . S
O14 Sc2 2.105 1_655 S
O14 C8 1.268 . S
O15 Sc1 2.105 . S
O15 C9 1.268 . S
O16 Sc0 2.105 1_655 S
O16 C8 1.268 . S
O17 Sc1 2.105 . S
O17 C7 1.268 1_455 S
O18 Sc2 2.105 1_655 S
O18 C9 1.268 1_655 S
O19 Sc0 2.105 . S
O19 C5 1.268 . S
O20 Sc2 2.105 1_556 S
O20 C4 1.268 . S
O21 Sc1 2.105 . S
O21 C6 1.268 . S
Sc22 O25 2.025 . S
Sc22 O32 2.105 . S
Sc22 O35 2.105 . S
Sc22 O38 2.105 . S
Sc22 O41 2.105 . S
Sc23 O25 2.025 . S
Sc23 O33 2.105 . S
Sc23 O37 2.105 . S
Sc23 O39 2.105 . S
Sc23 O43 2.105 . S
Sc24 O25 2.025 . S
Sc24 O34 2.105 . S
Sc24 O36 2.105 . S
Sc24 O40 2.105 . S
Sc24 O42 2.105 . S
O25 Sc22 2.025 . S
O25 Sc23 2.025 . S
O25 Sc24 2.025 . S
C26 O32 1.268 . S
C26 O42 1.268 . S
C27 O33 1.268 . S
C27 O41 1.268 . S
C28 O34 1.268 . S
C28 O43 1.268 . S
C29 O35 1.268 . S
C29 O39 1.268 . S
C30 O36 1.268 . S
C30 O38 1.268 . S
C31 O37 1.268 . S
C31 O40 1.268 . S
O32 Sc22 2.105 . S
O32 C26 1.268 . S
O33 Sc23 2.105 . S
O33 C27 1.268 . S
O34 Sc24 2.105 . S
O34 C28 1.268 . S
O35 Sc22 2.105 . S
O35 C29 1.268 . S
O36 Sc24 2.105 . S
O36 C30 1.268 . S
O37 Sc23 2.105 . S
O37 C31 1.268 . S
O38 Sc22 2.105 . S
O38 C30 1.268 . S
O39 Sc23 2.105 . S
O39 C29 1.268 . S
O40 Sc24 2.105 . S
O40 C31 1.268 . S
O41 Sc22 2.105 . S
O41 C27 1.268 . S
O42 Sc24 2.105 . S
O42 C26 1.268 . S
O43 Sc23 2.105 . S
O43 C28 1.268 . S
Sc44 O47 2.025 . S
Sc44 O54 2.105 . S
Sc44 O57 2.105 . S
Sc44 O60 2.105 1_556 S
Sc44 O63 2.105 . S
Sc45 O47 2.025 . S
Sc45 O55 2.105 . S
Sc45 O59 2.105 . S
Sc45 O61 2.105 . S
Sc45 O65 2.105 . S
Sc46 O47 2.025 . S
Sc46 O56 2.105 . S
Sc46 O58 2.105 1_556 S
Sc46 O62 2.105 . S
Sc46 O64 2.105 . S
O47 Sc44 2.025 . S
O47 Sc45 2.025 . S
O47 Sc46 2.025 . S
C48 O54 1.268 . S
C48 O64 1.268 . S
C49 O55 1.268 . S
C49 O63 1.268 . S
C50 O56 1.268 . S
C50 O65 1.268 . S
C51 O57 1.268 . S
C51 O61 1.268 . S
C52 O58 1.268 . S
C52 O60 1.268 . S
C53 O59 1.268 . S
C53 O62 1.268 . S
O54 Sc44 2.105 . S
O54 C48 1.268 . S
O55 Sc45 2.105 . S
O55 C49 1.268 . S
O56 Sc46 2.105 . S
O56 C50 1.268 . S
O57 Sc44 2.105 . S
O57 C51 1.268 . S
O58 Sc46 2.105 1_554 S
O58 C52 1.268 . S
O59 Sc45 2.105 . S
O59 C53 1.268 . S
O60 Sc44 2.105 1_554 S
O60 C52 1.268 . S
O61 Sc45 2.105 . S
O61 C51 1.268 . S
O62 Sc46 2.105 . S
O62 C53 1.268 . S
O63 Sc44 2.105 . S
O63 C49 1.268 . S
O64 Sc46 2.105 . S
O64 C48 1.268 . S
O65 Sc45 2.105 . S
O65 C50 1.268 . S
Sc66 O69 2.025 . S
Sc66 O76 2.105 1_655 S
Sc66 O79 2.105 . S
Sc66 O82 2.105 . S
Sc66 O85 2.105 1_655 S
Sc67 O69 2.025 . S
Sc67 O77 2.105 . S
Sc67 O81 2.105 . S
Sc67 O83 2.105 . S
Sc67 O87 2.105 . S
Sc68 O69 2.025 . S
Sc68 O78 2.105 1_655 S
Sc68 O80 2.105 . S
Sc68 O84 2.105 . S
Sc68 O86 2.105 1_655 S
O69 Sc66 2.025 . S
O69 Sc67 2.025 . S
O69 Sc68 2.025 . S
C70 O76 1.268 . S
C70 O86 1.268 . S
C71 O77 1.268 . S
C71 O85 1.268 1_655 S
C72 O78 1.268 . S
C72 O87 1.268 1_455 S
C73 O79 1.268 . S
C73 O83 1.268 . S
C74 O80 1.268 . S
C74 O82 1.268 . S
C75 O81 1.268 . S
C75 O84 1.268 . S
O76 Sc66 2.105 1_455 S
O76 C70 1.268 . S
O77 Sc67 2.105 . S
O77 C71 1.268 . S
O78 Sc68 2.105 1_455 S
O78 C72 1.268 . S
O79 Sc66 2.105 . S
O79 C73 1.268 . S
O80 Sc68 2.105 . S
O80 C74 1.268 . S
O81 Sc67 2.105 . S
O81 C75 1.268 . S
O82 Sc66 2.105 . S
O82 C74 1.268 . S
O83 Sc67 2.105 . S
O83 C73 1.268 . S
O84 Sc68 2.105 . S
O84 C75 1.268 . S
O85 Sc66 2.105 1_455 S
O85 C71 1.268 1_455 S
O86 Sc68 2.105 1_455 S
O86 C70 1.268 . S
O87 Sc67 2.105 . S
O87 C72 1.268 1_655 S
Sc88 O91 2.025 . S
Sc88 O98 2.105 1_455 S
Sc88 O101 2.105 1_545 S
Sc88 O104 2.105 1_545 S
Sc88 O107 2.105 . S
Sc89 O91 2.025 . S
Sc89 O99 2.105 . S
Sc89 O103 2.105 . S
Sc89 O105 2.105 . S
Sc89 O109 2.105 . S
Sc90 O91 2.025 . S
Sc90 O100 2.105 . S
Sc90 O102 2.105 1_545 S
Sc90 O106 2.105 1_545 S
Sc90 O108 2.105 1_455 S
O91 Sc88 2.025 . S
O91 Sc89 2.025 . S
O91 Sc90 2.025 . S
C92 O98 1.268 . S
C92 O108 1.268 . S
C93 O99 1.268 . S
C93 O107 1.268 . S
C94 O100 1.268 . S
C94 O109 1.268 . S
C95 O101 1.268 . S
C95 O105 1.268 1_565 S
C96 O102 1.268 . S
C96 O104 1.268 . S
C97 O103 1.268 . S
C97 O106 1.268 1_545 S
O98 Sc88 2.105 1_655 S
O98 C92 1.268 . S
O99 Sc89 2.105 . S
O99 C93 1.268 . S
O100 Sc90 2.105 . S
O100 C94 1.268 . S
O101 Sc88 2.105 1_565 S
O101 C95 1.268 . S
O102 Sc90 2.105 1_565 S
O102 C96 1.268 . S
O103 Sc89 2.105 . S
O103 C97 1.268 . S
O104 Sc88 2.105 1_565 S
O104 C96 1.268 . S
O105 Sc89 2.105 . S
O105 C95 1.268 1_545 S
O106 Sc90 2.105 1_565 S
O106 C97 1.268 1_565 S
O107 Sc88 2.105 . S
O107 C93 1.268 . S
O108 Sc90 2.105 1_655 S
O108 C92 1.268 . S
O109 Sc89 2.105 . S
O109 C94 1.268 . S
Sc110 O113 2.025 . S
Sc110 O120 2.105 . S
Sc110 O123 2.105 1_565 S
Sc110 O126 2.105 1_565 S
Sc110 O129 2.105 . S
Sc111 O113 2.025 . S
Sc111 O121 2.105 . S
Sc111 O125 2.105 . S
Sc111 O127 2.105 . S
Sc111 O131 2.105 . S
Sc112 O113 2.025 . S
Sc112 O122 2.105 . S
Sc112 O124 2.105 1_565 S
Sc112 O128 2.105 1_565 S
Sc112 O130 2.105 . S
O113 Sc110 2.025 . S
O113 Sc111 2.025 . S
O113 Sc112 2.025 . S
C114 O120 1.268 . S
C114 O130 1.268 . S
C115 O121 1.268 . S
C115 O129 1.268 . S
C116 O122 1.268 . S
C116 O131 1.268 . S
C117 O123 1.268 . S
C117 O127 1.268 1_545 S
C118 O124 1.268 . S
C118 O126 1.268 . S
C119 O125 1.268 . S
C119 O128 1.268 1_565 S
O120 Sc110 2.105 . S
O120 C114 1.268 . S
O121 Sc111 2.105 . S
O121 C115 1.268 . S
O122 Sc112 2.105 . S
O122 C116 1.268 . S
O123 Sc110 2.105 1_545 S
O123 C117 1.268 . S
O124 Sc112 2.105 1_545 S
O124 C118 1.268 . S
O125 Sc111 2.105 . S
O125 C119 1.268 . S
O126 Sc110 2.105 1_545 S
O126 C118 1.268 . S
O127 Sc111 2.105 . S
O127 C117 1.268 1_565 S
O128 Sc112 2.105 1_545 S
O128 C119 1.268 1_545 S
O129 Sc110 2.105 . S
O129 C115 1.268 . S
O130 Sc112 2.105 . S
O130 C114 1.268 . S
O131 Sc111 2.105 . S
O131 C116 1.268 . S
Sc132 O135 2.025 . S
Sc132 O142 2.105 . S
Sc132 O145 2.105 . S
Sc132 O148 2.105 . S
Sc132 O151 2.105 . S
Sc133 O135 2.025 . S
Sc133 O143 2.105 . S
Sc133 O147 2.105 . S
Sc133 O149 2.105 . S
Sc133 O153 2.105 . S
Sc134 O135 2.025 . S
Sc134 O144 2.105 . S
Sc134 O146 2.105 . S
Sc134 O150 2.105 . S
Sc134 O152 2.105 . S
O135 Sc132 2.025 . S
O135 Sc133 2.025 . S
O135 Sc134 2.025 . S
C136 O142 1.268 . S
C136 O152 1.268 . S
C137 O143 1.268 . S
C137 O151 1.268 . S
C138 O144 1.268 . S
C138 O153 1.268 . S
C139 O145 1.268 . S
C139 O149 1.268 . S
C140 O146 1.268 . S
C140 O148 1.268 . S
C141 O147 1.268 . S
C141 O150 1.268 . S
O142 Sc132 2.105 . S
O142 C136 1.268 . S
O143 Sc133 2.105 . S
O143 C137 1.268 . S
O144 Sc134 2.105 . S
O144 C138 1.268 . S
O145 Sc132 2.105 . S
O145 C139 1.268 . S
O146 Sc134 2.105 . S
O146 C140 1.268 . S
O147 Sc133 2.105 . S
O147 C141 1.268 . S
O148 Sc132 2.105 . S
O148 C140 1.268 . S
O149 Sc133 2.105 . S
O149 C139 1.268 . S
O150 Sc134 2.105 . S
O150 C141 1.268 . S
O151 Sc132 2.105 . S
O151 C137 1.268 . S
O152 Sc134 2.105 . S
O152 C136 1.268 . S
O153 Sc133 2.105 . S
O153 C138 1.268 . S
Sc154 O157 2.025 . S
Sc154 O164 2.105 . S
Sc154 O167 2.105 . S
Sc154 O170 2.105 1_655 S
Sc154 O173 2.105 . S
Sc155 O157 2.025 . S
Sc155 O165 2.105 . S
Sc155 O169 2.105 . S
Sc155 O171 2.105 . S
Sc155 O175 2.105 . S
Sc156 O157 2.025 . S
Sc156 O166 2.105 . S
Sc156 O168 2.105 1_655 S
Sc156 O172 2.105 . S
Sc156 O174 2.105 . S
O157 Sc154 2.025 . S
O157 Sc155 2.025 . S
O157 Sc156 2.025 . S
C158 O164 1.268 . S
C158 O174 1.268 . S
C159 O165 1.268 . S
C159 O173 1.268 . S
C160 O166 1.268 . S
C160 O175 1.268 . S
C161 O167 1.268 . S
C161 O171 1.268 . S
C162 O168 1.268 . S
C162 O170 1.268 . S
C163 O169 1.268 . S
C163 O172 1.268 . S
O164 Sc154 2.105 . S
O164 C158 1.268 . S
O165 Sc155 2.105 . S
O165 C159 1.268 . S
O166 Sc156 2.105 . S
O166 C160 1.268 . S
O167 Sc154 2.105 . S
O167 C161 1.268 . S
O168 Sc156 2.105 1_455 S
O168 C162 1.268 . S
O169 Sc155 2.105 . S
O169 C163 1.268 . S
O170 Sc154 2.105 1_455 S
O170 C162 1.268 . S
O171 Sc155 2.105 . S
O171 C161 1.268 . S
O172 Sc156 2.105 . S
O172 C163 1.268 . S
O173 Sc154 2.105 . S
O173 C159 1.268 . S
O174 Sc156 2.105 . S
O174 C158 1.268 . S
O175 Sc155 2.105 . S
O175 C160 1.268 . S
Sc176 O179 2.025 . S
Sc176 O186 2.105 1_545 S
Sc176 O189 2.105 1_554 S
Sc176 O192 2.105 1_554 S
Sc176 O195 2.105 . S
Sc177 O179 2.025 . S
Sc177 O187 2.105 . S
Sc177 O191 2.105 . S
Sc177 O193 2.105 . S
Sc177 O197 2.105 . S
Sc178 O179 2.025 . S
Sc178 O188 2.105 . S
Sc178 O190 2.105 1_554 S
Sc178 O194 2.105 1_554 S
Sc178 O196 2.105 1_545 S
O179 Sc176 2.025 . S
O179 Sc177 2.025 . S
O179 Sc178 2.025 . S
C180 O186 1.268 . S
C180 O196 1.268 . S
C181 O187 1.268 . S
C181 O195 1.268 . S
C182 O188 1.268 . S
C182 O197 1.268 . S
C183 O189 1.268 . S
C183 O193 1.268 1_556 S
C184 O190 1.268 . S
C184 O192 1.268 . S
C185 O191 1.268 . S
C185 O194 1.268 1_554 S
O186 Sc176 2.105 1_565 S
O186 C180 1.268 . S
O187 Sc177 2.105 . S
O187 C181 1.268 . S
O188 Sc178 2.105 . S
O188 C182 1.268 . S
O189 Sc176 2.105 1_556 S
O189 C183 1.268 . S
O190 Sc178 2.105 1_556 S
O190 C184 1.268 . S
O191 Sc177 2.105 . S
O191 C185 1.268 . S
O192 Sc176 2.105 1_556 S
O192 C184 1.268 . S
O193 Sc177 2.105 . S
O193 C183 1.268 1_554 S
O194 Sc178 2.105 1_556 S
O194 C185 1.268 1_556 S
O195 Sc176 2.105 . S
O195 C181 1.268 . S
O196 Sc178 2.105 1_565 S
O196 C180 1.268 . S
O197 Sc177 2.105 . S
O197 C182 1.268 . S
Sc198 O201 2.025 . S
Sc198 O208 2.105 . S
Sc198 O211 2.105 1_556 S
Sc198 O214 2.105 1_556 S
Sc198 O217 2.105 . S
Sc199 O201 2.025 . S
Sc199 O209 2.105 . S
Sc199 O213 2.105 . S
Sc199 O215 2.105 . S
Sc199 O219 2.105 . S
Sc200 O201 2.025 . S
Sc200 O210 2.105 . S
Sc200 O212 2.105 1_556 S
Sc200 O216 2.105 1_556 S
Sc200 O218 2.105 . S
O201 Sc198 2.025 . S
O201 Sc199 2.025 . S
O201 Sc200 2.025 . S
C202 O208 1.268 . S
C202 O218 1.268 . S
C203 O209 1.268 . S
C203 O217 1.268 . S
C204 O210 1.268 . S
C204 O219 1.268 . S
C205 O211 1.268 . S
C205 O215 1.268 1_554 S
C206 O212 1.268 . S
C206 O214 1.268 . S
C207 O213 1.268 . S
C207 O216 1.268 1_556 S
O208 Sc198 2.105 . S
O208 C202 1.268 . S
O209 Sc199 2.105 . S
O209 C203 1.268 . S
O210 Sc200 2.105 . S
O210 C204 1.268 . S
O211 Sc198 2.105 1_554 S
O211 C205 1.268 . S
O212 Sc200 2.105 1_554 S
O212 C206 1.268 . S
O213 Sc199 2.105 . S
O213 C207 1.268 . S
O214 Sc198 2.105 1_554 S
O214 C206 1.268 . S
O215 Sc199 2.105 . S
O215 C205 1.268 1_556 S
O216 Sc200 2.105 1_554 S
O216 C207 1.268 1_554 S
O217 Sc198 2.105 . S
O217 C203 1.268 . S
O218 Sc200 2.105 . S
O218 C202 1.268 . S
O219 Sc199 2.105 . S
O219 C204 1.268 . S
Sc220 O223 2.025 . S
Sc220 O230 2.105 . S
Sc220 O233 2.105 . S
Sc220 O236 2.105 . S
Sc220 O239 2.105 . S
Sc221 O223 2.025 . S
Sc221 O231 2.105 . S
Sc221 O235 2.105 . S
Sc221 O237 2.105 . S
Sc221 O241 2.105 . S
Sc222 O223 2.025 . S
Sc222 O232 2.105 . S
Sc222 O234 2.105 . S
Sc222 O238 2.105 . S
Sc222 O240 2.105 . S
O223 Sc220 2.025 . S
O223 Sc221 2.025 . S
O223 Sc222 2.025 . S
C224 O230 1.268 . S
C224 O240 1.268 . S
C225 O231 1.268 . S
C225 O239 1.268 . S
C226 O232 1.268 . S
C226 O241 1.268 . S
C227 O233 1.268 . S
C227 O237 1.268 . S
C228 O234 1.268 . S
C228 O236 1.268 . S
C229 O235 1.268 . S
C229 O238 1.268 . S
O230 Sc220 2.105 . S
O230 C224 1.268 . S
O231 Sc221 2.105 . S
O231 C225 1.268 . S
O232 Sc222 2.105 . S
O232 C226 1.268 . S
O233 Sc220 2.105 . S
O233 C227 1.268 . S
O234 Sc222 2.105 . S
O234 C228 1.268 . S
O235 Sc221 2.105 . S
O235 C229 1.268 . S
O236 Sc220 2.105 . S
O236 C228 1.268 . S
O237 Sc221 2.105 . S
O237 C227 1.268 . S
O238 Sc222 2.105 . S
O238 C229 1.268 . S
O239 Sc220 2.105 . S
O239 C225 1.268 . S
O240 Sc222 2.105 . S
O240 C224 1.268 . S
O241 Sc221 2.105 . S
O241 C226 1.268 . S
Sc242 O245 2.025 . S
Sc242 O252 2.105 . S
Sc242 O255 2.105 . S
Sc242 O258 2.105 1_565 S
Sc242 O261 2.105 . S
Sc243 O245 2.025 . S
Sc243 O253 2.105 . S
Sc243 O257 2.105 . S
Sc243 O259 2.105 . S
Sc243 O263 2.105 . S
Sc244 O245 2.025 . S
Sc244 O254 2.105 . S
Sc244 O256 2.105 1_565 S
Sc244 O260 2.105 . S
Sc244 O262 2.105 . S
O245 Sc242 2.025 . S
O245 Sc243 2.025 . S
O245 Sc244 2.025 . S
C246 O252 1.268 . S
C246 O262 1.268 . S
C247 O253 1.268 . S
C247 O261 1.268 . S
C248 O254 1.268 . S
C248 O263 1.268 . S
C249 O255 1.268 . S
C249 O259 1.268 . S
C250 O256 1.268 . S
C250 O258 1.268 . S
C251 O257 1.268 . S
C251 O260 1.268 . S
O252 Sc242 2.105 . S
O252 C246 1.268 . S
O253 Sc243 2.105 . S
O253 C247 1.268 . S
O254 Sc244 2.105 . S
O254 C248 1.268 . S
O255 Sc242 2.105 . S
O255 C249 1.268 . S
O256 Sc244 2.105 1_545 S
O256 C250 1.268 . S
O257 Sc243 2.105 . S
O257 C251 1.268 . S
O258 Sc242 2.105 1_545 S
O258 C250 1.268 . S
O259 Sc243 2.105 . S
O259 C249 1.268 . S
O260 Sc244 2.105 . S
O260 C251 1.268 . S
O261 Sc242 2.105 . S
O261 C247 1.268 . S
O262 Sc244 2.105 . S
O262 C246 1.268 . S
O263 Sc243 2.105 . S
O263 C248 1.268 . S
Sc264 O267 2.025 . S
Sc264 O274 2.105 1_655 S
Sc264 O277 2.105 . S
Sc264 O280 2.105 1_556 S
Sc264 O283 2.105 1_655 S
Sc265 O267 2.025 . S
Sc265 O275 2.105 . S
Sc265 O279 2.105 . S
Sc265 O281 2.105 . S
Sc265 O285 2.105 . S
Sc266 O267 2.025 . S
Sc266 O276 2.105 1_655 S
Sc266 O278 2.105 1_556 S
Sc266 O282 2.105 . S
Sc266 O284 2.105 1_655 S
O267 Sc264 2.025 . S
O267 Sc265 2.025 . S
O267 Sc266 2.025 . S
C268 O274 1.268 . S
C268 O284 1.268 . S
C269 O275 1.268 1_455 S
C269 O283 1.268 . S
C270 O276 1.268 1_655 S
C270 O285 1.268 . S
C271 O277 1.268 . S
C271 O281 1.268 . S
C272 O278 1.268 . S
C272 O280 1.268 . S
C273 O279 1.268 . S
C273 O282 1.268 . S
O274 Sc264 2.105 1_455 S
O274 C268 1.268 . S
O275 Sc265 2.105 . S
O275 C269 1.268 1_655 S
O276 Sc266 2.105 1_455 S
O276 C270 1.268 1_455 S
O277 Sc264 2.105 . S
O277 C271 1.268 . S
O278 Sc266 2.105 1_554 S
O278 C272 1.268 . S
O279 Sc265 2.105 . S
O279 C273 1.268 . S
O280 Sc264 2.105 1_554 S
O280 C272 1.268 . S
O281 Sc265 2.105 . S
O281 C271 1.268 . S
O282 Sc266 2.105 . S
O282 C273 1.268 . S
O283 Sc264 2.105 1_455 S
O283 C269 1.268 . S
O284 Sc266 2.105 1_455 S
O284 C268 1.268 . S
O285 Sc265 2.105 . S
O285 C270 1.268 . S
Sc286 O289 2.025 . S
Sc286 O296 2.105 . S
Sc286 O299 2.105 . S
Sc286 O302 2.105 . S
Sc286 O305 2.105 . S
Sc287 O289 2.025 . S
Sc287 O297 2.105 . S
Sc287 O301 2.105 . S
Sc287 O303 2.105 . S
Sc287 O307 2.105 . S
Sc288 O289 2.025 . S
Sc288 O298 2.105 . S
Sc288 O300 2.105 . S
Sc288 O304 2.105 . S
Sc288 O306 2.105 . S
O289 Sc286 2.025 . S
O289 Sc287 2.025 . S
O289 Sc288 2.025 . S
C290 O296 1.268 . S
C290 O306 1.268 . S
C291 O297 1.268 . S
C291 O305 1.268 . S
C292 O298 1.268 . S
C292 O307 1.268 . S
C293 O299 1.268 . S
C293 O303 1.268 . S
C294 O300 1.268 . S
C294 O302 1.268 . S
C295 O301 1.268 . S
C295 O304 1.268 . S
O296 Sc286 2.105 . S
O296 C290 1.268 . S
O297 Sc287 2.105 . S
O297 C291 1.268 . S
O298 Sc288 2.105 . S
O298 C292 1.268 . S
O299 Sc286 2.105 . S
O299 C293 1.268 . S
O300 Sc288 2.105 . S
O300 C294 1.268 . S
O301 Sc287 2.105 . S
O301 C295 1.268 . S
O302 Sc286 2.105 . S
O302 C294 1.268 . S
O303 Sc287 2.105 . S
O303 C293 1.268 . S
O304 Sc288 2.105 . S
O304 C295 1.268 . S
O305 Sc286 2.105 . S
O305 C291 1.268 . S
O306 Sc288 2.105 . S
O306 C290 1.268 . S
O307 Sc287 2.105 . S
O307 C292 1.268 . S
Sc308 O311 2.025 . S
Sc308 O318 2.105 1_554 S
Sc308 O321 2.105 . S
Sc308 O324 2.105 . S
Sc308 O327 2.105 . S
Sc309 O311 2.025 . S
Sc309 O319 2.105 . S
Sc309 O323 2.105 . S
Sc309 O325 2.105 . S
Sc309 O329 2.105 . S
Sc310 O311 2.025 . S
Sc310 O320 2.105 . S
Sc310 O322 2.105 . S
Sc310 O326 2.105 . S
Sc310 O328 2.105 1_554 S
O311 Sc308 2.025 . S
O311 Sc309 2.025 . S
O311 Sc310 2.025 . S
C312 O318 1.268 . S
C312 O328 1.268 . S
C313 O319 1.268 . S
C313 O327 1.268 . S
C314 O320 1.268 . S
C314 O329 1.268 . S
C315 O321 1.268 . S
C315 O325 1.268 . S
C316 O322 1.268 . S
C316 O324 1.268 . S
C317 O323 1.268 . S
C317 O326 1.268 . S
O318 Sc308 2.105 1_556 S
O318 C312 1.268 . S
O319 Sc309 2.105 . S
O319 C313 1.268 . S
O320 Sc310 2.105 . S
O320 C314 1.268 . S
O321 Sc308 2.105 . S
O321 C315 1.268 . S
O322 Sc310 2.105 . S
O322 C316 1.268 . S
O323 Sc309 2.105 . S
O323 C317 1.268 . S
O324 Sc308 2.105 . S
O324 C316 1.268 . S
O325 Sc309 2.105 . S
O325 C315 1.268 . S
O326 Sc310 2.105 . S
O326 C317 1.268 . S
O327 Sc308 2.105 . S
O327 C313 1.268 . S
O328 Sc310 2.105 1_556 S
O328 C312 1.268 . S
O329 Sc309 2.105 . S
O329 C314 1.268 . S
Sc330 O333 2.025 . S
Sc330 O340 2.105 . S
Sc330 O343 2.105 1_455 S
Sc330 O346 2.105 1_455 S
Sc330 O349 2.105 . S
Sc331 O333 2.025 . S
Sc331 O341 2.105 . S
Sc331 O345 2.105 . S
Sc331 O347 2.105 . S
Sc331 O351 2.105 . S
Sc332 O333 2.025 . S
Sc332 O342 2.105 . S
Sc332 O344 2.105 1_455 S
Sc332 O348 2.105 1_455 S
Sc332 O350 2.105 . S
O333 Sc330 2.025 . S
O333 Sc331 2.025 . S
O333 Sc332 2.025 . S
C334 O340 1.268 . S
C334 O350 1.268 . S
C335 O341 1.268 . S
C335 O349 1.268 . S
C336 O342 1.268 . S
C336 O351 1.268 . S
C337 O343 1.268 1_455 S
C337 O347 1.268 . S
C338 O344 1.268 . S
C338 O346 1.268 . S
C339 O345 1.268 1_655 S
C339 O348 1.268 . S
O340 Sc330 2.105 . S
O340 C334 1.268 . S
O341 Sc331 2.105 . S
O341 C335 1.268 . S
O342 Sc332 2.105 . S
O342 C336 1.268 . S
O343 Sc330 2.105 1_655 S
O343 C337 1.268 1_655 S
O344 Sc332 2.105 1_655 S
O344 C338 1.268 . S
O345 Sc331 2.105 . S
O345 C339 1.268 1_455 S
O346 Sc330 2.105 1_655 S
O346 C338 1.268 . S
O347 Sc331 2.105 . S
O347 C337 1.268 . S
O348 Sc332 2.105 1_655 S
O348 C339 1.268 . S
O349 Sc330 2.105 . S
O349 C335 1.268 . S
O350 Sc332 2.105 . S
O350 C334 1.268 . S
O351 Sc331 2.105 . S
O351 C336 1.268 . S
Sc352 O355 2.025 . S
Sc352 O362 2.105 1_655 S
Sc352 O365 2.105 1_565 S
Sc352 O368 2.105 1_565 S
Sc352 O371 2.105 . S
Sc353 O355 2.025 . S
Sc353 O363 2.105 . S
Sc353 O367 2.105 . S
Sc353 O369 2.105 . S
Sc353 O373 2.105 . S
Sc354 O355 2.025 . S
Sc354 O364 2.105 . S
Sc354 O366 2.105 1_565 S
Sc354 O370 2.105 1_565 S
Sc354 O372 2.105 1_655 S
O355 Sc352 2.025 . S
O355 Sc353 2.025 . S
O355 Sc354 2.025 . S
C356 O362 1.268 . S
C356 O372 1.268 . S
C357 O363 1.268 . S
C357 O371 1.268 . S
C358 O364 1.268 . S
C358 O373 1.268 . S
C359 O365 1.268 1_565 S
C359 O369 1.268 . S
C360 O366 1.268 . S
C360 O368 1.268 . S
C361 O367 1.268 1_545 S
C361 O370 1.268 . S
O362 Sc352 2.105 1_455 S
O362 C356 1.268 . S
O363 Sc353 2.105 . S
O363 C357 1.268 . S
O364 Sc354 2.105 . S
O364 C358 1.268 . S
O365 Sc352 2.105 1_545 S
O365 C359 1.268 1_545 S
O366 Sc354 2.105 1_545 S
O366 C360 1.268 . S
O367 Sc353 2.105 . S
O367 C361 1.268 1_565 S
O368 Sc352 2.105 1_545 S
O368 C360 1.268 . S
O369 Sc353 2.105 . S
O369 C359 1.268 . S
O370 Sc354 2.105 1_545 S
O370 C361 1.268 . S
O371 Sc352 2.105 . S
O371 C357 1.268 . S
O372 Sc354 2.105 1_455 S
O372 C356 1.268 . S
O373 Sc353 2.105 . S
O373 C358 1.268 . S
Sc374 O377 2.025 . S
Sc374 O384 2.105 . S
Sc374 O387 2.105 1_545 S
Sc374 O390 2.105 1_545 S
Sc374 O393 2.105 . S
Sc375 O377 2.025 . S
Sc375 O385 2.105 . S
Sc375 O389 2.105 . S
Sc375 O391 2.105 . S
Sc375 O395 2.105 . S
Sc376 O377 2.025 . S
Sc376 O386 2.105 . S
Sc376 O388 2.105 1_545 S
Sc376 O392 2.105 1_545 S
Sc376 O394 2.105 . S
O377 Sc374 2.025 . S
O377 Sc375 2.025 . S
O377 Sc376 2.025 . S
C378 O384 1.268 . S
C378 O394 1.268 . S
C379 O385 1.268 . S
C379 O393 1.268 . S
C380 O386 1.268 . S
C380 O395 1.268 . S
C381 O387 1.268 1_545 S
C381 O391 1.268 . S
C382 O388 1.268 . S
C382 O390 1.268 . S
C383 O389 1.268 1_565 S
C383 O392 1.268 . S
O384 Sc374 2.105 . S
O384 C378 1.268 . S
O385 Sc375 2.105 . S
O385 C379 1.268 . S
O386 Sc376 2.105 . S
O386 C380 1.268 . S
O387 Sc374 2.105 1_565 S
O387 C381 1.268 1_565 S
O388 Sc376 2.105 1_565 S
O388 C382 1.268 . S
O389 Sc375 2.105 . S
O389 C383 1.268 1_545 S
O390 Sc374 2.105 1_565 S
O390 C382 1.268 . S
O391 Sc375 2.105 . S
O391 C381 1.268 . S
O392 Sc376 2.105 1_565 S
O392 C383 1.268 . S
O393 Sc374 2.105 . S
O393 C379 1.268 . S
O394 Sc376 2.105 . S
O394 C378 1.268 . S
O395 Sc375 2.105 . S
O395 C380 1.268 . S
Sc396 O399 2.025 . S
Sc396 O406 2.105 . S
Sc396 O409 2.105 . S
Sc396 O412 2.105 . S
Sc396 O415 2.105 . S
Sc397 O399 2.025 . S
Sc397 O407 2.105 . S
Sc397 O411 2.105 . S
Sc397 O413 2.105 . S
Sc397 O417 2.105 . S
Sc398 O399 2.025 . S
Sc398 O408 2.105 . S
Sc398 O410 2.105 . S
Sc398 O414 2.105 . S
Sc398 O416 2.105 . S
O399 Sc396 2.025 . S
O399 Sc397 2.025 . S
O399 Sc398 2.025 . S
C400 O406 1.268 . S
C400 O416 1.268 . S
C401 O407 1.268 . S
C401 O415 1.268 . S
C402 O408 1.268 . S
C402 O417 1.268 . S
C403 O409 1.268 . S
C403 O413 1.268 . S
C404 O410 1.268 . S
C404 O412 1.268 . S
C405 O411 1.268 . S
C405 O414 1.268 . S
O406 Sc396 2.105 . S
O406 C400 1.268 . S
O407 Sc397 2.105 . S
O407 C401 1.268 . S
O408 Sc398 2.105 . S
O408 C402 1.268 . S
O409 Sc396 2.105 . S
O409 C403 1.268 . S
O410 Sc398 2.105 . S
O410 C404 1.268 . S
O411 Sc397 2.105 . S
O411 C405 1.268 . S
O412 Sc396 2.105 . S
O412 C404 1.268 . S
O413 Sc397 2.105 . S
O413 C403 1.268 . S
O414 Sc398 2.105 . S
O414 C405 1.268 . S
O415 Sc396 2.105 . S
O415 C401 1.268 . S
O416 Sc398 2.105 . S
O416 C400 1.268 . S
O417 Sc397 2.105 . S
O417 C402 1.268 . S
Sc418 O421 2.025 . S
Sc418 O428 2.105 . S
Sc418 O431 2.105 . S
Sc418 O434 2.105 1_455 S
Sc418 O437 2.105 . S
Sc419 O421 2.025 . S
Sc419 O429 2.105 . S
Sc419 O433 2.105 . S
Sc419 O435 2.105 . S
Sc419 O439 2.105 . S
Sc420 O421 2.025 . S
Sc420 O430 2.105 . S
Sc420 O432 2.105 1_455 S
Sc420 O436 2.105 . S
Sc420 O438 2.105 . S
O421 Sc418 2.025 . S
O421 Sc419 2.025 . S
O421 Sc420 2.025 . S
C422 O428 1.268 . S
C422 O438 1.268 . S
C423 O429 1.268 . S
C423 O437 1.268 . S
C424 O430 1.268 . S
C424 O439 1.268 . S
C425 O431 1.268 . S
C425 O435 1.268 . S
C426 O432 1.268 . S
C426 O434 1.268 . S
C427 O433 1.268 . S
C427 O436 1.268 . S
O428 Sc418 2.105 . S
O428 C422 1.268 . S
O429 Sc419 2.105 . S
O429 C423 1.268 . S
O430 Sc420 2.105 . S
O430 C424 1.268 . S
O431 Sc418 2.105 . S
O431 C425 1.268 . S
O432 Sc420 2.105 1_655 S
O432 C426 1.268 . S
O433 Sc419 2.105 . S
O433 C427 1.268 . S
O434 Sc418 2.105 1_655 S
O434 C426 1.268 . S
O435 Sc419 2.105 . S
O435 C425 1.268 . S
O436 Sc420 2.105 . S
O436 C427 1.268 . S
O437 Sc418 2.105 . S
O437 C423 1.268 . S
O438 Sc420 2.105 . S
O438 C422 1.268 . S
O439 Sc419 2.105 . S
O439 C424 1.268 . S
Sc440 O443 2.025 . S
Sc440 O450 2.105 1_565 S
Sc440 O453 2.105 1_556 S
Sc440 O456 2.105 1_556 S
Sc440 O459 2.105 . S
Sc441 O443 2.025 . S
Sc441 O451 2.105 . S
Sc441 O455 2.105 . S
Sc441 O457 2.105 . S
Sc441 O461 2.105 . S
Sc442 O443 2.025 . S
Sc442 O452 2.105 . S
Sc442 O454 2.105 1_556 S
Sc442 O458 2.105 1_556 S
Sc442 O460 2.105 1_565 S
O443 Sc440 2.025 . S
O443 Sc441 2.025 . S
O443 Sc442 2.025 . S
C444 O450 1.268 . S
C444 O460 1.268 . S
C445 O451 1.268 . S
C445 O459 1.268 . S
C446 O452 1.268 . S
C446 O461 1.268 . S
C447 O453 1.268 1_556 S
C447 O457 1.268 . S
C448 O454 1.268 . S
C448 O456 1.268 . S
C449 O455 1.268 1_554 S
C449 O458 1.268 . S
O450 Sc440 2.105 1_545 S
O450 C444 1.268 . S
O451 Sc441 2.105 . S
O451 C445 1.268 . S
O452 Sc442 2.105 . S
O452 C446 1.268 . S
O453 Sc440 2.105 1_554 S
O453 C447 1.268 1_554 S
O454 Sc442 2.105 1_554 S
O454 C448 1.268 . S
O455 Sc441 2.105 . S
O455 C449 1.268 1_556 S
O456 Sc440 2.105 1_554 S
O456 C448 1.268 . S
O457 Sc441 2.105 . S
O457 C447 1.268 . S
O458 Sc442 2.105 1_554 S
O458 C449 1.268 . S
O459 Sc440 2.105 . S
O459 C445 1.268 . S
O460 Sc442 2.105 1_545 S
O460 C444 1.268 . S
O461 Sc441 2.105 . S
O461 C446 1.268 . S
Sc462 O465 2.025 . S
Sc462 O472 2.105 . S
Sc462 O475 2.105 1_554 S
Sc462 O478 2.105 1_554 S
Sc462 O481 2.105 . S
Sc463 O465 2.025 . S
Sc463 O473 2.105 . S
Sc463 O477 2.105 . S
Sc463 O479 2.105 . S
Sc463 O483 2.105 . S
Sc464 O465 2.025 . S
Sc464 O474 2.105 . S
Sc464 O476 2.105 1_554 S
Sc464 O480 2.105 1_554 S
Sc464 O482 2.105 . S
O465 Sc462 2.025 . S
O465 Sc463 2.025 . S
O465 Sc464 2.025 . S
C466 O472 1.268 . S
C466 O482 1.268 . S
C467 O473 1.268 . S
C467 O481 1.268 . S
C468 O474 1.268 . S
C468 O483 1.268 . S
C469 O475 1.268 1_554 S
C469 O479 1.268 . S
C470 O476 1.268 . S
C470 O478 1.268 . S
C471 O477 1.268 1_556 S
C471 O480 1.268 . S
O472 Sc462 2.105 . S
O472 C466 1.268 . S
O473 Sc463 2.105 . S
O473 C467 1.268 . S
O474 Sc464 2.105 . S
O474 C468 1.268 . S
O475 Sc462 2.105 1_556 S
O475 C469 1.268 1_556 S
O476 Sc464 2.105 1_556 S
O476 C470 1.268 . S
O477 Sc463 2.105 . S
O477 C471 1.268 1_554 S
O478 Sc462 2.105 1_556 S
O478 C470 1.268 . S
O479 Sc463 2.105 . S
O479 C469 1.268 . S
O480 Sc464 2.105 1_556 S
O480 C471 1.268 . S
O481 Sc462 2.105 . S
O481 C467 1.268 . S
O482 Sc464 2.105 . S
O482 C466 1.268 . S
O483 Sc463 2.105 . S
O483 C468 1.268 . S
Sc484 O487 2.025 . S
Sc484 O494 2.105 . S
Sc484 O497 2.105 . S
Sc484 O500 2.105 . S
Sc484 O503 2.105 . S
Sc485 O487 2.025 . S
Sc485 O495 2.105 . S
Sc485 O499 2.105 . S
Sc485 O501 2.105 . S
Sc485 O505 2.105 . S
Sc486 O487 2.025 . S
Sc486 O496 2.105 . S
Sc486 O498 2.105 . S
Sc486 O502 2.105 . S
Sc486 O504 2.105 . S
O487 Sc484 2.025 . S
O487 Sc485 2.025 . S
O487 Sc486 2.025 . S
C488 O494 1.268 . S
C488 O504 1.268 . S
C489 O495 1.268 . S
C489 O503 1.268 . S
C490 O496 1.268 . S
C490 O505 1.268 . S
C491 O497 1.268 . S
C491 O501 1.268 . S
C492 O498 1.268 . S
C492 O500 1.268 . S
C493 O499 1.268 . S
C493 O502 1.268 . S
O494 Sc484 2.105 . S
O494 C488 1.268 . S
O495 Sc485 2.105 . S
O495 C489 1.268 . S
O496 Sc486 2.105 . S
O496 C490 1.268 . S
O497 Sc484 2.105 . S
O497 C491 1.268 . S
O498 Sc486 2.105 . S
O498 C492 1.268 . S
O499 Sc485 2.105 . S
O499 C493 1.268 . S
O500 Sc484 2.105 . S
O500 C492 1.268 . S
O501 Sc485 2.105 . S
O501 C491 1.268 . S
O502 Sc486 2.105 . S
O502 C493 1.268 . S
O503 Sc484 2.105 . S
O503 C489 1.268 . S
O504 Sc486 2.105 . S
O504 C488 1.268 . S
O505 Sc485 2.105 . S
O505 C490 1.268 . S
Sc506 O509 2.025 . S
Sc506 O516 2.105 . S
Sc506 O519 2.105 . S
Sc506 O522 2.105 1_545 S
Sc506 O525 2.105 . S
Sc507 O509 2.025 . S
Sc507 O517 2.105 . S
Sc507 O521 2.105 . S
Sc507 O523 2.105 . S
Sc507 O527 2.105 . S
Sc508 O509 2.025 . S
Sc508 O518 2.105 . S
Sc508 O520 2.105 1_545 S
Sc508 O524 2.105 . S
Sc508 O526 2.105 . S
O509 Sc506 2.025 . S
O509 Sc507 2.025 . S
O509 Sc508 2.025 . S
C510 O516 1.268 . S
C510 O526 1.268 . S
C511 O517 1.268 . S
C511 O525 1.268 . S
C512 O518 1.268 . S
C512 O527 1.268 . S
C513 O519 1.268 . S
C513 O523 1.268 . S
C514 O520 1.268 . S
C514 O522 1.268 . S
C515 O521 1.268 . S
C515 O524 1.268 . S
O516 Sc506 2.105 . S
O516 C510 1.268 . S
O517 Sc507 2.105 . S
O517 C511 1.268 . S
O518 Sc508 2.105 . S
O518 C512 1.268 . S
O519 Sc506 2.105 . S
O519 C513 1.268 . S
O520 Sc508 2.105 1_565 S
O520 C514 1.268 . S
O521 Sc507 2.105 . S
O521 C515 1.268 . S
O522 Sc506 2.105 1_565 S
O522 C514 1.268 . S
O523 Sc507 2.105 . S
O523 C513 1.268 . S
O524 Sc508 2.105 . S
O524 C515 1.268 . S
O525 Sc506 2.105 . S
O525 C511 1.268 . S
O526 Sc508 2.105 . S
O526 C510 1.268 . S
O527 Sc507 2.105 . S
O527 C512 1.268 . S
H528 C536 0.950 . S
H529 C541 0.950 . S
H530 C538 0.950 . S
H531 C540 0.950 . S
H532 C542 0.950 . S
H533 C544 0.950 . S
H534 C546 0.950 . S
H535 C547 0.950 . S
C536 H528 0.950 . S
C536 C537 1.386 . S
C536 C538 1.391 . S
C537 C536 1.386 . S
C537 C541 1.393 1_655 S
C538 H530 0.950 . S
C538 C536 1.391 . S
C538 C539 1.413 . S
C539 C538 1.413 . S
C539 C540 1.388 1_655 S
C539 C545 1.488 1_655 S
C540 H531 0.950 . S
C540 C539 1.388 1_455 S
C540 C541 1.391 . S
C541 H529 0.950 . S
C541 C537 1.393 1_455 S
C541 C540 1.391 . S
C542 H532 0.950 . S
C542 C543 1.386 . S
C542 C544 1.391 . S
C543 C542 1.386 . S
C543 C547 1.393 1_455 S
C544 H533 0.950 . S
C544 C542 1.391 . S
C544 C545 1.400 . S
C545 C539 1.488 1_455 S
C545 C544 1.400 . S
C545 C546 1.398 1_455 S
C546 H534 0.950 . S
C546 C545 1.398 1_655 S
C546 C547 1.391 . S
C547 H535 0.950 . S
C547 C543 1.393 1_655 S
C547 C546 1.391 . S
H548 C556 0.950 . S
H549 C561 0.950 . S
H550 C558 0.950 . S
H551 C560 0.950 . S
H552 C562 0.950 . S
H553 C564 0.950 . S
H554 C566 0.950 . S
H555 C567 0.950 . S
C556 H548 0.950 . S
C556 C557 1.386 . S
C556 C558 1.391 . S
C557 C556 1.386 . S
C557 C561 1.393 . S
C558 H550 0.950 . S
C558 C556 1.391 . S
C558 C559 1.400 . S
C559 C558 1.400 . S
C559 C560 1.398 . S
C559 C565 1.491 . S
C560 H551 0.950 . S
C560 C559 1.398 . S
C560 C561 1.391 . S
C561 H549 0.950 . S
C561 C557 1.393 . S
C561 C560 1.391 . S
C562 H552 0.950 . S
C562 C563 1.386 . S
C562 C564 1.391 . S
C563 C562 1.386 . S
C563 C567 1.393 . S
C564 H553 0.950 . S
C564 C562 1.391 . S
C564 C565 1.400 . S
C565 C559 1.491 . S
C565 C564 1.400 . S
C565 C566 1.398 . S
C566 H554 0.950 . S
C566 C565 1.398 . S
C566 C567 1.391 . S
C567 H555 0.950 . S
C567 C563 1.393 . S
C567 C566 1.391 . S
H568 C576 0.950 . S
H569 C581 0.950 . S
H570 C578 0.950 . S
H571 C580 0.950 . S
H572 C582 0.950 . S
H573 C584 0.950 . S
H574 C586 0.950 . S
H575 C587 0.950 . S
C576 H568 0.950 . S
C576 C577 1.386 . S
C576 C578 1.391 . S
C577 C576 1.386 . S
C577 C581 1.393 . S
C578 H570 0.950 . S
C578 C576 1.391 . S
C578 C579 1.400 . S
C579 C578 1.400 . S
C579 C580 1.398 . S
C579 C585 1.491 . S
C580 H571 0.950 . S
C580 C579 1.398 . S
C580 C581 1.391 . S
C581 H569 0.950 . S
C581 C577 1.393 . S
C581 C580 1.391 . S
C582 H572 0.950 . S
C582 C583 1.386 . S
C582 C584 1.391 . S
C583 C582 1.386 . S
C583 C587 1.393 . S
C584 H573 0.950 . S
C584 C582 1.391 . S
C584 C585 1.400 . S
C585 C579 1.491 . S
C585 C584 1.400 . S
C585 C586 1.398 . S
C586 H574 0.950 . S
C586 C585 1.398 . S
C586 C587 1.391 . S
C587 H575 0.950 . S
C587 C583 1.393 . S
C587 C586 1.391 . S
H588 C596 0.950 . S
H589 C601 0.950 . S
H590 C598 0.950 . S
H591 C600 0.950 . S
H592 C602 0.950 . S
H593 C604 0.950 . S
H594 C606 0.950 . S
H595 C607 0.950 . S
C596 H588 0.950 . S
C596 C597 1.386 1_655 S
C596 C598 1.391 . S
C597 C596 1.386 1_455 S
C597 C601 1.393 . S
C598 H590 0.950 . S
C598 C596 1.391 . S
C598 C599 1.401 . S
C599 C598 1.401 . S
C599 C600 1.397 1_655 S
C599 C605 1.491 . S
C600 H591 0.950 . S
C600 C599 1.397 1_455 S
C600 C601 1.391 . S
C601 H589 0.950 . S
C601 C597 1.393 . S
C601 C600 1.391 . S
C602 H592 0.950 . S
C602 C603 1.386 1_455 S
C602 C604 1.391 . S
C603 C602 1.386 1_655 S
C603 C607 1.393 . S
C604 H593 0.950 . S
C604 C602 1.391 . S
C604 C605 1.400 1_455 S
C605 C599 1.491 . S
C605 C604 1.400 1_655 S
C605 C606 1.398 . S
C606 H594 0.950 . S
C606 C605 1.398 . S
C606 C607 1.391 . S
C607 H595 0.950 . S
C607 C603 1.393 . S
C607 C606 1.391 . S
H608 C616 0.950 . S
H609 C621 0.950 . S
H610 C618 0.951 . S
H611 C620 0.950 . S
H612 C622 0.950 . S
H613 C624 0.950 . S
H614 C626 0.950 . S
H615 C627 0.950 . S
C616 H608 0.950 . S
C616 C617 1.386 . S
C616 C618 1.390 1_565 S
C617 C616 1.386 . S
C617 C621 1.393 . S
C618 H610 0.951 . S
C618 C616 1.390 1_545 S
C618 C619 1.400 . S
C619 C618 1.400 . S
C619 C620 1.397 1_545 S
C619 C625 1.492 . S
C620 H611 0.950 . S
C620 C619 1.397 1_565 S
C620 C621 1.391 . S
C621 H609 0.950 . S
C621 C617 1.393 . S
C621 C620 1.391 . S
C622 H612 0.950 . S
C622 C623 1.386 . S
C622 C624 1.391 . S
C623 C622 1.386 . S
C623 C627 1.393 . S
C624 H613 0.950 . S
C624 C622 1.391 . S
C624 C625 1.400 . S
C625 C619 1.492 . S
C625 C624 1.400 . S
C625 C626 1.398 . S
C626 H614 0.950 . S
C626 C625 1.398 . S
C626 C627 1.391 . S
C627 H615 0.950 . S
C627 C623 1.393 . S
C627 C626 1.391 . S
H628 C636 0.950 . S
H629 C641 0.950 . S
H630 C638 0.950 . S
H631 C640 0.950 . S
H632 C642 0.950 . S
H633 C644 0.950 . S
H634 C646 0.950 . S
H635 C647 0.950 . S
C636 H628 0.950 . S
C636 C637 1.386 . S
C636 C638 1.391 . S
C637 C636 1.386 . S
C637 C641 1.393 1_545 S
C638 H630 0.950 . S
C638 C636 1.391 . S
C638 C639 1.415 . S
C639 C638 1.415 . S
C639 C640 1.388 1_545 S
C639 C645 1.487 1_545 S
C640 H631 0.950 . S
C640 C639 1.388 1_565 S
C640 C641 1.391 . S
C641 H629 0.950 . S
C641 C637 1.393 1_565 S
C641 C640 1.391 . S
C642 H632 0.950 . S
C642 C643 1.386 . S
C642 C644 1.391 . S
C643 C642 1.386 . S
C643 C647 1.393 1_565 S
C644 H633 0.950 . S
C644 C642 1.391 . S
C644 C645 1.400 . S
C645 C639 1.487 1_565 S
C645 C644 1.400 . S
C645 C646 1.398 1_565 S
C646 H634 0.950 . S
C646 C645 1.398 1_545 S
C646 C647 1.391 . S
C647 H635 0.950 . S
C647 C643 1.393 1_545 S
C647 C646 1.391 . S
H648 C656 0.950 . S
H649 C661 0.950 . S
H650 C658 0.950 . S
H651 C660 0.950 . S
H652 C662 0.950 . S
H653 C664 0.950 . S
H654 C666 0.950 . S
H655 C667 0.950 . S
C656 H648 0.950 . S
C656 C657 1.386 . S
C656 C658 1.391 . S
C657 C656 1.386 . S
C657 C661 1.393 . S
C658 H650 0.950 . S
C658 C656 1.391 . S
C658 C659 1.400 . S
C659 C658 1.400 . S
C659 C660 1.398 . S
C659 C665 1.491 . S
C660 H651 0.950 . S
C660 C659 1.398 . S
C660 C661 1.391 . S
C661 H649 0.950 . S
C661 C657 1.393 . S
C661 C660 1.391 . S
C662 H652 0.950 . S
C662 C663 1.386 . S
C662 C664 1.391 . S
C663 C662 1.386 . S
C663 C667 1.393 . S
C664 H653 0.950 . S
C664 C662 1.391 . S
C664 C665 1.400 . S
C665 C659 1.491 . S
C665 C664 1.400 . S
C665 C666 1.398 . S
C666 H654 0.950 . S
C666 C665 1.398 . S
C666 C667 1.391 . S
C667 H655 0.950 . S
C667 C663 1.393 . S
C667 C666 1.391 . S
H668 C676 0.950 . S
H669 C681 0.950 . S
H670 C678 0.950 . S
H671 C680 0.950 . S
H672 C682 0.950 . S
H673 C684 0.950 . S
H674 C686 0.950 . S
H675 C687 0.950 . S
C676 H668 0.950 . S
C676 C677 1.386 . S
C676 C678 1.391 . S
C677 C676 1.386 . S
C677 C681 1.393 . S
C678 H670 0.950 . S
C678 C676 1.391 . S
C678 C679 1.400 . S
C679 C678 1.400 . S
C679 C680 1.398 . S
C679 C685 1.491 . S
C680 H671 0.950 . S
C680 C679 1.398 . S
C680 C681 1.391 . S
C681 H669 0.950 . S
C681 C677 1.393 . S
C681 C680 1.391 . S
C682 H672 0.950 . S
C682 C683 1.386 . S
C682 C684 1.391 . S
C683 C682 1.386 . S
C683 C687 1.393 . S
C684 H673 0.950 . S
C684 C682 1.391 . S
C684 C685 1.400 . S
C685 C679 1.491 . S
C685 C684 1.400 . S
C685 C686 1.398 . S
C686 H674 0.950 . S
C686 C685 1.398 . S
C686 C687 1.391 . S
C687 H675 0.950 . S
C687 C683 1.393 . S
C687 C686 1.391 . S
H688 C696 0.947 1_554 S
H689 C701 0.950 . S
H690 C698 0.950 . S
H691 C700 0.950 . S
H692 C702 0.950 . S
H693 C704 0.941 1_556 S
H694 C706 0.950 . S
H695 C707 0.950 . S
C696 H688 0.947 1_556 S
C696 C697 1.393 . S
C696 C698 1.388 1_556 S
C697 C696 1.393 . S
C697 C701 1.393 . S
C698 H690 0.950 . S
C698 C696 1.388 1_554 S
C698 C699 1.401 . S
C699 C698 1.401 . S
C699 C700 1.396 1_554 S
C699 C705 1.492 . S
C700 H691 0.950 . S
C700 C699 1.396 1_556 S
C700 C701 1.391 . S
C701 H689 0.950 . S
C701 C697 1.393 . S
C701 C700 1.391 . S
C702 H692 0.950 . S
C702 C703 1.386 . S
C702 C704 1.397 . S
C703 C702 1.386 . S
C703 C707 1.393 . S
C704 H693 0.941 1_554 S
C704 C702 1.397 . S
C704 C705 1.405 . S
C705 C699 1.492 . S
C705 C704 1.405 . S
C705 C706 1.398 . S
C706 H694 0.950 . S
C706 C705 1.398 . S
C706 C707 1.391 . S
C707 H695 0.950 . S
C707 C703 1.393 . S
C707 C706 1.391 . S
H708 C716 0.950 . S
H709 C721 0.950 . S
H710 C718 0.950 . S
H711 C720 0.950 . S
H712 C722 0.950 . S
H713 C724 0.950 . S
H714 C726 0.950 . S
H715 C727 0.950 . S
C716 H708 0.950 . S
C716 C717 1.386 1_554 S
C716 C718 1.391 . S
C717 C716 1.386 1_556 S
C717 C721 1.393 . S
C718 H710 0.950 . S
C718 C716 1.391 . S
C718 C719 1.400 1_554 S
C719 C718 1.400 1_556 S
C719 C720 1.398 . S
C719 C725 1.491 . S
C720 H711 0.950 . S
C720 C719 1.398 . S
C720 C721 1.391 . S
C721 H709 0.950 . S
C721 C717 1.393 . S
C721 C720 1.391 . S
C722 H712 0.950 . S
C722 C723 1.386 1_556 S
C722 C724 1.391 . S
C723 C722 1.386 1_554 S
C723 C727 1.393 . S
C724 H713 0.950 . S
C724 C722 1.391 . S
C724 C725 1.402 . S
C725 C719 1.491 . S
C725 C724 1.402 . S
C725 C726 1.396 1_556 S
C726 H714 0.950 . S
C726 C725 1.396 1_554 S
C726 C727 1.391 . S
C727 H715 0.950 . S
C727 C723 1.393 . S
C727 C726 1.391 . S
H728 C736 0.950 . S
H729 C741 0.950 . S
H730 C738 0.950 . S
H731 C740 0.950 . S
H732 C742 0.950 . S
H733 C744 0.950 . S
H734 C746 0.950 . S
H735 C747 0.950 . S
C736 H728 0.950 . S
C736 C737 1.386 . S
C736 C738 1.391 . S
C737 C736 1.386 . S
C737 C741 1.393 . S
C738 H730 0.950 . S
C738 C736 1.391 . S
C738 C739 1.400 . S
C739 C738 1.400 . S
C739 C740 1.398 . S
C739 C745 1.491 . S
C740 H731 0.950 . S
C740 C739 1.398 . S
C740 C741 1.391 . S
C741 H729 0.950 . S
C741 C737 1.393 . S
C741 C740 1.391 . S
C742 H732 0.950 . S
C742 C743 1.386 . S
C742 C744 1.391 . S
C743 C742 1.386 . S
C743 C747 1.393 . S
C744 H733 0.950 . S
C744 C742 1.391 . S
C744 C745 1.400 . S
C745 C739 1.491 . S
C745 C744 1.400 . S
C745 C746 1.398 . S
C746 H734 0.950 . S
C746 C745 1.398 . S
C746 C747 1.391 . S
C747 H735 0.950 . S
C747 C743 1.393 . S
C747 C746 1.391 . S
H748 C756 0.950 . S
H749 C761 0.950 . S
H750 C758 0.950 . S
H751 C760 0.950 . S
H752 C762 0.950 . S
H753 C764 0.950 . S
H754 C766 0.950 . S
H755 C767 0.950 . S
C756 H748 0.950 . S
C756 C757 1.386 . S
C756 C758 1.391 . S
C757 C756 1.386 . S
C757 C761 1.393 . S
C758 H750 0.950 . S
C758 C756 1.391 . S
C758 C759 1.400 . S
C759 C758 1.400 . S
C759 C760 1.398 . S
C759 C765 1.491 . S
C760 H751 0.950 . S
C760 C759 1.398 . S
C760 C761 1.391 . S
C761 H749 0.950 . S
C761 C757 1.393 . S
C761 C760 1.391 . S
C762 H752 0.950 . S
C762 C763 1.386 . S
C762 C764 1.391 . S
C763 C762 1.386 . S
C763 C767 1.393 . S
C764 H753 0.950 . S
C764 C762 1.391 . S
C764 C765 1.400 . S
C765 C759 1.491 . S
C765 C764 1.400 . S
C765 C766 1.398 . S
C766 H754 0.950 . S
C766 C765 1.398 . S
C766 C767 1.391 . S
C767 H755 0.950 . S
C767 C763 1.393 . S
C767 C766 1.391 . S
H768 C776 0.950 . S
H769 C781 0.950 . S
H770 C778 0.950 . S
H771 C780 0.950 . S
H772 C782 0.950 . S
H773 C784 0.950 . S
H774 C786 0.950 . S
H775 C787 0.950 . S
C776 H768 0.950 . S
C776 C777 1.386 1_455 S
C776 C778 1.391 . S
C777 C776 1.386 1_655 S
C777 C781 1.393 . S
C778 H770 0.950 . S
C778 C776 1.391 . S
C778 C779 1.400 1_455 S
C779 C778 1.400 1_655 S
C779 C780 1.398 . S
C779 C785 1.491 . S
C780 H771 0.950 . S
C780 C779 1.398 . S
C780 C781 1.391 . S
C781 H769 0.950 . S
C781 C777 1.393 . S
C781 C780 1.391 . S
C782 H772 0.950 . S
C782 C783 1.386 1_655 S
C782 C784 1.391 . S
C783 C782 1.386 1_455 S
C783 C787 1.393 . S
C784 H773 0.950 . S
C784 C782 1.391 . S
C784 C785 1.402 . S
C785 C779 1.491 . S
C785 C784 1.402 . S
C785 C786 1.395 1_655 S
C786 H774 0.950 . S
C786 C785 1.395 1_455 S
C786 C787 1.391 . S
C787 H775 0.950 . S
C787 C783 1.393 . S
C787 C786 1.391 . S
H788 C796 0.950 . S
H789 C801 0.950 . S
H790 C798 0.950 . S
H791 C800 0.950 . S
H792 C802 0.950 . S
H793 C804 0.950 . S
H794 C806 0.950 . S
H795 C807 0.950 . S
C796 H788 0.950 . S
C796 C797 1.386 . S
C796 C798 1.391 . S
C797 C796 1.386 . S
C797 C801 1.393 . S
C798 H790 0.950 . S
C798 C796 1.391 . S
C798 C799 1.400 . S
C799 C798 1.400 . S
C799 C800 1.398 . S
C799 C805 1.491 . S
C800 H791 0.950 . S
C800 C799 1.398 . S
C800 C801 1.391 . S
C801 H789 0.950 . S
C801 C797 1.393 . S
C801 C800 1.391 . S
C802 H792 0.950 . S
C802 C803 1.386 . S
C802 C804 1.391 . S
C803 C802 1.386 . S
C803 C807 1.393 . S
C804 H793 0.950 . S
C804 C802 1.391 . S
C804 C805 1.400 . S
C805 C799 1.491 . S
C805 C804 1.400 . S
C805 C806 1.398 . S
C806 H794 0.950 . S
C806 C805 1.398 . S
C806 C807 1.391 . S
C807 H795 0.950 . S
C807 C803 1.393 . S
C807 C806 1.391 . S
H808 C816 0.950 . S
H809 C821 0.950 . S
H810 C818 0.950 . S
H811 C820 0.950 . S
H812 C822 0.950 . S
H813 C824 0.950 . S
H814 C826 0.950 . S
H815 C827 0.950 . S
C816 H808 0.950 . S
C816 C817 1.386 . S
C816 C818 1.391 . S
C817 C816 1.386 . S
C817 C821 1.393 . S
C818 H810 0.950 . S
C818 C816 1.391 . S
C818 C819 1.400 . S
C819 C818 1.400 . S
C819 C820 1.398 . S
C819 C825 1.491 . S
C820 H811 0.950 . S
C820 C819 1.398 . S
C820 C821 1.391 . S
C821 H809 0.950 . S
C821 C817 1.393 . S
C821 C820 1.391 . S
C822 H812 0.950 . S
C822 C823 1.386 . S
C822 C824 1.391 . S
C823 C822 1.386 . S
C823 C827 1.393 . S
C824 H813 0.950 . S
C824 C822 1.391 . S
C824 C825 1.400 . S
C825 C819 1.491 . S
C825 C824 1.400 . S
C825 C826 1.398 . S
C826 H814 0.950 . S
C826 C825 1.398 . S
C826 C827 1.391 . S
C827 H815 0.950 . S
C827 C823 1.393 . S
C827 C826 1.391 . S
H828 C836 0.950 . S
H829 C841 0.950 . S
H830 C838 0.950 . S
H831 C840 0.950 . S
H832 C842 0.950 . S
H833 C844 0.950 . S
H834 C846 0.950 . S
H835 C847 0.950 . S
C836 H828 0.950 . S
C836 C837 1.386 1_655 S
C836 C838 1.391 . S
C837 C836 1.386 1_455 S
C837 C841 1.393 . S
C838 H830 0.950 . S
C838 C836 1.391 . S
C838 C839 1.400 1_655 S
C839 C838 1.400 1_455 S
C839 C840 1.398 . S
C839 C845 1.487 1_455 S
C840 H831 0.950 . S
C840 C839 1.398 . S
C840 C841 1.391 . S
C841 H829 0.950 . S
C841 C837 1.393 . S
C841 C840 1.391 . S
C842 H832 0.950 . S
C842 C843 1.386 1_455 S
C842 C844 1.391 . S
C843 C842 1.386 1_655 S
C843 C847 1.393 . S
C844 H833 0.950 . S
C844 C842 1.391 . S
C844 C845 1.387 1_455 S
C845 C839 1.487 1_655 S
C845 C844 1.387 1_655 S
C845 C846 1.415 . S
C846 H834 0.950 . S
C846 C845 1.415 . S
C846 C847 1.391 . S
C847 H835 0.950 . S
C847 C843 1.393 . S
C847 C846 1.391 . S
H848 C856 0.950 . S
H849 C861 0.950 . S
H850 C858 0.950 . S
H851 C860 0.950 . S
H852 C862 0.950 . S
H853 C864 0.950 . S
H854 C866 0.950 . S
H855 C867 0.950 . S
C856 H848 0.950 . S
C856 C857 1.386 . S
C856 C858 1.391 . S
C857 C856 1.386 . S
C857 C861 1.393 1_545 S
C858 H850 0.950 . S
C858 C856 1.391 . S
C858 C859 1.399 1_545 S
C859 C858 1.399 1_565 S
C859 C860 1.400 . S
C859 C865 1.491 . S
C860 H851 0.950 . S
C860 C859 1.400 . S
C860 C861 1.391 . S
C861 H849 0.950 . S
C861 C857 1.393 1_565 S
C861 C860 1.391 . S
C862 H852 0.950 . S
C862 C863 1.386 . S
C862 C864 1.391 . S
C863 C862 1.386 . S
C863 C867 1.393 1_565 S
C864 H853 0.950 . S
C864 C862 1.391 . S
C864 C865 1.400 . S
C865 C859 1.491 . S
C865 C864 1.400 . S
C865 C866 1.398 1_565 S
C866 H854 0.950 . S
C866 C865 1.398 1_545 S
C866 C867 1.391 . S
C867 H855 0.950 . S
C867 C863 1.393 1_545 S
C867 C866 1.391 . S
H868 C876 0.950 . S
H869 C881 0.950 . S
H870 C878 0.950 . S
H871 C880 0.950 . S
H872 C882 0.950 . S
H873 C884 0.950 . S
H874 C886 0.950 . S
H875 C887 0.950 . S
C876 H868 0.950 . S
C876 C877 1.386 1_545 S
C876 C878 1.391 . S
C877 C876 1.386 1_565 S
C877 C881 1.393 . S
C878 H870 0.950 . S
C878 C876 1.391 . S
C878 C879 1.389 1_545 S
C879 C878 1.389 1_565 S
C879 C880 1.412 . S
C879 C885 1.488 1_565 S
C880 H871 0.950 . S
C880 C879 1.412 . S
C880 C881 1.391 . S
C881 H869 0.950 . S
C881 C877 1.393 . S
C881 C880 1.391 . S
C882 H872 0.950 . S
C882 C883 1.386 1_565 S
C882 C884 1.391 . S
C883 C882 1.386 1_545 S
C883 C887 1.393 . S
C884 H873 0.950 . S
C884 C882 1.391 . S
C884 C885 1.400 1_565 S
C885 C879 1.488 1_545 S
C885 C884 1.400 1_545 S
C885 C886 1.398 . S
C886 H874 0.950 . S
C886 C885 1.398 . S
C886 C887 1.391 . S
C887 H875 0.950 . S
C887 C883 1.393 . S
C887 C886 1.391 . S
H888 C896 0.950 . S
H889 C901 0.950 . S
H890 C898 0.950 . S
H891 C900 0.950 . S
H892 C902 0.950 . S
H893 C904 0.950 . S
H894 C906 0.950 . S
H895 C907 0.950 . S
C896 H888 0.950 . S
C896 C897 1.386 . S
C896 C898 1.391 . S
C897 C896 1.386 . S
C897 C901 1.393 . S
C898 H890 0.950 . S
C898 C896 1.391 . S
C898 C899 1.400 . S
C899 C898 1.400 . S
C899 C900 1.398 . S
C899 C905 1.491 . S
C900 H891 0.950 . S
C900 C899 1.398 . S
C900 C901 1.391 . S
C901 H889 0.950 . S
C901 C897 1.393 . S
C901 C900 1.391 . S
C902 H892 0.950 . S
C902 C903 1.386 . S
C902 C904 1.391 . S
C903 C902 1.386 . S
C903 C907 1.393 . S
C904 H893 0.950 . S
C904 C902 1.391 . S
C904 C905 1.400 . S
C905 C899 1.491 . S
C905 C904 1.400 . S
C905 C906 1.398 . S
C906 H894 0.950 . S
C906 C905 1.398 . S
C906 C907 1.391 . S
C907 H895 0.950 . S
C907 C903 1.393 . S
C907 C906 1.391 . S
H908 C916 0.950 . S
H909 C921 0.950 . S
H910 C918 0.950 . S
H911 C920 0.950 . S
H912 C922 0.950 . S
H913 C924 0.950 . S
H914 C926 0.950 . S
H915 C927 0.950 . S
C916 H908 0.950 . S
C916 C917 1.386 . S
C916 C918 1.391 . S
C917 C916 1.386 . S
C917 C921 1.393 . S
C918 H910 0.950 . S
C918 C916 1.391 . S
C918 C919 1.400 . S
C919 C918 1.400 . S
C919 C920 1.398 . S
C919 C925 1.491 . S
C920 H911 0.950 . S
C920 C919 1.398 . S
C920 C921 1.391 . S
C921 H909 0.950 . S
C921 C917 1.393 . S
C921 C920 1.391 . S
C922 H912 0.950 . S
C922 C923 1.386 . S
C922 C924 1.391 . S
C923 C922 1.386 . S
C923 C927 1.393 . S
C924 H913 0.950 . S
C924 C922 1.391 . S
C924 C925 1.400 . S
C925 C919 1.491 . S
C925 C924 1.400 . S
C925 C926 1.398 . S
C926 H914 0.950 . S
C926 C925 1.398 . S
C926 C927 1.391 . S
C927 H915 0.950 . S
C927 C923 1.393 . S
C927 C926 1.391 . S
H928 C936 0.950 . S
H929 C941 0.950 . S
H930 C938 0.950 . S
H931 C940 0.950 . S
H932 C942 0.950 . S
H933 C944 0.950 . S
H934 C946 0.950 . S
H935 C947 0.950 . S
C936 H928 0.950 . S
C936 C937 1.386 1_556 S
C936 C938 1.391 . S
C937 C936 1.386 1_554 S
C937 C941 1.393 . S
C938 H930 0.950 . S
C938 C936 1.391 . S
C938 C939 1.402 . S
C939 C938 1.402 . S
C939 C940 1.395 1_556 S
C939 C945 1.491 . S
C940 H931 0.950 . S
C940 C939 1.395 1_554 S
C940 C941 1.391 . S
C941 H929 0.950 . S
C941 C937 1.393 . S
C941 C940 1.391 . S
C942 H932 0.950 . S
C942 C943 1.386 1_554 S
C942 C944 1.391 . S
C943 C942 1.386 1_556 S
C943 C947 1.393 . S
C944 H933 0.950 . S
C944 C942 1.391 . S
C944 C945 1.400 1_554 S
C945 C939 1.491 . S
C945 C944 1.400 1_556 S
C945 C946 1.398 . S
C946 H934 0.950 . S
C946 C945 1.398 . S
C946 C947 1.391 . S
C947 H935 0.950 . S
C947 C943 1.393 . S
C947 C946 1.391 . S
H948 C956 0.950 . S
H949 C961 0.950 . S
H950 C958 0.950 . S
H951 C960 0.950 . S
H952 C962 0.950 . S
H953 C964 0.950 . S
H954 C966 0.950 . S
H955 C967 0.950 . S
C956 H948 0.950 . S
C956 C957 1.386 1_556 S
C956 C958 1.391 . S
C957 C956 1.386 1_554 S
C957 C961 1.393 . S
C958 H950 0.950 . S
C958 C956 1.391 . S
C958 C959 1.400 1_556 S
C959 C958 1.400 1_554 S
C959 C960 1.398 . S
C959 C965 1.490 . S
C960 H951 0.950 . S
C960 C959 1.398 . S
C960 C961 1.391 . S
C961 H949 0.950 . S
C961 C957 1.393 . S
C961 C960 1.391 . S
C962 H952 0.950 . S
C962 C963 1.386 1_554 S
C962 C964 1.391 . S
C963 C962 1.386 1_556 S
C963 C967 1.393 . S
C964 H953 0.950 . S
C964 C962 1.391 . S
C964 C965 1.399 . S
C965 C959 1.490 . S
C965 C964 1.399 . S
C965 C966 1.400 1_554 S
C966 H954 0.950 . S
C966 C965 1.400 1_556 S
C966 C967 1.391 . S
C967 H955 0.950 . S
C967 C963 1.393 . S
C967 C966 1.391 . S
H968 C976 0.950 . S
H969 C981 0.950 . S
H970 C978 0.950 . S
H971 C980 0.950 . S
H972 C982 0.950 . S
H973 C984 0.950 . S
H974 C986 0.950 . S
H975 C987 0.950 . S
C976 H968 0.950 . S
C976 C977 1.386 . S
C976 C978 1.391 . S
C977 C976 1.386 . S
C977 C981 1.393 . S
C978 H970 0.950 . S
C978 C976 1.391 . S
C978 C979 1.400 . S
C979 C978 1.400 . S
C979 C980 1.398 . S
C979 C985 1.491 . S
C980 H971 0.950 . S
C980 C979 1.398 . S
C980 C981 1.391 . S
C981 H969 0.950 . S
C981 C977 1.393 . S
C981 C980 1.391 . S
C982 H972 0.950 . S
C982 C983 1.386 . S
C982 C984 1.391 . S
C983 C982 1.386 . S
C983 C987 1.393 . S
C984 H973 0.950 . S
C984 C982 1.391 . S
C984 C985 1.400 . S
C985 C979 1.491 . S
C985 C984 1.400 . S
C985 C986 1.398 . S
C986 H974 0.950 . S
C986 C985 1.398 . S
C986 C987 1.391 . S
C987 H975 0.950 . S
C987 C983 1.393 . S
C987 C986 1.391 . S
H988 C996 0.950 . S
H989 C1001 0.950 . S
H990 C998 0.950 . S
H991 C1000 0.950 . S
H992 C1002 0.950 . S
H993 C1004 0.950 . S
H994 C1006 0.950 . S
H995 C1007 0.950 . S
C996 H988 0.950 . S
C996 C997 1.386 . S
C996 C998 1.391 . S
C997 C996 1.386 . S
C997 C1001 1.393 . S
C998 H990 0.950 . S
C998 C996 1.391 . S
C998 C999 1.400 . S
C999 C998 1.400 . S
C999 C1000 1.398 . S
C999 C1005 1.491 . S
C1000 H991 0.950 . S
C1000 C999 1.398 . S
C1000 C1001 1.391 . S
C1001 H989 0.950 . S
C1001 C997 1.393 . S
C1001 C1000 1.391 . S
C1002 H992 0.950 . S
C1002 C1003 1.386 . S
C1002 C1004 1.391 . S
C1003 C1002 1.386 . S
C1003 C1007 1.393 . S
C1004 H993 0.950 . S
C1004 C1002 1.391 . S
C1004 C1005 1.400 . S
C1005 C999 1.491 . S
C1005 C1004 1.400 . S
C1005 C1006 1.398 . S
C1006 H994 0.950 . S
C1006 C1005 1.398 . S
C1006 C1007 1.391 . S
C1007 H995 0.950 . S
C1007 C1003 1.393 . S
C1007 C1006 1.391 . S
H1008 C1016 0.950 . S
H1009 C1021 0.950 . S
H1010 C1018 0.950 . S
H1011 C1020 0.950 . S
H1012 C1022 0.950 . S
H1013 C1024 0.950 . S
H1014 C1026 0.950 . S
H1015 C1027 0.948 . S
C1016 H1008 0.950 . S
C1016 C1017 1.386 1_556 S
C1016 C1018 1.391 . S
C1017 C1016 1.386 1_554 S
C1017 C1021 1.393 . S
C1018 H1010 0.950 . S
C1018 C1016 1.391 . S
C1018 C1019 1.400 1_556 S
C1019 C1018 1.400 1_554 S
C1019 C1020 1.398 . S
C1019 C1025 1.491 . S
C1020 H1011 0.950 . S
C1020 C1019 1.398 . S
C1020 C1021 1.391 . S
C1021 H1009 0.950 . S
C1021 C1017 1.393 . S
C1021 C1020 1.391 . S
C1022 H1012 0.950 . S
C1022 C1023 1.386 . S
C1022 C1024 1.391 . S
C1023 C1022 1.386 . S
C1023 C1027 1.395 1_554 S
C1024 H1013 0.950 . S
C1024 C1022 1.391 . S
C1024 C1025 1.400 . S
C1025 C1019 1.491 . S
C1025 C1024 1.400 . S
C1025 C1026 1.398 1_554 S
C1026 H1014 0.950 . S
C1026 C1025 1.398 1_556 S
C1026 C1027 1.390 . S
C1027 H1015 0.948 . S
C1027 C1023 1.395 1_556 S
C1027 C1026 1.390 . S
H1028 C1036 0.950 . S
H1029 C1041 0.950 . S
H1030 C1038 0.950 . S
H1031 C1040 0.950 . S
H1032 C1042 0.950 . S
H1033 C1044 0.950 . S
H1034 C1046 0.950 . S
H1035 C1047 0.950 . S
C1036 H1028 0.950 . S
C1036 C1037 1.386 . S
C1036 C1038 1.391 . S
C1037 C1036 1.386 . S
C1037 C1041 1.393 . S
C1038 H1030 0.950 . S
C1038 C1036 1.391 . S
C1038 C1039 1.400 . S
C1039 C1038 1.400 . S
C1039 C1040 1.398 . S
C1039 C1045 1.491 . S
C1040 H1031 0.950 . S
C1040 C1039 1.398 . S
C1040 C1041 1.391 . S
C1041 H1029 0.950 . S
C1041 C1037 1.393 . S
C1041 C1040 1.391 . S
C1042 H1032 0.950 . S
C1042 C1043 1.386 . S
C1042 C1044 1.391 . S
C1043 C1042 1.386 . S
C1043 C1047 1.393 . S
C1044 H1033 0.950 . S
C1044 C1042 1.391 . S
C1044 C1045 1.400 . S
C1045 C1039 1.491 . S
C1045 C1044 1.400 . S
C1045 C1046 1.398 . S
C1046 H1034 0.950 . S
C1046 C1045 1.398 . S
C1046 C1047 1.391 . S
C1047 H1035 0.950 . S
C1047 C1043 1.393 . S
C1047 C1046 1.391 . S
H1048 C1056 0.950 . S
H1049 C1061 0.950 . S
H1050 C1058 0.950 1_554 S
H1051 C1060 0.950 . S
H1052 C1062 0.950 . S
H1053 C1064 0.950 . S
H1054 C1066 0.950 . S
H1055 C1067 0.950 . S
C1056 H1048 0.950 . S
C1056 C1057 1.386 1_554 S
C1056 C1058 1.391 1_554 S
C1057 C1056 1.386 1_556 S
C1057 C1061 1.393 . S
C1058 H1050 0.950 1_556 S
C1058 C1056 1.391 1_556 S
C1058 C1059 1.400 . S
C1059 C1058 1.400 . S
C1059 C1060 1.398 . S
C1059 C1065 1.491 . S
C1060 H1051 0.950 . S
C1060 C1059 1.398 . S
C1060 C1061 1.391 . S
C1061 H1049 0.950 . S
C1061 C1057 1.393 . S
C1061 C1060 1.391 . S
C1062 H1052 0.950 . S
C1062 C1063 1.386 . S
C1062 C1064 1.391 . S
C1063 C1062 1.386 . S
C1063 C1067 1.393 . S
C1064 H1053 0.950 . S
C1064 C1062 1.391 . S
C1064 C1065 1.400 . S
C1065 C1059 1.491 . S
C1065 C1064 1.400 . S
C1065 C1066 1.398 . S
C1066 H1054 0.950 . S
C1066 C1065 1.398 . S
C1066 C1067 1.391 . S
C1067 H1055 0.950 . S
C1067 C1063 1.393 . S
C1067 C1066 1.391 . S
H1068 C1076 0.950 . S
H1069 C1081 0.950 . S
H1070 C1078 0.950 . S
H1071 C1080 0.950 . S
H1072 C1082 0.950 . S
H1073 C1084 0.950 . S
H1074 C1086 0.950 . S
H1075 C1087 0.950 . S
C1076 H1068 0.950 . S
C1076 C1077 1.386 . S
C1076 C1078 1.391 . S
C1077 C1076 1.386 . S
C1077 C1081 1.393 . S
C1078 H1070 0.950 . S
C1078 C1076 1.391 . S
C1078 C1079 1.400 . S
C1079 C1078 1.400 . S
C1079 C1080 1.398 . S
C1079 C1085 1.491 . S
C1080 H1071 0.950 . S
C1080 C1079 1.398 . S
C1080 C1081 1.391 . S
C1081 H1069 0.950 . S
C1081 C1077 1.393 . S
C1081 C1080 1.391 . S
C1082 H1072 0.950 . S
C1082 C1083 1.386 . S
C1082 C1084 1.391 . S
C1083 C1082 1.386 . S
C1083 C1087 1.393 . S
C1084 H1073 0.950 . S
C1084 C1082 1.391 . S
C1084 C1085 1.400 . S
C1085 C1079 1.491 . S
C1085 C1084 1.400 . S
C1085 C1086 1.398 . S
C1086 H1074 0.950 . S
C1086 C1085 1.398 . S
C1086 C1087 1.391 . S
C1087 H1075 0.950 . S
C1087 C1083 1.393 . S
C1087 C1086 1.391 . S
H1088 C1096 0.950 1_655 S
H1089 C1101 0.950 . S
H1090 C1098 0.950 . S
H1091 C1100 0.950 . S
H1092 C1102 0.950 . S
H1093 C1104 0.950 . S
H1094 C1106 0.950 . S
H1095 C1107 0.950 . S
C1096 H1088 0.950 1_455 S
C1096 C1097 1.386 . S
C1096 C1098 1.391 1_455 S
C1097 C1096 1.386 . S
C1097 C1101 1.393 . S
C1098 H1090 0.950 . S
C1098 C1096 1.391 1_655 S
C1098 C1099 1.400 1_655 S
C1099 C1098 1.400 1_455 S
C1099 C1100 1.398 . S
C1099 C1105 1.491 . S
C1100 H1091 0.950 . S
C1100 C1099 1.398 . S
C1100 C1101 1.391 . S
C1101 H1089 0.950 . S
C1101 C1097 1.393 . S
C1101 C1100 1.391 . S
C1102 H1092 0.950 . S
C1102 C1103 1.386 . S
C1102 C1104 1.391 . S
C1103 C1102 1.386 . S
C1103 C1107 1.393 1_455 S
C1104 H1093 0.950 . S
C1104 C1102 1.391 . S
C1104 C1105 1.400 . S
C1105 C1099 1.491 . S
C1105 C1104 1.400 . S
C1105 C1106 1.398 1_455 S
C1106 H1094 0.950 . S
C1106 C1105 1.398 1_655 S
C1106 C1107 1.391 . S
C1107 H1095 0.950 . S
C1107 C1103 1.393 1_655 S
C1107 C1106 1.391 . S
H1108 C1116 0.950 . S
H1109 C1121 0.950 . S
H1110 C1118 0.950 . S
H1111 C1120 0.950 . S
H1112 C1122 0.950 . S
H1113 C1124 0.950 . S
H1114 C1126 0.950 . S
H1115 C1127 0.950 . S
C1116 H1108 0.950 . S
C1116 C1117 1.386 . S
C1116 C1118 1.391 . S
C1117 C1116 1.386 . S
C1117 C1121 1.393 . S
C1118 H1110 0.950 . S
C1118 C1116 1.391 . S
C1118 C1119 1.400 . S
C1119 C1118 1.400 . S
C1119 C1120 1.398 . S
C1119 C1125 1.491 . S
C1120 H1111 0.950 . S
C1120 C1119 1.398 . S
C1120 C1121 1.391 . S
C1121 H1109 0.950 . S
C1121 C1117 1.393 . S
C1121 C1120 1.391 . S
C1122 H1112 0.950 . S
C1122 C1123 1.386 . S
C1122 C1124 1.391 . S
C1123 C1122 1.386 . S
C1123 C1127 1.393 . S
C1124 H1113 0.950 . S
C1124 C1122 1.391 . S
C1124 C1125 1.400 . S
C1125 C1119 1.491 . S
C1125 C1124 1.400 . S
C1125 C1126 1.398 . S
C1126 H1114 0.950 . S
C1126 C1125 1.398 . S
C1126 C1127 1.391 . S
C1127 H1115 0.950 . S
C1127 C1123 1.393 . S
C1127 C1126 1.391 . S
H1128 C1136 0.950 . S
H1129 C1141 0.950 . S
H1130 C1138 0.950 . S
H1131 C1140 0.950 . S
H1132 C1142 0.950 . S
H1133 C1144 0.950 . S
H1134 C1146 0.950 . S
H1135 C1147 0.950 . S
C1136 H1128 0.950 . S
C1136 C1137 1.386 . S
C1136 C1138 1.391 . S
C1137 C1136 1.386 . S
C1137 C1141 1.393 . S
C1138 H1130 0.950 . S
C1138 C1136 1.391 . S
C1138 C1139 1.400 . S
C1139 C1138 1.400 . S
C1139 C1140 1.398 . S
C1139 C1145 1.491 . S
C1140 H1131 0.950 . S
C1140 C1139 1.398 . S
C1140 C1141 1.391 . S
C1141 H1129 0.950 . S
C1141 C1137 1.393 . S
C1141 C1140 1.391 . S
C1142 H1132 0.950 . S
C1142 C1143 1.386 . S
C1142 C1144 1.391 . S
C1143 C1142 1.386 . S
C1143 C1147 1.393 . S
C1144 H1133 0.950 . S
C1144 C1142 1.391 . S
C1144 C1145 1.400 . S
C1145 C1139 1.491 . S
C1145 C1144 1.400 . S
C1145 C1146 1.398 . S
C1146 H1134 0.950 . S
C1146 C1145 1.398 . S
C1146 C1147 1.391 . S
C1147 H1135 0.950 . S
C1147 C1143 1.393 . S
C1147 C1146 1.391 . S
H1148 C1156 0.950 . S
H1149 C1161 0.950 1_455 S
H1150 C1158 0.950 . S
H1151 C1160 0.950 . S
H1152 C1162 0.950 . S
H1153 C1164 0.950 . S
H1154 C1166 0.950 . S
H1155 C1167 0.950 . S
C1156 H1148 0.950 . S
C1156 C1157 1.386 . S
C1156 C1158 1.391 . S
C1157 C1156 1.386 . S
C1157 C1161 1.393 . S
C1158 H1150 0.950 . S
C1158 C1156 1.391 . S
C1158 C1159 1.400 . S
C1159 C1158 1.400 . S
C1159 C1160 1.398 . S
C1159 C1165 1.491 . S
C1160 H1151 0.950 . S
C1160 C1159 1.398 . S
C1160 C1161 1.391 . S
C1161 H1149 0.950 1_655 S
C1161 C1157 1.393 . S
C1161 C1160 1.391 . S
C1162 H1152 0.950 . S
C1162 C1163 1.386 . S
C1162 C1164 1.391 . S
C1163 C1162 1.386 . S
C1163 C1167 1.393 . S
C1164 H1153 0.950 . S
C1164 C1162 1.391 . S
C1164 C1165 1.400 . S
C1165 C1159 1.491 . S
C1165 C1164 1.400 . S
C1165 C1166 1.398 . S
C1166 H1154 0.950 . S
C1166 C1165 1.398 . S
C1166 C1167 1.391 . S
C1167 H1155 0.950 . S
C1167 C1163 1.393 . S
C1167 C1166 1.391 . S
H1168 C1176 0.950 . S
H1169 C1181 0.950 . S
H1170 C1178 0.950 . S
H1171 C1180 0.950 . S
H1172 C1182 0.950 . S
H1173 C1184 0.950 . S
H1174 C1186 0.958 . S
H1175 C1187 0.950 . S
C1176 H1168 0.950 . S
C1176 C1177 1.381 1_565 S
C1176 C1178 1.391 . S
C1177 C1176 1.381 1_545 S
C1177 C1181 1.400 . S
C1178 H1170 0.950 . S
C1178 C1176 1.391 . S
C1178 C1179 1.400 1_565 S
C1179 C1178 1.400 1_545 S
C1179 C1180 1.398 . S
C1179 C1185 1.491 . S
C1180 H1171 0.950 . S
C1180 C1179 1.398 . S
C1180 C1181 1.391 . S
C1181 H1169 0.950 . S
C1181 C1177 1.400 . S
C1181 C1180 1.391 . S
C1182 H1172 0.950 . S
C1182 C1183 1.386 . S
C1182 C1184 1.391 . S
C1183 C1182 1.386 . S
C1183 C1187 1.393 . S
C1184 H1173 0.950 . S
C1184 C1182 1.391 . S
C1184 C1185 1.400 . S
C1185 C1179 1.491 . S
C1185 C1184 1.400 . S
C1185 C1186 1.398 . S
C1186 H1174 0.958 . S
C1186 C1185 1.398 . S
C1186 C1187 1.391 . S
C1187 H1175 0.950 . S
C1187 C1183 1.393 . S
C1187 C1186 1.391 . S
H1188 C1196 0.950 . S
H1189 C1201 0.950 . S
H1190 C1198 0.950 . S
H1191 C1200 0.950 . S
H1192 C1202 0.950 . S
H1193 C1204 0.950 . S
H1194 C1206 0.950 . S
H1195 C1207 0.950 . S
C1196 H1188 0.950 . S
C1196 C1197 1.386 . S
C1196 C1198 1.391 . S
C1197 C1196 1.386 . S
C1197 C1201 1.393 . S
C1198 H1190 0.950 . S
C1198 C1196 1.391 . S
C1198 C1199 1.400 . S
C1199 C1198 1.400 . S
C1199 C1200 1.398 . S
C1199 C1205 1.491 . S
C1200 H1191 0.950 . S
C1200 C1199 1.398 . S
C1200 C1201 1.391 . S
C1201 H1189 0.950 . S
C1201 C1197 1.393 . S
C1201 C1200 1.391 . S
C1202 H1192 0.950 . S
C1202 C1203 1.386 . S
C1202 C1204 1.391 . S
C1203 C1202 1.386 . S
C1203 C1207 1.393 . S
C1204 H1193 0.950 . S
C1204 C1202 1.391 . S
C1204 C1205 1.400 . S
C1205 C1199 1.491 . S
C1205 C1204 1.400 . S
C1205 C1206 1.398 . S
C1206 H1194 0.950 . S
C1206 C1205 1.398 . S
C1206 C1207 1.391 . S
C1207 H1195 0.950 . S
C1207 C1203 1.393 . S
C1207 C1206 1.391 . S
H1208 C1216 0.950 . S
H1209 C1221 0.950 . S
H1210 C1218 0.950 . S
H1211 C1220 0.950 . S
H1212 C1222 0.950 . S
H1213 C1224 0.950 . S
H1214 C1226 0.950 . S
H1215 C1227 0.950 . S
C1216 H1208 0.950 . S
C1216 C1217 1.386 . S
C1216 C1218 1.391 . S
C1217 C1216 1.386 . S
C1217 C1221 1.393 . S
C1218 H1210 0.950 . S
C1218 C1216 1.391 . S
C1218 C1219 1.400 . S
C1219 C1218 1.400 . S
C1219 C1220 1.398 . S
C1219 C1225 1.491 . S
C1220 H1211 0.950 . S
C1220 C1219 1.398 . S
C1220 C1221 1.391 . S
C1221 H1209 0.950 . S
C1221 C1217 1.393 . S
C1221 C1220 1.391 . S
C1222 H1212 0.950 . S
C1222 C1223 1.386 . S
C1222 C1224 1.391 . S
C1223 C1222 1.386 . S
C1223 C1227 1.393 . S
C1224 H1213 0.950 . S
C1224 C1222 1.391 . S
C1224 C1225 1.400 . S
C1225 C1219 1.491 . S
C1225 C1224 1.400 . S
C1225 C1226 1.398 . S
C1226 H1214 0.950 . S
C1226 C1225 1.398 . S
C1226 C1227 1.391 . S
C1227 H1215 0.950 . S
C1227 C1223 1.393 . S
C1227 C1226 1.391 . S
H1228 C1236 0.950 . S
H1229 C1241 0.950 . S
H1230 C1238 0.949 . S
H1231 C1240 0.950 . S
H1232 C1242 0.950 . S
H1233 C1244 0.950 . S
H1234 C1246 0.950 . S
H1235 C1247 0.950 . S
C1236 H1228 0.950 . S
C1236 C1237 1.383 1_545 S
C1236 C1238 1.391 . S
C1237 C1236 1.383 1_565 S
C1237 C1241 1.397 . S
C1238 H1230 0.949 . S
C1238 C1236 1.391 . S
C1238 C1239 1.402 1_545 S
C1239 C1238 1.402 1_565 S
C1239 C1240 1.398 . S
C1239 C1245 1.491 . S
C1240 H1231 0.950 . S
C1240 C1239 1.398 . S
C1240 C1241 1.391 . S
C1241 H1229 0.950 . S
C1241 C1237 1.397 . S
C1241 C1240 1.391 . S
C1242 H1232 0.950 . S
C1242 C1243 1.386 . S
C1242 C1244 1.391 . S
C1243 C1242 1.386 . S
C1243 C1247 1.393 . S
C1244 H1233 0.950 . S
C1244 C1242 1.391 . S
C1244 C1245 1.400 . S
C1245 C1239 1.491 . S
C1245 C1244 1.400 . S
C1245 C1246 1.398 . S
C1246 H1234 0.950 . S
C1246 C1245 1.398 . S
C1246 C1247 1.391 . S
C1247 H1235 0.950 . S
C1247 C1243 1.393 . S
C1247 C1246 1.391 . S
H1248 C1256 0.950 . S
H1249 C1261 0.950 . S
H1250 C1258 0.950 . S
H1251 C1260 0.950 . S
H1252 C1262 0.950 1_554 S
H1253 C1264 0.946 1_554 S
H1254 C1266 0.950 . S
H1255 C1267 0.950 . S
C1256 H1248 0.950 . S
C1256 C1257 1.386 . S
C1256 C1258 1.391 . S
C1257 C1256 1.386 . S
C1257 C1261 1.393 1_556 S
C1258 H1250 0.950 . S
C1258 C1256 1.391 . S
C1258 C1259 1.400 . S
C1259 C1258 1.400 . S
C1259 C1260 1.398 1_556 S
C1259 C1265 1.491 . S
C1260 H1251 0.950 . S
C1260 C1259 1.398 1_554 S
C1260 C1261 1.391 . S
C1261 H1249 0.950 . S
C1261 C1257 1.393 1_554 S
C1261 C1260 1.391 . S
C1262 H1252 0.950 1_556 S
C1262 C1263 1.386 . S
C1262 C1264 1.392 . S
C1263 C1262 1.386 . S
C1263 C1267 1.393 . S
C1264 H1253 0.946 1_556 S
C1264 C1262 1.392 . S
C1264 C1265 1.403 . S
C1265 C1259 1.491 . S
C1265 C1264 1.403 . S
C1265 C1266 1.398 . S
C1266 H1254 0.950 . S
C1266 C1265 1.398 . S
C1266 C1267 1.391 . S
C1267 H1255 0.950 . S
C1267 C1263 1.393 . S
C1267 C1266 1.391 . S
H1268 C1276 0.950 . S
H1269 C1281 0.950 . S
H1270 C1278 0.950 . S
H1271 C1280 0.950 . S
H1272 C1282 0.950 . S
H1273 C1284 0.950 . S
H1274 C1286 0.950 . S
H1275 C1287 0.950 . S
C1276 H1268 0.950 . S
C1276 C1277 1.386 . S
C1276 C1278 1.391 . S
C1277 C1276 1.386 . S
C1277 C1281 1.393 . S
C1278 H1270 0.950 . S
C1278 C1276 1.391 . S
C1278 C1279 1.400 . S
C1279 C1278 1.400 . S
C1279 C1280 1.398 . S
C1279 C1285 1.491 . S
C1280 H1271 0.950 . S
C1280 C1279 1.398 . S
C1280 C1281 1.391 . S
C1281 H1269 0.950 . S
C1281 C1277 1.393 . S
C1281 C1280 1.391 . S
C1282 H1272 0.950 . S
C1282 C1283 1.386 . S
C1282 C1284 1.391 . S
C1283 C1282 1.386 . S
C1283 C1287 1.393 . S
C1284 H1273 0.950 . S
C1284 C1282 1.391 . S
C1284 C1285 1.400 . S
C1285 C1279 1.491 . S
C1285 C1284 1.400 . S
C1285 C1286 1.398 . S
C1286 H1274 0.950 . S
C1286 C1285 1.398 . S
C1286 C1287 1.391 . S
C1287 H1275 0.950 . S
C1287 C1283 1.393 . S
C1287 C1286 1.391 . S
H1288 C1296 0.950 . S
H1289 C1301 0.947 1_556 S
H1290 C1298 0.950 . S
H1291 C1300 0.950 . S
H1292 C1302 0.950 . S
H1293 C1304 0.950 . S
H1294 C1306 0.950 . S
H1295 C1307 0.950 . S
C1296 H1288 0.950 . S
C1296 C1297 1.386 . S
C1296 C1298 1.391 . S
C1297 C1296 1.386 . S
C1297 C1301 1.396 . S
C1298 H1290 0.950 . S
C1298 C1296 1.391 . S
C1298 C1299 1.400 . S
C1299 C1298 1.400 . S
C1299 C1300 1.398 1_554 S
C1299 C1305 1.491 . S
C1300 H1291 0.950 . S
C1300 C1299 1.398 1_556 S
C1300 C1301 1.390 1_556 S
C1301 H1289 0.947 1_554 S
C1301 C1297 1.396 . S
C1301 C1300 1.390 1_554 S
C1302 H1292 0.950 . S
C1302 C1303 1.386 1_556 S
C1302 C1304 1.391 . S
C1303 C1302 1.386 1_554 S
C1303 C1307 1.393 . S
C1304 H1293 0.950 . S
C1304 C1302 1.391 . S
C1304 C1305 1.400 1_556 S
C1305 C1299 1.491 . S
C1305 C1304 1.400 1_554 S
C1305 C1306 1.398 . S
C1306 H1294 0.950 . S
C1306 C1305 1.398 . S
C1306 C1307 1.391 . S
C1307 H1295 0.950 . S
C1307 C1303 1.393 . S
C1307 C1306 1.391 . S
H1308 C1316 0.950 . S
H1309 C1321 0.950 . S
H1310 C1318 0.950 . S
H1311 C1320 0.950 . S
H1312 C1322 0.950 . S
H1313 C1324 0.950 . S
H1314 C1326 0.950 . S
H1315 C1327 0.950 . S
C1316 H1308 0.950 . S
C1316 C1317 1.386 . S
C1316 C1318 1.391 . S
C1317 C1316 1.386 . S
C1317 C1321 1.393 . S
C1318 H1310 0.950 . S
C1318 C1316 1.391 . S
C1318 C1319 1.400 . S
C1319 C1318 1.400 . S
C1319 C1320 1.398 . S
C1319 C1325 1.491 . S
C1320 H1311 0.950 . S
C1320 C1319 1.398 . S
C1320 C1321 1.391 . S
C1321 H1309 0.950 . S
C1321 C1317 1.393 . S
C1321 C1320 1.391 . S
C1322 H1312 0.950 . S
C1322 C1323 1.386 . S
C1322 C1324 1.391 . S
C1323 C1322 1.386 . S
C1323 C1327 1.393 . S
C1324 H1313 0.950 . S
C1324 C1322 1.391 . S
C1324 C1325 1.400 . S
C1325 C1319 1.491 . S
C1325 C1324 1.400 . S
C1325 C1326 1.398 . S
C1326 H1314 0.950 . S
C1326 C1325 1.398 . S
C1326 C1327 1.391 . S
C1327 H1315 0.950 . S
C1327 C1323 1.393 . S
C1327 C1326 1.391 . S
H1328 C1336 0.950 . S
H1329 C1341 0.950 . S
H1330 C1338 0.950 . S
H1331 C1340 0.950 1_455 S
H1332 C1342 0.950 . S
H1333 C1344 0.950 . S
H1334 C1346 0.950 . S
H1335 C1347 0.950 . S
C1336 H1328 0.950 . S
C1336 C1337 1.388 . S
C1336 C1338 1.391 . S
C1337 C1336 1.388 . S
C1337 C1341 1.392 1_655 S
C1338 H1330 0.950 . S
C1338 C1336 1.391 . S
C1338 C1339 1.400 . S
C1339 C1338 1.400 . S
C1339 C1340 1.398 . S
C1339 C1345 1.491 . S
C1340 H1331 0.950 1_655 S
C1340 C1339 1.398 . S
C1340 C1341 1.391 1_655 S
C1341 H1329 0.950 . S
C1341 C1337 1.392 1_455 S
C1341 C1340 1.391 1_455 S
C1342 H1332 0.950 . S
C1342 C1343 1.386 . S
C1342 C1344 1.391 . S
C1343 C1342 1.386 . S
C1343 C1347 1.393 . S
C1344 H1333 0.950 . S
C1344 C1342 1.391 . S
C1344 C1345 1.400 . S
C1345 C1339 1.491 . S
C1345 C1344 1.400 . S
C1345 C1346 1.398 . S
C1346 H1334 0.950 . S
C1346 C1345 1.398 . S
C1346 C1347 1.391 . S
C1347 H1335 0.950 . S
C1347 C1343 1.393 . S
C1347 C1346 1.391 . S
H1348 C1356 0.950 . S
H1349 C1361 0.950 . S
H1350 C1358 0.950 . S
H1351 C1360 0.950 . S
H1352 C1362 0.950 . S
H1353 C1364 0.950 . S
H1354 C1366 0.950 . S
H1355 C1367 0.950 . S
C1356 H1348 0.950 . S
C1356 C1357 1.386 . S
C1356 C1358 1.391 . S
C1357 C1356 1.386 . S
C1357 C1361 1.393 . S
C1358 H1350 0.950 . S
C1358 C1356 1.391 . S
C1358 C1359 1.400 . S
C1359 C1358 1.400 . S
C1359 C1360 1.398 . S
C1359 C1365 1.491 . S
C1360 H1351 0.950 . S
C1360 C1359 1.398 . S
C1360 C1361 1.391 . S
C1361 H1349 0.950 . S
C1361 C1357 1.393 . S
C1361 C1360 1.391 . S
C1362 H1352 0.950 . S
C1362 C1363 1.386 . S
C1362 C1364 1.391 . S
C1363 C1362 1.386 . S
C1363 C1367 1.393 . S
C1364 H1353 0.950 . S
C1364 C1362 1.391 . S
C1364 C1365 1.400 . S
C1365 C1359 1.491 . S
C1365 C1364 1.400 . S
C1365 C1366 1.398 . S
C1366 H1354 0.950 . S
C1366 C1365 1.398 . S
C1366 C1367 1.391 . S
C1367 H1355 0.950 . S
C1367 C1363 1.393 . S
C1367 C1366 1.391 . S
H1368 C1376 0.950 . S
H1369 C1381 0.950 . S
H1370 C1378 0.950 . S
H1371 C1380 0.950 . S
H1372 C1382 0.950 . S
H1373 C1384 0.950 . S
H1374 C1386 0.950 . S
H1375 C1387 0.950 . S
C1376 H1368 0.950 . S
C1376 C1377 1.386 . S
C1376 C1378 1.391 . S
C1377 C1376 1.386 . S
C1377 C1381 1.393 . S
C1378 H1370 0.950 . S
C1378 C1376 1.391 . S
C1378 C1379 1.400 . S
C1379 C1378 1.400 . S
C1379 C1380 1.398 . S
C1379 C1385 1.491 . S
C1380 H1371 0.950 . S
C1380 C1379 1.398 . S
C1380 C1381 1.391 . S
C1381 H1369 0.950 . S
C1381 C1377 1.393 . S
C1381 C1380 1.391 . S
C1382 H1372 0.950 . S
C1382 C1383 1.386 . S
C1382 C1384 1.391 . S
C1383 C1382 1.386 . S
C1383 C1387 1.393 . S
C1384 H1373 0.950 . S
C1384 C1382 1.391 . S
C1384 C1385 1.400 . S
C1385 C1379 1.491 . S
C1385 C1384 1.400 . S
C1385 C1386 1.398 . S
C1386 H1374 0.950 . S
C1386 C1385 1.398 . S
C1386 C1387 1.391 . S
C1387 H1375 0.950 . S
C1387 C1383 1.393 . S
C1387 C1386 1.391 . S
H1388 C1396 0.950 . S
H1389 C1401 0.950 . S
H1390 C1398 0.950 . S
H1391 C1400 0.950 . S
H1392 C1402 0.950 . S
H1393 C1404 0.950 . S
H1394 C1406 0.950 . S
H1395 C1407 0.950 . S
C1396 H1388 0.950 . S
C1396 C1397 1.386 . S
C1396 C1398 1.391 . S
C1397 C1396 1.386 . S
C1397 C1401 1.393 1_455 S
C1398 H1390 0.950 . S
C1398 C1396 1.391 . S
C1398 C1399 1.400 . S
C1399 C1398 1.400 . S
C1399 C1400 1.398 1_455 S
C1399 C1405 1.491 . S
C1400 H1391 0.950 . S
C1400 C1399 1.398 1_655 S
C1400 C1401 1.391 . S
C1401 H1389 0.950 . S
C1401 C1397 1.393 1_655 S
C1401 C1400 1.391 . S
C1402 H1392 0.950 . S
C1402 C1403 1.386 1_655 S
C1402 C1404 1.391 . S
C1403 C1402 1.386 1_455 S
C1403 C1407 1.393 . S
C1404 H1393 0.950 . S
C1404 C1402 1.391 . S
C1404 C1405 1.400 1_655 S
C1405 C1399 1.491 . S
C1405 C1404 1.400 1_455 S
C1405 C1406 1.398 . S
C1406 H1394 0.950 . S
C1406 C1405 1.398 . S
C1406 C1407 1.391 . S
C1407 H1395 0.950 . S
C1407 C1403 1.393 . S
C1407 C1406 1.391 . S
H1408 C1416 0.950 . S
H1409 C1421 0.950 . S
H1410 C1418 0.950 . S
H1411 C1420 0.950 . S
H1412 C1422 0.950 . S
H1413 C1424 0.950 . S
H1414 C1426 0.947 1_545 S
H1415 C1427 0.950 . S
C1416 H1408 0.950 . S
C1416 C1417 1.381 1_545 S
C1416 C1418 1.391 . S
C1417 C1416 1.381 1_565 S
C1417 C1421 1.400 . S
C1418 H1410 0.950 . S
C1418 C1416 1.391 . S
C1418 C1419 1.400 1_545 S
C1419 C1418 1.400 1_565 S
C1419 C1420 1.398 . S
C1419 C1425 1.491 . S
C1420 H1411 0.950 . S
C1420 C1419 1.398 . S
C1420 C1421 1.391 . S
C1421 H1409 0.950 . S
C1421 C1417 1.400 . S
C1421 C1420 1.391 . S
C1422 H1412 0.950 . S
C1422 C1423 1.386 . S
C1422 C1424 1.391 . S
C1423 C1422 1.386 . S
C1423 C1427 1.393 . S
C1424 H1413 0.950 . S
C1424 C1422 1.391 . S
C1424 C1425 1.400 . S
C1425 C1419 1.491 . S
C1425 C1424 1.400 . S
C1425 C1426 1.398 . S
C1426 H1414 0.947 1_565 S
C1426 C1425 1.398 . S
C1426 C1427 1.391 . S
C1427 H1415 0.950 . S
C1427 C1423 1.393 . S
C1427 C1426 1.391 . S
H1428 C1436 0.950 . S
H1429 C1441 0.950 . S
H1430 C1438 0.950 . S
H1431 C1440 0.950 . S
H1432 C1442 0.950 . S
H1433 C1444 0.950 . S
H1434 C1446 0.950 . S
H1435 C1447 0.950 . S
C1436 H1428 0.950 . S
C1436 C1437 1.386 . S
C1436 C1438 1.391 . S
C1437 C1436 1.386 . S
C1437 C1441 1.393 . S
C1438 H1430 0.950 . S
C1438 C1436 1.391 . S
C1438 C1439 1.400 . S
C1439 C1438 1.400 . S
C1439 C1440 1.398 . S
C1439 C1445 1.491 . S
C1440 H1431 0.950 . S
C1440 C1439 1.398 . S
C1440 C1441 1.391 . S
C1441 H1429 0.950 . S
C1441 C1437 1.393 . S
C1441 C1440 1.391 . S
C1442 H1432 0.950 . S
C1442 C1443 1.386 . S
C1442 C1444 1.391 . S
C1443 C1442 1.386 . S
C1443 C1447 1.393 . S
C1444 H1433 0.950 . S
C1444 C1442 1.391 . S
C1444 C1445 1.400 . S
C1445 C1439 1.491 . S
C1445 C1444 1.400 . S
C1445 C1446 1.398 . S
C1446 H1434 0.950 . S
C1446 C1445 1.398 . S
C1446 C1447 1.391 . S
C1447 H1435 0.950 . S
C1447 C1443 1.393 . S
C1447 C1446 1.391 . S
H1448 C1456 0.950 . S
H1449 C1461 0.950 . S
H1450 C1458 0.950 . S
H1451 C1460 0.950 . S
H1452 C1462 0.950 . S
H1453 C1464 0.950 . S
H1454 C1466 0.950 . S
H1455 C1467 0.950 . S
C1456 H1448 0.950 . S
C1456 C1457 1.386 . S
C1456 C1458 1.391 . S
C1457 C1456 1.386 . S
C1457 C1461 1.393 . S
C1458 H1450 0.950 . S
C1458 C1456 1.391 . S
C1458 C1459 1.400 . S
C1459 C1458 1.400 . S
C1459 C1460 1.398 . S
C1459 C1465 1.491 . S
C1460 H1451 0.950 . S
C1460 C1459 1.398 . S
C1460 C1461 1.391 . S
C1461 H1449 0.950 . S
C1461 C1457 1.393 . S
C1461 C1460 1.391 . S
C1462 H1452 0.950 . S
C1462 C1463 1.386 . S
C1462 C1464 1.391 . S
C1463 C1462 1.386 . S
C1463 C1467 1.393 . S
C1464 H1453 0.950 . S
C1464 C1462 1.391 . S
C1464 C1465 1.400 . S
C1465 C1459 1.491 . S
C1465 C1464 1.400 . S
C1465 C1466 1.398 . S
C1466 H1454 0.950 . S
C1466 C1465 1.398 . S
C1466 C1467 1.391 . S
C1467 H1455 0.950 . S
C1467 C1463 1.393 . S
C1467 C1466 1.391 . S
H1468 C1476 0.950 . S
H1469 C1481 0.950 . S
H1470 C1478 0.950 . S
H1471 C1480 0.950 . S
H1472 C1482 0.950 . S
H1473 C1484 0.958 . S
H1474 C1486 0.950 . S
H1475 C1487 0.950 . S
C1476 H1468 0.950 . S
C1476 C1477 1.386 . S
C1476 C1478 1.391 . S
C1477 C1476 1.386 . S
C1477 C1481 1.393 . S
C1478 H1470 0.950 . S
C1478 C1476 1.391 . S
C1478 C1479 1.400 . S
C1479 C1478 1.400 . S
C1479 C1480 1.398 . S
C1479 C1485 1.491 . S
C1480 H1471 0.950 . S
C1480 C1479 1.398 . S
C1480 C1481 1.391 . S
C1481 H1469 0.950 . S
C1481 C1477 1.393 . S
C1481 C1480 1.391 . S
C1482 H1472 0.950 . S
C1482 C1483 1.383 1_565 S
C1482 C1484 1.397 . S
C1483 C1482 1.383 1_545 S
C1483 C1487 1.398 . S
C1484 H1473 0.958 . S
C1484 C1482 1.397 . S
C1484 C1485 1.388 1_565 S
C1485 C1479 1.491 . S
C1485 C1484 1.388 1_545 S
C1485 C1486 1.398 . S
C1486 H1474 0.950 . S
C1486 C1485 1.398 . S
C1486 C1487 1.391 . S
C1487 H1475 0.950 . S
C1487 C1483 1.398 . S
C1487 C1486 1.391 . S
H1488 C1496 0.950 . S
H1489 C1501 0.950 . S
H1490 C1498 0.950 . S
H1491 C1500 0.931 1_655 S
H1492 C1502 0.950 1_655 S
H1493 C1504 0.950 1_655 S
H1494 C1506 0.950 . S
H1495 C1507 0.950 . S
C1496 H1488 0.950 . S
C1496 C1497 1.386 . S
C1496 C1498 1.391 . S
C1497 C1496 1.386 . S
C1497 C1501 1.393 1_455 S
C1498 H1490 0.950 . S
C1498 C1496 1.391 . S
C1498 C1499 1.400 . S
C1499 C1498 1.400 . S
C1499 C1500 1.419 . S
C1499 C1505 1.491 . S
C1500 H1491 0.931 1_455 S
C1500 C1499 1.419 . S
C1500 C1501 1.389 1_455 S
C1501 H1489 0.950 . S
C1501 C1497 1.393 1_655 S
C1501 C1500 1.389 1_655 S
C1502 H1492 0.950 1_455 S
C1502 C1503 1.386 . S
C1502 C1504 1.391 . S
C1503 C1502 1.386 . S
C1503 C1507 1.393 . S
C1504 H1493 0.950 1_455 S
C1504 C1502 1.391 . S
C1504 C1505 1.400 . S
C1505 C1499 1.491 . S
C1505 C1504 1.400 . S
C1505 C1506 1.398 . S
C1506 H1494 0.950 . S
C1506 C1505 1.398 . S
C1506 C1507 1.391 . S
C1507 H1495 0.950 . S
C1507 C1503 1.393 . S
C1507 C1506 1.391 . S
H1508 C1516 0.950 . S
H1509 C1521 0.950 . S
H1510 C1518 0.950 . S
H1511 C1520 0.950 . S
H1512 C1522 0.950 . S
H1513 C1524 0.950 . S
H1514 C1526 0.950 . S
H1515 C1527 0.950 . S
C1516 H1508 0.950 . S
C1516 C1517 1.386 . S
C1516 C1518 1.391 . S
C1517 C1516 1.386 . S
C1517 C1521 1.393 . S
C1518 H1510 0.950 . S
C1518 C1516 1.391 . S
C1518 C1519 1.400 . S
C1519 C1518 1.400 . S
C1519 C1520 1.398 . S
C1519 C1525 1.491 . S
C1520 H1511 0.950 . S
C1520 C1519 1.398 . S
C1520 C1521 1.391 . S
C1521 H1509 0.950 . S
C1521 C1517 1.393 . S
C1521 C1520 1.391 . S
C1522 H1512 0.950 . S
C1522 C1523 1.386 . S
C1522 C1524 1.391 . S
C1523 C1522 1.386 . S
C1523 C1527 1.393 . S
C1524 H1513 0.950 . S
C1524 C1522 1.391 . S
C1524 C1525 1.400 . S
C1525 C1519 1.491 . S
C1525 C1524 1.400 . S
C1525 C1526 1.398 . S
C1526 H1514 0.950 . S
C1526 C1525 1.398 . S
C1526 C1527 1.391 . S
C1527 H1515 0.950 . S
C1527 C1523 1.393 . S
C1527 C1526 1.391 . S
H1528 C1536 0.950 . S
H1529 C1541 0.950 . S
H1530 C1538 0.950 . S
H1531 C1540 0.950 . S
H1532 C1542 0.950 . S
H1533 C1544 0.950 . S
H1534 C1546 0.950 . S
H1535 C1547 0.950 . S
C1536 H1528 0.950 . S
C1536 C1537 1.386 . S
C1536 C1538 1.391 . S
C1537 C1536 1.386 . S
C1537 C1541 1.393 . S
C1538 H1530 0.950 . S
C1538 C1536 1.391 . S
C1538 C1539 1.400 . S
C1539 C1538 1.400 . S
C1539 C1540 1.398 . S
C1539 C1545 1.491 . S
C1540 H1531 0.950 . S
C1540 C1539 1.398 . S
C1540 C1541 1.391 . S
C1541 H1529 0.950 . S
C1541 C1537 1.393 . S
C1541 C1540 1.391 . S
C1542 H1532 0.950 . S
C1542 C1543 1.386 . S
C1542 C1544 1.391 . S
C1543 C1542 1.386 . S
C1543 C1547 1.393 . S
C1544 H1533 0.950 . S
C1544 C1542 1.391 . S
C1544 C1545 1.400 . S
C1545 C1539 1.491 . S
C1545 C1544 1.400 . S
C1545 C1546 1.398 . S
C1546 H1534 0.950 . S
C1546 C1545 1.398 . S
C1546 C1547 1.391 . S
C1547 H1535 0.950 . S
C1547 C1543 1.393 . S
C1547 C1546 1.391 . S
H1548 C1556 0.950 . S
H1549 C1561 0.950 1_455 S
H1550 C1558 0.950 . S
H1551 C1560 0.950 1_455 S
H1552 C1562 0.950 . S
H1553 C1564 0.946 1_455 S
H1554 C1566 0.950 . S
H1555 C1567 0.950 . S
C1556 H1548 0.950 . S
C1556 C1557 1.386 . S
C1556 C1558 1.391 . S
C1557 C1556 1.386 . S
C1557 C1561 1.393 . S
C1558 H1550 0.950 . S
C1558 C1556 1.391 . S
C1558 C1559 1.400 . S
C1559 C1558 1.400 . S
C1559 C1560 1.398 . S
C1559 C1565 1.491 . S
C1560 H1551 0.950 1_655 S
C1560 C1559 1.398 . S
C1560 C1561 1.391 . S
C1561 H1549 0.950 1_655 S
C1561 C1557 1.393 . S
C1561 C1560 1.391 . S
C1562 H1552 0.950 . S
C1562 C1563 1.386 1_455 S
C1562 C1564 1.391 1_455 S
C1563 C1562 1.386 1_655 S
C1563 C1567 1.393 . S
C1564 H1553 0.946 1_655 S
C1564 C1562 1.391 1_655 S
C1564 C1565 1.404 . S
C1565 C1559 1.491 . S
C1565 C1564 1.404 . S
C1565 C1566 1.398 . S
C1566 H1554 0.950 . S
C1566 C1565 1.398 . S
C1566 C1567 1.391 . S
C1567 H1555 0.950 . S
C1567 C1563 1.393 . S
C1567 C1566 1.391 . S
H1568 C1576 0.950 . S
H1569 C1581 0.950 . S
H1570 C1578 0.950 . S
H1571 C1580 0.950 . S
H1572 C1582 0.950 . S
H1573 C1584 0.950 . S
H1574 C1586 0.950 . S
H1575 C1587 0.950 1_565 S
C1576 H1568 0.950 . S
C1576 C1577 1.386 . S
C1576 C1578 1.391 . S
C1577 C1576 1.386 . S
C1577 C1581 1.393 . S
C1578 H1570 0.950 . S
C1578 C1576 1.391 . S
C1578 C1579 1.400 . S
C1579 C1578 1.400 . S
C1579 C1580 1.398 . S
C1579 C1585 1.491 . S
C1580 H1571 0.950 . S
C1580 C1579 1.398 . S
C1580 C1581 1.391 . S
C1581 H1569 0.950 . S
C1581 C1577 1.393 . S
C1581 C1580 1.391 . S
C1582 H1572 0.950 . S
C1582 C1583 1.386 . S
C1582 C1584 1.391 . S
C1583 C1582 1.386 . S
C1583 C1587 1.393 . S
C1584 H1573 0.950 . S
C1584 C1582 1.391 . S
C1584 C1585 1.400 . S
C1585 C1579 1.491 . S
C1585 C1584 1.400 . S
C1585 C1586 1.398 . S
C1586 H1574 0.950 . S
C1586 C1585 1.398 . S
C1586 C1587 1.391 . S
C1587 H1575 0.950 1_545 S
C1587 C1583 1.393 . S
C1587 C1586 1.391 . S
H1588 C1596 0.950 . S
H1589 C1601 0.950 . S
H1590 C1598 0.942 1_545 S
H1591 C1600 0.950 . S
H1592 C1602 0.950 . S
H1593 C1604 0.950 . S
H1594 C1606 0.950 1_545 S
H1595 C1607 0.950 1_545 S
C1596 H1588 0.950 . S
C1596 C1597 1.386 1_545 S
C1596 C1598 1.391 1_545 S
C1597 C1596 1.386 1_565 S
C1597 C1601 1.393 . S
C1598 H1590 0.942 1_565 S
C1598 C1596 1.391 1_565 S
C1598 C1599 1.408 . S
C1599 C1598 1.408 . S
C1599 C1600 1.398 . S
C1599 C1605 1.491 . S
C1600 H1591 0.950 . S
C1600 C1599 1.398 . S
C1600 C1601 1.391 . S
C1601 H1589 0.950 . S
C1601 C1597 1.393 . S
C1601 C1600 1.391 . S
C1602 H1592 0.950 . S
C1602 C1603 1.386 . S
C1602 C1604 1.391 . S
C1603 C1602 1.386 . S
C1603 C1607 1.393 . S
C1604 H1593 0.950 . S
C1604 C1602 1.391 . S
C1604 C1605 1.400 . S
C1605 C1599 1.491 . S
C1605 C1604 1.400 . S
C1605 C1606 1.398 . S
C1606 H1594 0.950 1_565 S
C1606 C1605 1.398 . S
C1606 C1607 1.391 . S
C1607 H1595 0.950 1_565 S
C1607 C1603 1.393 . S
C1607 C1606 1.391 . S
H1608 C1616 0.950 . S
H1609 C1621 0.950 . S
H1610 C1618 0.950 . S
H1611 C1620 0.950 . S
H1612 C1622 0.950 . S
H1613 C1624 0.950 . S
H1614 C1626 0.950 . S
H1615 C1627 0.950 . S
C1616 H1608 0.950 . S
C1616 C1617 1.386 . S
C1616 C1618 1.391 . S
C1617 C1616 1.386 . S
C1617 C1621 1.393 . S
C1618 H1610 0.950 . S
C1618 C1616 1.391 . S
C1618 C1619 1.400 . S
C1619 C1618 1.400 . S
C1619 C1620 1.398 . S
C1619 C1625 1.491 . S
C1620 H1611 0.950 . S
C1620 C1619 1.398 . S
C1620 C1621 1.391 . S
C1621 H1609 0.950 . S
C1621 C1617 1.393 . S
C1621 C1620 1.391 . S
C1622 H1612 0.950 . S
C1622 C1623 1.386 . S
C1622 C1624 1.391 . S
C1623 C1622 1.386 . S
C1623 C1627 1.393 . S
C1624 H1613 0.950 . S
C1624 C1622 1.391 . S
C1624 C1625 1.400 . S
C1625 C1619 1.491 . S
C1625 C1624 1.400 . S
C1625 C1626 1.398 . S
C1626 H1614 0.950 . S
C1626 C1625 1.398 . S
C1626 C1627 1.391 . S
C1627 H1615 0.950 . S
C1627 C1623 1.393 . S
C1627 C1626 1.391 . S
H1628 C1636 0.950 . S
H1629 C1641 0.950 . S
H1630 C1638 0.950 . S
H1631 C1640 0.950 . S
H1632 C1642 0.950 . S
H1633 C1644 0.950 . S
H1634 C1646 0.950 . S
H1635 C1647 0.950 . S
C1636 H1628 0.950 . S
C1636 C1637 1.386 . S
C1636 C1638 1.391 . S
C1637 C1636 1.386 . S
C1637 C1641 1.393 . S
C1638 H1630 0.950 . S
C1638 C1636 1.391 . S
C1638 C1639 1.400 . S
C1639 C1638 1.400 . S
C1639 C1640 1.398 . S
C1639 C1645 1.491 . S
C1640 H1631 0.950 . S
C1640 C1639 1.398 . S
C1640 C1641 1.391 . S
C1641 H1629 0.950 . S
C1641 C1637 1.393 . S
C1641 C1640 1.391 . S
C1642 H1632 0.950 . S
C1642 C1643 1.386 . S
C1642 C1644 1.391 . S
C1643 C1642 1.386 . S
C1643 C1647 1.393 . S
C1644 H1633 0.950 . S
C1644 C1642 1.391 . S
C1644 C1645 1.400 . S
C1645 C1639 1.491 . S
C1645 C1644 1.400 . S
C1645 C1646 1.398 . S
C1646 H1634 0.950 . S
C1646 C1645 1.398 . S
C1646 C1647 1.391 . S
C1647 H1635 0.950 . S
C1647 C1643 1.393 . S
C1647 C1646 1.391 . S
H1648 C1656 0.950 . S
H1649 C1661 0.951 . S
H1650 C1658 0.950 . S
H1651 C1660 0.950 1_556 S
H1652 C1662 0.950 1_556 S
H1653 C1664 0.950 1_556 S
H1654 C1666 0.950 . S
H1655 C1667 0.950 . S
C1656 H1648 0.950 . S
C1656 C1657 1.386 . S
C1656 C1658 1.391 . S
C1657 C1656 1.386 . S
C1657 C1661 1.393 . S
C1658 H1650 0.950 . S
C1658 C1656 1.391 . S
C1658 C1659 1.400 . S
C1659 C1658 1.400 . S
C1659 C1660 1.398 . S
C1659 C1665 1.491 . S
C1660 H1651 0.950 1_554 S
C1660 C1659 1.398 . S
C1660 C1661 1.391 . S
C1661 H1649 0.951 . S
C1661 C1657 1.393 . S
C1661 C1660 1.391 . S
C1662 H1652 0.950 1_554 S
C1662 C1663 1.386 . S
C1662 C1664 1.391 . S
C1663 C1662 1.386 . S
C1663 C1667 1.393 . S
C1664 H1653 0.950 1_554 S
C1664 C1662 1.391 . S
C1664 C1665 1.400 . S
C1665 C1659 1.491 . S
C1665 C1664 1.400 . S
C1665 C1666 1.398 . S
C1666 H1654 0.950 . S
C1666 C1665 1.398 . S
C1666 C1667 1.391 . S
C1667 H1655 0.950 . S
C1667 C1663 1.393 . S
C1667 C1666 1.391 . S
H1668 C1676 0.950 . S
H1669 C1681 0.950 1_554 S
H1670 C1678 0.950 . S
H1671 C1680 0.950 1_554 S
H1672 C1682 0.954 . S
H1673 C1684 0.950 1_554 S
H1674 C1686 0.950 . S
H1675 C1687 0.950 . S
C1676 H1668 0.950 . S
C1676 C1677 1.386 . S
C1676 C1678 1.391 . S
C1677 C1676 1.386 . S
C1677 C1681 1.393 . S
C1678 H1670 0.950 . S
C1678 C1676 1.391 . S
C1678 C1679 1.400 . S
C1679 C1678 1.400 . S
C1679 C1680 1.398 . S
C1679 C1685 1.491 . S
C1680 H1671 0.950 1_556 S
C1680 C1679 1.398 . S
C1680 C1681 1.391 . S
C1681 H1669 0.950 1_556 S
C1681 C1677 1.393 . S
C1681 C1680 1.391 . S
C1682 H1672 0.954 . S
C1682 C1683 1.382 1_554 S
C1682 C1684 1.391 1_554 S
C1683 C1682 1.382 1_556 S
C1683 C1687 1.393 . S
C1684 H1673 0.950 1_556 S
C1684 C1682 1.391 1_556 S
C1684 C1685 1.400 . S
C1685 C1679 1.491 . S
C1685 C1684 1.400 . S
C1685 C1686 1.398 . S
C1686 H1674 0.950 . S
C1686 C1685 1.398 . S
C1686 C1687 1.391 . S
C1687 H1675 0.950 . S
C1687 C1683 1.393 . S
C1687 C1686 1.391 . S
H1688 C1696 0.950 . S
H1689 C1701 0.950 . S
H1690 C1698 0.950 . S
H1691 C1700 0.950 . S
H1692 C1702 0.950 . S
H1693 C1704 0.950 . S
H1694 C1706 0.950 . S
H1695 C1707 0.950 . S
C1696 H1688 0.950 . S
C1696 C1697 1.386 . S
C1696 C1698 1.391 . S
C1697 C1696 1.386 . S
C1697 C1701 1.393 . S
C1698 H1690 0.950 . S
C1698 C1696 1.391 . S
C1698 C1699 1.400 . S
C1699 C1698 1.400 . S
C1699 C1700 1.398 . S
C1699 C1705 1.491 . S
C1700 H1691 0.950 . S
C1700 C1699 1.398 . S
C1700 C1701 1.391 . S
C1701 H1689 0.950 . S
C1701 C1697 1.393 . S
C1701 C1700 1.391 . S
C1702 H1692 0.950 . S
C1702 C1703 1.386 . S
C1702 C1704 1.391 . S
C1703 C1702 1.386 . S
C1703 C1707 1.393 . S
C1704 H1693 0.950 . S
C1704 C1702 1.391 . S
C1704 C1705 1.400 . S
C1705 C1699 1.491 . S
C1705 C1704 1.400 . S
C1705 C1706 1.398 . S
C1706 H1694 0.950 . S
C1706 C1705 1.398 . S
C1706 C1707 1.391 . S
C1707 H1695 0.950 . S
C1707 C1703 1.393 . S
C1707 C1706 1.391 . S
H1708 C1716 0.950 . S
H1709 C1721 0.950 . S
H1710 C1718 0.950 . S
H1711 C1720 0.950 . S
H1712 C1722 0.950 . S
H1713 C1724 0.950 . S
H1714 C1726 0.950 . S
H1715 C1727 0.950 . S
C1716 H1708 0.950 . S
C1716 C1717 1.386 . S
C1716 C1718 1.391 . S
C1717 C1716 1.386 . S
C1717 C1721 1.393 . S
C1718 H1710 0.950 . S
C1718 C1716 1.391 . S
C1718 C1719 1.400 . S
C1719 C1718 1.400 . S
C1719 C1720 1.398 . S
C1719 C1725 1.491 . S
C1720 H1711 0.950 . S
C1720 C1719 1.398 . S
C1720 C1721 1.391 . S
C1721 H1709 0.950 . S
C1721 C1717 1.393 . S
C1721 C1720 1.391 . S
C1722 H1712 0.950 . S
C1722 C1723 1.386 . S
C1722 C1724 1.391 . S
C1723 C1722 1.386 . S
C1723 C1727 1.393 . S
C1724 H1713 0.950 . S
C1724 C1722 1.391 . S
C1724 C1725 1.400 . S
C1725 C1719 1.491 . S
C1725 C1724 1.400 . S
C1725 C1726 1.398 . S
C1726 H1714 0.950 . S
C1726 C1725 1.398 . S
C1726 C1727 1.391 . S
C1727 H1715 0.950 . S
C1727 C1723 1.393 . S
C1727 C1726 1.391 . S
H1728 C1736 0.950 . S
H1729 C1741 0.950 . S
H1730 C1738 0.950 . S
H1731 C1740 0.950 . S
H1732 C1742 0.950 1_455 S
H1733 C1744 0.950 1_455 S
H1734 C1746 0.950 . S
H1735 C1747 0.950 . S
C1736 H1728 0.950 . S
C1736 C1737 1.386 . S
C1736 C1738 1.391 . S
C1737 C1736 1.386 . S
C1737 C1741 1.393 . S
C1738 H1730 0.950 . S
C1738 C1736 1.391 . S
C1738 C1739 1.400 . S
C1739 C1738 1.400 . S
C1739 C1740 1.398 . S
C1739 C1745 1.491 . S
C1740 H1731 0.950 . S
C1740 C1739 1.398 . S
C1740 C1741 1.391 . S
C1741 H1729 0.950 . S
C1741 C1737 1.393 . S
C1741 C1740 1.391 . S
C1742 H1732 0.950 1_655 S
C1742 C1743 1.386 . S
C1742 C1744 1.391 . S
C1743 C1742 1.386 . S
C1743 C1747 1.393 . S
C1744 H1733 0.950 1_655 S
C1744 C1742 1.391 . S
C1744 C1745 1.400 . S
C1745 C1739 1.491 . S
C1745 C1744 1.400 . S
C1745 C1746 1.398 . S
C1746 H1734 0.950 . S
C1746 C1745 1.398 . S
C1746 C1747 1.391 . S
C1747 H1735 0.950 . S
C1747 C1743 1.393 . S
C1747 C1746 1.391 . S
H1748 C1756 0.950 . S
H1749 C1761 0.950 . S
H1750 C1758 0.950 . S
H1751 C1760 0.950 . S
H1752 C1762 0.950 . S
H1753 C1764 0.950 . S
H1754 C1766 0.950 . S
H1755 C1767 0.950 . S
C1756 H1748 0.950 . S
C1756 C1757 1.386 . S
C1756 C1758 1.391 . S
C1757 C1756 1.386 . S
C1757 C1761 1.393 . S
C1758 H1750 0.950 . S
C1758 C1756 1.391 . S
C1758 C1759 1.400 . S
C1759 C1758 1.400 . S
C1759 C1760 1.398 . S
C1759 C1765 1.491 . S
C1760 H1751 0.950 . S
C1760 C1759 1.398 . S
C1760 C1761 1.391 . S
C1761 H1749 0.950 . S
C1761 C1757 1.393 . S
C1761 C1760 1.391 . S
C1762 H1752 0.950 . S
C1762 C1763 1.386 . S
C1762 C1764 1.391 . S
C1763 C1762 1.386 . S
C1763 C1767 1.393 . S
C1764 H1753 0.950 . S
C1764 C1762 1.391 . S
C1764 C1765 1.400 . S
C1765 C1759 1.491 . S
C1765 C1764 1.400 . S
C1765 C1766 1.398 . S
C1766 H1754 0.950 . S
C1766 C1765 1.398 . S
C1766 C1767 1.391 . S
C1767 H1755 0.950 . S
C1767 C1763 1.393 . S
C1767 C1766 1.391 . S
H1768 C1776 0.950 . S
H1769 C1781 0.950 . S
H1770 C1778 0.950 . S
H1771 C1780 0.950 . S
H1772 C1782 0.950 . S
H1773 C1784 0.950 . S
H1774 C1786 0.950 . S
H1775 C1787 0.950 . S
C1776 H1768 0.950 . S
C1776 C1777 1.386 . S
C1776 C1778 1.391 . S
C1777 C1776 1.386 . S
C1777 C1781 1.393 . S
C1778 H1770 0.950 . S
C1778 C1776 1.391 . S
C1778 C1779 1.400 . S
C1779 C1778 1.400 . S
C1779 C1780 1.398 . S
C1779 C1785 1.491 . S
C1780 H1771 0.950 . S
C1780 C1779 1.398 . S
C1780 C1781 1.391 . S
C1781 H1769 0.950 . S
C1781 C1777 1.393 . S
C1781 C1780 1.391 . S
C1782 H1772 0.950 . S
C1782 C1783 1.386 . S
C1782 C1784 1.391 . S
C1783 C1782 1.386 . S
C1783 C1787 1.393 . S
C1784 H1773 0.950 . S
C1784 C1782 1.391 . S
C1784 C1785 1.400 . S
C1785 C1779 1.491 . S
C1785 C1784 1.400 . S
C1785 C1786 1.398 . S
C1786 H1774 0.950 . S
C1786 C1785 1.398 . S
C1786 C1787 1.391 . S
C1787 H1775 0.950 . S
C1787 C1783 1.393 . S
C1787 C1786 1.391 . S
H1788 C1796 0.950 . S
H1789 C1801 0.950 1_655 S
H1790 C1798 0.950 . S
H1791 C1800 0.950 1_655 S
H1792 C1802 0.950 1_655 S
H1793 C1804 0.950 1_655 S
H1794 C1806 0.950 . S
H1795 C1807 0.950 . S
C1796 H1788 0.950 . S
C1796 C1797 1.386 . S
C1796 C1798 1.391 . S
C1797 C1796 1.386 . S
C1797 C1801 1.393 . S
C1798 H1790 0.950 . S
C1798 C1796 1.391 . S
C1798 C1799 1.400 . S
C1799 C1798 1.400 . S
C1799 C1800 1.398 . S
C1799 C1805 1.491 . S
C1800 H1791 0.950 1_455 S
C1800 C1799 1.398 . S
C1800 C1801 1.391 . S
C1801 H1789 0.950 1_455 S
C1801 C1797 1.393 . S
C1801 C1800 1.391 . S
C1802 H1792 0.950 1_455 S
C1802 C1803 1.386 . S
C1802 C1804 1.391 . S
C1803 C1802 1.386 . S
C1803 C1807 1.393 . S
C1804 H1793 0.950 1_455 S
C1804 C1802 1.391 . S
C1804 C1805 1.400 . S
C1805 C1799 1.491 . S
C1805 C1804 1.400 . S
C1805 C1806 1.398 . S
C1806 H1794 0.950 . S
C1806 C1805 1.398 . S
C1806 C1807 1.391 . S
C1807 H1795 0.950 . S
C1807 C1803 1.393 . S
C1807 C1806 1.391 . S
H1808 C1816 0.950 . S
H1809 C1821 0.923 1_545 S
H1810 C1818 0.950 . S
H1811 C1820 0.950 1_545 S
H1812 C1822 0.950 1_545 S
H1813 C1824 0.950 1_545 S
H1814 C1826 0.950 . S
H1815 C1827 0.950 . S
C1816 H1808 0.950 . S
C1816 C1817 1.386 . S
C1816 C1818 1.391 . S
C1817 C1816 1.386 . S
C1817 C1821 1.417 . S
C1818 H1810 0.950 . S
C1818 C1816 1.391 . S
C1818 C1819 1.400 . S
C1819 C1818 1.400 . S
C1819 C1820 1.398 . S
C1819 C1825 1.491 . S
C1820 H1811 0.950 1_565 S
C1820 C1819 1.398 . S
C1820 C1821 1.394 . S
C1821 H1809 0.923 1_565 S
C1821 C1817 1.417 . S
C1821 C1820 1.394 . S
C1822 H1812 0.950 1_565 S
C1822 C1823 1.386 . S
C1822 C1824 1.391 . S
C1823 C1822 1.386 . S
C1823 C1827 1.393 . S
C1824 H1813 0.950 1_565 S
C1824 C1822 1.391 . S
C1824 C1825 1.400 . S
C1825 C1819 1.491 . S
C1825 C1824 1.400 . S
C1825 C1826 1.398 . S
C1826 H1814 0.950 . S
C1826 C1825 1.398 . S
C1826 C1827 1.391 . S
C1827 H1815 0.950 . S
C1827 C1823 1.393 . S
C1827 C1826 1.391 . S
H1828 C1836 0.950 . S
H1829 C1841 0.949 1_565 S
H1830 C1838 0.950 . S
H1831 C1840 0.950 . S
H1832 C1842 0.950 . S
H1833 C1844 0.950 . S
H1834 C1846 0.950 . S
H1835 C1847 0.950 . S
C1836 H1828 0.950 . S
C1836 C1837 1.386 . S
C1836 C1838 1.391 . S
C1837 C1836 1.386 . S
C1837 C1841 1.393 . S
C1838 H1830 0.950 . S
C1838 C1836 1.391 . S
C1838 C1839 1.400 . S
C1839 C1838 1.400 . S
C1839 C1840 1.398 . S
C1839 C1845 1.491 . S
C1840 H1831 0.950 . S
C1840 C1839 1.398 . S
C1840 C1841 1.391 . S
C1841 H1829 0.949 1_545 S
C1841 C1837 1.393 . S
C1841 C1840 1.391 . S
C1842 H1832 0.950 . S
C1842 C1843 1.386 . S
C1842 C1844 1.391 . S
C1843 C1842 1.386 . S
C1843 C1847 1.393 . S
C1844 H1833 0.950 . S
C1844 C1842 1.391 . S
C1844 C1845 1.400 . S
C1845 C1839 1.491 . S
C1845 C1844 1.400 . S
C1845 C1846 1.398 . S
C1846 H1834 0.950 . S
C1846 C1845 1.398 . S
C1846 C1847 1.391 . S
C1847 H1835 0.950 . S
C1847 C1843 1.393 . S
C1847 C1846 1.391 . S
H1848 C1856 0.950 . S
H1849 C1861 0.950 . S
H1850 C1858 0.950 . S
H1851 C1860 0.950 . S
H1852 C1862 0.950 . S
H1853 C1864 0.950 . S
H1854 C1866 0.950 . S
H1855 C1867 0.950 . S
C1856 H1848 0.950 . S
C1856 C1857 1.386 . S
C1856 C1858 1.391 . S
C1857 C1856 1.386 . S
C1857 C1861 1.393 . S
C1858 H1850 0.950 . S
C1858 C1856 1.391 . S
C1858 C1859 1.400 . S
C1859 C1858 1.400 . S
C1859 C1860 1.398 . S
C1859 C1865 1.491 . S
C1860 H1851 0.950 . S
C1860 C1859 1.398 . S
C1860 C1861 1.391 . S
C1861 H1849 0.950 . S
C1861 C1857 1.393 . S
C1861 C1860 1.391 . S
C1862 H1852 0.950 . S
C1862 C1863 1.386 . S
C1862 C1864 1.391 . S
C1863 C1862 1.386 . S
C1863 C1867 1.393 . S
C1864 H1853 0.950 . S
C1864 C1862 1.391 . S
C1864 C1865 1.400 . S
C1865 C1859 1.491 . S
C1865 C1864 1.400 . S
C1865 C1866 1.398 . S
C1866 H1854 0.950 . S
C1866 C1865 1.398 . S
C1866 C1867 1.391 . S
C1867 H1855 0.950 . S
C1867 C1863 1.393 . S
C1867 C1866 1.391 . S
H1868 C1876 0.950 . S
H1869 C1881 0.950 . S
H1870 C1878 0.950 . S
H1871 C1880 0.950 . S
H1872 C1882 0.950 . S
H1873 C1884 0.950 . S
H1874 C1886 0.950 . S
H1875 C1887 0.950 . S
C1876 H1868 0.950 . S
C1876 C1877 1.386 . S
C1876 C1878 1.391 . S
C1877 C1876 1.386 . S
C1877 C1881 1.393 . S
C1878 H1870 0.950 . S
C1878 C1876 1.391 . S
C1878 C1879 1.400 . S
C1879 C1878 1.400 . S
C1879 C1880 1.398 . S
C1879 C1885 1.491 . S
C1880 H1871 0.950 . S
C1880 C1879 1.398 . S
C1880 C1881 1.391 . S
C1881 H1869 0.950 . S
C1881 C1877 1.393 . S
C1881 C1880 1.391 . S
C1882 H1872 0.950 . S
C1882 C1883 1.386 . S
C1882 C1884 1.391 . S
C1883 C1882 1.386 . S
C1883 C1887 1.393 . S
C1884 H1873 0.950 . S
C1884 C1882 1.391 . S
C1884 C1885 1.400 . S
C1885 C1879 1.491 . S
C1885 C1884 1.400 . S
C1885 C1886 1.398 . S
C1886 H1874 0.950 . S
C1886 C1885 1.398 . S
C1886 C1887 1.391 . S
C1887 H1875 0.950 . S
C1887 C1883 1.393 . S
C1887 C1886 1.391 . S
H1888 C1896 0.950 . S
H1889 C1901 0.950 . S
H1890 C1898 0.950 . S
H1891 C1900 0.950 . S
H1892 C1902 0.950 . S
H1893 C1904 0.950 . S
H1894 C1906 0.950 . S
H1895 C1907 0.950 . S
C1896 H1888 0.950 . S
C1896 C1897 1.386 . S
C1896 C1898 1.391 . S
C1897 C1896 1.386 . S
C1897 C1901 1.393 . S
C1898 H1890 0.950 . S
C1898 C1896 1.391 . S
C1898 C1899 1.400 . S
C1899 C1898 1.400 . S
C1899 C1900 1.398 . S
C1899 C1905 1.491 . S
C1900 H1891 0.950 . S
C1900 C1899 1.398 . S
C1900 C1901 1.391 . S
C1901 H1889 0.950 . S
C1901 C1897 1.393 . S
C1901 C1900 1.391 . S
C1902 H1892 0.950 . S
C1902 C1903 1.386 . S
C1902 C1904 1.391 . S
C1903 C1902 1.386 . S
C1903 C1907 1.393 . S
C1904 H1893 0.950 . S
C1904 C1902 1.391 . S
C1904 C1905 1.400 . S
C1905 C1899 1.491 . S
C1905 C1904 1.400 . S
C1905 C1906 1.398 . S
C1906 H1894 0.950 . S
C1906 C1905 1.398 . S
C1906 C1907 1.391 . S
C1907 H1895 0.950 . S
C1907 C1903 1.393 . S
C1907 C1906 1.391 . S
H1908 C1916 0.950 . S
H1909 C1921 0.950 . S
H1910 C1918 0.950 . S
H1911 C1920 0.950 . S
H1912 C1922 0.950 . S
H1913 C1924 0.950 . S
H1914 C1926 0.950 . S
H1915 C1927 0.950 . S
C1916 H1908 0.950 . S
C1916 C1917 1.386 . S
C1916 C1918 1.391 . S
C1917 C1916 1.386 . S
C1917 C1921 1.393 . S
C1918 H1910 0.950 . S
C1918 C1916 1.391 . S
C1918 C1919 1.400 . S
C1919 C1918 1.400 . S
C1919 C1920 1.398 . S
C1919 C1925 1.491 . S
C1920 H1911 0.950 . S
C1920 C1919 1.398 . S
C1920 C1921 1.391 . S
C1921 H1909 0.950 . S
C1921 C1917 1.393 . S
C1921 C1920 1.391 . S
C1922 H1912 0.950 . S
C1922 C1923 1.386 . S
C1922 C1924 1.391 . S
C1923 C1922 1.386 . S
C1923 C1927 1.393 . S
C1924 H1913 0.950 . S
C1924 C1922 1.391 . S
C1924 C1925 1.400 . S
C1925 C1919 1.491 . S
C1925 C1924 1.400 . S
C1925 C1926 1.398 . S
C1926 H1914 0.950 . S
C1926 C1925 1.398 . S
C1926 C1927 1.391 . S
C1927 H1915 0.950 . S
C1927 C1923 1.393 . S
C1927 C1926 1.391 . S
H1928 C1936 0.950 . S
H1929 C1941 0.950 . S
H1930 C1938 0.950 . S
H1931 C1940 0.950 . S
H1932 C1942 0.950 . S
H1933 C1944 0.950 . S
H1934 C1946 0.950 . S
H1935 C1947 0.950 . S
C1936 H1928 0.950 . S
C1936 C1937 1.386 . S
C1936 C1938 1.391 . S
C1937 C1936 1.386 . S
C1937 C1941 1.393 . S
C1938 H1930 0.950 . S
C1938 C1936 1.391 . S
C1938 C1939 1.400 . S
C1939 C1938 1.400 . S
C1939 C1940 1.398 . S
C1939 C1945 1.491 . S
C1940 H1931 0.950 . S
C1940 C1939 1.398 . S
C1940 C1941 1.391 . S
C1941 H1929 0.950 . S
C1941 C1937 1.393 . S
C1941 C1940 1.391 . S
C1942 H1932 0.950 . S
C1942 C1943 1.386 . S
C1942 C1944 1.391 . S
C1943 C1942 1.386 . S
C1943 C1947 1.393 . S
C1944 H1933 0.950 . S
C1944 C1942 1.391 . S
C1944 C1945 1.400 . S
C1945 C1939 1.491 . S
C1945 C1944 1.400 . S
C1945 C1946 1.398 . S
C1946 H1934 0.950 . S
C1946 C1945 1.398 . S
C1946 C1947 1.391 . S
C1947 H1935 0.950 . S
C1947 C1943 1.393 . S
C1947 C1946 1.391 . S
H1948 C1956 0.950 . S
H1949 C1961 0.950 . S
H1950 C1958 0.950 . S
H1951 C1960 0.950 . S
H1952 C1962 0.950 . S
H1953 C1964 0.950 . S
H1954 C1966 0.950 . S
H1955 C1967 0.950 . S
C1956 H1948 0.950 . S
C1956 C1957 1.386 . S
C1956 C1958 1.391 . S
C1957 C1956 1.386 . S
C1957 C1961 1.393 . S
C1958 H1950 0.950 . S
C1958 C1956 1.391 . S
C1958 C1959 1.400 . S
C1959 C1958 1.400 . S
C1959 C1960 1.398 . S
C1959 C1965 1.491 . S
C1960 H1951 0.950 . S
C1960 C1959 1.398 . S
C1960 C1961 1.391 . S
C1961 H1949 0.950 . S
C1961 C1957 1.393 . S
C1961 C1960 1.391 . S
C1962 H1952 0.950 . S
C1962 C1963 1.386 . S
C1962 C1964 1.391 . S
C1963 C1962 1.386 . S
C1963 C1967 1.393 . S
C1964 H1953 0.950 . S
C1964 C1962 1.391 . S
C1964 C1965 1.400 . S
C1965 C1959 1.491 . S
C1965 C1964 1.400 . S
C1965 C1966 1.398 . S
C1966 H1954 0.950 . S
C1966 C1965 1.398 . S
C1966 C1967 1.391 . S
C1967 H1955 0.950 . S
C1967 C1963 1.393 . S
C1967 C1966 1.391 . S
C537 C7 0.877 . S
C543 C93 0.897 . S
C557 C29 0.842 . S
C563 C115 0.908 . S
C577 C141 0.903 . S
C583 C50 0.865 . S
C597 C72 0.857 . S
C603 C163 0.892 . S
C617 C95 0.843 . S
C623 C181 0.903 . S
C637 C117 0.886 . S
C643 C251 0.891 . S
C657 C138 0.885 . S
C663 C203 0.892 . S
C677 C160 0.879 . S
C683 C229 0.880 . S
C697 C183 0.845 . S
C703 C5 0.901 . S
C717 C53 0.909 . S
C723 C205 0.845 . S
C737 C75 0.906 . S
C743 C226 0.857 . S
C757 C248 0.849 . S
C763 C27 0.898 . S
C777 C358 0.896 . S
C783 C269 0.851 . S
C797 C291 0.898 . S
C803 C380 0.878 . S
C817 C317 0.889 . S
C823 C403 0.889 . S
C837 C425 0.876 . S
C843 C339 0.890 . S
C857 C361 0.855 . S
C863 C446 0.893 . S
C877 C383 0.878 . S
C883 C513 0.896 . S
C897 C468 0.883 . S
C903 C401 0.872 . S
C917 C491 0.882 . S
C923 C423 0.896 . S
C937 C449 0.844 . S
C943 C271 0.909 . S
C957 C314 0.889 . S
C963 C471 0.861 . S
C977 C489 0.844 . S
C983 C336 0.909 . S
C997 C293 0.897 . S
C1003 C511 0.877 . S
C1017 C207 0.782 1_554 S
C1023 C8 0.826 . S
C1037 C30 0.800 . S
C1043 C225 0.791 . S
C1057 C185 0.816 1_556 S
C1063 C48 0.785 . S
C1077 C70 0.801 . S
C1083 C247 0.806 . S
C1097 C96 0.812 . S
C1103 C71 0.798 1_455 S
C1117 C118 0.776 . S
C1123 C49 0.821 . S
C1137 C31 0.784 . S
C1143 C136 0.812 . S
C1157 C9 0.822 1_655 S
C1163 C158 0.774 . S
C1177 C119 0.774 1_545 S
C1183 C184 0.821 . S
C1197 C206 0.819 . S
C1203 C159 0.781 . S
C1217 C137 0.794 . S
C1223 C224 0.816 . S
C1237 C97 0.776 1_565 S
C1243 C246 0.818 . S
C1257 C469 0.801 1_556 S
C1263 C268 0.808 . S
C1277 C290 0.777 . S
C1283 C490 0.821 . S
C1297 C316 0.826 . S
C1303 C447 0.782 1_554 S
C1317 C338 0.761 . S
C1323 C512 0.822 . S
C1337 C337 0.782 1_655 S
C1343 C360 0.810 . S
C1357 C315 0.823 . S
C1363 C382 0.772 . S
C1377 C400 0.809 . S
C1383 C292 0.800 . S
C1397 C422 0.821 . S
C1403 C270 0.790 1_455 S
C1417 C381 0.792 1_565 S
C1423 C448 0.789 . S
C1437 C470 0.824 . S
C1443 C424 0.780 . S
C1457 C402 0.784 . S
C1463 C488 0.825 . S
C1477 C510 0.819 . S
C1483 C359 0.775 1_545 S
C1497 C4 1.163 . S
C1503 C427 1.182 . S
C1517 C26 1.168 . S
C1523 C405 1.195 . S
C1537 C379 1.206 . S
C1543 C52 1.143 . S
C1557 C357 1.187 . S
C1563 C74 1.171 . S
C1577 C515 1.205 . S
C1583 C92 1.146 . S
C1597 C114 1.139 . S
C1603 C445 1.205 . S
C1617 C140 1.171 . S
C1623 C493 1.192 . S
C1637 C162 1.167 . S
C1643 C467 1.197 . S
C1657 C313 1.182 . S
C1663 C180 1.162 . S
C1677 C273 1.189 . S
C1683 C202 1.172 . S
C1697 C295 1.183 . S
C1703 C228 1.155 . S
C1717 C335 1.205 . S
C1723 C250 1.147 . S
C1737 C161 1.196 . S
C1743 C272 1.133 . S
C1757 C139 1.193 . S
C1763 C294 1.134 . S
C1777 C116 1.195 . S
C1783 C312 1.133 . S
C1797 C94 1.205 . S
C1803 C334 1.147 . S
C1817 C356 1.139 . S
C1823 C249 1.205 . S
C1837 C378 1.148 . S
C1843 C182 1.205 . S
C1857 C404 1.167 . S
C1863 C227 1.197 . S
C1877 C426 1.155 . S
C1883 C204 1.203 . S
C1897 C444 1.157 . S
C1903 C51 1.203 . S
C1917 C6 1.198 . S
C1923 C466 1.165 . S
C1937 C28 1.191 . S
C1943 C492 1.171 . S
C1957 C73 1.202 . S
C1963 C514 1.133 . S
