# Generated by pormake.
# Topology sol, (6)-cn, num edge types: 1
# Building blocks:
#     Node 0, Type 0, BuildingBlock: IZENUY_clean_sbu_0, # of connection points: 6
#     Node 1, Type 0, BuildingBlock: IZENUY_clean_sbu_0, # of connection points: 6
#     Node 2, Type 0, BuildingBlock: IZENUY_clean_sbu_0, # of connection points: 6
#     Node 3, Type 0, BuildingBlock: IZENUY_clean_sbu_0, # of connection points: 6
#     Node 4, Type 0, BuildingBlock: IZENUY_clean_sbu_0, # of connection points: 6
#     Node 5, Type 0, BuildingBlock: IZENUY_clean_sbu_0, # of connection points: 6
#     Node 6, Type 0, BuildingBlock: IZENUY_clean_sbu_0, # of connection points: 6
#     Node 7, Type 0, BuildingBlock: IZENUY_clean_sbu_0, # of connection points: 6
#     Edge 8, Type (0, 0), BuildingBlock: EZIPEK_clean_linker_0, # of connection points: 2
#     Edge 9, Type (0, 0), BuildingBlock: EZIPEK_clean_linker_0, # of connection points: 2
#     Edge 10, Type (0, 0), BuildingBlock: EZIPEK_clean_linker_0, # of connection points: 2
#     Edge 11, Type (0, 0), BuildingBlock: EZIPEK_clean_linker_0, # of connection points: 2
#     Edge 12, Type (0, 0), BuildingBlock: EZIPEK_clean_linker_0, # of connection points: 2
#     Edge 13, Type (0, 0), BuildingBlock: EZIPEK_clean_linker_0, # of connection points: 2
#     Edge 14, Type (0, 0), BuildingBlock: EZIPEK_clean_linker_0, # of connection points: 2
#     Edge 15, Type (0, 0), BuildingBlock: EZIPEK_clean_linker_0, # of connection points: 2
#     Edge 16, Type (0, 0), BuildingBlock: EZIPEK_clean_linker_0, # of connection points: 2
#     Edge 17, Type (0, 0), BuildingBlock: EZIPEK_clean_linker_0, # of connection points: 2
#     Edge 18, Type (0, 0), BuildingBlock: EZIPEK_clean_linker_0, # of connection points: 2
#     Edge 19, Type (0, 0), BuildingBlock: EZIPEK_clean_linker_0, # of connection points: 2
#     Edge 20, Type (0, 0), BuildingBlock: EZIPEK_clean_linker_0, # of connection points: 2
#     Edge 21, Type (0, 0), BuildingBlock: EZIPEK_clean_linker_0, # of connection points: 2
#     Edge 22, Type (0, 0), BuildingBlock: EZIPEK_clean_linker_0, # of connection points: 2
#     Edge 23, Type (0, 0), BuildingBlock: EZIPEK_clean_linker_0, # of connection points: 2
#     Edge 24, Type (0, 0), BuildingBlock: EZIPEK_clean_linker_0, # of connection points: 2
#     Edge 25, Type (0, 0), BuildingBlock: EZIPEK_clean_linker_0, # of connection points: 2
#     Edge 26, Type (0, 0), BuildingBlock: EZIPEK_clean_linker_0, # of connection points: 2
#     Edge 27, Type (0, 0), BuildingBlock: EZIPEK_clean_linker_0, # of connection points: 2
#     Edge 28, Type (0, 0), BuildingBlock: EZIPEK_clean_linker_0, # of connection points: 2
#     Edge 29, Type (0, 0), BuildingBlock: EZIPEK_clean_linker_0, # of connection points: 2
#     Edge 30, Type (0, 0), BuildingBlock: EZIPEK_clean_linker_0, # of connection points: 2
#     Edge 31, Type (0, 0), BuildingBlock: EZIPEK_clean_linker_0, # of connection points: 2
# Relax obj value: 0.162
# Max RMSD: 0.159
# Mean RMSD: 0.159
data_MOF--net-sol--node1-IZENUY_clean_sbu_0--edge1-EZIPEK_clean_linker_0
_symmetry_space_group_name_H-M    P1
_symmetry_Int_Tables_number       1
_symmetry_cell_setting            triclinic
loop_
_symmetry_equiv_pos_as_xyz
'x, y, z'
_cell_length_a     26.018512
_cell_length_b     20.425657
_cell_length_c     20.957054
_cell_angle_alpha  90.110425
_cell_angle_beta   90.089734
_cell_angle_gamma 89.612587
loop_
_atom_site_label
_atom_site_type_symbol
_atom_site_fract_x
_atom_site_fract_y
_atom_site_fract_z
_atom_type_partial_charge
Fe0 Fe 0.17094 0.12942 0.1538 0.0
Fe1 Fe 0.248 0.2119 0.08025 0.0
O2 O 0.18347 0.18875 0.09444 0.0
Fe3 Fe 0.13217 0.22502 0.05054 0.0
O4 O 0.08745 0.22744 0.11843 0.0
O5 O 0.13236 0.18682 0.19828 0.0
O6 O 0.22589 0.15214 0.20538 0.0
C7 C 0.24881 0.20625 0.21165 0.0
C8 C 0.09432 0.09963 0.05997 0.0
O9 O 0.25521 0.24177 0.16279 0.0
C10 C 0.21064 0.20465 0.95667 0.0
O11 O 0.20932 0.06809 0.11205 0.0
O12 O 0.2761 0.132 0.1006 0.0
O13 O 0.10841 0.14522 1.02326 0.0
O14 O 0.11289 0.09597 0.11569 0.0
C15 C 0.19481 0.33129 0.06696 0.0
O16 O 0.24402 0.18516 0.99698 0.0
O17 O 0.16895 0.23034 0.97589 0.0
C18 C 0.25659 0.07556 0.10042 0.0
O19 O 0.23326 0.29522 0.05692 0.0
O20 O 0.15058 0.3076 0.07373 0.0
C21 C 0.09468 0.21953 0.17775 0.0
Fe22 Fe 0.38368 0.35693 0.66279 0.0
Fe23 Fe 0.3043 0.27762 0.58608 0.0
O24 O 0.36916 0.30114 0.60006 0.0
Fe25 Fe 0.4197 0.26812 0.55128 0.0
O26 O 0.46834 0.26737 0.61488 0.0
O27 O 0.4269 0.29822 0.70101 0.0
O28 O 0.33302 0.32861 0.7178 0.0
C29 C 0.30363 0.27947 0.71738 0.0
C30 C 0.45356 0.39509 0.56308 0.0
O31 O 0.29541 0.24784 0.66681 0.0
C32 C 0.33554 0.28078 0.46216 0.0
O33 O 0.34174 0.41985 0.62981 0.0
O34 O 0.27596 0.35689 0.6063 0.0
O35 O 0.44025 0.34948 0.52521 0.0
O36 O 0.43684 0.39641 0.61994 0.0
C37 C 0.36096 0.1596 0.57119 0.0
O38 O 0.30668 0.30539 0.50395 0.0
O39 O 0.37991 0.25975 0.47766 0.0
C40 C 0.29514 0.41278 0.61457 0.0
O41 O 0.32084 0.19358 0.5642 0.0
O42 O 0.40475 0.18507 0.57507 0.0
C43 C 0.46505 0.27051 0.67497 0.0
Fe44 Fe 0.69046 0.35451 0.89549 0.0
Fe45 Fe 0.7616 0.27145 0.97876 0.0
O46 O 0.6988 0.29757 0.95804 0.0
Fe47 Fe 0.64456 0.26711 0.99967 0.0
O48 O 0.6023 0.26775 0.92749 0.0
O49 O 0.65382 0.29738 0.85073 0.0
O50 O 0.74645 0.32445 0.84866 0.0
C51 C 0.77 0.26976 0.8494 0.0
C52 C 0.61317 0.39436 0.98518 0.0
O53 O 0.77365 0.23761 0.90034 0.0
C54 C 0.72277 0.27956 0.09747 0.0
O55 O 0.72771 0.41537 0.93692 0.0
O56 O 0.79275 0.34965 0.95798 0.0
O57 O 0.62418 0.34905 1.02393 0.0
O58 O 0.63197 0.39402 0.92925 0.0
C59 C 0.70162 0.15546 0.98979 0.0
O60 O 0.75399 0.30356 0.05857 0.0
O61 O 0.67936 0.25849 0.07782 0.0
C62 C 0.77419 0.40688 0.95145 0.0
O63 O 0.7416 0.18824 1.00227 0.0
O64 O 0.65947 0.18348 0.97873 0.0
C65 C 0.61511 0.2663 0.8687 0.0
Fe66 Fe 0.88491 0.13054 0.40234 0.0
Fe67 Fe 0.80686 0.20905 0.48073 0.0
O68 O 0.87157 0.18792 0.46332 0.0
Fe69 Fe 0.92307 0.22538 0.50532 0.0
O70 O 0.94858 0.26028 0.43216 0.0
O71 O 0.94461 0.16907 0.37697 0.0
O72 O 0.85263 0.18137 0.34342 0.0
C73 C 0.80661 0.20123 0.3458 0.0
C74 C 0.95914 0.09293 0.48737 0.0
O75 O 0.78251 0.19962 0.39821 0.0
C76 C 0.85529 0.20722 0.60332 0.0
O77 O 0.82719 0.08172 0.41554 0.0
O78 O 0.79138 0.12574 0.50063 0.0
O79 O 0.96685 0.15318 0.49955 0.0
O80 O 0.91879 0.07641 0.45785 0.0
C81 C 0.85173 0.32866 0.48755 0.0
O82 O 0.81885 0.2229 0.56604 0.0
O83 O 0.89991 0.1946 0.58205 0.0
C84 C 0.79733 0.07847 0.46283 0.0
O85 O 0.81812 0.2935 0.46189 0.0
O86 O 0.8895 0.30407 0.51734 0.0
C87 C 0.95915 0.22762 0.38283 0.0
Fe88 Fe 0.79405 0.76787 0.97076 0.0
Fe89 Fe 0.85916 0.87554 0.90794 0.0
O90 O 0.85449 0.80562 0.95775 0.0
Fe91 Fe 0.91102 0.77178 0.99267 0.0
O92 O 0.88917 0.68668 0.9927 0.0
O93 O 0.81742 0.69043 0.93837 0.0
O94 O 0.76747 0.78483 0.89124 0.0
C95 C 0.79009 0.79917 0.83998 0.0
C96 C 0.84278 0.7615 0.09256 0.0
O97 O 0.83081 0.83218 0.84077 0.0
C98 C 0.93144 0.91006 0.99608 0.0
O99 O 0.76631 0.84247 1.00384 0.0
O100 O 0.79693 0.90942 0.93098 0.0
O101 O 0.88582 0.78392 0.074 0.0
O102 O 0.80904 0.74374 0.05262 0.0
C103 C 0.94542 0.79914 0.87141 0.0
O104 O 0.88843 0.92459 0.9715 0.0
O105 O 0.94544 0.85049 0.99877 0.0
C106 C 0.76706 0.89756 0.97686 0.0
O107 O 0.92248 0.85383 0.87515 0.0
O108 O 0.93823 0.75592 0.9136 0.0
C109 C 0.8559 0.6587 0.95876 0.0
Fe110 Fe 0.75424 0.71436 0.47398 0.0
Fe111 Fe 0.67907 0.62928 0.39742 0.0
O112 O 0.69034 0.68867 0.4579 0.0
Fe113 Fe 0.63818 0.72396 0.50151 0.0
O114 O 0.66808 0.80494 0.51009 0.0
O115 O 0.73861 0.79707 0.45261 0.0
O116 O 0.77888 0.70365 0.3924 0.0
C117 C 0.75535 0.70169 0.33976 0.0
C118 C 0.70868 0.71425 0.59751 0.0
O119 O 0.71076 0.67825 0.33656 0.0
C120 C 0.60658 0.5904 0.4851 0.0
O121 O 0.77348 0.63291 0.49663 0.0
O122 O 0.7377 0.58245 0.41466 0.0
O123 O 0.66482 0.69669 0.57799 0.0
O124 O 0.74301 0.7312 0.55845 0.0
C125 C 0.59974 0.72226 0.37929 0.0
O126 O 0.64522 0.57475 0.45178 0.0
O127 O 0.59791 0.64964 0.50018 0.0
C128 C 0.76763 0.58297 0.46229 0.0
O129 O 0.61918 0.66627 0.37034 0.0
O130 O 0.60853 0.75503 0.42908 0.0
C131 C 0.70411 0.83096 0.4788 0.0
Fe132 Fe 0.38528 0.62134 0.15389 0.0
Fe133 Fe 0.42241 0.72231 0.05471 0.0
O134 O 0.37168 0.68218 0.09592 0.0
Fe135 Fe 0.30682 0.70504 0.08101 0.0
O136 O 0.28296 0.68959 0.16182 0.0
O137 O 0.35268 0.66824 0.21593 0.0
O138 O 0.44431 0.65931 0.18219 0.0
C139 C 0.46076 0.71704 0.17684 0.0
C140 C 0.29642 0.57341 0.08967 0.0
O141 O 0.4504 0.75157 0.12878 0.0
C142 C 0.35256 0.71285 0.95802 0.0
O143 O 0.42046 0.57029 0.09669 0.0
O144 O 0.46547 0.64954 0.05273 0.0
O145 O 0.29053 0.62346 0.05538 0.0
O146 O 0.32753 0.57274 0.1363 0.0
C147 C 0.35156 0.82479 0.08214 0.0
O148 O 0.39726 0.69738 0.97679 0.0
O149 O 0.31752 0.72627 0.99769 0.0
C150 C 0.45845 0.5891 0.06389 0.0
O151 O 0.38933 0.80251 0.05048 0.0
O152 O 0.31891 0.78726 0.10613 0.0
C153 C 0.30722 0.68985 0.21386 0.0
Fe154 Fe 0.14629 0.76777 0.55606 0.0
Fe155 Fe 0.26287 0.77044 0.58492 0.0
O156 O 0.19958 0.80121 0.59847 0.0
Fe157 Fe 0.18863 0.8648 0.65478 0.0
O158 O 0.14527 0.81474 0.70065 0.0
O159 O 0.09881 0.78224 0.61954 0.0
O160 O 0.15748 0.68758 0.59144 0.0
C161 C 0.20033 0.65815 0.59226 0.0
C162 C 0.11983 0.89771 0.55192 0.0
O163 O 0.2416 0.68617 0.57628 0.0
C164 C 0.27667 0.90769 0.59633 0.0
O165 O 0.18275 0.74446 0.48395 0.0
O166 O 0.25939 0.78549 0.49973 0.0
O167 O 0.13502 0.9021 0.60947 0.0
O168 O 0.13165 0.8474 0.51923 0.0
C169 C 0.26686 0.78789 0.71499 0.0
O170 O 0.29444 0.85001 0.59299 0.0
O171 O 0.23115 0.9196 0.61341 0.0
C172 C 0.22653 0.7604 0.46322 0.0
O173 O 0.27322 0.75091 0.66784 0.0
O174 O 0.23975 0.83942 0.711 0.0
C175 C 0.1047 0.79018 0.67891 0.0
C176 C 0.07585 0.26864 0.28468 0.0
C177 C 0.05695 0.24401 0.22552 0.0
C178 C 0.9702 0.25197 0.26877 0.0
C179 C 0.99084 0.25489 0.33095 0.0
N180 N 0.06427 0.27078 0.39934 0.0
N181 N 0.98288 0.20812 0.1635 0.0
C182 C 0.04389 0.26623 0.33946 0.0
C183 C 1.00302 0.23598 0.21725 0.0
N184 N 0.12411 0.29417 0.28836 0.0
N185 N 0.91911 0.26373 0.25957 0.0
H186 H 1.00468 0.19103 0.12542 0.0
H187 H 0.94414 0.19599 0.15956 0.0
H188 H 0.89579 0.27989 0.297 0.0
H189 H 0.90222 0.26599 0.21446 0.0
H190 H 0.13799 0.3179 0.32887 0.0
H191 H 0.14847 0.2966 0.249 0.0
H192 H 0.10369 0.27162 0.40813 0.0
H193 H 0.04172 0.27076 0.44038 0.0
C194 C 0.56097 0.26083 0.70334 0.0
C195 C 0.50852 0.24714 0.71628 0.0
C196 C 0.53085 0.21642 0.82605 0.0
C197 C 0.5809 0.24123 0.81619 0.0
N198 N 0.64814 0.23831 0.7366 0.0
N199 N 0.45864 0.16775 0.77178 0.0
C200 C 0.5977 0.24811 0.75183 0.0
C201 C 0.49723 0.21214 0.77273 0.0
N202 N 0.57652 0.2864 0.64648 0.0
N203 N 0.51565 0.19451 0.88436 0.0
H204 H 0.43785 0.15917 0.7301 0.0
H205 H 0.45261 0.13435 0.80855 0.0
H206 H 0.54123 0.18595 0.92173 0.0
H207 H 0.47741 0.1834 0.89432 0.0
H208 H 0.61355 0.3043 0.63958 0.0
H209 H 0.55275 0.29329 0.60722 0.0
H210 H 0.67457 0.22121 0.77012 0.0
H211 H 0.66172 0.23775 0.68982 0.0
C212 C 0.9753 0.81872 0.75806 0.0
C213 C 0.98388 0.78914 0.81894 0.0
C214 C 0.06416 0.74289 0.77655 0.0
C215 C 0.06029 0.78389 0.72247 0.0
N216 N 1.01361 0.86919 0.66652 0.0
N217 N 0.04531 0.73391 0.88854 0.0
C218 C 1.01629 0.82404 0.71441 0.0
C219 C 0.03052 0.75345 0.82894 0.0
N220 N 0.92764 0.8395 0.73983 0.0
N221 N 0.09932 0.69312 0.77748 0.0
H222 H 1.02557 0.74641 0.92998 0.0
H223 H 0.08108 0.71247 0.89752 0.0
H224 H 0.123 0.68301 0.73849 0.0
H225 H 0.10076 0.65826 0.81375 0.0
H226 H 0.91895 0.85472 0.69356 0.0
H227 H 0.89548 0.83344 0.76762 0.0
H228 H 0.98531 0.90554 0.66451 0.0
H229 H 0.04141 0.87389 0.63158 0.0
C230 C 0.58218 0.75672 0.26843 0.0
C231 C 0.56331 0.74619 0.33086 0.0
C232 C 0.47562 0.74762 0.29008 0.0
C233 C 0.49527 0.74175 0.22724 0.0
N234 N 0.56762 0.74149 0.15524 0.0
N235 N 0.49196 0.73223 0.40276 0.0
C236 C 0.54865 0.7481 0.21568 0.0
C237 C 0.50986 0.74333 0.34251 0.0
N238 N 0.63228 0.77421 0.2601 0.0
N239 N 0.42426 0.75749 0.29925 0.0
H240 H 0.51587 0.73056 0.44269 0.0
H241 H 0.45376 0.7212 0.41266 0.0
H242 H 0.39904 0.76345 0.26111 0.0
H243 H 0.40789 0.76709 0.34365 0.0
H244 H 0.6568 0.78236 0.29874 0.0
H245 H 0.64773 0.78721 0.21613 0.0
H246 H 0.60671 0.73773 0.14516 0.0
H247 H 0.54417 0.73586 0.11526 0.0
C248 C 1.01013 0.07084 1.00133 0.0
C249 C 0.05238 0.05204 0.04096 0.0
C250 C 1.00676 0.94917 0.0629 0.0
C251 C 0.97002 0.96233 1.01415 0.0
N252 N 0.94861 0.03225 0.92391 0.0
N253 N 0.09556 0.96128 0.09332 0.0
C254 C 0.97487 0.02221 0.97954 0.0
C255 C 0.05207 0.98766 0.06707 0.0
N256 N 1.00152 0.13502 0.9864 0.0
N257 N 0.9981 0.90123 0.10682 0.0
H258 H 0.13111 0.98437 0.09151 0.0
H259 H 0.09759 0.91281 0.10875 0.0
H260 H 0.96364 0.87558 0.1091 0.0
H261 H 1.02237 0.89338 0.14577 0.0
H262 H 0.96865 0.15055 0.96203 0.0
H263 H 1.02296 0.17339 1.00504 0.0
H264 H 0.95473 0.07317 0.89528 0.0
H265 H 0.92619 -0.00318 0.90186 0.0
C266 C 0.56836 0.51508 0.56773 0.0
C267 C 0.56858 0.53901 0.50435 0.0
C268 C 0.48997 0.47555 0.4819 0.0
C269 C 0.49297 0.44547 0.54307 0.0
N270 N 0.54213 0.4307 0.64093 0.0
N271 N 0.5337 0.53464 0.39778 0.0
C272 C 0.53393 0.46392 0.58524 0.0
C273 C 0.53078 0.51667 0.4604 0.0
N274 N 0.60102 0.54154 0.61184 0.0
N275 N 0.44655 0.46861 0.44576 0.0
H276 H 0.56191 0.56579 0.38045 0.0
H277 H 0.51087 0.51426 0.36212 0.0
H278 H 0.41447 0.44279 0.46115 0.0
H279 H 0.43985 0.49458 0.40381 0.0
H280 H 0.59802 0.53307 0.66069 0.0
H281 H 0.62891 0.57592 0.60029 0.0
H282 H 0.57494 0.43634 0.66888 0.0
H283 H 0.51937 0.39263 0.65688 0.0
C284 C 0.49049 0.50183 0.98708 0.0
C285 C 0.49847 0.54002 0.04288 0.0
C286 C 0.58408 0.48817 0.05614 0.0
C287 C 0.57408 0.44568 1.00386 0.0
N288 N 0.51417 0.40589 0.92489 0.0
N289 N 0.55068 0.56448 0.13496 0.0
C290 C 0.52638 0.4511 0.97054 0.0
C291 C 0.54474 0.53178 0.07854 0.0
N292 N 0.44914 0.51522 0.94883 0.0
N293 N 0.63206 0.48874 0.08291 0.0
H294 H 0.52383 0.5981 0.15199 0.0
H295 H 0.58025 0.55494 0.16721 0.0
H296 H 0.66184 0.45804 0.0677 0.0
H297 H 0.64391 0.52333 0.11627 0.0
H298 H 0.44395 0.49455 0.90385 0.0
H299 H 0.42199 0.55133 0.95977 0.0
H300 H 0.47792 0.40235 0.9041 0.0
H301 H 0.5389 0.36812 0.9113 0.0
C302 C 0.03688 0.05272 0.55185 0.0
C303 C 1.00093 0.04259 0.50152 0.0
C304 C 0.04042 0.93352 0.48526 0.0
C305 C 0.08131 0.94851 0.52832 0.0
N306 N 0.12517 0.03631 0.58352 0.0
N307 N 0.98452 0.97967 0.405 0.0
C308 C 0.08171 0.01251 0.55555 0.0
C309 C 1.00734 0.98496 0.46346 0.0
N310 N 1.02773 0.09813 0.59841 0.0
N311 N 0.03045 0.87063 0.4672 0.0
H312 H 0.96543 0.01834 0.38274 0.0
H313 H 0.99137 0.93991 0.37479 0.0
H314 H 0.04923 0.82993 0.48596 0.0
H315 H 0.99843 0.85861 0.43965 0.0
H316 H 0.05185 0.10341 0.63788 0.0
H317 H 0.99306 0.12355 0.60257 0.0
H318 H 0.12766 0.08432 0.60029 0.0
H319 H 0.16028 0.01148 0.5818 0.0
C320 C 0.33868 0.93782 0.03522 0.0
C321 C 0.34162 0.89579 0.08885 0.0
C322 C 0.29558 0.97658 0.15374 0.0
C323 C 0.29135 0.01771 0.09949 0.0
N324 N 0.33227 0.05004 1.00114 0.0
N325 N 0.34219 0.88701 0.20326 0.0
C326 C 0.3205 0.00266 0.04419 0.0
C327 C 0.3263 0.91921 0.14964 0.0
N328 N 0.34972 0.91566 0.97522 0.0
N329 N 0.27065 0.99208 0.20906 0.0
H330 H 0.36651 0.84633 0.20081 0.0
H331 H 0.33596 0.90436 0.24939 0.0
H332 H 0.25039 0.03561 0.21557 0.0
H333 H 0.26836 0.96038 0.24773 0.0
H334 H 0.34248 0.94353 0.93448 0.0
H335 H 0.36193 0.86816 0.96527 0.0
H336 H 0.35783 0.04186 0.96364 0.0
H337 H 0.32203 0.09891 1.00759 0.0
C338 C 0.19862 0.542 0.55904 0.0
C339 C 0.20436 0.58816 0.60842 0.0
C340 C 0.2551 0.5092 0.66985 0.0
C341 C 0.26033 0.47042 0.61392 0.0
N342 N 0.2374 0.45065 0.50355 0.0
N343 N 0.23207 0.61489 0.71433 0.0
C344 C 0.23116 0.48601 0.55836 0.0
C345 C 0.23011 0.57088 0.66543 0.0
N346 N 0.16311 0.55293 0.51222 0.0
N347 N 0.2729 0.48651 0.72714 0.0
H348 H 0.21071 0.65822 0.71322 0.0
H349 H 0.25571 0.60948 0.75411 0.0
H350 H 0.29043 0.44086 0.73231 0.0
H351 H 0.26602 0.50994 0.77048 0.0
H352 H 0.15405 0.51855 0.47726 0.0
H353 H 0.13944 0.5944 0.51235 0.0
H354 H 0.22088 0.46379 0.46009 0.0
H355 H 0.26286 0.41146 0.49994 0.0
C356 C 0.83829 0.4828 1.00257 0.0
C357 C 0.80888 0.46394 0.94834 0.0
C358 C 0.83825 0.56137 0.89181 0.0
C359 C 0.85682 0.58623 0.94973 0.0
N360 N 0.90417 0.55495 0.0438 0.0
N361 N 0.7859 0.48221 0.83736 0.0
C362 C 0.86629 0.54229 1.00052 0.0
C363 C 0.81101 0.50178 0.8913 0.0
N364 N 0.83672 0.44674 0.05733 0.0
N365 N 0.85081 0.59294 0.83697 0.0
H366 H 0.76864 0.43682 0.83279 0.0
H367 H 0.78051 0.51214 0.79771 0.0
H368 H 0.87647 0.63192 0.83839 0.0
H369 H 0.84256 0.57547 0.79142 0.0
H370 H 0.85222 0.4628 0.10043 0.0
H371 H 0.81688 0.40283 0.06097 0.0
H372 H 0.91558 0.52176 0.07882 0.0
H373 H 0.9283 0.5952 0.03977 0.0
C374 C 0.72813 0.00323 0.42567 0.0
C375 C 0.7664 0.0195 0.47134 0.0
C376 C 0.74456 0.92372 0.53414 0.0
C377 C 0.71348 0.90143 0.4833 0.0
N378 N 0.67472 0.91793 0.38032 0.0
N379 N 0.81784 0.98924 0.56275 0.0
C380 C 0.70444 0.94102 0.42914 0.0
C381 C 0.77612 0.97865 0.52446 0.0
N382 N 0.71426 0.04728 0.37966 0.0
N383 N 0.74439 0.89173 0.59119 0.0
H384 H 0.8439 0.02695 0.55478 0.0
H385 H 0.82947 0.95686 0.59839 0.0
H386 H 0.71999 0.85263 0.59975 0.0
H387 H 0.76349 0.90876 0.63163 0.0
H388 H 0.68347 0.04044 0.34862 0.0
H389 H 0.73099 0.09327 0.37573 0.0
H390 H 0.67188 0.94051 0.33594 0.0
H391 H 0.65453 0.87408 0.38364 0.0
C392 C 0.72577 0.05547 0.05188 0.0
C393 C 0.70328 0.08321 0.99639 0.0
C394 C 0.69572 0.97326 0.95191 0.0
C395 C 0.73226 0.95094 0.9967 0.0
N396 N 0.77917 0.96824 0.09416 0.0
N397 N 0.66323 0.06631 0.89308 0.0
C398 C 0.74566 0.99083 0.04906 0.0
C399 C 0.6859 0.0414 0.9467 0.0
N400 N 0.72607 0.08993 0.10757 0.0
N401 N 0.67066 0.92888 0.91485 0.0
H402 H 0.65552 0.11593 0.88658 0.0
H403 H 0.65529 0.03786 0.85298 0.0
H404 H 0.67704 0.87863 0.92032 0.0
H405 H 0.64048 0.94145 0.88438 0.0
H406 H 0.73777 0.06968 0.15086 0.0
H407 H 0.7081 0.13551 0.11144 0.0
H408 H 0.79478 -0.002 0.12957 0.0
H409 H 0.79266 0.92005 0.09414 0.0
C410 C 0.7817 0.48338 0.52802 0.0
C411 C 0.7972 0.52364 0.47674 0.0
C412 C 0.85689 0.43952 0.43903 0.0
C413 C 0.84145 0.39928 0.49039 0.0
N414 N 0.8003 0.3882 0.59269 0.0
N415 N 0.858 0.54869 0.3939 0.0
C416 C 0.80773 0.42327 0.53814 0.0
C417 C 0.83773 0.5045 0.43559 0.0
N418 N 0.74008 0.5005 0.56438 0.0
N419 N 0.88791 0.41467 0.39219 0.0
H420 H 0.84507 0.59707 0.39131 0.0
H421 H 0.89048 0.53934 0.36629 0.0
H422 H 0.90406 0.36791 0.39454 0.0
H423 H 0.89534 0.43889 0.34954 0.0
H424 H 0.7233 0.46938 0.59755 0.0
H425 H 0.71974 0.54421 0.55819 0.0
H426 H 0.77996 0.40596 0.63191 0.0
H427 H 0.81888 0.34381 0.60106 0.0
C428 C 0.23142 0.42726 1.01297 0.0
C429 C 0.20378 0.40252 0.06568 0.0
C430 C 0.22589 0.49988 0.12759 0.0
C431 C 0.26198 0.51711 0.07964 0.0
N432 N 0.30241 0.49409 0.97834 0.0
N433 N 0.17193 0.41557 0.17272 0.0
C434 C 0.26505 0.4807 1.02212 0.0
C435 C 0.19932 0.43957 0.12253 0.0
N436 N 0.22587 0.39843 0.95452 0.0
N437 N 0.2163 0.54163 0.17723 0.0
H438 H 0.14863 0.37455 0.16866 0.0
H439 H 0.17344 0.43505 0.21864 0.0
H440 H 0.23473 0.58633 0.18233 0.0
H441 H 0.18695 0.53483 0.21022 0.0
H442 H 0.24186 0.41703 0.91283 0.0
H443 H 0.20056 0.35969 0.94716 0.0
H444 H 0.30971 0.46484 0.93858 0.0
H445 H 0.32922 0.53127 0.98462 0.0
C446 C 0.32292 0.98834 0.52754 0.0
C447 C 0.31152 0.96363 0.58905 0.0
C448 C 0.34386 0.06296 0.63912 0.0
C449 C 0.35433 0.08863 0.57785 0.0
N450 N 0.36441 0.07301 0.46481 0.0
N451 N 0.3252 0.96761 0.70273 0.0
C452 C 0.34773 0.04996 0.52229 0.0
C453 C 0.32696 -0.00231 0.64464 0.0
N454 N 0.30771 0.95446 0.47457 0.0
N455 N 0.3464 0.10246 0.69166 0.0
H456 H 0.313 0.91957 0.70815 0.0
H457 H 0.34065 0.9877 0.7442 0.0
H458 H 0.35871 0.15076 0.68934 0.0
H459 H 0.33282 0.08901 0.73644 0.0
H460 H 0.30952 0.97286 0.42837 0.0
H461 H 0.29102 0.90829 0.47724 0.0
H462 H 0.36426 0.04562 0.42289 0.0
H463 H 0.38237 0.1183 0.46021 0.0
C464 C 0.19893 0.25307 0.84379 0.0
C465 C 0.22583 0.21133 0.88726 0.0
C466 C 0.30116 0.21386 0.81837 0.0
C467 C 0.27692 0.25913 0.77716 0.0
N468 N 0.20333 0.32637 0.75224 0.0
N469 N 0.28725 0.12367 0.88958 0.0
C470 C 0.22564 0.27967 0.78998 0.0
C471 C 0.27258 0.18327 0.86689 0.0
N472 N 0.14707 0.26168 0.84999 0.0
N473 N 0.35254 0.20275 0.81409 0.0
H474 H 0.26301 0.09651 0.91891 0.0
H475 H 0.31889 0.09811 0.87148 0.0
H476 H 0.37519 0.22835 0.78195 0.0
H477 H 0.37247 0.17478 0.8477 0.0
H478 H 0.12453 0.28854 0.8183 0.0
H479 H 0.1251 0.23375 0.88112 0.0
H480 H 0.16856 0.3494 0.76273 0.0
H481 H 0.22172 0.346 0.71257 0.0
C482 C 0.32103 0.25473 0.28057 0.0
C483 C 0.27178 0.22447 0.27604 0.0
C484 C 0.26696 0.22637 0.39411 0.0
C485 C 0.31288 0.26389 0.39787 0.0
N486 N 0.37908 0.3227 0.34265 0.0
N487 N 0.19545 0.18824 0.33282 0.0
C488 C 0.33854 0.2806 0.34043 0.0
C489 C 0.24443 0.21187 0.33389 0.0
N490 N 0.35302 0.25469 0.22893 0.0
N491 N 0.24497 0.20134 0.44795 0.0
H492 H 0.17687 0.17109 0.29283 0.0
H493 H 0.17105 0.18965 0.3722 0.0
H494 H 0.25322 0.21646 0.49389 0.0
H495 H 0.21926 0.1624 0.44704 0.0
H496 H 0.39099 0.27042 0.23105 0.0
H497 H 0.34415 0.23137 0.1861 0.0
H498 H 0.39586 0.34251 0.30198 0.0
H499 H 0.39267 0.34278 0.3852 0.0
C500 C 0.74377 0.27216 0.27939 0.0
C501 C 0.77981 0.21918 0.28437 0.0
C502 C 0.7842 0.21471 0.16788 0.0
C503 C 0.74294 0.26085 0.16222 0.0
N504 N 0.67874 0.32708 0.21484 0.0
N505 N 0.81694 0.12524 0.23103 0.0
C506 C 0.72079 0.28692 0.21879 0.0
C507 C 0.79462 0.18594 0.22791 0.0
N508 N 0.73361 0.31122 0.33082 0.0
N509 N 0.81439 0.19802 0.11704 0.0
H510 H 0.82005 0.09894 0.2735 0.0
H511 H 0.82574 0.09757 0.1906 0.0
H512 H 0.81144 0.21888 0.07215 0.0
H513 H 0.84713 0.16867 0.12181 0.0
H514 H 0.71215 0.35436 0.32772 0.0
H515 H 0.75043 0.30456 0.3753 0.0
H516 H 0.65766 0.34183 0.25465 0.0
H517 H 0.6629 0.34198 0.17142 0.0
C518 C 0.8081 0.17103 0.70134 0.0
C519 C 0.84503 0.21304 0.67333 0.0
C520 C 0.83978 0.28574 0.76726 0.0
C521 C 0.79906 0.24715 0.79179 0.0
N522 N 0.75497 0.14349 0.79232 0.0
N523 N 0.89859 0.30859 0.6801 0.0
C524 C 0.78673 0.18658 0.76214 0.0
C525 C 0.86244 0.26915 0.7072 0.0
N526 N 0.79147 0.11779 0.66781 0.0
N527 N 0.85832 0.33645 0.8031 0.0
H528 H 0.91834 0.29599 0.63865 0.0
H529 H 0.90813 0.35486 0.69692 0.0
H530 H 0.84382 0.34836 0.84797 0.0
H531 H 0.89057 0.36369 0.79152 0.0
H532 H 0.75968 0.08993 0.68017 0.0
H533 H 0.80867 0.10308 0.62532 0.0
H534 H 0.74936 0.09545 0.7774 0.0
H535 H 0.73622 0.15412 0.83496 0.0
C536 C 0.82427 0.79593 0.20646 0.0
C537 C 0.83223 0.74522 0.16115 0.0
C538 C 0.79884 0.66512 0.23873 0.0
C539 C 0.7836 0.71696 0.27959 0.0
N540 N 0.77669 0.83297 0.29943 0.0
N541 N 0.82487 0.6309 0.13349 0.0
C542 C 0.79553 0.78274 0.2631 0.0
C543 C 0.81924 0.6796 0.17752 0.0
N544 N 0.84359 0.8568 0.19513 0.0
N545 N 0.79482 0.6017 0.25882 0.0
H546 H 0.84324 0.63845 0.09037 0.0
H547 H 0.80914 0.5844 0.13818 0.0
H548 H 0.77887 0.58879 0.30251 0.0
H549 H 0.81118 0.56209 0.23474 0.0
H550 H 0.8432 0.8944 0.22875 0.0
H551 H 0.86433 0.86797 0.15411 0.0
H552 H 0.77913 0.88207 0.28661 0.0
H553 H 0.75426 0.82517 0.33968 0.0
C554 C 0.71951 0.80145 0.75702 0.0
C555 C 0.76772 0.77662 0.778 0.0
C556 C 0.76839 0.69862 0.68875 0.0
C557 C 0.72097 0.72438 0.66647 0.0
N558 N 0.64613 0.79205 0.68578 0.0
N559 N 0.8437 0.71306 0.75455 0.0
C560 C 0.6946 0.77282 0.70297 0.0
C561 C 0.79365 0.72821 0.74143 0.0
N562 N 0.70046 0.85704 0.78476 0.0
N563 N 0.78834 0.64377 0.66045 0.0
H564 H 0.86327 0.73149 0.79393 0.0
H565 H 0.86703 0.68579 0.72397 0.0
H566 H 0.76943 0.61973 0.62342 0.0
H567 H 0.82017 0.61824 0.67785 0.0
H568 H 0.66796 0.88217 0.76898 0.0
H569 H 0.72111 0.88257 0.81929 0.0
H570 H 0.62285 0.82213 0.71373 0.0
H571 H 0.627 0.77368 0.64607 0.0
C572 C 0.34498 0.77927 0.78692 0.0
C573 C 0.29161 0.7691 0.77636 0.0
C574 C 0.28901 0.70072 0.87128 0.0
C575 C 0.33878 0.72129 0.88938 0.0
N576 N 0.41279 0.78846 0.86576 0.0
N577 N 0.21076 0.73205 0.81868 0.0
C578 C 0.36692 0.76239 0.84734 0.0
C579 C 0.263 0.73352 0.82163 0.0
N580 N 0.3747 0.8049 0.73965 0.0
N581 N 0.26667 0.64903 0.90129 0.0
H582 H 0.19021 0.75701 0.78386 0.0
H583 H 0.18825 0.71172 0.8546 0.0
H584 H 0.28643 0.62151 0.93524 0.0
H585 H 0.23182 0.629 0.88659 0.0
H586 H 0.41462 0.80743 0.74268 0.0
H587 H 0.35982 0.81869 0.6954 0.0
H588 H 0.43144 0.82464 0.83975 0.0
H589 H 0.43053 0.77783 0.90905 0.0
C590 C 0.24245 0.78761 0.34791 0.0
C591 C 0.24225 0.74072 0.39744 0.0
C592 C 0.27995 0.65857 0.3247 0.0
C593 C 0.27987 0.70545 0.27481 0.0
N594 N 0.24536 0.80789 0.23452 0.0
N595 N 0.24949 0.62752 0.4289 0.0
C596 C 0.25637 0.76797 0.28493 0.0
C597 C 0.25775 0.67503 0.3846 0.0
N598 N 0.22985 0.85129 0.36114 0.0
N599 N 0.30055 0.5976 0.31465 0.0
H600 H 0.23272 0.63753 0.47247 0.0
H601 H 0.25443 0.57765 0.42052 0.0
H602 H 0.30989 0.5796 0.26954 0.0
H603 H 0.3098 0.5652 0.35127 0.0
H604 H 0.23544 0.88948 0.32915 0.0
H605 H 0.21692 0.86681 0.40582 0.0
H606 H 0.22333 0.85044 0.23849 0.0
H607 H 0.25303 0.79541 0.18754 0.0
loop_
_geom_bond_atom_site_label_1
_geom_bond_atom_site_label_2
_geom_bond_distance
_geom_bond_site_symmetry_2
_ccdc_geom_bond_type
Fe0 O2 1.918 . S
Fe0 O5 1.997 . S
Fe0 O6 2.002 . S
Fe0 O11 1.976 . S
Fe0 O14 1.996 . S
Fe1 O2 1.918 . S
Fe1 O9 1.997 . S
Fe1 O12 1.996 . S
Fe1 O16 1.976 . S
Fe1 O19 2.002 . S
O2 Fe0 1.918 . S
O2 Fe1 1.918 . S
O2 Fe3 1.918 . S
Fe3 O2 1.918 . S
Fe3 O4 2.002 . S
Fe3 O13 1.976 . S
Fe3 O17 1.996 1_554 S
Fe3 O20 1.997 . S
O4 Fe3 2.002 . S
O4 C21 1.295 . S
O5 Fe0 1.997 . S
O5 C21 1.235 . S
O6 Fe0 2.002 . S
O6 C7 1.295 . S
C7 O6 1.295 . S
C7 O9 1.235 . S
C8 O13 1.287 . S
C8 O14 1.255 . S
O9 Fe1 1.997 . S
O9 C7 1.235 . S
C10 O16 1.287 1_556 S
C10 O17 1.255 . S
O11 Fe0 1.976 . S
O11 C18 1.287 . S
O12 Fe1 1.996 . S
O12 C18 1.255 . S
O13 Fe3 1.976 . S
O13 C8 1.287 . S
O14 Fe0 1.996 . S
O14 C8 1.255 . S
C15 O19 1.295 . S
C15 O20 1.235 . S
O16 Fe1 1.976 . S
O16 C10 1.287 1_554 S
O17 Fe3 1.996 1_556 S
O17 C10 1.255 . S
C18 O11 1.287 . S
C18 O12 1.255 . S
O19 Fe1 2.002 . S
O19 C15 1.295 . S
O20 Fe3 1.997 . S
O20 C15 1.235 . S
C21 O4 1.295 . S
C21 O5 1.235 . S
Fe22 O24 1.918 . S
Fe22 O27 1.997 . S
Fe22 O28 2.002 . S
Fe22 O33 1.976 . S
Fe22 O36 1.996 . S
Fe23 O24 1.918 . S
Fe23 O31 1.997 . S
Fe23 O34 1.996 . S
Fe23 O38 1.976 . S
Fe23 O41 2.002 . S
O24 Fe22 1.918 . S
O24 Fe23 1.918 . S
O24 Fe25 1.918 . S
Fe25 O24 1.918 . S
Fe25 O26 2.002 . S
Fe25 O35 1.976 . S
Fe25 O39 1.996 . S
Fe25 O42 1.997 . S
O26 Fe25 2.002 . S
O26 C43 1.295 . S
O27 Fe22 1.997 . S
O27 C43 1.235 . S
O28 Fe22 2.002 . S
O28 C29 1.295 . S
C29 O28 1.295 . S
C29 O31 1.235 . S
C30 O35 1.287 . S
C30 O36 1.255 . S
O31 Fe23 1.997 . S
O31 C29 1.235 . S
C32 O38 1.287 . S
C32 O39 1.255 . S
O33 Fe22 1.976 . S
O33 C40 1.287 . S
O34 Fe23 1.996 . S
O34 C40 1.255 . S
O35 Fe25 1.976 . S
O35 C30 1.287 . S
O36 Fe22 1.996 . S
O36 C30 1.255 . S
C37 O41 1.295 . S
C37 O42 1.235 . S
O38 Fe23 1.976 . S
O38 C32 1.287 . S
O39 Fe25 1.996 . S
O39 C32 1.255 . S
C40 O33 1.287 . S
C40 O34 1.255 . S
O41 Fe23 2.002 . S
O41 C37 1.295 . S
O42 Fe25 1.997 . S
O42 C37 1.235 . S
C43 O26 1.295 . S
C43 O27 1.235 . S
Fe44 O46 1.918 . S
Fe44 O49 1.997 . S
Fe44 O50 2.002 . S
Fe44 O55 1.976 . S
Fe44 O58 1.996 . S
Fe45 O46 1.918 . S
Fe45 O53 1.997 . S
Fe45 O56 1.996 . S
Fe45 O60 1.976 . S
Fe45 O63 2.002 . S
O46 Fe44 1.918 . S
O46 Fe45 1.918 . S
O46 Fe47 1.918 . S
Fe47 O46 1.918 . S
Fe47 O48 2.002 . S
Fe47 O57 1.976 . S
Fe47 O61 1.996 1_556 S
Fe47 O64 1.997 . S
O48 Fe47 2.002 . S
O48 C65 1.295 . S
O49 Fe44 1.997 . S
O49 C65 1.235 . S
O50 Fe44 2.002 . S
O50 C51 1.295 . S
C51 O50 1.295 . S
C51 O53 1.235 . S
C52 O57 1.287 . S
C52 O58 1.255 . S
O53 Fe45 1.997 . S
O53 C51 1.235 . S
C54 O60 1.287 1_554 S
C54 O61 1.255 . S
O55 Fe44 1.976 . S
O55 C62 1.287 . S
O56 Fe45 1.996 . S
O56 C62 1.255 . S
O57 Fe47 1.976 . S
O57 C52 1.287 . S
O58 Fe44 1.996 . S
O58 C52 1.255 . S
C59 O63 1.295 . S
C59 O64 1.235 . S
O60 Fe45 1.976 . S
O60 C54 1.287 1_556 S
O61 Fe47 1.996 1_554 S
O61 C54 1.255 . S
C62 O55 1.287 . S
C62 O56 1.255 . S
O63 Fe45 2.002 . S
O63 C59 1.295 . S
O64 Fe47 1.997 . S
O64 C59 1.235 . S
C65 O48 1.295 . S
C65 O49 1.235 . S
Fe66 O68 1.918 . S
Fe66 O71 1.997 . S
Fe66 O72 2.002 . S
Fe66 O77 1.976 . S
Fe66 O80 1.996 . S
Fe67 O68 1.918 . S
Fe67 O75 1.997 . S
Fe67 O78 1.996 . S
Fe67 O82 1.976 . S
Fe67 O85 2.002 . S
O68 Fe66 1.918 . S
O68 Fe67 1.918 . S
O68 Fe69 1.918 . S
Fe69 O68 1.918 . S
Fe69 O70 2.002 . S
Fe69 O79 1.976 . S
Fe69 O83 1.996 . S
Fe69 O86 1.997 . S
O70 Fe69 2.002 . S
O70 C87 1.295 . S
O71 Fe66 1.997 . S
O71 C87 1.235 . S
O72 Fe66 2.002 . S
O72 C73 1.295 . S
C73 O72 1.295 . S
C73 O75 1.235 . S
C74 O79 1.287 . S
C74 O80 1.255 . S
O75 Fe67 1.997 . S
O75 C73 1.235 . S
C76 O82 1.287 . S
C76 O83 1.255 . S
O77 Fe66 1.976 . S
O77 C84 1.287 . S
O78 Fe67 1.996 . S
O78 C84 1.255 . S
O79 Fe69 1.976 . S
O79 C74 1.287 . S
O80 Fe66 1.996 . S
O80 C74 1.255 . S
C81 O85 1.295 . S
C81 O86 1.235 . S
O82 Fe67 1.976 . S
O82 C76 1.287 . S
O83 Fe69 1.996 . S
O83 C76 1.255 . S
C84 O77 1.287 . S
C84 O78 1.255 . S
O85 Fe67 2.002 . S
O85 C81 1.295 . S
O86 Fe69 1.997 . S
O86 C81 1.235 . S
C87 O70 1.295 . S
C87 O71 1.235 . S
Fe88 O90 1.918 . S
Fe88 O93 1.997 . S
Fe88 O94 2.002 . S
Fe88 O99 1.976 . S
Fe88 O102 1.996 . S
Fe89 O90 1.918 . S
Fe89 O97 1.997 . S
Fe89 O100 1.996 . S
Fe89 O104 1.976 . S
Fe89 O107 2.002 . S
O90 Fe88 1.918 . S
O90 Fe89 1.918 . S
O90 Fe91 1.918 . S
Fe91 O90 1.918 . S
Fe91 O92 2.002 . S
Fe91 O101 1.976 1_556 S
Fe91 O105 1.996 . S
Fe91 O108 1.997 . S
O92 Fe91 2.002 . S
O92 C109 1.295 . S
O93 Fe88 1.997 . S
O93 C109 1.235 . S
O94 Fe88 2.002 . S
O94 C95 1.295 . S
C95 O94 1.295 . S
C95 O97 1.235 . S
C96 O101 1.287 . S
C96 O102 1.255 1_554 S
O97 Fe89 1.997 . S
O97 C95 1.235 . S
C98 O104 1.287 . S
C98 O105 1.255 . S
O99 Fe88 1.976 . S
O99 C106 1.287 . S
O100 Fe89 1.996 . S
O100 C106 1.255 . S
O101 Fe91 1.976 1_554 S
O101 C96 1.287 . S
O102 Fe88 1.996 . S
O102 C96 1.255 1_556 S
C103 O107 1.295 . S
C103 O108 1.235 . S
O104 Fe89 1.976 . S
O104 C98 1.287 . S
O105 Fe91 1.996 . S
O105 C98 1.255 . S
C106 O99 1.287 . S
C106 O100 1.255 . S
O107 Fe89 2.002 . S
O107 C103 1.295 . S
O108 Fe91 1.997 . S
O108 C103 1.235 . S
C109 O92 1.295 . S
C109 O93 1.235 . S
Fe110 O112 1.918 . S
Fe110 O115 1.997 . S
Fe110 O116 2.002 . S
Fe110 O121 1.976 . S
Fe110 O124 1.996 . S
Fe111 O112 1.918 . S
Fe111 O119 1.997 . S
Fe111 O122 1.996 . S
Fe111 O126 1.976 . S
Fe111 O129 2.002 . S
O112 Fe110 1.918 . S
O112 Fe111 1.918 . S
O112 Fe113 1.918 . S
Fe113 O112 1.918 . S
Fe113 O114 2.002 . S
Fe113 O123 1.976 . S
Fe113 O127 1.996 . S
Fe113 O130 1.997 . S
O114 Fe113 2.002 . S
O114 C131 1.295 . S
O115 Fe110 1.997 . S
O115 C131 1.235 . S
O116 Fe110 2.002 . S
O116 C117 1.295 . S
C117 O116 1.295 . S
C117 O119 1.235 . S
C118 O123 1.287 . S
C118 O124 1.255 . S
O119 Fe111 1.997 . S
O119 C117 1.235 . S
C120 O126 1.287 . S
C120 O127 1.255 . S
O121 Fe110 1.976 . S
O121 C128 1.287 . S
O122 Fe111 1.996 . S
O122 C128 1.255 . S
O123 Fe113 1.976 . S
O123 C118 1.287 . S
O124 Fe110 1.996 . S
O124 C118 1.255 . S
C125 O129 1.295 . S
C125 O130 1.235 . S
O126 Fe111 1.976 . S
O126 C120 1.287 . S
O127 Fe113 1.996 . S
O127 C120 1.255 . S
C128 O121 1.287 . S
C128 O122 1.255 . S
O129 Fe111 2.002 . S
O129 C125 1.295 . S
O130 Fe113 1.997 . S
O130 C125 1.235 . S
C131 O114 1.295 . S
C131 O115 1.235 . S
Fe132 O134 1.918 . S
Fe132 O137 1.997 . S
Fe132 O138 2.002 . S
Fe132 O143 1.976 . S
Fe132 O146 1.996 . S
Fe133 O134 1.918 . S
Fe133 O141 1.997 . S
Fe133 O144 1.996 . S
Fe133 O148 1.976 1_554 S
Fe133 O151 2.002 . S
O134 Fe132 1.918 . S
O134 Fe133 1.918 . S
O134 Fe135 1.918 . S
Fe135 O134 1.918 . S
Fe135 O136 2.002 . S
Fe135 O145 1.976 . S
Fe135 O149 1.996 . S
Fe135 O152 1.997 . S
O136 Fe135 2.002 . S
O136 C153 1.295 . S
O137 Fe132 1.997 . S
O137 C153 1.235 . S
O138 Fe132 2.002 . S
O138 C139 1.295 . S
C139 O138 1.295 . S
C139 O141 1.235 . S
C140 O145 1.287 . S
C140 O146 1.255 . S
O141 Fe133 1.997 . S
O141 C139 1.235 . S
C142 O148 1.287 . S
C142 O149 1.255 1_556 S
O143 Fe132 1.976 . S
O143 C150 1.287 . S
O144 Fe133 1.996 . S
O144 C150 1.255 . S
O145 Fe135 1.976 . S
O145 C140 1.287 . S
O146 Fe132 1.996 . S
O146 C140 1.255 . S
C147 O151 1.295 . S
C147 O152 1.235 . S
O148 Fe133 1.976 1_556 S
O148 C142 1.287 . S
O149 Fe135 1.996 . S
O149 C142 1.255 1_554 S
C150 O143 1.287 . S
C150 O144 1.255 . S
O151 Fe133 2.002 . S
O151 C147 1.295 . S
O152 Fe135 1.997 . S
O152 C147 1.235 . S
C153 O136 1.295 . S
C153 O137 1.235 . S
Fe154 O156 1.918 . S
Fe154 O159 1.997 . S
Fe154 O160 2.002 . S
Fe154 O165 1.976 . S
Fe154 O168 1.996 . S
Fe155 O156 1.918 . S
Fe155 O163 1.997 . S
Fe155 O166 1.996 . S
Fe155 O170 1.976 . S
Fe155 O173 2.002 . S
O156 Fe154 1.918 . S
O156 Fe155 1.918 . S
O156 Fe157 1.918 . S
Fe157 O156 1.918 . S
Fe157 O158 2.002 . S
Fe157 O167 1.976 . S
Fe157 O171 1.996 . S
Fe157 O174 1.997 . S
O158 Fe157 2.002 . S
O158 C175 1.295 . S
O159 Fe154 1.997 . S
O159 C175 1.235 . S
O160 Fe154 2.002 . S
O160 C161 1.295 . S
C161 O160 1.295 . S
C161 O163 1.235 . S
C162 O167 1.287 . S
C162 O168 1.255 . S
O163 Fe155 1.997 . S
O163 C161 1.235 . S
C164 O170 1.287 . S
C164 O171 1.255 . S
O165 Fe154 1.976 . S
O165 C172 1.287 . S
O166 Fe155 1.996 . S
O166 C172 1.255 . S
O167 Fe157 1.976 . S
O167 C162 1.287 . S
O168 Fe154 1.996 . S
O168 C162 1.255 . S
C169 O173 1.295 . S
C169 O174 1.235 . S
O170 Fe155 1.976 . S
O170 C164 1.287 . S
O171 Fe157 1.996 . S
O171 C164 1.255 . S
C172 O165 1.287 . S
C172 O166 1.255 . S
O173 Fe155 2.002 . S
O173 C169 1.295 . S
O174 Fe157 1.997 . S
O174 C169 1.235 . S
C175 O158 1.295 . S
C175 O159 1.235 . S
C176 C177 1.363 . S
C176 C182 1.379 . S
C176 N184 1.356 . S
C177 C176 1.363 . S
C177 C183 1.363 1_455 S
C178 C179 1.363 . S
C178 C183 1.379 . S
C178 N185 1.356 . S
C179 C178 1.363 . S
C179 C182 1.363 1_655 S
N180 C182 1.356 1_655 S
N180 H192 0.984 1_655 S
N180 H193 0.985 . S
N181 C183 1.356 1_455 S
N181 H186 0.984 . S
N181 H187 0.985 1_455 S
C182 C176 1.379 . S
C182 C179 1.363 1_455 S
C182 N180 1.356 1_455 S
C183 C177 1.363 1_655 S
C183 C178 1.379 . S
C183 N181 1.356 1_655 S
N184 C176 1.356 . S
N184 H190 0.984 . S
N184 H191 0.984 . S
N185 C178 1.356 . S
N185 H188 0.984 . S
N185 H189 0.985 . S
H186 N181 0.984 . S
H187 N181 0.985 1_655 S
H188 N185 0.984 . S
H189 N185 0.985 . S
H190 N184 0.984 . S
H191 N184 0.984 . S
H192 N180 0.984 1_455 S
H193 N180 0.985 . S
C194 C195 1.363 . S
C194 C200 1.379 . S
C194 N202 1.356 . S
C195 C194 1.363 . S
C195 C201 1.363 . S
C196 C197 1.363 . S
C196 C201 1.379 . S
C196 N203 1.356 . S
C197 C196 1.363 . S
C197 C200 1.363 . S
N198 C200 1.356 . S
N198 H210 0.984 . S
N198 H211 0.985 . S
N199 C201 1.356 . S
N199 H204 0.984 . S
N199 H205 0.985 . S
C200 C194 1.379 . S
C200 C197 1.363 . S
C200 N198 1.356 . S
C201 C195 1.363 . S
C201 C196 1.379 . S
C201 N199 1.356 . S
N202 C194 1.356 . S
N202 H208 0.984 . S
N202 H209 0.984 . S
N203 C196 1.356 . S
N203 H206 0.984 . S
N203 H207 0.985 . S
H204 N199 0.984 . S
H205 N199 0.985 . S
H206 N203 0.984 . S
H207 N203 0.985 . S
H208 N202 0.984 . S
H209 N202 0.984 . S
H210 N198 0.984 . S
H211 N198 0.985 . S
C212 C213 1.363 . S
C212 C218 1.379 . S
C212 N220 1.356 . S
C213 C212 1.363 . S
C213 C219 1.363 1_655 S
C214 C215 1.363 . S
C214 C219 1.379 . S
C214 N221 1.356 . S
C215 C214 1.363 . S
C215 C218 1.363 1_455 S
N216 C218 1.356 1_455 S
N216 H228 0.984 1_455 S
N216 H229 0.985 . S
N217 C219 1.356 1_655 S
N217 H222 0.984 . S
N217 H223 0.985 1_655 S
C218 C212 1.379 . S
C218 C215 1.363 1_655 S
C218 N216 1.356 1_655 S
C219 C213 1.363 1_455 S
C219 C214 1.379 . S
C219 N217 1.356 1_455 S
N220 C212 1.356 . S
N220 H226 0.984 . S
N220 H227 0.984 . S
N221 C214 1.356 . S
N221 H224 0.984 . S
N221 H225 0.985 . S
H222 N217 0.984 . S
H223 N217 0.985 1_455 S
H224 N221 0.984 . S
H225 N221 0.985 . S
H226 N220 0.984 . S
H227 N220 0.984 . S
H228 N216 0.984 1_655 S
H229 N216 0.985 . S
C230 C231 1.363 . S
C230 C236 1.379 . S
C230 N238 1.356 . S
C231 C230 1.363 . S
C231 C237 1.363 . S
C232 C233 1.363 . S
C232 C237 1.379 . S
C232 N239 1.356 . S
C233 C232 1.363 . S
C233 C236 1.363 . S
N234 C236 1.356 . S
N234 H246 0.984 . S
N234 H247 0.985 . S
N235 C237 1.356 . S
N235 H240 0.984 . S
N235 H241 0.985 . S
C236 C230 1.379 . S
C236 C233 1.363 . S
C236 N234 1.356 . S
C237 C231 1.363 . S
C237 C232 1.379 . S
C237 N235 1.356 . S
N238 C230 1.356 . S
N238 H244 0.984 . S
N238 H245 0.984 . S
N239 C232 1.356 . S
N239 H242 0.984 . S
N239 H243 0.985 . S
H240 N235 0.984 . S
H241 N235 0.985 . S
H242 N239 0.984 . S
H243 N239 0.985 . S
H244 N238 0.984 . S
H245 N238 0.984 . S
H246 N234 0.984 . S
H247 N234 0.985 . S
C248 C249 1.363 1_656 S
C248 C254 1.379 . S
C248 N256 1.356 1_655 S
C249 C248 1.363 1_454 S
C249 C255 1.363 1_545 S
C250 C251 1.363 1_454 S
C250 C255 1.379 . S
C250 N257 1.356 1_455 S
C251 C250 1.363 1_656 S
C251 C254 1.363 1_565 S
N252 C254 1.356 1_565 S
N252 H264 0.984 1_565 S
N252 H265 0.985 . S
N253 C255 1.356 1_545 S
N253 H258 0.984 . S
N253 H259 0.985 1_545 S
C254 C248 1.379 . S
C254 C251 1.363 1_545 S
C254 N252 1.356 1_545 S
C255 C249 1.363 1_565 S
C255 C250 1.379 . S
C255 N253 1.356 1_565 S
N256 C248 1.356 1_455 S
N256 H262 0.984 1_455 S
N256 H263 0.984 . S
N257 C250 1.356 1_655 S
N257 H260 0.984 . S
N257 H261 0.985 1_655 S
H258 N253 0.984 . S
H259 N253 0.985 1_565 S
H260 N257 0.984 . S
H261 N257 0.985 1_455 S
H262 N256 0.984 1_655 S
H263 N256 0.984 . S
H264 N252 0.984 1_545 S
H265 N252 0.985 . S
C266 C267 1.363 . S
C266 C272 1.379 . S
C266 N274 1.356 . S
C267 C266 1.363 . S
C267 C273 1.363 . S
C268 C269 1.363 . S
C268 C273 1.379 . S
C268 N275 1.356 . S
C269 C268 1.363 . S
C269 C272 1.363 . S
N270 C272 1.356 . S
N270 H282 0.984 . S
N270 H283 0.985 . S
N271 C273 1.356 . S
N271 H276 0.984 . S
N271 H277 0.985 . S
C272 C266 1.379 . S
C272 C269 1.363 . S
C272 N270 1.356 . S
C273 C267 1.363 . S
C273 C268 1.379 . S
C273 N271 1.356 . S
N274 C266 1.356 . S
N274 H280 0.984 . S
N274 H281 0.984 . S
N275 C268 1.356 . S
N275 H278 0.984 . S
N275 H279 0.985 . S
H276 N271 0.984 . S
H277 N271 0.985 . S
H278 N275 0.984 . S
H279 N275 0.985 . S
H280 N274 0.984 . S
H281 N274 0.984 . S
H282 N270 0.984 . S
H283 N270 0.985 . S
C284 C285 1.363 1_556 S
C284 C290 1.379 . S
C284 N292 1.356 . S
C285 C284 1.363 1_554 S
C285 C291 1.363 . S
C286 C287 1.363 1_554 S
C286 C291 1.379 . S
C286 N293 1.356 . S
C287 C286 1.363 1_556 S
C287 C290 1.363 . S
N288 C290 1.356 . S
N288 H300 0.984 . S
N288 H301 0.985 . S
N289 C291 1.356 . S
N289 H294 0.984 . S
N289 H295 0.985 . S
C290 C284 1.379 . S
C290 C287 1.363 . S
C290 N288 1.356 . S
C291 C285 1.363 . S
C291 C286 1.379 . S
C291 N289 1.356 . S
N292 C284 1.356 . S
N292 H298 0.984 . S
N292 H299 0.984 . S
N293 C286 1.356 . S
N293 H296 0.984 . S
N293 H297 0.985 . S
H294 N289 0.984 . S
H295 N289 0.985 . S
H296 N293 0.984 . S
H297 N293 0.985 . S
H298 N292 0.984 . S
H299 N292 0.984 . S
H300 N288 0.984 . S
H301 N288 0.985 . S
C302 C303 1.363 1_455 S
C302 C308 1.379 . S
C302 N310 1.356 . S
C303 C302 1.363 1_655 S
C303 C309 1.363 1_545 S
C304 C305 1.363 1_655 S
C304 C309 1.379 . S
C304 N311 1.356 . S
C305 C304 1.363 1_455 S
C305 C308 1.363 1_565 S
N306 C308 1.356 1_565 S
N306 H318 0.984 1_565 S
N306 H319 0.985 . S
N307 C309 1.356 1_545 S
N307 H312 0.984 . S
N307 H313 0.985 1_545 S
C308 C302 1.379 . S
C308 C305 1.363 1_545 S
C308 N306 1.356 1_545 S
C309 C303 1.363 1_565 S
C309 C304 1.379 . S
C309 N307 1.356 1_565 S
N310 C302 1.356 . S
N310 H316 0.984 . S
N310 H317 0.985 1_455 S
N311 C304 1.356 . S
N311 H314 0.984 1_655 S
N311 H315 0.985 . S
H312 N307 0.984 . S
H313 N307 0.985 1_565 S
H314 N311 0.984 1_455 S
H315 N311 0.985 . S
H316 N310 0.984 . S
H317 N310 0.985 1_655 S
H318 N306 0.984 1_545 S
H319 N306 0.985 . S
C320 C321 1.363 . S
C320 C326 1.379 1_565 S
C320 N328 1.356 . S
C321 C320 1.363 . S
C321 C327 1.363 . S
C322 C323 1.363 1_565 S
C322 C327 1.379 . S
C322 N329 1.356 1_565 S
C323 C322 1.363 1_545 S
C323 C326 1.363 . S
N324 C326 1.356 . S
N324 H336 0.984 1_554 S
N324 H337 0.985 . S
N325 C327 1.356 . S
N325 H330 0.984 . S
N325 H331 0.985 . S
C326 C320 1.379 1_545 S
C326 C323 1.363 . S
C326 N324 1.356 . S
C327 C321 1.363 . S
C327 C322 1.379 . S
C327 N325 1.356 . S
N328 C320 1.356 . S
N328 H334 0.984 1_554 S
N328 H335 0.984 . S
N329 C322 1.356 1_545 S
N329 H332 0.984 . S
N329 H333 0.985 1_545 S
H330 N325 0.984 . S
H331 N325 0.985 . S
H332 N329 0.984 . S
H333 N329 0.985 1_565 S
H334 N328 0.984 1_556 S
H335 N328 0.984 . S
H336 N324 0.984 1_556 S
H337 N324 0.985 . S
C338 C339 1.363 . S
C338 C344 1.379 . S
C338 N346 1.356 . S
C339 C338 1.363 . S
C339 C345 1.363 . S
C340 C341 1.363 . S
C340 C345 1.379 . S
C340 N347 1.356 . S
C341 C340 1.363 . S
C341 C344 1.363 . S
N342 C344 1.356 . S
N342 H354 0.984 . S
N342 H355 0.985 . S
N343 C345 1.356 . S
N343 H348 0.984 . S
N343 H349 0.985 . S
C344 C338 1.379 . S
C344 C341 1.363 . S
C344 N342 1.356 . S
C345 C339 1.363 . S
C345 C340 1.379 . S
C345 N343 1.356 . S
N346 C338 1.356 . S
N346 H352 0.984 . S
N346 H353 0.984 . S
N347 C340 1.356 . S
N347 H350 0.984 . S
N347 H351 0.985 . S
H348 N343 0.984 . S
H349 N343 0.985 . S
H350 N347 0.984 . S
H351 N347 0.985 . S
H352 N346 0.984 . S
H353 N346 0.984 . S
H354 N342 0.984 . S
H355 N342 0.985 . S
C356 C357 1.363 . S
C356 C362 1.379 . S
C356 N364 1.356 . S
C357 C356 1.363 . S
C357 C363 1.363 . S
C358 C359 1.363 . S
C358 C363 1.379 . S
C358 N365 1.356 . S
C359 C358 1.363 . S
C359 C362 1.363 . S
N360 C362 1.356 . S
N360 H372 0.984 1_556 S
N360 H373 0.985 . S
N361 C363 1.356 . S
N361 H366 0.984 . S
N361 H367 0.985 . S
C362 C356 1.379 . S
C362 C359 1.363 . S
C362 N360 1.356 . S
C363 C357 1.363 . S
C363 C358 1.379 . S
C363 N361 1.356 . S
N364 C356 1.356 . S
N364 H370 0.984 1_556 S
N364 H371 0.984 . S
N365 C358 1.356 . S
N365 H368 0.984 . S
N365 H369 0.985 . S
H366 N361 0.984 . S
H367 N361 0.985 . S
H368 N365 0.984 . S
H369 N365 0.985 . S
H370 N364 0.984 1_554 S
H371 N364 0.984 . S
H372 N360 0.984 1_554 S
H373 N360 0.985 . S
C374 C375 1.363 . S
C374 C380 1.379 1_545 S
C374 N382 1.356 . S
C375 C374 1.363 . S
C375 C381 1.363 1_545 S
C376 C377 1.363 . S
C376 C381 1.379 . S
C376 N383 1.356 . S
C377 C376 1.363 . S
C377 C380 1.363 . S
N378 C380 1.356 . S
N378 H390 0.984 . S
N378 H391 0.985 . S
N379 C381 1.356 1_545 S
N379 H384 0.984 . S
N379 H385 0.985 . S
C380 C374 1.379 1_565 S
C380 C377 1.363 . S
C380 N378 1.356 . S
C381 C375 1.363 1_565 S
C381 C376 1.379 . S
C381 N379 1.356 1_565 S
N382 C374 1.356 . S
N382 H388 0.984 . S
N382 H389 0.984 . S
N383 C376 1.356 . S
N383 H386 0.984 . S
N383 H387 0.985 . S
H384 N379 0.984 . S
H385 N379 0.985 . S
H386 N383 0.984 . S
H387 N383 0.985 . S
H388 N382 0.984 . S
H389 N382 0.984 . S
H390 N378 0.984 . S
H391 N378 0.985 . S
C392 C393 1.363 . S
C392 C398 1.379 . S
C392 N400 1.356 . S
C393 C392 1.363 . S
C393 C399 1.363 . S
C394 C395 1.363 . S
C394 C399 1.379 1_565 S
C394 N401 1.356 . S
C395 C394 1.363 . S
C395 C398 1.363 1_565 S
N396 C398 1.356 1_565 S
N396 H408 0.984 1_566 S
N396 H409 0.985 . S
N397 C399 1.356 . S
N397 H402 0.984 . S
N397 H403 0.985 . S
C398 C392 1.379 . S
C398 C395 1.363 1_545 S
C398 N396 1.356 1_545 S
C399 C393 1.363 . S
C399 C394 1.379 1_545 S
C399 N397 1.356 . S
N400 C392 1.356 . S
N400 H406 0.984 1_556 S
N400 H407 0.984 . S
N401 C394 1.356 . S
N401 H404 0.984 . S
N401 H405 0.985 . S
H402 N397 0.984 . S
H403 N397 0.985 . S
H404 N401 0.984 . S
H405 N401 0.985 . S
H406 N400 0.984 1_554 S
H407 N400 0.984 . S
H408 N396 0.984 1_544 S
H409 N396 0.985 . S
C410 C411 1.363 . S
C410 C416 1.379 . S
C410 N418 1.356 . S
C411 C410 1.363 . S
C411 C417 1.363 . S
C412 C413 1.363 . S
C412 C417 1.379 . S
C412 N419 1.356 . S
C413 C412 1.363 . S
C413 C416 1.363 . S
N414 C416 1.356 . S
N414 H426 0.984 . S
N414 H427 0.985 . S
N415 C417 1.356 . S
N415 H420 0.984 . S
N415 H421 0.985 . S
C416 C410 1.379 . S
C416 C413 1.363 . S
C416 N414 1.356 . S
C417 C411 1.363 . S
C417 C412 1.379 . S
C417 N415 1.356 . S
N418 C410 1.356 . S
N418 H424 0.984 . S
N418 H425 0.984 . S
N419 C412 1.356 . S
N419 H422 0.984 . S
N419 H423 0.985 . S
H420 N415 0.984 . S
H421 N415 0.985 . S
H422 N419 0.984 . S
H423 N419 0.985 . S
H424 N418 0.984 . S
H425 N418 0.984 . S
H426 N414 0.984 . S
H427 N414 0.985 . S
C428 C429 1.363 . S
C428 C434 1.379 . S
C428 N436 1.356 . S
C429 C428 1.363 . S
C429 C435 1.363 . S
C430 C431 1.363 . S
C430 C435 1.379 . S
C430 N437 1.356 . S
C431 C430 1.363 . S
C431 C434 1.363 . S
N432 C434 1.356 . S
N432 H444 0.984 1_554 S
N432 H445 0.985 . S
N433 C435 1.356 . S
N433 H438 0.984 . S
N433 H439 0.985 . S
C434 C428 1.379 . S
C434 C431 1.363 . S
C434 N432 1.356 . S
C435 C429 1.363 . S
C435 C430 1.379 . S
C435 N433 1.356 . S
N436 C428 1.356 . S
N436 H442 0.984 1_554 S
N436 H443 0.984 . S
N437 C430 1.356 . S
N437 H440 0.984 . S
N437 H441 0.985 . S
H438 N433 0.984 . S
H439 N433 0.985 . S
H440 N437 0.984 . S
H441 N437 0.985 . S
H442 N436 0.984 1_556 S
H443 N436 0.984 . S
H444 N432 0.984 1_556 S
H445 N432 0.985 . S
C446 C447 1.363 . S
C446 C452 1.379 1_565 S
C446 N454 1.356 . S
C447 C446 1.363 . S
C447 C453 1.363 1_565 S
C448 C449 1.363 . S
C448 C453 1.379 . S
C448 N455 1.356 . S
C449 C448 1.363 . S
C449 C452 1.363 . S
N450 C452 1.356 . S
N450 H462 0.984 . S
N450 H463 0.985 . S
N451 C453 1.355 1_565 S
N451 H456 0.988 . S
N451 H457 0.982 1_565 S
C452 C446 1.379 1_545 S
C452 C449 1.363 . S
C452 N450 1.356 . S
C453 C447 1.363 1_545 S
C453 C448 1.379 . S
C453 N451 1.355 1_545 S
N454 C446 1.356 . S
N454 H460 0.984 . S
N454 H461 0.984 . S
N455 C448 1.356 . S
N455 H458 0.984 . S
N455 H459 0.985 . S
H456 N451 0.988 . S
H457 N451 0.982 1_545 S
H458 N455 0.984 . S
H459 N455 0.985 . S
H460 N454 0.984 . S
H461 N454 0.984 . S
H462 N450 0.984 . S
H463 N450 0.985 . S
C464 C465 1.363 . S
C464 C470 1.379 . S
C464 N472 1.356 . S
C465 C464 1.363 . S
C465 C471 1.363 . S
C466 C467 1.363 . S
C466 C471 1.379 . S
C466 N473 1.356 . S
C467 C466 1.363 . S
C467 C470 1.363 . S
N468 C470 1.356 . S
N468 H480 0.984 . S
N468 H481 0.985 . S
N469 C471 1.356 . S
N469 H474 0.984 . S
N469 H475 0.985 . S
C470 C464 1.379 . S
C470 C467 1.363 . S
C470 N468 1.356 . S
C471 C465 1.363 . S
C471 C466 1.379 . S
C471 N469 1.356 . S
N472 C464 1.356 . S
N472 H478 0.984 . S
N472 H479 0.984 . S
N473 C466 1.356 . S
N473 H476 0.984 . S
N473 H477 0.985 . S
H474 N469 0.984 . S
H475 N469 0.985 . S
H476 N473 0.984 . S
H477 N473 0.985 . S
H478 N472 0.984 . S
H479 N472 0.984 . S
H480 N468 0.984 . S
H481 N468 0.985 . S
C482 C483 1.363 . S
C482 C488 1.379 . S
C482 N490 1.356 . S
C483 C482 1.363 . S
C483 C489 1.363 . S
C484 C485 1.363 . S
C484 C489 1.379 . S
C484 N491 1.356 . S
C485 C484 1.363 . S
C485 C488 1.363 . S
N486 C488 1.356 . S
N486 H498 0.984 . S
N486 H499 0.985 . S
N487 C489 1.356 . S
N487 H492 0.984 . S
N487 H493 0.985 . S
C488 C482 1.379 . S
C488 C485 1.363 . S
C488 N486 1.356 . S
C489 C483 1.363 . S
C489 C484 1.379 . S
C489 N487 1.356 . S
N490 C482 1.356 . S
N490 H496 0.984 . S
N490 H497 0.984 . S
N491 C484 1.356 . S
N491 H494 0.984 . S
N491 H495 0.985 . S
H492 N487 0.984 . S
H493 N487 0.985 . S
H494 N491 0.984 . S
H495 N491 0.985 . S
H496 N490 0.984 . S
H497 N490 0.984 . S
H498 N486 0.984 . S
H499 N486 0.985 . S
C500 C501 1.363 . S
C500 C506 1.379 . S
C500 N508 1.356 . S
C501 C500 1.363 . S
C501 C507 1.363 . S
C502 C503 1.363 . S
C502 C507 1.379 . S
C502 N509 1.356 . S
C503 C502 1.363 . S
C503 C506 1.363 . S
N504 C506 1.356 . S
N504 H516 0.984 . S
N504 H517 0.985 . S
N505 C507 1.356 . S
N505 H510 0.984 . S
N505 H511 0.985 . S
C506 C500 1.379 . S
C506 C503 1.363 . S
C506 N504 1.356 . S
C507 C501 1.363 . S
C507 C502 1.379 . S
C507 N505 1.356 . S
N508 C500 1.356 . S
N508 H514 0.984 . S
N508 H515 0.984 . S
N509 C502 1.356 . S
N509 H512 0.984 . S
N509 H513 0.985 . S
H510 N505 0.984 . S
H511 N505 0.985 . S
H512 N509 0.984 . S
H513 N509 0.985 . S
H514 N508 0.984 . S
H515 N508 0.984 . S
H516 N504 0.984 . S
H517 N504 0.985 . S
C518 C519 1.363 . S
C518 C524 1.379 . S
C518 N526 1.356 . S
C519 C518 1.363 . S
C519 C525 1.363 . S
C520 C521 1.363 . S
C520 C525 1.379 . S
C520 N527 1.356 . S
C521 C520 1.363 . S
C521 C524 1.363 . S
N522 C524 1.356 . S
N522 H534 0.984 . S
N522 H535 0.985 . S
N523 C525 1.356 . S
N523 H528 0.984 . S
N523 H529 0.985 . S
C524 C518 1.379 . S
C524 C521 1.363 . S
C524 N522 1.356 . S
C525 C519 1.363 . S
C525 C520 1.379 . S
C525 N523 1.356 . S
N526 C518 1.356 . S
N526 H532 0.984 . S
N526 H533 0.984 . S
N527 C520 1.356 . S
N527 H530 0.984 . S
N527 H531 0.985 . S
H528 N523 0.984 . S
H529 N523 0.985 . S
H530 N527 0.984 . S
H531 N527 0.985 . S
H532 N526 0.984 . S
H533 N526 0.984 . S
H534 N522 0.984 . S
H535 N522 0.985 . S
C536 C537 1.363 . S
C536 C542 1.379 . S
C536 N544 1.356 . S
C537 C536 1.363 . S
C537 C543 1.363 . S
C538 C539 1.363 . S
C538 C543 1.379 . S
C538 N545 1.356 . S
C539 C538 1.363 . S
C539 C542 1.363 . S
N540 C542 1.356 . S
N540 H552 0.984 . S
N540 H553 0.985 . S
N541 C543 1.356 . S
N541 H546 0.984 . S
N541 H547 0.985 . S
C542 C536 1.379 . S
C542 C539 1.363 . S
C542 N540 1.356 . S
C543 C537 1.363 . S
C543 C538 1.379 . S
C543 N541 1.356 . S
N544 C536 1.356 . S
N544 H550 0.984 . S
N544 H551 0.984 . S
N545 C538 1.356 . S
N545 H548 0.984 . S
N545 H549 0.985 . S
H546 N541 0.984 . S
H547 N541 0.985 . S
H548 N545 0.984 . S
H549 N545 0.985 . S
H550 N544 0.984 . S
H551 N544 0.984 . S
H552 N540 0.984 . S
H553 N540 0.985 . S
C554 C555 1.363 . S
C554 C560 1.379 . S
C554 N562 1.356 . S
C555 C554 1.363 . S
C555 C561 1.363 . S
C556 C557 1.363 . S
C556 C561 1.379 . S
C556 N563 1.356 . S
C557 C556 1.363 . S
C557 C560 1.363 . S
N558 C560 1.356 . S
N558 H570 0.984 . S
N558 H571 0.985 . S
N559 C561 1.356 . S
N559 H564 0.984 . S
N559 H565 0.985 . S
C560 C554 1.379 . S
C560 C557 1.363 . S
C560 N558 1.356 . S
C561 C555 1.363 . S
C561 C556 1.379 . S
C561 N559 1.356 . S
N562 C554 1.356 . S
N562 H568 0.984 . S
N562 H569 0.984 . S
N563 C556 1.356 . S
N563 H566 0.984 . S
N563 H567 0.985 . S
H564 N559 0.984 . S
H565 N559 0.985 . S
H566 N563 0.984 . S
H567 N563 0.985 . S
H568 N562 0.984 . S
H569 N562 0.984 . S
H570 N558 0.984 . S
H571 N558 0.985 . S
C572 C573 1.363 . S
C572 C578 1.379 . S
C572 N580 1.356 . S
C573 C572 1.363 . S
C573 C579 1.363 . S
C574 C575 1.363 . S
C574 C579 1.379 . S
C574 N581 1.356 . S
C575 C574 1.363 . S
C575 C578 1.363 . S
N576 C578 1.356 . S
N576 H588 0.984 . S
N576 H589 0.985 . S
N577 C579 1.356 . S
N577 H582 0.984 . S
N577 H583 0.985 . S
C578 C572 1.379 . S
C578 C575 1.363 . S
C578 N576 1.356 . S
C579 C573 1.363 . S
C579 C574 1.379 . S
C579 N577 1.356 . S
N580 C572 1.356 . S
N580 H586 0.984 . S
N580 H587 0.984 . S
N581 C574 1.356 . S
N581 H584 0.984 . S
N581 H585 0.985 . S
H582 N577 0.984 . S
H583 N577 0.985 . S
H584 N581 0.984 . S
H585 N581 0.985 . S
H586 N580 0.984 . S
H587 N580 0.984 . S
H588 N576 0.984 . S
H589 N576 0.985 . S
C590 C591 1.363 . S
C590 C596 1.379 . S
C590 N598 1.356 . S
C591 C590 1.363 . S
C591 C597 1.363 . S
C592 C593 1.363 . S
C592 C597 1.379 . S
C592 N599 1.356 . S
C593 C592 1.363 . S
C593 C596 1.363 . S
N594 C596 1.356 . S
N594 H606 0.984 . S
N594 H607 0.985 . S
N595 C597 1.356 . S
N595 H600 0.984 . S
N595 H601 0.985 . S
C596 C590 1.379 . S
C596 C593 1.363 . S
C596 N594 1.356 . S
C597 C591 1.363 . S
C597 C592 1.379 . S
C597 N595 1.356 . S
N598 C590 1.356 . S
N598 H604 0.984 . S
N598 H605 0.984 . S
N599 C592 1.356 . S
N599 H602 0.984 . S
N599 H603 0.985 . S
H600 N595 0.984 . S
H601 N595 0.985 . S
H602 N599 0.984 . S
H603 N599 0.985 . S
H604 N598 0.984 . S
H605 N598 0.984 . S
H606 N594 0.984 . S
H607 N594 0.985 . S
C177 C21 1.133 . S
C179 C87 1.133 . S
C195 C43 1.133 . S
C197 C65 1.133 . S
C213 C103 1.110 . S
C215 C175 1.110 . S
C231 C125 1.110 . S
C233 C139 1.110 . S
C249 C8 1.845 . S
C251 C98 1.853 . S
C267 C120 1.853 . S
C269 C30 1.845 . S
C285 C150 1.853 . S
C287 C52 1.845 . S
C303 C74 1.845 . S
C305 C162 1.853 . S
C321 C147 1.074 . S
C323 C18 1.094 . S
C339 C161 1.074 . S
C341 C40 1.094 . S
C357 C62 1.094 . S
C359 C109 1.074 . S
C375 C84 1.094 . S
C377 C131 1.074 . S
C393 C59 1.066 . S
C395 C106 1.091 . S
C411 C128 1.091 . S
C413 C81 1.066 . S
C429 C15 1.066 . S
C431 C140 1.091 . S
C447 C164 1.091 . S
C449 C37 1.066 . S
C465 C10 1.548 . S
C467 C29 1.556 . S
C483 C7 1.556 . S
C485 C32 1.547 . S
C501 C73 1.556 . S
C503 C54 1.547 . S
C519 C76 1.548 . S
C521 C51 1.556 . S
C537 C96 1.552 . S
C539 C117 1.559 . S
C555 C95 1.559 . S
C557 C118 1.551 . S
C573 C169 1.559 . S
C575 C142 1.551 . S
C591 C172 1.552 . S
C593 C153 1.559 . S
