# Generated by pormake.
# Topology wls, (5)-cn, num edge types: 1
# Building blocks:
#     Node 0, Type 0, BuildingBlock: BEQFEK_clean_sbu_0, # of connection points: 5
#     Node 1, Type 0, BuildingBlock: BEQFEK_clean_sbu_0, # of connection points: 5
#     Node 2, Type 0, BuildingBlock: BEQFEK_clean_sbu_0, # of connection points: 5
#     Node 3, Type 0, BuildingBlock: BEQFEK_clean_sbu_0, # of connection points: 5
#     Node 4, Type 0, BuildingBlock: BEQFEK_clean_sbu_0, # of connection points: 5
#     Node 5, Type 0, BuildingBlock: BEQFEK_clean_sbu_0, # of connection points: 5
#     Node 6, Type 0, BuildingBlock: BEQFEK_clean_sbu_0, # of connection points: 5
#     Node 7, Type 0, BuildingBlock: BEQFEK_clean_sbu_0, # of connection points: 5
#     Node 8, Type 0, BuildingBlock: BEQFEK_clean_sbu_0, # of connection points: 5
#     Node 9, Type 0, BuildingBlock: BEQFEK_clean_sbu_0, # of connection points: 5
#     Node 10, Type 0, BuildingBlock: BEQFEK_clean_sbu_0, # of connection points: 5
#     Node 11, Type 0, BuildingBlock: BEQFEK_clean_sbu_0, # of connection points: 5
#     Node 12, Type 0, BuildingBlock: BEQFEK_clean_sbu_0, # of connection points: 5
#     Node 13, Type 0, BuildingBlock: BEQFEK_clean_sbu_0, # of connection points: 5
#     Node 14, Type 0, BuildingBlock: BEQFEK_clean_sbu_0, # of connection points: 5
#     Node 15, Type 0, BuildingBlock: BEQFEK_clean_sbu_0, # of connection points: 5
#     Node 16, Type 0, BuildingBlock: BEQFEK_clean_sbu_0, # of connection points: 5
#     Node 17, Type 0, BuildingBlock: BEQFEK_clean_sbu_0, # of connection points: 5
#     Node 18, Type 0, BuildingBlock: BEQFEK_clean_sbu_0, # of connection points: 5
#     Node 19, Type 0, BuildingBlock: BEQFEK_clean_sbu_0, # of connection points: 5
#     Node 20, Type 0, BuildingBlock: BEQFEK_clean_sbu_0, # of connection points: 5
#     Node 21, Type 0, BuildingBlock: BEQFEK_clean_sbu_0, # of connection points: 5
#     Node 22, Type 0, BuildingBlock: BEQFEK_clean_sbu_0, # of connection points: 5
#     Node 23, Type 0, BuildingBlock: BEQFEK_clean_sbu_0, # of connection points: 5
#     Node 24, Type 0, BuildingBlock: BEQFEK_clean_sbu_0, # of connection points: 5
#     Node 25, Type 0, BuildingBlock: BEQFEK_clean_sbu_0, # of connection points: 5
#     Node 26, Type 0, BuildingBlock: BEQFEK_clean_sbu_0, # of connection points: 5
#     Node 27, Type 0, BuildingBlock: BEQFEK_clean_sbu_0, # of connection points: 5
#     Node 28, Type 0, BuildingBlock: BEQFEK_clean_sbu_0, # of connection points: 5
#     Node 29, Type 0, BuildingBlock: BEQFEK_clean_sbu_0, # of connection points: 5
#     Node 30, Type 0, BuildingBlock: BEQFEK_clean_sbu_0, # of connection points: 5
#     Node 31, Type 0, BuildingBlock: BEQFEK_clean_sbu_0, # of connection points: 5
#     Node 32, Type 0, BuildingBlock: BEQFEK_clean_sbu_0, # of connection points: 5
#     Node 33, Type 0, BuildingBlock: BEQFEK_clean_sbu_0, # of connection points: 5
#     Node 34, Type 0, BuildingBlock: BEQFEK_clean_sbu_0, # of connection points: 5
#     Node 35, Type 0, BuildingBlock: BEQFEK_clean_sbu_0, # of connection points: 5
#     Edge 36, Type (0, 0), BuildingBlock: CIFDUS_clean_linker_0, # of connection points: 2
#     Edge 37, Type (0, 0), BuildingBlock: CIFDUS_clean_linker_0, # of connection points: 2
#     Edge 38, Type (0, 0), BuildingBlock: CIFDUS_clean_linker_0, # of connection points: 2
#     Edge 39, Type (0, 0), BuildingBlock: CIFDUS_clean_linker_0, # of connection points: 2
#     Edge 40, Type (0, 0), BuildingBlock: CIFDUS_clean_linker_0, # of connection points: 2
#     Edge 41, Type (0, 0), BuildingBlock: CIFDUS_clean_linker_0, # of connection points: 2
#     Edge 42, Type (0, 0), BuildingBlock: CIFDUS_clean_linker_0, # of connection points: 2
#     Edge 43, Type (0, 0), BuildingBlock: CIFDUS_clean_linker_0, # of connection points: 2
#     Edge 44, Type (0, 0), BuildingBlock: CIFDUS_clean_linker_0, # of connection points: 2
#     Edge 45, Type (0, 0), BuildingBlock: CIFDUS_clean_linker_0, # of connection points: 2
#     Edge 46, Type (0, 0), BuildingBlock: CIFDUS_clean_linker_0, # of connection points: 2
#     Edge 47, Type (0, 0), BuildingBlock: CIFDUS_clean_linker_0, # of connection points: 2
#     Edge 48, Type (0, 0), BuildingBlock: CIFDUS_clean_linker_0, # of connection points: 2
#     Edge 49, Type (0, 0), BuildingBlock: CIFDUS_clean_linker_0, # of connection points: 2
#     Edge 50, Type (0, 0), BuildingBlock: CIFDUS_clean_linker_0, # of connection points: 2
#     Edge 51, Type (0, 0), BuildingBlock: CIFDUS_clean_linker_0, # of connection points: 2
#     Edge 52, Type (0, 0), BuildingBlock: CIFDUS_clean_linker_0, # of connection points: 2
#     Edge 53, Type (0, 0), BuildingBlock: CIFDUS_clean_linker_0, # of connection points: 2
#     Edge 54, Type (0, 0), BuildingBlock: CIFDUS_clean_linker_0, # of connection points: 2
#     Edge 55, Type (0, 0), BuildingBlock: CIFDUS_clean_linker_0, # of connection points: 2
#     Edge 56, Type (0, 0), BuildingBlock: CIFDUS_clean_linker_0, # of connection points: 2
#     Edge 57, Type (0, 0), BuildingBlock: CIFDUS_clean_linker_0, # of connection points: 2
#     Edge 58, Type (0, 0), BuildingBlock: CIFDUS_clean_linker_0, # of connection points: 2
#     Edge 59, Type (0, 0), BuildingBlock: CIFDUS_clean_linker_0, # of connection points: 2
#     Edge 60, Type (0, 0), BuildingBlock: CIFDUS_clean_linker_0, # of connection points: 2
#     Edge 61, Type (0, 0), BuildingBlock: CIFDUS_clean_linker_0, # of connection points: 2
#     Edge 62, Type (0, 0), BuildingBlock: CIFDUS_clean_linker_0, # of connection points: 2
#     Edge 63, Type (0, 0), BuildingBlock: CIFDUS_clean_linker_0, # of connection points: 2
#     Edge 64, Type (0, 0), BuildingBlock: CIFDUS_clean_linker_0, # of connection points: 2
#     Edge 65, Type (0, 0), BuildingBlock: CIFDUS_clean_linker_0, # of connection points: 2
#     Edge 66, Type (0, 0), BuildingBlock: CIFDUS_clean_linker_0, # of connection points: 2
#     Edge 67, Type (0, 0), BuildingBlock: CIFDUS_clean_linker_0, # of connection points: 2
#     Edge 68, Type (0, 0), BuildingBlock: CIFDUS_clean_linker_0, # of connection points: 2
#     Edge 69, Type (0, 0), BuildingBlock: CIFDUS_clean_linker_0, # of connection points: 2
#     Edge 70, Type (0, 0), BuildingBlock: CIFDUS_clean_linker_0, # of connection points: 2
#     Edge 71, Type (0, 0), BuildingBlock: CIFDUS_clean_linker_0, # of connection points: 2
#     Edge 72, Type (0, 0), BuildingBlock: CIFDUS_clean_linker_0, # of connection points: 2
#     Edge 73, Type (0, 0), BuildingBlock: CIFDUS_clean_linker_0, # of connection points: 2
#     Edge 74, Type (0, 0), BuildingBlock: CIFDUS_clean_linker_0, # of connection points: 2
#     Edge 75, Type (0, 0), BuildingBlock: CIFDUS_clean_linker_0, # of connection points: 2
#     Edge 76, Type (0, 0), BuildingBlock: CIFDUS_clean_linker_0, # of connection points: 2
#     Edge 77, Type (0, 0), BuildingBlock: CIFDUS_clean_linker_0, # of connection points: 2
#     Edge 78, Type (0, 0), BuildingBlock: CIFDUS_clean_linker_0, # of connection points: 2
#     Edge 79, Type (0, 0), BuildingBlock: CIFDUS_clean_linker_0, # of connection points: 2
#     Edge 80, Type (0, 0), BuildingBlock: CIFDUS_clean_linker_0, # of connection points: 2
#     Edge 81, Type (0, 0), BuildingBlock: CIFDUS_clean_linker_0, # of connection points: 2
#     Edge 82, Type (0, 0), BuildingBlock: CIFDUS_clean_linker_0, # of connection points: 2
#     Edge 83, Type (0, 0), BuildingBlock: CIFDUS_clean_linker_0, # of connection points: 2
#     Edge 84, Type (0, 0), BuildingBlock: CIFDUS_clean_linker_0, # of connection points: 2
#     Edge 85, Type (0, 0), BuildingBlock: CIFDUS_clean_linker_0, # of connection points: 2
#     Edge 86, Type (0, 0), BuildingBlock: CIFDUS_clean_linker_0, # of connection points: 2
#     Edge 87, Type (0, 0), BuildingBlock: CIFDUS_clean_linker_0, # of connection points: 2
#     Edge 88, Type (0, 0), BuildingBlock: CIFDUS_clean_linker_0, # of connection points: 2
#     Edge 89, Type (0, 0), BuildingBlock: CIFDUS_clean_linker_0, # of connection points: 2
#     Edge 90, Type (0, 0), BuildingBlock: CIFDUS_clean_linker_0, # of connection points: 2
#     Edge 91, Type (0, 0), BuildingBlock: CIFDUS_clean_linker_0, # of connection points: 2
#     Edge 92, Type (0, 0), BuildingBlock: CIFDUS_clean_linker_0, # of connection points: 2
#     Edge 93, Type (0, 0), BuildingBlock: CIFDUS_clean_linker_0, # of connection points: 2
#     Edge 94, Type (0, 0), BuildingBlock: CIFDUS_clean_linker_0, # of connection points: 2
#     Edge 95, Type (0, 0), BuildingBlock: CIFDUS_clean_linker_0, # of connection points: 2
#     Edge 96, Type (0, 0), BuildingBlock: CIFDUS_clean_linker_0, # of connection points: 2
#     Edge 97, Type (0, 0), BuildingBlock: CIFDUS_clean_linker_0, # of connection points: 2
#     Edge 98, Type (0, 0), BuildingBlock: CIFDUS_clean_linker_0, # of connection points: 2
#     Edge 99, Type (0, 0), BuildingBlock: CIFDUS_clean_linker_0, # of connection points: 2
#     Edge 100, Type (0, 0), BuildingBlock: CIFDUS_clean_linker_0, # of connection points: 2
#     Edge 101, Type (0, 0), BuildingBlock: CIFDUS_clean_linker_0, # of connection points: 2
#     Edge 102, Type (0, 0), BuildingBlock: CIFDUS_clean_linker_0, # of connection points: 2
#     Edge 103, Type (0, 0), BuildingBlock: CIFDUS_clean_linker_0, # of connection points: 2
#     Edge 104, Type (0, 0), BuildingBlock: CIFDUS_clean_linker_0, # of connection points: 2
#     Edge 105, Type (0, 0), BuildingBlock: CIFDUS_clean_linker_0, # of connection points: 2
#     Edge 106, Type (0, 0), BuildingBlock: CIFDUS_clean_linker_0, # of connection points: 2
#     Edge 107, Type (0, 0), BuildingBlock: CIFDUS_clean_linker_0, # of connection points: 2
#     Edge 108, Type (0, 0), BuildingBlock: CIFDUS_clean_linker_0, # of connection points: 2
#     Edge 109, Type (0, 0), BuildingBlock: CIFDUS_clean_linker_0, # of connection points: 2
#     Edge 110, Type (0, 0), BuildingBlock: CIFDUS_clean_linker_0, # of connection points: 2
#     Edge 111, Type (0, 0), BuildingBlock: CIFDUS_clean_linker_0, # of connection points: 2
#     Edge 112, Type (0, 0), BuildingBlock: CIFDUS_clean_linker_0, # of connection points: 2
#     Edge 113, Type (0, 0), BuildingBlock: CIFDUS_clean_linker_0, # of connection points: 2
#     Edge 114, Type (0, 0), BuildingBlock: CIFDUS_clean_linker_0, # of connection points: 2
#     Edge 115, Type (0, 0), BuildingBlock: CIFDUS_clean_linker_0, # of connection points: 2
#     Edge 116, Type (0, 0), BuildingBlock: CIFDUS_clean_linker_0, # of connection points: 2
#     Edge 117, Type (0, 0), BuildingBlock: CIFDUS_clean_linker_0, # of connection points: 2
#     Edge 118, Type (0, 0), BuildingBlock: CIFDUS_clean_linker_0, # of connection points: 2
#     Edge 119, Type (0, 0), BuildingBlock: CIFDUS_clean_linker_0, # of connection points: 2
#     Edge 120, Type (0, 0), BuildingBlock: CIFDUS_clean_linker_0, # of connection points: 2
#     Edge 121, Type (0, 0), BuildingBlock: CIFDUS_clean_linker_0, # of connection points: 2
#     Edge 122, Type (0, 0), BuildingBlock: CIFDUS_clean_linker_0, # of connection points: 2
#     Edge 123, Type (0, 0), BuildingBlock: CIFDUS_clean_linker_0, # of connection points: 2
#     Edge 124, Type (0, 0), BuildingBlock: CIFDUS_clean_linker_0, # of connection points: 2
#     Edge 125, Type (0, 0), BuildingBlock: CIFDUS_clean_linker_0, # of connection points: 2
# Relax obj value: 0.137
# Max RMSD: 0.104
# Mean RMSD: 0.104
data_MOF--net-wls--node1-BEQFEK_clean_sbu_0--edge1-CIFDUS_clean_linker_0
_symmetry_space_group_name_H-M    P1
_symmetry_Int_Tables_number       1
_symmetry_cell_setting            triclinic
loop_
_symmetry_equiv_pos_as_xyz
'x, y, z'
_cell_length_a     71.012897
_cell_length_b     71.029676
_cell_length_c     31.61362
_cell_angle_alpha  90.041257
_cell_angle_beta   89.947557
_cell_angle_gamma 120.00344
loop_
_atom_site_label
_atom_site_type_symbol
_atom_site_fract_x
_atom_site_fract_y
_atom_site_fract_z
_atom_type_partial_charge
Co0 Co 0.24049 0.22993 0.07667 0.0
Co1 Co 0.22214 0.18017 0.07314 0.0
C2 C 0.2245 0.20169 0.15514 0.0
O3 O 0.23139 0.21947 0.13523 0.0
O4 O 0.22145 0.18451 0.1362 0.0
C5 C 0.27489 0.26933 0.10373 0.0
O6 O 0.28079 0.2562 0.12075 0.0
C7 C 0.21819 0.13652 0.07771 0.0
C8 C 0.1942 0.11953 0.02691 0.0
C9 C 0.20699 0.11675 0.05646 0.0
N10 N 0.21241 0.15032 0.06097 0.0
N11 N 0.19793 0.13995 0.03091 0.0
C12 C 0.23323 0.14191 0.11463 0.0
H13 H 0.2334 0.15504 0.1339 0.0
H14 H 0.25 0.14771 0.10321 0.0
H15 H 0.22824 0.12727 0.13449 0.0
C16 C 0.27616 0.23015 0.0265 0.0
N17 N 0.25774 0.21972 0.04969 0.0
N18 N 0.25015 0.19863 0.04747 0.0
C19 C 0.26355 0.19506 0.02239 0.0
C20 C 0.28075 0.21498 1.00905 0.0
C21 C 0.28751 0.25387 1.01583 0.0
H22 H 0.29979 0.26311 0.04054 0.0
H23 H 0.29611 0.25713 0.98504 0.0
H24 H 0.27568 0.2597 1.01426 0.0
O25 O 0.21388 0.22171 0.04415 0.0
O26 O 0.19978 0.18594 0.04697 0.0
H27 H 0.24245 0.16367 0.99579 0.0
H28 H 0.27101 0.17417 0.98456 0.0
C29 C 0.25916 0.17306 1.00873 0.0
H30 H 0.26028 0.1642 0.03649 0.0
H31 H 0.19081 0.14693 1.01259 0.0
O32 O 0.25749 0.26147 0.08222 0.0
C33 C 0.1984 0.20256 0.03657 0.0
Co34 Co 0.7789 0.01251 0.07092 0.0
Co35 Co 0.82818 0.04609 0.06502 0.0
C36 C 0.80899 0.02601 0.14737 0.0
O37 O 0.79114 0.0145 0.12799 0.0
O38 O 0.82564 0.04094 0.12825 0.0
C39 C 0.7379 0.00258 0.10226 0.0
O40 O 0.74893 0.02185 0.11988 0.0
C41 C 0.87366 0.08469 0.06492 0.0
C42 C 0.8858 0.07706 1.0067 0.0
C43 C 0.89206 0.09178 0.03967 0.0
N44 N 0.85733 0.06645 0.04756 0.0
N45 N 0.86479 0.0622 1.01265 0.0
C46 C 0.87203 0.09428 0.10591 0.0
H47 H 0.857 0.08278 0.12313 0.0
H48 H 0.87161 0.10942 0.09957 0.0
H49 H 0.88656 0.09862 0.12568 0.0
C50 C 0.77549 0.04779 0.02777 0.0
N51 N 0.78724 0.03988 0.04605 0.0
N52 N 0.808 0.05466 0.04432 0.0
C53 C 0.81 0.07273 0.02558 0.0
C54 C 0.78934 0.069 1.01486 0.0
C55 C 0.75161 0.03468 0.01882 0.0
H56 H 0.74648 0.01725 1.01525 0.0
H57 H 0.74247 0.03666 0.04524 0.0
H58 H 0.74751 0.04041 0.98945 0.0
O59 O 0.78719 0.99566 0.03513 0.0
O60 O 0.82273 0.01818 0.03714 0.0
H61 H 0.84139 0.08984 0.99689 0.0
H62 H 0.82883 0.10632 1.00564 0.0
C63 C 0.83119 0.09317 0.01882 0.0
H64 H 0.83996 0.09854 0.04937 0.0
H65 H 0.85557 0.04889 0.99303 0.0
O66 O 0.74754 0.99553 0.07889 0.0
C67 C 0.80638 1.00011 0.02607 0.0
Co68 Co 0.99491 0.76387 0.07665 0.0
Co69 Co 0.96391 0.7828 0.07273 0.0
C70 C 0.98379 0.78148 0.15444 0.0
O71 O 0.99451 0.77435 0.13459 0.0
O72 O 0.9695 0.78432 0.13566 0.0
C73 C 0.00758 0.73615 0.11472 0.0
O74 O 0.99614 0.73705 0.1465 0.0
C75 C 0.92488 0.78803 0.07743 0.0
C76 C 0.93202 0.81123 0.02502 0.0
C77 C 0.91665 0.7994 0.05564 0.0
N78 N 0.94411 0.79287 0.06003 0.0
N79 N 0.94828 0.80685 0.02894 0.0
C80 C 0.91535 0.77383 0.11549 0.0
H81 H 0.92825 0.77326 0.13419 0.0
H82 H 0.90356 0.75704 0.10535 0.0
H83 H 0.90662 0.77986 0.13548 0.0
C84 C 0.95816 0.72702 0.03278 0.0
N85 N 0.96695 0.74644 0.05249 0.0
N86 N 0.95355 0.75413 0.04974 0.0
C87 C 0.93573 0.73967 0.02777 0.0
C88 C 0.93802 0.72194 1.01666 0.0
C89 C 0.96936 0.71403 0.02781 0.0
H90 H 0.98579 0.72446 1.01418 0.0
H91 H 0.97134 0.70846 0.05939 0.0
H92 H 0.96001 0.69962 1.00724 0.0
O93 O 0.01294 0.78952 0.04168 0.0
O94 O 0.99193 0.80434 0.04462 0.0
H95 H 0.92431 0.7602 1.00275 0.0
H96 H 0.90732 0.73164 0.99001 0.0
C97 C 0.91761 0.74338 1.01476 0.0
H98 H 0.90731 0.74133 0.04265 0.0
H99 H 0.96216 0.81325 1.00999 0.0
O100 O 0.00932 0.74659 0.08098 0.0
C101 C 0.00957 0.80511 0.03341 0.0
Co102 Co 0.22637 0.23825 0.46879 0.0
Co103 Co 0.17659 0.21986 0.47232 0.0
C104 C 0.19794 0.22244 0.39027 0.0
O105 O 0.21562 0.22919 0.41051 0.0
O106 O 0.18063 0.21928 0.40892 0.0
C107 C 0.26794 0.27122 0.44266 0.0
O108 O 0.2573 0.28007 0.42585 0.0
C109 C 0.131 0.21241 0.47083 0.0
C110 C 0.11699 0.18864 0.52304 0.0
C111 C 0.11181 0.19947 0.49304 0.0
N112 N 0.14672 0.2092 0.48713 0.0
N113 N 0.13813 0.19502 0.51837 0.0
C114 C 0.13405 0.22653 0.43342 0.0
H115 H 0.14899 0.23011 0.41578 0.0
H116 H 0.13569 0.24212 0.44435 0.0
H117 H 0.11965 0.21853 0.41234 0.0
C118 C 0.22681 0.27426 0.51764 0.0
N119 N 0.21634 0.25565 0.49515 0.0
N120 N 0.19524 0.24812 0.49713 0.0
C121 C 0.19172 0.26191 0.52101 0.0
C122 C 0.21167 0.27914 0.53412 0.0
C123 C 0.25058 0.28576 0.52788 0.0
H124 H 0.25969 0.2977 0.50258 0.0
H125 H 0.25399 0.29478 0.55819 0.0
H126 H 0.25644 0.27397 0.53001 0.0
O127 O 0.21844 0.21219 0.50187 0.0
O128 O 0.18272 0.19753 0.4979 0.0
H129 H 0.16069 0.24183 0.5497 0.0
H130 H 0.17087 0.27074 0.55522 0.0
C131 C 0.16972 0.25784 0.53375 0.0
H132 H 0.1605 0.25726 0.50505 0.0
H133 H 0.1467 0.18955 0.53651 0.0
O134 O 0.25784 0.2537 0.4635 0.0
C135 C 0.19943 0.1965 0.50901 0.0
Co136 Co 0.76736 0.99172 0.45925 0.0
Co137 Co 0.78541 0.95992 0.46537 0.0
C138 C 0.78458 0.97957 0.38261 0.0
O139 O 0.7776 0.99061 0.40168 0.0
O140 O 0.78708 0.96523 0.40211 0.0
C141 C 0.74072 0.006 0.42096 0.0
O142 O 0.74165 0.99501 0.38837 0.0
C143 C 0.78883 0.9198 0.46177 0.0
C144 C 0.81239 0.92657 0.51328 0.0
C145 C 0.79982 0.9111 0.48337 0.0
N146 N 0.79456 0.93938 0.4786 0.0
N147 N 0.80875 0.94331 0.50915 0.0
C148 C 0.77403 0.91031 0.42448 0.0
H149 H 0.77398 0.92334 0.40531 0.0
H150 H 0.75719 0.89931 0.43556 0.0
H151 H 0.77914 0.90073 0.40466 0.0
C152 C 0.73042 0.95627 0.50523 0.0
N153 N 0.74944 0.96411 0.48432 0.0
N154 N 0.75704 0.95073 0.48903 0.0
C155 C 0.74312 0.93406 0.51411 0.0
C156 C 0.72558 0.93685 0.52477 0.0
C157 C 0.71865 0.96869 0.51092 0.0
H158 H 0.73019 0.9853 0.5225 0.0
H159 H 0.71226 0.97022 0.47989 0.0
H160 H 0.70497 0.96068 0.53362 0.0
O161 O 0.79339 0.00944 0.49364 0.0
O162 O 0.80763 0.98788 0.49239 0.0
H163 H 0.76352 0.92407 0.54488 0.0
H164 H 0.73465 0.9057 0.55275 0.0
C165 C 0.74724 0.91659 0.52983 0.0
H166 H 0.74723 0.90673 0.5027 0.0
H167 H 0.81582 0.95739 0.52757 0.0
O168 O 0.75082 0.00693 0.45473 0.0
C169 C 0.80877 0.00582 0.50245 0.0
Co170 Co 0.01523 0.77352 0.46826 0.0
Co171 Co 0.04598 0.82326 0.4746 0.0
C172 C 0.02856 0.80253 0.39112 0.0
O173 O 0.01752 0.7845 0.41009 0.0
O174 O 0.04208 0.81959 0.41115 0.0
C175 C 0.01026 0.73427 0.43963 0.0
O176 O 0.02951 0.7473 0.42325 0.0
C177 C 0.08606 0.86659 0.47225 0.0
C178 C 0.07812 0.88417 0.52028 0.0
C179 C 0.09433 0.88654 0.49272 0.0
N180 N 0.066 0.85309 0.48751 0.0
N181 N 0.06135 0.86379 0.51598 0.0
C182 C 0.09641 0.86077 0.43721 0.0
H183 H 0.08387 0.84721 0.41808 0.0
H184 H 0.10737 0.85541 0.45064 0.0
H185 H 0.10624 0.8751 0.41673 0.0
C186 C 0.04978 0.77298 0.52018 0.0
N187 N 0.04217 0.78362 0.49671 0.0
N188 N 0.05543 0.8047 0.50031 0.0
C189 C 0.07193 0.80803 0.52652 0.0
C190 C 0.06911 0.78799 0.53912 0.0
C191 C 0.03748 0.74904 0.52896 0.0
H192 H 0.01979 0.7431 0.53055 0.0
H193 H 0.04066 0.74039 0.50321 0.0
H194 H 0.04272 0.7451 0.55913 0.0
O195 O 0.99617 0.78103 0.49996 0.0
O196 O 0.01718 0.81693 0.4993 0.0
H197 H 0.08085 0.83919 0.5529 0.0
H198 H 0.09765 0.82812 0.57028 0.0
C199 C 0.08871 0.82977 0.54306 0.0
H200 H 0.10052 0.83887 0.51764 0.0
H201 H 0.04678 0.85709 0.53287 0.0
O202 O 1.00083 0.74213 0.46148 0.0
C203 C 0.9992 0.79986 0.50829 0.0
Co204 Co 0.76889 0.77548 0.96968 0.0
Co205 Co 0.78508 0.82476 0.96685 0.0
C206 C 0.78246 0.8008 0.88739 0.0
O207 O 0.77661 0.7837 0.90923 0.0
O208 O 0.78522 0.8183 0.90456 0.0
C209 C 0.743 0.73187 0.94412 0.0
O210 O 0.73931 0.74066 0.91089 0.0
C211 C 0.78836 0.86822 0.95769 0.0
C212 C 0.81271 0.88621 1.00742 0.0
C213 C 0.79995 0.88848 0.97712 0.0
N214 N 0.79406 0.85469 0.97604 0.0
N215 N 0.80869 0.86565 1.00554 0.0
C216 C 0.77316 0.86215 0.92093 0.0
H217 H 0.77172 0.84769 0.90445 0.0
H218 H 0.7568 0.85812 0.93225 0.0
H219 H 0.77893 0.87601 0.89859 0.0
C220 C 0.73149 0.77428 1.01399 0.0
N221 N 0.75062 0.78514 0.99332 0.0
N222 N 0.75713 0.80604 0.99304 0.0
C223 C 0.74206 0.80903 1.01365 0.0
C224 C 0.72528 0.78896 0.02747 0.0
C225 C 0.71946 0.7502 0.02087 0.0
H226 H 0.71443 0.7419 0.9898 0.0
H227 H 0.70476 0.74486 0.0407 0.0
H228 H 0.73039 0.74528 0.03617 0.0
O229 O 0.79566 0.78621 1.00184 0.0
O230 O 0.80884 0.82154 0.99458 0.0
H231 H 0.76102 0.84254 0.03167 0.0
H232 H 0.73269 0.82956 0.04727 0.0
C233 C 0.74413 0.83069 0.02213 0.0
H234 H 0.74034 0.83663 0.99278 0.0
H235 H 0.81583 0.85904 0.02481 0.0
O236 O 0.75495 0.744 0.97365 0.0
C237 C 0.81078 0.80562 1.00756 0.0
Co238 Co 0.23441 0.99471 0.9683 0.0
Co239 Co 0.18525 0.96057 0.97027 0.0
C240 C 0.20684 0.98056 0.88881 0.0
O241 O 0.22417 0.99241 0.90944 0.0
O242 O 0.18987 0.9657 0.90716 0.0
C243 C 0.27648 0.00614 0.94243 0.0
O244 O 0.26627 0.98704 0.92387 0.0
C245 C 0.14241 0.91921 0.96636 0.0
C246 C 0.12445 0.92631 1.01504 0.0
C247 C 0.12235 0.91054 0.98662 0.0
N248 N 0.15569 0.93916 0.98241 0.0
N249 N 0.14475 0.94322 1.01137 0.0
C250 C 0.14843 0.90938 0.93071 0.0
H251 H 0.16296 0.92203 0.91379 0.0
H252 H 0.15227 0.89713 0.94327 0.0
H253 H 0.13457 0.90099 0.90847 0.0
C254 C 0.2373 0.9608 1.0182 0.0
N255 N 0.22595 0.96758 0.99474 0.0
N256 N 0.20515 0.95283 0.99611 0.0
C257 C 0.20274 0.93607 0.02052 0.0
C258 C 0.22311 0.94045 0.03475 0.0
C259 C 0.26105 0.97442 0.02801 0.0
H260 H 0.26553 0.99168 0.03188 0.0
H261 H 0.27058 0.97317 1.00148 0.0
H262 H 0.26548 0.96883 0.05712 0.0
O263 O 0.2241 0.01114 1.00061 0.0
O264 O 0.18871 0.98802 0.99648 0.0
H265 H 0.1706 0.92351 0.04538 0.0
H266 H 0.18326 0.90761 0.05898 0.0
C267 C 0.1813 0.91739 0.03381 0.0
H268 H 0.17338 0.9068 1.00612 0.0
H269 H 0.15119 0.95757 0.02889 0.0
O270 O 0.26591 0.01257 0.9646 0.0
C271 C 0.2046 0.00637 1.00768 0.0
Co272 Co 0.017 0.24643 0.95946 0.0
Co273 Co 0.04381 0.22319 0.97024 0.0
C274 C 0.02593 0.22524 0.88575 0.0
O275 O 0.01663 0.23461 0.90289 0.0
O276 O 0.03857 0.22087 0.9069 0.0
C277 C 0.00437 0.27405 0.91876 0.0
O278 O 0.013 0.27058 0.88501 0.0
C279 C 0.08282 0.21846 0.96829 0.0
C280 C 0.07458 0.19319 1.01693 0.0
C281 C 0.09091 0.2068 0.98932 0.0
N282 N 0.06281 0.2122 0.98335 0.0
N283 N 0.05792 0.19695 1.0121 0.0
C284 C 0.09337 0.23444 0.93303 0.0
H285 H 0.0809 0.23518 0.91316 0.0
H286 H 0.1041 0.25089 0.94617 0.0
H287 H 0.10347 0.22994 0.91334 0.0
C288 C 0.0546 0.28194 1.00342 0.0
N289 N 0.04495 0.26242 0.98402 0.0
N290 N 0.05595 0.25244 0.99182 0.0
C291 C 0.0727 0.26518 1.0179 0.0
C292 C 0.07264 0.28453 0.02551 0.0
C293 C 0.0448 0.29632 1.00578 0.0
H294 H 0.04313 0.30125 0.97335 0.0
H295 H 0.05474 0.31108 0.02507 0.0
H296 H 0.0283 0.28709 0.01981 0.0
O297 O 0.99746 0.22183 0.99565 0.0
O298 O 0.01513 0.20345 0.99856 0.0
H299 H 0.07749 0.24108 0.04908 0.0
H300 H 0.09619 0.26872 0.06559 0.0
C301 C 0.08722 0.2582 0.03838 0.0
H302 H 0.09932 0.25924 1.01504 0.0
H303 H 0.04335 0.18937 0.02904 0.0
O304 O 0.00439 0.26524 0.95367 0.0
C305 C 0.9985 0.20522 1.00716 0.0
Co306 Co 0.7725 0.76254 0.57151 0.0
Co307 Co 0.82093 0.77542 0.56606 0.0
C308 C 0.80161 0.77609 0.64906 0.0
O309 O 0.78416 0.77124 0.62947 0.0
O310 O 0.81786 0.77701 0.62969 0.0
C311 C 0.73149 0.73641 0.60699 0.0
O312 O 0.74258 0.73091 0.63239 0.0
C313 C 0.864 0.7771 0.56794 0.0
C314 C 0.87991 0.79912 0.5138 0.0
C315 C 0.88335 0.78758 0.5451 0.0
N316 N 0.84984 0.78233 0.55074 0.0
N317 N 0.85953 0.79543 0.51837 0.0
C318 C 0.85957 0.7636 0.60693 0.0
H319 H 0.84487 0.76153 0.62344 0.0
H320 H 0.85684 0.74731 0.59815 0.0
H321 H 0.87384 0.77126 0.6284 0.0
C322 C 0.76637 0.72314 0.52722 0.0
N323 N 0.77921 0.74254 0.5457 0.0
N324 N 0.79965 0.74747 0.5428 0.0
C325 C 0.80035 0.73101 0.52239 0.0
C326 C 0.77916 0.71486 0.51212 0.0
C327 C 0.74233 0.71333 0.52153 0.0
H328 H 0.73836 0.72622 0.51434 0.0
H329 H 0.73397 0.7051 0.55126 0.0
H330 H 0.73618 0.70123 0.49549 0.0
O331 O 0.78275 0.78863 0.5376 0.0
O332 O 0.81797 0.79992 0.53999 0.0
H333 H 0.83237 0.74528 0.49633 0.0
H334 H 0.81768 0.71578 0.49624 0.0
C335 C 0.82082 0.7305 0.51416 0.0
H336 H 0.82849 0.73073 0.54478 0.0
H337 H 0.85226 0.80204 0.49943 0.0
O338 O 0.74125 0.74978 0.57727 0.0
C339 C 0.80228 0.80288 0.52949 0.0
Co340 Co 0.24417 0.01369 0.57247 0.0
Co341 Co 0.22636 0.04547 0.57147 0.0
C342 C 0.2295 0.02657 0.65249 0.0
O343 O 0.23586 0.0155 0.63158 0.0
O344 O 0.22637 0.04082 0.63438 0.0
C345 C 0.2786 0.00878 0.59885 0.0
O346 O 0.28454 0.02785 0.61581 0.0
C347 C 0.22121 0.08461 0.57625 0.0
C348 C 0.19739 0.077 0.52483 0.0
C349 C 0.20951 0.09257 0.5549 0.0
N350 N 0.21627 0.06529 0.55917 0.0
N351 N 0.20194 0.06086 0.52865 0.0
C352 C 0.23579 0.0945 0.6137 0.0
H353 H 0.23759 0.08201 0.63136 0.0
H354 H 0.25212 0.10719 0.60302 0.0
H355 H 0.2292 0.10232 0.63483 0.0
C356 C 0.27931 0.04877 0.5211 0.0
N357 N 0.26103 0.04085 0.54463 0.0
N358 N 0.25429 0.05507 0.54526 0.0
C359 C 0.26861 0.07284 0.52294 0.0
C360 C 0.28498 0.06943 0.5071 0.0
C361 C 0.29082 0.03652 0.51073 0.0
H362 H 0.30305 0.03967 0.5356 0.0
H363 H 0.29957 0.04186 0.48015 0.0
H364 H 0.27908 0.01884 0.5091 0.0
O365 O 0.21744 0.9952 0.5413 0.0
O366 O 0.20357 0.017 0.54602 0.0
H367 H 0.24928 0.08664 0.50317 0.0
H368 H 0.27788 0.103 0.49037 0.0
C369 C 0.26602 0.09211 0.51438 0.0
H370 H 0.26866 0.10134 0.54412 0.0
H371 H 0.19538 0.04686 0.51006 0.0
O372 O 0.26117 0.99921 0.57745 0.0
C373 C 0.20192 0.99893 0.53505 0.0
Co374 Co 0.98872 0.23227 0.57809 0.0
Co375 Co 0.9618 0.18233 0.56654 0.0
C376 C 0.97942 0.20206 0.65148 0.0
O377 O 0.98881 0.22077 0.63464 0.0
O378 O 0.96689 0.18512 0.63001 0.0
C379 C 1.0016 0.2726 0.61872 0.0
O380 O 0.99284 0.26061 0.65253 0.0
C381 C 0.92275 0.13864 0.5681 0.0
C382 C 0.9315 0.1213 0.52101 0.0
C383 C 0.91496 0.11871 0.54792 0.0
N384 N 0.94283 0.15237 0.55332 0.0
N385 N 0.948 0.14183 0.52543 0.0
C386 C 0.91193 0.1443 0.60251 0.0
H387 H 0.92423 0.15792 0.62191 0.0
H388 H 0.90101 0.14954 0.58846 0.0
H389 H 0.902 0.12993 0.62283 0.0
C390 C 0.95142 0.23056 0.5337 0.0
N391 N 0.96087 0.22052 0.55316 0.0
N392 N 0.94986 0.19959 0.54489 0.0
C393 C 0.93334 0.19581 0.51836 0.0
C394 C 0.93353 0.21529 0.51103 0.0
C395 C 0.96127 0.25475 0.53189 0.0
H396 H 0.97771 0.26205 0.51755 0.0
H397 H 0.96309 0.26122 0.5645 0.0
H398 H 0.95126 0.25968 0.51312 0.0
O399 O 0.00833 0.22716 0.5422 0.0
O400 O 0.99047 0.19114 0.53842 0.0
H401 H 0.92874 0.16692 0.48737 0.0
H402 H 0.91077 0.17642 0.469 0.0
C403 C 0.91902 0.17449 0.49704 0.0
H404 H 0.90635 0.16342 0.51952 0.0
H405 H 0.96271 0.14874 0.50898 0.0
O406 O 1.00152 0.26365 0.58391 0.0
C407 C 0.00721 0.20952 0.5303 0.0
Co408 Co 0.90561 0.56461 0.40142 0.0
Co409 Co 0.88993 0.51541 0.40026 0.0
C410 C 0.89173 0.53734 0.48145 0.0
O411 O 0.89747 0.55466 0.46058 0.0
O412 O 0.8894 0.52024 0.4633 0.0
C413 C 0.93711 0.60618 0.42667 0.0
O414 O 0.9456 0.59543 0.44452 0.0
C415 C 0.88689 0.47195 0.40586 0.0
C416 C 0.86271 0.45461 0.35551 0.0
C417 C 0.87537 0.45194 0.38547 0.0
N418 N 0.88124 0.48572 0.38842 0.0
N419 N 0.86675 0.47516 0.35846 0.0
C420 C 0.90199 0.47756 0.44268 0.0
H421 H 0.90324 0.49167 0.46018 0.0
H422 H 0.91844 0.48198 0.43116 0.0
H423 H 0.89631 0.46337 0.46414 0.0
C424 C 0.94209 0.56667 0.35126 0.0
N425 N 0.924 0.55568 0.37508 0.0
N426 N 0.9177 0.53483 0.37432 0.0
C427 C 0.93187 0.53201 0.35008 0.0
C428 C 0.94799 0.55217 0.33518 0.0
C429 C 0.95238 0.59032 0.34052 0.0
H430 H 0.93975 0.59504 0.33724 0.0
H431 H 0.96365 0.60004 0.3663 0.0
H432 H 0.96194 0.59428 0.31082 0.0
O433 O 0.87898 0.55474 0.36897 0.0
O434 O 0.86631 0.51931 0.3737 0.0
H435 H 0.91229 0.5001 0.32443 0.0
H436 H 0.94113 0.51197 0.31412 0.0
C437 C 0.92882 0.51034 0.33771 0.0
H438 H 0.93025 0.50209 0.36621 0.0
H439 H 0.85962 0.48202 0.33982 0.0
O440 O 0.91988 0.59609 0.40498 0.0
C441 C 0.8641 0.5353 0.36212 0.0
Co442 Co 0.43508 0.34404 0.40661 0.0
Co443 Co 0.48511 0.37072 0.39681 0.0
C444 C 0.46472 0.35343 0.48137 0.0
O445 O 0.44614 0.34439 0.46393 0.0
O446 O 0.48188 0.36563 0.46018 0.0
C447 C 0.39645 0.3409 0.43726 0.0
O448 O 0.40988 0.35934 0.456 0.0
C449 C 0.52925 0.4091 0.40007 0.0
C450 C 0.54611 0.40098 0.35078 0.0
C451 C 0.54908 0.41709 0.37925 0.0
N452 N 0.51524 0.3894 0.38407 0.0
N453 N 0.52551 0.38458 0.35495 0.0
C454 C 0.52386 0.41942 0.43585 0.0
H455 H 0.51103 0.40681 0.45615 0.0
H456 H 0.51755 0.42974 0.42316 0.0
H457 H 0.53855 0.42978 0.45508 0.0
C458 C 0.43747 0.3809 0.35799 0.0
N459 N 0.44704 0.37159 0.37977 0.0
N460 N 0.46821 0.38287 0.37389 0.0
C461 C 0.47266 0.39964 0.34747 0.0
C462 C 0.45333 0.39921 0.33741 0.0
C463 C 0.41344 0.37064 0.35111 0.0
H464 H 0.40598 0.35278 0.348 0.0
H465 H 0.40608 0.37433 0.37852 0.0
H466 H 0.40967 0.37703 0.32227 0.0
O467 O 0.4401 0.32394 0.37219 0.0
O468 O 0.47617 0.34188 0.3692 0.0
H469 H 0.50195 0.40466 0.31771 0.0
H470 H 0.49339 0.42368 0.30143 0.0
C471 C 0.49451 0.41434 0.32846 0.0
H472 H 0.50525 0.42601 0.35272 0.0
H473 H 0.51833 0.37022 0.33731 0.0
O474 O 0.40391 0.33159 0.41393 0.0
C475 C 0.45785 0.32507 0.361 0.0
Co476 Co 0.65956 0.0943 0.41151 0.0
Co477 Co 0.62815 0.1128 0.40798 0.0
C478 C 0.64879 0.11201 0.48928 0.0
O479 O 0.65951 0.10494 0.46928 0.0
O480 O 0.63426 0.11459 0.47081 0.0
C481 C 0.67431 0.06787 0.44887 0.0
O482 O 0.66383 0.06909 0.48205 0.0
C483 C 0.58862 0.11715 0.41299 0.0
C484 C 0.59597 0.14136 0.36246 0.0
C485 C 0.58039 0.12878 0.39218 0.0
N486 N 0.60806 0.12257 0.39592 0.0
N487 N 0.61235 0.13714 0.36595 0.0
C488 C 0.57884 0.10208 0.44981 0.0
H489 H 0.59168 0.1013 0.46838 0.0
H490 H 0.56734 0.08547 0.43823 0.0
H491 H 0.56972 0.10746 0.47031 0.0
C492 C 0.62293 0.05731 0.36778 0.0
N493 N 0.63136 0.07644 0.38849 0.0
N494 N 0.61819 0.08434 0.38468 0.0
C495 C 0.60116 0.07063 0.36017 0.0
C496 C 0.60341 0.05282 0.34921 0.0
C497 C 0.63484 0.04511 0.36123 0.0
H498 H 0.65106 0.05614 0.34735 0.0
H499 H 0.63737 0.03946 0.3923 0.0
H500 H 0.62583 0.03086 0.34014 0.0
O501 O 0.67701 0.11999 0.37574 0.0
O502 O 0.65557 0.13431 0.37899 0.0
H503 H 0.59206 0.09203 0.33065 0.0
H504 H 0.5736 0.06345 0.32014 0.0
C505 C 0.58416 0.07543 0.34429 0.0
H506 H 0.57388 0.07489 0.37111 0.0
H507 H 0.62642 0.14408 0.34747 0.0
O508 O 0.67459 0.07755 0.41491 0.0
C509 C 0.67321 0.13528 0.36723 0.0
Co510 Co 0.90006 0.57673 0.79603 0.0
Co511 Co 0.85085 0.56102 0.80133 0.0
C512 C 0.87082 0.56161 0.71856 0.0
O513 O 0.88853 0.56759 0.73814 0.0
O514 O 0.85411 0.55963 0.73786 0.0
C515 C 0.93942 0.60951 0.76559 0.0
O516 O 0.92639 0.61545 0.74822 0.0
C517 C 0.80746 0.55836 0.79969 0.0
C518 C 0.79095 0.53464 0.85115 0.0
C519 C 0.78789 0.54724 0.82163 0.0
N520 N 0.82142 0.55258 0.81581 0.0
N521 N 0.81136 0.5384 0.8465 0.0
C522 C 0.81228 0.57294 0.76226 0.0
H523 H 0.82817 0.5771 0.74802 0.0
H524 H 0.81274 0.58815 0.772 0.0
H525 H 0.79913 0.56485 0.73845 0.0
C526 C 0.90325 0.61406 0.84411 0.0
N527 N 0.8915 0.59509 0.82334 0.0
N528 N 0.87077 0.58924 0.82509 0.0
C529 C 0.86885 0.60477 0.84656 0.0
C530 C 0.8895 0.62118 0.8588 0.0
C531 C 0.927 0.62424 0.85393 0.0
H532 H 0.93183 0.61166 0.85617 0.0
H533 H 0.93656 0.63599 0.82865 0.0
H534 H 0.93092 0.6333 0.88428 0.0
O535 O 0.89146 0.55062 0.82934 0.0
O536 O 0.85586 0.53784 0.82773 0.0
H537 H 0.83609 0.58818 0.86934 0.0
H538 H 0.84992 0.61744 0.87591 0.0
C539 C 0.84777 0.60401 0.85485 0.0
H540 H 0.84089 0.60541 0.82438 0.0
H541 H 0.81845 0.53124 0.86439 0.0
O542 O 0.93147 0.59258 0.7885 0.0
C543 C 0.87217 0.53578 0.83782 0.0
Co544 Co 0.42468 0.32147 0.79095 0.0
Co545 Co 0.44713 0.29417 0.80439 0.0
C546 C 0.44334 0.30943 0.71778 0.0
O547 O 0.4341 0.31907 0.73388 0.0
O548 O 0.44867 0.29797 0.74043 0.0
C549 C 0.39154 0.32854 0.75898 0.0
O550 O 0.38394 0.30944 0.74097 0.0
C551 C 0.45163 0.25487 0.80463 0.0
C552 C 0.47751 0.26394 0.85227 0.0
C553 C 0.46377 0.24724 0.82548 0.0
N554 N 0.45782 0.27501 0.81892 0.0
N555 N 0.47339 0.28034 0.84717 0.0
C556 C 0.43531 0.24382 0.77011 0.0
H557 H 0.43392 0.25596 0.75035 0.0
H558 H 0.41913 0.23284 0.7841 0.0
H559 H 0.43995 0.23392 0.75015 0.0
C560 C 0.38959 0.28601 0.84138 0.0
N561 N 0.40854 0.29465 0.81987 0.0
N562 N 0.41816 0.28325 0.82756 0.0
C563 C 0.40562 0.26715 0.85508 0.0
C564 C 0.38686 0.26808 0.86398 0.0
C565 C 0.37592 0.29654 0.8454 0.0
H566 H 0.38646 0.31441 0.84807 0.0
H567 H 0.36565 0.29285 0.81678 0.0
H568 H 0.36506 0.29046 0.8734 0.0
O569 O 0.45035 0.34157 0.82343 0.0
O570 O 0.46793 0.3233 0.83026 0.0
H571 H 0.42958 0.26207 0.88593 0.0
H572 H 0.40195 0.24391 0.90331 0.0
C573 C 0.41238 0.2525 0.8757 0.0
H574 H 0.411 0.24018 0.85254 0.0
H575 H 0.48109 0.29514 0.86333 0.0
O576 O 0.40807 0.33605 0.78277 0.0
C577 C 0.46675 0.34048 0.83605 0.0
Co578 Co 0.68436 0.10933 0.80353 0.0
Co579 Co 0.71654 0.15912 0.80392 0.0
C580 C 0.69711 0.13687 0.72342 0.0
O581 O 0.68603 0.11951 0.74453 0.0
O582 O 0.71156 0.15427 0.74119 0.0
C583 C 0.67916 0.0698 0.77687 0.0
O584 O 0.69817 0.08296 0.75972 0.0
C585 C 0.75629 0.20311 0.79916 0.0
C586 C 0.74905 0.21972 0.85041 0.0
C587 C 0.76465 0.2228 0.82067 0.0
N588 N 0.73674 0.18907 0.81592 0.0
N589 N 0.73253 0.19922 0.8463 0.0
C590 C 0.76603 0.19816 0.76178 0.0
H591 H 0.75359 0.18341 0.74513 0.0
H592 H 0.77924 0.19527 0.77224 0.0
H593 H 0.77323 0.21223 0.7398 0.0
C594 C 0.7198 0.10935 0.85366 0.0
N595 N 0.71173 0.1197 0.83062 0.0
N596 N 0.72601 0.14064 0.82973 0.0
C597 C 0.74393 0.14408 0.85141 0.0
C598 C 0.74059 0.12432 0.867 0.0
C599 C 0.70758 0.08562 0.86426 0.0
H600 H 0.68991 0.07969 0.86626 0.0
H601 H 0.7106 0.07646 0.83931 0.0
H602 H 0.7131 0.08233 0.89472 0.0
O603 O 0.66622 0.11795 0.83519 0.0
O604 O 0.68817 0.1536 0.82985 0.0
H605 H 0.75803 0.17731 0.87082 0.0
H606 H 0.77422 0.16492 0.88366 0.0
C607 C 0.76333 0.1659 0.85967 0.0
H608 H 0.77254 0.17228 0.82986 0.0
H609 H 0.71845 0.19205 0.86472 0.0
O610 O 0.66965 0.07766 0.79854 0.0
C611 C 0.6701 0.13727 0.84124 0.0
Co612 Co 0.43471 0.10707 0.29888 0.0
Co613 Co 0.44979 0.15612 0.3047 0.0
C614 C 0.4504 0.13693 0.22206 0.0
O615 O 0.44443 0.11917 0.2415 0.0
O616 O 0.45201 0.1535 0.24132 0.0
C617 C 0.40469 0.06578 0.26738 0.0
O618 O 0.3961 0.07635 0.24916 0.0
C619 C 0.45588 0.20125 0.30465 0.0
C620 C 0.47593 0.21385 0.36238 0.0
C621 C 0.46708 0.21976 0.32963 0.0
N622 N 0.45822 0.18519 0.32197 0.0
N623 N 0.4701 0.19291 0.35659 0.0
C624 C 0.44436 0.1993 0.26393 0.0
H625 H 0.44102 0.18433 0.24675 0.0
H626 H 0.42866 0.19855 0.27066 0.0
H627 H 0.45422 0.21384 0.24395 0.0
C628 C 0.39583 0.10304 0.34276 0.0
N629 N 0.41542 0.11498 0.32425 0.0
N630 N 0.42124 0.13569 0.3263 0.0
C631 C 0.40515 0.13747 0.34563 0.0
C632 C 0.38836 0.11673 0.35638 0.0
C633 C 0.38521 0.07911 0.35092 0.0
H634 H 0.39765 0.07417 0.3547 0.0
H635 H 0.3745 0.07014 0.32391 0.0
H636 H 0.37503 0.07459 0.37991 0.0
O637 O 0.46016 0.11586 0.33391 0.0
O638 O 0.47287 0.15132 0.33164 0.0
H639 H 0.41921 0.16875 0.37467 0.0
H640 H 0.39016 0.15605 0.36594 0.0
C641 C 0.40572 0.15856 0.35269 0.0
H642 H 0.40907 0.1674 0.32225 0.0
H643 H 0.47452 0.18392 0.37611 0.0
O644 O 0.42105 0.07578 0.29136 0.0
C645 C 0.47487 0.13512 0.34252 0.0
Co646 Co 0.89519 0.32445 0.30611 0.0
Co647 Co 0.84558 0.29308 0.30461 0.0
C648 C 0.86985 0.31395 0.22464 0.0
O649 O 0.88714 0.32467 0.24615 0.0
O650 O 0.85222 0.29957 0.24204 0.0
C651 C 0.93784 0.33838 0.27996 0.0
O652 O 0.92801 0.32664 0.24641 0.0
C653 C 0.80316 0.25212 0.29655 0.0
C654 C 0.78321 0.25909 0.34053 0.0
C655 C 0.78249 0.24316 0.31421 0.0
N656 N 0.81549 0.27231 0.31228 0.0
N657 N 0.80335 0.27638 0.3382 0.0
C658 C 0.81075 0.24231 0.26351 0.0
H659 H 0.82518 0.25518 0.2467 0.0
H660 H 0.81538 0.23112 0.27844 0.0
H661 H 0.79746 0.23277 0.24066 0.0
C662 C 0.89485 0.28782 0.35136 0.0
N663 N 0.88454 0.29634 0.32957 0.0
N664 N 0.86341 0.28316 0.33189 0.0
C665 C 0.85965 0.26601 0.35663 0.0
C666 C 0.87951 0.2682 0.36901 0.0
C667 C 0.91883 0.29956 0.35962 0.0
H668 H 0.92757 0.30146 0.32944 0.0
H669 H 0.92351 0.29077 0.38244 0.0
H670 H 0.92398 0.31597 0.37243 0.0
O671 O 0.88545 0.34147 0.33859 0.0
O672 O 0.8498 0.32039 0.33234 0.0
H673 H 0.82712 0.25584 0.37719 0.0
H674 H 0.83861 0.24039 0.39974 0.0
C675 C 0.83761 0.24872 0.37089 0.0
H676 H 0.83005 0.23637 0.34562 0.0
H677 H 0.80894 0.29086 0.35501 0.0
O678 O 0.92669 0.34 0.30952 0.0
C679 C 0.8663 0.338 0.34476 0.0
Co680 Co 0.67308 0.56696 0.29777 0.0
Co681 Co 0.70685 0.55163 0.29855 0.0
C682 C 0.68703 0.55365 0.21738 0.0
O683 O 0.67532 0.55929 0.23817 0.0
O684 O 0.70174 0.5513 0.23567 0.0
C685 C 0.66245 0.5983 0.27369 0.0
O686 O 0.68162 0.60708 0.25543 0.0
C687 C 0.74752 0.54905 0.29302 0.0
C688 C 0.74144 0.52594 0.34511 0.0
C689 C 0.75653 0.53834 0.31452 0.0
N690 N 0.72806 0.54328 0.31052 0.0
N691 N 0.72456 0.52938 0.34143 0.0
C692 C 0.75659 0.56347 0.25512 0.0
H693 H 0.74351 0.56421 0.23745 0.0
H694 H 0.76862 0.58017 0.26531 0.0
H695 H 0.76504 0.55749 0.23416 0.0
C696 C 0.70755 0.60373 0.34801 0.0
N697 N 0.70018 0.58529 0.3251 0.0
N698 N 0.71505 0.5794 0.32465 0.0
C699 C 0.73265 0.5944 0.34644 0.0
C700 C 0.7285 0.61036 0.36184 0.0
C701 C 0.69459 0.61459 0.35764 0.0
H702 H 0.69681 0.626 0.33168 0.0
H703 H 0.70009 0.62411 0.38735 0.0
H704 H 0.6771 0.60232 0.36048 0.0
O705 O 0.65628 0.54002 0.32899 0.0
O706 O 0.67918 0.52752 0.32434 0.0
H707 H 0.76336 0.60524 0.37819 0.0
H708 H 0.76166 0.59565 0.32474 0.0
C709 C 0.75259 0.59292 0.35472 0.0
H710 H 0.74791 0.57645 0.36651 0.0
H711 H 0.71068 0.52237 0.36043 0.0
O712 O 0.65556 0.58095 0.29488 0.0
C713 C 0.66081 0.5251 0.33542 0.0
Co714 Co 0.44444 0.09889 0.90716 0.0
Co715 Co 0.49425 0.1171 0.90292 0.0
C716 C 0.47294 0.11428 0.98541 0.0
O717 O 0.45513 0.10751 0.96567 0.0
O718 O 0.49012 0.11751 0.96617 0.0
C719 C 0.40504 0.0644 0.93406 0.0
O720 O 0.41814 0.05821 0.95012 0.0
C721 C 0.53819 0.12128 0.90695 0.0
C722 C 0.55448 0.14424 0.85429 0.0
C723 C 0.55771 0.13215 0.88476 0.0
N724 N 0.52407 0.12659 0.88989 0.0
N725 N 0.53404 0.14043 0.85866 0.0
C726 C 0.53341 0.10707 0.94503 0.0
H727 H 0.51987 0.10643 0.96361 0.0
H728 H 0.52857 0.0903 0.935 0.0
H729 H 0.54814 0.11316 0.96512 0.0
C730 C 0.44385 0.0634 0.85613 0.0
N731 N 0.45447 0.08183 0.87914 0.0
N732 N 0.47551 0.0891 0.87723 0.0
C733 C 0.47884 0.07527 0.85299 0.0
C734 C 0.45879 0.05829 0.83939 0.0
C735 C 0.42017 0.05246 0.84513 0.0
H736 H 0.4145 0.06443 0.84453 0.0
H737 H 0.41071 0.03976 0.86902 0.0
H738 H 0.41703 0.04445 0.81373 0.0
O739 O 0.45261 0.1256 0.87566 0.0
O740 O 0.48843 0.13985 0.8777 0.0
H741 H 0.51046 0.09456 0.82593 0.0
H742 H 0.49966 0.06551 0.82112 0.0
C743 C 0.50078 0.07862 0.84188 0.0
H744 H 0.50937 0.07889 0.87124 0.0
H745 H 0.52677 0.1471 0.83989 0.0
O746 O 0.41291 0.08199 0.91317 0.0
C747 C 0.47167 0.1412 0.86805 0.0
Co748 Co 0.91179 0.35018 0.91118 0.0
Co749 Co 0.89317 0.38143 0.90728 0.0
C750 C 0.8952 0.3619 0.98948 0.0
O751 O 0.90205 0.351 0.96947 0.0
O752 O 0.89232 0.3762 0.97067 0.0
C753 C 0.9407 0.33845 0.94675 0.0
O754 O 0.94108 0.3509 0.97787 0.0
C755 C 0.8891 0.42127 0.91052 0.0
C756 C 0.86459 0.41344 0.86041 0.0
C757 C 0.87753 0.42942 0.88916 0.0
N758 N 0.88332 0.4015 0.89462 0.0
N759 N 0.86856 0.39693 0.86492 0.0
C760 C 0.90445 0.43144 0.94681 0.0
H761 H 0.90521 0.4188 0.96607 0.0
H762 H 0.92101 0.44267 0.93466 0.0
H763 H 0.89931 0.44094 0.9668 0.0
C764 C 0.94789 0.38579 0.86372 0.0
N765 N 0.9292 0.37785 0.88587 0.0
N766 N 0.92132 0.39104 0.88205 0.0
C767 C 0.9347 0.40767 0.8563 0.0
C768 C 0.95222 0.40509 0.84432 0.0
C769 C 0.95973 0.37355 0.85656 0.0
H770 H 0.94804 0.35673 0.84631 0.0
H771 H 0.9672 0.37265 0.88674 0.0
H772 H 0.97266 0.38137 0.8323 0.0
O773 O 0.88561 0.33213 0.87734 0.0
O774 O 0.871 0.35333 0.88052 0.0
H775 H 0.91336 0.41703 0.82745 0.0
H776 H 0.94195 0.43544 0.81682 0.0
C777 C 0.93 0.42481 0.84093 0.0
H778 H 0.93063 0.435 0.86798 0.0
H779 H 0.86136 0.38261 0.84725 0.0
O780 O 0.92883 0.33558 0.91466 0.0
C781 C 0.87 0.33556 0.86957 0.0
Co782 Co 0.65453 0.55948 0.90364 0.0
Co783 Co 0.62569 0.50973 0.89426 0.0
C784 C 0.64319 0.53117 0.97959 0.0
O785 O 0.65359 0.54963 0.96179 0.0
O786 O 0.6304 0.51405 0.95851 0.0
C787 C 0.68358 0.60311 0.92802 0.0
O788 O 0.69029 0.59437 0.9566 0.0
C789 C 0.58727 0.46466 0.89379 0.0
C790 C 0.60024 0.44839 0.85327 0.0
C791 C 0.58215 0.44455 0.87653 0.0
N792 N 0.60748 0.47949 0.88118 0.0
N793 N 0.61502 0.46958 0.85693 0.0
C794 C 0.57391 0.46962 0.92341 0.0
H795 H 0.58452 0.48443 0.94215 0.0
H796 H 0.56253 0.47276 0.90479 0.0
H797 H 0.56426 0.45564 0.94479 0.0
C798 C 0.61726 0.55913 0.86347 0.0
N799 N 0.62656 0.54822 0.87942 0.0
N800 N 0.61508 0.52761 0.8692 0.0
C801 C 0.59881 0.52509 0.84301 0.0
C802 C 0.59968 0.54523 0.83792 0.0
C803 C 0.62406 0.58196 0.87653 0.0
H804 H 0.62969 0.58463 0.90987 0.0
H805 H 0.61039 0.58526 0.87385 0.0
H806 H 0.63778 0.59358 0.85642 0.0
O807 O 0.67407 0.55274 0.87062 0.0
O808 O 0.65426 0.51692 0.86904 0.0
H809 H 0.58127 0.50763 0.78746 0.0
H810 H 0.56817 0.49591 0.83706 0.0
C811 C 0.58407 0.50432 0.82047 0.0
H812 H 0.59111 0.49348 0.82015 0.0
H813 H 0.6304 0.47723 0.84298 0.0
O814 O 0.66849 0.59098 0.90286 0.0
C815 C 0.67185 0.53439 0.86082 0.0
Co816 Co 0.57779 0.89913 0.73779 0.0
Co817 Co 0.56069 0.84944 0.73365 0.0
C818 C 0.56315 0.87085 0.81623 0.0
O819 O 0.56945 0.88857 0.79645 0.0
O820 O 0.56031 0.85379 0.79702 0.0
C821 C 0.60941 0.94121 0.76397 0.0
O822 O 0.61829 0.93087 0.78204 0.0
C823 C 0.55798 0.80597 0.73602 0.0
C824 C 0.53205 0.78841 0.68878 0.0
C825 C 0.54592 0.78592 0.71594 0.0
N826 N 0.55151 0.81959 0.72103 0.0
N827 N 0.53596 0.80888 0.69295 0.0
C828 C 0.5743 0.81168 0.77066 0.0
H829 H 0.57664 0.82624 0.78812 0.0
H830 H 0.59015 0.81533 0.75701 0.0
H831 H 0.56896 0.79774 0.79265 0.0
C832 C 0.61406 0.90078 0.6875 0.0
N833 N 0.59572 0.88983 0.71068 0.0
N834 N 0.58854 0.86882 0.70776 0.0
C835 C 0.60217 0.86585 0.68216 0.0
C836 C 0.61905 0.88605 0.66924 0.0
C837 C 0.62514 0.92465 0.67841 0.0
H838 H 0.63627 0.93366 0.70489 0.0
H839 H 0.63493 0.9288 0.64895 0.0
H840 H 0.61295 0.92996 0.67538 0.0
O841 O 0.55109 0.88987 0.70562 0.0
O842 O 0.53746 0.85422 0.70804 0.0
H843 H 0.58097 0.83424 0.65642 0.0
H844 H 0.60915 0.84588 0.6406 0.0
C845 C 0.59808 0.84419 0.66697 0.0
H846 H 0.60077 0.83559 0.69341 0.0
H847 H 0.52803 0.81558 0.67634 0.0
O848 O 0.59227 0.93075 0.74216 0.0
C849 C 0.53583 0.87071 0.6978 0.0
Co850 Co 0.11015 0.67921 0.74319 0.0
Co851 Co 0.15965 0.71156 0.73977 0.0
C852 C 0.13833 0.69166 0.82162 0.0
O853 O 0.12056 0.68057 0.80175 0.0
O854 O 0.15542 0.70598 0.80271 0.0
C855 C 0.06798 0.66869 0.76853 0.0
O856 O 0.07802 0.6879 0.78666 0.0
C857 C 0.20352 0.75136 0.74507 0.0
C858 C 0.21978 0.74505 0.69178 0.0
C859 C 0.22309 0.76003 0.72308 0.0
N860 N 0.18932 0.73222 0.72717 0.0
N861 N 0.19925 0.72856 0.69554 0.0
C862 C 0.19872 0.7605 0.78361 0.0
H863 H 0.18517 0.74742 0.8019 0.0
H864 H 0.19382 0.77244 0.77406 0.0
H865 H 0.21343 0.76901 0.80378 0.0
C866 C 0.10867 0.71477 0.69579 0.0
N867 N 0.11945 0.70679 0.71774 0.0
N868 N 0.14048 0.72064 0.71562 0.0
C869 C 0.14367 0.73793 0.69208 0.0
C870 C 0.12356 0.73493 0.67927 0.0
C871 C 0.08491 0.70211 0.68551 0.0
H872 H 0.07942 0.68456 0.68296 0.0
H873 H 0.07561 0.70456 0.71099 0.0
H874 H 0.08135 0.70767 0.65532 0.0
O875 O 0.11925 0.6622 0.70932 0.0
O876 O 0.1549 0.68409 0.71189 0.0
H877 H 0.17493 0.75005 0.66351 0.0
H878 H 0.16428 0.76847 0.66001 0.0
C879 C 0.16554 0.75641 0.6803 0.0
H880 H 0.17452 0.76465 0.70941 0.0
H881 H 0.19194 0.71485 0.67614 0.0
O882 O 0.07866 0.66209 0.7472 0.0
C883 C 0.13837 0.66619 0.70083 0.0
Co884 Co 0.32247 0.42683 0.73702 0.0
Co885 Co 0.29256 0.44685 0.73349 0.0
C886 C 0.31104 0.44325 0.81562 0.0
O887 O 0.32141 0.43577 0.79569 0.0
O888 O 0.29751 0.44718 0.79665 0.0
C889 C 0.32663 0.39197 0.76433 0.0
O890 O 0.3086 0.38732 0.7844 0.0
C891 C 0.25308 0.45117 0.73784 0.0
C892 C 0.26082 0.47604 0.68856 0.0
C893 C 0.24481 0.46271 0.71694 0.0
N894 N 0.27293 0.45726 0.72196 0.0
N895 N 0.27748 0.47228 0.69282 0.0
C896 C 0.2429 0.43559 0.77382 0.0
H897 H 0.25544 0.43414 0.79207 0.0
H898 H 0.23103 0.41927 0.76159 0.0
H899 H 0.23403 0.44105 0.79485 0.0
C900 C 0.28621 0.39168 0.68776 0.0
N901 N 0.29492 0.41037 0.7102 0.0
N902 N 0.28205 0.41869 0.7077 0.0
C903 C 0.26478 0.40551 0.68301 0.0
C904 C 0.26664 0.3877 0.67044 0.0
C905 C 0.29766 0.37931 0.67789 0.0
H906 H 0.31539 0.39058 0.67479 0.0
H907 H 0.29465 0.36761 0.70379 0.0
H908 H 0.29155 0.36993 0.64807 0.0
O909 O 0.34169 0.45334 0.70498 0.0
O910 O 0.32108 0.46866 0.70706 0.0
H911 H 0.25533 0.42767 0.65837 0.0
H912 H 0.23754 0.39961 0.64326 0.0
C913 C 0.24765 0.41054 0.66912 0.0
H914 H 0.23689 0.4084 0.6962 0.0
H915 H 0.29183 0.47968 0.6752 0.0
O916 O 0.33592 0.4089 0.74145 0.0
C917 C 0.33883 0.4693 0.69709 0.0
Co918 Co 0.56984 0.91198 0.12964 0.0
Co919 Co 0.51962 0.88899 0.13744 0.0
C920 C 0.54101 0.89355 0.05326 0.0
O921 O 0.55938 0.90244 0.07153 0.0
O922 O 0.52364 0.88843 0.07388 0.0
C923 C 0.60963 0.94755 0.10255 0.0
O924 O 0.59703 0.9536 0.08373 0.0
C925 C 0.47566 0.88416 0.13455 0.0
C926 C 0.45836 0.85852 0.1824 0.0
C927 C 0.45576 0.87233 0.15519 0.0
N928 N 0.48937 0.87781 0.14952 0.0
N929 N 0.4788 0.86232 0.17777 0.0
C930 C 0.48136 0.90046 0.09982 0.0
H931 H 0.49431 0.90094 0.07946 0.0
H932 H 0.48758 0.91688 0.11352 0.0
H933 H 0.46679 0.89646 0.08046 0.0
C934 C 0.56743 0.94582 0.18047 0.0
N935 N 0.55789 0.92734 0.15741 0.0
N936 N 0.53667 0.91756 0.16256 0.0
C937 C 0.53215 0.92956 0.18977 0.0
C938 C 0.5515 0.94813 0.20116 0.0
C939 C 0.5914 0.9592 0.18842 0.0
H940 H 0.59916 0.97074 0.16186 0.0
H941 H 0.59497 0.9688 0.21802 0.0
H942 H 0.59862 0.94856 0.19083 0.0
O943 O 0.56398 0.88622 0.16239 0.0
O944 O 0.52787 0.86819 0.1637 0.0
H945 H 0.50229 0.90516 0.21754 0.0
H946 H 0.51101 0.93254 0.23543 0.0
C947 C 0.51011 0.92245 0.20786 0.0
H948 H 0.49983 0.92401 0.18343 0.0
H949 H 0.48571 0.85463 0.19461 0.0
O950 O 0.60124 0.93024 0.12437 0.0
C951 C 0.54607 0.86948 0.17231 0.0
Co952 Co 0.09895 0.65882 0.13457 0.0
Co953 Co 0.11707 0.62716 0.14038 0.0
C954 C 0.11604 0.64601 0.05776 0.0
O955 O 0.10935 0.65722 0.0772 0.0
O956 O 0.11847 0.63155 0.07699 0.0
C957 C 0.07173 0.67176 0.09425 0.0
O958 O 0.07285 0.66043 0.06249 0.0
C959 C 0.12678 0.59056 0.13984 0.0
C960 C 0.14679 0.59905 0.19781 0.0
C961 C 0.13889 0.58432 0.16478 0.0
N962 N 0.12765 0.60827 0.15751 0.0
N963 N 0.13957 0.6131 0.19219 0.0
C964 C 0.11552 0.58061 0.09906 0.0
H965 H 0.11361 0.59259 0.07983 0.0
H966 H 0.09908 0.56674 0.10596 0.0
H967 H 0.12469 0.5744 0.08097 0.0
C968 C 0.06209 0.62317 0.18061 0.0
N969 N 0.08128 0.63132 0.16024 0.0
N970 N 0.08859 0.61764 0.16341 0.0
C971 C 0.07413 0.60022 0.18621 0.0
C972 C 0.05668 0.60304 0.1977 0.0
C973 C 0.05051 0.63568 0.18759 0.0
H974 H 0.06245 0.65272 0.19616 0.0
H975 H 0.04241 0.63592 0.15777 0.0
H976 H 0.03817 0.6285 0.21306 0.0
O977 O 0.12471 0.6773 0.16896 0.0
O978 O 0.13884 0.65573 0.16595 0.0
H979 H 0.09069 0.58711 0.22093 0.0
H980 H 0.06227 0.56784 0.21112 0.0
C981 C 0.07729 0.58156 0.19757 0.0
H982 H 0.08213 0.57595 0.16901 0.0
H983 H 0.14301 0.62622 0.21192 0.0
O984 O 0.08191 0.67337 0.12829 0.0
C985 C 0.14017 0.67366 0.17665 0.0
Co986 Co 0.34548 0.44041 0.13091 0.0
Co987 Co 0.37869 0.48981 0.13153 0.0
C988 C 0.35841 0.46732 0.05073 0.0
O989 O 0.34703 0.44999 0.0717 0.0
O990 O 0.37306 0.48457 0.06868 0.0
C991 C 0.33427 0.39798 0.10711 0.0
O992 O 0.35327 0.4079 0.08811 0.0
C993 C 0.4195 0.53285 0.12507 0.0
C994 C 0.41302 0.55094 0.17442 0.0
C995 C 0.42838 0.55299 0.14502 0.0
N996 N 0.39986 0.51956 0.1423 0.0
N997 N 0.39612 0.53058 0.17158 0.0
C998 C 0.42887 0.52671 0.08875 0.0
H999 H 0.4159 0.5125 0.07164 0.0
H1000 H 0.44082 0.52227 0.10063 0.0
H1001 H 0.43749 0.54067 0.06682 0.0
C1002 C 0.38079 0.43881 0.17904 0.0
N1003 N 0.37305 0.44961 0.15642 0.0
N1004 N 0.38717 0.47059 0.15779 0.0
C1005 C 0.40429 0.47372 0.18184 0.0
C1006 C 0.401 0.45362 0.19536 0.0
C1007 C 0.36796 0.41512 0.18975 0.0
H1008 H 0.3505 0.40994 0.19323 0.0
H1009 H 0.36983 0.4056 0.16394 0.0
H1010 H 0.37383 0.41151 0.2195 0.0
O1011 O 0.32883 0.45064 0.16314 0.0
O1012 O 0.35135 0.48611 0.15823 0.0
H1013 H 0.41625 0.50577 0.20664 0.0
H1014 H 0.43334 0.49418 0.21819 0.0
C1015 C 0.42272 0.49553 0.19411 0.0
H1016 H 0.43261 0.50363 0.16574 0.0
H1017 H 0.38206 0.52414 0.19 0.0
O1018 O 0.32794 0.40885 0.12857 0.0
C1019 C 0.3332 0.47005 0.16981 0.0
Co1020 Co 0.09641 0.441 0.62514 0.0
Co1021 Co 0.11515 0.49068 0.62968 0.0
C1022 C 0.11266 0.46938 0.54709 0.0
O1023 O 0.10595 0.45155 0.56671 0.0
O1024 O 0.11559 0.48644 0.56635 0.0
C1025 C 0.06743 0.40046 0.58938 0.0
O1026 O 0.06733 0.41256 0.55808 0.0
C1027 C 0.11909 0.53429 0.62697 0.0
C1028 C 0.14496 0.55156 0.6745 0.0
C1029 C 0.13126 0.55424 0.64717 0.0
N1030 N 0.12528 0.52051 0.64212 0.0
N1031 N 0.14083 0.53102 0.67029 0.0
C1032 C 0.10277 0.52866 0.59234 0.0
H1033 H 0.10148 0.51501 0.57308 0.0
H1034 H 0.08656 0.52348 0.60622 0.0
H1035 H 0.10734 0.54303 0.57194 0.0
C1036 C 0.06039 0.44065 0.67315 0.0
N1037 N 0.07907 0.45131 0.65094 0.0
N1038 N 0.08715 0.47238 0.65527 0.0
C1039 C 0.07401 0.47571 0.68159 0.0
C1040 C 0.05635 0.45567 0.69314 0.0
C1041 C 0.04809 0.41652 0.67946 0.0
H1042 H 0.04135 0.40846 0.64869 0.0
H1043 H 0.03454 0.41144 0.70235 0.0
H1044 H 0.05934 0.41108 0.69104 0.0
O1045 O 0.12272 0.44891 0.65868 0.0
O1046 O 0.13727 0.48469 0.65577 0.0
H1047 H 0.09658 0.50651 0.7089 0.0
H1048 H 0.06868 0.49582 0.72596 0.0
C1049 C 0.07932 0.49743 0.69883 0.0
H1050 H 0.07699 0.50691 0.67367 0.0
H1051 H 0.14851 0.5241 0.68706 0.0
O1052 O 0.07919 0.4094 0.62164 0.0
C1053 C 0.13833 0.46794 0.66646 0.0
Co1054 Co 0.56328 0.6585 0.61934 0.0
Co1055 Co 0.51439 0.62636 0.63186 0.0
C1056 C 0.53357 0.64587 0.54584 0.0
O1057 O 0.55211 0.65726 0.56269 0.0
O1058 O 0.51729 0.63185 0.56746 0.0
C1059 C 0.60474 0.69306 0.5965 0.0
O1060 O 0.59366 0.70073 0.57695 0.0
C1061 C 0.47272 0.58407 0.6349 0.0
C1062 C 0.45262 0.59352 0.67285 0.0
C1063 C 0.452 0.57604 0.65213 0.0
N1064 N 0.48487 0.60524 0.6453 0.0
N1065 N 0.47268 0.61071 0.66792 0.0
C1066 C 0.48061 0.5724 0.60709 0.0
H1067 H 0.49473 0.58422 0.58798 0.0
H1068 H 0.48593 0.56308 0.62702 0.0
H1069 H 0.46734 0.56081 0.58606 0.0
C1070 C 0.5676 0.62356 0.65817 0.0
N1071 N 0.55483 0.6308 0.6424 0.0
N1072 N 0.53464 0.61797 0.65431 0.0
C1073 C 0.53431 0.60285 0.68121 0.0
C1074 C 0.55542 0.60599 0.68501 0.0
C1075 C 0.59103 0.63309 0.64602 0.0
H1076 H 0.59326 0.63806 0.61229 0.0
H1077 H 0.59667 0.62122 0.65067 0.0
H1078 H 0.60113 0.64777 0.66541 0.0
O1079 O 0.55489 0.67576 0.65522 0.0
O1080 O 0.51931 0.65389 0.65956 0.0
H1081 H 0.51979 0.58657 0.73964 0.0
H1082 H 0.50759 0.57103 0.69268 0.0
C1083 C 0.5149 0.58752 0.70672 0.0
H1084 H 0.50259 0.59276 0.70711 0.0
H1085 H 0.47803 0.62625 0.67999 0.0
O1086 O 0.59473 0.67516 0.61616 0.0
C1087 C 0.53629 0.67207 0.66731 0.0
Co1088 Co 0.34726 0.90737 0.6347 0.0
Co1089 Co 0.38068 0.89158 0.63743 0.0
C1090 C 0.36098 0.89319 0.55562 0.0
O1091 O 0.34932 0.89904 0.57594 0.0
O1092 O 0.37562 0.89086 0.57429 0.0
C1093 C 0.33655 0.93835 0.60811 0.0
O1094 O 0.35573 0.94703 0.5899 0.0
C1095 C 0.42139 0.88906 0.63323 0.0
C1096 C 0.41433 0.86469 0.68327 0.0
C1097 C 0.42993 0.87769 0.65395 0.0
N1098 N 0.4017 0.88302 0.64989 0.0
N1099 N 0.39764 0.86841 0.67964 0.0
C1100 C 0.43109 0.90437 0.59675 0.0
H1101 H 0.41829 0.90552 0.57883 0.0
H1102 H 0.44289 0.92081 0.60863 0.0
H1103 H 0.43993 0.89894 0.57556 0.0
C1104 C 0.38154 0.94416 0.68422 0.0
N1105 N 0.37448 0.92589 0.661 0.0
N1106 N 0.38892 0.91946 0.66275 0.0
C1107 C 0.40576 0.93368 0.68717 0.0
C1108 C 0.40178 0.95001 0.70099 0.0
C1109 C 0.36822 0.95462 0.69392 0.0
H1110 H 0.35087 0.94204 0.69765 0.0
H1111 H 0.36971 0.96548 0.6674 0.0
H1112 H 0.37388 0.96461 0.72309 0.0
O1113 O 0.33046 0.88092 0.6676 0.0
O1114 O 0.35308 0.86805 0.66393 0.0
H1115 H 0.41758 0.91378 0.71347 0.0
H1116 H 0.43426 0.94248 0.7254 0.0
C1117 C 0.42411 0.93048 0.70088 0.0
H1118 H 0.43445 0.93234 0.67317 0.0
H1119 H 0.38345 0.861 0.69774 0.0
O1120 O 0.32984 0.92139 0.63045 0.0
C1121 C 0.33489 0.86601 0.67509 0.0
Co1122 Co 0.10858 0.42896 0.23229 0.0
Co1123 Co 0.15868 0.45159 0.22755 0.0
C1124 C 0.13587 0.44742 0.31023 0.0
O1125 O 0.11773 0.43874 0.29106 0.0
O1126 O 0.15345 0.45222 0.29062 0.0
C1127 C 0.06627 0.40053 0.26364 0.0
O1128 O 0.07625 0.40239 0.29969 0.0
C1129 C 0.20225 0.45608 0.23414 0.0
C1130 C 0.22059 0.48198 0.18724 0.0
C1131 C 0.22255 0.46798 0.21504 0.0
N1132 N 0.18895 0.46259 0.21779 0.0
N1133 N 0.2001 0.47822 0.19014 0.0
C1134 C 0.19578 0.43959 0.26873 0.0
H1135 H 0.18257 0.4392 0.28811 0.0
H1136 H 0.18958 0.4232 0.25487 0.0
H1137 H 0.20995 0.4433 0.2891 0.0
C1138 C 0.11125 0.39394 0.18791 0.0
N1139 N 0.12084 0.41315 0.20842 0.0
N1140 N 0.142 0.42291 0.20295 0.0
C1141 C 0.14646 0.4103 0.17733 0.0
C1142 C 0.12709 0.39129 0.16759 0.0
C1143 C 0.08713 0.37994 0.18286 0.0
H1144 H 0.08059 0.38958 0.16783 0.0
H1145 H 0.07952 0.37463 0.21448 0.0
H1146 H 0.08259 0.36539 0.1631 0.0
O1147 O 0.11533 0.4545 0.19811 0.0
O1148 O 0.15136 0.47253 0.19929 0.0
H1149 H 0.1768 0.43441 0.15049 0.0
H1150 H 0.16754 0.40697 0.13208 0.0
C1151 C 0.16851 0.41703 0.15974 0.0
H1152 H 0.17842 0.415 0.18436 0.0
H1153 H 0.19359 0.48604 0.17253 0.0
O1154 O 0.07712 0.41079 0.23138 0.0
C1155 C 0.13337 0.47119 0.18888 0.0
Co1156 Co 0.57508 0.67812 0.23531 0.0
Co1157 Co 0.55901 0.71122 0.22722 0.0
C1158 C 0.55747 0.6916 0.31046 0.0
O1159 O 0.56416 0.68018 0.29185 0.0
O1160 O 0.55594 0.70647 0.29065 0.0
C1161 C 0.60761 0.67165 0.26909 0.0
O1162 O 0.61387 0.69087 0.28558 0.0
C1163 C 0.55113 0.74912 0.22519 0.0
C1164 C 0.53196 0.74105 0.16617 0.0
C1165 C 0.53982 0.75585 0.19908 0.0
N1166 N 0.54981 0.73103 0.20834 0.0
N1167 N 0.53844 0.7265 0.17296 0.0
C1168 C 0.56183 0.75889 0.26647 0.0
H1169 H 0.56428 0.74712 0.28529 0.0
H1170 H 0.57796 0.7734 0.26037 0.0
H1171 H 0.55192 0.76422 0.28457 0.0
C1172 C 0.61331 0.71282 0.19009 0.0
N1173 N 0.59383 0.70524 0.20903 0.0
N1174 N 0.58788 0.72002 0.2067 0.0
C1175 C 0.60389 0.73784 0.18702 0.0
C1176 C 0.62072 0.73391 0.17621 0.0
C1177 C 0.62377 0.69941 0.18115 0.0
H1178 H 0.61129 0.68198 0.17846 0.0
H1179 H 0.63516 0.70158 0.20712 0.0
H1180 H 0.63325 0.70471 0.15128 0.0
O1181 O 0.55 0.66026 0.19978 0.0
O1182 O 0.53694 0.68279 0.20037 0.0
H1183 H 0.58999 0.7547 0.1561 0.0
H1184 H 0.61881 0.77137 0.16679 0.0
C1185 C 0.6031 0.75816 0.17918 0.0
H1186 H 0.59901 0.7635 0.20907 0.0
H1187 H 0.5348 0.7132 0.15362 0.0
O1188 O 0.59093 0.66278 0.24552 0.0
C1189 C 0.53517 0.66456 0.19036 0.0
Co1190 Co 0.32997 0.89756 0.23825 0.0
Co1191 Co 0.29753 0.84799 0.23681 0.0
C1192 C 0.31639 0.87027 0.31823 0.0
O1193 O 0.32778 0.88769 0.29753 0.0
O1194 O 0.30215 0.85297 0.29982 0.0
C1195 C 0.33538 0.93726 0.26303 0.0
O1196 O 0.31627 0.92433 0.28003 0.0
C1197 C 0.25699 0.80482 0.24221 0.0
C1198 C 0.26335 0.78722 0.19164 0.0
C1199 C 0.24797 0.78498 0.22119 0.0
N1200 N 0.27671 0.8182 0.22535 0.0
N1201 N 0.28041 0.80746 0.19539 0.0
C1202 C 0.24763 0.81052 0.27921 0.0
H1203 H 0.26035 0.82523 0.29549 0.0
H1204 H 0.23472 0.81382 0.26843 0.0
H1205 H 0.2401 0.79665 0.30164 0.0
C1206 C 0.2952 0.89829 0.18695 0.0
N1207 N 0.30286 0.88768 0.2104 0.0
N1208 N 0.2887 0.86672 0.20974 0.0
C1209 C 0.27145 0.86343 0.18588 0.0
C1210 C 0.27486 0.88343 0.17126 0.0
C1211 C 0.30818 0.92179 0.17481 0.0
H1212 H 0.32575 0.92717 0.1738 0.0
H1213 H 0.30531 0.9317 0.19829 0.0
H1214 H 0.30315 0.92464 0.14333 0.0
O1215 O 0.34807 0.88843 0.20761 0.0
O1216 O 0.32579 0.85278 0.21167 0.0
H1217 H 0.25805 0.83095 0.16248 0.0
H1218 H 0.24077 0.84266 0.15434 0.0
C1219 C 0.25234 0.84158 0.17634 0.0
H1220 H 0.24369 0.83407 0.20614 0.0
H1221 H 0.29449 0.81407 0.17699 0.0
O1222 O 0.34497 0.92914 0.24244 0.0
C1223 C 0.34407 0.86909 0.20117 0.0
H1224 H 0.23428 0.04555 0.04046 0.0
H1225 H 0.16573 0.00562 1.01365 0.0
H1226 H 0.16012 0.03595 0.03126 0.0
H1227 H 0.17543 0.07492 0.04614 0.0
H1228 H 0.24418 0.11495 0.06993 0.0
H1229 H 0.24887 0.08341 0.06236 0.0
C1230 C 0.21803 0.04334 0.039 0.0
C1231 C 0.20052 0.0234 0.0251 0.0
C1232 C 0.21496 0.06091 0.04858 0.0
C1233 C 0.17955 0.0208 0.02397 0.0
C1234 C 0.17633 0.03817 0.03387 0.0
C1235 C 0.19136 0.07663 0.05042 0.0
C1236 C 0.20937 0.09723 0.05908 0.0
C1237 C 0.19403 0.05848 0.04496 0.0
C1238 C 0.22993 0.09925 0.06443 0.0
C1239 C 0.23269 0.08123 0.05949 0.0
H1240 H 0.90353 0.13377 0.0577 0.0
H1241 H 0.93006 0.09229 0.02938 0.0
H1242 H 0.96641 0.12397 0.0228 0.0
H1243 H 0.98965 0.16341 1.01583 0.0
H1244 H 0.96278 0.20509 0.03994 0.0
H1245 H 0.92784 0.17353 0.05829 0.0
C1246 C 0.91739 0.13168 0.05148 0.0
C1247 C 0.91418 0.11075 0.04426 0.0
C1248 C 0.9382 0.15006 0.04644 0.0
C1249 C 0.93219 0.10829 0.03504 0.0
C1250 C 0.95296 0.12639 0.03114 0.0
C1251 C 0.97631 0.16567 0.02598 0.0
C1252 C 0.97883 0.18661 0.026 0.0
C1253 C 0.95604 0.14738 0.03536 0.0
C1254 C 0.96129 0.18915 0.0392 0.0
C1255 C 0.94123 0.17109 0.04962 0.0
H1256 H 0.8191 0.77584 0.04376 0.0
H1257 H 0.84977 0.84379 1.01025 0.0
H1258 H 0.88535 0.84831 0.02725 0.0
H1259 H 0.90796 0.8319 0.04309 0.0
H1260 H 0.87708 0.7636 0.07317 0.0
H1261 H 0.84142 0.76039 0.06676 0.0
C1262 C 0.83351 0.79174 0.04073 0.0
C1263 C 0.83175 0.80937 0.02508 0.0
C1264 C 0.85393 0.79415 0.04986 0.0
C1265 C 0.85061 0.8299 0.02195 0.0
C1266 C 0.871 0.83248 0.03148 0.0
C1267 C 0.8934 0.81641 0.04899 0.0
C1268 C 0.89523 0.79809 0.05905 0.0
C1269 C 0.87289 0.81456 0.04413 0.0
C1270 C 0.87626 0.77811 0.06654 0.0
C1271 C 0.85579 0.77618 0.06227 0.0
H1272 H 0.01485 0.176 0.51677 0.0
H1273 H 0.04406 0.24548 0.5021 0.0
H1274 H 0.07868 0.24825 0.4834 0.0
H1275 H 0.10188 0.23162 0.4809 0.0
H1276 H 0.07296 0.16246 0.4988 0.0
H1277 H 0.03711 0.1589 0.50632 0.0
C1278 C 0.02865 0.1917 0.50865 0.0
C1279 C 0.02685 0.21051 0.51141 0.0
C1280 C 0.04871 0.19329 0.49887 0.0
C1281 C 0.04497 0.23072 0.5007 0.0
C1282 C 0.06484 0.23235 0.49007 0.0
C1283 C 0.08765 0.21571 0.48499 0.0
C1284 C 0.09005 0.19732 0.48906 0.0
C1285 C 0.0671 0.21385 0.4904 0.0
C1286 C 0.07149 0.17686 0.49562 0.0
C1287 C 0.05099 0.17481 0.50004 0.0
H1288 H 0.77302 0.81255 0.49539 0.0
H1289 H 0.8412 0.84111 0.52541 0.0
H1290 H 0.84682 0.87721 0.50916 0.0
H1291 H 0.83145 0.90092 0.49473 0.0
H1292 H 0.76298 0.87209 0.46772 0.0
H1293 H 0.75849 0.83589 0.47387 0.0
C1294 C 0.78921 0.82661 0.49782 0.0
C1295 C 0.8066 0.82411 0.51223 0.0
C1296 C 0.79225 0.84733 0.48908 0.0
C1297 C 0.8275 0.84252 0.51459 0.0
C1298 C 0.8307 0.86321 0.50553 0.0
C1299 C 0.81562 0.88669 0.48948 0.0
C1300 C 0.79764 0.88926 0.48029 0.0
C1301 C 0.81306 0.86585 0.49405 0.0
C1302 C 0.77722 0.87069 0.47365 0.0
C1303 C 0.77458 0.84992 0.47776 0.0
H1304 H 0.10437 0.92847 0.4993 0.0
H1305 H 0.13362 0.88835 0.48356 0.0
H1306 H 0.16973 0.92023 0.4901 0.0
H1307 H 0.19276 0.95877 0.50808 0.0
H1308 H 0.16349 0.99881 0.5265 0.0
H1309 H 0.12773 0.96778 0.51084 0.0
C1310 C 0.11869 0.92678 0.49664 0.0
C1311 C 0.11627 0.90607 0.49041 0.0
C1312 C 0.13943 0.94516 0.50138 0.0
C1313 C 0.13494 0.9041 0.48713 0.0
C1314 C 0.15564 0.92234 0.49146 0.0
C1315 C 0.17863 0.96084 0.50812 0.0
C1316 C 0.18085 0.98109 0.51903 0.0
C1317 C 0.15805 0.94285 0.49962 0.0
C1318 C 0.16232 0.98343 0.5185 0.0
C1319 C 0.14181 0.96565 0.50969 0.0
H1320 H 0.8325 0.93001 0.98279 0.0
H1321 H 0.76326 0.89121 0.9634 0.0
H1322 H 0.75972 0.92348 0.9708 0.0
H1323 H 0.77553 0.96149 0.9931 0.0
H1324 H 0.84462 1.00002 1.01586 0.0
H1325 H 0.84901 0.96916 0.99644 0.0
C1326 C 0.8167 0.92873 0.97928 0.0
C1327 C 0.7982 0.90826 0.97231 0.0
C1328 C 0.81473 0.94726 0.98481 0.0
C1329 C 0.77783 0.90678 0.96778 0.0
C1330 C 0.77576 0.92523 0.97265 0.0
C1331 C 0.79162 0.96328 0.99319 0.0
C1332 C 0.80966 0.98295 1.00671 0.0
C1333 C 0.79399 0.94538 0.98266 0.0
C1334 C 0.83042 0.98505 1.00597 0.0
C1335 C 0.83294 0.96737 0.99503 0.0
H1336 H 0.08063 0.90114 0.98972 0.0
H1337 H 0.12018 0.87104 0.97852 0.0
H1338 H 0.08796 0.83516 0.98668 0.0
H1339 H 0.04937 0.81288 1.00621 0.0
H1340 H 0.01011 0.84336 0.01951 0.0
H1341 H 0.04132 0.87844 1.00099 0.0
C1342 C 0.08211 0.88666 0.98825 0.0
C1343 C 0.10275 0.88875 0.98326 0.0
C1344 C 0.06358 0.86615 0.9939 0.0
C1345 C 0.10447 0.86991 0.98137 0.0
C1346 C 0.08605 0.84938 0.98662 0.0
C1347 C 0.04751 0.82712 1.00442 0.0
C1348 C 0.02744 0.82547 1.01496 0.0
C1349 C 0.06563 0.84737 0.99421 0.0
C1350 C 0.02535 0.8441 1.01197 0.0
C1351 C 0.04323 0.86423 1.00149 0.0
H1352 H 0.10125 0.17514 0.99553 0.0
H1353 H 0.13003 0.24459 0.98296 0.0
H1354 H 0.16621 0.24919 0.99166 0.0
H1355 H 0.18931 0.2338 1.01052 0.0
H1356 H 0.16037 0.16429 0.02484 0.0
H1357 H 0.12477 0.15943 1.00748 0.0
C1358 C 0.1155 0.19124 0.994 0.0
C1359 C 0.11295 0.20945 0.98809 0.0
C1360 C 0.13626 0.19379 0.9998 0.0
C1361 C 0.13151 0.23024 0.9863 0.0
C1362 C 0.15224 0.23291 0.99185 0.0
C1363 C 0.17529 0.21755 1.00928 0.0
C1364 C 0.17755 0.19949 0.01957 0.0
C1365 C 0.15476 0.21484 0.99964 0.0
C1366 C 0.15917 0.17854 1.01738 0.0
C1367 C 0.13874 0.17572 1.00758 0.0
H1368 H 0.96003 0.76758 0.53719 0.0
H1369 H 0.99635 0.83678 0.51424 0.0
H1370 H 0.96387 0.83927 0.52811 0.0
H1371 H 0.92431 0.82119 0.53847 0.0
H1372 H 0.88784 0.75204 0.56023 0.0
H1373 H 0.92124 0.75019 0.55575 0.0
C1374 C 0.96096 0.78328 0.53583 0.0
C1375 C 0.98059 0.80191 0.52403 0.0
C1376 C 0.94214 0.78459 0.54348 0.0
C1377 C 0.98149 0.82214 0.52298 0.0
C1378 C 0.96287 0.82358 0.53073 0.0
C1379 C 0.92377 0.80578 0.54298 0.0
C1380 C 0.90367 0.7868 0.54991 0.0
C1381 C 0.94299 0.80482 0.53972 0.0
C1382 C 0.90313 0.76695 0.55577 0.0
C1383 C 0.92222 0.76585 0.55268 0.0
H1384 H 0.23107 0.18942 0.54033 0.0
H1385 H 0.162 0.15718 0.51613 0.0
H1386 H 0.15877 0.12219 0.53324 0.0
H1387 H 0.17624 0.10039 0.54668 0.0
H1388 H 0.24542 0.13259 0.56824 0.0
H1389 H 0.24784 0.16792 0.56134 0.0
C1390 C 0.21523 0.1748 0.53936 0.0
C1391 C 0.19687 0.17594 0.52628 0.0
C1392 C 0.21351 0.15468 0.54872 0.0
C1393 C 0.17645 0.15682 0.52577 0.0
C1394 C 0.17458 0.13676 0.5354 0.0
C1395 C 0.19177 0.11518 0.55064 0.0
C1396 C 0.21058 0.11385 0.55837 0.0
C1397 C 0.19311 0.13544 0.54562 0.0
C1398 C 0.23061 0.13309 0.5634 0.0
C1399 C 0.23205 0.15334 0.55884 0.0
H1400 H 0.90535 0.07684 0.54365 0.0
H1401 H 0.87548 0.11667 0.55349 0.0
H1402 H 0.83958 0.0846 0.54568 0.0
H1403 H 0.81706 0.04594 0.52795 0.0
H1404 H 0.84702 0.00617 0.51587 0.0
H1405 H 0.88235 0.03741 0.53304 0.0
C1406 C 0.89092 0.07841 0.54477 0.0
C1407 C 0.89309 0.09909 0.54963 0.0
C1408 C 0.87032 0.05992 0.53943 0.0
C1409 C 0.87431 0.10094 0.55095 0.0
C1410 C 0.85374 0.08259 0.54591 0.0
C1411 C 0.83124 0.04398 0.52969 0.0
C1412 C 0.82935 0.02374 0.52 0.0
C1413 C 0.8516 0.06209 0.53906 0.0
C1414 C 0.84793 0.02154 0.52286 0.0
C1415 C 0.86821 0.03944 0.53252 0.0
H1416 H 0.89761 0.37694 0.37608 0.0
H1417 H 0.82863 0.33953 0.35124 0.0
H1418 H 0.82511 0.37128 0.36685 0.0
H1419 H 0.84234 0.41065 0.37868 0.0
H1420 H 0.91146 0.44827 0.40054 0.0
H1421 H 0.91413 0.41541 0.39569 0.0
C1422 C 0.88172 0.37558 0.37471 0.0
C1423 C 0.86347 0.35591 0.36181 0.0
C1424 C 0.87985 0.394 0.38305 0.0
C1425 C 0.84299 0.35446 0.36075 0.0
C1426 C 0.84096 0.37265 0.3695 0.0
C1427 C 0.85792 0.41157 0.38314 0.0
C1428 C 0.87664 0.43187 0.39024 0.0
C1429 C 0.8594 0.39266 0.37929 0.0
C1430 C 0.89672 0.43286 0.39602 0.0
C1431 C 0.8983 0.41406 0.39268 0.0
H1432 H 0.62125 0.51552 0.36602 0.0
H1433 H 0.66109 0.48666 0.3406 0.0
H1434 H 0.63024 0.45065 0.35605 0.0
H1435 H 0.59096 0.42708 0.3693 0.0
H1436 H 0.55121 0.45633 0.39106 0.0
H1437 H 0.58304 0.49239 0.38511 0.0
C1438 C 0.62334 0.50142 0.36438 0.0
C1439 C 0.64343 0.50382 0.3516 0.0
C1440 C 0.60547 0.48076 0.37258 0.0
C1441 C 0.64582 0.48533 0.35014 0.0
C1442 C 0.62814 0.46469 0.35878 0.0
C1443 C 0.58937 0.44138 0.37339 0.0
C1444 C 0.56875 0.43894 0.38135 0.0
C1445 C 0.60774 0.46217 0.36884 0.0
C1446 C 0.56689 0.4576 0.38633 0.0
C1447 C 0.5851 0.47831 0.38231 0.0
H1448 H 0.48286 0.10462 0.37627 0.0
H1449 H 0.51348 0.17338 0.34999 0.0
H1450 H 0.54887 0.1778 0.36841 0.0
H1451 H 0.57151 0.16132 0.38305 0.0
H1452 H 0.54081 0.09235 0.40617 0.0
H1453 H 0.50508 0.08892 0.39867 0.0
C1454 C 0.49721 0.12066 0.37515 0.0
C1455 C 0.49553 0.13858 0.36105 0.0
C1456 C 0.51754 0.12304 0.38513 0.0
C1457 C 0.51428 0.15927 0.36043 0.0
C1458 C 0.53456 0.16181 0.37077 0.0
C1459 C 0.55696 0.14562 0.38724 0.0
C1460 C 0.55885 0.12716 0.39552 0.0
C1461 C 0.53645 0.14368 0.38178 0.0
C1462 C 0.5399 0.10691 0.40086 0.0
C1463 C 0.51941 0.10489 0.39597 0.0
H1464 H 0.71191 0.56799 0.83866 0.0
H1465 H 0.67458 0.49792 0.84623 0.0
H1466 H 0.70702 0.49579 0.83033 0.0
H1467 H 0.74668 0.51386 0.82224 0.0
H1468 H 0.78427 0.58377 0.81584 0.0
H1469 H 0.75109 0.58591 0.82256 0.0
C1470 C 0.71077 0.55223 0.83618 0.0
C1471 C 0.6908 0.53317 0.84425 0.0
C1472 C 0.7296 0.55108 0.82731 0.0
C1473 C 0.68968 0.51289 0.84049 0.0
C1474 C 0.70828 0.51163 0.83152 0.0
C1475 C 0.74751 0.52953 0.82149 0.0
C1476 C 0.76784 0.5486 0.81807 0.0
C1477 C 0.72841 0.53062 0.82609 0.0
C1478 C 0.76879 0.56882 0.81728 0.0
C1479 C 0.74981 0.57006 0.82173 0.0
H1480 H 0.43989 0.14945 0.84224 0.0
H1481 H 0.50945 0.18012 0.85864 0.0
H1482 H 0.51321 0.21551 0.84321 0.0
H1483 H 0.49638 0.23816 0.83209 0.0
H1484 H 0.42678 0.20743 0.81809 0.0
H1485 H 0.42348 0.17174 0.82497 0.0
C1486 C 0.45594 0.16381 0.84191 0.0
C1487 C 0.47433 0.16207 0.85213 0.0
C1488 C 0.45798 0.18417 0.83352 0.0
C1489 C 0.49498 0.1809 0.85111 0.0
C1490 C 0.49715 0.20121 0.84247 0.0
C1491 C 0.48053 0.22361 0.82993 0.0
C1492 C 0.4619 0.2255 0.824 0.0
C1493 C 0.47871 0.20309 0.83474 0.0
C1494 C 0.44146 0.20653 0.82139 0.0
C1495 C 0.43952 0.18606 0.8259 0.0
H1496 H 0.86222 0.29613 0.84026 0.0
H1497 H 0.83137 0.33471 0.85901 0.0
H1498 H 0.79623 0.30354 0.8406 0.0
H1499 H 0.77367 0.26433 0.82734 0.0
H1500 H 0.8043 0.22555 0.81068 0.0
H1501 H 0.84005 0.2578 0.81925 0.0
C1502 C 0.84788 0.29785 0.83974 0.0
C1503 C 0.84946 0.31771 0.85168 0.0
C1504 C 0.82762 0.27976 0.8295 0.0
C1505 C 0.83069 0.31963 0.85031 0.0
C1506 C 0.81053 0.30177 0.8399 0.0
C1507 C 0.78823 0.26306 0.82476 0.0
C1508 C 0.78632 0.24261 0.8179 0.0
C1509 C 0.80872 0.28161 0.83068 0.0
C1510 C 0.80526 0.24112 0.81474 0.0
C1511 C 0.82575 0.25956 0.82029 0.0
H1512 H 0.43585 0.23032 0.31238 0.0
H1513 H 0.50419 0.2582 0.33897 0.0
H1514 H 0.50812 0.29425 0.34519 0.0
H1515 H 0.49127 0.31691 0.35213 0.0
H1516 H 0.42241 0.2887 0.32974 0.0
H1517 H 0.41965 0.25398 0.31197 0.0
C1518 C 0.45169 0.2444 0.31814 0.0
C1519 C 0.46973 0.24167 0.32496 0.0
C1520 C 0.4537 0.26504 0.32298 0.0
C1521 C 0.49008 0.25996 0.33362 0.0
C1522 C 0.49233 0.28056 0.33731 0.0
C1523 C 0.47573 0.30332 0.34252 0.0
C1524 C 0.45706 0.30541 0.34279 0.0
C1525 C 0.47412 0.28319 0.33344 0.0
C1526 C 0.43705 0.28754 0.33026 0.0
C1527 C 0.43542 0.26761 0.32016 0.0
H1528 H 0.74005 0.23116 0.3137 0.0
H1529 H 0.78318 0.20488 0.31258 0.0
H1530 H 0.75241 0.16836 0.32351 0.0
H1531 H 0.71399 0.14476 0.34301 0.0
H1532 H 0.67121 0.1716 0.34683 0.0
H1533 H 0.70101 0.20688 0.32506 0.0
C1534 C 0.74262 0.21734 0.31497 0.0
C1535 C 0.76384 0.22072 0.31197 0.0
C1536 C 0.72492 0.19649 0.32242 0.0
C1537 C 0.767 0.20273 0.31371 0.0
C1538 C 0.7494 0.18183 0.32062 0.0
C1539 C 0.71107 0.15821 0.33842 0.0
C1540 C 0.69042 0.15554 0.34727 0.0
C1541 C 0.72839 0.17863 0.32639 0.0
C1542 C 0.68695 0.17317 0.34074 0.0
C1543 C 0.70401 0.19342 0.32834 0.0
H1544 H 0.85488 0.5651 0.32879 0.0
H1545 H 0.82589 0.49659 0.35629 0.0
H1546 H 0.79004 0.49116 0.33869 0.0
H1547 H 0.76656 0.50664 0.32408 0.0
H1548 H 0.79552 0.57531 0.29936 0.0
H1549 H 0.83172 0.57981 0.30647 0.0
C1550 C 0.84078 0.5489 0.33038 0.0
C1551 C 0.84307 0.53135 0.34455 0.0
C1552 C 0.82017 0.54593 0.32076 0.0
C1553 C 0.82463 0.51044 0.34581 0.0
C1554 C 0.80409 0.50732 0.3359 0.0
C1555 C 0.78083 0.52252 0.31946 0.0
C1556 C 0.77833 0.54057 0.31083 0.0
C1557 C 0.80161 0.52506 0.32465 0.0
C1558 C 0.79691 0.56104 0.30493 0.0
C1559 C 0.81767 0.56368 0.30962 0.0
H1560 H 0.59934 0.1642 0.87467 0.0
H1561 H 0.56029 0.09546 0.89928 0.0
H1562 H 0.59237 0.09151 0.89299 0.0
H1563 H 0.63063 0.10682 0.87242 0.0
H1564 H 0.66959 0.17549 0.84589 0.0
H1565 H 0.63854 0.18022 0.86134 0.0
C1566 C 0.59796 0.14843 0.87938 0.0
C1567 C 0.57749 0.13021 0.88789 0.0
C1568 C 0.61644 0.14621 0.8749 0.0
C1569 C 0.57589 0.10986 0.89383 0.0
C1570 C 0.59423 0.10753 0.88966 0.0
C1571 C 0.63246 0.12289 0.87058 0.0
C1572 C 0.6524 0.1407 0.8574 0.0
C1573 C 0.61446 0.12549 0.8791 0.0
C1574 C 0.65446 0.16144 0.85569 0.0
C1575 C 0.63666 0.16417 0.86436 0.0
H1576 H 0.84535 0.43883 0.87896 0.0
H1577 H 0.91437 0.46898 0.9011 0.0
H1578 H 0.91823 0.50484 0.89228 0.0
H1579 H 0.90275 0.52732 0.86994 0.0
H1580 H 0.83387 0.4972 0.84532 0.0
H1581 H 0.82921 0.46173 0.86373 0.0
C1582 C 0.86117 0.45329 0.88259 0.0
C1583 C 0.87949 0.45119 0.89112 0.0
C1584 C 0.86335 0.47388 0.8765 0.0
C1585 C 0.8999 0.47005 0.89567 0.0
C1586 C 0.90217 0.4906 0.89002 0.0
C1587 C 0.88664 0.51306 0.86912 0.0
C1588 C 0.86874 0.51495 0.85564 0.0
C1589 C 0.88411 0.49267 0.87928 0.0
C1590 C 0.84797 0.49628 0.85534 0.0
C1591 C 0.84529 0.47594 0.86569 0.0
H1592 H 0.53993 0.43573 0.87942 0.0
H1593 H 0.57915 0.40501 0.87707 0.0
H1594 H 0.54659 0.36947 0.86891 0.0
H1595 H 0.50741 0.34761 0.8547 0.0
H1596 H 0.46836 0.37862 0.85636 0.0
H1597 H 0.50027 0.4133 0.87366 0.0
C1598 C 0.54134 0.42125 0.87861 0.0
C1599 C 0.56197 0.42308 0.87906 0.0
C1600 C 0.52253 0.40082 0.87334 0.0
C1601 C 0.56344 0.40408 0.8766 0.0
C1602 C 0.54483 0.38372 0.87189 0.0
C1603 C 0.50579 0.36185 0.85959 0.0
C1604 C 0.48551 0.36046 0.85358 0.0
C1605 C 0.52433 0.38195 0.869 0.0
C1606 C 0.48377 0.37916 0.86026 0.0
C1607 C 0.50206 0.39909 0.87011 0.0
H1608 H 0.56892 0.71182 0.69283 0.0
H1609 H 0.49899 0.67322 0.68332 0.0
H1610 H 0.49584 0.70484 0.7023 0.0
H1611 H 0.51311 0.74431 0.71327 0.0
H1612 H 0.58296 0.78304 0.72109 0.0
H1613 H 0.58595 0.7505 0.71184 0.0
C1614 C 0.55295 0.7102 0.69553 0.0
C1615 C 0.53424 0.69017 0.68602 0.0
C1616 C 0.55124 0.72853 0.70605 0.0
C1617 C 0.51369 0.6884 0.69019 0.0
C1618 C 0.51187 0.70652 0.70088 0.0
C1619 C 0.52896 0.74554 0.71375 0.0
C1620 C 0.54777 0.76606 0.7182 0.0
C1621 C 0.53055 0.7268 0.7076 0.0
C1622 C 0.5682 0.76745 0.71875 0.0
C1623 C 0.56993 0.74884 0.71287 0.0
H1624 H 0.29644 0.85768 0.70993 0.0
H1625 H 0.33441 0.82729 0.67973 0.0
H1626 H 0.30348 0.79173 0.69722 0.0
H1627 H 0.26443 0.76897 0.7123 0.0
H1628 H 0.2263 0.79937 0.73993 0.0
H1629 H 0.25858 0.8352 0.73299 0.0
C1630 C 0.29809 0.84333 0.70774 0.0
C1631 C 0.31763 0.84514 0.69283 0.0
C1632 C 0.28016 0.8229 0.71731 0.0
C1633 C 0.31954 0.82639 0.69082 0.0
C1634 C 0.30182 0.80601 0.70064 0.0
C1635 C 0.26332 0.78347 0.71761 0.0
C1636 C 0.24304 0.7815 0.72694 0.0
C1637 C 0.28187 0.80403 0.71258 0.0
C1638 C 0.24175 0.80037 0.73374 0.0
C1639 C 0.26019 0.82091 0.72918 0.0
H1640 H 0.23483 0.49457 0.7111 0.0
H1641 H 0.20554 0.42509 0.72403 0.0
H1642 H 0.1695 0.42076 0.71432 0.0
H1643 H 0.14679 0.43641 0.69374 0.0
H1644 H 0.17642 0.50598 0.67902 0.0
H1645 H 0.21169 0.51054 0.69803 0.0
C1646 C 0.22049 0.47852 0.71258 0.0
C1647 C 0.22285 0.46022 0.71873 0.0
C1648 C 0.19986 0.47614 0.70607 0.0
C1649 C 0.20419 0.43951 0.72048 0.0
C1650 C 0.18356 0.437 0.7143 0.0
C1651 C 0.16089 0.45261 0.69526 0.0
C1652 C 0.15892 0.47077 0.68431 0.0
C1653 C 0.18126 0.45515 0.7059 0.0
C1654 C 0.17739 0.49165 0.68692 0.0
C1655 C 0.19764 0.4943 0.6977 0.0
H1656 H 0.41366 0.8408 0.16356 0.0
H1657 H 0.45434 0.91006 0.14724 0.0
H1658 H 0.42282 0.91478 0.15529 0.0
H1659 H 0.38442 0.89973 0.17412 0.0
H1660 H 0.34376 0.83053 0.19287 0.0
H1661 H 0.37446 0.82533 0.17651 0.0
C1662 C 0.41554 0.85688 0.16112 0.0
C1663 C 0.43632 0.87499 0.15414 0.0
C1664 C 0.39736 0.85953 0.16668 0.0
C1665 C 0.43853 0.89574 0.15127 0.0
C1666 C 0.4205 0.8985 0.15648 0.0
C1667 C 0.38214 0.88345 0.17412 0.0
C1668 C 0.36179 0.86559 0.18523 0.0
C1669 C 0.39993 0.88057 0.16513 0.0
C1670 C 0.3592 0.84462 0.18467 0.0
C1671 C 0.3768 0.84162 0.17546 0.0
H1672 H 0.11026 0.54276 0.13982 0.0
H1673 H 0.17621 0.5843 0.18188 0.0
H1674 H 0.18155 0.55301 0.18713 0.0
H1675 H 0.16602 0.51344 0.18856 0.0
H1676 H 0.09948 0.47176 0.14956 0.0
H1677 H 0.09607 0.50346 0.13317 0.0
C1678 C 0.12601 0.54506 0.14873 0.0
C1679 C 0.14283 0.56583 0.16026 0.0
C1680 C 0.12882 0.5269 0.15263 0.0
C1681 C 0.16297 0.56843 0.17298 0.0
C1682 C 0.16604 0.55054 0.17604 0.0
C1683 C 0.15094 0.51128 0.17552 0.0
C1684 C 0.13298 0.49024 0.17081 0.0
C1685 C 0.14887 0.52961 0.16725 0.0
C1686 C 0.11352 0.48778 0.15396 0.0
C1687 C 0.11151 0.50591 0.14468 0.0
H1688 H 0.43833 0.59487 0.14939 0.0
H1689 H 0.4675 0.55465 0.13432 0.0
H1690 H 0.50365 0.58651 0.14143 0.0
H1691 H 0.52653 0.62487 0.16133 0.0
H1692 H 0.49718 0.66491 0.17876 0.0
H1693 H 0.46164 0.63413 0.16095 0.0
C1694 C 0.45265 0.59318 0.14683 0.0
C1695 C 0.45023 0.57245 0.14102 0.0
C1696 C 0.47336 0.61152 0.15192 0.0
C1697 C 0.46887 0.57043 0.13776 0.0
C1698 C 0.48957 0.58865 0.14243 0.0
C1699 C 0.51243 0.627 0.1606 0.0
C1700 C 0.51452 0.64713 0.17209 0.0
C1701 C 0.49196 0.60914 0.15084 0.0
C1702 C 0.49608 0.6496 0.1704 0.0
C1703 C 0.4757 0.63197 0.16038 0.0
H1704 H 0.10696 0.62721 0.67026 0.0
H1705 H 0.17639 0.66582 0.68894 0.0
H1706 H 0.18045 0.63487 0.66868 0.0
H1707 H 0.16379 0.59577 0.65413 0.0
H1708 H 0.09425 0.55696 0.63885 0.0
H1709 H 0.0908 0.58914 0.6485 0.0
C1710 C 0.12305 0.629 0.66936 0.0
C1711 C 0.1413 0.64875 0.6818 0.0
C1712 C 0.12524 0.61105 0.65832 0.0
C1713 C 0.16203 0.65079 0.67987 0.0
C1714 C 0.16437 0.63306 0.66842 0.0
C1715 C 0.14793 0.59446 0.65216 0.0
C1716 C 0.12934 0.57402 0.64537 0.0
C1717 C 0.14601 0.61295 0.6589 0.0
C1718 C 0.10889 0.57251 0.64291 0.0
C1719 C 0.10686 0.5909 0.64905 0.0
H1720 H 0.38012 0.47802 0.67949 0.0
H1721 H 0.33909 0.50687 0.67686 0.0
H1722 H 0.37037 0.54197 0.65863 0.0
H1723 H 0.4098 0.56521 0.65021 0.0
H1724 H 0.4511 0.53685 0.65563 0.0
H1725 H 0.41929 0.50084 0.66518 0.0
C1726 C 0.37791 0.49189 0.67435 0.0
C1727 C 0.35723 0.48976 0.68004 0.0
C1728 C 0.39607 0.51218 0.66441 0.0
C1729 C 0.35477 0.50797 0.67303 0.0
C1730 C 0.37269 0.52811 0.66268 0.0
C1731 C 0.41182 0.5511 0.65291 0.0
C1732 C 0.43283 0.55376 0.6518 0.0
C1733 C 0.39348 0.53051 0.65937 0.0
C1734 C 0.43517 0.53532 0.6553 0.0
C1735 C 0.41694 0.5147 0.66133 0.0
H1736 H 0.43897 0.84519 0.66078 0.0
H1737 H 0.46947 0.91442 0.64128 0.0
H1738 H 0.50529 0.91786 0.64779 0.0
H1739 H 0.52765 0.90186 0.66782 0.0
H1740 H 0.49706 0.83271 0.68989 0.0
H1741 H 0.46163 0.82859 0.67323 0.0
C1742 C 0.45349 0.86098 0.65721 0.0
C1743 C 0.45154 0.87949 0.65023 0.0
C1744 C 0.47403 0.86288 0.66196 0.0
C1745 C 0.47045 0.89983 0.64563 0.0
C1746 C 0.49098 0.90185 0.64994 0.0
C1747 C 0.51329 0.88581 0.66842 0.0
C1748 C 0.51503 0.86767 0.68077 0.0
C1749 C 0.49292 0.88358 0.65934 0.0
C1750 C 0.49624 0.84699 0.6808 0.0
C1751 C 0.47594 0.84462 0.67144 0.0
H1752 H 0.29312 0.43979 0.19822 0.0
H1753 H 0.33431 0.50893 0.1795 0.0
H1754 H 0.30393 0.51453 0.19661 0.0
H1755 H 0.26475 0.49934 0.20889 0.0
H1756 H 0.22349 0.43007 0.22415 0.0
H1757 H 0.25485 0.42506 0.21713 0.0
C1758 C 0.2956 0.45615 0.19844 0.0
C1759 C 0.31594 0.47387 0.18696 0.0
C1760 C 0.27798 0.45923 0.20765 0.0
C1761 C 0.31883 0.49495 0.1879 0.0
C1762 C 0.30142 0.49817 0.19753 0.0
C1763 C 0.26271 0.48319 0.21141 0.0
C1764 C 0.24182 0.46516 0.21763 0.0
C1765 C 0.28079 0.48037 0.20621 0.0
C1766 C 0.23939 0.44432 0.22066 0.0
C1767 C 0.25733 0.4414 0.21602 0.0
H1768 H 0.51338 0.82723 0.1739 0.0
H1769 H 0.58055 0.86888 0.20897 0.0
H1770 H 0.58388 0.83716 0.22582 0.0
H1771 H 0.56913 0.79762 0.22155 0.0
H1772 H 0.50261 0.75616 0.18281 0.0
H1773 H 0.4976 0.78764 0.17662 0.0
C1774 C 0.52861 0.82939 0.1861 0.0
C1775 C 0.54672 0.85042 0.18973 0.0
C1776 C 0.53062 0.81104 0.19465 0.0
C1777 C 0.56638 0.85287 0.20544 0.0
C1778 C 0.56833 0.83473 0.21503 0.0
C1779 C 0.55337 0.79543 0.21308 0.0
C1780 C 0.53624 0.7746 0.20288 0.0
C1781 C 0.55077 0.81371 0.20847 0.0
C1782 C 0.51606 0.77208 0.19073 0.0
C1783 C 0.51319 0.79007 0.18711 0.0
H1784 H 0.23734 0.74291 0.21747 0.0
H1785 H 0.20914 0.78413 0.22906 0.0
H1786 H 0.17276 0.75264 0.2214 0.0
H1787 H 0.14941 0.7141 0.20268 0.0
H1788 H 0.17793 0.67308 0.18931 0.0
H1789 H 0.21359 0.70367 0.20665 0.0
C1790 C 0.22316 0.74489 0.21915 0.0
C1791 C 0.22592 0.76577 0.22432 0.0
C1792 C 0.20233 0.72676 0.21383 0.0
C1793 C 0.20748 0.76819 0.2263 0.0
C1794 C 0.18665 0.75019 0.22129 0.0
C1795 C 0.16334 0.71174 0.20419 0.0
C1796 C 0.16096 0.69134 0.19402 0.0
C1797 C 0.18394 0.72949 0.21383 0.0
C1798 C 0.17923 0.6886 0.19659 0.0
C1799 C 0.1997 0.70612 0.2064 0.0
H1800 H 0.20225 0.2193 0.1909 0.0
H1801 H 0.23427 0.18305 0.22098 0.0
H1802 H 0.22813 0.18571 0.29668 0.0
H1803 H 0.21563 0.2004 0.35426 0.0
H1804 H 0.18088 0.23396 0.32411 0.0
H1805 H 0.18583 0.23014 0.24827 0.0
C1806 C 0.20772 0.21185 0.2141 0.0
C1807 C 0.21897 0.20124 0.20054 0.0
C1808 C 0.20363 0.21299 0.25737 0.0
C1809 C 0.22565 0.19131 0.23071 0.0
C1810 C 0.22219 0.19291 0.27393 0.0
C1811 C 0.20892 0.20665 0.33099 0.0
C1812 C 0.19806 0.21763 0.34464 0.0
C1813 C 0.21149 0.20399 0.28762 0.0
C1814 C 0.18922 0.22541 0.31433 0.0
C1815 C 0.19218 0.22333 0.27104 0.0
H1816 H 0.79252 0.98641 0.18357 0.0
H1817 H 0.82672 0.05483 0.21297 0.0
H1818 H 0.82275 0.04633 0.28888 0.0
H1819 H 0.80694 0.01929 0.34655 0.0
H1820 H 0.77518 0.95091 0.31724 0.0
H1821 H 0.78092 0.95945 0.24141 0.0
C1822 C 0.79937 0.99945 0.20668 0.0
C1823 C 0.80974 0.02125 0.19281 0.0
C1824 C 0.79732 0.9944 0.25009 0.0
C1825 C 0.81875 0.03799 0.22291 0.0
C1826 C 0.81634 0.0331 0.26625 0.0
C1827 C 0.8015 0.00627 0.32349 0.0
C1828 C 0.79041 0.98447 0.33731 0.0
C1829 C 0.80527 0.01136 0.28016 0.0
C1830 C 0.78373 0.96777 0.30732 0.0
C1831 C 0.78693 0.97267 0.26403 0.0
H1832 H 0.02342 0.80179 0.19165 0.0
H1833 H 0.95501 0.77255 0.21928 0.0
H1834 H 0.96304 0.77714 0.29533 0.0
H1835 H 0.98945 0.78725 0.35385 0.0
H1836 H 0.05802 0.81928 0.32634 0.0
H1837 H 0.05013 0.81604 0.25016 0.0
C1838 C 0.0103 0.79663 0.21439 0.0
C1839 C 0.98861 0.78661 0.2 0.0
C1840 C 0.01512 0.79978 0.25791 0.0
C1841 C 0.97179 0.78029 0.22963 0.0
C1842 C 0.97639 0.78283 0.27305 0.0
C1843 C 1.00265 0.79374 0.33107 0.0
C1844 C 0.02429 0.80331 0.34549 0.0
C1845 C 0.99796 0.79222 0.28754 0.0
C1846 C 0.04129 0.8119 0.3159 0.0
C1847 C 0.03674 0.80994 0.27242 0.0
H1848 H 0.78638 0.79981 0.68745 0.0
H1849 H 0.8185 0.76323 0.71355 0.0
H1850 H 0.81541 0.76771 0.78987 0.0
H1851 H 0.80161 0.78037 0.8491 0.0
H1852 H 0.77239 0.81964 0.82255 0.0
H1853 H 0.77634 0.81589 0.74641 0.0
C1854 C 0.7929 0.79301 0.70991 0.0
C1855 C 0.80249 0.78103 0.69494 0.0
C1856 C 0.79144 0.79605 0.75356 0.0
C1857 C 0.81112 0.77255 0.72428 0.0
C1858 C 0.80923 0.77501 0.76788 0.0
C1859 C 0.79622 0.7882 0.82658 0.0
C1860 C 0.78643 0.80004 0.8414 0.0
C1861 C 0.7991 0.78644 0.78289 0.0
C1862 C 0.7799 0.81042 0.81195 0.0
C1863 C 0.78211 0.80822 0.76844 0.0
H1864 H 0.20862 0.98687 0.68918 0.0
H1865 H 0.23989 0.05527 0.71809 0.0
H1866 H 0.23516 0.04689 0.79403 0.0
H1867 H 0.2239 0.02007 0.85202 0.0
H1868 H 0.18979 0.95159 0.82319 0.0
H1869 H 0.19363 0.95993 0.7472 0.0
C1870 C 0.21426 0.99992 0.71219 0.0
C1871 C 0.22486 0.0217 0.69819 0.0
C1872 C 0.21098 0.99491 0.75563 0.0
C1873 C 0.23174 0.03843 0.72815 0.0
C1874 C 0.2291 0.03362 0.7715 0.0
C1875 C 0.21715 0.00698 0.82903 0.0
C1876 C 0.20678 0.98522 0.84308 0.0
C1877 C 0.21902 0.01194 0.78558 0.0
C1878 C 0.19781 0.96841 0.81311 0.0
C1879 C 0.20011 0.97321 0.76972 0.0
H1880 H 0.01897 0.21766 0.68704 0.0
H1881 H 0.95058 0.18371 0.71663 0.0
H1882 H 0.95908 0.187 0.79252 0.0
H1883 H 0.98619 0.20259 0.85018 0.0
H1884 H 0.05453 0.23415 0.82066 0.0
H1885 H 0.04597 0.22859 0.74481 0.0
C1886 C 0.00596 0.21065 0.71021 0.0
C1887 C 0.98417 0.20056 0.69651 0.0
C1888 C 0.01102 0.21232 0.75359 0.0
C1889 C 0.96742 0.19142 0.72655 0.0
C1890 C 0.97231 0.19345 0.76986 0.0
C1891 C 0.99917 0.20791 0.82705 0.0
C1892 C 0.02097 0.21892 0.84075 0.0
C1893 C 0.99406 0.2043 0.78372 0.0
C1894 C 0.03767 0.2256 0.81075 0.0
C1895 C 0.03275 0.22252 0.76746 0.0
H1896 H 0.87049 0.55569 0.5189 0.0
H1897 H 0.90272 0.51936 0.54674 0.0
H1898 H 0.89848 0.52323 0.62281 0.0
H1899 H 0.88759 0.53896 0.68122 0.0
H1900 H 0.85266 0.57263 0.65354 0.0
H1901 H 0.85575 0.56765 0.57745 0.0
C1902 C 0.87643 0.54847 0.54169 0.0
C1903 C 0.88717 0.53748 0.52729 0.0
C1904 C 0.87347 0.55035 0.58526 0.0
C1905 C 0.89444 0.52789 0.55704 0.0
C1906 C 0.89209 0.53019 0.60049 0.0
C1907 C 0.88047 0.54502 0.65846 0.0
C1908 C 0.8701 0.55637 0.67289 0.0
C1909 C 0.88193 0.54168 0.61494 0.0
C1910 C 0.86068 0.56385 0.64321 0.0
C1911 C 0.86255 0.56109 0.59975 0.0
H1912 H 0.44178 0.31431 0.51945 0.0
H1913 H 0.49046 0.38088 0.54422 0.0
H1914 H 0.48937 0.3726 0.61994 0.0
H1915 H 0.47213 0.34691 0.67966 0.0
H1916 H 0.42511 0.27995 0.65402 0.0
H1917 H 0.42811 0.2877 0.57786 0.0
C1918 C 0.45228 0.32697 0.54144 0.0
C1919 C 0.46594 0.34829 0.52645 0.0
C1920 C 0.45186 0.32194 0.58461 0.0
C1921 C 0.47976 0.36442 0.55505 0.0
C1922 C 0.47908 0.35967 0.5983 0.0
C1923 C 0.46298 0.33395 0.65717 0.0
C1924 C 0.44853 0.31284 0.67216 0.0
C1925 C 0.46491 0.33857 0.61352 0.0
C1926 C 0.43655 0.29619 0.64304 0.0
C1927 C 0.43813 0.3007 0.59961 0.0
H1928 H 0.65721 0.11964 0.68827 0.0
H1929 H 0.7254 0.15331 0.6568 0.0
H1930 H 0.71633 0.14903 0.58115 0.0
H1931 H 0.68883 0.13363 0.52425 0.0
H1932 H 0.62071 0.10277 0.55562 0.0
H1933 H 0.62982 0.10817 0.63122 0.0
C1934 C 0.67007 0.12619 0.66475 0.0
C1935 C 0.69196 0.13654 0.67792 0.0
C1936 C 0.66469 0.12411 0.6215 0.0
C1937 C 0.70848 0.14528 0.64734 0.0
C1938 C 0.70327 0.14275 0.60417 0.0
C1939 C 0.676 0.1283 0.54771 0.0
C1940 C 0.6541 0.11761 0.53454 0.0
C1941 C 0.68143 0.1319 0.59092 0.0
C1942 C 0.63764 0.11104 0.56506 0.0
C1943 C 0.64287 0.11404 0.60822 0.0
H1944 H 0.47335 0.12048 0.18487 0.0
H1945 H 0.43904 0.15475 0.15704 0.0
H1946 H 0.4435 0.15112 0.08095 0.0
H1947 H 0.45495 0.13582 0.02259 0.0
H1948 H 0.4918 0.10415 0.05037 0.0
H1949 H 0.48873 0.10921 0.12643 0.0
C1950 C 0.46709 0.12738 0.16208 0.0
C1951 C 0.45569 0.1377 0.17645 0.0
C1952 C 0.47008 0.12555 0.11854 0.0
C1953 C 0.4479 0.14681 0.14673 0.0
C1954 C 0.45034 0.1446 0.10328 0.0
C1955 C 0.46247 0.13021 0.04537 0.0
C1956 C 0.47336 0.11936 0.03104 0.0
C1957 C 0.46104 0.13364 0.08886 0.0
C1958 C 0.48334 0.11249 0.06069 0.0
C1959 C 0.4815 0.11532 0.10411 0.0
H1960 H 0.87275 0.32206 0.02508 0.0
H1961 H 0.90596 0.3903 0.05589 0.0
H1962 H 0.90086 0.38137 0.13163 0.0
H1963 H 0.88871 0.35399 0.18901 0.0
H1964 H 0.85257 0.2858 0.15799 0.0
H1965 H 0.8569 0.29476 0.08231 0.0
C1966 C 0.87866 0.33497 0.04845 0.0
C1967 C 0.8899 0.35684 0.035 0.0
C1968 C 0.87522 0.32966 0.09178 0.0
C1969 C 0.89724 0.37339 0.06547 0.0
C1970 C 0.89442 0.36826 0.10873 0.0
C1971 C 0.88165 0.34111 0.1656 0.0
C1972 C 0.87055 0.31922 0.17899 0.0
C1973 C 0.88372 0.34645 0.12225 0.0
C1974 C 0.86118 0.30271 0.14846 0.0
C1975 C 0.86373 0.30786 0.10523 0.0
H1976 H 0.68234 0.54867 1.0176 0.0
H1977 H 0.61364 0.51202 0.04392 0.0
H1978 H 0.62127 0.51563 0.12025 0.0
H1979 H 0.64762 0.53145 0.17933 0.0
H1980 H 0.71636 0.56542 0.15264 0.0
H1981 H 0.70869 0.5606 0.07649 0.0
C1982 C 0.66906 0.54121 0.04013 0.0
C1983 C 0.64743 0.53019 0.02527 0.0
C1984 C 0.67363 0.54306 0.08375 0.0
C1985 C 0.63038 0.52045 0.05462 0.0
C1986 C 0.63477 0.52267 0.09821 0.0
C1987 C 0.6609 0.53766 0.15676 0.0
C1988 C 0.68256 0.54906 0.1715 0.0
C1989 C 0.65632 0.53429 0.11312 0.0
C1990 C 0.69961 0.55667 0.14207 0.0
C1991 C 0.6952 0.55395 0.09857 0.0
H1992 H 0.55961 0.87264 1.01594 0.0
H1993 H 0.52111 0.90259 0.98868 0.0
H1994 H 0.52414 0.89761 0.91254 0.0
H1995 H 0.53993 0.8869 0.85381 0.0
H1996 H 0.57573 0.85411 0.88121 0.0
H1997 H 0.57146 0.85779 0.95737 0.0
C1998 C 0.55168 0.87785 0.99324 0.0
C1999 C 0.54032 0.88818 1.00773 0.0
C2000 C 0.55312 0.87447 0.94972 0.0
C2001 C 0.52989 0.8946 0.97822 0.0
C2002 C 0.53173 0.89184 0.93475 0.0
C2003 C 0.54658 0.88036 0.87655 0.0
C2004 C 0.55834 0.87045 0.86203 0.0
C2005 C 0.54362 0.88213 0.92014 0.0
C2006 C 0.56663 0.86177 0.89165 0.0
C2007 C 0.56426 0.86399 0.93514 0.0
H2008 H 0.13836 0.68553 0.02097 0.0
H2009 H 0.10526 0.61702 0.99253 0.0
H2010 H 0.10973 0.62524 0.9165 0.0
H2011 H 0.12087 0.65205 0.85835 0.0
H2012 H 0.15665 0.72055 0.88684 0.0
H2013 H 0.15351 0.7123 0.96281 0.0
C2014 C 0.13237 0.67241 0.99805 0.0
C2015 C 0.1213 0.65067 1.01221 0.0
C2016 C 0.1354 0.67732 0.95457 0.0
C2017 C 0.11385 0.63383 0.98235 0.0
C2018 C 0.11631 0.63856 0.93894 0.0
C2019 C 0.12815 0.66515 0.88127 0.0
C2020 C 0.13876 0.6869 0.86717 0.0
C2021 C 0.1267 0.66023 0.92472 0.0
C2022 C 0.14842 0.70373 0.89699 0.0
C2023 C 0.14653 0.69899 0.94036 0.0
H2024 H 0.31862 0.44994 1.01491 0.0
H2025 H 0.38694 0.48415 0.98445 0.0
H2026 H 0.37815 0.48002 0.90867 0.0
H2027 H 0.35087 0.46468 0.85132 0.0
H2028 H 0.28262 0.43332 0.88167 0.0
H2029 H 0.29143 0.43844 0.95745 0.0
C2030 C 0.33157 0.45664 0.99159 0.0
C2031 C 0.35342 0.46711 1.00512 0.0
C2032 C 0.32635 0.45464 0.94825 0.0
C2033 C 0.37005 0.47604 0.97476 0.0
C2034 C 0.365 0.47359 0.9315 0.0
C2035 C 0.33795 0.45915 0.87461 0.0
C2036 C 0.3161 0.44841 0.86109 0.0
C2037 C 0.34321 0.46262 0.91792 0.0
C2038 C 0.29951 0.44161 0.89138 0.0
C2039 C 0.30457 0.44446 0.93463 0.0
H2040 H 0.11629 0.46746 0.34744 0.0
H2041 H 0.15584 0.43871 0.37503 0.0
H2042 H 0.15253 0.4435 0.45111 0.0
H2043 H 0.13637 0.45382 0.50975 0.0
H2044 H 0.09967 0.48564 0.48207 0.0
H2045 H 0.10398 0.48194 0.40593 0.0
C2046 C 0.12435 0.46246 0.37019 0.0
C2047 C 0.13611 0.45253 0.3558 0.0
C2048 C 0.12282 0.46579 0.41371 0.0
C2049 C 0.14674 0.44638 0.38541 0.0
C2050 C 0.14475 0.44904 0.42885 0.0
C2051 C 0.12955 0.46017 0.48695 0.0
C2052 C 0.11755 0.46983 0.50136 0.0
C2053 C 0.13256 0.45842 0.44336 0.0
C2054 C 0.10899 0.47821 0.47167 0.0
C2055 C 0.11138 0.47598 0.42821 0.0
H2056 H 0.53505 0.65184 0.34681 0.0
H2057 H 0.56566 0.72023 0.37547 0.0
H2058 H 0.55936 0.71179 0.45123 0.0
H2059 H 0.54814 0.68503 0.50935 0.0
H2060 H 0.51556 0.61656 0.4808 0.0
H2061 H 0.51928 0.62485 0.40474 0.0
C2062 C 0.5401 0.66488 0.36967 0.0
C2063 C 0.55107 0.68668 0.35564 0.0
C2064 C 0.53606 0.65984 0.41304 0.0
C2065 C 0.55722 0.70339 0.38546 0.0
C2066 C 0.55369 0.69854 0.42875 0.0
C2067 C 0.54147 0.67191 0.48639 0.0
C2068 C 0.53165 0.65018 0.50057 0.0
C2069 C 0.54354 0.67685 0.44291 0.0
C2070 C 0.523 0.63334 0.47066 0.0
C2071 C 0.52532 0.63813 0.42723 0.0
H2072 H 0.32157 0.87137 0.518 0.0
H2073 H 0.39023 0.90448 0.49068 0.0
H2074 H 0.38235 0.89999 0.41454 0.0
H2075 H 0.35581 0.88841 0.3559 0.0
H2076 H 0.28717 0.85247 0.38323 0.0
H2077 H 0.29506 0.85613 0.45938 0.0
C2078 C 0.3348 0.87744 0.4953 0.0
C2079 C 0.35649 0.88847 0.50983 0.0
C2080 C 0.33009 0.87433 0.45174 0.0
C2081 C 0.37346 0.89595 0.48024 0.0
C2082 C 0.36892 0.89346 0.43676 0.0
C2083 C 0.34259 0.88125 0.37861 0.0
C2084 C 0.3209 0.87042 0.36409 0.0
C2085 C 0.34731 0.88297 0.42217 0.0
C2086 C 0.30394 0.86089 0.39368 0.0
C2087 C 0.30848 0.86306 0.43716 0.0
H2088 H 0.3243 0.23666 0.02257 0.0
H2089 H 0.27623 0.20465 0.92528 0.0
H2090 H 0.30498 0.21713 0.87157 0.0
H2091 H 0.34384 0.23982 0.85172 0.0
H2092 H 0.39194 0.27077 0.94936 0.0
H2093 H 0.36338 0.25599 1.00357 0.0
C2094 C 0.32023 0.23208 0.98968 0.0
C2095 C 0.29824 0.21962 0.97781 0.0
C2096 C 0.33689 0.23925 0.95909 0.0
C2097 C 0.29307 0.21396 0.93513 0.0
C2098 C 0.3095 0.22124 0.90443 0.0
C2099 C 0.34801 0.24287 0.88498 0.0
C2100 C 0.36993 0.25617 0.89671 0.0
C2101 C 0.33146 0.23422 0.91592 0.0
C2102 C 0.37521 0.26032 0.93976 0.0
C2103 C 0.35886 0.25199 0.97067 0.0
H2104 H 0.73704 0.11319 0.94968 0.0
H2105 H 0.77686 0.12423 0.83955 0.0
H2106 H 0.79762 0.11024 0.87706 0.0
H2107 H 0.8015 0.09082 0.93908 0.0
H2108 H 0.76088 0.07952 0.04833 0.0
H2109 H 0.74355 0.09769 1.01384 0.0
C2110 C 0.75057 0.11291 0.93433 0.0
C2111 C 0.75545 0.11963 0.89203 0.0
C2112 C 0.76216 0.10458 0.95594 0.0
C2113 C 0.77293 0.11919 0.87223 0.0
C2114 C 0.78468 0.11106 0.8936 0.0
C2115 C 0.78926 0.09289 0.95559 0.0
C2116 C 0.78241 0.0838 0.99615 0.0
C2117 C 0.77908 0.10316 0.93517 0.0
C2118 C 0.76633 0.08631 1.01704 0.0
C2119 C 0.75637 0.09665 0.99729 0.0
H2120 H 0.9421 0.71601 0.93338 0.0
H2121 H 0.90227 0.68455 0.04219 0.0
H2122 H 0.88179 0.65062 1.00188 0.0
H2123 H 0.87777 0.62891 0.93712 0.0
H2124 H 0.91811 0.66096 0.8289 0.0
H2125 H 0.93561 0.69552 0.86692 0.0
C2126 C 0.92861 0.70181 0.94783 0.0
C2127 C 0.92354 0.70269 0.99047 0.0
C2128 C 0.91709 0.68238 0.92452 0.0
C2129 C 0.90626 0.6842 1.00923 0.0
C2130 C 0.89466 0.6648 0.98623 0.0
C2131 C 0.88996 0.64361 0.92162 0.0
C2132 C 0.89661 0.6424 0.88019 0.0
C2133 C 0.90021 0.66353 0.94403 0.0
C2134 C 0.91273 0.6615 0.86074 0.0
C2135 C 0.92281 0.68126 0.88253 0.0
H2136 H 0.24383 0.34459 0.68745 0.0
H2137 H 0.25999 0.3908 0.58646 0.0
H2138 H 0.24265 0.36104 0.53504 0.0
H2139 H 0.22598 0.32176 0.51821 0.0
H2140 H 0.20909 0.2756 0.61954 0.0
H2141 H 0.22334 0.3052 0.67155 0.0
C2142 C 0.24306 0.34804 0.65427 0.0
C2143 C 0.25296 0.36979 0.64067 0.0
C2144 C 0.23305 0.33081 0.62501 0.0
C2145 C 0.25218 0.37417 0.59762 0.0
C2146 C 0.24242 0.35715 0.56825 0.0
C2147 C 0.22494 0.31825 0.55179 0.0
C2148 C 0.21632 0.2966 0.56526 0.0
C2149 C 0.23319 0.3354 0.58144 0.0
C2150 C 0.21536 0.29215 0.60868 0.0
C2151 C 0.22367 0.30908 0.63831 0.0
H2152 H 0.68196 0.91626 0.51108 0.0
H2153 H 0.72958 0.93097 0.60872 0.0
H2154 H 0.70069 0.91525 0.66218 0.0
H2155 H 0.66188 0.89984 0.68182 0.0
H2156 H 0.61426 0.88457 0.584 0.0
H2157 H 0.64289 0.89781 0.52995 0.0
C2158 C 0.6859 0.91564 0.544 0.0
C2159 C 0.70783 0.92464 0.556 0.0
C2160 C 0.66916 0.9066 0.57452 0.0
C2161 C 0.7128 0.92392 0.59873 0.0
C2162 C 0.69629 0.91507 0.62931 0.0
C2163 C 0.65782 0.89905 0.64856 0.0
C2164 C 0.63604 0.8911 0.63668 0.0
C2165 C 0.67443 0.90669 0.61771 0.0
C2166 C 0.63091 0.89039 0.59365 0.0
C2167 C 0.64729 0.89808 0.56284 0.0
H2168 H 0.09792 0.75248 0.69404 0.0
H2169 H 0.13746 0.74627 0.5979 0.0
H2170 H 0.12558 0.76399 0.54638 0.0
H2171 H 0.1013 0.77844 0.52724 0.0
H2172 H 0.06225 0.7851 0.62377 0.0
H2173 H 0.07659 0.7703 0.67668 0.0
C2174 C 0.10418 0.75539 0.66195 0.0
C2175 C 0.11863 0.74822 0.64975 0.0
C2176 C 0.09727 0.76561 0.6326 0.0
C2177 C 0.12655 0.7519 0.60809 0.0
C2178 C 0.11964 0.7619 0.5786 0.0
C2179 C 0.09642 0.77712 0.56012 0.0
C2180 C 0.08097 0.78304 0.57189 0.0
C2181 C 0.10471 0.7685 0.59027 0.0
C2182 C 0.07438 0.78093 0.61431 0.0
C2183 C 0.08245 0.77232 0.64441 0.0
H2184 H 0.63073 0.7561 0.10034 0.0
H2185 H 0.65963 0.74354 0.20861 0.0
H2186 H 0.69496 0.76085 0.1735 0.0
H2187 H 0.717 0.77624 0.10925 0.0
H2188 H 0.68908 0.78962 1.00078 0.0
H2189 H 0.65429 0.7757 0.0384 0.0
C2190 C 0.64491 0.75769 0.11653 0.0
C2191 C 0.64251 0.74839 0.15697 0.0
C2192 C 0.66536 0.76765 0.09584 0.0
C2193 C 0.66101 0.75039 0.17738 0.0
C2194 C 0.68124 0.76025 0.15727 0.0
C2195 C 0.70338 0.77647 0.09428 0.0
C2196 C 0.7055 0.78389 0.05241 0.0
C2197 C 0.68351 0.76841 0.1161 0.0
C2198 C 0.68779 0.78406 0.03312 0.0
C2199 C 0.66789 0.776 0.05458 0.0
H2200 H 0.22899 0.90567 0.02332 0.0
H2201 H 0.23027 0.94985 0.1181 0.0
H2202 H 0.24492 0.93491 0.16993 0.0
H2203 H 0.26036 0.91148 0.18647 0.0
H2204 H 0.25973 0.8675 0.09195 0.0
H2205 H 0.24165 0.87979 0.04204 0.0
C2206 C 0.23207 0.91162 0.05561 0.0
C2207 C 0.22851 0.92874 0.06712 0.0
C2208 C 0.24074 0.90306 0.08514 0.0
C2209 C 0.23277 0.93657 0.1088 0.0
C2210 C 0.24126 0.92812 0.1383 0.0
C2211 C 0.25592 0.90437 0.15513 0.0
C2212 C 0.26121 0.88851 0.14296 0.0
C2213 C 0.24575 0.9117 0.12659 0.0
C2214 C 0.25552 0.87948 0.10224 0.0
C2215 C 0.24534 0.88665 0.07361 0.0
H2216 H 0.1091 0.34807 0.18218 0.0
H2217 H 0.13452 0.39577 0.08262 0.0
H2218 H 0.12147 0.36678 0.02943 0.0
H2219 H 0.09944 0.32769 1.01112 0.0
H2220 H 0.07336 0.2801 0.11085 0.0
H2221 H 0.09004 0.30897 0.16405 0.0
C2222 C 0.1122 0.35203 0.14883 0.0
C2223 C 0.12294 0.37398 0.13626 0.0
C2224 C 0.10429 0.33524 0.11848 0.0
C2225 C 0.12662 0.379 0.09302 0.0
C2226 C 0.11895 0.36241 0.06263 0.0
C2227 C 0.09782 0.32371 0.04453 0.0
C2228 C 0.08538 0.30182 0.05715 0.0
C2229 C 0.1073 0.34047 0.07492 0.0
C2230 C 0.08313 0.2968 0.10045 0.0
C2231 C 0.09254 0.31332 0.13084 0.0
H2232 H 0.79025 0.70483 0.43518 0.0
H2233 H 0.74902 0.67597 0.54386 0.0
H2234 H 0.73059 0.64072 0.50833 0.0
H2235 H 0.72395 0.61862 0.44399 0.0
H2236 H 0.76501 0.64678 0.33513 0.0
H2237 H 0.78591 0.68147 0.37285 0.0
C2238 C 0.77759 0.69069 0.45135 0.0
C2239 C 0.77096 0.69306 0.49212 0.0
C2240 C 0.76689 0.67032 0.43046 0.0
C2241 C 0.75433 0.67461 0.51244 0.0
C2242 C 0.74374 0.65444 0.49209 0.0
C2243 C 0.73769 0.6323 0.42887 0.0
C2244 C 0.7429 0.63025 0.38684 0.0
C2245 C 0.74952 0.65218 0.45075 0.0
C2246 C 0.76075 0.64802 0.36752 0.0
C2247 C 0.77262 0.66787 0.38904 0.0
H2248 H 0.29214 0.06483 0.42457 0.0
H2249 H 0.32144 0.10621 0.53256 0.0
H2250 H 0.356 0.12645 0.49406 0.0
H2251 H 0.379 0.12953 0.43193 0.0
H2252 H 0.34915 0.08742 0.3248 0.0
H2253 H 0.31386 0.07044 0.3602 0.0
C2254 C 0.30602 0.07858 0.43923 0.0
C2255 C 0.30436 0.08406 0.48124 0.0
C2256 C 0.32584 0.08986 0.41709 0.0
C2257 C 0.32238 0.10182 0.50012 0.0
C2258 C 0.34216 0.11327 0.47819 0.0
C2259 C 0.36463 0.11702 0.41607 0.0
C2260 C 0.36669 0.10966 0.37586 0.0
C2261 C 0.34428 0.10708 0.43698 0.0
C2262 C 0.34799 0.09324 0.35584 0.0
C2263 C 0.3278 0.0835 0.3761 0.0
H2264 H 0.90017 0.24544 0.35411 0.0
H2265 H 0.87006 0.26284 0.45317 0.0
H2266 H 0.88273 0.24643 0.50607 0.0
H2267 H 0.90532 0.23003 0.52469 0.0
H2268 H 0.93535 0.21261 0.4255 0.0
H2269 H 0.91974 0.22585 0.3721 0.0
C2270 C 0.89601 0.24516 0.38722 0.0
C2271 C 0.88402 0.2551 0.39979 0.0
C2272 C 0.90351 0.23582 0.41741 0.0
C2273 C 0.87897 0.25497 0.44276 0.0
C2274 C 0.88637 0.24575 0.473 0.0
C2275 C 0.90801 0.22875 0.4913 0.0
C2276 C 0.92128 0.22019 0.4789 0.0
C2277 C 0.89904 0.23652 0.46082 0.0
C2278 C 0.92494 0.21885 0.43565 0.0
C2279 C 0.91614 0.22657 0.40518 0.0
H2280 H 0.01381 0.58773 0.18217 0.0
H2281 H 0.05754 0.58867 0.2775 0.0
H2282 H 0.02732 0.571 0.32782 0.0
H2283 H 0.9888 0.55845 0.34675 0.0
H2284 H 0.94544 0.55807 0.25128 0.0
H2285 H 0.97488 0.57218 0.19903 0.0
C2286 C 0.01661 0.58375 0.21381 0.0
C2287 C 0.03788 0.58952 0.22613 0.0
C2288 C 0.99916 0.57381 0.24265 0.0
C2289 C 0.04131 0.58424 0.26715 0.0
C2290 C 0.02403 0.57428 0.29603 0.0
C2291 C 0.98579 0.56103 0.31424 0.0
C2292 C 0.96501 0.55716 0.30267 0.0
C2293 C 1.00295 0.5694 0.28445 0.0
C2294 C 0.96128 0.5608 0.26067 0.0
C2295 C 0.97814 0.56898 0.23091 0.0
H2296 H 0.42286 0.432 0.18047 0.0
H2297 H 0.40695 0.46352 0.27914 0.0
H2298 H 0.4234 0.45088 0.33204 0.0
H2299 H 0.43945 0.42801 0.35081 0.0
H2300 H 0.45648 0.39753 0.25194 0.0
H2301 H 0.44282 0.41272 0.19842 0.0
C2302 C 0.42344 0.43643 0.21348 0.0
C2303 C 0.41385 0.44875 0.22603 0.0
C2304 C 0.43308 0.42921 0.2436 0.0
C2305 C 0.41446 0.45425 0.26884 0.0
C2306 C 0.42375 0.44692 0.29905 0.0
C2307 C 0.44066 0.42523 0.31743 0.0
C2308 C 0.44917 0.41192 0.30514 0.0
C2309 C 0.43276 0.43405 0.28693 0.0
C2310 C 0.45033 0.40804 0.26195 0.0
C2311 C 0.44234 0.41657 0.23144 0.0
H2312 H 0.57851 0.00921 0.36157 0.0
H2313 H 0.6018 0.05833 0.26465 0.0
H2314 H 0.58617 0.03016 0.20987 0.0
H2315 H 0.56863 0.9914 0.18944 0.0
H2316 H 0.54463 0.94216 0.28613 0.0
H2317 H 0.55741 0.97028 0.34114 0.0
C2318 C 0.57973 0.01364 0.32845 0.0
C2319 C 0.59116 0.03575 0.317 0.0
C2320 C 0.57062 0.9973 0.29717 0.0
C2321 C 0.59288 0.04141 0.27408 0.0
C2322 C 0.58405 0.0253 0.24281 0.0
C2323 C 0.56576 0.9869 0.22258 0.0
C2324 C 0.55549 0.96479 0.23385 0.0
C2325 C 0.57324 0.00319 0.25392 0.0
C2326 C 0.55215 0.95907 0.27681 0.0
C2327 C 0.55964 0.97516 0.30821 0.0
H2328 H 0.43125 0.01555 0.85417 0.0
H2329 H 0.47421 0.05959 0.75932 0.0
H2330 H 0.46182 0.02949 0.7087 0.0
H2331 H 0.4361 0.99095 0.68957 0.0
H2332 H 0.39297 0.94732 0.7847 0.0
H2333 H 0.40801 0.9767 0.83707 0.0
C2334 C 0.43813 0.01844 0.82259 0.0
C2335 C 0.45373 0.03972 0.81056 0.0
C2336 C 0.43074 1.00108 0.79364 0.0
C2337 C 0.46245 0.04331 0.76952 0.0
C2338 C 0.45521 0.02611 0.74048 0.0
C2339 C 0.43041 0.98787 0.72204 0.0
C2340 C 0.41357 0.96704 0.73352 0.0
C2341 C 0.43905 0.00498 0.7519 0.0
C2342 C 0.40605 0.96321 0.77543 0.0
C2343 C 0.41456 0.98003 0.80524 0.0
H2344 H 0.99606 0.42655 0.85524 0.0
H2345 H 0.94665 0.40988 0.76055 0.0
H2346 H 0.97459 0.4253 0.70524 0.0
H2347 H 0.01313 0.441 0.68317 0.0
H2348 H 0.06254 0.45836 0.77809 0.0
H2349 H 0.03482 0.44539 0.8339 0.0
C2350 C 0.99152 0.4267 0.82254 0.0
C2351 C 0.96936 0.41724 0.81194 0.0
C2352 C 0.00772 0.43559 0.79095 0.0
C2353 C 0.96361 0.41732 0.76948 0.0
C2354 C 0.97959 0.42599 0.73785 0.0
C2355 C 0.01777 0.4423 0.71618 0.0
C2356 C 0.03981 0.45076 0.72669 0.0
C2357 C 1.00168 0.43484 0.74807 0.0
C2358 C 0.04569 0.45214 0.76943 0.0
C2359 C 0.02983 0.44461 0.80126 0.0
H2360 H 0.538 0.56336 0.71606 0.0
H2361 H 0.59315 0.62815 0.72882 0.0
H2362 H 0.61239 0.61433 0.76925 0.0
H2363 H 0.61468 0.58414 0.79806 0.0
H2364 H 0.55673 0.52135 0.80845 0.0
H2365 H 0.53786 0.53359 0.76038 0.0
C2366 C 0.55408 0.57449 0.72816 0.0
C2367 C 0.56463 0.59672 0.71631 0.0
C2368 C 0.56471 0.56664 0.75509 0.0
C2369 C 0.58519 0.61081 0.73393 0.0
C2370 C 0.59618 0.60296 0.75792 0.0
C2371 C 0.59761 0.5732 0.7921 0.0
C2372 C 0.5873 0.55187 0.80831 0.0
C2373 C 0.58626 0.58091 0.76813 0.0
C2374 C 0.56549 0.53779 0.79647 0.0
C2375 C 0.5545 0.54492 0.76932 0.0
H2376 H 0.34724 0.36815 0.10935 0.0
H2377 H 0.29053 0.3753 0.10089 0.0
H2378 H 0.26701 0.33583 0.09859 0.0
H2379 H 0.26266 0.29947 0.0994 0.0
H2380 H 0.3189 0.29187 0.11347 0.0
H2381 H 0.34265 0.33142 0.11364 0.0
C2382 C 0.32974 0.36095 0.10672 0.0
C2383 C 0.3205 0.37435 0.10484 0.0
C2384 C 0.31633 0.3383 0.10679 0.0
C2385 C 0.29785 0.3651 0.10231 0.0
C2386 C 0.28445 0.34262 0.10101 0.0
C2387 C 0.28012 0.30652 0.10253 0.0
C2388 C 0.28911 0.29297 0.10623 0.0
C2389 C 0.29352 0.3291 0.10335 0.0
C2390 C 0.31168 0.30213 0.11081 0.0
C2391 C 0.32524 0.32467 0.11068 0.0
H2392 H 0.63862 0.93415 0.11178 0.0
H2393 H 0.6336 0.99143 0.09014 0.0
H2394 H 0.67333 0.01406 0.09136 0.0
H2395 H 0.70945 0.01724 0.09814 0.0
H2396 H 0.71388 0.95928 0.11386 0.0
H2397 H 0.67424 0.93708 0.11614 0.0
C2398 C 0.64624 0.9516 0.10737 0.0
C2399 C 0.63338 0.9612 0.10103 0.0
C2400 C 0.66888 0.9643 0.10744 0.0
C2401 C 0.64332 0.98374 0.09481 0.0
C2402 C 0.66596 0.99665 0.09576 0.0
C2403 C 0.70162 0.99978 0.1025 0.0
C2404 C 0.71428 0.98978 0.10632 0.0
C2405 C 0.67889 0.98709 0.10214 0.0
C2406 C 0.70423 0.96717 0.11105 0.0
C2407 C 0.68167 0.95452 0.11224 0.0
H2408 H 0.05599 0.68498 0.15832 0.0
H2409 H 0.05845 0.68263 0.0221 0.0
H2410 H 0.0384 0.70222 1.01645 0.0
H2411 H 0.02127 0.72092 0.05037 0.0
H2412 H 0.01781 0.72218 0.1866 0.0
H2413 H 0.03718 0.70194 0.19216 0.0
C2414 C 0.05214 0.68878 0.1274 0.0
C2415 C 0.05884 0.68263 0.09067 0.0
C2416 C 0.0405 0.69981 0.12444 0.0
C2417 C 0.05346 0.68727 0.0508 0.0
C2418 C 0.04207 0.69849 0.04756 0.0
C2419 C 0.02478 0.71677 0.08126 0.0
C2420 C 0.01838 0.72318 0.11803 0.0
C2421 C 0.0357 0.705 0.08418 0.0
C2422 C 0.02265 0.71741 0.15786 0.0
C2423 C 0.03375 0.70591 0.16106 0.0
H2424 H 0.29755 0.314 0.44962 0.0
H2425 H 0.29065 0.25094 0.42739 0.0
H2426 H 0.3301 0.26718 0.42332 0.0
H2427 H 0.36627 0.29899 0.42729 0.0
H2428 H 0.37399 0.36197 0.45461 0.0
H2429 H 0.33438 0.3461 0.45615 0.0
C2430 C 0.30481 0.30397 0.44351 0.0
C2431 C 0.2915 0.28146 0.43836 0.0
C2432 C 0.32749 0.31333 0.44264 0.0
C2433 C 0.30081 0.26837 0.43133 0.0
C2434 C 0.32326 0.2776 0.42908 0.0
C2435 C 0.35926 0.30924 0.43356 0.0
C2436 C 0.37284 0.33155 0.44064 0.0
C2437 C 0.33672 0.30001 0.43495 0.0
C2438 C 0.36371 0.34468 0.4493 0.0
C2439 C 0.34113 0.33565 0.44993 0.0
H2440 H 0.72602 0.01931 0.48681 0.0
H2441 H 0.72608 0.01664 0.35039 0.0
H2442 H 0.70519 0.03543 0.34708 0.0
H2443 H 0.68767 0.05321 0.38299 0.0
H2444 H 0.68666 0.05487 0.51945 0.0
H2445 H 0.70717 0.0357 0.52274 0.0
C2446 C 0.7215 0.02289 0.45636 0.0
C2447 C 0.72771 0.01683 0.41889 0.0
C2448 C 0.70935 0.03345 0.45473 0.0
C2449 C 0.72148 0.02121 0.37965 0.0
C2450 C 0.70959 0.03197 0.37774 0.0
C2451 C 0.69197 0.04939 0.41344 0.0
C2452 C 0.68588 0.05557 0.45092 0.0
C2453 C 0.70357 0.03826 0.41508 0.0
C2454 C 0.69122 0.05026 0.49017 0.0
C2455 C 0.70297 0.03937 0.49208 0.0
H2456 H 0.98026 0.63477 0.42699 0.0
H2457 H 0.91741 0.63014 0.43343 0.0
H2458 H 0.9347 0.66968 0.43842 0.0
H2459 H 0.96756 0.70533 0.44074 0.0
H2460 H 0.03052 0.71059 0.42896 0.0
H2461 H 0.01336 0.67091 0.42577 0.0
C2462 C 0.97046 0.64252 0.42975 0.0
C2463 C 0.94773 0.62982 0.43031 0.0
C2464 C 0.98049 0.66522 0.43129 0.0
C2465 C 0.935 0.6398 0.43302 0.0
C2466 C 0.94484 0.66231 0.43586 0.0
C2467 C 0.97749 0.69774 0.43746 0.0
C2468 C 1.00017 0.71065 0.43532 0.0
C2469 C 0.96754 0.67514 0.43494 0.0
C2470 C 0.01296 0.70082 0.43047 0.0
C2471 C 1.00319 0.67821 0.42887 0.0
H2472 H 0.71553 0.70129 0.88894 0.0
H2473 H 0.74941 0.70939 1.00688 0.0
H2474 H 0.73429 0.67021 1.012 0.0
H2475 H 0.71142 0.63365 0.98306 0.0
H2476 H 0.6772 0.62566 0.86557 0.0
H2477 H 0.69254 0.66483 0.86027 0.0
C2478 C 0.71959 0.69449 0.91576 0.0
C2479 C 0.73355 0.70819 0.94738 0.0
C2480 C 0.71082 0.67198 0.91862 0.0
C2481 C 0.73866 0.69915 0.98205 0.0
C2482 C 0.73005 0.67676 0.98503 0.0
C2483 C 0.70738 0.6405 0.95626 0.0
C2484 C 0.69322 0.62682 0.92485 0.0
C2485 C 0.71614 0.66303 0.95348 0.0
C2486 C 0.68802 0.63587 0.89035 0.0
C2487 C 0.69679 0.65827 0.88721 0.0
H2488 H 0.37519 0.07709 0.93227 0.0
H2489 H 0.38218 0.02034 0.94236 0.0
H2490 H 0.34259 0.99691 0.94367 0.0
H2491 H 0.30601 0.99278 0.94173 0.0
H2492 H 0.29949 0.04993 0.93722 0.0
H2493 H 0.33898 0.07314 0.93358 0.0
C2494 C 0.368 0.05958 0.93477 0.0
C2495 C 0.38139 0.05035 0.93705 0.0
C2496 C 0.3454 0.04637 0.93627 0.0
C2497 C 0.37205 0.02773 0.94081 0.0
C2498 C 0.34948 0.01437 0.94134 0.0
C2499 C 0.31334 0.01031 0.93965 0.0
C2500 C 0.30011 0.01976 0.93929 0.0
C2501 C 0.33601 0.02353 0.93894 0.0
C2502 C 0.30955 0.04244 0.93747 0.0
C2503 C 0.33205 0.05567 0.93541 0.0
H2504 H 0.99509 0.29269 0.98379 0.0
H2505 H 0.99043 0.28537 0.84799 0.0
H2506 H 0.97061 0.30524 0.84471 0.0
H2507 H 0.95323 0.32309 0.88085 0.0
H2508 H 0.95861 0.33112 1.01648 0.0
H2509 H 0.97968 0.31251 0.01944 0.0
C2510 C 0.98977 0.29549 0.95347 0.0
C2511 C 0.99394 0.2874 0.91623 0.0
C2512 C 0.97849 0.30692 0.95184 0.0
C2513 C 0.98734 0.29143 0.87707 0.0
C2514 C 0.97595 0.3027 0.8752 0.0
C2515 C 0.95901 0.32075 0.91105 0.0
C2516 C 0.95419 0.32816 0.94846 0.0
C2517 C 0.9712 0.31023 0.91245 0.0
C2518 C 0.96209 0.32544 0.9873 0.0
C2519 C 0.97408 0.31479 0.98902 0.0
H2520 H 0.7055 0.7478 0.56516 0.0
H2521 H 0.70456 0.70339 0.65957 0.0
H2522 H 0.66512 0.68659 0.66543 0.0
H2523 H 0.63118 0.68394 0.64234 0.0
H2524 H 0.63184 0.72818 0.54792 0.0
H2525 H 0.67148 0.7459 0.54373 0.0
C2526 C 0.69668 0.73446 0.58707 0.0
C2527 C 0.70786 0.72673 0.61172 0.0
C2528 C 0.6741 0.72493 0.59027 0.0
C2529 C 0.69628 0.70959 0.64022 0.0
C2530 C 0.67377 0.69998 0.64356 0.0
C2531 C 0.63994 0.69745 0.62079 0.0
C2532 C 0.62862 0.70463 0.59517 0.0
C2533 C 0.66255 0.70742 0.61849 0.0
C2534 C 0.64023 0.72234 0.56788 0.0
C2535 C 0.66284 0.73242 0.56541 0.0
H2536 H 0.35006 0.98125 0.60847 0.0
H2537 H 0.29291 0.9177 0.60011 0.0
H2538 H 0.26982 0.93408 0.59567 0.0
H2539 H 0.26595 0.96634 0.59513 0.0
H2540 H 0.32257 0.02993 0.60917 0.0
H2541 H 0.34596 0.01372 0.61089 0.0
C2542 C 0.33257 0.97111 0.60535 0.0
C2543 C 0.32307 0.94844 0.60418 0.0
C2544 C 0.3194 0.98061 0.60423 0.0
C2545 C 0.30042 0.93525 0.601 0.0
C2546 C 0.28727 0.94457 0.59849 0.0
C2547 C 0.28342 0.97662 0.59854 0.0
C2548 C 0.29263 0.9992 0.60184 0.0
C2549 C 0.29659 0.9672 0.60027 0.0
C2550 C 0.3152 0.01243 0.60681 0.0
C2551 C 0.32854 0.0032 0.60757 0.0
H2552 H 0.01156 0.30036 0.55333 0.0
H2553 H 0.01549 0.29804 0.68934 0.0
H2554 H 0.03595 0.33775 0.69218 0.0
H2555 H 0.05414 0.37282 0.65562 0.0
H2556 H 0.04955 0.37512 0.51975 0.0
H2557 H 0.02779 0.33546 0.51721 0.0
C2558 C 0.01685 0.30856 0.58361 0.0
C2559 C 0.0123 0.2964 0.62103 0.0
C2560 C 0.02852 0.33126 0.58497 0.0
C2561 C 0.01888 0.30713 0.66012 0.0
C2562 C 0.03063 0.32978 0.66174 0.0
C2563 C 0.04838 0.36462 0.62546 0.0
C2564 C 0.05361 0.37673 0.58786 0.0
C2565 C 0.0358 0.34196 0.6243 0.0
C2566 C 0.04575 0.36604 0.54906 0.0
C2567 C 0.03336 0.34342 0.54759 0.0
H2568 H 0.03831 0.68166 0.7613 0.0
H2569 H 0.04523 0.62526 0.7794 0.0
H2570 H 0.00573 0.60178 0.78009 0.0
H2571 H 0.96944 0.59737 0.77485 0.0
H2572 H 0.96215 0.65321 0.75141 0.0
H2573 H 1.00168 0.67694 0.75281 0.0
C2574 C 0.03104 0.66425 0.76576 0.0
C2575 C 0.04436 0.65507 0.77081 0.0
C2576 C 0.0084 0.65083 0.76463 0.0
C2577 C 0.03506 0.63252 0.77564 0.0
C2578 C 0.01257 0.61915 0.77594 0.0
C2579 C 0.97655 0.61474 0.76995 0.0
C2580 C 0.96308 0.62361 0.76318 0.0
C2581 C 0.99912 0.62812 0.77026 0.0
C2582 C 0.97233 0.64606 0.75639 0.0
C2583 C 0.99487 0.65962 0.75748 0.0
H2584 H 0.35003 0.31739 0.77583 0.0
H2585 H 0.41099 0.36921 0.72871 0.0
H2586 H 0.39586 0.39342 0.72484 0.0
H2587 H 0.36617 0.40032 0.73866 0.0
H2588 H 0.30575 0.34964 0.79073 0.0
H2589 H 0.31982 0.32444 0.78951 0.0
C2590 C 0.35972 0.33388 0.76405 0.0
C2591 C 0.38134 0.34166 0.752 0.0
C2592 C 0.35117 0.3479 0.76356 0.0
C2593 C 0.39418 0.36307 0.73774 0.0
C2594 C 0.38561 0.37687 0.73576 0.0
C2595 C 0.35604 0.38374 0.74965 0.0
C2596 C 0.33503 0.37682 0.76485 0.0
C2597 C 0.36427 0.36955 0.74928 0.0
C2598 C 0.3221 0.35535 0.77922 0.0
C2599 C 0.33006 0.34093 0.7783 0.0
H2600 H 0.63664 0.03969 0.7795 0.0
H2601 H 0.70052 0.0472 0.76695 0.0
H2602 H 0.68458 0.00768 0.764 0.0
H2603 H 0.65228 0.97097 0.76481 0.0
H2604 H 0.58842 0.96396 0.77139 0.0
H2605 H 0.60449 0.00336 0.77713 0.0
C2606 C 0.64703 0.03263 0.77617 0.0
C2607 C 0.66964 0.04616 0.77363 0.0
C2608 C 0.63776 0.01005 0.77357 0.0
C2609 C 0.68301 0.03697 0.76875 0.0
C2610 C 0.67393 0.01443 0.76725 0.0
C2611 C 0.64199 0.97817 0.76777 0.0
C2612 C 0.61932 0.96481 0.76808 0.0
C2613 C 0.65132 1.00082 0.76969 0.0
C2614 C 0.60597 0.97411 0.77111 0.0
C2615 C 0.61512 0.99656 0.7744 0.0
H2616 H 0.3619 0.03609 0.2685 0.0
H2617 H 0.42566 0.04325 0.25723 0.0
H2618 H 0.40964 0.00377 0.25365 0.0
H2619 H 0.37767 0.96743 0.25584 0.0
H2620 H 0.31399 0.95986 0.27315 0.0
H2621 H 0.32975 0.99938 0.27277 0.0
C2622 C 0.37215 0.0289 0.2648 0.0
C2623 C 0.39478 0.04227 0.26267 0.0
C2624 C 0.36289 0.00625 0.26437 0.0
C2625 C 0.40814 0.03303 0.25879 0.0
C2626 C 0.39902 0.01056 0.25683 0.0
C2627 C 0.36727 0.97447 0.25947 0.0
C2628 C 0.34479 0.96092 0.26445 0.0
C2629 C 0.37645 0.99704 0.26 0.0
C2630 C 0.33142 0.9701 0.26959 0.0
C2631 C 0.34039 0.99263 0.26913 0.0
H2632 H 0.03701 0.38769 0.32726 0.0
H2633 H 0.04266 0.38326 0.19213 0.0
H2634 H 1.00318 0.36248 0.18552 0.0
H2635 H 0.96714 0.34712 0.2177 0.0
H2636 H 0.96147 0.35333 0.3523 0.0
H2637 H 1.00092 0.37187 0.3596 0.0
C2638 C 0.02956 0.38198 0.29648 0.0
C2639 C 0.04259 0.38697 0.26029 0.0
C2640 C 0.0069 0.37052 0.29277 0.0
C2641 C 0.03285 0.37969 0.22045 0.0
C2642 C 0.01032 0.36781 0.21661 0.0
C2643 C 0.97456 0.35243 0.24861 0.0
C2644 C 0.96153 0.349 0.28431 0.0
C2645 C 0.9972 0.3634 0.25249 0.0
C2646 C 0.97126 0.356 0.32425 0.0
C2647 C 0.99378 0.36654 0.3285 0.0
H2648 H 0.59369 0.62892 0.26631 0.0
H2649 H 0.6514 0.6916 0.28147 0.0
H2650 H 0.67389 0.67438 0.28244 0.0
H2651 H 0.67696 0.64137 0.27731 0.0
H2652 H 0.61877 0.57869 0.26729 0.0
H2653 H 0.59649 0.59603 0.26554 0.0
C2654 C 0.61119 0.63876 0.27 0.0
C2655 C 0.62098 0.66139 0.27359 0.0
C2656 C 0.62385 0.62878 0.27106 0.0
C2657 C 0.64358 0.67407 0.2789 0.0
C2658 C 0.65642 0.66427 0.27916 0.0
C2659 C 0.65941 0.63163 0.27449 0.0
C2660 C 0.64939 0.60894 0.27187 0.0
C2661 C 0.64672 0.64165 0.27486 0.0
C2662 C 0.62669 0.59626 0.26917 0.0
C2663 C 0.61399 0.60612 0.26823 0.0
loop_
_geom_bond_atom_site_label_1
_geom_bond_atom_site_label_2
_geom_bond_distance
_geom_bond_site_symmetry_2
_ccdc_geom_bond_type
Co0 O3 1.970 . S
Co0 N17 1.989 . S
Co0 O25 1.967 . S
Co0 O32 1.920 . S
Co1 O4 1.966 . S
Co1 N10 2.022 . S
Co1 N18 1.993 . S
Co1 O26 1.941 . S
C2 O3 1.258 . S
C2 O4 1.263 . S
O3 Co0 1.970 . S
O3 C2 1.258 . S
O4 Co1 1.966 . S
O4 C2 1.263 . S
C5 O6 1.235 . S
C5 O32 1.289 . S
O6 C5 1.235 . S
C7 C9 1.400 . S
C7 N10 1.351 . S
C7 C12 1.501 . S
C8 C9 1.387 1_556 S
C8 N11 1.341 . S
C9 C7 1.400 . S
C9 C8 1.387 1_554 S
N10 Co1 2.022 . S
N10 C7 1.351 . S
N10 N11 1.365 1_554 S
N11 C8 1.341 . S
N11 N10 1.365 1_556 S
N11 H31 0.862 . S
C12 C7 1.501 . S
C12 H13 0.961 . S
C12 H14 0.961 . S
C12 H15 0.960 . S
H13 C12 0.961 . S
H14 C12 0.961 . S
H15 C12 0.960 . S
C16 N17 1.342 1_556 S
C16 C20 1.401 . S
C16 C21 1.499 . S
N17 Co0 1.989 . S
N17 C16 1.342 1_554 S
N17 N18 1.388 . S
N18 Co1 1.993 . S
N18 N17 1.388 . S
N18 C19 1.346 1_554 S
C19 N18 1.346 1_556 S
C19 C20 1.396 . S
C19 C29 1.510 . S
C20 C16 1.401 . S
C20 C19 1.396 . S
C21 C16 1.499 . S
C21 H22 0.959 1_556 S
C21 H23 0.954 1_556 S
C21 H24 0.961 . S
H22 C21 0.959 1_554 S
H23 C21 0.954 1_554 S
H24 C21 0.961 . S
O25 Co0 1.967 . S
O25 C33 1.258 . S
O26 Co1 1.941 . S
O26 C33 1.266 . S
H27 C29 0.959 . S
H28 C29 0.961 . S
C29 C19 1.510 . S
C29 H27 0.959 . S
C29 H28 0.961 . S
C29 H30 0.960 . S
H30 C29 0.960 . S
H31 N11 0.862 . S
O32 Co0 1.920 . S
O32 C5 1.289 . S
C33 O25 1.258 . S
C33 O26 1.266 . S
Co34 O37 1.970 . S
Co34 N51 1.989 . S
Co34 O59 1.967 1_545 S
Co34 O66 1.920 1_545 S
Co35 O38 1.966 . S
Co35 N44 2.022 . S
Co35 N52 1.993 . S
Co35 O60 1.941 . S
C36 O37 1.258 . S
C36 O38 1.263 . S
O37 Co34 1.970 . S
O37 C36 1.258 . S
O38 Co35 1.966 . S
O38 C36 1.263 . S
C39 O40 1.235 1_565 S
C39 O66 1.289 . S
O40 C39 1.235 1_545 S
C41 C43 1.400 . S
C41 N44 1.351 . S
C41 C46 1.501 . S
C42 C43 1.387 1_556 S
C42 N45 1.341 . S
C43 C41 1.400 . S
C43 C42 1.387 1_554 S
N44 Co35 2.022 . S
N44 C41 1.351 . S
N44 N45 1.365 1_554 S
N45 C42 1.341 . S
N45 N44 1.365 1_556 S
N45 H65 0.862 . S
C46 C41 1.501 . S
C46 H47 0.961 . S
C46 H48 0.961 . S
C46 H49 0.960 . S
H47 C46 0.961 . S
H48 C46 0.961 . S
H49 C46 0.960 . S
C50 N51 1.342 1_556 S
C50 C54 1.401 . S
C50 C55 1.499 . S
N51 Co34 1.989 . S
N51 C50 1.342 1_554 S
N51 N52 1.388 . S
N52 Co35 1.993 . S
N52 N51 1.388 . S
N52 C53 1.346 1_554 S
C53 N52 1.346 1_556 S
C53 C54 1.396 . S
C53 C63 1.510 . S
C54 C50 1.401 . S
C54 C53 1.396 . S
C55 C50 1.499 . S
C55 H56 0.959 1_556 S
C55 H57 0.954 1_556 S
C55 H58 0.961 . S
H56 C55 0.959 1_554 S
H57 C55 0.954 1_554 S
H58 C55 0.961 . S
O59 Co34 1.967 1_565 S
O59 C67 1.258 . S
O60 Co35 1.941 . S
O60 C67 1.266 1_545 S
H61 C63 0.959 . S
H62 C63 0.961 . S
C63 C53 1.510 . S
C63 H61 0.959 . S
C63 H62 0.961 . S
C63 H64 0.960 . S
H64 C63 0.960 . S
H65 N45 0.862 . S
O66 Co34 1.920 1_565 S
O66 C39 1.289 . S
C67 O59 1.258 . S
C67 O60 1.266 1_565 S
Co68 O71 1.970 . S
Co68 N85 1.989 . S
Co68 O93 1.967 1_655 S
Co68 O100 1.920 1_655 S
Co69 O72 1.966 . S
Co69 N78 2.022 . S
Co69 N86 1.993 . S
Co69 O94 1.941 . S
C70 O71 1.258 . S
C70 O72 1.263 . S
O71 Co68 1.970 . S
O71 C70 1.258 . S
O72 Co69 1.966 . S
O72 C70 1.263 . S
C73 O74 1.235 1_455 S
C73 O100 1.289 . S
O74 C73 1.235 1_655 S
C75 C77 1.400 . S
C75 N78 1.351 . S
C75 C80 1.501 . S
C76 C77 1.387 1_556 S
C76 N79 1.341 . S
C77 C75 1.400 . S
C77 C76 1.387 1_554 S
N78 Co69 2.022 . S
N78 C75 1.351 . S
N78 N79 1.365 1_554 S
N79 C76 1.341 . S
N79 N78 1.365 1_556 S
N79 H99 0.862 . S
C80 C75 1.501 . S
C80 H81 0.961 . S
C80 H82 0.961 . S
C80 H83 0.960 . S
H81 C80 0.961 . S
H82 C80 0.961 . S
H83 C80 0.960 . S
C84 N85 1.342 1_556 S
C84 C88 1.401 . S
C84 C89 1.499 . S
N85 Co68 1.989 . S
N85 C84 1.342 1_554 S
N85 N86 1.388 . S
N86 Co69 1.993 . S
N86 N85 1.388 . S
N86 C87 1.346 1_554 S
C87 N86 1.346 1_556 S
C87 C88 1.396 . S
C87 C97 1.510 . S
C88 C84 1.401 . S
C88 C87 1.396 . S
C89 C84 1.499 . S
C89 H90 0.959 1_556 S
C89 H91 0.954 1_556 S
C89 H92 0.961 . S
H90 C89 0.959 1_554 S
H91 C89 0.954 1_554 S
H92 C89 0.961 . S
O93 Co68 1.967 1_455 S
O93 C101 1.258 . S
O94 Co69 1.941 . S
O94 C101 1.266 1_655 S
H95 C97 0.959 . S
H96 C97 0.961 . S
C97 C87 1.510 . S
C97 H95 0.959 . S
C97 H96 0.961 . S
C97 H98 0.960 . S
H98 C97 0.960 . S
H99 N79 0.862 . S
O100 Co68 1.920 1_455 S
O100 C73 1.289 . S
C101 O93 1.258 . S
C101 O94 1.266 1_455 S
Co102 O105 1.970 . S
Co102 N119 1.989 . S
Co102 O127 1.967 . S
Co102 O134 1.920 . S
Co103 O106 1.966 . S
Co103 N112 2.022 . S
Co103 N120 1.993 . S
Co103 O128 1.941 . S
C104 O105 1.258 . S
C104 O106 1.263 . S
O105 Co102 1.970 . S
O105 C104 1.258 . S
O106 Co103 1.966 . S
O106 C104 1.263 . S
C107 O108 1.235 . S
C107 O134 1.289 . S
O108 C107 1.235 . S
C109 C111 1.400 . S
C109 N112 1.351 . S
C109 C114 1.501 . S
C110 C111 1.387 . S
C110 N113 1.341 . S
C111 C109 1.400 . S
C111 C110 1.387 . S
N112 Co103 2.022 . S
N112 C109 1.351 . S
N112 N113 1.365 . S
N113 C110 1.341 . S
N113 N112 1.365 . S
N113 H133 0.862 . S
C114 C109 1.501 . S
C114 H115 0.961 . S
C114 H116 0.961 . S
C114 H117 0.960 . S
H115 C114 0.961 . S
H116 C114 0.961 . S
H117 C114 0.960 . S
C118 N119 1.342 . S
C118 C122 1.401 . S
C118 C123 1.499 . S
N119 Co102 1.989 . S
N119 C118 1.342 . S
N119 N120 1.388 . S
N120 Co103 1.993 . S
N120 N119 1.388 . S
N120 C121 1.346 . S
C121 N120 1.346 . S
C121 C122 1.396 . S
C121 C131 1.510 . S
C122 C118 1.401 . S
C122 C121 1.396 . S
C123 C118 1.499 . S
C123 H124 0.959 . S
C123 H125 0.960 . S
C123 H126 0.961 . S
H124 C123 0.959 . S
H125 C123 0.960 . S
H126 C123 0.961 . S
O127 Co102 1.967 . S
O127 C135 1.258 . S
O128 Co103 1.941 . S
O128 C135 1.266 . S
H129 C131 0.959 . S
H130 C131 0.961 . S
C131 C121 1.510 . S
C131 H129 0.959 . S
C131 H130 0.961 . S
C131 H132 0.960 . S
H132 C131 0.960 . S
H133 N113 0.862 . S
O134 Co102 1.920 . S
O134 C107 1.289 . S
C135 O127 1.258 . S
C135 O128 1.266 . S
Co136 O139 1.970 . S
Co136 N153 1.989 . S
Co136 O161 1.967 1_565 S
Co136 O168 1.920 1_565 S
Co137 O140 1.966 . S
Co137 N146 2.022 . S
Co137 N154 1.993 . S
Co137 O162 1.941 . S
C138 O139 1.258 . S
C138 O140 1.263 . S
O139 Co136 1.970 . S
O139 C138 1.258 . S
O140 Co137 1.966 . S
O140 C138 1.263 . S
C141 O142 1.235 1_545 S
C141 O168 1.289 . S
O142 C141 1.235 1_565 S
C143 C145 1.400 . S
C143 N146 1.351 . S
C143 C148 1.501 . S
C144 C145 1.387 . S
C144 N147 1.341 . S
C145 C143 1.400 . S
C145 C144 1.387 . S
N146 Co137 2.022 . S
N146 C143 1.351 . S
N146 N147 1.365 . S
N147 C144 1.341 . S
N147 N146 1.365 . S
N147 H167 0.862 . S
C148 C143 1.501 . S
C148 H149 0.961 . S
C148 H150 0.961 . S
C148 H151 0.960 . S
H149 C148 0.961 . S
H150 C148 0.961 . S
H151 C148 0.960 . S
C152 N153 1.342 . S
C152 C156 1.401 . S
C152 C157 1.499 . S
N153 Co136 1.989 . S
N153 C152 1.342 . S
N153 N154 1.388 . S
N154 Co137 1.993 . S
N154 N153 1.388 . S
N154 C155 1.346 . S
C155 N154 1.346 . S
C155 C156 1.396 . S
C155 C165 1.510 . S
C156 C152 1.401 . S
C156 C155 1.396 . S
C157 C152 1.499 . S
C157 H158 0.959 . S
C157 H159 0.960 . S
C157 H160 0.961 . S
H158 C157 0.959 . S
H159 C157 0.960 . S
H160 C157 0.961 . S
O161 Co136 1.967 1_545 S
O161 C169 1.258 . S
O162 Co137 1.941 . S
O162 C169 1.266 1_565 S
H163 C165 0.959 . S
H164 C165 0.961 . S
C165 C155 1.510 . S
C165 H163 0.959 . S
C165 H164 0.961 . S
C165 H166 0.960 . S
H166 C165 0.960 . S
H167 N147 0.862 . S
O168 Co136 1.920 1_545 S
O168 C141 1.289 . S
C169 O161 1.258 . S
C169 O162 1.266 1_545 S
Co170 O173 1.970 . S
Co170 N187 1.989 . S
Co170 O195 1.967 1_455 S
Co170 O202 1.920 1_455 S
Co171 O174 1.966 . S
Co171 N180 2.022 . S
Co171 N188 1.993 . S
Co171 O196 1.941 . S
C172 O173 1.258 . S
C172 O174 1.263 . S
O173 Co170 1.970 . S
O173 C172 1.258 . S
O174 Co171 1.966 . S
O174 C172 1.263 . S
C175 O176 1.235 1_655 S
C175 O202 1.289 . S
O176 C175 1.235 1_455 S
C177 C179 1.400 . S
C177 N180 1.351 . S
C177 C182 1.501 . S
C178 C179 1.387 . S
C178 N181 1.341 . S
C179 C177 1.400 . S
C179 C178 1.387 . S
N180 Co171 2.022 . S
N180 C177 1.351 . S
N180 N181 1.365 . S
N181 C178 1.341 . S
N181 N180 1.365 . S
N181 H201 0.862 . S
C182 C177 1.501 . S
C182 H183 0.961 . S
C182 H184 0.961 . S
C182 H185 0.960 . S
H183 C182 0.961 . S
H184 C182 0.961 . S
H185 C182 0.960 . S
C186 N187 1.342 . S
C186 C190 1.401 . S
C186 C191 1.499 . S
N187 Co170 1.989 . S
N187 C186 1.342 . S
N187 N188 1.388 . S
N188 Co171 1.993 . S
N188 N187 1.388 . S
N188 C189 1.346 . S
C189 N188 1.346 . S
C189 C190 1.396 . S
C189 C199 1.510 . S
C190 C186 1.401 . S
C190 C189 1.396 . S
C191 C186 1.499 . S
C191 H192 0.959 . S
C191 H193 0.960 . S
C191 H194 0.961 . S
H192 C191 0.959 . S
H193 C191 0.960 . S
H194 C191 0.961 . S
O195 Co170 1.967 1_655 S
O195 C203 1.258 . S
O196 Co171 1.941 . S
O196 C203 1.266 1_455 S
H197 C199 0.959 . S
H198 C199 0.961 . S
C199 C189 1.510 . S
C199 H197 0.959 . S
C199 H198 0.961 . S
C199 H200 0.960 . S
H200 C199 0.960 . S
H201 N181 0.862 . S
O202 Co170 1.920 1_655 S
O202 C175 1.289 . S
C203 O195 1.258 . S
C203 O196 1.266 1_655 S
Co204 O207 1.970 . S
Co204 N221 1.989 . S
Co204 O229 1.967 . S
Co204 O236 1.920 . S
Co205 O208 1.966 . S
Co205 N214 2.022 . S
Co205 N222 1.993 . S
Co205 O230 1.941 . S
C206 O207 1.258 . S
C206 O208 1.263 . S
O207 Co204 1.970 . S
O207 C206 1.258 . S
O208 Co205 1.966 . S
O208 C206 1.263 . S
C209 O210 1.235 . S
C209 O236 1.289 . S
O210 C209 1.235 . S
C211 C213 1.400 . S
C211 N214 1.351 . S
C211 C216 1.501 . S
C212 C213 1.387 1_554 S
C212 N215 1.341 . S
C213 C211 1.400 . S
C213 C212 1.387 1_556 S
N214 Co205 2.022 . S
N214 C211 1.351 . S
N214 N215 1.365 1_556 S
N215 C212 1.341 . S
N215 N214 1.365 1_554 S
N215 H235 0.862 . S
C216 C211 1.501 . S
C216 H217 0.961 . S
C216 H218 0.961 . S
C216 H219 0.960 . S
H217 C216 0.961 . S
H218 C216 0.961 . S
H219 C216 0.960 . S
C220 N221 1.342 1_554 S
C220 C224 1.401 . S
C220 C225 1.499 . S
N221 Co204 1.989 . S
N221 C220 1.342 1_556 S
N221 N222 1.388 . S
N222 Co205 1.993 . S
N222 N221 1.388 . S
N222 C223 1.346 1_556 S
C223 N222 1.346 1_554 S
C223 C224 1.396 . S
C223 C233 1.510 . S
C224 C220 1.401 . S
C224 C223 1.396 . S
C225 C220 1.499 . S
C225 H226 0.959 1_554 S
C225 H227 0.954 1_554 S
C225 H228 0.961 . S
H226 C225 0.959 1_556 S
H227 C225 0.954 1_556 S
H228 C225 0.961 . S
O229 Co204 1.967 . S
O229 C237 1.258 . S
O230 Co205 1.941 . S
O230 C237 1.266 . S
H231 C233 0.959 . S
H232 C233 0.961 . S
C233 C223 1.510 . S
C233 H231 0.959 . S
C233 H232 0.961 . S
C233 H234 0.960 . S
H234 C233 0.960 . S
H235 N215 0.862 . S
O236 Co204 1.920 . S
O236 C209 1.289 . S
C237 O229 1.258 . S
C237 O230 1.266 . S
Co238 O241 1.970 . S
Co238 N255 1.989 . S
Co238 O263 1.967 1_565 S
Co238 O270 1.920 1_565 S
Co239 O242 1.966 . S
Co239 N248 2.022 . S
Co239 N256 1.993 . S
Co239 O264 1.941 . S
C240 O241 1.258 . S
C240 O242 1.263 . S
O241 Co238 1.970 . S
O241 C240 1.258 . S
O242 Co239 1.966 . S
O242 C240 1.263 . S
C243 O244 1.235 1_545 S
C243 O270 1.289 . S
O244 C243 1.235 1_565 S
C245 C247 1.400 . S
C245 N248 1.351 . S
C245 C250 1.501 . S
C246 C247 1.387 1_554 S
C246 N249 1.341 . S
C247 C245 1.400 . S
C247 C246 1.387 1_556 S
N248 Co239 2.022 . S
N248 C245 1.351 . S
N248 N249 1.365 1_556 S
N249 C246 1.341 . S
N249 N248 1.365 1_554 S
N249 H269 0.862 . S
C250 C245 1.501 . S
C250 H251 0.961 . S
C250 H252 0.961 . S
C250 H253 0.960 . S
H251 C250 0.961 . S
H252 C250 0.961 . S
H253 C250 0.960 . S
C254 N255 1.342 1_554 S
C254 C258 1.401 . S
C254 C259 1.499 . S
N255 Co238 1.989 . S
N255 C254 1.342 1_556 S
N255 N256 1.388 . S
N256 Co239 1.993 . S
N256 N255 1.388 . S
N256 C257 1.346 1_556 S
C257 N256 1.346 1_554 S
C257 C258 1.396 . S
C257 C267 1.510 . S
C258 C254 1.401 . S
C258 C257 1.396 . S
C259 C254 1.499 . S
C259 H260 0.959 1_554 S
C259 H261 0.954 1_554 S
C259 H262 0.961 . S
H260 C259 0.959 1_556 S
H261 C259 0.954 1_556 S
H262 C259 0.961 . S
O263 Co238 1.967 1_545 S
O263 C271 1.258 . S
O264 Co239 1.941 . S
O264 C271 1.266 1_565 S
H265 C267 0.959 . S
H266 C267 0.961 . S
C267 C257 1.510 . S
C267 H265 0.959 . S
C267 H266 0.961 . S
C267 H268 0.960 . S
H268 C267 0.960 . S
H269 N249 0.862 . S
O270 Co238 1.920 1_545 S
O270 C243 1.289 . S
C271 O263 1.258 . S
C271 O264 1.266 1_545 S
Co272 O275 1.970 . S
Co272 N289 1.989 . S
Co272 O297 1.967 1_455 S
Co272 O304 1.920 1_455 S
Co273 O276 1.966 . S
Co273 N282 2.022 . S
Co273 N290 1.993 . S
Co273 O298 1.941 . S
C274 O275 1.258 . S
C274 O276 1.263 . S
O275 Co272 1.970 . S
O275 C274 1.258 . S
O276 Co273 1.966 . S
O276 C274 1.263 . S
C277 O278 1.235 1_655 S
C277 O304 1.289 . S
O278 C277 1.235 1_455 S
C279 C281 1.400 . S
C279 N282 1.351 . S
C279 C284 1.501 . S
C280 C281 1.387 1_554 S
C280 N283 1.341 . S
C281 C279 1.400 . S
C281 C280 1.387 1_556 S
N282 Co273 2.022 . S
N282 C279 1.351 . S
N282 N283 1.365 1_556 S
N283 C280 1.341 . S
N283 N282 1.365 1_554 S
N283 H303 0.862 . S
C284 C279 1.501 . S
C284 H285 0.961 . S
C284 H286 0.961 . S
C284 H287 0.960 . S
H285 C284 0.961 . S
H286 C284 0.961 . S
H287 C284 0.960 . S
C288 N289 1.342 1_554 S
C288 C292 1.401 . S
C288 C293 1.499 . S
N289 Co272 1.989 . S
N289 C288 1.342 1_556 S
N289 N290 1.388 . S
N290 Co273 1.993 . S
N290 N289 1.388 . S
N290 C291 1.346 1_556 S
C291 N290 1.346 1_554 S
C291 C292 1.396 . S
C291 C301 1.510 . S
C292 C288 1.401 . S
C292 C291 1.396 . S
C293 C288 1.499 . S
C293 H294 0.959 1_554 S
C293 H295 0.954 1_554 S
C293 H296 0.961 . S
H294 C293 0.959 1_556 S
H295 C293 0.954 1_556 S
H296 C293 0.961 . S
O297 Co272 1.967 1_655 S
O297 C305 1.258 . S
O298 Co273 1.941 . S
O298 C305 1.266 1_455 S
H299 C301 0.959 . S
H300 C301 0.961 . S
C301 C291 1.510 . S
C301 H299 0.959 . S
C301 H300 0.961 . S
C301 H302 0.960 . S
H302 C301 0.960 . S
H303 N283 0.862 . S
O304 Co272 1.920 1_655 S
O304 C277 1.289 . S
C305 O297 1.258 . S
C305 O298 1.266 1_655 S
Co306 O309 1.970 . S
Co306 N323 1.989 . S
Co306 O331 1.967 . S
Co306 O338 1.920 . S
Co307 O310 1.966 . S
Co307 N316 2.022 . S
Co307 N324 1.993 . S
Co307 O332 1.941 . S
C308 O309 1.258 . S
C308 O310 1.263 . S
O309 Co306 1.970 . S
O309 C308 1.258 . S
O310 Co307 1.966 . S
O310 C308 1.263 . S
C311 O312 1.235 . S
C311 O338 1.289 . S
O312 C311 1.235 . S
C313 C315 1.400 . S
C313 N316 1.351 . S
C313 C318 1.501 . S
C314 C315 1.387 . S
C314 N317 1.341 . S
C315 C313 1.400 . S
C315 C314 1.387 . S
N316 Co307 2.022 . S
N316 C313 1.351 . S
N316 N317 1.365 . S
N317 C314 1.341 . S
N317 N316 1.365 . S
N317 H337 0.862 . S
C318 C313 1.501 . S
C318 H319 0.961 . S
C318 H320 0.961 . S
C318 H321 0.960 . S
H319 C318 0.961 . S
H320 C318 0.961 . S
H321 C318 0.960 . S
C322 N323 1.342 . S
C322 C326 1.401 . S
C322 C327 1.499 . S
N323 Co306 1.989 . S
N323 C322 1.342 . S
N323 N324 1.388 . S
N324 Co307 1.993 . S
N324 N323 1.388 . S
N324 C325 1.346 . S
C325 N324 1.346 . S
C325 C326 1.396 . S
C325 C335 1.510 . S
C326 C322 1.401 . S
C326 C325 1.396 . S
C327 C322 1.499 . S
C327 H328 0.959 . S
C327 H329 0.960 . S
C327 H330 0.961 . S
H328 C327 0.959 . S
H329 C327 0.960 . S
H330 C327 0.961 . S
O331 Co306 1.967 . S
O331 C339 1.258 . S
O332 Co307 1.941 . S
O332 C339 1.266 . S
H333 C335 0.959 . S
H334 C335 0.961 . S
C335 C325 1.510 . S
C335 H333 0.959 . S
C335 H334 0.961 . S
C335 H336 0.960 . S
H336 C335 0.960 . S
H337 N317 0.862 . S
O338 Co306 1.920 . S
O338 C311 1.289 . S
C339 O331 1.258 . S
C339 O332 1.266 . S
Co340 O343 1.970 . S
Co340 N357 1.989 . S
Co340 O365 1.967 1_545 S
Co340 O372 1.920 1_545 S
Co341 O344 1.966 . S
Co341 N350 2.022 . S
Co341 N358 1.993 . S
Co341 O366 1.941 . S
C342 O343 1.258 . S
C342 O344 1.263 . S
O343 Co340 1.970 . S
O343 C342 1.258 . S
O344 Co341 1.966 . S
O344 C342 1.263 . S
C345 O346 1.235 1_565 S
C345 O372 1.289 . S
O346 C345 1.235 1_545 S
C347 C349 1.400 . S
C347 N350 1.351 . S
C347 C352 1.501 . S
C348 C349 1.387 . S
C348 N351 1.341 . S
C349 C347 1.400 . S
C349 C348 1.387 . S
N350 Co341 2.022 . S
N350 C347 1.351 . S
N350 N351 1.365 . S
N351 C348 1.341 . S
N351 N350 1.365 . S
N351 H371 0.862 . S
C352 C347 1.501 . S
C352 H353 0.961 . S
C352 H354 0.961 . S
C352 H355 0.960 . S
H353 C352 0.961 . S
H354 C352 0.961 . S
H355 C352 0.960 . S
C356 N357 1.342 . S
C356 C360 1.401 . S
C356 C361 1.499 . S
N357 Co340 1.989 . S
N357 C356 1.342 . S
N357 N358 1.388 . S
N358 Co341 1.993 . S
N358 N357 1.388 . S
N358 C359 1.346 . S
C359 N358 1.346 . S
C359 C360 1.396 . S
C359 C369 1.510 . S
C360 C356 1.401 . S
C360 C359 1.396 . S
C361 C356 1.499 . S
C361 H362 0.959 . S
C361 H363 0.960 . S
C361 H364 0.961 . S
H362 C361 0.959 . S
H363 C361 0.960 . S
H364 C361 0.961 . S
O365 Co340 1.967 1_565 S
O365 C373 1.258 . S
O366 Co341 1.941 . S
O366 C373 1.266 1_545 S
H367 C369 0.959 . S
H368 C369 0.961 . S
C369 C359 1.510 . S
C369 H367 0.959 . S
C369 H368 0.961 . S
C369 H370 0.960 . S
H370 C369 0.960 . S
H371 N351 0.862 . S
O372 Co340 1.920 1_565 S
O372 C345 1.289 . S
C373 O365 1.258 . S
C373 O366 1.266 1_565 S
Co374 O377 1.970 . S
Co374 N391 1.989 . S
Co374 O399 1.967 1_655 S
Co374 O406 1.920 1_655 S
Co375 O378 1.966 . S
Co375 N384 2.022 . S
Co375 N392 1.993 . S
Co375 O400 1.941 . S
C376 O377 1.258 . S
C376 O378 1.263 . S
O377 Co374 1.970 . S
O377 C376 1.258 . S
O378 Co375 1.966 . S
O378 C376 1.263 . S
C379 O380 1.235 1_455 S
C379 O406 1.289 . S
O380 C379 1.235 1_655 S
C381 C383 1.400 . S
C381 N384 1.351 . S
C381 C386 1.501 . S
C382 C383 1.387 . S
C382 N385 1.341 . S
C383 C381 1.400 . S
C383 C382 1.387 . S
N384 Co375 2.022 . S
N384 C381 1.351 . S
N384 N385 1.365 . S
N385 C382 1.341 . S
N385 N384 1.365 . S
N385 H405 0.862 . S
C386 C381 1.501 . S
C386 H387 0.961 . S
C386 H388 0.961 . S
C386 H389 0.960 . S
H387 C386 0.961 . S
H388 C386 0.961 . S
H389 C386 0.960 . S
C390 N391 1.342 . S
C390 C394 1.401 . S
C390 C395 1.499 . S
N391 Co374 1.989 . S
N391 C390 1.342 . S
N391 N392 1.388 . S
N392 Co375 1.993 . S
N392 N391 1.388 . S
N392 C393 1.346 . S
C393 N392 1.346 . S
C393 C394 1.396 . S
C393 C403 1.510 . S
C394 C390 1.401 . S
C394 C393 1.396 . S
C395 C390 1.499 . S
C395 H396 0.959 . S
C395 H397 0.960 . S
C395 H398 0.961 . S
H396 C395 0.959 . S
H397 C395 0.960 . S
H398 C395 0.961 . S
O399 Co374 1.967 1_455 S
O399 C407 1.258 . S
O400 Co375 1.941 . S
O400 C407 1.266 1_655 S
H401 C403 0.959 . S
H402 C403 0.961 . S
C403 C393 1.510 . S
C403 H401 0.959 . S
C403 H402 0.961 . S
C403 H404 0.960 . S
H404 C403 0.960 . S
H405 N385 0.862 . S
O406 Co374 1.920 1_455 S
O406 C379 1.289 . S
C407 O399 1.258 . S
C407 O400 1.266 1_455 S
Co408 O411 1.970 . S
Co408 N425 1.989 . S
Co408 O433 1.967 . S
Co408 O440 1.920 . S
Co409 O412 1.966 . S
Co409 N418 2.022 . S
Co409 N426 1.993 . S
Co409 O434 1.941 . S
C410 O411 1.258 . S
C410 O412 1.263 . S
O411 Co408 1.970 . S
O411 C410 1.258 . S
O412 Co409 1.966 . S
O412 C410 1.263 . S
C413 O414 1.235 . S
C413 O440 1.289 . S
O414 C413 1.235 . S
C415 C417 1.400 . S
C415 N418 1.351 . S
C415 C420 1.501 . S
C416 C417 1.387 . S
C416 N419 1.341 . S
C417 C415 1.400 . S
C417 C416 1.387 . S
N418 Co409 2.022 . S
N418 C415 1.351 . S
N418 N419 1.365 . S
N419 C416 1.341 . S
N419 N418 1.365 . S
N419 H439 0.862 . S
C420 C415 1.501 . S
C420 H421 0.961 . S
C420 H422 0.961 . S
C420 H423 0.960 . S
H421 C420 0.961 . S
H422 C420 0.961 . S
H423 C420 0.960 . S
C424 N425 1.342 . S
C424 C428 1.401 . S
C424 C429 1.499 . S
N425 Co408 1.989 . S
N425 C424 1.342 . S
N425 N426 1.388 . S
N426 Co409 1.993 . S
N426 N425 1.388 . S
N426 C427 1.346 . S
C427 N426 1.346 . S
C427 C428 1.396 . S
C427 C437 1.510 . S
C428 C424 1.401 . S
C428 C427 1.396 . S
C429 C424 1.499 . S
C429 H430 0.959 . S
C429 H431 0.960 . S
C429 H432 0.961 . S
H430 C429 0.959 . S
H431 C429 0.960 . S
H432 C429 0.961 . S
O433 Co408 1.967 . S
O433 C441 1.258 . S
O434 Co409 1.941 . S
O434 C441 1.266 . S
H435 C437 0.959 . S
H436 C437 0.961 . S
C437 C427 1.510 . S
C437 H435 0.959 . S
C437 H436 0.961 . S
C437 H438 0.960 . S
H438 C437 0.960 . S
H439 N419 0.862 . S
O440 Co408 1.920 . S
O440 C413 1.289 . S
C441 O433 1.258 . S
C441 O434 1.266 . S
Co442 O445 1.970 . S
Co442 N459 1.989 . S
Co442 O467 1.967 . S
Co442 O474 1.920 . S
Co443 O446 1.966 . S
Co443 N452 2.022 . S
Co443 N460 1.993 . S
Co443 O468 1.941 . S
C444 O445 1.258 . S
C444 O446 1.263 . S
O445 Co442 1.970 . S
O445 C444 1.258 . S
O446 Co443 1.966 . S
O446 C444 1.263 . S
C447 O448 1.235 . S
C447 O474 1.289 . S
O448 C447 1.235 . S
C449 C451 1.400 . S
C449 N452 1.351 . S
C449 C454 1.501 . S
C450 C451 1.387 . S
C450 N453 1.341 . S
C451 C449 1.400 . S
C451 C450 1.387 . S
N452 Co443 2.022 . S
N452 C449 1.351 . S
N452 N453 1.365 . S
N453 C450 1.341 . S
N453 N452 1.365 . S
N453 H473 0.862 . S
C454 C449 1.501 . S
C454 H455 0.961 . S
C454 H456 0.961 . S
C454 H457 0.960 . S
H455 C454 0.961 . S
H456 C454 0.961 . S
H457 C454 0.960 . S
C458 N459 1.342 . S
C458 C462 1.401 . S
C458 C463 1.499 . S
N459 Co442 1.989 . S
N459 C458 1.342 . S
N459 N460 1.388 . S
N460 Co443 1.993 . S
N460 N459 1.388 . S
N460 C461 1.346 . S
C461 N460 1.346 . S
C461 C462 1.396 . S
C461 C471 1.510 . S
C462 C458 1.401 . S
C462 C461 1.396 . S
C463 C458 1.499 . S
C463 H464 0.959 . S
C463 H465 0.960 . S
C463 H466 0.961 . S
H464 C463 0.959 . S
H465 C463 0.960 . S
H466 C463 0.961 . S
O467 Co442 1.967 . S
O467 C475 1.258 . S
O468 Co443 1.941 . S
O468 C475 1.266 . S
H469 C471 0.959 . S
H470 C471 0.961 . S
C471 C461 1.510 . S
C471 H469 0.959 . S
C471 H470 0.961 . S
C471 H472 0.960 . S
H472 C471 0.960 . S
H473 N453 0.862 . S
O474 Co442 1.920 . S
O474 C447 1.289 . S
C475 O467 1.258 . S
C475 O468 1.266 . S
Co476 O479 1.970 . S
Co476 N493 1.989 . S
Co476 O501 1.967 . S
Co476 O508 1.920 . S
Co477 O480 1.966 . S
Co477 N486 2.022 . S
Co477 N494 1.993 . S
Co477 O502 1.941 . S
C478 O479 1.258 . S
C478 O480 1.263 . S
O479 Co476 1.970 . S
O479 C478 1.258 . S
O480 Co477 1.966 . S
O480 C478 1.263 . S
C481 O482 1.235 . S
C481 O508 1.289 . S
O482 C481 1.235 . S
C483 C485 1.400 . S
C483 N486 1.351 . S
C483 C488 1.501 . S
C484 C485 1.387 . S
C484 N487 1.341 . S
C485 C483 1.400 . S
C485 C484 1.387 . S
N486 Co477 2.022 . S
N486 C483 1.351 . S
N486 N487 1.365 . S
N487 C484 1.341 . S
N487 N486 1.365 . S
N487 H507 0.862 . S
C488 C483 1.501 . S
C488 H489 0.961 . S
C488 H490 0.961 . S
C488 H491 0.960 . S
H489 C488 0.961 . S
H490 C488 0.961 . S
H491 C488 0.960 . S
C492 N493 1.342 . S
C492 C496 1.401 . S
C492 C497 1.499 . S
N493 Co476 1.989 . S
N493 C492 1.342 . S
N493 N494 1.388 . S
N494 Co477 1.993 . S
N494 N493 1.388 . S
N494 C495 1.346 . S
C495 N494 1.346 . S
C495 C496 1.396 . S
C495 C505 1.510 . S
C496 C492 1.401 . S
C496 C495 1.396 . S
C497 C492 1.499 . S
C497 H498 0.959 . S
C497 H499 0.960 . S
C497 H500 0.961 . S
H498 C497 0.959 . S
H499 C497 0.960 . S
H500 C497 0.961 . S
O501 Co476 1.967 . S
O501 C509 1.258 . S
O502 Co477 1.941 . S
O502 C509 1.266 . S
H503 C505 0.959 . S
H504 C505 0.961 . S
C505 C495 1.510 . S
C505 H503 0.959 . S
C505 H504 0.961 . S
C505 H506 0.960 . S
H506 C505 0.960 . S
H507 N487 0.862 . S
O508 Co476 1.920 . S
O508 C481 1.289 . S
C509 O501 1.258 . S
C509 O502 1.266 . S
Co510 O513 1.970 . S
Co510 N527 1.989 . S
Co510 O535 1.967 . S
Co510 O542 1.920 . S
Co511 O514 1.966 . S
Co511 N520 2.022 . S
Co511 N528 1.993 . S
Co511 O536 1.941 . S
C512 O513 1.258 . S
C512 O514 1.263 . S
O513 Co510 1.970 . S
O513 C512 1.258 . S
O514 Co511 1.966 . S
O514 C512 1.263 . S
C515 O516 1.235 . S
C515 O542 1.289 . S
O516 C515 1.235 . S
C517 C519 1.400 . S
C517 N520 1.351 . S
C517 C522 1.501 . S
C518 C519 1.387 . S
C518 N521 1.341 . S
C519 C517 1.400 . S
C519 C518 1.387 . S
N520 Co511 2.022 . S
N520 C517 1.351 . S
N520 N521 1.365 . S
N521 C518 1.341 . S
N521 N520 1.365 . S
N521 H541 0.862 . S
C522 C517 1.501 . S
C522 H523 0.961 . S
C522 H524 0.961 . S
C522 H525 0.960 . S
H523 C522 0.961 . S
H524 C522 0.961 . S
H525 C522 0.960 . S
C526 N527 1.342 . S
C526 C530 1.401 . S
C526 C531 1.499 . S
N527 Co510 1.989 . S
N527 C526 1.342 . S
N527 N528 1.388 . S
N528 Co511 1.993 . S
N528 N527 1.388 . S
N528 C529 1.346 . S
C529 N528 1.346 . S
C529 C530 1.396 . S
C529 C539 1.510 . S
C530 C526 1.401 . S
C530 C529 1.396 . S
C531 C526 1.499 . S
C531 H532 0.959 . S
C531 H533 0.960 . S
C531 H534 0.961 . S
H532 C531 0.959 . S
H533 C531 0.960 . S
H534 C531 0.961 . S
O535 Co510 1.967 . S
O535 C543 1.258 . S
O536 Co511 1.941 . S
O536 C543 1.266 . S
H537 C539 0.959 . S
H538 C539 0.961 . S
C539 C529 1.510 . S
C539 H537 0.959 . S
C539 H538 0.961 . S
C539 H540 0.960 . S
H540 C539 0.960 . S
H541 N521 0.862 . S
O542 Co510 1.920 . S
O542 C515 1.289 . S
C543 O535 1.258 . S
C543 O536 1.266 . S
Co544 O547 1.970 . S
Co544 N561 1.989 . S
Co544 O569 1.967 . S
Co544 O576 1.920 . S
Co545 O548 1.966 . S
Co545 N554 2.022 . S
Co545 N562 1.993 . S
Co545 O570 1.941 . S
C546 O547 1.258 . S
C546 O548 1.263 . S
O547 Co544 1.970 . S
O547 C546 1.258 . S
O548 Co545 1.966 . S
O548 C546 1.263 . S
C549 O550 1.235 . S
C549 O576 1.289 . S
O550 C549 1.235 . S
C551 C553 1.400 . S
C551 N554 1.351 . S
C551 C556 1.501 . S
C552 C553 1.387 . S
C552 N555 1.341 . S
C553 C551 1.400 . S
C553 C552 1.387 . S
N554 Co545 2.022 . S
N554 C551 1.351 . S
N554 N555 1.365 . S
N555 C552 1.341 . S
N555 N554 1.365 . S
N555 H575 0.862 . S
C556 C551 1.501 . S
C556 H557 0.961 . S
C556 H558 0.961 . S
C556 H559 0.960 . S
H557 C556 0.961 . S
H558 C556 0.961 . S
H559 C556 0.960 . S
C560 N561 1.342 . S
C560 C564 1.401 . S
C560 C565 1.499 . S
N561 Co544 1.989 . S
N561 C560 1.342 . S
N561 N562 1.388 . S
N562 Co545 1.993 . S
N562 N561 1.388 . S
N562 C563 1.346 . S
C563 N562 1.346 . S
C563 C564 1.396 . S
C563 C573 1.510 . S
C564 C560 1.401 . S
C564 C563 1.396 . S
C565 C560 1.499 . S
C565 H566 0.959 . S
C565 H567 0.960 . S
C565 H568 0.961 . S
H566 C565 0.959 . S
H567 C565 0.960 . S
H568 C565 0.961 . S
O569 Co544 1.967 . S
O569 C577 1.258 . S
O570 Co545 1.941 . S
O570 C577 1.266 . S
H571 C573 0.959 . S
H572 C573 0.961 . S
C573 C563 1.510 . S
C573 H571 0.959 . S
C573 H572 0.961 . S
C573 H574 0.960 . S
H574 C573 0.960 . S
H575 N555 0.862 . S
O576 Co544 1.920 . S
O576 C549 1.289 . S
C577 O569 1.258 . S
C577 O570 1.266 . S
Co578 O581 1.970 . S
Co578 N595 1.989 . S
Co578 O603 1.967 . S
Co578 O610 1.920 . S
Co579 O582 1.966 . S
Co579 N588 2.022 . S
Co579 N596 1.993 . S
Co579 O604 1.941 . S
C580 O581 1.258 . S
C580 O582 1.263 . S
O581 Co578 1.970 . S
O581 C580 1.258 . S
O582 Co579 1.966 . S
O582 C580 1.263 . S
C583 O584 1.235 . S
C583 O610 1.289 . S
O584 C583 1.235 . S
C585 C587 1.400 . S
C585 N588 1.351 . S
C585 C590 1.501 . S
C586 C587 1.387 . S
C586 N589 1.341 . S
C587 C585 1.400 . S
C587 C586 1.387 . S
N588 Co579 2.022 . S
N588 C585 1.351 . S
N588 N589 1.365 . S
N589 C586 1.341 . S
N589 N588 1.365 . S
N589 H609 0.862 . S
C590 C585 1.501 . S
C590 H591 0.961 . S
C590 H592 0.961 . S
C590 H593 0.960 . S
H591 C590 0.961 . S
H592 C590 0.961 . S
H593 C590 0.960 . S
C594 N595 1.342 . S
C594 C598 1.401 . S
C594 C599 1.499 . S
N595 Co578 1.989 . S
N595 C594 1.342 . S
N595 N596 1.388 . S
N596 Co579 1.993 . S
N596 N595 1.388 . S
N596 C597 1.346 . S
C597 N596 1.346 . S
C597 C598 1.396 . S
C597 C607 1.510 . S
C598 C594 1.401 . S
C598 C597 1.396 . S
C599 C594 1.499 . S
C599 H600 0.959 . S
C599 H601 0.960 . S
C599 H602 0.961 . S
H600 C599 0.959 . S
H601 C599 0.960 . S
H602 C599 0.961 . S
O603 Co578 1.967 . S
O603 C611 1.258 . S
O604 Co579 1.941 . S
O604 C611 1.266 . S
H605 C607 0.959 . S
H606 C607 0.961 . S
C607 C597 1.510 . S
C607 H605 0.959 . S
C607 H606 0.961 . S
C607 H608 0.960 . S
H608 C607 0.960 . S
H609 N589 0.862 . S
O610 Co578 1.920 . S
O610 C583 1.289 . S
C611 O603 1.258 . S
C611 O604 1.266 . S
Co612 O615 1.970 . S
Co612 N629 1.989 . S
Co612 O637 1.967 . S
Co612 O644 1.920 . S
Co613 O616 1.966 . S
Co613 N622 2.022 . S
Co613 N630 1.993 . S
Co613 O638 1.941 . S
C614 O615 1.258 . S
C614 O616 1.263 . S
O615 Co612 1.970 . S
O615 C614 1.258 . S
O616 Co613 1.966 . S
O616 C614 1.263 . S
C617 O618 1.235 . S
C617 O644 1.289 . S
O618 C617 1.235 . S
C619 C621 1.400 . S
C619 N622 1.351 . S
C619 C624 1.501 . S
C620 C621 1.387 . S
C620 N623 1.341 . S
C621 C619 1.400 . S
C621 C620 1.387 . S
N622 Co613 2.022 . S
N622 C619 1.351 . S
N622 N623 1.365 . S
N623 C620 1.341 . S
N623 N622 1.365 . S
N623 H643 0.862 . S
C624 C619 1.501 . S
C624 H625 0.961 . S
C624 H626 0.961 . S
C624 H627 0.960 . S
H625 C624 0.961 . S
H626 C624 0.961 . S
H627 C624 0.960 . S
C628 N629 1.342 . S
C628 C632 1.401 . S
C628 C633 1.499 . S
N629 Co612 1.989 . S
N629 C628 1.342 . S
N629 N630 1.388 . S
N630 Co613 1.993 . S
N630 N629 1.388 . S
N630 C631 1.346 . S
C631 N630 1.346 . S
C631 C632 1.396 . S
C631 C641 1.510 . S
C632 C628 1.401 . S
C632 C631 1.396 . S
C633 C628 1.499 . S
C633 H634 0.959 . S
C633 H635 0.960 . S
C633 H636 0.961 . S
H634 C633 0.959 . S
H635 C633 0.960 . S
H636 C633 0.961 . S
O637 Co612 1.967 . S
O637 C645 1.258 . S
O638 Co613 1.941 . S
O638 C645 1.266 . S
H639 C641 0.959 . S
H640 C641 0.961 . S
C641 C631 1.510 . S
C641 H639 0.959 . S
C641 H640 0.961 . S
C641 H642 0.960 . S
H642 C641 0.960 . S
H643 N623 0.862 . S
O644 Co612 1.920 . S
O644 C617 1.289 . S
C645 O637 1.258 . S
C645 O638 1.266 . S
Co646 O649 1.970 . S
Co646 N663 1.989 . S
Co646 O671 1.967 . S
Co646 O678 1.920 . S
Co647 O650 1.966 . S
Co647 N656 2.022 . S
Co647 N664 1.993 . S
Co647 O672 1.941 . S
C648 O649 1.258 . S
C648 O650 1.263 . S
O649 Co646 1.970 . S
O649 C648 1.258 . S
O650 Co647 1.966 . S
O650 C648 1.263 . S
C651 O652 1.235 . S
C651 O678 1.289 . S
O652 C651 1.235 . S
C653 C655 1.400 . S
C653 N656 1.351 . S
C653 C658 1.501 . S
C654 C655 1.387 . S
C654 N657 1.341 . S
C655 C653 1.400 . S
C655 C654 1.387 . S
N656 Co647 2.022 . S
N656 C653 1.351 . S
N656 N657 1.365 . S
N657 C654 1.341 . S
N657 N656 1.365 . S
N657 H677 0.862 . S
C658 C653 1.501 . S
C658 H659 0.961 . S
C658 H660 0.961 . S
C658 H661 0.960 . S
H659 C658 0.961 . S
H660 C658 0.961 . S
H661 C658 0.960 . S
C662 N663 1.342 . S
C662 C666 1.401 . S
C662 C667 1.499 . S
N663 Co646 1.989 . S
N663 C662 1.342 . S
N663 N664 1.388 . S
N664 Co647 1.993 . S
N664 N663 1.388 . S
N664 C665 1.346 . S
C665 N664 1.346 . S
C665 C666 1.396 . S
C665 C675 1.510 . S
C666 C662 1.401 . S
C666 C665 1.396 . S
C667 C662 1.499 . S
C667 H668 0.959 . S
C667 H669 0.960 . S
C667 H670 0.961 . S
H668 C667 0.959 . S
H669 C667 0.960 . S
H670 C667 0.961 . S
O671 Co646 1.967 . S
O671 C679 1.258 . S
O672 Co647 1.941 . S
O672 C679 1.266 . S
H673 C675 0.959 . S
H674 C675 0.961 . S
C675 C665 1.510 . S
C675 H673 0.959 . S
C675 H674 0.961 . S
C675 H676 0.960 . S
H676 C675 0.960 . S
H677 N657 0.862 . S
O678 Co646 1.920 . S
O678 C651 1.289 . S
C679 O671 1.258 . S
C679 O672 1.266 . S
Co680 O683 1.970 . S
Co680 N697 1.989 . S
Co680 O705 1.967 . S
Co680 O712 1.920 . S
Co681 O684 1.966 . S
Co681 N690 2.022 . S
Co681 N698 1.993 . S
Co681 O706 1.941 . S
C682 O683 1.258 . S
C682 O684 1.263 . S
O683 Co680 1.970 . S
O683 C682 1.258 . S
O684 Co681 1.966 . S
O684 C682 1.263 . S
C685 O686 1.235 . S
C685 O712 1.289 . S
O686 C685 1.235 . S
C687 C689 1.400 . S
C687 N690 1.351 . S
C687 C692 1.501 . S
C688 C689 1.387 . S
C688 N691 1.341 . S
C689 C687 1.400 . S
C689 C688 1.387 . S
N690 Co681 2.022 . S
N690 C687 1.351 . S
N690 N691 1.365 . S
N691 C688 1.341 . S
N691 N690 1.365 . S
N691 H711 0.862 . S
C692 C687 1.501 . S
C692 H693 0.961 . S
C692 H694 0.961 . S
C692 H695 0.960 . S
H693 C692 0.961 . S
H694 C692 0.961 . S
H695 C692 0.960 . S
C696 N697 1.342 . S
C696 C700 1.401 . S
C696 C701 1.499 . S
N697 Co680 1.989 . S
N697 C696 1.342 . S
N697 N698 1.388 . S
N698 Co681 1.993 . S
N698 N697 1.388 . S
N698 C699 1.346 . S
C699 N698 1.346 . S
C699 C700 1.396 . S
C699 C709 1.510 . S
C700 C696 1.401 . S
C700 C699 1.396 . S
C701 C696 1.499 . S
C701 H702 0.959 . S
C701 H703 0.960 . S
C701 H704 0.961 . S
H702 C701 0.959 . S
H703 C701 0.960 . S
H704 C701 0.961 . S
O705 Co680 1.967 . S
O705 C713 1.258 . S
O706 Co681 1.941 . S
O706 C713 1.266 . S
H707 C709 0.959 . S
H708 C709 0.961 . S
C709 C699 1.510 . S
C709 H707 0.959 . S
C709 H708 0.961 . S
C709 H710 0.960 . S
H710 C709 0.960 . S
H711 N691 0.862 . S
O712 Co680 1.920 . S
O712 C685 1.289 . S
C713 O705 1.258 . S
C713 O706 1.266 . S
Co714 O717 1.970 . S
Co714 N731 1.989 . S
Co714 O739 1.967 . S
Co714 O746 1.920 . S
Co715 O718 1.966 . S
Co715 N724 2.022 . S
Co715 N732 1.993 . S
Co715 O740 1.941 . S
C716 O717 1.258 . S
C716 O718 1.263 . S
O717 Co714 1.970 . S
O717 C716 1.258 . S
O718 Co715 1.966 . S
O718 C716 1.263 . S
C719 O720 1.235 . S
C719 O746 1.289 . S
O720 C719 1.235 . S
C721 C723 1.400 . S
C721 N724 1.351 . S
C721 C726 1.501 . S
C722 C723 1.387 . S
C722 N725 1.341 . S
C723 C721 1.400 . S
C723 C722 1.387 . S
N724 Co715 2.022 . S
N724 C721 1.351 . S
N724 N725 1.365 . S
N725 C722 1.341 . S
N725 N724 1.365 . S
N725 H745 0.862 . S
C726 C721 1.501 . S
C726 H727 0.961 . S
C726 H728 0.961 . S
C726 H729 0.960 . S
H727 C726 0.961 . S
H728 C726 0.961 . S
H729 C726 0.960 . S
C730 N731 1.342 . S
C730 C734 1.401 . S
C730 C735 1.499 . S
N731 Co714 1.989 . S
N731 C730 1.342 . S
N731 N732 1.388 . S
N732 Co715 1.993 . S
N732 N731 1.388 . S
N732 C733 1.346 . S
C733 N732 1.346 . S
C733 C734 1.396 . S
C733 C743 1.510 . S
C734 C730 1.401 . S
C734 C733 1.396 . S
C735 C730 1.499 . S
C735 H736 0.959 . S
C735 H737 0.960 . S
C735 H738 0.961 . S
H736 C735 0.959 . S
H737 C735 0.960 . S
H738 C735 0.961 . S
O739 Co714 1.967 . S
O739 C747 1.258 . S
O740 Co715 1.941 . S
O740 C747 1.266 . S
H741 C743 0.959 . S
H742 C743 0.961 . S
C743 C733 1.510 . S
C743 H741 0.959 . S
C743 H742 0.961 . S
C743 H744 0.960 . S
H744 C743 0.960 . S
H745 N725 0.862 . S
O746 Co714 1.920 . S
O746 C719 1.289 . S
C747 O739 1.258 . S
C747 O740 1.266 . S
Co748 O751 1.970 . S
Co748 N765 1.989 . S
Co748 O773 1.967 . S
Co748 O780 1.920 . S
Co749 O752 1.966 . S
Co749 N758 2.022 . S
Co749 N766 1.993 . S
Co749 O774 1.941 . S
C750 O751 1.258 . S
C750 O752 1.263 . S
O751 Co748 1.970 . S
O751 C750 1.258 . S
O752 Co749 1.966 . S
O752 C750 1.263 . S
C753 O754 1.235 . S
C753 O780 1.289 . S
O754 C753 1.235 . S
C755 C757 1.400 . S
C755 N758 1.351 . S
C755 C760 1.501 . S
C756 C757 1.387 . S
C756 N759 1.341 . S
C757 C755 1.400 . S
C757 C756 1.387 . S
N758 Co749 2.022 . S
N758 C755 1.351 . S
N758 N759 1.365 . S
N759 C756 1.341 . S
N759 N758 1.365 . S
N759 H779 0.862 . S
C760 C755 1.501 . S
C760 H761 0.961 . S
C760 H762 0.961 . S
C760 H763 0.960 . S
H761 C760 0.961 . S
H762 C760 0.961 . S
H763 C760 0.960 . S
C764 N765 1.342 . S
C764 C768 1.401 . S
C764 C769 1.499 . S
N765 Co748 1.989 . S
N765 C764 1.342 . S
N765 N766 1.388 . S
N766 Co749 1.993 . S
N766 N765 1.388 . S
N766 C767 1.346 . S
C767 N766 1.346 . S
C767 C768 1.396 . S
C767 C777 1.510 . S
C768 C764 1.401 . S
C768 C767 1.396 . S
C769 C764 1.499 . S
C769 H770 0.959 . S
C769 H771 0.960 . S
C769 H772 0.961 . S
H770 C769 0.959 . S
H771 C769 0.960 . S
H772 C769 0.961 . S
O773 Co748 1.967 . S
O773 C781 1.258 . S
O774 Co749 1.941 . S
O774 C781 1.266 . S
H775 C777 0.959 . S
H776 C777 0.961 . S
C777 C767 1.510 . S
C777 H775 0.959 . S
C777 H776 0.961 . S
C777 H778 0.960 . S
H778 C777 0.960 . S
H779 N759 0.862 . S
O780 Co748 1.920 . S
O780 C753 1.289 . S
C781 O773 1.258 . S
C781 O774 1.266 . S
Co782 O785 1.970 . S
Co782 N799 1.989 . S
Co782 O807 1.967 . S
Co782 O814 1.920 . S
Co783 O786 1.966 . S
Co783 N792 2.022 . S
Co783 N800 1.993 . S
Co783 O808 1.941 . S
C784 O785 1.258 . S
C784 O786 1.263 . S
O785 Co782 1.970 . S
O785 C784 1.258 . S
O786 Co783 1.966 . S
O786 C784 1.263 . S
C787 O788 1.235 . S
C787 O814 1.289 . S
O788 C787 1.235 . S
C789 C791 1.400 . S
C789 N792 1.351 . S
C789 C794 1.501 . S
C790 C791 1.387 . S
C790 N793 1.341 . S
C791 C789 1.400 . S
C791 C790 1.387 . S
N792 Co783 2.022 . S
N792 C789 1.351 . S
N792 N793 1.365 . S
N793 C790 1.341 . S
N793 N792 1.365 . S
N793 H813 0.862 . S
C794 C789 1.501 . S
C794 H795 0.961 . S
C794 H796 0.961 . S
C794 H797 0.960 . S
H795 C794 0.961 . S
H796 C794 0.961 . S
H797 C794 0.960 . S
C798 N799 1.342 . S
C798 C802 1.401 . S
C798 C803 1.499 . S
N799 Co782 1.989 . S
N799 C798 1.342 . S
N799 N800 1.388 . S
N800 Co783 1.993 . S
N800 N799 1.388 . S
N800 C801 1.346 . S
C801 N800 1.346 . S
C801 C802 1.396 . S
C801 C811 1.510 . S
C802 C798 1.401 . S
C802 C801 1.396 . S
C803 C798 1.499 . S
C803 H804 0.959 . S
C803 H805 0.960 . S
C803 H806 0.961 . S
H804 C803 0.959 . S
H805 C803 0.960 . S
H806 C803 0.961 . S
O807 Co782 1.967 . S
O807 C815 1.258 . S
O808 Co783 1.941 . S
O808 C815 1.266 . S
H809 C811 0.959 . S
H810 C811 0.961 . S
C811 C801 1.510 . S
C811 H809 0.959 . S
C811 H810 0.961 . S
C811 H812 0.960 . S
H812 C811 0.960 . S
H813 N793 0.862 . S
O814 Co782 1.920 . S
O814 C787 1.289 . S
C815 O807 1.258 . S
C815 O808 1.266 . S
Co816 O819 1.970 . S
Co816 N833 1.989 . S
Co816 O841 1.967 . S
Co816 O848 1.920 . S
Co817 O820 1.966 . S
Co817 N826 2.022 . S
Co817 N834 1.993 . S
Co817 O842 1.941 . S
C818 O819 1.258 . S
C818 O820 1.263 . S
O819 Co816 1.970 . S
O819 C818 1.258 . S
O820 Co817 1.966 . S
O820 C818 1.263 . S
C821 O822 1.235 . S
C821 O848 1.289 . S
O822 C821 1.235 . S
C823 C825 1.400 . S
C823 N826 1.351 . S
C823 C828 1.501 . S
C824 C825 1.387 . S
C824 N827 1.341 . S
C825 C823 1.400 . S
C825 C824 1.387 . S
N826 Co817 2.022 . S
N826 C823 1.351 . S
N826 N827 1.365 . S
N827 C824 1.341 . S
N827 N826 1.365 . S
N827 H847 0.862 . S
C828 C823 1.501 . S
C828 H829 0.961 . S
C828 H830 0.961 . S
C828 H831 0.960 . S
H829 C828 0.961 . S
H830 C828 0.961 . S
H831 C828 0.960 . S
C832 N833 1.342 . S
C832 C836 1.401 . S
C832 C837 1.499 . S
N833 Co816 1.989 . S
N833 C832 1.342 . S
N833 N834 1.388 . S
N834 Co817 1.993 . S
N834 N833 1.388 . S
N834 C835 1.346 . S
C835 N834 1.346 . S
C835 C836 1.396 . S
C835 C845 1.510 . S
C836 C832 1.401 . S
C836 C835 1.396 . S
C837 C832 1.499 . S
C837 H838 0.959 . S
C837 H839 0.960 . S
C837 H840 0.961 . S
H838 C837 0.959 . S
H839 C837 0.960 . S
H840 C837 0.961 . S
O841 Co816 1.967 . S
O841 C849 1.258 . S
O842 Co817 1.941 . S
O842 C849 1.266 . S
H843 C845 0.959 . S
H844 C845 0.961 . S
C845 C835 1.510 . S
C845 H843 0.959 . S
C845 H844 0.961 . S
C845 H846 0.960 . S
H846 C845 0.960 . S
H847 N827 0.862 . S
O848 Co816 1.920 . S
O848 C821 1.289 . S
C849 O841 1.258 . S
C849 O842 1.266 . S
Co850 O853 1.970 . S
Co850 N867 1.989 . S
Co850 O875 1.967 . S
Co850 O882 1.920 . S
Co851 O854 1.966 . S
Co851 N860 2.022 . S
Co851 N868 1.993 . S
Co851 O876 1.941 . S
C852 O853 1.258 . S
C852 O854 1.263 . S
O853 Co850 1.970 . S
O853 C852 1.258 . S
O854 Co851 1.966 . S
O854 C852 1.263 . S
C855 O856 1.235 . S
C855 O882 1.289 . S
O856 C855 1.235 . S
C857 C859 1.400 . S
C857 N860 1.351 . S
C857 C862 1.501 . S
C858 C859 1.387 . S
C858 N861 1.341 . S
C859 C857 1.400 . S
C859 C858 1.387 . S
N860 Co851 2.022 . S
N860 C857 1.351 . S
N860 N861 1.365 . S
N861 C858 1.341 . S
N861 N860 1.365 . S
N861 H881 0.862 . S
C862 C857 1.501 . S
C862 H863 0.961 . S
C862 H864 0.961 . S
C862 H865 0.960 . S
H863 C862 0.961 . S
H864 C862 0.961 . S
H865 C862 0.960 . S
C866 N867 1.342 . S
C866 C870 1.401 . S
C866 C871 1.499 . S
N867 Co850 1.989 . S
N867 C866 1.342 . S
N867 N868 1.388 . S
N868 Co851 1.993 . S
N868 N867 1.388 . S
N868 C869 1.346 . S
C869 N868 1.346 . S
C869 C870 1.396 . S
C869 C879 1.510 . S
C870 C866 1.401 . S
C870 C869 1.396 . S
C871 C866 1.499 . S
C871 H872 0.959 . S
C871 H873 0.960 . S
C871 H874 0.961 . S
H872 C871 0.959 . S
H873 C871 0.960 . S
H874 C871 0.961 . S
O875 Co850 1.967 . S
O875 C883 1.258 . S
O876 Co851 1.941 . S
O876 C883 1.266 . S
H877 C879 0.959 . S
H878 C879 0.961 . S
C879 C869 1.510 . S
C879 H877 0.959 . S
C879 H878 0.961 . S
C879 H880 0.960 . S
H880 C879 0.960 . S
H881 N861 0.862 . S
O882 Co850 1.920 . S
O882 C855 1.289 . S
C883 O875 1.258 . S
C883 O876 1.266 . S
Co884 O887 1.970 . S
Co884 N901 1.989 . S
Co884 O909 1.967 . S
Co884 O916 1.920 . S
Co885 O888 1.966 . S
Co885 N894 2.022 . S
Co885 N902 1.993 . S
Co885 O910 1.941 . S
C886 O887 1.258 . S
C886 O888 1.263 . S
O887 Co884 1.970 . S
O887 C886 1.258 . S
O888 Co885 1.966 . S
O888 C886 1.263 . S
C889 O890 1.235 . S
C889 O916 1.289 . S
O890 C889 1.235 . S
C891 C893 1.400 . S
C891 N894 1.351 . S
C891 C896 1.501 . S
C892 C893 1.387 . S
C892 N895 1.341 . S
C893 C891 1.400 . S
C893 C892 1.387 . S
N894 Co885 2.022 . S
N894 C891 1.351 . S
N894 N895 1.365 . S
N895 C892 1.341 . S
N895 N894 1.365 . S
N895 H915 0.862 . S
C896 C891 1.501 . S
C896 H897 0.961 . S
C896 H898 0.961 . S
C896 H899 0.960 . S
H897 C896 0.961 . S
H898 C896 0.961 . S
H899 C896 0.960 . S
C900 N901 1.342 . S
C900 C904 1.401 . S
C900 C905 1.499 . S
N901 Co884 1.989 . S
N901 C900 1.342 . S
N901 N902 1.388 . S
N902 Co885 1.993 . S
N902 N901 1.388 . S
N902 C903 1.346 . S
C903 N902 1.346 . S
C903 C904 1.396 . S
C903 C913 1.510 . S
C904 C900 1.401 . S
C904 C903 1.396 . S
C905 C900 1.499 . S
C905 H906 0.959 . S
C905 H907 0.960 . S
C905 H908 0.961 . S
H906 C905 0.959 . S
H907 C905 0.960 . S
H908 C905 0.961 . S
O909 Co884 1.967 . S
O909 C917 1.258 . S
O910 Co885 1.941 . S
O910 C917 1.266 . S
H911 C913 0.959 . S
H912 C913 0.961 . S
C913 C903 1.510 . S
C913 H911 0.959 . S
C913 H912 0.961 . S
C913 H914 0.960 . S
H914 C913 0.960 . S
H915 N895 0.862 . S
O916 Co884 1.920 . S
O916 C889 1.289 . S
C917 O909 1.258 . S
C917 O910 1.266 . S
Co918 O921 1.970 . S
Co918 N935 1.989 . S
Co918 O943 1.967 . S
Co918 O950 1.920 . S
Co919 O922 1.966 . S
Co919 N928 2.022 . S
Co919 N936 1.993 . S
Co919 O944 1.941 . S
C920 O921 1.258 . S
C920 O922 1.263 . S
O921 Co918 1.970 . S
O921 C920 1.258 . S
O922 Co919 1.966 . S
O922 C920 1.263 . S
C923 O924 1.235 . S
C923 O950 1.289 . S
O924 C923 1.235 . S
C925 C927 1.400 . S
C925 N928 1.351 . S
C925 C930 1.501 . S
C926 C927 1.387 . S
C926 N929 1.341 . S
C927 C925 1.400 . S
C927 C926 1.387 . S
N928 Co919 2.022 . S
N928 C925 1.351 . S
N928 N929 1.365 . S
N929 C926 1.341 . S
N929 N928 1.365 . S
N929 H949 0.862 . S
C930 C925 1.501 . S
C930 H931 0.961 . S
C930 H932 0.961 . S
C930 H933 0.960 . S
H931 C930 0.961 . S
H932 C930 0.961 . S
H933 C930 0.960 . S
C934 N935 1.342 . S
C934 C938 1.401 . S
C934 C939 1.499 . S
N935 Co918 1.989 . S
N935 C934 1.342 . S
N935 N936 1.388 . S
N936 Co919 1.993 . S
N936 N935 1.388 . S
N936 C937 1.346 . S
C937 N936 1.346 . S
C937 C938 1.396 . S
C937 C947 1.510 . S
C938 C934 1.401 . S
C938 C937 1.396 . S
C939 C934 1.499 . S
C939 H940 0.959 . S
C939 H941 0.960 . S
C939 H942 0.961 . S
H940 C939 0.959 . S
H941 C939 0.960 . S
H942 C939 0.961 . S
O943 Co918 1.967 . S
O943 C951 1.258 . S
O944 Co919 1.941 . S
O944 C951 1.266 . S
H945 C947 0.959 . S
H946 C947 0.961 . S
C947 C937 1.510 . S
C947 H945 0.959 . S
C947 H946 0.961 . S
C947 H948 0.960 . S
H948 C947 0.960 . S
H949 N929 0.862 . S
O950 Co918 1.920 . S
O950 C923 1.289 . S
C951 O943 1.258 . S
C951 O944 1.266 . S
Co952 O955 1.970 . S
Co952 N969 1.989 . S
Co952 O977 1.967 . S
Co952 O984 1.920 . S
Co953 O956 1.966 . S
Co953 N962 2.022 . S
Co953 N970 1.993 . S
Co953 O978 1.941 . S
C954 O955 1.258 . S
C954 O956 1.263 . S
O955 Co952 1.970 . S
O955 C954 1.258 . S
O956 Co953 1.966 . S
O956 C954 1.263 . S
C957 O958 1.235 . S
C957 O984 1.289 . S
O958 C957 1.235 . S
C959 C961 1.400 . S
C959 N962 1.351 . S
C959 C964 1.501 . S
C960 C961 1.387 . S
C960 N963 1.341 . S
C961 C959 1.400 . S
C961 C960 1.387 . S
N962 Co953 2.022 . S
N962 C959 1.351 . S
N962 N963 1.365 . S
N963 C960 1.341 . S
N963 N962 1.365 . S
N963 H983 0.862 . S
C964 C959 1.501 . S
C964 H965 0.961 . S
C964 H966 0.961 . S
C964 H967 0.960 . S
H965 C964 0.961 . S
H966 C964 0.961 . S
H967 C964 0.960 . S
C968 N969 1.342 . S
C968 C972 1.401 . S
C968 C973 1.499 . S
N969 Co952 1.989 . S
N969 C968 1.342 . S
N969 N970 1.388 . S
N970 Co953 1.993 . S
N970 N969 1.388 . S
N970 C971 1.346 . S
C971 N970 1.346 . S
C971 C972 1.396 . S
C971 C981 1.510 . S
C972 C968 1.401 . S
C972 C971 1.396 . S
C973 C968 1.499 . S
C973 H974 0.959 . S
C973 H975 0.960 . S
C973 H976 0.961 . S
H974 C973 0.959 . S
H975 C973 0.960 . S
H976 C973 0.961 . S
O977 Co952 1.967 . S
O977 C985 1.258 . S
O978 Co953 1.941 . S
O978 C985 1.266 . S
H979 C981 0.959 . S
H980 C981 0.961 . S
C981 C971 1.510 . S
C981 H979 0.959 . S
C981 H980 0.961 . S
C981 H982 0.960 . S
H982 C981 0.960 . S
H983 N963 0.862 . S
O984 Co952 1.920 . S
O984 C957 1.289 . S
C985 O977 1.258 . S
C985 O978 1.266 . S
Co986 O989 1.970 . S
Co986 N1003 1.989 . S
Co986 O1011 1.967 . S
Co986 O1018 1.920 . S
Co987 O990 1.966 . S
Co987 N996 2.022 . S
Co987 N1004 1.993 . S
Co987 O1012 1.941 . S
C988 O989 1.258 . S
C988 O990 1.263 . S
O989 Co986 1.970 . S
O989 C988 1.258 . S
O990 Co987 1.966 . S
O990 C988 1.263 . S
C991 O992 1.235 . S
C991 O1018 1.289 . S
O992 C991 1.235 . S
C993 C995 1.400 . S
C993 N996 1.351 . S
C993 C998 1.501 . S
C994 C995 1.387 . S
C994 N997 1.341 . S
C995 C993 1.400 . S
C995 C994 1.387 . S
N996 Co987 2.022 . S
N996 C993 1.351 . S
N996 N997 1.365 . S
N997 C994 1.341 . S
N997 N996 1.365 . S
N997 H1017 0.862 . S
C998 C993 1.501 . S
C998 H999 0.961 . S
C998 H1000 0.961 . S
C998 H1001 0.960 . S
H999 C998 0.961 . S
H1000 C998 0.961 . S
H1001 C998 0.960 . S
C1002 N1003 1.342 . S
C1002 C1006 1.401 . S
C1002 C1007 1.499 . S
N1003 Co986 1.989 . S
N1003 C1002 1.342 . S
N1003 N1004 1.388 . S
N1004 Co987 1.993 . S
N1004 N1003 1.388 . S
N1004 C1005 1.346 . S
C1005 N1004 1.346 . S
C1005 C1006 1.396 . S
C1005 C1015 1.510 . S
C1006 C1002 1.401 . S
C1006 C1005 1.396 . S
C1007 C1002 1.499 . S
C1007 H1008 0.959 . S
C1007 H1009 0.960 . S
C1007 H1010 0.961 . S
H1008 C1007 0.959 . S
H1009 C1007 0.960 . S
H1010 C1007 0.961 . S
O1011 Co986 1.967 . S
O1011 C1019 1.258 . S
O1012 Co987 1.941 . S
O1012 C1019 1.266 . S
H1013 C1015 0.959 . S
H1014 C1015 0.961 . S
C1015 C1005 1.510 . S
C1015 H1013 0.959 . S
C1015 H1014 0.961 . S
C1015 H1016 0.960 . S
H1016 C1015 0.960 . S
H1017 N997 0.862 . S
O1018 Co986 1.920 . S
O1018 C991 1.289 . S
C1019 O1011 1.258 . S
C1019 O1012 1.266 . S
Co1020 O1023 1.970 . S
Co1020 N1037 1.989 . S
Co1020 O1045 1.967 . S
Co1020 O1052 1.920 . S
Co1021 O1024 1.966 . S
Co1021 N1030 2.022 . S
Co1021 N1038 1.993 . S
Co1021 O1046 1.941 . S
C1022 O1023 1.258 . S
C1022 O1024 1.263 . S
O1023 Co1020 1.970 . S
O1023 C1022 1.258 . S
O1024 Co1021 1.966 . S
O1024 C1022 1.263 . S
C1025 O1026 1.235 . S
C1025 O1052 1.289 . S
O1026 C1025 1.235 . S
C1027 C1029 1.400 . S
C1027 N1030 1.351 . S
C1027 C1032 1.501 . S
C1028 C1029 1.387 . S
C1028 N1031 1.341 . S
C1029 C1027 1.400 . S
C1029 C1028 1.387 . S
N1030 Co1021 2.022 . S
N1030 C1027 1.351 . S
N1030 N1031 1.365 . S
N1031 C1028 1.341 . S
N1031 N1030 1.365 . S
N1031 H1051 0.862 . S
C1032 C1027 1.501 . S
C1032 H1033 0.961 . S
C1032 H1034 0.961 . S
C1032 H1035 0.960 . S
H1033 C1032 0.961 . S
H1034 C1032 0.961 . S
H1035 C1032 0.960 . S
C1036 N1037 1.342 . S
C1036 C1040 1.401 . S
C1036 C1041 1.499 . S
N1037 Co1020 1.989 . S
N1037 C1036 1.342 . S
N1037 N1038 1.388 . S
N1038 Co1021 1.993 . S
N1038 N1037 1.388 . S
N1038 C1039 1.346 . S
C1039 N1038 1.346 . S
C1039 C1040 1.396 . S
C1039 C1049 1.510 . S
C1040 C1036 1.401 . S
C1040 C1039 1.396 . S
C1041 C1036 1.499 . S
C1041 H1042 0.959 . S
C1041 H1043 0.960 . S
C1041 H1044 0.961 . S
H1042 C1041 0.959 . S
H1043 C1041 0.960 . S
H1044 C1041 0.961 . S
O1045 Co1020 1.967 . S
O1045 C1053 1.258 . S
O1046 Co1021 1.941 . S
O1046 C1053 1.266 . S
H1047 C1049 0.959 . S
H1048 C1049 0.961 . S
C1049 C1039 1.510 . S
C1049 H1047 0.959 . S
C1049 H1048 0.961 . S
C1049 H1050 0.960 . S
H1050 C1049 0.960 . S
H1051 N1031 0.862 . S
O1052 Co1020 1.920 . S
O1052 C1025 1.289 . S
C1053 O1045 1.258 . S
C1053 O1046 1.266 . S
Co1054 O1057 1.970 . S
Co1054 N1071 1.989 . S
Co1054 O1079 1.967 . S
Co1054 O1086 1.920 . S
Co1055 O1058 1.966 . S
Co1055 N1064 2.022 . S
Co1055 N1072 1.993 . S
Co1055 O1080 1.941 . S
C1056 O1057 1.258 . S
C1056 O1058 1.263 . S
O1057 Co1054 1.970 . S
O1057 C1056 1.258 . S
O1058 Co1055 1.966 . S
O1058 C1056 1.263 . S
C1059 O1060 1.235 . S
C1059 O1086 1.289 . S
O1060 C1059 1.235 . S
C1061 C1063 1.400 . S
C1061 N1064 1.351 . S
C1061 C1066 1.501 . S
C1062 C1063 1.387 . S
C1062 N1065 1.341 . S
C1063 C1061 1.400 . S
C1063 C1062 1.387 . S
N1064 Co1055 2.022 . S
N1064 C1061 1.351 . S
N1064 N1065 1.365 . S
N1065 C1062 1.341 . S
N1065 N1064 1.365 . S
N1065 H1085 0.862 . S
C1066 C1061 1.501 . S
C1066 H1067 0.961 . S
C1066 H1068 0.961 . S
C1066 H1069 0.960 . S
H1067 C1066 0.961 . S
H1068 C1066 0.961 . S
H1069 C1066 0.960 . S
C1070 N1071 1.342 . S
C1070 C1074 1.401 . S
C1070 C1075 1.499 . S
N1071 Co1054 1.989 . S
N1071 C1070 1.342 . S
N1071 N1072 1.388 . S
N1072 Co1055 1.993 . S
N1072 N1071 1.388 . S
N1072 C1073 1.346 . S
C1073 N1072 1.346 . S
C1073 C1074 1.396 . S
C1073 C1083 1.510 . S
C1074 C1070 1.401 . S
C1074 C1073 1.396 . S
C1075 C1070 1.499 . S
C1075 H1076 0.959 . S
C1075 H1077 0.960 . S
C1075 H1078 0.961 . S
H1076 C1075 0.959 . S
H1077 C1075 0.960 . S
H1078 C1075 0.961 . S
O1079 Co1054 1.967 . S
O1079 C1087 1.258 . S
O1080 Co1055 1.941 . S
O1080 C1087 1.266 . S
H1081 C1083 0.959 . S
H1082 C1083 0.961 . S
C1083 C1073 1.510 . S
C1083 H1081 0.959 . S
C1083 H1082 0.961 . S
C1083 H1084 0.960 . S
H1084 C1083 0.960 . S
H1085 N1065 0.862 . S
O1086 Co1054 1.920 . S
O1086 C1059 1.289 . S
C1087 O1079 1.258 . S
C1087 O1080 1.266 . S
Co1088 O1091 1.970 . S
Co1088 N1105 1.989 . S
Co1088 O1113 1.967 . S
Co1088 O1120 1.920 . S
Co1089 O1092 1.966 . S
Co1089 N1098 2.022 . S
Co1089 N1106 1.993 . S
Co1089 O1114 1.941 . S
C1090 O1091 1.258 . S
C1090 O1092 1.263 . S
O1091 Co1088 1.970 . S
O1091 C1090 1.258 . S
O1092 Co1089 1.966 . S
O1092 C1090 1.263 . S
C1093 O1094 1.235 . S
C1093 O1120 1.289 . S
O1094 C1093 1.235 . S
C1095 C1097 1.400 . S
C1095 N1098 1.351 . S
C1095 C1100 1.501 . S
C1096 C1097 1.387 . S
C1096 N1099 1.341 . S
C1097 C1095 1.400 . S
C1097 C1096 1.387 . S
N1098 Co1089 2.022 . S
N1098 C1095 1.351 . S
N1098 N1099 1.365 . S
N1099 C1096 1.341 . S
N1099 N1098 1.365 . S
N1099 H1119 0.862 . S
C1100 C1095 1.501 . S
C1100 H1101 0.961 . S
C1100 H1102 0.961 . S
C1100 H1103 0.960 . S
H1101 C1100 0.961 . S
H1102 C1100 0.961 . S
H1103 C1100 0.960 . S
C1104 N1105 1.342 . S
C1104 C1108 1.401 . S
C1104 C1109 1.499 . S
N1105 Co1088 1.989 . S
N1105 C1104 1.342 . S
N1105 N1106 1.388 . S
N1106 Co1089 1.993 . S
N1106 N1105 1.388 . S
N1106 C1107 1.346 . S
C1107 N1106 1.346 . S
C1107 C1108 1.396 . S
C1107 C1117 1.510 . S
C1108 C1104 1.401 . S
C1108 C1107 1.396 . S
C1109 C1104 1.499 . S
C1109 H1110 0.959 . S
C1109 H1111 0.960 . S
C1109 H1112 0.961 . S
H1110 C1109 0.959 . S
H1111 C1109 0.960 . S
H1112 C1109 0.961 . S
O1113 Co1088 1.967 . S
O1113 C1121 1.258 . S
O1114 Co1089 1.941 . S
O1114 C1121 1.266 . S
H1115 C1117 0.959 . S
H1116 C1117 0.961 . S
C1117 C1107 1.510 . S
C1117 H1115 0.959 . S
C1117 H1116 0.961 . S
C1117 H1118 0.960 . S
H1118 C1117 0.960 . S
H1119 N1099 0.862 . S
O1120 Co1088 1.920 . S
O1120 C1093 1.289 . S
C1121 O1113 1.258 . S
C1121 O1114 1.266 . S
Co1122 O1125 1.970 . S
Co1122 N1139 1.989 . S
Co1122 O1147 1.967 . S
Co1122 O1154 1.920 . S
Co1123 O1126 1.966 . S
Co1123 N1132 2.022 . S
Co1123 N1140 1.993 . S
Co1123 O1148 1.941 . S
C1124 O1125 1.258 . S
C1124 O1126 1.263 . S
O1125 Co1122 1.970 . S
O1125 C1124 1.258 . S
O1126 Co1123 1.966 . S
O1126 C1124 1.263 . S
C1127 O1128 1.235 . S
C1127 O1154 1.289 . S
O1128 C1127 1.235 . S
C1129 C1131 1.400 . S
C1129 N1132 1.351 . S
C1129 C1134 1.501 . S
C1130 C1131 1.387 . S
C1130 N1133 1.341 . S
C1131 C1129 1.400 . S
C1131 C1130 1.387 . S
N1132 Co1123 2.022 . S
N1132 C1129 1.351 . S
N1132 N1133 1.365 . S
N1133 C1130 1.341 . S
N1133 N1132 1.365 . S
N1133 H1153 0.862 . S
C1134 C1129 1.501 . S
C1134 H1135 0.961 . S
C1134 H1136 0.961 . S
C1134 H1137 0.960 . S
H1135 C1134 0.961 . S
H1136 C1134 0.961 . S
H1137 C1134 0.960 . S
C1138 N1139 1.342 . S
C1138 C1142 1.401 . S
C1138 C1143 1.499 . S
N1139 Co1122 1.989 . S
N1139 C1138 1.342 . S
N1139 N1140 1.388 . S
N1140 Co1123 1.993 . S
N1140 N1139 1.388 . S
N1140 C1141 1.346 . S
C1141 N1140 1.346 . S
C1141 C1142 1.396 . S
C1141 C1151 1.510 . S
C1142 C1138 1.401 . S
C1142 C1141 1.396 . S
C1143 C1138 1.499 . S
C1143 H1144 0.959 . S
C1143 H1145 0.960 . S
C1143 H1146 0.961 . S
H1144 C1143 0.959 . S
H1145 C1143 0.960 . S
H1146 C1143 0.961 . S
O1147 Co1122 1.967 . S
O1147 C1155 1.258 . S
O1148 Co1123 1.941 . S
O1148 C1155 1.266 . S
H1149 C1151 0.959 . S
H1150 C1151 0.961 . S
C1151 C1141 1.510 . S
C1151 H1149 0.959 . S
C1151 H1150 0.961 . S
C1151 H1152 0.960 . S
H1152 C1151 0.960 . S
H1153 N1133 0.862 . S
O1154 Co1122 1.920 . S
O1154 C1127 1.289 . S
C1155 O1147 1.258 . S
C1155 O1148 1.266 . S
Co1156 O1159 1.970 . S
Co1156 N1173 1.989 . S
Co1156 O1181 1.967 . S
Co1156 O1188 1.920 . S
Co1157 O1160 1.966 . S
Co1157 N1166 2.022 . S
Co1157 N1174 1.993 . S
Co1157 O1182 1.941 . S
C1158 O1159 1.258 . S
C1158 O1160 1.263 . S
O1159 Co1156 1.970 . S
O1159 C1158 1.258 . S
O1160 Co1157 1.966 . S
O1160 C1158 1.263 . S
C1161 O1162 1.235 . S
C1161 O1188 1.289 . S
O1162 C1161 1.235 . S
C1163 C1165 1.400 . S
C1163 N1166 1.351 . S
C1163 C1168 1.501 . S
C1164 C1165 1.387 . S
C1164 N1167 1.341 . S
C1165 C1163 1.400 . S
C1165 C1164 1.387 . S
N1166 Co1157 2.022 . S
N1166 C1163 1.351 . S
N1166 N1167 1.365 . S
N1167 C1164 1.341 . S
N1167 N1166 1.365 . S
N1167 H1187 0.862 . S
C1168 C1163 1.501 . S
C1168 H1169 0.961 . S
C1168 H1170 0.961 . S
C1168 H1171 0.960 . S
H1169 C1168 0.961 . S
H1170 C1168 0.961 . S
H1171 C1168 0.960 . S
C1172 N1173 1.342 . S
C1172 C1176 1.401 . S
C1172 C1177 1.499 . S
N1173 Co1156 1.989 . S
N1173 C1172 1.342 . S
N1173 N1174 1.388 . S
N1174 Co1157 1.993 . S
N1174 N1173 1.388 . S
N1174 C1175 1.346 . S
C1175 N1174 1.346 . S
C1175 C1176 1.396 . S
C1175 C1185 1.510 . S
C1176 C1172 1.401 . S
C1176 C1175 1.396 . S
C1177 C1172 1.499 . S
C1177 H1178 0.959 . S
C1177 H1179 0.960 . S
C1177 H1180 0.961 . S
H1178 C1177 0.959 . S
H1179 C1177 0.960 . S
H1180 C1177 0.961 . S
O1181 Co1156 1.967 . S
O1181 C1189 1.258 . S
O1182 Co1157 1.941 . S
O1182 C1189 1.266 . S
H1183 C1185 0.959 . S
H1184 C1185 0.961 . S
C1185 C1175 1.510 . S
C1185 H1183 0.959 . S
C1185 H1184 0.961 . S
C1185 H1186 0.960 . S
H1186 C1185 0.960 . S
H1187 N1167 0.862 . S
O1188 Co1156 1.920 . S
O1188 C1161 1.289 . S
C1189 O1181 1.258 . S
C1189 O1182 1.266 . S
Co1190 O1193 1.970 . S
Co1190 N1207 1.989 . S
Co1190 O1215 1.967 . S
Co1190 O1222 1.920 . S
Co1191 O1194 1.966 . S
Co1191 N1200 2.022 . S
Co1191 N1208 1.993 . S
Co1191 O1216 1.941 . S
C1192 O1193 1.258 . S
C1192 O1194 1.263 . S
O1193 Co1190 1.970 . S
O1193 C1192 1.258 . S
O1194 Co1191 1.966 . S
O1194 C1192 1.263 . S
C1195 O1196 1.235 . S
C1195 O1222 1.289 . S
O1196 C1195 1.235 . S
C1197 C1199 1.400 . S
C1197 N1200 1.351 . S
C1197 C1202 1.501 . S
C1198 C1199 1.387 . S
C1198 N1201 1.341 . S
C1199 C1197 1.400 . S
C1199 C1198 1.387 . S
N1200 Co1191 2.022 . S
N1200 C1197 1.351 . S
N1200 N1201 1.365 . S
N1201 C1198 1.341 . S
N1201 N1200 1.365 . S
N1201 H1221 0.862 . S
C1202 C1197 1.501 . S
C1202 H1203 0.961 . S
C1202 H1204 0.961 . S
C1202 H1205 0.960 . S
H1203 C1202 0.961 . S
H1204 C1202 0.961 . S
H1205 C1202 0.960 . S
C1206 N1207 1.342 . S
C1206 C1210 1.401 . S
C1206 C1211 1.499 . S
N1207 Co1190 1.989 . S
N1207 C1206 1.342 . S
N1207 N1208 1.388 . S
N1208 Co1191 1.993 . S
N1208 N1207 1.388 . S
N1208 C1209 1.346 . S
C1209 N1208 1.346 . S
C1209 C1210 1.396 . S
C1209 C1219 1.510 . S
C1210 C1206 1.401 . S
C1210 C1209 1.396 . S
C1211 C1206 1.499 . S
C1211 H1212 0.959 . S
C1211 H1213 0.960 . S
C1211 H1214 0.961 . S
H1212 C1211 0.959 . S
H1213 C1211 0.960 . S
H1214 C1211 0.961 . S
O1215 Co1190 1.967 . S
O1215 C1223 1.258 . S
O1216 Co1191 1.941 . S
O1216 C1223 1.266 . S
H1217 C1219 0.959 . S
H1218 C1219 0.961 . S
C1219 C1209 1.510 . S
C1219 H1217 0.959 . S
C1219 H1218 0.961 . S
C1219 H1220 0.960 . S
H1220 C1219 0.960 . S
H1221 N1201 0.862 . S
O1222 Co1190 1.920 . S
O1222 C1195 1.289 . S
C1223 O1215 1.258 . S
C1223 O1216 1.266 . S
H1224 C1230 0.930 . S
H1225 C1233 0.930 . S
H1226 C1234 0.930 . S
H1227 C1235 0.930 . S
H1228 C1238 0.930 . S
H1229 C1239 0.930 . S
C1230 H1224 0.930 . S
C1230 C1231 1.355 1_554 S
C1230 C1232 1.415 . S
C1231 C1230 1.355 1_556 S
C1231 C1233 1.419 . S
C1232 C1230 1.415 . S
C1232 C1237 1.425 . S
C1232 C1239 1.409 . S
C1233 H1225 0.930 . S
C1233 C1231 1.419 . S
C1233 C1234 1.362 . S
C1234 H1226 0.930 . S
C1234 C1233 1.362 . S
C1234 C1237 1.409 1_556 S
C1235 H1227 0.930 . S
C1235 C1236 1.355 . S
C1235 C1237 1.415 . S
C1236 C1235 1.355 . S
C1236 C1238 1.419 . S
C1237 C1232 1.425 . S
C1237 C1234 1.409 1_554 S
C1237 C1235 1.415 . S
C1238 H1228 0.930 . S
C1238 C1236 1.419 . S
C1238 C1239 1.362 . S
C1239 H1229 0.930 . S
C1239 C1232 1.409 . S
C1239 C1238 1.362 . S
H1240 C1246 0.930 1_556 S
H1241 C1249 0.930 . S
H1242 C1250 0.930 . S
H1243 C1251 0.930 . S
H1244 C1254 0.930 . S
H1245 C1255 0.930 . S
C1246 H1240 0.930 1_554 S
C1246 C1247 1.355 . S
C1246 C1248 1.415 1_554 S
C1247 C1246 1.355 . S
C1247 C1249 1.419 . S
C1248 C1246 1.415 1_556 S
C1248 C1253 1.425 1_556 S
C1248 C1255 1.409 . S
C1249 H1241 0.930 . S
C1249 C1247 1.419 . S
C1249 C1250 1.362 . S
C1250 H1242 0.930 . S
C1250 C1249 1.362 . S
C1250 C1253 1.409 . S
C1251 H1243 0.930 . S
C1251 C1252 1.355 1_554 S
C1251 C1253 1.415 . S
C1252 C1251 1.355 1_556 S
C1252 C1254 1.419 . S
C1253 C1248 1.425 1_554 S
C1253 C1250 1.409 . S
C1253 C1251 1.415 . S
C1254 H1244 0.930 . S
C1254 C1252 1.419 . S
C1254 C1255 1.362 . S
C1255 H1245 0.930 . S
C1255 C1248 1.409 . S
C1255 C1254 1.362 . S
H1256 C1262 0.930 . S
H1257 C1265 0.930 . S
H1258 C1266 0.930 . S
H1259 C1267 0.930 . S
H1260 C1270 0.930 . S
H1261 C1271 0.930 . S
C1262 H1256 0.930 . S
C1262 C1263 1.355 1_554 S
C1262 C1264 1.415 . S
C1263 C1262 1.355 1_556 S
C1263 C1265 1.419 . S
C1264 C1262 1.415 . S
C1264 C1269 1.425 1_554 S
C1264 C1271 1.409 . S
C1265 H1257 0.930 . S
C1265 C1263 1.419 . S
C1265 C1266 1.362 . S
C1266 H1258 0.930 . S
C1266 C1265 1.362 . S
C1266 C1269 1.409 . S
C1267 H1259 0.930 . S
C1267 C1268 1.355 1_556 S
C1267 C1269 1.415 . S
C1268 C1267 1.355 1_554 S
C1268 C1270 1.419 . S
C1269 C1264 1.425 1_556 S
C1269 C1266 1.409 . S
C1269 C1267 1.415 . S
C1270 H1260 0.930 . S
C1270 C1268 1.419 . S
C1270 C1271 1.362 . S
C1271 H1261 0.930 . S
C1271 C1264 1.409 . S
C1271 C1270 1.362 . S
H1272 C1278 0.930 . S
H1273 C1281 0.930 . S
H1274 C1282 0.930 . S
H1275 C1283 0.930 . S
H1276 C1286 0.930 . S
H1277 C1287 0.930 . S
C1278 H1272 0.930 . S
C1278 C1279 1.355 . S
C1278 C1280 1.415 . S
C1279 C1278 1.355 . S
C1279 C1281 1.419 . S
C1280 C1278 1.415 . S
C1280 C1285 1.425 . S
C1280 C1287 1.409 . S
C1281 H1273 0.930 . S
C1281 C1279 1.419 . S
C1281 C1282 1.362 . S
C1282 H1274 0.930 . S
C1282 C1281 1.362 . S
C1282 C1285 1.409 . S
C1283 H1275 0.930 . S
C1283 C1284 1.355 . S
C1283 C1285 1.415 . S
C1284 C1283 1.355 . S
C1284 C1286 1.419 . S
C1285 C1280 1.425 . S
C1285 C1282 1.409 . S
C1285 C1283 1.415 . S
C1286 H1276 0.930 . S
C1286 C1284 1.419 . S
C1286 C1287 1.362 . S
C1287 H1277 0.930 . S
C1287 C1280 1.409 . S
C1287 C1286 1.362 . S
H1288 C1294 0.930 . S
H1289 C1297 0.930 . S
H1290 C1298 0.930 . S
H1291 C1299 0.930 . S
H1292 C1302 0.930 . S
H1293 C1303 0.930 . S
C1294 H1288 0.930 . S
C1294 C1295 1.355 . S
C1294 C1296 1.415 . S
C1295 C1294 1.355 . S
C1295 C1297 1.419 . S
C1296 C1294 1.415 . S
C1296 C1301 1.425 . S
C1296 C1303 1.409 . S
C1297 H1289 0.930 . S
C1297 C1295 1.419 . S
C1297 C1298 1.362 . S
C1298 H1290 0.930 . S
C1298 C1297 1.362 . S
C1298 C1301 1.409 . S
C1299 H1291 0.930 . S
C1299 C1300 1.355 . S
C1299 C1301 1.415 . S
C1300 C1299 1.355 . S
C1300 C1302 1.419 . S
C1301 C1296 1.425 . S
C1301 C1298 1.409 . S
C1301 C1299 1.415 . S
C1302 H1292 0.930 . S
C1302 C1300 1.419 . S
C1302 C1303 1.362 . S
C1303 H1293 0.930 . S
C1303 C1296 1.409 . S
C1303 C1302 1.362 . S
H1304 C1310 0.930 . S
H1305 C1313 0.930 . S
H1306 C1314 0.930 . S
H1307 C1315 0.930 . S
H1308 C1318 0.930 . S
H1309 C1319 0.930 . S
C1310 H1304 0.930 . S
C1310 C1311 1.355 . S
C1310 C1312 1.415 . S
C1311 C1310 1.355 . S
C1311 C1313 1.419 . S
C1312 C1310 1.415 . S
C1312 C1317 1.425 . S
C1312 C1319 1.409 . S
C1313 H1305 0.930 . S
C1313 C1311 1.419 . S
C1313 C1314 1.362 . S
C1314 H1306 0.930 . S
C1314 C1313 1.362 . S
C1314 C1317 1.409 . S
C1315 H1307 0.930 . S
C1315 C1316 1.355 . S
C1315 C1317 1.415 . S
C1316 C1315 1.355 . S
C1316 C1318 1.419 . S
C1317 C1312 1.425 . S
C1317 C1314 1.409 . S
C1317 C1315 1.415 . S
C1318 H1308 0.930 . S
C1318 C1316 1.419 . S
C1318 C1319 1.362 . S
C1319 H1309 0.930 . S
C1319 C1312 1.409 . S
C1319 C1318 1.362 . S
H1320 C1326 0.930 . S
H1321 C1329 0.930 . S
H1322 C1330 0.930 . S
H1323 C1331 0.930 . S
H1324 C1334 0.930 . S
H1325 C1335 0.930 . S
C1326 H1320 0.930 . S
C1326 C1327 1.355 . S
C1326 C1328 1.415 . S
C1327 C1326 1.355 . S
C1327 C1329 1.419 . S
C1328 C1326 1.415 . S
C1328 C1333 1.425 . S
C1328 C1335 1.409 1_556 S
C1329 H1321 0.930 . S
C1329 C1327 1.419 . S
C1329 C1330 1.362 . S
C1330 H1322 0.930 . S
C1330 C1329 1.362 . S
C1330 C1333 1.409 . S
C1331 H1323 0.930 . S
C1331 C1332 1.355 1_556 S
C1331 C1333 1.415 . S
C1332 C1331 1.355 1_554 S
C1332 C1334 1.419 . S
C1333 C1328 1.425 . S
C1333 C1330 1.409 . S
C1333 C1331 1.415 . S
C1334 H1324 0.930 . S
C1334 C1332 1.419 . S
C1334 C1335 1.362 . S
C1335 H1325 0.930 . S
C1335 C1328 1.409 1_554 S
C1335 C1334 1.362 . S
H1336 C1342 0.930 . S
H1337 C1345 0.930 . S
H1338 C1346 0.930 . S
H1339 C1347 0.930 . S
H1340 C1350 0.931 . S
H1341 C1351 0.930 . S
C1342 H1336 0.930 . S
C1342 C1343 1.355 . S
C1342 C1344 1.415 . S
C1343 C1342 1.355 . S
C1343 C1345 1.419 . S
C1344 C1342 1.415 . S
C1344 C1349 1.429 . S
C1344 C1351 1.409 . S
C1345 H1337 0.930 . S
C1345 C1343 1.419 . S
C1345 C1346 1.363 1_556 S
C1346 H1338 0.930 . S
C1346 C1345 1.363 1_554 S
C1346 C1349 1.409 1_554 S
C1347 H1339 0.930 . S
C1347 C1348 1.355 . S
C1347 C1349 1.412 1_554 S
C1348 C1347 1.355 . S
C1348 C1350 1.419 1_554 S
C1349 C1344 1.429 . S
C1349 C1346 1.409 1_556 S
C1349 C1347 1.412 1_556 S
C1350 H1340 0.931 . S
C1350 C1348 1.419 1_556 S
C1350 C1351 1.362 . S
C1351 H1341 0.930 . S
C1351 C1344 1.409 . S
C1351 C1350 1.362 . S
H1352 C1358 0.942 . S
H1353 C1361 0.930 . S
H1354 C1362 0.930 . S
H1355 C1363 0.930 . S
H1356 C1366 0.930 . S
H1357 C1367 0.930 . S
C1358 H1352 0.942 . S
C1358 C1359 1.340 1_554 S
C1358 C1360 1.418 . S
C1359 C1358 1.340 1_556 S
C1359 C1361 1.419 . S
C1360 C1358 1.418 . S
C1360 C1365 1.425 1_554 S
C1360 C1367 1.409 . S
C1361 H1353 0.930 . S
C1361 C1359 1.419 . S
C1361 C1362 1.362 . S
C1362 H1354 0.930 . S
C1362 C1361 1.362 . S
C1362 C1365 1.409 . S
C1363 H1355 0.930 . S
C1363 C1364 1.355 1_556 S
C1363 C1365 1.415 . S
C1364 C1363 1.355 1_554 S
C1364 C1366 1.419 . S
C1365 C1360 1.425 1_556 S
C1365 C1362 1.409 . S
C1365 C1363 1.415 . S
C1366 H1356 0.930 . S
C1366 C1364 1.419 . S
C1366 C1367 1.362 . S
C1367 H1357 0.930 . S
C1367 C1360 1.409 . S
C1367 C1366 1.362 . S
H1368 C1374 0.930 . S
H1369 C1377 0.930 . S
H1370 C1378 0.930 . S
H1371 C1379 0.930 . S
H1372 C1382 0.930 . S
H1373 C1383 0.930 . S
C1374 H1368 0.930 . S
C1374 C1375 1.355 . S
C1374 C1376 1.415 . S
C1375 C1374 1.355 . S
C1375 C1377 1.419 . S
C1376 C1374 1.415 . S
C1376 C1381 1.425 . S
C1376 C1383 1.409 . S
C1377 H1369 0.930 . S
C1377 C1375 1.419 . S
C1377 C1378 1.362 . S
C1378 H1370 0.930 . S
C1378 C1377 1.362 . S
C1378 C1381 1.409 . S
C1379 H1371 0.930 . S
C1379 C1380 1.355 . S
C1379 C1381 1.415 . S
C1380 C1379 1.355 . S
C1380 C1382 1.419 . S
C1381 C1376 1.425 . S
C1381 C1378 1.409 . S
C1381 C1379 1.415 . S
C1382 H1372 0.930 . S
C1382 C1380 1.419 . S
C1382 C1383 1.362 . S
C1383 H1373 0.930 . S
C1383 C1376 1.409 . S
C1383 C1382 1.362 . S
H1384 C1390 0.930 . S
H1385 C1393 0.930 . S
H1386 C1394 0.930 . S
H1387 C1395 0.930 . S
H1388 C1398 0.930 . S
H1389 C1399 0.930 . S
C1390 H1384 0.930 . S
C1390 C1391 1.355 . S
C1390 C1392 1.415 . S
C1391 C1390 1.355 . S
C1391 C1393 1.419 . S
C1392 C1390 1.415 . S
C1392 C1397 1.425 . S
C1392 C1399 1.409 . S
C1393 H1385 0.930 . S
C1393 C1391 1.419 . S
C1393 C1394 1.362 . S
C1394 H1386 0.930 . S
C1394 C1393 1.362 . S
C1394 C1397 1.409 . S
C1395 H1387 0.930 . S
C1395 C1396 1.355 . S
C1395 C1397 1.415 . S
C1396 C1395 1.355 . S
C1396 C1398 1.419 . S
C1397 C1392 1.425 . S
C1397 C1394 1.409 . S
C1397 C1395 1.415 . S
C1398 H1388 0.930 . S
C1398 C1396 1.419 . S
C1398 C1399 1.362 . S
C1399 H1389 0.930 . S
C1399 C1392 1.409 . S
C1399 C1398 1.362 . S
H1400 C1406 0.930 . S
H1401 C1409 0.930 . S
H1402 C1410 0.930 . S
H1403 C1411 0.930 . S
H1404 C1414 0.930 . S
H1405 C1415 0.930 . S
C1406 H1400 0.930 . S
C1406 C1407 1.355 . S
C1406 C1408 1.415 . S
C1407 C1406 1.355 . S
C1407 C1409 1.419 . S
C1408 C1406 1.415 . S
C1408 C1413 1.425 . S
C1408 C1415 1.409 . S
C1409 H1401 0.930 . S
C1409 C1407 1.419 . S
C1409 C1410 1.362 . S
C1410 H1402 0.930 . S
C1410 C1409 1.362 . S
C1410 C1413 1.409 . S
C1411 H1403 0.930 . S
C1411 C1412 1.355 . S
C1411 C1413 1.415 . S
C1412 C1411 1.355 . S
C1412 C1414 1.419 . S
C1413 C1408 1.425 . S
C1413 C1410 1.409 . S
C1413 C1411 1.415 . S
C1414 H1404 0.930 . S
C1414 C1412 1.419 . S
C1414 C1415 1.362 . S
C1415 H1405 0.930 . S
C1415 C1408 1.409 . S
C1415 C1414 1.362 . S
H1416 C1422 0.930 . S
H1417 C1425 0.930 . S
H1418 C1426 0.930 . S
H1419 C1427 0.930 . S
H1420 C1430 0.930 . S
H1421 C1431 0.930 . S
C1422 H1416 0.930 . S
C1422 C1423 1.355 . S
C1422 C1424 1.415 . S
C1423 C1422 1.355 . S
C1423 C1425 1.419 . S
C1424 C1422 1.415 . S
C1424 C1429 1.425 . S
C1424 C1431 1.409 . S
C1425 H1417 0.930 . S
C1425 C1423 1.419 . S
C1425 C1426 1.362 . S
C1426 H1418 0.930 . S
C1426 C1425 1.362 . S
C1426 C1429 1.409 . S
C1427 H1419 0.930 . S
C1427 C1428 1.355 . S
C1427 C1429 1.415 . S
C1428 C1427 1.355 . S
C1428 C1430 1.419 . S
C1429 C1424 1.425 . S
C1429 C1426 1.409 . S
C1429 C1427 1.415 . S
C1430 H1420 0.930 . S
C1430 C1428 1.419 . S
C1430 C1431 1.362 . S
C1431 H1421 0.930 . S
C1431 C1424 1.409 . S
C1431 C1430 1.362 . S
H1432 C1438 0.930 . S
H1433 C1441 0.930 . S
H1434 C1442 0.930 . S
H1435 C1443 0.930 . S
H1436 C1446 0.930 . S
H1437 C1447 0.930 . S
C1438 H1432 0.930 . S
C1438 C1439 1.355 . S
C1438 C1440 1.415 . S
C1439 C1438 1.355 . S
C1439 C1441 1.419 . S
C1440 C1438 1.415 . S
C1440 C1445 1.425 . S
C1440 C1447 1.409 . S
C1441 H1433 0.930 . S
C1441 C1439 1.419 . S
C1441 C1442 1.362 . S
C1442 H1434 0.930 . S
C1442 C1441 1.362 . S
C1442 C1445 1.409 . S
C1443 H1435 0.930 . S
C1443 C1444 1.355 . S
C1443 C1445 1.415 . S
C1444 C1443 1.355 . S
C1444 C1446 1.419 . S
C1445 C1440 1.425 . S
C1445 C1442 1.409 . S
C1445 C1443 1.415 . S
C1446 H1436 0.930 . S
C1446 C1444 1.419 . S
C1446 C1447 1.362 . S
C1447 H1437 0.930 . S
C1447 C1440 1.409 . S
C1447 C1446 1.362 . S
H1448 C1454 0.930 . S
H1449 C1457 0.930 . S
H1450 C1458 0.930 . S
H1451 C1459 0.930 . S
H1452 C1462 0.930 . S
H1453 C1463 0.930 . S
C1454 H1448 0.930 . S
C1454 C1455 1.355 . S
C1454 C1456 1.415 . S
C1455 C1454 1.355 . S
C1455 C1457 1.419 . S
C1456 C1454 1.415 . S
C1456 C1461 1.425 . S
C1456 C1463 1.409 . S
C1457 H1449 0.930 . S
C1457 C1455 1.419 . S
C1457 C1458 1.362 . S
C1458 H1450 0.930 . S
C1458 C1457 1.362 . S
C1458 C1461 1.409 . S
C1459 H1451 0.930 . S
C1459 C1460 1.355 . S
C1459 C1461 1.415 . S
C1460 C1459 1.355 . S
C1460 C1462 1.419 . S
C1461 C1456 1.425 . S
C1461 C1458 1.409 . S
C1461 C1459 1.415 . S
C1462 H1452 0.930 . S
C1462 C1460 1.419 . S
C1462 C1463 1.362 . S
C1463 H1453 0.930 . S
C1463 C1456 1.409 . S
C1463 C1462 1.362 . S
H1464 C1470 0.930 . S
H1465 C1473 0.930 . S
H1466 C1474 0.930 . S
H1467 C1475 0.930 . S
H1468 C1478 0.930 . S
H1469 C1479 0.930 . S
C1470 H1464 0.930 . S
C1470 C1471 1.355 . S
C1470 C1472 1.415 . S
C1471 C1470 1.355 . S
C1471 C1473 1.419 . S
C1472 C1470 1.415 . S
C1472 C1477 1.425 . S
C1472 C1479 1.409 . S
C1473 H1465 0.930 . S
C1473 C1471 1.419 . S
C1473 C1474 1.362 . S
C1474 H1466 0.930 . S
C1474 C1473 1.362 . S
C1474 C1477 1.409 . S
C1475 H1467 0.930 . S
C1475 C1476 1.355 . S
C1475 C1477 1.415 . S
C1476 C1475 1.355 . S
C1476 C1478 1.419 . S
C1477 C1472 1.425 . S
C1477 C1474 1.409 . S
C1477 C1475 1.415 . S
C1478 H1468 0.930 . S
C1478 C1476 1.419 . S
C1478 C1479 1.362 . S
C1479 H1469 0.930 . S
C1479 C1472 1.409 . S
C1479 C1478 1.362 . S
H1480 C1486 0.930 . S
H1481 C1489 0.930 . S
H1482 C1490 0.930 . S
H1483 C1491 0.930 . S
H1484 C1494 0.930 . S
H1485 C1495 0.930 . S
C1486 H1480 0.930 . S
C1486 C1487 1.355 . S
C1486 C1488 1.415 . S
C1487 C1486 1.355 . S
C1487 C1489 1.419 . S
C1488 C1486 1.415 . S
C1488 C1493 1.425 . S
C1488 C1495 1.409 . S
C1489 H1481 0.930 . S
C1489 C1487 1.419 . S
C1489 C1490 1.362 . S
C1490 H1482 0.930 . S
C1490 C1489 1.362 . S
C1490 C1493 1.409 . S
C1491 H1483 0.930 . S
C1491 C1492 1.355 . S
C1491 C1493 1.415 . S
C1492 C1491 1.355 . S
C1492 C1494 1.419 . S
C1493 C1488 1.425 . S
C1493 C1490 1.409 . S
C1493 C1491 1.415 . S
C1494 H1484 0.930 . S
C1494 C1492 1.419 . S
C1494 C1495 1.362 . S
C1495 H1485 0.930 . S
C1495 C1488 1.409 . S
C1495 C1494 1.362 . S
H1496 C1502 0.930 . S
H1497 C1505 0.930 . S
H1498 C1506 0.930 . S
H1499 C1507 0.930 . S
H1500 C1510 0.930 . S
H1501 C1511 0.930 . S
C1502 H1496 0.930 . S
C1502 C1503 1.355 . S
C1502 C1504 1.415 . S
C1503 C1502 1.355 . S
C1503 C1505 1.419 . S
C1504 C1502 1.415 . S
C1504 C1509 1.425 . S
C1504 C1511 1.409 . S
C1505 H1497 0.930 . S
C1505 C1503 1.419 . S
C1505 C1506 1.362 . S
C1506 H1498 0.930 . S
C1506 C1505 1.362 . S
C1506 C1509 1.409 . S
C1507 H1499 0.930 . S
C1507 C1508 1.355 . S
C1507 C1509 1.415 . S
C1508 C1507 1.355 . S
C1508 C1510 1.419 . S
C1509 C1504 1.425 . S
C1509 C1506 1.409 . S
C1509 C1507 1.415 . S
C1510 H1500 0.930 . S
C1510 C1508 1.419 . S
C1510 C1511 1.362 . S
C1511 H1501 0.930 . S
C1511 C1504 1.409 . S
C1511 C1510 1.362 . S
H1512 C1518 0.930 . S
H1513 C1521 0.930 . S
H1514 C1522 0.930 . S
H1515 C1523 0.930 . S
H1516 C1526 0.930 . S
H1517 C1527 0.930 . S
C1518 H1512 0.930 . S
C1518 C1519 1.355 . S
C1518 C1520 1.415 . S
C1519 C1518 1.355 . S
C1519 C1521 1.419 . S
C1520 C1518 1.415 . S
C1520 C1525 1.425 . S
C1520 C1527 1.409 . S
C1521 H1513 0.930 . S
C1521 C1519 1.419 . S
C1521 C1522 1.362 . S
C1522 H1514 0.930 . S
C1522 C1521 1.362 . S
C1522 C1525 1.409 . S
C1523 H1515 0.930 . S
C1523 C1524 1.355 . S
C1523 C1525 1.415 . S
C1524 C1523 1.355 . S
C1524 C1526 1.419 . S
C1525 C1520 1.425 . S
C1525 C1522 1.409 . S
C1525 C1523 1.415 . S
C1526 H1516 0.930 . S
C1526 C1524 1.419 . S
C1526 C1527 1.362 . S
C1527 H1517 0.930 . S
C1527 C1520 1.409 . S
C1527 C1526 1.362 . S
H1528 C1534 0.930 . S
H1529 C1537 0.930 . S
H1530 C1538 0.930 . S
H1531 C1539 0.930 . S
H1532 C1542 0.930 . S
H1533 C1543 0.930 . S
C1534 H1528 0.930 . S
C1534 C1535 1.355 . S
C1534 C1536 1.415 . S
C1535 C1534 1.355 . S
C1535 C1537 1.419 . S
C1536 C1534 1.415 . S
C1536 C1541 1.425 . S
C1536 C1543 1.409 . S
C1537 H1529 0.930 . S
C1537 C1535 1.419 . S
C1537 C1538 1.362 . S
C1538 H1530 0.930 . S
C1538 C1537 1.362 . S
C1538 C1541 1.409 . S
C1539 H1531 0.930 . S
C1539 C1540 1.355 . S
C1539 C1541 1.415 . S
C1540 C1539 1.355 . S
C1540 C1542 1.419 . S
C1541 C1536 1.425 . S
C1541 C1538 1.409 . S
C1541 C1539 1.415 . S
C1542 H1532 0.930 . S
C1542 C1540 1.419 . S
C1542 C1543 1.362 . S
C1543 H1533 0.930 . S
C1543 C1536 1.409 . S
C1543 C1542 1.362 . S
H1544 C1550 0.930 . S
H1545 C1553 0.930 . S
H1546 C1554 0.930 . S
H1547 C1555 0.930 . S
H1548 C1558 0.930 . S
H1549 C1559 0.930 . S
C1550 H1544 0.930 . S
C1550 C1551 1.355 . S
C1550 C1552 1.415 . S
C1551 C1550 1.355 . S
C1551 C1553 1.419 . S
C1552 C1550 1.415 . S
C1552 C1557 1.425 . S
C1552 C1559 1.409 . S
C1553 H1545 0.930 . S
C1553 C1551 1.419 . S
C1553 C1554 1.362 . S
C1554 H1546 0.930 . S
C1554 C1553 1.362 . S
C1554 C1557 1.409 . S
C1555 H1547 0.930 . S
C1555 C1556 1.355 . S
C1555 C1557 1.415 . S
C1556 C1555 1.355 . S
C1556 C1558 1.419 . S
C1557 C1552 1.425 . S
C1557 C1554 1.409 . S
C1557 C1555 1.415 . S
C1558 H1548 0.930 . S
C1558 C1556 1.419 . S
C1558 C1559 1.362 . S
C1559 H1549 0.930 . S
C1559 C1552 1.409 . S
C1559 C1558 1.362 . S
H1560 C1566 0.930 . S
H1561 C1569 0.930 . S
H1562 C1570 0.930 . S
H1563 C1571 0.930 . S
H1564 C1574 0.930 . S
H1565 C1575 0.930 . S
C1566 H1560 0.930 . S
C1566 C1567 1.355 . S
C1566 C1568 1.415 . S
C1567 C1566 1.355 . S
C1567 C1569 1.419 . S
C1568 C1566 1.415 . S
C1568 C1573 1.425 . S
C1568 C1575 1.409 . S
C1569 H1561 0.930 . S
C1569 C1567 1.419 . S
C1569 C1570 1.362 . S
C1570 H1562 0.930 . S
C1570 C1569 1.362 . S
C1570 C1573 1.409 . S
C1571 H1563 0.930 . S
C1571 C1572 1.355 . S
C1571 C1573 1.415 . S
C1572 C1571 1.355 . S
C1572 C1574 1.419 . S
C1573 C1568 1.425 . S
C1573 C1570 1.409 . S
C1573 C1571 1.415 . S
C1574 H1564 0.930 . S
C1574 C1572 1.419 . S
C1574 C1575 1.362 . S
C1575 H1565 0.930 . S
C1575 C1568 1.409 . S
C1575 C1574 1.362 . S
H1576 C1582 0.930 . S
H1577 C1585 0.930 . S
H1578 C1586 0.930 . S
H1579 C1587 0.930 . S
H1580 C1590 0.930 . S
H1581 C1591 0.930 . S
C1582 H1576 0.930 . S
C1582 C1583 1.355 . S
C1582 C1584 1.415 . S
C1583 C1582 1.355 . S
C1583 C1585 1.419 . S
C1584 C1582 1.415 . S
C1584 C1589 1.425 . S
C1584 C1591 1.409 . S
C1585 H1577 0.930 . S
C1585 C1583 1.419 . S
C1585 C1586 1.362 . S
C1586 H1578 0.930 . S
C1586 C1585 1.362 . S
C1586 C1589 1.409 . S
C1587 H1579 0.930 . S
C1587 C1588 1.355 . S
C1587 C1589 1.415 . S
C1588 C1587 1.355 . S
C1588 C1590 1.419 . S
C1589 C1584 1.425 . S
C1589 C1586 1.409 . S
C1589 C1587 1.415 . S
C1590 H1580 0.930 . S
C1590 C1588 1.419 . S
C1590 C1591 1.362 . S
C1591 H1581 0.930 . S
C1591 C1584 1.409 . S
C1591 C1590 1.362 . S
H1592 C1598 0.930 . S
H1593 C1601 0.930 . S
H1594 C1602 0.930 . S
H1595 C1603 0.930 . S
H1596 C1606 0.930 . S
H1597 C1607 0.930 . S
C1598 H1592 0.930 . S
C1598 C1599 1.355 . S
C1598 C1600 1.415 . S
C1599 C1598 1.355 . S
C1599 C1601 1.419 . S
C1600 C1598 1.415 . S
C1600 C1605 1.425 . S
C1600 C1607 1.409 . S
C1601 H1593 0.930 . S
C1601 C1599 1.419 . S
C1601 C1602 1.362 . S
C1602 H1594 0.930 . S
C1602 C1601 1.362 . S
C1602 C1605 1.409 . S
C1603 H1595 0.930 . S
C1603 C1604 1.355 . S
C1603 C1605 1.415 . S
C1604 C1603 1.355 . S
C1604 C1606 1.419 . S
C1605 C1600 1.425 . S
C1605 C1602 1.409 . S
C1605 C1603 1.415 . S
C1606 H1596 0.930 . S
C1606 C1604 1.419 . S
C1606 C1607 1.362 . S
C1607 H1597 0.930 . S
C1607 C1600 1.409 . S
C1607 C1606 1.362 . S
H1608 C1614 0.930 . S
H1609 C1617 0.930 . S
H1610 C1618 0.930 . S
H1611 C1619 0.930 . S
H1612 C1622 0.930 . S
H1613 C1623 0.930 . S
C1614 H1608 0.930 . S
C1614 C1615 1.355 . S
C1614 C1616 1.415 . S
C1615 C1614 1.355 . S
C1615 C1617 1.419 . S
C1616 C1614 1.415 . S
C1616 C1621 1.425 . S
C1616 C1623 1.409 . S
C1617 H1609 0.930 . S
C1617 C1615 1.419 . S
C1617 C1618 1.362 . S
C1618 H1610 0.930 . S
C1618 C1617 1.362 . S
C1618 C1621 1.409 . S
C1619 H1611 0.930 . S
C1619 C1620 1.355 . S
C1619 C1621 1.415 . S
C1620 C1619 1.355 . S
C1620 C1622 1.419 . S
C1621 C1616 1.425 . S
C1621 C1618 1.409 . S
C1621 C1619 1.415 . S
C1622 H1612 0.930 . S
C1622 C1620 1.419 . S
C1622 C1623 1.362 . S
C1623 H1613 0.930 . S
C1623 C1616 1.409 . S
C1623 C1622 1.362 . S
H1624 C1630 0.930 . S
H1625 C1633 0.930 . S
H1626 C1634 0.930 . S
H1627 C1635 0.930 . S
H1628 C1638 0.930 . S
H1629 C1639 0.930 . S
C1630 H1624 0.930 . S
C1630 C1631 1.355 . S
C1630 C1632 1.415 . S
C1631 C1630 1.355 . S
C1631 C1633 1.419 . S
C1632 C1630 1.415 . S
C1632 C1637 1.425 . S
C1632 C1639 1.409 . S
C1633 H1625 0.930 . S
C1633 C1631 1.419 . S
C1633 C1634 1.362 . S
C1634 H1626 0.930 . S
C1634 C1633 1.362 . S
C1634 C1637 1.409 . S
C1635 H1627 0.930 . S
C1635 C1636 1.355 . S
C1635 C1637 1.415 . S
C1636 C1635 1.355 . S
C1636 C1638 1.419 . S
C1637 C1632 1.425 . S
C1637 C1634 1.409 . S
C1637 C1635 1.415 . S
C1638 H1628 0.930 . S
C1638 C1636 1.419 . S
C1638 C1639 1.362 . S
C1639 H1629 0.930 . S
C1639 C1632 1.409 . S
C1639 C1638 1.362 . S
H1640 C1646 0.930 . S
H1641 C1649 0.930 . S
H1642 C1650 0.930 . S
H1643 C1651 0.930 . S
H1644 C1654 0.930 . S
H1645 C1655 0.930 . S
C1646 H1640 0.930 . S
C1646 C1647 1.355 . S
C1646 C1648 1.415 . S
C1647 C1646 1.355 . S
C1647 C1649 1.419 . S
C1648 C1646 1.415 . S
C1648 C1653 1.425 . S
C1648 C1655 1.409 . S
C1649 H1641 0.930 . S
C1649 C1647 1.419 . S
C1649 C1650 1.362 . S
C1650 H1642 0.930 . S
C1650 C1649 1.362 . S
C1650 C1653 1.409 . S
C1651 H1643 0.930 . S
C1651 C1652 1.355 . S
C1651 C1653 1.415 . S
C1652 C1651 1.355 . S
C1652 C1654 1.419 . S
C1653 C1648 1.425 . S
C1653 C1650 1.409 . S
C1653 C1651 1.415 . S
C1654 H1644 0.930 . S
C1654 C1652 1.419 . S
C1654 C1655 1.362 . S
C1655 H1645 0.930 . S
C1655 C1648 1.409 . S
C1655 C1654 1.362 . S
H1656 C1662 0.930 . S
H1657 C1665 0.930 . S
H1658 C1666 0.930 . S
H1659 C1667 0.930 . S
H1660 C1670 0.930 . S
H1661 C1671 0.930 . S
C1662 H1656 0.930 . S
C1662 C1663 1.355 . S
C1662 C1664 1.415 . S
C1663 C1662 1.355 . S
C1663 C1665 1.419 . S
C1664 C1662 1.415 . S
C1664 C1669 1.425 . S
C1664 C1671 1.409 . S
C1665 H1657 0.930 . S
C1665 C1663 1.419 . S
C1665 C1666 1.362 . S
C1666 H1658 0.930 . S
C1666 C1665 1.362 . S
C1666 C1669 1.409 . S
C1667 H1659 0.930 . S
C1667 C1668 1.355 . S
C1667 C1669 1.415 . S
C1668 C1667 1.355 . S
C1668 C1670 1.419 . S
C1669 C1664 1.425 . S
C1669 C1666 1.409 . S
C1669 C1667 1.415 . S
C1670 H1660 0.930 . S
C1670 C1668 1.419 . S
C1670 C1671 1.362 . S
C1671 H1661 0.930 . S
C1671 C1664 1.409 . S
C1671 C1670 1.362 . S
H1672 C1678 0.930 . S
H1673 C1681 0.930 . S
H1674 C1682 0.930 . S
H1675 C1683 0.930 . S
H1676 C1686 0.930 . S
H1677 C1687 0.930 . S
C1678 H1672 0.930 . S
C1678 C1679 1.355 . S
C1678 C1680 1.415 . S
C1679 C1678 1.355 . S
C1679 C1681 1.419 . S
C1680 C1678 1.415 . S
C1680 C1685 1.425 . S
C1680 C1687 1.409 . S
C1681 H1673 0.930 . S
C1681 C1679 1.419 . S
C1681 C1682 1.362 . S
C1682 H1674 0.930 . S
C1682 C1681 1.362 . S
C1682 C1685 1.409 . S
C1683 H1675 0.930 . S
C1683 C1684 1.355 . S
C1683 C1685 1.415 . S
C1684 C1683 1.355 . S
C1684 C1686 1.419 . S
C1685 C1680 1.425 . S
C1685 C1682 1.409 . S
C1685 C1683 1.415 . S
C1686 H1676 0.930 . S
C1686 C1684 1.419 . S
C1686 C1687 1.362 . S
C1687 H1677 0.930 . S
C1687 C1680 1.409 . S
C1687 C1686 1.362 . S
H1688 C1694 0.930 . S
H1689 C1697 0.930 . S
H1690 C1698 0.930 . S
H1691 C1699 0.930 . S
H1692 C1702 0.930 . S
H1693 C1703 0.930 . S
C1694 H1688 0.930 . S
C1694 C1695 1.355 . S
C1694 C1696 1.415 . S
C1695 C1694 1.355 . S
C1695 C1697 1.419 . S
C1696 C1694 1.415 . S
C1696 C1701 1.425 . S
C1696 C1703 1.409 . S
C1697 H1689 0.930 . S
C1697 C1695 1.419 . S
C1697 C1698 1.362 . S
C1698 H1690 0.930 . S
C1698 C1697 1.362 . S
C1698 C1701 1.409 . S
C1699 H1691 0.930 . S
C1699 C1700 1.355 . S
C1699 C1701 1.415 . S
C1700 C1699 1.355 . S
C1700 C1702 1.419 . S
C1701 C1696 1.425 . S
C1701 C1698 1.409 . S
C1701 C1699 1.415 . S
C1702 H1692 0.930 . S
C1702 C1700 1.419 . S
C1702 C1703 1.362 . S
C1703 H1693 0.930 . S
C1703 C1696 1.409 . S
C1703 C1702 1.362 . S
H1704 C1710 0.930 . S
H1705 C1713 0.930 . S
H1706 C1714 0.930 . S
H1707 C1715 0.930 . S
H1708 C1718 0.930 . S
H1709 C1719 0.930 . S
C1710 H1704 0.930 . S
C1710 C1711 1.355 . S
C1710 C1712 1.415 . S
C1711 C1710 1.355 . S
C1711 C1713 1.419 . S
C1712 C1710 1.415 . S
C1712 C1717 1.425 . S
C1712 C1719 1.409 . S
C1713 H1705 0.930 . S
C1713 C1711 1.419 . S
C1713 C1714 1.362 . S
C1714 H1706 0.930 . S
C1714 C1713 1.362 . S
C1714 C1717 1.409 . S
C1715 H1707 0.930 . S
C1715 C1716 1.355 . S
C1715 C1717 1.415 . S
C1716 C1715 1.355 . S
C1716 C1718 1.419 . S
C1717 C1712 1.425 . S
C1717 C1714 1.409 . S
C1717 C1715 1.415 . S
C1718 H1708 0.930 . S
C1718 C1716 1.419 . S
C1718 C1719 1.362 . S
C1719 H1709 0.930 . S
C1719 C1712 1.409 . S
C1719 C1718 1.362 . S
H1720 C1726 0.930 . S
H1721 C1729 0.930 . S
H1722 C1730 0.930 . S
H1723 C1731 0.930 . S
H1724 C1734 0.930 . S
H1725 C1735 0.930 . S
C1726 H1720 0.930 . S
C1726 C1727 1.355 . S
C1726 C1728 1.415 . S
C1727 C1726 1.355 . S
C1727 C1729 1.419 . S
C1728 C1726 1.415 . S
C1728 C1733 1.425 . S
C1728 C1735 1.409 . S
C1729 H1721 0.930 . S
C1729 C1727 1.419 . S
C1729 C1730 1.362 . S
C1730 H1722 0.930 . S
C1730 C1729 1.362 . S
C1730 C1733 1.409 . S
C1731 H1723 0.930 . S
C1731 C1732 1.355 . S
C1731 C1733 1.415 . S
C1732 C1731 1.355 . S
C1732 C1734 1.419 . S
C1733 C1728 1.425 . S
C1733 C1730 1.409 . S
C1733 C1731 1.415 . S
C1734 H1724 0.930 . S
C1734 C1732 1.419 . S
C1734 C1735 1.362 . S
C1735 H1725 0.930 . S
C1735 C1728 1.409 . S
C1735 C1734 1.362 . S
H1736 C1742 0.930 . S
H1737 C1745 0.930 . S
H1738 C1746 0.930 . S
H1739 C1747 0.930 . S
H1740 C1750 0.930 . S
H1741 C1751 0.930 . S
C1742 H1736 0.930 . S
C1742 C1743 1.355 . S
C1742 C1744 1.415 . S
C1743 C1742 1.355 . S
C1743 C1745 1.419 . S
C1744 C1742 1.415 . S
C1744 C1749 1.425 . S
C1744 C1751 1.409 . S
C1745 H1737 0.930 . S
C1745 C1743 1.419 . S
C1745 C1746 1.362 . S
C1746 H1738 0.930 . S
C1746 C1745 1.362 . S
C1746 C1749 1.409 . S
C1747 H1739 0.930 . S
C1747 C1748 1.355 . S
C1747 C1749 1.415 . S
C1748 C1747 1.355 . S
C1748 C1750 1.419 . S
C1749 C1744 1.425 . S
C1749 C1746 1.409 . S
C1749 C1747 1.415 . S
C1750 H1740 0.930 . S
C1750 C1748 1.419 . S
C1750 C1751 1.362 . S
C1751 H1741 0.930 . S
C1751 C1744 1.409 . S
C1751 C1750 1.362 . S
H1752 C1758 0.930 . S
H1753 C1761 0.930 . S
H1754 C1762 0.930 . S
H1755 C1763 0.930 . S
H1756 C1766 0.930 . S
H1757 C1767 0.930 . S
C1758 H1752 0.930 . S
C1758 C1759 1.355 . S
C1758 C1760 1.415 . S
C1759 C1758 1.355 . S
C1759 C1761 1.419 . S
C1760 C1758 1.415 . S
C1760 C1765 1.425 . S
C1760 C1767 1.409 . S
C1761 H1753 0.930 . S
C1761 C1759 1.419 . S
C1761 C1762 1.362 . S
C1762 H1754 0.930 . S
C1762 C1761 1.362 . S
C1762 C1765 1.409 . S
C1763 H1755 0.930 . S
C1763 C1764 1.355 . S
C1763 C1765 1.415 . S
C1764 C1763 1.355 . S
C1764 C1766 1.419 . S
C1765 C1760 1.425 . S
C1765 C1762 1.409 . S
C1765 C1763 1.415 . S
C1766 H1756 0.930 . S
C1766 C1764 1.419 . S
C1766 C1767 1.362 . S
C1767 H1757 0.930 . S
C1767 C1760 1.409 . S
C1767 C1766 1.362 . S
H1768 C1774 0.930 . S
H1769 C1777 0.930 . S
H1770 C1778 0.930 . S
H1771 C1779 0.930 . S
H1772 C1782 0.930 . S
H1773 C1783 0.930 . S
C1774 H1768 0.930 . S
C1774 C1775 1.355 . S
C1774 C1776 1.415 . S
C1775 C1774 1.355 . S
C1775 C1777 1.419 . S
C1776 C1774 1.415 . S
C1776 C1781 1.425 . S
C1776 C1783 1.409 . S
C1777 H1769 0.930 . S
C1777 C1775 1.419 . S
C1777 C1778 1.362 . S
C1778 H1770 0.930 . S
C1778 C1777 1.362 . S
C1778 C1781 1.409 . S
C1779 H1771 0.930 . S
C1779 C1780 1.355 . S
C1779 C1781 1.415 . S
C1780 C1779 1.355 . S
C1780 C1782 1.419 . S
C1781 C1776 1.425 . S
C1781 C1778 1.409 . S
C1781 C1779 1.415 . S
C1782 H1772 0.930 . S
C1782 C1780 1.419 . S
C1782 C1783 1.362 . S
C1783 H1773 0.930 . S
C1783 C1776 1.409 . S
C1783 C1782 1.362 . S
H1784 C1790 0.930 . S
H1785 C1793 0.930 . S
H1786 C1794 0.930 . S
H1787 C1795 0.930 . S
H1788 C1798 0.930 . S
H1789 C1799 0.930 . S
C1790 H1784 0.930 . S
C1790 C1791 1.355 . S
C1790 C1792 1.415 . S
C1791 C1790 1.355 . S
C1791 C1793 1.419 . S
C1792 C1790 1.415 . S
C1792 C1797 1.425 . S
C1792 C1799 1.409 . S
C1793 H1785 0.930 . S
C1793 C1791 1.419 . S
C1793 C1794 1.362 . S
C1794 H1786 0.930 . S
C1794 C1793 1.362 . S
C1794 C1797 1.409 . S
C1795 H1787 0.930 . S
C1795 C1796 1.355 . S
C1795 C1797 1.415 . S
C1796 C1795 1.355 . S
C1796 C1798 1.419 . S
C1797 C1792 1.425 . S
C1797 C1794 1.409 . S
C1797 C1795 1.415 . S
C1798 H1788 0.930 . S
C1798 C1796 1.419 . S
C1798 C1799 1.362 . S
C1799 H1789 0.930 . S
C1799 C1792 1.409 . S
C1799 C1798 1.362 . S
H1800 C1806 0.930 . S
H1801 C1809 0.930 . S
H1802 C1810 0.930 . S
H1803 C1811 0.930 . S
H1804 C1814 0.930 . S
H1805 C1815 0.930 . S
C1806 H1800 0.930 . S
C1806 C1807 1.355 . S
C1806 C1808 1.415 . S
C1807 C1806 1.355 . S
C1807 C1809 1.419 . S
C1808 C1806 1.415 . S
C1808 C1813 1.425 . S
C1808 C1815 1.409 . S
C1809 H1801 0.930 . S
C1809 C1807 1.419 . S
C1809 C1810 1.362 . S
C1810 H1802 0.930 . S
C1810 C1809 1.362 . S
C1810 C1813 1.409 . S
C1811 H1803 0.930 . S
C1811 C1812 1.355 . S
C1811 C1813 1.415 . S
C1812 C1811 1.355 . S
C1812 C1814 1.419 . S
C1813 C1808 1.425 . S
C1813 C1810 1.409 . S
C1813 C1811 1.415 . S
C1814 H1804 0.930 . S
C1814 C1812 1.419 . S
C1814 C1815 1.362 . S
C1815 H1805 0.930 . S
C1815 C1808 1.409 . S
C1815 C1814 1.362 . S
H1816 C1822 0.930 . S
H1817 C1825 0.930 . S
H1818 C1826 0.930 . S
H1819 C1827 0.930 . S
H1820 C1830 0.930 . S
H1821 C1831 0.930 . S
C1822 H1816 0.930 . S
C1822 C1823 1.355 . S
C1822 C1824 1.415 . S
C1823 C1822 1.355 . S
C1823 C1825 1.419 1_545 S
C1824 C1822 1.415 . S
C1824 C1829 1.425 1_545 S
C1824 C1831 1.409 . S
C1825 H1817 0.930 . S
C1825 C1823 1.419 1_565 S
C1825 C1826 1.362 . S
C1826 H1818 0.930 . S
C1826 C1825 1.362 . S
C1826 C1829 1.409 . S
C1827 H1819 0.930 . S
C1827 C1828 1.355 . S
C1827 C1829 1.415 . S
C1828 C1827 1.355 . S
C1828 C1830 1.419 1_565 S
C1829 C1824 1.425 1_565 S
C1829 C1826 1.409 . S
C1829 C1827 1.415 . S
C1830 H1820 0.930 . S
C1830 C1828 1.419 1_545 S
C1830 C1831 1.362 . S
C1831 H1821 0.930 . S
C1831 C1824 1.409 . S
C1831 C1830 1.362 . S
H1832 C1838 0.930 . S
H1833 C1841 0.930 . S
H1834 C1842 0.945 1_455 S
H1835 C1843 0.930 . S
H1836 C1846 0.930 . S
H1837 C1847 0.945 1_655 S
C1838 H1832 0.930 . S
C1838 C1839 1.355 . S
C1838 C1840 1.415 . S
C1839 C1838 1.355 . S
C1839 C1841 1.419 . S
C1840 C1838 1.415 . S
C1840 C1845 1.425 1_655 S
C1840 C1847 1.387 1_655 S
C1841 H1833 0.930 . S
C1841 C1839 1.419 . S
C1841 C1842 1.372 . S
C1842 H1834 0.945 1_655 S
C1842 C1841 1.372 . S
C1842 C1845 1.387 1_655 S
C1843 H1835 0.930 . S
C1843 C1844 1.355 . S
C1843 C1845 1.415 . S
C1844 C1843 1.355 . S
C1844 C1846 1.419 . S
C1845 C1840 1.425 1_455 S
C1845 C1842 1.387 1_455 S
C1845 C1843 1.415 . S
C1846 H1836 0.930 . S
C1846 C1844 1.419 . S
C1846 C1847 1.372 . S
C1847 H1837 0.945 1_455 S
C1847 C1840 1.387 1_455 S
C1847 C1846 1.372 . S
H1848 C1854 0.930 . S
H1849 C1857 0.930 . S
H1850 C1858 0.930 . S
H1851 C1859 0.930 . S
H1852 C1862 0.930 . S
H1853 C1863 0.930 . S
C1854 H1848 0.930 . S
C1854 C1855 1.355 . S
C1854 C1856 1.415 . S
C1855 C1854 1.355 . S
C1855 C1857 1.419 . S
C1856 C1854 1.415 . S
C1856 C1861 1.425 . S
C1856 C1863 1.409 . S
C1857 H1849 0.930 . S
C1857 C1855 1.419 . S
C1857 C1858 1.362 . S
C1858 H1850 0.930 . S
C1858 C1857 1.362 . S
C1858 C1861 1.409 . S
C1859 H1851 0.930 . S
C1859 C1860 1.355 . S
C1859 C1861 1.415 . S
C1860 C1859 1.355 . S
C1860 C1862 1.419 . S
C1861 C1856 1.425 . S
C1861 C1858 1.409 . S
C1861 C1859 1.415 . S
C1862 H1852 0.930 . S
C1862 C1860 1.419 . S
C1862 C1863 1.362 . S
C1863 H1853 0.930 . S
C1863 C1856 1.409 . S
C1863 C1862 1.362 . S
H1864 C1870 0.930 . S
H1865 C1873 0.930 . S
H1866 C1874 0.930 . S
H1867 C1875 0.930 . S
H1868 C1878 0.930 . S
H1869 C1879 0.930 . S
C1870 H1864 0.930 . S
C1870 C1871 1.355 . S
C1870 C1872 1.415 . S
C1871 C1870 1.355 . S
C1871 C1873 1.419 1_545 S
C1872 C1870 1.415 . S
C1872 C1877 1.425 1_545 S
C1872 C1879 1.409 . S
C1873 H1865 0.930 . S
C1873 C1871 1.419 1_565 S
C1873 C1874 1.362 . S
C1874 H1866 0.930 . S
C1874 C1873 1.362 . S
C1874 C1877 1.409 . S
C1875 H1867 0.930 . S
C1875 C1876 1.355 . S
C1875 C1877 1.415 . S
C1876 C1875 1.355 . S
C1876 C1878 1.419 1_565 S
C1877 C1872 1.425 1_565 S
C1877 C1874 1.409 . S
C1877 C1875 1.415 . S
C1878 H1868 0.930 . S
C1878 C1876 1.419 1_545 S
C1878 C1879 1.362 . S
C1879 H1869 0.930 . S
C1879 C1872 1.409 . S
C1879 C1878 1.362 . S
H1880 C1886 0.962 . S
H1881 C1889 0.930 . S
H1882 C1890 0.930 . S
H1883 C1891 0.962 . S
H1884 C1894 0.930 . S
H1885 C1895 0.930 . S
C1886 H1880 0.962 . S
C1886 C1887 1.318 1_455 S
C1886 C1888 1.420 . S
C1887 C1886 1.318 1_655 S
C1887 C1889 1.419 . S
C1888 C1886 1.420 . S
C1888 C1893 1.425 1_455 S
C1888 C1895 1.409 . S
C1889 H1881 0.930 . S
C1889 C1887 1.419 . S
C1889 C1890 1.362 . S
C1890 H1882 0.930 . S
C1890 C1889 1.362 . S
C1890 C1893 1.409 . S
C1891 H1883 0.962 . S
C1891 C1892 1.318 1_655 S
C1891 C1893 1.420 . S
C1892 C1891 1.318 1_455 S
C1892 C1894 1.419 . S
C1893 C1888 1.425 1_655 S
C1893 C1890 1.409 . S
C1893 C1891 1.420 . S
C1894 H1884 0.930 . S
C1894 C1892 1.419 . S
C1894 C1895 1.362 . S
C1895 H1885 0.930 . S
C1895 C1888 1.409 . S
C1895 C1894 1.362 . S
H1896 C1902 0.930 . S
H1897 C1905 0.930 . S
H1898 C1906 0.930 . S
H1899 C1907 0.930 . S
H1900 C1910 0.930 . S
H1901 C1911 0.930 . S
C1902 H1896 0.930 . S
C1902 C1903 1.355 . S
C1902 C1904 1.415 . S
C1903 C1902 1.355 . S
C1903 C1905 1.419 . S
C1904 C1902 1.415 . S
C1904 C1909 1.425 . S
C1904 C1911 1.409 . S
C1905 H1897 0.930 . S
C1905 C1903 1.419 . S
C1905 C1906 1.362 . S
C1906 H1898 0.930 . S
C1906 C1905 1.362 . S
C1906 C1909 1.409 . S
C1907 H1899 0.930 . S
C1907 C1908 1.355 . S
C1907 C1909 1.415 . S
C1908 C1907 1.355 . S
C1908 C1910 1.419 . S
C1909 C1904 1.425 . S
C1909 C1906 1.409 . S
C1909 C1907 1.415 . S
C1910 H1900 0.930 . S
C1910 C1908 1.419 . S
C1910 C1911 1.362 . S
C1911 H1901 0.930 . S
C1911 C1904 1.409 . S
C1911 C1910 1.362 . S
H1912 C1918 0.930 . S
H1913 C1921 0.930 . S
H1914 C1922 0.930 . S
H1915 C1923 0.930 . S
H1916 C1926 0.930 . S
H1917 C1927 0.930 . S
C1918 H1912 0.930 . S
C1918 C1919 1.355 . S
C1918 C1920 1.415 . S
C1919 C1918 1.355 . S
C1919 C1921 1.419 . S
C1920 C1918 1.415 . S
C1920 C1925 1.425 . S
C1920 C1927 1.409 . S
C1921 H1913 0.930 . S
C1921 C1919 1.419 . S
C1921 C1922 1.362 . S
C1922 H1914 0.930 . S
C1922 C1921 1.362 . S
C1922 C1925 1.409 . S
C1923 H1915 0.930 . S
C1923 C1924 1.355 . S
C1923 C1925 1.415 . S
C1924 C1923 1.355 . S
C1924 C1926 1.419 . S
C1925 C1920 1.425 . S
C1925 C1922 1.409 . S
C1925 C1923 1.415 . S
C1926 H1916 0.930 . S
C1926 C1924 1.419 . S
C1926 C1927 1.362 . S
C1927 H1917 0.930 . S
C1927 C1920 1.409 . S
C1927 C1926 1.362 . S
H1928 C1934 0.930 . S
H1929 C1937 0.930 . S
H1930 C1938 0.930 . S
H1931 C1939 0.930 . S
H1932 C1942 0.930 . S
H1933 C1943 0.930 . S
C1934 H1928 0.930 . S
C1934 C1935 1.355 . S
C1934 C1936 1.415 . S
C1935 C1934 1.355 . S
C1935 C1937 1.419 . S
C1936 C1934 1.415 . S
C1936 C1941 1.425 . S
C1936 C1943 1.409 . S
C1937 H1929 0.930 . S
C1937 C1935 1.419 . S
C1937 C1938 1.362 . S
C1938 H1930 0.930 . S
C1938 C1937 1.362 . S
C1938 C1941 1.409 . S
C1939 H1931 0.930 . S
C1939 C1940 1.355 . S
C1939 C1941 1.415 . S
C1940 C1939 1.355 . S
C1940 C1942 1.419 . S
C1941 C1936 1.425 . S
C1941 C1938 1.409 . S
C1941 C1939 1.415 . S
C1942 H1932 0.930 . S
C1942 C1940 1.419 . S
C1942 C1943 1.362 . S
C1943 H1933 0.930 . S
C1943 C1936 1.409 . S
C1943 C1942 1.362 . S
H1944 C1950 0.930 . S
H1945 C1953 0.930 . S
H1946 C1954 0.930 . S
H1947 C1955 0.930 . S
H1948 C1958 0.930 . S
H1949 C1959 0.930 . S
C1950 H1944 0.930 . S
C1950 C1951 1.355 . S
C1950 C1952 1.415 . S
C1951 C1950 1.355 . S
C1951 C1953 1.419 . S
C1952 C1950 1.415 . S
C1952 C1957 1.425 . S
C1952 C1959 1.409 . S
C1953 H1945 0.930 . S
C1953 C1951 1.419 . S
C1953 C1954 1.362 . S
C1954 H1946 0.930 . S
C1954 C1953 1.362 . S
C1954 C1957 1.409 . S
C1955 H1947 0.930 . S
C1955 C1956 1.355 . S
C1955 C1957 1.415 . S
C1956 C1955 1.355 . S
C1956 C1958 1.419 . S
C1957 C1952 1.425 . S
C1957 C1954 1.409 . S
C1957 C1955 1.415 . S
C1958 H1948 0.930 . S
C1958 C1956 1.419 . S
C1958 C1959 1.362 . S
C1959 H1949 0.930 . S
C1959 C1952 1.409 . S
C1959 C1958 1.362 . S
H1960 C1966 0.930 . S
H1961 C1969 0.930 . S
H1962 C1970 0.930 . S
H1963 C1971 0.930 . S
H1964 C1974 0.930 . S
H1965 C1975 0.930 . S
C1966 H1960 0.930 . S
C1966 C1967 1.355 . S
C1966 C1968 1.415 . S
C1967 C1966 1.355 . S
C1967 C1969 1.419 . S
C1968 C1966 1.415 . S
C1968 C1973 1.425 . S
C1968 C1975 1.409 . S
C1969 H1961 0.930 . S
C1969 C1967 1.419 . S
C1969 C1970 1.362 . S
C1970 H1962 0.930 . S
C1970 C1969 1.362 . S
C1970 C1973 1.409 . S
C1971 H1963 0.930 . S
C1971 C1972 1.355 . S
C1971 C1973 1.415 . S
C1972 C1971 1.355 . S
C1972 C1974 1.419 . S
C1973 C1968 1.425 . S
C1973 C1970 1.409 . S
C1973 C1971 1.415 . S
C1974 H1964 0.930 . S
C1974 C1972 1.419 . S
C1974 C1975 1.362 . S
C1975 H1965 0.930 . S
C1975 C1968 1.409 . S
C1975 C1974 1.362 . S
H1976 C1982 0.930 . S
H1977 C1985 0.930 . S
H1978 C1986 0.930 . S
H1979 C1987 0.930 . S
H1980 C1990 0.930 . S
H1981 C1991 0.930 . S
C1982 H1976 0.930 . S
C1982 C1983 1.355 . S
C1982 C1984 1.415 . S
C1983 C1982 1.355 . S
C1983 C1985 1.419 . S
C1984 C1982 1.415 . S
C1984 C1989 1.425 . S
C1984 C1991 1.409 . S
C1985 H1977 0.930 . S
C1985 C1983 1.419 . S
C1985 C1986 1.362 . S
C1986 H1978 0.930 . S
C1986 C1985 1.362 . S
C1986 C1989 1.409 . S
C1987 H1979 0.930 . S
C1987 C1988 1.355 . S
C1987 C1989 1.415 . S
C1988 C1987 1.355 . S
C1988 C1990 1.419 . S
C1989 C1984 1.425 . S
C1989 C1986 1.409 . S
C1989 C1987 1.415 . S
C1990 H1980 0.930 . S
C1990 C1988 1.419 . S
C1990 C1991 1.362 . S
C1991 H1981 0.930 . S
C1991 C1984 1.409 . S
C1991 C1990 1.362 . S
H1992 C1998 0.930 . S
H1993 C2001 0.911 1_554 S
H1994 C2002 0.930 . S
H1995 C2003 0.930 . S
H1996 C2006 0.930 . S
H1997 C2007 0.930 . S
C1998 H1992 0.930 . S
C1998 C1999 1.355 . S
C1998 C2000 1.415 . S
C1999 C1998 1.355 . S
C1999 C2001 1.419 . S
C2000 C1998 1.415 . S
C2000 C2005 1.425 . S
C2000 C2007 1.409 . S
C2001 H1993 0.911 1_556 S
C2001 C1999 1.419 . S
C2001 C2002 1.362 . S
C2002 H1994 0.930 . S
C2002 C2001 1.362 . S
C2002 C2005 1.409 . S
C2003 H1995 0.930 . S
C2003 C2004 1.355 . S
C2003 C2005 1.415 . S
C2004 C2003 1.355 . S
C2004 C2006 1.419 . S
C2005 C2000 1.425 . S
C2005 C2002 1.409 . S
C2005 C2003 1.415 . S
C2006 H1996 0.930 . S
C2006 C2004 1.419 . S
C2006 C2007 1.362 . S
C2007 H1997 0.930 . S
C2007 C2000 1.409 . S
C2007 C2006 1.362 . S
H2008 C2014 0.930 . S
H2009 C2017 0.930 1_554 S
H2010 C2018 0.930 . S
H2011 C2019 0.930 . S
H2012 C2022 0.930 . S
H2013 C2023 0.930 . S
C2014 H2008 0.930 . S
C2014 C2015 1.355 . S
C2014 C2016 1.415 . S
C2015 C2014 1.355 . S
C2015 C2017 1.419 . S
C2016 C2014 1.415 . S
C2016 C2021 1.425 . S
C2016 C2023 1.409 . S
C2017 H2009 0.930 1_556 S
C2017 C2015 1.419 . S
C2017 C2018 1.362 . S
C2018 H2010 0.930 . S
C2018 C2017 1.362 . S
C2018 C2021 1.409 . S
C2019 H2011 0.930 . S
C2019 C2020 1.355 . S
C2019 C2021 1.415 . S
C2020 C2019 1.355 . S
C2020 C2022 1.419 . S
C2021 C2016 1.425 . S
C2021 C2018 1.409 . S
C2021 C2019 1.415 . S
C2022 H2012 0.930 . S
C2022 C2020 1.419 . S
C2022 C2023 1.362 . S
C2023 H2013 0.930 . S
C2023 C2016 1.409 . S
C2023 C2022 1.362 . S
H2024 C2030 0.930 . S
H2025 C2033 0.930 1_554 S
H2026 C2034 0.930 . S
H2027 C2035 0.930 . S
H2028 C2038 0.930 . S
H2029 C2039 0.930 . S
C2030 H2024 0.930 . S
C2030 C2031 1.355 . S
C2030 C2032 1.415 . S
C2031 C2030 1.355 . S
C2031 C2033 1.419 . S
C2032 C2030 1.415 . S
C2032 C2037 1.425 . S
C2032 C2039 1.409 . S
C2033 H2025 0.930 1_556 S
C2033 C2031 1.419 . S
C2033 C2034 1.362 . S
C2034 H2026 0.930 . S
C2034 C2033 1.362 . S
C2034 C2037 1.409 . S
C2035 H2027 0.930 . S
C2035 C2036 1.355 . S
C2035 C2037 1.415 . S
C2036 C2035 1.355 . S
C2036 C2038 1.419 . S
C2037 C2032 1.425 . S
C2037 C2034 1.409 . S
C2037 C2035 1.415 . S
C2038 H2028 0.930 . S
C2038 C2036 1.419 . S
C2038 C2039 1.362 . S
C2039 H2029 0.930 . S
C2039 C2032 1.409 . S
C2039 C2038 1.362 . S
H2040 C2046 0.930 . S
H2041 C2049 0.930 . S
H2042 C2050 0.930 . S
H2043 C2051 0.930 . S
H2044 C2054 0.930 . S
H2045 C2055 0.930 . S
C2046 H2040 0.930 . S
C2046 C2047 1.355 . S
C2046 C2048 1.415 . S
C2047 C2046 1.355 . S
C2047 C2049 1.419 . S
C2048 C2046 1.415 . S
C2048 C2053 1.425 . S
C2048 C2055 1.409 . S
C2049 H2041 0.930 . S
C2049 C2047 1.419 . S
C2049 C2050 1.362 . S
C2050 H2042 0.930 . S
C2050 C2049 1.362 . S
C2050 C2053 1.409 . S
C2051 H2043 0.930 . S
C2051 C2052 1.355 . S
C2051 C2053 1.415 . S
C2052 C2051 1.355 . S
C2052 C2054 1.419 . S
C2053 C2048 1.425 . S
C2053 C2050 1.409 . S
C2053 C2051 1.415 . S
C2054 H2044 0.930 . S
C2054 C2052 1.419 . S
C2054 C2055 1.362 . S
C2055 H2045 0.930 . S
C2055 C2048 1.409 . S
C2055 C2054 1.362 . S
H2056 C2062 0.930 . S
H2057 C2065 0.930 . S
H2058 C2066 0.930 . S
H2059 C2067 0.930 . S
H2060 C2070 0.930 . S
H2061 C2071 0.930 . S
C2062 H2056 0.930 . S
C2062 C2063 1.355 . S
C2062 C2064 1.415 . S
C2063 C2062 1.355 . S
C2063 C2065 1.419 . S
C2064 C2062 1.415 . S
C2064 C2069 1.425 . S
C2064 C2071 1.409 . S
C2065 H2057 0.930 . S
C2065 C2063 1.419 . S
C2065 C2066 1.362 . S
C2066 H2058 0.930 . S
C2066 C2065 1.362 . S
C2066 C2069 1.409 . S
C2067 H2059 0.930 . S
C2067 C2068 1.355 . S
C2067 C2069 1.415 . S
C2068 C2067 1.355 . S
C2068 C2070 1.419 . S
C2069 C2064 1.425 . S
C2069 C2066 1.409 . S
C2069 C2067 1.415 . S
C2070 H2060 0.930 . S
C2070 C2068 1.419 . S
C2070 C2071 1.362 . S
C2071 H2061 0.930 . S
C2071 C2064 1.409 . S
C2071 C2070 1.362 . S
H2072 C2078 0.930 . S
H2073 C2081 0.930 . S
H2074 C2082 0.930 . S
H2075 C2083 0.930 . S
H2076 C2086 0.930 . S
H2077 C2087 0.930 . S
C2078 H2072 0.930 . S
C2078 C2079 1.355 . S
C2078 C2080 1.415 . S
C2079 C2078 1.355 . S
C2079 C2081 1.419 . S
C2080 C2078 1.415 . S
C2080 C2085 1.425 . S
C2080 C2087 1.409 . S
C2081 H2073 0.930 . S
C2081 C2079 1.419 . S
C2081 C2082 1.362 . S
C2082 H2074 0.930 . S
C2082 C2081 1.362 . S
C2082 C2085 1.409 . S
C2083 H2075 0.930 . S
C2083 C2084 1.355 . S
C2083 C2085 1.415 . S
C2084 C2083 1.355 . S
C2084 C2086 1.419 . S
C2085 C2080 1.425 . S
C2085 C2082 1.409 . S
C2085 C2083 1.415 . S
C2086 H2076 0.930 . S
C2086 C2084 1.419 . S
C2086 C2087 1.362 . S
C2087 H2077 0.930 . S
C2087 C2080 1.409 . S
C2087 C2086 1.362 . S
H2088 C2094 0.930 . S
H2089 C2097 0.930 . S
H2090 C2098 0.930 . S
H2091 C2099 0.930 . S
H2092 C2102 0.930 . S
H2093 C2103 0.930 . S
C2094 H2088 0.930 . S
C2094 C2095 1.355 . S
C2094 C2096 1.415 . S
C2095 C2094 1.355 . S
C2095 C2097 1.419 . S
C2096 C2094 1.415 . S
C2096 C2101 1.425 . S
C2096 C2103 1.409 . S
C2097 H2089 0.930 . S
C2097 C2095 1.419 . S
C2097 C2098 1.362 . S
C2098 H2090 0.930 . S
C2098 C2097 1.362 . S
C2098 C2101 1.409 . S
C2099 H2091 0.930 . S
C2099 C2100 1.355 . S
C2099 C2101 1.415 . S
C2100 C2099 1.355 . S
C2100 C2102 1.419 . S
C2101 C2096 1.425 . S
C2101 C2098 1.409 . S
C2101 C2099 1.415 . S
C2102 H2092 0.930 . S
C2102 C2100 1.419 . S
C2102 C2103 1.362 . S
C2103 H2093 0.930 . S
C2103 C2096 1.409 . S
C2103 C2102 1.362 . S
H2104 C2110 0.930 . S
H2105 C2113 0.930 . S
H2106 C2114 0.930 . S
H2107 C2115 0.930 . S
H2108 C2118 0.930 . S
H2109 C2119 0.930 . S
C2110 H2104 0.930 . S
C2110 C2111 1.355 . S
C2110 C2112 1.415 . S
C2111 C2110 1.355 . S
C2111 C2113 1.419 . S
C2112 C2110 1.415 . S
C2112 C2117 1.425 . S
C2112 C2119 1.409 . S
C2113 H2105 0.930 . S
C2113 C2111 1.419 . S
C2113 C2114 1.362 . S
C2114 H2106 0.930 . S
C2114 C2113 1.362 . S
C2114 C2117 1.409 . S
C2115 H2107 0.930 . S
C2115 C2116 1.355 . S
C2115 C2117 1.415 . S
C2116 C2115 1.355 . S
C2116 C2118 1.419 . S
C2117 C2112 1.425 . S
C2117 C2114 1.409 . S
C2117 C2115 1.415 . S
C2118 H2108 0.930 . S
C2118 C2116 1.419 . S
C2118 C2119 1.362 . S
C2119 H2109 0.930 . S
C2119 C2112 1.409 . S
C2119 C2118 1.362 . S
H2120 C2126 0.930 . S
H2121 C2129 0.930 . S
H2122 C2130 0.930 . S
H2123 C2131 0.930 . S
H2124 C2134 0.930 . S
H2125 C2135 0.930 . S
C2126 H2120 0.930 . S
C2126 C2127 1.355 . S
C2126 C2128 1.415 . S
C2127 C2126 1.355 . S
C2127 C2129 1.419 . S
C2128 C2126 1.415 . S
C2128 C2133 1.425 . S
C2128 C2135 1.409 . S
C2129 H2121 0.930 . S
C2129 C2127 1.419 . S
C2129 C2130 1.362 . S
C2130 H2122 0.930 . S
C2130 C2129 1.362 . S
C2130 C2133 1.409 . S
C2131 H2123 0.930 . S
C2131 C2132 1.355 . S
C2131 C2133 1.415 . S
C2132 C2131 1.355 . S
C2132 C2134 1.419 . S
C2133 C2128 1.425 . S
C2133 C2130 1.409 . S
C2133 C2131 1.415 . S
C2134 H2124 0.930 . S
C2134 C2132 1.419 . S
C2134 C2135 1.362 . S
C2135 H2125 0.930 . S
C2135 C2128 1.409 . S
C2135 C2134 1.362 . S
H2136 C2142 0.930 . S
H2137 C2145 0.930 . S
H2138 C2146 0.930 . S
H2139 C2147 0.930 . S
H2140 C2150 0.930 . S
H2141 C2151 0.930 . S
C2142 H2136 0.930 . S
C2142 C2143 1.355 . S
C2142 C2144 1.415 . S
C2143 C2142 1.355 . S
C2143 C2145 1.419 . S
C2144 C2142 1.415 . S
C2144 C2149 1.425 . S
C2144 C2151 1.409 . S
C2145 H2137 0.930 . S
C2145 C2143 1.419 . S
C2145 C2146 1.362 . S
C2146 H2138 0.930 . S
C2146 C2145 1.362 . S
C2146 C2149 1.409 . S
C2147 H2139 0.930 . S
C2147 C2148 1.355 . S
C2147 C2149 1.415 . S
C2148 C2147 1.355 . S
C2148 C2150 1.419 . S
C2149 C2144 1.425 . S
C2149 C2146 1.409 . S
C2149 C2147 1.415 . S
C2150 H2140 0.930 . S
C2150 C2148 1.419 . S
C2150 C2151 1.362 . S
C2151 H2141 0.930 . S
C2151 C2144 1.409 . S
C2151 C2150 1.362 . S
H2152 C2158 0.930 . S
H2153 C2161 0.930 . S
H2154 C2162 0.930 . S
H2155 C2163 0.930 . S
H2156 C2166 0.930 . S
H2157 C2167 0.930 . S
C2158 H2152 0.930 . S
C2158 C2159 1.355 . S
C2158 C2160 1.415 . S
C2159 C2158 1.355 . S
C2159 C2161 1.419 . S
C2160 C2158 1.415 . S
C2160 C2165 1.425 . S
C2160 C2167 1.409 . S
C2161 H2153 0.930 . S
C2161 C2159 1.419 . S
C2161 C2162 1.362 . S
C2162 H2154 0.930 . S
C2162 C2161 1.362 . S
C2162 C2165 1.409 . S
C2163 H2155 0.930 . S
C2163 C2164 1.355 . S
C2163 C2165 1.415 . S
C2164 C2163 1.355 . S
C2164 C2166 1.419 . S
C2165 C2160 1.425 . S
C2165 C2162 1.409 . S
C2165 C2163 1.415 . S
C2166 H2156 0.930 . S
C2166 C2164 1.419 . S
C2166 C2167 1.362 . S
C2167 H2157 0.930 . S
C2167 C2160 1.409 . S
C2167 C2166 1.362 . S
H2168 C2174 0.930 . S
H2169 C2177 0.930 . S
H2170 C2178 0.930 . S
H2171 C2179 0.930 . S
H2172 C2182 0.930 . S
H2173 C2183 0.930 . S
C2174 H2168 0.930 . S
C2174 C2175 1.355 . S
C2174 C2176 1.415 . S
C2175 C2174 1.355 . S
C2175 C2177 1.419 . S
C2176 C2174 1.415 . S
C2176 C2181 1.425 . S
C2176 C2183 1.409 . S
C2177 H2169 0.930 . S
C2177 C2175 1.419 . S
C2177 C2178 1.362 . S
C2178 H2170 0.930 . S
C2178 C2177 1.362 . S
C2178 C2181 1.409 . S
C2179 H2171 0.930 . S
C2179 C2180 1.355 . S
C2179 C2181 1.415 . S
C2180 C2179 1.355 . S
C2180 C2182 1.419 . S
C2181 C2176 1.425 . S
C2181 C2178 1.409 . S
C2181 C2179 1.415 . S
C2182 H2172 0.930 . S
C2182 C2180 1.419 . S
C2182 C2183 1.362 . S
C2183 H2173 0.930 . S
C2183 C2176 1.409 . S
C2183 C2182 1.362 . S
H2184 C2190 0.930 . S
H2185 C2193 0.930 . S
H2186 C2194 0.930 . S
H2187 C2195 0.930 . S
H2188 C2198 0.930 . S
H2189 C2199 0.930 . S
C2190 H2184 0.930 . S
C2190 C2191 1.355 . S
C2190 C2192 1.415 . S
C2191 C2190 1.355 . S
C2191 C2193 1.419 . S
C2192 C2190 1.415 . S
C2192 C2197 1.425 . S
C2192 C2199 1.409 . S
C2193 H2185 0.930 . S
C2193 C2191 1.419 . S
C2193 C2194 1.362 . S
C2194 H2186 0.930 . S
C2194 C2193 1.362 . S
C2194 C2197 1.409 . S
C2195 H2187 0.930 . S
C2195 C2196 1.355 . S
C2195 C2197 1.415 . S
C2196 C2195 1.355 . S
C2196 C2198 1.419 . S
C2197 C2192 1.425 . S
C2197 C2194 1.409 . S
C2197 C2195 1.415 . S
C2198 H2188 0.930 . S
C2198 C2196 1.419 . S
C2198 C2199 1.362 . S
C2199 H2189 0.930 . S
C2199 C2192 1.409 . S
C2199 C2198 1.362 . S
H2200 C2206 0.930 . S
H2201 C2209 0.930 . S
H2202 C2210 0.930 . S
H2203 C2211 0.930 . S
H2204 C2214 0.930 . S
H2205 C2215 0.930 . S
C2206 H2200 0.930 . S
C2206 C2207 1.355 . S
C2206 C2208 1.415 . S
C2207 C2206 1.355 . S
C2207 C2209 1.419 . S
C2208 C2206 1.415 . S
C2208 C2213 1.425 . S
C2208 C2215 1.409 . S
C2209 H2201 0.930 . S
C2209 C2207 1.419 . S
C2209 C2210 1.362 . S
C2210 H2202 0.930 . S
C2210 C2209 1.362 . S
C2210 C2213 1.409 . S
C2211 H2203 0.930 . S
C2211 C2212 1.355 . S
C2211 C2213 1.415 . S
C2212 C2211 1.355 . S
C2212 C2214 1.419 . S
C2213 C2208 1.425 . S
C2213 C2210 1.409 . S
C2213 C2211 1.415 . S
C2214 H2204 0.930 . S
C2214 C2212 1.419 . S
C2214 C2215 1.362 . S
C2215 H2205 0.930 . S
C2215 C2208 1.409 . S
C2215 C2214 1.362 . S
H2216 C2222 0.930 . S
H2217 C2225 0.930 . S
H2218 C2226 0.930 . S
H2219 C2227 0.930 . S
H2220 C2230 0.930 . S
H2221 C2231 0.930 . S
C2222 H2216 0.930 . S
C2222 C2223 1.355 . S
C2222 C2224 1.415 . S
C2223 C2222 1.355 . S
C2223 C2225 1.419 . S
C2224 C2222 1.415 . S
C2224 C2229 1.425 . S
C2224 C2231 1.409 . S
C2225 H2217 0.930 . S
C2225 C2223 1.419 . S
C2225 C2226 1.362 . S
C2226 H2218 0.930 . S
C2226 C2225 1.362 . S
C2226 C2229 1.409 . S
C2227 H2219 0.930 . S
C2227 C2228 1.355 . S
C2227 C2229 1.415 . S
C2228 C2227 1.355 . S
C2228 C2230 1.419 . S
C2229 C2224 1.425 . S
C2229 C2226 1.409 . S
C2229 C2227 1.415 . S
C2230 H2220 0.930 . S
C2230 C2228 1.419 . S
C2230 C2231 1.362 . S
C2231 H2221 0.930 . S
C2231 C2224 1.409 . S
C2231 C2230 1.362 . S
H2232 C2238 0.930 . S
H2233 C2241 0.930 . S
H2234 C2242 0.930 . S
H2235 C2243 0.930 . S
H2236 C2246 0.930 . S
H2237 C2247 0.930 . S
C2238 H2232 0.930 . S
C2238 C2239 1.355 . S
C2238 C2240 1.415 . S
C2239 C2238 1.355 . S
C2239 C2241 1.419 . S
C2240 C2238 1.415 . S
C2240 C2245 1.425 . S
C2240 C2247 1.409 . S
C2241 H2233 0.930 . S
C2241 C2239 1.419 . S
C2241 C2242 1.362 . S
C2242 H2234 0.930 . S
C2242 C2241 1.362 . S
C2242 C2245 1.409 . S
C2243 H2235 0.930 . S
C2243 C2244 1.355 . S
C2243 C2245 1.415 . S
C2244 C2243 1.355 . S
C2244 C2246 1.419 . S
C2245 C2240 1.425 . S
C2245 C2242 1.409 . S
C2245 C2243 1.415 . S
C2246 H2236 0.930 . S
C2246 C2244 1.419 . S
C2246 C2247 1.362 . S
C2247 H2237 0.930 . S
C2247 C2240 1.409 . S
C2247 C2246 1.362 . S
H2248 C2254 0.930 . S
H2249 C2257 0.930 . S
H2250 C2258 0.930 . S
H2251 C2259 0.930 . S
H2252 C2262 0.930 . S
H2253 C2263 0.930 . S
C2254 H2248 0.930 . S
C2254 C2255 1.355 . S
C2254 C2256 1.415 . S
C2255 C2254 1.355 . S
C2255 C2257 1.419 . S
C2256 C2254 1.415 . S
C2256 C2261 1.425 . S
C2256 C2263 1.409 . S
C2257 H2249 0.930 . S
C2257 C2255 1.419 . S
C2257 C2258 1.362 . S
C2258 H2250 0.930 . S
C2258 C2257 1.362 . S
C2258 C2261 1.409 . S
C2259 H2251 0.930 . S
C2259 C2260 1.355 . S
C2259 C2261 1.415 . S
C2260 C2259 1.355 . S
C2260 C2262 1.419 . S
C2261 C2256 1.425 . S
C2261 C2258 1.409 . S
C2261 C2259 1.415 . S
C2262 H2252 0.930 . S
C2262 C2260 1.419 . S
C2262 C2263 1.362 . S
C2263 H2253 0.930 . S
C2263 C2256 1.409 . S
C2263 C2262 1.362 . S
H2264 C2270 0.930 . S
H2265 C2273 0.930 . S
H2266 C2274 0.930 . S
H2267 C2275 0.930 . S
H2268 C2278 0.930 . S
H2269 C2279 0.930 . S
C2270 H2264 0.930 . S
C2270 C2271 1.355 . S
C2270 C2272 1.415 . S
C2271 C2270 1.355 . S
C2271 C2273 1.419 . S
C2272 C2270 1.415 . S
C2272 C2277 1.425 . S
C2272 C2279 1.409 . S
C2273 H2265 0.930 . S
C2273 C2271 1.419 . S
C2273 C2274 1.362 . S
C2274 H2266 0.930 . S
C2274 C2273 1.362 . S
C2274 C2277 1.409 . S
C2275 H2267 0.930 . S
C2275 C2276 1.355 . S
C2275 C2277 1.415 . S
C2276 C2275 1.355 . S
C2276 C2278 1.419 . S
C2277 C2272 1.425 . S
C2277 C2274 1.409 . S
C2277 C2275 1.415 . S
C2278 H2268 0.930 . S
C2278 C2276 1.419 . S
C2278 C2279 1.362 . S
C2279 H2269 0.930 . S
C2279 C2272 1.409 . S
C2279 C2278 1.362 . S
H2280 C2286 0.930 . S
H2281 C2289 0.930 . S
H2282 C2290 0.930 . S
H2283 C2291 0.930 . S
H2284 C2294 0.930 . S
H2285 C2295 0.930 . S
C2286 H2280 0.930 . S
C2286 C2287 1.355 . S
C2286 C2288 1.402 1_455 S
C2287 C2286 1.355 . S
C2287 C2289 1.419 . S
C2288 C2286 1.402 1_655 S
C2288 C2293 1.419 1_655 S
C2288 C2295 1.425 . S
C2289 H2281 0.930 . S
C2289 C2287 1.419 . S
C2289 C2290 1.362 . S
C2290 H2282 0.930 . S
C2290 C2289 1.362 . S
C2290 C2293 1.425 . S
C2291 H2283 0.930 . S
C2291 C2292 1.355 . S
C2291 C2293 1.402 1_655 S
C2292 C2291 1.355 . S
C2292 C2294 1.419 . S
C2293 C2288 1.419 1_455 S
C2293 C2290 1.425 . S
C2293 C2291 1.402 1_455 S
C2294 H2284 0.930 . S
C2294 C2292 1.419 . S
C2294 C2295 1.362 . S
C2295 H2285 0.930 . S
C2295 C2288 1.425 . S
C2295 C2294 1.362 . S
H2296 C2302 0.930 . S
H2297 C2305 0.930 . S
H2298 C2306 0.930 . S
H2299 C2307 0.930 . S
H2300 C2310 0.930 . S
H2301 C2311 0.930 . S
C2302 H2296 0.930 . S
C2302 C2303 1.355 . S
C2302 C2304 1.415 . S
C2303 C2302 1.355 . S
C2303 C2305 1.419 . S
C2304 C2302 1.415 . S
C2304 C2309 1.425 . S
C2304 C2311 1.409 . S
C2305 H2297 0.930 . S
C2305 C2303 1.419 . S
C2305 C2306 1.362 . S
C2306 H2298 0.930 . S
C2306 C2305 1.362 . S
C2306 C2309 1.409 . S
C2307 H2299 0.930 . S
C2307 C2308 1.355 . S
C2307 C2309 1.415 . S
C2308 C2307 1.355 . S
C2308 C2310 1.419 . S
C2309 C2304 1.425 . S
C2309 C2306 1.409 . S
C2309 C2307 1.415 . S
C2310 H2300 0.930 . S
C2310 C2308 1.419 . S
C2310 C2311 1.362 . S
C2311 H2301 0.930 . S
C2311 C2304 1.409 . S
C2311 C2310 1.362 . S
H2312 C2318 0.930 . S
H2313 C2321 0.930 . S
H2314 C2322 0.930 . S
H2315 C2323 0.930 . S
H2316 C2326 0.930 . S
H2317 C2327 0.930 . S
C2318 H2312 0.930 . S
C2318 C2319 1.355 . S
C2318 C2320 1.415 . S
C2319 C2318 1.355 . S
C2319 C2321 1.419 . S
C2320 C2318 1.415 . S
C2320 C2325 1.425 1_545 S
C2320 C2327 1.409 1_545 S
C2321 H2313 0.930 . S
C2321 C2319 1.419 . S
C2321 C2322 1.362 . S
C2322 H2314 0.930 . S
C2322 C2321 1.362 . S
C2322 C2325 1.409 1_545 S
C2323 H2315 0.930 . S
C2323 C2324 1.355 . S
C2323 C2325 1.415 . S
C2324 C2323 1.355 . S
C2324 C2326 1.419 . S
C2325 C2320 1.425 1_565 S
C2325 C2322 1.409 1_565 S
C2325 C2323 1.415 . S
C2326 H2316 0.930 . S
C2326 C2324 1.419 . S
C2326 C2327 1.362 . S
C2327 H2317 0.930 . S
C2327 C2320 1.409 1_565 S
C2327 C2326 1.362 . S
H2328 C2334 0.930 . S
H2329 C2337 0.930 . S
H2330 C2338 0.930 . S
H2331 C2339 0.930 . S
H2332 C2342 0.930 . S
H2333 C2343 0.930 . S
C2334 H2328 0.930 . S
C2334 C2335 1.355 . S
C2334 C2336 1.414 . S
C2335 C2334 1.355 . S
C2335 C2337 1.419 . S
C2336 C2334 1.414 . S
C2336 C2341 1.426 1_545 S
C2336 C2343 1.410 1_545 S
C2337 H2329 0.930 . S
C2337 C2335 1.419 . S
C2337 C2338 1.362 . S
C2338 H2330 0.930 . S
C2338 C2337 1.362 . S
C2338 C2341 1.410 1_545 S
C2339 H2331 0.930 . S
C2339 C2340 1.355 . S
C2339 C2341 1.413 . S
C2340 C2339 1.355 . S
C2340 C2342 1.419 . S
C2341 C2336 1.426 1_565 S
C2341 C2338 1.410 1_565 S
C2341 C2339 1.413 . S
C2342 H2332 0.930 . S
C2342 C2340 1.419 . S
C2342 C2343 1.362 . S
C2343 H2333 0.930 . S
C2343 C2336 1.410 1_565 S
C2343 C2342 1.362 . S
H2344 C2350 0.930 . S
H2345 C2353 0.930 . S
H2346 C2354 0.930 . S
H2347 C2355 0.930 . S
H2348 C2358 0.930 . S
H2349 C2359 0.930 . S
C2350 H2344 0.930 . S
C2350 C2351 1.355 . S
C2350 C2352 1.415 . S
C2351 C2350 1.355 . S
C2351 C2353 1.419 . S
C2352 C2350 1.415 . S
C2352 C2357 1.425 1_655 S
C2352 C2359 1.409 1_655 S
C2353 H2345 0.930 . S
C2353 C2351 1.419 . S
C2353 C2354 1.362 . S
C2354 H2346 0.930 . S
C2354 C2353 1.362 . S
C2354 C2357 1.409 1_655 S
C2355 H2347 0.930 . S
C2355 C2356 1.355 . S
C2355 C2357 1.415 . S
C2356 C2355 1.355 . S
C2356 C2358 1.419 . S
C2357 C2352 1.425 1_455 S
C2357 C2354 1.409 1_455 S
C2357 C2355 1.415 . S
C2358 H2348 0.930 . S
C2358 C2356 1.419 . S
C2358 C2359 1.362 . S
C2359 H2349 0.930 . S
C2359 C2352 1.409 1_455 S
C2359 C2358 1.362 . S
H2360 C2366 0.930 . S
H2361 C2369 0.930 . S
H2362 C2370 0.930 . S
H2363 C2371 0.930 . S
H2364 C2374 0.930 . S
H2365 C2375 0.930 . S
C2366 H2360 0.930 . S
C2366 C2367 1.355 . S
C2366 C2368 1.415 . S
C2367 C2366 1.355 . S
C2367 C2369 1.419 . S
C2368 C2366 1.415 . S
C2368 C2373 1.425 . S
C2368 C2375 1.409 . S
C2369 H2361 0.930 . S
C2369 C2367 1.419 . S
C2369 C2370 1.362 . S
C2370 H2362 0.930 . S
C2370 C2369 1.362 . S
C2370 C2373 1.409 . S
C2371 H2363 0.930 . S
C2371 C2372 1.355 . S
C2371 C2373 1.415 . S
C2372 C2371 1.355 . S
C2372 C2374 1.419 . S
C2373 C2368 1.425 . S
C2373 C2370 1.409 . S
C2373 C2371 1.415 . S
C2374 H2364 0.930 . S
C2374 C2372 1.419 . S
C2374 C2375 1.362 . S
C2375 H2365 0.930 . S
C2375 C2368 1.409 . S
C2375 C2374 1.362 . S
H2376 C2382 0.930 . S
H2377 C2385 0.930 . S
H2378 C2386 0.930 . S
H2379 C2387 0.930 . S
H2380 C2390 0.930 . S
H2381 C2391 0.930 . S
C2382 H2376 0.930 . S
C2382 C2383 1.355 . S
C2382 C2384 1.415 . S
C2383 C2382 1.355 . S
C2383 C2385 1.419 . S
C2384 C2382 1.415 . S
C2384 C2389 1.425 . S
C2384 C2391 1.409 . S
C2385 H2377 0.930 . S
C2385 C2383 1.419 . S
C2385 C2386 1.362 . S
C2386 H2378 0.930 . S
C2386 C2385 1.362 . S
C2386 C2389 1.409 . S
C2387 H2379 0.930 . S
C2387 C2388 1.355 . S
C2387 C2389 1.415 . S
C2388 C2387 1.355 . S
C2388 C2390 1.419 . S
C2389 C2384 1.425 . S
C2389 C2386 1.409 . S
C2389 C2387 1.415 . S
C2390 H2380 0.930 . S
C2390 C2388 1.419 . S
C2390 C2391 1.362 . S
C2391 H2381 0.930 . S
C2391 C2384 1.409 . S
C2391 C2390 1.362 . S
H2392 C2398 0.930 . S
H2393 C2401 0.930 . S
H2394 C2402 0.930 . S
H2395 C2403 0.930 . S
H2396 C2406 0.930 . S
H2397 C2407 0.930 . S
C2398 H2392 0.930 . S
C2398 C2399 1.355 . S
C2398 C2400 1.415 . S
C2399 C2398 1.355 . S
C2399 C2401 1.419 . S
C2400 C2398 1.415 . S
C2400 C2405 1.425 . S
C2400 C2407 1.409 . S
C2401 H2393 0.930 . S
C2401 C2399 1.419 . S
C2401 C2402 1.362 . S
C2402 H2394 0.930 . S
C2402 C2401 1.362 . S
C2402 C2405 1.409 . S
C2403 H2395 0.930 . S
C2403 C2404 1.355 . S
C2403 C2405 1.415 . S
C2404 C2403 1.355 . S
C2404 C2406 1.419 . S
C2405 C2400 1.425 . S
C2405 C2402 1.409 . S
C2405 C2403 1.415 . S
C2406 H2396 0.930 . S
C2406 C2404 1.419 . S
C2406 C2407 1.362 . S
C2407 H2397 0.930 . S
C2407 C2400 1.409 . S
C2407 C2406 1.362 . S
H2408 C2414 0.930 . S
H2409 C2417 0.930 . S
H2410 C2418 0.930 . S
H2411 C2419 0.930 . S
H2412 C2422 0.930 . S
H2413 C2423 0.930 . S
C2414 H2408 0.930 . S
C2414 C2415 1.355 . S
C2414 C2416 1.415 . S
C2415 C2414 1.355 . S
C2415 C2417 1.419 . S
C2416 C2414 1.415 . S
C2416 C2421 1.425 . S
C2416 C2423 1.409 . S
C2417 H2409 0.930 . S
C2417 C2415 1.419 . S
C2417 C2418 1.362 . S
C2418 H2410 0.930 . S
C2418 C2417 1.362 . S
C2418 C2421 1.409 . S
C2419 H2411 0.930 . S
C2419 C2420 1.355 . S
C2419 C2421 1.415 . S
C2420 C2419 1.355 . S
C2420 C2422 1.419 . S
C2421 C2416 1.425 . S
C2421 C2418 1.409 . S
C2421 C2419 1.415 . S
C2422 H2412 0.930 . S
C2422 C2420 1.419 . S
C2422 C2423 1.362 . S
C2423 H2413 0.930 . S
C2423 C2416 1.409 . S
C2423 C2422 1.362 . S
H2424 C2430 0.930 . S
H2425 C2433 0.930 . S
H2426 C2434 0.930 . S
H2427 C2435 0.930 . S
H2428 C2438 0.930 . S
H2429 C2439 0.930 . S
C2430 H2424 0.930 . S
C2430 C2431 1.355 . S
C2430 C2432 1.415 . S
C2431 C2430 1.355 . S
C2431 C2433 1.419 . S
C2432 C2430 1.415 . S
C2432 C2437 1.425 . S
C2432 C2439 1.409 . S
C2433 H2425 0.930 . S
C2433 C2431 1.419 . S
C2433 C2434 1.362 . S
C2434 H2426 0.930 . S
C2434 C2433 1.362 . S
C2434 C2437 1.409 . S
C2435 H2427 0.930 . S
C2435 C2436 1.355 . S
C2435 C2437 1.415 . S
C2436 C2435 1.355 . S
C2436 C2438 1.419 . S
C2437 C2432 1.425 . S
C2437 C2434 1.409 . S
C2437 C2435 1.415 . S
C2438 H2428 0.930 . S
C2438 C2436 1.419 . S
C2438 C2439 1.362 . S
C2439 H2429 0.930 . S
C2439 C2432 1.409 . S
C2439 C2438 1.362 . S
H2440 C2446 0.930 . S
H2441 C2449 0.930 . S
H2442 C2450 0.930 . S
H2443 C2451 0.930 . S
H2444 C2454 0.930 . S
H2445 C2455 0.930 . S
C2446 H2440 0.930 . S
C2446 C2447 1.355 . S
C2446 C2448 1.415 . S
C2447 C2446 1.355 . S
C2447 C2449 1.419 . S
C2448 C2446 1.415 . S
C2448 C2453 1.425 . S
C2448 C2455 1.409 . S
C2449 H2441 0.930 . S
C2449 C2447 1.419 . S
C2449 C2450 1.362 . S
C2450 H2442 0.930 . S
C2450 C2449 1.362 . S
C2450 C2453 1.409 . S
C2451 H2443 0.930 . S
C2451 C2452 1.355 . S
C2451 C2453 1.415 . S
C2452 C2451 1.355 . S
C2452 C2454 1.419 . S
C2453 C2448 1.425 . S
C2453 C2450 1.409 . S
C2453 C2451 1.415 . S
C2454 H2444 0.930 . S
C2454 C2452 1.419 . S
C2454 C2455 1.362 . S
C2455 H2445 0.930 . S
C2455 C2448 1.409 . S
C2455 C2454 1.362 . S
H2456 C2462 0.930 . S
H2457 C2465 0.930 . S
H2458 C2466 0.930 . S
H2459 C2467 0.930 . S
H2460 C2470 0.947 . S
H2461 C2471 0.930 . S
C2462 H2456 0.930 . S
C2462 C2463 1.355 . S
C2462 C2464 1.415 . S
C2463 C2462 1.355 . S
C2463 C2465 1.419 . S
C2464 C2462 1.415 . S
C2464 C2469 1.425 . S
C2464 C2471 1.409 . S
C2465 H2457 0.930 . S
C2465 C2463 1.419 . S
C2465 C2466 1.362 . S
C2466 H2458 0.930 . S
C2466 C2465 1.362 . S
C2466 C2469 1.409 . S
C2467 H2459 0.930 . S
C2467 C2468 1.355 . S
C2467 C2469 1.415 . S
C2468 C2467 1.355 . S
C2468 C2470 1.419 . S
C2469 C2464 1.425 . S
C2469 C2466 1.409 . S
C2469 C2467 1.415 . S
C2470 H2460 0.947 . S
C2470 C2468 1.419 . S
C2470 C2471 1.362 . S
C2471 H2461 0.930 . S
C2471 C2464 1.409 . S
C2471 C2470 1.362 . S
H2472 C2478 0.930 . S
H2473 C2481 0.930 . S
H2474 C2482 0.930 . S
H2475 C2483 0.930 . S
H2476 C2486 0.930 . S
H2477 C2487 0.930 . S
C2478 H2472 0.930 . S
C2478 C2479 1.355 . S
C2478 C2480 1.415 . S
C2479 C2478 1.355 . S
C2479 C2481 1.419 . S
C2480 C2478 1.415 . S
C2480 C2485 1.425 . S
C2480 C2487 1.409 . S
C2481 H2473 0.930 . S
C2481 C2479 1.419 . S
C2481 C2482 1.362 . S
C2482 H2474 0.930 . S
C2482 C2481 1.362 . S
C2482 C2485 1.409 . S
C2483 H2475 0.930 . S
C2483 C2484 1.355 . S
C2483 C2485 1.415 . S
C2484 C2483 1.355 . S
C2484 C2486 1.419 . S
C2485 C2480 1.425 . S
C2485 C2482 1.409 . S
C2485 C2483 1.415 . S
C2486 H2476 0.930 . S
C2486 C2484 1.419 . S
C2486 C2487 1.362 . S
C2487 H2477 0.930 . S
C2487 C2480 1.409 . S
C2487 C2486 1.362 . S
H2488 C2494 0.930 . S
H2489 C2497 0.930 . S
H2490 C2498 0.930 . S
H2491 C2499 0.930 . S
H2492 C2502 0.930 . S
H2493 C2503 0.930 . S
C2494 H2488 0.930 . S
C2494 C2495 1.355 . S
C2494 C2496 1.415 . S
C2495 C2494 1.355 . S
C2495 C2497 1.419 . S
C2496 C2494 1.415 . S
C2496 C2501 1.425 . S
C2496 C2503 1.409 . S
C2497 H2489 0.930 . S
C2497 C2495 1.419 . S
C2497 C2498 1.362 . S
C2498 H2490 0.930 . S
C2498 C2497 1.362 . S
C2498 C2501 1.409 . S
C2499 H2491 0.930 . S
C2499 C2500 1.355 . S
C2499 C2501 1.415 . S
C2500 C2499 1.355 . S
C2500 C2502 1.419 . S
C2501 C2496 1.425 . S
C2501 C2498 1.409 . S
C2501 C2499 1.415 . S
C2502 H2492 0.930 . S
C2502 C2500 1.419 . S
C2502 C2503 1.362 . S
C2503 H2493 0.930 . S
C2503 C2496 1.409 . S
C2503 C2502 1.362 . S
H2504 C2510 0.930 . S
H2505 C2513 0.930 . S
H2506 C2514 0.930 . S
H2507 C2515 0.930 . S
H2508 C2518 0.930 . S
H2509 C2519 0.930 . S
C2510 H2504 0.930 . S
C2510 C2511 1.355 . S
C2510 C2512 1.415 . S
C2511 C2510 1.355 . S
C2511 C2513 1.419 . S
C2512 C2510 1.415 . S
C2512 C2517 1.425 . S
C2512 C2519 1.409 . S
C2513 H2505 0.930 . S
C2513 C2511 1.419 . S
C2513 C2514 1.362 . S
C2514 H2506 0.930 . S
C2514 C2513 1.362 . S
C2514 C2517 1.409 . S
C2515 H2507 0.930 . S
C2515 C2516 1.355 . S
C2515 C2517 1.415 . S
C2516 C2515 1.355 . S
C2516 C2518 1.419 . S
C2517 C2512 1.425 . S
C2517 C2514 1.409 . S
C2517 C2515 1.415 . S
C2518 H2508 0.930 . S
C2518 C2516 1.419 . S
C2518 C2519 1.362 . S
C2519 H2509 0.930 . S
C2519 C2512 1.409 . S
C2519 C2518 1.362 . S
H2520 C2526 0.930 . S
H2521 C2529 0.930 . S
H2522 C2530 0.930 . S
H2523 C2531 0.930 . S
H2524 C2534 0.930 . S
H2525 C2535 0.930 . S
C2526 H2520 0.930 . S
C2526 C2527 1.355 . S
C2526 C2528 1.415 . S
C2527 C2526 1.355 . S
C2527 C2529 1.419 . S
C2528 C2526 1.415 . S
C2528 C2533 1.425 . S
C2528 C2535 1.409 . S
C2529 H2521 0.930 . S
C2529 C2527 1.419 . S
C2529 C2530 1.362 . S
C2530 H2522 0.930 . S
C2530 C2529 1.362 . S
C2530 C2533 1.409 . S
C2531 H2523 0.930 . S
C2531 C2532 1.355 . S
C2531 C2533 1.415 . S
C2532 C2531 1.355 . S
C2532 C2534 1.419 . S
C2533 C2528 1.425 . S
C2533 C2530 1.409 . S
C2533 C2531 1.415 . S
C2534 H2524 0.930 . S
C2534 C2532 1.419 . S
C2534 C2535 1.362 . S
C2535 H2525 0.930 . S
C2535 C2528 1.409 . S
C2535 C2534 1.362 . S
H2536 C2542 0.930 . S
H2537 C2545 0.930 . S
H2538 C2546 0.930 . S
H2539 C2547 0.930 . S
H2540 C2550 0.930 1_545 S
H2541 C2551 0.930 . S
C2542 H2536 0.930 . S
C2542 C2543 1.355 . S
C2542 C2544 1.415 . S
C2543 C2542 1.355 . S
C2543 C2545 1.419 . S
C2544 C2542 1.415 . S
C2544 C2549 1.425 . S
C2544 C2551 1.409 . S
C2545 H2537 0.930 . S
C2545 C2543 1.419 . S
C2545 C2546 1.362 . S
C2546 H2538 0.930 . S
C2546 C2545 1.362 . S
C2546 C2549 1.409 . S
C2547 H2539 0.930 . S
C2547 C2548 1.355 . S
C2547 C2549 1.415 . S
C2548 C2547 1.355 . S
C2548 C2550 1.419 . S
C2549 C2544 1.425 . S
C2549 C2546 1.409 . S
C2549 C2547 1.415 . S
C2550 H2540 0.930 1_565 S
C2550 C2548 1.419 . S
C2550 C2551 1.362 . S
C2551 H2541 0.930 . S
C2551 C2544 1.409 . S
C2551 C2550 1.362 . S
H2552 C2558 0.930 . S
H2553 C2561 0.930 . S
H2554 C2562 0.930 . S
H2555 C2563 0.930 . S
H2556 C2566 0.930 . S
H2557 C2567 0.930 . S
C2558 H2552 0.930 . S
C2558 C2559 1.355 . S
C2558 C2560 1.415 . S
C2559 C2558 1.355 . S
C2559 C2561 1.419 . S
C2560 C2558 1.415 . S
C2560 C2565 1.425 . S
C2560 C2567 1.409 . S
C2561 H2553 0.930 . S
C2561 C2559 1.419 . S
C2561 C2562 1.362 . S
C2562 H2554 0.930 . S
C2562 C2561 1.362 . S
C2562 C2565 1.409 . S
C2563 H2555 0.930 . S
C2563 C2564 1.355 . S
C2563 C2565 1.415 . S
C2564 C2563 1.355 . S
C2564 C2566 1.419 . S
C2565 C2560 1.425 . S
C2565 C2562 1.409 . S
C2565 C2563 1.415 . S
C2566 H2556 0.930 . S
C2566 C2564 1.419 . S
C2566 C2567 1.362 . S
C2567 H2557 0.930 . S
C2567 C2560 1.409 . S
C2567 C2566 1.362 . S
H2568 C2574 0.930 . S
H2569 C2577 0.930 . S
H2570 C2578 0.930 . S
H2571 C2579 0.930 . S
H2572 C2582 0.930 . S
H2573 C2583 0.930 . S
C2574 H2568 0.930 . S
C2574 C2575 1.355 . S
C2574 C2576 1.415 . S
C2575 C2574 1.355 . S
C2575 C2577 1.419 . S
C2576 C2574 1.415 . S
C2576 C2581 1.425 1_455 S
C2576 C2583 1.409 1_455 S
C2577 H2569 0.930 . S
C2577 C2575 1.419 . S
C2577 C2578 1.362 . S
C2578 H2570 0.930 . S
C2578 C2577 1.362 . S
C2578 C2581 1.409 1_455 S
C2579 H2571 0.930 . S
C2579 C2580 1.355 . S
C2579 C2581 1.415 . S
C2580 C2579 1.355 . S
C2580 C2582 1.419 . S
C2581 C2576 1.425 1_655 S
C2581 C2578 1.409 1_655 S
C2581 C2579 1.415 . S
C2582 H2572 0.930 . S
C2582 C2580 1.419 . S
C2582 C2583 1.362 . S
C2583 H2573 0.930 . S
C2583 C2576 1.409 1_655 S
C2583 C2582 1.362 . S
H2584 C2590 0.930 . S
H2585 C2593 0.930 . S
H2586 C2594 0.930 . S
H2587 C2595 0.930 . S
H2588 C2598 0.930 . S
H2589 C2599 0.930 . S
C2590 H2584 0.930 . S
C2590 C2591 1.355 . S
C2590 C2592 1.415 . S
C2591 C2590 1.355 . S
C2591 C2593 1.419 . S
C2592 C2590 1.415 . S
C2592 C2597 1.425 . S
C2592 C2599 1.409 . S
C2593 H2585 0.930 . S
C2593 C2591 1.419 . S
C2593 C2594 1.362 . S
C2594 H2586 0.930 . S
C2594 C2593 1.362 . S
C2594 C2597 1.409 . S
C2595 H2587 0.930 . S
C2595 C2596 1.355 . S
C2595 C2597 1.415 . S
C2596 C2595 1.355 . S
C2596 C2598 1.419 . S
C2597 C2592 1.425 . S
C2597 C2594 1.409 . S
C2597 C2595 1.415 . S
C2598 H2588 0.930 . S
C2598 C2596 1.419 . S
C2598 C2599 1.362 . S
C2599 H2589 0.930 . S
C2599 C2592 1.409 . S
C2599 C2598 1.362 . S
H2600 C2606 0.930 . S
H2601 C2609 0.930 . S
H2602 C2610 0.930 . S
H2603 C2611 0.930 . S
H2604 C2614 0.930 . S
H2605 C2615 0.930 . S
C2606 H2600 0.930 . S
C2606 C2607 1.355 . S
C2606 C2608 1.415 . S
C2607 C2606 1.355 . S
C2607 C2609 1.419 . S
C2608 C2606 1.415 . S
C2608 C2613 1.425 1_545 S
C2608 C2615 1.409 1_545 S
C2609 H2601 0.930 . S
C2609 C2607 1.419 . S
C2609 C2610 1.362 . S
C2610 H2602 0.930 . S
C2610 C2609 1.362 . S
C2610 C2613 1.409 1_545 S
C2611 H2603 0.930 . S
C2611 C2612 1.355 . S
C2611 C2613 1.415 . S
C2612 C2611 1.355 . S
C2612 C2614 1.419 . S
C2613 C2608 1.425 1_565 S
C2613 C2610 1.409 1_565 S
C2613 C2611 1.415 . S
C2614 H2604 0.930 . S
C2614 C2612 1.419 . S
C2614 C2615 1.362 . S
C2615 H2605 0.930 . S
C2615 C2608 1.409 1_565 S
C2615 C2614 1.362 . S
H2616 C2622 0.930 . S
H2617 C2625 0.930 . S
H2618 C2626 0.930 . S
H2619 C2627 0.930 . S
H2620 C2630 0.930 . S
H2621 C2631 0.930 . S
C2622 H2616 0.930 . S
C2622 C2623 1.355 . S
C2622 C2624 1.415 . S
C2623 C2622 1.355 . S
C2623 C2625 1.419 . S
C2624 C2622 1.415 . S
C2624 C2629 1.425 1_545 S
C2624 C2631 1.409 1_545 S
C2625 H2617 0.930 . S
C2625 C2623 1.419 . S
C2625 C2626 1.362 . S
C2626 H2618 0.930 . S
C2626 C2625 1.362 . S
C2626 C2629 1.409 1_545 S
C2627 H2619 0.930 . S
C2627 C2628 1.355 . S
C2627 C2629 1.415 . S
C2628 C2627 1.355 . S
C2628 C2630 1.419 . S
C2629 C2624 1.425 1_565 S
C2629 C2626 1.409 1_565 S
C2629 C2627 1.415 . S
C2630 H2620 0.930 . S
C2630 C2628 1.419 . S
C2630 C2631 1.362 . S
C2631 H2621 0.930 . S
C2631 C2624 1.409 1_565 S
C2631 C2630 1.362 . S
H2632 C2638 0.930 . S
H2633 C2641 0.930 . S
H2634 C2642 0.930 . S
H2635 C2643 0.930 . S
H2636 C2646 0.930 . S
H2637 C2647 0.930 . S
C2638 H2632 0.930 . S
C2638 C2639 1.355 . S
C2638 C2640 1.415 . S
C2639 C2638 1.355 . S
C2639 C2641 1.419 . S
C2640 C2638 1.415 . S
C2640 C2645 1.425 1_455 S
C2640 C2647 1.409 1_455 S
C2641 H2633 0.930 . S
C2641 C2639 1.419 . S
C2641 C2642 1.362 . S
C2642 H2634 0.930 . S
C2642 C2641 1.362 . S
C2642 C2645 1.409 1_455 S
C2643 H2635 0.930 . S
C2643 C2644 1.355 . S
C2643 C2645 1.415 . S
C2644 C2643 1.355 . S
C2644 C2646 1.419 . S
C2645 C2640 1.425 1_655 S
C2645 C2642 1.409 1_655 S
C2645 C2643 1.415 . S
C2646 H2636 0.930 . S
C2646 C2644 1.419 . S
C2646 C2647 1.362 . S
C2647 H2637 0.930 . S
C2647 C2640 1.409 1_655 S
C2647 C2646 1.362 . S
H2648 C2654 0.930 . S
H2649 C2657 0.930 . S
H2650 C2658 0.930 . S
H2651 C2659 0.930 . S
H2652 C2662 0.930 . S
H2653 C2663 0.930 . S
C2654 H2648 0.930 . S
C2654 C2655 1.355 . S
C2654 C2656 1.415 . S
C2655 C2654 1.355 . S
C2655 C2657 1.419 . S
C2656 C2654 1.415 . S
C2656 C2661 1.425 . S
C2656 C2663 1.409 . S
C2657 H2649 0.930 . S
C2657 C2655 1.419 . S
C2657 C2658 1.362 . S
C2658 H2650 0.930 . S
C2658 C2657 1.362 . S
C2658 C2661 1.409 . S
C2659 H2651 0.930 . S
C2659 C2660 1.355 . S
C2659 C2661 1.415 . S
C2660 C2659 1.355 . S
C2660 C2662 1.419 . S
C2661 C2656 1.425 . S
C2661 C2658 1.409 . S
C2661 C2659 1.415 . S
C2662 H2652 0.930 . S
C2662 C2660 1.419 . S
C2662 C2663 1.362 . S
C2663 H2653 0.930 . S
C2663 C2656 1.409 . S
C2663 C2662 1.362 . S
C1231 C271 1.412 . S
C1236 C9 1.360 . S
C1247 C43 1.341 . S
C1252 C305 1.409 . S
C1263 C237 1.407 . S
C1268 C77 1.385 . S
C1279 C407 1.412 . S
C1284 C111 1.308 . S
C1295 C339 1.414 . S
C1300 C145 1.299 . S
C1311 C179 1.334 . S
C1316 C373 1.413 . S
C1327 C213 1.356 . S
C1332 C67 1.412 . S
C1343 C247 1.334 . S
C1348 C101 1.413 . S
C1359 C281 1.379 . S
C1364 C33 1.407 . S
C1375 C203 1.408 . S
C1380 C315 1.387 . S
C1391 C135 1.407 . S
C1396 C349 1.374 . S
C1407 C383 1.310 . S
C1412 C169 1.414 . S
C1423 C679 1.413 . S
C1428 C417 1.345 . S
C1439 C713 1.414 . S
C1444 C451 1.305 . S
C1455 C645 1.414 . S
C1460 C485 1.304 . S
C1471 C815 1.414 . S
C1476 C519 1.314 . S
C1487 C747 1.413 . S
C1492 C553 1.341 . S
C1503 C781 1.414 . S
C1508 C587 1.328 . S
C1519 C621 1.375 . S
C1524 C475 1.408 . S
C1535 C655 1.386 . S
C1540 C509 1.408 . S
C1551 C441 1.413 . S
C1556 C689 1.333 . S
C1567 C723 1.385 . S
C1572 C611 1.409 . S
C1583 C757 1.386 . S
C1588 C543 1.408 . S
C1599 C791 1.317 . S
C1604 C577 1.411 . S
C1615 C1087 1.408 . S
C1620 C825 1.387 . S
C1631 C1121 1.414 . S
C1636 C859 1.307 . S
C1647 C893 1.304 . S
C1652 C1053 1.414 . S
C1663 C927 1.345 . S
C1668 C1223 1.409 . S
C1679 C961 1.312 . S
C1684 C1155 1.412 . S
C1695 C995 1.383 . S
C1700 C1189 1.409 . S
C1711 C883 1.409 . S
C1716 C1029 1.386 . S
C1727 C917 1.409 . S
C1732 C1063 1.381 . S
C1743 C1097 1.381 . S
C1748 C849 1.407 . S
C1759 C1019 1.414 . S
C1764 C1131 1.321 . S
C1775 C951 1.413 . S
C1780 C1165 1.300 . S
C1791 C1199 1.381 . S
C1796 C985 1.409 . S
C1807 C2 1.798 . S
C1812 C104 1.793 . S
C1823 C36 1.778 . S
C1828 C138 1.756 . S
C1839 C70 1.798 . S
C1844 C172 1.767 . S
C1855 C308 1.797 . S
C1860 C206 1.795 . S
C1871 C342 1.756 . S
C1876 C240 1.778 . S
C1887 C376 1.787 . S
C1892 C274 1.801 . S
C1903 C410 1.801 . S
C1908 C512 1.786 . S
C1919 C444 1.799 . S
C1924 C546 1.770 . S
C1935 C580 1.777 . S
C1940 C478 1.801 . S
C1951 C614 1.801 . S
C1956 C716 1.776 1_554 S
C1967 C750 1.779 1_554 S
C1972 C648 1.802 . S
C1983 C784 1.797 1_554 S
C1988 C682 1.766 . S
C1999 C920 1.756 1_556 S
C2004 C818 1.780 . S
C2015 C954 1.791 1_556 S
C2020 C852 1.760 . S
C2031 C988 1.775 1_556 S
C2036 C886 1.756 . S
C2047 C1124 1.801 . S
C2052 C1022 1.774 . S
C2063 C1158 1.764 . S
C2068 C1056 1.796 . S
C2079 C1090 1.801 . S
C2084 C1192 1.785 . S
C2095 C20 1.821 . S
C2100 C564 1.840 . S
C2111 C598 1.820 . S
C2116 C54 1.803 . S
C2127 C88 1.818 . S
C2132 C530 1.802 . S
C2143 C904 1.844 . S
C2148 C122 1.828 . S
C2159 C156 1.844 . S
C2164 C836 1.828 . S
C2175 C870 1.849 . S
C2180 C190 1.845 . S
C2191 C1176 1.809 . S
C2196 C224 1.828 . S
C2207 C258 1.845 . S
C2212 C1210 1.849 . S
C2223 C1142 1.833 . S
C2228 C292 1.814 . S
C2239 C326 1.813 . S
C2244 C700 1.832 . S
C2255 C360 1.815 . S
C2260 C632 1.801 . S
C2271 C666 1.840 . S
C2276 C394 1.849 . S
C2287 C972 1.848 . S
C2292 C428 1.848 . S
C2303 C1006 1.847 . S
C2308 C462 1.848 . S
C2319 C496 1.843 . S
C2324 C938 1.825 . S
C2335 C734 1.846 . S
C2340 C1108 1.830 . S
C2351 C768 1.838 . S
C2356 C1040 1.819 . S
C2367 C1074 1.816 . S
C2372 C802 1.836 . S
C2383 C991 1.046 . S
C2388 C5 1.007 . S
C2399 C923 0.998 . S
C2404 C39 1.053 . S
C2415 C957 1.011 . S
C2420 C73 1.043 . S
C2431 C107 1.053 . S
C2436 C447 0.996 . S
C2447 C141 1.008 . S
C2452 C481 1.045 . S
C2463 C413 1.051 . S
C2468 C175 0.997 . S
C2479 C209 1.013 . S
C2484 C787 1.033 . S
C2495 C719 1.010 . S
C2500 C243 1.044 . S
C2511 C277 1.053 . S
C2516 C753 0.996 . S
C2527 C311 1.005 . S
C2532 C1059 1.048 . S
C2543 C1093 1.053 . S
C2548 C345 0.996 . S
C2559 C379 1.046 . S
C2564 C1025 1.007 . S
C2575 C855 1.053 . S
C2580 C515 0.996 . S
C2591 C549 1.049 . S
C2596 C889 0.999 . S
C2607 C583 0.999 . S
C2612 C821 1.048 . S
C2623 C617 1.050 . S
C2628 C1195 0.998 . S
C2639 C1127 1.025 . S
C2644 C651 1.020 . S
C2655 C1161 0.996 . S
C2660 C685 1.052 . S
