# Generated by pormake.
# Topology umd, (4)-cn, num edge types: 1
# Building blocks:
#     Node 0, Type 0, BuildingBlock: NAWXER_clean_sbu_0, # of connection points: 4
#     Node 1, Type 0, BuildingBlock: NAWXER_clean_sbu_0, # of connection points: 4
#     Node 2, Type 0, BuildingBlock: NAWXER_clean_sbu_0, # of connection points: 4
#     Node 3, Type 0, BuildingBlock: NAWXER_clean_sbu_0, # of connection points: 4
#     Node 4, Type 0, BuildingBlock: NAWXER_clean_sbu_0, # of connection points: 4
#     Node 5, Type 0, BuildingBlock: NAWXER_clean_sbu_0, # of connection points: 4
#     Node 6, Type 0, BuildingBlock: NAWXER_clean_sbu_0, # of connection points: 4
#     Node 7, Type 0, BuildingBlock: NAWXER_clean_sbu_0, # of connection points: 4
#     Node 8, Type 0, BuildingBlock: NAWXER_clean_sbu_0, # of connection points: 4
#     Node 9, Type 0, BuildingBlock: NAWXER_clean_sbu_0, # of connection points: 4
#     Node 10, Type 0, BuildingBlock: NAWXER_clean_sbu_0, # of connection points: 4
#     Node 11, Type 0, BuildingBlock: NAWXER_clean_sbu_0, # of connection points: 4
#     Node 12, Type 0, BuildingBlock: NAWXER_clean_sbu_0, # of connection points: 4
#     Node 13, Type 0, BuildingBlock: NAWXER_clean_sbu_0, # of connection points: 4
#     Node 14, Type 0, BuildingBlock: NAWXER_clean_sbu_0, # of connection points: 4
#     Node 15, Type 0, BuildingBlock: NAWXER_clean_sbu_0, # of connection points: 4
#     Edge 16, Type (0, 0), BuildingBlock: KIFKEQ_clean_linker_1, # of connection points: 2
#     Edge 17, Type (0, 0), BuildingBlock: KIFKEQ_clean_linker_1, # of connection points: 2
#     Edge 18, Type (0, 0), BuildingBlock: KIFKEQ_clean_linker_1, # of connection points: 2
#     Edge 19, Type (0, 0), BuildingBlock: KIFKEQ_clean_linker_1, # of connection points: 2
#     Edge 20, Type (0, 0), BuildingBlock: KIFKEQ_clean_linker_1, # of connection points: 2
#     Edge 21, Type (0, 0), BuildingBlock: KIFKEQ_clean_linker_1, # of connection points: 2
#     Edge 22, Type (0, 0), BuildingBlock: KIFKEQ_clean_linker_1, # of connection points: 2
#     Edge 23, Type (0, 0), BuildingBlock: KIFKEQ_clean_linker_1, # of connection points: 2
#     Edge 24, Type (0, 0), BuildingBlock: KIFKEQ_clean_linker_1, # of connection points: 2
#     Edge 25, Type (0, 0), BuildingBlock: KIFKEQ_clean_linker_1, # of connection points: 2
#     Edge 26, Type (0, 0), BuildingBlock: KIFKEQ_clean_linker_1, # of connection points: 2
#     Edge 27, Type (0, 0), BuildingBlock: KIFKEQ_clean_linker_1, # of connection points: 2
#     Edge 28, Type (0, 0), BuildingBlock: KIFKEQ_clean_linker_1, # of connection points: 2
#     Edge 29, Type (0, 0), BuildingBlock: KIFKEQ_clean_linker_1, # of connection points: 2
#     Edge 30, Type (0, 0), BuildingBlock: KIFKEQ_clean_linker_1, # of connection points: 2
#     Edge 31, Type (0, 0), BuildingBlock: KIFKEQ_clean_linker_1, # of connection points: 2
#     Edge 32, Type (0, 0), BuildingBlock: KIFKEQ_clean_linker_1, # of connection points: 2
#     Edge 33, Type (0, 0), BuildingBlock: KIFKEQ_clean_linker_1, # of connection points: 2
#     Edge 34, Type (0, 0), BuildingBlock: KIFKEQ_clean_linker_1, # of connection points: 2
#     Edge 35, Type (0, 0), BuildingBlock: KIFKEQ_clean_linker_1, # of connection points: 2
#     Edge 36, Type (0, 0), BuildingBlock: KIFKEQ_clean_linker_1, # of connection points: 2
#     Edge 37, Type (0, 0), BuildingBlock: KIFKEQ_clean_linker_1, # of connection points: 2
#     Edge 38, Type (0, 0), BuildingBlock: KIFKEQ_clean_linker_1, # of connection points: 2
#     Edge 39, Type (0, 0), BuildingBlock: KIFKEQ_clean_linker_1, # of connection points: 2
#     Edge 40, Type (0, 0), BuildingBlock: KIFKEQ_clean_linker_1, # of connection points: 2
#     Edge 41, Type (0, 0), BuildingBlock: KIFKEQ_clean_linker_1, # of connection points: 2
#     Edge 42, Type (0, 0), BuildingBlock: KIFKEQ_clean_linker_1, # of connection points: 2
#     Edge 43, Type (0, 0), BuildingBlock: KIFKEQ_clean_linker_1, # of connection points: 2
#     Edge 44, Type (0, 0), BuildingBlock: KIFKEQ_clean_linker_1, # of connection points: 2
#     Edge 45, Type (0, 0), BuildingBlock: KIFKEQ_clean_linker_1, # of connection points: 2
#     Edge 46, Type (0, 0), BuildingBlock: KIFKEQ_clean_linker_1, # of connection points: 2
#     Edge 47, Type (0, 0), BuildingBlock: KIFKEQ_clean_linker_1, # of connection points: 2
# Relax obj value: 0.021
# Max RMSD: 0.190
# Mean RMSD: 0.190
data_MOF--net-umd--node1-NAWXER_clean_sbu_0--edge1-KIFKEQ_clean_linker_1
_symmetry_space_group_name_H-M    P1
_symmetry_Int_Tables_number       1
_symmetry_cell_setting            triclinic
loop_
_symmetry_equiv_pos_as_xyz
'x, y, z'
_cell_length_a     41.065972
_cell_length_b     41.062914
_cell_length_c     58.970351
_cell_angle_alpha  89.978396
_cell_angle_beta   90.037686
_cell_angle_gamma 90.012631
loop_
_atom_site_label
_atom_site_type_symbol
_atom_site_fract_x
_atom_site_fract_y
_atom_site_fract_z
_atom_type_partial_charge
C0 C 0.11455 0.45289 0.1402 0.0
C1 C 0.21296 0.38782 0.14293 0.0
O2 O 0.11763 0.42231 0.14241 0.0
Zn3 Zn 0.16409 0.42107 0.14165 0.0
O4 O 0.14005 0.47082 0.13829 0.0
Zn5 Zn 0.19241 0.46304 0.13735 0.0
O6 O 0.20434 0.47856 0.1077 0.0
O7 O 0.17413 0.43415 0.10687 0.0
O8 O 0.21974 0.41806 0.14 0.0
O9 O 0.18348 0.37908 0.14487 0.0
O10 O 0.17784 0.44537 0.17268 0.0
O11 O 0.20733 0.48799 0.1629 0.0
C12 C 0.18976 0.45665 0.09639 0.0
C13 C 0.19436 0.47067 0.17827 0.0
C14 C 0.54807 0.19074 0.59425 0.0
C15 C 0.5353 0.19461 0.67625 0.0
O16 O 0.52568 0.2042 0.60574 0.0
Zn17 Zn 0.542 0.19247 0.63523 0.0
O18 O 0.57105 0.17552 0.60453 0.0
Zn19 Zn 0.58437 0.16474 0.63918 0.0
O20 O 0.58327 0.11818 0.64032 0.0
O21 O 0.53473 0.14015 0.63577 0.0
O22 O 0.56085 0.17864 0.67046 0.0
O23 O 0.51724 0.20685 0.66099 0.0
O24 O 0.58693 0.22035 0.63788 0.0
O25 O 0.62631 0.18418 0.64156 0.0
C26 C 0.55277 0.11478 0.63788 0.0
C27 C 0.61734 0.21367 0.64011 0.0
C28 C 0.81032 0.53702 0.17637 0.0
C29 C 0.815 0.54887 0.0943 0.0
O30 O 0.79744 0.51926 0.16119 0.0
Zn31 Zn 0.81226 0.54358 0.13543 0.0
O32 O 0.82678 0.56225 0.17048 0.0
Zn33 Zn 0.8407 0.5856 0.13897 0.0
O34 O 0.82142 0.62778 0.14093 0.0
O35 O 0.78498 0.58857 0.13803 0.0
O36 O 0.83082 0.57146 0.10451 0.0
O37 O 0.80014 0.52746 0.10587 0.0
O38 O 0.8646 0.53568 0.13667 0.0
O39 O 0.88715 0.58429 0.13984 0.0
C40 C 0.79186 0.61896 0.13991 0.0
C41 C 0.89014 0.55362 0.13828 0.0
C42 C 0.45589 0.81509 0.59504 0.0
C43 C 0.46994 0.81005 0.67696 0.0
O44 O 0.47751 0.80004 0.60633 0.0
Zn45 Zn 0.4623 0.81219 0.63601 0.0
O46 O 0.43362 0.83097 0.60556 0.0
Zn47 Zn 0.42034 0.84047 0.64036 0.0
O48 O 0.42177 0.88692 0.64192 0.0
O49 O 0.47002 0.86459 0.63655 0.0
O50 O 0.44442 0.82625 0.6714 0.0
O51 O 0.48753 0.79758 0.66155 0.0
O52 O 0.41742 0.78473 0.63907 0.0
O53 O 0.37823 0.82103 0.64276 0.0
C54 C 0.45223 0.89009 0.63904 0.0
C55 C 0.38707 0.7915 0.6414 0.0
C56 C 0.19502 0.53581 0.34304 0.0
C57 C 0.19016 0.54907 0.42498 0.0
O58 O 0.20754 0.51809 0.35838 0.0
Zn59 Zn 0.19293 0.54306 0.38399 0.0
O60 O 0.17881 0.56127 0.3487 0.0
Zn61 Zn 0.16463 0.58503 0.37983 0.0
O62 O 0.18394 0.62715 0.37758 0.0
O63 O 0.22033 0.58799 0.38107 0.0
O64 O 0.17424 0.57145 0.41457 0.0
O65 O 0.20515 0.52756 0.41359 0.0
O66 O 0.14054 0.53534 0.38334 0.0
O67 O 0.11824 0.58368 0.37827 0.0
C68 C 0.21348 0.61834 0.37886 0.0
C69 C 0.11506 0.55318 0.38094 0.0
C70 C 0.45694 0.19045 0.92316 0.0
C71 C 0.47147 0.19495 0.84129 0.0
O72 O 0.47887 0.20508 0.91191 0.0
Zn73 Zn 0.46361 0.193 0.88229 0.0
O74 O 0.43452 0.17473 0.91261 0.0
Zn75 Zn 0.42159 0.16488 0.87765 0.0
O76 O 0.42279 0.11843 0.87627 0.0
O77 O 0.47109 0.14055 0.88188 0.0
O78 O 0.44599 0.17872 0.84683 0.0
O79 O 0.48892 0.20762 0.85671 0.0
O80 O 0.41873 0.22055 0.87955 0.0
O81 O 0.37968 0.18444 0.87436 0.0
C82 C 0.4532 0.11513 0.87934 0.0
C83 C 0.38849 0.21389 0.87646 0.0
C84 C 0.8154 0.45507 0.42279 0.0
C85 C 0.81099 0.47106 0.34105 0.0
O86 O 0.80071 0.47711 0.41168 0.0
Zn87 Zn 0.81286 0.46241 0.38197 0.0
O88 O 0.8312 0.43286 0.41211 0.0
Zn89 Zn 0.8411 0.42057 0.37704 0.0
O90 O 0.88753 0.42193 0.37572 0.0
O91 O 0.86525 0.47005 0.38172 0.0
O92 O 0.82725 0.44551 0.34639 0.0
O93 O 0.79825 0.48818 0.35661 0.0
O94 O 0.78548 0.4175 0.37885 0.0
O95 O 0.8217 0.37865 0.37341 0.0
C96 C 0.89072 0.45229 0.37907 0.0
C97 C 0.79223 0.38734 0.37555 0.0
C98 C 0.53575 0.81029 0.84171 0.0
C99 C 0.54946 0.81541 0.92363 0.0
O100 O 0.51809 0.79786 0.85711 0.0
Zn101 Zn 0.54323 0.8125 0.88266 0.0
O102 O 0.56126 0.82648 0.84729 0.0
Zn103 Zn 0.58523 0.84072 0.87836 0.0
O104 O 0.62733 0.82128 0.87608 0.0
O105 O 0.5881 0.785 0.87975 0.0
O106 O 0.5718 0.83126 0.91316 0.0
O107 O 0.52786 0.80039 0.91231 0.0
O108 O 0.5356 0.86493 0.88203 0.0
O109 O 0.58393 0.88716 0.87676 0.0
C110 C 0.61846 0.79176 0.87747 0.0
C111 C 0.55347 0.89039 0.87956 0.0
C112 C 0.81415 0.54841 0.92291 0.0
C113 C 0.81035 0.53411 0.84103 0.0
O114 O 0.82928 0.57131 0.91246 0.0
Zn115 Zn 0.84021 0.58384 0.87758 0.0
O116 O 0.80077 0.52575 0.9116 0.0
Zn117 Zn 0.8124 0.54158 0.88206 0.0
O118 O 0.86466 0.53425 0.88175 0.0
O119 O 0.8868 0.58259 0.87656 0.0
O120 O 0.79788 0.51642 0.8564 0.0
O121 O 0.82647 0.55962 0.84667 0.0
O122 O 0.82071 0.62565 0.87409 0.0
O123 O 0.78464 0.58654 0.87936 0.0
C124 C 0.89009 0.55215 0.87946 0.0
C125 C 0.79127 0.61679 0.8762 0.0
C126 C 0.47017 0.81189 0.34178 0.0
C127 C 0.45545 0.81555 0.42362 0.0
O128 O 0.44446 0.82773 0.34732 0.0
Zn129 Zn 0.41992 0.84119 0.37819 0.0
O130 O 0.48788 0.79959 0.3572 0.0
Zn131 Zn 0.46243 0.81383 0.38277 0.0
O132 O 0.4178 0.7856 0.38 0.0
O133 O 0.37837 0.82129 0.37461 0.0
O134 O 0.47825 0.80239 0.41235 0.0
O135 O 0.43242 0.83044 0.41312 0.0
O136 O 0.4206 0.88777 0.37712 0.0
O137 O 0.46916 0.86616 0.38243 0.0
C138 C 0.38751 0.79194 0.37677 0.0
C139 C 0.45099 0.89138 0.38008 0.0
C140 C 0.1903 0.45566 0.92501 0.0
C141 C 0.19445 0.46878 0.84306 0.0
O142 O 0.17511 0.4327 0.9147 0.0
Zn143 Zn 0.16446 0.41952 0.88002 0.0
O144 O 0.20385 0.47806 0.91356 0.0
Zn145 Zn 0.19222 0.46189 0.88403 0.0
O146 O 0.13996 0.46921 0.88339 0.0
O147 O 0.11788 0.42072 0.87878 0.0
O148 O 0.20668 0.48677 0.85836 0.0
O149 O 0.17846 0.44321 0.8488 0.0
O150 O 0.18395 0.37757 0.87759 0.0
O151 O 0.22007 0.417 0.88127 0.0
C152 C 0.11456 0.45123 0.88122 0.0
C153 C 0.21343 0.38659 0.87898 0.0
C154 C 0.54851 0.19138 0.42286 0.0
C155 C 0.53585 0.19439 0.34078 0.0
O156 O 0.57066 0.17495 0.41265 0.0
Zn157 Zn 0.58454 0.16463 0.37815 0.0
O158 O 0.52748 0.20682 0.41128 0.0
Zn159 Zn 0.54309 0.19397 0.38177 0.0
O160 O 0.5345 0.14146 0.38156 0.0
O161 O 0.58268 0.11835 0.37734 0.0
O162 O 0.51904 0.20898 0.35571 0.0
O163 O 0.56052 0.1773 0.34685 0.0
O164 O 0.62697 0.18354 0.37564 0.0
O165 O 0.58832 0.22045 0.37891 0.0
C166 C 0.55207 0.11567 0.37968 0.0
C167 C 0.61856 0.21321 0.37676 0.0
C168 C 0.81071 0.47033 0.67605 0.0
C169 C 0.81517 0.45527 0.59423 0.0
O170 O 0.82666 0.44466 0.67057 0.0
Zn171 Zn 0.8405 0.42008 0.63983 0.0
O172 O 0.7985 0.48802 0.66057 0.0
Zn173 Zn 0.81305 0.46254 0.63507 0.0
O174 O 0.78491 0.41786 0.63786 0.0
O175 O 0.82059 0.37847 0.64341 0.0
O176 O 0.80189 0.47814 0.60537 0.0
O177 O 0.83 0.43234 0.60486 0.0
O178 O 0.88711 0.42105 0.64112 0.0
O179 O 0.86533 0.46951 0.63574 0.0
C180 C 0.79125 0.38758 0.64117 0.0
C181 C 0.89062 0.45147 0.63823 0.0
C182 C 0.61752 0.79224 0.1419 0.0
C183 C 0.55341 0.89129 0.13849 0.0
O184 O 0.58726 0.78573 0.13868 0.0
Zn185 Zn 0.54247 0.81366 0.13589 0.0
O186 O 0.6265 0.82164 0.14406 0.0
Zn187 Zn 0.58482 0.84131 0.14048 0.0
O188 O 0.56035 0.82773 0.17134 0.0
O189 O 0.5171 0.7993 0.16149 0.0
O190 O 0.58381 0.8879 0.1415 0.0
O191 O 0.53541 0.86593 0.13616 0.0
O192 O 0.52674 0.80212 0.10632 0.0
O193 O 0.5724 0.83047 0.10556 0.0
C194 C 0.53474 0.81174 0.1769 0.0
C195 C 0.54948 0.81543 0.09505 0.0
C196 C 0.19107 0.5485 0.59636 0.0
C197 C 0.19485 0.53329 0.67815 0.0
O198 O 0.17602 0.57134 0.60691 0.0
Zn199 Zn 0.16522 0.58356 0.64185 0.0
O200 O 0.20447 0.52574 0.60757 0.0
Zn201 Zn 0.19295 0.54131 0.63718 0.0
O202 O 0.14067 0.53407 0.63747 0.0
O203 O 0.11862 0.58239 0.64286 0.0
O204 O 0.20738 0.5158 0.66271 0.0
O205 O 0.17882 0.5589 0.67264 0.0
O206 O 0.18483 0.62529 0.64552 0.0
O207 O 0.22081 0.58619 0.64002 0.0
C208 C 0.11528 0.55198 0.63984 0.0
C209 C 0.21425 0.61642 0.64331 0.0
C210 C 0.45187 0.11536 0.1375 0.0
C211 C 0.38621 0.21339 0.14093 0.0
O212 O 0.46963 0.14102 0.13579 0.0
Zn213 Zn 0.46161 0.19339 0.13562 0.0
O214 O 0.42127 0.11826 0.13971 0.0
Zn215 Zn 0.41971 0.16469 0.13927 0.0
O216 O 0.43279 0.17617 0.10476 0.0
O217 O 0.47762 0.2057 0.10612 0.0
O218 O 0.37756 0.18379 0.1422 0.0
O219 O 0.4165 0.2204 0.13855 0.0
O220 O 0.48587 0.20815 0.16163 0.0
O221 O 0.44395 0.17708 0.17057 0.0
C222 C 0.45548 0.19189 0.09456 0.0
C223 C 0.46885 0.19387 0.1766 0.0
H224 H 0.09814 0.51589 0.14943 0.0
H225 H 0.05703 0.42324 0.12996 0.0
H226 H 0.04397 0.53995 0.14951 0.0
H227 H 0.00306 0.44753 0.12872 0.0
H228 H 0.90644 0.49134 0.14971 0.0
H229 H 0.9606 0.46726 0.15075 0.0
H230 H 1.00161 0.55797 0.12666 0.0
H231 H 0.94766 0.58237 0.12695 0.0
C232 C 0.0775 0.50077 0.14491 0.0
C233 C 0.08178 0.46769 0.13976 0.0
C234 C 0.0464 0.5146 0.1448 0.0
C235 C 0.0189 0.49579 0.13908 0.0
C236 C 0.02341 0.4627 0.13368 0.0
C237 C 0.05443 0.44877 0.13423 0.0
C238 C 0.9271 0.50606 0.14466 0.0
C239 C 0.92287 0.53873 0.13832 0.0
C240 C 0.95819 0.49223 0.1451 0.0
C241 C 0.98572 0.51057 0.13877 0.0
C242 C 0.98124 0.5432 0.13213 0.0
C243 C 0.95024 0.55719 0.13214 0.0
H244 H 0.42386 0.94786 0.65067 0.0
H245 H 0.51411 0.90664 0.62634 0.0
H246 H 0.44828 1.00184 0.65038 0.0
H247 H 0.53823 0.96084 0.62524 0.0
H248 H 0.5819 0.0571 0.64893 0.0
H249 H 0.55764 0.00303 0.64924 0.0
H250 H 0.46657 0.04369 0.62573 0.0
H251 H 0.49056 0.09794 0.62624 0.0
C252 C 0.44886 0.95036 0.64508 0.0
C253 C 0.46706 0.92294 0.63857 0.0
C254 C 0.46282 0.98138 0.64477 0.0
C255 C 0.49525 0.98581 0.63774 0.0
C256 C 0.51338 0.95833 0.6311 0.0
C257 C 0.49949 0.92725 0.63161 0.0
C258 C 0.5567 0.0545 0.64381 0.0
C259 C 0.53814 0.08184 0.63761 0.0
C260 C 0.54282 0.02343 0.64385 0.0
C261 C 0.51011 0.01889 0.63749 0.0
C262 C 0.49165 0.04628 0.6311 0.0
C263 C 0.50546 0.0774 0.63126 0.0
H264 H 0.09849 0.49089 0.39264 0.0
H265 H 0.05735 0.58201 0.36973 0.0
H266 H 0.04431 0.46669 0.39309 0.0
H267 H 0.00339 0.55755 0.3694 0.0
H268 H 0.90721 0.51395 0.39227 0.0
H269 H 0.96138 0.53807 0.39364 0.0
H270 H 1.00253 0.44837 0.36816 0.0
H271 H 0.94855 0.42395 0.36757 0.0
C272 C 0.0779 0.5057 0.38756 0.0
C273 C 0.08222 0.53837 0.38116 0.0
C274 C 0.04684 0.49178 0.3877 0.0
C275 C 0.01941 0.51014 0.38125 0.0
C276 C 0.02383 0.54283 0.37484 0.0
C277 C 0.05484 0.55681 0.37488 0.0
C278 C 0.92784 0.49938 0.387 0.0
C279 C 0.92357 0.46704 0.37982 0.0
C280 C 0.95891 0.51326 0.38766 0.0
C281 C 0.98639 0.4952 0.38098 0.0
C282 C 0.98204 0.46284 0.37379 0.0
C283 C 0.95102 0.44889 0.37331 0.0
H284 H 0.58224 0.94813 0.8683 0.0
H285 H 0.49139 0.90705 0.89168 0.0
H286 H 0.55796 1.00216 0.86835 0.0
H287 H 0.46737 0.96129 0.89253 0.0
H288 H 0.42444 0.05743 0.86793 0.0
H289 H 0.44868 0.00338 0.86806 0.0
H290 H 0.53905 0.04408 0.89283 0.0
H291 H 0.51509 0.09835 0.8919 0.0
C292 C 0.55714 0.95067 0.87363 0.0
C293 C 0.53873 0.92327 0.87994 0.0
C294 C 0.54325 0.98172 0.87381 0.0
C295 C 0.51068 0.98619 0.88048 0.0
C296 C 0.49235 0.95875 0.88694 0.0
C297 C 0.50617 0.92764 0.88658 0.0
C298 C 0.44949 0.05485 0.87342 0.0
C299 C 0.46787 0.08222 0.87985 0.0
C300 C 0.46335 0.02379 0.87363 0.0
C301 C 0.49585 0.01927 0.88048 0.0
C302 C 0.51413 0.04667 0.8871 0.0
C303 C 0.50034 0.07779 0.88669 0.0
H304 H 0.90657 0.49031 0.89223 0.0
H305 H 0.94798 0.58068 0.86819 0.0
H306 H 0.96071 0.46617 0.89348 0.0
H307 H 1.00196 0.55623 0.86863 0.0
H308 H 0.09789 0.51346 0.89288 0.0
H309 H 0.04374 0.53765 0.89327 0.0
H310 H 0.00286 0.44681 0.86953 0.0
H311 H 0.05683 0.42235 0.86996 0.0
C312 C 0.92722 0.50496 0.88706 0.0
C313 C 0.92297 0.53742 0.88012 0.0
C314 C 0.95827 0.49106 0.88765 0.0
C315 C 0.9858 0.50919 0.88112 0.0
C316 C 0.98145 0.54167 0.87415 0.0
C317 C 0.95044 0.55565 0.87375 0.0
C318 C 0.07732 0.49865 0.88778 0.0
C319 C 0.08167 0.46598 0.88141 0.0
C320 C 0.04626 0.51258 0.88787 0.0
C321 C 0.01884 0.49424 0.88139 0.0
C322 C 0.02328 0.46154 0.87499 0.0
C323 C 0.05429 0.44754 0.8751 0.0
H324 H 0.48957 0.09984 0.39145 0.0
H325 H 0.58027 0.05762 0.36883 0.0
H326 H 0.465 0.04578 0.39251 0.0
H327 H 0.5555 0.00387 0.36907 0.0
H328 H 0.51251 0.90846 0.39307 0.0
H329 H 0.53635 0.96273 0.39391 0.0
H330 H 0.44621 0.00311 0.36849 0.0
H331 H 0.42203 0.94896 0.36848 0.0
C332 C 0.50419 0.07904 0.38656 0.0
C333 C 0.53688 0.08301 0.38011 0.0
C334 C 0.49007 0.04805 0.38704 0.0
C335 C 0.50825 0.02038 0.3809 0.0
C336 C 0.54091 0.02449 0.37433 0.0
C337 C 0.55508 0.05539 0.37405 0.0
C338 C 0.49777 0.92894 0.38771 0.0
C339 C 0.4654 0.92439 0.38068 0.0
C340 C 0.51149 0.96007 0.38806 0.0
C341 C 0.49328 0.98736 0.38117 0.0
C342 C 0.46083 0.98276 0.37423 0.0
C343 C 0.44701 0.95166 0.37408 0.0
H344 H 0.94825 0.42252 0.64967 0.0
H345 H 0.90752 0.51345 0.62609 0.0
H346 H 1.0023 0.44686 0.64999 0.0
H347 H 0.96173 0.5375 0.62563 0.0
H348 H 0.05737 0.58062 0.6509 0.0
H349 H 0.00336 0.55621 0.65042 0.0
H350 H 0.04459 0.46599 0.62592 0.0
H351 H 0.09876 0.4901 0.62719 0.0
C352 C 0.95088 0.44764 0.64436 0.0
C353 C 0.92357 0.46607 0.63791 0.0
C354 C 0.98193 0.46157 0.64441 0.0
C355 C 0.98647 0.49419 0.63783 0.0
C356 C 0.95912 0.5125 0.63117 0.0
C357 C 0.92803 0.49865 0.63131 0.0
C358 C 0.05491 0.55557 0.6454 0.0
C359 C 0.08238 0.53728 0.63914 0.0
C360 C 0.02388 0.54161 0.64498 0.0
C361 C 0.01952 0.5091 0.6381 0.0
C362 C 0.04704 0.49091 0.63167 0.0
C363 C 0.07811 0.50479 0.63227 0.0
H364 H 0.51441 0.09936 0.12608 0.0
H365 H 0.42332 0.05732 0.14817 0.0
H366 H 0.53895 0.04533 0.1254 0.0
H367 H 0.44809 0.00355 0.14832 0.0
H368 H 0.49189 0.90792 0.12521 0.0
H369 H 0.46778 0.96206 0.12402 0.0
H370 H 0.55744 0.00309 0.14977 0.0
H371 H 0.58188 0.94908 0.15013 0.0
C372 C 0.49968 0.07861 0.13092 0.0
C373 C 0.46691 0.08263 0.13714 0.0
C374 C 0.5138 0.04763 0.13066 0.0
C375 C 0.49554 0.01999 0.13681 0.0
C376 C 0.46276 0.02414 0.14309 0.0
C377 C 0.44858 0.05504 0.14314 0.0
C378 C 0.50646 0.92852 0.13058 0.0
C379 C 0.53879 0.9242 0.13778 0.0
C380 C 0.49258 0.95957 0.13003 0.0
C381 C 0.5106 0.98702 0.13688 0.0
C382 C 0.54298 0.98263 0.14404 0.0
C383 C 0.55696 0.95161 0.14438 0.0
H384 H 0.21849 0.4789 0.32526 0.0
H385 H 0.17837 0.57223 0.30604 0.0
H386 H 0.22093 0.46314 0.28536 0.0
H387 H 0.18075 0.55635 0.26623 0.0
H388 H 0.21847 0.52746 0.1959 0.0
H389 H 0.2213 0.54335 0.23577 0.0
H390 H 0.17986 0.45078 0.25513 0.0
H391 H 0.17708 0.43478 0.21536 0.0
C392 C 0.21039 0.49612 0.31254 0.0
C393 C 0.19813 0.52678 0.31884 0.0
C394 C 0.21164 0.48702 0.28971 0.0
C395 C 0.20097 0.50849 0.27269 0.0
C396 C 0.18943 0.53941 0.27895 0.0
C397 C 0.18789 0.54841 0.30177 0.0
C398 C 0.21015 0.51041 0.20867 0.0
C399 C 0.19746 0.47989 0.20245 0.0
C400 C 0.21163 0.51959 0.23148 0.0
C401 C 0.20077 0.49832 0.24855 0.0
C402 C 0.18871 0.46756 0.24236 0.0
C403 C 0.18694 0.4585 0.21956 0.0
H404 H 0.57203 0.17785 0.71311 0.0
H405 H 0.47877 0.21852 0.6943 0.0
H406 H 0.55664 0.18058 0.75301 0.0
H407 H 0.46352 0.22134 0.73426 0.0
H408 H 0.43525 0.17817 0.80428 0.0
H409 H 0.45106 0.18068 0.76451 0.0
H410 H 0.54423 0.22102 0.78361 0.0
H411 H 0.52851 0.21842 0.82355 0.0
C412 C 0.54833 0.18756 0.71748 0.0
C413 C 0.52657 0.19784 0.70051 0.0
C414 C 0.53962 0.18931 0.74036 0.0
C415 C 0.50886 0.20111 0.74676 0.0
C416 C 0.48727 0.21184 0.72982 0.0
C417 C 0.49609 0.21036 0.70695 0.0
C418 C 0.45906 0.18773 0.80004 0.0
C419 C 0.48066 0.19801 0.8171 0.0
C420 C 0.46802 0.18935 0.77722 0.0
C421 C 0.49888 0.20104 0.77095 0.0
C422 C 0.52039 0.21165 0.78797 0.0
C423 C 0.5113 0.21031 0.81082 0.0
H424 H 0.78572 0.48077 0.19438 0.0
H425 H 0.82827 0.57317 0.21325 0.0
H426 H 0.78332 0.46514 0.23428 0.0
H427 H 0.8259 0.55739 0.25313 0.0
H428 H 0.78813 0.52867 0.32381 0.0
H429 H 0.78545 0.54509 0.28398 0.0
H430 H 0.82456 0.45178 0.26409 0.0
H431 H 0.8272 0.4353 0.30375 0.0
C432 C 0.79437 0.49783 0.20703 0.0
C433 C 0.80731 0.52818 0.20062 0.0
C434 C 0.79313 0.48879 0.22987 0.0
C435 C 0.8045 0.51001 0.24681 0.0
C436 C 0.8167 0.54065 0.24046 0.0
C437 C 0.81823 0.54959 0.21761 0.0
C438 C 0.79596 0.5116 0.31092 0.0
C439 C 0.80794 0.48071 0.31695 0.0
C440 C 0.79458 0.52108 0.28815 0.0
C441 C 0.8048 0.49972 0.27094 0.0
C442 C 0.8162 0.46864 0.27696 0.0
C443 C 0.81789 0.45929 0.2997 0.0
H444 H 0.47884 0.78644 0.82408 0.0
H445 H 0.57183 0.82703 0.80458 0.0
H446 H 0.46288 0.78368 0.78421 0.0
H447 H 0.55576 0.82434 0.76481 0.0
H448 H 0.52693 0.78638 0.69459 0.0
H449 H 0.54295 0.78375 0.73445 0.0
H450 H 0.45001 0.82421 0.75385 0.0
H451 H 0.43389 0.82677 0.71408 0.0
C452 C 0.49595 0.79459 0.8113 0.0
C453 C 0.52657 0.80705 0.81752 0.0
C454 C 0.48673 0.79315 0.78849 0.0
C455 C 0.50805 0.80385 0.7714 0.0
C456 C 0.53893 0.81563 0.77758 0.0
C457 C 0.54804 0.81734 0.80039 0.0
C458 C 0.50983 0.79451 0.70736 0.0
C459 C 0.47917 0.80688 0.70115 0.0
C460 C 0.51908 0.79315 0.73017 0.0
C461 C 0.49776 0.80382 0.74726 0.0
C462 C 0.46685 0.81552 0.74108 0.0
C463 C 0.4577 0.81716 0.71828 0.0
H464 H 0.82725 0.57055 0.80415 0.0
H465 H 0.78629 0.47747 0.8231 0.0
H466 H 0.8245 0.55505 0.7643 0.0
H467 H 0.78342 0.46208 0.78313 0.0
H468 H 0.82685 0.43383 0.71306 0.0
H469 H 0.82394 0.44945 0.75286 0.0
H470 H 0.78417 0.54286 0.73373 0.0
H471 H 0.78719 0.52733 0.69378 0.0
C472 C 0.81747 0.54686 0.79982 0.0
C473 C 0.80712 0.52518 0.81682 0.0
C474 C 0.8157 0.53808 0.77696 0.0
C475 C 0.80378 0.50735 0.7706 0.0
C476 C 0.793 0.48583 0.78755 0.0
C477 C 0.7945 0.49471 0.81043 0.0
C478 C 0.81732 0.45765 0.71731 0.0
C479 C 0.80737 0.47939 0.70023 0.0
C480 C 0.81546 0.4665 0.74014 0.0
C481 C 0.80385 0.49738 0.74641 0.0
C482 C 0.79349 0.51899 0.72937 0.0
C483 C 0.79508 0.51003 0.70652 0.0
H484 H 0.52714 0.78838 0.32405 0.0
H485 H 0.43384 0.82847 0.30475 0.0
H486 H 0.54279 0.78555 0.28413 0.0
H487 H 0.44959 0.82576 0.26495 0.0
H488 H 0.47785 0.78803 0.19467 0.0
H489 H 0.4622 0.7853 0.2346 0.0
H490 H 0.55525 0.82594 0.25369 0.0
H491 H 0.57101 0.82856 0.2139 0.0
C492 C 0.50992 0.79642 0.31132 0.0
C493 C 0.47929 0.80876 0.31759 0.0
C494 C 0.51894 0.79494 0.28847 0.0
C495 C 0.49743 0.80547 0.27143 0.0
C496 C 0.46657 0.81715 0.27768 0.0
C497 C 0.45764 0.81889 0.30051 0.0
C498 C 0.49505 0.79618 0.20739 0.0
C499 C 0.52563 0.80862 0.20109 0.0
C500 C 0.48601 0.79476 0.23024 0.0
C501 C 0.50749 0.80544 0.24726 0.0
C502 C 0.53831 0.81722 0.24098 0.0
C503 C 0.54723 0.81891 0.21816 0.0
H504 H 0.21854 0.52533 0.82511 0.0
H505 H 0.17762 0.43223 0.80615 0.0
H506 H 0.2214 0.54076 0.78517 0.0
H507 H 0.18037 0.4478 0.76628 0.0
H508 H 0.21817 0.47612 0.6958 0.0
H509 H 0.2208 0.46024 0.73571 0.0
H510 H 0.18075 0.55344 0.75495 0.0
H511 H 0.17822 0.56941 0.7152 0.0
C512 C 0.21033 0.50809 0.81244 0.0
C513 C 0.19773 0.4776 0.81882 0.0
C514 C 0.21183 0.517 0.78958 0.0
C515 C 0.20104 0.49551 0.77261 0.0
C516 C 0.18916 0.46475 0.77896 0.0
C517 C 0.1874 0.45593 0.80182 0.0
C518 C 0.21012 0.49329 0.70856 0.0
C519 C 0.1979 0.52399 0.70232 0.0
C520 C 0.21149 0.48412 0.73139 0.0
C521 C 0.20097 0.50559 0.74844 0.0
C522 C 0.18936 0.5365 0.74222 0.0
C523 C 0.18772 0.54556 0.71941 0.0
H524 H 0.5499 0.15024 0.30787 0.0
H525 H 0.50066 0.24178 0.31915 0.0
H526 H 0.53307 0.15133 0.2681 0.0
H527 H 0.48461 0.24317 0.27903 0.0
H528 H 0.50455 0.24106 0.19799 0.0
H529 H 0.5205 0.24273 0.23812 0.0
H530 H 0.47089 0.1516 0.24954 0.0
H531 H 0.45415 0.15024 0.20975 0.0
C532 C 0.53576 0.17073 0.3018 0.0
C533 C 0.52654 0.19592 0.3166 0.0
C534 C 0.52606 0.17126 0.27911 0.0
C535 C 0.50761 0.19732 0.27066 0.0
C536 C 0.49894 0.2229 0.28524 0.0
C537 C 0.508 0.22201 0.30813 0.0
C538 C 0.49694 0.2215 0.20912 0.0
C539 C 0.47811 0.19553 0.20078 0.0
C540 C 0.50593 0.22255 0.23201 0.0
C541 C 0.49691 0.19726 0.24674 0.0
C542 C 0.47817 0.17131 0.23843 0.0
C543 C 0.46853 0.17063 0.21572 0.0
H544 H 0.17812 0.4052 0.95377 0.0
H545 H 0.20557 0.50672 0.95288 0.0
H546 H 0.17949 0.40543 0.99497 0.0
H547 H 0.20548 0.5075 0.99422 0.0
H548 H 0.23113 0.49043 0.0686 0.0
H549 H 0.23269 0.48988 0.02725 0.0
H550 H 0.15028 0.42429 0.02634 0.0
H551 H 0.14981 0.42374 0.06752 0.0
C552 C 0.18421 0.42767 0.96241 0.0
C553 C 0.19165 0.45596 0.95008 0.0
C554 C 0.18479 0.42789 0.98608 0.0
C555 C 0.19232 0.45657 0.99806 0.0
C556 C 0.2 0.48484 0.98565 0.0
C557 C 0.19988 0.48448 0.96192 0.0
C558 C 0.21341 0.47588 0.05951 0.0
C559 C 0.19046 0.457 0.07132 0.0
C560 C 0.21416 0.47569 0.03579 0.0
C561 C 0.19168 0.45695 0.02333 0.0
C562 C 0.16847 0.43845 0.03526 0.0
C563 C 0.16803 0.43828 0.05893 0.0
H564 H 0.57975 0.15038 0.45187 0.0
H565 H 0.51507 0.2333 0.45054 0.0
H566 H 0.57865 0.15063 0.49302 0.0
H567 H 0.51506 0.23455 0.49193 0.0
H568 H 0.49727 0.20705 0.56634 0.0
H569 H 0.49661 0.20734 0.52497 0.0
H570 H 0.59823 0.17973 0.52434 0.0
H571 H 0.59836 0.17805 0.56551 0.0
C572 C 0.56552 0.1689 0.4604 0.0
C573 C 0.54758 0.19189 0.44794 0.0
C574 C 0.56505 0.1692 0.48406 0.0
C575 C 0.54701 0.1928 0.49593 0.0
C576 C 0.52892 0.21576 0.48342 0.0
C577 C 0.52906 0.21518 0.45968 0.0
C578 C 0.51944 0.20108 0.55731 0.0
C579 C 0.5478 0.1923 0.56918 0.0
C580 C 0.51914 0.20142 0.53358 0.0
C581 C 0.54731 0.19336 0.5212 0.0
C582 C 0.57583 0.18531 0.5332 0.0
C583 C 0.576 0.18455 0.55687 0.0
H584 H 0.77344 0.51484 0.06671 0.0
H585 H 0.85524 0.58093 0.06522 0.0
H586 H 0.77174 0.51503 0.02534 0.0
H587 H 0.8546 0.58004 0.02405 0.0
H588 H 0.79864 0.49763 0.95096 0.0
H589 H 0.79878 0.49708 0.99229 0.0
H590 H 0.8252 0.59904 0.99272 0.0
H591 H 0.8265 0.59905 0.95151 0.0
C592 C 0.79124 0.52917 0.05753 0.0
C593 C 0.81435 0.54801 0.06922 0.0
C594 C 0.79041 0.52916 0.0338 0.0
C595 C 0.81294 0.54768 0.02124 0.0
C596 C 0.83635 0.56608 0.03306 0.0
C597 C 0.83689 0.56642 0.05672 0.0
C598 C 0.80443 0.51991 0.95992 0.0
C599 C 0.81276 0.54833 0.94798 0.0
C600 C 0.80433 0.51967 0.98365 0.0
C601 C 0.81217 0.54797 0.99596 0.0
C602 C 0.81978 0.57656 0.9839 0.0
C603 C 0.82032 0.57666 0.96022 0.0
H604 H 0.4895 0.77381 0.56711 0.0
H605 H 0.42314 0.85539 0.56628 0.0
H606 H 0.48894 0.77254 0.52577 0.0
H607 H 0.42367 0.85517 0.52508 0.0
H608 H 0.40478 0.82778 0.45224 0.0
H609 H 0.40481 0.82624 0.49347 0.0
H610 H 0.50682 0.8001 0.49297 0.0
H611 H 0.50626 0.8002 0.45166 0.0
C612 C 0.47502 0.79165 0.55808 0.0
C613 C 0.45626 0.8146 0.56996 0.0
C614 C 0.47483 0.79107 0.53436 0.0
C615 C 0.45618 0.8137 0.52196 0.0
C616 C 0.43776 0.83689 0.53396 0.0
C617 C 0.43762 0.83718 0.55763 0.0
C618 C 0.42719 0.82161 0.46095 0.0
C619 C 0.45553 0.81417 0.44869 0.0
C620 C 0.42729 0.82094 0.48463 0.0
C621 C 0.45589 0.81328 0.49668 0.0
C622 C 0.48421 0.80564 0.48435 0.0
C623 C 0.48397 0.80589 0.46063 0.0
H624 H 0.23175 0.5154 0.45268 0.0
H625 H 0.14993 0.58144 0.45395 0.0
H626 H 0.23338 0.51571 0.49401 0.0
H627 H 0.15051 0.58066 0.49514 0.0
H628 H 0.17851 0.59929 0.56788 0.0
H629 H 0.1797 0.59948 0.52665 0.0
H630 H 0.2062 0.49755 0.52688 0.0
H631 H 0.20645 0.49789 0.56819 0.0
C632 C 0.21393 0.52975 0.4618 0.0
C633 C 0.19081 0.54851 0.45005 0.0
C634 C 0.21472 0.5298 0.48552 0.0
C635 C 0.19214 0.54829 0.49803 0.0
C636 C 0.16877 0.56669 0.48617 0.0
C637 C 0.16827 0.56698 0.46249 0.0
C638 C 0.18469 0.57695 0.55911 0.0
C639 C 0.19233 0.54857 0.57129 0.0
C640 C 0.18516 0.57697 0.53543 0.0
C641 C 0.19281 0.54846 0.52331 0.0
C642 C 0.20066 0.5201 0.53556 0.0
C643 C 0.20062 0.52022 0.55928 0.0
H644 H 0.49043 0.23212 0.95089 0.0
H645 H 0.42406 0.15054 0.95211 0.0
H646 H 0.48975 0.23399 0.99221 0.0
H647 H 0.4245 0.15131 0.99331 0.0
H648 H 0.40516 0.17947 0.06576 0.0
H649 H 0.40548 0.1806 0.02457 0.0
H650 H 0.50737 0.20728 0.02539 0.0
H651 H 0.50647 0.20763 0.06674 0.0
C652 C 0.47592 0.2144 0.96 0.0
C653 C 0.45717 0.19129 0.94824 0.0
C654 C 0.47567 0.21533 0.98372 0.0
C655 C 0.45699 0.19288 0.99623 0.0
C656 C 0.43861 0.16949 0.98435 0.0
C657 C 0.43851 0.16888 0.96067 0.0
C658 C 0.4276 0.18568 0.05714 0.0
C659 C 0.45581 0.19338 0.0695 0.0
C660 C 0.42788 0.18611 0.03347 0.0
C661 C 0.45654 0.19373 0.02151 0.0
C662 C 0.48472 0.20172 0.03394 0.0
C663 C 0.48429 0.20176 0.05768 0.0
H664 H 0.77408 0.48857 0.45068 0.0
H665 H 0.85513 0.42157 0.4516 0.0
H666 H 0.77265 0.488 0.49198 0.0
H667 H 0.85478 0.4221 0.49282 0.0
H668 H 0.82737 0.40426 0.56587 0.0
H669 H 0.82596 0.40386 0.52464 0.0
H670 H 0.80027 0.506 0.52461 0.0
H671 H 0.80022 0.50587 0.56592 0.0
C672 C 0.79176 0.47391 0.45972 0.0
C673 C 0.81465 0.45504 0.44787 0.0
C674 C 0.7911 0.47373 0.48344 0.0
C675 C 0.81359 0.45498 0.49587 0.0
C676 C 0.83663 0.43631 0.48391 0.0
C677 C 0.83699 0.43616 0.46023 0.0
C678 C 0.82133 0.4266 0.55705 0.0
C679 C 0.81394 0.4551 0.56915 0.0
C680 C 0.82073 0.42646 0.53336 0.0
C681 C 0.8132 0.45495 0.52116 0.0
C682 C 0.80568 0.48345 0.53335 0.0
C683 C 0.80584 0.48346 0.55707 0.0
H684 H 0.49876 0.79998 0.06696 0.0
H685 H 0.60017 0.82785 0.06649 0.0
H686 H 0.49828 0.8 0.02564 0.0
H687 H 0.60023 0.82643 0.02527 0.0
H688 H 0.58204 0.85573 0.95247 0.0
H689 H 0.58139 0.8554 0.99367 0.0
H690 H 0.51626 0.77263 0.99283 0.0
H691 H 0.51581 0.77402 0.95149 0.0
C692 C 0.52105 0.80574 0.05801 0.0
C693 C 0.54945 0.81408 0.06998 0.0
C694 C 0.52086 0.80558 0.0343 0.0
C695 C 0.54919 0.81334 0.02199 0.0
C696 C 0.57774 0.82104 0.03408 0.0
C697 C 0.5778 0.82164 0.05776 0.0
C698 C 0.56756 0.83746 0.96109 0.0
C699 C 0.549 0.81488 0.94872 0.0
C700 C 0.56736 0.83711 0.98476 0.0
C701 C 0.54895 0.81385 0.99671 0.0
C702 C 0.53037 0.79121 0.98428 0.0
C703 C 0.53024 0.79186 0.96055 0.0
H704 H 0.27581 0.39394 0.12822 0.0
H705 H 0.20929 0.32606 0.15958 0.0
H706 H 0.31806 0.35222 0.12789 0.0
H707 H 0.25176 0.28487 0.16028 0.0
H708 H 0.32071 0.20723 0.13517 0.0
H709 H 0.27978 0.24987 0.13582 0.0
H710 H 0.35452 0.32119 0.15017 0.0
H711 H 0.39573 0.27847 0.14846 0.0
C712 C 0.27036 0.37022 0.1353 0.0
C713 C 0.23918 0.36319 0.14376 0.0
C714 C 0.29463 0.34632 0.13524 0.0
C715 C 0.28836 0.315 0.14393 0.0
C716 C 0.25732 0.30839 0.15293 0.0
C717 C 0.23298 0.3321 0.15268 0.0
C718 C 0.32841 0.23201 0.1385 0.0
C719 C 0.36144 0.23947 0.1418 0.0
C720 C 0.30488 0.2565 0.13903 0.0
C721 C 0.3137 0.28907 0.14322 0.0
C722 C 0.34682 0.2965 0.14659 0.0
C723 C 0.37045 0.27199 0.14575 0.0
H724 H 0.79409 0.32622 0.65852 0.0
H725 H 0.72848 0.39405 0.62614 0.0
H726 H 0.75128 0.28543 0.65936 0.0
H727 H 0.68583 0.35263 0.626 0.0
H728 H 0.60762 0.27898 0.64693 0.0
H729 H 0.64884 0.32183 0.64834 0.0
H730 H 0.72362 0.25037 0.63467 0.0
H731 H 0.68278 0.20769 0.63428 0.0
C732 C 0.77052 0.33234 0.65143 0.0
C733 C 0.76471 0.36329 0.64215 0.0
C734 C 0.74598 0.30885 0.65177 0.0
C735 C 0.71511 0.3155 0.6425 0.0
C736 C 0.70915 0.34671 0.63352 0.0
C737 C 0.73365 0.37042 0.63347 0.0
C738 C 0.63291 0.27252 0.64429 0.0
C739 C 0.64197 0.23994 0.64065 0.0
C740 C 0.65654 0.29709 0.64497 0.0
C741 C 0.68968 0.28962 0.64176 0.0
C742 C 0.69851 0.25702 0.63778 0.0
C743 C 0.67501 0.2325 0.6374 0.0
H744 H 0.79777 0.68442 0.13382 0.0
H745 H 0.72679 0.60927 0.14743 0.0
H746 H 0.75503 0.72524 0.13446 0.0
H747 H 0.68396 0.6504 0.14908 0.0
H748 H 0.61115 0.7294 0.12709 0.0
H749 H 0.65278 0.68701 0.12671 0.0
H750 H 0.72022 0.75297 0.15935 0.0
H751 H 0.67915 0.79553 0.15876 0.0
C752 C 0.77303 0.67666 0.13719 0.0
C753 C 0.76567 0.64363 0.14062 0.0
C754 C 0.74848 0.70013 0.13772 0.0
C755 C 0.71597 0.69125 0.14201 0.0
C756 C 0.70862 0.65813 0.14544 0.0
C757 C 0.73319 0.63455 0.14463 0.0
C758 C 0.63487 0.73474 0.13422 0.0
C759 C 0.64197 0.76586 0.14278 0.0
C760 C 0.65871 0.71039 0.13413 0.0
C761 C 0.69003 0.71657 0.14284 0.0
C762 C 0.69669 0.74751 0.15198 0.0
C763 C 0.67305 0.7719 0.15179 0.0
H764 H 0.21094 0.67783 0.66052 0.0
H765 H 0.27698 0.61049 0.62818 0.0
H766 H 0.25337 0.71905 0.66117 0.0
H767 H 0.31922 0.6523 0.62783 0.0
H768 H 0.39702 0.7263 0.64834 0.0
H769 H 0.35604 0.68331 0.64999 0.0
H770 H 0.28078 0.75442 0.63659 0.0
H771 H 0.32147 0.7973 0.63598 0.0
C772 C 0.23452 0.67191 0.65341 0.0
C773 C 0.24057 0.64096 0.64421 0.0
C774 C 0.25885 0.69564 0.65363 0.0
C775 C 0.28973 0.68925 0.64432 0.0
C776 C 0.2959 0.65805 0.63539 0.0
C777 C 0.27164 0.6341 0.63547 0.0
C778 C 0.37168 0.73268 0.64582 0.0
C779 C 0.36246 0.76521 0.64216 0.0
C780 C 0.34818 0.70801 0.64663 0.0
C781 C 0.31498 0.7153 0.64353 0.0
C782 C 0.30595 0.74788 0.63959 0.0
C783 C 0.32935 0.77252 0.63909 0.0
H784 H 0.32612 0.79484 0.3595 0.0
H785 H 0.39395 0.72924 0.39189 0.0
H786 H 0.2852 0.75214 0.35889 0.0
H787 H 0.35243 0.68671 0.39225 0.0
H788 H 0.27865 0.60859 0.37171 0.0
H789 H 0.32148 0.64975 0.37 0.0
H790 H 0.25022 0.72468 0.38379 0.0
H791 H 0.2075 0.68385 0.38449 0.0
C792 C 0.33221 0.77129 0.36663 0.0
C793 C 0.36319 0.76544 0.37585 0.0
C794 C 0.30865 0.74682 0.36642 0.0
C795 C 0.31528 0.716 0.37577 0.0
C796 C 0.34653 0.71 0.38468 0.0
C797 C 0.3703 0.73442 0.38459 0.0
C798 C 0.27221 0.6339 0.37431 0.0
C799 C 0.23968 0.643 0.3781 0.0
C800 C 0.29678 0.65749 0.37346 0.0
C801 C 0.28937 0.69064 0.37664 0.0
C802 C 0.25682 0.69954 0.38073 0.0
C803 C 0.23228 0.67606 0.38128 0.0
H804 H 0.39466 0.27669 0.89138 0.0
H805 H 0.32677 0.21043 0.85973 0.0
H806 H 0.3529 0.31894 0.8919 0.0
H807 H 0.28557 0.25288 0.85926 0.0
H808 H 0.20781 0.32108 0.8848 0.0
H809 H 0.25068 0.28043 0.88404 0.0
H810 H 0.32154 0.35565 0.86989 0.0
H811 H 0.27855 0.39662 0.87169 0.0
C812 C 0.37093 0.2713 0.88427 0.0
C813 C 0.36391 0.24017 0.87568 0.0
C814 C 0.34702 0.29557 0.88445 0.0
C815 C 0.31568 0.28934 0.87578 0.0
C816 C 0.3091 0.2584 0.86661 0.0
C817 C 0.33282 0.23406 0.86673 0.0
C818 C 0.23253 0.32896 0.88151 0.0
C819 C 0.23977 0.36206 0.87825 0.0
C820 C 0.25716 0.30559 0.88091 0.0
C821 C 0.28966 0.3146 0.8767 0.0
C822 C 0.2969 0.3478 0.87346 0.0
C823 C 0.27224 0.37129 0.87436 0.0
H824 H 0.60939 0.27832 0.36931 0.0
H825 H 0.68408 0.20672 0.38249 0.0
H826 H 0.65074 0.3209 0.36779 0.0
H827 H 0.72519 0.24925 0.38201 0.0
H828 H 0.7959 0.32573 0.35862 0.0
H829 H 0.75342 0.28453 0.35774 0.0
H830 H 0.68712 0.35156 0.39037 0.0
H831 H 0.72937 0.39328 0.39026 0.0
C832 C 0.63463 0.27173 0.37204 0.0
C833 C 0.6435 0.23915 0.37593 0.0
C834 C 0.65834 0.29616 0.3713 0.0
C835 C 0.69142 0.28861 0.37472 0.0
C836 C 0.70012 0.25598 0.3788 0.0
C837 C 0.67649 0.23155 0.37923 0.0
C838 C 0.77221 0.3317 0.36553 0.0
C839 C 0.76601 0.36271 0.37458 0.0
C840 C 0.74786 0.30799 0.36517 0.0
C841 C 0.71682 0.31451 0.37417 0.0
C842 C 0.71055 0.34573 0.38301 0.0
C843 C 0.73483 0.36963 0.38307 0.0
H844 H 0.79474 0.67826 0.85909 0.0
H845 H 0.72845 0.61081 0.89115 0.0
H846 H 0.75231 0.71945 0.8583 0.0
H847 H 0.6862 0.6526 0.89135 0.0
H848 H 0.60856 0.72657 0.87049 0.0
H849 H 0.64957 0.6836 0.86903 0.0
H850 H 0.72469 0.75475 0.88277 0.0
H851 H 0.68399 0.7976 0.88319 0.0
C852 C 0.7711 0.67231 0.86612 0.0
C853 C 0.76498 0.64134 0.87528 0.0
C854 C 0.74678 0.69603 0.86581 0.0
C855 C 0.71582 0.68959 0.875 0.0
C856 C 0.70958 0.65837 0.88389 0.0
C857 C 0.73385 0.63445 0.88389 0.0
C858 C 0.63388 0.73295 0.87313 0.0
C859 C 0.64307 0.76549 0.87682 0.0
C860 C 0.65739 0.7083 0.87243 0.0
C861 C 0.69056 0.71562 0.87568 0.0
C862 C 0.69954 0.74819 0.87966 0.0
C863 C 0.67614 0.77282 0.88005 0.0
loop_
_geom_bond_atom_site_label_1
_geom_bond_atom_site_label_2
_geom_bond_distance
_geom_bond_site_symmetry_2
_ccdc_geom_bond_type
C0 O2 1.247 . S
C0 O4 1.258 . S
C1 O8 1.247 . S
C1 O9 1.258 . S
O2 C0 1.247 . S
O2 Zn3 2.028 . S
Zn3 O2 2.028 . S
Zn3 O7 2.035 . S
Zn3 O9 2.035 . S
Zn3 O10 2.028 . S
O4 C0 1.258 . S
O4 Zn5 2.035 . S
Zn5 O4 2.035 . S
Zn5 O6 2.028 . S
Zn5 O8 2.028 . S
Zn5 O11 2.035 . S
O6 Zn5 2.028 . S
O6 C12 1.247 . S
O7 Zn3 2.035 . S
O7 C12 1.258 . S
O8 C1 1.247 . S
O8 Zn5 2.028 . S
O9 C1 1.258 . S
O9 Zn3 2.035 . S
O10 Zn3 2.028 . S
O10 C13 1.247 . S
O11 Zn5 2.035 . S
O11 C13 1.258 . S
C12 O6 1.247 . S
C12 O7 1.258 . S
C13 O10 1.247 . S
C13 O11 1.258 . S
C14 O16 1.247 . S
C14 O18 1.258 . S
C15 O22 1.247 . S
C15 O23 1.258 . S
O16 C14 1.247 . S
O16 Zn17 2.028 . S
Zn17 O16 2.028 . S
Zn17 O21 2.035 . S
Zn17 O23 2.035 . S
Zn17 O24 2.028 . S
O18 C14 1.258 . S
O18 Zn19 2.035 . S
Zn19 O18 2.035 . S
Zn19 O20 2.028 . S
Zn19 O22 2.028 . S
Zn19 O25 2.035 . S
O20 Zn19 2.028 . S
O20 C26 1.247 . S
O21 Zn17 2.035 . S
O21 C26 1.258 . S
O22 C15 1.247 . S
O22 Zn19 2.028 . S
O23 C15 1.258 . S
O23 Zn17 2.035 . S
O24 Zn17 2.028 . S
O24 C27 1.247 . S
O25 Zn19 2.035 . S
O25 C27 1.258 . S
C26 O20 1.247 . S
C26 O21 1.258 . S
C27 O24 1.247 . S
C27 O25 1.258 . S
C28 O30 1.247 . S
C28 O32 1.258 . S
C29 O36 1.247 . S
C29 O37 1.258 . S
O30 C28 1.247 . S
O30 Zn31 2.028 . S
Zn31 O30 2.028 . S
Zn31 O35 2.035 . S
Zn31 O37 2.035 . S
Zn31 O38 2.028 . S
O32 C28 1.258 . S
O32 Zn33 2.035 . S
Zn33 O32 2.035 . S
Zn33 O34 2.028 . S
Zn33 O36 2.028 . S
Zn33 O39 2.035 . S
O34 Zn33 2.028 . S
O34 C40 1.247 . S
O35 Zn31 2.035 . S
O35 C40 1.258 . S
O36 C29 1.247 . S
O36 Zn33 2.028 . S
O37 C29 1.258 . S
O37 Zn31 2.035 . S
O38 Zn31 2.028 . S
O38 C41 1.247 . S
O39 Zn33 2.035 . S
O39 C41 1.258 . S
C40 O34 1.247 . S
C40 O35 1.258 . S
C41 O38 1.247 . S
C41 O39 1.258 . S
C42 O44 1.247 . S
C42 O46 1.258 . S
C43 O50 1.247 . S
C43 O51 1.258 . S
O44 C42 1.247 . S
O44 Zn45 2.028 . S
Zn45 O44 2.028 . S
Zn45 O49 2.035 . S
Zn45 O51 2.035 . S
Zn45 O52 2.028 . S
O46 C42 1.258 . S
O46 Zn47 2.035 . S
Zn47 O46 2.035 . S
Zn47 O48 2.028 . S
Zn47 O50 2.028 . S
Zn47 O53 2.035 . S
O48 Zn47 2.028 . S
O48 C54 1.247 . S
O49 Zn45 2.035 . S
O49 C54 1.258 . S
O50 C43 1.247 . S
O50 Zn47 2.028 . S
O51 C43 1.258 . S
O51 Zn45 2.035 . S
O52 Zn45 2.028 . S
O52 C55 1.247 . S
O53 Zn47 2.035 . S
O53 C55 1.258 . S
C54 O48 1.247 . S
C54 O49 1.258 . S
C55 O52 1.247 . S
C55 O53 1.258 . S
C56 O58 1.247 . S
C56 O60 1.258 . S
C57 O64 1.247 . S
C57 O65 1.258 . S
O58 C56 1.247 . S
O58 Zn59 2.028 . S
Zn59 O58 2.028 . S
Zn59 O63 2.035 . S
Zn59 O65 2.035 . S
Zn59 O66 2.028 . S
O60 C56 1.258 . S
O60 Zn61 2.035 . S
Zn61 O60 2.035 . S
Zn61 O62 2.028 . S
Zn61 O64 2.028 . S
Zn61 O67 2.035 . S
O62 Zn61 2.028 . S
O62 C68 1.247 . S
O63 Zn59 2.035 . S
O63 C68 1.258 . S
O64 C57 1.247 . S
O64 Zn61 2.028 . S
O65 C57 1.258 . S
O65 Zn59 2.035 . S
O66 Zn59 2.028 . S
O66 C69 1.247 . S
O67 Zn61 2.035 . S
O67 C69 1.258 . S
C68 O62 1.247 . S
C68 O63 1.258 . S
C69 O66 1.247 . S
C69 O67 1.258 . S
C70 O72 1.247 . S
C70 O74 1.258 . S
C71 O78 1.247 . S
C71 O79 1.258 . S
O72 C70 1.247 . S
O72 Zn73 2.028 . S
Zn73 O72 2.028 . S
Zn73 O77 2.035 . S
Zn73 O79 2.035 . S
Zn73 O80 2.028 . S
O74 C70 1.258 . S
O74 Zn75 2.035 . S
Zn75 O74 2.035 . S
Zn75 O76 2.028 . S
Zn75 O78 2.028 . S
Zn75 O81 2.035 . S
O76 Zn75 2.028 . S
O76 C82 1.247 . S
O77 Zn73 2.035 . S
O77 C82 1.258 . S
O78 C71 1.247 . S
O78 Zn75 2.028 . S
O79 C71 1.258 . S
O79 Zn73 2.035 . S
O80 Zn73 2.028 . S
O80 C83 1.247 . S
O81 Zn75 2.035 . S
O81 C83 1.258 . S
C82 O76 1.247 . S
C82 O77 1.258 . S
C83 O80 1.247 . S
C83 O81 1.258 . S
C84 O86 1.247 . S
C84 O88 1.258 . S
C85 O92 1.247 . S
C85 O93 1.258 . S
O86 C84 1.247 . S
O86 Zn87 2.028 . S
Zn87 O86 2.028 . S
Zn87 O91 2.035 . S
Zn87 O93 2.035 . S
Zn87 O94 2.028 . S
O88 C84 1.258 . S
O88 Zn89 2.035 . S
Zn89 O88 2.035 . S
Zn89 O90 2.028 . S
Zn89 O92 2.028 . S
Zn89 O95 2.035 . S
O90 Zn89 2.028 . S
O90 C96 1.247 . S
O91 Zn87 2.035 . S
O91 C96 1.258 . S
O92 C85 1.247 . S
O92 Zn89 2.028 . S
O93 C85 1.258 . S
O93 Zn87 2.035 . S
O94 Zn87 2.028 . S
O94 C97 1.247 . S
O95 Zn89 2.035 . S
O95 C97 1.258 . S
C96 O90 1.247 . S
C96 O91 1.258 . S
C97 O94 1.247 . S
C97 O95 1.258 . S
C98 O100 1.247 . S
C98 O102 1.258 . S
C99 O106 1.247 . S
C99 O107 1.258 . S
O100 C98 1.247 . S
O100 Zn101 2.028 . S
Zn101 O100 2.028 . S
Zn101 O105 2.035 . S
Zn101 O107 2.035 . S
Zn101 O108 2.028 . S
O102 C98 1.258 . S
O102 Zn103 2.035 . S
Zn103 O102 2.035 . S
Zn103 O104 2.028 . S
Zn103 O106 2.028 . S
Zn103 O109 2.035 . S
O104 Zn103 2.028 . S
O104 C110 1.247 . S
O105 Zn101 2.035 . S
O105 C110 1.258 . S
O106 C99 1.247 . S
O106 Zn103 2.028 . S
O107 C99 1.258 . S
O107 Zn101 2.035 . S
O108 Zn101 2.028 . S
O108 C111 1.247 . S
O109 Zn103 2.035 . S
O109 C111 1.258 . S
C110 O104 1.247 . S
C110 O105 1.258 . S
C111 O108 1.247 . S
C111 O109 1.258 . S
C112 O114 1.247 . S
C112 O116 1.258 . S
C113 O120 1.247 . S
C113 O121 1.258 . S
O114 C112 1.247 . S
O114 Zn115 2.028 . S
Zn115 O114 2.028 . S
Zn115 O119 2.035 . S
Zn115 O121 2.035 . S
Zn115 O122 2.028 . S
O116 C112 1.258 . S
O116 Zn117 2.035 . S
Zn117 O116 2.035 . S
Zn117 O118 2.028 . S
Zn117 O120 2.028 . S
Zn117 O123 2.035 . S
O118 Zn117 2.028 . S
O118 C124 1.247 . S
O119 Zn115 2.035 . S
O119 C124 1.258 . S
O120 C113 1.247 . S
O120 Zn117 2.028 . S
O121 C113 1.258 . S
O121 Zn115 2.035 . S
O122 Zn115 2.028 . S
O122 C125 1.247 . S
O123 Zn117 2.035 . S
O123 C125 1.258 . S
C124 O118 1.247 . S
C124 O119 1.258 . S
C125 O122 1.247 . S
C125 O123 1.258 . S
C126 O128 1.247 . S
C126 O130 1.258 . S
C127 O134 1.247 . S
C127 O135 1.258 . S
O128 C126 1.247 . S
O128 Zn129 2.028 . S
Zn129 O128 2.028 . S
Zn129 O133 2.035 . S
Zn129 O135 2.035 . S
Zn129 O136 2.028 . S
O130 C126 1.258 . S
O130 Zn131 2.035 . S
Zn131 O130 2.035 . S
Zn131 O132 2.028 . S
Zn131 O134 2.028 . S
Zn131 O137 2.035 . S
O132 Zn131 2.028 . S
O132 C138 1.247 . S
O133 Zn129 2.035 . S
O133 C138 1.258 . S
O134 C127 1.247 . S
O134 Zn131 2.028 . S
O135 C127 1.258 . S
O135 Zn129 2.035 . S
O136 Zn129 2.028 . S
O136 C139 1.247 . S
O137 Zn131 2.035 . S
O137 C139 1.258 . S
C138 O132 1.247 . S
C138 O133 1.258 . S
C139 O136 1.247 . S
C139 O137 1.258 . S
C140 O142 1.247 . S
C140 O144 1.258 . S
C141 O148 1.247 . S
C141 O149 1.258 . S
O142 C140 1.247 . S
O142 Zn143 2.028 . S
Zn143 O142 2.028 . S
Zn143 O147 2.035 . S
Zn143 O149 2.035 . S
Zn143 O150 2.028 . S
O144 C140 1.258 . S
O144 Zn145 2.035 . S
Zn145 O144 2.035 . S
Zn145 O146 2.028 . S
Zn145 O148 2.028 . S
Zn145 O151 2.035 . S
O146 Zn145 2.028 . S
O146 C152 1.247 . S
O147 Zn143 2.035 . S
O147 C152 1.258 . S
O148 C141 1.247 . S
O148 Zn145 2.028 . S
O149 C141 1.258 . S
O149 Zn143 2.035 . S
O150 Zn143 2.028 . S
O150 C153 1.247 . S
O151 Zn145 2.035 . S
O151 C153 1.258 . S
C152 O146 1.247 . S
C152 O147 1.258 . S
C153 O150 1.247 . S
C153 O151 1.258 . S
C154 O156 1.247 . S
C154 O158 1.258 . S
C155 O162 1.247 . S
C155 O163 1.258 . S
O156 C154 1.247 . S
O156 Zn157 2.028 . S
Zn157 O156 2.028 . S
Zn157 O161 2.035 . S
Zn157 O163 2.035 . S
Zn157 O164 2.028 . S
O158 C154 1.258 . S
O158 Zn159 2.035 . S
Zn159 O158 2.035 . S
Zn159 O160 2.028 . S
Zn159 O162 2.028 . S
Zn159 O165 2.035 . S
O160 Zn159 2.028 . S
O160 C166 1.247 . S
O161 Zn157 2.035 . S
O161 C166 1.258 . S
O162 C155 1.247 . S
O162 Zn159 2.028 . S
O163 C155 1.258 . S
O163 Zn157 2.035 . S
O164 Zn157 2.028 . S
O164 C167 1.247 . S
O165 Zn159 2.035 . S
O165 C167 1.258 . S
C166 O160 1.247 . S
C166 O161 1.258 . S
C167 O164 1.247 . S
C167 O165 1.258 . S
C168 O170 1.247 . S
C168 O172 1.258 . S
C169 O176 1.247 . S
C169 O177 1.258 . S
O170 C168 1.247 . S
O170 Zn171 2.028 . S
Zn171 O170 2.028 . S
Zn171 O175 2.035 . S
Zn171 O177 2.035 . S
Zn171 O178 2.028 . S
O172 C168 1.258 . S
O172 Zn173 2.035 . S
Zn173 O172 2.035 . S
Zn173 O174 2.028 . S
Zn173 O176 2.028 . S
Zn173 O179 2.035 . S
O174 Zn173 2.028 . S
O174 C180 1.247 . S
O175 Zn171 2.035 . S
O175 C180 1.258 . S
O176 C169 1.247 . S
O176 Zn173 2.028 . S
O177 C169 1.258 . S
O177 Zn171 2.035 . S
O178 Zn171 2.028 . S
O178 C181 1.247 . S
O179 Zn173 2.035 . S
O179 C181 1.258 . S
C180 O174 1.247 . S
C180 O175 1.258 . S
C181 O178 1.247 . S
C181 O179 1.258 . S
C182 O184 1.247 . S
C182 O186 1.258 . S
C183 O190 1.247 . S
C183 O191 1.258 . S
O184 C182 1.247 . S
O184 Zn185 2.028 . S
Zn185 O184 2.028 . S
Zn185 O189 2.035 . S
Zn185 O191 2.035 . S
Zn185 O192 2.028 . S
O186 C182 1.258 . S
O186 Zn187 2.035 . S
Zn187 O186 2.035 . S
Zn187 O188 2.028 . S
Zn187 O190 2.028 . S
Zn187 O193 2.035 . S
O188 Zn187 2.028 . S
O188 C194 1.247 . S
O189 Zn185 2.035 . S
O189 C194 1.258 . S
O190 C183 1.247 . S
O190 Zn187 2.028 . S
O191 C183 1.258 . S
O191 Zn185 2.035 . S
O192 Zn185 2.028 . S
O192 C195 1.247 . S
O193 Zn187 2.035 . S
O193 C195 1.258 . S
C194 O188 1.247 . S
C194 O189 1.258 . S
C195 O192 1.247 . S
C195 O193 1.258 . S
C196 O198 1.247 . S
C196 O200 1.258 . S
C197 O204 1.247 . S
C197 O205 1.258 . S
O198 C196 1.247 . S
O198 Zn199 2.028 . S
Zn199 O198 2.028 . S
Zn199 O203 2.035 . S
Zn199 O205 2.035 . S
Zn199 O206 2.028 . S
O200 C196 1.258 . S
O200 Zn201 2.035 . S
Zn201 O200 2.035 . S
Zn201 O202 2.028 . S
Zn201 O204 2.028 . S
Zn201 O207 2.035 . S
O202 Zn201 2.028 . S
O202 C208 1.247 . S
O203 Zn199 2.035 . S
O203 C208 1.258 . S
O204 C197 1.247 . S
O204 Zn201 2.028 . S
O205 C197 1.258 . S
O205 Zn199 2.035 . S
O206 Zn199 2.028 . S
O206 C209 1.247 . S
O207 Zn201 2.035 . S
O207 C209 1.258 . S
C208 O202 1.247 . S
C208 O203 1.258 . S
C209 O206 1.247 . S
C209 O207 1.258 . S
C210 O212 1.247 . S
C210 O214 1.258 . S
C211 O218 1.247 . S
C211 O219 1.258 . S
O212 C210 1.247 . S
O212 Zn213 2.028 . S
Zn213 O212 2.028 . S
Zn213 O217 2.035 . S
Zn213 O219 2.035 . S
Zn213 O220 2.028 . S
O214 C210 1.258 . S
O214 Zn215 2.035 . S
Zn215 O214 2.035 . S
Zn215 O216 2.028 . S
Zn215 O218 2.028 . S
Zn215 O221 2.035 . S
O216 Zn215 2.028 . S
O216 C222 1.247 . S
O217 Zn213 2.035 . S
O217 C222 1.258 . S
O218 C211 1.247 . S
O218 Zn215 2.028 . S
O219 C211 1.258 . S
O219 Zn213 2.035 . S
O220 Zn213 2.028 . S
O220 C223 1.247 . S
O221 Zn215 2.035 . S
O221 C223 1.258 . S
C222 O216 1.247 . S
C222 O217 1.258 . S
C223 O220 1.247 . S
C223 O221 1.258 . S
H224 C232 0.950 . S
H225 C237 0.950 . S
H226 C234 0.950 . S
H227 C236 0.950 . S
H228 C238 0.950 . S
H229 C240 0.950 . S
H230 C242 0.950 . S
H231 C243 0.950 . S
C232 H224 0.950 . S
C232 C233 1.386 . S
C232 C234 1.391 . S
C233 C232 1.386 . S
C233 C237 1.393 . S
C234 H226 0.950 . S
C234 C232 1.391 . S
C234 C235 1.400 . S
C235 C234 1.400 . S
C235 C236 1.398 . S
C235 C241 1.491 1_455 S
C236 H227 0.950 . S
C236 C235 1.398 . S
C236 C237 1.391 . S
C237 H225 0.950 . S
C237 C233 1.393 . S
C237 C236 1.391 . S
C238 H228 0.950 . S
C238 C239 1.386 . S
C238 C240 1.391 . S
C239 C238 1.386 . S
C239 C243 1.393 . S
C240 H229 0.950 . S
C240 C238 1.391 . S
C240 C241 1.400 . S
C241 C235 1.491 1_655 S
C241 C240 1.400 . S
C241 C242 1.398 . S
C242 H230 0.950 . S
C242 C241 1.398 . S
C242 C243 1.391 . S
C243 H231 0.950 . S
C243 C239 1.393 . S
C243 C242 1.391 . S
H244 C252 0.950 . S
H245 C257 0.950 . S
H246 C254 0.950 . S
H247 C256 0.950 . S
H248 C258 0.950 . S
H249 C260 0.950 . S
H250 C262 0.950 . S
H251 C263 0.950 . S
C252 H244 0.950 . S
C252 C253 1.386 . S
C252 C254 1.391 . S
C253 C252 1.386 . S
C253 C257 1.393 . S
C254 H246 0.950 . S
C254 C252 1.391 . S
C254 C255 1.400 . S
C255 C254 1.400 . S
C255 C256 1.398 . S
C255 C261 1.491 1_565 S
C256 H247 0.950 . S
C256 C255 1.398 . S
C256 C257 1.391 . S
C257 H245 0.950 . S
C257 C253 1.393 . S
C257 C256 1.391 . S
C258 H248 0.950 . S
C258 C259 1.386 . S
C258 C260 1.391 . S
C259 C258 1.386 . S
C259 C263 1.393 . S
C260 H249 0.950 . S
C260 C258 1.391 . S
C260 C261 1.400 . S
C261 C255 1.491 1_545 S
C261 C260 1.400 . S
C261 C262 1.398 . S
C262 H250 0.950 . S
C262 C261 1.398 . S
C262 C263 1.391 . S
C263 H251 0.950 . S
C263 C259 1.393 . S
C263 C262 1.391 . S
H264 C272 0.950 . S
H265 C277 0.950 . S
H266 C274 0.950 . S
H267 C276 0.950 . S
H268 C278 0.950 . S
H269 C280 0.950 . S
H270 C282 0.950 . S
H271 C283 0.950 . S
C272 H264 0.950 . S
C272 C273 1.386 . S
C272 C274 1.391 . S
C273 C272 1.386 . S
C273 C277 1.393 . S
C274 H266 0.950 . S
C274 C272 1.391 . S
C274 C275 1.400 . S
C275 C274 1.400 . S
C275 C276 1.398 . S
C275 C281 1.491 1_455 S
C276 H267 0.950 . S
C276 C275 1.398 . S
C276 C277 1.391 . S
C277 H265 0.950 . S
C277 C273 1.393 . S
C277 C276 1.391 . S
C278 H268 0.950 . S
C278 C279 1.386 . S
C278 C280 1.391 . S
C279 C278 1.386 . S
C279 C283 1.393 . S
C280 H269 0.950 . S
C280 C278 1.391 . S
C280 C281 1.400 . S
C281 C275 1.491 1_655 S
C281 C280 1.400 . S
C281 C282 1.398 . S
C282 H270 0.950 . S
C282 C281 1.398 . S
C282 C283 1.391 . S
C283 H271 0.950 . S
C283 C279 1.393 . S
C283 C282 1.391 . S
H284 C292 0.950 . S
H285 C297 0.950 . S
H286 C294 0.950 . S
H287 C296 0.950 . S
H288 C298 0.950 . S
H289 C300 0.950 . S
H290 C302 0.950 . S
H291 C303 0.950 . S
C292 H284 0.950 . S
C292 C293 1.386 . S
C292 C294 1.391 . S
C293 C292 1.386 . S
C293 C297 1.393 . S
C294 H286 0.950 . S
C294 C292 1.391 . S
C294 C295 1.400 . S
C295 C294 1.400 . S
C295 C296 1.398 . S
C295 C301 1.491 1_565 S
C296 H287 0.950 . S
C296 C295 1.398 . S
C296 C297 1.391 . S
C297 H285 0.950 . S
C297 C293 1.393 . S
C297 C296 1.391 . S
C298 H288 0.950 . S
C298 C299 1.386 . S
C298 C300 1.391 . S
C299 C298 1.386 . S
C299 C303 1.393 . S
C300 H289 0.950 . S
C300 C298 1.391 . S
C300 C301 1.400 . S
C301 C295 1.491 1_545 S
C301 C300 1.400 . S
C301 C302 1.398 . S
C302 H290 0.950 . S
C302 C301 1.398 . S
C302 C303 1.391 . S
C303 H291 0.950 . S
C303 C299 1.393 . S
C303 C302 1.391 . S
H304 C312 0.950 . S
H305 C317 0.950 . S
H306 C314 0.950 . S
H307 C316 0.950 . S
H308 C318 0.950 . S
H309 C320 0.950 . S
H310 C322 0.950 . S
H311 C323 0.950 . S
C312 H304 0.950 . S
C312 C313 1.386 . S
C312 C314 1.391 . S
C313 C312 1.386 . S
C313 C317 1.393 . S
C314 H306 0.950 . S
C314 C312 1.391 . S
C314 C315 1.400 . S
C315 C314 1.400 . S
C315 C316 1.398 . S
C315 C321 1.491 1_655 S
C316 H307 0.950 . S
C316 C315 1.398 . S
C316 C317 1.391 . S
C317 H305 0.950 . S
C317 C313 1.393 . S
C317 C316 1.391 . S
C318 H308 0.950 . S
C318 C319 1.386 . S
C318 C320 1.391 . S
C319 C318 1.386 . S
C319 C323 1.393 . S
C320 H309 0.950 . S
C320 C318 1.391 . S
C320 C321 1.400 . S
C321 C315 1.491 1_455 S
C321 C320 1.400 . S
C321 C322 1.398 . S
C322 H310 0.950 . S
C322 C321 1.398 . S
C322 C323 1.391 . S
C323 H311 0.950 . S
C323 C319 1.393 . S
C323 C322 1.391 . S
H324 C332 0.950 . S
H325 C337 0.950 . S
H326 C334 0.950 . S
H327 C336 0.950 . S
H328 C338 0.950 . S
H329 C340 0.950 . S
H330 C342 0.950 . S
H331 C343 0.950 . S
C332 H324 0.950 . S
C332 C333 1.386 . S
C332 C334 1.391 . S
C333 C332 1.386 . S
C333 C337 1.393 . S
C334 H326 0.950 . S
C334 C332 1.391 . S
C334 C335 1.400 . S
C335 C334 1.400 . S
C335 C336 1.398 . S
C335 C341 1.491 1_545 S
C336 H327 0.950 . S
C336 C335 1.398 . S
C336 C337 1.391 . S
C337 H325 0.950 . S
C337 C333 1.393 . S
C337 C336 1.391 . S
C338 H328 0.950 . S
C338 C339 1.386 . S
C338 C340 1.391 . S
C339 C338 1.386 . S
C339 C343 1.393 . S
C340 H329 0.950 . S
C340 C338 1.391 . S
C340 C341 1.400 . S
C341 C335 1.491 1_565 S
C341 C340 1.400 . S
C341 C342 1.398 . S
C342 H330 0.950 . S
C342 C341 1.398 . S
C342 C343 1.391 . S
C343 H331 0.950 . S
C343 C339 1.393 . S
C343 C342 1.391 . S
H344 C352 0.950 . S
H345 C357 0.950 . S
H346 C354 0.950 . S
H347 C356 0.950 . S
H348 C358 0.950 . S
H349 C360 0.950 . S
H350 C362 0.950 . S
H351 C363 0.950 . S
C352 H344 0.950 . S
C352 C353 1.386 . S
C352 C354 1.391 . S
C353 C352 1.386 . S
C353 C357 1.393 . S
C354 H346 0.950 . S
C354 C352 1.391 . S
C354 C355 1.400 . S
C355 C354 1.400 . S
C355 C356 1.398 . S
C355 C361 1.491 1_655 S
C356 H347 0.950 . S
C356 C355 1.398 . S
C356 C357 1.391 . S
C357 H345 0.950 . S
C357 C353 1.393 . S
C357 C356 1.391 . S
C358 H348 0.950 . S
C358 C359 1.386 . S
C358 C360 1.391 . S
C359 C358 1.386 . S
C359 C363 1.393 . S
C360 H349 0.950 . S
C360 C358 1.391 . S
C360 C361 1.400 . S
C361 C355 1.491 1_455 S
C361 C360 1.400 . S
C361 C362 1.398 . S
C362 H350 0.950 . S
C362 C361 1.398 . S
C362 C363 1.391 . S
C363 H351 0.950 . S
C363 C359 1.393 . S
C363 C362 1.391 . S
H364 C372 0.950 . S
H365 C377 0.950 . S
H366 C374 0.950 . S
H367 C376 0.950 . S
H368 C378 0.950 . S
H369 C380 0.950 . S
H370 C382 0.950 . S
H371 C383 0.950 . S
C372 H364 0.950 . S
C372 C373 1.386 . S
C372 C374 1.391 . S
C373 C372 1.386 . S
C373 C377 1.393 . S
C374 H366 0.950 . S
C374 C372 1.391 . S
C374 C375 1.400 . S
C375 C374 1.400 . S
C375 C376 1.398 . S
C375 C381 1.491 1_545 S
C376 H367 0.950 . S
C376 C375 1.398 . S
C376 C377 1.391 . S
C377 H365 0.950 . S
C377 C373 1.393 . S
C377 C376 1.391 . S
C378 H368 0.950 . S
C378 C379 1.386 . S
C378 C380 1.391 . S
C379 C378 1.386 . S
C379 C383 1.393 . S
C380 H369 0.950 . S
C380 C378 1.391 . S
C380 C381 1.400 . S
C381 C375 1.491 1_565 S
C381 C380 1.400 . S
C381 C382 1.398 . S
C382 H370 0.950 . S
C382 C381 1.398 . S
C382 C383 1.391 . S
C383 H371 0.950 . S
C383 C379 1.393 . S
C383 C382 1.391 . S
H384 C392 0.950 . S
H385 C397 0.950 . S
H386 C394 0.950 . S
H387 C396 0.950 . S
H388 C398 0.950 . S
H389 C400 0.950 . S
H390 C402 0.950 . S
H391 C403 0.950 . S
C392 H384 0.950 . S
C392 C393 1.386 . S
C392 C394 1.391 . S
C393 C392 1.386 . S
C393 C397 1.393 . S
C394 H386 0.950 . S
C394 C392 1.391 . S
C394 C395 1.400 . S
C395 C394 1.400 . S
C395 C396 1.398 . S
C395 C401 1.491 . S
C396 H387 0.950 . S
C396 C395 1.398 . S
C396 C397 1.391 . S
C397 H385 0.950 . S
C397 C393 1.393 . S
C397 C396 1.391 . S
C398 H388 0.950 . S
C398 C399 1.386 . S
C398 C400 1.391 . S
C399 C398 1.386 . S
C399 C403 1.393 . S
C400 H389 0.950 . S
C400 C398 1.391 . S
C400 C401 1.400 . S
C401 C395 1.491 . S
C401 C400 1.400 . S
C401 C402 1.398 . S
C402 H390 0.950 . S
C402 C401 1.398 . S
C402 C403 1.391 . S
C403 H391 0.950 . S
C403 C399 1.393 . S
C403 C402 1.391 . S
H404 C412 0.950 . S
H405 C417 0.950 . S
H406 C414 0.950 . S
H407 C416 0.950 . S
H408 C418 0.950 . S
H409 C420 0.950 . S
H410 C422 0.950 . S
H411 C423 0.950 . S
C412 H404 0.950 . S
C412 C413 1.386 . S
C412 C414 1.391 . S
C413 C412 1.386 . S
C413 C417 1.393 . S
C414 H406 0.950 . S
C414 C412 1.391 . S
C414 C415 1.400 . S
C415 C414 1.400 . S
C415 C416 1.398 . S
C415 C421 1.491 . S
C416 H407 0.950 . S
C416 C415 1.398 . S
C416 C417 1.391 . S
C417 H405 0.950 . S
C417 C413 1.393 . S
C417 C416 1.391 . S
C418 H408 0.950 . S
C418 C419 1.386 . S
C418 C420 1.391 . S
C419 C418 1.386 . S
C419 C423 1.393 . S
C420 H409 0.950 . S
C420 C418 1.391 . S
C420 C421 1.400 . S
C421 C415 1.491 . S
C421 C420 1.400 . S
C421 C422 1.398 . S
C422 H410 0.950 . S
C422 C421 1.398 . S
C422 C423 1.391 . S
C423 H411 0.950 . S
C423 C419 1.393 . S
C423 C422 1.391 . S
H424 C432 0.950 . S
H425 C437 0.950 . S
H426 C434 0.950 . S
H427 C436 0.950 . S
H428 C438 0.950 . S
H429 C440 0.950 . S
H430 C442 0.950 . S
H431 C443 0.950 . S
C432 H424 0.950 . S
C432 C433 1.386 . S
C432 C434 1.391 . S
C433 C432 1.386 . S
C433 C437 1.393 . S
C434 H426 0.950 . S
C434 C432 1.391 . S
C434 C435 1.400 . S
C435 C434 1.400 . S
C435 C436 1.398 . S
C435 C441 1.491 . S
C436 H427 0.950 . S
C436 C435 1.398 . S
C436 C437 1.391 . S
C437 H425 0.950 . S
C437 C433 1.393 . S
C437 C436 1.391 . S
C438 H428 0.950 . S
C438 C439 1.386 . S
C438 C440 1.391 . S
C439 C438 1.386 . S
C439 C443 1.393 . S
C440 H429 0.950 . S
C440 C438 1.391 . S
C440 C441 1.400 . S
C441 C435 1.491 . S
C441 C440 1.400 . S
C441 C442 1.398 . S
C442 H430 0.950 . S
C442 C441 1.398 . S
C442 C443 1.391 . S
C443 H431 0.950 . S
C443 C439 1.393 . S
C443 C442 1.391 . S
H444 C452 0.950 . S
H445 C457 0.950 . S
H446 C454 0.950 . S
H447 C456 0.950 . S
H448 C458 0.950 . S
H449 C460 0.950 . S
H450 C462 0.950 . S
H451 C463 0.950 . S
C452 H444 0.950 . S
C452 C453 1.386 . S
C452 C454 1.391 . S
C453 C452 1.386 . S
C453 C457 1.393 . S
C454 H446 0.950 . S
C454 C452 1.391 . S
C454 C455 1.400 . S
C455 C454 1.400 . S
C455 C456 1.398 . S
C455 C461 1.491 . S
C456 H447 0.950 . S
C456 C455 1.398 . S
C456 C457 1.391 . S
C457 H445 0.950 . S
C457 C453 1.393 . S
C457 C456 1.391 . S
C458 H448 0.950 . S
C458 C459 1.386 . S
C458 C460 1.391 . S
C459 C458 1.386 . S
C459 C463 1.393 . S
C460 H449 0.950 . S
C460 C458 1.391 . S
C460 C461 1.400 . S
C461 C455 1.491 . S
C461 C460 1.400 . S
C461 C462 1.398 . S
C462 H450 0.950 . S
C462 C461 1.398 . S
C462 C463 1.391 . S
C463 H451 0.950 . S
C463 C459 1.393 . S
C463 C462 1.391 . S
H464 C472 0.950 . S
H465 C477 0.950 . S
H466 C474 0.950 . S
H467 C476 0.950 . S
H468 C478 0.950 . S
H469 C480 0.950 . S
H470 C482 0.950 . S
H471 C483 0.950 . S
C472 H464 0.950 . S
C472 C473 1.386 . S
C472 C474 1.391 . S
C473 C472 1.386 . S
C473 C477 1.393 . S
C474 H466 0.950 . S
C474 C472 1.391 . S
C474 C475 1.400 . S
C475 C474 1.400 . S
C475 C476 1.398 . S
C475 C481 1.491 . S
C476 H467 0.950 . S
C476 C475 1.398 . S
C476 C477 1.391 . S
C477 H465 0.950 . S
C477 C473 1.393 . S
C477 C476 1.391 . S
C478 H468 0.950 . S
C478 C479 1.386 . S
C478 C480 1.391 . S
C479 C478 1.386 . S
C479 C483 1.393 . S
C480 H469 0.950 . S
C480 C478 1.391 . S
C480 C481 1.400 . S
C481 C475 1.491 . S
C481 C480 1.400 . S
C481 C482 1.398 . S
C482 H470 0.950 . S
C482 C481 1.398 . S
C482 C483 1.391 . S
C483 H471 0.950 . S
C483 C479 1.393 . S
C483 C482 1.391 . S
H484 C492 0.950 . S
H485 C497 0.950 . S
H486 C494 0.950 . S
H487 C496 0.950 . S
H488 C498 0.950 . S
H489 C500 0.950 . S
H490 C502 0.950 . S
H491 C503 0.950 . S
C492 H484 0.950 . S
C492 C493 1.386 . S
C492 C494 1.391 . S
C493 C492 1.386 . S
C493 C497 1.393 . S
C494 H486 0.950 . S
C494 C492 1.391 . S
C494 C495 1.400 . S
C495 C494 1.400 . S
C495 C496 1.398 . S
C495 C501 1.491 . S
C496 H487 0.950 . S
C496 C495 1.398 . S
C496 C497 1.391 . S
C497 H485 0.950 . S
C497 C493 1.393 . S
C497 C496 1.391 . S
C498 H488 0.950 . S
C498 C499 1.386 . S
C498 C500 1.391 . S
C499 C498 1.386 . S
C499 C503 1.393 . S
C500 H489 0.950 . S
C500 C498 1.391 . S
C500 C501 1.400 . S
C501 C495 1.491 . S
C501 C500 1.400 . S
C501 C502 1.398 . S
C502 H490 0.950 . S
C502 C501 1.398 . S
C502 C503 1.391 . S
C503 H491 0.950 . S
C503 C499 1.393 . S
C503 C502 1.391 . S
H504 C512 0.950 . S
H505 C517 0.950 . S
H506 C514 0.950 . S
H507 C516 0.950 . S
H508 C518 0.950 . S
H509 C520 0.950 . S
H510 C522 0.950 . S
H511 C523 0.950 . S
C512 H504 0.950 . S
C512 C513 1.386 . S
C512 C514 1.391 . S
C513 C512 1.386 . S
C513 C517 1.393 . S
C514 H506 0.950 . S
C514 C512 1.391 . S
C514 C515 1.400 . S
C515 C514 1.400 . S
C515 C516 1.398 . S
C515 C521 1.491 . S
C516 H507 0.950 . S
C516 C515 1.398 . S
C516 C517 1.391 . S
C517 H505 0.950 . S
C517 C513 1.393 . S
C517 C516 1.391 . S
C518 H508 0.950 . S
C518 C519 1.386 . S
C518 C520 1.391 . S
C519 C518 1.386 . S
C519 C523 1.393 . S
C520 H509 0.950 . S
C520 C518 1.391 . S
C520 C521 1.400 . S
C521 C515 1.491 . S
C521 C520 1.400 . S
C521 C522 1.398 . S
C522 H510 0.950 . S
C522 C521 1.398 . S
C522 C523 1.391 . S
C523 H511 0.950 . S
C523 C519 1.393 . S
C523 C522 1.391 . S
H524 C532 0.950 . S
H525 C537 0.950 . S
H526 C534 0.950 . S
H527 C536 0.950 . S
H528 C538 0.950 . S
H529 C540 0.950 . S
H530 C542 0.950 . S
H531 C543 0.950 . S
C532 H524 0.950 . S
C532 C533 1.386 . S
C532 C534 1.391 . S
C533 C532 1.386 . S
C533 C537 1.393 . S
C534 H526 0.950 . S
C534 C532 1.391 . S
C534 C535 1.400 . S
C535 C534 1.400 . S
C535 C536 1.398 . S
C535 C541 1.491 . S
C536 H527 0.950 . S
C536 C535 1.398 . S
C536 C537 1.391 . S
C537 H525 0.950 . S
C537 C533 1.393 . S
C537 C536 1.391 . S
C538 H528 0.950 . S
C538 C539 1.386 . S
C538 C540 1.391 . S
C539 C538 1.386 . S
C539 C543 1.393 . S
C540 H529 0.950 . S
C540 C538 1.391 . S
C540 C541 1.400 . S
C541 C535 1.491 . S
C541 C540 1.400 . S
C541 C542 1.398 . S
C542 H530 0.950 . S
C542 C541 1.398 . S
C542 C543 1.391 . S
C543 H531 0.950 . S
C543 C539 1.393 . S
C543 C542 1.391 . S
H544 C552 0.950 . S
H545 C557 0.950 . S
H546 C554 0.950 . S
H547 C556 0.950 . S
H548 C558 0.950 . S
H549 C560 0.950 . S
H550 C562 0.950 . S
H551 C563 0.950 . S
C552 H544 0.950 . S
C552 C553 1.386 . S
C552 C554 1.391 . S
C553 C552 1.386 . S
C553 C557 1.393 . S
C554 H546 0.950 . S
C554 C552 1.391 . S
C554 C555 1.400 . S
C555 C554 1.400 . S
C555 C556 1.398 . S
C555 C561 1.491 1_556 S
C556 H547 0.950 . S
C556 C555 1.398 . S
C556 C557 1.391 . S
C557 H545 0.950 . S
C557 C553 1.393 . S
C557 C556 1.391 . S
C558 H548 0.950 . S
C558 C559 1.386 . S
C558 C560 1.391 . S
C559 C558 1.386 . S
C559 C563 1.393 . S
C560 H549 0.950 . S
C560 C558 1.391 . S
C560 C561 1.400 . S
C561 C555 1.491 1_554 S
C561 C560 1.400 . S
C561 C562 1.398 . S
C562 H550 0.950 . S
C562 C561 1.398 . S
C562 C563 1.391 . S
C563 H551 0.950 . S
C563 C559 1.393 . S
C563 C562 1.391 . S
H564 C572 0.950 . S
H565 C577 0.950 . S
H566 C574 0.950 . S
H567 C576 0.950 . S
H568 C578 0.950 . S
H569 C580 0.950 . S
H570 C582 0.950 . S
H571 C583 0.950 . S
C572 H564 0.950 . S
C572 C573 1.386 . S
C572 C574 1.391 . S
C573 C572 1.386 . S
C573 C577 1.393 . S
C574 H566 0.950 . S
C574 C572 1.391 . S
C574 C575 1.400 . S
C575 C574 1.400 . S
C575 C576 1.398 . S
C575 C581 1.491 . S
C576 H567 0.950 . S
C576 C575 1.398 . S
C576 C577 1.391 . S
C577 H565 0.950 . S
C577 C573 1.393 . S
C577 C576 1.391 . S
C578 H568 0.950 . S
C578 C579 1.386 . S
C578 C580 1.391 . S
C579 C578 1.386 . S
C579 C583 1.393 . S
C580 H569 0.950 . S
C580 C578 1.391 . S
C580 C581 1.400 . S
C581 C575 1.491 . S
C581 C580 1.400 . S
C581 C582 1.398 . S
C582 H570 0.950 . S
C582 C581 1.398 . S
C582 C583 1.391 . S
C583 H571 0.950 . S
C583 C579 1.393 . S
C583 C582 1.391 . S
H584 C592 0.950 . S
H585 C597 0.950 . S
H586 C594 0.950 . S
H587 C596 0.950 . S
H588 C598 0.950 . S
H589 C600 0.950 . S
H590 C602 0.950 . S
H591 C603 0.950 . S
C592 H584 0.950 . S
C592 C593 1.386 . S
C592 C594 1.391 . S
C593 C592 1.386 . S
C593 C597 1.393 . S
C594 H586 0.950 . S
C594 C592 1.391 . S
C594 C595 1.400 . S
C595 C594 1.400 . S
C595 C596 1.398 . S
C595 C601 1.491 1_554 S
C596 H587 0.950 . S
C596 C595 1.398 . S
C596 C597 1.391 . S
C597 H585 0.950 . S
C597 C593 1.393 . S
C597 C596 1.391 . S
C598 H588 0.950 . S
C598 C599 1.386 . S
C598 C600 1.391 . S
C599 C598 1.386 . S
C599 C603 1.393 . S
C600 H589 0.950 . S
C600 C598 1.391 . S
C600 C601 1.400 . S
C601 C595 1.491 1_556 S
C601 C600 1.400 . S
C601 C602 1.398 . S
C602 H590 0.950 . S
C602 C601 1.398 . S
C602 C603 1.391 . S
C603 H591 0.950 . S
C603 C599 1.393 . S
C603 C602 1.391 . S
H604 C612 0.950 . S
H605 C617 0.950 . S
H606 C614 0.950 . S
H607 C616 0.950 . S
H608 C618 0.950 . S
H609 C620 0.950 . S
H610 C622 0.950 . S
H611 C623 0.950 . S
C612 H604 0.950 . S
C612 C613 1.386 . S
C612 C614 1.391 . S
C613 C612 1.386 . S
C613 C617 1.393 . S
C614 H606 0.950 . S
C614 C612 1.391 . S
C614 C615 1.400 . S
C615 C614 1.400 . S
C615 C616 1.398 . S
C615 C621 1.491 . S
C616 H607 0.950 . S
C616 C615 1.398 . S
C616 C617 1.391 . S
C617 H605 0.950 . S
C617 C613 1.393 . S
C617 C616 1.391 . S
C618 H608 0.950 . S
C618 C619 1.386 . S
C618 C620 1.391 . S
C619 C618 1.386 . S
C619 C623 1.393 . S
C620 H609 0.950 . S
C620 C618 1.391 . S
C620 C621 1.400 . S
C621 C615 1.491 . S
C621 C620 1.400 . S
C621 C622 1.398 . S
C622 H610 0.950 . S
C622 C621 1.398 . S
C622 C623 1.391 . S
C623 H611 0.950 . S
C623 C619 1.393 . S
C623 C622 1.391 . S
H624 C632 0.950 . S
H625 C637 0.950 . S
H626 C634 0.950 . S
H627 C636 0.950 . S
H628 C638 0.950 . S
H629 C640 0.950 . S
H630 C642 0.950 . S
H631 C643 0.950 . S
C632 H624 0.950 . S
C632 C633 1.386 . S
C632 C634 1.391 . S
C633 C632 1.386 . S
C633 C637 1.393 . S
C634 H626 0.950 . S
C634 C632 1.391 . S
C634 C635 1.400 . S
C635 C634 1.400 . S
C635 C636 1.398 . S
C635 C641 1.491 . S
C636 H627 0.950 . S
C636 C635 1.398 . S
C636 C637 1.391 . S
C637 H625 0.950 . S
C637 C633 1.393 . S
C637 C636 1.391 . S
C638 H628 0.950 . S
C638 C639 1.386 . S
C638 C640 1.391 . S
C639 C638 1.386 . S
C639 C643 1.393 . S
C640 H629 0.950 . S
C640 C638 1.391 . S
C640 C641 1.400 . S
C641 C635 1.491 . S
C641 C640 1.400 . S
C641 C642 1.398 . S
C642 H630 0.950 . S
C642 C641 1.398 . S
C642 C643 1.391 . S
C643 H631 0.950 . S
C643 C639 1.393 . S
C643 C642 1.391 . S
H644 C652 0.950 . S
H645 C657 0.950 . S
H646 C654 0.950 . S
H647 C656 0.950 . S
H648 C658 0.950 . S
H649 C660 0.950 . S
H650 C662 0.950 . S
H651 C663 0.950 . S
C652 H644 0.950 . S
C652 C653 1.386 . S
C652 C654 1.391 . S
C653 C652 1.386 . S
C653 C657 1.393 . S
C654 H646 0.950 . S
C654 C652 1.391 . S
C654 C655 1.400 . S
C655 C654 1.400 . S
C655 C656 1.398 . S
C655 C661 1.491 1_556 S
C656 H647 0.950 . S
C656 C655 1.398 . S
C656 C657 1.391 . S
C657 H645 0.950 . S
C657 C653 1.393 . S
C657 C656 1.391 . S
C658 H648 0.950 . S
C658 C659 1.386 . S
C658 C660 1.391 . S
C659 C658 1.386 . S
C659 C663 1.393 . S
C660 H649 0.950 . S
C660 C658 1.391 . S
C660 C661 1.400 . S
C661 C655 1.491 1_554 S
C661 C660 1.400 . S
C661 C662 1.398 . S
C662 H650 0.950 . S
C662 C661 1.398 . S
C662 C663 1.391 . S
C663 H651 0.950 . S
C663 C659 1.393 . S
C663 C662 1.391 . S
H664 C672 0.950 . S
H665 C677 0.950 . S
H666 C674 0.950 . S
H667 C676 0.950 . S
H668 C678 0.950 . S
H669 C680 0.950 . S
H670 C682 0.950 . S
H671 C683 0.950 . S
C672 H664 0.950 . S
C672 C673 1.386 . S
C672 C674 1.391 . S
C673 C672 1.386 . S
C673 C677 1.393 . S
C674 H666 0.950 . S
C674 C672 1.391 . S
C674 C675 1.400 . S
C675 C674 1.400 . S
C675 C676 1.398 . S
C675 C681 1.491 . S
C676 H667 0.950 . S
C676 C675 1.398 . S
C676 C677 1.391 . S
C677 H665 0.950 . S
C677 C673 1.393 . S
C677 C676 1.391 . S
C678 H668 0.950 . S
C678 C679 1.386 . S
C678 C680 1.391 . S
C679 C678 1.386 . S
C679 C683 1.393 . S
C680 H669 0.950 . S
C680 C678 1.391 . S
C680 C681 1.400 . S
C681 C675 1.491 . S
C681 C680 1.400 . S
C681 C682 1.398 . S
C682 H670 0.950 . S
C682 C681 1.398 . S
C682 C683 1.391 . S
C683 H671 0.950 . S
C683 C679 1.393 . S
C683 C682 1.391 . S
H684 C692 0.950 . S
H685 C697 0.950 . S
H686 C694 0.950 . S
H687 C696 0.950 . S
H688 C698 0.950 . S
H689 C700 0.950 . S
H690 C702 0.950 . S
H691 C703 0.950 . S
C692 H684 0.950 . S
C692 C693 1.386 . S
C692 C694 1.391 . S
C693 C692 1.386 . S
C693 C697 1.393 . S
C694 H686 0.950 . S
C694 C692 1.391 . S
C694 C695 1.400 . S
C695 C694 1.400 . S
C695 C696 1.398 . S
C695 C701 1.491 1_554 S
C696 H687 0.950 . S
C696 C695 1.398 . S
C696 C697 1.391 . S
C697 H685 0.950 . S
C697 C693 1.393 . S
C697 C696 1.391 . S
C698 H688 0.950 . S
C698 C699 1.386 . S
C698 C700 1.391 . S
C699 C698 1.386 . S
C699 C703 1.393 . S
C700 H689 0.950 . S
C700 C698 1.391 . S
C700 C701 1.400 . S
C701 C695 1.491 1_556 S
C701 C700 1.400 . S
C701 C702 1.398 . S
C702 H690 0.950 . S
C702 C701 1.398 . S
C702 C703 1.391 . S
C703 H691 0.950 . S
C703 C699 1.393 . S
C703 C702 1.391 . S
H704 C712 0.950 . S
H705 C717 0.950 . S
H706 C714 0.950 . S
H707 C716 0.950 . S
H708 C718 0.950 . S
H709 C720 0.950 . S
H710 C722 0.950 . S
H711 C723 0.950 . S
C712 H704 0.950 . S
C712 C713 1.386 . S
C712 C714 1.391 . S
C713 C712 1.386 . S
C713 C717 1.393 . S
C714 H706 0.950 . S
C714 C712 1.391 . S
C714 C715 1.400 . S
C715 C714 1.400 . S
C715 C716 1.398 . S
C715 C721 1.491 . S
C716 H707 0.950 . S
C716 C715 1.398 . S
C716 C717 1.391 . S
C717 H705 0.950 . S
C717 C713 1.393 . S
C717 C716 1.391 . S
C718 H708 0.950 . S
C718 C719 1.386 . S
C718 C720 1.391 . S
C719 C718 1.386 . S
C719 C723 1.393 . S
C720 H709 0.950 . S
C720 C718 1.391 . S
C720 C721 1.400 . S
C721 C715 1.491 . S
C721 C720 1.400 . S
C721 C722 1.398 . S
C722 H710 0.950 . S
C722 C721 1.398 . S
C722 C723 1.391 . S
C723 H711 0.950 . S
C723 C719 1.393 . S
C723 C722 1.391 . S
H724 C732 0.950 . S
H725 C737 0.950 . S
H726 C734 0.950 . S
H727 C736 0.950 . S
H728 C738 0.950 . S
H729 C740 0.950 . S
H730 C742 0.950 . S
H731 C743 0.950 . S
C732 H724 0.950 . S
C732 C733 1.386 . S
C732 C734 1.391 . S
C733 C732 1.386 . S
C733 C737 1.393 . S
C734 H726 0.950 . S
C734 C732 1.391 . S
C734 C735 1.400 . S
C735 C734 1.400 . S
C735 C736 1.398 . S
C735 C741 1.491 . S
C736 H727 0.950 . S
C736 C735 1.398 . S
C736 C737 1.391 . S
C737 H725 0.950 . S
C737 C733 1.393 . S
C737 C736 1.391 . S
C738 H728 0.950 . S
C738 C739 1.386 . S
C738 C740 1.391 . S
C739 C738 1.386 . S
C739 C743 1.393 . S
C740 H729 0.950 . S
C740 C738 1.391 . S
C740 C741 1.400 . S
C741 C735 1.491 . S
C741 C740 1.400 . S
C741 C742 1.398 . S
C742 H730 0.950 . S
C742 C741 1.398 . S
C742 C743 1.391 . S
C743 H731 0.950 . S
C743 C739 1.393 . S
C743 C742 1.391 . S
H744 C752 0.950 . S
H745 C757 0.950 . S
H746 C754 0.950 . S
H747 C756 0.950 . S
H748 C758 0.950 . S
H749 C760 0.950 . S
H750 C762 0.950 . S
H751 C763 0.950 . S
C752 H744 0.950 . S
C752 C753 1.386 . S
C752 C754 1.391 . S
C753 C752 1.386 . S
C753 C757 1.393 . S
C754 H746 0.950 . S
C754 C752 1.391 . S
C754 C755 1.400 . S
C755 C754 1.400 . S
C755 C756 1.398 . S
C755 C761 1.491 . S
C756 H747 0.950 . S
C756 C755 1.398 . S
C756 C757 1.391 . S
C757 H745 0.950 . S
C757 C753 1.393 . S
C757 C756 1.391 . S
C758 H748 0.950 . S
C758 C759 1.386 . S
C758 C760 1.391 . S
C759 C758 1.386 . S
C759 C763 1.393 . S
C760 H749 0.950 . S
C760 C758 1.391 . S
C760 C761 1.400 . S
C761 C755 1.491 . S
C761 C760 1.400 . S
C761 C762 1.398 . S
C762 H750 0.950 . S
C762 C761 1.398 . S
C762 C763 1.391 . S
C763 H751 0.950 . S
C763 C759 1.393 . S
C763 C762 1.391 . S
H764 C772 0.950 . S
H765 C777 0.950 . S
H766 C774 0.950 . S
H767 C776 0.950 . S
H768 C778 0.950 . S
H769 C780 0.950 . S
H770 C782 0.950 . S
H771 C783 0.950 . S
C772 H764 0.950 . S
C772 C773 1.386 . S
C772 C774 1.391 . S
C773 C772 1.386 . S
C773 C777 1.393 . S
C774 H766 0.950 . S
C774 C772 1.391 . S
C774 C775 1.400 . S
C775 C774 1.400 . S
C775 C776 1.398 . S
C775 C781 1.491 . S
C776 H767 0.950 . S
C776 C775 1.398 . S
C776 C777 1.391 . S
C777 H765 0.950 . S
C777 C773 1.393 . S
C777 C776 1.391 . S
C778 H768 0.950 . S
C778 C779 1.386 . S
C778 C780 1.391 . S
C779 C778 1.386 . S
C779 C783 1.393 . S
C780 H769 0.950 . S
C780 C778 1.391 . S
C780 C781 1.400 . S
C781 C775 1.491 . S
C781 C780 1.400 . S
C781 C782 1.398 . S
C782 H770 0.950 . S
C782 C781 1.398 . S
C782 C783 1.391 . S
C783 H771 0.950 . S
C783 C779 1.393 . S
C783 C782 1.391 . S
H784 C792 0.950 . S
H785 C797 0.950 . S
H786 C794 0.950 . S
H787 C796 0.950 . S
H788 C798 0.950 . S
H789 C800 0.950 . S
H790 C802 0.950 . S
H791 C803 0.950 . S
C792 H784 0.950 . S
C792 C793 1.386 . S
C792 C794 1.391 . S
C793 C792 1.386 . S
C793 C797 1.393 . S
C794 H786 0.950 . S
C794 C792 1.391 . S
C794 C795 1.400 . S
C795 C794 1.400 . S
C795 C796 1.398 . S
C795 C801 1.491 . S
C796 H787 0.950 . S
C796 C795 1.398 . S
C796 C797 1.391 . S
C797 H785 0.950 . S
C797 C793 1.393 . S
C797 C796 1.391 . S
C798 H788 0.950 . S
C798 C799 1.386 . S
C798 C800 1.391 . S
C799 C798 1.386 . S
C799 C803 1.393 . S
C800 H789 0.950 . S
C800 C798 1.391 . S
C800 C801 1.400 . S
C801 C795 1.491 . S
C801 C800 1.400 . S
C801 C802 1.398 . S
C802 H790 0.950 . S
C802 C801 1.398 . S
C802 C803 1.391 . S
C803 H791 0.950 . S
C803 C799 1.393 . S
C803 C802 1.391 . S
H804 C812 0.950 . S
H805 C817 0.950 . S
H806 C814 0.950 . S
H807 C816 0.950 . S
H808 C818 0.950 . S
H809 C820 0.950 . S
H810 C822 0.950 . S
H811 C823 0.950 . S
C812 H804 0.950 . S
C812 C813 1.386 . S
C812 C814 1.391 . S
C813 C812 1.386 . S
C813 C817 1.393 . S
C814 H806 0.950 . S
C814 C812 1.391 . S
C814 C815 1.400 . S
C815 C814 1.400 . S
C815 C816 1.398 . S
C815 C821 1.491 . S
C816 H807 0.950 . S
C816 C815 1.398 . S
C816 C817 1.391 . S
C817 H805 0.950 . S
C817 C813 1.393 . S
C817 C816 1.391 . S
C818 H808 0.950 . S
C818 C819 1.386 . S
C818 C820 1.391 . S
C819 C818 1.386 . S
C819 C823 1.393 . S
C820 H809 0.950 . S
C820 C818 1.391 . S
C820 C821 1.400 . S
C821 C815 1.491 . S
C821 C820 1.400 . S
C821 C822 1.398 . S
C822 H810 0.950 . S
C822 C821 1.398 . S
C822 C823 1.391 . S
C823 H811 0.950 . S
C823 C819 1.393 . S
C823 C822 1.391 . S
H824 C832 0.950 . S
H825 C837 0.950 . S
H826 C834 0.950 . S
H827 C836 0.950 . S
H828 C838 0.950 . S
H829 C840 0.950 . S
H830 C842 0.950 . S
H831 C843 0.950 . S
C832 H824 0.950 . S
C832 C833 1.386 . S
C832 C834 1.391 . S
C833 C832 1.386 . S
C833 C837 1.393 . S
C834 H826 0.950 . S
C834 C832 1.391 . S
C834 C835 1.400 . S
C835 C834 1.400 . S
C835 C836 1.398 . S
C835 C841 1.491 . S
C836 H827 0.950 . S
C836 C835 1.398 . S
C836 C837 1.391 . S
C837 H825 0.950 . S
C837 C833 1.393 . S
C837 C836 1.391 . S
C838 H828 0.950 . S
C838 C839 1.386 . S
C838 C840 1.391 . S
C839 C838 1.386 . S
C839 C843 1.393 . S
C840 H829 0.950 . S
C840 C838 1.391 . S
C840 C841 1.400 . S
C841 C835 1.491 . S
C841 C840 1.400 . S
C841 C842 1.398 . S
C842 H830 0.950 . S
C842 C841 1.398 . S
C842 C843 1.391 . S
C843 H831 0.950 . S
C843 C839 1.393 . S
C843 C842 1.391 . S
H844 C852 0.950 . S
H845 C857 0.950 . S
H846 C854 0.950 . S
H847 C856 0.950 . S
H848 C858 0.950 . S
H849 C860 0.950 . S
H850 C862 0.950 . S
H851 C863 0.950 . S
C852 H844 0.950 . S
C852 C853 1.386 . S
C852 C854 1.391 . S
C853 C852 1.386 . S
C853 C857 1.393 . S
C854 H846 0.950 . S
C854 C852 1.391 . S
C854 C855 1.400 . S
C855 C854 1.400 . S
C855 C856 1.398 . S
C855 C861 1.491 . S
C856 H847 0.950 . S
C856 C855 1.398 . S
C856 C857 1.391 . S
C857 H845 0.950 . S
C857 C853 1.393 . S
C857 C856 1.391 . S
C858 H848 0.950 . S
C858 C859 1.386 . S
C858 C860 1.391 . S
C859 C858 1.386 . S
C859 C863 1.393 . S
C860 H849 0.950 . S
C860 C858 1.391 . S
C860 C861 1.400 . S
C861 C855 1.491 . S
C861 C860 1.400 . S
C861 C862 1.398 . S
C862 H850 0.950 . S
C862 C861 1.398 . S
C862 C863 1.391 . S
C863 H851 0.950 . S
C863 C859 1.393 . S
C863 C862 1.391 . S
C233 C0 1.733 . S
C239 C41 1.735 . S
C253 C54 1.746 . S
C259 C26 1.741 . S
C273 C69 1.745 . S
C279 C96 1.748 . S
C293 C111 1.744 . S
C299 C82 1.736 . S
C313 C124 1.743 . S
C319 C152 1.738 . S
C333 C166 1.743 . S
C339 C139 1.736 . S
C353 C181 1.748 . S
C359 C208 1.752 . S
C373 C210 1.741 . S
C379 C183 1.735 . S
C393 C56 1.612 . S
C399 C13 1.610 . S
C413 C15 1.606 . S
C419 C71 1.611 . S
C433 C28 1.613 . S
C439 C85 1.611 . S
C453 C98 1.607 . S
C459 C43 1.604 . S
C473 C113 1.613 . S
C479 C168 1.611 . S
C493 C126 1.606 . S
C499 C194 1.611 . S
C513 C141 1.609 . S
C519 C197 1.612 . S
C533 C155 1.603 . S
C539 C223 1.603 . S
C553 C140 1.593 . S
C559 C12 1.585 . S
C573 C154 1.590 . S
C579 C14 1.589 . S
C593 C29 1.592 . S
C599 C112 1.588 . S
C613 C42 1.589 . S
C619 C127 1.589 . S
C633 C57 1.590 . S
C639 C196 1.589 . S
C653 C70 1.590 . S
C659 C222 1.588 . S
C673 C84 1.594 . S
C679 C169 1.584 . S
C693 C195 1.584 . S
C699 C99 1.595 . S
C713 C1 1.696 . S
C719 C211 1.704 . S
C733 C180 1.700 . S
C739 C27 1.701 . S
C753 C40 1.705 . S
C759 C182 1.695 . S
C773 C209 1.699 . S
C779 C55 1.700 . S
C793 C138 1.698 . S
C799 C68 1.702 . S
C813 C83 1.696 . S
C819 C153 1.704 . S
C833 C167 1.696 . S
C839 C97 1.703 . S
C853 C125 1.699 . S
C859 C110 1.699 . S
