# Generated by pormake.
# Topology tfs, (6)-cn, num edge types: 1
# Building blocks:
#     Node 0, Type 0, BuildingBlock: GEDQOX_clean_sbu_0, # of connection points: 6
#     Node 1, Type 0, BuildingBlock: GEDQOX_clean_sbu_0, # of connection points: 6
#     Node 2, Type 0, BuildingBlock: GEDQOX_clean_sbu_0, # of connection points: 6
#     Node 3, Type 0, BuildingBlock: GEDQOX_clean_sbu_0, # of connection points: 6
#     Node 4, Type 0, BuildingBlock: GEDQOX_clean_sbu_0, # of connection points: 6
#     Node 5, Type 0, BuildingBlock: GEDQOX_clean_sbu_0, # of connection points: 6
#     Edge 6, Type (0, 0), BuildingBlock: XUDNAN_clean_linker_2, # of connection points: 2
#     Edge 7, Type (0, 0), BuildingBlock: XUDNAN_clean_linker_2, # of connection points: 2
#     Edge 8, Type (0, 0), BuildingBlock: XUDNAN_clean_linker_2, # of connection points: 2
#     Edge 9, Type (0, 0), BuildingBlock: XUDNAN_clean_linker_2, # of connection points: 2
#     Edge 10, Type (0, 0), BuildingBlock: XUDNAN_clean_linker_2, # of connection points: 2
#     Edge 11, Type (0, 0), BuildingBlock: XUDNAN_clean_linker_2, # of connection points: 2
#     Edge 12, Type (0, 0), BuildingBlock: XUDNAN_clean_linker_2, # of connection points: 2
#     Edge 13, Type (0, 0), BuildingBlock: XUDNAN_clean_linker_2, # of connection points: 2
#     Edge 14, Type (0, 0), BuildingBlock: XUDNAN_clean_linker_2, # of connection points: 2
#     Edge 15, Type (0, 0), BuildingBlock: XUDNAN_clean_linker_2, # of connection points: 2
#     Edge 16, Type (0, 0), BuildingBlock: XUDNAN_clean_linker_2, # of connection points: 2
#     Edge 17, Type (0, 0), BuildingBlock: XUDNAN_clean_linker_2, # of connection points: 2
#     Edge 18, Type (0, 0), BuildingBlock: XUDNAN_clean_linker_2, # of connection points: 2
#     Edge 19, Type (0, 0), BuildingBlock: XUDNAN_clean_linker_2, # of connection points: 2
#     Edge 20, Type (0, 0), BuildingBlock: XUDNAN_clean_linker_2, # of connection points: 2
#     Edge 21, Type (0, 0), BuildingBlock: XUDNAN_clean_linker_2, # of connection points: 2
#     Edge 22, Type (0, 0), BuildingBlock: XUDNAN_clean_linker_2, # of connection points: 2
#     Edge 23, Type (0, 0), BuildingBlock: XUDNAN_clean_linker_2, # of connection points: 2
# Relax obj value: 0.566
# Max RMSD: 0.435
# Mean RMSD: 0.354
data_MOF--net-tfs--node1-GEDQOX_clean_sbu_0--edge1-XUDNAN_clean_linker_2
_symmetry_space_group_name_H-M    P1
_symmetry_Int_Tables_number       1
_symmetry_cell_setting            triclinic
loop_
_symmetry_equiv_pos_as_xyz
'x, y, z'
_cell_length_a     48.009467
_cell_length_b     51.67006
_cell_length_c     12.660876
_cell_angle_alpha  96.989148
_cell_angle_beta   87.452083
_cell_angle_gamma 112.69027
loop_
_atom_site_label
_atom_site_type_symbol
_atom_site_fract_x
_atom_site_fract_y
_atom_site_fract_z
_atom_type_partial_charge
Nd0 Nd 0.23647 0.40494 0.19607 0.0
Nd1 Nd 0.2942 0.44666 0.09991 0.0
C2 C 0.19495 0.36801 0.30331 0.0
C3 C 0.16778 0.34242 0.28286 0.0
C4 C 0.16229 0.32047 0.34562 0.0
C5 C 0.13556 0.29669 0.33343 0.0
C6 C 0.11374 0.29469 0.25906 0.0
C7 C 0.12009 0.31609 0.19212 0.0
C8 C 0.14705 0.33977 0.20359 0.0
C9 C 0.24753 0.39123 0.98495 0.0
C10 C 0.3016 0.40617 0.25238 0.0
C11 C 0.33746 0.47379 0.97349 0.0
C12 C 0.36153 0.48887 0.90311 0.0
C13 C 0.37539 0.4744 0.83215 0.0
C14 C 0.39625 0.48878 0.75759 0.0
C15 C 0.40355 0.5177 0.75576 0.0
C16 C 0.39095 0.53229 0.8312 0.0
C17 C 0.36983 0.51791 0.90376 0.0
C18 C 0.2847 0.46506 0.30651 0.0
C19 C 0.22998 0.45484 0.08281 0.0
O20 O 0.22039 0.3657 0.27377 0.0
O21 O 0.19349 0.39185 0.28471 0.0
O22 O 0.22067 0.38625 0.02296 0.0
O23 O 0.26627 0.40087 0.0598 0.0
O24 O 0.27606 0.40633 0.29402 0.0
O25 O 0.31009 0.4144 0.15768 0.0
O26 O 0.34266 0.46319 0.05535 0.0
O27 O 0.30946 0.47078 0.9602 0.0
O28 O 0.31097 0.47292 0.26105 0.0
O29 O 0.26462 0.4511 0.23835 0.0
O30 O 0.25638 0.4581 0.03773 0.0
O31 O 0.21838 0.43746 0.15627 0.0
H32 H 0.17835 0.3221 0.40612 0.0
H33 H 0.13144 0.28034 0.38503 0.0
H34 H 0.1036 0.31534 0.13493 0.0
H35 H 0.1512 0.35638 0.15319 0.0
H36 H 0.36944 0.45194 0.83247 0.0
H37 H 0.40627 0.47742 0.70103 0.0
H38 H 0.39723 0.55487 0.83284 0.0
H39 H 0.35976 0.52938 0.95966 0.0
Nd40 Nd 0.81535 0.26148 0.77715 0.0
Nd41 Nd 0.75923 0.24894 0.92164 0.0
C42 C 0.85279 0.26591 0.6152 0.0
C43 C 0.86891 0.25042 0.55237 0.0
C44 C 0.87662 0.25584 0.44708 0.0
C45 C 0.8963 0.24516 0.39138 0.0
C46 C 0.90852 0.22889 0.44052 0.0
C47 C 0.89873 0.22161 0.54314 0.0
C48 C 0.87904 0.23232 0.59876 0.0
C49 C 0.82347 0.25603 0.98706 0.0
C50 C 0.76944 0.19594 0.79576 0.0
C51 C 0.72174 0.24258 0.08423 0.0
C52 C 0.69915 0.25277 0.13167 0.0
C53 C 0.67796 0.23656 0.20152 0.0
C54 C 0.65202 0.24188 0.22774 0.0
C55 C 0.64706 0.26341 0.18391 0.0
C56 C 0.66976 0.28122 0.12161 0.0
C57 C 0.69566 0.27585 0.09534 0.0
C58 C 0.75169 0.25649 0.71487 0.0
C59 C 0.80462 0.31567 0.89841 0.0
O60 O 0.82347 0.25604 0.60349 0.0
O61 O 0.86169 0.27509 0.71392 0.0
O62 O 0.84374 0.27411 0.9326 0.0
O63 O 0.80162 0.24115 0.92761 0.0
O64 O 0.78753 0.2135 0.73146 0.0
O65 O 0.76086 0.20532 0.88764 0.0
O66 O 0.74996 0.26033 0.09035 0.0
O67 O 0.71443 0.22769 0.99105 0.0
O68 O 0.73079 0.23751 0.76422 0.0
O69 O 0.77348 0.27018 0.77528 0.0
O70 O 0.78389 0.298 0.95694 0.0
O71 O 0.817 0.30629 0.81496 0.0
H72 H 0.86871 0.26958 0.4099 0.0
H73 H 0.90366 0.25145 0.31303 0.0
H74 H 0.90759 0.20892 0.58252 0.0
H75 H 0.87295 0.22764 0.67972 0.0
H76 H 0.68038 0.21857 0.22974 0.0
H77 H 0.63487 0.22794 0.27595 0.0
H78 H 0.66634 0.2977 0.08525 0.0
H79 H 0.71183 0.28839 0.04066 0.0
Nd80 Nd 0.57365 0.86151 0.36318 0.0
Nd81 Nd 0.5593 0.80802 0.23038 0.0
C82 C 0.5904 0.91627 0.42669 0.0
C83 C 0.61422 0.94248 0.47671 0.0
C84 C 0.63609 0.96062 0.41293 0.0
C85 C 0.6565 0.98692 0.45696 0.0
C86 C 0.65549 0.99587 0.56588 0.0
C87 C 0.63376 0.97763 0.62986 0.0
C88 C 0.61334 0.95128 0.5858 0.0
C89 C 0.55378 0.81681 0.47744 0.0
C90 C 0.61898 0.82678 0.36823 0.0
C91 C 0.54105 0.76316 0.09002 0.0
C92 C 0.53093 0.7388 0.00754 0.0
C93 C 0.5247 0.71158 0.03381 0.0
C94 C 0.51606 0.68867 0.9549 0.0
C95 C 0.51366 0.69257 0.84798 0.0
C96 C 0.5195 0.71978 0.82191 0.0
C97 C 0.52814 0.74272 0.90101 0.0
C98 C 0.59976 0.85358 0.13993 0.0
C99 C 0.50432 0.83132 0.27306 0.0
O100 O 0.59606 0.90597 0.33239 0.0
O101 O 0.57422 0.89665 0.48583 0.0
O102 O 0.57548 0.8408 0.50816 0.0
O103 O 0.54179 0.817 0.3913 0.0
O104 O 0.6179 0.8524 0.37503 0.0
O105 O 0.59575 0.80435 0.32963 0.0
O106 O 0.54563 0.7614 0.18994 0.0
O107 O 0.54571 0.78846 0.06709 0.0
O108 O 0.6058 0.83268 0.16348 0.0
O109 O 0.57551 0.85224 0.18621 0.0
O110 O 0.51301 0.81133 0.22777 0.0
O111 O 0.52333 0.85347 0.33225 0.0
H112 H 0.6371 0.95477 0.32817 0.0
H113 H 0.67307 1.00025 0.40543 0.0
H114 H 0.63192 0.98401 0.71371 0.0
H115 H 0.5964 0.93814 0.63677 0.0
H116 H 0.52656 0.70797 0.11524 0.0
H117 H 0.51094 0.66781 0.97797 0.0
H118 H 0.5178 0.72338 0.74033 0.0
H119 H 0.53289 0.76354 0.87842 0.0
Nd120 Nd 0.86837 0.68449 0.59289 0.0
Nd121 Nd 0.89525 0.63995 0.66161 0.0
C122 C 0.83833 0.71255 0.52183 0.0
C123 C 0.82198 0.73055 0.49585 0.0
C124 C 0.80531 0.72503 0.40121 0.0
C125 C 0.78633 0.7396 0.38721 0.0
C126 C 0.78382 0.76023 0.46708 0.0
C127 C 0.80109 0.76595 0.56033 0.0
C128 C 0.81972 0.75141 0.57439 0.0
C129 C 0.88995 0.69572 0.79691 0.0
C130 C 0.94182 0.69561 0.55379 0.0
C131 C 0.9113 0.60345 0.74784 0.0
C132 C 0.89715 0.5738 0.77062 0.0
C133 C 0.91529 0.56006 0.79931 0.0
C134 C 0.90221 0.53233 0.82562 0.0
C135 C 0.87064 0.51779 0.82409 0.0
C136 C 0.85252 0.53166 0.79452 0.0
C137 C 0.86565 0.55939 0.76796 0.0
C138 C 0.86671 0.62666 0.46881 0.0
C139 C 0.82599 0.6307 0.72458 0.0
O140 O 0.84115 0.71002 0.6217 0.0
O141 O 0.85294 0.70063 0.45492 0.0
O142 O 0.87398 0.70787 0.76017 0.0
O143 O 0.89989 0.68418 0.7188 0.0
O144 O 0.91829 0.70149 0.52691 0.0
O145 O 0.93883 0.67533 0.61396 0.0
O146 O 0.90092 0.62101 0.80139 0.0
O147 O 0.91609 0.60785 0.64791 0.0
O148 O 0.88915 0.61992 0.48803 0.0
O149 O 0.85943 0.63858 0.55099 0.0
O150 O 0.85077 0.62785 0.75107 0.0
O151 O 0.82628 0.64745 0.65196 0.0
H152 H 0.8061 0.70881 0.33972 0.0
H153 H 0.77359 0.73465 0.31394 0.0
H154 H 0.79957 0.78119 0.62473 0.0
H155 H 0.83189 0.7561 0.64888 0.0
H156 H 0.93962 0.5709 0.80264 0.0
H157 H 0.91686 0.52251 0.84926 0.0
H158 H 0.82818 0.52103 0.79108 0.0
H159 H 0.85121 0.56966 0.7462 0.0
Nd160 Nd 0.23382 0.82199 0.4254 0.0
Nd161 Nd 0.21592 0.76042 0.30042 0.0
C162 C 0.25723 0.87006 0.55315 0.0
C163 C 0.26831 0.90121 0.55524 0.0
C164 C 0.26162 0.91692 0.64372 0.0
C165 C 0.27395 0.94644 0.65384 0.0
C166 C 0.29353 0.96116 0.57591 0.0
C167 C 0.29927 0.9454 0.48482 0.0
C168 C 0.28683 0.9157 0.47467 0.0
C169 C 0.21489 0.81656 0.22053 0.0
C170 C 0.16278 0.77937 0.4184 0.0
C171 C 0.19306 0.71208 0.17624 0.0
C172 C 0.19495 0.68426 0.15279 0.0
C173 C 0.22052 0.67943 0.17899 0.0
C174 C 0.22046 0.65207 0.16224 0.0
C175 C 0.19473 0.62923 0.1201 0.0
C176 C 0.16955 0.63446 0.09199 0.0
C177 C 0.16969 0.66169 0.10824 0.0
C178 C 0.23869 0.76802 0.49849 0.0
C179 C 0.28686 0.80076 0.30822 0.0
O180 O 0.2282 0.85557 0.54237 0.0
O181 O 0.27335 0.85719 0.50198 0.0
O182 O 0.21441 0.83678 0.29114 0.0
O183 O 0.22982 0.8042 0.25531 0.0
O184 O 0.18388 0.80027 0.47679 0.0
O185 O 0.16996 0.76463 0.33638 0.0
O186 O 0.21581 0.7341 0.1485 0.0
O187 O 0.18176 0.71695 0.26886 0.0
O188 O 0.24126 0.74889 0.42675 0.0
O189 O 0.221 0.77844 0.46988 0.0
O190 O 0.26553 0.77944 0.25327 0.0
O191 O 0.2802 0.81767 0.38416 0.0
H192 H 0.24734 0.9063 0.70671 0.0
H193 H 0.26847 0.95778 0.72399 0.0
H194 H 0.31428 0.95597 0.42338 0.0
H195 H 0.29231 0.90412 0.40524 0.0
H196 H 0.24019 0.69663 0.2142 0.0
H197 H 0.24011 0.64864 0.1854 0.0
H198 H 0.14958 0.61741 0.05801 0.0
H199 H 0.14977 0.66505 0.08766 0.0
Nd200 Nd 0.4626 0.30624 0.64896 0.0
Nd201 Nd 0.50773 0.36757 0.76039 0.0
C202 C 0.43385 0.25737 0.53252 0.0
C203 C 0.41879 0.22713 0.54868 0.0
C204 C 0.41939 0.2062 0.46776 0.0
C205 C 0.40572 0.17749 0.48249 0.0
C206 C 0.39107 0.16903 0.5787 0.0
C207 C 0.39024 0.19019 0.65905 0.0
C208 C 0.40408 0.21885 0.64449 0.0
C209 C 0.44593 0.32371 0.84762 0.0
C210 C 0.45399 0.36325 0.60225 0.0
C211 C 0.53998 0.41573 0.87407 0.0
C212 C 0.56993 0.43889 0.86686 0.0
C213 C 0.58657 0.45198 0.96005 0.0
C214 C 0.61505 0.47369 0.95566 0.0
C215 C 0.6278 0.48276 0.8576 0.0
C216 C 0.61084 0.46987 0.76413 0.0
C217 C 0.58222 0.4481 0.76868 0.0
C218 C 0.52559 0.35237 0.56068 0.0
C219 C 0.50679 0.30978 0.84388 0.0
O220 O 0.42066 0.27429 0.57345 0.0
O221 O 0.46326 0.26864 0.54399 0.0
O222 O 0.43807 0.29731 0.81 0.0
O223 O 0.45905 0.33899 0.77603 0.0
O224 O 0.45261 0.33805 0.55947 0.0
O225 O 0.46945 0.3763 0.69053 0.0
O226 O 0.53983 0.39127 0.89273 0.0
O227 O 0.51956 0.41337 0.80428 0.0
O228 O 0.53747 0.37725 0.61256 0.0
O229 O 0.51055 0.33576 0.6264 0.0
O230 O 0.51252 0.33696 0.86618 0.0
O231 O 0.49181 0.29436 0.75772 0.0
H232 H 0.43071 0.21208 0.39327 0.0
H233 H 0.40725 0.16199 0.41921 0.0
H234 H 0.37876 0.18469 0.73351 0.0
H235 H 0.40331 0.23454 0.70835 0.0
H236 H 0.57755 0.44533 0.03663 0.0
H237 H 0.62709 0.4834 0.02962 0.0
H238 H 0.61997 0.47607 0.68721 0.0
H239 H 0.56986 0.4383 0.69536 0.0
H240 H 0.4326 0.35666 0.39789 0.0
H241 H 0.42836 0.39564 0.71877 0.0
H242 H 0.38915 0.41068 0.66235 0.0
H243 H 0.42134 0.41053 0.26052 0.0
H244 H 0.39825 0.38534 0.15676 0.0
H245 H 0.42691 0.37815 0.22024 0.0
H246 H 0.38656 0.33083 0.26579 0.0
H247 H 0.35756 0.3381 0.20541 0.0
H248 H 0.35381 0.33059 0.34182 0.0
H249 H 0.34616 0.41568 0.5801 0.0
H250 H 0.30755 0.41857 0.46552 0.0
H251 H 0.34273 0.3821 0.19189 0.0
C252 C 0.42344 0.36845 0.45567 0.0
C253 C 0.43328 0.37479 0.56278 0.0
C254 C 0.42126 0.39069 0.6362 0.0
C255 C 0.39882 0.39916 0.60519 0.0
C256 C 0.38901 0.39196 0.50003 0.0
C257 C 0.40129 0.37756 0.4254 0.0
C258 C 0.38657 0.37289 0.31719 0.0
C259 C 0.40967 0.38763 0.23382 0.0
C260 C 0.37016 0.34122 0.28053 0.0
C261 C 0.36422 0.38691 0.3434 0.0
C262 C 0.36559 0.39711 0.44996 0.0
C263 C 0.3454 0.40853 0.49588 0.0
C264 C 0.32361 0.41014 0.4304 0.0
C265 C 0.32293 0.40148 0.31991 0.0
C266 C 0.34336 0.38953 0.27585 0.0
H267 H 0.08156 0.2765 0.43518 0.0
H268 H 0.07606 0.26507 0.09059 0.0
H269 H 0.02156 0.23618 0.10124 0.0
H270 H 0.01994 0.20508 0.48306 0.0
H271 H 1.00743 0.22154 0.59892 0.0
H272 H 0.04688 0.23447 0.56394 0.0
H273 H 0.04699 0.28459 0.56367 0.0
H274 H 1.0078 0.27183 0.598 0.0
H275 H 0.02039 0.2897 0.48062 0.0
H276 H 0.9674 0.21823 0.14927 0.0
H277 H 0.91816 0.21344 0.23039 0.0
H278 H 0.95979 0.23639 0.54304 0.0
C279 C 0.0693 0.26665 0.36175 0.0
C280 C 0.08304 0.27269 0.26208 0.0
C281 C 0.06589 0.2606 0.1678 0.0
C282 C 0.03503 0.24395 0.17313 0.0
C283 C 0.02191 0.23933 0.27318 0.0
C284 C 0.03865 0.25008 0.36593 0.0
C285 C 0.01875 0.24625 0.46339 0.0
C286 C 0.02354 0.22559 0.53126 0.0
C287 C 0.02378 0.27478 0.53008 0.0
C288 C 0.98811 0.23347 0.4106 0.0
C289 C 0.99031 0.22888 0.30116 0.0
C290 C 0.96525 0.22087 0.23496 0.0
C291 C 0.93743 0.21836 0.28158 0.0
C292 C 0.93512 0.2242 0.39309 0.0
C293 C 0.96057 0.23075 0.45807 0.0
H294 H 0.74552 0.1639 0.60738 0.0
H295 H 0.76891 0.15897 0.92913 0.0
H296 H 0.74557 0.107 0.89934 0.0
H297 H 0.6734 0.11009 0.61057 0.0
H298 H 0.67326 0.09547 0.47379 0.0
H299 H 0.69559 0.13215 0.51291 0.0
H300 H 0.74335 0.12534 0.43583 0.0
H301 H 0.72107 0.08863 0.3957 0.0
H302 H 0.7538 0.09831 0.47914 0.0
H303 H 0.71683 0.05657 0.84208 0.0
H304 H 0.68354 0.00961 0.76027 0.0
H305 H 0.67552 0.04636 0.47782 0.0
C306 C 0.74654 0.1517 0.66983 0.0
C307 C 0.75951 0.1652 0.76981 0.0
C308 C 0.75941 0.14884 0.85166 0.0
C309 C 0.74623 0.11937 0.83547 0.0
C310 C 0.73296 0.10658 0.73718 0.0
C311 C 0.73294 0.12209 0.65543 0.0
C312 C 0.71452 0.10296 0.5614 0.0
C313 C 0.6876 0.11063 0.53842 0.0
C314 C 0.73439 0.10387 0.46219 0.0
C315 C 0.70408 0.07447 0.60396 0.0
C316 C 0.71525 0.07713 0.70506 0.0
C317 C 0.70804 0.05411 0.76264 0.0
C318 C 0.68886 0.02754 0.7158 0.0
C319 C 0.67676 0.02415 0.61261 0.0
C320 C 0.68473 0.04805 0.55603 0.0
H321 H 0.72615 0.73979 0.37803 0.0
H322 H 0.79466 0.81614 0.53123 0.0
H323 H 0.76043 0.84128 0.52524 0.0
H324 H 0.69756 0.77472 0.20052 0.0
H325 H 0.65889 0.75074 0.21182 0.0
H326 H 0.68911 0.73888 0.22587 0.0
H327 H 0.66828 0.7235 0.41062 0.0
H328 H 0.63812 0.73548 0.39731 0.0
H329 H 0.66284 0.74894 0.51138 0.0
H330 H 0.71792 0.85857 0.50338 0.0
H331 H 0.67128 0.86579 0.46605 0.0
H332 H 0.63058 0.77834 0.32886 0.0
C333 C 0.7342 0.7619 0.40893 0.0
C334 C 0.76334 0.77576 0.45562 0.0
C335 C 0.77245 0.8047 0.49644 0.0
C336 C 0.75316 0.81931 0.49292 0.0
C337 C 0.72455 0.80494 0.44789 0.0
C338 C 0.71514 0.77689 0.40618 0.0
C339 C 0.68306 0.76623 0.36385 0.0
C340 C 0.68211 0.7571 0.24337 0.0
C341 C 0.66182 0.7421 0.42439 0.0
C342 C 0.67593 0.79256 0.38837 0.0
C343 C 0.70016 0.81476 0.43653 0.0
C344 C 0.69883 0.84127 0.46562 0.0
C345 C 0.67219 0.84521 0.44421 0.0
C346 C 0.64704 0.82273 0.39476 0.0
C347 C 0.64917 0.79606 0.36731 0.0
H348 H 0.11643 0.72675 0.41117 0.0
H349 H 0.13471 0.81595 0.48241 0.0
H350 H 0.08008 0.80467 0.51351 0.0
H351 H 0.0444 0.70499 0.28192 0.0
H352 H 0.02772 0.67247 0.34143 0.0
H353 H 0.0679 0.68759 0.32003 0.0
H354 H 0.07742 0.68785 0.52027 0.0
H355 H 0.03729 0.67248 0.54217 0.0
H356 H 0.06007 0.70509 0.61865 0.0
H357 H 0.02178 0.783 0.52707 0.0
H358 H 0.96769 0.7533 0.55169 0.0
H359 H 0.98822 0.67822 0.49184 0.0
C360 C 0.10892 0.74392 0.43319 0.0
C361 C 0.12997 0.77236 0.4432 0.0
C362 C 0.11915 0.79408 0.47411 0.0
C363 C 0.08806 0.78783 0.49133 0.0
C364 C 0.06785 0.75962 0.4799 0.0
C365 C 0.07803 0.73799 0.45397 0.0
C366 C 0.05202 0.7094 0.45378 0.0
C367 C 0.04777 0.69262 0.34269 0.0
C368 C 0.057 0.69272 0.53875 0.0
C369 C 0.02555 0.71821 0.4825 0.0
C370 C 0.03501 0.74728 0.49516 0.0
C371 C 1.01432 0.76023 0.51825 0.0
C372 C 0.9835 0.74318 0.53123 0.0
C373 C 0.97349 0.71339 0.52362 0.0
C374 C 0.99502 0.70092 0.49826 0.0
H375 H 0.30546 1.00065 0.43105 0.0
H376 H 0.31769 0.99311 0.76223 0.0
H377 H 0.34304 0.0447 0.79717 0.0
H378 H 0.37733 0.05804 0.40024 0.0
H379 H 0.36258 0.07582 0.31735 0.0
H380 H 0.3449 0.03807 0.31662 0.0
H381 H 0.29375 0.04215 0.36394 0.0
H382 H 0.31131 0.07991 0.36468 0.0
H383 H 0.29097 0.06497 0.48006 0.0
H384 H 0.36774 0.09665 0.79799 0.0
H385 H 0.39013 0.14642 0.76491 0.0
H386 H 0.36169 0.12192 0.43404 0.0
C387 C 0.31362 0.00986 0.51073 0.0
C388 C 0.3092 0.99262 0.59412 0.0
C389 C 0.32014 1.00568 0.69736 0.0
C390 C 0.33481 0.03504 0.718 0.0
C391 C 0.33859 0.05134 0.6347 0.0
C392 C 0.32834 0.03935 0.53303 0.0
C393 C 0.3353 0.06207 0.45849 0.0
C394 C 0.35629 0.05826 0.36787 0.0
C395 C 0.30609 0.06228 0.41424 0.0
C396 C 0.35127 0.08853 0.53432 0.0
C397 C 0.35281 0.08172 0.63542 0.0
C398 C 0.3665 0.1023 0.71928 0.0
C399 C 0.37896 0.13065 0.6997 0.0
C400 C 0.37756 0.13848 0.59703 0.0
C401 C 0.36348 0.11688 0.51332 0.0
H402 H 0.2385 0.60963 0.04347 0.0
H403 H 0.14798 0.58247 0.17489 0.0
H404 H 0.145 0.53345 0.15837 0.0
H405 H 0.22571 0.5463 0.85482 0.0
H406 H 0.26258 0.5463 0.87593 0.0
H407 H 0.25704 0.57913 0.89057 0.0
H408 H 0.27869 0.59068 0.08278 0.0
H409 H 0.28468 0.55813 0.06793 0.0
H410 H 0.26239 0.56541 0.17707 0.0
H411 H 0.15295 0.48835 0.14087 0.0
H412 H 0.1724 0.45035 0.13075 0.0
H413 H 0.25732 0.50617 0.00709 0.0
C414 C 0.21802 0.59332 0.06827 0.0
C415 C 0.19334 0.59982 0.10939 0.0
C416 C 0.16695 0.5779 0.14121 0.0
C417 C 0.16503 0.55 0.13225 0.0
C418 C 0.18961 0.54425 0.0906 0.0
C419 C 0.21563 0.56525 0.0592 0.0
C420 C 0.23934 0.55354 0.02236 0.0
C421 C 0.24659 0.5565 0.90388 0.0
C422 C 0.26796 0.56778 0.09166 0.0
C423 C 0.22282 0.52287 0.04059 0.0
C424 C 0.19406 0.51794 0.07906 0.0
C425 C 0.17526 0.49179 0.10927 0.0
C426 C 0.18647 0.47032 0.10306 0.0
C427 C 0.2162 0.47516 0.06703 0.0
C428 C 0.23422 0.50156 0.0325 0.0
H429 H 0.54883 0.33656 -0.00037 0.0
H430 H 0.49064 0.25328 0.85773 0.0
H431 H 0.51315 0.23174 0.9752 0.0
H432 H 0.61178 0.32507 -0.00086 0.0
H433 H 0.62696 0.34535 0.12434 0.0
H434 H 0.60085 0.35377 0.05239 0.0
H435 H 0.5658 0.34778 0.218 0.0
H436 H 0.59198 0.33909 0.29028 0.0
H437 H 0.553 0.31521 0.27744 0.0
H438 H 0.54766 0.21973 0.07801 0.0
H439 H 0.59472 0.21825 0.13951 0.0
H440 H 0.63129 0.3092 0.21568 0.0
C441 C 0.54019 0.31375 -0.00476 0.0
C442 C 0.51805 0.29653 0.91947 0.0
C443 C 0.50769 0.26684 0.91498 0.0
C444 C 0.52004 0.25444 0.98244 0.0
C445 C 0.54244 0.27205 0.05446 0.0
C446 C 0.5524 0.30112 0.06145 0.0
C447 C 0.5799 0.31539 0.13243 0.0
C448 C 0.60642 0.33607 0.0735 0.0
C449 C 0.5722 0.33025 0.23563 0.0
C450 C 0.58581 0.28988 0.15479 0.0
C451 C 0.56303 0.26503 0.11396 0.0
C452 C 0.56521 0.23892 0.11304 0.0
C453 C 0.59204 0.23828 0.14873 0.0
C454 C 0.61647 0.26367 0.18287 0.0
C455 C 0.61268 0.28955 0.19128 0.0
H456 H 0.53262 0.64922 0.8272 0.0
H457 H 0.47249 0.68003 0.68691 0.0
H458 H 0.44903 0.63423 0.57818 0.0
H459 H 0.5293 0.59067 0.58699 0.0
H460 H 0.52973 0.56771 0.68273 0.0
H461 H 0.55125 0.60523 0.70724 0.0
H462 H 0.52421 0.60667 0.8888 0.0
H463 H 0.50331 0.56959 0.86485 0.0
H464 H 0.4835 0.59311 0.8919 0.0
H465 H 0.42198 0.58412 0.53334 0.0
H466 H 0.38993 0.53776 0.58694 0.0
H467 H 0.46388 0.53652 0.76463 0.0
C468 C 0.51523 0.64648 0.77043 0.0
C469 C 0.50428 0.66795 0.76549 0.0
C470 C 0.48155 0.66395 0.69079 0.0
C471 C 0.46823 0.63797 0.6281 0.0
C472 C 0.478 0.6163 0.6406 0.0
C473 C 0.50126 0.62045 0.7099 0.0
C474 C 0.5026 0.59275 0.73064 0.0
C475 C 0.52984 0.58886 0.67349 0.0
C476 C 0.50336 0.59042 0.85104 0.0
C477 C 0.47346 0.57238 0.67769 0.0
C478 C 0.46107 0.58617 0.61802 0.0
C479 C 0.43183 0.57297 0.57696 0.0
C480 C 0.41374 0.54651 0.60714 0.0
C481 C 0.42488 0.53401 0.67917 0.0
C482 C 0.45561 0.54568 0.70684 0.0
H483 H 0.89025 0.4743 0.77245 0.0
H484 H 0.81946 0.49453 0.94282 0.0
H485 H 0.79623 0.4457 0.99033 0.0
H486 H 0.84477 0.40549 0.66308 0.0
H487 H 0.87269 0.39081 0.67793 0.0
H488 H 0.88439 0.42766 0.66234 0.0
H489 H 0.91509 0.44096 0.83824 0.0
H490 H 0.90338 0.40407 0.85447 0.0
H491 H 0.89638 0.42785 0.95866 0.0
H492 H 0.78027 0.39383 0.01727 0.0
H493 H 0.77149 0.34311 0.01013 0.0
H494 H 0.8528 0.35764 0.82184 0.0
C495 C 0.87009 0.46865 0.82098 0.0
C496 C 0.85674 0.48839 0.85384 0.0
C497 C 0.82998 0.47979 0.91555 0.0
C498 C 0.81674 0.45214 0.94378 0.0
C499 C 0.83051 0.43326 0.91 0.0
C500 C 0.85658 0.44118 0.84972 0.0
C501 C 0.86642 0.41671 0.82029 0.0
C502 C 0.86708 0.40976 0.69872 0.0
C503 C 0.89715 0.42277 0.87091 0.0
C504 C 0.84141 0.3936 0.8709 0.0
C505 C 0.82115 0.40357 0.92395 0.0
C506 C 0.79609 0.38584 0.97623 0.0
C507 C 0.79135 0.3571 0.97231 0.0
C508 C 0.81143 0.34639 0.91556 0.0
C509 C 0.83697 0.36511 0.86583 0.0
H510 H 0.33958 0.83474 0.42297 0.0
H511 H 0.30742 0.77533 0.13892 0.0
H512 H 0.3591 0.77885 0.09878 0.0
H513 H 0.41161 0.87892 0.30804 0.0
H514 H 0.43291 0.88502 0.42864 0.0
H515 H 0.39333 0.87902 0.4355 0.0
H516 H 0.38355 0.8377 0.54741 0.0
H517 H 0.42306 0.84359 0.54099 0.0
H518 H 0.39513 0.80926 0.49663 0.0
H519 H 0.41318 0.78694 0.08915 0.0
H520 H 0.46736 0.79879 0.11185 0.0
H521 H 0.46759 0.85344 0.40141 0.0
C522 C 0.34348 0.82273 0.35177 0.0
C523 C 0.31906 0.8048 0.28407 0.0
C524 C 0.32537 0.78922 0.19243 0.0
C525 C 0.35481 0.79108 0.16858 0.0
C526 C 0.37818 0.80865 0.23675 0.0
C527 C 0.37306 0.82425 0.32654 0.0
C528 C 0.40263 0.84101 0.3868 0.0
C529 C 0.41059 0.87289 0.38993 0.0
C530 C 0.40098 0.83236 0.49964 0.0
C531 C 0.42488 0.83197 0.31748 0.0
C532 C 0.41004 0.8134 0.23113 0.0
C533 C 0.42508 0.80153 0.15624 0.0
C534 C 0.456 0.80843 0.1701 0.0
C535 C 0.47203 0.82712 0.2583 0.0
C536 C 0.45619 0.83935 0.33247 0.0
H537 H 0.76688 0.61435 0.65255 0.0
H538 H 0.82055 0.60166 0.89403 0.0
H539 H 0.77589 0.56353 0.95271 0.0
H540 H 0.69798 0.59943 0.82211 0.0
H541 H 0.6727 0.58215 0.71129 0.0
H542 H 0.70869 0.60996 0.69089 0.0
H543 H 0.72186 0.57642 0.54727 0.0
H544 H 0.68614 0.5484 0.56782 0.0
H545 H 0.72077 0.54309 0.5805 0.0
H546 H 0.72769 0.5245 0.9771 0.0
H547 H 0.67626 0.48845 0.97681 0.0
H548 H 0.65092 0.52619 0.72768 0.0
C549 C 0.76902 0.60395 0.71923 0.0
C550 C 0.7974 0.61108 0.76807 0.0
C551 C 0.79924 0.59667 0.85451 0.0
C552 C 0.77394 0.57486 0.88874 0.0
C553 C 0.74662 0.56775 0.83712 0.0
C554 C 0.74369 0.58204 0.75553 0.0
C555 C 0.71135 0.56968 0.71443 0.0
C556 C 0.69681 0.5916 0.73596 0.0
C557 C 0.70997 0.55874 0.59546 0.0
C558 C 0.69711 0.54561 0.78299 0.0
C559 C 0.718 0.5452 0.8535 0.0
C560 C 0.71089 0.52486 0.9237 0.0
C561 C 0.68145 0.50452 0.92332 0.0
C562 C 0.65915 0.5046 0.85376 0.0
C563 C 0.66731 0.52543 0.78195 0.0
H564 H 0.2108 0.391 0.82159 0.0
H565 H 0.30386 0.40904 0.90303 0.0
H566 H 0.32102 0.43688 0.75092 0.0
H567 H 0.22623 0.3834 0.52671 0.0
H568 H 0.19711 0.39611 0.5034 0.0
H569 H 0.19459 0.37737 0.61618 0.0
H570 H 0.18885 0.42144 0.72732 0.0
H571 H 0.19568 0.44043 0.61224 0.0
H572 H 0.21944 0.45544 0.72828 0.0
H573 H 0.32878 0.47278 0.62846 0.0
H574 H 0.32933 0.48813 0.45214 0.0
H575 H 0.23276 0.43973 0.42163 0.0
C576 C 0.23481 0.40066 0.80688 0.0
C577 C 0.25615 0.39932 0.87733 0.0
C578 C 0.28722 0.41086 0.85251 0.0
C579 C 0.29728 0.42725 0.76837 0.0
C580 C 0.27602 0.43143 0.7095 0.0
C581 C 0.24549 0.41657 0.72091 0.0
C582 C 0.22795 0.42091 0.63253 0.0
C583 C 0.21049 0.39274 0.56568 0.0
C584 C 0.20673 0.43543 0.67784 0.0
C585 C 0.2537 0.44041 0.57011 0.0
C586 C 0.28087 0.44771 0.6216 0.0
C587 C 0.30791 0.46645 0.58459 0.0
C588 C 0.30793 0.47509 0.48457 0.0
C589 C 0.28135 0.46405 0.42201 0.0
C590 C 0.25347 0.44799 0.46754 0.0
H591 H 0.74471 0.21563 0.5456 0.0
H592 H 0.76793 0.30525 0.63167 0.0
H593 H 0.79094 0.31491 0.45556 0.0
H594 H 0.81099 0.22125 0.41205 0.0
H595 H 0.7942 0.19312 0.30746 0.0
H596 H 0.77582 0.19273 0.43476 0.0
H597 H 0.7274 0.18885 0.34114 0.0
H598 H 0.74565 0.18975 0.21331 0.0
H599 H 0.72914 0.21514 0.25711 0.0
H600 H 0.81886 0.31584 0.28512 0.0
H601 H 0.83865 0.30698 0.10671 0.0
H602 H 0.79582 0.21679 0.12356 0.0
C603 C 0.75315 0.23703 0.52469 0.0
C604 C 0.75408 0.25971 0.60085 0.0
C605 C 0.76655 0.28764 0.57315 0.0
C606 C 0.78004 0.29335 0.47397 0.0
C607 C 0.78073 0.27085 0.40306 0.0
C608 C 0.76675 0.24314 0.42516 0.0
C609 C 0.77184 0.22311 0.33546 0.0
C610 C 0.78924 0.20658 0.37486 0.0
C611 C 0.74172 0.20301 0.28364 0.0
C612 C 0.79099 0.24394 0.26064 0.0
C613 C 0.79635 0.27139 0.3025 0.0
C614 C 0.81443 0.29442 0.2505 0.0
C615 C 0.82596 0.28924 0.14998 0.0
C616 C 0.81879 0.26127 0.10207 0.0
C617 C 0.80172 0.23838 0.15918 0.0
H618 H 0.56291 0.86692 0.01706 0.0
H619 H 0.64383 0.84853 0.00441 0.0
H620 H 0.62803 0.82059 0.82967 0.0
H621 H 0.51347 0.80177 0.92428 0.0
H622 H 0.49102 0.81282 0.8438 0.0
H623 H 0.51103 0.83569 0.95807 0.0
H624 H 0.53987 0.87646 0.8425 0.0
H625 H 0.51756 0.85438 0.73138 0.0
H626 H 0.55817 0.86878 0.72222 0.0
H627 H 0.59888 0.78762 0.67518 0.0
H628 H 0.5732 0.77464 0.50162 0.0
H629 H 0.50947 0.81087 0.62232 0.0
C630 C 0.57809 0.85822 0.97532 0.0
C631 C 0.6034 0.85796 0.02687 0.0
C632 C 0.62358 0.84783 0.96748 0.0
C633 C 0.61432 0.83115 0.87 0.0
C634 C 0.58584 0.82657 0.83221 0.0
C635 C 0.56896 0.84128 0.879 0.0
C636 C 0.53973 0.83364 0.82012 0.0
C637 C 0.51221 0.82019 0.8908 0.0
C638 C 0.53879 0.85985 0.77638 0.0
C639 C 0.54279 0.8123 0.73227 0.0
C640 C 0.5692 0.8079 0.74294 0.0
C641 C 0.57857 0.79147 0.66535 0.0
C642 C 0.5633 0.78346 0.56777 0.0
C643 C 0.54196 0.79498 0.5485 0.0
C644 C 0.52713 0.80345 0.63577 0.0
H645 H 0.89371 0.61699 0.28771 0.0
H646 H 0.819 0.63853 0.41294 0.0
H647 H 0.8117 0.651 0.23689 0.0
H648 H 0.92642 0.67425 0.17547 0.0
H649 H 0.94124 0.6601 0.05933 0.0
H650 H 0.93403 0.64275 0.17781 0.0
H651 H 0.89162 0.59316 0.08605 0.0
H652 H 0.91108 0.61072 0.97648 0.0
H653 H 0.87015 0.59745 0.98138 0.0
H654 H 0.82125 0.67246 0.07193 0.0
H655 H 0.8427 0.69765 0.918 0.0
H656 H 0.91568 0.66758 0.90618 0.0
C657 C 0.87496 0.62314 0.2765 0.0
C658 C 0.85698 0.62701 0.36228 0.0
C659 C 0.83295 0.6355 0.3468 0.0
C660 C 0.82862 0.64247 0.24722 0.0
C661 C 0.84856 0.64074 0.16569 0.0
C662 C 0.8711 0.63105 0.17921 0.0
C663 C 0.89322 0.63627 0.08835 0.0
C664 C 0.92561 0.65443 0.12774 0.0
C665 C 0.89129 0.6078 0.02905 0.0
C666 C 0.88094 0.65243 0.02419 0.0
C667 C 0.85469 0.65397 0.06923 0.0
C668 C 0.84107 0.67057 0.03346 0.0
C669 C 0.85389 0.68528 0.94708 0.0
C670 C 0.88027 0.68348 0.89748 0.0
C671 C 0.89453 0.66769 0.9389 0.0
H672 H 0.21047 0.73826 0.65543 0.0
H673 H 0.28731 0.81205 0.58246 0.0
H674 H 0.28502 0.83579 0.76206 0.0
H675 H 0.17065 0.77484 0.77585 0.0
H676 H 0.15325 0.75191 0.87698 0.0
H677 H 0.16445 0.73792 0.75257 0.0
H678 H 0.19861 0.7193 0.84681 0.0
H679 H 0.18535 0.73091 0.97133 0.0
H680 H 0.22546 0.74265 0.9451 0.0
H681 H 0.26795 0.85422 0.93378 0.0
H682 H 0.24912 0.86044 0.11607 0.0
H683 H 0.18318 0.77448 0.07425 0.0
C684 C 0.22806 0.75859 0.68034 0.0
C685 C 0.24908 0.77347 0.6071 0.0
C686 C 0.2712 0.80044 0.63918 0.0
C687 C 0.26967 0.81424 0.73997 0.0
C688 C 0.2461 0.80033 0.80622 0.0
C689 C 0.2265 0.77269 0.77966 0.0
C690 C 0.20202 0.76308 0.86146 0.0
C691 C 0.17075 0.75656 0.81384 0.0
C692 C 0.20296 0.73749 0.90924 0.0
C693 C 0.21147 0.78933 0.94027 0.0
C694 C 0.23624 0.81094 0.90484 0.0
C695 C 0.24882 0.8374 0.96328 0.0
C696 C 0.23761 0.84095 0.06547 0.0
C697 C 0.21474 0.81792 0.10715 0.0
C698 C 0.20034 0.79243 0.04226 0.0
H699 H 0.48692 0.30661 0.42797 0.0
H700 H 0.54738 0.39458 0.43659 0.0
H701 H 0.52602 0.3978 0.26924 0.0
H702 H 0.49472 0.29173 0.1464 0.0
H703 H 0.4564 0.26716 0.12299 0.0
H704 H 0.47413 0.27127 0.24982 0.0
H705 H 0.43171 0.28294 0.34649 0.0
H706 H 0.41299 0.27897 0.22186 0.0
H707 H 0.42245 0.31121 0.31014 0.0
H708 H 0.4958 0.39371 0.1129 0.0
H709 H 0.47144 0.37797 0.93683 0.0
H710 H 0.43402 0.2915 0.01369 0.0
C711 C 0.49568 0.32637 0.39423 0.0
C712 C 0.51781 0.35058 0.44795 0.0
C713 C 0.5297 0.37589 0.39882 0.0
C714 C 0.51749 0.37812 0.30429 0.0
C715 C 0.49401 0.35461 0.2578 0.0
C716 C 0.4841 0.32884 0.29782 0.0
C717 C 0.461 0.3062 0.22399 0.0
C718 C 0.4722 0.28267 0.18328 0.0
C719 C 0.43021 0.29414 0.27888 0.0
C720 C 0.46002 0.32341 0.13605 0.0
C721 C 0.47836 0.3515 0.16006 0.0
C722 C 0.48166 0.3717 0.09199 0.0
C723 C 0.46763 0.36261 -0.00749 0.0
C724 C 0.45152 0.33354 0.9614 0.0
C725 C 0.44631 0.31387 0.03586 0.0
loop_
_geom_bond_atom_site_label_1
_geom_bond_atom_site_label_2
_geom_bond_distance
_geom_bond_site_symmetry_2
_ccdc_geom_bond_type
Nd0 C2 2.836 1_556 S
Nd0 O20 2.501 1_556 S
Nd0 O21 2.492 . S
Nd0 O22 2.486 . S
Nd0 O23 2.681 . S
Nd0 O24 2.410 . S
Nd0 O29 2.415 1_556 S
Nd0 O31 2.424 . S
Nd1 C11 2.836 1_554 S
Nd1 O23 2.413 1_554 S
Nd1 O25 2.425 . S
Nd1 O26 2.499 1_554 S
Nd1 O27 2.492 . S
Nd1 O28 2.488 . S
Nd1 O29 2.683 . S
Nd1 O30 2.409 . S
C2 Nd0 2.836 1_554 S
C2 C3 1.498 . S
C2 O20 1.258 . S
C2 O21 1.239 1_554 S
C3 C2 1.498 . S
C3 C4 1.366 . S
C3 C8 1.407 . S
C4 C3 1.366 . S
C4 C5 1.392 . S
C4 H32 0.930 . S
C5 C4 1.392 . S
C5 C6 1.398 . S
C5 H33 0.929 . S
C6 C5 1.398 . S
C6 C7 1.352 . S
C7 C6 1.352 . S
C7 C8 1.384 . S
C7 H34 0.930 1_554 S
C8 C3 1.407 . S
C8 C7 1.384 . S
C8 H35 0.929 1_554 S
C9 O22 1.241 . S
C9 O23 1.273 . S
C10 O24 1.251 1_554 S
C10 O25 1.268 . S
C11 Nd1 2.836 1_556 S
C11 C12 1.498 . S
C11 O26 1.258 . S
C11 O27 1.239 1_556 S
C12 C11 1.498 . S
C12 C13 1.366 . S
C12 C17 1.407 . S
C13 C12 1.366 . S
C13 C14 1.392 . S
C13 H36 0.930 . S
C14 C13 1.392 . S
C14 C15 1.398 . S
C14 H37 0.929 . S
C15 C14 1.398 . S
C15 C16 1.352 . S
C16 C15 1.352 . S
C16 C17 1.384 . S
C16 H38 0.930 1_556 S
C17 C12 1.407 . S
C17 C16 1.384 . S
C17 H39 0.929 1_556 S
C18 O28 1.241 . S
C18 O29 1.273 . S
C19 O30 1.251 1_556 S
C19 O31 1.268 . S
O20 Nd0 2.501 1_554 S
O20 C2 1.258 . S
O21 Nd0 2.492 . S
O21 C2 1.239 1_556 S
O22 Nd0 2.486 . S
O22 C9 1.241 . S
O23 Nd0 2.681 . S
O23 Nd1 2.413 1_556 S
O23 C9 1.273 . S
O24 Nd0 2.410 . S
O24 C10 1.251 1_556 S
O25 Nd1 2.425 . S
O25 C10 1.268 . S
O26 Nd1 2.499 1_556 S
O26 C11 1.258 . S
O27 Nd1 2.492 . S
O27 C11 1.239 1_554 S
O28 Nd1 2.488 . S
O28 C18 1.241 . S
O29 Nd0 2.415 1_554 S
O29 Nd1 2.683 . S
O29 C18 1.273 . S
O30 Nd1 2.409 . S
O30 C19 1.251 1_554 S
O31 Nd0 2.424 . S
O31 C19 1.268 . S
H32 C4 0.930 . S
H33 C5 0.929 . S
H34 C7 0.930 1_556 S
H35 C8 0.929 1_556 S
H36 C13 0.930 . S
H37 C14 0.929 . S
H38 C16 0.930 1_554 S
H39 C17 0.929 1_554 S
Nd40 C42 2.836 1_554 S
Nd40 O60 2.500 1_554 S
Nd40 O61 2.492 . S
Nd40 O62 2.487 . S
Nd40 O63 2.682 . S
Nd40 O64 2.410 1_554 S
Nd40 O69 2.414 1_554 S
Nd40 O71 2.424 . S
Nd41 C51 2.836 1_556 S
Nd41 O63 2.414 1_556 S
Nd41 O65 2.424 . S
Nd41 O66 2.500 1_556 S
Nd41 O67 2.492 . S
Nd41 O68 2.487 . S
Nd41 O69 2.682 . S
Nd41 O70 2.410 1_556 S
C42 Nd40 2.836 1_556 S
C42 C43 1.498 . S
C42 O60 1.258 . S
C42 O61 1.239 1_556 S
C43 C42 1.498 . S
C43 C44 1.366 . S
C43 C48 1.407 . S
C44 C43 1.366 . S
C44 C45 1.392 . S
C44 H72 0.930 . S
C45 C44 1.392 . S
C45 C46 1.398 . S
C45 H73 0.929 . S
C46 C45 1.398 . S
C46 C47 1.352 . S
C47 C46 1.352 . S
C47 C48 1.384 . S
C47 H74 0.930 . S
C48 C43 1.407 . S
C48 C47 1.384 . S
C48 H75 0.929 1_556 S
C49 O62 1.241 . S
C49 O63 1.273 . S
C50 O64 1.251 . S
C50 O65 1.268 . S
C51 Nd41 2.836 1_554 S
C51 C52 1.498 . S
C51 O66 1.258 . S
C51 O67 1.239 1_554 S
C52 C51 1.498 . S
C52 C53 1.366 . S
C52 C57 1.407 . S
C53 C52 1.366 . S
C53 C54 1.392 . S
C53 H76 0.930 . S
C54 C53 1.392 . S
C54 C55 1.398 . S
C54 H77 0.929 . S
C55 C54 1.398 . S
C55 C56 1.352 . S
C56 C55 1.352 . S
C56 C57 1.384 . S
C56 H78 0.930 . S
C57 C52 1.407 . S
C57 C56 1.384 . S
C57 H79 0.929 1_554 S
C58 O68 1.241 . S
C58 O69 1.273 . S
C59 O70 1.251 . S
C59 O71 1.268 . S
O60 Nd40 2.500 1_556 S
O60 C42 1.258 . S
O61 Nd40 2.492 . S
O61 C42 1.239 1_554 S
O62 Nd40 2.487 . S
O62 C49 1.241 . S
O63 Nd40 2.682 . S
O63 Nd41 2.414 1_554 S
O63 C49 1.273 . S
O64 Nd40 2.410 1_556 S
O64 C50 1.251 . S
O65 Nd41 2.424 . S
O65 C50 1.268 . S
O66 Nd41 2.500 1_554 S
O66 C51 1.258 . S
O67 Nd41 2.492 . S
O67 C51 1.239 1_556 S
O68 Nd41 2.487 . S
O68 C58 1.241 . S
O69 Nd40 2.414 1_556 S
O69 Nd41 2.682 . S
O69 C58 1.273 . S
O70 Nd41 2.410 1_554 S
O70 C59 1.251 . S
O71 Nd40 2.424 . S
O71 C59 1.268 . S
H72 C44 0.930 . S
H73 C45 0.929 . S
H74 C47 0.930 . S
H75 C48 0.929 1_554 S
H76 C53 0.930 . S
H77 C54 0.929 . S
H78 C56 0.930 . S
H79 C57 0.929 1_556 S
Nd80 C82 2.836 . S
Nd80 O100 2.500 1_554 S
Nd80 O101 2.492 . S
Nd80 O102 2.487 . S
Nd80 O103 2.682 . S
Nd80 O104 2.410 . S
Nd80 O109 2.414 1_554 S
Nd80 O111 2.424 . S
Nd81 C91 2.836 . S
Nd81 O103 2.414 1_556 S
Nd81 O105 2.424 . S
Nd81 O106 2.500 1_556 S
Nd81 O107 2.492 . S
Nd81 O108 2.487 . S
Nd81 O109 2.682 . S
Nd81 O110 2.410 . S
C82 Nd80 2.836 . S
C82 C83 1.498 . S
C82 O100 1.258 1_554 S
C82 O101 1.239 . S
C83 C82 1.498 . S
C83 C84 1.366 . S
C83 C88 1.407 . S
C84 C83 1.366 . S
C84 C85 1.392 . S
C84 H112 0.930 1_554 S
C85 C84 1.392 . S
C85 C86 1.401 . S
C85 H113 0.929 1_554 S
C86 C85 1.401 . S
C86 C87 1.352 . S
C87 C86 1.352 . S
C87 C88 1.384 . S
C87 H114 0.930 1_565 S
C88 C83 1.407 . S
C88 C87 1.384 . S
C88 H115 0.929 . S
C89 O102 1.241 . S
C89 O103 1.273 . S
C90 O104 1.251 . S
C90 O105 1.268 1_554 S
C91 Nd81 2.836 . S
C91 C92 1.498 . S
C91 O106 1.258 1_556 S
C91 O107 1.239 . S
C92 C91 1.498 . S
C92 C93 1.366 . S
C92 C97 1.407 . S
C93 C92 1.366 . S
C93 C94 1.392 . S
C93 H116 0.930 1_556 S
C94 C93 1.392 . S
C94 C95 1.398 . S
C94 H117 0.929 1_556 S
C95 C94 1.398 . S
C95 C96 1.352 . S
C96 C95 1.352 . S
C96 C97 1.384 . S
C96 H118 0.930 . S
C97 C92 1.407 . S
C97 C96 1.384 . S
C97 H119 0.929 . S
C98 O108 1.241 . S
C98 O109 1.273 . S
C99 O110 1.251 . S
C99 O111 1.268 1_556 S
O100 Nd80 2.500 1_556 S
O100 C82 1.258 1_556 S
O101 Nd80 2.492 . S
O101 C82 1.239 . S
O102 Nd80 2.487 . S
O102 C89 1.241 . S
O103 Nd80 2.682 . S
O103 Nd81 2.414 1_554 S
O103 C89 1.273 . S
O104 Nd80 2.410 . S
O104 C90 1.251 . S
O105 Nd81 2.424 . S
O105 C90 1.268 1_556 S
O106 Nd81 2.500 1_554 S
O106 C91 1.258 1_554 S
O107 Nd81 2.492 . S
O107 C91 1.239 . S
O108 Nd81 2.487 . S
O108 C98 1.241 . S
O109 Nd80 2.414 1_556 S
O109 Nd81 2.682 . S
O109 C98 1.273 . S
O110 Nd81 2.410 . S
O110 C99 1.251 . S
O111 Nd80 2.424 . S
O111 C99 1.268 1_554 S
H112 C84 0.930 1_556 S
H113 C85 0.929 1_556 S
H114 C87 0.930 1_545 S
H115 C88 0.929 . S
H116 C93 0.930 1_554 S
H117 C94 0.929 1_554 S
H118 C96 0.930 . S
H119 C97 0.929 . S
Nd120 C122 2.836 . S
Nd120 O140 2.500 . S
Nd120 O141 2.492 . S
Nd120 O142 2.487 1_556 S
Nd120 O143 2.682 1_556 S
Nd120 O144 2.410 . S
Nd120 O149 2.414 . S
Nd120 O151 2.424 . S
Nd121 C131 2.836 . S
Nd121 O143 2.414 1_556 S
Nd121 O145 2.424 . S
Nd121 O146 2.500 1_556 S
Nd121 O147 2.492 . S
Nd121 O148 2.487 . S
Nd121 O149 2.682 . S
Nd121 O150 2.410 . S
C122 Nd120 2.836 . S
C122 C123 1.498 . S
C122 O140 1.258 . S
C122 O141 1.239 . S
C123 C122 1.498 . S
C123 C124 1.366 . S
C123 C128 1.407 . S
C124 C123 1.366 . S
C124 C125 1.392 . S
C124 H152 0.930 . S
C125 C124 1.392 . S
C125 C126 1.398 . S
C125 H153 0.929 . S
C126 C125 1.398 . S
C126 C127 1.352 . S
C127 C126 1.352 . S
C127 C128 1.384 . S
C127 H154 0.930 . S
C128 C123 1.407 . S
C128 C127 1.384 . S
C128 H155 0.929 1_556 S
C129 O142 1.241 . S
C129 O143 1.273 . S
C130 O144 1.251 . S
C130 O145 1.268 . S
C131 Nd121 2.836 . S
C131 C132 1.498 1_556 S
C131 O146 1.258 1_556 S
C131 O147 1.239 . S
C132 C131 1.498 1_554 S
C132 C133 1.366 . S
C132 C137 1.407 1_554 S
C133 C132 1.366 . S
C133 C134 1.392 . S
C133 H156 0.930 . S
C134 C133 1.392 . S
C134 C135 1.398 . S
C134 H157 0.929 . S
C135 C134 1.398 . S
C135 C136 1.352 1_554 S
C136 C135 1.352 1_556 S
C136 C137 1.384 . S
C136 H158 0.930 . S
C137 C132 1.407 1_556 S
C137 C136 1.384 . S
C137 H159 0.929 . S
C138 O148 1.241 . S
C138 O149 1.273 . S
C139 O150 1.251 . S
C139 O151 1.268 . S
O140 Nd120 2.500 . S
O140 C122 1.258 . S
O141 Nd120 2.492 . S
O141 C122 1.239 . S
O142 Nd120 2.487 1_554 S
O142 C129 1.241 . S
O143 Nd120 2.682 1_554 S
O143 Nd121 2.414 1_554 S
O143 C129 1.273 . S
O144 Nd120 2.410 . S
O144 C130 1.251 . S
O145 Nd121 2.424 . S
O145 C130 1.268 . S
O146 Nd121 2.500 1_554 S
O146 C131 1.258 1_554 S
O147 Nd121 2.492 . S
O147 C131 1.239 . S
O148 Nd121 2.487 . S
O148 C138 1.241 . S
O149 Nd120 2.414 . S
O149 Nd121 2.682 . S
O149 C138 1.273 . S
O150 Nd121 2.410 . S
O150 C139 1.251 . S
O151 Nd120 2.424 . S
O151 C139 1.268 . S
H152 C124 0.930 . S
H153 C125 0.929 . S
H154 C127 0.930 . S
H155 C128 0.929 1_554 S
H156 C133 0.930 . S
H157 C134 0.929 . S
H158 C136 0.930 . S
H159 C137 0.929 . S
Nd160 C162 2.836 . S
Nd160 O180 2.500 . S
Nd160 O181 2.492 . S
Nd160 O182 2.487 1_554 S
Nd160 O183 2.682 1_554 S
Nd160 O184 2.410 . S
Nd160 O189 2.414 . S
Nd160 O191 2.424 . S
Nd161 C171 2.836 1_554 S
Nd161 O183 2.414 1_554 S
Nd161 O185 2.424 . S
Nd161 O186 2.500 1_554 S
Nd161 O187 2.492 . S
Nd161 O188 2.487 . S
Nd161 O189 2.682 . S
Nd161 O190 2.410 . S
C162 Nd160 2.836 . S
C162 C163 1.498 . S
C162 O180 1.258 . S
C162 O181 1.239 . S
C163 C162 1.498 . S
C163 C164 1.366 . S
C163 C168 1.407 . S
C164 C163 1.366 . S
C164 C165 1.392 . S
C164 H192 0.930 . S
C165 C164 1.392 . S
C165 C166 1.398 . S
C165 H193 0.929 . S
C166 C165 1.398 . S
C166 C167 1.352 . S
C167 C166 1.352 . S
C167 C168 1.384 . S
C167 H194 0.930 . S
C168 C163 1.407 . S
C168 C167 1.384 . S
C168 H195 0.929 . S
C169 O182 1.241 . S
C169 O183 1.273 . S
C170 O184 1.251 . S
C170 O185 1.268 . S
C171 Nd161 2.836 1_556 S
C171 C172 1.498 . S
C171 O186 1.258 . S
C171 O187 1.239 1_556 S
C172 C171 1.498 . S
C172 C173 1.366 . S
C172 C177 1.407 . S
C173 C172 1.366 . S
C173 C174 1.392 . S
C173 H196 0.930 . S
C174 C173 1.392 . S
C174 C175 1.398 . S
C174 H197 0.929 . S
C175 C174 1.398 . S
C175 C176 1.352 . S
C176 C175 1.352 . S
C176 C177 1.384 . S
C176 H198 0.930 1_556 S
C177 C172 1.407 . S
C177 C176 1.384 . S
C177 H199 0.929 1_556 S
C178 O188 1.241 . S
C178 O189 1.273 . S
C179 O190 1.251 . S
C179 O191 1.268 . S
O180 Nd160 2.500 . S
O180 C162 1.258 . S
O181 Nd160 2.492 . S
O181 C162 1.239 . S
O182 Nd160 2.487 1_556 S
O182 C169 1.241 . S
O183 Nd160 2.682 1_556 S
O183 Nd161 2.414 1_556 S
O183 C169 1.273 . S
O184 Nd160 2.410 . S
O184 C170 1.251 . S
O185 Nd161 2.424 . S
O185 C170 1.268 . S
O186 Nd161 2.500 1_556 S
O186 C171 1.258 . S
O187 Nd161 2.492 . S
O187 C171 1.239 1_554 S
O188 Nd161 2.487 . S
O188 C178 1.241 . S
O189 Nd160 2.414 . S
O189 Nd161 2.682 . S
O189 C178 1.273 . S
O190 Nd161 2.410 . S
O190 C179 1.251 . S
O191 Nd160 2.424 . S
O191 C179 1.268 . S
H192 C164 0.930 . S
H193 C165 0.929 . S
H194 C167 0.930 . S
H195 C168 0.929 . S
H196 C173 0.930 . S
H197 C174 0.929 . S
H198 C176 0.930 1_554 S
H199 C177 0.929 1_554 S
Nd200 C202 2.836 . S
Nd200 O220 2.500 . S
Nd200 O221 2.492 . S
Nd200 O222 2.487 1_556 S
Nd200 O223 2.682 1_556 S
Nd200 O224 2.410 . S
Nd200 O229 2.414 . S
Nd200 O231 2.424 . S
Nd201 C211 2.836 1_556 S
Nd201 O223 2.414 1_556 S
Nd201 O225 2.424 . S
Nd201 O226 2.500 1_556 S
Nd201 O227 2.492 . S
Nd201 O228 2.487 . S
Nd201 O229 2.682 . S
Nd201 O230 2.410 . S
C202 Nd200 2.836 . S
C202 C203 1.498 . S
C202 O220 1.258 . S
C202 O221 1.239 . S
C203 C202 1.498 . S
C203 C204 1.366 . S
C203 C208 1.407 . S
C204 C203 1.366 . S
C204 C205 1.392 . S
C204 H232 0.930 . S
C205 C204 1.392 . S
C205 C206 1.398 . S
C205 H233 0.929 . S
C206 C205 1.398 . S
C206 C207 1.352 . S
C207 C206 1.352 . S
C207 C208 1.384 . S
C207 H234 0.930 . S
C208 C203 1.407 . S
C208 C207 1.384 . S
C208 H235 0.929 . S
C209 O222 1.241 . S
C209 O223 1.273 . S
C210 O224 1.251 . S
C210 O225 1.268 . S
C211 Nd201 2.836 1_554 S
C211 C212 1.498 . S
C211 O226 1.258 . S
C211 O227 1.239 1_554 S
C212 C211 1.498 . S
C212 C213 1.366 . S
C212 C217 1.407 . S
C213 C212 1.366 . S
C213 C214 1.392 . S
C213 H236 0.930 . S
C214 C213 1.392 . S
C214 C215 1.398 . S
C214 H237 0.929 . S
C215 C214 1.398 . S
C215 C216 1.352 . S
C216 C215 1.352 . S
C216 C217 1.384 . S
C216 H238 0.930 . S
C217 C212 1.407 . S
C217 C216 1.384 . S
C217 H239 0.929 1_554 S
C218 O228 1.241 . S
C218 O229 1.273 . S
C219 O230 1.251 1_554 S
C219 O231 1.268 1_554 S
O220 Nd200 2.500 . S
O220 C202 1.258 . S
O221 Nd200 2.492 . S
O221 C202 1.239 . S
O222 Nd200 2.487 1_554 S
O222 C209 1.241 . S
O223 Nd200 2.682 1_554 S
O223 Nd201 2.414 1_554 S
O223 C209 1.273 . S
O224 Nd200 2.410 . S
O224 C210 1.251 . S
O225 Nd201 2.424 . S
O225 C210 1.268 . S
O226 Nd201 2.500 1_554 S
O226 C211 1.258 . S
O227 Nd201 2.492 . S
O227 C211 1.239 1_556 S
O228 Nd201 2.487 . S
O228 C218 1.241 . S
O229 Nd200 2.414 . S
O229 Nd201 2.682 . S
O229 C218 1.273 . S
O230 Nd201 2.410 . S
O230 C219 1.251 1_556 S
O231 Nd200 2.424 . S
O231 C219 1.268 1_556 S
H232 C204 0.930 . S
H233 C205 0.929 . S
H234 C207 0.930 . S
H235 C208 0.929 . S
H236 C213 0.930 . S
H237 C214 0.929 . S
H238 C216 0.930 . S
H239 C217 0.929 1_556 S
H240 C252 0.930 . S
H241 C254 0.930 . S
H242 C255 0.930 . S
H243 C259 0.959 . S
H244 C259 0.959 . S
H245 C259 0.961 . S
H246 C260 0.960 . S
H247 C260 0.961 . S
H248 C260 0.959 . S
H249 C263 0.929 . S
H250 C264 0.931 . S
H251 C266 0.930 . S
C252 H240 0.930 . S
C252 C253 1.399 . S
C252 C257 1.399 . S
C253 C252 1.399 . S
C253 C254 1.376 . S
C254 H241 0.930 . S
C254 C253 1.376 . S
C254 C255 1.388 . S
C255 H242 0.930 . S
C255 C254 1.388 . S
C255 C256 1.390 . S
C256 C255 1.390 . S
C256 C257 1.394 . S
C256 C262 1.465 . S
C257 C252 1.399 . S
C257 C256 1.394 . S
C257 C258 1.516 . S
C258 C257 1.516 . S
C258 C259 1.502 . S
C258 C260 1.561 . S
C258 C261 1.526 . S
C259 H243 0.959 . S
C259 H244 0.959 . S
C259 H245 0.961 . S
C259 C258 1.502 . S
C260 H246 0.960 . S
C260 H247 0.961 . S
C260 H248 0.959 . S
C260 C258 1.561 . S
C261 C258 1.526 . S
C261 C262 1.396 . S
C261 C266 1.390 . S
C262 C256 1.465 . S
C262 C261 1.396 . S
C262 C263 1.399 . S
C263 H249 0.929 . S
C263 C262 1.399 . S
C263 C264 1.385 . S
C264 H250 0.931 . S
C264 C263 1.385 . S
C264 C265 1.389 . S
C265 C264 1.389 . S
C265 C266 1.387 . S
C266 H251 0.930 . S
C266 C261 1.390 . S
C266 C265 1.387 . S
H267 C279 0.930 . S
H268 C281 0.930 . S
H269 C282 0.930 1_655 S
H270 C286 0.959 . S
H271 C286 0.959 . S
H272 C286 0.961 . S
H273 C287 0.960 . S
H274 C287 0.961 . S
H275 C287 0.959 . S
H276 C290 0.929 . S
H277 C291 0.931 . S
H278 C293 0.930 1_455 S
C279 H267 0.930 . S
C279 C280 1.399 . S
C279 C284 1.399 . S
C280 C279 1.399 . S
C280 C281 1.376 . S
C281 H268 0.930 . S
C281 C280 1.376 . S
C281 C282 1.388 . S
C282 H269 0.930 1_455 S
C282 C281 1.388 . S
C282 C283 1.390 . S
C283 C282 1.390 . S
C283 C284 1.394 . S
C283 C289 1.465 1_455 S
C284 C279 1.399 . S
C284 C283 1.394 . S
C284 C285 1.516 . S
C285 C284 1.516 . S
C285 C286 1.502 . S
C285 C287 1.561 . S
C285 C288 1.526 . S
C286 H270 0.959 . S
C286 H271 0.959 . S
C286 H272 0.961 . S
C286 C285 1.502 . S
C287 H273 0.960 . S
C287 H274 0.961 . S
C287 H275 0.959 . S
C287 C285 1.561 . S
C288 C285 1.526 . S
C288 C289 1.396 1_455 S
C288 C293 1.390 1_455 S
C289 C283 1.465 1_655 S
C289 C288 1.396 1_655 S
C289 C290 1.399 . S
C290 H276 0.929 . S
C290 C289 1.399 . S
C290 C291 1.385 . S
C291 H277 0.931 . S
C291 C290 1.385 . S
C291 C292 1.389 . S
C292 C291 1.389 . S
C292 C293 1.387 . S
C293 H278 0.930 1_655 S
C293 C288 1.390 1_655 S
C293 C292 1.387 . S
H294 C306 0.930 . S
H295 C308 0.930 . S
H296 C309 0.930 . S
H297 C313 0.959 . S
H298 C313 0.959 . S
H299 C313 0.961 . S
H300 C314 0.960 . S
H301 C314 0.961 . S
H302 C314 0.959 . S
H303 C317 0.929 . S
H304 C318 0.931 . S
H305 C320 0.930 . S
C306 H294 0.930 . S
C306 C307 1.399 . S
C306 C311 1.399 . S
C307 C306 1.399 . S
C307 C308 1.376 . S
C308 H295 0.930 . S
C308 C307 1.376 . S
C308 C309 1.388 . S
C309 H296 0.930 . S
C309 C308 1.388 . S
C309 C310 1.390 . S
C310 C309 1.390 . S
C310 C311 1.394 . S
C310 C316 1.465 . S
C311 C306 1.399 . S
C311 C310 1.394 . S
C311 C312 1.516 . S
C312 C311 1.516 . S
C312 C313 1.502 . S
C312 C314 1.561 . S
C312 C315 1.526 . S
C313 H297 0.959 . S
C313 H298 0.959 . S
C313 H299 0.961 . S
C313 C312 1.502 . S
C314 H300 0.960 . S
C314 H301 0.961 . S
C314 H302 0.959 . S
C314 C312 1.561 . S
C315 C312 1.526 . S
C315 C316 1.396 . S
C315 C320 1.390 . S
C316 C310 1.465 . S
C316 C315 1.396 . S
C316 C317 1.399 . S
C317 H303 0.929 . S
C317 C316 1.399 . S
C317 C318 1.385 . S
C318 H304 0.931 . S
C318 C317 1.385 . S
C318 C319 1.389 . S
C319 C318 1.389 . S
C319 C320 1.387 . S
C320 H305 0.930 . S
C320 C315 1.390 . S
C320 C319 1.387 . S
H321 C333 0.930 . S
H322 C335 0.930 . S
H323 C336 0.930 . S
H324 C340 0.959 . S
H325 C340 0.959 . S
H326 C340 0.961 . S
H327 C341 0.960 . S
H328 C341 0.961 . S
H329 C341 0.959 . S
H330 C344 0.929 . S
H331 C345 0.931 . S
H332 C347 0.930 . S
C333 H321 0.930 . S
C333 C334 1.399 . S
C333 C338 1.399 . S
C334 C333 1.399 . S
C334 C335 1.376 . S
C335 H322 0.930 . S
C335 C334 1.376 . S
C335 C336 1.388 . S
C336 H323 0.930 . S
C336 C335 1.388 . S
C336 C337 1.390 . S
C337 C336 1.390 . S
C337 C338 1.394 . S
C337 C343 1.465 . S
C338 C333 1.399 . S
C338 C337 1.394 . S
C338 C339 1.516 . S
C339 C338 1.516 . S
C339 C340 1.502 . S
C339 C341 1.561 . S
C339 C342 1.526 . S
C340 H324 0.959 . S
C340 H325 0.959 . S
C340 H326 0.961 . S
C340 C339 1.502 . S
C341 H327 0.960 . S
C341 H328 0.961 . S
C341 H329 0.959 . S
C341 C339 1.561 . S
C342 C339 1.526 . S
C342 C343 1.396 . S
C342 C347 1.390 . S
C343 C337 1.465 . S
C343 C342 1.396 . S
C343 C344 1.399 . S
C344 H330 0.929 . S
C344 C343 1.399 . S
C344 C345 1.385 . S
C345 H331 0.931 . S
C345 C344 1.385 . S
C345 C346 1.389 . S
C346 C345 1.389 . S
C346 C347 1.387 . S
C347 H332 0.930 . S
C347 C342 1.390 . S
C347 C346 1.387 . S
H348 C360 0.930 . S
H349 C362 0.930 . S
H350 C363 0.930 . S
H351 C367 0.959 . S
H352 C367 0.959 . S
H353 C367 0.961 . S
H354 C368 0.960 1_455 S
H355 C368 0.961 . S
H356 C368 0.959 1_455 S
H357 C371 0.929 . S
H358 C372 0.931 . S
H359 C374 0.930 . S
C360 H348 0.930 . S
C360 C361 1.399 . S
C360 C365 1.399 . S
C361 C360 1.399 . S
C361 C362 1.376 . S
C362 H349 0.930 . S
C362 C361 1.376 . S
C362 C363 1.388 . S
C363 H350 0.930 . S
C363 C362 1.388 . S
C363 C364 1.390 . S
C364 C363 1.390 . S
C364 C365 1.394 . S
C364 C370 1.465 . S
C365 C360 1.399 . S
C365 C364 1.394 . S
C365 C366 1.516 . S
C366 C365 1.516 . S
C366 C367 1.502 1_455 S
C366 C368 1.561 1_455 S
C366 C369 1.526 1_455 S
C367 H351 0.959 . S
C367 H352 0.959 . S
C367 H353 0.961 . S
C367 C366 1.502 1_655 S
C368 H354 0.960 1_655 S
C368 H355 0.961 . S
C368 H356 0.959 1_655 S
C368 C366 1.561 1_655 S
C369 C366 1.526 1_655 S
C369 C370 1.396 1_655 S
C369 C374 1.390 . S
C370 C364 1.465 . S
C370 C369 1.396 1_455 S
C370 C371 1.399 . S
C371 H357 0.929 . S
C371 C370 1.399 . S
C371 C372 1.385 1_455 S
C372 H358 0.931 . S
C372 C371 1.385 1_655 S
C372 C373 1.389 . S
C373 C372 1.389 . S
C373 C374 1.387 . S
C374 H359 0.930 . S
C374 C369 1.390 . S
C374 C373 1.387 . S
H375 C387 0.930 . S
H376 C389 0.930 . S
H377 C390 0.935 . S
H378 C394 0.959 . S
H379 C394 0.959 . S
H380 C394 0.961 . S
H381 C395 0.960 . S
H382 C395 0.961 . S
H383 C395 0.959 . S
H384 C398 0.929 . S
H385 C399 0.931 . S
H386 C401 0.930 . S
C387 H375 0.930 . S
C387 C388 1.399 1_545 S
C387 C392 1.399 . S
C388 C387 1.399 1_565 S
C388 C389 1.376 . S
C389 H376 0.930 . S
C389 C388 1.376 . S
C389 C390 1.399 . S
C390 H377 0.935 . S
C390 C389 1.399 . S
C390 C391 1.374 1_565 S
C391 C390 1.374 1_545 S
C391 C392 1.394 . S
C391 C397 1.465 . S
C392 C387 1.399 . S
C392 C391 1.394 . S
C392 C393 1.516 . S
C393 C392 1.516 . S
C393 C394 1.502 . S
C393 C395 1.561 . S
C393 C396 1.526 . S
C394 H378 0.959 . S
C394 H379 0.959 . S
C394 H380 0.961 . S
C394 C393 1.502 . S
C395 H381 0.960 . S
C395 H382 0.961 . S
C395 H383 0.959 . S
C395 C393 1.561 . S
C396 C393 1.526 . S
C396 C397 1.396 . S
C396 C401 1.390 . S
C397 C391 1.465 . S
C397 C396 1.396 . S
C397 C398 1.399 . S
C398 H384 0.929 . S
C398 C397 1.399 . S
C398 C399 1.385 . S
C399 H385 0.931 . S
C399 C398 1.385 . S
C399 C400 1.389 . S
C400 C399 1.389 . S
C400 C401 1.387 . S
C401 H386 0.930 . S
C401 C396 1.390 . S
C401 C400 1.387 . S
H402 C414 0.930 . S
H403 C416 0.930 1_554 S
H404 C417 0.930 . S
H405 C421 0.959 . S
H406 C421 0.959 . S
H407 C421 0.961 . S
H408 C422 0.960 . S
H409 C422 0.961 . S
H410 C422 0.959 . S
H411 C425 0.929 . S
H412 C426 0.931 . S
H413 C428 0.930 . S
C414 H402 0.930 . S
C414 C415 1.399 . S
C414 C419 1.399 . S
C415 C414 1.399 . S
C415 C416 1.376 . S
C416 H403 0.930 1_556 S
C416 C415 1.376 . S
C416 C417 1.388 1_556 S
C417 H404 0.930 . S
C417 C416 1.388 1_554 S
C417 C418 1.390 1_554 S
C418 C417 1.390 1_556 S
C418 C419 1.394 . S
C418 C424 1.465 . S
C419 C414 1.399 . S
C419 C418 1.394 . S
C419 C420 1.516 . S
C420 C419 1.516 . S
C420 C421 1.502 . S
C420 C422 1.561 . S
C420 C423 1.526 . S
C421 H405 0.959 . S
C421 H406 0.959 . S
C421 H407 0.961 . S
C421 C420 1.502 . S
C422 H408 0.960 . S
C422 H409 0.961 . S
C422 H410 0.959 . S
C422 C420 1.561 . S
C423 C420 1.526 . S
C423 C424 1.396 . S
C423 C428 1.390 . S
C424 C418 1.465 . S
C424 C423 1.396 . S
C424 C425 1.399 1_556 S
C425 H411 0.929 . S
C425 C424 1.399 1_554 S
C425 C426 1.385 . S
C426 H412 0.931 . S
C426 C425 1.385 . S
C426 C427 1.389 1_554 S
C427 C426 1.389 1_556 S
C427 C428 1.387 . S
C428 H413 0.930 . S
C428 C423 1.390 . S
C428 C427 1.387 . S
H429 C441 0.930 . S
H430 C443 0.930 . S
H431 C444 0.930 . S
H432 C448 0.959 1_556 S
H433 C448 0.959 . S
H434 C448 0.961 1_556 S
H435 C449 0.960 . S
H436 C449 0.961 . S
H437 C449 0.959 . S
H438 C452 0.929 . S
H439 C453 0.931 . S
H440 C455 0.930 . S
C441 H429 0.930 . S
C441 C442 1.399 . S
C441 C446 1.399 . S
C442 C441 1.399 . S
C442 C443 1.376 . S
C443 H430 0.930 . S
C443 C442 1.376 . S
C443 C444 1.388 . S
C444 H431 0.930 . S
C444 C443 1.388 . S
C444 C445 1.390 . S
C445 C444 1.390 . S
C445 C446 1.394 . S
C445 C451 1.465 . S
C446 C441 1.399 . S
C446 C445 1.394 . S
C446 C447 1.516 . S
C447 C446 1.516 . S
C447 C448 1.502 . S
C447 C449 1.561 . S
C447 C450 1.526 . S
C448 H432 0.959 1_554 S
C448 H433 0.959 . S
C448 H434 0.961 1_554 S
C448 C447 1.502 . S
C449 H435 0.960 . S
C449 H436 0.961 . S
C449 H437 0.959 . S
C449 C447 1.561 . S
C450 C447 1.526 . S
C450 C451 1.396 . S
C450 C455 1.390 . S
C451 C445 1.465 . S
C451 C450 1.396 . S
C451 C452 1.399 . S
C452 H438 0.929 . S
C452 C451 1.399 . S
C452 C453 1.385 . S
C453 H439 0.931 . S
C453 C452 1.385 . S
C453 C454 1.389 . S
C454 C453 1.389 . S
C454 C455 1.387 . S
C455 H440 0.930 . S
C455 C450 1.390 . S
C455 C454 1.387 . S
H456 C468 0.930 . S
H457 C470 0.930 . S
H458 C471 0.930 . S
H459 C475 0.959 . S
H460 C475 0.959 1_554 S
H461 C475 0.961 1_554 S
H462 C476 0.960 . S
H463 C476 0.961 . S
H464 C476 0.959 . S
H465 C479 0.929 . S
H466 C480 0.931 . S
H467 C482 0.930 . S
C468 H456 0.930 . S
C468 C469 1.399 . S
C468 C473 1.399 . S
C469 C468 1.399 . S
C469 C470 1.376 . S
C470 H457 0.930 . S
C470 C469 1.376 . S
C470 C471 1.388 . S
C471 H458 0.930 . S
C471 C470 1.388 . S
C471 C472 1.390 . S
C472 C471 1.390 . S
C472 C473 1.394 . S
C472 C478 1.465 . S
C473 C468 1.399 . S
C473 C472 1.394 . S
C473 C474 1.516 . S
C474 C473 1.516 . S
C474 C475 1.502 . S
C474 C476 1.561 1_556 S
C474 C477 1.526 . S
C475 H459 0.959 . S
C475 H460 0.959 1_556 S
C475 H461 0.961 1_556 S
C475 C474 1.502 . S
C476 H462 0.960 . S
C476 H463 0.961 . S
C476 H464 0.959 . S
C476 C474 1.561 1_554 S
C477 C474 1.526 . S
C477 C478 1.396 . S
C477 C482 1.390 . S
C478 C472 1.465 . S
C478 C477 1.396 . S
C478 C479 1.399 . S
C479 H465 0.929 . S
C479 C478 1.399 . S
C479 C480 1.385 . S
C480 H466 0.931 . S
C480 C479 1.385 . S
C480 C481 1.389 . S
C481 C480 1.389 . S
C481 C482 1.387 . S
C482 H467 0.930 . S
C482 C477 1.390 . S
C482 C481 1.387 . S
H483 C495 0.930 . S
H484 C497 0.930 . S
H485 C498 0.930 . S
H486 C502 0.959 . S
H487 C502 0.959 . S
H488 C502 0.961 . S
H489 C503 0.960 . S
H490 C503 0.961 . S
H491 C503 0.959 . S
H492 C506 0.929 . S
H493 C507 0.931 . S
H494 C509 0.930 . S
C495 H483 0.930 . S
C495 C496 1.399 . S
C495 C500 1.399 . S
C496 C495 1.399 . S
C496 C497 1.376 1_554 S
C497 H484 0.930 . S
C497 C496 1.376 1_556 S
C497 C498 1.388 . S
C498 H485 0.930 . S
C498 C497 1.388 . S
C498 C499 1.390 1_556 S
C499 C498 1.390 1_554 S
C499 C500 1.394 . S
C499 C505 1.465 . S
C500 C495 1.399 . S
C500 C499 1.394 . S
C500 C501 1.516 . S
C501 C500 1.516 . S
C501 C502 1.502 . S
C501 C503 1.561 . S
C501 C504 1.526 . S
C502 H486 0.959 . S
C502 H487 0.959 . S
C502 H488 0.961 . S
C502 C501 1.502 . S
C503 H489 0.960 . S
C503 H490 0.961 . S
C503 H491 0.959 . S
C503 C501 1.561 . S
C504 C501 1.526 . S
C504 C505 1.396 . S
C504 C509 1.390 . S
C505 C499 1.465 . S
C505 C504 1.396 . S
C505 C506 1.399 1_554 S
C506 H492 0.929 . S
C506 C505 1.399 1_556 S
C506 C507 1.385 . S
C507 H493 0.931 . S
C507 C506 1.385 . S
C507 C508 1.389 1_556 S
C508 C507 1.389 1_554 S
C508 C509 1.387 . S
C509 H494 0.930 . S
C509 C504 1.390 . S
C509 C508 1.387 . S
H510 C522 0.930 . S
H511 C524 0.930 . S
H512 C525 0.930 . S
H513 C529 0.959 . S
H514 C529 0.959 . S
H515 C529 0.961 . S
H516 C530 0.960 . S
H517 C530 0.961 . S
H518 C530 0.959 1_554 S
H519 C533 0.929 . S
H520 C534 0.931 . S
H521 C536 0.930 . S
C522 H510 0.930 . S
C522 C523 1.399 . S
C522 C527 1.399 . S
C523 C522 1.399 . S
C523 C524 1.376 1_556 S
C524 H511 0.930 . S
C524 C523 1.376 1_554 S
C524 C525 1.388 . S
C525 H512 0.930 . S
C525 C524 1.388 . S
C525 C526 1.390 . S
C526 C525 1.390 . S
C526 C527 1.394 1_554 S
C526 C532 1.465 . S
C527 C522 1.399 . S
C527 C526 1.394 1_556 S
C527 C528 1.516 . S
C528 C527 1.516 . S
C528 C529 1.502 . S
C528 C530 1.561 . S
C528 C531 1.526 . S
C529 H513 0.959 . S
C529 H514 0.959 . S
C529 H515 0.961 . S
C529 C528 1.502 . S
C530 H516 0.960 . S
C530 H517 0.961 . S
C530 H518 0.959 1_556 S
C530 C528 1.561 . S
C531 C528 1.526 . S
C531 C532 1.396 1_556 S
C531 C536 1.390 . S
C532 C526 1.465 . S
C532 C531 1.396 1_554 S
C532 C533 1.399 . S
C533 H519 0.929 . S
C533 C532 1.399 . S
C533 C534 1.385 . S
C534 H520 0.931 . S
C534 C533 1.385 . S
C534 C535 1.389 1_554 S
C535 C534 1.389 1_556 S
C535 C536 1.387 . S
C536 H521 0.930 . S
C536 C531 1.390 . S
C536 C535 1.387 . S
H537 C549 0.930 . S
H538 C551 0.930 . S
H539 C552 0.930 . S
H540 C556 0.959 . S
H541 C556 0.959 . S
H542 C556 0.961 . S
H543 C557 0.960 . S
H544 C557 0.961 . S
H545 C557 0.959 1_556 S
H546 C560 0.929 . S
H547 C561 0.931 . S
H548 C563 0.930 . S
C549 H537 0.930 . S
C549 C550 1.399 . S
C549 C554 1.399 . S
C550 C549 1.399 . S
C550 C551 1.376 1_554 S
C551 H538 0.930 . S
C551 C550 1.376 1_556 S
C551 C552 1.388 . S
C552 H539 0.930 . S
C552 C551 1.388 . S
C552 C553 1.390 1_556 S
C553 C552 1.390 1_554 S
C553 C554 1.394 . S
C553 C559 1.465 . S
C554 C549 1.399 . S
C554 C553 1.394 . S
C554 C555 1.516 . S
C555 C554 1.516 . S
C555 C556 1.502 . S
C555 C557 1.561 . S
C555 C558 1.526 . S
C556 H540 0.959 . S
C556 H541 0.959 . S
C556 H542 0.961 . S
C556 C555 1.502 . S
C557 H543 0.960 . S
C557 H544 0.961 . S
C557 H545 0.959 1_554 S
C557 C555 1.561 . S
C558 C555 1.526 . S
C558 C559 1.396 . S
C558 C563 1.390 . S
C559 C553 1.465 . S
C559 C558 1.396 . S
C559 C560 1.399 . S
C560 H546 0.929 . S
C560 C559 1.399 . S
C560 C561 1.385 . S
C561 H547 0.931 . S
C561 C560 1.385 . S
C561 C562 1.389 . S
C562 C561 1.389 . S
C562 C563 1.387 . S
C563 H548 0.930 . S
C563 C558 1.390 . S
C563 C562 1.387 . S
H564 C576 0.930 . S
H565 C578 0.930 . S
H566 C579 0.930 . S
H567 C583 0.959 . S
H568 C583 0.959 . S
H569 C583 0.961 . S
H570 C584 0.960 . S
H571 C584 0.961 . S
H572 C584 0.959 . S
H573 C587 0.929 . S
H574 C588 0.931 . S
H575 C590 0.930 . S
C576 H564 0.930 . S
C576 C577 1.399 . S
C576 C581 1.399 . S
C577 C576 1.399 . S
C577 C578 1.376 . S
C578 H565 0.930 . S
C578 C577 1.376 . S
C578 C579 1.388 . S
C579 H566 0.930 . S
C579 C578 1.388 . S
C579 C580 1.390 . S
C580 C579 1.390 . S
C580 C581 1.394 . S
C580 C586 1.465 . S
C581 C576 1.399 . S
C581 C580 1.394 . S
C581 C582 1.516 . S
C582 C581 1.516 . S
C582 C583 1.502 . S
C582 C584 1.561 . S
C582 C585 1.526 . S
C583 H567 0.959 . S
C583 H568 0.959 . S
C583 H569 0.961 . S
C583 C582 1.502 . S
C584 H570 0.960 . S
C584 H571 0.961 . S
C584 H572 0.959 . S
C584 C582 1.561 . S
C585 C582 1.526 . S
C585 C586 1.396 . S
C585 C590 1.390 . S
C586 C580 1.465 . S
C586 C585 1.396 . S
C586 C587 1.399 . S
C587 H573 0.929 . S
C587 C586 1.399 . S
C587 C588 1.385 . S
C588 H574 0.931 . S
C588 C587 1.385 . S
C588 C589 1.389 . S
C589 C588 1.389 . S
C589 C590 1.387 . S
C590 H575 0.930 . S
C590 C585 1.390 . S
C590 C589 1.387 . S
H591 C603 0.930 . S
H592 C605 0.930 . S
H593 C606 0.930 . S
H594 C610 0.959 . S
H595 C610 0.959 . S
H596 C610 0.961 . S
H597 C611 0.960 . S
H598 C611 0.961 . S
H599 C611 0.959 . S
H600 C614 0.929 . S
H601 C615 0.931 . S
H602 C617 0.930 . S
C603 H591 0.930 . S
C603 C604 1.399 . S
C603 C608 1.399 . S
C604 C603 1.399 . S
C604 C605 1.376 . S
C605 H592 0.930 . S
C605 C604 1.376 . S
C605 C606 1.388 . S
C606 H593 0.930 . S
C606 C605 1.388 . S
C606 C607 1.390 . S
C607 C606 1.390 . S
C607 C608 1.394 . S
C607 C613 1.465 . S
C608 C603 1.399 . S
C608 C607 1.394 . S
C608 C609 1.516 . S
C609 C608 1.516 . S
C609 C610 1.502 . S
C609 C611 1.561 . S
C609 C612 1.526 . S
C610 H594 0.959 . S
C610 H595 0.959 . S
C610 H596 0.961 . S
C610 C609 1.502 . S
C611 H597 0.960 . S
C611 H598 0.961 . S
C611 H599 0.959 . S
C611 C609 1.561 . S
C612 C609 1.526 . S
C612 C613 1.396 . S
C612 C617 1.390 . S
C613 C607 1.465 . S
C613 C612 1.396 . S
C613 C614 1.399 . S
C614 H600 0.929 . S
C614 C613 1.399 . S
C614 C615 1.385 . S
C615 H601 0.931 . S
C615 C614 1.385 . S
C615 C616 1.389 . S
C616 C615 1.389 . S
C616 C617 1.387 . S
C617 H602 0.930 . S
C617 C612 1.390 . S
C617 C616 1.387 . S
H618 C630 0.930 . S
H619 C632 0.930 . S
H620 C633 0.930 . S
H621 C637 0.959 . S
H622 C637 0.959 . S
H623 C637 0.961 . S
H624 C638 0.960 . S
H625 C638 0.961 . S
H626 C638 0.959 . S
H627 C641 0.929 . S
H628 C642 0.931 . S
H629 C644 0.930 . S
C630 H618 0.930 . S
C630 C631 1.399 . S
C630 C635 1.399 . S
C631 C630 1.399 . S
C631 C632 1.376 . S
C632 H619 0.930 . S
C632 C631 1.376 . S
C632 C633 1.388 . S
C633 H620 0.930 . S
C633 C632 1.388 . S
C633 C634 1.390 . S
C634 C633 1.390 . S
C634 C635 1.394 . S
C634 C640 1.465 . S
C635 C630 1.399 . S
C635 C634 1.394 . S
C635 C636 1.516 . S
C636 C635 1.516 . S
C636 C637 1.502 . S
C636 C638 1.561 . S
C636 C639 1.526 . S
C637 H621 0.959 . S
C637 H622 0.959 . S
C637 H623 0.961 . S
C637 C636 1.502 . S
C638 H624 0.960 . S
C638 H625 0.961 . S
C638 H626 0.959 . S
C638 C636 1.561 . S
C639 C636 1.526 . S
C639 C640 1.396 . S
C639 C644 1.390 . S
C640 C634 1.465 . S
C640 C639 1.396 . S
C640 C641 1.399 . S
C641 H627 0.929 . S
C641 C640 1.399 . S
C641 C642 1.385 . S
C642 H628 0.931 . S
C642 C641 1.385 . S
C642 C643 1.389 . S
C643 C642 1.389 . S
C643 C644 1.387 . S
C644 H629 0.930 . S
C644 C639 1.390 . S
C644 C643 1.387 . S
H645 C657 0.930 . S
H646 C659 0.930 . S
H647 C660 0.930 . S
H648 C664 0.959 . S
H649 C664 0.959 . S
H650 C664 0.961 . S
H651 C665 0.960 . S
H652 C665 0.961 . S
H653 C665 0.959 . S
H654 C668 0.929 . S
H655 C669 0.931 . S
H656 C671 0.930 . S
C657 H645 0.930 . S
C657 C658 1.399 . S
C657 C662 1.399 . S
C658 C657 1.399 . S
C658 C659 1.376 . S
C659 H646 0.930 . S
C659 C658 1.376 . S
C659 C660 1.388 . S
C660 H647 0.930 . S
C660 C659 1.388 . S
C660 C661 1.390 . S
C661 C660 1.390 . S
C661 C662 1.394 . S
C661 C667 1.465 . S
C662 C657 1.399 . S
C662 C661 1.394 . S
C662 C663 1.516 . S
C663 C662 1.516 . S
C663 C664 1.502 . S
C663 C665 1.561 . S
C663 C666 1.526 . S
C664 H648 0.959 . S
C664 H649 0.959 . S
C664 H650 0.961 . S
C664 C663 1.502 . S
C665 H651 0.960 . S
C665 H652 0.961 . S
C665 H653 0.959 . S
C665 C663 1.561 . S
C666 C663 1.526 . S
C666 C667 1.396 . S
C666 C671 1.390 . S
C667 C661 1.465 . S
C667 C666 1.396 . S
C667 C668 1.399 . S
C668 H654 0.929 . S
C668 C667 1.399 . S
C668 C669 1.385 . S
C669 H655 0.931 . S
C669 C668 1.385 . S
C669 C670 1.389 . S
C670 C669 1.389 . S
C670 C671 1.387 . S
C671 H656 0.930 . S
C671 C666 1.390 . S
C671 C670 1.387 . S
H672 C684 0.930 . S
H673 C686 0.930 . S
H674 C687 0.930 . S
H675 C691 0.959 . S
H676 C691 0.959 . S
H677 C691 0.961 . S
H678 C692 0.960 . S
H679 C692 0.961 . S
H680 C692 0.959 . S
H681 C695 0.929 . S
H682 C696 0.931 . S
H683 C698 0.930 . S
C684 H672 0.930 . S
C684 C685 1.399 . S
C684 C689 1.399 . S
C685 C684 1.399 . S
C685 C686 1.376 . S
C686 H673 0.930 . S
C686 C685 1.376 . S
C686 C687 1.388 . S
C687 H674 0.930 . S
C687 C686 1.388 . S
C687 C688 1.390 . S
C688 C687 1.390 . S
C688 C689 1.394 . S
C688 C694 1.465 . S
C689 C684 1.399 . S
C689 C688 1.394 . S
C689 C690 1.516 . S
C690 C689 1.516 . S
C690 C691 1.502 . S
C690 C692 1.561 . S
C690 C693 1.526 . S
C691 H675 0.959 . S
C691 H676 0.959 . S
C691 H677 0.961 . S
C691 C690 1.502 . S
C692 H678 0.960 . S
C692 H679 0.961 . S
C692 H680 0.959 . S
C692 C690 1.561 . S
C693 C690 1.526 . S
C693 C694 1.396 . S
C693 C698 1.390 . S
C694 C688 1.465 . S
C694 C693 1.396 . S
C694 C695 1.399 . S
C695 H681 0.929 . S
C695 C694 1.399 . S
C695 C696 1.385 . S
C696 H682 0.931 . S
C696 C695 1.385 . S
C696 C697 1.389 . S
C697 C696 1.389 . S
C697 C698 1.387 . S
C698 H683 0.930 . S
C698 C693 1.390 . S
C698 C697 1.387 . S
H699 C711 0.930 . S
H700 C713 0.930 . S
H701 C714 0.930 . S
H702 C718 0.959 . S
H703 C718 0.959 . S
H704 C718 0.961 . S
H705 C719 0.960 . S
H706 C719 0.961 . S
H707 C719 0.959 . S
H708 C722 0.929 . S
H709 C723 0.931 . S
H710 C725 0.930 . S
C711 H699 0.930 . S
C711 C712 1.399 . S
C711 C716 1.399 . S
C712 C711 1.399 . S
C712 C713 1.376 . S
C713 H700 0.930 . S
C713 C712 1.376 . S
C713 C714 1.388 . S
C714 H701 0.930 . S
C714 C713 1.388 . S
C714 C715 1.390 . S
C715 C714 1.390 . S
C715 C716 1.394 . S
C715 C721 1.465 . S
C716 C711 1.399 . S
C716 C715 1.394 . S
C716 C717 1.516 . S
C717 C716 1.516 . S
C717 C718 1.502 . S
C717 C719 1.561 . S
C717 C720 1.526 . S
C718 H702 0.959 . S
C718 H703 0.959 . S
C718 H704 0.961 . S
C718 C717 1.502 . S
C719 H705 0.960 . S
C719 H706 0.961 . S
C719 H707 0.959 . S
C719 C717 1.561 . S
C720 C717 1.526 . S
C720 C721 1.396 . S
C720 C725 1.390 . S
C721 C715 1.465 . S
C721 C720 1.396 . S
C721 C722 1.399 . S
C722 H708 0.929 . S
C722 C721 1.399 . S
C722 C723 1.385 . S
C723 H709 0.931 . S
C723 C722 1.385 . S
C723 C724 1.389 . S
C724 C723 1.389 . S
C724 C725 1.387 . S
C725 H710 0.930 . S
C725 C720 1.390 . S
C725 C724 1.387 . S
C253 C210 2.893 . S
C265 C10 2.728 . S
C280 C6 2.199 . S
C292 C46 2.341 . S
C307 C50 3.697 . S
C319 C86 3.387 1_545 S
C334 C126 2.827 . S
C346 C90 2.954 . S
C361 C170 4.471 . S
C373 C130 4.375 . S
C388 C166 2.624 . S
C400 C206 2.545 . S
C415 C175 2.229 . S
C427 C19 2.287 . S
C442 C219 1.323 . S
C454 C55 1.302 . S
C469 C95 1.045 . S
C481 C15 1.004 . S
C496 C135 2.172 . S
C508 C59 2.091 . S
C523 C179 3.872 1_556 S
C535 C99 3.973 . S
C550 C139 3.169 1_554 S
C562 C215 3.106 . S
C577 C9 0.434 . S
C589 C18 0.484 . S
C604 C58 0.333 . S
C616 C49 0.375 . S
C631 C98 0.642 . S
C643 C89 0.597 . S
C658 C138 0.481 . S
C670 C129 0.440 . S
C685 C178 0.481 . S
C697 C169 0.293 . S
C712 C218 0.308 . S
C724 C209 0.546 . S
