# Generated by pormake.
# Topology neb, (4)-cn, num edge types: 1
# Building blocks:
#     Node 0, Type 0, BuildingBlock: GALJAG_clean_sbu_0, # of connection points: 4
#     Node 1, Type 0, BuildingBlock: GALJAG_clean_sbu_0, # of connection points: 4
#     Node 2, Type 0, BuildingBlock: GALJAG_clean_sbu_0, # of connection points: 4
#     Node 3, Type 0, BuildingBlock: GALJAG_clean_sbu_0, # of connection points: 4
#     Node 4, Type 0, BuildingBlock: GALJAG_clean_sbu_0, # of connection points: 4
#     Node 5, Type 0, BuildingBlock: GALJAG_clean_sbu_0, # of connection points: 4
#     Node 6, Type 0, BuildingBlock: GALJAG_clean_sbu_0, # of connection points: 4
#     Node 7, Type 0, BuildingBlock: GALJAG_clean_sbu_0, # of connection points: 4
#     Node 8, Type 0, BuildingBlock: GALJAG_clean_sbu_0, # of connection points: 4
#     Node 9, Type 0, BuildingBlock: GALJAG_clean_sbu_0, # of connection points: 4
#     Node 10, Type 0, BuildingBlock: GALJAG_clean_sbu_0, # of connection points: 4
#     Node 11, Type 0, BuildingBlock: GALJAG_clean_sbu_0, # of connection points: 4
#     Node 12, Type 0, BuildingBlock: GALJAG_clean_sbu_0, # of connection points: 4
#     Node 13, Type 0, BuildingBlock: GALJAG_clean_sbu_0, # of connection points: 4
#     Node 14, Type 0, BuildingBlock: GALJAG_clean_sbu_0, # of connection points: 4
#     Node 15, Type 0, BuildingBlock: GALJAG_clean_sbu_0, # of connection points: 4
#     Edge 16, Type (0, 0), BuildingBlock: UVAHIK_clean_linker_0, # of connection points: 2
#     Edge 17, Type (0, 0), BuildingBlock: UVAHIK_clean_linker_0, # of connection points: 2
#     Edge 18, Type (0, 0), BuildingBlock: UVAHIK_clean_linker_0, # of connection points: 2
#     Edge 19, Type (0, 0), BuildingBlock: UVAHIK_clean_linker_0, # of connection points: 2
#     Edge 20, Type (0, 0), BuildingBlock: UVAHIK_clean_linker_0, # of connection points: 2
#     Edge 21, Type (0, 0), BuildingBlock: UVAHIK_clean_linker_0, # of connection points: 2
#     Edge 22, Type (0, 0), BuildingBlock: UVAHIK_clean_linker_0, # of connection points: 2
#     Edge 23, Type (0, 0), BuildingBlock: UVAHIK_clean_linker_0, # of connection points: 2
#     Edge 24, Type (0, 0), BuildingBlock: UVAHIK_clean_linker_0, # of connection points: 2
#     Edge 25, Type (0, 0), BuildingBlock: UVAHIK_clean_linker_0, # of connection points: 2
#     Edge 26, Type (0, 0), BuildingBlock: UVAHIK_clean_linker_0, # of connection points: 2
#     Edge 27, Type (0, 0), BuildingBlock: UVAHIK_clean_linker_0, # of connection points: 2
#     Edge 28, Type (0, 0), BuildingBlock: UVAHIK_clean_linker_0, # of connection points: 2
#     Edge 29, Type (0, 0), BuildingBlock: UVAHIK_clean_linker_0, # of connection points: 2
#     Edge 30, Type (0, 0), BuildingBlock: UVAHIK_clean_linker_0, # of connection points: 2
#     Edge 31, Type (0, 0), BuildingBlock: UVAHIK_clean_linker_0, # of connection points: 2
#     Edge 32, Type (0, 0), BuildingBlock: UVAHIK_clean_linker_0, # of connection points: 2
#     Edge 33, Type (0, 0), BuildingBlock: UVAHIK_clean_linker_0, # of connection points: 2
#     Edge 34, Type (0, 0), BuildingBlock: UVAHIK_clean_linker_0, # of connection points: 2
#     Edge 35, Type (0, 0), BuildingBlock: UVAHIK_clean_linker_0, # of connection points: 2
#     Edge 36, Type (0, 0), BuildingBlock: UVAHIK_clean_linker_0, # of connection points: 2
#     Edge 37, Type (0, 0), BuildingBlock: UVAHIK_clean_linker_0, # of connection points: 2
#     Edge 38, Type (0, 0), BuildingBlock: UVAHIK_clean_linker_0, # of connection points: 2
#     Edge 39, Type (0, 0), BuildingBlock: UVAHIK_clean_linker_0, # of connection points: 2
#     Edge 40, Type (0, 0), BuildingBlock: UVAHIK_clean_linker_0, # of connection points: 2
#     Edge 41, Type (0, 0), BuildingBlock: UVAHIK_clean_linker_0, # of connection points: 2
#     Edge 42, Type (0, 0), BuildingBlock: UVAHIK_clean_linker_0, # of connection points: 2
#     Edge 43, Type (0, 0), BuildingBlock: UVAHIK_clean_linker_0, # of connection points: 2
#     Edge 44, Type (0, 0), BuildingBlock: UVAHIK_clean_linker_0, # of connection points: 2
#     Edge 45, Type (0, 0), BuildingBlock: UVAHIK_clean_linker_0, # of connection points: 2
#     Edge 46, Type (0, 0), BuildingBlock: UVAHIK_clean_linker_0, # of connection points: 2
#     Edge 47, Type (0, 0), BuildingBlock: UVAHIK_clean_linker_0, # of connection points: 2
# Relax obj value: 0.003
# Max RMSD: 0.033
# Mean RMSD: 0.033
data_MOF--net-neb--node1-GALJAG_clean_sbu_0--edge1-UVAHIK_clean_linker_0
_symmetry_space_group_name_H-M    P1
_symmetry_Int_Tables_number       1
_symmetry_cell_setting            triclinic
loop_
_symmetry_equiv_pos_as_xyz
'x, y, z'
_cell_length_a     54.677393
_cell_length_b     32.451117
_cell_length_c     91.757271
_cell_angle_alpha  89.995127
_cell_angle_beta   90.431102
_cell_angle_gamma 90.001958
loop_
_atom_site_label
_atom_site_type_symbol
_atom_site_fract_x
_atom_site_fract_y
_atom_site_fract_z
_atom_type_partial_charge
In0 In 0.12337 0.12074 0.43237 0.0
O1 O 0.14509 0.06494 0.4246 0.0
O2 O 0.11322 0.08138 0.41261 0.0
C3 C 0.15631 0.15209 0.45136 0.0
C4 C 0.0888 0.08939 0.45011 0.0
C5 C 0.11892 0.18646 0.41453 0.0
O6 O 0.16179 0.12513 0.44202 0.0
O7 O 0.13414 0.16293 0.45121 0.0
O8 O 0.10073 0.17032 0.42072 0.0
O9 O 0.13909 0.16903 0.41716 0.0
C10 C 0.131 0.05693 0.41404 0.0
O11 O 0.08477 0.11989 0.4419 0.0
O12 O 0.11016 0.075 0.44937 0.0
In13 In 0.1233 0.11992 0.81029 0.0
O14 O 0.10033 0.06886 0.82069 0.0
O15 O 0.13629 0.0787 0.82884 0.0
C16 C 0.09093 0.14961 0.79063 0.0
C17 C 0.15721 0.08646 0.79267 0.0
C18 C 0.1282 0.18696 0.82748 0.0
O19 O 0.08534 0.12225 0.79981 0.0
O20 O 0.11289 0.16146 0.79125 0.0
O21 O 0.14615 0.17062 0.82114 0.0
O22 O 0.10802 0.16909 0.82535 0.0
C23 C 0.11684 0.05799 0.82957 0.0
O24 O 0.16157 0.11751 0.80057 0.0
O25 O 0.13571 0.07262 0.79357 0.0
In26 In 0.87207 0.87756 0.5607 0.0
O27 O 0.85078 0.93445 0.56795 0.0
O28 O 0.88136 0.91625 0.58078 0.0
C29 C 0.83924 0.84566 0.54172 0.0
C30 C 0.90679 0.90956 0.54323 0.0
C31 C 0.87698 0.81138 0.57829 0.0
O32 O 0.83335 0.8707 0.55162 0.0
O33 O 0.86173 0.8371 0.54129 0.0
O34 O 0.89499 0.82754 0.57191 0.0
O35 O 0.85678 0.82904 0.57598 0.0
C36 C 0.86419 0.94168 0.57889 0.0
O37 O 0.91092 0.87935 0.55157 0.0
O38 O 0.88525 0.9233 0.54371 0.0
In39 In 0.87353 0.87353 0.18246 0.0
O40 O 0.83543 0.8753 0.19246 0.0
O41 O 0.86223 0.91694 0.20067 0.0
C42 C 0.86823 0.81013 0.1636 0.0
C43 C 0.87867 0.93965 0.16487 0.0
C44 C 0.90675 0.84142 0.20114 0.0
O45 O 0.85098 0.8224 0.17156 0.0
O46 O 0.88784 0.8302 0.16501 0.0
O47 O 0.91172 0.87077 0.19262 0.0
O48 O 0.885 0.8286 0.20031 0.0
C49 C 0.84049 0.90405 0.20126 0.0
O50 O 0.89626 0.92504 0.1722 0.0
O51 O 0.85876 0.92049 0.16623 0.0
In52 In 0.12333 0.62013 0.93179 0.0
O53 O 0.14571 0.5686 0.9213 0.0
O54 O 0.10975 0.57916 0.91328 0.0
C55 C 0.15699 0.64835 0.95095 0.0
C56 C 0.0898 0.58755 0.94988 0.0
C57 C 0.11789 0.68757 0.91479 0.0
O58 O 0.16202 0.62222 0.94123 0.0
O59 O 0.13492 0.65974 0.95112 0.0
O60 O 0.10005 0.67039 0.92096 0.0
O61 O 0.13824 0.67035 0.917 0.0
C62 C 0.12903 0.55803 0.9125 0.0
O63 O 0.08569 0.61943 0.94237 0.0
O64 O 0.11087 0.57241 0.94837 0.0
In65 In 0.12479 0.62208 0.31071 0.0
O66 O 0.10251 0.56937 0.32053 0.0
O67 O 0.13928 0.57717 0.3277 0.0
C68 C 0.08957 0.65284 0.29302 0.0
C69 C 0.15858 0.58994 0.29271 0.0
C70 C 0.13204 0.68795 0.32824 0.0
O71 O 0.08522 0.62551 0.30244 0.0
O72 O 0.11159 0.66419 0.29248 0.0
O73 O 0.14506 0.68083 0.31725 0.0
O74 O 0.11556 0.6616 0.33051 0.0
C75 C 0.11976 0.55662 0.32857 0.0
O76 O 0.16392 0.61521 0.30268 0.0
O77 O 0.13615 0.5811 0.29174 0.0
In78 In 0.87429 0.3734 0.06042 0.0
O79 O 0.85148 0.42432 0.07099 0.0
O80 O 0.88928 0.42101 0.07635 0.0
C81 C 0.84108 0.34175 0.04162 0.0
C82 C 0.90764 0.40263 0.04156 0.0
C83 C 0.87939 0.3105 0.0795 0.0
O84 O 0.83647 0.37223 0.0497 0.0
O85 O 0.86245 0.32756 0.04295 0.0
O86 O 0.89689 0.32329 0.07184 0.0
O87 O 0.85961 0.32981 0.07769 0.0
C88 C 0.86924 0.43955 0.07801 0.0
O89 O 0.91218 0.3731 0.05013 0.0
O90 O 0.88625 0.41696 0.04241 0.0
In91 In 0.8737 0.37606 0.68236 0.0
O92 O 0.83535 0.38198 0.6917 0.0
O93 O 0.86353 0.41842 0.70123 0.0
C94 C 0.86565 0.31113 0.6645 0.0
C95 C 0.8781 0.44122 0.6643 0.0
C96 C 0.90899 0.34372 0.69966 0.0
O97 O 0.85213 0.31916 0.67521 0.0
O98 O 0.883 0.33615 0.66268 0.0
O99 O 0.91326 0.37219 0.69065 0.0
O100 O 0.88701 0.33209 0.70001 0.0
C101 C 0.84123 0.40846 0.70117 0.0
O102 O 0.89578 0.428 0.67191 0.0
O103 O 0.85844 0.42133 0.66572 0.0
In104 In 0.62197 0.12272 0.93267 0.0
O105 O 0.64414 0.07133 0.92197 0.0
O106 O 0.60653 0.07697 0.91626 0.0
C107 C 0.65731 0.15418 0.95013 0.0
C108 C 0.58913 0.09063 0.95132 0.0
C109 C 0.6144 0.18765 0.91476 0.0
O110 O 0.66125 0.12471 0.94148 0.0
O111 O 0.63562 0.16731 0.95003 0.0
O112 O 0.60094 0.18019 0.92554 0.0
O113 O 0.63145 0.16208 0.9129 0.0
C114 C 0.62631 0.05757 0.91462 0.0
O115 O 0.58341 0.11678 0.9417 0.0
O116 O 0.61148 0.08096 0.95163 0.0
In117 In 0.62418 0.12191 0.31057 0.0
O118 O 0.66326 0.11985 0.30176 0.0
O119 O 0.63749 0.07681 0.29341 0.0
C120 C 0.62827 0.18765 0.32841 0.0
C121 C 0.61625 0.05784 0.32874 0.0
C122 C 0.59175 0.15365 0.29134 0.0
O123 O 0.64646 0.17242 0.32194 0.0
O124 O 0.60829 0.16933 0.32604 0.0
O125 O 0.58592 0.12705 0.30073 0.0
O126 O 0.614 0.16396 0.29156 0.0
C127 C 0.65913 0.09014 0.29322 0.0
O128 O 0.60243 0.06579 0.31804 0.0
O129 O 0.63388 0.08248 0.33039 0.0
In130 In 0.37238 0.87407 0.06055 0.0
O131 O 0.41164 0.87643 0.05212 0.0
O132 O 0.38557 0.91721 0.04272 0.0
C133 C 0.37729 0.80814 0.07822 0.0
C134 C 0.36493 0.93904 0.07842 0.0
C135 C 0.33897 0.84175 0.04205 0.0
O136 O 0.39512 0.8232 0.07135 0.0
O137 O 0.35726 0.82676 0.07634 0.0
O138 O 0.33343 0.86727 0.05187 0.0
O139 O 0.36142 0.83296 0.04145 0.0
C140 C 0.40739 0.90474 0.04301 0.0
O141 O 0.35176 0.93211 0.06735 0.0
O142 O 0.38164 0.91295 0.08058 0.0
In143 In 0.37375 0.87457 0.68256 0.0
O144 O 0.33585 0.87338 0.69277 0.0
O145 O 0.36178 0.91635 0.70111 0.0
C146 C 0.36878 0.81175 0.66345 0.0
C147 C 0.37825 0.94135 0.66522 0.0
C148 C 0.40775 0.84328 0.7009 0.0
O149 O 0.35134 0.82408 0.67124 0.0
O150 O 0.38841 0.83159 0.6651 0.0
O151 O 0.41178 0.87435 0.693 0.0
O152 O 0.38651 0.82842 0.69969 0.0
C153 C 0.34036 0.90199 0.70172 0.0
O154 O 0.39621 0.92577 0.67194 0.0
O155 O 0.35823 0.92288 0.66706 0.0
In156 In 0.62223 0.62332 0.43225 0.0
O157 O 0.64438 0.57087 0.4222 0.0
O158 O 0.60737 0.57832 0.41541 0.0
C159 C 0.65749 0.65391 0.44996 0.0
C160 C 0.58879 0.59041 0.4503 0.0
C161 C 0.61475 0.68908 0.41468 0.0
O162 O 0.66194 0.62756 0.44021 0.0
O163 O 0.63535 0.66437 0.45081 0.0
O164 O 0.60175 0.68193 0.42568 0.0
O165 O 0.6313 0.66285 0.41243 0.0
C166 C 0.62693 0.55795 0.41435 0.0
O167 O 0.58333 0.61683 0.44072 0.0
O168 O 0.61116 0.58092 0.45087 0.0
In169 In 0.62381 0.62118 0.81091 0.0
O170 O 0.66321 0.61953 0.80259 0.0
O171 O 0.63767 0.57742 0.79345 0.0
C172 C 0.6276 0.68709 0.8287 0.0
C173 C 0.61594 0.55663 0.82891 0.0
C174 C 0.59098 0.65255 0.79184 0.0
O175 O 0.64581 0.6722 0.82216 0.0
O176 O 0.60772 0.66832 0.82646 0.0
O177 O 0.58546 0.62557 0.80116 0.0
O178 O 0.61315 0.6634 0.79203 0.0
C179 C 0.65935 0.59056 0.7937 0.0
O180 O 0.60259 0.56405 0.81797 0.0
O181 O 0.63308 0.58203 0.8309 0.0
In182 In 0.37372 0.37427 0.56048 0.0
O183 O 0.35165 0.42646 0.57083 0.0
O184 O 0.38929 0.42134 0.57639 0.0
C185 C 0.33951 0.34257 0.54238 0.0
C186 C 0.4071 0.40242 0.54143 0.0
C187 C 0.37893 0.31142 0.57955 0.0
O188 O 0.33544 0.37339 0.5504 0.0
O189 O 0.36088 0.32814 0.54338 0.0
O190 O 0.39586 0.32237 0.57112 0.0
O191 O 0.35963 0.33247 0.57847 0.0
C192 C 0.36954 0.4408 0.57795 0.0
O193 O 0.41193 0.37475 0.55068 0.0
O194 O 0.38536 0.41545 0.54167 0.0
In195 In 0.3733 0.37302 0.18221 0.0
O196 O 0.33443 0.37915 0.19072 0.0
O197 O 0.36233 0.41363 0.20139 0.0
C198 C 0.36588 0.30783 0.1644 0.0
C199 C 0.37781 0.43848 0.16432 0.0
C200 C 0.40881 0.34206 0.19963 0.0
O201 O 0.35262 0.31504 0.17528 0.0
O202 O 0.38271 0.33372 0.16239 0.0
O203 O 0.41275 0.37084 0.1907 0.0
O204 O 0.38703 0.32936 0.19984 0.0
C205 C 0.33993 0.40441 0.20066 0.0
O206 O 0.39547 0.42503 0.17188 0.0
O207 O 0.35812 0.41867 0.1657 0.0
C208 C 0.32624 0.28996 0.52408 0.0
C209 C 0.32058 0.32399 0.53289 0.0
C210 C 0.30822 0.27147 0.51543 0.0
C211 C 0.24742 0.29008 0.4988 0.0
H212 H 0.24556 0.17083 0.49612 0.0
C213 C 0.16801 0.20294 0.47066 0.0
C214 C 0.17457 0.17051 0.46133 0.0
C215 C 0.18551 0.22141 0.47971 0.0
C216 C 0.24598 0.20417 0.49666 0.0
H217 H 0.29168 0.36556 0.53949 0.0
H218 H 0.26009 0.33301 0.5245 0.0
H219 H 0.27675 0.204 0.51119 0.0
H220 H 0.20447 0.13165 0.45426 0.0
H221 H 0.23505 0.16392 0.47006 0.0
H222 H 0.21657 0.29015 0.4843 0.0
C223 C 0.27853 0.3209 0.52414 0.0
C224 C 0.26387 0.22319 0.50527 0.0
C225 C 0.29659 0.33944 0.53278 0.0
C226 C 0.19888 0.15655 0.46136 0.0
C227 C 0.21636 0.17489 0.47045 0.0
C228 C 0.22948 0.27103 0.49022 0.0
C229 C 0.28411 0.28657 0.51541 0.0
C230 C 0.26487 0.26638 0.50639 0.0
C231 C 0.2099 0.2077 0.47966 0.0
C232 C 0.22863 0.22788 0.48902 0.0
H233 H 0.34461 0.27746 0.52391 0.0
H234 H 0.31322 0.24551 0.50867 0.0
H235 H 0.24789 0.32342 0.49927 0.0
H236 H 0.14939 0.21432 0.47089 0.0
H237 H 0.17993 0.24631 0.48681 0.0
C238 C 0.9198 0.96168 0.52483 0.0
C239 C 0.92558 0.92772 0.5337 0.0
C240 C 0.93747 0.97917 0.51583 0.0
C241 C 0.00421 0.98741 0.51094 0.0
H242 H 0.98632 0.02146 0.47177 0.0
C243 C 0.07584 0.0376 0.46865 0.0
C244 C 0.07009 0.07159 0.45978 0.0
C245 C 0.05821 0.02038 0.47774 0.0
C246 C 0.99154 0.01256 0.48274 0.0
H247 H 0.95435 0.88534 0.5401 0.0
H248 H 0.98523 0.91567 0.52426 0.0
H249 H 0.95563 0.99022 0.48743 0.0
H250 H 0.04144 0.11435 0.45351 0.0
H251 H 0.01062 0.08443 0.46949 0.0
H252 H 0.04013 0.00971 0.50624 0.0
C253 C 0.9671 0.92908 0.52439 0.0
C254 C 0.97396 0.99463 0.49171 0.0
C255 C 0.94939 0.91156 0.5334 0.0
C256 C 0.04636 0.0881 0.4602 0.0
C257 C 0.02869 0.07082 0.46929 0.0
C258 C 0.02179 0.00533 0.50197 0.0
C259 C 0.96133 0.96309 0.5155 0.0
C260 C 0.98009 0.98186 0.50592 0.0
C261 C 0.03442 0.03674 0.47816 0.0
C262 C 0.01566 0.01809 0.48776 0.0
H263 H 0.90161 0.97491 0.52486 0.0
H264 H 0.93251 0.00569 0.50927 0.0
H265 H 0.00943 0.97851 0.52191 0.0
H266 H 0.09396 0.02413 0.46853 0.0
H267 H 0.06312 0.99381 0.48428 0.0
C268 C 0.29799 0.90234 0.71183 0.0
C269 C 0.32181 0.91851 0.71177 0.0
C270 C 0.28018 0.91922 0.7209 0.0
C271 C 0.27225 0.98412 0.7537 0.0
H272 H 0.20709 0.00154 0.73789 0.0
C273 C 0.19991 0.08256 0.78317 0.0
C274 C 0.17589 0.06726 0.78333 0.0
C275 C 0.21769 0.06377 0.77455 0.0
C276 C 0.22512 0.99647 0.74251 0.0
H277 H 0.34579 0.96465 0.72125 0.0
H278 H 0.31469 0.99436 0.73698 0.0
H279 H 0.23822 0.96912 0.72285 0.0
H280 H 0.15157 0.02044 0.77459 0.0
H281 H 0.18262 0.98755 0.75959 0.0
H282 H 0.25917 0.01174 0.77334 0.0
C283 C 0.3098 0.96835 0.73016 0.0
C284 C 0.24295 0.97784 0.73391 0.0
C285 C 0.32759 0.95147 0.72109 0.0
C286 C 0.16993 0.03299 0.77465 0.0
C287 C 0.18769 0.01427 0.76601 0.0
C288 C 0.25443 0.00281 0.7623 0.0
C289 C 0.28584 0.95261 0.7301 0.0
C290 C 0.26674 0.97154 0.73939 0.0
C291 C 0.21178 0.02937 0.7659 0.0
C292 C 0.23068 0.00928 0.75679 0.0
H293 H 0.29303 0.87686 0.70478 0.0
H294 H 0.26199 0.90603 0.72075 0.0
H295 H 0.29029 0.97915 0.75832 0.0
H296 H 0.20502 0.10897 0.78974 0.0
H297 H 0.23601 0.07645 0.77456 0.0
C298 C 0.08006 0.19902 0.77071 0.0
C299 C 0.07297 0.16771 0.78037 0.0
C300 C 0.06287 0.21756 0.76146 0.0
C301 C 0.00152 0.20271 0.74511 0.0
H302 H 0.0029 0.32159 0.74076 0.0
C303 C 0.92218 0.29242 0.7184 0.0
C304 C 0.92817 0.3246 0.70883 0.0
C305 C 0.94028 0.27335 0.72683 0.0
C306 C 0.00245 0.28833 0.74172 0.0
H307 H 0.04245 0.13088 0.78783 0.0
H308 H 0.01239 0.16344 0.77176 0.0
H309 H 0.03378 0.28754 0.75583 0.0
H310 H 0.95777 0.36227 0.70063 0.0
H311 H 0.98951 0.32876 0.71533 0.0
H312 H 0.97011 0.20351 0.73106 0.0
C313 C 0.03126 0.17338 0.77121 0.0
C314 C 0.02014 0.26881 0.75035 0.0
C315 C 0.04845 0.15486 0.78046 0.0
C316 C 0.95262 0.3376 0.70795 0.0
C317 C 0.97076 0.31853 0.7164 0.0
C318 C 0.98383 0.22223 0.73648 0.0
C319 C 0.03824 0.20517 0.76168 0.0
C320 C 0.01981 0.22579 0.7522 0.0
C321 C 0.9648 0.28603 0.72588 0.0
C322 C 0.984 0.26528 0.73475 0.0
H323 H 0.09885 0.2095 0.77037 0.0
H324 H 0.06891 0.24154 0.75411 0.0
H325 H 0.00099 0.16947 0.74612 0.0
H326 H 0.90348 0.2818 0.71936 0.0
H327 H 0.93502 0.24887 0.73419 0.0
C328 C 0.79617 0.8363 0.53301 0.0
C329 C 0.82111 0.82667 0.53179 0.0
C330 C 0.77889 0.8171 0.52401 0.0
C331 C 0.772 0.75979 0.48944 0.0
H332 H 0.7111 0.72343 0.5066 0.0
C333 C 0.70127 0.66072 0.45786 0.0
C334 C 0.67661 0.67184 0.45947 0.0
C335 C 0.71932 0.67859 0.46671 0.0
C336 C 0.72792 0.73373 0.50161 0.0
H337 H 0.84758 0.78976 0.5201 0.0
H338 H 0.81736 0.75599 0.50445 0.0
H339 H 0.74178 0.75729 0.52181 0.0
H340 H 0.65147 0.7102 0.47161 0.0
H341 H 0.6829 0.74151 0.48695 0.0
H342 H 0.75805 0.73627 0.46922 0.0
C343 C 0.81118 0.77867 0.51226 0.0
C344 C 0.74549 0.75318 0.51032 0.0
C345 C 0.82847 0.79787 0.52126 0.0
C346 C 0.67032 0.70091 0.47014 0.0
C347 C 0.68832 0.71868 0.47899 0.0
C348 C 0.75441 0.7403 0.48071 0.0
C349 C 0.78617 0.78784 0.5136 0.0
C350 C 0.76768 0.76666 0.50433 0.0
C351 C 0.71303 0.70781 0.47736 0.0
C352 C 0.7321 0.72728 0.48669 0.0
H353 H 0.78996 0.85847 0.54099 0.0
H354 H 0.7598 0.82532 0.52517 0.0
H355 H 0.78879 0.77022 0.48445 0.0
H356 H 0.70665 0.63835 0.44973 0.0
H357 H 0.73817 0.66925 0.46529 0.0
C358 C 0.67211 0.03895 0.2745 0.0
C359 C 0.67804 0.07195 0.28378 0.0
C360 C 0.6899 0.02127 0.26564 0.0
C361 C 0.75659 0.00947 0.26188 0.0
H362 H 0.73992 0.97895 0.22217 0.0
C363 C 0.82878 0.95487 0.22045 0.0
C364 C 0.82225 0.9222 0.21116 0.0
C365 C 0.81138 0.97308 0.22947 0.0
C366 C 0.74479 0.98684 0.23329 0.0
H367 H 0.7072 0.11247 0.29103 0.0
H368 H 0.73833 0.08174 0.27543 0.0
H369 H 0.70928 0.01164 0.23746 0.0
H370 H 0.79249 0.88258 0.20416 0.0
H371 H 0.76212 0.91408 0.22003 0.0
H372 H 0.79211 0.9846 0.2577 0.0
C373 C 0.71996 0.06926 0.27513 0.0
C374 C 0.72724 0.00563 0.24204 0.0
C375 C 0.70212 0.08701 0.284 0.0
C376 C 0.79804 0.90779 0.21118 0.0
C377 C 0.78062 0.92601 0.2202 0.0
C378 C 0.77416 0.99066 0.25312 0.0
C379 C 0.71403 0.03618 0.26585 0.0
C380 C 0.7329 0.01704 0.25646 0.0
C381 C 0.78707 0.95902 0.22939 0.0
C382 C 0.76843 0.97902 0.23873 0.0
H383 H 0.65372 0.02658 0.27412 0.0
H384 H 0.68481 0.99547 0.25877 0.0
H385 H 0.76143 0.01736 0.27301 0.0
H386 H 0.8473 0.96673 0.22064 0.0
H387 H 0.81688 -0.00126 0.2363 0.0
C388 C 0.91839 0.79086 0.22055 0.0
C389 C 0.92508 0.82273 0.21101 0.0
C390 C 0.93586 0.77227 0.22959 0.0
C391 C 0.00215 0.75456 0.23284 0.0
H392 H 0.98758 0.72948 0.27318 0.0
C393 C 0.07651 0.70188 0.2735 0.0
C394 C 0.07046 0.67085 0.28351 0.0
C395 C 0.05852 0.71963 0.26465 0.0
C396 C 0.99183 0.73579 0.26189 0.0
H397 H 0.95521 0.86048 0.20356 0.0
H398 H 0.98574 0.82812 0.21938 0.0
H399 H 0.95662 0.76259 0.25787 0.0
H400 H 0.04085 0.63386 0.29208 0.0
H401 H 0.00935 0.66459 0.27647 0.0
H402 H 0.0373 0.72771 0.2368 0.0
C403 C 0.96703 0.81722 0.21977 0.0
C404 C 0.9741 0.75482 0.25313 0.0
C405 C 0.94953 0.83592 0.21078 0.0
C406 C 0.04604 0.65778 0.28447 0.0
C407 C 0.02799 0.67555 0.27559 0.0
C408 C 0.01984 0.73546 0.24157 0.0
C409 C 0.96041 0.78506 0.22922 0.0
C410 C 0.97912 0.76459 0.23853 0.0
C411 C 0.03403 0.70673 0.26559 0.0
C412 C 0.01494 0.72603 0.25622 0.0
H413 H 0.89967 0.78002 0.22096 0.0
H414 H 0.93024 0.74732 0.23665 0.0
H415 H 0.00642 0.76102 0.22156 0.0
H416 H 0.09517 0.71272 0.27256 0.0
H417 H 0.06374 0.74399 0.25723 0.0
C418 C 0.32753 0.79328 0.02194 0.0
C419 C 0.32052 0.82253 0.03239 0.0
C420 C 0.30997 0.77394 0.01317 0.0
C421 C 0.24411 0.74924 0.01168 0.0
H422 H 0.25638 0.7306 0.97063 0.0
C423 C 0.16905 0.6949 0.97148 0.0
C424 C 0.17564 0.6657 0.96092 0.0
C425 C 0.18683 0.71285 0.98046 0.0
C426 C 0.25281 0.73512 0.98212 0.0
H427 H 0.2897 0.85492 0.04174 0.0
H428 H 0.25905 0.82152 0.02631 0.0
H429 H 0.28722 0.7651 0.98559 0.0
H430 H 0.20594 0.63186 0.95161 0.0
H431 H 0.23701 0.66301 0.96737 0.0
H432 H 0.20964 0.71942 0.00818 0.0
C433 C 0.27808 0.81307 0.02503 0.0
C434 C 0.27047 0.75492 0.99069 0.0
C435 C 0.29564 0.83241 0.0338 0.0
C436 C 0.20032 0.65434 0.95964 0.0
C437 C 0.21813 0.67238 0.96859 0.0
C438 C 0.22644 0.72947 0.00311 0.0
C439 C 0.28502 0.78345 0.01467 0.0
C440 C 0.26629 0.76229 0.00556 0.0
C441 C 0.2116 0.70204 0.97903 0.0
C442 C 0.23057 0.72226 0.98822 0.0
H443 H 0.34657 0.78495 0.02065 0.0
H444 H 0.3159 0.75094 0.00541 0.0
H445 H 0.2405 0.75382 0.02315 0.0
H446 H 0.15017 0.70432 0.97269 0.0
H447 H 0.18124 0.73592 0.98828 0.0
C448 C 0.07687 0.5335 0.96765 0.0
C449 C 0.07126 0.56888 0.95946 0.0
C450 C 0.05921 0.51527 0.97648 0.0
C451 C 0.00067 0.53666 0.99489 0.0
H452 H 0.99529 0.41752 0.99604 0.0
C453 C 0.92034 0.4544 0.02294 0.0
C454 C 0.92609 0.42007 0.03164 0.0
C455 C 0.938 0.47203 0.01396 0.0
C456 C 0.99673 0.45081 0.99594 0.0
H457 H 0.04281 0.61298 0.9541 0.0
H458 H 0.01186 0.58093 0.9694 0.0
H459 H 0.02629 0.44966 0.98079 0.0
H460 H 0.95471 0.37694 0.03765 0.0
H461 H 0.98564 0.40783 0.02198 0.0
H462 H 0.97105 0.5378 0.00999 0.0
C463 C 0.03 0.56756 0.96915 0.0
C464 C 0.0145 0.46924 0.98722 0.0
C465 C 0.04769 0.58581 0.96033 0.0
C466 C 0.94975 0.40335 0.03104 0.0
C467 C 0.96742 0.42092 0.02202 0.0
C468 C 0.98287 0.51824 0.00358 0.0
C469 C 0.03554 0.53201 0.97731 0.0
C470 C 0.01667 0.51239 0.98659 0.0
C471 C 0.96178 0.45565 0.01346 0.0
C472 C 0.98069 0.47512 0.00419 0.0
H473 H 0.09493 0.51982 0.96722 0.0
H474 H 0.06418 0.48827 0.98278 0.0
H475 H 0.00211 0.56995 0.99484 0.0
H476 H 0.90223 0.46791 0.02314 0.0
H477 H 0.933 0.4984 0.00735 0.0
C478 C 0.32846 0.45091 0.22125 0.0
C479 C 0.3215 0.42253 0.21044 0.0
C480 C 0.3109 0.46882 0.23025 0.0
C481 C 0.24491 0.49165 0.23198 0.0
H482 H 0.25779 0.50569 0.2733 0.0
C483 C 0.17033 0.54313 0.27228 0.0
C484 C 0.17717 0.57155 0.2831 0.0
C485 C 0.18798 0.52514 0.26337 0.0
C486 C 0.25403 0.50241 0.26175 0.0
H487 H 0.29078 0.39026 0.20064 0.0
H488 H 0.26016 0.42125 0.21642 0.0
H489 H 0.28858 0.47349 0.25793 0.0
H490 H 0.2078 0.60367 0.29306 0.0
H491 H 0.23861 0.57255 0.27742 0.0
H492 H 0.21038 0.52059 0.23578 0.0
C493 C 0.27913 0.43008 0.21784 0.0
C494 C 0.27166 0.48395 0.25295 0.0
C495 C 0.29668 0.41214 0.20886 0.0
C496 C 0.20199 0.58178 0.28482 0.0
C497 C 0.21964 0.56377 0.27593 0.0
C498 C 0.22729 0.51012 0.24077 0.0
C499 C 0.28602 0.45875 0.2286 0.0
C500 C 0.26729 0.47833 0.23797 0.0
C501 C 0.21285 0.53516 0.26512 0.0
C502 C 0.23164 0.5157 0.25576 0.0
H503 H 0.34746 0.45958 0.22269 0.0
H504 H 0.31677 0.49114 0.23832 0.0
H505 H 0.24115 0.48838 0.22043 0.0
H506 H 0.15134 0.53456 0.27073 0.0
H507 H 0.18218 0.50285 0.25527 0.0
C508 C 0.70056 0.15723 0.95929 0.0
C509 C 0.67655 0.1726 0.95944 0.0
C510 C 0.71877 0.17542 0.96792 0.0
C511 C 0.73401 0.27229 0.98701 0.0
H512 H 0.78002 0.20423 0.00854 0.0
C513 C 0.79882 0.33895 0.03101 0.0
C514 C 0.82277 0.32339 0.03165 0.0
C515 C 0.78134 0.32077 0.02186 0.0
C516 C 0.76751 0.2237 0.00245 0.0
H517 H 0.6527 0.21878 0.96883 0.0
H518 H 0.68439 0.25027 0.98395 0.0
H519 H 0.7489 0.17173 0.99321 0.0
H520 H 0.84732 0.27697 0.0231 0.0
H521 H 0.81691 0.24557 0.007 0.0
H522 H 0.75257 0.32426 0.99624 0.0
C523 C 0.68926 0.22453 0.97704 0.0
C524 C 0.74967 0.20505 0.99368 0.0
C525 C 0.67107 0.20631 0.96844 0.0
C526 C 0.82897 0.28956 0.02287 0.0
C527 C 0.81151 0.2714 0.01372 0.0
C528 C 0.75186 0.29094 0.99576 0.0
C529 C 0.71333 0.2094 0.97684 0.0
C530 C 0.73265 0.22914 0.98592 0.0
C531 C 0.78746 0.28667 0.01315 0.0
C532 C 0.76876 0.26686 0.00363 0.0
H533 H 0.70532 0.13132 0.95242 0.0
H534 H 0.7372 0.16329 0.96744 0.0
H535 H 0.7214 0.29173 0.98098 0.0
H536 H 0.79349 0.36491 0.03769 0.0
H537 H 0.76291 0.33297 0.02182 0.0
C538 C 0.70278 0.58748 0.78522 0.0
C539 C 0.67864 0.57283 0.78442 0.0
C540 C 0.72101 0.56994 0.77658 0.0
C541 C 0.73536 0.47536 0.75586 0.0
H542 H 0.7832 0.5445 0.73669 0.0
C543 C 0.79881 0.41381 0.71097 0.0
C544 C 0.8233 0.42682 0.71123 0.0
C545 C 0.78174 0.43155 0.72032 0.0
C546 C 0.77014 0.52474 0.74211 0.0
H547 H 0.65456 0.5287 0.77386 0.0
H548 H 0.68622 0.49849 0.75871 0.0
H549 H 0.7523 0.57596 0.7522 0.0
H550 H 0.84919 0.46848 0.72152 0.0
H551 H 0.81936 0.49939 0.73792 0.0
H552 H 0.75306 0.42419 0.74569 0.0
C553 C 0.69122 0.52305 0.76615 0.0
C554 C 0.75245 0.54276 0.751 0.0
C555 C 0.67303 0.54055 0.77477 0.0
C556 C 0.83042 0.45786 0.72106 0.0
C557 C 0.81332 0.47572 0.73039 0.0
C558 C 0.75301 0.45737 0.74696 0.0
C559 C 0.71545 0.53739 0.767 0.0
C560 C 0.73475 0.51829 0.7579 0.0
C561 C 0.78878 0.46276 0.73011 0.0
C562 C 0.7705 0.48187 0.73991 0.0
H563 H 0.70764 0.61229 0.79259 0.0
H564 H 0.73955 0.58144 0.77759 0.0
H565 H 0.72228 0.45555 0.76123 0.0
H566 H 0.79277 0.39002 0.70348 0.0
H567 H 0.76291 0.42125 0.71971 0.0
C568 C 0.54631 0.08378 0.96035 0.0
C569 C 0.57097 0.07191 0.96114 0.0
C570 C 0.52897 0.06518 0.96931 0.0
C571 C 0.52247 0.0049 0.00324 0.0
H572 H 0.45917 0.97675 0.98669 0.0
C573 C 0.45075 0.90873 0.03449 0.0
C574 C 0.42642 0.9224 0.03353 0.0
C575 C 0.46873 0.92609 0.02563 0.0
C576 C 0.47668 0.98476 0.99151 0.0
H577 H 0.59691 0.03149 0.97199 0.0
H578 H 0.56659 -0.00132 0.98755 0.0
H579 H 0.48993 0.00918 0.97142 0.0
H580 H 0.40178 0.96485 0.02257 0.0
H581 H 0.43312 0.99525 0.0072 0.0
H582 H 0.50916 0.98042 0.02335 0.0
C583 C 0.56068 0.02271 0.98013 0.0
C584 C 0.4943 0.0034 0.98277 0.0
C585 C 0.57802 0.04135 0.97117 0.0
C586 C 0.42038 0.95358 0.02352 0.0
C587 C 0.4383 0.97084 0.01465 0.0
C588 C 0.50484 0.98619 0.012 0.0
C589 C 0.53592 0.03425 0.97925 0.0
C590 C 0.51735 0.01389 0.98854 0.0
C591 C 0.46269 0.95735 0.01562 0.0
C592 C 0.4817 0.97612 0.00624 0.0
H593 H 0.54035 0.10736 0.95275 0.0
H594 H 0.51012 0.07524 0.96852 0.0
H595 H 0.53994 0.01305 0.00807 0.0
H596 H 0.45593 0.88469 0.0421 0.0
H597 H 0.48731 0.91474 0.02652 0.0
C598 C 0.45241 0.33794 0.20811 0.0
C599 C 0.42818 0.32382 0.2089 0.0
C600 C 0.47075 0.31971 0.21664 0.0
C601 C 0.485 0.22399 0.23679 0.0
H602 H 0.53388 0.29121 0.25631 0.0
C603 C 0.54927 0.15927 0.28129 0.0
C604 C 0.57379 0.17212 0.28118 0.0
C605 C 0.5321 0.17752 0.27197 0.0
C606 C 0.52054 0.27198 0.25078 0.0
H607 H 0.40404 0.27995 0.21933 0.0
H608 H 0.43592 0.2485 0.23431 0.0
H609 H 0.50275 0.32405 0.24105 0.0
H610 H 0.59965 0.21389 0.27115 0.0
H611 H 0.56967 0.24564 0.2548 0.0
H612 H 0.50266 0.17196 0.24658 0.0
C613 C 0.44088 0.27319 0.22696 0.0
C614 C 0.50271 0.2908 0.24204 0.0
C615 C 0.42258 0.29141 0.21845 0.0
C616 C 0.58086 0.20339 0.27149 0.0
C617 C 0.56367 0.22173 0.26219 0.0
C618 C 0.5028 0.2052 0.24553 0.0
C619 C 0.4652 0.28696 0.2261 0.0
C620 C 0.48463 0.26702 0.23503 0.0
C621 C 0.53908 0.20908 0.26236 0.0
C622 C 0.52067 0.22899 0.2527 0.0
H623 H 0.45726 0.36283 0.20081 0.0
H624 H 0.48935 0.33077 0.21564 0.0
H625 H 0.47161 0.20472 0.23132 0.0
H626 H 0.54327 0.13531 0.28867 0.0
H627 H 0.51325 0.16742 0.27249 0.0
C628 C 0.45053 0.84062 0.71074 0.0
C629 C 0.42662 0.82481 0.71046 0.0
C630 C 0.46858 0.82208 0.71938 0.0
C631 C 0.48352 0.72393 0.73789 0.0
H632 H 0.53044 0.79076 0.75921 0.0
C633 C 0.54848 0.65678 0.78172 0.0
C634 C 0.57275 0.67099 0.78185 0.0
C635 C 0.53101 0.67516 0.77264 0.0
C636 C 0.51763 0.77168 0.75319 0.0
H637 H 0.40273 0.77765 0.71916 0.0
H638 H 0.4341 0.7457 0.73442 0.0
H639 H 0.49905 0.82414 0.74432 0.0
H640 H 0.59784 0.71524 0.77248 0.0
H641 H 0.5673 0.74732 0.75658 0.0
H642 H 0.502 0.67149 0.74687 0.0
C643 C 0.43905 0.77196 0.72778 0.0
C644 C 0.49966 0.79079 0.74465 0.0
C645 C 0.42103 0.79044 0.71912 0.0
C646 C 0.57926 0.70367 0.77262 0.0
C647 C 0.56175 0.7222 0.76359 0.0
C648 C 0.50145 0.70484 0.74646 0.0
C649 C 0.46308 0.78739 0.72795 0.0
C650 C 0.48234 0.76714 0.73694 0.0
C651 C 0.53741 0.70825 0.76355 0.0
C652 C 0.51866 0.7285 0.75422 0.0
H653 H 0.45539 0.86701 0.70414 0.0
H654 H 0.48697 0.83446 0.71914 0.0
H655 H 0.47075 0.70478 0.73187 0.0
H656 H 0.54292 0.63167 0.78874 0.0
H657 H 0.51235 0.66401 0.77296 0.0
C658 C 0.41924 0.4501 0.52135 0.0
C659 C 0.42563 0.41938 0.53146 0.0
C660 C 0.43695 0.46744 0.51233 0.0
C661 C 0.50333 0.48453 0.50995 0.0
H662 H 0.48905 0.50751 0.46929 0.0
C663 C 0.57718 0.5407 0.46989 0.0
C664 C 0.57034 0.57127 0.45982 0.0
C665 C 0.55963 0.52176 0.47862 0.0
C666 C 0.49323 0.50172 0.48067 0.0
H667 H 0.45548 0.38224 0.53994 0.0
H668 H 0.48642 0.41238 0.52412 0.0
H669 H 0.45818 0.47439 0.48435 0.0
H670 H 0.53984 0.60636 0.45109 0.0
H671 H 0.50921 0.5737 0.46645 0.0
H672 H 0.5383 0.51208 0.50631 0.0
C673 C 0.46776 0.42337 0.52327 0.0
C674 C 0.47555 0.48269 0.48928 0.0
C675 C 0.45002 0.40594 0.53226 0.0
C676 C 0.54564 0.58279 0.45873 0.0
C677 C 0.52808 0.56388 0.46746 0.0
C678 C 0.52099 0.50362 0.50134 0.0
C679 C 0.46144 0.4545 0.51327 0.0
C680 C 0.48039 0.47395 0.50403 0.0
C681 C 0.53485 0.53302 0.47746 0.0
C682 C 0.51613 0.51252 0.48661 0.0
H683 H 0.40058 0.46114 0.52051 0.0
H684 H 0.43155 0.49167 0.50485 0.0
H685 H 0.50747 0.47878 0.52133 0.0
H686 H 0.59609 0.53108 0.47094 0.0
H687 H 0.56541 0.49776 0.48609 0.0
C688 C 0.1511 0.75669 0.3331 0.0
C689 C 0.13519 0.72501 0.33739 0.0
C690 C 0.15309 0.79275 0.34135 0.0
C691 C 0.1423 0.83564 0.37787 0.0
H692 H 0.13794 0.94045 0.35767 0.0
C693 C 0.15246 0.99129 0.40779 0.0
C694 C 0.1344 0.02074 0.40452 0.0
C695 C 0.1547 0.95577 0.3993 0.0
C696 C 0.13918 0.91141 0.36345 0.0
H697 H 0.10929 0.70575 0.35381 0.0
H698 H 0.11289 0.76862 0.36829 0.0
H699 H 0.13788 0.87637 0.34368 0.0
H700 H 0.10493 0.03668 0.38962 0.0
H701 H 0.10891 0.97471 0.37474 0.0
H702 H 0.14316 0.87061 0.39765 0.0
C703 C 0.12386 0.76555 0.35857 0.0
C704 C 0.13937 0.87478 0.35544 0.0
C705 C 0.1217 0.72967 0.35025 0.0
C706 C 0.11902 0.01451 0.3924 0.0
C707 C 0.12138 0.97914 0.38384 0.0
C708 C 0.14233 0.87227 0.38586 0.0
C709 C 0.13938 0.79763 0.35413 0.0
C710 C 0.14064 0.83651 0.36258 0.0
C711 C 0.13905 0.94918 0.3873 0.0
C712 C 0.14049 0.91051 0.37874 0.0
H713 H 0.16173 0.75394 0.32323 0.0
H714 H 0.16536 0.81683 0.33774 0.0
H715 H 0.14349 0.80659 0.38364 0.0
H716 H 0.1646 0.99532 0.41707 0.0
H717 H 0.16864 0.93338 0.40213 0.0
C718 C 0.09424 0.23997 0.40126 0.0
C719 C 0.11711 0.22391 0.40544 0.0
C720 C 0.09278 0.27635 0.3931 0.0
C721 C 0.12703 0.37071 0.38553 0.0
H722 H 0.0875 0.37839 0.35038 0.0
C723 C 0.13841 0.50442 0.34523 0.0
C724 C 0.11765 0.51991 0.33799 0.0
C725 C 0.1368 0.46911 0.35384 0.0
C726 C 0.09831 0.37704 0.3603 0.0
H727 H 0.15635 0.23303 0.40428 0.0
H728 H 0.15377 0.29663 0.39021 0.0
H729 H 0.08724 0.31485 0.36468 0.0
H730 H 0.07884 0.5109 0.33421 0.0
H731 H 0.07586 0.4496 0.34958 0.0
H732 H 0.13798 0.43275 0.38136 0.0
C733 C 0.13699 0.28119 0.39325 0.0
C734 C 0.0982 0.34059 0.36845 0.0
C735 C 0.13846 0.24466 0.40122 0.0
C736 C 0.09517 0.49956 0.33964 0.0
C737 C 0.09351 0.46431 0.34837 0.0
C738 C 0.12696 0.40722 0.37749 0.0
C739 C 0.11417 0.29754 0.38918 0.0
C740 C 0.11289 0.33689 0.38101 0.0
C741 C 0.11434 0.44859 0.35555 0.0
C742 C 0.11294 0.41065 0.36463 0.0
H743 H 0.07749 0.22456 0.40436 0.0
H744 H 0.07496 0.28841 0.39013 0.0
H745 H 0.13819 0.36892 0.39532 0.0
H746 H 0.15604 0.51926 0.34408 0.0
H747 H 0.15334 0.4575 0.35895 0.0
C748 C 0.15331 0.24086 0.8402 0.0
C749 C 0.1303 0.22508 0.83617 0.0
C750 C 0.15508 0.27777 0.84803 0.0
C751 C 0.12207 0.37366 0.85477 0.0
H752 H 0.16038 0.38093 0.8904 0.0
C753 C 0.11084 0.50836 0.89473 0.0
C754 C 0.13133 0.52249 0.90256 0.0
C755 C 0.11247 0.4734 0.88594 0.0
C756 C 0.14996 0.37973 0.88033 0.0
H757 H 0.09115 0.23533 0.83717 0.0
H758 H 0.09429 0.29997 0.85063 0.0
H759 H 0.16025 0.31694 0.87639 0.0
H760 H 0.16977 0.51178 0.90708 0.0
H761 H 0.17284 0.45125 0.89137 0.0
H762 H 0.11192 0.43632 0.8585 0.0
C763 C 0.11092 0.28382 0.84776 0.0
C764 C 0.14983 0.34301 0.87236 0.0
C765 C 0.10913 0.24672 0.84014 0.0
C766 C 0.15365 0.50146 0.9012 0.0
C767 C 0.15535 0.46662 0.89228 0.0
C768 C 0.12242 0.41049 0.86262 0.0
C769 C 0.13389 0.29979 0.85172 0.0
C770 C 0.13553 0.33945 0.85965 0.0
C771 C 0.1347 0.45194 0.88463 0.0
C772 C 0.136 0.41379 0.87566 0.0
H773 H 0.16992 0.22476 0.83728 0.0
H774 H 0.17301 0.28952 0.85093 0.0
H775 H 0.11121 0.3719 0.84486 0.0
H776 H 0.09335 0.52378 0.89564 0.0
H777 H 0.09607 0.46265 0.88045 0.0
C778 C 0.13648 0.74832 0.90246 0.0
C779 C 0.11549 0.72585 0.90621 0.0
C780 C 0.1344 0.78548 0.89491 0.0
C781 C 0.09542 0.84354 0.87003 0.0
H782 H 0.13226 0.93775 0.88413 0.0
C783 C 0.09188 0.00155 0.84074 0.0
C784 C 0.11422 0.0226 0.83956 0.0
C785 C 0.08994 0.9669 0.84975 0.0
C786 C 0.12204 0.91168 0.87994 0.0
H787 H 0.07591 0.72418 0.90479 0.0
H788 H 0.07233 0.78907 0.89124 0.0
H789 H 0.13305 0.87349 0.89785 0.0
H790 H 0.15199 0.02413 0.8469 0.0
H791 H 0.14885 0.96341 0.86224 0.0
H792 H 0.08511 0.88108 0.85182 0.0
C793 C 0.09033 0.7779 0.89427 0.0
C794 C 0.12244 0.87494 0.88785 0.0
C795 C 0.09238 0.74092 0.90204 0.0
C796 C 0.13448 0.0087 0.84766 0.0
C797 C 0.13261 0.97398 0.85654 0.0
C798 C 0.09524 0.8802 0.862 0.0
C799 C 0.11133 0.80071 0.89078 0.0
C800 C 0.10941 0.84037 0.88287 0.0
C801 C 0.11035 0.95249 0.85768 0.0
C802 C 0.10886 0.91455 0.86675 0.0
H803 H 0.15453 0.7375 0.90555 0.0
H804 H 0.1509 0.80223 0.8922 0.0
H805 H 0.08533 0.81721 0.86592 0.0
H806 H 0.07594 0.01169 0.83465 0.0
H807 H 0.07244 0.95147 0.8505 0.0
C808 C 0.87658 0.26853 0.64281 0.0
C809 C 0.86215 0.27436 0.65524 0.0
C810 C 0.87415 0.2328 0.63443 0.0
C811 C 0.85528 0.12491 0.63709 0.0
H812 H 0.85569 0.12888 0.59484 0.0
C813 C 0.87519 0.98326 0.60092 0.0
C814 C 0.86083 0.97813 0.5883 0.0
C815 C 0.873 0.01885 0.60938 0.0
C816 C 0.85533 0.12729 0.60663 0.0
H817 H 0.83361 0.24771 0.66854 0.0
H818 H 0.82946 0.18507 0.65393 0.0
H819 H 0.85583 0.19302 0.60878 0.0
H820 H 0.83261 0.00579 0.57475 0.0
H821 H 0.82889 0.06814 0.58951 0.0
H822 H 0.85506 0.05916 0.63493 0.0
C823 C 0.8427 0.20811 0.65071 0.0
C824 C 0.85564 0.16398 0.6146 0.0
C825 C 0.84499 0.24403 0.65902 0.0
C826 C 0.84394 0.00893 0.58443 0.0
C827 C 0.84189 0.04469 0.59282 0.0
C828 C 0.8552 0.08821 0.62911 0.0
C829 C 0.85737 0.20201 0.63838 0.0
C830 C 0.85579 0.16316 0.62991 0.0
C831 C 0.85655 0.05017 0.60532 0.0
C832 C 0.85539 0.08902 0.6138 0.0
H833 H 0.88998 0.29137 0.63964 0.0
H834 H 0.88587 0.22877 0.62508 0.0
H835 H 0.85559 0.12332 0.64888 0.0
H836 H 0.88837 0.96003 0.60417 0.0
H837 H 0.8847 0.02238 0.61888 0.0
C838 C 0.90252 0.49727 0.65247 0.0
C839 C 0.87994 0.47773 0.65476 0.0
C840 C 0.90395 0.53235 0.64364 0.0
C841 C 0.8691 0.59041 0.61534 0.0
H842 H 0.91075 0.6815 0.62708 0.0
C843 C 0.85776 0.75331 0.59183 0.0
C844 C 0.87901 0.77368 0.58724 0.0
C845 C 0.85938 0.71663 0.59971 0.0
C846 C 0.89924 0.65611 0.6236 0.0
H847 H 0.84118 0.47961 0.64967 0.0
H848 H 0.84352 0.54108 0.63461 0.0
H849 H 0.9108 0.61801 0.64141 0.0
H850 H 0.91865 0.77209 0.58751 0.0
H851 H 0.92148 0.70796 0.60155 0.0
H852 H 0.85705 0.62902 0.59779 0.0
C853 C 0.86026 0.52897 0.63931 0.0
C854 C 0.8993 0.61969 0.63177 0.0
C855 C 0.85887 0.49383 0.64803 0.0
C856 C 0.90196 0.75701 0.59091 0.0
C857 C 0.90359 0.72045 0.59897 0.0
C858 C 0.86888 0.6269 0.60729 0.0
C859 C 0.88281 0.54871 0.63698 0.0
C860 C 0.88399 0.58656 0.62784 0.0
C861 C 0.88228 0.69969 0.60329 0.0
C862 C 0.88371 0.66028 0.61143 0.0
H863 H 0.91908 0.48545 0.65749 0.0
H864 H 0.92166 0.54644 0.64195 0.0
H865 H 0.85752 0.56524 0.61178 0.0
H866 H 0.8398 0.7654 0.58917 0.0
H867 H 0.84266 0.70155 0.60307 0.0
C868 C 0.88836 0.49752 0.09183 0.0
C869 C 0.86715 0.47728 0.08691 0.0
C870 C 0.88667 0.53437 0.0996 0.0
C871 C 0.84684 0.59536 0.12284 0.0
H872 H 0.88793 0.68649 0.11085 0.0
C873 C 0.8436 0.75426 0.15159 0.0
C874 C 0.86615 0.7741 0.15383 0.0
C875 C 0.84204 0.71927 0.14271 0.0
C876 C 0.87653 0.66126 0.11447 0.0
H877 H 0.82752 0.47918 0.08652 0.0
H878 H 0.82457 0.5435 0.10041 0.0
H879 H 0.88856 0.62228 0.09712 0.0
H880 H 0.90473 0.77293 0.14857 0.0
H881 H 0.90221 0.71159 0.13348 0.0
H882 H 0.83538 0.63372 0.14049 0.0
C883 C 0.84247 0.53084 0.09814 0.0
C884 C 0.87684 0.62454 0.10655 0.0
C885 C 0.84417 0.49417 0.09017 0.0
C886 C 0.88705 0.75849 0.14697 0.0
C887 C 0.88555 0.72341 0.13822 0.0
C888 C 0.84673 0.63199 0.13089 0.0
C889 C 0.86373 0.55151 0.10277 0.0
C890 C 0.86223 0.59109 0.11075 0.0
C891 C 0.86305 0.70326 0.13598 0.0
C892 C 0.86182 0.66524 0.12691 0.0
H893 H 0.90633 0.48526 0.08948 0.0
H894 H 0.90334 0.54943 0.10319 0.0
H895 H 0.8355 0.56991 0.12635 0.0
H896 H 0.82716 0.76571 0.15672 0.0
H897 H 0.82436 0.70489 0.14108 0.0
C898 C 0.85954 0.99698 0.15073 0.0
C899 C 0.88074 0.97743 0.156 0.0
C900 C 0.86118 0.03393 0.14302 0.0
C901 C 0.90138 0.09646 0.12053 0.0
H902 H 0.85873 0.18612 0.13195 0.0
C903 C 0.90412 0.2556 0.09197 0.0
C904 C 0.88144 0.27464 0.08934 0.0
C905 C 0.90567 0.22066 0.10088 0.0
C906 C 0.87058 0.1613 0.12849 0.0
H907 H 0.92032 0.98063 0.15708 0.0
H908 H 0.92319 0.04514 0.14328 0.0
H909 H 0.8582 0.12176 0.14559 0.0
H910 H 0.84264 0.27217 0.09395 0.0
H911 H 0.84518 0.21091 0.1091 0.0
H912 H 0.9132 0.13535 0.10312 0.0
C913 C 0.90534 0.03186 0.14523 0.0
C914 C 0.87032 0.1245 0.13636 0.0
C915 C 0.90368 0.99509 0.15314 0.0
C916 C 0.86041 0.25833 0.09586 0.0
C917 C 0.86192 0.22331 0.10464 0.0
C918 C 0.90145 0.13316 0.11253 0.0
C919 C 0.88406 0.05186 0.14026 0.0
C920 C 0.88549 0.09156 0.13235 0.0
C921 C 0.88455 0.20392 0.10725 0.0
C922 C 0.8858 0.16588 0.1163 0.0
H923 H 0.84161 0.98412 0.15277 0.0
H924 H 0.84451 0.04848 0.13916 0.0
H925 H 0.91316 0.0714 0.11718 0.0
H926 H 0.92065 0.2676 0.08711 0.0
H927 H 0.92344 0.20689 0.1028 0.0
C928 C 0.65178 0.74227 0.84139 0.0
C929 C 0.62906 0.72462 0.83777 0.0
C930 C 0.6529 0.7787 0.84953 0.0
C931 C 0.61689 0.87052 0.85818 0.0
H932 H 0.65962 0.88109 0.89189 0.0
C933 C 0.60695 0.00423 0.89871 0.0
C934 C 0.62811 0.02094 0.90513 0.0
C935 C 0.60832 0.96891 0.89008 0.0
C936 C 0.64788 0.87895 0.88236 0.0
H937 H 0.58976 0.73097 0.8399 0.0
H938 H 0.59175 0.79467 0.85396 0.0
H939 H 0.65993 0.81751 0.87763 0.0
H940 H 0.66738 0.01415 0.90743 0.0
H941 H 0.66991 0.95286 0.89205 0.0
H942 H 0.60496 0.93185 0.8627 0.0
C943 C 0.60866 0.78044 0.85049 0.0
C944 C 0.64802 0.84246 0.87424 0.0
C945 C 0.60754 0.74385 0.84252 0.0
C946 C 0.65075 0.00185 0.90264 0.0
C947 C 0.65216 0.9666 0.8939 0.0
C948 C 0.61691 0.90708 0.86619 0.0
C949 C 0.63133 0.79836 0.85401 0.0
C950 C 0.63226 0.83771 0.8622 0.0
C951 C 0.63093 0.9496 0.88756 0.0
C952 C 0.63213 0.91157 0.87852 0.0
H953 H 0.66866 0.72807 0.83787 0.0
H954 H 0.67061 0.79198 0.85205 0.0
H955 H 0.60487 0.86794 0.84878 0.0
H956 H 0.58921 0.0181 0.90051 0.0
H957 H 0.59152 0.95631 0.88562 0.0
C958 C 0.59438 0.25526 0.90926 0.0
C959 C 0.61115 0.22437 0.90544 0.0
C960 C 0.59237 0.29114 0.9009 0.0
C961 C 0.60538 0.33452 0.86468 0.0
H962 H 0.60629 0.43947 0.88492 0.0
C963 C 0.59523 0.48977 0.83444 0.0
C964 C 0.61243 0.52013 0.83828 0.0
C965 C 0.5929 0.45407 0.84284 0.0
C966 C 0.60602 0.41039 0.87913 0.0
H967 H 0.63855 0.20627 0.88973 0.0
H968 H 0.63494 0.26881 0.87509 0.0
H969 H 0.6062 0.37542 0.89892 0.0
H970 H 0.64026 0.53748 0.85407 0.0
H971 H 0.63612 0.4752 0.86878 0.0
H972 H 0.60566 0.36947 0.84489 0.0
C973 C 0.62331 0.26527 0.88451 0.0
C974 C 0.60575 0.37376 0.88714 0.0
C975 C 0.62546 0.22957 0.89293 0.0
C976 C 0.62685 0.51459 0.85085 0.0
C977 C 0.62439 0.47905 0.85932 0.0
C978 C 0.60545 0.37115 0.85668 0.0
C979 C 0.60694 0.29662 0.8885 0.0
C980 C 0.60571 0.33545 0.87999 0.0
C981 C 0.60759 0.44821 0.8553 0.0
C982 C 0.60605 0.40946 0.86382 0.0
H983 H 0.5831 0.25207 0.91885 0.0
H984 H 0.57944 0.31464 0.90415 0.0
H985 H 0.60516 0.30544 0.85889 0.0
H986 H 0.58384 0.49324 0.82481 0.0
H987 H 0.57963 0.431 0.83957 0.0
C988 C 0.60838 0.2445 0.34225 0.0
C989 C 0.62986 0.22504 0.33754 0.0
C990 C 0.60959 0.28097 0.35027 0.0
C991 C 0.64877 0.34232 0.37427 0.0
H992 H 0.60657 0.43244 0.36233 0.0
C993 C 0.65144 0.50158 0.40281 0.0
C994 C 0.62885 0.52117 0.40495 0.0
C995 C 0.65295 0.46626 0.39411 0.0
C996 C 0.61827 0.40746 0.36594 0.0
H997 H 0.66947 0.22792 0.33779 0.0
H998 H 0.67159 0.29167 0.35208 0.0
H999 H 0.60648 0.36857 0.3484 0.0
H1000 H 0.59011 0.51908 0.3998 0.0
H1001 H 0.59256 0.45713 0.38501 0.0
H1002 H 0.66007 0.38069 0.39206 0.0
C1003 C 0.65384 0.27865 0.34947 0.0
C1004 C 0.61826 0.37094 0.35791 0.0
C1005 C 0.65263 0.24232 0.34127 0.0
C1006 C 0.60782 0.50484 0.39826 0.0
C1007 C 0.60927 0.46942 0.38969 0.0
C1008 C 0.64859 0.37877 0.38241 0.0
C1009 C 0.63231 0.29855 0.35388 0.0
C1010 C 0.63332 0.33787 0.36208 0.0
C1011 C 0.63185 0.44967 0.38747 0.0
C1012 C 0.63313 0.41165 0.37843 0.0
H1013 H 0.59057 0.2319 0.33954 0.0
H1014 H 0.59272 0.29541 0.35369 0.0
H1015 H 0.66044 0.31716 0.37776 0.0
H1016 H 0.66796 0.51359 0.40782 0.0
H1017 H 0.67068 0.45218 0.39251 0.0
C1018 C 0.62513 0.73075 0.39267 0.0
C1019 C 0.61151 0.72603 0.40548 0.0
C1020 C 0.62293 0.76654 0.3843 0.0
C1021 C 0.6069 0.87562 0.38726 0.0
H1022 H 0.60421 0.87123 0.34504 0.0
C1023 C 0.62775 0.01547 0.35049 0.0
C1024 C 0.61271 0.02154 0.3382 0.0
C1025 C 0.62527 0.98007 0.35902 0.0
C1026 C 0.60472 0.87295 0.35683 0.0
H1027 H 0.58465 0.75472 0.41948 0.0
H1028 H 0.58093 0.81746 0.40487 0.0
H1029 H 0.60373 0.80727 0.35907 0.0
H1030 H 0.58302 0.99577 0.32532 0.0
H1031 H 0.57877 0.93376 0.34021 0.0
H1032 H 0.60815 0.94129 0.38501 0.0
C1033 C 0.59335 0.7935 0.40135 0.0
C1034 C 0.60467 0.83635 0.36485 0.0
C1035 C 0.59539 0.75754 0.40966 0.0
C1036 C 0.59489 0.99188 0.33473 0.0
C1037 C 0.59254 0.95631 0.3432 0.0
C1038 C 0.60715 0.91221 0.37924 0.0
C1039 C 0.60722 0.79846 0.38863 0.0
C1040 C 0.60595 0.8373 0.38014 0.0
C1041 C 0.60783 0.9499 0.35537 0.0
C1042 C 0.60625 0.91124 0.36393 0.0
H1043 H 0.6377 0.70697 0.38919 0.0
H1044 H 0.63403 0.76967 0.37464 0.0
H1045 H 0.60809 0.87728 0.39904 0.0
H1046 H 0.64166 0.03781 0.35342 0.0
H1047 H 0.63748 0.97578 0.36825 0.0
C1048 C 0.37694 0.26578 0.1426 0.0
C1049 C 0.36259 0.27113 0.15508 0.0
C1050 C 0.37464 0.23017 0.13415 0.0
C1051 C 0.35611 0.12201 0.13662 0.0
H1052 H 0.35664 0.12662 0.09439 0.0
C1053 C 0.37596 0.98066 0.10042 0.0
C1054 C 0.36172 0.97568 0.08774 0.0
C1055 C 0.37383 0.01628 0.10886 0.0
C1056 C 0.35625 0.12485 0.10617 0.0
H1057 H 0.3343 0.24379 0.16841 0.0
H1058 H 0.33034 0.18143 0.15365 0.0
H1059 H 0.35664 0.19054 0.10844 0.0
H1060 H 0.33378 0.00366 0.07407 0.0
H1061 H 0.33012 0.06603 0.08882 0.0
H1062 H 0.35591 0.05632 0.13435 0.0
C1063 C 0.34345 0.20471 0.15045 0.0
C1064 C 0.35647 0.16142 0.11421 0.0
C1065 C 0.34563 0.24047 0.15885 0.0
C1066 C 0.34502 0.00669 0.08378 0.0
C1067 C 0.34301 0.04247 0.09217 0.0
C1068 C 0.35606 0.08544 0.12859 0.0
C1069 C 0.35805 0.19908 0.13807 0.0
C1070 C 0.35658 0.16037 0.12952 0.0
C1071 C 0.35752 0.04775 0.10474 0.0
C1072 C 0.35631 0.08649 0.11328 0.0
H1073 H 0.39018 0.2889 0.13944 0.0
H1074 H 0.38631 0.2265 0.12475 0.0
H1075 H 0.35639 0.12023 0.14841 0.0
H1076 H 0.389 0.95726 0.10373 0.0
H1077 H 0.38543 0.01966 0.11841 0.0
C1078 C 0.35863 0.49156 0.14825 0.0
C1079 C 0.37972 0.47507 0.15483 0.0
C1080 C 0.36009 0.5267 0.13954 0.0
C1081 C 0.39958 0.61665 0.13173 0.0
H1082 H 0.35672 0.62662 0.09804 0.0
C1083 C 0.40222 0.75331 0.09058 0.0
C1084 C 0.37929 0.77058 0.08722 0.0
C1085 C 0.40381 0.71684 0.09868 0.0
C1086 C 0.36872 0.6243 0.10745 0.0
H1087 H 0.41894 0.48208 0.15735 0.0
H1088 H 0.42164 0.54307 0.14181 0.0
H1089 H 0.3571 0.56285 0.11203 0.0
H1090 H 0.34011 0.76353 0.08976 0.0
H1091 H 0.34289 0.69976 0.10372 0.0
H1092 H 0.41131 0.67824 0.12693 0.0
C1093 C 0.40388 0.52929 0.14361 0.0
C1094 C 0.3689 0.58784 0.11551 0.0
C1095 C 0.40237 0.49422 0.15244 0.0
C1096 C 0.35803 0.75095 0.09218 0.0
C1097 C 0.35961 0.71433 0.10009 0.0
C1098 C 0.39958 0.65304 0.12355 0.0
C1099 C 0.38272 0.54602 0.13708 0.0
C1100 C 0.38399 0.58379 0.12791 0.0
C1101 C 0.38248 0.69678 0.10335 0.0
C1102 C 0.38384 0.65742 0.11149 0.0
H1103 H 0.34088 0.47764 0.14998 0.0
H1104 H 0.34335 0.53913 0.13495 0.0
H1105 H 0.41124 0.61481 0.1413 0.0
H1106 H 0.4189 0.76784 0.0869 0.0
H1107 H 0.42166 0.70384 0.10102 0.0
C1108 C 0.38822 0.75866 0.64768 0.0
C1109 C 0.36699 0.77534 0.65386 0.0
C1110 C 0.38704 0.72247 0.6395 0.0
C1111 C 0.34676 0.65663 0.61781 0.0
H1112 H 0.39346 0.57104 0.62779 0.0
C1113 C 0.34508 0.496 0.59019 0.0
C1114 C 0.36784 0.47811 0.58709 0.0
C1115 C 0.34373 0.5317 0.5987 0.0
C1116 C 0.38049 0.59475 0.62471 0.0
H1117 H 0.32776 0.76803 0.65596 0.0
H1118 H 0.32567 0.7048 0.64139 0.0
H1119 H 0.3935 0.63536 0.64143 0.0
H1120 H 0.40702 0.48369 0.59026 0.0
H1121 H 0.40481 0.54635 0.60467 0.0
H1122 H 0.33417 0.61657 0.60081 0.0
C1123 C 0.3432 0.71976 0.64298 0.0
C1124 C 0.38047 0.63153 0.63257 0.0
C1125 C 0.34441 0.75579 0.65133 0.0
C1126 C 0.3892 0.49658 0.59259 0.0
C1127 C 0.38789 0.53241 0.60094 0.0
C1128 C 0.34695 0.61994 0.6098 0.0
C1129 C 0.36458 0.70243 0.6372 0.0
C1130 C 0.36377 0.66296 0.62912 0.0
C1131 C 0.36515 0.55041 0.60416 0.0
C1132 C 0.364 0.58869 0.61307 0.0
H1133 H 0.40588 0.77306 0.64942 0.0
H1134 H 0.40376 0.71001 0.63501 0.0
H1135 H 0.33377 0.68051 0.61489 0.0
H1136 H 0.32831 0.4823 0.58612 0.0
H1137 H 0.3259 0.54438 0.60111 0.0
C1138 C 0.36035 0.26131 0.59685 0.0
C1139 C 0.38103 0.27571 0.58945 0.0
C1140 C 0.36185 0.22638 0.60568 0.0
C1141 C 0.39962 0.13331 0.61216 0.0
H1142 H 0.35999 0.12543 0.64693 0.0
C1143 C 0.40311 0.99554 0.65274 0.0
C1144 C 0.38016 0.9793 0.65645 0.0
C1145 C 0.40472 0.03228 0.64482 0.0
C1146 C 0.37109 0.1272 0.63722 0.0
H1147 H 0.41964 0.26549 0.58571 0.0
H1148 H 0.42248 0.205 0.60148 0.0
H1149 H 0.36065 0.18961 0.63315 0.0
H1150 H 0.34095 0.98855 0.6548 0.0
H1151 H 0.34381 0.05294 0.64118 0.0
H1152 H 0.4102 0.0708 0.61645 0.0
C1153 C 0.40494 0.22014 0.60021 0.0
C1154 C 0.37142 0.16388 0.62928 0.0
C1155 C 0.40338 0.25494 0.59125 0.0
C1156 C 0.35889 0.00031 0.65207 0.0
C1157 C 0.36051 0.03727 0.64437 0.0
C1158 C 0.3995 0.09674 0.62022 0.0
C1159 C 0.38413 0.20523 0.60745 0.0
C1160 C 0.38534 0.16721 0.6165 0.0
C1161 C 0.38342 0.05368 0.64071 0.0
C1162 C 0.38491 0.09316 0.63268 0.0
H1163 H 0.34283 0.27653 0.59559 0.0
H1164 H 0.34533 0.21544 0.61084 0.0
H1165 H 0.41031 0.13452 0.60229 0.0
H1166 H 0.41979 0.97993 0.65597 0.0
H1167 H 0.4226 0.0444 0.64216 0.0
loop_
_geom_bond_atom_site_label_1
_geom_bond_atom_site_label_2
_geom_bond_distance
_geom_bond_site_symmetry_2
_ccdc_geom_bond_type
In0 O1 2.294 . S
In0 O2 2.326 . S
In0 O6 2.266 . S
In0 O7 2.326 . S
In0 O8 2.266 . S
In0 O9 2.326 . S
In0 O11 2.294 . S
In0 O12 2.326 . S
O1 In0 2.294 . S
O1 C10 1.240 . S
O2 In0 2.326 . S
O2 C10 1.252 . S
C3 O6 1.252 . S
C3 O7 1.260 . S
C4 O11 1.240 . S
C4 O12 1.252 . S
C5 O8 1.252 . S
C5 O9 1.260 . S
O6 In0 2.266 . S
O6 C3 1.252 . S
O7 In0 2.326 . S
O7 C3 1.260 . S
O8 In0 2.266 . S
O8 C5 1.252 . S
O9 In0 2.326 . S
O9 C5 1.260 . S
C10 O1 1.240 . S
C10 O2 1.252 . S
O11 In0 2.294 . S
O11 C4 1.240 . S
O12 In0 2.326 . S
O12 C4 1.252 . S
In13 O14 2.294 . S
In13 O15 2.326 . S
In13 O19 2.266 . S
In13 O20 2.326 . S
In13 O21 2.266 . S
In13 O22 2.326 . S
In13 O24 2.294 . S
In13 O25 2.326 . S
O14 In13 2.294 . S
O14 C23 1.240 . S
O15 In13 2.326 . S
O15 C23 1.252 . S
C16 O19 1.252 . S
C16 O20 1.260 . S
C17 O24 1.240 . S
C17 O25 1.252 . S
C18 O21 1.252 . S
C18 O22 1.260 . S
O19 In13 2.266 . S
O19 C16 1.252 . S
O20 In13 2.326 . S
O20 C16 1.260 . S
O21 In13 2.266 . S
O21 C18 1.252 . S
O22 In13 2.326 . S
O22 C18 1.260 . S
C23 O14 1.240 . S
C23 O15 1.252 . S
O24 In13 2.294 . S
O24 C17 1.240 . S
O25 In13 2.326 . S
O25 C17 1.252 . S
In26 O27 2.294 . S
In26 O28 2.326 . S
In26 O32 2.266 . S
In26 O33 2.326 . S
In26 O34 2.266 . S
In26 O35 2.326 . S
In26 O37 2.294 . S
In26 O38 2.326 . S
O27 In26 2.294 . S
O27 C36 1.240 . S
O28 In26 2.326 . S
O28 C36 1.252 . S
C29 O32 1.252 . S
C29 O33 1.260 . S
C30 O37 1.240 . S
C30 O38 1.252 . S
C31 O34 1.252 . S
C31 O35 1.260 . S
O32 In26 2.266 . S
O32 C29 1.252 . S
O33 In26 2.326 . S
O33 C29 1.260 . S
O34 In26 2.266 . S
O34 C31 1.252 . S
O35 In26 2.326 . S
O35 C31 1.260 . S
C36 O27 1.240 . S
C36 O28 1.252 . S
O37 In26 2.294 . S
O37 C30 1.240 . S
O38 In26 2.326 . S
O38 C30 1.252 . S
In39 O40 2.294 . S
In39 O41 2.326 . S
In39 O45 2.266 . S
In39 O46 2.326 . S
In39 O47 2.266 . S
In39 O48 2.326 . S
In39 O50 2.294 . S
In39 O51 2.326 . S
O40 In39 2.294 . S
O40 C49 1.240 . S
O41 In39 2.326 . S
O41 C49 1.252 . S
C42 O45 1.252 . S
C42 O46 1.260 . S
C43 O50 1.240 . S
C43 O51 1.252 . S
C44 O47 1.252 . S
C44 O48 1.260 . S
O45 In39 2.266 . S
O45 C42 1.252 . S
O46 In39 2.326 . S
O46 C42 1.260 . S
O47 In39 2.266 . S
O47 C44 1.252 . S
O48 In39 2.326 . S
O48 C44 1.260 . S
C49 O40 1.240 . S
C49 O41 1.252 . S
O50 In39 2.294 . S
O50 C43 1.240 . S
O51 In39 2.326 . S
O51 C43 1.252 . S
In52 O53 2.294 . S
In52 O54 2.326 . S
In52 O58 2.266 . S
In52 O59 2.326 . S
In52 O60 2.266 . S
In52 O61 2.326 . S
In52 O63 2.294 . S
In52 O64 2.326 . S
O53 In52 2.294 . S
O53 C62 1.240 . S
O54 In52 2.326 . S
O54 C62 1.252 . S
C55 O58 1.252 . S
C55 O59 1.260 . S
C56 O63 1.240 . S
C56 O64 1.252 . S
C57 O60 1.252 . S
C57 O61 1.260 . S
O58 In52 2.266 . S
O58 C55 1.252 . S
O59 In52 2.326 . S
O59 C55 1.260 . S
O60 In52 2.266 . S
O60 C57 1.252 . S
O61 In52 2.326 . S
O61 C57 1.260 . S
C62 O53 1.240 . S
C62 O54 1.252 . S
O63 In52 2.294 . S
O63 C56 1.240 . S
O64 In52 2.326 . S
O64 C56 1.252 . S
In65 O66 2.294 . S
In65 O67 2.326 . S
In65 O71 2.266 . S
In65 O72 2.326 . S
In65 O73 2.266 . S
In65 O74 2.326 . S
In65 O76 2.294 . S
In65 O77 2.326 . S
O66 In65 2.294 . S
O66 C75 1.240 . S
O67 In65 2.326 . S
O67 C75 1.252 . S
C68 O71 1.252 . S
C68 O72 1.260 . S
C69 O76 1.240 . S
C69 O77 1.252 . S
C70 O73 1.252 . S
C70 O74 1.260 . S
O71 In65 2.266 . S
O71 C68 1.252 . S
O72 In65 2.326 . S
O72 C68 1.260 . S
O73 In65 2.266 . S
O73 C70 1.252 . S
O74 In65 2.326 . S
O74 C70 1.260 . S
C75 O66 1.240 . S
C75 O67 1.252 . S
O76 In65 2.294 . S
O76 C69 1.240 . S
O77 In65 2.326 . S
O77 C69 1.252 . S
In78 O79 2.294 . S
In78 O80 2.326 . S
In78 O84 2.266 . S
In78 O85 2.326 . S
In78 O86 2.266 . S
In78 O87 2.326 . S
In78 O89 2.294 . S
In78 O90 2.326 . S
O79 In78 2.294 . S
O79 C88 1.240 . S
O80 In78 2.326 . S
O80 C88 1.252 . S
C81 O84 1.252 . S
C81 O85 1.260 . S
C82 O89 1.240 . S
C82 O90 1.252 . S
C83 O86 1.252 . S
C83 O87 1.260 . S
O84 In78 2.266 . S
O84 C81 1.252 . S
O85 In78 2.326 . S
O85 C81 1.260 . S
O86 In78 2.266 . S
O86 C83 1.252 . S
O87 In78 2.326 . S
O87 C83 1.260 . S
C88 O79 1.240 . S
C88 O80 1.252 . S
O89 In78 2.294 . S
O89 C82 1.240 . S
O90 In78 2.326 . S
O90 C82 1.252 . S
In91 O92 2.294 . S
In91 O93 2.326 . S
In91 O97 2.266 . S
In91 O98 2.326 . S
In91 O99 2.266 . S
In91 O100 2.326 . S
In91 O102 2.294 . S
In91 O103 2.326 . S
O92 In91 2.294 . S
O92 C101 1.240 . S
O93 In91 2.326 . S
O93 C101 1.252 . S
C94 O97 1.252 . S
C94 O98 1.260 . S
C95 O102 1.240 . S
C95 O103 1.252 . S
C96 O99 1.252 . S
C96 O100 1.260 . S
O97 In91 2.266 . S
O97 C94 1.252 . S
O98 In91 2.326 . S
O98 C94 1.260 . S
O99 In91 2.266 . S
O99 C96 1.252 . S
O100 In91 2.326 . S
O100 C96 1.260 . S
C101 O92 1.240 . S
C101 O93 1.252 . S
O102 In91 2.294 . S
O102 C95 1.240 . S
O103 In91 2.326 . S
O103 C95 1.252 . S
In104 O105 2.294 . S
In104 O106 2.326 . S
In104 O110 2.266 . S
In104 O111 2.326 . S
In104 O112 2.266 . S
In104 O113 2.326 . S
In104 O115 2.294 . S
In104 O116 2.326 . S
O105 In104 2.294 . S
O105 C114 1.240 . S
O106 In104 2.326 . S
O106 C114 1.252 . S
C107 O110 1.252 . S
C107 O111 1.260 . S
C108 O115 1.240 . S
C108 O116 1.252 . S
C109 O112 1.252 . S
C109 O113 1.260 . S
O110 In104 2.266 . S
O110 C107 1.252 . S
O111 In104 2.326 . S
O111 C107 1.260 . S
O112 In104 2.266 . S
O112 C109 1.252 . S
O113 In104 2.326 . S
O113 C109 1.260 . S
C114 O105 1.240 . S
C114 O106 1.252 . S
O115 In104 2.294 . S
O115 C108 1.240 . S
O116 In104 2.326 . S
O116 C108 1.252 . S
In117 O118 2.294 . S
In117 O119 2.326 . S
In117 O123 2.266 . S
In117 O124 2.326 . S
In117 O125 2.266 . S
In117 O126 2.326 . S
In117 O128 2.294 . S
In117 O129 2.326 . S
O118 In117 2.294 . S
O118 C127 1.240 . S
O119 In117 2.326 . S
O119 C127 1.252 . S
C120 O123 1.252 . S
C120 O124 1.260 . S
C121 O128 1.240 . S
C121 O129 1.252 . S
C122 O125 1.252 . S
C122 O126 1.260 . S
O123 In117 2.266 . S
O123 C120 1.252 . S
O124 In117 2.326 . S
O124 C120 1.260 . S
O125 In117 2.266 . S
O125 C122 1.252 . S
O126 In117 2.326 . S
O126 C122 1.260 . S
C127 O118 1.240 . S
C127 O119 1.252 . S
O128 In117 2.294 . S
O128 C121 1.240 . S
O129 In117 2.326 . S
O129 C121 1.252 . S
In130 O131 2.294 . S
In130 O132 2.326 . S
In130 O136 2.266 . S
In130 O137 2.326 . S
In130 O138 2.266 . S
In130 O139 2.326 . S
In130 O141 2.294 . S
In130 O142 2.326 . S
O131 In130 2.294 . S
O131 C140 1.240 . S
O132 In130 2.326 . S
O132 C140 1.252 . S
C133 O136 1.252 . S
C133 O137 1.260 . S
C134 O141 1.240 . S
C134 O142 1.252 . S
C135 O138 1.252 . S
C135 O139 1.260 . S
O136 In130 2.266 . S
O136 C133 1.252 . S
O137 In130 2.326 . S
O137 C133 1.260 . S
O138 In130 2.266 . S
O138 C135 1.252 . S
O139 In130 2.326 . S
O139 C135 1.260 . S
C140 O131 1.240 . S
C140 O132 1.252 . S
O141 In130 2.294 . S
O141 C134 1.240 . S
O142 In130 2.326 . S
O142 C134 1.252 . S
In143 O144 2.294 . S
In143 O145 2.326 . S
In143 O149 2.266 . S
In143 O150 2.326 . S
In143 O151 2.266 . S
In143 O152 2.326 . S
In143 O154 2.294 . S
In143 O155 2.326 . S
O144 In143 2.294 . S
O144 C153 1.240 . S
O145 In143 2.326 . S
O145 C153 1.252 . S
C146 O149 1.252 . S
C146 O150 1.260 . S
C147 O154 1.240 . S
C147 O155 1.252 . S
C148 O151 1.252 . S
C148 O152 1.260 . S
O149 In143 2.266 . S
O149 C146 1.252 . S
O150 In143 2.326 . S
O150 C146 1.260 . S
O151 In143 2.266 . S
O151 C148 1.252 . S
O152 In143 2.326 . S
O152 C148 1.260 . S
C153 O144 1.240 . S
C153 O145 1.252 . S
O154 In143 2.294 . S
O154 C147 1.240 . S
O155 In143 2.326 . S
O155 C147 1.252 . S
In156 O157 2.294 . S
In156 O158 2.326 . S
In156 O162 2.266 . S
In156 O163 2.326 . S
In156 O164 2.266 . S
In156 O165 2.326 . S
In156 O167 2.294 . S
In156 O168 2.326 . S
O157 In156 2.294 . S
O157 C166 1.240 . S
O158 In156 2.326 . S
O158 C166 1.252 . S
C159 O162 1.252 . S
C159 O163 1.260 . S
C160 O167 1.240 . S
C160 O168 1.252 . S
C161 O164 1.252 . S
C161 O165 1.260 . S
O162 In156 2.266 . S
O162 C159 1.252 . S
O163 In156 2.326 . S
O163 C159 1.260 . S
O164 In156 2.266 . S
O164 C161 1.252 . S
O165 In156 2.326 . S
O165 C161 1.260 . S
C166 O157 1.240 . S
C166 O158 1.252 . S
O167 In156 2.294 . S
O167 C160 1.240 . S
O168 In156 2.326 . S
O168 C160 1.252 . S
In169 O170 2.294 . S
In169 O171 2.326 . S
In169 O175 2.266 . S
In169 O176 2.326 . S
In169 O177 2.266 . S
In169 O178 2.326 . S
In169 O180 2.294 . S
In169 O181 2.326 . S
O170 In169 2.294 . S
O170 C179 1.240 . S
O171 In169 2.326 . S
O171 C179 1.252 . S
C172 O175 1.252 . S
C172 O176 1.260 . S
C173 O180 1.240 . S
C173 O181 1.252 . S
C174 O177 1.252 . S
C174 O178 1.260 . S
O175 In169 2.266 . S
O175 C172 1.252 . S
O176 In169 2.326 . S
O176 C172 1.260 . S
O177 In169 2.266 . S
O177 C174 1.252 . S
O178 In169 2.326 . S
O178 C174 1.260 . S
C179 O170 1.240 . S
C179 O171 1.252 . S
O180 In169 2.294 . S
O180 C173 1.240 . S
O181 In169 2.326 . S
O181 C173 1.252 . S
In182 O183 2.294 . S
In182 O184 2.326 . S
In182 O188 2.266 . S
In182 O189 2.326 . S
In182 O190 2.266 . S
In182 O191 2.326 . S
In182 O193 2.294 . S
In182 O194 2.326 . S
O183 In182 2.294 . S
O183 C192 1.240 . S
O184 In182 2.326 . S
O184 C192 1.252 . S
C185 O188 1.252 . S
C185 O189 1.260 . S
C186 O193 1.240 . S
C186 O194 1.252 . S
C187 O190 1.252 . S
C187 O191 1.260 . S
O188 In182 2.266 . S
O188 C185 1.252 . S
O189 In182 2.326 . S
O189 C185 1.260 . S
O190 In182 2.266 . S
O190 C187 1.252 . S
O191 In182 2.326 . S
O191 C187 1.260 . S
C192 O183 1.240 . S
C192 O184 1.252 . S
O193 In182 2.294 . S
O193 C186 1.240 . S
O194 In182 2.326 . S
O194 C186 1.252 . S
In195 O196 2.294 . S
In195 O197 2.326 . S
In195 O201 2.266 . S
In195 O202 2.326 . S
In195 O203 2.266 . S
In195 O204 2.326 . S
In195 O206 2.294 . S
In195 O207 2.326 . S
O196 In195 2.294 . S
O196 C205 1.240 . S
O197 In195 2.326 . S
O197 C205 1.252 . S
C198 O201 1.252 . S
C198 O202 1.260 . S
C199 O206 1.240 . S
C199 O207 1.252 . S
C200 O203 1.252 . S
C200 O204 1.260 . S
O201 In195 2.266 . S
O201 C198 1.252 . S
O202 In195 2.326 . S
O202 C198 1.260 . S
O203 In195 2.266 . S
O203 C200 1.252 . S
O204 In195 2.326 . S
O204 C200 1.260 . S
C205 O196 1.240 . S
C205 O197 1.252 . S
O206 In195 2.294 . S
O206 C199 1.240 . S
O207 In195 2.326 . S
O207 C199 1.252 . S
C208 C209 1.349 . S
C208 C210 1.327 . S
C208 H233 0.950 . S
C209 C208 1.349 . S
C209 C225 1.349 . S
C210 C208 1.327 . S
C210 C229 1.429 . S
C210 H234 0.950 . S
C211 C228 1.574 . S
C211 C230 1.368 . S
C211 H235 0.949 . S
H212 C216 0.949 . S
C213 C214 1.349 . S
C213 C215 1.327 . S
C213 H236 0.950 . S
C214 C213 1.349 . S
C214 C226 1.349 . S
C215 C213 1.327 . S
C215 C231 1.429 . S
C215 H237 0.950 . S
C216 H212 0.949 . S
C216 C224 1.574 . S
C216 C232 1.368 . S
H217 C225 0.950 . S
H218 C223 0.950 . S
H219 C224 0.949 . S
H220 C226 0.950 . S
H221 C227 0.950 . S
H222 C228 0.949 . S
C223 H218 0.950 . S
C223 C225 1.327 . S
C223 C229 1.429 . S
C224 C216 1.574 . S
C224 H219 0.949 . S
C224 C230 1.368 . S
C225 C209 1.349 . S
C225 H217 0.950 . S
C225 C223 1.327 . S
C226 C214 1.349 . S
C226 H220 0.950 . S
C226 C227 1.327 . S
C227 H221 0.950 . S
C227 C226 1.327 . S
C227 C231 1.429 . S
C228 C211 1.574 . S
C228 H222 0.949 . S
C228 C232 1.368 . S
C229 C210 1.429 . S
C229 C223 1.429 . S
C229 C230 1.523 . S
C230 C211 1.368 . S
C230 C224 1.368 . S
C230 C229 1.523 . S
C231 C215 1.429 . S
C231 C227 1.429 . S
C231 C232 1.523 . S
C232 C216 1.368 . S
C232 C228 1.368 . S
C232 C231 1.523 . S
H233 C208 0.950 . S
H234 C210 0.950 . S
H235 C211 0.949 . S
H236 C213 0.950 . S
H237 C215 0.950 . S
C238 C239 1.349 . S
C238 C240 1.327 . S
C238 H263 0.950 . S
C239 C238 1.349 . S
C239 C255 1.349 . S
C240 C238 1.327 . S
C240 C259 1.429 . S
C240 H264 0.950 . S
C241 C258 1.574 . S
C241 C260 1.368 1_455 S
C241 H265 0.949 . S
H242 C246 0.949 . S
C243 C244 1.349 . S
C243 C245 1.327 . S
C243 H266 0.950 . S
C244 C243 1.349 . S
C244 C256 1.349 . S
C245 C243 1.327 . S
C245 C261 1.429 . S
C245 H267 0.950 . S
C246 H242 0.949 . S
C246 C254 1.574 . S
C246 C262 1.368 1_655 S
H247 C255 0.950 . S
H248 C253 0.950 . S
H249 C254 0.949 . S
H250 C256 0.950 . S
H251 C257 0.950 . S
H252 C258 0.949 . S
C253 H248 0.950 . S
C253 C255 1.327 . S
C253 C259 1.429 . S
C254 C246 1.574 . S
C254 H249 0.949 . S
C254 C260 1.368 1_545 S
C255 C239 1.349 . S
C255 H247 0.950 . S
C255 C253 1.327 . S
C256 C244 1.349 . S
C256 H250 0.950 . S
C256 C257 1.327 . S
C257 H251 0.950 . S
C257 C256 1.327 . S
C257 C261 1.429 . S
C258 C241 1.574 . S
C258 H252 0.949 . S
C258 C262 1.368 1_565 S
C259 C240 1.429 . S
C259 C253 1.429 . S
C259 C260 1.523 . S
C260 C241 1.368 1_655 S
C260 C254 1.368 1_565 S
C260 C259 1.523 . S
C261 C245 1.429 . S
C261 C257 1.429 . S
C261 C262 1.523 . S
C262 C246 1.368 1_455 S
C262 C258 1.368 1_545 S
C262 C261 1.523 . S
H263 C238 0.950 . S
H264 C240 0.950 . S
H265 C241 0.949 . S
H266 C243 0.950 . S
H267 C245 0.950 . S
C268 C269 1.349 . S
C268 C270 1.327 . S
C268 H293 0.950 . S
C269 C268 1.349 . S
C269 C285 1.349 . S
C270 C268 1.327 . S
C270 C289 1.429 . S
C270 H294 0.950 . S
C271 C288 1.574 1_565 S
C271 C290 1.368 . S
C271 H295 0.949 . S
H272 C276 0.949 . S
C273 C274 1.349 . S
C273 C275 1.327 . S
C273 H296 0.950 . S
C274 C273 1.349 . S
C274 C286 1.349 . S
C275 C273 1.327 . S
C275 C291 1.429 . S
C275 H297 0.950 . S
C276 H272 0.949 . S
C276 C284 1.574 1_545 S
C276 C292 1.368 . S
H277 C285 0.950 . S
H278 C283 0.950 . S
H279 C284 0.949 . S
H280 C286 0.950 . S
H281 C287 0.950 . S
H282 C288 0.949 . S
C283 H278 0.950 . S
C283 C285 1.327 . S
C283 C289 1.429 . S
C284 C276 1.574 1_565 S
C284 H279 0.949 . S
C284 C290 1.368 . S
C285 C269 1.349 . S
C285 H277 0.950 . S
C285 C283 1.327 . S
C286 C274 1.349 . S
C286 H280 0.950 . S
C286 C287 1.327 . S
C287 H281 0.950 . S
C287 C286 1.327 . S
C287 C291 1.429 . S
C288 C271 1.574 1_545 S
C288 H282 0.949 . S
C288 C292 1.368 . S
C289 C270 1.429 . S
C289 C283 1.429 . S
C289 C290 1.523 . S
C290 C271 1.368 . S
C290 C284 1.368 . S
C290 C289 1.523 . S
C291 C275 1.429 . S
C291 C287 1.429 . S
C291 C292 1.523 . S
C292 C276 1.368 . S
C292 C288 1.368 . S
C292 C291 1.523 . S
H293 C268 0.950 . S
H294 C270 0.950 . S
H295 C271 0.949 . S
H296 C273 0.950 . S
H297 C275 0.950 . S
C298 C299 1.349 . S
C298 C300 1.327 . S
C298 H323 0.950 . S
C299 C298 1.349 . S
C299 C315 1.349 . S
C300 C298 1.327 . S
C300 C319 1.429 . S
C300 H324 0.950 . S
C301 C318 1.549 1_455 S
C301 C320 1.391 . S
C301 H325 0.951 . S
H302 C306 0.951 . S
C303 C304 1.349 . S
C303 C305 1.327 . S
C303 H326 0.950 . S
C304 C303 1.349 . S
C304 C316 1.349 . S
C305 C303 1.327 . S
C305 C321 1.429 . S
C305 H327 0.950 . S
C306 H302 0.951 . S
C306 C314 1.549 1_655 S
C306 C322 1.391 . S
H307 C315 0.950 . S
H308 C313 0.950 . S
H309 C314 0.949 . S
H310 C316 0.950 . S
H311 C317 0.950 . S
H312 C318 0.949 . S
C313 H308 0.950 . S
C313 C315 1.327 . S
C313 C319 1.429 . S
C314 C306 1.549 1_455 S
C314 H309 0.949 . S
C314 C320 1.368 . S
C315 C299 1.349 . S
C315 H307 0.950 . S
C315 C313 1.327 . S
C316 C304 1.349 . S
C316 H310 0.950 . S
C316 C317 1.327 . S
C317 H311 0.950 . S
C317 C316 1.327 . S
C317 C321 1.429 . S
C318 C301 1.549 1_655 S
C318 H312 0.949 . S
C318 C322 1.368 . S
C319 C300 1.429 . S
C319 C313 1.429 . S
C319 C320 1.523 . S
C320 C301 1.391 . S
C320 C314 1.368 . S
C320 C319 1.523 . S
C321 C305 1.429 . S
C321 C317 1.429 . S
C321 C322 1.523 . S
C322 C306 1.391 . S
C322 C318 1.368 . S
C322 C321 1.523 . S
H323 C298 0.950 . S
H324 C300 0.950 . S
H325 C301 0.951 . S
H326 C303 0.950 . S
H327 C305 0.950 . S
C328 C329 1.349 . S
C328 C330 1.327 . S
C328 H353 0.950 . S
C329 C328 1.349 . S
C329 C345 1.349 . S
C330 C328 1.327 . S
C330 C349 1.429 . S
C330 H354 0.950 . S
C331 C348 1.574 . S
C331 C350 1.368 . S
C331 H355 0.949 . S
H332 C336 0.949 . S
C333 C334 1.349 . S
C333 C335 1.327 . S
C333 H356 0.950 . S
C334 C333 1.349 . S
C334 C346 1.349 . S
C335 C333 1.327 . S
C335 C351 1.429 . S
C335 H357 0.950 . S
C336 H332 0.949 . S
C336 C344 1.574 . S
C336 C352 1.368 . S
H337 C345 0.950 . S
H338 C343 0.950 . S
H339 C344 0.949 . S
H340 C346 0.950 . S
H341 C347 0.950 . S
H342 C348 0.949 . S
C343 H338 0.950 . S
C343 C345 1.327 . S
C343 C349 1.429 . S
C344 C336 1.574 . S
C344 H339 0.949 . S
C344 C350 1.368 . S
C345 C329 1.349 . S
C345 H337 0.950 . S
C345 C343 1.327 . S
C346 C334 1.349 . S
C346 H340 0.950 . S
C346 C347 1.327 . S
C347 H341 0.950 . S
C347 C346 1.327 . S
C347 C351 1.429 . S
C348 C331 1.574 . S
C348 H342 0.949 . S
C348 C352 1.368 . S
C349 C330 1.429 . S
C349 C343 1.429 . S
C349 C350 1.523 . S
C350 C331 1.368 . S
C350 C344 1.368 . S
C350 C349 1.523 . S
C351 C335 1.429 . S
C351 C347 1.429 . S
C351 C352 1.523 . S
C352 C336 1.368 . S
C352 C348 1.368 . S
C352 C351 1.523 . S
H353 C328 0.950 . S
H354 C330 0.950 . S
H355 C331 0.949 . S
H356 C333 0.950 . S
H357 C335 0.950 . S
C358 C359 1.349 . S
C358 C360 1.327 . S
C358 H383 0.950 . S
C359 C358 1.349 . S
C359 C375 1.349 . S
C360 C358 1.327 . S
C360 C379 1.429 . S
C360 H384 0.950 . S
C361 C378 1.574 . S
C361 C380 1.368 . S
C361 H385 0.949 . S
H362 C366 0.949 . S
C363 C364 1.349 . S
C363 C365 1.327 . S
C363 H386 0.950 . S
C364 C363 1.349 . S
C364 C376 1.349 . S
C365 C363 1.327 . S
C365 C381 1.429 . S
C365 H387 0.950 . S
C366 H362 0.949 . S
C366 C374 1.574 . S
C366 C382 1.368 . S
H367 C375 0.950 . S
H368 C373 0.950 . S
H369 C374 0.949 . S
H370 C376 0.950 . S
H371 C377 0.950 . S
H372 C378 0.949 . S
C373 H368 0.950 . S
C373 C375 1.327 . S
C373 C379 1.429 . S
C374 C366 1.574 . S
C374 H369 0.949 . S
C374 C380 1.368 1_565 S
C375 C359 1.349 . S
C375 H367 0.950 . S
C375 C373 1.327 . S
C376 C364 1.349 . S
C376 H370 0.950 . S
C376 C377 1.327 . S
C377 H371 0.950 . S
C377 C376 1.327 . S
C377 C381 1.429 . S
C378 C361 1.574 . S
C378 H372 0.949 . S
C378 C382 1.368 1_545 S
C379 C360 1.429 . S
C379 C373 1.429 . S
C379 C380 1.523 . S
C380 C361 1.368 . S
C380 C374 1.368 1_545 S
C380 C379 1.523 . S
C381 C365 1.429 . S
C381 C377 1.429 . S
C381 C382 1.523 . S
C382 C366 1.368 . S
C382 C378 1.368 1_565 S
C382 C381 1.523 . S
H383 C358 0.950 . S
H384 C360 0.950 . S
H385 C361 0.949 . S
H386 C363 0.950 . S
H387 C365 0.950 . S
C388 C389 1.349 . S
C388 C390 1.327 . S
C388 H413 0.950 . S
C389 C388 1.349 . S
C389 C405 1.349 . S
C390 C388 1.327 . S
C390 C409 1.429 . S
C390 H414 0.950 . S
C391 C408 1.553 1_655 S
C391 C410 1.388 . S
C391 H415 0.951 . S
H392 C396 0.951 . S
C393 C394 1.349 . S
C393 C395 1.327 . S
C393 H416 0.950 . S
C394 C393 1.349 . S
C394 C406 1.349 . S
C395 C393 1.327 . S
C395 C411 1.429 . S
C395 H417 0.950 . S
C396 H392 0.951 . S
C396 C404 1.553 1_455 S
C396 C412 1.388 . S
H397 C405 0.950 . S
H398 C403 0.950 . S
H399 C404 0.949 . S
H400 C406 0.950 . S
H401 C407 0.950 . S
H402 C408 0.949 . S
C403 H398 0.950 . S
C403 C405 1.327 . S
C403 C409 1.429 . S
C404 C396 1.553 1_655 S
C404 H399 0.949 . S
C404 C410 1.368 . S
C405 C389 1.349 . S
C405 H397 0.950 . S
C405 C403 1.327 . S
C406 C394 1.349 . S
C406 H400 0.950 . S
C406 C407 1.327 . S
C407 H401 0.950 . S
C407 C406 1.327 . S
C407 C411 1.429 . S
C408 C391 1.553 1_455 S
C408 H402 0.949 . S
C408 C412 1.368 . S
C409 C390 1.429 . S
C409 C403 1.429 . S
C409 C410 1.523 . S
C410 C391 1.388 . S
C410 C404 1.368 . S
C410 C409 1.523 . S
C411 C395 1.429 . S
C411 C407 1.429 . S
C411 C412 1.523 . S
C412 C396 1.388 . S
C412 C408 1.368 . S
C412 C411 1.523 . S
H413 C388 0.950 . S
H414 C390 0.950 . S
H415 C391 0.951 . S
H416 C393 0.950 . S
H417 C395 0.950 . S
C418 C419 1.349 . S
C418 C420 1.327 . S
C418 H443 0.950 . S
C419 C418 1.349 . S
C419 C435 1.349 . S
C420 C418 1.327 . S
C420 C439 1.429 . S
C420 H444 0.950 . S
C421 C438 1.574 . S
C421 C440 1.368 . S
C421 H445 0.949 . S
H422 C426 0.949 . S
C423 C424 1.349 . S
C423 C425 1.327 . S
C423 H446 0.950 . S
C424 C423 1.349 . S
C424 C436 1.349 . S
C425 C423 1.327 . S
C425 C441 1.429 . S
C425 H447 0.950 . S
C426 H422 0.949 . S
C426 C434 1.574 . S
C426 C442 1.368 . S
H427 C435 0.950 . S
H428 C433 0.950 . S
H429 C434 0.949 . S
H430 C436 0.950 . S
H431 C437 0.950 . S
H432 C438 0.949 . S
C433 H428 0.950 . S
C433 C435 1.327 . S
C433 C439 1.429 . S
C434 C426 1.574 . S
C434 H429 0.949 . S
C434 C440 1.368 1_556 S
C435 C419 1.349 . S
C435 H427 0.950 . S
C435 C433 1.327 . S
C436 C424 1.349 . S
C436 H430 0.950 . S
C436 C437 1.327 . S
C437 H431 0.950 . S
C437 C436 1.327 . S
C437 C441 1.429 . S
C438 C421 1.574 . S
C438 H432 0.949 . S
C438 C442 1.368 1_554 S
C439 C420 1.429 . S
C439 C433 1.429 . S
C439 C440 1.523 . S
C440 C421 1.368 . S
C440 C434 1.368 1_554 S
C440 C439 1.523 . S
C441 C425 1.429 . S
C441 C437 1.429 . S
C441 C442 1.523 . S
C442 C426 1.368 . S
C442 C438 1.368 1_556 S
C442 C441 1.523 . S
H443 C418 0.950 . S
H444 C420 0.950 . S
H445 C421 0.949 . S
H446 C423 0.950 . S
H447 C425 0.950 . S
C448 C449 1.349 . S
C448 C450 1.327 . S
C448 H473 0.950 . S
C449 C448 1.349 . S
C449 C465 1.349 . S
C450 C448 1.327 . S
C450 C469 1.429 . S
C450 H474 0.950 . S
C451 C468 1.574 1_456 S
C451 C470 1.368 . S
C451 H475 0.949 . S
H452 C456 0.949 . S
C453 C454 1.349 . S
C453 C455 1.327 . S
C453 H476 0.950 . S
C454 C453 1.349 . S
C454 C466 1.349 . S
C455 C453 1.327 . S
C455 C471 1.429 . S
C455 H477 0.950 . S
C456 H452 0.949 . S
C456 C464 1.574 1_654 S
C456 C472 1.368 . S
H457 C465 0.950 . S
H458 C463 0.950 . S
H459 C464 0.949 . S
H460 C466 0.950 . S
H461 C467 0.950 . S
H462 C468 0.949 . S
C463 H458 0.950 . S
C463 C465 1.327 . S
C463 C469 1.429 . S
C464 C456 1.574 1_456 S
C464 H459 0.949 . S
C464 C470 1.368 . S
C465 C449 1.349 . S
C465 H457 0.950 . S
C465 C463 1.327 . S
C466 C454 1.349 . S
C466 H460 0.950 . S
C466 C467 1.327 . S
C467 H461 0.950 . S
C467 C466 1.327 . S
C467 C471 1.429 . S
C468 C451 1.574 1_654 S
C468 H462 0.949 . S
C468 C472 1.368 . S
C469 C450 1.429 . S
C469 C463 1.429 . S
C469 C470 1.523 . S
C470 C451 1.368 . S
C470 C464 1.368 . S
C470 C469 1.523 . S
C471 C455 1.429 . S
C471 C467 1.429 . S
C471 C472 1.523 . S
C472 C456 1.368 . S
C472 C468 1.368 . S
C472 C471 1.523 . S
H473 C448 0.950 . S
H474 C450 0.950 . S
H475 C451 0.949 . S
H476 C453 0.950 . S
H477 C455 0.950 . S
C478 C479 1.349 . S
C478 C480 1.327 . S
C478 H503 0.950 . S
C479 C478 1.349 . S
C479 C495 1.349 . S
C480 C478 1.327 . S
C480 C499 1.429 . S
C480 H504 0.950 . S
C481 C498 1.574 . S
C481 C500 1.368 . S
C481 H505 0.949 . S
H482 C486 0.949 . S
C483 C484 1.349 . S
C483 C485 1.327 . S
C483 H506 0.950 . S
C484 C483 1.349 . S
C484 C496 1.349 . S
C485 C483 1.327 . S
C485 C501 1.429 . S
C485 H507 0.950 . S
C486 H482 0.949 . S
C486 C494 1.574 . S
C486 C502 1.368 . S
H487 C495 0.950 . S
H488 C493 0.950 . S
H489 C494 0.949 . S
H490 C496 0.950 . S
H491 C497 0.950 . S
H492 C498 0.949 . S
C493 H488 0.950 . S
C493 C495 1.327 . S
C493 C499 1.429 . S
C494 C486 1.574 . S
C494 H489 0.949 . S
C494 C500 1.368 . S
C495 C479 1.349 . S
C495 H487 0.950 . S
C495 C493 1.327 . S
C496 C484 1.349 . S
C496 H490 0.950 . S
C496 C497 1.327 . S
C497 H491 0.950 . S
C497 C496 1.327 . S
C497 C501 1.429 . S
C498 C481 1.574 . S
C498 H492 0.949 . S
C498 C502 1.368 . S
C499 C480 1.429 . S
C499 C493 1.429 . S
C499 C500 1.523 . S
C500 C481 1.368 . S
C500 C494 1.368 . S
C500 C499 1.523 . S
C501 C485 1.429 . S
C501 C497 1.429 . S
C501 C502 1.523 . S
C502 C486 1.368 . S
C502 C498 1.368 . S
C502 C501 1.523 . S
H503 C478 0.950 . S
H504 C480 0.950 . S
H505 C481 0.949 . S
H506 C483 0.950 . S
H507 C485 0.950 . S
C508 C509 1.349 . S
C508 C510 1.327 . S
C508 H533 0.950 . S
C509 C508 1.349 . S
C509 C525 1.349 . S
C510 C508 1.327 . S
C510 C529 1.429 . S
C510 H534 0.950 . S
C511 C528 1.574 1_556 S
C511 C530 1.368 . S
C511 H535 0.949 . S
H512 C516 0.949 . S
C513 C514 1.349 . S
C513 C515 1.327 . S
C513 H536 0.950 . S
C514 C513 1.349 . S
C514 C526 1.349 . S
C515 C513 1.327 . S
C515 C531 1.429 . S
C515 H537 0.950 . S
C516 H512 0.949 . S
C516 C524 1.574 1_554 S
C516 C532 1.368 . S
H517 C525 0.950 . S
H518 C523 0.950 . S
H519 C524 0.949 . S
H520 C526 0.950 . S
H521 C527 0.950 . S
H522 C528 0.949 . S
C523 H518 0.950 . S
C523 C525 1.327 . S
C523 C529 1.429 . S
C524 C516 1.574 1_556 S
C524 H519 0.949 . S
C524 C530 1.368 . S
C525 C509 1.349 . S
C525 H517 0.950 . S
C525 C523 1.327 . S
C526 C514 1.349 . S
C526 H520 0.950 . S
C526 C527 1.327 . S
C527 H521 0.950 . S
C527 C526 1.327 . S
C527 C531 1.429 . S
C528 C511 1.574 1_554 S
C528 H522 0.949 . S
C528 C532 1.368 . S
C529 C510 1.429 . S
C529 C523 1.429 . S
C529 C530 1.523 . S
C530 C511 1.368 . S
C530 C524 1.368 . S
C530 C529 1.523 . S
C531 C515 1.429 . S
C531 C527 1.429 . S
C531 C532 1.523 . S
C532 C516 1.368 . S
C532 C528 1.368 . S
C532 C531 1.523 . S
H533 C508 0.950 . S
H534 C510 0.950 . S
H535 C511 0.949 . S
H536 C513 0.950 . S
H537 C515 0.950 . S
C538 C539 1.349 . S
C538 C540 1.327 . S
C538 H563 0.950 . S
C539 C538 1.349 . S
C539 C555 1.349 . S
C540 C538 1.327 . S
C540 C559 1.429 . S
C540 H564 0.950 . S
C541 C558 1.574 . S
C541 C560 1.368 . S
C541 H565 0.949 . S
H542 C546 0.949 . S
C543 C544 1.349 . S
C543 C545 1.327 . S
C543 H566 0.950 . S
C544 C543 1.349 . S
C544 C556 1.349 . S
C545 C543 1.327 . S
C545 C561 1.429 . S
C545 H567 0.950 . S
C546 H542 0.949 . S
C546 C554 1.574 . S
C546 C562 1.368 . S
H547 C555 0.950 . S
H548 C553 0.950 . S
H549 C554 0.949 . S
H550 C556 0.950 . S
H551 C557 0.950 . S
H552 C558 0.949 . S
C553 H548 0.950 . S
C553 C555 1.327 . S
C553 C559 1.429 . S
C554 C546 1.574 . S
C554 H549 0.949 . S
C554 C560 1.368 . S
C555 C539 1.349 . S
C555 H547 0.950 . S
C555 C553 1.327 . S
C556 C544 1.349 . S
C556 H550 0.950 . S
C556 C557 1.327 . S
C557 H551 0.950 . S
C557 C556 1.327 . S
C557 C561 1.429 . S
C558 C541 1.574 . S
C558 H552 0.949 . S
C558 C562 1.368 . S
C559 C540 1.429 . S
C559 C553 1.429 . S
C559 C560 1.523 . S
C560 C541 1.368 . S
C560 C554 1.368 . S
C560 C559 1.523 . S
C561 C545 1.429 . S
C561 C557 1.429 . S
C561 C562 1.523 . S
C562 C546 1.368 . S
C562 C558 1.368 . S
C562 C561 1.523 . S
H563 C538 0.950 . S
H564 C540 0.950 . S
H565 C541 0.949 . S
H566 C543 0.950 . S
H567 C545 0.950 . S
C568 C569 1.349 . S
C568 C570 1.327 . S
C568 H593 0.950 . S
C569 C568 1.349 . S
C569 C585 1.349 . S
C570 C568 1.327 . S
C570 C589 1.429 . S
C570 H594 0.950 . S
C571 C588 1.574 . S
C571 C590 1.368 1_564 S
C571 H595 0.949 . S
H572 C576 0.949 . S
C573 C574 1.349 . S
C573 C575 1.327 . S
C573 H596 0.950 . S
C574 C573 1.349 . S
C574 C586 1.349 . S
C575 C573 1.327 . S
C575 C591 1.429 . S
C575 H597 0.950 . S
C576 H572 0.949 . S
C576 C584 1.574 . S
C576 C592 1.368 1_546 S
H577 C585 0.950 . S
H578 C583 0.950 . S
H579 C584 0.949 . S
H580 C586 0.950 . S
H581 C587 0.950 . S
H582 C588 0.949 . S
C583 H578 0.950 . S
C583 C585 1.327 . S
C583 C589 1.429 . S
C584 C576 1.574 . S
C584 H579 0.949 . S
C584 C590 1.368 . S
C585 C569 1.349 . S
C585 H577 0.950 . S
C585 C583 1.327 . S
C586 C574 1.349 . S
C586 H580 0.950 . S
C586 C587 1.327 . S
C587 H581 0.950 . S
C587 C586 1.327 . S
C587 C591 1.429 . S
C588 C571 1.574 . S
C588 H582 0.949 . S
C588 C592 1.368 . S
C589 C570 1.429 . S
C589 C583 1.429 . S
C589 C590 1.523 . S
C590 C571 1.368 1_546 S
C590 C584 1.368 . S
C590 C589 1.523 . S
C591 C575 1.429 . S
C591 C587 1.429 . S
C591 C592 1.523 . S
C592 C576 1.368 1_564 S
C592 C588 1.368 . S
C592 C591 1.523 . S
H593 C568 0.950 . S
H594 C570 0.950 . S
H595 C571 0.949 . S
H596 C573 0.950 . S
H597 C575 0.950 . S
C598 C599 1.349 . S
C598 C600 1.327 . S
C598 H623 0.950 . S
C599 C598 1.349 . S
C599 C615 1.349 . S
C600 C598 1.327 . S
C600 C619 1.429 . S
C600 H624 0.950 . S
C601 C618 1.574 . S
C601 C620 1.368 . S
C601 H625 0.949 . S
H602 C606 0.949 . S
C603 C604 1.349 . S
C603 C605 1.327 . S
C603 H626 0.950 . S
C604 C603 1.349 . S
C604 C616 1.349 . S
C605 C603 1.327 . S
C605 C621 1.429 . S
C605 H627 0.950 . S
C606 H602 0.949 . S
C606 C614 1.574 . S
C606 C622 1.368 . S
H607 C615 0.950 . S
H608 C613 0.950 . S
H609 C614 0.949 . S
H610 C616 0.950 . S
H611 C617 0.950 . S
H612 C618 0.949 . S
C613 H608 0.950 . S
C613 C615 1.327 . S
C613 C619 1.429 . S
C614 C606 1.574 . S
C614 H609 0.949 . S
C614 C620 1.368 . S
C615 C599 1.349 . S
C615 H607 0.950 . S
C615 C613 1.327 . S
C616 C604 1.349 . S
C616 H610 0.950 . S
C616 C617 1.327 . S
C617 H611 0.950 . S
C617 C616 1.327 . S
C617 C621 1.429 . S
C618 C601 1.574 . S
C618 H612 0.949 . S
C618 C622 1.368 . S
C619 C600 1.429 . S
C619 C613 1.429 . S
C619 C620 1.523 . S
C620 C601 1.368 . S
C620 C614 1.368 . S
C620 C619 1.523 . S
C621 C605 1.429 . S
C621 C617 1.429 . S
C621 C622 1.523 . S
C622 C606 1.368 . S
C622 C618 1.368 . S
C622 C621 1.523 . S
H623 C598 0.950 . S
H624 C600 0.950 . S
H625 C601 0.949 . S
H626 C603 0.950 . S
H627 C605 0.950 . S
C628 C629 1.349 . S
C628 C630 1.327 . S
C628 H653 0.950 . S
C629 C628 1.349 . S
C629 C645 1.349 . S
C630 C628 1.327 . S
C630 C649 1.429 . S
C630 H654 0.950 . S
C631 C648 1.574 . S
C631 C650 1.368 . S
C631 H655 0.949 . S
H632 C636 0.949 . S
C633 C634 1.349 . S
C633 C635 1.327 . S
C633 H656 0.950 . S
C634 C633 1.349 . S
C634 C646 1.349 . S
C635 C633 1.327 . S
C635 C651 1.429 . S
C635 H657 0.950 . S
C636 H632 0.949 . S
C636 C644 1.574 . S
C636 C652 1.368 . S
H637 C645 0.950 . S
H638 C643 0.950 . S
H639 C644 0.949 . S
H640 C646 0.950 . S
H641 C647 0.950 . S
H642 C648 0.949 . S
C643 H638 0.950 . S
C643 C645 1.327 . S
C643 C649 1.429 . S
C644 C636 1.574 . S
C644 H639 0.949 . S
C644 C650 1.368 . S
C645 C629 1.349 . S
C645 H637 0.950 . S
C645 C643 1.327 . S
C646 C634 1.349 . S
C646 H640 0.950 . S
C646 C647 1.327 . S
C647 H641 0.950 . S
C647 C646 1.327 . S
C647 C651 1.429 . S
C648 C631 1.574 . S
C648 H642 0.949 . S
C648 C652 1.368 . S
C649 C630 1.429 . S
C649 C643 1.429 . S
C649 C650 1.523 . S
C650 C631 1.368 . S
C650 C644 1.368 . S
C650 C649 1.523 . S
C651 C635 1.429 . S
C651 C647 1.429 . S
C651 C652 1.523 . S
C652 C636 1.368 . S
C652 C648 1.368 . S
C652 C651 1.523 . S
H653 C628 0.950 . S
H654 C630 0.950 . S
H655 C631 0.949 . S
H656 C633 0.950 . S
H657 C635 0.950 . S
C658 C659 1.349 . S
C658 C660 1.327 . S
C658 H683 0.950 . S
C659 C658 1.349 . S
C659 C675 1.349 . S
C660 C658 1.327 . S
C660 C679 1.429 . S
C660 H684 0.950 . S
C661 C678 1.574 . S
C661 C680 1.368 . S
C661 H685 0.949 . S
H662 C666 0.949 . S
C663 C664 1.349 . S
C663 C665 1.327 . S
C663 H686 0.950 . S
C664 C663 1.349 . S
C664 C676 1.349 . S
C665 C663 1.327 . S
C665 C681 1.429 . S
C665 H687 0.950 . S
C666 H662 0.949 . S
C666 C674 1.574 . S
C666 C682 1.368 . S
H667 C675 0.950 . S
H668 C673 0.950 . S
H669 C674 0.949 . S
H670 C676 0.950 . S
H671 C677 0.950 . S
H672 C678 0.949 . S
C673 H668 0.950 . S
C673 C675 1.327 . S
C673 C679 1.429 . S
C674 C666 1.574 . S
C674 H669 0.949 . S
C674 C680 1.368 . S
C675 C659 1.349 . S
C675 H667 0.950 . S
C675 C673 1.327 . S
C676 C664 1.349 . S
C676 H670 0.950 . S
C676 C677 1.327 . S
C677 H671 0.950 . S
C677 C676 1.327 . S
C677 C681 1.429 . S
C678 C661 1.574 . S
C678 H672 0.949 . S
C678 C682 1.368 . S
C679 C660 1.429 . S
C679 C673 1.429 . S
C679 C680 1.523 . S
C680 C661 1.368 . S
C680 C674 1.368 . S
C680 C679 1.523 . S
C681 C665 1.429 . S
C681 C677 1.429 . S
C681 C682 1.523 . S
C682 C666 1.368 . S
C682 C678 1.368 . S
C682 C681 1.523 . S
H683 C658 0.950 . S
H684 C660 0.950 . S
H685 C661 0.949 . S
H686 C663 0.950 . S
H687 C665 0.950 . S
C688 C689 1.349 . S
C688 C690 1.327 . S
C688 H713 0.950 . S
C689 C688 1.349 . S
C689 C705 1.349 . S
C690 C688 1.327 . S
C690 C709 1.429 . S
C690 H714 0.950 . S
C691 C708 1.574 . S
C691 C710 1.368 . S
C691 H715 0.949 . S
H692 C696 0.949 . S
C693 C694 1.349 1_565 S
C693 C695 1.327 . S
C693 H716 0.950 . S
C694 C693 1.349 1_545 S
C694 C706 1.349 . S
C695 C693 1.327 . S
C695 C711 1.429 . S
C695 H717 0.950 . S
C696 H692 0.949 . S
C696 C704 1.574 . S
C696 C712 1.368 . S
H697 C705 0.950 . S
H698 C703 0.950 . S
H699 C704 0.949 . S
H700 C706 0.950 . S
H701 C707 0.950 . S
H702 C708 0.949 . S
C703 H698 0.950 . S
C703 C705 1.327 . S
C703 C709 1.429 . S
C704 C696 1.574 . S
C704 H699 0.949 . S
C704 C710 1.368 . S
C705 C689 1.349 . S
C705 H697 0.950 . S
C705 C703 1.327 . S
C706 C694 1.349 . S
C706 H700 0.950 . S
C706 C707 1.327 1_545 S
C707 H701 0.950 . S
C707 C706 1.327 1_565 S
C707 C711 1.429 . S
C708 C691 1.574 . S
C708 H702 0.949 . S
C708 C712 1.368 . S
C709 C690 1.429 . S
C709 C703 1.429 . S
C709 C710 1.523 . S
C710 C691 1.368 . S
C710 C704 1.368 . S
C710 C709 1.523 . S
C711 C695 1.429 . S
C711 C707 1.429 . S
C711 C712 1.523 . S
C712 C696 1.368 . S
C712 C708 1.368 . S
C712 C711 1.523 . S
H713 C688 0.950 . S
H714 C690 0.950 . S
H715 C691 0.949 . S
H716 C693 0.950 . S
H717 C695 0.950 . S
C718 C719 1.349 . S
C718 C720 1.327 . S
C718 H743 0.950 . S
C719 C718 1.349 . S
C719 C735 1.349 . S
C720 C718 1.327 . S
C720 C739 1.429 . S
C720 H744 0.950 . S
C721 C738 1.574 . S
C721 C740 1.368 . S
C721 H745 0.949 . S
H722 C726 0.949 . S
C723 C724 1.349 . S
C723 C725 1.327 . S
C723 H746 0.950 . S
C724 C723 1.349 . S
C724 C736 1.349 . S
C725 C723 1.327 . S
C725 C741 1.429 . S
C725 H747 0.950 . S
C726 H722 0.949 . S
C726 C734 1.574 . S
C726 C742 1.368 . S
H727 C735 0.950 . S
H728 C733 0.950 . S
H729 C734 0.949 . S
H730 C736 0.950 . S
H731 C737 0.950 . S
H732 C738 0.949 . S
C733 H728 0.950 . S
C733 C735 1.327 . S
C733 C739 1.429 . S
C734 C726 1.574 . S
C734 H729 0.949 . S
C734 C740 1.368 . S
C735 C719 1.349 . S
C735 H727 0.950 . S
C735 C733 1.327 . S
C736 C724 1.349 . S
C736 H730 0.950 . S
C736 C737 1.327 . S
C737 H731 0.950 . S
C737 C736 1.327 . S
C737 C741 1.429 . S
C738 C721 1.574 . S
C738 H732 0.949 . S
C738 C742 1.368 . S
C739 C720 1.429 . S
C739 C733 1.429 . S
C739 C740 1.523 . S
C740 C721 1.368 . S
C740 C734 1.368 . S
C740 C739 1.523 . S
C741 C725 1.429 . S
C741 C737 1.429 . S
C741 C742 1.523 . S
C742 C726 1.368 . S
C742 C738 1.368 . S
C742 C741 1.523 . S
H743 C718 0.950 . S
H744 C720 0.950 . S
H745 C721 0.949 . S
H746 C723 0.950 . S
H747 C725 0.950 . S
C748 C749 1.349 . S
C748 C750 1.327 . S
C748 H773 0.950 . S
C749 C748 1.349 . S
C749 C765 1.349 . S
C750 C748 1.327 . S
C750 C769 1.429 . S
C750 H774 0.950 . S
C751 C768 1.574 . S
C751 C770 1.368 . S
C751 H775 0.949 . S
H752 C756 0.949 . S
C753 C754 1.349 . S
C753 C755 1.327 . S
C753 H776 0.950 . S
C754 C753 1.349 . S
C754 C766 1.349 . S
C755 C753 1.327 . S
C755 C771 1.429 . S
C755 H777 0.950 . S
C756 H752 0.949 . S
C756 C764 1.574 . S
C756 C772 1.368 . S
H757 C765 0.950 . S
H758 C763 0.950 . S
H759 C764 0.949 . S
H760 C766 0.950 . S
H761 C767 0.950 . S
H762 C768 0.949 . S
C763 H758 0.950 . S
C763 C765 1.327 . S
C763 C769 1.429 . S
C764 C756 1.574 . S
C764 H759 0.949 . S
C764 C770 1.368 . S
C765 C749 1.349 . S
C765 H757 0.950 . S
C765 C763 1.327 . S
C766 C754 1.349 . S
C766 H760 0.950 . S
C766 C767 1.327 . S
C767 H761 0.950 . S
C767 C766 1.327 . S
C767 C771 1.429 . S
C768 C751 1.574 . S
C768 H762 0.949 . S
C768 C772 1.368 . S
C769 C750 1.429 . S
C769 C763 1.429 . S
C769 C770 1.523 . S
C770 C751 1.368 . S
C770 C764 1.368 . S
C770 C769 1.523 . S
C771 C755 1.429 . S
C771 C767 1.429 . S
C771 C772 1.523 . S
C772 C756 1.368 . S
C772 C768 1.368 . S
C772 C771 1.523 . S
H773 C748 0.950 . S
H774 C750 0.950 . S
H775 C751 0.949 . S
H776 C753 0.950 . S
H777 C755 0.950 . S
C778 C779 1.349 . S
C778 C780 1.327 . S
C778 H803 0.950 . S
C779 C778 1.349 . S
C779 C795 1.349 . S
C780 C778 1.327 . S
C780 C799 1.429 . S
C780 H804 0.950 . S
C781 C798 1.574 . S
C781 C800 1.368 . S
C781 H805 0.949 . S
H782 C786 0.949 . S
C783 C784 1.349 1_565 S
C783 C785 1.327 . S
C783 H806 0.950 . S
C784 C783 1.349 1_545 S
C784 C796 1.349 . S
C785 C783 1.327 . S
C785 C801 1.429 . S
C785 H807 0.950 . S
C786 H782 0.949 . S
C786 C794 1.574 . S
C786 C802 1.368 . S
H787 C795 0.950 . S
H788 C793 0.950 . S
H789 C794 0.949 . S
H790 C796 0.950 . S
H791 C797 0.950 . S
H792 C798 0.949 . S
C793 H788 0.950 . S
C793 C795 1.327 . S
C793 C799 1.429 . S
C794 C786 1.574 . S
C794 H789 0.949 . S
C794 C800 1.368 . S
C795 C779 1.349 . S
C795 H787 0.950 . S
C795 C793 1.327 . S
C796 C784 1.349 . S
C796 H790 0.950 . S
C796 C797 1.327 1_545 S
C797 H791 0.950 . S
C797 C796 1.327 1_565 S
C797 C801 1.429 . S
C798 C781 1.574 . S
C798 H792 0.949 . S
C798 C802 1.368 . S
C799 C780 1.429 . S
C799 C793 1.429 . S
C799 C800 1.523 . S
C800 C781 1.368 . S
C800 C794 1.368 . S
C800 C799 1.523 . S
C801 C785 1.429 . S
C801 C797 1.429 . S
C801 C802 1.523 . S
C802 C786 1.368 . S
C802 C798 1.368 . S
C802 C801 1.523 . S
H803 C778 0.950 . S
H804 C780 0.950 . S
H805 C781 0.949 . S
H806 C783 0.950 . S
H807 C785 0.950 . S
C808 C809 1.349 . S
C808 C810 1.327 . S
C808 H833 0.950 . S
C809 C808 1.349 . S
C809 C825 1.349 . S
C810 C808 1.327 . S
C810 C829 1.429 . S
C810 H834 0.950 . S
C811 C828 1.574 . S
C811 C830 1.368 . S
C811 H835 0.949 . S
H812 C816 0.949 . S
C813 C814 1.349 . S
C813 C815 1.327 1_565 S
C813 H836 0.950 . S
C814 C813 1.349 . S
C814 C826 1.349 1_565 S
C815 C813 1.327 1_545 S
C815 C831 1.429 . S
C815 H837 0.950 . S
C816 H812 0.949 . S
C816 C824 1.574 . S
C816 C832 1.368 . S
H817 C825 0.950 . S
H818 C823 0.950 . S
H819 C824 0.949 . S
H820 C826 0.950 . S
H821 C827 0.950 . S
H822 C828 0.949 . S
C823 H818 0.950 . S
C823 C825 1.327 . S
C823 C829 1.429 . S
C824 C816 1.574 . S
C824 H819 0.949 . S
C824 C830 1.368 . S
C825 C809 1.349 . S
C825 H817 0.950 . S
C825 C823 1.327 . S
C826 C814 1.349 1_545 S
C826 H820 0.950 . S
C826 C827 1.327 . S
C827 H821 0.950 . S
C827 C826 1.327 . S
C827 C831 1.429 . S
C828 C811 1.574 . S
C828 H822 0.949 . S
C828 C832 1.368 . S
C829 C810 1.429 . S
C829 C823 1.429 . S
C829 C830 1.523 . S
C830 C811 1.368 . S
C830 C824 1.368 . S
C830 C829 1.523 . S
C831 C815 1.429 . S
C831 C827 1.429 . S
C831 C832 1.523 . S
C832 C816 1.368 . S
C832 C828 1.368 . S
C832 C831 1.523 . S
H833 C808 0.950 . S
H834 C810 0.950 . S
H835 C811 0.949 . S
H836 C813 0.950 . S
H837 C815 0.950 . S
C838 C839 1.349 . S
C838 C840 1.327 . S
C838 H863 0.950 . S
C839 C838 1.349 . S
C839 C855 1.349 . S
C840 C838 1.327 . S
C840 C859 1.429 . S
C840 H864 0.950 . S
C841 C858 1.574 . S
C841 C860 1.368 . S
C841 H865 0.949 . S
H842 C846 0.949 . S
C843 C844 1.349 . S
C843 C845 1.327 . S
C843 H866 0.950 . S
C844 C843 1.349 . S
C844 C856 1.349 . S
C845 C843 1.327 . S
C845 C861 1.429 . S
C845 H867 0.950 . S
C846 H842 0.949 . S
C846 C854 1.574 . S
C846 C862 1.368 . S
H847 C855 0.950 . S
H848 C853 0.950 . S
H849 C854 0.949 . S
H850 C856 0.950 . S
H851 C857 0.950 . S
H852 C858 0.949 . S
C853 H848 0.950 . S
C853 C855 1.327 . S
C853 C859 1.429 . S
C854 C846 1.574 . S
C854 H849 0.949 . S
C854 C860 1.368 . S
C855 C839 1.349 . S
C855 H847 0.950 . S
C855 C853 1.327 . S
C856 C844 1.349 . S
C856 H850 0.950 . S
C856 C857 1.327 . S
C857 H851 0.950 . S
C857 C856 1.327 . S
C857 C861 1.429 . S
C858 C841 1.574 . S
C858 H852 0.949 . S
C858 C862 1.368 . S
C859 C840 1.429 . S
C859 C853 1.429 . S
C859 C860 1.523 . S
C860 C841 1.368 . S
C860 C854 1.368 . S
C860 C859 1.523 . S
C861 C845 1.429 . S
C861 C857 1.429 . S
C861 C862 1.523 . S
C862 C846 1.368 . S
C862 C858 1.368 . S
C862 C861 1.523 . S
H863 C838 0.950 . S
H864 C840 0.950 . S
H865 C841 0.949 . S
H866 C843 0.950 . S
H867 C845 0.950 . S
C868 C869 1.349 . S
C868 C870 1.327 . S
C868 H893 0.950 . S
C869 C868 1.349 . S
C869 C885 1.349 . S
C870 C868 1.327 . S
C870 C889 1.429 . S
C870 H894 0.950 . S
C871 C888 1.574 . S
C871 C890 1.368 . S
C871 H895 0.949 . S
H872 C876 0.949 . S
C873 C874 1.349 . S
C873 C875 1.327 . S
C873 H896 0.950 . S
C874 C873 1.349 . S
C874 C886 1.349 . S
C875 C873 1.327 . S
C875 C891 1.429 . S
C875 H897 0.950 . S
C876 H872 0.949 . S
C876 C884 1.574 . S
C876 C892 1.368 . S
H877 C885 0.950 . S
H878 C883 0.950 . S
H879 C884 0.949 . S
H880 C886 0.950 . S
H881 C887 0.950 . S
H882 C888 0.949 . S
C883 H878 0.950 . S
C883 C885 1.327 . S
C883 C889 1.429 . S
C884 C876 1.574 . S
C884 H879 0.949 . S
C884 C890 1.368 . S
C885 C869 1.349 . S
C885 H877 0.950 . S
C885 C883 1.327 . S
C886 C874 1.349 . S
C886 H880 0.950 . S
C886 C887 1.327 . S
C887 H881 0.950 . S
C887 C886 1.327 . S
C887 C891 1.429 . S
C888 C871 1.574 . S
C888 H882 0.949 . S
C888 C892 1.368 . S
C889 C870 1.429 . S
C889 C883 1.429 . S
C889 C890 1.523 . S
C890 C871 1.368 . S
C890 C884 1.368 . S
C890 C889 1.523 . S
C891 C875 1.429 . S
C891 C887 1.429 . S
C891 C892 1.523 . S
C892 C876 1.368 . S
C892 C888 1.368 . S
C892 C891 1.523 . S
H893 C868 0.950 . S
H894 C870 0.950 . S
H895 C871 0.949 . S
H896 C873 0.950 . S
H897 C875 0.950 . S
C898 C899 1.349 1_545 S
C898 C900 1.327 . S
C898 H923 0.950 . S
C899 C898 1.349 1_565 S
C899 C915 1.349 . S
C900 C898 1.327 . S
C900 C919 1.429 . S
C900 H924 0.950 . S
C901 C918 1.574 . S
C901 C920 1.368 . S
C901 H925 0.949 . S
H902 C906 0.949 . S
C903 C904 1.349 . S
C903 C905 1.327 . S
C903 H926 0.950 . S
C904 C903 1.349 . S
C904 C916 1.349 . S
C905 C903 1.327 . S
C905 C921 1.429 . S
C905 H927 0.950 . S
C906 H902 0.949 . S
C906 C914 1.574 . S
C906 C922 1.368 . S
H907 C915 0.950 . S
H908 C913 0.950 . S
H909 C914 0.949 . S
H910 C916 0.950 . S
H911 C917 0.950 . S
H912 C918 0.949 . S
C913 H908 0.950 . S
C913 C915 1.327 1_545 S
C913 C919 1.429 . S
C914 C906 1.574 . S
C914 H909 0.949 . S
C914 C920 1.368 . S
C915 C899 1.349 . S
C915 H907 0.950 . S
C915 C913 1.327 1_565 S
C916 C904 1.349 . S
C916 H910 0.950 . S
C916 C917 1.327 . S
C917 H911 0.950 . S
C917 C916 1.327 . S
C917 C921 1.429 . S
C918 C901 1.574 . S
C918 H912 0.949 . S
C918 C922 1.368 . S
C919 C900 1.429 . S
C919 C913 1.429 . S
C919 C920 1.523 . S
C920 C901 1.368 . S
C920 C914 1.368 . S
C920 C919 1.523 . S
C921 C905 1.429 . S
C921 C917 1.429 . S
C921 C922 1.523 . S
C922 C906 1.368 . S
C922 C918 1.368 . S
C922 C921 1.523 . S
H923 C898 0.950 . S
H924 C900 0.950 . S
H925 C901 0.949 . S
H926 C903 0.950 . S
H927 C905 0.950 . S
C928 C929 1.349 . S
C928 C930 1.327 . S
C928 H953 0.950 . S
C929 C928 1.349 . S
C929 C945 1.349 . S
C930 C928 1.327 . S
C930 C949 1.429 . S
C930 H954 0.950 . S
C931 C948 1.574 . S
C931 C950 1.368 . S
C931 H955 0.949 . S
H932 C936 0.949 . S
C933 C934 1.349 . S
C933 C935 1.327 1_545 S
C933 H956 0.950 . S
C934 C933 1.349 . S
C934 C946 1.349 1_545 S
C935 C933 1.327 1_565 S
C935 C951 1.429 . S
C935 H957 0.950 . S
C936 H932 0.949 . S
C936 C944 1.574 . S
C936 C952 1.368 . S
H937 C945 0.950 . S
H938 C943 0.950 . S
H939 C944 0.949 . S
H940 C946 0.950 . S
H941 C947 0.950 . S
H942 C948 0.949 . S
C943 H938 0.950 . S
C943 C945 1.327 . S
C943 C949 1.429 . S
C944 C936 1.574 . S
C944 H939 0.949 . S
C944 C950 1.368 . S
C945 C929 1.349 . S
C945 H937 0.950 . S
C945 C943 1.327 . S
C946 C934 1.349 1_565 S
C946 H940 0.950 . S
C946 C947 1.327 . S
C947 H941 0.950 . S
C947 C946 1.327 . S
C947 C951 1.429 . S
C948 C931 1.574 . S
C948 H942 0.949 . S
C948 C952 1.368 . S
C949 C930 1.429 . S
C949 C943 1.429 . S
C949 C950 1.523 . S
C950 C931 1.368 . S
C950 C944 1.368 . S
C950 C949 1.523 . S
C951 C935 1.429 . S
C951 C947 1.429 . S
C951 C952 1.523 . S
C952 C936 1.368 . S
C952 C948 1.368 . S
C952 C951 1.523 . S
H953 C928 0.950 . S
H954 C930 0.950 . S
H955 C931 0.949 . S
H956 C933 0.950 . S
H957 C935 0.950 . S
C958 C959 1.349 . S
C958 C960 1.327 . S
C958 H983 0.950 . S
C959 C958 1.349 . S
C959 C975 1.349 . S
C960 C958 1.327 . S
C960 C979 1.429 . S
C960 H984 0.950 . S
C961 C978 1.574 . S
C961 C980 1.368 . S
C961 H985 0.949 . S
H962 C966 0.949 . S
C963 C964 1.349 . S
C963 C965 1.327 . S
C963 H986 0.950 . S
C964 C963 1.349 . S
C964 C976 1.349 . S
C965 C963 1.327 . S
C965 C981 1.429 . S
C965 H987 0.950 . S
C966 H962 0.949 . S
C966 C974 1.574 . S
C966 C982 1.368 . S
H967 C975 0.950 . S
H968 C973 0.950 . S
H969 C974 0.949 . S
H970 C976 0.950 . S
H971 C977 0.950 . S
H972 C978 0.949 . S
C973 H968 0.950 . S
C973 C975 1.327 . S
C973 C979 1.429 . S
C974 C966 1.574 . S
C974 H969 0.949 . S
C974 C980 1.368 . S
C975 C959 1.349 . S
C975 H967 0.950 . S
C975 C973 1.327 . S
C976 C964 1.349 . S
C976 H970 0.950 . S
C976 C977 1.327 . S
C977 H971 0.950 . S
C977 C976 1.327 . S
C977 C981 1.429 . S
C978 C961 1.574 . S
C978 H972 0.949 . S
C978 C982 1.368 . S
C979 C960 1.429 . S
C979 C973 1.429 . S
C979 C980 1.523 . S
C980 C961 1.368 . S
C980 C974 1.368 . S
C980 C979 1.523 . S
C981 C965 1.429 . S
C981 C977 1.429 . S
C981 C982 1.523 . S
C982 C966 1.368 . S
C982 C978 1.368 . S
C982 C981 1.523 . S
H983 C958 0.950 . S
H984 C960 0.950 . S
H985 C961 0.949 . S
H986 C963 0.950 . S
H987 C965 0.950 . S
C988 C989 1.349 . S
C988 C990 1.327 . S
C988 H1013 0.950 . S
C989 C988 1.349 . S
C989 C1005 1.349 . S
C990 C988 1.327 . S
C990 C1009 1.429 . S
C990 H1014 0.950 . S
C991 C1008 1.574 . S
C991 C1010 1.368 . S
C991 H1015 0.949 . S
H992 C996 0.949 . S
C993 C994 1.349 . S
C993 C995 1.327 . S
C993 H1016 0.950 . S
C994 C993 1.349 . S
C994 C1006 1.349 . S
C995 C993 1.327 . S
C995 C1011 1.429 . S
C995 H1017 0.950 . S
C996 H992 0.949 . S
C996 C1004 1.574 . S
C996 C1012 1.368 . S
H997 C1005 0.950 . S
H998 C1003 0.950 . S
H999 C1004 0.949 . S
H1000 C1006 0.950 . S
H1001 C1007 0.950 . S
H1002 C1008 0.949 . S
C1003 H998 0.950 . S
C1003 C1005 1.327 . S
C1003 C1009 1.429 . S
C1004 C996 1.574 . S
C1004 H999 0.949 . S
C1004 C1010 1.368 . S
C1005 C989 1.349 . S
C1005 H997 0.950 . S
C1005 C1003 1.327 . S
C1006 C994 1.349 . S
C1006 H1000 0.950 . S
C1006 C1007 1.327 . S
C1007 H1001 0.950 . S
C1007 C1006 1.327 . S
C1007 C1011 1.429 . S
C1008 C991 1.574 . S
C1008 H1002 0.949 . S
C1008 C1012 1.368 . S
C1009 C990 1.429 . S
C1009 C1003 1.429 . S
C1009 C1010 1.523 . S
C1010 C991 1.368 . S
C1010 C1004 1.368 . S
C1010 C1009 1.523 . S
C1011 C995 1.429 . S
C1011 C1007 1.429 . S
C1011 C1012 1.523 . S
C1012 C996 1.368 . S
C1012 C1008 1.368 . S
C1012 C1011 1.523 . S
H1013 C988 0.950 . S
H1014 C990 0.950 . S
H1015 C991 0.949 . S
H1016 C993 0.950 . S
H1017 C995 0.950 . S
C1018 C1019 1.349 . S
C1018 C1020 1.327 . S
C1018 H1043 0.950 . S
C1019 C1018 1.349 . S
C1019 C1035 1.349 . S
C1020 C1018 1.327 . S
C1020 C1039 1.429 . S
C1020 H1044 0.950 . S
C1021 C1038 1.574 . S
C1021 C1040 1.368 . S
C1021 H1045 0.949 . S
H1022 C1026 0.949 . S
C1023 C1024 1.349 . S
C1023 C1025 1.327 1_545 S
C1023 H1046 0.950 . S
C1024 C1023 1.349 . S
C1024 C1036 1.349 1_545 S
C1025 C1023 1.327 1_565 S
C1025 C1041 1.429 . S
C1025 H1047 0.950 . S
C1026 H1022 0.949 . S
C1026 C1034 1.574 . S
C1026 C1042 1.368 . S
H1027 C1035 0.950 . S
H1028 C1033 0.950 . S
H1029 C1034 0.949 . S
H1030 C1036 0.950 . S
H1031 C1037 0.950 . S
H1032 C1038 0.949 . S
C1033 H1028 0.950 . S
C1033 C1035 1.327 . S
C1033 C1039 1.429 . S
C1034 C1026 1.574 . S
C1034 H1029 0.949 . S
C1034 C1040 1.368 . S
C1035 C1019 1.349 . S
C1035 H1027 0.950 . S
C1035 C1033 1.327 . S
C1036 C1024 1.349 1_565 S
C1036 H1030 0.950 . S
C1036 C1037 1.327 . S
C1037 H1031 0.950 . S
C1037 C1036 1.327 . S
C1037 C1041 1.429 . S
C1038 C1021 1.574 . S
C1038 H1032 0.949 . S
C1038 C1042 1.368 . S
C1039 C1020 1.429 . S
C1039 C1033 1.429 . S
C1039 C1040 1.523 . S
C1040 C1021 1.368 . S
C1040 C1034 1.368 . S
C1040 C1039 1.523 . S
C1041 C1025 1.429 . S
C1041 C1037 1.429 . S
C1041 C1042 1.523 . S
C1042 C1026 1.368 . S
C1042 C1038 1.368 . S
C1042 C1041 1.523 . S
H1043 C1018 0.950 . S
H1044 C1020 0.950 . S
H1045 C1021 0.949 . S
H1046 C1023 0.950 . S
H1047 C1025 0.950 . S
C1048 C1049 1.349 . S
C1048 C1050 1.327 . S
C1048 H1073 0.950 . S
C1049 C1048 1.349 . S
C1049 C1065 1.349 . S
C1050 C1048 1.327 . S
C1050 C1069 1.429 . S
C1050 H1074 0.950 . S
C1051 C1068 1.574 . S
C1051 C1070 1.368 . S
C1051 H1075 0.949 . S
H1052 C1056 0.949 . S
C1053 C1054 1.349 . S
C1053 C1055 1.327 1_565 S
C1053 H1076 0.950 . S
C1054 C1053 1.349 . S
C1054 C1066 1.349 1_565 S
C1055 C1053 1.327 1_545 S
C1055 C1071 1.429 . S
C1055 H1077 0.950 . S
C1056 H1052 0.949 . S
C1056 C1064 1.574 . S
C1056 C1072 1.368 . S
H1057 C1065 0.950 . S
H1058 C1063 0.950 . S
H1059 C1064 0.949 . S
H1060 C1066 0.950 . S
H1061 C1067 0.950 . S
H1062 C1068 0.949 . S
C1063 H1058 0.950 . S
C1063 C1065 1.327 . S
C1063 C1069 1.429 . S
C1064 C1056 1.574 . S
C1064 H1059 0.949 . S
C1064 C1070 1.368 . S
C1065 C1049 1.349 . S
C1065 H1057 0.950 . S
C1065 C1063 1.327 . S
C1066 C1054 1.349 1_545 S
C1066 H1060 0.950 . S
C1066 C1067 1.327 . S
C1067 H1061 0.950 . S
C1067 C1066 1.327 . S
C1067 C1071 1.429 . S
C1068 C1051 1.574 . S
C1068 H1062 0.949 . S
C1068 C1072 1.368 . S
C1069 C1050 1.429 . S
C1069 C1063 1.429 . S
C1069 C1070 1.523 . S
C1070 C1051 1.368 . S
C1070 C1064 1.368 . S
C1070 C1069 1.523 . S
C1071 C1055 1.429 . S
C1071 C1067 1.429 . S
C1071 C1072 1.523 . S
C1072 C1056 1.368 . S
C1072 C1068 1.368 . S
C1072 C1071 1.523 . S
H1073 C1048 0.950 . S
H1074 C1050 0.950 . S
H1075 C1051 0.949 . S
H1076 C1053 0.950 . S
H1077 C1055 0.950 . S
C1078 C1079 1.349 . S
C1078 C1080 1.327 . S
C1078 H1103 0.950 . S
C1079 C1078 1.349 . S
C1079 C1095 1.349 . S
C1080 C1078 1.327 . S
C1080 C1099 1.429 . S
C1080 H1104 0.950 . S
C1081 C1098 1.574 . S
C1081 C1100 1.368 . S
C1081 H1105 0.949 . S
H1082 C1086 0.949 . S
C1083 C1084 1.349 . S
C1083 C1085 1.327 . S
C1083 H1106 0.950 . S
C1084 C1083 1.349 . S
C1084 C1096 1.349 . S
C1085 C1083 1.327 . S
C1085 C1101 1.429 . S
C1085 H1107 0.950 . S
C1086 H1082 0.949 . S
C1086 C1094 1.574 . S
C1086 C1102 1.368 . S
H1087 C1095 0.950 . S
H1088 C1093 0.950 . S
H1089 C1094 0.949 . S
H1090 C1096 0.950 . S
H1091 C1097 0.950 . S
H1092 C1098 0.949 . S
C1093 H1088 0.950 . S
C1093 C1095 1.327 . S
C1093 C1099 1.429 . S
C1094 C1086 1.574 . S
C1094 H1089 0.949 . S
C1094 C1100 1.368 . S
C1095 C1079 1.349 . S
C1095 H1087 0.950 . S
C1095 C1093 1.327 . S
C1096 C1084 1.349 . S
C1096 H1090 0.950 . S
C1096 C1097 1.327 . S
C1097 H1091 0.950 . S
C1097 C1096 1.327 . S
C1097 C1101 1.429 . S
C1098 C1081 1.574 . S
C1098 H1092 0.949 . S
C1098 C1102 1.368 . S
C1099 C1080 1.429 . S
C1099 C1093 1.429 . S
C1099 C1100 1.523 . S
C1100 C1081 1.368 . S
C1100 C1094 1.368 . S
C1100 C1099 1.523 . S
C1101 C1085 1.429 . S
C1101 C1097 1.429 . S
C1101 C1102 1.523 . S
C1102 C1086 1.368 . S
C1102 C1098 1.368 . S
C1102 C1101 1.523 . S
H1103 C1078 0.950 . S
H1104 C1080 0.950 . S
H1105 C1081 0.949 . S
H1106 C1083 0.950 . S
H1107 C1085 0.950 . S
C1108 C1109 1.349 . S
C1108 C1110 1.327 . S
C1108 H1133 0.950 . S
C1109 C1108 1.349 . S
C1109 C1125 1.349 . S
C1110 C1108 1.327 . S
C1110 C1129 1.429 . S
C1110 H1134 0.950 . S
C1111 C1128 1.574 . S
C1111 C1130 1.368 . S
C1111 H1135 0.949 . S
H1112 C1116 0.949 . S
C1113 C1114 1.349 . S
C1113 C1115 1.327 . S
C1113 H1136 0.950 . S
C1114 C1113 1.349 . S
C1114 C1126 1.349 . S
C1115 C1113 1.327 . S
C1115 C1131 1.429 . S
C1115 H1137 0.950 . S
C1116 H1112 0.949 . S
C1116 C1124 1.574 . S
C1116 C1132 1.368 . S
H1117 C1125 0.950 . S
H1118 C1123 0.950 . S
H1119 C1124 0.949 . S
H1120 C1126 0.950 . S
H1121 C1127 0.950 . S
H1122 C1128 0.949 . S
C1123 H1118 0.950 . S
C1123 C1125 1.327 . S
C1123 C1129 1.429 . S
C1124 C1116 1.574 . S
C1124 H1119 0.949 . S
C1124 C1130 1.368 . S
C1125 C1109 1.349 . S
C1125 H1117 0.950 . S
C1125 C1123 1.327 . S
C1126 C1114 1.349 . S
C1126 H1120 0.950 . S
C1126 C1127 1.327 . S
C1127 H1121 0.950 . S
C1127 C1126 1.327 . S
C1127 C1131 1.429 . S
C1128 C1111 1.574 . S
C1128 H1122 0.949 . S
C1128 C1132 1.368 . S
C1129 C1110 1.429 . S
C1129 C1123 1.429 . S
C1129 C1130 1.523 . S
C1130 C1111 1.368 . S
C1130 C1124 1.368 . S
C1130 C1129 1.523 . S
C1131 C1115 1.429 . S
C1131 C1127 1.429 . S
C1131 C1132 1.523 . S
C1132 C1116 1.368 . S
C1132 C1128 1.368 . S
C1132 C1131 1.523 . S
H1133 C1108 0.950 . S
H1134 C1110 0.950 . S
H1135 C1111 0.949 . S
H1136 C1113 0.950 . S
H1137 C1115 0.950 . S
C1138 C1139 1.349 . S
C1138 C1140 1.327 . S
C1138 H1163 0.950 . S
C1139 C1138 1.349 . S
C1139 C1155 1.349 . S
C1140 C1138 1.327 . S
C1140 C1159 1.429 . S
C1140 H1164 0.950 . S
C1141 C1158 1.574 . S
C1141 C1160 1.368 . S
C1141 H1165 0.949 . S
H1142 C1146 0.949 . S
C1143 C1144 1.349 . S
C1143 C1145 1.327 1_565 S
C1143 H1166 0.950 . S
C1144 C1143 1.349 . S
C1144 C1156 1.349 1_565 S
C1145 C1143 1.327 1_545 S
C1145 C1161 1.429 . S
C1145 H1167 0.950 . S
C1146 H1142 0.949 . S
C1146 C1154 1.574 . S
C1146 C1162 1.368 . S
H1147 C1155 0.950 . S
H1148 C1153 0.950 . S
H1149 C1154 0.949 . S
H1150 C1156 0.950 . S
H1151 C1157 0.950 . S
H1152 C1158 0.949 . S
C1153 H1148 0.950 . S
C1153 C1155 1.327 . S
C1153 C1159 1.429 . S
C1154 C1146 1.574 . S
C1154 H1149 0.949 . S
C1154 C1160 1.368 . S
C1155 C1139 1.349 . S
C1155 H1147 0.950 . S
C1155 C1153 1.327 . S
C1156 C1144 1.349 1_545 S
C1156 H1150 0.950 . S
C1156 C1157 1.327 . S
C1157 H1151 0.950 . S
C1157 C1156 1.327 . S
C1157 C1161 1.429 . S
C1158 C1141 1.574 . S
C1158 H1152 0.949 . S
C1158 C1162 1.368 . S
C1159 C1140 1.429 . S
C1159 C1153 1.429 . S
C1159 C1160 1.523 . S
C1160 C1141 1.368 . S
C1160 C1154 1.368 . S
C1160 C1159 1.523 . S
C1161 C1145 1.429 . S
C1161 C1157 1.429 . S
C1161 C1162 1.523 . S
C1162 C1146 1.368 . S
C1162 C1158 1.368 . S
C1162 C1161 1.523 . S
H1163 C1138 0.950 . S
H1164 C1140 0.950 . S
H1165 C1141 0.949 . S
H1166 C1143 0.950 . S
H1167 C1145 0.950 . S
C209 C185 1.509 . S
C214 C3 1.509 . S
C239 C30 1.509 . S
C244 C4 1.509 . S
C269 C153 1.509 . S
C274 C17 1.509 . S
C299 C16 1.509 . S
C304 C96 1.509 . S
C329 C29 1.509 . S
C334 C159 1.509 . S
C359 C127 1.509 . S
C364 C49 1.509 . S
C389 C44 1.509 . S
C394 C68 1.509 . S
C419 C135 1.509 . S
C424 C55 1.509 . S
C449 C56 1.509 . S
C454 C82 1.509 . S
C479 C205 1.509 . S
C484 C69 1.509 . S
C509 C107 1.509 . S
C514 C81 1.509 . S
C539 C179 1.509 . S
C544 C101 1.509 . S
C569 C108 1.509 . S
C574 C140 1.509 . S
C599 C200 1.509 . S
C604 C122 1.509 . S
C629 C148 1.509 . S
C634 C174 1.509 . S
C659 C186 1.509 . S
C664 C160 1.509 . S
C689 C70 1.597 . S
C694 C10 1.596 . S
C719 C5 1.597 . S
C724 C75 1.596 . S
C749 C18 1.597 . S
C754 C62 1.596 . S
C779 C57 1.597 . S
C784 C23 1.596 . S
C809 C94 1.597 . S
C814 C36 1.596 . S
C839 C95 1.596 . S
C844 C31 1.597 . S
C869 C88 1.596 . S
C874 C42 1.597 . S
C899 C43 1.596 . S
C904 C83 1.597 . S
C929 C172 1.597 . S
C934 C114 1.596 . S
C959 C109 1.597 . S
C964 C173 1.596 . S
C989 C120 1.597 . S
C994 C166 1.596 . S
C1019 C161 1.597 . S
C1024 C121 1.596 . S
C1049 C198 1.597 . S
C1054 C134 1.596 . S
C1079 C199 1.596 . S
C1084 C133 1.597 . S
C1109 C146 1.597 . S
C1114 C192 1.596 . S
C1139 C187 1.597 . S
C1144 C147 1.596 . S
