# Generated by pormake.
# Topology zfr, (5)-cn, num edge types: 1
# Building blocks:
#     Node 0, Type 0, BuildingBlock: BEQFEK_clean_sbu_0, # of connection points: 5
#     Node 1, Type 0, BuildingBlock: BEQFEK_clean_sbu_0, # of connection points: 5
#     Node 2, Type 0, BuildingBlock: BEQFEK_clean_sbu_0, # of connection points: 5
#     Node 3, Type 0, BuildingBlock: BEQFEK_clean_sbu_0, # of connection points: 5
#     Node 4, Type 0, BuildingBlock: BEQFEK_clean_sbu_0, # of connection points: 5
#     Node 5, Type 0, BuildingBlock: BEQFEK_clean_sbu_0, # of connection points: 5
#     Node 6, Type 0, BuildingBlock: BEQFEK_clean_sbu_0, # of connection points: 5
#     Node 7, Type 0, BuildingBlock: BEQFEK_clean_sbu_0, # of connection points: 5
#     Edge 8, Type (0, 0), BuildingBlock: XIVTED_clean_linker_0, # of connection points: 2
#     Edge 9, Type (0, 0), BuildingBlock: XIVTED_clean_linker_0, # of connection points: 2
#     Edge 10, Type (0, 0), BuildingBlock: XIVTED_clean_linker_0, # of connection points: 2
#     Edge 11, Type (0, 0), BuildingBlock: XIVTED_clean_linker_0, # of connection points: 2
#     Edge 12, Type (0, 0), BuildingBlock: XIVTED_clean_linker_0, # of connection points: 2
#     Edge 13, Type (0, 0), BuildingBlock: XIVTED_clean_linker_0, # of connection points: 2
#     Edge 14, Type (0, 0), BuildingBlock: XIVTED_clean_linker_0, # of connection points: 2
#     Edge 15, Type (0, 0), BuildingBlock: XIVTED_clean_linker_0, # of connection points: 2
#     Edge 16, Type (0, 0), BuildingBlock: XIVTED_clean_linker_0, # of connection points: 2
#     Edge 17, Type (0, 0), BuildingBlock: XIVTED_clean_linker_0, # of connection points: 2
#     Edge 18, Type (0, 0), BuildingBlock: XIVTED_clean_linker_0, # of connection points: 2
#     Edge 19, Type (0, 0), BuildingBlock: XIVTED_clean_linker_0, # of connection points: 2
#     Edge 20, Type (0, 0), BuildingBlock: XIVTED_clean_linker_0, # of connection points: 2
#     Edge 21, Type (0, 0), BuildingBlock: XIVTED_clean_linker_0, # of connection points: 2
#     Edge 22, Type (0, 0), BuildingBlock: XIVTED_clean_linker_0, # of connection points: 2
#     Edge 23, Type (0, 0), BuildingBlock: XIVTED_clean_linker_0, # of connection points: 2
#     Edge 24, Type (0, 0), BuildingBlock: XIVTED_clean_linker_0, # of connection points: 2
#     Edge 25, Type (0, 0), BuildingBlock: XIVTED_clean_linker_0, # of connection points: 2
#     Edge 26, Type (0, 0), BuildingBlock: XIVTED_clean_linker_0, # of connection points: 2
#     Edge 27, Type (0, 0), BuildingBlock: XIVTED_clean_linker_0, # of connection points: 2
# Relax obj value: 0.284
# Max RMSD: 0.233
# Mean RMSD: 0.233
data_MOF--net-zfr--node1-BEQFEK_clean_sbu_0--edge1-XIVTED_clean_linker_0
_symmetry_space_group_name_H-M    P1
_symmetry_Int_Tables_number       1
_symmetry_cell_setting            triclinic
loop_
_symmetry_equiv_pos_as_xyz
'x, y, z'
_cell_length_a     50.854522
_cell_length_b     50.839765
_cell_length_c     18.549563
_cell_angle_alpha  90.06272
_cell_angle_beta   90.043432
_cell_angle_gamma 89.979885
loop_
_atom_site_label
_atom_site_type_symbol
_atom_site_fract_x
_atom_site_fract_y
_atom_site_fract_z
_atom_type_partial_charge
Co0 Co 0.13731 0.35053 0.11465 0.0
Co1 Co 0.10779 0.34577 0.26095 0.0
C2 C 0.12811 0.39769 0.20286 0.0
O3 O 0.13834 0.38738 0.14712 0.0
O4 O 0.11582 0.38381 0.24885 0.0
C5 C 0.15862 0.36625 0.98082 0.0
O6 O 0.1549 0.38994 0.0072 0.0
C7 C 0.11029 0.35252 0.41362 0.0
C8 C 0.07839 0.32742 0.4559 0.0
C9 C 0.09897 0.34365 0.47674 0.0
N10 N 0.09709 0.34212 0.35795 0.0
N11 N 0.07775 0.32743 0.3832 0.0
C12 C 0.13545 0.36759 0.40586 0.0
H13 H 0.14444 0.36402 0.3523 0.0
H14 H 0.14966 0.36194 0.44858 0.0
H15 H 0.13128 0.3889 0.41132 0.0
C16 C 0.17265 0.31223 0.18498 0.0
N17 N 0.15127 0.32781 0.18453 0.0
N18 N 0.13804 0.3245 0.24473 0.0
C19 C 0.15024 0.30602 0.28471 0.0
C20 C 0.17263 0.29786 0.2484 0.0
C21 C 0.19192 0.31052 0.12428 0.0
H22 H 0.18189 0.30224 0.07618 0.0
H23 H 0.19877 0.33057 0.11005 0.0
H24 H 0.20899 0.29791 0.13818 0.0
O25 O 0.1006 0.34059 0.09232 0.0
O26 O 0.07892 0.33576 0.19514 0.0
H27 H 0.11934 0.29441 0.35661 0.0
H28 H 0.15013 0.27779 0.37246 0.0
C29 C 0.14099 0.29674 0.35698 0.0
H30 H 0.14644 0.31147 0.39842 0.0
H31 H 0.06486 0.3166 0.35098 0.0
O32 O 0.15527 0.34649 0.02155 0.0
C33 C 0.07965 0.33508 0.12655 0.0
Co34 Co 0.63798 0.1361 0.38208 0.0
Co35 Co 0.64426 0.10471 0.52497 0.0
C36 C 0.59209 0.12705 0.47303 0.0
O37 O 0.60197 0.13926 0.41985 0.0
O38 O 0.60614 0.11268 0.51391 0.0
C39 C 0.62143 0.15331 0.24664 0.0
O40 O 0.59854 0.14638 0.27325 0.0
C41 C 0.63807 0.10641 0.6781 0.0
C42 C 0.66368 0.07459 0.71862 0.0
C43 C 0.6474 0.09496 0.74069 0.0
N44 N 0.64832 0.09352 0.62168 0.0
N45 N 0.66332 0.07422 0.64592 0.0
C46 C 0.62257 0.13137 0.67123 0.0
H47 H 0.62669 0.14106 0.61891 0.0
H48 H 0.62732 0.14518 0.71575 0.0
H49 H 0.60129 0.12667 0.67359 0.0
C50 C 0.67836 0.16962 0.45037 0.0
N51 N 0.66232 0.1486 0.44974 0.0
N52 N 0.66584 0.13485 0.509 0.0
C53 C 0.68488 0.14638 0.54856 0.0
C54 C 0.69325 0.16885 0.51294 0.0
C55 C 0.67974 0.18941 0.3909 0.0
H56 H 0.68619 0.17945 0.34066 0.0
H57 H 0.65982 0.19755 0.3809 0.0
H58 H 0.69362 0.20559 0.40368 0.0
O59 O 0.64588 0.09892 0.35755 0.0
O60 O 0.65351 0.07626 0.45748 0.0
H61 H 0.69675 0.11496 0.61839 0.0
H62 H 0.71313 0.14572 0.6365 0.0
C63 C 0.69426 0.1366 0.62025 0.0
H64 H 0.67947 0.14154 0.66192 0.0
H65 H 0.67413 0.06156 0.61299 0.0
O66 O 0.6413 0.15379 0.28816 0.0
C67 C 0.65216 0.07759 0.38906 0.0
Co68 Co 0.85517 0.64036 0.6232 0.0
Co69 Co 0.88455 0.6446 0.77003 0.0
C70 C 0.86347 0.59303 0.71142 0.0
O71 O 0.85356 0.60355 0.65554 0.0
O72 O 0.87588 0.60667 0.75786 0.0
C73 C 0.83319 0.62488 0.48937 0.0
O74 O 0.83583 0.60112 0.51614 0.0
C75 C 0.88211 0.63833 0.92304 0.0
C76 C 0.91432 0.66331 0.96437 0.0
C77 C 0.89356 0.64746 0.98586 0.0
N78 N 0.89538 0.64828 0.86699 0.0
N79 N 0.91492 0.66287 0.8917 0.0
C80 C 0.8568 0.62347 0.91572 0.0
H81 H 0.8478 0.62694 0.8621 0.0
H82 H 0.84269 0.6294 0.95836 0.0
H83 H 0.86079 0.60213 0.92153 0.0
C84 C 0.82049 0.6794 0.69291 0.0
N85 N 0.84152 0.66336 0.69296 0.0
N86 N 0.85465 0.6664 0.75351 0.0
C87 C 0.84272 0.68513 0.7933 0.0
C88 C 0.82062 0.69378 0.75642 0.0
C89 C 0.8015 0.68156 0.63159 0.0
H90 H 0.81198 0.68921 0.58355 0.0
H91 H 0.79395 0.6617 0.61776 0.0
H92 H 0.78486 0.69485 0.64458 0.0
O93 O 0.89202 0.64971 0.60131 0.0
O94 O 0.91363 0.65413 0.70447 0.0
H95 H 0.8736 0.69624 0.86604 0.0
H96 H 0.84298 0.71318 0.88172 0.0
C97 C 0.85192 0.69417 0.86595 0.0
H98 H 0.84623 0.67942 0.90695 0.0
H99 H 0.92788 0.67341 0.85909 0.0
O100 O 0.83742 0.64459 0.5298 0.0
C101 C 0.91301 0.65487 0.63589 0.0
Co102 Co 0.34846 0.85615 0.87693 0.0
Co103 Co 0.3469 0.88587 0.02433 0.0
C104 C 0.39729 0.86426 0.96074 0.0
O105 O 0.38581 0.85495 0.90535 0.0
O106 O 0.38461 0.87653 0.0096 0.0
C107 C 0.36115 0.83411 0.74101 0.0
O108 O 0.38554 0.83545 0.76402 0.0
C109 C 0.35583 0.89189 0.17807 0.0
C110 C 0.3192 0.91123 0.21357 0.0
C111 C 0.34147 0.89851 0.23896 0.0
N112 N 0.34199 0.89893 0.11961 0.0
N113 N 0.32058 0.91141 0.14106 0.0
C114 C 0.38229 0.87914 0.17465 0.0
H115 H 0.39493 0.8906 0.13757 0.0
H116 H 0.38028 0.85888 0.15294 0.0
H117 H 0.39206 0.87868 0.2281 0.0
C118 C 0.3109 0.82154 0.95122 0.0
N119 N 0.32669 0.84276 0.94952 0.0
N120 N 0.3256 0.85513 0.01181 0.0
C121 C 0.30904 0.84189 0.05552 0.0
C122 C 0.29911 0.82039 0.01839 0.0
C123 C 0.30664 0.80353 0.88848 0.0
H124 H 0.29943 0.81512 0.84183 0.0
H125 H 0.32569 0.79455 0.87277 0.0
H126 H 0.29221 0.78782 0.9009 0.0
O127 O 0.33861 0.89243 0.85372 0.0
O128 O 0.33656 0.91434 0.95666 0.0
H129 H 0.29298 0.86707 0.1365 0.0
H130 H 0.2928 0.83278 0.16079 0.0
C131 C 0.30413 0.8484 0.13303 0.0
H132 H 0.32314 0.85066 0.16132 0.0
H133 H 0.3059 0.91814 0.10632 0.0
O134 O 0.34252 0.83822 0.785 0.0
C135 C 0.33431 0.91352 0.88838 0.0
Co136 Co 0.13469 0.64017 0.3556 0.0
Co137 Co 0.1052 0.64481 0.20918 0.0
C138 C 0.12618 0.59304 0.26686 0.0
O139 O 0.13624 0.60342 0.32278 0.0
O140 O 0.11371 0.60682 0.22091 0.0
C141 C 0.15608 0.6246 0.48953 0.0
O142 O 0.15249 0.60088 0.46321 0.0
C143 C 0.10794 0.63832 0.05655 0.0
C144 C 0.0757 0.66299 0.01408 0.0
C145 C 0.09652 0.64706 -0.00662 0.0
N146 N 0.09455 0.64849 0.11214 0.0
N147 N 0.07503 0.66295 0.08677 0.0
C148 C 0.13329 0.62355 0.06449 0.0
H149 H 0.14222 0.62725 0.11809 0.0
H150 H 0.14742 0.62935 0.02182 0.0
H151 H 0.12939 0.60218 0.0591 0.0
C152 C 0.16969 0.67881 0.28591 0.0
N153 N 0.14843 0.66309 0.28608 0.0
N154 N 0.13518 0.6664 0.22586 0.0
C155 C 0.14723 0.68504 0.18618 0.0
C156 C 0.16956 0.69327 0.22269 0.0
C157 C 0.18899 0.68051 0.34659 0.0
H158 H 0.17904 0.68897 0.39455 0.0
H159 H 0.19574 0.66044 0.36114 0.0
H160 H 0.20613 0.69298 0.33247 0.0
O161 O 0.09784 0.64964 0.37771 0.0
O162 O 0.07617 0.65444 0.27479 0.0
H163 H 0.11619 0.69651 0.11442 0.0
H164 H 0.14675 0.71367 0.09959 0.0
C165 C 0.13788 0.69451 0.11417 0.0
H166 H 0.14357 0.68005 0.07227 0.0
H167 H 0.06196 0.67357 0.11892 0.0
O168 O 0.15258 0.64433 0.44878 0.0
C169 C 0.07685 0.655 0.34339 0.0
Co170 Co 0.3485 0.13532 0.60642 0.0
Co171 Co 0.34625 0.10358 0.46246 0.0
C172 C 0.39697 0.12487 0.52754 0.0
O173 O 0.38577 0.13739 0.57834 0.0
O174 O 0.38392 0.11089 0.48318 0.0
C175 C 0.36021 0.15758 0.74303 0.0
O176 O 0.38466 0.15726 0.72032 0.0
C177 C 0.35642 0.10134 0.30896 0.0
C178 C 0.32423 0.07601 0.26934 0.0
C179 C 0.34403 0.0928 0.24648 0.0
N180 N 0.34364 0.09122 0.36582 0.0
N181 N 0.32497 0.07538 0.3419 0.0
C182 C 0.37983 0.11907 0.31556 0.0
H183 H 0.39429 0.11017 0.35296 0.0
H184 H 0.37362 0.13829 0.33831 0.0
H185 H 0.38985 0.12197 0.26311 0.0
C186 C 0.31128 0.16945 0.52885 0.0
N187 N 0.32686 0.14812 0.53278 0.0
N188 N 0.32529 0.13467 0.47228 0.0
C189 C 0.3082 0.147 0.428 0.0
C190 C 0.29886 0.16936 0.46239 0.0
C191 C 0.30774 0.18871 0.58907 0.0
H192 H 0.29914 0.17841 0.6362 0.0
H193 H 0.32724 0.19643 0.60572 0.0
H194 H 0.29468 0.20524 0.57349 0.0
O195 O 0.33922 0.09857 0.62982 0.0
O196 O 0.33425 0.0758 0.52887 0.0
H197 H 0.29468 0.11765 0.35415 0.0
H198 H 0.28647 0.15075 0.32753 0.0
C199 C 0.3017 0.13825 0.35302 0.0
H200 H 0.31962 0.1394 0.31936 0.0
H201 H 0.31154 0.06568 0.37503 0.0
O202 O 0.34178 0.15302 0.6986 0.0
C203 C 0.33351 0.07729 0.5973 0.0
Co204 Co 0.85581 0.34993 0.8563 0.0
Co205 Co 0.88517 0.34599 0.70945 0.0
C206 C 0.86419 0.39745 0.76887 0.0
O207 O 0.85434 0.38684 0.82465 0.0
O208 O 0.87653 0.38389 0.72215 0.0
C209 C 0.83346 0.36522 -0.01009 0.0
O210 O 0.83571 0.38901 0.9631 0.0
C211 C 0.88278 0.35246 0.55641 0.0
C212 C 0.91495 0.32741 0.51517 0.0
C213 C 0.89421 0.3433 0.49361 0.0
N214 N 0.89604 0.34247 0.6125 0.0
N215 N 0.91556 0.32785 0.58783 0.0
C216 C 0.85749 0.36737 0.56367 0.0
H217 H 0.84852 0.36396 0.61732 0.0
H218 H 0.84334 0.36143 0.52109 0.0
H219 H 0.8615 0.3887 0.55771 0.0
C220 C 0.82088 0.31139 0.78538 0.0
N221 N 0.84207 0.32721 0.78596 0.0
N222 N 0.85522 0.32424 0.72545 0.0
C223 C 0.84315 0.30575 0.68511 0.0
C224 C 0.82092 0.29721 0.72153 0.0
C225 C 0.80176 0.3093 0.84633 0.0
H226 H 0.79437 0.3292 0.86033 0.0
H227 H 0.78502 0.2962 0.83286 0.0
H228 H 0.81208 0.30145 0.89445 0.0
O229 O 0.8926 0.34032 0.8782 0.0
O230 O 0.91423 0.33625 0.77503 0.0
H231 H 0.8434 0.27786 0.59632 0.0
H232 H 0.84649 0.31166 0.57151 0.0
C233 C 0.8523 0.29687 0.6123 0.0
H234 H 0.87398 0.29483 0.61208 0.0
H235 H 0.9285 0.31726 0.62047 0.0
O236 O 0.83803 0.34556 0.94957 0.0
C237 C 0.91359 0.33524 0.84359 0.0
Co238 Co 0.64061 0.85761 0.09528 0.0
Co239 Co 0.64394 0.88755 0.94922 0.0
C240 C 0.59309 0.86453 0.00695 0.0
O241 O 0.60396 0.8547 0.06244 0.0
O242 O 0.60629 0.87766 0.96118 0.0
C243 C 0.62587 0.83553 0.22925 0.0
O244 O 0.60205 0.83771 0.20254 0.0
C245 C 0.63761 0.88504 0.79617 0.0
C246 C 0.66168 0.91794 0.75511 0.0
C247 C 0.64643 0.89673 0.73342 0.0
N248 N 0.64719 0.89859 0.85233 0.0
N249 N 0.66122 0.91853 0.82778 0.0
C250 C 0.62343 0.85933 0.80338 0.0
H251 H 0.62741 0.85031 0.85668 0.0
H252 H 0.62949 0.84545 0.76027 0.0
H253 H 0.60198 0.86281 0.79848 0.0
C254 C 0.68035 0.8241 0.02464 0.0
N255 N 0.66402 0.8449 0.02543 0.0
N256 N 0.6667 0.85829 0.96525 0.0
C257 C 0.68554 0.84677 0.92493 0.0
C258 C 0.69458 0.82465 0.96099 0.0
C259 C 0.68268 0.80474 0.08498 0.0
H260 H 0.68992 0.81506 0.13386 0.0
H261 H 0.66294 0.79669 0.0977 0.0
H262 H 0.69637 0.78847 0.07155 0.0
O263 O 0.64864 0.89474 0.11774 0.0
O264 O 0.65248 0.91688 0.01539 0.0
H265 H 0.69546 0.87797 0.85207 0.0
H266 H 0.71349 0.84797 0.8366 0.0
C267 C 0.69417 0.85622 0.85225 0.0
H268 H 0.67963 0.84992 0.81125 0.0
H269 H 0.6714 0.93178 0.86049 0.0
O270 O 0.64545 0.83997 0.18866 0.0
C271 C 0.65313 0.91603 0.08396 0.0
H272 H 0.24858 0.16004 0.42103 0.0
H273 H 0.22394 0.30707 0.28078 0.0
H274 H 0.30637 0.22166 0.43823 0.0
H275 H 0.16552 0.24581 0.27405 0.0
H276 H 0.25528 0.27584 0.33393 0.0
H277 H 0.2181 0.19115 0.36491 0.0
C278 C 0.25468 0.18026 0.41318 0.0
C279 C 0.27982 0.18848 0.43385 0.0
C280 C 0.23565 0.26918 0.32059 0.0
C281 C 0.24539 0.22409 0.36962 0.0
C282 C 0.21792 0.28691 0.28996 0.0
C283 C 0.1923 0.2788 0.27367 0.0
C284 C 0.22756 0.24325 0.33468 0.0
C285 C 0.18516 0.25267 0.28652 0.0
C286 C 0.23739 0.19797 0.38109 0.0
C287 C 0.287 0.21476 0.42304 0.0
N288 N 0.20268 0.2358 0.31658 0.0
N289 N 0.26986 0.23169 0.39132 0.0
H290 H 0.76928 0.30623 0.69298 0.0
H291 H 0.74512 0.16076 0.53953 0.0
H292 H 0.82833 0.24548 0.69101 0.0
H293 H 0.68494 0.22035 0.54536 0.0
H294 H 0.77619 0.19196 0.59306 0.0
H295 H 0.73776 0.27521 0.63972 0.0
C296 C 0.77542 0.28622 0.6818 0.0
C297 C 0.80125 0.27822 0.69572 0.0
C298 C 0.75623 0.19832 0.5825 0.0
C299 C 0.76577 0.24291 0.63447 0.0
C300 C 0.73861 0.18056 0.55186 0.0
C301 C 0.71262 0.18816 0.53868 0.0
C302 C 0.74771 0.22384 0.59992 0.0
C303 C 0.70495 0.21393 0.55485 0.0
C304 C 0.75757 0.26861 0.65112 0.0
C305 C 0.80853 0.25228 0.68032 0.0
N306 N 0.72243 0.2309 0.58503 0.0
N307 N 0.79089 0.23553 0.65018 0.0
H308 H 0.76881 0.68574 0.78451 0.0
H309 H 0.7462 0.83253 0.93019 0.0
H310 H 0.82876 0.74555 0.78513 0.0
H311 H 0.68594 0.77303 0.9313 0.0
H312 H 0.77684 0.80081 0.87702 0.0
H313 H 0.73766 0.71753 0.83584 0.0
C314 C 0.77523 0.7057 0.79499 0.0
C315 C 0.80121 0.71321 0.78126 0.0
C316 C 0.75696 0.7946 0.88899 0.0
C317 C 0.76614 0.74943 0.84026 0.0
C318 C 0.73957 0.81267 0.91934 0.0
C319 C 0.71369 0.80521 0.93451 0.0
C320 C 0.7483 0.76893 0.87383 0.0
C321 C 0.70587 0.77933 0.92027 0.0
C322 C 0.7576 0.72375 0.82457 0.0
C323 C 0.80884 0.73912 0.79572 0.0
N324 N 0.72311 0.76207 0.89038 0.0
N325 N 0.79139 0.75633 0.82476 0.0
H326 H 0.1624 0.74555 0.20145 0.0
H327 H 0.30494 0.76717 0.02785 0.0
H328 H 0.22052 0.68416 0.18665 0.0
H329 H 0.25033 0.83006 0.07085 0.0
H330 H 0.27364 0.73581 0.08035 0.0
H331 H 0.19402 0.77667 0.15025 0.0
C332 C 0.18198 0.7388 0.18772 0.0
C333 C 0.18908 0.71249 0.19783 0.0
C334 C 0.26848 0.75646 0.07819 0.0
C335 C 0.22517 0.74758 0.13896 0.0
C336 C 0.28621 0.77423 0.04785 0.0
C337 C 0.27999 0.80103 0.04523 0.0
C338 C 0.24442 0.76569 0.10564 0.0
C339 C 0.25572 0.80945 0.07226 0.0
C340 C 0.19998 0.75645 0.15848 0.0
C341 C 0.21453 0.70444 0.17958 0.0
N342 N 0.23878 0.79183 0.10141 0.0
N343 N 0.23171 0.72193 0.15053 0.0
H344 H 0.11594 0.38926 0.53846 0.0
H345 H 0.15761 0.31961 0.90693 0.0
H346 H 0.10531 0.30659 0.5811 0.0
H347 H 0.15802 0.40378 0.87526 0.0
H348 H 0.14553 0.3138 0.78069 0.0
H349 H 0.13661 0.39439 0.65655 0.0
C350 C 0.11807 0.37218 0.5728 0.0
C351 C 0.10919 0.34743 0.55017 0.0
C352 C 0.14858 0.33352 0.80118 0.0
C353 C 0.13269 0.35309 0.68504 0.0
C354 C 0.15571 0.33687 0.87312 0.0
C355 C 0.15831 0.36227 0.90207 0.0
C356 C 0.14409 0.35572 0.75798 0.0
C357 C 0.15586 0.38385 0.85549 0.0
C358 C 0.12984 0.3751 0.6401 0.0
C359 C 0.11184 0.32602 0.59701 0.0
N360 N 0.14851 0.3801 0.7859 0.0
N361 N 0.12346 0.32931 0.66233 0.0
H362 H 0.58388 0.15252 0.14133 0.0
H363 H 0.68474 0.10012 0.84502 0.0
H364 H 0.66801 0.15093 0.17279 0.0
H365 H 0.60208 0.11192 0.8044 0.0
H366 H 0.67914 0.11933 0.9652 0.0
H367 H 0.5904 0.14037 0.01535 0.0
C368 C 0.60376 0.15012 0.1214 0.0
C369 C 0.6254 0.1524 0.16789 0.0
C370 C 0.66225 0.11786 0.92985 0.0
C371 C 0.63298 0.13792 0.02422 0.0
C372 C 0.6654 0.10666 0.8617 0.0
C373 C 0.64389 0.10473 0.81484 0.0
C374 C 0.63732 0.12686 0.95135 0.0
C375 C 0.61926 0.11354 0.83861 0.0
C376 C 0.60747 0.14302 0.04953 0.0
C377 C 0.65073 0.14922 0.13901 0.0
N378 N 0.61662 0.12421 0.90529 0.0
N379 N 0.6538 0.14173 0.06924 0.0
H380 H 0.88843 0.6854 0.08838 0.0
H381 H 0.83142 0.58711 0.38419 0.0
H382 H 0.87531 0.60278 0.04997 0.0
H383 H 0.83703 0.67116 0.41493 0.0
H384 H 0.84368 0.59293 0.25812 0.0
H385 H 0.86812 0.68082 0.2073 0.0
C386 C 0.88138 0.66628 0.10533 0.0
C387 C 0.88327 0.64448 0.05947 0.0
C388 C 0.84188 0.61014 0.29221 0.0
C389 C 0.85984 0.63908 0.19446 0.0
C390 C 0.83468 0.60685 0.36413 0.0
C391 C 0.83369 0.62863 0.41054 0.0
C392 C 0.84826 0.63535 0.26682 0.0
C393 C 0.83792 0.65375 0.38137 0.0
C394 C 0.86954 0.66371 0.17272 0.0
C395 C 0.87375 0.62015 0.08344 0.0
N396 N 0.84545 0.65638 0.31161 0.0
N397 N 0.86246 0.61808 0.14941 0.0
H398 H 0.32656 0.92151 0.36525 0.0
H399 H 0.39253 0.82044 0.62704 0.0
H400 H 0.36054 0.8502 0.27961 0.0
H401 H 0.318 0.85647 0.67942 0.0
H402 H 0.38682 0.83473 0.50148 0.0
H403 H 0.32913 0.90236 0.48658 0.0
C404 C 0.335 0.9021 0.37207 0.0
C405 C 0.3445 0.88798 0.31264 0.0
C406 C 0.37162 0.83907 0.54062 0.0
C407 C 0.34732 0.86609 0.45004 0.0
C408 C 0.37479 0.83085 0.61185 0.0
C409 C 0.35575 0.83728 0.66355 0.0
C410 C 0.34969 0.85439 0.52207 0.0
C411 C 0.33315 0.85097 0.64128 0.0
C412 C 0.33629 0.89117 0.4409 0.0
C413 C 0.35457 0.86255 0.32409 0.0
N414 N 0.33099 0.85955 0.57239 0.0
N415 N 0.35604 0.85253 0.39166 0.0
H416 H 0.11393 0.60156 0.93202 0.0
H417 H 0.15489 0.67126 0.56329 0.0
H418 H 0.10248 0.68409 0.88881 0.0
H419 H 0.15578 0.58711 0.59519 0.0
H420 H 0.14286 0.67706 0.68952 0.0
H421 H 0.13462 0.59651 0.81402 0.0
C422 C 0.11588 0.61863 0.89757 0.0
C423 C 0.10677 0.64332 0.92001 0.0
C424 C 0.146 0.65735 0.66908 0.0
C425 C 0.13028 0.63775 0.78524 0.0
C426 C 0.1531 0.65401 0.59715 0.0
C427 C 0.15582 0.62861 0.56827 0.0
C428 C 0.14166 0.63515 0.71234 0.0
C429 C 0.15352 0.60703 0.6149 0.0
C430 C 0.12766 0.61575 0.83032 0.0
C431 C 0.10919 0.66471 0.87305 0.0
N432 N 0.1462 0.61078 0.68449 0.0
N433 N 0.12083 0.66146 0.80777 0.0
H434 H 0.33517 0.06729 0.11959 0.0
H435 H 0.38926 0.17474 0.85827 0.0
H436 H 0.35543 0.14358 0.20564 0.0
H437 H 0.31991 0.13006 0.8028 0.0
H438 H 0.3843 0.16032 0.98414 0.0
H439 H 0.33677 0.08602 -0.00231 0.0
C440 C 0.34044 0.08778 0.11285 0.0
C441 C 0.34642 0.10353 0.17273 0.0
C442 C 0.37003 0.1541 0.94422 0.0
C443 C 0.34822 0.1249 0.03447 0.0
C444 C 0.37277 0.16236 0.87284 0.0
C445 C 0.35492 0.1537 0.82032 0.0
C446 C 0.34987 0.13644 0.96205 0.0
C447 C 0.33399 0.13743 0.84169 0.0
C448 C 0.34119 0.09844 0.04363 0.0
C449 C 0.3524 0.1302 0.16111 0.0
N450 N 0.33234 0.12889 0.91074 0.0
N451 N 0.35352 0.13999 0.09317 0.0
H452 H 0.8891 0.30523 0.39144 0.0
H453 H 0.83133 0.40299 0.09502 0.0
H454 H 0.87574 0.38787 0.4291 0.0
H455 H 0.83776 0.31899 0.06448 0.0
H456 H 0.84366 0.39733 0.22114 0.0
H457 H 0.86869 0.3096 0.27252 0.0
C458 C 0.88197 0.32431 0.37433 0.0
C459 C 0.88383 0.34618 0.41998 0.0
C460 C 0.84202 0.38009 0.18708 0.0
C461 C 0.86029 0.35134 0.28497 0.0
C462 C 0.83479 0.3833 0.11513 0.0
C463 C 0.83401 0.3615 0.06876 0.0
C464 C 0.84866 0.35495 0.21256 0.0
C465 C 0.83848 0.33642 0.09801 0.0
C466 C 0.87008 0.32676 0.30693 0.0
C467 C 0.87422 0.37045 0.3958 0.0
N468 N 0.84604 0.33388 0.1678 0.0
N469 N 0.86287 0.3724 0.32981 0.0
H470 H 0.5883 0.83241 0.33443 0.0
H471 H 0.68452 0.89289 0.63106 0.0
H472 H 0.67201 0.8413 0.30371 0.0
H473 H 0.60241 0.87695 0.66885 0.0
H474 H 0.68065 0.87251 0.51192 0.0
H475 H 0.5937 0.84491 0.46055 0.0
C476 C 0.60789 0.83646 0.35451 0.0
C477 C 0.62966 0.83628 0.3081 0.0
C478 C 0.6635 0.87332 0.54641 0.0
C479 C 0.6359 0.85114 0.45191 0.0
C480 C 0.66566 0.8852 0.61394 0.0
C481 C 0.64381 0.88633 0.65971 0.0
C482 C 0.63922 0.86281 0.52442 0.0
C483 C 0.61983 0.876 0.63548 0.0
C484 C 0.61094 0.84378 0.42646 0.0
C485 C 0.65461 0.8415 0.33729 0.0
N486 N 0.61815 0.86468 0.56937 0.0
N487 N 0.65699 0.84915 0.40709 0.0
H488 H 0.07505 0.32861 0.98073 0.0
H489 H 0.91832 0.32785 -0.01104 0.0
H490 H 0.02929 0.32831 0.17683 0.0
H491 H 0.96403 0.32942 0.79282 0.0
H492 H 0.9587 0.32267 0.05808 0.0
H493 H 0.03473 0.32355 0.91123 0.0
C494 C 0.05654 0.32728 0.00934 0.0
C495 C 0.05555 0.32924 0.08484 0.0
C496 C 0.95991 0.32394 -0.0001 0.0
C497 C 0.00921 0.32354 0.00518 0.0
C498 C 0.93684 0.32692 0.96026 0.0
C499 C 0.93779 0.32943 0.88489 0.0
C500 C 0.9842 0.32358 0.96412 0.0
C501 C 0.96236 0.32778 0.85082 0.0
C502 C 0.0335 0.32437 0.96947 0.0
C503 C 0.03099 0.3271 0.11875 0.0
N504 N 0.98462 0.32521 0.89078 0.0
N505 N 0.00876 0.32462 0.0786 0.0
H506 H 0.65695 0.967 0.03552 0.0
H507 H 0.66221 0.02716 0.43446 0.0
H508 H 0.66019 0.92017 0.2295 0.0
H509 H 0.65311 0.07404 0.24193 0.0
H510 H 0.66681 0.98798 0.35907 0.0
H511 H 0.66091 0.00674 0.1093 0.0
C512 C 0.65873 0.96504 0.09346 0.0
C513 C 0.65793 0.94022 0.12635 0.0
C514 C 0.66397 0.00688 0.33335 0.0
C515 C 0.66238 0.98555 0.21103 0.0
C516 C 0.66136 0.02926 0.3764 0.0
C517 C 0.65699 0.0539 0.3446 0.0
C518 C 0.66218 0.00914 0.25798 0.0
C519 C 0.6562 0.05543 0.26896 0.0
C520 C 0.66093 0.98773 0.13558 0.0
C521 C 0.66041 0.93888 0.20173 0.0
N522 N 0.65859 0.03335 0.22831 0.0
N523 N 0.66235 0.96122 0.24146 0.0
H524 H 0.02665 0.66262 0.2925 0.0
H525 H 0.96325 0.66198 0.68712 0.0
H526 H 0.07196 0.66012 0.48948 0.0
H527 H 0.91796 0.66052 0.49001 0.0
H528 H 0.00331 0.66702 0.61569 0.0
H529 H 0.98662 0.66758 0.36415 0.0
C530 C 0.02823 0.66335 0.35071 0.0
C531 C 0.05268 0.6606 0.38497 0.0
C532 C 0.98457 0.6658 0.58816 0.0
C533 C 0.00697 0.66618 0.46729 0.0
C534 C 0.96168 0.66295 0.62895 0.0
C535 C 0.93722 0.66048 0.59456 0.0
C536 C 0.98297 0.66615 0.5125 0.0
C537 C 0.9364 0.66203 0.51894 0.0
C538 C 0.00537 0.66615 0.39162 0.0
C539 C 0.05352 0.66185 0.46064 0.0
N540 N 0.95894 0.66455 0.4805 0.0
N541 N 0.031 0.66433 0.4992 0.0
H542 H 0.32365 0.91742 0.74449 0.0
H543 H 0.32826 0.07418 0.74379 0.0
H544 H 0.33076 0.96447 0.9376 0.0
H545 H 0.32517 0.02666 0.55074 0.0
H546 H 0.32314 0.03456 0.81618 0.0
H547 H 0.3181 0.95741 0.67418 0.0
C548 C 0.32385 0.93617 0.77233 0.0
C549 C 0.32805 0.93759 0.8471 0.0
C550 C 0.32335 0.03281 0.758 0.0
C551 C 0.32178 0.98357 0.7664 0.0
C552 C 0.32628 0.05543 0.71647 0.0
C553 C 0.3275 0.05372 0.64092 0.0
C554 C 0.3217 0.00822 0.72389 0.0
C555 C 0.32455 0.02891 0.60875 0.0
C556 C 0.32066 0.95902 0.73198 0.0
C557 C 0.32778 0.96244 0.88007 0.0
N558 N 0.32204 0.0071 0.65047 0.0
N559 N 0.32498 0.98449 0.83935 0.0
H560 H 0.12063 0.42533 0.32772 0.0
H561 H 0.119 0.56533 0.14186 0.0
H562 H 0.13907 0.43547 0.10229 0.0
H563 H 0.138 0.55541 0.36711 0.0
H564 H 0.12132 0.51761 0.12597 0.0
H565 H 0.12197 0.47307 0.34338 0.0
C566 C 0.12507 0.43757 0.2816 0.0
C567 C 0.12982 0.42641 0.21363 0.0
C568 C 0.12515 0.52596 0.17869 0.0
C569 C 0.13097 0.48095 0.23103 0.0
C570 C 0.12375 0.55314 0.18788 0.0
C571 C 0.12838 0.56436 0.25588 0.0
C572 C 0.13067 0.50987 0.23821 0.0
C573 C 0.13442 0.54761 0.31368 0.0
C574 C 0.1259 0.46478 0.29065 0.0
C575 C 0.13543 0.44324 0.1557 0.0
N576 N 0.13515 0.52115 0.30368 0.0
N577 N 0.13559 0.46973 0.16557 0.0
H578 H 0.55863 0.16792 0.44444 0.0
H579 H 0.4292 0.08601 0.47963 0.0
H580 H 0.56075 0.0889 0.52898 0.0
H581 H 0.43003 0.1657 0.55995 0.0
H582 H 0.47725 0.08729 0.47025 0.0
H583 H 0.51061 0.16838 0.46116 0.0
C584 C 0.54898 0.15075 0.4666 0.0
C585 C 0.56354 0.12834 0.4855 0.0
C586 C 0.46682 0.10445 0.48989 0.0
C587 C 0.50913 0.12857 0.50282 0.0
C588 C 0.43952 0.10381 0.49489 0.0
C589 C 0.42578 0.12577 0.52077 0.0
C590 C 0.48033 0.12745 0.50889 0.0
C591 C 0.44003 0.14833 0.54016 0.0
C592 C 0.52175 0.15108 0.47632 0.0
C593 C 0.55021 0.10659 0.51415 0.0
N594 N 0.46665 0.14873 0.53305 0.0
N595 N 0.52365 0.10709 0.52096 0.0
H596 H 0.87034 0.56497 0.8358 0.0
H597 H 0.87064 0.42563 0.6446 0.0
H598 H 0.85214 0.55567 0.60981 0.0
H599 H 0.85299 0.43471 0.87091 0.0
H600 H 0.86849 0.47341 0.63056 0.0
H601 H 0.86858 0.51717 0.85001 0.0
C602 C 0.86587 0.5529 0.78926 0.0
C603 C 0.86134 0.56431 0.72153 0.0
C604 C 0.86491 0.46488 0.68313 0.0
C605 C 0.85967 0.50972 0.7373 0.0
C606 C 0.86622 0.43765 0.69126 0.0
C607 C 0.86195 0.42618 0.75901 0.0
C608 C 0.85982 0.48076 0.74344 0.0
C609 C 0.85629 0.44272 0.81764 0.0
C610 C 0.86479 0.52566 0.79749 0.0
C611 C 0.85563 0.54771 0.66306 0.0
N612 N 0.85564 0.46923 0.80865 0.0
N613 N 0.85521 0.5212 0.67213 0.0
H614 H 0.56409 0.87432 0.88534 0.0
H615 H 0.42651 0.8619 0.08423 0.0
H616 H 0.55671 0.84836 0.10601 0.0
H617 H 0.43347 0.86001 0.85254 0.0
H618 H 0.47433 0.85973 0.09416 0.0
H619 H 0.51629 0.87176 0.87253 0.0
C620 C 0.55246 0.86795 0.93096 0.0
C621 C 0.56442 0.8616 -0.00308 0.0
C622 C 0.46539 0.85966 0.04115 0.0
C623 C 0.50979 0.85892 0.98275 0.0
C624 C 0.43811 0.86114 0.03547 0.0
C625 C 0.42605 0.86146 0.96751 0.0
C626 C 0.48075 0.85886 0.97835 0.0
C627 C 0.44202 0.85981 0.90601 0.0
C628 C 0.5252 0.86643 0.92351 0.0
C629 C 0.54835 0.85341 0.05415 0.0
N630 N 0.46862 0.85886 0.91285 0.0
N631 N 0.52183 0.85255 0.04594 0.0
loop_
_geom_bond_atom_site_label_1
_geom_bond_atom_site_label_2
_geom_bond_distance
_geom_bond_site_symmetry_2
_ccdc_geom_bond_type
Co0 O3 1.970 . S
Co0 N17 1.989 . S
Co0 O25 1.967 . S
Co0 O32 1.920 . S
Co1 O4 1.966 . S
Co1 N10 2.022 . S
Co1 N18 1.993 . S
Co1 O26 1.941 . S
C2 O3 1.258 . S
C2 O4 1.263 . S
O3 Co0 1.970 . S
O3 C2 1.258 . S
O4 Co1 1.966 . S
O4 C2 1.263 . S
C5 O6 1.235 . S
C5 O32 1.289 . S
O6 C5 1.235 . S
C7 C9 1.400 . S
C7 N10 1.351 . S
C7 C12 1.501 . S
C8 C9 1.387 . S
C8 N11 1.341 . S
C9 C7 1.400 . S
C9 C8 1.387 . S
N10 Co1 2.022 . S
N10 C7 1.351 . S
N10 N11 1.365 . S
N11 C8 1.341 . S
N11 N10 1.365 . S
N11 H31 0.862 . S
C12 C7 1.501 . S
C12 H13 0.961 . S
C12 H14 0.961 . S
C12 H15 0.960 . S
H13 C12 0.961 . S
H14 C12 0.961 . S
H15 C12 0.960 . S
C16 N17 1.342 . S
C16 C20 1.401 . S
C16 C21 1.499 . S
N17 Co0 1.989 . S
N17 C16 1.342 . S
N17 N18 1.388 . S
N18 Co1 1.993 . S
N18 N17 1.388 . S
N18 C19 1.346 . S
C19 N18 1.346 . S
C19 C20 1.396 . S
C19 C29 1.510 . S
C20 C16 1.401 . S
C20 C19 1.396 . S
C21 C16 1.499 . S
C21 H22 0.959 . S
C21 H23 0.960 . S
C21 H24 0.961 . S
H22 C21 0.959 . S
H23 C21 0.960 . S
H24 C21 0.961 . S
O25 Co0 1.967 . S
O25 C33 1.258 . S
O26 Co1 1.941 . S
O26 C33 1.266 . S
H27 C29 0.959 . S
H28 C29 0.961 . S
C29 C19 1.510 . S
C29 H27 0.959 . S
C29 H28 0.961 . S
C29 H30 0.960 . S
H30 C29 0.960 . S
H31 N11 0.862 . S
O32 Co0 1.920 . S
O32 C5 1.289 . S
C33 O25 1.258 . S
C33 O26 1.266 . S
Co34 O37 1.970 . S
Co34 N51 1.989 . S
Co34 O59 1.967 . S
Co34 O66 1.920 . S
Co35 O38 1.966 . S
Co35 N44 2.022 . S
Co35 N52 1.993 . S
Co35 O60 1.941 . S
C36 O37 1.258 . S
C36 O38 1.263 . S
O37 Co34 1.970 . S
O37 C36 1.258 . S
O38 Co35 1.966 . S
O38 C36 1.263 . S
C39 O40 1.235 . S
C39 O66 1.289 . S
O40 C39 1.235 . S
C41 C43 1.400 . S
C41 N44 1.351 . S
C41 C46 1.501 . S
C42 C43 1.387 . S
C42 N45 1.341 . S
C43 C41 1.400 . S
C43 C42 1.387 . S
N44 Co35 2.022 . S
N44 C41 1.351 . S
N44 N45 1.365 . S
N45 C42 1.341 . S
N45 N44 1.365 . S
N45 H65 0.862 . S
C46 C41 1.501 . S
C46 H47 0.961 . S
C46 H48 0.961 . S
C46 H49 0.960 . S
H47 C46 0.961 . S
H48 C46 0.961 . S
H49 C46 0.960 . S
C50 N51 1.342 . S
C50 C54 1.401 . S
C50 C55 1.499 . S
N51 Co34 1.989 . S
N51 C50 1.342 . S
N51 N52 1.388 . S
N52 Co35 1.993 . S
N52 N51 1.388 . S
N52 C53 1.346 . S
C53 N52 1.346 . S
C53 C54 1.396 . S
C53 C63 1.510 . S
C54 C50 1.401 . S
C54 C53 1.396 . S
C55 C50 1.499 . S
C55 H56 0.959 . S
C55 H57 0.960 . S
C55 H58 0.961 . S
H56 C55 0.959 . S
H57 C55 0.960 . S
H58 C55 0.961 . S
O59 Co34 1.967 . S
O59 C67 1.258 . S
O60 Co35 1.941 . S
O60 C67 1.266 . S
H61 C63 0.959 . S
H62 C63 0.961 . S
C63 C53 1.510 . S
C63 H61 0.959 . S
C63 H62 0.961 . S
C63 H64 0.960 . S
H64 C63 0.960 . S
H65 N45 0.862 . S
O66 Co34 1.920 . S
O66 C39 1.289 . S
C67 O59 1.258 . S
C67 O60 1.266 . S
Co68 O71 1.970 . S
Co68 N85 1.989 . S
Co68 O93 1.967 . S
Co68 O100 1.920 . S
Co69 O72 1.966 . S
Co69 N78 2.022 . S
Co69 N86 1.993 . S
Co69 O94 1.941 . S
C70 O71 1.258 . S
C70 O72 1.263 . S
O71 Co68 1.970 . S
O71 C70 1.258 . S
O72 Co69 1.966 . S
O72 C70 1.263 . S
C73 O74 1.235 . S
C73 O100 1.289 . S
O74 C73 1.235 . S
C75 C77 1.400 1_556 S
C75 N78 1.351 . S
C75 C80 1.501 . S
C76 C77 1.387 . S
C76 N79 1.341 1_554 S
C77 C75 1.400 1_554 S
C77 C76 1.387 . S
N78 Co69 2.022 . S
N78 C75 1.351 . S
N78 N79 1.365 . S
N79 C76 1.341 1_556 S
N79 N78 1.365 . S
N79 H99 0.862 . S
C80 C75 1.501 . S
C80 H81 0.961 . S
C80 H82 0.961 . S
C80 H83 0.960 . S
H81 C80 0.961 . S
H82 C80 0.961 . S
H83 C80 0.960 . S
C84 N85 1.342 . S
C84 C88 1.401 . S
C84 C89 1.499 . S
N85 Co68 1.989 . S
N85 C84 1.342 . S
N85 N86 1.388 . S
N86 Co69 1.993 . S
N86 N85 1.388 . S
N86 C87 1.346 . S
C87 N86 1.346 . S
C87 C88 1.396 . S
C87 C97 1.510 . S
C88 C84 1.401 . S
C88 C87 1.396 . S
C89 C84 1.499 . S
C89 H90 0.959 . S
C89 H91 0.960 . S
C89 H92 0.961 . S
H90 C89 0.959 . S
H91 C89 0.960 . S
H92 C89 0.961 . S
O93 Co68 1.967 . S
O93 C101 1.258 . S
O94 Co69 1.941 . S
O94 C101 1.266 . S
H95 C97 0.959 . S
H96 C97 0.961 . S
C97 C87 1.510 . S
C97 H95 0.959 . S
C97 H96 0.961 . S
C97 H98 0.960 . S
H98 C97 0.960 . S
H99 N79 0.862 . S
O100 Co68 1.920 . S
O100 C73 1.289 . S
C101 O93 1.258 . S
C101 O94 1.266 . S
Co102 O105 1.970 . S
Co102 N119 1.989 . S
Co102 O127 1.967 . S
Co102 O134 1.920 . S
Co103 O106 1.966 . S
Co103 N112 2.022 . S
Co103 N120 1.993 . S
Co103 O128 1.941 . S
C104 O105 1.258 . S
C104 O106 1.263 1_556 S
O105 Co102 1.970 . S
O105 C104 1.258 . S
O106 Co103 1.966 . S
O106 C104 1.263 1_554 S
C107 O108 1.235 . S
C107 O134 1.289 . S
O108 C107 1.235 . S
C109 C111 1.400 . S
C109 N112 1.351 . S
C109 C114 1.501 . S
C110 C111 1.387 . S
C110 N113 1.341 . S
C111 C109 1.400 . S
C111 C110 1.387 . S
N112 Co103 2.022 . S
N112 C109 1.351 . S
N112 N113 1.365 . S
N113 C110 1.341 . S
N113 N112 1.365 . S
N113 H133 0.862 . S
C114 C109 1.501 . S
C114 H115 0.961 . S
C114 H116 0.961 . S
C114 H117 0.960 . S
H115 C114 0.961 . S
H116 C114 0.961 . S
H117 C114 0.960 . S
C118 N119 1.342 . S
C118 C122 1.401 1_556 S
C118 C123 1.499 . S
N119 Co102 1.989 . S
N119 C118 1.342 . S
N119 N120 1.388 1_556 S
N120 Co103 1.993 . S
N120 N119 1.388 1_554 S
N120 C121 1.346 . S
C121 N120 1.346 . S
C121 C122 1.396 . S
C121 C131 1.510 . S
C122 C118 1.401 1_554 S
C122 C121 1.396 . S
C123 C118 1.499 . S
C123 H124 0.959 . S
C123 H125 0.960 . S
C123 H126 0.961 . S
H124 C123 0.959 . S
H125 C123 0.960 . S
H126 C123 0.961 . S
O127 Co102 1.967 . S
O127 C135 1.258 . S
O128 Co103 1.941 . S
O128 C135 1.266 1_554 S
H129 C131 0.959 . S
H130 C131 0.961 . S
C131 C121 1.510 . S
C131 H129 0.959 . S
C131 H130 0.961 . S
C131 H132 0.960 . S
H132 C131 0.960 . S
H133 N113 0.862 . S
O134 Co102 1.920 . S
O134 C107 1.289 . S
C135 O127 1.258 . S
C135 O128 1.266 1_556 S
Co136 O139 1.970 . S
Co136 N153 1.989 . S
Co136 O161 1.967 . S
Co136 O168 1.920 . S
Co137 O140 1.966 . S
Co137 N146 2.022 . S
Co137 N154 1.993 . S
Co137 O162 1.941 . S
C138 O139 1.258 . S
C138 O140 1.263 . S
O139 Co136 1.970 . S
O139 C138 1.258 . S
O140 Co137 1.966 . S
O140 C138 1.263 . S
C141 O142 1.235 . S
C141 O168 1.289 . S
O142 C141 1.235 . S
C143 C145 1.400 1_554 S
C143 N146 1.351 . S
C143 C148 1.501 . S
C144 C145 1.387 . S
C144 N147 1.341 1_556 S
C145 C143 1.400 1_556 S
C145 C144 1.387 . S
N146 Co137 2.022 . S
N146 C143 1.351 . S
N146 N147 1.365 . S
N147 C144 1.341 1_554 S
N147 N146 1.365 . S
N147 H167 0.862 . S
C148 C143 1.501 . S
C148 H149 0.961 . S
C148 H150 0.961 . S
C148 H151 0.960 . S
H149 C148 0.961 . S
H150 C148 0.961 . S
H151 C148 0.960 . S
C152 N153 1.342 . S
C152 C156 1.401 . S
C152 C157 1.499 . S
N153 Co136 1.989 . S
N153 C152 1.342 . S
N153 N154 1.388 . S
N154 Co137 1.993 . S
N154 N153 1.388 . S
N154 C155 1.346 . S
C155 N154 1.346 . S
C155 C156 1.396 . S
C155 C165 1.510 . S
C156 C152 1.401 . S
C156 C155 1.396 . S
C157 C152 1.499 . S
C157 H158 0.959 . S
C157 H159 0.960 . S
C157 H160 0.961 . S
H158 C157 0.959 . S
H159 C157 0.960 . S
H160 C157 0.961 . S
O161 Co136 1.967 . S
O161 C169 1.258 . S
O162 Co137 1.941 . S
O162 C169 1.266 . S
H163 C165 0.959 . S
H164 C165 0.961 . S
C165 C155 1.510 . S
C165 H163 0.959 . S
C165 H164 0.961 . S
C165 H166 0.960 . S
H166 C165 0.960 . S
H167 N147 0.862 . S
O168 Co136 1.920 . S
O168 C141 1.289 . S
C169 O161 1.258 . S
C169 O162 1.266 . S
Co170 O173 1.970 . S
Co170 N187 1.989 . S
Co170 O195 1.967 . S
Co170 O202 1.920 . S
Co171 O174 1.966 . S
Co171 N180 2.022 . S
Co171 N188 1.993 . S
Co171 O196 1.941 . S
C172 O173 1.258 . S
C172 O174 1.263 . S
O173 Co170 1.970 . S
O173 C172 1.258 . S
O174 Co171 1.966 . S
O174 C172 1.263 . S
C175 O176 1.235 . S
C175 O202 1.289 . S
O176 C175 1.235 . S
C177 C179 1.400 . S
C177 N180 1.351 . S
C177 C182 1.501 . S
C178 C179 1.387 . S
C178 N181 1.341 . S
C179 C177 1.400 . S
C179 C178 1.387 . S
N180 Co171 2.022 . S
N180 C177 1.351 . S
N180 N181 1.365 . S
N181 C178 1.341 . S
N181 N180 1.365 . S
N181 H201 0.862 . S
C182 C177 1.501 . S
C182 H183 0.961 . S
C182 H184 0.961 . S
C182 H185 0.960 . S
H183 C182 0.961 . S
H184 C182 0.961 . S
H185 C182 0.960 . S
C186 N187 1.342 . S
C186 C190 1.401 . S
C186 C191 1.499 . S
N187 Co170 1.989 . S
N187 C186 1.342 . S
N187 N188 1.388 . S
N188 Co171 1.993 . S
N188 N187 1.388 . S
N188 C189 1.346 . S
C189 N188 1.346 . S
C189 C190 1.396 . S
C189 C199 1.510 . S
C190 C186 1.401 . S
C190 C189 1.396 . S
C191 C186 1.499 . S
C191 H192 0.959 . S
C191 H193 0.960 . S
C191 H194 0.961 . S
H192 C191 0.959 . S
H193 C191 0.960 . S
H194 C191 0.961 . S
O195 Co170 1.967 . S
O195 C203 1.258 . S
O196 Co171 1.941 . S
O196 C203 1.266 . S
H197 C199 0.959 . S
H198 C199 0.961 . S
C199 C189 1.510 . S
C199 H197 0.959 . S
C199 H198 0.961 . S
C199 H200 0.960 . S
H200 C199 0.960 . S
H201 N181 0.862 . S
O202 Co170 1.920 . S
O202 C175 1.289 . S
C203 O195 1.258 . S
C203 O196 1.266 . S
Co204 O207 1.970 . S
Co204 N221 1.989 . S
Co204 O229 1.967 . S
Co204 O236 1.920 . S
Co205 O208 1.966 . S
Co205 N214 2.022 . S
Co205 N222 1.993 . S
Co205 O230 1.941 . S
C206 O207 1.258 . S
C206 O208 1.263 . S
O207 Co204 1.970 . S
O207 C206 1.258 . S
O208 Co205 1.966 . S
O208 C206 1.263 . S
C209 O210 1.235 . S
C209 O236 1.289 . S
O210 C209 1.235 . S
C211 C213 1.400 . S
C211 N214 1.351 . S
C211 C216 1.501 . S
C212 C213 1.387 . S
C212 N215 1.341 . S
C213 C211 1.400 . S
C213 C212 1.387 . S
N214 Co205 2.022 . S
N214 C211 1.351 . S
N214 N215 1.365 . S
N215 C212 1.341 . S
N215 N214 1.365 . S
N215 H235 0.862 . S
C216 C211 1.501 . S
C216 H217 0.961 . S
C216 H218 0.961 . S
C216 H219 0.960 . S
H217 C216 0.961 . S
H218 C216 0.961 . S
H219 C216 0.960 . S
C220 N221 1.342 . S
C220 C224 1.401 . S
C220 C225 1.499 . S
N221 Co204 1.989 . S
N221 C220 1.342 . S
N221 N222 1.388 . S
N222 Co205 1.993 . S
N222 N221 1.388 . S
N222 C223 1.346 . S
C223 N222 1.346 . S
C223 C224 1.396 . S
C223 C233 1.510 . S
C224 C220 1.401 . S
C224 C223 1.396 . S
C225 C220 1.499 . S
C225 H226 0.959 . S
C225 H227 0.960 . S
C225 H228 0.961 . S
H226 C225 0.959 . S
H227 C225 0.960 . S
H228 C225 0.961 . S
O229 Co204 1.967 . S
O229 C237 1.258 . S
O230 Co205 1.941 . S
O230 C237 1.266 . S
H231 C233 0.959 . S
H232 C233 0.961 . S
C233 C223 1.510 . S
C233 H231 0.959 . S
C233 H232 0.961 . S
C233 H234 0.960 . S
H234 C233 0.960 . S
H235 N215 0.862 . S
O236 Co204 1.920 . S
O236 C209 1.289 . S
C237 O229 1.258 . S
C237 O230 1.266 . S
Co238 O241 1.970 . S
Co238 N255 1.989 . S
Co238 O263 1.967 . S
Co238 O270 1.920 . S
Co239 O242 1.966 . S
Co239 N248 2.022 . S
Co239 N256 1.993 . S
Co239 O264 1.941 . S
C240 O241 1.258 . S
C240 O242 1.263 1_554 S
O241 Co238 1.970 . S
O241 C240 1.258 . S
O242 Co239 1.966 . S
O242 C240 1.263 1_556 S
C243 O244 1.235 . S
C243 O270 1.289 . S
O244 C243 1.235 . S
C245 C247 1.400 . S
C245 N248 1.351 . S
C245 C250 1.501 . S
C246 C247 1.387 . S
C246 N249 1.341 . S
C247 C245 1.400 . S
C247 C246 1.387 . S
N248 Co239 2.022 . S
N248 C245 1.351 . S
N248 N249 1.365 . S
N249 C246 1.341 . S
N249 N248 1.365 . S
N249 H269 0.862 . S
C250 C245 1.501 . S
C250 H251 0.961 . S
C250 H252 0.961 . S
C250 H253 0.960 . S
H251 C250 0.961 . S
H252 C250 0.961 . S
H253 C250 0.960 . S
C254 N255 1.342 . S
C254 C258 1.401 1_554 S
C254 C259 1.499 . S
N255 Co238 1.989 . S
N255 C254 1.342 . S
N255 N256 1.388 1_554 S
N256 Co239 1.993 . S
N256 N255 1.388 1_556 S
N256 C257 1.346 . S
C257 N256 1.346 . S
C257 C258 1.396 . S
C257 C267 1.510 . S
C258 C254 1.401 1_556 S
C258 C257 1.396 . S
C259 C254 1.499 . S
C259 H260 0.959 . S
C259 H261 0.960 . S
C259 H262 0.961 . S
H260 C259 0.959 . S
H261 C259 0.960 . S
H262 C259 0.961 . S
O263 Co238 1.967 . S
O263 C271 1.258 . S
O264 Co239 1.941 . S
O264 C271 1.266 1_556 S
H265 C267 0.959 . S
H266 C267 0.961 . S
C267 C257 1.510 . S
C267 H265 0.959 . S
C267 H266 0.961 . S
C267 H268 0.960 . S
H268 C267 0.960 . S
H269 N249 0.862 . S
O270 Co238 1.920 . S
O270 C243 1.289 . S
C271 O263 1.258 . S
C271 O264 1.266 1_554 S
H272 C278 0.930 . S
H273 C282 0.930 . S
H274 C287 0.929 . S
H275 C285 0.929 . S
H276 C280 0.929 . S
H277 C286 0.929 . S
C278 H272 0.930 . S
C278 C279 1.367 . S
C278 C286 1.378 . S
C279 C278 1.367 . S
C279 C287 1.433 . S
C280 H276 0.929 . S
C280 C282 1.378 . S
C280 C284 1.350 . S
C281 C284 1.463 . S
C281 C286 1.350 . S
C281 N289 1.427 . S
C282 H273 0.930 . S
C282 C280 1.378 . S
C282 C283 1.367 . S
C283 C282 1.367 . S
C283 C285 1.433 . S
C284 C280 1.350 . S
C284 C281 1.463 . S
C284 N288 1.427 . S
C285 H275 0.929 . S
C285 C283 1.433 . S
C285 N288 1.384 . S
C286 H277 0.929 . S
C286 C278 1.378 . S
C286 C281 1.350 . S
C287 H274 0.929 . S
C287 C279 1.433 . S
C287 N289 1.384 . S
N288 C284 1.427 . S
N288 C285 1.384 . S
N289 C281 1.427 . S
N289 C287 1.384 . S
H290 C296 0.930 . S
H291 C300 0.930 . S
H292 C305 0.929 . S
H293 C303 0.929 . S
H294 C298 0.929 . S
H295 C304 0.929 . S
C296 H290 0.930 . S
C296 C297 1.367 . S
C296 C304 1.378 . S
C297 C296 1.367 . S
C297 C305 1.433 . S
C298 H294 0.929 . S
C298 C300 1.378 . S
C298 C302 1.350 . S
C299 C302 1.463 . S
C299 C304 1.350 . S
C299 N307 1.427 . S
C300 H291 0.930 . S
C300 C298 1.378 . S
C300 C301 1.367 . S
C301 C300 1.367 . S
C301 C303 1.433 . S
C302 C298 1.350 . S
C302 C299 1.463 . S
C302 N306 1.427 . S
C303 H293 0.929 . S
C303 C301 1.433 . S
C303 N306 1.384 . S
C304 H295 0.929 . S
C304 C296 1.378 . S
C304 C299 1.350 . S
C305 H292 0.929 . S
C305 C297 1.433 . S
C305 N307 1.384 . S
N306 C302 1.427 . S
N306 C303 1.384 . S
N307 C299 1.427 . S
N307 C305 1.384 . S
H308 C314 0.930 . S
H309 C318 0.930 . S
H310 C323 0.929 . S
H311 C321 0.929 . S
H312 C316 0.929 . S
H313 C322 0.929 . S
C314 H308 0.930 . S
C314 C315 1.367 . S
C314 C322 1.378 . S
C315 C314 1.367 . S
C315 C323 1.433 . S
C316 H312 0.929 . S
C316 C318 1.378 . S
C316 C320 1.350 . S
C317 C320 1.463 . S
C317 C322 1.350 . S
C317 N325 1.427 . S
C318 H309 0.930 . S
C318 C316 1.378 . S
C318 C319 1.367 . S
C319 C318 1.367 . S
C319 C321 1.433 . S
C320 C316 1.350 . S
C320 C317 1.463 . S
C320 N324 1.427 . S
C321 H311 0.929 . S
C321 C319 1.433 . S
C321 N324 1.384 . S
C322 H313 0.929 . S
C322 C314 1.378 . S
C322 C317 1.350 . S
C323 H310 0.929 . S
C323 C315 1.433 . S
C323 N325 1.384 . S
N324 C320 1.427 . S
N324 C321 1.384 . S
N325 C317 1.427 . S
N325 C323 1.384 . S
H326 C332 0.930 . S
H327 C336 0.930 . S
H328 C341 0.929 . S
H329 C339 0.929 . S
H330 C334 0.929 . S
H331 C340 0.929 . S
C332 H326 0.930 . S
C332 C333 1.367 . S
C332 C340 1.378 . S
C333 C332 1.367 . S
C333 C341 1.433 . S
C334 H330 0.929 . S
C334 C336 1.378 . S
C334 C338 1.350 . S
C335 C338 1.463 . S
C335 C340 1.350 . S
C335 N343 1.427 . S
C336 H327 0.930 . S
C336 C334 1.378 . S
C336 C337 1.367 . S
C337 C336 1.367 . S
C337 C339 1.433 . S
C338 C334 1.350 . S
C338 C335 1.463 . S
C338 N342 1.427 . S
C339 H329 0.929 . S
C339 C337 1.433 . S
C339 N342 1.384 . S
C340 H331 0.929 . S
C340 C332 1.378 . S
C340 C335 1.350 . S
C341 H328 0.929 . S
C341 C333 1.433 . S
C341 N343 1.384 . S
N342 C338 1.427 . S
N342 C339 1.384 . S
N343 C335 1.427 . S
N343 C341 1.384 . S
H344 C350 0.930 . S
H345 C354 0.930 . S
H346 C359 0.929 . S
H347 C357 0.929 . S
H348 C352 0.929 . S
H349 C358 0.929 . S
C350 H344 0.930 . S
C350 C351 1.367 . S
C350 C358 1.378 . S
C351 C350 1.367 . S
C351 C359 1.433 . S
C352 H348 0.929 . S
C352 C354 1.378 . S
C352 C356 1.350 . S
C353 C356 1.463 . S
C353 C358 1.350 . S
C353 N361 1.427 . S
C354 H345 0.930 . S
C354 C352 1.378 . S
C354 C355 1.367 . S
C355 C354 1.367 . S
C355 C357 1.433 . S
C356 C352 1.350 . S
C356 C353 1.463 . S
C356 N360 1.427 . S
C357 H347 0.929 . S
C357 C355 1.433 . S
C357 N360 1.384 . S
C358 H349 0.929 . S
C358 C350 1.378 . S
C358 C353 1.350 . S
C359 H346 0.929 . S
C359 C351 1.433 . S
C359 N361 1.384 . S
N360 C356 1.427 . S
N360 C357 1.384 . S
N361 C353 1.427 . S
N361 C359 1.384 . S
H362 C368 0.930 . S
H363 C372 0.930 . S
H364 C377 0.929 . S
H365 C375 0.929 . S
H366 C370 0.929 . S
H367 C376 0.929 . S
C368 H362 0.930 . S
C368 C369 1.367 . S
C368 C376 1.378 . S
C369 C368 1.367 . S
C369 C377 1.433 . S
C370 H366 0.929 . S
C370 C372 1.378 . S
C370 C374 1.350 . S
C371 C374 1.463 1_554 S
C371 C376 1.350 . S
C371 N379 1.427 . S
C372 H363 0.930 . S
C372 C370 1.378 . S
C372 C373 1.367 . S
C373 C372 1.367 . S
C373 C375 1.433 . S
C374 C370 1.350 . S
C374 C371 1.463 1_556 S
C374 N378 1.427 . S
C375 H365 0.929 . S
C375 C373 1.433 . S
C375 N378 1.384 . S
C376 H367 0.929 . S
C376 C368 1.378 . S
C376 C371 1.350 . S
C377 H364 0.929 . S
C377 C369 1.433 . S
C377 N379 1.384 . S
N378 C374 1.427 . S
N378 C375 1.384 . S
N379 C371 1.427 . S
N379 C377 1.384 . S
H380 C386 0.930 . S
H381 C390 0.930 . S
H382 C395 0.929 . S
H383 C393 0.929 . S
H384 C388 0.929 . S
H385 C394 0.929 . S
C386 H380 0.930 . S
C386 C387 1.367 . S
C386 C394 1.378 . S
C387 C386 1.367 . S
C387 C395 1.433 . S
C388 H384 0.929 . S
C388 C390 1.378 . S
C388 C392 1.350 . S
C389 C392 1.463 . S
C389 C394 1.350 . S
C389 N397 1.427 . S
C390 H381 0.930 . S
C390 C388 1.378 . S
C390 C391 1.367 . S
C391 C390 1.367 . S
C391 C393 1.433 . S
C392 C388 1.350 . S
C392 C389 1.463 . S
C392 N396 1.427 . S
C393 H383 0.929 . S
C393 C391 1.433 . S
C393 N396 1.384 . S
C394 H385 0.929 . S
C394 C386 1.378 . S
C394 C389 1.350 . S
C395 H382 0.929 . S
C395 C387 1.433 . S
C395 N397 1.384 . S
N396 C392 1.427 . S
N396 C393 1.384 . S
N397 C389 1.427 . S
N397 C395 1.384 . S
H398 C404 0.930 . S
H399 C408 0.930 . S
H400 C413 0.929 . S
H401 C411 0.929 . S
H402 C406 0.929 . S
H403 C412 0.929 . S
C404 H398 0.930 . S
C404 C405 1.367 . S
C404 C412 1.378 . S
C405 C404 1.367 . S
C405 C413 1.433 . S
C406 H402 0.929 . S
C406 C408 1.378 . S
C406 C410 1.350 . S
C407 C410 1.463 . S
C407 C412 1.350 . S
C407 N415 1.427 . S
C408 H399 0.930 . S
C408 C406 1.378 . S
C408 C409 1.367 . S
C409 C408 1.367 . S
C409 C411 1.433 . S
C410 C406 1.350 . S
C410 C407 1.463 . S
C410 N414 1.427 . S
C411 H401 0.929 . S
C411 C409 1.433 . S
C411 N414 1.384 . S
C412 H403 0.929 . S
C412 C404 1.378 . S
C412 C407 1.350 . S
C413 H400 0.929 . S
C413 C405 1.433 . S
C413 N415 1.384 . S
N414 C410 1.427 . S
N414 C411 1.384 . S
N415 C407 1.427 . S
N415 C413 1.384 . S
H416 C422 0.930 . S
H417 C426 0.930 . S
H418 C431 0.929 . S
H419 C429 0.929 . S
H420 C424 0.929 . S
H421 C430 0.929 . S
C422 H416 0.930 . S
C422 C423 1.367 . S
C422 C430 1.378 . S
C423 C422 1.367 . S
C423 C431 1.433 . S
C424 H420 0.929 . S
C424 C426 1.378 . S
C424 C428 1.350 . S
C425 C428 1.463 . S
C425 C430 1.350 . S
C425 N433 1.427 . S
C426 H417 0.930 . S
C426 C424 1.378 . S
C426 C427 1.367 . S
C427 C426 1.367 . S
C427 C429 1.433 . S
C428 C424 1.350 . S
C428 C425 1.463 . S
C428 N432 1.427 . S
C429 H419 0.929 . S
C429 C427 1.433 . S
C429 N432 1.384 . S
C430 H421 0.929 . S
C430 C422 1.378 . S
C430 C425 1.350 . S
C431 H418 0.929 . S
C431 C423 1.433 . S
C431 N433 1.384 . S
N432 C428 1.427 . S
N432 C429 1.384 . S
N433 C425 1.427 . S
N433 C431 1.384 . S
H434 C440 0.930 . S
H435 C444 0.930 . S
H436 C449 0.929 . S
H437 C447 0.929 . S
H438 C442 0.929 . S
H439 C448 0.929 1_556 S
C440 H434 0.930 . S
C440 C441 1.367 . S
C440 C448 1.378 . S
C441 C440 1.367 . S
C441 C449 1.433 . S
C442 H438 0.929 . S
C442 C444 1.378 . S
C442 C446 1.350 . S
C443 C446 1.463 1_554 S
C443 C448 1.350 . S
C443 N451 1.427 . S
C444 H435 0.930 . S
C444 C442 1.378 . S
C444 C445 1.367 . S
C445 C444 1.367 . S
C445 C447 1.433 . S
C446 C442 1.350 . S
C446 C443 1.463 1_556 S
C446 N450 1.427 . S
C447 H437 0.929 . S
C447 C445 1.433 . S
C447 N450 1.384 . S
C448 H439 0.929 1_554 S
C448 C440 1.378 . S
C448 C443 1.350 . S
C449 H436 0.929 . S
C449 C441 1.433 . S
C449 N451 1.384 . S
N450 C446 1.427 . S
N450 C447 1.384 . S
N451 C443 1.427 . S
N451 C449 1.384 . S
H452 C458 0.930 . S
H453 C462 0.930 . S
H454 C467 0.929 . S
H455 C465 0.929 . S
H456 C460 0.929 . S
H457 C466 0.929 . S
C458 H452 0.930 . S
C458 C459 1.367 . S
C458 C466 1.378 . S
C459 C458 1.367 . S
C459 C467 1.433 . S
C460 H456 0.929 . S
C460 C462 1.378 . S
C460 C464 1.350 . S
C461 C464 1.463 . S
C461 C466 1.350 . S
C461 N469 1.427 . S
C462 H453 0.930 . S
C462 C460 1.378 . S
C462 C463 1.367 . S
C463 C462 1.367 . S
C463 C465 1.433 . S
C464 C460 1.350 . S
C464 C461 1.463 . S
C464 N468 1.427 . S
C465 H455 0.929 . S
C465 C463 1.433 . S
C465 N468 1.384 . S
C466 H457 0.929 . S
C466 C458 1.378 . S
C466 C461 1.350 . S
C467 H454 0.929 . S
C467 C459 1.433 . S
C467 N469 1.384 . S
N468 C464 1.427 . S
N468 C465 1.384 . S
N469 C461 1.427 . S
N469 C467 1.384 . S
H470 C476 0.930 . S
H471 C480 0.930 . S
H472 C485 0.929 . S
H473 C483 0.929 . S
H474 C478 0.929 . S
H475 C484 0.929 . S
C476 H470 0.930 . S
C476 C477 1.367 . S
C476 C484 1.378 . S
C477 C476 1.367 . S
C477 C485 1.433 . S
C478 H474 0.929 . S
C478 C480 1.378 . S
C478 C482 1.350 . S
C479 C482 1.463 . S
C479 C484 1.350 . S
C479 N487 1.427 . S
C480 H471 0.930 . S
C480 C478 1.378 . S
C480 C481 1.367 . S
C481 C480 1.367 . S
C481 C483 1.433 . S
C482 C478 1.350 . S
C482 C479 1.463 . S
C482 N486 1.427 . S
C483 H473 0.929 . S
C483 C481 1.433 . S
C483 N486 1.384 . S
C484 H475 0.929 . S
C484 C476 1.378 . S
C484 C479 1.350 . S
C485 H472 0.929 . S
C485 C477 1.433 . S
C485 N487 1.384 . S
N486 C482 1.427 . S
N486 C483 1.384 . S
N487 C479 1.427 . S
N487 C485 1.384 . S
H488 C494 0.930 . S
H489 C498 0.930 . S
H490 C503 0.929 . S
H491 C501 0.929 . S
H492 C496 0.929 1_554 S
H493 C502 0.929 1_556 S
C494 H488 0.930 . S
C494 C495 1.367 . S
C494 C502 1.378 . S
C495 C494 1.367 . S
C495 C503 1.433 . S
C496 H492 0.929 1_556 S
C496 C498 1.378 . S
C496 C500 1.350 . S
C497 C500 1.463 1_454 S
C497 C502 1.350 . S
C497 N505 1.427 . S
C498 H489 0.930 . S
C498 C496 1.378 . S
C498 C499 1.367 . S
C499 C498 1.367 . S
C499 C501 1.433 . S
C500 C496 1.350 . S
C500 C497 1.463 1_656 S
C500 N504 1.427 . S
C501 H491 0.929 . S
C501 C499 1.433 . S
C501 N504 1.384 . S
C502 H493 0.929 1_554 S
C502 C494 1.378 . S
C502 C497 1.350 . S
C503 H490 0.929 . S
C503 C495 1.433 . S
C503 N505 1.384 . S
N504 C500 1.427 . S
N504 C501 1.384 . S
N505 C497 1.427 . S
N505 C503 1.384 . S
H506 C512 0.930 . S
H507 C516 0.930 . S
H508 C521 0.929 . S
H509 C519 0.929 . S
H510 C514 0.929 . S
H511 C520 0.929 . S
C512 H506 0.930 . S
C512 C513 1.367 . S
C512 C520 1.378 1_565 S
C513 C512 1.367 . S
C513 C521 1.433 . S
C514 H510 0.929 . S
C514 C516 1.378 1_565 S
C514 C518 1.350 1_565 S
C515 C518 1.463 1_565 S
C515 C520 1.350 1_565 S
C515 N523 1.427 . S
C516 H507 0.930 . S
C516 C514 1.378 1_545 S
C516 C517 1.367 . S
C517 C516 1.367 . S
C517 C519 1.433 . S
C518 C514 1.350 1_545 S
C518 C515 1.463 1_545 S
C518 N522 1.427 . S
C519 H509 0.929 . S
C519 C517 1.433 . S
C519 N522 1.384 . S
C520 H511 0.929 . S
C520 C512 1.378 1_545 S
C520 C515 1.350 1_545 S
C521 H508 0.929 . S
C521 C513 1.433 . S
C521 N523 1.384 . S
N522 C518 1.427 . S
N522 C519 1.384 . S
N523 C515 1.427 . S
N523 C521 1.384 . S
H524 C530 0.930 . S
H525 C534 0.930 . S
H526 C539 0.929 . S
H527 C537 0.929 . S
H528 C532 0.929 1_455 S
H529 C538 0.929 1_655 S
C530 H524 0.930 . S
C530 C531 1.367 . S
C530 C538 1.378 . S
C531 C530 1.367 . S
C531 C539 1.433 . S
C532 H528 0.929 1_655 S
C532 C534 1.378 . S
C532 C536 1.350 . S
C533 C536 1.463 1_455 S
C533 C538 1.350 . S
C533 N541 1.427 . S
C534 H525 0.930 . S
C534 C532 1.378 . S
C534 C535 1.367 . S
C535 C534 1.367 . S
C535 C537 1.433 . S
C536 C532 1.350 . S
C536 C533 1.463 1_655 S
C536 N540 1.427 . S
C537 H527 0.929 . S
C537 C535 1.433 . S
C537 N540 1.384 . S
C538 H529 0.929 1_455 S
C538 C530 1.378 . S
C538 C533 1.350 . S
C539 H526 0.929 . S
C539 C531 1.433 . S
C539 N541 1.384 . S
N540 C536 1.427 . S
N540 C537 1.384 . S
N541 C533 1.427 . S
N541 C539 1.384 . S
H542 C548 0.930 . S
H543 C552 0.930 . S
H544 C557 0.929 . S
H545 C555 0.929 . S
H546 C550 0.929 . S
H547 C556 0.929 . S
C548 H542 0.930 . S
C548 C549 1.367 . S
C548 C556 1.378 . S
C549 C548 1.367 . S
C549 C557 1.433 . S
C550 H546 0.929 . S
C550 C552 1.378 . S
C550 C554 1.350 . S
C551 C554 1.463 1_565 S
C551 C556 1.350 . S
C551 N559 1.427 1_565 S
C552 H543 0.930 . S
C552 C550 1.378 . S
C552 C553 1.367 . S
C553 C552 1.367 . S
C553 C555 1.433 . S
C554 C550 1.350 . S
C554 C551 1.463 1_545 S
C554 N558 1.427 1_545 S
C555 H545 0.929 . S
C555 C553 1.433 . S
C555 N558 1.384 1_545 S
C556 H547 0.929 . S
C556 C548 1.378 . S
C556 C551 1.350 . S
C557 H544 0.929 . S
C557 C549 1.433 . S
C557 N559 1.384 1_565 S
N558 C554 1.427 1_565 S
N558 C555 1.384 1_565 S
N559 C551 1.427 1_545 S
N559 C557 1.384 1_545 S
H560 C566 0.930 . S
H561 C570 0.930 . S
H562 C575 0.929 . S
H563 C573 0.929 . S
H564 C568 0.929 . S
H565 C574 0.929 . S
C566 H560 0.930 . S
C566 C567 1.367 . S
C566 C574 1.378 . S
C567 C566 1.367 . S
C567 C575 1.433 . S
C568 H564 0.929 . S
C568 C570 1.378 . S
C568 C572 1.350 . S
C569 C572 1.463 . S
C569 C574 1.350 . S
C569 N577 1.427 . S
C570 H561 0.930 . S
C570 C568 1.378 . S
C570 C571 1.367 . S
C571 C570 1.367 . S
C571 C573 1.433 . S
C572 C568 1.350 . S
C572 C569 1.463 . S
C572 N576 1.427 . S
C573 H563 0.929 . S
C573 C571 1.433 . S
C573 N576 1.384 . S
C574 H565 0.929 . S
C574 C566 1.378 . S
C574 C569 1.350 . S
C575 H562 0.929 . S
C575 C567 1.433 . S
C575 N577 1.384 . S
N576 C572 1.427 . S
N576 C573 1.384 . S
N577 C569 1.427 . S
N577 C575 1.384 . S
H578 C584 0.930 . S
H579 C588 0.930 . S
H580 C593 0.929 . S
H581 C591 0.929 . S
H582 C586 0.929 . S
H583 C592 0.929 . S
C584 H578 0.930 . S
C584 C585 1.367 . S
C584 C592 1.378 . S
C585 C584 1.367 . S
C585 C593 1.433 . S
C586 H582 0.929 . S
C586 C588 1.378 . S
C586 C590 1.350 . S
C587 C590 1.463 . S
C587 C592 1.350 . S
C587 N595 1.427 . S
C588 H579 0.930 . S
C588 C586 1.378 . S
C588 C589 1.367 . S
C589 C588 1.367 . S
C589 C591 1.433 . S
C590 C586 1.350 . S
C590 C587 1.463 . S
C590 N594 1.427 . S
C591 H581 0.929 . S
C591 C589 1.433 . S
C591 N594 1.384 . S
C592 H583 0.929 . S
C592 C584 1.378 . S
C592 C587 1.350 . S
C593 H580 0.929 . S
C593 C585 1.433 . S
C593 N595 1.384 . S
N594 C590 1.427 . S
N594 C591 1.384 . S
N595 C587 1.427 . S
N595 C593 1.384 . S
H596 C602 0.930 . S
H597 C606 0.930 . S
H598 C611 0.929 . S
H599 C609 0.929 . S
H600 C604 0.929 . S
H601 C610 0.929 . S
C602 H596 0.930 . S
C602 C603 1.367 . S
C602 C610 1.378 . S
C603 C602 1.367 . S
C603 C611 1.433 . S
C604 H600 0.929 . S
C604 C606 1.378 . S
C604 C608 1.350 . S
C605 C608 1.463 . S
C605 C610 1.350 . S
C605 N613 1.427 . S
C606 H597 0.930 . S
C606 C604 1.378 . S
C606 C607 1.367 . S
C607 C606 1.367 . S
C607 C609 1.433 . S
C608 C604 1.350 . S
C608 C605 1.463 . S
C608 N612 1.427 . S
C609 H599 0.929 . S
C609 C607 1.433 . S
C609 N612 1.384 . S
C610 H601 0.929 . S
C610 C602 1.378 . S
C610 C605 1.350 . S
C611 H598 0.929 . S
C611 C603 1.433 . S
C611 N613 1.384 . S
N612 C608 1.427 . S
N612 C609 1.384 . S
N613 C605 1.427 . S
N613 C611 1.384 . S
H614 C620 0.930 . S
H615 C624 0.930 . S
H616 C629 0.929 . S
H617 C627 0.929 . S
H618 C622 0.929 . S
H619 C628 0.929 . S
C620 H614 0.930 . S
C620 C621 1.367 1_556 S
C620 C628 1.378 . S
C621 C620 1.367 1_554 S
C621 C629 1.433 . S
C622 H618 0.929 . S
C622 C624 1.378 . S
C622 C626 1.348 1_554 S
C623 C626 1.462 1_554 S
C623 C628 1.346 1_554 S
C623 N631 1.432 . S
C624 H615 0.930 . S
C624 C622 1.378 . S
C624 C625 1.367 1_554 S
C625 C624 1.367 1_556 S
C625 C627 1.433 . S
C626 C622 1.348 1_556 S
C626 C623 1.462 1_556 S
C626 N630 1.429 . S
C627 H617 0.929 . S
C627 C625 1.433 . S
C627 N630 1.384 . S
C628 H619 0.929 . S
C628 C620 1.378 . S
C628 C623 1.346 1_556 S
C629 H616 0.929 . S
C629 C621 1.433 . S
C629 N631 1.384 . S
N630 C626 1.429 . S
N630 C627 1.384 . S
N631 C623 1.432 . S
N631 C629 1.384 . S
C279 C190 1.638 . S
C283 C20 1.634 . S
C297 C224 1.630 . S
C301 C54 1.631 . S
C315 C88 1.634 . S
C319 C258 1.640 . S
C333 C156 1.639 . S
C337 C122 1.634 . S
C351 C9 0.995 . S
C355 C5 0.994 1_556 S
C369 C39 0.982 . S
C373 C43 0.984 . S
C387 C77 0.986 . S
C391 C73 0.985 . S
C405 C111 0.983 . S
C409 C107 0.995 . S
C423 C145 0.993 . S
C427 C141 0.998 . S
C441 C179 0.982 . S
C445 C175 0.994 . S
C459 C213 0.984 . S
C463 C209 0.983 1_554 S
C477 C243 0.984 . S
C481 C247 0.984 . S
C495 C33 1.415 . S
C499 C237 1.411 . S
C513 C271 1.427 . S
C517 C67 1.426 . S
C531 C169 1.426 . S
C535 C101 1.430 . S
C549 C135 1.411 . S
C553 C203 1.411 . S
C567 C2 1.737 . S
C571 C138 1.738 . S
C585 C36 1.735 . S
C589 C172 1.736 . S
C603 C70 1.737 . S
C607 C206 1.738 . S
C621 C240 1.740 . S
C625 C104 1.740 . S
