# Generated by pormake.
# Topology can, (4)-cn, num edge types: 1
# Building blocks:
#     Node 0, Type 0, BuildingBlock: TATPOV_clean_sbu_0, # of connection points: 4
#     Node 1, Type 0, BuildingBlock: TATPOV_clean_sbu_0, # of connection points: 4
#     Node 2, Type 0, BuildingBlock: TATPOV_clean_sbu_0, # of connection points: 4
#     Node 3, Type 0, BuildingBlock: TATPOV_clean_sbu_0, # of connection points: 4
#     Node 4, Type 0, BuildingBlock: TATPOV_clean_sbu_0, # of connection points: 4
#     Node 5, Type 0, BuildingBlock: TATPOV_clean_sbu_0, # of connection points: 4
#     Node 6, Type 0, BuildingBlock: TATPOV_clean_sbu_0, # of connection points: 4
#     Node 7, Type 0, BuildingBlock: TATPOV_clean_sbu_0, # of connection points: 4
#     Node 8, Type 0, BuildingBlock: TATPOV_clean_sbu_0, # of connection points: 4
#     Node 9, Type 0, BuildingBlock: TATPOV_clean_sbu_0, # of connection points: 4
#     Node 10, Type 0, BuildingBlock: TATPOV_clean_sbu_0, # of connection points: 4
#     Node 11, Type 0, BuildingBlock: TATPOV_clean_sbu_0, # of connection points: 4
#     Edge 12, Type (0, 0), BuildingBlock: XIVTED_clean_linker_0, # of connection points: 2
#     Edge 13, Type (0, 0), BuildingBlock: XIVTED_clean_linker_0, # of connection points: 2
#     Edge 14, Type (0, 0), BuildingBlock: XIVTED_clean_linker_0, # of connection points: 2
#     Edge 15, Type (0, 0), BuildingBlock: XIVTED_clean_linker_0, # of connection points: 2
#     Edge 16, Type (0, 0), BuildingBlock: XIVTED_clean_linker_0, # of connection points: 2
#     Edge 17, Type (0, 0), BuildingBlock: XIVTED_clean_linker_0, # of connection points: 2
#     Edge 18, Type (0, 0), BuildingBlock: XIVTED_clean_linker_0, # of connection points: 2
#     Edge 19, Type (0, 0), BuildingBlock: XIVTED_clean_linker_0, # of connection points: 2
#     Edge 20, Type (0, 0), BuildingBlock: XIVTED_clean_linker_0, # of connection points: 2
#     Edge 21, Type (0, 0), BuildingBlock: XIVTED_clean_linker_0, # of connection points: 2
#     Edge 22, Type (0, 0), BuildingBlock: XIVTED_clean_linker_0, # of connection points: 2
#     Edge 23, Type (0, 0), BuildingBlock: XIVTED_clean_linker_0, # of connection points: 2
#     Edge 24, Type (0, 0), BuildingBlock: XIVTED_clean_linker_0, # of connection points: 2
#     Edge 25, Type (0, 0), BuildingBlock: XIVTED_clean_linker_0, # of connection points: 2
#     Edge 26, Type (0, 0), BuildingBlock: XIVTED_clean_linker_0, # of connection points: 2
#     Edge 27, Type (0, 0), BuildingBlock: XIVTED_clean_linker_0, # of connection points: 2
#     Edge 28, Type (0, 0), BuildingBlock: XIVTED_clean_linker_0, # of connection points: 2
#     Edge 29, Type (0, 0), BuildingBlock: XIVTED_clean_linker_0, # of connection points: 2
#     Edge 30, Type (0, 0), BuildingBlock: XIVTED_clean_linker_0, # of connection points: 2
#     Edge 31, Type (0, 0), BuildingBlock: XIVTED_clean_linker_0, # of connection points: 2
#     Edge 32, Type (0, 0), BuildingBlock: XIVTED_clean_linker_0, # of connection points: 2
#     Edge 33, Type (0, 0), BuildingBlock: XIVTED_clean_linker_0, # of connection points: 2
#     Edge 34, Type (0, 0), BuildingBlock: XIVTED_clean_linker_0, # of connection points: 2
#     Edge 35, Type (0, 0), BuildingBlock: XIVTED_clean_linker_0, # of connection points: 2
# Relax obj value: 0.056
# Max RMSD: 0.072
# Mean RMSD: 0.072
data_MOF--net-can--node1-TATPOV_clean_sbu_0--edge1-XIVTED_clean_linker_0
_symmetry_space_group_name_H-M    P1
_symmetry_Int_Tables_number       1
_symmetry_cell_setting            triclinic
loop_
_symmetry_equiv_pos_as_xyz
'x, y, z'
_cell_length_a     57.170874
_cell_length_b     57.170261
_cell_length_c     27.066214
_cell_angle_alpha  89.312861
_cell_angle_beta   90.558241
_cell_angle_gamma 119.98612
loop_
_atom_site_label
_atom_site_type_symbol
_atom_site_fract_x
_atom_site_fract_y
_atom_site_fract_z
_atom_type_partial_charge
Zn0 Zn 0.02441 0.38784 0.2671 0.0
Zn1 Zn 0.07534 0.40101 0.25519 0.0
O2 O 0.06116 0.3719 0.31113 0.0
O3 O 0.01758 0.35764 0.3127 0.0
O4 O 0.1135 0.40852 0.24344 0.0
O5 O 0.01572 0.37939 0.19596 0.0
O6 O 0.05742 0.38771 0.1868 0.0
C7 C 0.03757 0.35576 0.32774 0.0
C8 C 0.0619 0.44353 0.29024 0.0
O9 O 0.07948 0.43792 0.27452 0.0
O10 O 0.0373 0.42529 0.29283 0.0
C11 C 0.12933 0.41019 0.27833 0.0
O12 O 0.12114 0.40786 0.32425 0.0
C13 C 0.03402 0.38023 0.16892 0.0
Zn14 Zn 0.64092 0.01971 0.70431 0.0
Zn15 Zn 0.67853 0.07068 0.71353 0.0
O16 O 0.67568 0.05464 0.78391 0.0
O17 O 0.64273 0.01259 0.77573 0.0
O18 O 0.70933 0.10947 0.71742 0.0
O19 O 0.6627 0.01155 0.65861 0.0
O20 O 0.69194 0.05512 0.65848 0.0
C21 C 0.66025 0.03124 0.80237 0.0
C22 C 0.62168 0.05629 0.67977 0.0
O23 O 0.64513 0.07412 0.69441 0.0
O24 O 0.61539 0.03169 0.67837 0.0
C25 C 0.73089 0.11555 0.74128 0.0
O26 O 0.73269 0.09642 0.76541 0.0
C27 C 0.68425 0.03141 0.64262 0.0
Zn28 Zn 0.62831 0.64229 0.21113 0.0
Zn29 Zn 0.62028 0.68344 0.22074 0.0
O30 O 0.63371 0.67928 0.28995 0.0
O31 O 0.63787 0.64322 0.28205 0.0
O32 O 0.61859 0.71796 0.22583 0.0
O33 O 0.65828 0.66143 0.16363 0.0
O34 O 0.648 0.69371 0.1637 0.0
C35 C 0.63957 0.66216 0.30828 0.0
C36 C 0.57344 0.62873 0.18975 0.0
O37 O 0.58134 0.65269 0.20439 0.0
O38 O 0.58997 0.62016 0.18714 0.0
C39 C 0.59795 0.72035 0.23327 0.0
O40 O 0.57426 0.69857 0.23945 0.0
C41 C 0.662 0.68379 0.14718 0.0
Zn42 Zn 1.00268 0.61875 0.70532 0.0
Zn43 Zn 0.95222 0.60719 0.71621 0.0
O44 O 0.9695 0.62114 0.78498 0.0
O45 O 1.01075 0.628 0.77632 0.0
O46 O 0.91387 0.59999 0.72303 0.0
O47 O 1.01065 0.64867 0.65827 0.0
O48 O 0.96747 0.63609 0.6601 0.0
C49 C 0.99285 0.62831 0.80289 0.0
C50 C 0.96468 0.56331 0.68394 0.0
O51 O 0.94758 0.56981 0.69866 0.0
O52 O 0.98947 0.58099 0.68126 0.0
C53 C 0.91007 0.61975 0.73075 0.0
O54 O 0.93118 0.64405 0.73532 0.0
C55 C 0.99117 0.65144 0.64323 0.0
Zn56 Zn 0.37809 0.99912 0.25776 0.0
Zn57 Zn 0.33893 0.94921 0.24527 0.0
O58 O 0.32575 0.96447 0.30124 0.0
O59 O 0.35611 1.00773 0.30218 0.0
O60 O 0.3063 0.91218 0.2337 0.0
O61 O 0.37915 1.00845 0.18663 0.0
O62 O 0.34436 0.96758 0.17671 0.0
C63 C 0.33409 0.98825 0.31748 0.0
C64 C 0.3938 0.95953 0.28199 0.0
O65 O 0.37045 0.94276 0.26512 0.0
O66 O 0.40109 0.98435 0.28498 0.0
C67 C 0.29957 0.89169 0.26145 0.0
O68 O 0.31487 0.89384 0.29963 0.0
C69 C 0.36119 0.99076 0.15912 0.0
Zn70 Zn 0.40853 0.38379 0.76672 0.0
Zn71 Zn 0.41649 0.34262 0.75884 0.0
O72 O 0.38852 0.33224 0.81577 0.0
O73 O 0.3786 0.3648 0.81428 0.0
O74 O 0.42011 0.30916 0.75399 0.0
O75 O 0.39898 0.38236 0.69568 0.0
O76 O 0.4029 0.34609 0.68933 0.0
C77 C 0.37463 0.34248 0.8315 0.0
C78 C 0.46325 0.39785 0.78873 0.0
O79 O 0.45528 0.37375 0.77485 0.0
O80 O 0.44677 0.40649 0.79075 0.0
C81 C 0.42986 0.30402 0.71633 0.0
O82 O 0.4386 0.32129 0.67921 0.0
C83 C 0.39715 0.36313 0.6702 0.0
Zn84 Zn 0.62072 0.9999 0.25818 0.0
Zn85 Zn 0.60959 0.94949 0.24847 0.0
O86 O 0.6235 0.96648 0.17935 0.0
O87 O 0.62969 1.00753 0.18688 0.0
O88 O 0.60255 0.91114 0.24266 0.0
O89 O 0.65098 1.00836 0.30465 0.0
O90 O 0.63869 0.96522 0.30398 0.0
C91 C 0.63036 0.98967 0.16084 0.0
C92 C 0.56548 0.96173 0.28063 0.0
O93 O 0.57214 0.94472 0.26613 0.0
O94 O 0.58302 0.98657 0.28288 0.0
C95 C 0.62232 0.90737 0.23475 0.0
O96 O 0.64655 0.9285 0.2293 0.0
C97 C 0.654 0.98908 0.32003 0.0
Zn98 Zn 0.64339 0.62291 0.76046 0.0
Zn99 Zn 0.68543 0.61612 0.75083 0.0
O100 O 0.68091 0.6293 0.68163 0.0
O101 O 0.64424 0.63241 0.68943 0.0
O102 O 0.72024 0.615 0.74531 0.0
O103 O 0.66222 0.65299 0.80772 0.0
O104 O 0.6954 0.644 0.8072 0.0
C105 C 0.66346 0.63466 0.66324 0.0
C106 C 0.63116 0.56849 0.78264 0.0
O107 O 0.65528 0.57699 0.76813 0.0
O108 O 0.62194 0.58451 0.7847 0.0
C109 C 0.72276 0.59447 0.7375 0.0
O110 O 0.70105 0.57074 0.73138 0.0
C111 C 0.68492 0.65749 0.8237 0.0
Zn112 Zn 0.02303 0.63256 0.25924 0.0
Zn113 Zn 0.07388 0.67088 0.25015 0.0
O114 O 0.05808 0.66833 0.17981 0.0
O115 O 0.01618 0.63496 0.18788 0.0
O116 O 0.1126 0.70177 0.24655 0.0
O117 O 0.01458 0.6539 0.30545 0.0
O118 O 0.05786 0.68416 0.30453 0.0
C119 C 0.03474 0.65281 0.16137 0.0
C120 C 0.05995 0.61386 0.28341 0.0
O121 O 0.07758 0.63758 0.26936 0.0
O122 O 0.03522 0.60711 0.28445 0.0
C123 C 0.11842 0.72392 0.225 0.0
O124 O 0.09906 0.72625 0.2031 0.0
C125 C 0.03407 0.67588 0.3207 0.0
Zn126 Zn 0.39506 0.01968 0.70163 0.0
Zn127 Zn 0.40763 0.07054 0.71098 0.0
O128 O 0.37832 0.05534 0.65571 0.0
O129 O 0.36489 0.01193 0.65552 0.0
O130 O 0.4148 0.10879 0.71899 0.0
O131 O 0.38636 0.012 0.77296 0.0
O132 O 0.39427 0.05367 0.78023 0.0
C133 C 0.36248 0.03154 0.63989 0.0
C134 C 0.45062 0.05708 0.67805 0.0
O135 O 0.4447 0.07468 0.69234 0.0
O136 O 0.43257 0.03238 0.67654 0.0
C137 C 0.42304 0.12562 0.68322 0.0
O138 O 0.4278 0.11821 0.64045 0.0
C139 C 0.38686 0.03043 0.79904 0.0
Zn140 Zn 0.39256 0.40215 0.21751 0.0
Zn141 Zn 0.35147 0.41021 0.22972 0.0
O142 O 0.33931 0.3826 0.17213 0.0
O143 O 0.37177 0.37254 0.17009 0.0
O144 O 0.31869 0.4142 0.24196 0.0
O145 O 0.39277 0.39209 0.28802 0.0
O146 O 0.35665 0.39598 0.29729 0.0
C147 C 0.34917 0.36871 0.15481 0.0
C148 C 0.40614 0.45704 0.19689 0.0
O149 O 0.38223 0.44895 0.21218 0.0
O150 O 0.41481 0.44061 0.19374 0.0
C151 C 0.30479 0.41652 0.20727 0.0
O152 O 0.31216 0.41701 0.16126 0.0
C153 C 0.37385 0.39005 0.31484 0.0
Zn154 Zn 1.00392 0.37734 0.70972 0.0
Zn155 Zn 0.95406 0.33761 0.72126 0.0
O156 O 0.97022 0.32477 0.66626 0.0
O157 O 1.01328 0.35578 0.66568 0.0
O158 O 0.91699 0.30481 0.73176 0.0
O159 O 1.01245 0.378 0.78119 0.0
O160 O 0.97171 0.34281 0.79032 0.0
C161 C 0.99418 0.33353 0.65047 0.0
C162 C 0.96416 0.39251 0.68433 0.0
O163 O 0.94747 0.36901 0.70088 0.0
O164 O 0.98908 0.40015 0.68196 0.0
C165 C 0.89708 0.29795 0.70254 0.0
O166 O 0.89998 0.31319 0.66374 0.0
C167 C 0.99467 0.35977 0.80835 0.0
H168 H 0.98457 0.35411 0.12442 0.0
H169 H 0.04405 0.38502 0.85303 0.0
H170 H 0.06972 0.38987 0.09388 0.0
H171 H 0.95934 0.33247 0.88372 0.0
H172 H 0.05388 0.3863 0.94101 0.0
H173 H 0.97487 0.34524 0.03662 0.0
C174 C 1.00125 0.35999 0.09924 0.0
C175 C 0.02804 0.37302 0.11638 0.0
C176 C 0.03317 0.37428 0.92853 0.0
C177 C 0.01703 0.36297 0.01579 0.0
C178 C 0.0275 0.37362 0.8783 0.0
C179 C 1.00077 0.35882 0.86112 0.0
C180 C 1.01193 0.36032 0.96196 0.0
C181 C 0.9802 0.34421 0.89545 0.0
C182 C 0.99566 0.35479 0.04913 0.0
C183 C 0.04879 0.37989 0.08218 0.0
N184 N 0.98618 0.34558 0.94441 0.0
N185 N 0.04285 0.37504 0.03335 0.0
H186 H 0.6981 0.03711 0.34399 0.0
H187 H 0.68176 0.98447 0.61553 0.0
H188 H 0.65394 0.95335 0.38873 0.0
H189 H 0.71612 0.06805 0.57202 0.0
H190 H 0.68907 0.97374 0.53225 0.0
H191 H 0.72144 0.04842 0.42344 0.0
C192 C 0.69378 0.02098 0.37018 0.0
C193 C 0.67333 0.99439 0.36067 0.0
C194 C 0.69574 0.99457 0.5412 0.0
C195 C 0.69965 1.00728 0.45182 0.0
C196 C 0.6916 1.00073 0.58878 0.0
C197 C 0.69738 0.02701 0.59997 0.0
C198 C 0.70527 0.01476 0.50455 0.0
C199 C 0.71075 0.0474 0.56451 0.0
C200 C 0.70716 0.02746 0.41551 0.0
C201 C 0.66911 0.9742 0.39514 0.0
N202 N 0.71353 0.0407 0.5178 0.0
N203 N 0.68161 0.98117 0.43989 0.0
H204 H 0.6619 0.71922 0.07796 0.0
H205 H 0.72175 0.65945 0.89181 0.0
H206 H 0.70301 0.67581 0.11871 0.0
H207 H 0.67551 0.69766 0.85139 0.0
H208 H 0.73039 0.68077 0.97285 0.0
H209 H 0.68204 0.72718 -0.0042 0.0
C210 C 0.6758 0.71208 0.07012 0.0
C211 C 0.68 0.69596 0.10437 0.0
C212 C 0.71894 0.68507 0.94578 0.0
C213 C 0.70267 0.70452 0.0106 0.0
C214 C 0.71409 0.67295 0.89945 0.0
C215 C 0.69704 0.67601 0.86571 0.0
C216 C 0.70643 0.70004 0.95821 0.0
C217 C 0.68799 0.69403 0.87714 0.0
C218 C 0.68724 0.71653 0.02315 0.0
C219 C 0.69851 0.68755 0.09263 0.0
N220 N 0.69224 0.70487 0.92288 0.0
N221 N 0.70865 0.69135 0.0463 0.0
H222 H 0.07083 0.71186 0.3868 0.0
H223 H 0.95432 0.65143 0.57731 0.0
H224 H 0.98602 0.67033 0.34957 0.0
H225 H 0.03916 0.69422 0.6143 0.0
H226 H 0.96521 0.67322 0.49597 0.0
H227 H 0.05982 0.7211 0.46862 0.0
C228 C 0.04998 0.70541 0.39529 0.0
C229 C 0.02919 0.6893 0.3623 0.0
C230 C 0.98141 0.67843 0.52234 0.0
C231 C 0.01638 0.69922 0.45585 0.0
C232 C 0.97515 0.66601 0.56887 0.0
C233 C 0.99599 0.67018 0.60162 0.0
C234 C 1.00866 0.69473 0.50867 0.0
C235 C 0.02256 0.68966 0.58924 0.0
C236 C 0.04364 0.7106 0.44211 0.0
C237 C 1.00258 0.68192 0.37478 0.0
N238 N 0.02823 0.70068 0.54325 0.0
N239 N 0.99684 0.68628 0.42108 0.0
H240 H 0.35975 0.98111 0.84386 0.0
H241 H 0.38664 0.04036 0.11477 0.0
H242 H 0.3958 0.06635 0.87321 0.0
H243 H 0.3346 0.95572 0.08337 0.0
H244 H 0.38912 0.05043 0.02664 0.0
H245 H 0.34935 0.97149 0.93127 0.0
C246 C 0.36539 0.99783 0.86872 0.0
C247 C 0.37895 0.02462 0.85136 0.0
C248 C 0.37693 0.02969 0.039 0.0
C249 C 0.36712 0.01368 0.95159 0.0
C250 C 0.37558 0.02389 0.08931 0.0
C251 C 0.36063 0.9971 0.10634 0.0
C252 C 0.36351 1.00853 0.00538 0.0
C253 C 0.34646 0.97663 0.07178 0.0
C254 C 0.35931 0.99229 0.91861 0.0
C255 C 0.38545 0.04543 0.88512 0.0
N256 N 0.34852 0.98274 0.02279 0.0
N257 N 0.37974 0.03953 0.93383 0.0
H258 H 0.34402 0.3935 0.39024 0.0
H259 H 0.40553 0.33658 0.59453 0.0
H260 H 0.40005 0.36601 0.35721 0.0
H261 H 0.36954 0.38537 0.62752 0.0
H262 H 0.39522 0.33823 0.50672 0.0
H263 H 0.3449 0.38162 0.4772 0.0
C264 C 0.35629 0.38476 0.40118 0.0
C265 C 0.37229 0.38111 0.36665 0.0
C266 C 0.38939 0.34834 0.53339 0.0
C267 C 0.37328 0.36739 0.46563 0.0
C268 C 0.39518 0.34732 0.58337 0.0
C269 C 0.38874 0.36119 0.61809 0.0
C270 C 0.37684 0.36306 0.51842 0.0
C271 C 0.37526 0.37476 0.6018 0.0
C272 C 0.35682 0.37802 0.45074 0.0
C273 C 0.38772 0.36955 0.38277 0.0
N274 N 0.36988 0.37546 0.55312 0.0
N275 N 0.38794 0.36323 0.43116 0.0
H276 H 0.0427 0.65386 0.84583 0.0
H277 H 0.98538 0.63279 0.11807 0.0
H278 H 0.95829 0.62243 0.87801 0.0
H279 H 0.07059 0.67703 0.08509 0.0
H280 H 0.97527 0.63142 0.03031 0.0
H281 H 0.05349 0.66492 0.93266 0.0
C282 C 0.0264 0.64938 0.87116 0.0
C283 C 0.99947 0.63684 0.85478 0.0
C284 C 0.99619 0.64168 0.04217 0.0
C285 C 1.01177 0.64947 0.9544 0.0
C286 C 1.002 0.6424 0.0923 0.0
C287 C 0.0289 0.65472 0.10879 0.0
C288 C 0.0174 0.65308 0.00808 0.0
C289 C 0.04958 0.66718 0.07387 0.0
C290 C 0.03263 0.65584 0.92074 0.0
C291 C 0.97929 0.63189 0.88913 0.0
N292 N 0.04339 0.66572 0.02496 0.0
N293 N 0.98583 0.63795 0.93752 0.0
H294 H 0.33724 0.03564 0.34315 0.0
H295 H 0.31759 0.98411 0.61613 0.0
H296 H 0.30165 0.95219 0.38832 0.0
H297 H 0.36411 0.0675 0.57 0.0
H298 H 0.29502 0.97288 0.53594 0.0
H299 H 0.32967 0.04701 0.42573 0.0
C300 C 0.32708 0.01955 0.37011 0.0
C301 C 0.32097 0.99309 0.35961 0.0
C302 C 0.30963 0.99376 0.54372 0.0
C303 C 0.31276 1.00607 0.45425 0.0
C304 C 0.32256 1.0002 0.58949 0.0
C305 C 0.34345 0.02661 0.59889 0.0
C306 C 0.31802 0.01379 0.50692 0.0
C307 C 0.34855 0.04677 0.56376 0.0
C308 C 0.32278 0.02608 0.41728 0.0
C309 C 0.30722 0.97295 0.39531 0.0
N310 N 0.33645 0.03981 0.51865 0.0
N311 N 0.30429 0.97998 0.44164 0.0
H312 H 0.37382 0.30731 0.90248 0.0
H313 H 0.31499 0.36994 0.08415 0.0
H314 H 0.33388 0.35131 0.85784 0.0
H315 H 0.35537 0.32638 0.12865 0.0
H316 H 0.30718 0.3494 0.00244 0.0
H317 H 0.35298 0.29999 -0.0161 0.0
C318 C 0.36004 0.31473 0.90931 0.0
C319 C 0.35634 0.33078 0.87412 0.0
C320 C 0.31711 0.34375 0.0305 0.0
C321 C 0.33288 0.32299 0.96713 0.0
C322 C 0.32143 0.35539 0.07723 0.0
C323 C 0.33668 0.35056 0.11243 0.0
C324 C 0.32837 0.32747 0.01916 0.0
C325 C 0.3443 0.33132 0.10183 0.0
C326 C 0.3482 0.31066 0.95588 0.0
C327 C 0.33799 0.33959 0.88464 0.0
N328 N 0.34065 0.32097 0.05576 0.0
N329 N 0.32747 0.33616 0.93059 0.0
H330 H 0.0424 0.3381 0.62617 0.0
H331 H 0.99107 0.31016 0.3533 0.0
H332 H 0.95886 0.29936 0.58074 0.0
H333 H 0.0742 0.35978 0.39815 0.0
H334 H 0.98034 0.28958 0.43539 0.0
H335 H 0.05434 0.32909 0.54522 0.0
C336 C 0.02644 0.32702 0.59954 0.0
C337 C 0.99973 0.32034 0.60938 0.0
C338 C 1.00109 0.30441 0.42696 0.0
C339 C 1.01335 0.3104 0.51655 0.0
C340 C 1.00725 0.31618 0.38008 0.0
C341 C 0.03337 0.3374 0.36966 0.0
C342 C 0.0211 0.31431 0.46378 0.0
C343 C 0.05367 0.3439 0.4051 0.0
C344 C 0.03329 0.32187 0.55332 0.0
C345 C 0.97978 0.30539 0.5742 0.0
N346 N 0.04695 0.33294 0.4512 0.0
N347 N 0.98711 0.30159 0.52869 0.0
H348 H 0.64064 0.982 0.84635 0.0
H349 H 0.65516 0.03936 0.11693 0.0
H350 H 0.68275 0.06724 0.87858 0.0
H351 H 0.62623 0.95521 0.08696 0.0
H352 H 0.66759 0.05014 0.03049 0.0
H353 H 0.63776 0.97201 0.93445 0.0
C354 C 0.6495 0.99866 0.87204 0.0
C355 C 0.66163 0.02552 0.85521 0.0
C356 C 0.65874 0.02934 0.04281 0.0
C357 C 0.6582 0.01415 0.95626 0.0
C358 C 0.65148 0.02311 0.09216 0.0
C359 C 0.63929 0.99625 0.10905 0.0
C360 C 0.65354 1.00855 0.00985 0.0
C361 C 0.63539 0.97615 0.07542 0.0
C362 C 0.6479 0.99291 0.92237 0.0
C363 C 0.67309 0.04626 0.89005 0.0
N364 N 0.64224 0.98268 0.02722 0.0
N365 N 0.67076 0.04012 0.93909 0.0
H366 H 0.63239 0.68916 0.38461 0.0
H367 H 0.69234 0.62982 0.58744 0.0
H368 H 0.66619 0.63859 0.35013 0.0
H369 H 0.63842 0.65981 0.62117 0.0
H370 H 0.69133 0.64158 0.50031 0.0
H371 H 0.64303 0.68723 0.47206 0.0
C372 C 0.64231 0.67794 0.39536 0.0
C373 C 0.64805 0.66368 0.3603 0.0
C374 C 0.67991 0.64575 0.52698 0.0
C375 C 0.66033 0.66149 0.45966 0.0
C376 C 0.68053 0.6391 0.5766 0.0
C377 C 0.66513 0.64347 0.61135 0.0
C378 C 0.66401 0.65707 0.51234 0.0
C379 C 0.65026 0.65567 0.59543 0.0
C380 C 0.6483 0.67677 0.44516 0.0
C381 C 0.66101 0.64952 0.37611 0.0
N382 N 0.64997 0.66193 0.54705 0.0
N383 N 0.66658 0.64866 0.42466 0.0
H384 H 0.10315 0.60959 0.25035 0.0
H385 H 0.03747 0.45913 0.35693 0.0
H386 H 0.03339 0.57085 0.345 0.0
H387 H 0.10213 0.49134 0.25073 0.0
H388 H 0.04302 0.50389 0.36616 0.0
H389 H 0.10983 0.57054 0.26218 0.0
C390 C 0.08961 0.59315 0.27439 0.0
C391 C 0.06745 0.59323 0.29617 0.0
C392 C 0.05628 0.50139 0.34119 0.0
C393 C 0.07492 0.54875 0.30982 0.0
C394 C 0.05314 0.47579 0.33601 0.0
C395 C 0.0691 0.47147 0.30249 0.0
C396 C 0.07521 0.5229 0.31194 0.0
C397 C 0.08934 0.49385 0.27683 0.0
C398 C 0.09335 0.57086 0.28094 0.0
C399 C 0.05048 0.57144 0.32686 0.0
N400 N 0.09151 0.51859 0.28136 0.0
N401 N 0.05445 0.55009 0.33241 0.0
H402 H 0.49829 0.09946 0.71329 0.0
H403 H 0.58049 0.03075 0.61453 0.0
H404 H 0.46667 0.03093 0.61617 0.0
H405 H 0.61499 0.09743 0.71601 0.0
H406 H 0.54171 0.03695 0.60304 0.0
H407 H 0.54367 0.10521 0.70378 0.0
C408 C 0.501 0.08604 0.68914 0.0
C409 C 0.47867 0.06444 0.66605 0.0
C410 C 0.55781 0.0505 0.62749 0.0
C411 C 0.5302 0.07078 0.65517 0.0
C412 C 0.58001 0.04695 0.634 0.0
C413 C 0.60078 0.06336 0.66678 0.0
C414 C 0.55596 0.07029 0.65469 0.0
C415 C 0.5993 0.08428 0.69053 0.0
C416 C 0.52683 0.08923 0.68392 0.0
C417 C 0.48325 0.04758 0.6353 0.0
N418 N 0.57696 0.08686 0.68474 0.0
N419 N 0.50836 0.05097 0.63115 0.0
H420 H 0.55434 0.59329 0.11456 0.0
H421 H 0.41043 0.50253 0.23986 0.0
H422 H 0.52794 0.62021 0.23917 0.0
H423 H 0.44486 0.47661 0.12672 0.0
H424 H 0.44785 0.54919 0.2285 0.0
H425 H 0.50894 0.55485 0.10572 0.0
C426 C 0.53873 0.59131 0.1395 0.0
C427 C 0.54487 0.6097 0.17793 0.0
C428 C 0.44686 0.53333 0.20555 0.0
C429 C 0.4929 0.56512 0.16926 0.0
C430 C 0.42547 0.50678 0.21184 0.0
C431 C 0.42484 0.48572 0.18463 0.0
C432 C 0.46741 0.53866 0.17148 0.0
C433 C 0.44483 0.49221 0.14898 0.0
C434 C 0.5128 0.56928 0.13464 0.0
C435 C 0.52392 0.60638 0.20907 0.0
N436 N 0.46533 0.51798 0.14377 0.0
N437 N 0.49889 0.58409 0.20476 0.0
H438 H 0.92249 0.51632 0.72211 0.0
H439 H 0.98499 0.43063 0.61231 0.0
H440 H 0.98885 0.5461 0.61975 0.0
H441 H 0.92459 0.39974 0.72655 0.0
H442 H 0.97828 0.46917 0.60124 0.0
H443 H 0.91532 0.47042 0.71201 0.0
C444 C 0.93513 0.5131 0.69674 0.0
C445 C 0.95655 0.53504 0.67227 0.0
C446 C 0.96615 0.45386 0.62836 0.0
C447 C 0.94851 0.48292 0.66055 0.0
C448 C 0.96994 0.43179 0.63454 0.0
C449 C 0.95558 0.41221 0.67083 0.0
C450 C 0.94826 0.4568 0.65942 0.0
C451 C 0.93612 0.41451 0.69826 0.0
C452 C 0.93112 0.48698 0.69116 0.0
C453 C 0.97238 0.52983 0.63994 0.0
N454 N 0.93339 0.43677 0.69271 0.0
N455 N 0.96817 0.50442 0.63537 0.0
H456 H 0.43189 0.98044 0.35379 0.0
H457 H 0.51863 0.91924 0.24317 0.0
H458 H 0.40156 0.92044 0.23926 0.0
H459 H 0.54804 0.98578 0.34459 0.0
H460 H 0.4726 0.91167 0.25364 0.0
H461 H 0.47071 0.97417 0.36437 0.0
C462 C 0.43324 0.96558 0.33138 0.0
C463 C 0.41372 0.95121 0.29515 0.0
C464 C 0.4891 0.9276 0.2742 0.0
C465 C 0.45864 0.94439 0.30604 0.0
C466 C 0.51531 0.93184 0.26842 0.0
C467 C 0.53717 0.95342 0.29252 0.0
C468 C 0.48489 0.94492 0.30466 0.0
C469 C 0.53182 0.96919 0.32469 0.0
C470 C 0.45547 0.96204 0.3373 0.0
C471 C 0.41627 0.93197 0.26751 0.0
N472 N 0.50634 0.96476 0.32948 0.0
N473 N 0.43869 0.92949 0.27281 0.0
H474 H 0.62645 0.52309 0.73857 0.0
H475 H 0.48238 0.43364 0.86338 0.0
H476 H 0.59351 0.54891 0.85454 0.0
H477 H 0.50875 0.40581 0.74006 0.0
H478 H 0.528 0.4716 0.87282 0.0
H479 H 0.58876 0.47654 0.74973 0.0
C480 C 0.61171 0.51881 0.76723 0.0
C481 C 0.61279 0.53982 0.79527 0.0
C482 C 0.52409 0.45707 0.84404 0.0
C483 C 0.56989 0.48705 0.80809 0.0
C484 C 0.49802 0.43533 0.83881 0.0
C485 C 0.49182 0.41682 0.80061 0.0
C486 C 0.54409 0.46085 0.80995 0.0
C487 C 0.51281 0.41976 0.76997 0.0
C488 C 0.59016 0.49233 0.77339 0.0
C489 C 0.59319 0.53333 0.83168 0.0
N490 N 0.53799 0.44178 0.77459 0.0
N491 N 0.57249 0.50765 0.83669 0.0
H492 H 0.15251 0.41502 0.18764 0.0
H493 H 0.28349 0.4157 0.29815 0.0
H494 H 0.16728 0.4123 0.34374 0.0
H495 H 0.26935 0.41961 0.1421 0.0
H496 H 0.2417 0.41584 0.31562 0.0
H497 H 0.19587 0.41816 0.17032 0.0
C498 C 0.16489 0.41519 0.21832 0.0
C499 C 0.15613 0.41331 0.26726 0.0
C500 C 0.24776 0.41675 0.27755 0.0
C501 C 0.2059 0.41682 0.24761 0.0
C502 C 0.27166 0.41668 0.26752 0.0
C503 C 0.27997 0.41757 0.21853 0.0
C504 C 0.23194 0.41767 0.23835 0.0
C505 C 0.26377 0.41885 0.18043 0.0
C506 C 0.18968 0.41697 0.20838 0.0
C507 C 0.17313 0.41366 0.30544 0.0
N508 N 0.24053 0.41878 0.19113 0.0
N509 N 0.19711 0.41528 0.2948 0.0
H510 H 0.84971 0.27791 0.64988 0.0
H511 H 0.77806 0.13617 0.79414 0.0
H512 H 0.88585 0.25927 0.77379 0.0
H513 H 0.73743 0.15842 0.68399 0.0
H514 H 0.81759 0.18128 0.78734 0.0
H515 H 0.80838 0.23447 0.66178 0.0
C516 C 0.84895 0.26476 0.67972 0.0
C517 C 0.87139 0.27227 0.71076 0.0
C518 C 0.79999 0.17637 0.76481 0.0
C519 C 0.82408 0.22236 0.72444 0.0
C520 C 0.77738 0.15057 0.76864 0.0
C521 C 0.75437 0.14341 0.73946 0.0
C522 C 0.79978 0.19521 0.73125 0.0
C523 C 0.7547 0.16302 0.70721 0.0
C524 C 0.8253 0.23994 0.68652 0.0
C525 C 0.86913 0.25437 0.74888 0.0
N526 N 0.77709 0.18794 0.70375 0.0
N527 N 0.846 0.23024 0.75444 0.0
H528 H 0.55844 0.73367 0.24754 0.0
H529 H 0.66051 0.89288 0.21878 0.0
H530 H 0.64386 0.7693 0.22017 0.0
H531 H 0.57541 0.85875 0.24756 0.0
H532 H 0.65433 0.84749 0.21836 0.0
H533 H 0.56382 0.77896 0.24729 0.0
C534 C 0.57832 0.75097 0.24153 0.0
C535 C 0.60073 0.7476 0.23388 0.0
C536 C 0.63696 0.84986 0.22473 0.0
C537 C 0.60701 0.79953 0.23345 0.0
C538 C 0.64047 0.87584 0.22493 0.0
C539 C 0.61845 0.87971 0.23326 0.0
C540 C 0.61121 0.82742 0.23293 0.0
C541 C 0.59297 0.85676 0.24098 0.0
C542 C 0.58137 0.77684 0.24136 0.0
C543 C 0.62599 0.77083 0.22626 0.0
N544 N 0.59006 0.83161 0.24069 0.0
N545 N 0.62841 0.79571 0.22622 0.0
H546 H 0.8955 0.6579 0.74652 0.0
H547 H 0.73625 0.55514 0.72291 0.0
H548 H 0.86147 0.57265 0.7199 0.0
H549 H 0.77164 0.64056 0.74939 0.0
H550 H 0.78163 0.56076 0.72191 0.0
H551 H 0.85005 0.65152 0.74828 0.0
C552 C 0.87847 0.63779 0.74113 0.0
C553 C 0.88239 0.61578 0.73302 0.0
C554 C 0.77944 0.57826 0.72793 0.0
C555 C 0.83003 0.60832 0.73488 0.0
C556 C 0.75352 0.57507 0.72847 0.0
C557 C 0.75006 0.59741 0.73623 0.0
C558 C 0.80209 0.60397 0.7352 0.0
C559 C 0.77325 0.62274 0.74325 0.0
C560 C 0.85246 0.63416 0.7421 0.0
C561 C 0.85945 0.59021 0.72628 0.0
N562 N 0.79819 0.6253 0.74257 0.0
N563 N 0.83427 0.58719 0.7273 0.0
H564 H 0.26075 0.88192 0.19156 0.0
H565 H 0.16189 0.7289 0.27806 0.0
H566 H 0.27977 0.84318 0.31061 0.0
H567 H 0.13844 0.7726 0.17702 0.0
H568 H 0.20687 0.7689 0.28439 0.0
H569 H 0.21764 0.8404 0.17978 0.0
C570 C 0.25596 0.86465 0.2151 0.0
C571 C 0.27393 0.86614 0.25233 0.0
C572 C 0.1919 0.76969 0.26071 0.0
C573 C 0.22443 0.81841 0.23895 0.0
C574 C 0.16623 0.74682 0.25695 0.0
C575 C 0.14627 0.74739 0.22711 0.0
C576 C 0.19777 0.79329 0.23424 0.0
C577 C 0.1531 0.77123 0.20066 0.0
C578 C 0.23127 0.84094 0.20839 0.0
C579 C 0.26653 0.84304 0.2816 0.0
N580 N 0.17822 0.79319 0.20491 0.0
N581 N 0.24236 0.82016 0.27435 0.0
H582 H 0.41382 0.26388 0.78651 0.0
H583 H 0.44113 0.16673 0.61494 0.0
H584 H 0.44705 0.28557 0.63959 0.0
H585 H 0.41162 0.14644 0.76446 0.0
H586 H 0.44418 0.21065 0.62391 0.0
H587 H 0.41356 0.22113 0.77975 0.0
C588 C 0.42115 0.25972 0.75287 0.0
C589 C 0.43042 0.27838 0.7135 0.0
C590 C 0.43712 0.19664 0.65484 0.0
C591 C 0.4301 0.22934 0.70548 0.0
C592 C 0.43537 0.17152 0.64975 0.0
C593 C 0.42603 0.15277 0.68896 0.0
C594 C 0.4294 0.20314 0.69944 0.0
C595 C 0.4189 0.1602 0.7332 0.0
C596 C 0.421 0.23528 0.74904 0.0
C597 C 0.43969 0.27183 0.67087 0.0
N598 N 0.42064 0.18473 0.73716 0.0
N599 N 0.43921 0.24786 0.66795 0.0
loop_
_geom_bond_atom_site_label_1
_geom_bond_atom_site_label_2
_geom_bond_distance
_geom_bond_site_symmetry_2
_ccdc_geom_bond_type
Zn0 O3 2.031 . S
Zn0 O5 2.049 . S
Zn0 O10 2.067 . S
Zn1 O2 1.962 . S
Zn1 O4 1.986 . S
Zn1 O6 1.996 . S
Zn1 O9 1.943 . S
O2 Zn1 1.962 . S
O2 C7 1.254 . S
O3 Zn0 2.031 . S
O3 C7 1.269 . S
O4 Zn1 1.986 . S
O4 C11 1.262 . S
O5 Zn0 2.049 . S
O5 C13 1.260 . S
O6 Zn1 1.996 . S
O6 C13 1.257 . S
C7 O2 1.254 . S
C7 O3 1.269 . S
C8 O9 1.249 . S
C8 O10 1.270 . S
O9 Zn1 1.943 . S
O9 C8 1.249 . S
O10 Zn0 2.067 . S
O10 C8 1.270 . S
C11 O4 1.262 . S
C11 O12 1.232 . S
O12 C11 1.232 . S
C13 O5 1.260 . S
C13 O6 1.257 . S
Zn14 O17 2.031 . S
Zn14 O19 2.049 . S
Zn14 O24 2.067 . S
Zn15 O16 1.962 . S
Zn15 O18 1.986 . S
Zn15 O20 1.996 . S
Zn15 O23 1.943 . S
O16 Zn15 1.962 . S
O16 C21 1.254 . S
O17 Zn14 2.031 . S
O17 C21 1.269 . S
O18 Zn15 1.986 . S
O18 C25 1.262 . S
O19 Zn14 2.049 . S
O19 C27 1.260 . S
O20 Zn15 1.996 . S
O20 C27 1.257 . S
C21 O16 1.254 . S
C21 O17 1.269 . S
C22 O23 1.249 . S
C22 O24 1.270 . S
O23 Zn15 1.943 . S
O23 C22 1.249 . S
O24 Zn14 2.067 . S
O24 C22 1.270 . S
C25 O18 1.262 . S
C25 O26 1.232 . S
O26 C25 1.232 . S
C27 O19 1.260 . S
C27 O20 1.257 . S
Zn28 O31 2.031 . S
Zn28 O33 2.049 . S
Zn28 O38 2.067 . S
Zn29 O30 1.962 . S
Zn29 O32 1.986 . S
Zn29 O34 1.996 . S
Zn29 O37 1.943 . S
O30 Zn29 1.962 . S
O30 C35 1.254 . S
O31 Zn28 2.031 . S
O31 C35 1.269 . S
O32 Zn29 1.986 . S
O32 C39 1.262 . S
O33 Zn28 2.049 . S
O33 C41 1.260 . S
O34 Zn29 1.996 . S
O34 C41 1.257 . S
C35 O30 1.254 . S
C35 O31 1.269 . S
C36 O37 1.249 . S
C36 O38 1.270 . S
O37 Zn29 1.943 . S
O37 C36 1.249 . S
O38 Zn28 2.067 . S
O38 C36 1.270 . S
C39 O32 1.262 . S
C39 O40 1.232 . S
O40 C39 1.232 . S
C41 O33 1.260 . S
C41 O34 1.257 . S
Zn42 O45 2.031 . S
Zn42 O47 2.049 . S
Zn42 O52 2.067 . S
Zn43 O44 1.962 . S
Zn43 O46 1.986 . S
Zn43 O48 1.996 . S
Zn43 O51 1.943 . S
O44 Zn43 1.962 . S
O44 C49 1.254 . S
O45 Zn42 2.031 . S
O45 C49 1.269 . S
O46 Zn43 1.986 . S
O46 C53 1.262 . S
O47 Zn42 2.049 . S
O47 C55 1.260 . S
O48 Zn43 1.996 . S
O48 C55 1.257 . S
C49 O44 1.254 . S
C49 O45 1.269 . S
C50 O51 1.249 . S
C50 O52 1.270 . S
O51 Zn43 1.943 . S
O51 C50 1.249 . S
O52 Zn42 2.067 . S
O52 C50 1.270 . S
C53 O46 1.262 . S
C53 O54 1.232 . S
O54 C53 1.232 . S
C55 O47 1.260 . S
C55 O48 1.257 . S
Zn56 O59 2.031 . S
Zn56 O61 2.049 . S
Zn56 O66 2.067 . S
Zn57 O58 1.962 . S
Zn57 O60 1.986 . S
Zn57 O62 1.996 . S
Zn57 O65 1.943 . S
O58 Zn57 1.962 . S
O58 C63 1.254 . S
O59 Zn56 2.031 . S
O59 C63 1.269 . S
O60 Zn57 1.986 . S
O60 C67 1.262 . S
O61 Zn56 2.049 . S
O61 C69 1.260 . S
O62 Zn57 1.996 . S
O62 C69 1.257 . S
C63 O58 1.254 . S
C63 O59 1.269 . S
C64 O65 1.249 . S
C64 O66 1.270 . S
O65 Zn57 1.943 . S
O65 C64 1.249 . S
O66 Zn56 2.067 . S
O66 C64 1.270 . S
C67 O60 1.262 . S
C67 O68 1.232 . S
O68 C67 1.232 . S
C69 O61 1.260 . S
C69 O62 1.257 . S
Zn70 O73 2.031 . S
Zn70 O75 2.049 . S
Zn70 O80 2.067 . S
Zn71 O72 1.962 . S
Zn71 O74 1.986 . S
Zn71 O76 1.996 . S
Zn71 O79 1.943 . S
O72 Zn71 1.962 . S
O72 C77 1.254 . S
O73 Zn70 2.031 . S
O73 C77 1.269 . S
O74 Zn71 1.986 . S
O74 C81 1.262 . S
O75 Zn70 2.049 . S
O75 C83 1.260 . S
O76 Zn71 1.996 . S
O76 C83 1.257 . S
C77 O72 1.254 . S
C77 O73 1.269 . S
C78 O79 1.249 . S
C78 O80 1.270 . S
O79 Zn71 1.943 . S
O79 C78 1.249 . S
O80 Zn70 2.067 . S
O80 C78 1.270 . S
C81 O74 1.262 . S
C81 O82 1.232 . S
O82 C81 1.232 . S
C83 O75 1.260 . S
C83 O76 1.257 . S
Zn84 O87 2.031 . S
Zn84 O89 2.049 . S
Zn84 O94 2.067 . S
Zn85 O86 1.962 . S
Zn85 O88 1.986 . S
Zn85 O90 1.996 . S
Zn85 O93 1.943 . S
O86 Zn85 1.962 . S
O86 C91 1.254 . S
O87 Zn84 2.031 . S
O87 C91 1.269 . S
O88 Zn85 1.986 . S
O88 C95 1.262 . S
O89 Zn84 2.049 . S
O89 C97 1.260 . S
O90 Zn85 1.996 . S
O90 C97 1.257 . S
C91 O86 1.254 . S
C91 O87 1.269 . S
C92 O93 1.249 . S
C92 O94 1.270 . S
O93 Zn85 1.943 . S
O93 C92 1.249 . S
O94 Zn84 2.067 . S
O94 C92 1.270 . S
C95 O88 1.262 . S
C95 O96 1.232 . S
O96 C95 1.232 . S
C97 O89 1.260 . S
C97 O90 1.257 . S
Zn98 O101 2.031 . S
Zn98 O103 2.049 . S
Zn98 O108 2.067 . S
Zn99 O100 1.962 . S
Zn99 O102 1.986 . S
Zn99 O104 1.996 . S
Zn99 O107 1.943 . S
O100 Zn99 1.962 . S
O100 C105 1.254 . S
O101 Zn98 2.031 . S
O101 C105 1.269 . S
O102 Zn99 1.986 . S
O102 C109 1.262 . S
O103 Zn98 2.049 . S
O103 C111 1.260 . S
O104 Zn99 1.996 . S
O104 C111 1.257 . S
C105 O100 1.254 . S
C105 O101 1.269 . S
C106 O107 1.249 . S
C106 O108 1.270 . S
O107 Zn99 1.943 . S
O107 C106 1.249 . S
O108 Zn98 2.067 . S
O108 C106 1.270 . S
C109 O102 1.262 . S
C109 O110 1.232 . S
O110 C109 1.232 . S
C111 O103 1.260 . S
C111 O104 1.257 . S
Zn112 O115 2.031 . S
Zn112 O117 2.049 . S
Zn112 O122 2.067 . S
Zn113 O114 1.962 . S
Zn113 O116 1.986 . S
Zn113 O118 1.996 . S
Zn113 O121 1.943 . S
O114 Zn113 1.962 . S
O114 C119 1.254 . S
O115 Zn112 2.031 . S
O115 C119 1.269 . S
O116 Zn113 1.986 . S
O116 C123 1.262 . S
O117 Zn112 2.049 . S
O117 C125 1.260 . S
O118 Zn113 1.996 . S
O118 C125 1.257 . S
C119 O114 1.254 . S
C119 O115 1.269 . S
C120 O121 1.249 . S
C120 O122 1.270 . S
O121 Zn113 1.943 . S
O121 C120 1.249 . S
O122 Zn112 2.067 . S
O122 C120 1.270 . S
C123 O116 1.262 . S
C123 O124 1.232 . S
O124 C123 1.232 . S
C125 O117 1.260 . S
C125 O118 1.257 . S
Zn126 O129 2.031 . S
Zn126 O131 2.049 . S
Zn126 O136 2.067 . S
Zn127 O128 1.962 . S
Zn127 O130 1.986 . S
Zn127 O132 1.996 . S
Zn127 O135 1.943 . S
O128 Zn127 1.962 . S
O128 C133 1.254 . S
O129 Zn126 2.031 . S
O129 C133 1.269 . S
O130 Zn127 1.986 . S
O130 C137 1.262 . S
O131 Zn126 2.049 . S
O131 C139 1.260 . S
O132 Zn127 1.996 . S
O132 C139 1.257 . S
C133 O128 1.254 . S
C133 O129 1.269 . S
C134 O135 1.249 . S
C134 O136 1.270 . S
O135 Zn127 1.943 . S
O135 C134 1.249 . S
O136 Zn126 2.067 . S
O136 C134 1.270 . S
C137 O130 1.262 . S
C137 O138 1.232 . S
O138 C137 1.232 . S
C139 O131 1.260 . S
C139 O132 1.257 . S
Zn140 O143 2.031 . S
Zn140 O145 2.049 . S
Zn140 O150 2.067 . S
Zn141 O142 1.962 . S
Zn141 O144 1.986 . S
Zn141 O146 1.996 . S
Zn141 O149 1.943 . S
O142 Zn141 1.962 . S
O142 C147 1.254 . S
O143 Zn140 2.031 . S
O143 C147 1.269 . S
O144 Zn141 1.986 . S
O144 C151 1.262 . S
O145 Zn140 2.049 . S
O145 C153 1.260 . S
O146 Zn141 1.996 . S
O146 C153 1.257 . S
C147 O142 1.254 . S
C147 O143 1.269 . S
C148 O149 1.249 . S
C148 O150 1.270 . S
O149 Zn141 1.943 . S
O149 C148 1.249 . S
O150 Zn140 2.067 . S
O150 C148 1.270 . S
C151 O144 1.262 . S
C151 O152 1.232 . S
O152 C151 1.232 . S
C153 O145 1.260 . S
C153 O146 1.257 . S
Zn154 O157 2.031 . S
Zn154 O159 2.049 . S
Zn154 O164 2.067 . S
Zn155 O156 1.962 . S
Zn155 O158 1.986 . S
Zn155 O160 1.996 . S
Zn155 O163 1.943 . S
O156 Zn155 1.962 . S
O156 C161 1.254 . S
O157 Zn154 2.031 . S
O157 C161 1.269 . S
O158 Zn155 1.986 . S
O158 C165 1.262 . S
O159 Zn154 2.049 . S
O159 C167 1.260 . S
O160 Zn155 1.996 . S
O160 C167 1.257 . S
C161 O156 1.254 . S
C161 O157 1.269 . S
C162 O163 1.249 . S
C162 O164 1.270 . S
O163 Zn155 1.943 . S
O163 C162 1.249 . S
O164 Zn154 2.067 . S
O164 C162 1.270 . S
C165 O158 1.262 . S
C165 O166 1.232 . S
O166 C165 1.232 . S
C167 O159 1.260 . S
C167 O160 1.257 . S
H168 C174 0.930 1_655 S
H169 C178 0.930 1_455 S
H170 C183 0.929 . S
H171 C181 0.929 . S
H172 C176 0.929 . S
H173 C182 0.929 . S
C174 H168 0.930 1_455 S
C174 C175 1.367 . S
C174 C182 1.378 1_455 S
C175 C174 1.367 . S
C175 C183 1.433 . S
C176 H172 0.929 . S
C176 C178 1.378 1_455 S
C176 C180 1.350 1_455 S
C177 C180 1.463 1_454 S
C177 C182 1.350 1_455 S
C177 N185 1.427 . S
C178 H169 0.930 1_655 S
C178 C176 1.378 1_655 S
C178 C179 1.367 . S
C179 C178 1.367 . S
C179 C181 1.433 . S
C180 C176 1.350 1_655 S
C180 C177 1.463 1_656 S
C180 N184 1.427 . S
C181 H171 0.929 . S
C181 C179 1.433 . S
C181 N184 1.384 . S
C182 H173 0.929 . S
C182 C174 1.378 1_655 S
C182 C177 1.350 1_655 S
C183 H170 0.929 . S
C183 C175 1.433 . S
C183 N185 1.384 . S
N184 C180 1.427 . S
N184 C181 1.384 . S
N185 C177 1.427 . S
N185 C183 1.384 . S
H186 C192 0.935 . S
H187 C196 0.935 . S
H188 C201 0.929 . S
H189 C199 0.929 . S
H190 C194 0.929 . S
H191 C200 0.929 . S
C192 H186 0.935 . S
C192 C193 1.367 . S
C192 C200 1.378 1_565 S
C193 C192 1.367 . S
C193 C201 1.433 . S
C194 H190 0.929 . S
C194 C196 1.378 1_565 S
C194 C198 1.350 1_565 S
C195 C198 1.463 1_565 S
C195 C200 1.350 1_565 S
C195 N203 1.427 . S
C196 H187 0.935 . S
C196 C194 1.378 1_545 S
C196 C197 1.367 . S
C197 C196 1.367 . S
C197 C199 1.433 . S
C198 C194 1.350 1_545 S
C198 C195 1.463 1_545 S
C198 N202 1.427 . S
C199 H189 0.929 . S
C199 C197 1.433 . S
C199 N202 1.384 . S
C200 H191 0.929 . S
C200 C192 1.378 1_545 S
C200 C195 1.350 1_545 S
C201 H188 0.929 . S
C201 C193 1.433 . S
C201 N203 1.384 . S
N202 C198 1.427 . S
N202 C199 1.384 . S
N203 C195 1.427 . S
N203 C201 1.384 . S
H204 C210 0.930 . S
H205 C214 0.930 . S
H206 C219 0.929 . S
H207 C217 0.929 . S
H208 C212 0.929 . S
H209 C218 0.929 . S
C210 H204 0.930 . S
C210 C211 1.367 . S
C210 C218 1.378 . S
C211 C210 1.367 . S
C211 C219 1.433 . S
C212 H208 0.929 . S
C212 C214 1.378 . S
C212 C216 1.350 . S
C213 C216 1.463 1_554 S
C213 C218 1.350 . S
C213 N221 1.427 . S
C214 H205 0.930 . S
C214 C212 1.378 . S
C214 C215 1.367 . S
C215 C214 1.367 . S
C215 C217 1.433 . S
C216 C212 1.350 . S
C216 C213 1.463 1_556 S
C216 N220 1.427 . S
C217 H207 0.929 . S
C217 C215 1.433 . S
C217 N220 1.384 . S
C218 H209 0.929 . S
C218 C210 1.378 . S
C218 C213 1.350 . S
C219 H206 0.929 . S
C219 C211 1.433 . S
C219 N221 1.384 . S
N220 C216 1.427 . S
N220 C217 1.384 . S
N221 C213 1.427 . S
N221 C219 1.384 . S
H222 C228 0.930 . S
H223 C232 0.930 . S
H224 C237 0.929 1_655 S
H225 C235 0.929 1_455 S
H226 C230 0.929 . S
H227 C236 0.929 . S
C228 H222 0.930 . S
C228 C229 1.367 . S
C228 C236 1.378 . S
C229 C228 1.367 . S
C229 C237 1.433 . S
C230 H226 0.929 . S
C230 C232 1.378 . S
C230 C234 1.350 . S
C231 C234 1.463 1_455 S
C231 C236 1.350 . S
C231 N239 1.427 1_455 S
C232 H223 0.930 . S
C232 C230 1.378 . S
C232 C233 1.367 . S
C233 C232 1.367 . S
C233 C235 1.433 . S
C234 C230 1.350 . S
C234 C231 1.463 1_655 S
C234 N238 1.427 1_655 S
C235 H225 0.929 1_655 S
C235 C233 1.433 . S
C235 N238 1.384 1_655 S
C236 H227 0.929 . S
C236 C228 1.378 . S
C236 C231 1.350 . S
C237 H224 0.929 1_455 S
C237 C229 1.433 . S
C237 N239 1.384 1_455 S
N238 C234 1.427 1_455 S
N238 C235 1.384 1_455 S
N239 C231 1.427 1_655 S
N239 C237 1.384 1_655 S
H240 C246 0.930 . S
H241 C250 0.930 . S
H242 C255 0.929 . S
H243 C253 0.929 . S
H244 C248 0.929 . S
H245 C254 0.929 . S
C246 H240 0.930 . S
C246 C247 1.367 . S
C246 C254 1.378 1_545 S
C247 C246 1.367 . S
C247 C255 1.433 . S
C248 H244 0.929 . S
C248 C250 1.378 1_545 S
C248 C252 1.350 1_545 S
C249 C252 1.463 1_546 S
C249 C254 1.350 1_545 S
C249 N257 1.427 . S
C250 H241 0.930 . S
C250 C248 1.378 1_565 S
C250 C251 1.367 . S
C251 C250 1.367 . S
C251 C253 1.433 . S
C252 C248 1.350 1_565 S
C252 C249 1.463 1_564 S
C252 N256 1.427 . S
C253 H243 0.929 . S
C253 C251 1.433 . S
C253 N256 1.384 . S
C254 H245 0.929 . S
C254 C246 1.378 1_565 S
C254 C249 1.350 1_565 S
C255 H242 0.929 . S
C255 C247 1.433 . S
C255 N257 1.384 . S
N256 C252 1.427 . S
N256 C253 1.384 . S
N257 C249 1.427 . S
N257 C255 1.384 . S
H258 C264 0.930 . S
H259 C268 0.930 . S
H260 C273 0.929 . S
H261 C271 0.929 . S
H262 C266 0.929 . S
H263 C272 0.929 . S
C264 H258 0.930 . S
C264 C265 1.367 . S
C264 C272 1.378 . S
C265 C264 1.367 . S
C265 C273 1.433 . S
C266 H262 0.929 . S
C266 C268 1.378 . S
C266 C270 1.350 . S
C267 C270 1.463 . S
C267 C272 1.350 . S
C267 N275 1.427 . S
C268 H259 0.930 . S
C268 C266 1.378 . S
C268 C269 1.367 . S
C269 C268 1.367 . S
C269 C271 1.433 . S
C270 C266 1.350 . S
C270 C267 1.463 . S
C270 N274 1.427 . S
C271 H261 0.929 . S
C271 C269 1.433 . S
C271 N274 1.384 . S
C272 H263 0.929 . S
C272 C264 1.378 . S
C272 C267 1.350 . S
C273 H260 0.929 . S
C273 C265 1.433 . S
C273 N275 1.384 . S
N274 C270 1.427 . S
N274 C271 1.384 . S
N275 C267 1.427 . S
N275 C273 1.384 . S
H276 C282 0.930 . S
H277 C286 0.930 . S
H278 C291 0.929 . S
H279 C289 0.929 . S
H280 C284 0.929 . S
H281 C290 0.929 . S
C282 H276 0.930 . S
C282 C283 1.367 . S
C282 C290 1.378 . S
C283 C282 1.367 . S
C283 C291 1.433 . S
C284 H280 0.929 . S
C284 C286 1.378 . S
C284 C288 1.350 . S
C285 C288 1.463 1_656 S
C285 C290 1.350 . S
C285 N293 1.427 . S
C286 H277 0.930 . S
C286 C284 1.378 . S
C286 C287 1.367 . S
C287 C286 1.367 . S
C287 C289 1.433 . S
C288 C284 1.350 . S
C288 C285 1.463 1_454 S
C288 N292 1.427 . S
C289 H279 0.929 . S
C289 C287 1.433 . S
C289 N292 1.384 . S
C290 H281 0.929 . S
C290 C282 1.378 . S
C290 C285 1.350 . S
C291 H278 0.929 . S
C291 C283 1.433 . S
C291 N293 1.384 . S
N292 C288 1.427 . S
N292 C289 1.384 . S
N293 C285 1.427 . S
N293 C291 1.384 . S
H294 C300 0.930 1_545 S
H295 C304 0.930 1_565 S
H296 C309 0.929 . S
H297 C307 0.929 . S
H298 C302 0.929 . S
H299 C308 0.929 . S
C300 H294 0.930 1_565 S
C300 C301 1.367 . S
C300 C308 1.378 1_565 S
C301 C300 1.367 . S
C301 C309 1.433 . S
C302 H298 0.929 . S
C302 C304 1.378 1_565 S
C302 C306 1.350 1_565 S
C303 C306 1.463 1_565 S
C303 C308 1.350 1_565 S
C303 N311 1.427 . S
C304 H295 0.930 1_545 S
C304 C302 1.378 1_545 S
C304 C305 1.367 . S
C305 C304 1.367 . S
C305 C307 1.433 . S
C306 C302 1.350 1_545 S
C306 C303 1.463 1_545 S
C306 N310 1.427 . S
C307 H297 0.929 . S
C307 C305 1.433 . S
C307 N310 1.384 . S
C308 H299 0.929 . S
C308 C300 1.378 1_545 S
C308 C303 1.350 1_545 S
C309 H296 0.929 . S
C309 C301 1.433 . S
C309 N311 1.384 . S
N310 C306 1.427 . S
N310 C307 1.384 . S
N311 C303 1.427 . S
N311 C309 1.384 . S
H312 C318 0.930 . S
H313 C322 0.930 . S
H314 C327 0.929 . S
H315 C325 0.929 . S
H316 C320 0.929 1_556 S
H317 C326 0.929 1_554 S
C318 H312 0.930 . S
C318 C319 1.367 . S
C318 C326 1.378 . S
C319 C318 1.367 . S
C319 C327 1.433 . S
C320 H316 0.929 1_554 S
C320 C322 1.378 . S
C320 C324 1.350 . S
C321 C324 1.463 1_556 S
C321 C326 1.350 . S
C321 N329 1.427 . S
C322 H313 0.930 . S
C322 C320 1.378 . S
C322 C323 1.367 . S
C323 C322 1.367 . S
C323 C325 1.433 . S
C324 C320 1.350 . S
C324 C321 1.463 1_554 S
C324 N328 1.427 . S
C325 H315 0.929 . S
C325 C323 1.433 . S
C325 N328 1.384 . S
C326 H317 0.929 1_556 S
C326 C318 1.378 . S
C326 C321 1.350 . S
C327 H314 0.929 . S
C327 C319 1.433 . S
C327 N329 1.384 . S
N328 C324 1.427 . S
N328 C325 1.384 . S
N329 C321 1.427 . S
N329 C327 1.384 . S
H330 C336 0.934 . S
H331 C340 0.934 . S
H332 C345 0.929 . S
H333 C343 0.929 . S
H334 C338 0.929 . S
H335 C344 0.929 . S
C336 H330 0.934 . S
C336 C337 1.367 . S
C336 C344 1.378 1_655 S
C337 C336 1.367 . S
C337 C345 1.433 . S
C338 H334 0.929 . S
C338 C340 1.378 1_655 S
C338 C342 1.350 1_655 S
C339 C342 1.463 1_655 S
C339 C344 1.350 1_655 S
C339 N347 1.427 . S
C340 H331 0.934 . S
C340 C338 1.378 1_455 S
C340 C341 1.367 . S
C341 C340 1.367 . S
C341 C343 1.433 . S
C342 C338 1.350 1_455 S
C342 C339 1.463 1_455 S
C342 N346 1.427 . S
C343 H333 0.929 . S
C343 C341 1.433 . S
C343 N346 1.384 . S
C344 H335 0.929 . S
C344 C336 1.378 1_455 S
C344 C339 1.350 1_455 S
C345 H332 0.929 . S
C345 C337 1.433 . S
C345 N347 1.384 . S
N346 C342 1.427 . S
N346 C343 1.384 . S
N347 C339 1.427 . S
N347 C345 1.384 . S
H348 C354 0.929 . S
H349 C358 0.929 . S
H350 C363 0.929 . S
H351 C361 0.929 . S
H352 C356 0.929 . S
H353 C362 0.929 . S
C354 H348 0.929 . S
C354 C355 1.367 . S
C354 C362 1.378 1_545 S
C355 C354 1.367 . S
C355 C363 1.433 . S
C356 H352 0.929 . S
C356 C358 1.378 1_545 S
C356 C360 1.350 1_545 S
C357 C360 1.463 1_546 S
C357 C362 1.350 1_545 S
C357 N365 1.427 . S
C358 H349 0.929 . S
C358 C356 1.378 1_565 S
C358 C359 1.367 . S
C359 C358 1.367 . S
C359 C361 1.433 . S
C360 C356 1.350 1_565 S
C360 C357 1.463 1_564 S
C360 N364 1.427 . S
C361 H351 0.929 . S
C361 C359 1.433 . S
C361 N364 1.384 . S
C362 H353 0.929 . S
C362 C354 1.378 1_565 S
C362 C357 1.350 1_565 S
C363 H350 0.929 . S
C363 C355 1.433 . S
C363 N365 1.384 . S
N364 C360 1.427 . S
N364 C361 1.384 . S
N365 C357 1.427 . S
N365 C363 1.384 . S
H366 C372 0.930 . S
H367 C376 0.930 . S
H368 C381 0.929 . S
H369 C379 0.929 . S
H370 C374 0.929 . S
H371 C380 0.929 . S
C372 H366 0.930 . S
C372 C373 1.367 . S
C372 C380 1.378 . S
C373 C372 1.367 . S
C373 C381 1.433 . S
C374 H370 0.929 . S
C374 C376 1.378 . S
C374 C378 1.350 . S
C375 C378 1.463 . S
C375 C380 1.350 . S
C375 N383 1.427 . S
C376 H367 0.930 . S
C376 C374 1.378 . S
C376 C377 1.367 . S
C377 C376 1.367 . S
C377 C379 1.433 . S
C378 C374 1.350 . S
C378 C375 1.463 . S
C378 N382 1.427 . S
C379 H369 0.929 . S
C379 C377 1.433 . S
C379 N382 1.384 . S
C380 H371 0.929 . S
C380 C372 1.378 . S
C380 C375 1.350 . S
C381 H368 0.929 . S
C381 C373 1.433 . S
C381 N383 1.384 . S
N382 C378 1.427 . S
N382 C379 1.384 . S
N383 C375 1.427 . S
N383 C381 1.384 . S
H384 C390 0.930 . S
H385 C394 0.930 . S
H386 C399 0.929 . S
H387 C397 0.929 . S
H388 C392 0.929 . S
H389 C398 0.929 . S
C390 H384 0.930 . S
C390 C391 1.367 . S
C390 C398 1.378 . S
C391 C390 1.367 . S
C391 C399 1.433 . S
C392 H388 0.929 . S
C392 C394 1.378 . S
C392 C396 1.350 . S
C393 C396 1.463 . S
C393 C398 1.350 . S
C393 N401 1.427 . S
C394 H385 0.930 . S
C394 C392 1.378 . S
C394 C395 1.367 . S
C395 C394 1.367 . S
C395 C397 1.433 . S
C396 C392 1.350 . S
C396 C393 1.463 . S
C396 N400 1.427 . S
C397 H387 0.929 . S
C397 C395 1.433 . S
C397 N400 1.384 . S
C398 H389 0.929 . S
C398 C390 1.378 . S
C398 C393 1.350 . S
C399 H386 0.929 . S
C399 C391 1.433 . S
C399 N401 1.384 . S
N400 C396 1.427 . S
N400 C397 1.384 . S
N401 C393 1.427 . S
N401 C399 1.384 . S
H402 C408 0.930 . S
H403 C412 0.930 . S
H404 C417 0.929 . S
H405 C415 0.929 . S
H406 C410 0.929 . S
H407 C416 0.929 . S
C408 H402 0.930 . S
C408 C409 1.367 . S
C408 C416 1.378 . S
C409 C408 1.367 . S
C409 C417 1.433 . S
C410 H406 0.929 . S
C410 C412 1.378 . S
C410 C414 1.350 . S
C411 C414 1.463 . S
C411 C416 1.350 . S
C411 N419 1.427 . S
C412 H403 0.930 . S
C412 C410 1.378 . S
C412 C413 1.367 . S
C413 C412 1.367 . S
C413 C415 1.433 . S
C414 C410 1.350 . S
C414 C411 1.463 . S
C414 N418 1.427 . S
C415 H405 0.929 . S
C415 C413 1.433 . S
C415 N418 1.384 . S
C416 H407 0.929 . S
C416 C408 1.378 . S
C416 C411 1.350 . S
C417 H404 0.929 . S
C417 C409 1.433 . S
C417 N419 1.384 . S
N418 C414 1.427 . S
N418 C415 1.384 . S
N419 C411 1.427 . S
N419 C417 1.384 . S
H420 C426 0.930 . S
H421 C430 0.930 . S
H422 C435 0.929 . S
H423 C433 0.929 . S
H424 C428 0.929 . S
H425 C434 0.929 . S
C426 H420 0.930 . S
C426 C427 1.367 . S
C426 C434 1.378 . S
C427 C426 1.367 . S
C427 C435 1.433 . S
C428 H424 0.929 . S
C428 C430 1.378 . S
C428 C432 1.350 . S
C429 C432 1.463 . S
C429 C434 1.350 . S
C429 N437 1.427 . S
C430 H421 0.930 . S
C430 C428 1.378 . S
C430 C431 1.367 . S
C431 C430 1.367 . S
C431 C433 1.433 . S
C432 C428 1.350 . S
C432 C429 1.463 . S
C432 N436 1.427 . S
C433 H423 0.929 . S
C433 C431 1.433 . S
C433 N436 1.384 . S
C434 H425 0.929 . S
C434 C426 1.378 . S
C434 C429 1.350 . S
C435 H422 0.929 . S
C435 C427 1.433 . S
C435 N437 1.384 . S
N436 C432 1.427 . S
N436 C433 1.384 . S
N437 C429 1.427 . S
N437 C435 1.384 . S
H438 C444 0.930 . S
H439 C448 0.930 . S
H440 C453 0.929 . S
H441 C451 0.929 . S
H442 C446 0.929 . S
H443 C452 0.929 . S
C444 H438 0.930 . S
C444 C445 1.367 . S
C444 C452 1.378 . S
C445 C444 1.367 . S
C445 C453 1.433 . S
C446 H442 0.929 . S
C446 C448 1.378 . S
C446 C450 1.350 . S
C447 C450 1.463 . S
C447 C452 1.350 . S
C447 N455 1.427 . S
C448 H439 0.930 . S
C448 C446 1.378 . S
C448 C449 1.367 . S
C449 C448 1.367 . S
C449 C451 1.433 . S
C450 C446 1.350 . S
C450 C447 1.463 . S
C450 N454 1.427 . S
C451 H441 0.929 . S
C451 C449 1.433 . S
C451 N454 1.384 . S
C452 H443 0.929 . S
C452 C444 1.378 . S
C452 C447 1.350 . S
C453 H440 0.929 . S
C453 C445 1.433 . S
C453 N455 1.384 . S
N454 C450 1.427 . S
N454 C451 1.384 . S
N455 C447 1.427 . S
N455 C453 1.384 . S
H456 C462 0.930 . S
H457 C466 0.930 . S
H458 C471 0.929 . S
H459 C469 0.929 . S
H460 C464 0.929 . S
H461 C470 0.929 . S
C462 H456 0.930 . S
C462 C463 1.367 . S
C462 C470 1.378 . S
C463 C462 1.367 . S
C463 C471 1.433 . S
C464 H460 0.929 . S
C464 C466 1.378 . S
C464 C468 1.350 . S
C465 C468 1.463 . S
C465 C470 1.350 . S
C465 N473 1.427 . S
C466 H457 0.930 . S
C466 C464 1.378 . S
C466 C467 1.367 . S
C467 C466 1.367 . S
C467 C469 1.433 . S
C468 C464 1.350 . S
C468 C465 1.463 . S
C468 N472 1.427 . S
C469 H459 0.929 . S
C469 C467 1.433 . S
C469 N472 1.384 . S
C470 H461 0.929 . S
C470 C462 1.378 . S
C470 C465 1.350 . S
C471 H458 0.929 . S
C471 C463 1.433 . S
C471 N473 1.384 . S
N472 C468 1.427 . S
N472 C469 1.384 . S
N473 C465 1.427 . S
N473 C471 1.384 . S
H474 C480 0.930 . S
H475 C484 0.930 . S
H476 C489 0.929 . S
H477 C487 0.929 . S
H478 C482 0.929 . S
H479 C488 0.929 . S
C480 H474 0.930 . S
C480 C481 1.367 . S
C480 C488 1.378 . S
C481 C480 1.367 . S
C481 C489 1.433 . S
C482 H478 0.929 . S
C482 C484 1.378 . S
C482 C486 1.350 . S
C483 C486 1.463 . S
C483 C488 1.350 . S
C483 N491 1.427 . S
C484 H475 0.930 . S
C484 C482 1.378 . S
C484 C485 1.367 . S
C485 C484 1.367 . S
C485 C487 1.433 . S
C486 C482 1.350 . S
C486 C483 1.463 . S
C486 N490 1.427 . S
C487 H477 0.929 . S
C487 C485 1.433 . S
C487 N490 1.384 . S
C488 H479 0.929 . S
C488 C480 1.378 . S
C488 C483 1.350 . S
C489 H476 0.929 . S
C489 C481 1.433 . S
C489 N491 1.384 . S
N490 C486 1.427 . S
N490 C487 1.384 . S
N491 C483 1.427 . S
N491 C489 1.384 . S
H492 C498 0.930 . S
H493 C502 0.930 . S
H494 C507 0.929 . S
H495 C505 0.929 . S
H496 C500 0.929 . S
H497 C506 0.929 . S
C498 H492 0.930 . S
C498 C499 1.367 . S
C498 C506 1.378 . S
C499 C498 1.367 . S
C499 C507 1.433 . S
C500 H496 0.929 . S
C500 C502 1.378 . S
C500 C504 1.350 . S
C501 C504 1.463 . S
C501 C506 1.350 . S
C501 N509 1.427 . S
C502 H493 0.930 . S
C502 C500 1.378 . S
C502 C503 1.367 . S
C503 C502 1.367 . S
C503 C505 1.433 . S
C504 C500 1.350 . S
C504 C501 1.463 . S
C504 N508 1.427 . S
C505 H495 0.929 . S
C505 C503 1.433 . S
C505 N508 1.384 . S
C506 H497 0.929 . S
C506 C498 1.378 . S
C506 C501 1.350 . S
C507 H494 0.929 . S
C507 C499 1.433 . S
C507 N509 1.384 . S
N508 C504 1.427 . S
N508 C505 1.384 . S
N509 C501 1.427 . S
N509 C507 1.384 . S
H510 C516 0.930 . S
H511 C520 0.930 . S
H512 C525 0.929 . S
H513 C523 0.929 . S
H514 C518 0.929 . S
H515 C524 0.929 . S
C516 H510 0.930 . S
C516 C517 1.367 . S
C516 C524 1.378 . S
C517 C516 1.367 . S
C517 C525 1.433 . S
C518 H514 0.929 . S
C518 C520 1.378 . S
C518 C522 1.350 . S
C519 C522 1.463 . S
C519 C524 1.350 . S
C519 N527 1.427 . S
C520 H511 0.930 . S
C520 C518 1.378 . S
C520 C521 1.367 . S
C521 C520 1.367 . S
C521 C523 1.433 . S
C522 C518 1.350 . S
C522 C519 1.463 . S
C522 N526 1.427 . S
C523 H513 0.929 . S
C523 C521 1.433 . S
C523 N526 1.384 . S
C524 H515 0.929 . S
C524 C516 1.378 . S
C524 C519 1.350 . S
C525 H512 0.929 . S
C525 C517 1.433 . S
C525 N527 1.384 . S
N526 C522 1.427 . S
N526 C523 1.384 . S
N527 C519 1.427 . S
N527 C525 1.384 . S
H528 C534 0.930 . S
H529 C538 0.930 . S
H530 C543 0.929 . S
H531 C541 0.929 . S
H532 C536 0.929 . S
H533 C542 0.929 . S
C534 H528 0.930 . S
C534 C535 1.367 . S
C534 C542 1.378 . S
C535 C534 1.367 . S
C535 C543 1.433 . S
C536 H532 0.929 . S
C536 C538 1.378 . S
C536 C540 1.350 . S
C537 C540 1.463 . S
C537 C542 1.350 . S
C537 N545 1.427 . S
C538 H529 0.930 . S
C538 C536 1.378 . S
C538 C539 1.367 . S
C539 C538 1.367 . S
C539 C541 1.433 . S
C540 C536 1.350 . S
C540 C537 1.463 . S
C540 N544 1.427 . S
C541 H531 0.929 . S
C541 C539 1.433 . S
C541 N544 1.384 . S
C542 H533 0.929 . S
C542 C534 1.378 . S
C542 C537 1.350 . S
C543 H530 0.929 . S
C543 C535 1.433 . S
C543 N545 1.384 . S
N544 C540 1.427 . S
N544 C541 1.384 . S
N545 C537 1.427 . S
N545 C543 1.384 . S
H546 C552 0.930 . S
H547 C556 0.930 . S
H548 C561 0.929 . S
H549 C559 0.929 . S
H550 C554 0.929 . S
H551 C560 0.929 . S
C552 H546 0.930 . S
C552 C553 1.367 . S
C552 C560 1.378 . S
C553 C552 1.367 . S
C553 C561 1.433 . S
C554 H550 0.929 . S
C554 C556 1.378 . S
C554 C558 1.350 . S
C555 C558 1.463 . S
C555 C560 1.350 . S
C555 N563 1.427 . S
C556 H547 0.930 . S
C556 C554 1.378 . S
C556 C557 1.367 . S
C557 C556 1.367 . S
C557 C559 1.433 . S
C558 C554 1.350 . S
C558 C555 1.463 . S
C558 N562 1.427 . S
C559 H549 0.929 . S
C559 C557 1.433 . S
C559 N562 1.384 . S
C560 H551 0.929 . S
C560 C552 1.378 . S
C560 C555 1.350 . S
C561 H548 0.929 . S
C561 C553 1.433 . S
C561 N563 1.384 . S
N562 C558 1.427 . S
N562 C559 1.384 . S
N563 C555 1.427 . S
N563 C561 1.384 . S
H564 C570 0.930 . S
H565 C574 0.930 . S
H566 C579 0.929 . S
H567 C577 0.929 . S
H568 C572 0.929 . S
H569 C578 0.929 . S
C570 H564 0.930 . S
C570 C571 1.367 . S
C570 C578 1.378 . S
C571 C570 1.367 . S
C571 C579 1.433 . S
C572 H568 0.929 . S
C572 C574 1.378 . S
C572 C576 1.350 . S
C573 C576 1.463 . S
C573 C578 1.350 . S
C573 N581 1.427 . S
C574 H565 0.930 . S
C574 C572 1.378 . S
C574 C575 1.367 . S
C575 C574 1.367 . S
C575 C577 1.433 . S
C576 C572 1.350 . S
C576 C573 1.463 . S
C576 N580 1.427 . S
C577 H567 0.929 . S
C577 C575 1.433 . S
C577 N580 1.384 . S
C578 H569 0.929 . S
C578 C570 1.378 . S
C578 C573 1.350 . S
C579 H566 0.929 . S
C579 C571 1.433 . S
C579 N581 1.384 . S
N580 C576 1.427 . S
N580 C577 1.384 . S
N581 C573 1.427 . S
N581 C579 1.384 . S
H582 C588 0.930 . S
H583 C592 0.930 . S
H584 C597 0.929 . S
H585 C595 0.929 . S
H586 C590 0.929 . S
H587 C596 0.929 . S
C588 H582 0.930 . S
C588 C589 1.367 . S
C588 C596 1.378 . S
C589 C588 1.367 . S
C589 C597 1.433 . S
C590 H586 0.929 . S
C590 C592 1.378 . S
C590 C594 1.350 . S
C591 C594 1.463 . S
C591 C596 1.350 . S
C591 N599 1.427 . S
C592 H583 0.930 . S
C592 C590 1.378 . S
C592 C593 1.367 . S
C593 C592 1.367 . S
C593 C595 1.433 . S
C594 C590 1.350 . S
C594 C591 1.463 . S
C594 N598 1.427 . S
C595 H585 0.929 . S
C595 C593 1.433 . S
C595 N598 1.384 . S
C596 H587 0.929 . S
C596 C588 1.378 . S
C596 C591 1.350 . S
C597 H584 0.929 . S
C597 C589 1.433 . S
C597 N599 1.384 . S
N598 C594 1.427 . S
N598 C595 1.384 . S
N599 C591 1.427 . S
N599 C597 1.384 . S
C175 C13 1.270 . S
C179 C167 1.267 . S
C193 C97 1.266 . S
C197 C27 1.273 . S
C211 C41 1.289 . S
C215 C111 1.278 . S
C229 C125 1.286 . S
C233 C55 1.288 . S
C247 C139 1.266 . S
C251 C69 1.276 . S
C265 C153 1.287 . S
C269 C83 1.287 . S
C283 C49 1.457 . S
C287 C119 1.462 . S
C301 C63 1.458 . S
C305 C133 1.457 . S
C319 C77 1.463 . S
C323 C147 1.461 . S
C337 C161 1.456 . S
C341 C7 1.459 . S
C355 C21 1.459 . S
C359 C91 1.456 . S
C373 C35 1.461 . S
C377 C105 1.462 . S
C391 C120 1.414 . S
C395 C8 1.412 . S
C409 C134 1.406 . S
C413 C22 1.401 . S
C427 C36 1.400 . S
C431 C148 1.411 . S
C445 C50 1.415 . S
C449 C162 1.403 . S
C463 C64 1.403 . S
C467 C92 1.416 . S
C481 C106 1.416 . S
C485 C78 1.408 . S
C499 C11 1.352 . S
C503 C151 1.352 . S
C517 C165 1.347 . S
C521 C25 1.347 . S
C535 C39 1.348 . S
C539 C95 1.348 . S
C553 C53 1.347 . S
C557 C109 1.346 . S
C571 C67 1.352 . S
C575 C123 1.353 . S
C589 C81 1.348 . S
C593 C137 1.348 . S
