# Generated by pormake.
# Topology ilc, (8)-cn, num edge types: 1
# Building blocks:
#     Node 0, Type 0, BuildingBlock: OLANEW_clean_sbu_1, # of connection points: 8
#     Node 1, Type 0, BuildingBlock: OLANEW_clean_sbu_1, # of connection points: 8
#     Node 2, Type 0, BuildingBlock: OLANEW_clean_sbu_1, # of connection points: 8
#     Edge 3, Type (0, 0), BuildingBlock: UVAHIK_clean_linker_0, # of connection points: 2
#     Edge 4, Type (0, 0), BuildingBlock: UVAHIK_clean_linker_0, # of connection points: 2
#     Edge 5, Type (0, 0), BuildingBlock: UVAHIK_clean_linker_0, # of connection points: 2
#     Edge 6, Type (0, 0), BuildingBlock: UVAHIK_clean_linker_0, # of connection points: 2
#     Edge 7, Type (0, 0), BuildingBlock: UVAHIK_clean_linker_0, # of connection points: 2
#     Edge 8, Type (0, 0), BuildingBlock: UVAHIK_clean_linker_0, # of connection points: 2
#     Edge 9, Type (0, 0), BuildingBlock: UVAHIK_clean_linker_0, # of connection points: 2
#     Edge 10, Type (0, 0), BuildingBlock: UVAHIK_clean_linker_0, # of connection points: 2
#     Edge 11, Type (0, 0), BuildingBlock: UVAHIK_clean_linker_0, # of connection points: 2
#     Edge 12, Type (0, 0), BuildingBlock: UVAHIK_clean_linker_0, # of connection points: 2
#     Edge 13, Type (0, 0), BuildingBlock: UVAHIK_clean_linker_0, # of connection points: 2
#     Edge 14, Type (0, 0), BuildingBlock: UVAHIK_clean_linker_0, # of connection points: 2
# Relax obj value: 0.072
# Max RMSD: 0.110
# Mean RMSD: 0.110
data_MOF--net-ilc--node1-OLANEW_clean_sbu_1--edge1-UVAHIK_clean_linker_0
_symmetry_space_group_name_H-M    P1
_symmetry_Int_Tables_number       1
_symmetry_cell_setting            triclinic
loop_
_symmetry_equiv_pos_as_xyz
'x, y, z'
_cell_length_a     23.425584
_cell_length_b     34.617673
_cell_length_c     27.812439
_cell_angle_alpha  110.56797
_cell_angle_beta   91.963572
_cell_angle_gamma 141.98074
loop_
_atom_site_label
_atom_site_type_symbol
_atom_site_fract_x
_atom_site_fract_y
_atom_site_fract_z
_atom_type_partial_charge
Cd0 Cd 0.9583 0.90637 0.09711 0.0
Cd1 Cd 0.95987 0.96687 0.07076 0.0
C2 C 0.12874 0.14522 0.08953 0.0
Cd3 Cd 0.34188 0.31205 0.94339 0.0
Cd4 Cd 0.16292 0.09811 0.99238 0.0
C5 C 0.21639 0.30912 0.8917 0.0
O6 O 0.31996 0.37624 0.91093 0.0
O7 O 0.78292 0.82471 0.08411 0.0
O8 O 0.83551 0.91978 0.10826 0.0
O9 O 0.37415 0.31467 0.86083 0.0
O10 O 0.18031 0.17759 0.06531 0.0
O11 O 0.07601 0.08006 0.06999 0.0
C12 C 0.2425 0.15808 0.90717 0.0
O13 O 0.19068 0.266 0.90297 0.0
C14 C 0.16058 0.06999 0.2333 0.0
O15 O 0.19009 0.04967 0.21823 0.0
O16 O 0.26773 0.20939 0.94565 0.0
O17 O 0.1961 0.10388 0.91026 0.0
C18 C 0.95233 0.9027 0.95337 0.0
O19 O 0.07573 0.03104 0.19222 0.0
O20 O 0.89889 0.86987 0.97684 0.0
O21 O 1.02169 0.97431 0.98036 0.0
C22 C 0.77315 0.85746 0.10341 0.0
O23 O 0.99094 0.87283 0.1429 0.0
C24 C 0.28592 0.25415 0.80824 0.0
O25 O 0.19155 0.19634 0.80329 0.0
C26 C 0.95655 0.86271 0.1787 0.0
O27 O 0.9046 0.86597 0.18272 0.0
Cd28 Cd 0.3653 0.03871 0.38072 0.0
Cd29 Cd 0.55991 0.27481 0.36427 0.0
C30 C 0.74819 0.46415 0.39566 0.0
Cd31 Cd 0.73338 0.46579 0.25076 0.0
Cd32 Cd 0.70886 0.388 0.26663 0.0
C33 C 0.81557 0.5939 0.24417 0.0
O34 O 0.90451 0.6258 0.2623 0.0
O35 O 0.45881 0.15602 0.39781 0.0
O36 O 0.54744 0.26986 0.4494 0.0
O37 O 0.62016 0.35734 0.142 0.0
O38 O 0.78688 0.49101 0.36611 0.0
O39 O 0.6834 0.39427 0.37167 0.0
C40 C 0.90011 0.49825 0.2356 0.0
O41 O 0.73318 0.53302 0.24085 0.0
C42 C 0.45831 0.1031 0.51654 0.0
O43 O 0.54248 0.14977 0.51038 0.0
O44 O 0.90553 0.54008 0.26266 0.0
O45 O 0.82718 0.43181 0.22584 0.0
C46 C 0.58053 0.2262 0.25926 0.0
O47 O 0.36219 0.04576 0.47076 0.0
O48 O 0.54276 0.19811 0.28817 0.0
O49 O 0.62122 0.28631 0.27638 0.0
C50 C 0.49531 0.21 0.44479 0.0
O51 O 0.49498 0.06161 0.39634 0.0
C52 C 0.67173 0.39331 0.11971 0.0
O53 O 0.75849 0.47095 0.15516 0.0
C54 C 0.45986 1.00981 0.39756 0.0
O55 O 0.35484 0.94383 0.37653 0.0
Cd56 Cd 0.44444 0.68796 0.82637 0.0
Cd57 Cd 0.36723 0.68497 0.75207 0.0
C58 C 0.36848 0.77331 0.71125 0.0
Cd59 Cd 0.24938 0.70494 0.53515 0.0
Cd60 Cd 0.29562 0.67239 0.57808 0.0
C61 C 0.28571 0.82501 0.57381 0.0
O62 O 0.38688 0.87312 0.59772 0.0
O63 O 0.24989 0.56465 0.78808 0.0
O64 O 0.25586 0.63339 0.79806 0.0
O65 O 0.18656 0.64454 0.42678 0.0
O66 O 0.35151 0.77067 0.6654 0.0
O67 O 0.35682 0.72901 0.70514 0.0
C68 C 0.45862 0.78729 0.53872 0.0
O69 O 0.20793 0.75282 0.55176 0.0
C70 C 0.4427 0.70179 0.94019 0.0
O71 O 0.40208 0.64082 0.8998 0.0
O72 O 0.43716 0.81132 0.55914 0.0
O73 O 0.41022 0.72877 0.53487 0.0
C74 C 0.29598 0.58388 0.61857 0.0
O75 O 0.48312 0.74965 0.92955 0.0
O76 O 0.31234 0.58692 0.66487 0.0
O77 O 0.30538 0.62671 0.62328 0.0
C78 C 0.21711 0.58118 0.801 0.0
O79 O 0.52996 0.67509 0.84442 0.0
C80 C 0.23239 0.69677 0.42062 0.0
O81 O 0.28798 0.76285 0.46742 0.0
C82 C 0.46886 0.6089 0.83025 0.0
O83 O 0.36156 0.54647 0.79579 0.0
C84 C 0.19711 0.17386 0.69538 0.0
C85 C 0.28776 0.24833 0.75324 0.0
C86 C 0.19629 0.16751 0.64289 0.0
C87 C 0.3753 0.2739 0.58698 0.0
H88 H 0.09711 0.11717 0.44441 0.0
C89 C 0.28697 0.15289 0.34381 0.0
C90 C 0.20616 0.12124 0.29845 0.0
C91 C 0.31209 0.18511 0.40355 0.0
C92 C 0.17619 0.16244 0.48395 0.0
H93 H 0.44871 0.37476 0.80163 0.0
H94 H 0.44621 0.364 0.70952 0.0
H95 H 0.10912 0.13831 0.53953 0.0
H96 H 0.09658 0.10614 0.28177 0.0
H97 H 0.14238 0.16394 0.38652 0.0
H98 H 0.44273 0.29867 0.53146 0.0
C99 C 0.37657 0.31027 0.70484 0.0
C100 C 0.18254 0.17351 0.53839 0.0
C101 C 0.3779 0.31652 0.75758 0.0
C102 C 0.15832 0.12909 0.31545 0.0
C103 C 0.18383 0.16157 0.37545 0.0
C104 C 0.36917 0.26319 0.53252 0.0
C105 C 0.28527 0.23566 0.6468 0.0
C106 C 0.28152 0.22823 0.59027 0.0
C107 C 0.2576 0.18679 0.41965 0.0
C108 C 0.26895 0.20629 0.47991 0.0
H109 H 0.12692 0.12013 0.69061 0.0
H110 H 0.12586 0.10891 0.59913 0.0
H111 H 0.45278 0.31631 0.62594 0.0
H112 H 0.32613 0.14841 0.33253 0.0
H113 H 0.36901 0.20393 0.43618 0.0
C114 C 0.58379 0.19621 0.62942 0.0
C115 C 0.47724 0.12192 0.57708 0.0
C116 C 0.60094 0.21782 0.68723 0.0
C117 C 0.475 0.14313 0.77249 0.0
H118 H 0.67069 0.35758 0.88627 0.0
C119 C 0.53493 0.27171 1.00984 0.0
C120 C 0.64249 0.35201 0.05707 0.0
C121 C 0.50952 0.23695 0.94996 0.0
C122 C 0.617 0.29789 0.85548 0.0
H123 H 0.30673 1.01054 0.54425 0.0
H124 H 0.33657 0.047 0.64513 0.0
H125 H 0.63772 0.30892 0.78485 0.0
H126 H 0.80865 0.45732 0.07959 0.0
H127 H 0.76594 0.3966 0.97701 0.0
H128 H 0.45322 0.13228 0.84365 0.0
C129 C 0.40678 0.08889 0.64155 0.0
C130 C 0.59827 0.27002 0.79725 0.0
C131 C 0.38942 0.06792 0.58366 0.0
C132 C 0.72469 0.39565 0.04406 0.0
C133 C 0.69999 0.36093 0.98503 0.0
C134 C 0.49341 0.17107 0.83107 0.0
C135 C 0.51209 0.16534 0.69399 0.0
C136 C 0.5287 0.1929 0.75537 0.0
C137 C 0.59172 0.28196 0.93689 0.0
C138 C 0.56601 0.24926 0.87348 0.0
H139 H 0.65364 0.23906 0.62598 0.0
H140 H 0.68373 0.27645 0.72676 0.0
H141 H 0.42075 0.08331 0.74113 0.0
H142 H 0.47008 0.23685 0.01875 0.0
H143 H 0.42515 0.17598 0.91373 0.0
C144 C 0.46441 0.7681 0.03571 0.0
C145 C 0.43014 0.70778 0.99285 0.0
C146 C 0.44378 0.76824 0.08248 0.0
C147 C 0.35224 0.67076 0.15735 0.0
H148 H 0.29321 0.74959 0.21556 0.0
C149 C 0.19413 0.62622 0.31857 0.0
C150 C 0.23868 0.69046 0.36623 0.0
C151 C 0.21241 0.62628 0.27117 0.0
C152 C 0.31018 0.72774 0.20014 0.0
H153 H 0.34902 0.6011 0.96614 0.0
H154 H 0.31126 0.60013 0.04516 0.0
H155 H 0.33933 0.75635 0.13875 0.0
H156 H 0.33474 0.80407 0.40059 0.0
H157 H 0.36798 0.80483 0.3192 0.0
H158 H 0.31843 0.63903 0.2167 0.0
C159 C 0.35594 0.64861 0.04448 0.0
C160 C 0.33771 0.73228 0.15629 0.0
C161 C 0.37708 0.64882 0.99841 0.0
C162 C 0.29869 0.75335 0.36443 0.0
C163 C 0.31742 0.75365 0.31742 0.0
C164 C 0.3224 0.66466 0.20007 0.0
C165 C 0.3877 0.70767 0.08696 0.0
C166 C 0.36017 0.70447 0.13459 0.0
C167 C 0.2758 0.69064 0.27051 0.0
C168 C 0.30203 0.69374 0.22257 0.0
H169 H 0.50596 0.81456 0.03275 0.0
H170 H 0.47224 0.81602 0.11513 0.0
H171 H 0.37084 0.64998 0.1431 0.0
H172 H 0.14721 0.57675 0.31851 0.0
H173 H 0.17697 0.57585 0.2351 0.0
C174 C 0.15242 0.7969 0.53089 0.0
C175 C 0.2586 0.84522 0.55313 0.0
C176 C 0.11712 0.8025 0.49664 0.0
C177 C 0.15142 0.83543 0.38599 0.0
H178 H 0.0363 0.87555 0.40913 0.0
C179 C 0.07166 0.88203 0.23408 0.0
C180 C 0.98362 0.85562 0.21997 0.0
C181 C 0.10216 0.88074 0.27673 0.0
C182 C 0.06645 0.86285 0.40131 0.0
H183 H 0.41396 0.94166 0.56112 0.0
H184 H 0.35137 0.9501 0.50047 0.0
H185 H 0.09244 0.87381 0.4831 0.0
H186 H 0.85666 0.80544 0.23817 0.0
H187 H 0.90634 0.7996 0.31037 0.0
H188 H 0.12435 0.82267 0.30417 0.0
C189 C 0.29583 0.90815 0.5097 0.0
C190 C 0.0989 0.86224 0.44386 0.0
C191 C 0.33174 0.90363 0.54479 0.0
C192 C 0.92549 0.8267 0.24854 0.0
C193 C 0.95482 0.82419 0.29047 0.0
C194 C 0.11775 0.83488 0.34315 0.0
C195 C 0.18714 0.8557 0.48356 0.0
C196 C 0.14434 0.85063 0.4372 0.0
C197 C 0.04424 0.85185 0.30559 0.0
C198 C 0.07625 0.84971 0.35054 0.0
H199 H 0.09471 0.75167 0.53692 0.0
H200 H 0.03298 0.76162 0.47691 0.0
H201 H 0.1834 0.82405 0.3792 0.0
H202 H 0.11879 0.90554 0.21331 0.0
H203 H 0.17213 0.90334 0.28744 0.0
C204 C 0.24047 0.47643 0.55309 0.0
C205 C 0.26826 0.53309 0.56164 0.0
C206 C 0.21816 0.43054 0.50016 0.0
C207 C 0.28004 0.43436 0.38133 0.0
H208 H 1.02797 0.20657 0.29 0.0
C209 C 0.17423 0.247 0.15338 0.0
C210 C 0.13403 0.18384 0.1402 0.0
C211 C 0.18462 0.28631 0.20304 0.0
C212 C 0.09964 0.27028 0.31537 0.0
H213 H 0.29356 0.58555 0.52113 0.0
H214 H 0.25605 0.5062 0.42923 0.0
H215 H 0.05778 0.28131 0.38039 0.0
H216 H 0.07245 0.11191 0.16857 0.0
H217 H 0.09389 0.18204 0.25641 0.0
H218 H 0.32432 0.42452 0.31796 0.0
C219 C 0.25143 0.49727 0.46344 0.0
C220 C 0.11636 0.31299 0.36704 0.0
C221 C 0.27234 0.54239 0.51593 0.0
C222 C 0.10309 0.16011 0.17733 0.0
C223 C 0.11491 0.20016 0.22758 0.0
C224 C 0.26417 0.39196 0.3302 0.0
C225 C 0.22464 0.44114 0.45512 0.0
C226 C 0.20645 0.39541 0.40035 0.0
C227 C 0.15668 0.26428 0.24142 0.0
C228 C 0.17341 0.30922 0.29623 0.0
H229 H 0.23653 0.46779 0.58743 0.0
H230 H 0.19845 0.38811 0.49516 0.0
H231 H 0.35124 0.49806 0.4067 0.0
H232 H 0.19793 0.26627 0.12533 0.0
H233 H 0.2146 0.33405 0.21122 0.0
C234 C 0.53738 0.78512 0.48151 0.0
C235 C 0.51515 0.81254 0.50542 0.0
C236 C 0.56674 0.79295 0.43866 0.0
C237 C 0.65724 0.89133 0.36634 0.0
H238 H 0.50941 0.70283 0.23079 0.0
C239 C 0.70318 0.87259 0.15975 0.0
C240 C 0.71087 0.83485 0.13388 0.0
C241 C 0.66847 0.86519 0.20081 0.0
C242 C 0.55334 0.7568 0.26854 0.0
H243 H 0.5124 0.87375 0.50529 0.0
H244 H 0.56219 0.88645 0.43014 0.0
H245 H 0.48372 0.70699 0.3148 0.0
H246 H 0.68124 0.75573 0.12825 0.0
H247 H 0.62601 0.7454 0.20027 0.0
H248 H 0.7276 0.94148 0.32028 0.0
C249 C 0.55815 0.85963 0.44494 0.0
C250 C 0.53833 0.75906 0.31702 0.0
C251 C 0.52969 0.85241 0.48824 0.0
C252 C 0.67586 0.78535 0.14678 0.0
C253 C 0.64361 0.7793 0.18852 0.0
C254 C 0.67264 0.88921 0.31776 0.0
C255 C 0.57375 0.82781 0.41823 0.0
C256 C 0.5907 0.8265 0.36683 0.0
C257 C 0.64257 0.82104 0.21778 0.0
C258 C 0.62115 0.82191 0.26806 0.0
H259 H 0.52728 0.75432 0.4938 0.0
H260 H 0.58087 0.76953 0.42019 0.0
H261 H 0.69961 0.94455 0.4042 0.0
H262 H 0.72858 0.91066 0.15042 0.0
H263 H 0.66502 0.89599 0.22045 0.0
C264 C 0.65148 0.11139 0.47395 0.0
C265 C 0.53825 0.03273 0.43768 0.0
C266 C 0.72257 0.13794 0.52147 0.0
C267 C 0.75392 0.0757 0.5863 0.0
H268 H 0.94627 0.27411 0.74015 0.0
C269 C 1.01977 0.1966 0.8113 0.0
C270 C 0.13025 0.27757 0.84755 0.0
C271 C 0.94211 0.16449 0.76279 0.0
C272 C 0.89362 0.21891 0.6975 0.0
H273 H 0.41224 0.91871 0.41995 0.0
H274 H 0.53692 0.96498 0.5025 0.0
H275 H 0.82559 0.22163 0.64863 0.0
H276 H 0.24413 0.38897 0.86349 0.0
H277 H 0.10974 0.33338 0.77916 0.0
H278 H 0.82265 0.07327 0.63504 0.0
C279 C 0.57042 1.00616 0.49439 0.0
C280 C 0.82479 0.189 0.64504 0.0
C281 C 0.49907 0.97967 0.44705 0.0
C282 C 0.16001 0.32642 0.83632 0.0
C283 C 0.08259 0.29449 0.78805 0.0
C284 C 0.82296 0.10566 0.63882 0.0
C285 C 0.68215 0.08631 0.53342 0.0
C286 C 0.7549 0.11744 0.5888 0.0
C287 C 0.9733 0.2128 0.74981 0.0
C288 C 0.8943 0.178 0.69494 0.0
H289 H 0.68448 0.15375 0.46788 0.0
H290 H 0.80881 0.19966 0.55011 0.0
H291 H 0.70168 1.0209 0.54347 0.0
H292 H 0.99412 0.15728 0.81871 0.0
H293 H 0.8581 0.10156 0.73475 0.0
C294 C 0.84614 0.58865 0.48037 0.0
C295 C 0.77524 0.51172 0.45487 0.0
C296 C 0.86908 0.63264 0.53526 0.0
C297 C 0.85804 0.64504 0.67196 0.0
H298 H 0.86976 0.76726 0.68761 0.0
C299 C 0.86673 0.78324 0.87159 0.0
C300 C 0.93477 0.85933 0.8971 0.0
C301 C 0.84979 0.7422 0.81842 0.0
C302 C 0.86814 0.73427 0.68436 0.0
H303 H 0.67303 0.42077 0.46726 0.0
H304 H 0.71183 0.49696 0.56248 0.0
H305 H 0.83663 0.6938 0.59409 0.0
H306 H 0.03939 0.95229 0.88694 0.0
H307 H 1.0109 0.88116 0.79461 0.0
H308 H 0.8891 0.68527 0.76216 0.0
C309 C 0.75119 0.52393 0.54061 0.0
C310 C 0.84915 0.6921 0.63065 0.0
C311 C 0.72842 0.48001 0.48577 0.0
C312 C 0.98612 0.89365 0.86838 0.0
C313 C 0.96918 0.8526 0.81517 0.0
C314 C 0.877 0.6872 0.72567 0.0
C315 C 0.82143 0.60071 0.56596 0.0
C316 C 0.84356 0.64674 0.62365 0.0
C317 C 0.90068 0.77626 0.78943 0.0
C318 C 0.88199 0.73221 0.73253 0.0
H319 H 0.8836 0.61486 0.45776 0.0
H320 H 0.92478 0.69195 0.55381 0.0
H321 H 0.85604 0.61182 0.66863 0.0
H322 H 0.82669 0.75531 0.89278 0.0
H323 H 0.79557 0.68322 0.79959 0.0
C324 C 0.55333 0.26405 0.55342 0.0
C325 C 0.47014 0.20109 0.49136 0.0
C326 C 0.52782 0.25802 0.59775 0.0
C327 C 0.30196 0.11049 0.61783 0.0
H328 H 0.4826 0.3017 0.77367 0.0
C329 C 0.18574 0.09502 0.79822 0.0
C330 C 0.268 0.16162 0.85977 0.0
C331 C 0.21035 0.09892 0.75329 0.0
C332 C 0.43226 0.24754 0.73112 0.0
H333 H 0.29478 0.08405 0.42639 0.0
H334 H 0.24877 0.07456 0.50338 0.0
H335 H 0.52182 0.30998 0.69561 0.0
H336 H 0.44118 0.28284 0.92367 0.0
H337 H 0.48624 0.28911 0.84643 0.0
H338 H 0.21393 0.04816 0.65361 0.0
C339 C 0.33454 0.1273 0.51844 0.0
C340 C 0.45492 0.25241 0.68582 0.0
C341 C 0.36063 0.13258 0.47415 0.0
C342 C 0.37604 0.23116 0.87616 0.0
C343 C 0.40151 0.23447 0.83151 0.0
C344 C 0.28027 0.10574 0.66347 0.0
C345 C 0.41786 0.18987 0.58101 0.0
C346 C 0.39081 0.18408 0.6286 0.0
C347 C 0.31884 0.16882 0.76911 0.0
C348 C 0.34464 0.17414 0.7209 0.0
H349 H 0.63828 0.31779 0.56762 0.0
H350 H 0.59485 0.30677 0.64513 0.0
H351 H 0.25102 0.05636 0.5748 0.0
H352 H 0.10173 0.0406 0.78473 0.0
H353 H 0.14315 0.04748 0.70616 0.0
C354 C 0.70707 0.58233 0.19506 0.0
C355 C 0.80165 0.61593 0.21444 0.0
C356 C 0.68497 0.59268 0.15838 0.0
C357 C 0.75892 0.64544 0.05362 0.0
H358 H 0.57417 0.62861 0.04846 0.0
C359 C 0.6299 0.67345 0.90197 0.0
C360 C 0.51547 0.60868 0.86712 0.0
C361 C 0.67559 0.68065 0.94563 0.0
C362 C 0.62655 0.63399 0.04984 0.0
H363 H 0.94884 0.68869 0.21183 0.0
H364 H 0.91383 0.71046 0.15094 0.0
H365 H 0.64231 0.63924 0.12878 0.0
H366 H 0.35885 0.49914 0.84916 0.0
H367 H 0.43938 0.51298 0.92625 0.0
H368 H 0.7455 0.64314 0.97554 0.0
C369 C 0.85463 0.67408 0.16239 0.0
C370 C 0.66461 0.63909 0.09535 0.0
C371 C 0.87602 0.66295 0.19851 0.0
C372 C 0.44724 0.54947 0.87487 0.0
C373 C 0.49302 0.55753 0.91924 0.0
C374 C 0.7233 0.64266 1.00913 0.0
C375 C 0.75754 0.63766 0.14062 0.0
C376 C 0.72857 0.64239 0.09684 0.0
C377 C 0.60742 0.62385 0.95574 0.0
C378 C 0.65455 0.63484 1.00603 0.0
H379 H 0.6476 0.54522 0.20613 0.0
H380 H 0.60822 0.56221 0.14184 0.0
H381 H 0.80661 0.64684 0.05238 0.0
H382 H 0.68411 0.71993 0.89698 0.0
H383 H 0.76418 0.73231 0.9734 0.0
C384 C 0.42547 0.88125 0.77812 0.0
C385 C 0.40017 0.82566 0.76937 0.0
C386 C 0.45235 0.92904 0.83251 0.0
C387 C 0.40983 0.93287 0.95845 0.0
H388 H 0.657 0.1592 0.04436 0.0
C389 C 0.54137 0.12869 0.19397 0.0
C390 C 0.57321 0.18813 0.20651 0.0
C391 C 0.52716 0.08864 0.14214 0.0
C392 C 0.58687 0.09591 0.02055 0.0
H393 H 0.38429 0.77721 0.81104 0.0
H394 H 0.43028 0.86009 0.9056 0.0
H395 H 0.61815 0.08098 0.95034 0.0
H396 H 0.61763 0.25357 0.17524 0.0
H397 H 0.59023 0.18222 0.08373 0.0
H398 H 0.37648 0.94668 0.02731 0.0
C399 C 0.42906 0.86655 0.87036 0.0
C400 C 0.56487 0.05122 0.96681 0.0
C401 C 0.40325 0.81936 0.8163 0.0
C402 C 0.59318 0.20807 0.16683 0.0
C403 C 0.57793 0.16738 0.11451 0.0
C404 C 0.43113 0.97724 0.01173 0.0
C405 C 0.45329 0.92156 0.87891 0.0
C406 C 0.47654 0.96934 0.93548 0.0
C407 C 0.54319 0.10634 0.10109 0.0
C408 C 0.52043 0.05947 0.0438 0.0
H409 H 0.42388 0.88753 0.74281 0.0
H410 H 0.46988 0.97053 0.83769 0.0
H411 H 0.33995 0.86958 0.93467 0.0
H412 H 0.52644 0.1125 0.22399 0.0
H413 H 0.50307 0.04344 0.13417 0.0
C414 C 0.11702 0.49966 0.83833 0.0
C415 C 0.16189 0.55805 0.83525 0.0
C416 C 0.08364 0.48843 0.87948 0.0
C417 C 0.03138 0.54539 0.98631 0.0
H418 H 0.08609 0.49738 0.06574 0.0
C419 C 1.01569 0.57942 0.20075 0.0
C420 C 0.95587 0.51595 0.20159 0.0
C421 C 0.04405 0.58468 0.1573 0.0
C422 C 0.06949 0.51022 0.04369 0.0
H423 H 0.2052 0.64963 0.87271 0.0
H424 H 0.15104 0.63219 0.94515 0.0
H425 H 0.11654 0.4986 0.98312 0.0
H426 H 0.88669 0.41175 0.16015 0.0
H427 H 0.93889 0.4223 0.08548 0.0
H428 H 0.98378 0.55657 0.0468 0.0
C429 C 0.1378 0.5929 0.9147 0.0
C430 C 0.08692 0.51092 0.99609 0.0
C431 C 0.16924 0.6031 0.87292 0.0
C432 C 0.93297 0.46155 0.16101 0.0
C433 C 0.96268 0.46747 0.11799 0.0
C434 C 1.01428 0.54489 0.03391 0.0
C435 C 0.09588 0.53619 0.91933 0.0
C436 C 0.06978 0.52973 0.96723 0.0
C437 C 1.0152 0.52753 0.11425 0.0
C438 C 0.03411 0.52808 0.06365 0.0
H439 H 0.11072 0.46418 0.8102 0.0
H440 H 0.04983 0.44304 0.88056 0.0
H441 H 1.01356 0.55758 0.96423 0.0
H442 H 0.03514 0.62262 0.23132 0.0
H443 H 0.08613 0.63252 0.15643 0.0
loop_
_geom_bond_atom_site_label_1
_geom_bond_atom_site_label_2
_geom_bond_distance
_geom_bond_site_symmetry_2
_ccdc_geom_bond_type
Cd0 O7 2.298 . S
Cd0 O19 2.255 . S
Cd0 O23 2.218 1_655 S
Cd1 O8 2.269 . S
Cd1 O11 2.237 1_665 S
Cd1 O20 2.201 1_554 S
C2 O10 1.266 . S
C2 O11 1.194 . S
Cd3 O9 2.255 . S
Cd3 O13 2.218 1_455 S
Cd3 O16 2.298 . S
Cd4 O10 2.201 1_556 S
Cd4 O17 2.269 . S
Cd4 O21 2.237 1_445 S
C5 O6 1.201 . S
C5 O13 1.235 . S
O6 C5 1.201 . S
O7 Cd0 2.298 . S
O7 C22 1.265 . S
O8 Cd1 2.269 . S
O8 C22 1.233 . S
O9 Cd3 2.255 . S
O9 C24 1.210 1_455 S
O10 C2 1.266 . S
O10 Cd4 2.201 1_554 S
O11 Cd1 2.237 1_445 S
O11 C2 1.194 . S
C12 O16 1.265 . S
C12 O17 1.233 . S
O13 Cd3 2.218 1_655 S
O13 C5 1.235 . S
C14 O15 1.269 . S
C14 O19 1.210 1_455 S
O15 C14 1.269 . S
O16 Cd3 2.298 . S
O16 C12 1.265 . S
O17 Cd4 2.269 . S
O17 C12 1.233 . S
C18 O20 1.266 . S
C18 O21 1.194 . S
O19 Cd0 2.255 . S
O19 C14 1.210 1_655 S
O20 Cd1 2.201 1_556 S
O20 C18 1.266 . S
O21 Cd4 2.237 1_665 S
O21 C18 1.194 . S
C22 O7 1.265 . S
C22 O8 1.233 . S
O23 Cd0 2.218 1_455 S
O23 C26 1.235 . S
C24 O9 1.210 1_655 S
C24 O25 1.269 . S
O25 C24 1.269 . S
C26 O23 1.235 . S
C26 O27 1.201 . S
O27 C26 1.201 . S
Cd28 O35 2.298 . S
Cd28 O47 2.255 . S
Cd28 O51 2.218 . S
Cd29 O36 2.269 . S
Cd29 O39 2.237 . S
Cd29 O48 2.201 . S
C30 O38 1.266 . S
C30 O39 1.194 . S
Cd31 O37 2.255 . S
Cd31 O41 2.218 . S
Cd31 O44 2.298 . S
Cd32 O38 2.201 . S
Cd32 O45 2.269 . S
Cd32 O49 2.237 . S
C33 O34 1.201 . S
C33 O41 1.235 . S
O34 C33 1.201 . S
O35 Cd28 2.298 . S
O35 C50 1.265 . S
O36 Cd29 2.269 . S
O36 C50 1.233 . S
O37 Cd31 2.255 . S
O37 C52 1.210 . S
O38 C30 1.266 . S
O38 Cd32 2.201 . S
O39 Cd29 2.237 . S
O39 C30 1.194 . S
C40 O44 1.265 . S
C40 O45 1.233 . S
O41 Cd31 2.218 . S
O41 C33 1.235 . S
C42 O43 1.269 . S
C42 O47 1.210 . S
O43 C42 1.269 . S
O44 Cd31 2.298 . S
O44 C40 1.265 . S
O45 Cd32 2.269 . S
O45 C40 1.233 . S
C46 O48 1.266 . S
C46 O49 1.194 . S
O47 Cd28 2.255 . S
O47 C42 1.210 . S
O48 Cd29 2.201 . S
O48 C46 1.266 . S
O49 Cd32 2.237 . S
O49 C46 1.194 . S
C50 O35 1.265 . S
C50 O36 1.233 . S
O51 Cd28 2.218 . S
O51 C54 1.235 . S
C52 O37 1.210 . S
C52 O53 1.269 . S
O53 C52 1.269 . S
C54 O51 1.235 . S
C54 O55 1.201 . S
O55 C54 1.201 . S
Cd56 O63 2.298 . S
Cd56 O75 2.255 . S
Cd56 O79 2.218 . S
Cd57 O64 2.269 . S
Cd57 O67 2.237 . S
Cd57 O76 2.201 . S
C58 O66 1.266 . S
C58 O67 1.194 . S
Cd59 O65 2.255 . S
Cd59 O69 2.218 . S
Cd59 O72 2.298 . S
Cd60 O66 2.201 . S
Cd60 O73 2.269 . S
Cd60 O77 2.237 . S
C61 O62 1.201 . S
C61 O69 1.235 . S
O62 C61 1.201 . S
O63 Cd56 2.298 . S
O63 C78 1.265 . S
O64 Cd57 2.269 . S
O64 C78 1.233 . S
O65 Cd59 2.255 . S
O65 C80 1.210 . S
O66 C58 1.266 . S
O66 Cd60 2.201 . S
O67 Cd57 2.237 . S
O67 C58 1.194 . S
C68 O72 1.265 . S
C68 O73 1.233 . S
O69 Cd59 2.218 . S
O69 C61 1.235 . S
C70 O71 1.269 . S
C70 O75 1.210 . S
O71 C70 1.269 . S
O72 Cd59 2.298 . S
O72 C68 1.265 . S
O73 Cd60 2.269 . S
O73 C68 1.233 . S
C74 O76 1.266 . S
C74 O77 1.194 . S
O75 Cd56 2.255 . S
O75 C70 1.210 . S
O76 Cd57 2.201 . S
O76 C74 1.266 . S
O77 Cd60 2.237 . S
O77 C74 1.194 . S
C78 O63 1.265 . S
C78 O64 1.233 . S
O79 Cd56 2.218 . S
O79 C82 1.235 . S
C80 O65 1.210 . S
C80 O81 1.269 . S
O81 C80 1.269 . S
C82 O79 1.235 . S
C82 O83 1.201 . S
O83 C82 1.201 . S
C84 C85 1.349 1_565 S
C84 C86 1.327 . S
C84 H109 0.950 . S
C85 C84 1.349 1_545 S
C85 C101 1.349 1_655 S
C86 C84 1.327 . S
C86 C105 1.429 1_565 S
C86 H110 0.950 . S
C87 C104 1.574 . S
C87 C106 1.368 1_455 S
C87 H111 0.949 . S
H88 C92 0.949 . S
C89 C90 1.349 1_545 S
C89 C91 1.327 . S
C89 H112 0.950 . S
C90 C89 1.349 1_565 S
C90 C102 1.349 1_455 S
C91 C89 1.327 . S
C91 C107 1.429 1_545 S
C91 H113 0.950 . S
C92 H88 0.949 . S
C92 C100 1.574 . S
C92 C108 1.368 1_655 S
H93 C101 0.950 . S
H94 C99 0.950 . S
H95 C100 0.949 . S
H96 C102 0.950 . S
H97 C103 0.950 . S
H98 C104 0.949 . S
C99 H94 0.950 . S
C99 C101 1.327 . S
C99 C105 1.429 1_455 S
C100 C92 1.574 . S
C100 H95 0.949 . S
C100 C106 1.368 1_565 S
C101 C85 1.349 1_455 S
C101 H93 0.950 . S
C101 C99 1.327 . S
C102 C90 1.349 1_655 S
C102 H96 0.950 . S
C102 C103 1.327 . S
C103 H97 0.950 . S
C103 C102 1.327 . S
C103 C107 1.429 1_655 S
C104 C87 1.574 . S
C104 H98 0.949 . S
C104 C108 1.368 1_545 S
C105 C86 1.429 1_545 S
C105 C99 1.429 1_655 S
C105 C106 1.523 . S
C106 C87 1.368 1_655 S
C106 C100 1.368 1_545 S
C106 C105 1.523 . S
C107 C91 1.429 1_565 S
C107 C103 1.429 1_455 S
C107 C108 1.523 . S
C108 C92 1.368 1_455 S
C108 C104 1.368 1_565 S
C108 C107 1.523 . S
H109 C84 0.950 . S
H110 C86 0.950 . S
H111 C87 0.949 . S
H112 C89 0.950 . S
H113 C91 0.950 . S
C114 C115 1.349 . S
C114 C116 1.327 . S
C114 H139 0.950 . S
C115 C114 1.349 . S
C115 C131 1.349 . S
C116 C114 1.327 . S
C116 C135 1.429 . S
C116 H140 0.950 . S
C117 C134 1.574 . S
C117 C136 1.368 . S
C117 H141 0.949 . S
H118 C122 0.949 . S
C119 C120 1.349 . S
C119 C121 1.327 1_554 S
C119 H142 0.950 . S
C120 C119 1.349 . S
C120 C132 1.349 . S
C121 C119 1.327 1_556 S
C121 C137 1.429 . S
C121 H143 0.950 . S
C122 H118 0.949 . S
C122 C130 1.574 . S
C122 C138 1.368 . S
H123 C131 0.950 . S
H124 C129 0.950 . S
H125 C130 0.949 . S
H126 C132 0.950 . S
H127 C133 0.950 . S
H128 C134 0.949 . S
C129 H124 0.950 . S
C129 C131 1.327 . S
C129 C135 1.429 . S
C130 C122 1.574 . S
C130 H125 0.949 . S
C130 C136 1.368 . S
C131 C115 1.349 . S
C131 H123 0.950 . S
C131 C129 1.327 . S
C132 C120 1.349 . S
C132 H126 0.950 . S
C132 C133 1.327 1_554 S
C133 H127 0.950 . S
C133 C132 1.327 1_556 S
C133 C137 1.429 . S
C134 C117 1.574 . S
C134 H128 0.949 . S
C134 C138 1.368 . S
C135 C116 1.429 . S
C135 C129 1.429 . S
C135 C136 1.523 . S
C136 C117 1.368 . S
C136 C130 1.368 . S
C136 C135 1.523 . S
C137 C121 1.429 . S
C137 C133 1.429 . S
C137 C138 1.523 . S
C138 C122 1.368 . S
C138 C134 1.368 . S
C138 C137 1.523 . S
H139 C114 0.950 . S
H140 C116 0.950 . S
H141 C117 0.949 . S
H142 C119 0.950 . S
H143 C121 0.950 . S
C144 C145 1.349 . S
C144 C146 1.327 1_556 S
C144 H169 0.950 . S
C145 C144 1.349 . S
C145 C161 1.349 . S
C146 C144 1.327 1_554 S
C146 C165 1.429 . S
C146 H170 0.950 . S
C147 C164 1.574 . S
C147 C166 1.368 . S
C147 H171 0.949 . S
H148 C152 0.949 . S
C149 C150 1.349 . S
C149 C151 1.327 . S
C149 H172 0.950 . S
C150 C149 1.349 . S
C150 C162 1.349 . S
C151 C149 1.327 . S
C151 C167 1.429 . S
C151 H173 0.950 . S
C152 H148 0.949 . S
C152 C160 1.574 . S
C152 C168 1.368 . S
H153 C161 0.950 . S
H154 C159 0.950 . S
H155 C160 0.949 . S
H156 C162 0.950 . S
H157 C163 0.950 . S
H158 C164 0.949 . S
C159 H154 0.950 . S
C159 C161 1.327 1_554 S
C159 C165 1.429 . S
C160 C152 1.574 . S
C160 H155 0.949 . S
C160 C166 1.368 . S
C161 C145 1.349 . S
C161 H153 0.950 . S
C161 C159 1.327 1_556 S
C162 C150 1.349 . S
C162 H156 0.950 . S
C162 C163 1.327 . S
C163 H157 0.950 . S
C163 C162 1.327 . S
C163 C167 1.429 . S
C164 C147 1.574 . S
C164 H158 0.949 . S
C164 C168 1.368 . S
C165 C146 1.429 . S
C165 C159 1.429 . S
C165 C166 1.523 . S
C166 C147 1.368 . S
C166 C160 1.368 . S
C166 C165 1.523 . S
C167 C151 1.429 . S
C167 C163 1.429 . S
C167 C168 1.523 . S
C168 C152 1.368 . S
C168 C164 1.368 . S
C168 C167 1.523 . S
H169 C144 0.950 . S
H170 C146 0.950 . S
H171 C147 0.949 . S
H172 C149 0.950 . S
H173 C151 0.950 . S
C174 C175 1.349 . S
C174 C176 1.327 . S
C174 H199 0.950 . S
C175 C174 1.349 . S
C175 C191 1.349 . S
C176 C174 1.327 . S
C176 C195 1.429 . S
C176 H200 0.950 . S
C177 C194 1.574 . S
C177 C196 1.368 . S
C177 H201 0.949 . S
H178 C182 0.949 1_655 S
C179 C180 1.349 . S
C179 C181 1.327 . S
C179 H202 0.950 . S
C180 C179 1.349 . S
C180 C192 1.349 . S
C181 C179 1.327 . S
C181 C197 1.429 . S
C181 H203 0.950 . S
C182 H178 0.949 1_455 S
C182 C190 1.574 . S
C182 C198 1.368 . S
H183 C191 0.950 . S
H184 C189 0.950 . S
H185 C190 0.949 . S
H186 C192 0.950 1_655 S
H187 C193 0.950 1_655 S
H188 C194 0.949 . S
C189 H184 0.950 . S
C189 C191 1.327 . S
C189 C195 1.429 . S
C190 C182 1.574 . S
C190 H185 0.949 . S
C190 C196 1.368 . S
C191 C175 1.349 . S
C191 H183 0.950 . S
C191 C189 1.327 . S
C192 C180 1.349 . S
C192 H186 0.950 1_455 S
C192 C193 1.327 . S
C193 H187 0.950 1_455 S
C193 C192 1.327 . S
C193 C197 1.429 . S
C194 C177 1.574 . S
C194 H188 0.949 . S
C194 C198 1.368 . S
C195 C176 1.429 . S
C195 C189 1.429 . S
C195 C196 1.523 . S
C196 C177 1.368 . S
C196 C190 1.368 . S
C196 C195 1.523 . S
C197 C181 1.429 . S
C197 C193 1.429 . S
C197 C198 1.523 . S
C198 C182 1.368 . S
C198 C194 1.368 . S
C198 C197 1.523 . S
H199 C174 0.950 . S
H200 C176 0.950 . S
H201 C177 0.949 . S
H202 C179 0.950 . S
H203 C181 0.950 . S
C204 C205 1.349 . S
C204 C206 1.327 . S
C204 H229 0.950 . S
C205 C204 1.349 . S
C205 C221 1.349 . S
C206 C204 1.327 . S
C206 C225 1.429 . S
C206 H230 0.950 . S
C207 C224 1.574 . S
C207 C226 1.368 . S
C207 H231 0.949 . S
H208 C212 0.949 1_655 S
C209 C210 1.349 . S
C209 C211 1.327 . S
C209 H232 0.950 . S
C210 C209 1.349 . S
C210 C222 1.349 1_455 S
C211 C209 1.327 . S
C211 C227 1.429 . S
C211 H233 0.950 . S
C212 H208 0.949 1_455 S
C212 C220 1.574 . S
C212 C228 1.368 . S
H213 C221 0.950 . S
H214 C219 0.950 . S
H215 C220 0.949 . S
H216 C222 0.950 . S
H217 C223 0.950 1_655 S
H218 C224 0.949 . S
C219 H214 0.950 . S
C219 C221 1.327 . S
C219 C225 1.429 . S
C220 C212 1.574 . S
C220 H215 0.949 . S
C220 C226 1.368 . S
C221 C205 1.349 . S
C221 H213 0.950 . S
C221 C219 1.327 . S
C222 C210 1.349 1_655 S
C222 H216 0.950 . S
C222 C223 1.327 1_655 S
C223 H217 0.950 1_455 S
C223 C222 1.327 1_455 S
C223 C227 1.429 . S
C224 C207 1.574 . S
C224 H218 0.949 . S
C224 C228 1.368 . S
C225 C206 1.429 . S
C225 C219 1.429 . S
C225 C226 1.523 . S
C226 C207 1.368 . S
C226 C220 1.368 . S
C226 C225 1.523 . S
C227 C211 1.429 . S
C227 C223 1.429 . S
C227 C228 1.523 . S
C228 C212 1.368 . S
C228 C224 1.368 . S
C228 C227 1.523 . S
H229 C204 0.950 . S
H230 C206 0.950 . S
H231 C207 0.949 . S
H232 C209 0.950 . S
H233 C211 0.950 . S
C234 C235 1.349 . S
C234 C236 1.327 . S
C234 H259 0.950 . S
C235 C234 1.349 . S
C235 C251 1.349 . S
C236 C234 1.327 . S
C236 C255 1.429 . S
C236 H260 0.950 . S
C237 C254 1.574 . S
C237 C256 1.368 . S
C237 H261 0.949 . S
H238 C242 0.949 . S
C239 C240 1.349 . S
C239 C241 1.327 . S
C239 H262 0.950 1_565 S
C240 C239 1.349 . S
C240 C252 1.349 . S
C241 C239 1.327 . S
C241 C257 1.429 . S
C241 H263 0.950 . S
C242 H238 0.949 . S
C242 C250 1.574 . S
C242 C258 1.368 . S
H243 C251 0.950 . S
H244 C249 0.950 . S
H245 C250 0.949 . S
H246 C252 0.950 . S
H247 C253 0.950 . S
H248 C254 0.949 . S
C249 H244 0.950 . S
C249 C251 1.327 . S
C249 C255 1.429 . S
C250 C242 1.574 . S
C250 H245 0.949 . S
C250 C256 1.368 . S
C251 C235 1.349 . S
C251 H243 0.950 . S
C251 C249 1.327 . S
C252 C240 1.349 . S
C252 H246 0.950 . S
C252 C253 1.327 . S
C253 H247 0.950 . S
C253 C252 1.327 . S
C253 C257 1.429 . S
C254 C237 1.574 . S
C254 H248 0.949 . S
C254 C258 1.368 . S
C255 C236 1.429 . S
C255 C249 1.429 . S
C255 C256 1.523 . S
C256 C237 1.368 . S
C256 C250 1.368 . S
C256 C255 1.523 . S
C257 C241 1.429 . S
C257 C253 1.429 . S
C257 C258 1.523 . S
C258 C242 1.368 . S
C258 C254 1.368 . S
C258 C257 1.523 . S
H259 C234 0.950 . S
H260 C236 0.950 . S
H261 C237 0.949 . S
H262 C239 0.950 1_545 S
H263 C241 0.950 . S
C264 C265 1.349 . S
C264 C266 1.327 . S
C264 H289 0.950 . S
C265 C264 1.349 . S
C265 C281 1.349 . S
C266 C264 1.327 . S
C266 C285 1.429 . S
C266 H290 0.950 . S
C267 C284 1.574 . S
C267 C286 1.368 . S
C267 H291 0.949 . S
H268 C272 0.949 . S
C269 C270 1.349 . S
C269 C271 1.327 . S
C269 H292 0.950 . S
C270 C269 1.349 . S
C270 C282 1.349 . S
C271 C269 1.327 . S
C271 C287 1.429 . S
C271 H293 0.950 . S
C272 H268 0.949 . S
C272 C280 1.574 . S
C272 C288 1.368 . S
H273 C281 0.950 . S
H274 C279 0.950 . S
H275 C280 0.949 . S
H276 C282 0.950 . S
H277 C283 0.950 . S
H278 C284 0.949 . S
C279 H274 0.950 . S
C279 C281 1.327 . S
C279 C285 1.429 . S
C280 C272 1.574 . S
C280 H275 0.949 . S
C280 C286 1.368 . S
C281 C265 1.349 . S
C281 H273 0.950 . S
C281 C279 1.327 . S
C282 C270 1.349 . S
C282 H276 0.950 . S
C282 C283 1.327 . S
C283 H277 0.950 . S
C283 C282 1.327 . S
C283 C287 1.429 . S
C284 C267 1.574 . S
C284 H278 0.949 . S
C284 C288 1.368 . S
C285 C266 1.429 . S
C285 C279 1.429 . S
C285 C286 1.523 . S
C286 C267 1.368 . S
C286 C280 1.368 . S
C286 C285 1.523 . S
C287 C271 1.429 . S
C287 C283 1.429 . S
C287 C288 1.523 . S
C288 C272 1.368 . S
C288 C284 1.368 . S
C288 C287 1.523 . S
H289 C264 0.950 . S
H290 C266 0.950 . S
H291 C267 0.949 . S
H292 C269 0.950 . S
H293 C271 0.950 . S
C294 C295 1.349 . S
C294 C296 1.327 . S
C294 H319 0.950 . S
C295 C294 1.349 . S
C295 C311 1.349 . S
C296 C294 1.327 . S
C296 C315 1.429 . S
C296 H320 0.950 . S
C297 C314 1.574 . S
C297 C316 1.368 . S
C297 H321 0.949 . S
H298 C302 0.949 . S
C299 C300 1.349 . S
C299 C301 1.327 . S
C299 H322 0.950 . S
C300 C299 1.349 . S
C300 C312 1.349 . S
C301 C299 1.327 . S
C301 C317 1.429 . S
C301 H323 0.950 . S
C302 H298 0.949 . S
C302 C310 1.574 . S
C302 C318 1.368 . S
H303 C311 0.950 . S
H304 C309 0.950 . S
H305 C310 0.949 . S
H306 C312 0.950 . S
H307 C313 0.950 . S
H308 C314 0.949 . S
C309 H304 0.950 . S
C309 C311 1.327 . S
C309 C315 1.429 . S
C310 C302 1.574 . S
C310 H305 0.949 . S
C310 C316 1.368 . S
C311 C295 1.349 . S
C311 H303 0.950 . S
C311 C309 1.327 . S
C312 C300 1.349 . S
C312 H306 0.950 . S
C312 C313 1.327 . S
C313 H307 0.950 . S
C313 C312 1.327 . S
C313 C317 1.429 . S
C314 C297 1.574 . S
C314 H308 0.949 . S
C314 C318 1.368 . S
C315 C296 1.429 . S
C315 C309 1.429 . S
C315 C316 1.523 . S
C316 C297 1.368 . S
C316 C310 1.368 . S
C316 C315 1.523 . S
C317 C301 1.429 . S
C317 C313 1.429 . S
C317 C318 1.523 . S
C318 C302 1.368 . S
C318 C314 1.368 . S
C318 C317 1.523 . S
H319 C294 0.950 . S
H320 C296 0.950 . S
H321 C297 0.949 . S
H322 C299 0.950 . S
H323 C301 0.950 . S
C324 C325 1.349 . S
C324 C326 1.327 . S
C324 H349 0.950 . S
C325 C324 1.349 . S
C325 C341 1.349 . S
C326 C324 1.327 . S
C326 C345 1.429 . S
C326 H350 0.950 . S
C327 C344 1.574 . S
C327 C346 1.368 . S
C327 H351 0.949 . S
H328 C332 0.949 . S
C329 C330 1.349 . S
C329 C331 1.327 . S
C329 H352 0.950 . S
C330 C329 1.349 . S
C330 C342 1.349 . S
C331 C329 1.327 . S
C331 C347 1.429 . S
C331 H353 0.950 . S
C332 H328 0.949 . S
C332 C340 1.574 . S
C332 C348 1.368 . S
H333 C341 0.950 . S
H334 C339 0.950 . S
H335 C340 0.949 . S
H336 C342 0.950 . S
H337 C343 0.950 . S
H338 C344 0.949 . S
C339 H334 0.950 . S
C339 C341 1.327 . S
C339 C345 1.429 . S
C340 C332 1.574 . S
C340 H335 0.949 . S
C340 C346 1.368 . S
C341 C325 1.349 . S
C341 H333 0.950 . S
C341 C339 1.327 . S
C342 C330 1.349 . S
C342 H336 0.950 . S
C342 C343 1.327 . S
C343 H337 0.950 . S
C343 C342 1.327 . S
C343 C347 1.429 . S
C344 C327 1.574 . S
C344 H338 0.949 . S
C344 C348 1.368 . S
C345 C326 1.429 . S
C345 C339 1.429 . S
C345 C346 1.523 . S
C346 C327 1.368 . S
C346 C340 1.368 . S
C346 C345 1.523 . S
C347 C331 1.429 . S
C347 C343 1.429 . S
C347 C348 1.523 . S
C348 C332 1.368 . S
C348 C344 1.368 . S
C348 C347 1.523 . S
H349 C324 0.950 . S
H350 C326 0.950 . S
H351 C327 0.949 . S
H352 C329 0.950 . S
H353 C331 0.950 . S
C354 C355 1.349 . S
C354 C356 1.327 . S
C354 H379 0.950 . S
C355 C354 1.349 . S
C355 C371 1.349 . S
C356 C354 1.327 . S
C356 C375 1.429 . S
C356 H380 0.950 . S
C357 C374 1.574 . S
C357 C376 1.368 . S
C357 H381 0.949 . S
H358 C362 0.949 . S
C359 C360 1.349 . S
C359 C361 1.327 . S
C359 H382 0.950 . S
C360 C359 1.349 . S
C360 C372 1.349 . S
C361 C359 1.327 . S
C361 C377 1.429 . S
C361 H383 0.950 . S
C362 H358 0.949 . S
C362 C370 1.574 . S
C362 C378 1.368 . S
H363 C371 0.950 . S
H364 C369 0.950 . S
H365 C370 0.949 . S
H366 C372 0.950 . S
H367 C373 0.950 . S
H368 C374 0.949 . S
C369 H364 0.950 . S
C369 C371 1.327 . S
C369 C375 1.429 . S
C370 C362 1.574 . S
C370 H365 0.949 . S
C370 C376 1.368 1_556 S
C371 C355 1.349 . S
C371 H363 0.950 . S
C371 C369 1.327 . S
C372 C360 1.349 . S
C372 H366 0.950 . S
C372 C373 1.327 . S
C373 H367 0.950 . S
C373 C372 1.327 . S
C373 C377 1.429 . S
C374 C357 1.574 . S
C374 H368 0.949 . S
C374 C378 1.368 1_554 S
C375 C356 1.429 . S
C375 C369 1.429 . S
C375 C376 1.523 . S
C376 C357 1.368 . S
C376 C370 1.368 1_554 S
C376 C375 1.523 . S
C377 C361 1.429 . S
C377 C373 1.429 . S
C377 C378 1.523 . S
C378 C362 1.368 . S
C378 C374 1.368 1_556 S
C378 C377 1.523 . S
H379 C354 0.950 . S
H380 C356 0.950 . S
H381 C357 0.949 . S
H382 C359 0.950 . S
H383 C361 0.950 . S
C384 C385 1.349 . S
C384 C386 1.327 . S
C384 H409 0.950 . S
C385 C384 1.349 . S
C385 C401 1.349 . S
C386 C384 1.327 . S
C386 C405 1.429 . S
C386 H410 0.950 . S
C387 C404 1.574 1_556 S
C387 C406 1.368 . S
C387 H411 0.949 . S
H388 C392 0.949 . S
C389 C390 1.349 . S
C389 C391 1.327 . S
C389 H412 0.950 . S
C390 C389 1.349 . S
C390 C402 1.349 . S
C391 C389 1.327 . S
C391 C407 1.429 . S
C391 H413 0.950 . S
C392 H388 0.949 . S
C392 C400 1.574 1_554 S
C392 C408 1.368 . S
H393 C401 0.950 . S
H394 C399 0.950 . S
H395 C400 0.949 . S
H396 C402 0.950 . S
H397 C403 0.950 . S
H398 C404 0.949 . S
C399 H394 0.950 . S
C399 C401 1.327 . S
C399 C405 1.429 . S
C400 C392 1.574 1_556 S
C400 H395 0.949 . S
C400 C406 1.368 1_545 S
C401 C385 1.349 . S
C401 H393 0.950 . S
C401 C399 1.327 . S
C402 C390 1.349 . S
C402 H396 0.950 . S
C402 C403 1.327 . S
C403 H397 0.950 . S
C403 C402 1.327 . S
C403 C407 1.429 . S
C404 C387 1.574 1_554 S
C404 H398 0.949 . S
C404 C408 1.368 1_565 S
C405 C386 1.429 . S
C405 C399 1.429 . S
C405 C406 1.523 . S
C406 C387 1.368 . S
C406 C400 1.368 1_565 S
C406 C405 1.523 . S
C407 C391 1.429 . S
C407 C403 1.429 . S
C407 C408 1.523 . S
C408 C392 1.368 . S
C408 C404 1.368 1_545 S
C408 C407 1.523 . S
H409 C384 0.950 . S
H410 C386 0.950 . S
H411 C387 0.949 . S
H412 C389 0.950 . S
H413 C391 0.950 . S
C414 C415 1.349 . S
C414 C416 1.327 . S
C414 H439 0.951 1_455 S
C415 C414 1.349 . S
C415 C431 1.349 . S
C416 C414 1.327 . S
C416 C435 1.429 . S
C416 H440 0.950 1_455 S
C417 C434 1.574 . S
C417 C436 1.368 1_554 S
C417 H441 0.949 . S
H418 C422 0.949 . S
C419 C420 1.349 . S
C419 C421 1.327 . S
C419 H442 0.951 1_655 S
C420 C419 1.349 . S
C420 C432 1.349 . S
C421 C419 1.327 . S
C421 C437 1.429 . S
C421 H443 0.950 1_655 S
C422 H418 0.949 . S
C422 C430 1.574 . S
C422 C438 1.368 1_556 S
H423 C431 0.950 . S
H424 C429 0.950 . S
H425 C430 0.949 . S
H426 C432 0.950 . S
H427 C433 0.950 . S
H428 C434 0.949 . S
C429 H424 0.950 . S
C429 C431 1.327 . S
C429 C435 1.429 . S
C430 C422 1.574 . S
C430 H425 0.949 . S
C430 C436 1.368 1_655 S
C431 C415 1.349 . S
C431 H423 0.950 . S
C431 C429 1.327 . S
C432 C420 1.349 . S
C432 H426 0.950 . S
C432 C433 1.327 . S
C433 H427 0.950 . S
C433 C432 1.327 . S
C433 C437 1.429 . S
C434 C417 1.574 . S
C434 H428 0.949 . S
C434 C438 1.368 1_455 S
C435 C416 1.429 . S
C435 C429 1.429 . S
C435 C436 1.523 . S
C436 C417 1.368 1_556 S
C436 C430 1.368 1_455 S
C436 C435 1.523 . S
C437 C421 1.429 . S
C437 C433 1.429 . S
C437 C438 1.523 . S
C438 C422 1.368 1_554 S
C438 C434 1.368 1_655 S
C438 C437 1.523 . S
H439 C414 0.951 1_655 S
H440 C416 0.950 1_655 S
H441 C417 0.949 . S
H442 C419 0.951 1_455 S
H443 C421 0.950 1_455 S
C85 C24 0.476 . S
C90 C14 0.476 . S
C115 C42 0.476 . S
C120 C52 0.476 . S
C145 C70 0.476 . S
C150 C80 0.476 . S
C175 C61 1.962 . S
C180 C26 1.962 . S
C205 C74 1.602 . S
C210 C2 1.599 . S
C235 C68 2.141 . S
C240 C22 2.140 . S
C265 C54 1.962 . S
C270 C5 1.963 . S
C295 C30 1.602 . S
C300 C18 1.604 . S
C325 C50 2.141 . S
C330 C12 2.143 . S
C355 C33 1.962 . S
C360 C82 1.962 . S
C385 C58 1.601 . S
C390 C46 1.601 . S
C415 C78 2.141 . S
C420 C40 2.141 . S
